drugbank_target|O60706 ATP-binding cassette sub-family C member 9 (DB00171; DB01016; DB09220)
 OpenBabel12092119323D

  0  0  0     0  0            999 V3000
M  V30 BEGIN CTAB
M  V30 COUNTS 24738 24991 0 0 0
M  V30 BEGIN ATOM
M  V30 1 H -0.908 1.98254 -0.117106 0
M  V30 2 N 0 1.576 0 0
M  V30 3 C 0.933 2.03868 1.02534 0
M  V30 4 C 1.911 0.928543 1.3348 0
M  V30 5 O 3.095 1.19667 1.45644 0
M  V30 6 C 0.222 2.43627 2.35294 0
M  V30 7 C -0.732 3.65373 2.2001 0
M  V30 8 S 0.101 5.13292 1.52614 0
M  V30 9 C 1.257 5.56322 2.86805 0
M  V30 10 H 1.49 2.90518 0.631377 0
M  V30 11 H -0.977 1.52953 0.210867 0
M  V30 12 H 0.981 2.67203 3.11629 0
M  V30 13 H -0.358 1.57376 2.7183 0
M  V30 14 H -1.165 3.90944 3.18086 0
M  V30 15 H -1.563 3.418 1.51819 0
M  V30 16 H 0.729 5.58782 3.83104 0
M  V30 17 H 1.672 6.56266 2.65933 0
M  V30 18 H 2.08 4.83886 2.90714 0
M  V30 19 N 1.4781 -0.272755 1.55222 0
M  V30 20 C 2.7031 -1.02683 1.80197 0
M  V30 21 C 3.1281 -1.79142 0.573551 0
M  V30 22 O 2.4861 -1.74917 -0.476849 0
M  V30 23 C 2.5341 -1.9609 3.02624 0
M  V30 24 O 1.6381 -3.04863 2.77727 0
M  V30 25 H 0.9791 -0.293557 0.595584 0
M  V30 26 H 3.5091 -0.30159 2.02365 0
M  V30 27 H 3.5191 -2.38039 3.31363 0
M  V30 28 H 2.1941 -1.39851 3.91682 0
M  V30 29 H 0.7711 -2.67228 2.60084 0
M  V30 30 N 2.9562 -1.48159 -0.537278 0
M  V30 31 C 3.8862 -1.65029 -1.6519 0
M  V30 32 C 4.8672 -0.499281 -1.62607 0
M  V30 33 O 6.0522 -0.730972 -1.79918 0
M  V30 34 C 3.1822 -1.68303 -3.03795 0
M  V30 35 C 2.1362 -2.8283 -3.21234 0
M  V30 36 C 1.4622 -2.71189 -4.60826 0
M  V30 37 C 2.7622 -4.24211 -3.04701 0
M  V30 38 H 4.4562 -2.58341 -1.51328 0
M  V30 39 H 2.0022 -1.24325 -0.726585 0
M  V30 40 H 3.9552 -1.78693 -3.81637 0
M  V30 41 H 2.6792 -0.715635 -3.18663 0
M  V30 42 H 1.3382 -2.71983 -2.45807 0
M  V30 43 H 0.9862 -1.72435 -4.7252 0
M  V30 44 H 0.6862 -3.48035 -4.7344 0
M  V30 45 H 2.2102 -2.83537 -5.40777 0
M  V30 46 H 3.6242 -4.3593 -3.72341 0
M  V30 47 H 2.0212 -5.01998 -3.28813 0
M  V30 48 H 3.0912 -4.41184 -2.01209 0
M  V30 49 N 4.4343 0.785586 -1.36625 0
M  V30 50 C 5.6593 1.57963 -1.34397 0
M  V30 51 C 6.0843 1.87964 0.071526 0
M  V30 52 O 5.4423 1.48182 1.0446 0
M  V30 53 C 5.4903 2.87511 -2.17646 0
M  V30 54 O 4.5943 3.81281 -1.57158 0
M  V30 55 H 3.9353 0.479014 -0.459828 0
M  V30 56 H 6.4653 0.973411 -1.79961 0
M  V30 57 H 6.4753 3.36745 -2.30362 0
M  V30 58 H 5.1503 2.65002 -3.20541 0
M  V30 59 H 3.7273 3.39885 -1.53403 0
M  V30 60 N 5.9124 1.20967 1.01018 0
M  V30 61 C 7.1594 1.02374 1.74716 0
M  V30 62 C 7.4874 -0.443375 1.89379 0
M  V30 63 O 6.7424 -1.34535 1.42123 0
M  V30 64 C 7.0414 1.65997 3.16512 0
M  V30 65 C 6.7074 3.15831 3.2181 0
M  V30 66 C 5.3694 3.56719 3.22963 0
M  V30 67 C 7.7214 4.11816 3.19464 0
M  V30 68 C 5.0494 4.92107 3.19449 0
M  V30 69 C 7.4014 5.47158 3.17491 0
M  V30 70 C 6.0654 5.87451 3.16951 0
M  V30 71 H 5.3354 0.374614 0.639332 0
M  V30 72 H 7.9824 1.50485 1.18434 0
M  V30 73 H 6.2874 1.10166 3.75993 0
M  V30 74 H 7.9844 1.49119 3.72242 0
M  V30 75 H 4.5744 2.83263 3.21652 0
M  V30 76 H 8.7584 3.81257 3.17737 0
M  V30 77 H 4.0144 5.22579 3.17366 0
M  V30 78 H 8.1884 6.21274 3.14629 0
M  V30 79 H 5.8154 6.92329 3.13983 0
M  V30 80 N 7.3905 -1.2043 1.01659 0
M  V30 81 C 8.6305 -1.91507 0.714456 0
M  V30 82 C 8.9945 -1.77073 -0.742237 0
M  V30 83 O 10.1955 -2.42631 -1.15688 0
M  V30 84 C 8.4665 -3.38795 1.13809 0
M  V30 85 S 10.0255 -4.28216 0.957925 0
M  V30 86 H 6.8435 -0.661571 0.260471 0
M  V30 87 H 9.4455 -1.45671 1.30384 0
M  V30 88 H 8.1495 -3.46822 2.19415 0
M  V30 89 H 7.6805 -3.89656 0.541474 0
M  V30 90 H 9.6955 -4.96007 -0.138531 0
M  V30 91 N 8.8686 -0.792821 -1.36206 0
M  V30 92 C 10.1166 -0.366062 -1.98757 0
M  V30 93 C 10.4376 1.0668 -1.63231 0
M  V30 94 O 9.7076 1.73587 -0.907978 0
M  V30 95 H 8.2876 -0.132364 -0.735179 0
M  V30 96 H 10.9496 -1.01562 -1.66347 0
M  V30 97 H 10.0456 -0.460638 -3.08682 0
M  V30 98 N 10.3467 1.47872 -0.545128 0
M  V30 99 C 11.2947 2.31533 0.222512 0
M  V30 100 C 12.2887 1.42177 0.920985 0
M  V30 101 O 13.4947 1.59005 0.843645 0
M  V30 102 H 9.8697 0.746519 0.0906278 0
M  V30 103 H 11.8407 2.94139 -0.50246 0
M  V30 104 C 10.5897 3.2457 1.24699 0
M  V30 105 H 9.9127 3.93283 0.718944 0
M  V30 106 H 11.3527 3.85963 1.75523 0
M  V30 107 C 9.8117 2.47237 2.28856 0
M  V30 108 O 10.3417 2.20808 3.35569 0
M  V30 109 N 8.5477 2.08461 2.02466 0
M  V30 110 H 8.0947 2.30155 1.157 0
M  V30 111 H 8.0527 1.57033 2.72375 0
M  V30 112 N 11.8248 0.280983 1.55075 0
M  V30 113 C 12.7728 -0.619864 2.24188 0
M  V30 114 C 13.7668 -1.15315 1.24092 0
M  V30 115 O 14.9728 -1.1061 1.42005 0
M  V30 116 H 11.3478 -0.218459 0.719569 0
M  V30 117 H 13.3188 -0.0141831 2.98397 0
M  V30 118 C 12.0678 -1.7899 2.98091 0
M  V30 119 H 11.3908 -1.38874 3.74905 0
M  V30 120 H 12.8308 -2.39672 3.49762 0
M  V30 121 C 11.2898 -2.68192 2.03899 0
M  V30 122 O 11.8198 -3.6872 1.594 0
M  V30 123 N 10.0258 -2.35488 1.70275 0
M  V30 124 H 9.5728 -1.53787 2.06658 0
M  V30 125 H 9.5308 -2.95442 1.07524 0
M  V30 126 N 13.3029 -1.57598 0.00835791 0
M  V30 127 C 14.5519 -1.90107 -0.673968 0
M  V30 128 C 14.8649 -0.884275 -1.7447 0
M  V30 129 O 16.0709 -1.09987 -2.48224 0
M  V30 130 C 14.5269 -3.37497 -1.24995 0
M  V30 131 C 14.1349 -4.47491 -0.2136 0
M  V30 132 C 15.8789 -3.79104 -1.90999 0
M  V30 133 C 13.7859 -5.85963 -0.80005 0
M  V30 134 H 12.7159 -0.709393 -0.255495 0
M  V30 135 H 15.3669 -1.83365 0.0702693 0
M  V30 136 H 13.7489 -3.39102 -2.04513 0
M  V30 137 H 14.9229 -4.57414 0.557596 0
M  V30 138 H 13.2379 -4.14956 0.346474 0
M  V30 139 H 15.8349 -4.79901 -2.35795 0
M  V30 140 H 16.1779 -3.1306 -2.74407 0
M  V30 141 H 16.7109 -3.79833 -1.18203 0
M  V30 142 H 13.4499 -6.555 -0.00456708 0
M  V30 143 H 12.9699 -5.79687 -1.54021 0
M  V30 144 H 14.6489 -6.33884 -1.29615 0
M  V30 145 N 14.781 0.264519 -1.55364 0
M  V30 146 C 16.006 1.01726 -1.80739 0
M  V30 147 C 16.431 1.78836 -0.583044 0
M  V30 148 O 15.789 1.75167 0.467566 0
M  V30 149 C 15.837 1.94482 -3.03659 0
M  V30 150 O 14.941 3.03386 -2.7934 0
M  V30 151 H 14.282 0.290395 -0.597132 0
M  V30 152 H 16.812 0.290854 -2.02522 0
M  V30 153 H 16.822 2.36278 -3.32621 0
M  V30 154 H 15.497 1.37772 -3.92418 0
M  V30 155 H 14.074 2.65844 -2.61498 0
M  V30 156 N 16.2591 1.48442 0.529413 0
M  V30 157 C 17.4841 1.60406 1.31471 0
M  V30 158 C 17.9091 0.264738 1.86228 0
M  V30 159 O 17.2671 -0.763668 1.64432 0
M  V30 160 C 17.3151 2.65419 2.44101 0
M  V30 161 O 16.4191 2.22618 3.47153 0
M  V30 162 H 15.7601 0.537863 0.389357 0
M  V30 163 H 18.2901 1.94432 0.636965 0
M  V30 164 H 18.3001 2.86709 2.90279 0
M  V30 165 H 16.9751 3.62652 2.03608 0
M  V30 166 H 15.5521 2.11543 3.0709 0
M  V30 167 N 17.7372 -0.778329 1.37039 0
M  V30 168 C 18.9672 -1.56507 1.34868 0
M  V30 169 C 19.3752 -1.89072 -0.0694802 0
M  V30 170 O 18.7182 -1.51434 -1.03987 0
M  V30 171 C 18.7802 -2.90641 2.11585 0
M  V30 172 C 18.4442 -2.80746 3.60598 0
M  V30 173 C 19.4412 -2.52226 4.54618 0
M  V30 174 C 17.1262 -2.98974 4.03633 0
M  V30 175 C 19.1202 -2.42054 5.89651 0
M  V30 176 C 16.8072 -2.88423 5.38754 0
M  V30 177 C 17.8052 -2.60002 6.31576 0
M  V30 178 O 17.4932 -2.49465 7.64214 0
M  V30 179 H 17.2252 -0.491723 0.463879 0
M  V30 180 H 19.7792 -0.973053 1.80889 0
M  V30 181 H 18.0092 -3.51936 1.60243 0
M  V30 182 H 19.6982 -3.51992 2.0213 0
M  V30 183 H 20.4642 -2.37835 4.22681 0
M  V30 184 H 16.3432 -3.20099 3.31749 0
M  V30 185 H 19.8872 -2.19791 6.62071 0
M  V30 186 H 15.7842 -3.0238 5.70295 0
M  V30 187 H 16.5522 -2.64864 7.74461 0
M  V30 188 N 19.2153 -1.21501 -1.00376 0
M  V30 189 C 20.1633 -0.972442 -2.11297 0
M  V30 190 C 21.1573 0.080731 -1.69208 0
M  V30 191 O 22.3633 -0.0707666 -1.79861 0
M  V30 192 H 18.7383 -0.297218 -0.690772 0
M  V30 193 H 20.7093 -1.91394 -2.28934 0
M  V30 194 C 19.4583 -0.555065 -3.43241 0
M  V30 195 H 18.7813 -1.35709 -3.76062 0
M  V30 196 H 20.2213 -0.424664 -4.21868 0
M  V30 197 C 18.6803 0.734147 -3.28804 0
M  V30 198 O 19.2103 1.78937 -3.59645 0
M  V30 199 N 17.4163 0.701133 -2.82015 0
M  V30 200 H 16.9633 -0.157874 -2.57116 0
M  V30 201 H 16.9213 1.56403 -2.72737 0
M  V30 202 N 20.6934 1.19889 -1.02296 0
M  V30 203 C 21.9424 1.88743 -0.711257 0
M  V30 204 C 22.2554 1.80112 0.762817 0
M  V30 205 O 23.4614 2.44161 1.18733 0
M  V30 206 C 21.9174 3.38525 -1.22185 0
M  V30 207 C 21.5254 3.55727 -2.72328 0
M  V30 208 C 23.2694 4.12893 -0.985864 0
M  V30 209 C 21.1764 4.99369 -3.16835 0
M  V30 210 H 20.1064 0.706885 -0.262353 0
M  V30 211 H 22.7574 1.35586 -1.23648 0
M  V30 212 H 21.1394 3.91044 -0.624571 0
M  V30 213 H 22.3134 3.13564 -3.3766 0
M  V30 214 H 20.6284 2.94739 -2.9414 0
M  V30 215 H 23.2254 5.18813 -1.29374 0
M  V30 216 H 23.5684 4.16228 0.0775055 0
M  V30 217 H 24.1014 3.66494 -1.54684 0
M  V30 218 H 20.8404 5.01193 -4.22476 0
M  V30 219 H 20.3604 5.42317 -2.56228 0
M  V30 220 H 22.0394 5.67988 -3.09837 0
M  V30 221 N 22.1715 0.800033 1.35784 0
M  V30 222 C 23.1195 0.193851 2.31791 0
M  V30 223 C 24.1135 -0.652744 1.56319 0
M  V30 224 O 25.3195 -0.546641 1.71499 0
M  V30 225 H 21.6945 0.04392 0.750716 0
M  V30 226 H 23.6655 1.01883 2.80468 0
M  V30 227 C 22.4145 -0.648338 3.41602 0
M  V30 228 H 21.7375 -0.00624665 3.998 0
M  V30 229 H 23.1775 -1.03898 4.11073 0
M  V30 230 C 21.6365 -1.8111 2.84079 0
M  V30 231 O 22.1665 -2.90825 2.77099 0
M  V30 232 N 20.3725 -1.62056 2.41218 0
M  V30 233 H 19.9195 -0.728123 2.47095 0
M  V30 234 H 19.8775 -2.40013 2.03079 0
M  V30 235 N 23.6496 -1.47581 0.552962 0
M  V30 236 C 24.9266 -1.95563 -0.0381515 0
M  V30 237 C 25.3066 -1.49552 -1.48988 0
M  V30 238 O 24.6546 -0.732414 -2.16444 0
M  V30 239 C 24.8646 -3.48848 0.102919 0
M  V30 240 C 26.2126 -4.24577 -0.0446082 0
M  V30 241 O 27.2366 -3.56187 0.0302548 0
M  V30 242 O 26.0956 -5.46116 -0.204923 0
M  V30 243 H 23.1896 -0.824321 -0.0665067 0
M  V30 244 H 25.7356 -1.58001 0.619186 0
M  V30 245 H 24.5076 -3.75129 1.11328 0
M  V30 246 H 24.1306 -3.93165 -0.592224 0
M  V30 247 N 25.1277 -0.289203 -1.54924 0
M  V30 248 C 26.3757 0.322879 -1.99504 0
M  V30 249 C 26.6967 1.55313 -1.1791 0
M  V30 250 O 25.9667 1.94001 -0.272097 0
M  V30 251 H 24.5467 0.122291 -0.736922 0
M  V30 252 H 27.2087 -0.397802 -1.90797 0
M  V30 253 H 26.3047 0.603061 -3.06218 0
M  V30 254 N 26.6058 1.57591 -0.0167156 0
M  V30 255 C 27.8518 1.91567 0.665582 0
M  V30 256 C 28.1848 0.892298 1.72487 0
M  V30 257 O 27.4598 -0.0867127 1.94307 0
M  V30 258 C 27.7428 3.36069 1.29342 0
M  V30 259 C 27.5958 4.49135 0.244541 0
M  V30 260 C 28.9148 3.803 2.21495 0
M  V30 261 H 26.0338 0.69666 0.240488 0
M  V30 262 H 28.6758 1.89866 -0.0714356 0
M  V30 263 H 26.8258 3.3765 1.92158 0
M  V30 264 H 28.4978 4.59689 -0.385228 0
M  V30 265 H 26.7408 4.3165 -0.431379 0
M  V30 266 H 27.4118 5.47242 0.723207 0
M  V30 267 H 29.8878 3.80377 1.68678 0
M  V30 268 H 28.7638 4.82127 2.62382 0
M  V30 269 H 29.0248 3.15104 3.101 0
M  V30 270 N 28.0839 -0.256276 1.55502 0
M  V30 271 C 29.0139 -1.32102 1.92539 0
M  V30 272 C 29.9949 -1.50684 0.789194 0
M  V30 273 O 31.1799 -1.63449 1.04872 0
M  V30 274 C 28.3099 -2.67752 2.21192 0
M  V30 275 C 27.2639 -2.63878 3.36975 0
M  V30 276 C 26.5899 -4.03236 3.51147 0
M  V30 277 C 27.8899 -2.21682 4.72921 0
M  V30 278 H 29.5839 -1.01351 2.81724 0
M  V30 279 H 27.1299 -0.486105 1.35547 0
M  V30 280 H 29.0829 -3.42365 2.45691 0
M  V30 281 H 27.8069 -3.0012 1.28824 0
M  V30 282 H 26.4659 -1.91722 3.12471 0
M  V30 283 H 26.1139 -4.32854 2.56216 0
M  V30 284 H 25.8139 -4.01535 4.29003 0
M  V30 285 H 27.3379 -4.79563 3.77957 0
M  V30 286 H 28.7519 -2.86023 4.96854 0
M  V30 287 H 27.1489 -2.3111 5.53812 0
M  V30 288 H 28.2189 -1.16833 4.70615 0
M  V30 289 N 29.562 -1.4872 -0.521534 0
M  V30 290 C 30.494 -1.59968 -1.64143 0
M  V30 291 C 31.507 -0.483463 -1.55456 0
M  V30 292 O 32.696 -0.75467 -1.61762 0
M  V30 293 C 29.796 -1.52127 -3.02838 0
M  V30 294 C 28.969 -2.78932 -3.36921 0
M  V30 295 C 28.028 -2.64428 -4.54933 0
M  V30 296 O 27.054 -3.38331 -4.57735 0
M  V30 297 N 28.256 -1.74606 -5.53618 0
M  V30 298 H 31.021 -2.56548 -1.54929 0
M  V30 299 H 28.582 -1.45551 -0.708988 0
M  V30 300 H 30.574 -1.40106 -3.79674 0
M  V30 301 H 29.144 -0.634868 -3.06085 0
M  V30 302 H 28.364 -3.05455 -2.4918 0
M  V30 303 H 29.652 -3.63041 -3.56481 0
M  V30 304 H 29.05 -1.13782 -5.54139 0
M  V30 305 H 27.607 -1.6852 -6.29638 0
M  V30 306 N 31.0401 0.771051 -1.3745 0
M  V30 307 C 31.9881 1.90574 -1.33358 0
M  V30 308 C 32.9821 1.67936 -0.22224 0
M  V30 309 O 34.1881 1.75717 -0.390304 0
M  V30 310 H 30.5631 0.626714 -0.415612 0
M  V30 311 H 32.5341 1.91142 -2.29144 0
M  V30 312 C 31.2831 3.27845 -1.15813 0
M  V30 313 H 30.6061 3.45842 -2.00583 0
M  V30 314 H 32.0461 4.07538 -1.17 0
M  V30 315 C 30.5051 3.36625 0.136165 0
M  V30 316 O 31.0351 3.85785 1.11949 0
M  V30 317 N 29.2411 2.89997 0.187099 0
M  V30 318 H 28.7881 2.50182 -0.613753 0
M  V30 319 H 28.7461 2.96252 1.05272 0
M  V30 320 N 32.5182 1.22032 0.997298 0
M  V30 321 C 33.7432 1.06921 1.77715 0
M  V30 322 C 34.1682 -0.376226 1.84299 0
M  V30 323 O 33.5262 -1.27165 1.29223 0
M  V30 324 C 33.5742 1.67996 3.19076 0
M  V30 325 O 32.6782 0.930653 4.01762 0
M  V30 326 H 32.0192 0.375814 0.547412 0
M  V30 327 H 34.5492 1.61737 1.25309 0
M  V30 328 H 34.5592 1.72538 3.69723 0
M  V30 329 H 33.2342 2.73182 3.13599 0
M  V30 330 H 31.8112 0.960917 3.60307 0
M  V30 331 N 33.9963 -1.19345 1.0293 0
M  V30 332 C 35.2363 -1.90738 0.734727 0
M  V30 333 C 35.6003 -1.7785 -0.723414 0
M  V30 334 O 36.8013 -2.43844 -1.13108 0
M  V30 335 C 35.0723 -3.37569 1.17396 0
M  V30 336 S 36.6313 -4.27176 1.00329 0
M  V30 337 H 33.4493 -0.658771 0.267474 0
M  V30 338 H 36.0513 -1.4428 1.31922 0
M  V30 339 H 34.7553 -3.44475 2.23081 0
M  V30 340 H 34.2863 -3.8906 0.582772 0
M  V30 341 H 36.3013 -4.96126 -0.0859152 0
M  V30 342 N 35.4744 -0.807222 -1.35358 0
M  V30 343 C 36.7214 -0.387888 -1.9875 0
M  V30 344 C 37.0494 1.04509 -1.64037 0
M  V30 345 O 36.3044 1.73986 -0.895946 0
M  V30 346 C 36.6034 -0.519036 -3.53611 0
M  V30 347 C 36.2694 -1.91542 -4.08194 0
M  V30 348 C 34.9314 -2.29745 -4.22813 0
M  V30 349 C 37.2834 -2.82896 -4.37744 0
M  V30 350 C 34.6114 -3.58668 -4.643 0
M  V30 351 C 36.9634 -4.11265 -4.8067 0
M  V30 352 C 35.6274 -4.49466 -4.93494 0
M  V30 353 H 34.8974 -0.141938 -0.727279 0
M  V30 354 H 37.5444 -1.02814 -1.6156 0
M  V30 355 H 35.8494 0.204658 -3.91265 0
M  V30 356 H 37.5464 -0.175345 -4.00616 0
M  V30 357 H 34.1364 -1.60862 -3.97268 0
M  V30 358 H 38.3204 -2.54629 -4.26002 0
M  V30 359 H 33.5764 -3.88113 -4.72418 0
M  V30 360 H 37.7504 -4.82153 -5.02496 0
M  V30 361 H 35.3774 -5.49418 -5.25399 0
M  V30 362 N 36.9525 1.47285 -0.560781 0
M  V30 363 C 38.1985 2.02764 -0.0381184 0
M  V30 364 C 38.5315 1.43384 1.30976 0
M  V30 365 O 37.8065 0.590733 1.85312 0
M  V30 366 C 38.0895 3.60064 0.0511427 0
M  V30 367 C 37.9425 4.2987 -1.32408 0
M  V30 368 C 39.2615 4.33439 0.762795 0
M  V30 369 H 36.3805 0.736841 -0.0153264 0
M  V30 370 H 39.0225 1.75675 -0.723759 0
M  V30 371 H 37.1725 3.83274 0.635065 0
M  V30 372 H 38.8445 4.17989 -1.95148 0
M  V30 373 H 37.0875 3.90085 -1.8978 0
M  V30 374 H 37.7585 5.38478 -1.21431 0
M  V30 375 H 40.2345 4.15243 0.266965 0
M  V30 376 H 39.1105 5.43124 0.794221 0
M  V30 377 H 39.3715 4.02915 1.81966 0
M  V30 378 N 38.4306 0.297415 1.54768 0
M  V30 379 C 39.7076 -0.365847 1.92148 0
M  V30 380 C 40.0876 -1.71975 1.22424 0
M  V30 381 O 39.4356 -2.25666 0.358739 0
M  V30 382 C 39.6456 -0.484056 3.45627 0
M  V30 383 C 40.9936 -0.756594 4.17805 0
M  V30 384 O 42.0176 -0.568007 3.51642 0
M  V30 385 O 40.8766 -1.11863 5.34929 0
M  V30 386 H 37.9706 -0.203919 0.801465 0
M  V30 387 H 40.5166 0.34521 1.66152 0
M  V30 388 H 39.2886 0.467865 3.88493 0
M  V30 389 H 38.9116 -1.24372 3.77647 0
M  V30 390 N 39.9087 -1.5758 0.0250728 0
M  V30 391 C 40.8717 -2.08896 -0.943139 0
M  V30 392 C 41.8717 -1.00321 -1.25668 0
M  V30 393 O 43.0617 -1.26495 -1.19769 0
M  V30 394 C 40.1937 -2.55143 -2.26086 0
M  V30 395 H 41.3867 -2.95723 -0.498775 0
M  V30 396 H 38.9397 -1.54703 -0.222888 0
M  V30 397 H 39.6747 -1.71633 -2.75159 0
M  V30 398 H 39.4597 -3.34461 -2.04641 0
M  V30 399 H 40.9497 -2.95083 -2.95492 0
M  V30 400 N 41.3868 0.248026 -1.55636 0
M  V30 401 C 42.3168 1.31079 -1.93237 0
M  V30 402 C 43.2978 1.50264 -0.797174 0
M  V30 403 O 44.4828 1.62891 -1.05737 0
M  V30 404 C 41.6128 2.66575 -2.22609 0
M  V30 405 C 40.5668 2.62087 -3.3837 0
M  V30 406 C 39.8928 4.01369 -3.53281 0
M  V30 407 C 41.1928 2.19171 -4.7409 0
M  V30 408 H 42.8868 0.998556 -2.82257 0
M  V30 409 H 40.4328 0.47891 -1.35803 0
M  V30 410 H 42.3858 3.41057 -2.47503 0
M  V30 411 H 41.1098 2.99432 -1.30414 0
M  V30 412 H 39.7688 1.90063 -3.13483 0
M  V30 413 H 39.4168 4.31489 -2.58508 0
M  V30 414 H 39.1168 3.99254 -4.31127 0
M  V30 415 H 40.6408 4.77552 -3.80495 0
M  V30 416 H 42.0548 2.83384 -4.98363 0
M  V30 417 H 40.4518 2.2817 -5.5503 0
M  V30 418 H 41.5218 1.14336 -4.71227 0
M  V30 419 N 42.8649 1.48995 0.513639 0
M  V30 420 C 43.8129 1.65199 1.63744 0
M  V30 421 C 44.8069 0.51809 1.61283 0
M  V30 422 O 46.0129 0.697335 1.65943 0
M  V30 423 H 42.3879 0.52069 0.542574 0
M  V30 424 H 44.3589 2.59552 1.47226 0
M  V30 425 C 43.1079 1.72409 3.01945 0
M  V30 426 H 42.4309 2.59029 3.04539 0
M  V30 427 H 43.8709 1.87785 3.80148 0
M  V30 428 C 42.3299 0.46618 3.33659 0
M  V30 429 O 42.8599 -0.413744 3.99564 0
M  V30 430 N 41.0659 0.332931 2.88687 0
M  V30 431 H 40.6129 1.04996 2.35231 0
M  V30 432 H 40.5709 -0.507665 3.10274 0
M  V30 433 N 44.343 -0.763751 1.37857 0
M  V30 434 C 45.273 -1.89103 1.36975 0
M  V30 435 C 46.254 -1.68439 0.237152 0
M  V30 436 O 47.439 -1.8918 0.438713 0
M  V30 437 C 44.569 -3.26496 1.18395 0
M  V30 438 C 43.523 -3.61741 2.28751 0
M  V30 439 C 42.849 -4.97762 1.95286 0
M  V30 440 C 44.149 -3.67665 3.70972 0
M  V30 441 H 45.843 -1.90099 2.31307 0
M  V30 442 H 43.389 -0.91319 1.11341 0
M  V30 443 H 45.342 -4.05003 1.16406 0
M  V30 444 H 44.066 -3.25955 0.205215 0
M  V30 445 H 42.725 -2.85547 2.29909 0
M  V30 446 H 42.373 -4.93769 0.959221 0
M  V30 447 H 42.073 -5.22313 2.69189 0
M  V30 448 H 43.597 -5.7866 1.94898 0
M  V30 449 H 45.011 -4.36307 3.719 0
M  V30 450 H 43.408 -4.03718 4.43995 0
M  V30 451 H 44.478 -2.68134 4.0402 0
M  V30 452 N 45.8211 -1.22559 -0.990812 0
M  V30 453 C 47.0671 -1.05297 -1.73322 0
M  V30 454 C 47.4001 0.410655 -1.89808 0
M  V30 455 O 46.6751 1.30439 -1.44277 0
M  V30 456 C 46.9581 -1.76713 -3.13759 0
M  V30 457 C 46.8111 -3.30684 -3.04907 0
M  V30 458 C 48.1301 -1.52121 -4.12974 0
M  V30 459 H 45.2491 -0.38392 -0.629106 0
M  V30 460 H 47.8911 -1.50926 -1.15418 0
M  V30 461 H 46.0411 -1.37924 -3.63193 0
M  V30 462 H 47.7131 -3.7893 -2.63077 0
M  V30 463 H 45.9561 -3.60253 -2.41661 0
M  V30 464 H 46.6271 -3.75833 -4.04294 0
M  V30 465 H 49.1031 -1.85819 -3.72304 0
M  V30 466 H 47.9791 -2.04582 -5.0935 0
M  V30 467 H 48.2401 -0.454257 -4.3976 0
M  V30 468 N 47.2992 1.18797 -1.03562 0
M  V30 469 C 48.7102 1.70322 -0.764676 0
M  V30 470 C 49.0612 1.82708 0.714996 0
M  V30 471 O 48.1862 1.50299 1.55689 0
M  V30 472 C 48.7812 3.09356 -1.38145 0
M  V30 473 C 47.3402 3.58114 -1.15895 0
M  V30 474 C 46.4872 2.34798 -1.4753 0
M  V30 475 H 49.4382 1.03543 -1.20268 0
M  V30 476 H 49.4592 3.72378 -0.781977 0
M  V30 477 H 48.9712 3.00309 -2.45837 0
M  V30 478 H 47.0722 3.72464 -0.100544 0
M  V30 479 H 47.1852 4.4184 -1.8524 0
M  V30 480 H 45.5492 2.38464 -0.894829 0
M  V30 481 H 46.3322 2.28375 -2.56319 0
M  V30 482 N 48.7773 0.814389 1.34928 0
M  V30 483 C 49.7273 0.202752 2.27097 0
M  V30 484 C 50.7113 -0.62799 1.48139 0
M  V30 485 O 51.9033 -0.483969 1.70255 0
M  V30 486 C 49.0323 -0.64146 3.37254 0
M  V30 487 C 48.1183 0.19944 4.23631 0
M  V30 488 N 48.5093 1.26628 4.89693 0
M  V30 489 C 46.8073 -0.0176433 4.45997 0
M  V30 490 C 47.5083 1.78031 5.53787 0
M  V30 491 N 46.4843 1.08553 5.32651 0
M  V30 492 H 50.2863 1.01893 2.75672 0
M  V30 493 H 47.8003 0.656332 1.48546 0
M  V30 494 H 49.7973 -1.09575 4.02243 0
M  V30 495 H 48.4573 -1.4559 2.9023 0
M  V30 496 H 49.4683 1.64901 4.90946 0
M  V30 497 H 46.1453 -0.800601 4.09752 0
M  V30 498 H 47.5353 2.67236 6.16469 0
M  V30 499 N 50.2554 -1.46986 0.568584 0
M  V30 500 C 51.5014 -2.02741 0.0488709 0
M  V30 501 C 51.8344 -1.44077 -1.30214 0
M  V30 502 O 51.1094 -0.600552 -1.84996 0
M  V30 503 C 51.3924 -3.60086 -0.032047 0
M  V30 504 C 51.2454 -4.29162 1.34686 0
M  V30 505 C 52.5644 -4.33838 -0.739798 0
M  V30 506 H 49.6834 -0.736749 0.0192338 0
M  V30 507 H 52.3254 -1.75289 0.733065 0
M  V30 508 H 50.4754 -3.83606 -0.61473 0
M  V30 509 H 52.1474 -4.16948 1.97362 0
M  V30 510 H 50.3904 -3.89073 1.91846 0
M  V30 511 H 51.0614 -5.37826 1.24285 0
M  V30 512 H 53.5374 -4.15378 -0.244939 0
M  V30 513 H 52.4134 -5.43537 -0.765406 0
M  V30 514 H 52.6744 -4.03875 -1.79827 0
M  V30 515 N 51.7335 -0.305618 -1.54608 0
M  V30 516 C 52.9805 0.302298 -2.00231 0
M  V30 517 C 53.3085 1.5354 -1.19398 0
M  V30 518 O 52.5635 1.93973 -0.259423 0
M  V30 519 C 52.8625 0.698983 -3.50498 0
M  V30 520 C 52.5285 -0.432903 -4.48817 0
M  V30 521 C 51.1905 -0.743622 -4.75419 0
M  V30 522 C 53.5425 -1.19409 -5.07337 0
M  V30 523 C 50.8705 -1.81857 -5.57804 0
M  V30 524 C 53.2225 -2.25899 -5.90891 0
M  V30 525 C 51.8865 -2.57572 -6.15803 0
M  V30 526 H 51.1565 0.110619 -0.732697 0
M  V30 527 H 53.8035 -0.425674 -1.86709 0
M  V30 528 H 52.1085 1.50711 -3.61654 0
M  V30 529 H 53.8055 1.1806 -3.83227 0
M  V30 530 H 50.3955 -0.18063 -4.28219 0
M  V30 531 H 54.5795 -0.967295 -4.86782 0
M  V30 532 H 49.8355 -2.06864 -5.75341 0
M  V30 533 H 54.0095 -2.85335 -6.35261 0
M  V30 534 H 51.6365 -3.40998 -6.7943 0
M  V30 535 N 53.2116 1.57565 -0.0334293 0
M  V30 536 C 54.1416 2.13511 0.945265 0
M  V30 537 C 55.1226 1.05231 1.33643 0
M  V30 538 O 56.3076 1.33084 1.41429 0
M  V30 539 C 53.4376 2.6657 2.22616 0
M  V30 540 C 52.3916 3.79676 1.97561 0
M  V30 541 C 51.7176 4.1918 3.31952 0
M  V30 542 C 53.0176 5.0557 1.31135 0
M  V30 543 H 54.7116 2.95538 0.479325 0
M  V30 544 H 52.2576 1.42166 0.229115 0
M  V30 545 H 54.2106 3.04344 2.91466 0
M  V30 546 H 52.9346 1.8171 2.71384 0
M  V30 547 H 51.5936 3.42347 1.31127 0
M  V30 548 H 51.2416 3.31296 3.78487 0
M  V30 549 H 50.9416 4.95402 3.15992 0
M  V30 550 H 52.4656 4.59541 4.02063 0
M  V30 551 H 53.8796 5.40903 1.89992 0
M  V30 552 H 52.2766 5.86818 1.25559 0
M  V30 553 H 53.3466 4.84062 0.284894 0
M  V30 554 N 54.6897 -0.239769 1.55765 0
M  V30 555 C 55.6197 -1.30052 1.9393 0
M  V30 556 C 56.6007 -1.49839 0.805132 0
M  V30 557 O 57.7857 -1.62328 1.06599 0
M  V30 558 C 54.9157 -2.65391 2.2402 0
M  V30 559 C 53.8697 -2.60289 3.39755 0
M  V30 560 C 53.1957 -3.99489 3.55405 0
M  V30 561 C 54.4957 -2.16654 4.75246 0
M  V30 562 H 56.1897 -0.983573 2.82783 0
M  V30 563 H 53.7357 -0.471701 1.36055 0
M  V30 564 H 55.6887 -3.3974 2.49308 0
M  V30 565 H 54.4127 -2.98736 1.32 0
M  V30 566 H 53.0717 -1.88398 3.14487 0
M  V30 567 H 52.7197 -4.30112 2.60793 0
M  V30 568 H 52.4197 -3.96962 4.33238 0
M  V30 569 H 53.9437 -4.75528 3.83022 0
M  V30 570 H 55.3577 -2.80737 4.99859 0
M  V30 571 H 53.7547 -2.25223 5.56232 0
M  V30 572 H 54.8247 -1.11835 4.71827 0
M  V30 573 N 56.1678 -1.49265 -0.50573 0
M  V30 574 C 57.4148 -1.58513 -1.26015 0
M  V30 575 C 57.7428 -0.26972 -1.92621 0
M  V30 576 O 56.9978 0.741997 -1.81088 0
M  V30 577 C 57.2968 -2.69008 -2.35308 0
M  V30 578 C 56.9628 -4.10662 -1.86192 0
M  V30 579 C 55.6248 -4.49212 -1.72516 0
M  V30 580 C 57.9768 -4.99336 -1.49375 0
M  V30 581 C 55.3048 -5.74214 -1.20394 0
M  V30 582 C 57.6568 -6.24852 -0.987072 0
M  V30 583 C 56.3208 -6.62236 -0.836669 0
M  V30 584 H 55.5908 -0.580041 -0.461122 0
M  V30 585 H 58.2378 -1.83078 -0.561665 0
M  V30 586 H 56.5428 -2.38396 -3.10926 0
M  V30 587 H 58.2398 -2.73373 -2.93374 0
M  V30 588 H 54.8298 -3.8023 -1.97795 0
M  V30 589 H 59.0138 -4.70212 -1.5879 0
M  V30 590 H 54.2698 -6.01883 -1.07458 0
M  V30 591 H 58.4438 -6.92944 -0.692983 0
M  V30 592 H 56.0708 -7.58979 -0.430607 0
M  V30 593 N 57.6459 0.756429 -1.3826 0
M  V30 594 C 58.8949 1.51082 -1.3363 0
M  V30 595 C 59.2079 1.95467 0.0720068 0
M  V30 596 O 60.4139 2.7043 0.240834 0
M  V30 597 C 58.8699 2.72893 -2.34644 0
M  V30 598 C 58.4779 2.35544 -3.81081 0
M  V30 599 C 60.2219 3.50791 -2.39052 0
M  V30 600 C 58.1289 3.53948 -4.73787 0
M  V30 601 H 57.0589 0.56727 -0.49671 0
M  V30 602 H 59.7099 0.827147 -1.638 0
M  V30 603 H 58.0919 3.43227 -1.97513 0
M  V30 604 H 59.2659 1.72894 -4.27135 0
M  V30 605 H 57.5809 1.70786 -3.79764 0
M  V30 606 H 60.1779 4.38823 -3.05513 0
M  V30 607 H 60.5209 3.91745 -1.40861 0
M  V30 608 H 61.0539 2.87467 -2.74968 0
M  V30 609 H 57.7929 3.18064 -5.73163 0
M  V30 610 H 57.3129 4.15651 -4.32428 0
M  V30 611 H 58.9919 4.20566 -4.91663 0
M  V30 612 N 59.124 1.23083 0.984299 0
M  V30 613 C 60.352 1.08714 1.76037 0
M  V30 614 C 60.767 -0.361691 1.85303 0
M  V30 615 O 60.124 -1.25034 1.32939 0
M  V30 616 C 60.175 1.70206 3.18923 0
M  V30 617 O 59.896 3.09423 3.10144 0
M  V30 618 C 61.397 1.61227 4.12941 0
M  V30 619 H 58.617 0.380664 0.552572 0
M  V30 620 H 61.161 1.62853 1.23689 0
M  V30 621 H 59.316 1.20109 3.6831 0
M  V30 622 H 59.73 3.39188 4.00065 0
M  V30 623 H 61.204 2.08962 5.10919 0
M  V30 624 H 61.681 0.570375 4.35481 0
M  V30 625 H 62.287 2.10671 3.69456 0
M  V30 626 N 60.6021 -1.18246 1.0419 0
M  V30 627 C 61.8491 -1.88257 0.746017 0
M  V30 628 C 62.1771 -1.80429 -0.726331 0
M  V30 629 O 61.4321 -1.2 -1.54591 0
M  V30 630 C 61.7311 -3.38082 1.15911 0
M  V30 631 C 61.3971 -3.66114 2.63195 0
M  V30 632 C 60.0591 -3.73474 3.03432 0
M  V30 633 C 62.4111 -3.78398 3.5842 0
M  V30 634 C 59.7391 -3.90599 4.37778 0
M  V30 635 C 62.0911 -3.97039 4.92487 0
M  V30 636 C 60.7551 -4.02635 5.32392 0
M  V30 637 H 60.0251 -0.688883 0.272987 0
M  V30 638 H 62.6721 -1.3995 1.30715 0
M  V30 639 H 60.9771 -3.88377 0.516806 0
M  V30 640 H 62.6741 -3.90596 0.907516 0
M  V30 641 H 59.2641 -3.61003 2.3103 0
M  V30 642 H 63.4481 -3.72042 3.28479 0
M  V30 643 H 58.7041 -3.93175 4.68213 0
M  V30 644 H 62.8781 -4.05486 5.66175 0
M  V30 645 H 60.5051 -4.15657 6.36501 0
M  V30 646 N 62.0802 -0.821533 -1.34494 0
M  V30 647 C 63.4912 -0.467956 -1.8074 0
M  V30 648 C 63.8422 1.01151 -1.68116 0
M  V30 649 O 62.9672 1.78707 -1.22036 0
M  V30 650 C 63.5622 -0.842627 -3.28154 0
M  V30 651 C 62.1212 -0.541439 -3.72485 0
M  V30 652 C 61.2682 -1.06028 -2.56229 0
M  V30 653 H 64.2192 -1.01183 -1.22261 0
M  V30 654 H 64.2402 -0.145876 -3.8022 0
M  V30 655 H 63.7522 -1.91945 -3.37311 0
M  V30 656 H 61.8532 0.526034 -3.68868 0
M  V30 657 H 61.9662 -1.08453 -4.66663 0
M  V30 658 H 60.3302 -0.481892 -2.501 0
M  V30 659 H 61.1132 -2.14352 -2.68157 0
M  V30 660 N 63.5583 1.46682 -0.576371 0
M  V30 661 C 64.8073 2.01619 -0.0572825 0
M  V30 662 C 65.1203 1.45417 1.30818 0
M  V30 663 O 66.3263 1.92133 1.91825 0
M  V30 664 C 64.7823 3.59863 -0.0518371 0
M  V30 665 C 64.3903 4.25059 -1.41523 0
M  V30 666 C 66.1343 4.2248 0.413639 0
M  V30 667 C 64.0413 5.75364 -1.36785 0
M  V30 668 H 62.9713 0.753794 -0.0176448 0
M  V30 669 H 65.6223 1.68481 -0.727076 0
M  V30 670 H 64.0043 3.90048 0.683994 0
M  V30 671 H 65.1783 4.06491 -2.17029 0
M  V30 672 H 63.4933 3.7451 -1.8202 0
M  V30 673 H 66.0903 5.3265 0.467779 0
M  V30 674 H 66.4333 3.90976 1.42982 0
M  V30 675 H 66.9663 3.96897 -0.267929 0
M  V30 676 H 63.7053 6.11518 -2.36063 0
M  V30 677 H 63.2253 5.96214 -0.654895 0
M  V30 678 H 64.9043 6.37955 -1.07805 0
M  V30 679 N 65.0364 0.313813 1.54444 0
M  V30 680 C 65.9664 -0.549454 2.26943 0
M  V30 681 C 66.9474 -1.12741 1.27372 0
M  V30 682 O 68.1324 -1.15436 1.56167 0
M  V30 683 C 65.2624 -1.71523 3.01989 0
M  V30 684 C 64.2164 -1.26703 4.08816 0
M  V30 685 C 63.5424 -2.51898 4.71647 0
M  V30 686 C 64.8424 -0.388962 5.2085 0
M  V30 687 H 66.5364 0.0552661 2.99349 0
M  V30 688 H 64.0824 0.0280207 1.43973 0
M  V30 689 H 66.0354 -2.32535 3.51433 0
M  V30 690 H 64.7594 -2.34639 2.27183 0
M  V30 691 H 63.4184 -0.679896 3.6024 0
M  V30 692 H 63.0664 -3.13356 3.93468 0
M  V30 693 H 62.7664 -2.22605 5.43802 0
M  V30 694 H 64.2904 -3.1369 5.23861 0
M  V30 695 H 65.7044 -0.905107 5.6611 0
M  V30 696 H 64.1014 -0.18924 5.99802 0
M  V30 697 H 65.1714 0.582699 4.81386 0
M  V30 698 N 66.5145 -1.57545 0.0417849 0
M  V30 699 C 67.7615 -1.92317 -0.634082 0
M  V30 700 C 68.0895 -0.919334 -1.71402 0
M  V30 701 O 67.3445 0.0698253 -1.95575 0
M  V30 702 C 67.6435 -3.33794 -1.27735 0
M  V30 703 C 67.3095 -4.49716 -0.326543 0
M  V30 704 C 65.9715 -4.81156 -0.0648814 0
M  V30 705 C 68.3235 -5.20182 0.325623 0
M  V30 706 C 65.6515 -5.80414 0.856539 0
M  V30 707 C 68.0035 -6.20424 1.23518 0
M  V30 708 C 66.6675 -6.50298 1.5056 0
M  V30 709 H 65.9375 -0.703736 -0.232027 0
M  V30 710 H 68.5845 -1.91205 0.106259 0
M  V30 711 H 66.8895 -3.31228 -2.09274 0
M  V30 712 H 68.5865 -3.57975 -1.80707 0
M  V30 713 H 65.1765 -4.25176 -0.540665 0
M  V30 714 H 69.3605 -4.96112 0.136546 0
M  V30 715 H 64.6165 -6.019 1.07363 0
M  V30 716 H 68.7905 -6.74141 1.74664 0
M  V30 717 H 66.4175 -7.27025 2.22123 0
M  V30 718 N 67.9926 0.231505 -1.5589 0
M  V30 719 C 69.2416 0.955346 -1.7764 0
M  V30 720 C 69.5546 1.85893 -0.608546 0
M  V30 721 O 70.7606 2.62067 -0.70943 0
M  V30 722 C 69.2166 1.74886 -3.14552 0
M  V30 723 C 68.8246 0.891915 -4.39032 0
M  V30 724 C 70.5686 2.46452 -3.45633 0
M  V30 725 C 68.4756 1.68221 -5.66971 0
M  V30 726 H 67.4056 0.360446 -0.662265 0
M  V30 727 H 70.0566 0.209516 -1.823 0
M  V30 728 H 68.4386 2.53723 -3.04041 0
M  V30 729 H 69.6126 0.144793 -4.60572 0
M  V30 730 H 67.9276 0.288863 -4.15397 0
M  V30 731 H 70.5246 3.06061 -4.38441 0
M  V30 732 H 70.8676 3.18841 -2.67668 0
M  V30 733 H 71.4006 1.74613 -3.57428 0
M  V30 734 H 68.1396 1.00178 -6.478 0
M  V30 735 H 67.6596 2.4042 -5.49507 0
M  V30 736 H 69.3386 2.24544 -6.06786 0
M  V30 737 N 69.4707 1.49531 0.497807 0
M  V30 738 C 70.7187 1.58865 1.24926 0
M  V30 739 C 71.0397 0.278721 1.92998 0
M  V30 740 O 70.3097 -0.702144 1.82885 0
M  V30 741 H 68.8897 0.585343 0.464094 0
M  V30 742 H 71.5517 1.86174 0.57666 0
M  V30 743 H 70.6477 2.38633 2.01149 0
M  V30 744 N 70.9488 -0.749086 1.3866 0
M  V30 745 C 72.1948 -1.50959 1.36319 0
M  V30 746 C 72.5498 -1.92347 -0.0452451 0
M  V30 747 O 71.8428 -1.6289 -1.00884 0
M  V30 748 C 72.0368 -2.7712 2.25697 0
M  V30 749 C 71.8658 -2.48067 3.7509 0
M  V30 750 C 70.6358 -2.41062 4.44091 0
M  V30 751 C 72.8338 -2.14544 4.67414 0
M  V30 752 N 70.8158 -2.04331 5.78897 0
M  V30 753 C 72.1868 -1.88141 5.90765 0
M  V30 754 C 74.2418 -2.00892 4.55573 0
M  V30 755 C 72.9448 -1.49463 7.036 0
M  V30 756 C 74.9708 -1.63616 5.68317 0
M  V30 757 C 74.3328 -1.38088 6.90732 0
M  V30 758 H 70.4318 -0.551804 0.554108 0
M  V30 759 H 73.0158 -0.871886 1.74087 0
M  V30 760 H 71.1868 -3.38693 1.9011 0
M  V30 761 H 72.9188 -3.4321 2.1445 0
M  V30 762 H 69.6738 -2.57685 3.9736 0
M  V30 763 H 70.0978 -1.88598 6.502 0
M  V30 764 H 74.7398 -2.19301 3.61479 0
M  V30 765 H 72.4578 -1.29794 7.97608 0
M  V30 766 H 76.0438 -1.53678 5.61137 0
M  V30 767 H 74.9238 -1.09674 7.76493 0
M  V30 768 N 72.4269 -1.23603 -0.977757 0
M  V30 769 C 73.6749 -1.06759 -1.71601 0
M  V30 770 C 73.9959 0.395929 -1.90938 0
M  V30 771 O 73.2659 1.28356 -1.47992 0
M  V30 772 H 71.8459 -0.392062 -0.635843 0
M  V30 773 H 74.5079 -1.55362 -1.1768 0
M  V30 774 H 73.6039 -1.55763 -2.70452 0
M  V30 775 N 73.905 1.17692 -1.04816 0
M  V30 776 C 75.13 1.92327 -0.776207 0
M  V30 777 C 75.555 1.76082 0.661581 0
M  V30 778 O 74.913 1.076 1.45917 0
M  V30 779 C 74.961 3.41539 -1.15687 0
M  V30 780 O 74.065 4.11402 -0.286775 0
M  V30 781 H 73.406 0.599735 -0.284981 0
M  V30 782 H 75.936 1.49201 -1.4 0
M  V30 783 H 75.946 3.92269 -1.12202 0
M  V30 784 H 74.621 3.52684 -2.20425 0
M  V30 785 H 73.198 3.70939 -0.381903 0
M  V30 786 N 75.3831 0.828654 1.34056 0
M  V30 787 C 76.3151 0.212052 2.28217 0
M  V30 788 C 77.3281 -0.601362 1.51286 0
M  V30 789 O 78.5171 -0.430104 1.73241 0
M  V30 790 C 75.6171 -0.72088 3.31144 0
M  V30 791 C 74.7901 0.0509587 4.3737 0
M  V30 792 C 73.8491 -0.803766 5.20025 0
M  V30 793 O 72.8751 -0.246667 5.68665 0
M  V30 794 N 74.0771 -2.1227 5.40298 0
M  V30 795 H 76.8421 1.02105 2.81771 0
M  V30 796 H 74.4031 0.686153 1.46641 0
M  V30 797 H 76.3951 -1.29742 3.8334 0
M  V30 798 H 74.9651 -1.43061 2.77943 0
M  V30 799 H 74.1851 0.808831 3.85813 0
M  V30 800 H 75.4731 0.582065 5.0546 0
M  V30 801 H 74.8711 -2.59898 5.02464 0
M  V30 802 H 73.4281 -2.64796 5.95589 0
M  V30 803 N 76.8612 -1.46375 0.584142 0
M  V30 804 C 78.0862 -2.07268 0.0740405 0
M  V30 805 C 78.5112 -1.42979 -1.22223 0
M  V30 806 O 77.8692 -0.514092 -1.73859 0
M  V30 807 C 77.9172 -3.60518 -0.0767769 0
M  V30 808 O 77.0212 -3.96533 -1.13292 0
M  V30 809 H 76.3622 -0.660961 0.0634524 0
M  V30 810 H 78.8922 -1.87991 0.807492 0
M  V30 811 H 78.9022 -4.07021 -0.282489 0
M  V30 812 H 77.5772 -4.06702 0.86986 0
M  V30 813 H 76.1542 -3.61738 -0.905553 0
M  V30 814 N 78.3393 -0.321999 -1.54275 0
M  V30 815 C 79.5643 0.285791 -2.05422 0
M  V30 816 C 79.9893 1.45124 -1.19669 0
M  V30 817 O 79.3473 1.80132 -0.205441 0
M  V30 818 C 79.3953 0.69956 -3.53749 0
M  V30 819 O 78.4993 1.8021 -3.70942 0
M  V30 820 H 77.8403 0.0518962 -0.661969 0
M  V30 821 H 80.3703 -0.469954 -1.9913 0
M  V30 822 H 80.3803 0.982649 -3.9599 0
M  V30 823 H 79.0553 -0.152864 -4.15619 0
M  V30 824 H 77.6323 1.51794 -3.40607 0
M  V30 825 N 79.8174 1.5752 -0.0501392 0
M  V30 826 C 80.7644 2.1147 0.924603 0
M  V30 827 C 81.7344 1.02182 1.30951 0
M  V30 828 O 82.9194 1.29723 1.39916 0
M  V30 829 C 80.0594 2.66337 2.19451 0
M  V30 830 C 79.1724 3.89708 1.86418 0
M  V30 831 C 78.3074 4.32893 3.07859 0
M  V30 832 C 77.3464 5.48967 2.70742 0
M  V30 833 N 76.4834 5.87211 3.84874 0
M  V30 834 H 81.3234 2.94465 0.457639 0
M  V30 835 H 78.8604 1.45531 0.214266 0
M  V30 836 H 80.8184 2.96247 2.93758 0
M  V30 837 H 79.4484 1.86141 2.63726 0
M  V30 838 H 78.5004 3.66396 1.02264 0
M  V30 839 H 79.8124 4.74074 1.55096 0
M  V30 840 H 78.9664 4.6435 3.90466 0
M  V30 841 H 77.7054 3.47336 3.42358 0
M  V30 842 H 76.7104 5.17183 1.86551 0
M  V30 843 H 77.9354 6.3624 2.37436 0
M  V30 844 H 75.8814 5.04607 4.19175 0
M  V30 845 H 75.7984 6.66266 3.57247 0
M  V30 846 H 77.0664 6.23282 4.68123 0
M  V30 847 N 81.2955 -0.223234 1.56011 0
M  V30 848 C 82.5415 -0.949279 1.79211 0
M  V30 849 C 82.8745 -1.84054 0.619494 0
M  V30 850 O 82.1495 -1.90726 -0.381317 0
M  V30 851 C 82.4325 -1.78965 3.12479 0
M  V30 852 C 82.2855 -0.924997 4.40186 0
M  V30 853 C 83.6045 -2.76774 3.42175 0
M  V30 854 H 80.7235 -0.343676 0.651963 0
M  V30 855 H 83.3655 -0.218253 1.88742 0
M  V30 856 H 81.5155 -2.41291 3.04485 0
M  V30 857 H 83.1875 -0.318615 4.60198 0
M  V30 858 H 81.4305 -0.230344 4.33188 0
M  V30 859 H 82.1015 -1.54735 5.29869 0
M  V30 860 H 84.5775 -2.24584 3.50287 0
M  V30 861 H 83.4535 -3.32678 4.36597 0
M  V30 862 H 83.7145 -3.54429 2.64258 0
M  V30 863 N 82.7736 -1.49793 -0.48987 0
M  V30 864 C 83.7056 -1.63413 -1.60713 0
M  V30 865 C 84.7186 -0.516329 -1.54395 0
M  V30 866 O 85.9076 -0.788812 -1.60125 0
M  V30 867 C 83.0076 -1.58516 -2.99543 0
M  V30 868 C 82.1806 -2.86016 -3.30928 0
M  V30 869 C 81.2396 -2.74018 -4.49222 0
M  V30 870 O 80.2656 -3.47964 -4.50455 0
M  V30 871 N 81.4676 -1.86309 -5.4979 0
M  V30 872 H 84.2326 -2.59777 -1.49452 0
M  V30 873 H 81.7936 -1.47022 -0.677955 0
M  V30 874 H 83.7856 -1.48128 -3.76617 0
M  V30 875 H 82.3556 -0.69965 -3.0467 0
M  V30 876 H 81.5756 -3.10672 -2.42645 0
M  V30 877 H 82.8636 -3.70521 -3.487 0
M  V30 878 H 82.2616 -1.2551 -5.51601 0
M  V30 879 H 80.8186 -1.81837 -6.25922 0
M  V30 880 N 84.2517 0.741722 -1.39055 0
M  V30 881 C 85.5007 1.49656 -1.35225 0
M  V30 882 C 85.8137 1.95533 0.0512708 0
M  V30 883 O 87.0197 2.7067 0.212138 0
M  V30 884 C 85.4757 2.70389 -2.37525 0
M  V30 885 C 85.0837 2.31489 -3.83558 0
M  V30 886 C 86.8277 3.48236 -2.42759 0
M  V30 887 C 84.7347 3.48903 -4.77515 0
M  V30 888 H 83.6647 0.56197 -0.502699 0
M  V30 889 H 86.3157 0.809727 -1.64668 0
M  V30 890 H 84.6977 3.41113 -2.01142 0
M  V30 891 H 85.8717 1.68354 -4.28945 0
M  V30 892 H 84.1867 1.66749 -3.81554 0
M  V30 893 H 86.7837 4.35558 -3.1015 0
M  V30 894 H 87.1267 3.90229 -1.45008 0
M  V30 895 H 87.6597 2.84535 -2.78002 0
M  V30 896 H 84.3987 3.11966 -5.76504 0
M  V30 897 H 83.9187 4.11041 -4.36813 0
M  V30 898 H 85.5977 4.15328 -4.96096 0
M  V30 899 N 85.7298 1.2412 0.971189 0
M  V30 900 C 86.6798 0.997551 2.05019 0
M  V30 901 C 87.6638 -0.0597747 1.60789 0
M  V30 902 O 88.8558 0.153516 1.76333 0
M  V30 903 C 85.9848 0.600557 3.38006 0
M  V30 904 C 85.0708 1.69377 3.88809 0
M  V30 905 N 85.4618 2.92586 4.12586 0
M  V30 906 C 83.7598 1.57048 4.17435 0
M  V30 907 C 84.4608 3.63431 4.54195 0
M  V30 908 N 83.4368 2.90979 4.59165 0
M  V30 909 H 87.2388 1.93316 2.21374 0
M  V30 910 H 84.7528 1.14194 1.1547 0
M  V30 911 H 86.7498 0.40725 4.14906 0
M  V30 912 H 85.4098 -0.327903 3.2304 0
M  V30 913 H 86.4208 3.288 4.00139 0
M  V30 914 H 83.0978 0.709798 4.11422 0
M  V30 915 H 84.4878 4.69102 4.81033 0
M  V30 916 N 87.2079 -1.17134 1.05439 0
M  V30 917 C 88.1579 -2.1919 0.627675 0
M  V30 918 C 89.1419 -1.57328 -0.337147 0
M  V30 919 O 90.3339 -1.76329 -0.153976 0
M  V30 920 C 87.4629 -3.43299 0.00651435 0
M  V30 921 C 86.5489 -4.12255 0.995312 0
M  V30 922 N 86.9399 -4.56997 2.16765 0
M  V30 923 C 85.2379 -4.38316 0.824336 0
M  V30 924 C 85.9389 -5.10239 2.7934 0
M  V30 925 N 84.9149 -5.02595 2.07122 0
M  V30 926 H 88.7169 -2.5149 1.52086 0
M  V30 927 H 86.2309 -1.33491 0.924868 0
M  V30 928 H 88.2279 -4.15693 -0.316965 0
M  V30 929 H 86.8879 -3.1249 -0.882033 0
M  V30 930 H 87.8989 -4.51006 2.54587 0
M  V30 931 H 84.5759 -4.17498 -0.0129526 0
M  V30 932 H 85.9659 -5.54961 3.78772 0
M  V30 933 N 88.686 -0.835752 -1.33615 0
M  V30 934 C 89.634 -0.255238 -2.31195 0
M  V30 935 C 90.628 0.61107 -1.57995 0
M  V30 936 O 91.834 0.500979 -1.72888 0
M  V30 937 H 88.209 -0.0638085 -0.749288 0
M  V30 938 H 90.18 -1.09283 -2.77669 0
M  V30 939 C 88.929 0.55754 -3.43201 0
M  V30 940 H 88.252 -0.0997553 -3.99676 0
M  V30 941 H 89.692 0.929622 -4.13683 0
M  V30 942 C 88.151 1.73515 -2.88781 0
M  V30 943 O 88.681 2.83376 -2.84712 0
M  V30 944 N 86.887 1.55603 -2.4543 0
M  V30 945 H 86.434 0.662354 -2.48939 0
M  V30 946 H 86.392 2.34545 -2.09371 0
M  V30 947 N 90.1641 1.46063 -0.591896 0
M  V30 948 C 91.3921 2.06717 -0.0868936 0
M  V30 949 C 91.8071 1.43916 1.22203 0
M  V30 950 O 91.1641 0.547698 1.74088 0
M  V30 951 C 91.2151 3.6142 0.0758725 0
M  V30 952 O 90.9361 4.21874 -1.18126 0
M  V30 953 C 92.4371 4.39025 0.61416 0
M  V30 954 H 89.6571 0.668162 -0.0616518 0
M  V30 955 H 92.2011 1.8755 -0.815175 0
M  V30 956 H 90.3561 3.79983 0.754413 0
M  V30 957 H 90.7701 5.14861 -1.00092 0
M  V30 958 H 92.2441 5.4783 0.677193 0
M  V30 959 H 92.7211 4.07708 1.63312 0
M  V30 960 H 93.3271 4.2529 -0.0298142 0
M  V30 961 N 91.6422 0.330177 1.54103 0
M  V30 962 C 92.8882 -0.263542 2.01685 0
M  V30 963 C 93.2432 -1.49258 1.21408 0
M  V30 964 O 92.5362 -1.89395 0.289852 0
M  V30 965 C 92.7302 -0.643134 3.51566 0
M  V30 966 C 92.5592 0.547571 4.46354 0
M  V30 967 C 91.3292 1.04873 4.94297 0
M  V30 968 C 93.5272 1.40184 4.94826 0
M  V30 969 N 91.5092 2.20316 5.73005 0
M  V30 970 C 92.8802 2.40335 5.71524 0
M  V30 971 C 94.9352 1.42884 4.76958 0
M  V30 972 C 93.6382 3.42998 6.32254 0
M  V30 973 C 95.6642 2.44421 5.38528 0
M  V30 974 C 95.0262 3.43298 6.15082 0
M  V30 975 H 91.1252 -0.0601026 0.779687 0
M  V30 976 H 93.7092 0.466714 1.89023 0
M  V30 977 H 91.8802 -1.34251 3.6446 0
M  V30 978 H 93.6122 -1.21889 3.85908 0
M  V30 979 H 90.3672 0.618956 4.69538 0
M  V30 980 H 90.7912 2.78565 6.17034 0
M  V30 981 H 95.4332 0.678049 4.17328 0
M  V30 982 H 93.1512 4.1898 6.91 0
M  V30 983 H 96.7372 2.4732 5.26616 0
M  V30 984 H 95.6172 4.20579 6.61878 0
M  V30 985 N 93.1203 -1.57491 0.0584922 0
M  V30 986 C 94.0503 -2.14988 -0.911178 0
M  V30 987 C 95.0313 -1.07343 -1.31952 0
M  V30 988 O 96.2163 -1.35318 -1.39294 0
M  V30 989 C 93.3463 -2.70078 -2.18347 0
M  V30 990 C 92.3003 -3.82771 -1.91495 0
M  V30 991 C 91.6263 -4.24408 -3.25241 0
M  V30 992 C 92.9263 -5.07592 -1.23075 0
M  V30 993 H 94.6203 -2.96263 -0.432246 0
M  V30 994 H 92.1663 -1.42512 -0.206469 0
M  V30 995 H 94.1193 -3.08943 -2.86587 0
M  V30 996 H 92.8433 -1.86005 -2.68458 0
M  V30 997 H 91.5023 -3.44389 -1.25664 0
M  V30 998 H 91.1503 -3.37275 -3.73168 0
M  V30 999 H 90.8503 -5.00366 -3.08071 0
M  V30 1000 H 92.3743 -4.65879 -3.94701 0
M  V30 1001 H 93.7883 -5.43857 -1.81362 0
M  V30 1002 H 92.1853 -5.88741 -1.16207 0
M  V30 1003 H 93.2553 -4.84454 -0.207847 0
M  V30 1004 N 94.5984 0.214957 -1.56127 0
M  V30 1005 C 95.5484 1.27006 -1.8935 0
M  V30 1006 C 96.5324 1.41969 -0.757202 0
M  V30 1007 O 97.7244 1.44673 -1.01973 0
M  V30 1008 C 94.8534 2.61911 -2.2194 0
M  V30 1009 C 93.9394 2.50822 -3.41978 0
M  V30 1010 N 94.3304 2.09391 -4.60423 0
M  V30 1011 C 92.6284 2.81765 -3.45723 0
M  V30 1012 C 93.3294 2.09712 -5.42582 0
M  V30 1013 N 92.3054 2.50454 -4.82466 0
M  V30 1014 H 96.1074 0.940734 -2.78437 0
M  V30 1015 H 93.6214 0.423492 -1.56781 0
M  V30 1016 H 95.6184 3.38096 -2.43919 0
M  V30 1017 H 94.2784 2.95684 -1.34169 0
M  V30 1018 H 95.2894 1.80416 -4.85459 0
M  V30 1019 H 91.9664 3.19865 -2.68314 0
M  V30 1020 H 93.3564 1.79748 -6.4741 0
M  V30 1021 N 96.0765 1.50051 0.48192 0
M  V30 1022 C 97.3235 1.60498 1.23477 0
M  V30 1023 C 97.6515 0.300331 1.92167 0
M  V30 1024 O 96.9065 -0.713094 1.82246 0
M  V30 1025 C 97.2055 2.72717 2.30998 0
M  V30 1026 C 96.8715 4.13572 1.79636 0
M  V30 1027 C 95.5335 4.519 1.65348 0
M  V30 1028 C 97.8855 5.01649 1.41412 0
M  V30 1029 C 95.2135 5.76057 1.11244 0
M  V30 1030 C 97.5655 6.26343 0.887538 0
M  V30 1031 C 96.2295 6.63483 0.731207 0
M  V30 1032 H 95.4995 0.587303 0.451836 0
M  V30 1033 H 98.1465 1.83948 0.532468 0
M  V30 1034 H 96.4515 2.43312 3.07094 0
M  V30 1035 H 98.1485 2.78006 2.88988 0
M  V30 1036 H 94.7385 3.83329 1.91721 0
M  V30 1037 H 98.9225 4.72679 1.51289 0
M  V30 1038 H 94.1785 6.03516 0.978686 0
M  V30 1039 H 98.3525 6.93958 0.582654 0
M  V30 1040 H 95.9795 7.59568 0.309806 0
M  V30 1041 N 97.5546 -0.734337 1.39446 0
M  V30 1042 C 98.9656 -1.31264 1.32766 0
M  V30 1043 C 99.3166 -1.96198 -0.00767497 0
M  V30 1044 O 98.4416 -1.96346 -0.909796 0
M  V30 1045 C 99.0366 -2.38682 2.4045 0
M  V30 1046 C 97.5956 -2.92184 2.37288 0
M  V30 1047 C 96.7426 -1.6576 2.22304 0
M  V30 1048 H 99.6936 -0.531799 1.49525 0
M  V30 1049 H 99.7146 -3.19087 2.07276 0
M  V30 1050 H 99.2266 -1.91392 3.37625 0
M  V30 1051 H 97.3276 -3.43752 1.43754 0
M  V30 1052 H 97.4406 -3.45253 3.3217 0
M  V30 1053 H 95.8046 -1.9012 1.69489 0
M  V30 1054 H 96.5876 -1.20521 3.21449 0
M  V30 1055 N 99.0327 -1.24633 -0.964593 0
M  V30 1056 C 100.281 -1.08573 -1.70459 0
M  V30 1057 C 100.602 0.375655 -1.91347 0
M  V30 1058 O 99.8717 1.26779 -1.49345 0
M  V30 1059 H 98.4517 -0.398784 -0.631649 0
M  V30 1060 H 101.114 -1.56601 -1.16026 0
M  V30 1061 H 100.21 -1.58623 -2.68785 0
M  V30 1062 N 100.511 1.16574 -1.06058 0
M  V30 1063 C 101.461 2.18854 -0.63929 0
M  V30 1064 C 102.445 1.57505 0.328798 0
M  V30 1065 O 103.637 1.76408 0.144623 0
M  V30 1066 C 100.766 3.43291 -0.0247203 0
M  V30 1067 C 99.8518 4.11722 -1.01716 0
M  V30 1068 N 100.243 4.55841 -2.19186 0
M  V30 1069 C 98.5408 4.37872 -0.847569 0
M  V30 1070 C 99.2418 5.08751 -2.82042 0
M  V30 1071 N 98.2178 5.01489 -2.09784 0
M  V30 1072 H 102.02 2.5068 -1.53417 0
M  V30 1073 H 99.5338 1.32999 -0.931935 0
M  V30 1074 H 101.531 4.15856 0.294915 0
M  V30 1075 H 100.191 3.12954 0.865448 0
M  V30 1076 H 101.202 4.49649 -2.56975 0
M  V30 1077 H 97.8788 4.17499 -0.00918848 0
M  V30 1078 H 99.2688 5.52944 -3.81709 0
M  V30 1079 N 101.989 0.842826 1.3317 0
M  V30 1080 C 102.937 0.267495 2.31057 0
M  V30 1081 C 103.931 -0.602682 1.58316 0
M  V30 1082 O 105.137 -0.491803 1.73151 0
M  V30 1083 H 101.512 0.0677813 0.748939 0
M  V30 1084 H 103.483 1.10754 2.77085 0
M  V30 1085 C 102.232 -0.539331 3.43492 0
M  V30 1086 H 101.555 0.12095 3.99617 0
M  V30 1087 H 102.995 -0.90767 4.14171 0
M  V30 1088 C 101.454 -1.71981 2.89697 0
M  V30 1089 O 101.984 -2.81862 2.86211 0
M  V30 1090 N 100.19 -1.54299 2.46252 0
M  V30 1091 H 99.7369 -0.649143 2.49287 0
M  V30 1092 H 99.6949 -2.33431 2.10612 0
M  V30 1093 N 103.467 -1.45747 0.599634 0
M  V30 1094 C 104.397 -2.33235 -0.111306 0
M  V30 1095 C 105.378 -1.46359 -0.866781 0
M  V30 1096 O 106.563 -1.75146 -0.838904 0
M  V30 1097 C 103.693 -3.28932 -1.11451 0
M  V30 1098 C 102.647 -4.25381 -0.472772 0
M  V30 1099 C 101.973 -5.1071 -1.58365 0
M  V30 1100 C 103.273 -5.18831 0.600948 0
M  V30 1101 H 104.967 -2.92927 0.61919 0
M  V30 1102 H 102.513 -1.40857 0.299215 0
M  V30 1103 H 104.466 -3.89002 -1.62036 0
M  V30 1104 H 103.19 -2.67381 -1.8755 0
M  V30 1105 H 101.849 -3.66598 0.0121472 0
M  V30 1106 H 101.497 -4.45533 -2.33473 0
M  V30 1107 H 101.197 -5.7604 -1.15982 0
M  V30 1108 H 102.721 -5.73647 -2.09194 0
M  V30 1109 H 104.135 -5.73019 0.179491 0
M  V30 1110 H 102.532 -5.92595 0.946076 0
M  V30 1111 H 103.602 -4.6174 1.48068 0
M  V30 1112 N 104.945 -0.338344 -1.53925 0
M  V30 1113 C 106.361 0.0137736 -1.59594 0
M  V30 1114 C 106.561 1.49186 -1.35447 0
M  V30 1115 O 105.617 2.24987 -1.14616 0
M  V30 1116 C 106.93 -0.41773 -2.97784 0
M  V30 1117 C 108.478 -0.369633 -3.1081 0
M  V30 1118 C 108.953 -0.776524 -4.51369 0
M  V30 1119 N 110.444 -0.730506 -4.57403 0
M  V30 1120 C 111.179 -1.01736 -5.64303 0
M  V30 1121 N 110.675 -1.3721 -6.79077 0
M  V30 1122 N 112.468 -0.941942 -5.54151 0
M  V30 1123 H 104.619 -1.3012 -1.67876 0
M  V30 1124 H 106.882 -0.530082 -0.78595 0
M  V30 1125 H 106.588 -1.44811 -3.20504 0
M  V30 1126 H 106.462 0.209729 -3.76616 0
M  V30 1127 H 108.849 0.651568 -2.87817 0
M  V30 1128 H 108.93 -1.03223 -2.34049 0
M  V30 1129 H 108.574 -1.79571 -4.75096 0
M  V30 1130 H 108.504 -0.0914649 -5.26521 0
M  V30 1131 H 110.995 -0.468783 -3.74981 0
M  V30 1132 H 111.308 -1.57597 -7.5656 0
M  V30 1133 H 109.653 -1.4105 -6.80536 0
M  V30 1134 H 112.844 -0.664184 -4.63364 0
M  V30 1135 H 113.017 -1.16884 -6.37371 0
M  V30 1136 N 106.423 1.57458 -0.0668435 0
M  V30 1137 C 107.669 1.94401 0.598316 0
M  V30 1138 C 108.024 0.946335 1.67518 0
M  V30 1139 O 107.317 -0.0321442 1.91573 0
M  V30 1140 C 107.511 3.35784 1.22409 0
M  V30 1141 C 107.34 4.49212 0.209367 0
M  V30 1142 C 106.11 5.04887 -0.204218 0
M  V30 1143 C 108.308 5.11335 -0.551431 0
M  V30 1144 N 106.29 6.01854 -1.21016 0
M  V30 1145 C 107.661 6.03754 -1.41 0
M  V30 1146 C 109.716 4.94173 -0.608038 0
M  V30 1147 C 108.419 6.80854 -2.32013 0
M  V30 1148 C 110.445 5.71912 -1.50566 0
M  V30 1149 C 109.807 6.63976 -2.35191 0
M  V30 1150 H 105.906 0.758538 0.190114 0
M  V30 1151 H 108.49 1.94175 -0.142832 0
M  V30 1152 H 106.661 3.36757 1.93518 0
M  V30 1153 H 108.393 3.59976 1.84931 0
M  V30 1154 H 105.148 4.73266 0.177908 0
M  V30 1155 H 105.572 6.55035 -1.71049 0
M  V30 1156 H 110.214 4.22788 0.032022 0
M  V30 1157 H 107.932 7.5152 -2.97057 0
M  V30 1158 H 111.518 5.60656 -1.55423 0
M  V30 1159 H 110.398 7.2308 -3.03522 0
M  V30 1160 N 107.901 -0.206675 1.56239 0
M  V30 1161 C 109.15 -0.926964 1.79138 0
M  V30 1162 C 109.463 -1.84901 0.638043 0
M  V30 1163 O 110.669 -2.60906 0.751033 0
M  V30 1164 C 109.125 -1.6986 3.17294 0
M  V30 1165 C 108.733 -0.821956 4.40395 0
M  V30 1166 C 110.477 -2.40922 3.4951 0
M  V30 1167 C 108.384 -1.59179 5.69575 0
M  V30 1168 H 107.314 -0.349864 0.667915 0
M  V30 1169 H 109.965 -0.180487 1.8261 0
M  V30 1170 H 108.347 -2.48853 3.08039 0
M  V30 1171 H 109.521 -0.0715019 4.60745 0
M  V30 1172 H 107.836 -0.222741 4.15804 0
M  V30 1173 H 110.433 -2.99047 4.43255 0
M  V30 1174 H 110.776 -3.14542 2.72707 0
M  V30 1175 H 111.309 -1.68905 3.60161 0
M  V30 1176 H 108.048 -0.898589 6.49312 0
M  V30 1177 H 107.568 -2.31648 5.53262 0
M  V30 1178 H 109.247 -2.14862 6.10281 0
M  V30 1179 N 109.379 -1.50304 -0.473955 0
M  V30 1180 C 110.309 -1.71886 -1.58042 0
M  V30 1181 C 111.29 -0.567799 -1.60344 0
M  V30 1182 O 112.475 -0.806623 -1.76656 0
M  V30 1183 C 109.605 -1.81036 -2.96384 0
M  V30 1184 C 108.559 -2.962 -3.08949 0
M  V30 1185 C 107.885 -2.9049 -4.48909 0
M  V30 1186 C 109.185 -4.36752 -2.86434 0
M  V30 1187 H 110.879 -2.64527 -1.40234 0
M  V30 1188 H 108.425 -1.27295 -0.673201 0
M  V30 1189 H 110.378 -1.94719 -3.73714 0
M  V30 1190 H 109.102 -0.850147 -3.15341 0
M  V30 1191 H 107.761 -2.82164 -2.3405 0
M  V30 1192 H 107.409 -1.92321 -4.64781 0
M  V30 1193 H 107.109 -3.67802 -4.58253 0
M  V30 1194 H 108.633 -3.06218 -5.28264 0
M  V30 1195 H 110.047 -4.5133 -3.53517 0
M  V30 1196 H 108.444 -5.15493 -3.07225 0
M  V30 1197 H 109.514 -4.49321 -1.82316 0
M  V30 1198 N 110.857 0.726932 -1.39834 0
M  V30 1199 C 112.085 1.51613 -1.40787 0
M  V30 1200 C 112.5 1.88799 -0.00451505 0
M  V30 1201 O 111.857 1.54662 0.968809 0
M  V30 1202 C 111.908 2.79863 -2.28821 0
M  V30 1203 O 111.629 2.44253 -3.63692 0
M  V30 1204 C 113.13 3.73837 -2.38245 0
M  V30 1205 H 110.35 0.468264 -0.480593 0
M  V30 1206 H 112.894 0.897607 -1.83748 0
M  V30 1207 H 111.049 3.38027 -1.89252 0
M  V30 1208 H 111.463 3.26695 -4.1033 0
M  V30 1209 H 112.937 4.60699 -3.04073 0
M  V30 1210 H 113.414 4.16153 -1.40403 0
M  V30 1211 H 114.02 3.21589 -2.78317 0
M  V30 1212 N 112.336 1.25143 0.95797 0
M  V30 1213 C 113.583 1.09692 1.70217 0
M  V30 1214 C 113.911 -0.362654 1.91089 0
M  V30 1215 O 113.166 -1.28386 1.47701 0
M  V30 1216 C 113.465 1.79272 3.09187 0
M  V30 1217 C 113.131 3.29196 3.08125 0
M  V30 1218 C 111.793 3.70096 3.07543 0
M  V30 1219 C 114.145 4.24995 3.0171 0
M  V30 1220 C 111.473 5.05213 2.9829 0
M  V30 1221 C 113.825 5.60132 2.93999 0
M  V30 1222 C 112.489 6.00365 2.9175 0
M  V30 1223 H 111.759 0.401393 0.622868 0
M  V30 1224 H 114.406 1.55372 1.11945 0
M  V30 1225 H 112.711 1.26014 3.70982 0
M  V30 1226 H 114.408 1.64773 3.65583 0
M  V30 1227 H 110.998 2.96651 3.09348 0
M  V30 1228 H 115.182 3.9439 3.01281 0
M  V30 1229 H 110.438 5.35569 2.94916 0
M  V30 1230 H 114.612 6.3406 2.87996 0
M  V30 1231 H 112.239 7.05023 2.84336 0
M  V30 1232 N 113.814 -1.1601 1.06675 0
M  V30 1233 C 114.777 -2.18724 0.685001 0
M  V30 1234 C 115.777 -1.58496 -0.271246 0
M  V30 1235 O 116.967 -1.74119 -0.0531156 0
M  V30 1236 C 114.099 -3.40899 0.00853648 0
M  V30 1237 H 115.292 -2.54011 1.59431 0
M  V30 1238 H 112.845 -1.30352 0.862441 0
M  V30 1239 H 113.58 -3.11173 -0.913337 0
M  V30 1240 H 113.365 -3.8587 0.696204 0
M  V30 1241 H 114.855 -4.16886 -0.24414 0
M  V30 1242 N 115.292 -0.849877 -1.32721 0
M  V30 1243 C 116.222 -0.306308 -2.31482 0
M  V30 1244 C 117.203 0.591952 -1.59468 0
M  V30 1245 O 118.388 0.513199 -1.87296 0
M  V30 1246 C 115.518 0.510204 -3.43532 0
M  V30 1247 C 114.472 -0.293209 -4.26994 0
M  V30 1248 C 113.798 0.647743 -5.30762 0
M  V30 1249 C 115.098 -1.51634 -4.99804 0
M  V30 1250 H 116.792 -1.13153 -2.77195 0
M  V30 1251 H 114.338 -0.545553 -1.33266 0
M  V30 1252 H 116.291 0.900856 -4.11658 0
M  V30 1253 H 115.015 1.36874 -2.96535 0
M  V30 1254 H 113.674 -0.665555 -3.60508 0
M  V30 1255 H 113.322 1.50299 -4.8002 0
M  V30 1256 H 113.022 0.11422 -5.87489 0
M  V30 1257 H 114.546 1.03567 -6.01753 0
M  V30 1258 H 115.96 -1.19824 -5.60638 0
M  V30 1259 H 114.357 -1.98745 -5.66234 0
M  V30 1260 H 115.427 -2.28018 -4.27943 0
M  V30 1261 N 116.77 1.45427 -0.607355 0
M  V30 1262 C 117.7 2.3329 0.0989352 0
M  V30 1263 C 118.681 1.46816 0.859007 0
M  V30 1264 O 119.866 1.75588 0.829604 0
M  V30 1265 C 116.996 3.29518 1.09705 0
M  V30 1266 C 115.95 4.25626 0.450206 0
M  V30 1267 C 115.276 5.11542 1.55655 0
M  V30 1268 C 116.576 5.18505 -0.628455 0
M  V30 1269 H 118.27 2.92595 -0.634716 0
M  V30 1270 H 115.816 1.40696 -0.306681 0
M  V30 1271 H 117.769 3.89855 1.59971 0
M  V30 1272 H 116.493 2.68372 1.86129 0
M  V30 1273 H 115.152 3.66586 -0.0315886 0
M  V30 1274 H 114.8 4.46765 2.31107 0
M  V30 1275 H 114.5 5.76647 1.12925 0
M  V30 1276 H 116.024 5.74748 2.06148 0
M  V30 1277 H 117.438 5.72916 -0.209877 0
M  V30 1278 H 115.835 5.92085 -0.977489 0
M  V30 1279 H 116.905 4.60948 -1.50514 0
M  V30 1280 N 118.248 0.346503 1.53744 0
M  V30 1281 C 119.495 -0.249104 2.00962 0
M  V30 1282 C 119.823 -1.5032 1.23426 0
M  V30 1283 O 119.078 -1.93217 0.310761 0
M  V30 1284 C 119.377 -0.605809 3.52228 0
M  V30 1285 C 119.043 0.551747 4.47512 0
M  V30 1286 C 117.705 0.86941 4.73281 0
M  V30 1287 C 120.057 1.32818 5.03993 0
M  V30 1288 C 117.385 1.96582 5.52786 0
M  V30 1289 C 119.737 2.41486 5.84694 0
M  V30 1290 C 118.401 2.73808 6.08757 0
M  V30 1291 H 117.671 -0.0911538 0.735372 0
M  V30 1292 H 120.318 0.475027 1.85515 0
M  V30 1293 H 118.623 -1.4107 3.65522 0
M  V30 1294 H 120.32 -1.07858 3.86222 0
M  V30 1295 H 116.91 0.294102 4.2759 0
M  V30 1296 H 121.094 1.09602 4.84047 0
M  V30 1297 H 116.35 2.22045 5.69654 0
M  V30 1298 H 120.524 3.02078 6.27473 0
M  V30 1299 H 118.151 3.58892 6.7015 0
M  V30 1300 N 119.726 -1.57421 0.075193 0
M  V30 1301 C 120.972 -1.93905 -0.594025 0
M  V30 1302 C 121.305 -0.955701 -1.69056 0
M  V30 1303 O 120.58 0.0145373 -1.94495 0
M  V30 1304 C 120.863 -3.40638 -1.1678 0
M  V30 1305 C 120.716 -4.49733 -0.0776792 0
M  V30 1306 C 122.035 -3.88259 -2.07228 0
M  V30 1307 H 119.154 -0.705105 -0.214466 0
M  V30 1308 H 121.796 -1.8947 0.141854 0
M  V30 1309 H 119.946 -3.44549 -1.79494 0
M  V30 1310 H 121.618 -4.57942 0.555573 0
M  V30 1311 H 119.861 -4.29751 0.591286 0
M  V30 1312 H 120.532 -5.49549 -0.519603 0
M  V30 1313 H 123.008 -3.86376 -1.54445 0
M  V30 1314 H 121.884 -4.91533 -2.44308 0
M  V30 1315 H 122.145 -3.26396 -2.98191 0
M  V30 1316 N 121.204 0.198386 -1.56346 0
M  V30 1317 C 122.154 1.2499 -1.90687 0
M  V30 1318 C 123.138 1.41158 -0.772217 0
M  V30 1319 O 124.33 1.43584 -1.03502 0
M  V30 1320 C 121.459 2.59542 -2.24706 0
M  V30 1321 C 120.545 2.47181 -3.44619 0
M  V30 1322 N 120.936 2.04495 -4.62618 0
M  V30 1323 C 119.234 2.78082 -3.48692 0
M  V30 1324 C 119.935 2.03945 -5.44776 0
M  V30 1325 N 118.911 2.45323 -4.85095 0
M  V30 1326 H 122.713 0.911149 -2.7942 0
M  V30 1327 H 120.227 0.40684 -1.57221 0
M  V30 1328 H 122.224 3.3549 -2.47491 0
M  V30 1329 H 120.884 2.94244 -1.37298 0
M  V30 1330 H 121.895 1.75256 -4.87345 0
M  V30 1331 H 118.572 3.17002 -2.71691 0
M  V30 1332 H 119.962 1.72872 -6.4928 0
M  V30 1333 N 122.682 1.50554 0.465978 0
M  V30 1334 C 123.928 1.62038 1.21949 0
M  V30 1335 C 124.261 0.322116 1.9151 0
M  V30 1336 O 123.536 -0.676723 1.82348 0
M  V30 1337 C 123.819 2.80421 2.25912 0
M  V30 1338 C 123.672 4.20144 1.60622 0
M  V30 1339 C 124.991 2.94354 3.27176 0
M  V30 1340 H 122.11 0.589752 0.441998 0
M  V30 1341 H 124.752 1.82956 0.51257 0
M  V30 1342 H 122.902 2.62717 2.86203 0
M  V30 1343 H 124.574 4.49449 1.03889 0
M  V30 1344 H 122.817 4.24165 0.909211 0
M  V30 1345 H 123.488 4.98914 2.36196 0
M  V30 1346 H 125.964 3.10578 2.76913 0
M  V30 1347 H 124.84 3.788 3.97242 0
M  V30 1348 H 125.101 2.05186 3.916 0
M  V30 1349 N 124.16 -0.719506 1.40217 0
M  V30 1350 C 125.4 -1.49181 1.39729 0
M  V30 1351 C 125.764 -1.92 -0.00250614 0
M  V30 1352 O 126.965 -2.68473 -0.132479 0
M  V30 1353 C 125.236 -2.68767 2.35582 0
M  V30 1354 S 126.795 -3.58224 2.53418 0
M  V30 1355 H 123.613 -0.510091 0.495307 0
M  V30 1356 H 126.215 -0.841724 1.76452 0
M  V30 1357 H 124.919 -2.35475 3.36124 0
M  V30 1358 H 124.45 -3.38691 2.0013 0
M  V30 1359 H 126.465 -4.63033 1.78367 0
M  V30 1360 N 125.638 -1.25649 -0.95132 0
M  V30 1361 C 126.548 -1.08073 -2.08224 0
M  V30 1362 C 127.564 -0.0169666 -1.73992 0
M  V30 1363 O 128.74 -0.218593 -2.0021 0
M  V30 1364 C 125.805 -0.704922 -3.39458 0
M  V30 1365 C 124.866 -1.84699 -3.87537 0
M  V30 1366 C 124.099 -1.48902 -5.12508 0
M  V30 1367 O 124.322 -0.386156 -5.69091 0
M  V30 1368 O 123.256 -2.32033 -5.55378 0
M  V30 1369 H 127.082 -2.02924 -2.25954 0
M  V30 1370 H 124.667 -1.04618 -1.06656 0
M  V30 1371 H 126.549 -0.507609 -4.18332 0
M  V30 1372 H 125.224 0.214291 -3.2299 0
M  V30 1373 H 124.131 -2.09919 -3.09653 0
M  V30 1374 H 125.464 -2.74557 -4.08509 0
M  V30 1375 N 127.117 1.15442 -1.07289 0
M  V30 1376 C 128.366 1.85557 -0.790669 0
M  V30 1377 C 128.679 1.83186 0.685739 0
M  V30 1378 O 129.885 2.48977 1.0827 0
M  V30 1379 C 128.341 3.33038 -1.36433 0
M  V30 1380 C 127.949 3.43856 -2.8717 0
M  V30 1381 C 129.693 4.0834 -1.1601 0
M  V30 1382 C 127.6 4.85482 -3.3773 0
M  V30 1383 H 126.53 0.695122 -0.292098 0
M  V30 1384 H 129.181 1.30219 -1.29287 0
M  V30 1385 H 127.563 3.88043 -0.789864 0
M  V30 1386 H 128.737 2.98961 -3.50655 0
M  V30 1387 H 127.052 2.81998 -3.06376 0
M  V30 1388 H 129.649 5.12859 -1.51262 0
M  V30 1389 H 129.992 4.16182 -0.0991007 0
M  V30 1390 H 130.525 3.59603 -1.70089 0
M  V30 1391 H 127.264 4.82823 -4.43353 0
M  V30 1392 H 126.784 5.30961 -2.78999 0
M  V30 1393 H 128.463 5.54335 -3.33648 0
M  V30 1394 N 128.595 0.856903 1.32268 0
M  V30 1395 C 129.558 0.308171 2.27119 0
M  V30 1396 C 130.558 -0.533421 1.51695 0
M  V30 1397 O 131.748 -0.344607 1.70757 0
M  V30 1398 C 128.88 -0.563757 3.36206 0
M  V30 1399 H 130.073 1.14535 2.77167 0
M  V30 1400 H 127.626 0.631421 1.42978 0
M  V30 1401 H 128.361 -1.42266 2.91429 0
M  V30 1402 H 128.146 0.0386749 3.92081 0
M  V30 1403 H 129.636 -0.940386 4.06874 0
M  V30 1404 N 130.073 -1.45103 0.615059 0
M  V30 1405 C 130.983 -2.34382 -0.101034 0
M  V30 1406 C 131.999 -1.51681 -0.852585 0
M  V30 1407 O 133.175 -1.8446 -0.808484 0
M  V30 1408 C 130.24 -3.29417 -1.08099 0
M  V30 1409 C 129.301 -4.28025 -0.330577 0
M  V30 1410 C 128.534 -5.1852 -1.26385 0
M  V30 1411 O 128.757 -5.12598 -2.50198 0
M  V30 1412 O 127.691 -5.97122 -0.756866 0
M  V30 1413 H 131.517 -2.97033 0.632855 0
M  V30 1414 H 129.102 -1.4461 0.375293 0
M  V30 1415 H 130.984 -3.87958 -1.6452 0
M  V30 1416 H 129.659 -2.69321 -1.79577 0
M  V30 1417 H 128.566 -3.73078 0.276283 0
M  V30 1418 H 129.899 -4.90997 0.343866 0
M  V30 1419 N 131.551 -0.354651 -1.53558 0
M  V30 1420 C 132.799 0.237972 -2.00694 0
M  V30 1421 C 133.12 1.50173 -1.24391 0
M  V30 1422 O 132.39 1.92673 -0.354135 0
M  V30 1423 H 130.97 0.0909256 -0.741446 0
M  V30 1424 H 133.632 -0.478368 -1.88938 0
M  V30 1425 H 132.728 0.47264 -3.085 0
M  V30 1426 N 133.029 1.57378 -0.0835403 0
M  V30 1427 C 134.278 1.93106 0.582498 0
M  V30 1428 C 134.591 0.96651 1.70053 0
M  V30 1429 O 135.797 1.21705 2.42693 0
M  V30 1430 C 134.253 3.43076 1.08751 0
M  V30 1431 C 133.861 4.48 -0.000146404 0
M  V30 1432 C 135.605 3.87785 1.72694 0
M  V30 1433 C 133.512 5.89113 0.519568 0
M  V30 1434 H 132.442 0.720775 0.221358 0
M  V30 1435 H 135.093 1.82821 -0.157675 0
M  V30 1436 H 133.475 3.48474 1.88101 0
M  V30 1437 H 134.649 4.54233 -0.775199 0
M  V30 1438 H 132.964 4.1283 -0.54406 0
M  V30 1439 H 135.561 4.90604 2.1263 0
M  V30 1440 H 135.904 3.25796 2.59158 0
M  V30 1441 H 136.437 3.8504 0.999457 0
M  V30 1442 H 133.176 6.54775 -0.308186 0
M  V30 1443 H 132.696 5.86376 1.26188 0
M  V30 1444 H 134.375 6.39346 0.992237 0
M  V30 1445 N 134.507 -0.190092 1.56449 0
M  V30 1446 C 135.753 -0.911052 1.81184 0
M  V30 1447 C 136.086 -1.82699 0.658396 0
M  V30 1448 O 135.361 -1.91491 -0.340775 0
M  V30 1449 C 135.644 -1.72297 3.16205 0
M  V30 1450 C 135.497 -0.831419 4.42049 0
M  V30 1451 C 136.816 -2.69454 3.47969 0
M  V30 1452 H 133.935 -0.32977 0.659106 0
M  V30 1453 H 136.577 -0.178169 1.89163 0
M  V30 1454 H 134.727 -2.34778 3.09534 0
M  V30 1455 H 136.399 -0.220929 4.60771 0
M  V30 1456 H 134.642 -0.138406 4.33579 0
M  V30 1457 H 135.313 -1.43461 5.33032 0
M  V30 1458 H 137.789 -2.17104 3.54972 0
M  V30 1459 H 136.665 -3.23342 4.43555 0
M  V30 1460 H 136.926 -3.48744 2.71717 0
M  V30 1461 N 135.985 -1.50799 -0.457987 0
M  V30 1462 C 137.21 -1.66496 -1.23668 0
M  V30 1463 C 137.635 -0.353288 -1.84752 0
M  V30 1464 O 136.993 0.684346 -1.67888 0
M  V30 1465 C 137.041 -2.76763 -2.3116 0
M  V30 1466 O 136.145 -2.38928 -3.36136 0
M  V30 1467 H 135.486 -0.555828 -0.363252 0
M  V30 1468 H 138.016 -1.9725 -0.543474 0
M  V30 1469 H 138.026 -3.00232 -2.76269 0
M  V30 1470 H 136.701 -3.71954 -1.86073 0
M  V30 1471 H 135.278 -2.25953 -2.96647 0
M  V30 1472 N 137.463 0.71206 -1.40597 0
M  V30 1473 C 138.74 1.46536 -1.29563 0
M  V30 1474 C 139.12 2.10931 0.0844217 0
M  V30 1475 O 138.468 2.00418 1.0975 0
M  V30 1476 C 138.678 2.49821 -2.43701 0
M  V30 1477 C 140.026 3.15551 -2.841 0
M  V30 1478 O 141.05 2.60142 -2.4332 0
M  V30 1479 O 139.909 4.15867 -3.54566 0
M  V30 1480 H 137.003 0.651801 -0.509004 0
M  V30 1481 H 139.549 0.743935 -1.52524 0
M  V30 1482 H 138.321 2.00778 -3.35863 0
M  V30 1483 H 137.944 3.29495 -2.22528 0
M  V30 1484 N 138.941 1.26152 0.944643 0
M  V30 1485 C 140.166 1.14363 1.7302 0
M  V30 1486 C 140.591 -0.29772 1.85729 0
M  V30 1487 O 139.949 -1.2157 1.34501 0
M  V30 1488 C 139.997 1.81378 3.11664 0
M  V30 1489 O 139.101 1.10022 3.97453 0
M  V30 1490 H 138.442 0.398694 0.53098 0
M  V30 1491 H 140.972 1.66906 1.18337 0
M  V30 1492 H 140.982 1.88064 3.62072 0
M  V30 1493 H 139.657 2.86237 3.0173 0
M  V30 1494 H 138.234 1.11287 3.55907 0
M  V30 1495 N 140.419 -1.14872 1.07899 0
M  V30 1496 C 141.835 -1.37776 0.805606 0
M  V30 1497 C 142.035 -1.92743 -0.587555 0
M  V30 1498 O 141.091 -2.13678 -1.34528 0
M  V30 1499 C 142.404 -2.34361 1.88402 0
M  V30 1500 C 143.952 -2.48012 1.90942 0
M  V30 1501 C 144.427 -3.47893 2.97883 0
M  V30 1502 N 145.918 -3.55433 2.97021 0
M  V30 1503 C 146.653 -4.32553 3.76412 0
M  V30 1504 N 146.149 -5.12959 4.65666 0
M  V30 1505 N 147.942 -4.27697 3.64735 0
M  V30 1506 H 140.093 -0.775365 1.97742 0
M  V30 1507 H 142.356 -0.403521 0.857831 0
M  V30 1508 H 142.062 -2.01098 2.88535 0
M  V30 1509 H 141.936 -3.34206 1.74889 0
M  V30 1510 H 144.323 -2.8057 0.914579 0
M  V30 1511 H 144.404 -1.48147 2.08534 0
M  V30 1512 H 144.048 -3.16069 3.97571 0
M  V30 1513 H 143.978 -4.47527 2.77538 0
M  V30 1514 H 146.469 -2.98048 2.32326 0
M  V30 1515 H 146.782 -5.69065 5.22862 0
M  V30 1516 H 145.127 -5.12245 4.69712 0
M  V30 1517 H 148.318 -3.63949 2.94378 0
M  V30 1518 H 148.491 -4.8755 4.26848 0
M  V30 1519 N 141.898 -0.863906 -1.31812 0
M  V30 1520 C 143.314 -0.555004 -1.49639 0
M  V30 1521 C 143.514 0.912266 -1.79666 0
M  V30 1522 O 142.57 1.69479 -1.87171 0
M  V30 1523 C 143.883 -1.44998 -2.63431 0
M  V30 1524 C 145.431 -1.45138 -2.77316 0
M  V30 1525 C 145.906 -2.33179 -3.94197 0
M  V30 1526 N 147.397 -2.31025 -4.01474 0
M  V30 1527 C 148.132 -2.95871 -4.9117 0
M  V30 1528 N 147.628 -3.69863 -5.8581 0
M  V30 1529 N 149.421 -2.85211 -4.84367 0
M  V30 1530 H 141.572 -1.81339 -1.10589 0
M  V30 1531 H 143.835 -0.77505 -0.545895 0
M  V30 1532 H 143.541 -2.49377 -2.48 0
M  V30 1533 H 143.415 -1.14409 -3.59431 0
M  V30 1534 H 145.802 -0.415201 -2.92164 0
M  V30 1535 H 145.883 -1.79747 -1.82001 0
M  V30 1536 H 145.527 -3.3687 -3.80107 0
M  V30 1537 H 145.457 -1.95897 -4.88807 0
M  V30 1538 H 147.948 -1.77238 -3.33759 0
M  V30 1539 H 148.261 -4.16486 -6.50968 0
M  V30 1540 H 146.606 -3.73971 -5.85808 0
M  V30 1541 H 149.797 -2.26948 -4.09405 0
M  V30 1542 H 149.97 -3.36027 -5.54066 0
M  V30 1543 N 143.376 1.44774 -0.622745 0
M  V30 1544 C 144.286 2.34433 0.0886031 0
M  V30 1545 C 145.302 1.52131 0.844529 0
M  V30 1546 O 146.478 1.84886 0.798691 0
M  V30 1547 C 143.543 3.29986 1.0635 0
M  V30 1548 C 142.604 4.28195 0.307873 0
M  V30 1549 C 141.837 5.19183 1.23633 0
M  V30 1550 O 142.06 5.13918 2.47476 0
M  V30 1551 O 140.994 5.97515 0.725189 0
M  V30 1552 H 144.82 2.96693 -0.648599 0
M  V30 1553 H 142.405 1.44408 -0.382957 0
M  V30 1554 H 144.287 3.88825 1.6246 0
M  V30 1555 H 142.962 2.70269 1.78146 0
M  V30 1556 H 141.869 3.72927 -0.296064 0
M  V30 1557 H 143.202 4.90808 -0.3699 0
M  V30 1558 N 144.854 0.36279 1.53368 0
M  V30 1559 C 146.079 -0.231226 2.06107 0
M  V30 1560 C 146.504 -1.419 1.23474 0
M  V30 1561 O 145.862 -1.79524 0.253128 0
M  V30 1562 C 145.91 -0.605523 3.5548 0
M  V30 1563 O 145.014 -1.70312 3.7559 0
M  V30 1564 H 144.355 -0.034327 0.663112 0
M  V30 1565 H 146.885 0.522584 1.97814 0
M  V30 1566 H 146.895 -0.877314 3.98456 0
M  V30 1567 H 145.57 0.263004 4.15068 0
M  V30 1568 H 144.147 -1.4271 3.44512 0
M  V30 1569 N 146.332 -1.57332 0.0918853 0
M  V30 1570 C 147.748 -1.57389 -0.264766 0
M  V30 1571 C 147.948 -1.10281 -1.68643 0
M  V30 1572 O 147.004 -0.777801 -2.40222 0
M  V30 1573 C 148.317 -3.00648 -0.0561195 0
M  V30 1574 C 149.865 -3.12754 -0.124116 0
M  V30 1575 C 150.34 -4.57965 0.0564972 0
M  V30 1576 N 151.831 -4.632 0.00155611 0
M  V30 1577 C 152.566 -5.73281 0.116598 0
M  V30 1578 N 152.062 -6.92208 0.286294 0
M  V30 1579 N 153.855 -5.6207 0.0580973 0
M  V30 1580 H 146.006 -1.86262 1.02079 0
M  V30 1581 H 148.269 -0.859579 0.399786 0
M  V30 1582 H 147.975 -3.393 0.925669 0
M  V30 1583 H 147.849 -3.68623 -0.799823 0
M  V30 1584 H 150.236 -2.73976 -1.09641 0
M  V30 1585 H 150.317 -2.47377 0.651024 0
M  V30 1586 H 149.961 -4.97436 1.02564 0
M  V30 1587 H 149.891 -5.21399 -0.738297 0
M  V30 1588 H 152.382 -3.77686 -0.127192 0
M  V30 1589 H 152.695 -7.71934 0.365676 0
M  V30 1590 H 151.04 -6.94254 0.32192 0
M  V30 1591 H 154.231 -4.68043 -0.0733204 0
M  V30 1592 H 154.404 -6.47824 0.151203 0
M  V30 1593 N 147.81 0.181792 -1.56548 0
M  V30 1594 C 148.76 1.22961 -1.92002 0
M  V30 1595 C 149.744 1.40331 -0.787146 0
M  V30 1596 O 150.936 1.42478 -1.05019 0
M  V30 1597 C 148.065 2.57144 -2.27446 0
M  V30 1598 C 147.151 2.43512 -3.47222 0
M  V30 1599 N 147.542 1.99577 -4.64761 0
M  V30 1600 C 145.84 2.74368 -3.51622 0
M  V30 1601 C 146.541 1.98156 -5.46909 0
M  V30 1602 N 145.517 2.40164 -4.8767 0
M  V30 1603 H 149.319 0.881462 -2.8037 0
M  V30 1604 H 146.833 0.390141 -1.57644 0
M  V30 1605 H 148.83 3.32847 -2.51035 0
M  V30 1606 H 147.49 2.92771 -1.40411 0
M  V30 1607 H 148.501 1.70078 -4.89177 0
M  V30 1608 H 145.178 3.14102 -2.75038 0
M  V30 1609 H 146.568 1.65975 -6.51077 0
M  V30 1610 N 149.288 1.51039 0.449983 0
M  V30 1611 C 150.218 1.74379 1.55288 0
M  V30 1612 C 151.199 0.593236 1.5942 0
M  V30 1613 O 152.384 0.834625 1.7535 0
M  V30 1614 C 149.514 1.85728 2.93466 0
M  V30 1615 C 148.468 3.01078 3.04197 0
M  V30 1616 C 147.794 2.97595 4.44231 0
M  V30 1617 C 149.094 4.41254 2.7945 0
M  V30 1618 H 150.788 2.66725 1.36008 0
M  V30 1619 H 148.334 1.2835 0.652864 0
M  V30 1620 H 150.287 2.0064 3.70569 0
M  V30 1621 H 149.011 0.900207 3.13949 0
M  V30 1622 H 147.67 2.85851 2.29531 0
M  V30 1623 H 147.318 1.99691 4.61663 0
M  V30 1624 H 147.018 3.75046 4.52343 0
M  V30 1625 H 148.542 3.14583 5.23326 0
M  V30 1626 H 149.956 4.56897 3.46292 0
M  V30 1627 H 148.353 5.20315 2.98985 0
M  V30 1628 H 149.423 4.52164 1.75144 0
M  V30 1629 N 150.766 -0.704594 1.40972 0
M  V30 1630 C 151.716 -1.81051 1.38581 0
M  V30 1631 C 152.7 -1.58759 0.261585 0
M  V30 1632 O 153.892 -1.69745 0.501556 0
M  V30 1633 C 151.021 -3.19279 1.26157 0
M  V30 1634 C 150.107 -3.47296 2.43405 0
M  V30 1635 N 150.498 -3.46064 3.68881 0
M  V30 1636 C 148.796 -3.77804 2.37023 0
M  V30 1637 C 149.497 -3.72733 4.46592 0
M  V30 1638 N 148.473 -3.9203 3.76581 0
M  V30 1639 H 152.275 -1.78448 2.33525 0
M  V30 1640 H 149.789 -0.904198 1.349 0
M  V30 1641 H 151.786 -3.98488 1.22526 0
M  V30 1642 H 150.446 -3.231 0.321902 0
M  V30 1643 H 151.457 -3.26656 4.01891 0
M  V30 1644 H 148.134 -3.8905 1.51481 0
M  V30 1645 H 149.524 -3.77993 5.55492 0
M  V30 1646 N 152.244 -1.26651 -0.937939 0
M  V30 1647 C 153.174 -1.10993 -2.05433 0
M  V30 1648 C 154.155 -0.0142161 -1.70094 0
M  V30 1649 O 155.34 -0.186837 -1.93299 0
M  V30 1650 C 152.47 -0.745561 -3.39203 0
M  V30 1651 C 151.424 -1.79337 -3.88616 0
M  V30 1652 C 150.75 -1.28324 -5.19073 0
M  V30 1653 C 152.05 -3.19553 -4.13138 0
M  V30 1654 H 153.744 -2.0438 -2.1879 0
M  V30 1655 H 151.29 -0.984041 -1.05131 0
M  V30 1656 H 153.243 -0.622888 -4.16771 0
M  V30 1657 H 151.967 0.22401 -3.25831 0
M  V30 1658 H 150.626 -1.90477 -3.13231 0
M  V30 1659 H 150.274 -0.303414 -5.02084 0
M  V30 1660 H 149.974 -1.98369 -5.53103 0
M  V30 1661 H 151.498 -1.1733 -5.99221 0
M  V30 1662 H 152.912 -3.11471 -4.81309 0
M  V30 1663 H 151.309 -3.87218 -4.58457 0
M  V30 1664 H 152.379 -3.65368 -3.18801 0
M  V30 1665 N 153.722 1.14298 -1.08507 0
M  V30 1666 C 154.969 1.85359 -0.815373 0
M  V30 1667 C 155.297 1.83001 0.658865 0
M  V30 1668 O 154.552 1.25655 1.50031 0
M  V30 1669 C 154.851 3.33547 -1.28379 0
M  V30 1670 C 154.517 3.56093 -2.76602 0
M  V30 1671 C 153.179 3.61955 -3.17084 0
M  V30 1672 C 155.531 3.64834 -3.72217 0
M  V30 1673 C 152.859 3.74082 -4.51973 0
M  V30 1674 C 155.211 3.78487 -5.06883 0
M  V30 1675 C 153.875 3.82598 -5.46969 0
M  V30 1676 H 153.145 0.678276 -0.298366 0
M  V30 1677 H 155.792 1.35002 -1.35819 0
M  V30 1678 H 154.097 3.86191 -0.660593 0
M  V30 1679 H 155.794 3.86959 -1.05186 0
M  V30 1680 H 152.384 3.52179 -2.4427 0
M  V30 1681 H 156.568 3.59595 -3.42061 0
M  V30 1682 H 151.824 3.75527 -4.82483 0
M  V30 1683 H 155.998 3.84193 -5.80834 0
M  V30 1684 H 153.625 3.91747 -6.51489 0
M  V30 1685 N 155.201 0.870884 1.31352 0
M  V30 1686 C 156.134 0.271983 2.26573 0
M  V30 1687 C 157.112 -0.599385 1.51149 0
M  V30 1688 O 158.296 -0.552605 1.80218 0
M  V30 1689 C 155.423 -0.614801 3.33073 0
M  V30 1690 C 154.469 0.185342 4.26097 0
M  V30 1691 S 155.302 1.56444 5.12138 0
M  V30 1692 C 156.458 0.683807 6.22153 0
M  V30 1693 H 156.691 1.07916 2.77023 0
M  V30 1694 H 154.224 0.669459 1.39132 0
M  V30 1695 H 156.182 -1.12074 3.94905 0
M  V30 1696 H 154.843 -1.39593 2.81376 0
M  V30 1697 H 154.036 -0.490771 5.01605 0
M  V30 1698 H 153.638 0.623415 3.68768 0
M  V30 1699 H 155.93 -0.10521 6.77418 0
M  V30 1700 H 156.873 1.41004 6.93919 0
M  V30 1701 H 157.281 0.250952 5.63942 0
M  V30 1702 N 156.679 -1.44442 0.630414 0
M  V30 1703 C 158.09 -1.85434 0.217063 0
M  V30 1704 C 158.441 -1.52748 -1.23136 0
M  V30 1705 O 157.566 -0.965205 -1.93682 0
M  V30 1706 C 158.161 -3.36581 0.387168 0
M  V30 1707 C 156.72 -3.76389 0.0283297 0
M  V30 1708 C 155.867 -2.68296 0.700889 0
M  V30 1709 H 158.818 -1.34919 0.83562 0
M  V30 1710 H 158.839 -3.78657 -0.374086 0
M  V30 1711 H 158.351 -3.60339 1.44144 0
M  V30 1712 H 156.452 -3.58246 -1.02423 0
M  V30 1713 H 156.565 -4.77095 0.437892 0
M  V30 1714 H 154.929 -2.54335 0.136267 0
M  V30 1715 H 155.712 -2.94887 1.75774 0
M  V30 1716 N 158.157 -0.370918 -1.53173 0
M  V30 1717 C 159.12 0.460778 -2.24521 0
M  V30 1718 C 160.12 1.00536 -1.25496 0
M  V30 1719 O 161.31 0.890266 -1.49733 0
M  V30 1720 C 158.442 1.64457 -2.98608 0
M  V30 1721 H 159.635 -0.163613 -2.99453 0
M  V30 1722 H 157.188 -0.122699 -1.55818 0
M  V30 1723 H 157.923 2.30691 -2.2793 0
M  V30 1724 H 157.708 1.26099 -3.7127 0
M  V30 1725 H 159.198 2.23384 -3.5283 0
M  V30 1726 N 159.635 1.57281 -0.100228 0
M  V30 1727 C 160.881 1.94826 0.563101 0
M  V30 1728 C 161.214 0.982475 1.67514 0
M  V30 1729 O 160.489 0.0164069 1.94493 0
M  V30 1730 C 160.772 3.42453 1.11346 0
M  V30 1731 C 160.625 4.498 0.00612081 0
M  V30 1732 C 161.944 3.91506 2.01024 0
M  V30 1733 H 159.063 0.708428 0.203221 0
M  V30 1734 H 161.705 1.8922 -0.171979 0
M  V30 1735 H 159.855 3.47361 1.7399 0
M  V30 1736 H 161.527 4.57 -0.628357 0
M  V30 1737 H 159.77 4.28756 -0.659581 0
M  V30 1738 H 160.441 5.50306 0.432109 0
M  V30 1739 H 162.917 3.88784 1.48278 0
M  V30 1740 H 161.793 4.95358 2.36457 0
M  V30 1741 H 162.054 3.31099 2.92961 0
M  V30 1742 N 161.113 -0.173488 1.56642 0
M  V30 1743 C 162.046 -1.24353 1.91342 0
M  V30 1744 C 163.024 -1.4289 0.775965 0
M  V30 1745 O 164.208 -1.57932 1.02907 0
M  V30 1746 C 161.335 -2.60683 2.16245 0
M  V30 1747 C 160.381 -2.58894 3.38934 0
M  V30 1748 S 161.214 -2.0819 4.93373 0
M  V30 1749 C 162.37 -3.46302 5.21369 0
M  V30 1750 H 162.603 -0.947345 2.81803 0
M  V30 1751 H 160.136 -0.377958 1.49703 0
M  V30 1752 H 162.094 -3.39149 2.31275 0
M  V30 1753 H 160.755 -2.87502 1.26496 0
M  V30 1754 H 159.948 -3.59188 3.53553 0
M  V30 1755 H 159.55 -1.88522 3.2301 0
M  V30 1756 H 161.842 -4.42287 5.13214 0
M  V30 1757 H 162.785 -3.3656 6.23003 0
M  V30 1758 H 163.193 -3.42214 4.48943 0
M  V30 1759 N 162.591 -1.51276 -0.441967 0
M  V30 1760 C 163.839 -1.63392 -1.18943 0
M  V30 1761 C 164.16 -0.350159 -1.9183 0
M  V30 1762 O 163.43 0.633784 -1.85364 0
M  V30 1763 H 162.01 -0.602164 -0.442049 0
M  V30 1764 H 164.672 -1.88186 -0.507165 0
M  V30 1765 H 163.768 -2.45934 -1.92154 0
M  V30 1766 N 164.069 0.697108 -1.41344 0
M  V30 1767 C 165.316 1.45714 -1.40619 0
M  V30 1768 C 165.644 1.94494 -0.0147907 0
M  V30 1769 O 164.899 1.69794 0.973066 0
M  V30 1770 C 165.198 2.68553 -2.35826 0
M  V30 1771 C 164.864 2.38438 -3.82698 0
M  V30 1772 C 163.526 2.29936 -4.22709 0
M  V30 1773 C 165.878 2.13567 -4.75435 0
M  V30 1774 C 163.206 1.94656 -5.53467 0
M  V30 1775 C 165.558 1.79797 -6.06511 0
M  V30 1776 C 164.222 1.69789 -6.45545 0
M  V30 1777 H 163.492 0.533206 -0.51456 0
M  V30 1778 H 166.139 0.796901 -1.74131 0
M  V30 1779 H 164.444 3.39503 -1.95563 0
M  V30 1780 H 166.141 3.2669 -2.32539 0
M  V30 1781 H 162.731 2.4595 -3.51008 0
M  V30 1782 H 166.915 2.19082 -4.45328 0
M  V30 1783 H 162.171 1.8546 -5.82593 0
M  V30 1784 H 166.345 1.59572 -6.77872 0
M  V30 1785 H 163.972 1.4222 -7.46778 0
M  V30 1786 N 165.547 1.27147 0.931209 0
M  V30 1787 C 166.793 1.13446 1.68101 0
M  V30 1788 C 167.126 -0.319628 1.91552 0
M  V30 1789 O 166.401 -1.23407 1.50336 0
M  V30 1790 C 166.684 1.91482 3.0497 0
M  V30 1791 C 166.537 3.44855 2.88782 0
M  V30 1792 C 167.856 1.71651 4.05246 0
M  V30 1793 H 164.975 0.413498 0.610072 0
M  V30 1794 H 167.617 1.56261 1.08086 0
M  V30 1795 H 165.767 1.55095 3.56199 0
M  V30 1796 H 167.439 3.9105 2.44698 0
M  V30 1797 H 165.682 3.71373 2.24198 0
M  V30 1798 H 166.353 3.94694 3.85902 0
M  V30 1799 H 168.829 2.0337 3.63015 0
M  V30 1800 H 167.705 2.28651 4.99009 0
M  V30 1801 H 167.966 0.663555 4.37092 0
M  V30 1802 N 167.025 -1.13721 1.09112 0
M  V30 1803 C 167.988 -2.17222 0.731241 0
M  V30 1804 C 168.988 -1.59035 -0.237566 0
M  V30 1805 O 170.178 -1.74192 -0.0161704 0
M  V30 1806 C 167.31 -3.40804 0.0808443 0
M  V30 1807 H 168.503 -2.50573 1.64783 0
M  V30 1808 H 166.056 -1.28493 0.889897 0
M  V30 1809 H 166.791 -3.1304 -0.847127 0
M  V30 1810 H 166.576 -3.84306 0.777896 0
M  V30 1811 H 168.066 -4.1731 -0.155657 0
M  V30 1812 N 168.503 -0.877838 -1.30888 0
M  V30 1813 C 169.731 -0.507414 -2.00581 0
M  V30 1814 C 170.146 0.902216 -1.65848 0
M  V30 1815 O 169.503 1.59225 -0.891831 0
M  V30 1816 C 169.554 -0.664162 -3.55347 0
M  V30 1817 O 169.275 -2.01829 -3.8884 0
M  V30 1818 C 170.776 -0.295787 -4.42312 0
M  V30 1819 H 167.996 -0.196866 -0.641471 0
M  V30 1820 H 170.54 -1.18117 -1.66939 0
M  V30 1821 H 168.695 -0.0378619 -3.87381 0
M  V30 1822 H 169.109 -2.03174 -4.8355 0
M  V30 1823 H 170.583 -0.456388 -5.5011 0
M  V30 1824 H 171.06 0.765663 -4.32475 0
M  V30 1825 H 171.666 -0.898113 -4.15709 0
M  V30 1826 N 169.982 1.44106 -0.638065 0
M  V30 1827 C 171.21 2.06336 -0.152615 0
M  V30 1828 C 171.625 1.47731 1.17563 0
M  V30 1829 O 170.982 0.602806 1.72257 0
M  V30 1830 C 171.033 3.61479 -0.0391491 0
M  V30 1831 O 170.754 4.17903 -1.31487 0
M  V30 1832 C 172.255 4.40757 0.474176 0
M  V30 1833 H 169.475 0.665862 -0.0828776 0
M  V30 1834 H 172.019 1.84862 -0.87443 0
M  V30 1835 H 170.174 3.82191 0.633142 0
M  V30 1836 H 170.588 5.11416 -1.16421 0
M  V30 1837 H 172.062 5.49707 0.502562 0
M  V30 1838 H 172.539 4.12697 1.50258 0
M  V30 1839 H 173.145 4.24979 -0.165102 0
M  V30 1840 N 171.46 0.379036 1.52974 0
M  V30 1841 C 172.688 -0.20679 2.05864 0
M  V30 1842 C 173.103 -1.41356 1.25155 0
M  V30 1843 O 172.46 -1.8009 0.295588 0
M  V30 1844 C 172.511 -0.587045 3.56702 0
M  V30 1845 O 172.232 0.571776 4.34353 0
M  V30 1846 C 173.733 -1.22983 4.25899 0
M  V30 1847 H 170.953 -0.0336123 0.670158 0
M  V30 1848 H 173.497 0.541298 1.97206 0
M  V30 1849 H 171.652 -1.28504 3.65466 0
M  V30 1850 H 172.066 0.261544 5.23847 0
M  V30 1851 H 173.54 -1.44635 5.32715 0
M  V30 1852 H 174.017 -2.19416 3.80465 0
M  V30 1853 H 174.623 -0.572892 4.21424 0
M  V30 1854 N 172.938 -1.57226 0.108567 0
M  V30 1855 C 174.163 -1.99604 -0.563303 0
M  V30 1856 C 174.588 -0.987563 -1.6009 0
M  V30 1857 O 173.946 0.0421687 -1.81251 0
M  V30 1858 C 173.994 -3.40902 -1.17552 0
M  V30 1859 O 173.098 -3.42896 -2.2912 0
M  V30 1860 H 172.439 -0.648704 -0.1417 0
M  V30 1861 H 174.969 -2.03679 0.193961 0
M  V30 1862 H 174.979 -3.78886 -1.51357 0
M  V30 1863 H 173.654 -4.1382 -0.415445 0
M  V30 1864 H 172.231 -3.1672 -1.96832 0
M  V30 1865 N 174.416 0.165178 -1.56732 0
M  V30 1866 C 175.665 0.879143 -1.81532 0
M  V30 1867 C 175.978 1.83144 -0.686842 0
M  V30 1868 O 177.184 2.58823 -0.819944 0
M  V30 1869 C 175.64 1.61388 -3.21686 0
M  V30 1870 C 175.248 0.704904 -4.4242 0
M  V30 1871 C 176.992 2.3157 -3.55774 0
M  V30 1872 C 174.899 1.44022 -5.73595 0
M  V30 1873 H 173.829 0.332033 -0.676957 0
M  V30 1874 H 176.48 0.132008 -1.83025 0
M  V30 1875 H 174.862 2.40599 -3.14529 0
M  V30 1876 H 176.036 -0.0506815 -4.60772 0
M  V30 1877 H 174.351 0.112419 -4.16248 0
M  V30 1878 H 176.948 2.8719 -4.51028 0
M  V30 1879 H 177.291 3.07201 -2.8095 0
M  V30 1880 H 177.824 1.59297 -3.64513 0
M  V30 1881 H 174.563 0.72612 -6.51466 0
M  V30 1882 H 174.083 2.16898 -5.5921 0
M  V30 1883 H 175.762 1.98606 -6.15764 0
M  V30 1884 N 175.894 1.51508 0.433938 0
M  V30 1885 C 177.14 1.64588 1.18484 0
M  V30 1886 C 177.473 0.362666 1.90784 0
M  V30 1887 O 176.748 -0.637892 1.83742 0
M  V30 1888 C 177.031 2.85149 2.19913 0
M  V30 1889 C 176.884 4.23456 1.51674 0
M  V30 1890 C 178.203 3.01227 3.20858 0
M  V30 1891 H 175.322 0.598994 0.429389 0
M  V30 1892 H 177.964 1.84002 0.473647 0
M  V30 1893 H 176.114 2.68729 2.80566 0
M  V30 1894 H 177.786 4.51552 0.943322 0
M  V30 1895 H 176.029 4.25998 0.819035 0
M  V30 1896 H 176.7 5.03812 2.2556 0
M  V30 1897 H 179.176 3.16382 2.70263 0
M  V30 1898 H 178.052 3.87141 3.89118 0
M  V30 1899 H 178.313 2.13447 3.8716 0
M  V30 1900 N 177.372 -0.689602 1.41712 0
M  V30 1901 C 178.602 -1.47613 1.44548 0
M  V30 1902 C 179.01 -1.89132 0.0509034 0
M  V30 1903 O 178.353 -1.57741 -0.94146 0
M  V30 1904 C 178.415 -2.76596 2.2964 0
M  V30 1905 C 178.079 -2.57245 3.77722 0
M  V30 1906 C 179.076 -2.22804 4.69739 0
M  V30 1907 C 176.761 -2.727 4.2183 0
M  V30 1908 C 178.755 -2.04064 6.03851 0
M  V30 1909 C 176.442 -2.53576 5.56006 0
M  V30 1910 C 177.44 -2.1931 6.46832 0
M  V30 1911 O 177.128 -2.00359 7.78532 0
M  V30 1912 H 176.86 -0.461227 0.494212 0
M  V30 1913 H 179.414 -0.856045 1.86711 0
M  V30 1914 H 177.644 -3.41033 1.82301 0
M  V30 1915 H 179.333 -3.38424 2.24107 0
M  V30 1916 H 180.099 -2.10473 4.36951 0
M  V30 1917 H 175.978 -2.98353 3.51435 0
M  V30 1918 H 179.522 -1.77241 6.74708 0
M  V30 1919 H 175.419 -2.65499 5.88371 0
M  V30 1920 H 176.187 -2.15075 7.89737 0
M  V30 1921 N 178.85 -1.27639 -0.924453 0
M  V30 1922 C 180.08 -1.16819 -1.70402 0
M  V30 1923 C 180.488 0.277191 -1.87158 0
M  V30 1924 O 179.831 1.20025 -1.39067 0
M  V30 1925 C 179.893 -1.78305 -3.12166 0
M  V30 1926 C 179.557 -3.27502 -3.18734 0
M  V30 1927 C 180.554 -4.2409 -3.00738 0
M  V30 1928 C 178.239 -3.68269 -3.4159 0
M  V30 1929 C 180.233 -5.59422 -3.05492 0
M  V30 1930 C 177.92 -5.0373 -3.45977 0
M  V30 1931 C 178.918 -5.99116 -3.27946 0
M  V30 1932 O 178.606 -7.32108 -3.32074 0
M  V30 1933 H 178.338 -0.406931 -0.539799 0
M  V30 1934 H 180.892 -1.69078 -1.16626 0
M  V30 1935 H 179.122 -1.20528 -3.67437 0
M  V30 1936 H 180.811 -1.62154 -3.72103 0
M  V30 1937 H 181.577 -3.93931 -2.82919 0
M  V30 1938 H 177.456 -2.94496 -3.54673 0
M  V30 1939 H 181 -6.33852 -2.91337 0
M  V30 1940 H 176.897 -5.33543 -3.63321 0
M  V30 1941 H 177.665 -7.40598 -3.48507 0
M  V30 1942 N 180.328 1.1314 -1.09713 0
M  V30 1943 C 181.278 2.16709 -0.708593 0
M  V30 1944 C 182.262 1.58471 0.278523 0
M  V30 1945 O 183.454 1.76779 0.088427 0
M  V30 1946 C 180.583 3.43039 -0.133923 0
M  V30 1947 C 179.669 4.08277 -1.14763 0
M  V30 1948 N 180.06 4.48637 -2.33577 0
M  V30 1949 C 178.358 4.34954 -0.986446 0
M  V30 1950 C 179.059 4.9952 -2.98085 0
M  V30 1951 N 178.035 4.94561 -2.25632 0
M  V30 1952 H 181.837 2.45672 -1.61315 0
M  V30 1953 H 179.351 1.29967 -0.973775 0
M  V30 1954 H 181.348 4.16583 0.162465 0
M  V30 1955 H 180.008 3.15549 0.765447 0
M  V30 1956 H 181.019 4.41246 -2.7115 0
M  V30 1957 H 177.696 4.17258 -0.142008 0
M  V30 1958 H 179.086 5.40521 -3.99108 0
M  V30 1959 N 181.806 0.884767 1.30421 0
M  V30 1960 C 182.754 0.340869 2.30089 0
M  V30 1961 C 183.748 -0.55201 1.60154 0
M  V30 1962 O 184.954 -0.436467 1.74628 0
M  V30 1963 H 181.329 0.0915739 0.746404 0
M  V30 1964 H 183.3 1.19513 2.73421 0
M  V30 1965 C 182.049 -0.429779 3.45034 0
M  V30 1966 H 181.372 0.248024 3.9903 0
M  V30 1967 H 182.812 -0.775445 4.16849 0
M  V30 1968 C 181.271 -1.62677 2.95022 0
M  V30 1969 O 181.801 -2.72614 2.95033 0
M  V30 1970 N 180.007 -1.46387 2.51036 0
M  V30 1971 H 179.554 -0.569506 2.51226 0
M  V30 1972 H 179.512 -2.26612 2.17932 0
M  V30 1973 N 183.284 -1.43765 0.645699 0
M  V30 1974 C 184.533 -2.01116 0.153412 0
M  V30 1975 C 184.846 -1.51493 -1.23731 0
M  V30 1976 O 186.052 -2.01067 -1.8244 0
M  V30 1977 C 184.508 -3.59206 0.223473 0
M  V30 1978 C 184.116 -4.17823 1.61642 0
M  V30 1979 C 185.86 -4.23972 -0.211597 0
M  V30 1980 C 183.767 -5.68183 1.64081 0
M  V30 1981 H 182.697 -0.752093 0.0535891 0
M  V30 1982 H 185.348 -1.6482 0.806633 0
M  V30 1983 H 183.73 -3.92867 -0.497118 0
M  V30 1984 H 184.904 -3.95674 2.36176 0
M  V30 1985 H 183.219 -3.65399 1.99681 0
M  V30 1986 H 185.816 -5.34275 -0.213112 0
M  V30 1987 H 186.159 -3.97352 -1.24165 0
M  V30 1988 H 186.692 -3.95166 0.456988 0
M  V30 1989 H 183.431 -5.99559 2.64971 0
M  V30 1990 H 182.951 -5.9241 0.938611 0
M  V30 1991 H 184.63 -6.32085 1.3812 0
M  V30 1992 N 184.763 -0.387143 -1.52771 0
M  V30 1993 C 185.673 0.456442 -2.30117 0
M  V30 1994 C 186.689 1.07342 -1.36944 0
M  V30 1995 O 187.865 1.07971 -1.70013 0
M  V30 1996 C 184.93 1.56957 -3.09136 0
M  V30 1997 C 183.991 0.977916 -4.18014 0
M  V30 1998 C 183.224 2.038 -4.93256 0
M  V30 1999 O 183.447 3.25271 -4.68567 0
M  V30 2000 O 182.381 1.6565 -5.78657 0
M  V30 2001 H 186.207 -0.17359 -3.03203 0
M  V30 2002 H 183.792 -0.150919 -1.48636 0
M  V30 2003 H 185.674 2.21628 -3.58412 0
M  V30 2004 H 184.349 2.18461 -2.38865 0
M  V30 2005 H 183.256 0.294525 -3.72939 0
M  V30 2006 H 184.589 0.407128 -4.90513 0
M  V30 2007 N 186.241 1.57166 -0.116904 0
M  V30 2008 C 187.469 1.99473 0.549383 0
M  V30 2009 C 187.884 0.996541 1.60357 0
M  V30 2010 O 187.241 -0.0108731 1.82497 0
M  V30 2011 C 187.292 3.41788 1.17741 0
M  V30 2012 O 187.013 4.37788 0.165362 0
M  V30 2013 C 188.514 3.99216 1.92722 0
M  V30 2014 H 185.734 0.655009 0.145616 0
M  V30 2015 H 188.278 2.03494 -0.202625 0
M  V30 2016 H 186.433 3.38713 1.88021 0
M  V30 2017 H 186.847 5.20806 0.621403 0
M  V30 2018 H 188.321 5.00882 2.31995 0
M  V30 2019 H 188.798 3.3824 2.80161 0
M  V30 2020 H 189.404 4.0583 1.27209 0
M  V30 2021 N 187.719 -0.156864 1.56817 0
M  V30 2022 C 188.944 -0.890331 1.87318 0
M  V30 2023 C 189.369 -1.74394 0.704855 0
M  V30 2024 O 188.727 -1.77972 -0.345786 0
M  V30 2025 C 188.775 -1.73102 3.16336 0
M  V30 2026 O 187.879 -2.83422 2.99576 0
M  V30 2027 H 187.22 -0.24857 0.615718 0
M  V30 2028 H 189.75 -0.150649 2.04045 0
M  V30 2029 H 189.76 -2.12803 3.48107 0
M  V30 2030 H 188.435 -1.10412 4.00976 0
M  V30 2031 H 187.012 -2.47199 2.7919 0
M  V30 2032 N 189.197 -1.51736 -0.425897 0
M  V30 2033 C 190.145 -1.74464 -1.53834 0
M  V30 2034 C 191.139 -0.611241 -1.57988 0
M  V30 2035 O 192.345 -0.792899 -1.61596 0
M  V30 2036 H 188.72 -0.551437 -0.511293 0
M  V30 2037 H 190.691 -2.67694 -1.31843 0
M  V30 2038 C 189.44 -1.8972 -2.91379 0
M  V30 2039 H 188.763 -2.76344 -2.88919 0
M  V30 2040 H 190.203 -2.09629 -3.68553 0
M  V30 2041 C 188.662 -0.65992 -3.30374 0
M  V30 2042 O 189.192 0.180083 -4.01296 0
M  V30 2043 N 187.398 -0.500677 -2.86254 0
M  V30 2044 H 186.945 -1.18532 -2.28709 0
M  V30 2045 H 186.903 0.325903 -3.12706 0
M  V30 2046 N 190.675 0.682077 -1.42076 0
M  V30 2047 C 191.922 1.44215 -1.42156 0
M  V30 2048 C 192.25 1.94468 -0.0354186 0
M  V30 2049 O 191.505 1.70816 0.955002 0
M  V30 2050 C 191.804 2.66036 -2.38662 0
M  V30 2051 C 191.47 2.34366 -3.85206 0
M  V30 2052 C 190.132 2.25439 -4.25124 0
M  V30 2053 C 192.484 2.08513 -4.77673 0
M  V30 2054 C 189.812 1.88775 -5.55501 0
M  V30 2055 C 192.164 1.73354 -6.08384 0
M  V30 2056 C 190.828 1.62933 -6.47309 0
M  V30 2057 H 190.098 0.527718 -0.520187 0
M  V30 2058 H 192.745 0.778387 -1.74967 0
M  V30 2059 H 191.05 3.3741 -1.99152 0
M  V30 2060 H 192.747 3.24205 -2.35991 0
M  V30 2061 H 189.337 2.42213 -3.53597 0
M  V30 2062 H 193.521 2.14346 -4.47626 0
M  V30 2063 H 188.777 1.7927 -5.84527 0
M  V30 2064 H 192.951 1.52373 -6.79526 0
M  V30 2065 H 190.578 1.34292 -7.48244 0
M  V30 2066 N 192.153 1.28127 0.917671 0
M  V30 2067 C 193.564 1.13622 1.48145 0
M  V30 2068 C 193.915 -0.275207 1.9426 0
M  V30 2069 O 193.04 -1.1691 1.82102 0
M  V30 2070 C 193.635 2.05648 2.69248 0
M  V30 2071 C 192.194 1.95219 3.21818 0
M  V30 2072 C 191.341 1.97618 1.94532 0
M  V30 2073 H 194.292 1.40874 0.730772 0
M  V30 2074 H 194.313 1.61818 3.44377 0
M  V30 2075 H 193.825 3.08365 2.35653 0
M  V30 2076 H 191.926 0.955244 3.60147 0
M  V30 2077 H 192.039 2.81976 3.87333 0
M  V30 2078 H 190.403 1.41973 2.11461 0
M  V30 2079 H 191.186 3.02007 1.63238 0
M  V30 2080 N 193.631 -1.12557 1.10312 0
M  V30 2081 C 194.578 -2.18247 0.750781 0
M  V30 2082 C 195.548 -1.63853 -0.272293 0
M  V30 2083 O 196.733 -1.90195 -0.151862 0
M  V30 2084 C 193.873 -3.44591 0.187379 0
M  V30 2085 C 192.986 -4.13046 1.2656 0
M  V30 2086 C 192.121 -5.27034 0.663978 0
M  V30 2087 C 191.16 -5.87353 1.72287 0
M  V30 2088 N 190.297 -6.92757 1.1416 0
M  V30 2089 H 195.137 -2.47732 1.65628 0
M  V30 2090 H 192.674 -1.21629 0.827337 0
M  V30 2091 H 194.632 -4.16904 -0.157148 0
M  V30 2092 H 193.262 -3.15527 -0.681355 0
M  V30 2093 H 192.314 -3.38924 1.72727 0
M  V30 2094 H 193.626 -4.53947 2.06721 0
M  V30 2095 H 192.78 -6.06104 0.268824 0
M  V30 2096 H 191.519 -4.87407 -0.169082 0
M  V30 2097 H 190.524 -5.06971 2.12746 0
M  V30 2098 H 191.749 -6.29051 2.55875 0
M  V30 2099 H 189.695 -6.5517 0.329984 0
M  V30 2100 H 189.612 -7.3225 1.88007 0
M  V30 2101 H 190.88 -7.75658 0.772956 0
M  V30 2102 N 195.109 -0.891671 -1.2995 0
M  V30 2103 C 196.039 -0.379797 -2.30391 0
M  V30 2104 C 197.02 0.540919 -1.6127 0
M  V30 2105 O 198.205 0.453352 -1.88834 0
M  V30 2106 C 195.335 0.400654 -3.44981 0
M  V30 2107 C 194.289 -0.428905 -4.25846 0
M  V30 2108 C 193.615 0.478557 -5.32554 0
M  V30 2109 C 194.915 -1.67458 -4.94727 0
M  V30 2110 H 196.609 -1.21914 -2.73454 0
M  V30 2111 H 194.155 -0.587675 -1.31462 0
M  V30 2112 H 196.108 0.769434 -4.14316 0
M  V30 2113 H 194.832 1.27371 -3.0074 0
M  V30 2114 H 193.491 -0.779911 -3.58208 0
M  V30 2115 H 193.139 1.34951 -4.84559 0
M  V30 2116 H 192.839 -0.0727433 -5.87555 0
M  V30 2117 H 194.363 0.843705 -6.04743 0
M  V30 2118 H 195.777 -1.376 -5.56542 0
M  V30 2119 H 194.174 -2.16659 -5.59624 0
M  V30 2120 H 195.244 -2.41518 -4.20473 0
M  V30 2121 N 196.587 1.43421 -0.653314 0
M  V30 2122 C 197.517 2.33487 0.0246656 0
M  V30 2123 C 198.498 1.49475 0.811863 0
M  V30 2124 O 199.683 1.78139 0.773322 0
M  V30 2125 C 196.813 3.32841 0.99166 0
M  V30 2126 C 195.767 4.26842 0.314568 0
M  V30 2127 C 195.093 5.16236 1.39302 0
M  V30 2128 C 196.393 5.16243 -0.793095 0
M  V30 2129 H 198.087 2.90427 -0.727481 0
M  V30 2130 H 195.633 1.39649 -0.351287 0
M  V30 2131 H 197.586 3.94747 1.47487 0
M  V30 2132 H 196.31 2.74158 1.77497 0
M  V30 2133 H 194.969 3.663 -0.148199 0
M  V30 2134 H 194.617 4.53891 2.16776 0
M  V30 2135 H 194.317 5.79948 0.945223 0
M  V30 2136 H 195.841 5.81015 1.87759 0
M  V30 2137 H 197.255 5.71958 -0.392039 0
M  V30 2138 H 195.652 5.88676 -1.16536 0
M  V30 2139 H 196.722 4.55927 -1.65103 0
M  V30 2140 N 198.065 0.39524 1.52563 0
M  V30 2141 C 198.995 -0.428384 2.29537 0
M  V30 2142 C 199.976 -1.05831 1.33169 0
M  V30 2143 O 201.161 -1.06995 1.62067 0
M  V30 2144 C 198.291 -1.55274 3.10656 0
M  V30 2145 C 197.245 -1.04855 4.14957 0
M  V30 2146 C 196.571 -2.26543 4.84337 0
M  V30 2147 C 197.871 -0.112324 5.22179 0
M  V30 2148 H 199.565 0.213867 2.98635 0
M  V30 2149 H 197.111 0.104298 1.43622 0
M  V30 2150 H 199.064 -2.1358 3.63265 0
M  V30 2151 H 197.788 -2.22266 2.39302 0
M  V30 2152 H 196.447 -0.487985 3.63338 0
M  V30 2153 H 196.095 -2.92059 4.09525 0
M  V30 2154 H 195.795 -1.93466 5.54837 0
M  V30 2155 H 197.319 -2.85481 5.39753 0
M  V30 2156 H 198.733 -0.603752 5.70112 0
M  V30 2157 H 197.13 0.128968 5.99961 0
M  V30 2158 H 198.2 0.837052 4.77621 0
M  V30 2159 N 199.544 -1.57102 0.125237 0
M  V30 2160 C 200.507 -2.14471 -0.80838 0
M  V30 2161 C 201.507 -1.0811 -1.19033 0
M  V30 2162 O 202.697 -1.33856 -1.11482 0
M  V30 2163 C 199.829 -2.69005 -2.09402 0
M  V30 2164 H 201.022 -2.98297 -0.309696 0
M  V30 2165 H 198.575 -1.55807 -0.124051 0
M  V30 2166 H 199.31 -1.88785 -2.63687 0
M  V30 2167 H 199.095 -3.46799 -1.82957 0
M  V30 2168 H 200.585 -3.13278 -2.76128 0
M  V30 2169 N 201.022 0.148545 -1.56898 0
M  V30 2170 C 201.952 1.18524 -2.01182 0
M  V30 2171 C 202.933 1.4489 -0.891123 0
M  V30 2172 O 204.118 1.55836 -1.15882 0
M  V30 2173 C 201.248 2.51879 -2.39112 0
M  V30 2174 C 200.202 2.40038 -3.54353 0
M  V30 2175 C 199.528 3.78089 -3.78091 0
M  V30 2176 C 200.828 1.88577 -4.87069 0
M  V30 2177 H 202.522 0.817029 -2.88036 0
M  V30 2178 H 200.068 0.391575 -1.38574 0
M  V30 2179 H 202.021 3.24627 -2.68692 0
M  V30 2180 H 200.745 2.90532 -1.49193 0
M  V30 2181 H 199.404 1.69742 -3.24936 0
M  V30 2182 H 199.052 4.14175 -2.85426 0
M  V30 2183 H 198.752 3.71028 -4.55645 0
M  V30 2184 H 200.276 4.52387 -4.10095 0
M  V30 2185 H 201.69 2.51117 -5.15377 0
M  V30 2186 H 200.087 1.9241 -5.68417 0
M  V30 2187 H 201.157 0.84136 -4.77545 0
M  V30 2188 N 202.5 1.5196 0.417844 0
M  V30 2189 C 203.747 1.65591 1.16559 0
M  V30 2190 C 204.075 0.381565 1.90721 0
M  V30 2191 O 203.33 -0.635156 1.85106 0
M  V30 2192 C 203.629 2.82269 2.19223 0
M  V30 2193 C 203.295 4.20819 1.61933 0
M  V30 2194 C 201.957 4.58506 1.46033 0
M  V30 2195 C 204.309 5.07196 1.20008 0
M  V30 2196 C 201.637 5.80257 0.867113 0
M  V30 2197 C 203.989 6.29544 0.621086 0
M  V30 2198 C 202.653 6.65987 0.449144 0
M  V30 2199 H 201.923 0.605939 0.42652 0
M  V30 2200 H 204.57 1.86041 0.45397 0
M  V30 2201 H 202.875 2.56118 2.96498 0
M  V30 2202 H 204.572 2.90012 2.76936 0
M  V30 2203 H 201.162 3.91116 1.7529 0
M  V30 2204 H 205.346 4.7867 1.31105 0
M  V30 2205 H 200.602 6.07124 0.721833 0
M  V30 2206 H 204.776 6.95805 0.287798 0
M  V30 2207 H 202.403 7.60199 -0.012632 0
M  V30 2208 N 203.978 -0.674533 1.42435 0
M  V30 2209 C 204.908 -1.80009 1.48724 0
M  V30 2210 C 205.889 -1.6659 0.343793 0
M  V30 2211 O 207.074 -1.86007 0.558137 0
M  V30 2212 C 204.204 -3.18306 1.38919 0
M  V30 2213 C 203.158 -3.46461 2.51294 0
M  V30 2214 C 202.484 -4.84335 2.26547 0
M  V30 2215 C 203.784 -3.43328 3.93603 0
M  V30 2216 H 205.478 -1.75004 2.42928 0
M  V30 2217 H 203.024 -0.840533 1.16923 0
M  V30 2218 H 204.977 -3.9678 1.41927 0
M  V30 2219 H 203.701 -3.2399 0.412094 0
M  V30 2220 H 202.36 -2.70348 2.47604 0
M  V30 2221 H 202.008 -4.86669 1.2713 0
M  V30 2222 H 201.708 -5.04136 3.01861 0
M  V30 2223 H 203.232 -5.65094 2.31304 0
M  V30 2224 H 204.646 -4.11772 3.98894 0
M  V30 2225 H 203.043 -3.74664 4.68771 0
M  V30 2226 H 204.113 -2.41897 4.20255 0
M  V30 2227 N 205.456 -1.28612 -0.910864 0
M  V30 2228 C 206.686 -1.1862 -1.69153 0
M  V30 2229 C 207.094 0.257324 -1.87442 0
M  V30 2230 O 206.437 1.18543 -1.40332 0
M  V30 2231 C 206.499 -1.81606 -3.10257 0
M  V30 2232 C 206.163 -3.30864 -3.15243 0
M  V30 2233 C 207.16 -4.27256 -2.96223 0
M  V30 2234 C 204.845 -3.71871 -3.37664 0
M  V30 2235 C 206.839 -5.62631 -2.99541 0
M  V30 2236 C 204.526 -5.07371 -3.40614 0
M  V30 2237 C 205.524 -6.02561 -3.21573 0
M  V30 2238 O 205.212 -7.35589 -3.2429 0
M  V30 2239 H 204.944 -0.412633 -0.535453 0
M  V30 2240 H 207.498 -1.70306 -1.14827 0
M  V30 2241 H 205.728 -1.24418 -3.66138 0
M  V30 2242 H 207.417 -1.66092 -3.70362 0
M  V30 2243 H 208.183 -3.9691 -2.78725 0
M  V30 2244 H 204.062 -2.98241 -3.5153 0
M  V30 2245 H 207.606 -6.36907 -2.84597 0
M  V30 2246 H 203.503 -5.37366 -3.57642 0
M  V30 2247 H 204.271 -7.44252 -3.40633 0
M  V30 2248 N 206.934 1.1197 -1.10907 0
M  V30 2249 C 208.18 1.84059 -0.865674 0
M  V30 2250 C 208.535 1.82731 0.602254 0
M  V30 2251 O 207.828 1.26543 1.43866 0
M  V30 2252 C 208.022 3.30749 -1.35425 0
M  V30 2253 C 207.851 3.46363 -2.86815 0
M  V30 2254 C 206.621 3.59712 -3.54874 0
M  V30 2255 C 208.819 3.41116 -3.84895 0
M  V30 2256 N 206.801 3.63741 -4.94536 0
M  V30 2257 C 208.172 3.51698 -5.10596 0
M  V30 2258 C 210.227 3.24612 -3.77533 0
M  V30 2259 C 208.93 3.4748 -6.29802 0
M  V30 2260 C 210.956 3.21708 -4.96244 0
M  V30 2261 C 210.318 3.32856 -6.20795 0
M  V30 2262 H 206.417 0.689015 -0.369841 0
M  V30 2263 H 209.001 1.34016 -1.41237 0
M  V30 2264 H 207.172 3.79322 -0.834814 0
M  V30 2265 H 208.904 3.90718 -1.05458 0
M  V30 2266 H 205.659 3.62038 -3.05329 0
M  V30 2267 H 206.083 3.69408 -5.67333 0
M  V30 2268 H 210.725 3.14883 -2.8215 0
M  V30 2269 H 208.443 3.55978 -7.25469 0
M  V30 2270 H 212.029 3.10113 -4.92261 0
M  V30 2271 H 210.909 3.3059 -7.11112 0
M  V30 2272 N 208.412 0.89855 1.29475 0
M  V30 2273 C 209.658 0.524658 1.95896 0
M  V30 2274 C 209.991 -0.926468 1.70676 0
M  V30 2275 O 209.266 -1.65665 1.01908 0
M  V30 2276 C 209.549 0.81633 3.50725 0
M  V30 2277 C 209.402 2.31907 3.85408 0
M  V30 2278 C 210.721 0.302038 4.39062 0
M  V30 2279 H 207.84 0.19209 0.711527 0
M  V30 2280 H 210.482 1.12502 1.53112 0
M  V30 2281 H 208.632 0.305369 3.87298 0
M  V30 2282 H 210.304 2.89949 3.58786 0
M  V30 2283 H 208.547 2.78027 3.32992 0
M  V30 2284 H 209.218 2.47373 4.93468 0
M  V30 2285 H 211.694 0.739551 4.09475 0
M  V30 2286 H 210.57 0.535331 5.46283 0
M  V30 2287 H 210.831 -0.797216 4.34853 0
M  V30 2288 N 209.89 -1.43072 0.660911 0
M  V30 2289 C 210.823 -2.28074 -0.0758862 0
M  V30 2290 C 211.801 -1.40271 -0.822362 0
M  V30 2291 O 212.985 -1.69713 -0.820352 0
M  V30 2292 C 210.112 -3.19843 -1.11437 0
M  V30 2293 C 209.158 -4.23957 -0.465069 0
M  V30 2294 S 209.991 -5.29978 0.767078 0
M  V30 2295 C 211.147 -6.25314 -0.270682 0
M  V30 2296 H 211.38 -2.90216 0.645139 0
M  V30 2297 H 208.913 -1.47697 0.449995 0
M  V30 2298 H 210.871 -3.73257 -1.70849 0
M  V30 2299 H 209.532 -2.56863 -1.80776 0
M  V30 2300 H 208.725 -4.88299 -1.24819 0
M  V30 2301 H 208.327 -3.73959 0.0551242 0
M  V30 2302 H 210.619 -6.67932 -1.13459 0
M  V30 2303 H 211.562 -7.07293 0.337916 0
M  V30 2304 H 211.97 -5.61195 -0.609937 0
M  V30 2305 N 211.368 -0.403325 -1.52352 0
M  V30 2306 C 212.331 0.413051 -2.25447 0
M  V30 2307 C 213.331 0.978513 -1.276 0
M  V30 2308 O 214.521 0.858305 -1.51587 0
M  V30 2309 C 211.653 1.58087 -3.02029 0
M  V30 2310 H 212.846 -0.227094 -2.99039 0
M  V30 2311 H 210.399 -0.155722 -1.55522 0
M  V30 2312 H 211.134 2.25804 -2.32772 0
M  V30 2313 H 210.919 1.18195 -3.73861 0
M  V30 2314 H 212.409 2.1585 -3.57489 0
M  V30 2315 N 212.846 1.57033 -0.133567 0
M  V30 2316 C 214.093 1.95686 0.520877 0
M  V30 2317 C 214.421 1.0177 1.6575 0
M  V30 2318 O 213.676 0.0443195 1.9565 0
M  V30 2319 C 213.975 3.40674 1.08057 0
M  V30 2320 C 213.641 4.50855 0.0637899 0
M  V30 2321 C 212.303 4.80716 -0.215757 0
M  V30 2322 C 214.655 5.17398 -0.62835 0
M  V30 2323 C 211.983 5.74433 -1.19348 0
M  V30 2324 C 214.335 6.12167 -1.5948 0
M  V30 2325 C 212.999 6.40414 -1.88218 0
M  V30 2326 H 212.269 0.716067 0.190602 0
M  V30 2327 H 214.916 1.9026 -0.217556 0
M  V30 2328 H 213.221 3.42865 1.89606 0
M  V30 2329 H 214.918 3.67902 1.59529 0
M  V30 2330 H 211.508 4.27605 0.291855 0
M  V30 2331 H 215.692 4.94472 -0.425562 0
M  V30 2332 H 210.948 5.94616 -1.42272 0
M  V30 2333 H 215.122 6.6281 -2.13671 0
M  V30 2334 H 212.749 7.12838 -2.64133 0
M  V30 2335 N 214.325 -0.140222 1.56975 0
M  V30 2336 C 215.574 -0.850152 1.82908 0
M  V30 2337 C 215.887 -1.82028 0.715892 0
M  V30 2338 O 217.093 -2.57485 0.861016 0
M  V30 2339 C 215.549 -1.5625 3.24213 0
M  V30 2340 C 215.157 -0.63443 4.43485 0
M  V30 2341 C 216.901 -2.25881 3.59413 0
M  V30 2342 C 214.808 -1.34879 5.75814 0
M  V30 2343 H 213.738 -0.321221 0.682153 0
M  V30 2344 H 216.389 -0.102874 1.83211 0
M  V30 2345 H 214.771 -2.35565 3.18316 0
M  V30 2346 H 215.945 0.12398 4.60633 0
M  V30 2347 H 214.26 -0.0461836 4.16374 0
M  V30 2348 H 216.857 -2.79978 4.5554 0
M  V30 2349 H 217.2 -3.02693 2.85802 0
M  V30 2350 H 217.733 -1.53477 3.67001 0
M  V30 2351 H 214.472 -0.622385 6.52539 0
M  V30 2352 H 213.992 -2.07974 5.6259 0
M  V30 2353 H 215.671 -1.88784 6.18845 0
M  V30 2354 N 215.803 -1.52179 -0.40978 0
M  V30 2355 C 217.031 -1.70054 -1.17853 0
M  V30 2356 C 217.446 -0.409735 -1.843 0
M  V30 2357 O 216.803 0.614183 -1.71855 0
M  V30 2358 C 216.854 -2.83568 -2.24213 0
M  V30 2359 O 216.575 -4.0765 -1.60478 0
M  V30 2360 C 218.076 -3.12947 -3.13973 0
M  V30 2361 H 215.296 -0.569917 -0.354169 0
M  V30 2362 H 217.84 -1.98734 -0.482198 0
M  V30 2363 H 215.995 -2.57409 -2.89516 0
M  V30 2364 H 216.409 -4.70899 -2.30986 0
M  V30 2365 H 217.883 -3.95889 -3.84677 0
M  V30 2366 H 218.36 -2.26472 -3.76307 0
M  V30 2367 H 218.966 -3.40868 -2.5434 0
M  V30 2368 N 217.281 0.66697 -1.42791 0
M  V30 2369 C 218.228 1.7803 -1.4688 0
M  V30 2370 C 219.198 1.6299 -0.319919 0
M  V30 2371 O 220.383 1.83432 -0.525118 0
M  V30 2372 C 217.523 3.1611 -1.38451 0
M  V30 2373 C 216.636 3.42381 -2.63437 0
M  V30 2374 C 215.771 4.70232 -2.47094 0
M  V30 2375 C 214.81 4.89564 -3.67415 0
M  V30 2376 N 213.947 6.08661 -3.49966 0
M  V30 2377 H 218.787 1.7387 -2.42019 0
M  V30 2378 H 216.324 0.84868 -1.20149 0
M  V30 2379 H 218.282 3.95914 -1.31561 0
M  V30 2380 H 216.912 3.19374 -0.469033 0
M  V30 2381 H 215.964 2.56774 -2.80662 0
M  V30 2382 H 217.276 3.52557 -3.52853 0
M  V30 2383 H 216.43 5.5814 -2.37834 0
M  V30 2384 H 215.169 4.62353 -1.5518 0
M  V30 2385 H 214.174 4.00096 -3.77099 0
M  V30 2386 H 215.399 4.99282 -4.6032 0
M  V30 2387 H 213.345 6.0194 -2.60776 0
M  V30 2388 H 213.262 6.19733 -4.32975 0
M  V30 2389 H 214.53 6.99226 -3.44532 0
M  V30 2390 N 218.759 1.29093 0.90403 0
M  V30 2391 C 219.987 1.19689 1.68766 0
M  V30 2392 C 220.402 -0.243113 1.87228 0
M  V30 2393 O 219.759 -1.16326 1.40621 0
M  V30 2394 C 219.81 1.90144 3.07453 0
M  V30 2395 O 219.531 3.2852 2.89838 0
M  V30 2396 C 221.032 1.87162 4.01852 0
M  V30 2397 H 218.252 0.415035 0.527244 0
M  V30 2398 H 220.796 1.7039 1.13082 0
M  V30 2399 H 218.951 1.43289 3.59926 0
M  V30 2400 H 219.365 3.63944 3.77684 0
M  V30 2401 H 220.839 2.41032 4.96596 0
M  V30 2402 H 221.316 0.84617 4.30972 0
M  V30 2403 H 221.922 2.33741 3.5531 0
M  V30 2404 N 220.237 -1.11381 1.11499 0
M  V30 2405 C 221.486 -1.82494 0.858993 0
M  V30 2406 C 221.799 -1.85605 -0.617278 0
M  V30 2407 O 223.005 -2.52824 -0.989552 0
M  V30 2408 C 221.461 -3.27745 1.48699 0
M  V30 2409 C 221.069 -3.32961 2.99735 0
M  V30 2410 C 222.813 -4.03754 1.31085 0
M  V30 2411 C 220.72 -4.72612 3.55516 0
M  V30 2412 H 219.65 -0.683802 0.317696 0
M  V30 2413 H 222.301 -1.25331 1.34031 0
M  V30 2414 H 220.683 -3.84844 0.933339 0
M  V30 2415 H 221.857 -2.85741 3.61509 0
M  V30 2416 H 220.172 -2.70433 3.16631 0
M  V30 2417 H 222.769 -5.06891 1.70192 0
M  V30 2418 H 223.112 -4.15527 0.253496 0
M  V30 2419 H 223.645 -3.53043 1.83318 0
M  V30 2420 H 220.384 -4.66036 4.60967 0
M  V30 2421 H 219.904 -5.2024 2.98513 0
M  V30 2422 H 221.583 -5.4157 3.53992 0
M  V30 2423 N 221.715 -0.905404 -1.28997 0
M  V30 2424 C 222.662 -0.385892 -2.27551 0
M  V30 2425 C 223.632 0.535113 -1.57244 0
M  V30 2426 O 224.817 0.459119 -1.85194 0
M  V30 2427 C 221.957 0.375461 -3.43051 0
M  V30 2428 C 221.07 -0.577092 -4.28128 0
M  V30 2429 C 220.205 0.201879 -5.30816 0
M  V30 2430 C 219.244 -0.744829 -6.07551 0
M  V30 2431 N 218.381 9.42587e-05 -7.021 0
M  V30 2432 H 223.221 -1.23139 -2.71368 0
M  V30 2433 H 220.758 -0.618542 -1.33463 0
M  V30 2434 H 222.716 0.832992 -4.088 0
M  V30 2435 H 221.346 1.18537 -3.00248 0
M  V30 2436 H 220.398 -1.15315 -3.62501 0
M  V30 2437 H 221.71 -1.30152 -4.8152 0
M  V30 2438 H 220.864 0.720351 -6.02408 0
M  V30 2439 H 219.603 0.959413 -4.7817 0
M  V30 2440 H 218.608 -1.27475 -5.34818 0
M  V30 2441 H 219.833 -1.50178 -6.62286 0
M  V30 2442 H 217.779 0.739791 -6.51815 0
M  V30 2443 H 217.696 -0.664321 -7.53076 0
M  V30 2444 H 218.964 0.498644 -7.77903 0
M  V30 2445 N 223.193 1.4272 -0.668489 0
M  V30 2446 C 224.123 2.335 -0.000100175 0
M  V30 2447 C 225.104 1.50328 0.795964 0
M  V30 2448 O 226.289 1.78949 0.754385 0
M  V30 2449 C 223.419 3.33874 0.956302 0
M  V30 2450 C 222.373 4.27152 0.269278 0
M  V30 2451 C 221.699 5.17684 1.33818 0
M  V30 2452 C 222.999 5.15373 -0.847805 0
M  V30 2453 H 224.693 2.89639 -0.758244 0
M  V30 2454 H 222.239 1.39269 -0.366079 0
M  V30 2455 H 224.192 3.9629 1.43292 0
M  V30 2456 H 222.916 2.76025 1.74579 0
M  V30 2457 H 221.575 3.66123 -0.187042 0
M  V30 2458 H 221.223 4.56165 2.1195 0
M  V30 2459 H 220.923 5.80918 0.883659 0
M  V30 2460 H 222.447 5.82974 1.81586 0
M  V30 2461 H 223.861 5.7151 -0.452681 0
M  V30 2462 H 222.258 5.87407 -1.22773 0
M  V30 2463 H 223.328 4.5415 -1.69929 0
M  V30 2464 N 224.671 0.411399 1.52136 0
M  V30 2465 C 225.917 -0.163888 2.02137 0
M  V30 2466 C 226.25 -1.44597 1.29636 0
M  V30 2467 O 225.525 -1.90272 0.403353 0
M  V30 2468 C 225.808 -0.40927 3.57767 0
M  V30 2469 C 225.661 0.889643 4.40914 0
M  V30 2470 C 226.98 -1.19042 4.23694 0
M  V30 2471 H 224.099 -0.0580896 0.734707 0
M  V30 2472 H 226.741 0.54531 1.82007 0
M  V30 2473 H 224.891 -1.0134 3.7505 0
M  V30 2474 H 226.563 1.52575 4.35337 0
M  V30 2475 H 224.806 1.50011 4.07037 0
M  V30 2476 H 225.477 0.672314 5.4789 0
M  V30 2477 H 227.953 -0.678942 4.10524 0
M  V30 2478 H 226.829 -1.33086 5.32522 0
M  V30 2479 H 227.09 -2.21166 3.82803 0
M  V30 2480 N 226.149 -1.5696 0.141893 0
M  V30 2481 C 227.096 -2.16501 -0.799737 0
M  V30 2482 C 228.066 -1.09643 -1.24771 0
M  V30 2483 O 229.251 -1.3766 -1.32115 0
M  V30 2484 C 226.391 -2.78679 -2.03549 0
M  V30 2485 C 225.504 -3.99914 -1.6338 0
M  V30 2486 C 224.639 -4.50106 -2.82096 0
M  V30 2487 C 223.678 -5.63819 -2.38275 0
M  V30 2488 N 222.815 -6.08651 -3.49983 0
M  V30 2489 H 227.655 -2.96632 -0.285179 0
M  V30 2490 H 225.192 -1.46533 -0.129053 0
M  V30 2491 H 227.15 -3.1287 -2.75986 0
M  V30 2492 H 225.78 -2.012 -2.52425 0
M  V30 2493 H 224.832 -3.71735 -0.807279 0
M  V30 2494 H 226.144 -4.82311 -1.27192 0
M  V30 2495 H 225.298 -4.86325 -3.62729 0
M  V30 2496 H 224.037 -3.66706 -3.21525 0
M  V30 2497 H 223.042 -5.2718 -1.56081 0
M  V30 2498 H 224.267 -6.49 -1.99938 0
M  V30 2499 H 222.213 -5.28188 -3.89042 0
M  V30 2500 H 222.13 -6.85961 -3.17794 0
M  V30 2501 H 223.398 -6.49515 -4.30988 0
M  V30 2502 N 227.627 0.131896 -1.57047 0
M  V30 2503 C 228.857 0.855219 -1.88068 0
M  V30 2504 C 229.265 1.74557 -0.729817 0
M  V30 2505 O 228.608 1.81083 0.308962 0
M  V30 2506 C 228.67 1.75119 -3.13964 0
M  V30 2507 C 228.334 1.03646 -4.45091 0
M  V30 2508 C 229.331 0.383276 -5.18485 0
M  V30 2509 C 227.016 1.02148 -4.91804 0
M  V30 2510 C 229.01 -0.275347 -6.36805 0
M  V30 2511 C 226.697 0.359047 -6.10044 0
M  V30 2512 C 227.695 -0.288222 -6.82392 0
M  V30 2513 O 227.383 -0.94011 -7.98384 0
M  V30 2514 H 227.115 0.251864 -0.627328 0
M  V30 2515 H 229.669 0.124782 -2.05021 0
M  V30 2516 H 227.899 2.52295 -2.9306 0
M  V30 2517 H 229.588 2.3478 -3.31109 0
M  V30 2518 H 230.354 0.386562 -4.83457 0
M  V30 2519 H 226.233 1.5147 -4.35405 0
M  V30 2520 H 229.777 -0.781148 -6.93213 0
M  V30 2521 H 225.674 0.35348 -6.44531 0
M  V30 2522 H 226.442 -0.84329 -8.14144 0
M  V30 2523 N 229.106 1.52395 0.401703 0
M  V30 2524 C 230.346 1.68498 1.15705 0
M  V30 2525 C 230.71 0.409748 1.87577 0
M  V30 2526 O 231.911 0.446983 2.65058 0
M  V30 2527 C 230.182 2.87789 2.11924 0
M  V30 2528 S 231.741 3.24415 2.95466 0
M  V30 2529 H 228.559 0.593267 0.391862 0
M  V30 2530 H 231.161 1.90408 0.443282 0
M  V30 2531 H 229.865 3.7884 1.57824 0
M  V30 2532 H 229.396 2.68175 2.87829 0
M  V30 2533 H 231.411 2.73614 4.13944 0
M  V30 2534 N 230.584 -0.659388 1.43143 0
M  V30 2535 C 231.516 -1.7849 1.43784 0
M  V30 2536 C 232.529 -1.5932 0.334787 0
M  V30 2537 O 233.718 -1.68155 0.598842 0
M  V30 2538 C 230.818 -3.15828 1.22906 0
M  V30 2539 C 229.991 -3.61711 2.45934 0
M  V30 2540 C 229.05 -4.77831 2.20371 0
M  V30 2541 O 228.076 -4.87586 2.93681 0
M  V30 2542 N 229.278 -5.67611 1.21647 0
M  V30 2543 H 232.043 -1.7842 2.40803 0
M  V30 2544 H 229.604 -0.84302 1.3822 0
M  V30 2545 H 231.596 -3.91189 1.03697 0
M  V30 2546 H 230.166 -3.10707 0.343542 0
M  V30 2547 H 229.386 -2.76861 2.80609 0
M  V30 2548 H 230.674 -3.89112 3.27825 0
M  V30 2549 H 230.072 -5.62397 0.610449 0
M  V30 2550 H 228.629 -6.42719 1.08423 0
M  V30 2551 N 232.062 -1.29571 -0.897171 0
M  V30 2552 C 233.287 -1.20705 -1.68656 0
M  V30 2553 C 233.712 0.228582 -1.86706 0
M  V30 2554 O 233.07 1.16494 -1.3892 0
M  V30 2555 C 233.118 -1.9282 -3.04717 0
M  V30 2556 O 232.222 -1.24697 -3.93096 0
M  V30 2557 H 231.563 -0.418126 -0.515816 0
M  V30 2558 H 234.093 -1.71183 -1.12061 0
M  V30 2559 H 234.103 -2.01372 -3.54843 0
M  V30 2560 H 232.778 -2.97239 -2.90899 0
M  V30 2561 H 231.355 -1.2442 -3.51531 0
M  V30 2562 N 233.54 1.10788 -1.12088 0
M  V30 2563 C 234.788 1.8231 -0.872205 0
M  V30 2564 C 235.109 1.85419 0.603709 0
M  V30 2565 O 234.379 1.32963 1.43867 0
M  V30 2566 H 232.959 0.675137 -0.319686 0
M  V30 2567 H 235.621 1.34068 -1.41463 0
M  V30 2568 H 234.717 2.85955 -1.25045 0
M  V30 2569 N 235.018 0.912232 1.28515 0
M  V30 2570 C 235.948 0.416403 2.29757 0
M  V30 2571 C 236.929 -0.515194 1.6211 0
M  V30 2572 O 238.114 -0.423253 1.89532 0
M  V30 2573 C 235.244 -0.34572 3.45575 0
M  V30 2574 C 234.198 0.496599 4.25109 0
M  V30 2575 C 233.524 -0.393771 5.33248 0
M  V30 2576 C 234.824 1.75307 4.92001 0
M  V30 2577 H 236.518 1.26249 2.7148 0
M  V30 2578 H 234.064 0.608515 1.30511 0
M  V30 2579 H 236.017 -0.703422 4.15488 0
M  V30 2580 H 234.741 -1.2257 3.02728 0
M  V30 2581 H 233.4 0.8368 3.56922 0
M  V30 2582 H 233.048 -1.27225 4.86644 0
M  V30 2583 H 232.748 0.166209 5.87365 0
M  V30 2584 H 234.272 -0.747389 6.06009 0
M  V30 2585 H 235.686 1.46437 5.54283 0
M  V30 2586 H 234.083 2.25534 5.56106 0
M  V30 2587 H 235.153 2.48176 4.16577 0
M  V30 2588 N 236.496 -1.42363 0.676048 0
M  V30 2589 C 237.773 -1.95183 0.127726 0
M  V30 2590 C 238.153 -1.61641 -1.35777 0
M  V30 2591 O 237.501 -0.913216 -2.09458 0
M  V30 2592 C 237.711 -3.46721 0.398199 0
M  V30 2593 C 239.059 -4.23427 0.315383 0
M  V30 2594 O 240.083 -3.54649 0.332016 0
M  V30 2595 O 238.942 -5.45888 0.25865 0
M  V30 2596 H 236.036 -0.826992 0.00359427 0
M  V30 2597 H 238.582 -1.52184 0.750864 0
M  V30 2598 H 237.354 -3.64344 1.4272 0
M  V30 2599 H 236.977 -3.96769 -0.256885 0
M  V30 2600 N 237.974 -0.419461 -1.51915 0
M  V30 2601 C 239.223 0.154346 -2.01109 0
M  V30 2602 C 239.536 1.45338 -1.30905 0
M  V30 2603 O 240.742 2.10906 -1.7097 0
M  V30 2604 C 239.198 0.325615 -3.58424 0
M  V30 2605 C 238.806 -0.961934 -4.37551 0
M  V30 2606 C 240.55 0.854155 -4.15818 0
M  V30 2607 C 238.457 -0.757287 -5.86531 0
M  V30 2608 H 237.387 0.0614563 -0.751491 0
M  V30 2609 H 240.038 -0.54649 -1.75173 0
M  V30 2610 H 238.42 1.08903 -3.80731 0
M  V30 2611 H 239.594 -1.7323 -4.26999 0
M  V30 2612 H 237.909 -1.41766 -3.91524 0
M  V30 2613 H 240.506 1.02346 -5.24814 0
M  V30 2614 H 240.849 1.83172 -3.73837 0
M  V30 2615 H 241.382 0.149528 -3.97519 0
M  V30 2616 H 238.121 -1.70671 -6.32892 0
M  V30 2617 H 237.641 -0.0264061 -5.99794 0
M  V30 2618 H 239.32 -0.403482 -6.45741 0
M  V30 2619 N 239.452 1.56882 -0.150215 0
M  V30 2620 C 240.677 2.01027 0.510184 0
M  V30 2621 C 241.102 1.02966 1.57415 0
M  V30 2622 O 240.46 0.00590158 1.81299 0
M  V30 2623 C 240.508 3.43899 1.08472 0
M  V30 2624 O 239.612 3.4885 2.19948 0
M  V30 2625 H 238.953 0.652233 0.124451 0
M  V30 2626 H 241.483 2.03093 -0.247894 0
M  V30 2627 H 241.493 3.82766 1.41259 0
M  V30 2628 H 240.168 4.14776 0.305582 0
M  V30 2629 H 238.745 3.21827 1.88366 0
M  V30 2630 N 240.93 -0.123565 1.57115 0
M  V30 2631 C 241.878 -1.17082 2.00984 0
M  V30 2632 C 242.872 -1.43136 0.906009 0
M  V30 2633 O 244.078 -1.43152 1.09121 0
M  V30 2634 H 240.453 -0.394653 0.64012 0
M  V30 2635 H 242.424 -0.774292 2.88179 0
M  V30 2636 C 241.173 -2.49057 2.42623 0
M  V30 2637 H 240.496 -2.29846 3.27125 0
M  V30 2638 H 241.936 -3.20906 2.7712 0
M  V30 2639 C 240.395 -3.11305 1.28805 0
M  V30 2640 O 240.925 -3.97171 0.60153 0
M  V30 2641 N 239.131 -2.71111 1.04628 0
M  V30 2642 H 238.678 -2.01382 1.60634 0
M  V30 2643 H 238.636 -3.1309 0.286685 0
M  V30 2644 N 242.408 -1.52605 -0.393616 0
M  V30 2645 C 243.338 -1.80022 -1.48709 0
M  V30 2646 C 244.319 -0.651995 -1.57108 0
M  V30 2647 O 245.504 -0.89913 -1.72132 0
M  V30 2648 C 242.634 -1.96492 -2.86371 0
M  V30 2649 C 241.588 -3.12161 -2.92813 0
M  V30 2650 C 240.914 -3.13877 -4.3288 0
M  V30 2651 C 242.214 -4.51322 -2.6288 0
M  V30 2652 H 243.908 -2.71589 -1.26015 0
M  V30 2653 H 241.454 -1.30684 -0.604778 0
M  V30 2654 H 243.407 -2.14255 -3.62867 0
M  V30 2655 H 242.131 -1.01611 -3.10391 0
M  V30 2656 H 240.79 -2.94173 -2.18764 0
M  V30 2657 H 240.438 -2.16687 -4.53933 0
M  V30 2658 H 240.138 -3.91576 -4.38112 0
M  V30 2659 H 241.662 -3.33789 -5.1129 0
M  V30 2660 H 243.076 -4.69435 -3.29096 0
M  V30 2661 H 241.473 -5.31053 -2.79468 0
M  V30 2662 H 242.543 -4.58353 -1.58242 0
M  V30 2663 N 243.887 0.651787 -1.4349 0
M  V30 2664 C 245.303 0.96762 -1.26922 0
M  V30 2665 C 245.503 2.00602 -0.189982 0
M  V30 2666 O 244.559 2.48793 0.431107 0
M  V30 2667 C 245.872 1.45052 -2.63401 0
M  V30 2668 C 247.42 1.5671 -2.70945 0
M  V30 2669 C 247.895 2.0839 -4.07845 0
M  V30 2670 N 249.386 2.1569 -4.09917 0
M  V30 2671 C 250.121 2.56804 -5.12679 0
M  V30 2672 N 249.617 2.97203 -6.25813 0
M  V30 2673 N 251.41 2.56756 -5.00033 0
M  V30 2674 H 243.561 -0.0353158 -2.12371 0
M  V30 2675 H 245.824 0.0467858 -0.946845 0
M  V30 2676 H 245.53 0.761926 -3.43348 0
M  V30 2677 H 245.404 2.42529 -2.88894 0
M  V30 2678 H 247.791 2.2467 -1.9133 0
M  V30 2679 H 247.872 0.57662 -2.49216 0
M  V30 2680 H 247.516 1.41031 -4.87927 0
M  V30 2681 H 247.446 3.08271 -4.26938 0
M  V30 2682 H 249.937 1.87237 -3.28254 0
M  V30 2683 H 250.25 3.27328 -7.00055 0
M  V30 2684 H 248.595 2.95004 -6.29283 0
M  V30 2685 H 251.786 2.24572 -4.10713 0
M  V30 2686 H 251.959 2.88475 -5.80247 0
M  V30 2687 N 245.365 1.30045 0.890287 0
M  V30 2688 C 246.612 1.18561 1.64163 0
M  V30 2689 C 246.94 -0.260852 1.92743 0
M  V30 2690 O 246.195 -1.20376 1.54299 0
M  V30 2691 C 246.494 1.95409 2.99249 0
M  V30 2692 C 246.16 3.45066 2.90242 0
M  V30 2693 C 244.822 3.85878 2.87492 0
M  V30 2694 C 247.174 4.4039 2.78758 0
M  V30 2695 C 244.502 5.20314 2.7109 0
M  V30 2696 C 246.854 5.74928 2.63894 0
M  V30 2697 C 245.518 6.14986 2.59516 0
M  V30 2698 H 244.788 0.433846 0.600715 0
M  V30 2699 H 247.435 1.61088 1.03552 0
M  V30 2700 H 245.74 1.45501 3.63781 0
M  V30 2701 H 247.437 1.8392 3.56334 0
M  V30 2702 H 244.027 3.12631 2.93189 0
M  V30 2703 H 248.211 4.09806 2.79952 0
M  V30 2704 H 243.467 5.50449 2.66112 0
M  V30 2705 H 247.641 6.48434 2.53981 0
M  V30 2706 H 245.268 7.19104 2.46565 0
M  V30 2707 N 246.843 -1.10192 1.12674 0
M  V30 2708 C 248.083 -1.83825 0.893736 0
M  V30 2709 C 248.447 -1.83341 -0.570082 0
M  V30 2710 O 249.648 -2.52553 -0.920354 0
M  V30 2711 C 247.919 -3.26405 1.45582 0
M  V30 2712 S 249.478 -4.17136 1.36171 0
M  V30 2713 H 246.296 -0.633732 0.322342 0
M  V30 2714 H 248.898 -1.32581 1.43675 0
M  V30 2715 H 247.602 -3.24329 2.51473 0
M  V30 2716 H 247.133 -3.82721 0.910405 0
M  V30 2717 H 249.148 -4.95069 0.334863 0
M  V30 2718 N 248.321 -0.919034 -1.28029 0
M  V30 2719 C 249.57 -0.550802 -1.94034 0
M  V30 2720 C 249.883 0.910877 -1.73096 0
M  V30 2721 O 251.089 1.3875 -2.33368 0
M  V30 2722 C 249.545 -0.934249 -3.47563 0
M  V30 2723 C 249.153 -2.41602 -3.7727 0
M  V30 2724 C 250.897 -0.636854 -4.19696 0
M  V30 2725 C 248.804 -2.73932 -5.24133 0
M  V30 2726 H 247.734 -0.202273 -0.726362 0
M  V30 2727 H 250.385 -1.11867 -1.45458 0
M  V30 2728 H 248.767 -0.295115 -3.94899 0
M  V30 2729 H 249.941 -3.10233 -3.40723 0
M  V30 2730 H 248.256 -2.68441 -3.18321 0
M  V30 2731 H 250.853 -0.855005 -5.2782 0
M  V30 2732 H 251.196 0.425575 -4.14119 0
M  V30 2733 H 251.729 -1.23469 -3.78154 0
M  V30 2734 H 248.468 -3.79049 -5.34792 0
M  V30 2735 H 247.988 -2.09942 -5.61858 0
M  V30 2736 H 249.667 -2.61215 -5.91925 0
M  V30 2737 N 249.799 1.42003 -0.683588 0
M  V30 2738 C 251.027 2.05746 -0.218182 0
M  V30 2739 C 251.442 1.51396 1.12804 0
M  V30 2740 O 250.799 0.657303 1.70252 0
M  V30 2741 C 250.85 3.61171 -0.154131 0
M  V30 2742 O 250.571 4.13508 -1.44716 0
M  V30 2743 C 252.072 4.42042 0.333713 0
M  V30 2744 H 249.292 0.662888 -0.10402 0
M  V30 2745 H 251.836 1.81987 -0.9328 0
M  V30 2746 H 249.991 3.84012 0.511231 0
M  V30 2747 H 250.405 5.07453 -1.32632 0
M  V30 2748 H 251.879 5.51028 0.327423 0
M  V30 2749 H 252.356 4.17269 1.37053 0
M  V30 2750 H 252.962 4.24239 -0.300222 0
M  V30 2751 N 251.277 0.427512 1.51691 0
M  V30 2752 C 252.525 -0.141948 2.01601 0
M  V30 2753 C 252.846 -1.44067 1.31414 0
M  V30 2754 O 252.116 -1.90763 0.445658 0
M  V30 2755 H 250.696 -0.0554468 0.744939 0
M  V30 2756 H 253.358 0.567968 1.86441 0
M  V30 2757 H 252.454 -0.324913 3.10404 0
M  V30 2758 N 252.755 -1.56801 0.158532 0
M  V30 2759 C 253.688 -2.13148 -0.815065 0
M  V30 2760 C 254.666 -1.0581 -1.23462 0
M  V30 2761 O 255.85 -1.3371 -1.32868 0
M  V30 2762 C 252.977 -2.6606 -2.09594 0
M  V30 2763 C 252.023 -3.85651 -1.82141 0
M  V30 2764 S 252.856 -5.26041 -1.00207 0
M  V30 2765 C 254.012 -5.8235 -2.29389 0
M  V30 2766 H 254.245 -2.95396 -0.335937 0
M  V30 2767 H 251.778 -1.54299 -0.0559391 0
M  V30 2768 H 253.736 -2.97195 -2.8317 0
M  V30 2769 H 252.397 -1.83921 -2.54621 0
M  V30 2770 H 251.59 -4.20958 -2.77147 0
M  V30 2771 H 251.192 -3.55338 -1.16667 0
M  V30 2772 H 253.484 -5.94485 -3.24952 0
M  V30 2773 H 254.427 -6.79688 -1.9857 0
M  V30 2774 H 254.835 -5.10675 -2.40564 0
M  V30 2775 N 254.233 0.115231 -1.57178 0
M  V30 2776 C 255.166 1.17166 -1.95825 0
M  V30 2777 C 256.144 1.39912 -0.828463 0
M  V30 2778 O 257.328 1.54004 -1.08697 0
M  V30 2779 C 254.455 2.52478 -2.25771 0
M  V30 2780 C 253.501 2.46136 -3.48309 0
M  V30 2781 S 254.334 1.89736 -5.0076 0
M  V30 2782 C 255.49 3.26713 -5.33863 0
M  V30 2783 H 255.723 0.842103 -2.85124 0
M  V30 2784 H 253.256 0.322136 -1.51002 0
M  V30 2785 H 255.214 3.30332 -2.43702 0
M  V30 2786 H 253.875 2.82609 -1.37079 0
M  V30 2787 H 253.068 3.45819 -3.66641 0
M  V30 2788 H 252.67 1.76404 -3.29784 0
M  V30 2789 H 254.962 4.22935 -5.29275 0
M  V30 2790 H 255.905 3.13205 -6.35065 0
M  V30 2791 H 256.313 3.25316 -4.61335 0
M  V30 2792 N 255.711 1.52812 0.385517 0
M  V30 2793 C 256.957 1.68275 1.13188 0
M  V30 2794 C 257.29 0.423179 1.89533 0
M  V30 2795 O 256.565 -0.579113 1.85679 0
M  V30 2796 C 256.848 2.92001 2.1073 0
M  V30 2797 C 256.701 4.28067 1.38125 0
M  V30 2798 C 258.02 3.11283 3.11113 0
M  V30 2799 H 255.139 0.612352 0.410115 0
M  V30 2800 H 257.781 1.85415 0.414869 0
M  V30 2801 H 255.931 2.77519 2.71874 0
M  V30 2802 H 257.603 4.54324 0.799187 0
M  V30 2803 H 255.846 4.28388 0.683092 0
M  V30 2804 H 256.517 5.10733 2.09417 0
M  V30 2805 H 258.993 3.2482 2.6006 0
M  V30 2806 H 257.869 3.99325 3.76605 0
M  V30 2807 H 258.13 2.25656 3.80173 0
M  V30 2808 N 257.189 -0.644168 1.43834 0
M  V30 2809 C 258.438 -1.39985 1.45214 0
M  V30 2810 C 258.751 -1.95421 0.0835494 0
M  V30 2811 O 259.957 -2.71488 -0.0251748 0
M  V30 2812 C 258.413 -2.53384 2.55587 0
M  V30 2813 C 258.021 -2.04517 3.98594 0
M  V30 2814 C 259.765 -3.30685 2.66172 0
M  V30 2815 C 257.672 -3.1518 5.00416 0
M  V30 2816 H 256.602 -0.526005 0.540218 0
M  V30 2817 H 259.253 -0.694367 1.69855 0
M  V30 2818 H 257.635 -3.26446 2.24163 0
M  V30 2819 H 258.809 -1.38405 4.39523 0
M  V30 2820 H 257.124 -1.40068 3.92135 0
M  V30 2821 H 259.721 -4.13158 3.39418 0
M  V30 2822 H 260.064 -3.79312 1.71546 0
M  V30 2823 H 260.597 -2.64708 2.96942 0
M  V30 2824 H 257.336 -2.71511 5.96625 0
M  V30 2825 H 256.856 -3.79974 4.64091 0
M  V30 2826 H 258.535 -3.80166 5.23529 0
M  V30 2827 N 258.668 -1.30515 -0.883378 0
M  V30 2828 C 259.598 -1.19607 -2.00541 0
M  V30 2829 C 260.579 -0.086346 -1.69881 0
M  V30 2830 O 261.764 -0.268654 -1.92333 0
M  V30 2831 C 258.894 -0.888758 -3.35736 0
M  V30 2832 C 257.848 -1.95659 -3.8066 0
M  V30 2833 C 257.174 -1.50224 -5.13164 0
M  V30 2834 C 258.474 -3.36788 -3.99213 0
M  V30 2835 H 260.168 -2.13476 -2.09925 0
M  V30 2836 H 257.714 -1.02775 -1.00863 0
M  V30 2837 H 259.667 -0.799094 -4.13754 0
M  V30 2838 H 258.391 0.0856125 -3.26488 0
M  V30 2839 H 257.05 -2.03591 -3.04871 0
M  V30 2840 H 256.698 -0.516092 -5.00345 0
M  V30 2841 H 256.398 -2.2165 -5.44192 0
M  V30 2842 H 257.922 -1.42639 -5.93706 0
M  V30 2843 H 259.336 -3.31605 -4.67665 0
M  V30 2844 H 257.733 -4.06314 -4.41621 0
M  V30 2845 H 258.803 -3.78561 -3.03017 0
M  V30 2846 N 260.146 1.09593 -1.13257 0
M  V30 2847 C 261.094 2.18271 -0.803783 0
M  V30 2848 C 262.088 1.68054 0.213148 0
M  V30 2849 O 263.294 1.79862 0.0704699 0
M  V30 2850 H 259.669 0.711949 -0.242143 0
M  V30 2851 H 261.64 2.43235 -1.72856 0
M  V30 2852 C 260.389 3.46536 -0.28424 0
M  V30 2853 H 259.712 3.85545 -1.05807 0
M  V30 2854 H 261.152 4.23899 -0.0925945 0
M  V30 2855 C 259.611 3.22036 0.989684 0
M  V30 2856 O 260.141 3.44509 2.06584 0
M  V30 2857 N 258.347 2.7565 0.920086 0
M  V30 2858 H 257.894 2.57562 0.0442019 0
M  V30 2859 H 257.852 2.59635 1.77306 0
M  V30 2860 N 261.624 0.925811 1.2754 0
M  V30 2861 C 262.872 0.564138 1.94067 0
M  V30 2862 C 263.193 -0.897188 1.73134 0
M  V30 2863 O 262.463 -1.63573 1.07799 0
M  V30 2864 H 261.043 0.205645 0.718136 0
M  V30 2865 H 263.705 1.1778 1.55287 0
M  V30 2866 H 262.801 0.76881 3.02483 0
M  V30 2867 N 263.102 -1.41638 0.69111 0
M  V30 2868 C 264.032 -2.3347 0.037248 0
M  V30 2869 C 265.013 -1.51575 -0.771947 0
M  V30 2870 O 266.198 -1.80126 -0.72582 0
M  V30 2871 C 263.328 -3.35354 -0.903064 0
M  V30 2872 C 262.282 -4.27526 -0.201288 0
M  V30 2873 C 261.608 -5.19747 -1.25565 0
M  V30 2874 C 262.908 -5.13959 0.929689 0
M  V30 2875 H 264.602 -2.88397 0.804227 0
M  V30 2876 H 262.148 -1.38669 0.388189 0
M  V30 2877 H 264.101 -3.98519 -1.36969 0
M  V30 2878 H 262.825 -2.78767 -1.70166 0
M  V30 2879 H 261.484 -3.65779 0.245265 0
M  V30 2880 H 261.132 -4.59479 -2.04666 0
M  V30 2881 H 260.832 -5.8225 -0.791128 0
M  V30 2882 H 262.356 -5.85789 -1.72288 0
M  V30 2883 H 263.77 -5.70718 0.543546 0
M  V30 2884 H 262.167 -5.85379 1.32103 0
M  V30 2885 H 263.237 -4.51389 1.77133 0
M  V30 2886 N 264.58 -0.43555 -1.51462 0
M  V30 2887 C 265.51 0.367376 -2.30592 0
M  V30 2888 C 266.491 1.02263 -1.35928 0
M  V30 2889 O 267.676 1.02661 -1.64847 0
M  V30 2890 C 264.806 1.46983 -3.14664 0
M  V30 2891 C 263.76 0.938161 -4.17591 0
M  V30 2892 C 263.086 2.13622 -4.90173 0
M  V30 2893 C 264.386 -0.0261621 -5.22293 0
M  V30 2894 H 266.08 -0.292969 -2.97963 0
M  V30 2895 H 263.626 -0.14234 -1.43295 0
M  V30 2896 H 265.579 2.03873 -3.688 0
M  V30 2897 H 264.303 2.15843 -2.4511 0
M  V30 2898 H 262.962 0.391481 -3.64504 0
M  V30 2899 H 262.61 2.81098 -4.17124 0
M  V30 2900 H 262.31 1.78688 -5.59772 0
M  V30 2901 H 263.834 2.7107 -5.47132 0
M  V30 2902 H 265.248 0.452384 -5.71512 0
M  V30 2903 H 263.645 -0.287992 -5.99409 0
M  V30 2904 H 264.715 -0.963391 -4.75233 0
M  V30 2905 N 266.058 1.56714 -0.166846 0
M  V30 2906 C 266.991 2.13577 0.80375 0
M  V30 2907 C 267.969 1.06464 1.22899 0
M  V30 2908 O 269.153 1.34413 1.32157 0
M  V30 2909 C 266.28 2.67168 2.0818 0
M  V30 2910 C 265.326 3.86612 1.80093 0
M  V30 2911 S 266.159 5.26565 0.97416 0
M  V30 2912 C 267.315 5.83558 2.26297 0
M  V30 2913 H 267.548 2.9557 0.320267 0
M  V30 2914 H 265.081 1.54326 0.0477555 0
M  V30 2915 H 267.039 2.98692 2.8159 0
M  V30 2916 H 265.7 1.85269 2.53642 0
M  V30 2917 H 264.893 4.22422 2.7491 0
M  V30 2918 H 264.495 3.55951 1.14781 0
M  V30 2919 H 266.787 5.962 3.21795 0
M  V30 2920 H 267.73 6.80731 1.94962 0
M  V30 2921 H 268.138 5.11944 2.37853 0
M  V30 2922 N 267.536 -0.106894 1.57237 0
M  V30 2923 C 268.499 -1.11466 2.0027 0
M  V30 2924 C 269.499 -1.33623 0.894519 0
M  V30 2925 O 270.689 -1.29935 1.16028 0
M  V30 2926 C 267.821 -2.46646 2.35327 0
M  V30 2927 H 269.014 -0.744516 2.90512 0
M  V30 2928 H 266.567 -0.351576 1.52295 0
M  V30 2929 H 267.302 -2.88558 1.48003 0
M  V30 2930 H 267.087 -2.31915 3.16161 0
M  V30 2931 H 268.577 -3.19151 2.69318 0
M  V30 2932 N 269.014 -1.53014 -0.377408 0
M  V30 2933 C 270.26 -1.68872 -1.12294 0
M  V30 2934 C 270.593 -0.433224 -1.89306 0
M  V30 2935 O 269.868 0.569258 -1.85983 0
M  V30 2936 C 270.151 -2.93115 -2.09179 0
M  V30 2937 C 270.004 -4.28794 -1.35853 0
M  V30 2938 C 271.323 -3.12928 -3.09458 0
M  V30 2939 H 268.442 -0.614518 -0.406862 0
M  V30 2940 H 271.084 -1.85633 -0.40503 0
M  V30 2941 H 269.234 -2.78956 -2.70399 0
M  V30 2942 H 270.906 -4.54742 -0.775082 0
M  V30 2943 H 269.149 -4.28744 -0.660364 0
M  V30 2944 H 269.82 -5.11837 -2.06706 0
M  V30 2945 H 272.296 -3.26194 -2.58334 0
M  V30 2946 H 271.172 -4.01316 -3.74482 0
M  V30 2947 H 271.433 -2.27669 -3.78971 0
M  V30 2948 N 270.492 0.636531 -1.44174 0
M  V30 2949 C 271.402 1.77754 -1.53103 0
M  V30 2950 C 272.418 1.68928 -0.417034 0
M  V30 2951 O 273.594 1.89801 -0.6736 0
M  V30 2952 C 270.659 3.14115 -1.46741 0
M  V30 2953 C 269.72 3.34612 -2.68948 0
M  V30 2954 C 268.953 4.64467 -2.6288 0
M  V30 2955 O 269.176 5.44919 -1.68581 0
M  V30 2956 O 268.11 4.87049 -3.53648 0
M  V30 2957 H 271.936 1.73174 -2.49489 0
M  V30 2958 H 269.521 0.79709 -1.2636 0
M  V30 2959 H 271.403 3.95412 -1.45696 0
M  V30 2960 H 270.078 3.19249 -0.534975 0
M  V30 2961 H 268.985 2.53014 -2.75562 0
M  V30 2962 H 270.318 3.34336 -3.61221 0
M  V30 2963 N 271.97 1.30982 0.876444 0
M  V30 2964 C 273.219 1.19658 1.62373 0
M  V30 2965 C 273.532 -0.245636 1.94052 0
M  V30 2966 O 274.738 -0.48049 2.67214 0
M  V30 2967 C 273.194 2.09433 2.92687 0
M  V30 2968 C 272.802 3.58613 2.68516 0
M  V30 2969 C 274.546 2.06893 3.70669 0
M  V30 2970 C 272.453 4.40416 3.94699 0
M  V30 2971 H 271.383 0.444268 0.609214 0
M  V30 2972 H 274.034 1.55791 0.969605 0
M  V30 2973 H 272.416 1.66191 3.59439 0
M  V30 2974 H 273.59 4.10058 2.10212 0
M  V30 2975 H 271.905 3.63063 2.03898 0
M  V30 2976 H 274.502 2.65258 4.64265 0
M  V30 2977 H 274.845 1.05448 4.02724 0
M  V30 2978 H 275.378 2.48301 3.10792 0
M  V30 2979 H 272.117 5.42591 3.67798 0
M  V30 2980 H 271.637 3.93731 4.52477 0
M  V30 2981 H 273.316 4.52294 4.62644 0
M  V30 2982 N 273.449 -1.08991 1.13837 0
M  V30 2983 C 274.397 -2.17841 0.815347 0
M  V30 2984 C 275.391 -1.68164 -0.204233 0
M  V30 2985 O 276.597 -1.79897 -0.0609304 0
M  V30 2986 H 272.972 -0.710654 0.245915 0
M  V30 2987 H 274.943 -2.42315 1.74143 0
M  V30 2988 C 273.692 -3.46381 0.302614 0
M  V30 2989 H 273.015 -3.84979 1.0785 0
M  V30 2990 H 274.455 -4.23844 0.115074 0
M  V30 2991 C 272.914 -3.22556 -0.972591 0
M  V30 2992 O 273.444 -3.45599 -2.04754 0
M  V30 2993 N 271.65 -2.76134 -0.905455 0
M  V30 2994 H 271.197 -2.57582 -0.0305421 0
M  V30 2995 H 271.155 -2.60571 -1.75926 0
M  V30 2996 N 274.927 -0.932562 -1.27047 0
M  V30 2997 C 276.173 -0.576412 -1.94436 0
M  V30 2998 C 276.506 0.880891 -1.73072 0
M  V30 2999 O 275.781 1.62905 -1.06264 0
M  V30 3000 C 276.064 -0.909031 -3.48437 0
M  V30 3001 C 275.917 -2.42044 -3.79123 0
M  V30 3002 C 277.236 -0.418341 -4.38107 0
M  V30 3003 H 274.355 -0.210888 -0.706184 0
M  V30 3004 H 276.997 -1.16522 -1.50075 0
M  V30 3005 H 275.147 -0.407947 -3.86352 0
M  V30 3006 H 276.819 -2.99359 -3.50973 0
M  V30 3007 H 275.062 -2.86758 -3.25503 0
M  V30 3008 H 275.733 -2.6037 -4.86736 0
M  V30 3009 H 278.209 -0.847856 -4.0737 0
M  V30 3010 H 277.085 -0.679981 -5.44672 0
M  V30 3011 H 277.346 0.681642 -4.36814 0
M  V30 3012 N 276.405 1.4127 -0.698611 0
M  V30 3013 C 277.654 2.00408 -0.227949 0
M  V30 3014 C 277.967 1.55981 1.18023 0
M  V30 3015 O 279.173 2.07699 1.74852 0
M  V30 3016 C 277.629 3.58129 -0.356636 0
M  V30 3017 C 277.237 4.11536 -1.77037 0
M  V30 3018 C 278.981 4.24466 0.0540969 0
M  V30 3019 C 276.888 5.61701 -1.85055 0
M  V30 3020 H 275.818 0.749586 -0.0814657 0
M  V30 3021 H 278.469 1.61713 -0.867249 0
M  V30 3022 H 276.851 3.94442 0.350965 0
M  V30 3023 H 278.025 3.86636 -2.50698 0
M  V30 3024 H 276.34 3.57736 -2.13105 0
M  V30 3025 H 278.937 5.34698 0.0146723 0
M  V30 3026 H 279.28 4.01687 1.09332 0
M  V30 3027 H 279.813 3.93198 -0.603337 0
M  V30 3028 H 276.552 5.89312 -2.8704 0
M  V30 3029 H 276.072 5.88519 -1.15783 0
M  V30 3030 H 277.751 6.26524 -1.61484 0
M  V30 3031 N 277.883 0.443576 1.51229 0
M  V30 3032 C 279.299 0.0962001 1.5931 0
M  V30 3033 C 279.499 -1.39501 1.45402 0
M  V30 3034 O 278.555 -2.16557 1.29843 0
M  V30 3035 C 279.868 0.621875 2.94199 0
M  V30 3036 C 281.416 0.582865 3.07525 0
M  V30 3037 C 281.891 1.08562 4.44948 0
M  V30 3038 N 283.382 1.04387 4.51284 0
M  V30 3039 C 284.117 1.40368 5.55954 0
M  V30 3040 N 283.613 1.83664 6.68011 0
M  V30 3041 N 285.406 1.32145 5.46346 0
M  V30 3042 H 277.557 1.41376 1.58514 0
M  V30 3043 H 279.82 0.582965 0.747567 0
M  V30 3044 H 279.526 1.66546 3.09767 0
M  V30 3045 H 279.4 0.0502125 3.77167 0
M  V30 3046 H 281.787 -0.451749 2.91622 0
M  V30 3047 H 281.868 1.191 2.26382 0
M  V30 3048 H 281.512 2.11873 4.61598 0
M  V30 3049 H 281.442 0.453956 5.2464 0
M  V30 3050 H 283.933 0.725986 3.70861 0
M  V30 3051 H 284.246 2.0934 7.43906 0
M  V30 3052 H 282.591 1.87596 6.69203 0
M  V30 3053 H 285.782 0.981808 4.57688 0
M  V30 3054 H 285.955 1.60514 6.27805 0
M  V30 3055 N 279.361 -1.56624 0.175154 0
M  V30 3056 C 280.607 -1.9729 -0.469506 0
M  V30 3057 C 280.94 -1.06128 -1.62636 0
M  V30 3058 O 280.215 -0.109183 -1.94193 0
M  V30 3059 C 280.498 -3.47375 -0.948804 0
M  V30 3060 C 280.351 -4.49317 0.208491 0
M  V30 3061 C 281.67 -4.00652 -1.82116 0
M  V30 3062 H 278.789 -0.717317 -0.16919 0
M  V30 3063 H 281.431 -1.88184 0.262062 0
M  V30 3064 H 279.581 -3.55267 -1.57219 0
M  V30 3065 H 281.253 -4.53482 0.845682 0
M  V30 3066 H 279.496 -4.25121 0.863395 0
M  V30 3067 H 280.167 -5.51741 -0.169059 0
M  V30 3068 H 282.643 -3.95416 -1.2956 0
M  V30 3069 H 281.519 -5.06075 -2.12554 0
M  V30 3070 H 281.78 -3.44699 -2.7683 0
M  V30 3071 N 280.839 0.0985539 -1.57292 0
M  V30 3072 C 282.255 0.45267 -1.53046 0
M  V30 3073 C 282.455 1.80713 -0.891342 0
M  V30 3074 O 281.511 2.4785 -0.482375 0
M  V30 3075 C 282.824 0.418341 -2.97776 0
M  V30 3076 C 284.372 0.500443 -3.08973 0
M  V30 3077 C 284.847 0.496297 -4.55303 0
M  V30 3078 N 286.338 0.557151 -4.59837 0
M  V30 3079 C 287.073 0.575726 -5.70502 0
M  V30 3080 N 286.569 0.550714 -6.90608 0
M  V30 3081 N 288.362 0.620277 -5.58667 0
M  V30 3082 H 280.513 -0.788673 -1.97215 0
M  V30 3083 H 282.776 -0.293188 -0.901524 0
M  V30 3084 H 282.482 -0.509659 -3.47988 0
M  V30 3085 H 282.356 1.2386 -3.56284 0
M  V30 3086 H 284.743 1.41886 -2.58751 0
M  V30 3087 H 284.824 -0.347894 -2.53423 0
M  V30 3088 H 284.468 -0.418162 -5.06176 0
M  V30 3089 H 284.398 1.3618 -5.08687 0
M  V30 3090 H 286.889 0.581816 -3.73394 0
M  V30 3091 H 287.202 0.568075 -7.70709 0
M  V30 3092 H 285.547 0.517816 -6.93068 0
M  V30 3093 H 288.738 0.637322 -4.63741 0
M  V30 3094 H 288.911 0.631283 -6.44918 0
M  V30 3095 N 282.317 1.53212 0.369288 0
M  V30 3096 C 283.733 1.42902 0.710712 0
M  V30 3097 C 283.933 0.565135 1.93413 0
M  V30 3098 O 282.989 0.0461484 2.52458 0
M  V30 3099 C 284.302 2.86042 0.927382 0
M  V30 3100 C 285.85 2.9565 1.02762 0
M  V30 3101 C 286.325 4.39843 1.27679 0
M  V30 3102 N 287.816 4.43256 1.34457 0
M  V30 3103 C 288.551 5.51929 1.55439 0
M  V30 3104 N 288.047 6.70655 1.73762 0
M  V30 3105 N 289.84 5.39502 1.57779 0
M  V30 3106 H 281.991 2.07888 -0.435457 0
M  V30 3107 H 284.254 0.938661 -0.132739 0
M  V30 3108 H 283.96 3.51557 0.100287 0
M  V30 3109 H 283.834 3.29472 1.83653 0
M  V30 3110 H 286.221 2.30291 1.84527 0
M  V30 3111 H 286.302 2.5562 0.0959504 0
M  V30 3112 H 285.946 5.05774 0.464175 0
M  V30 3113 H 285.876 4.77443 2.22162 0
M  V30 3114 H 288.367 3.5769 1.21926 0
M  V30 3115 H 288.68 7.49248 1.89335 0
M  V30 3116 H 287.025 6.73648 1.70948 0
M  V30 3117 H 290.216 4.45713 1.43029 0
M  V30 3118 H 290.389 6.2426 1.7379 0
M  V30 3119 N 283.795 -0.628877 1.44509 0
M  V30 3120 C 285.025 -1.41349 1.50678 0
M  V30 3121 C 285.433 -1.88745 0.131075 0
M  V30 3122 O 284.776 -1.61592 -0.87371 0
M  V30 3123 C 284.838 -2.66608 2.41165 0
M  V30 3124 C 284.502 -2.40993 3.88293 0
M  V30 3125 C 285.499 -2.0268 4.78766 0
M  V30 3126 C 283.184 -2.54563 4.33016 0
M  V30 3127 C 285.178 -1.78269 6.11963 0
M  V30 3128 C 282.865 -2.29766 5.6626 0
M  V30 3129 C 283.863 -1.91678 6.55552 0
M  V30 3130 O 283.551 -1.67158 7.86329 0
M  V30 3131 H 283.283 -0.439851 0.51333 0
M  V30 3132 H 285.837 -0.776084 1.90174 0
M  V30 3133 H 284.067 -3.32994 1.96601 0
M  V30 3134 H 285.756 -3.28615 2.38259 0
M  V30 3135 H 286.522 -1.91751 4.45485 0
M  V30 3136 H 282.401 -2.83179 3.63773 0
M  V30 3137 H 285.945 -1.48465 6.81619 0
M  V30 3138 H 281.842 -2.40306 5.99102 0
M  V30 3139 H 282.61 -1.81386 7.98149 0
M  V30 3140 N 285.273 -1.31445 -0.869486 0
M  V30 3141 C 286.519 -1.21337 -1.62496 0
M  V30 3142 C 286.852 0.227872 -1.92858 0
M  V30 3143 O 286.127 1.16094 -1.56053 0
M  V30 3144 C 286.41 -2.05814 -2.95487 0
M  V30 3145 C 286.263 -3.5824 -2.72 0
M  V30 3146 C 287.582 -1.9079 -3.96594 0
M  V30 3147 H 284.701 -0.442135 -0.589649 0
M  V30 3148 H 287.343 -1.6124 -1.00507 0
M  V30 3149 H 285.493 -1.71913 -3.48394 0
M  V30 3150 H 287.165 -4.0228 -2.25762 0
M  V30 3151 H 285.408 -3.81647 -2.06224 0
M  V30 3152 H 286.079 -4.12657 -3.66631 0
M  V30 3153 H 288.555 -2.20459 -3.52898 0
M  V30 3154 H 287.431 -2.52199 -4.87531 0
M  V30 3155 H 287.692 -0.871341 -4.33428 0
M  V30 3156 N 286.751 1.08385 -1.14413 0
M  V30 3157 C 287.998 1.80776 -0.912482 0
M  V30 3158 C 288.326 1.86236 0.560934 0
M  V30 3159 O 287.581 1.33431 1.43159 0
M  V30 3160 C 287.88 3.26273 -1.45879 0
M  V30 3161 C 287.546 3.4093 -2.95089 0
M  V30 3162 C 286.208 3.44638 -3.35824 0
M  V30 3163 C 288.56 3.44591 -3.91033 0
M  V30 3164 C 285.888 3.49597 -4.71167 0
M  V30 3165 C 288.24 3.51086 -5.26233 0
M  V30 3166 C 286.904 3.53067 -5.6648 0
M  V30 3167 H 286.174 0.661507 -0.333901 0
M  V30 3168 H 288.821 1.27613 -1.42784 0
M  V30 3169 H 287.126 3.82146 -0.864376 0
M  V30 3170 H 288.823 3.80839 -1.2555 0
M  V30 3171 H 285.413 3.38736 -2.62594 0
M  V30 3172 H 289.597 3.40957 -3.60641 0
M  V30 3173 H 284.853 3.49424 -5.0171 0
M  V30 3174 H 289.027 3.52864 -6.00383 0
M  V30 3175 H 286.654 3.56662 -6.71339 0
M  V30 3176 N 288.23 0.939286 1.26551 0
M  V30 3177 C 289.477 0.585847 1.9384 0
M  V30 3178 C 289.805 -0.874784 1.73718 0
M  V30 3179 O 289.06 -1.64092 1.06642 0
M  V30 3180 C 289.359 0.872106 3.46596 0
M  V30 3181 C 289.025 2.31632 3.86856 0
M  V30 3182 C 287.687 2.71111 3.97558 0
M  V30 3183 C 290.039 3.25494 4.07066 0
M  V30 3184 C 287.367 4.03553 4.25866 0
M  V30 3185 C 289.719 4.57531 4.36862 0
M  V30 3186 C 288.383 4.96828 4.45778 0
M  V30 3187 H 287.653 0.214377 0.709312 0
M  V30 3188 H 290.3 1.18544 1.50398 0
M  V30 3189 H 288.605 0.18996 3.91339 0
M  V30 3190 H 290.302 0.577442 3.96821 0
M  V30 3191 H 286.892 2.00008 3.79071 0
M  V30 3192 H 291.076 2.9619 3.98227 0
M  V30 3193 H 286.332 4.33665 4.30981 0
M  V30 3194 H 290.506 5.30254 4.51446 0
M  V30 3195 H 288.133 5.99482 4.67468 0
M  V30 3196 N 289.708 -1.40897 0.706093 0
M  V30 3197 C 290.641 -2.282 -0.00328781 0
M  V30 3198 C 291.619 -1.42816 -0.77732 0
M  V30 3199 O 292.803 -1.72237 -0.765944 0
M  V30 3200 C 289.93 -3.23226 -1.01205 0
M  V30 3201 C 288.976 -4.25222 -0.329955 0
M  V30 3202 S 289.809 -5.27269 0.935298 0
M  V30 3203 C 290.965 -6.25859 -0.0716061 0
M  V30 3204 H 291.198 -2.88016 0.737143 0
M  V30 3205 H 288.731 -1.46191 0.496756 0
M  V30 3206 H 290.689 -3.78503 -1.58888 0
M  V30 3207 H 289.35 -2.62485 -1.72513 0
M  V30 3208 H 288.543 -4.92023 -1.09221 0
M  V30 3209 H 288.145 -3.73595 0.174069 0
M  V30 3210 H 290.437 -6.71204 -0.921521 0
M  V30 3211 H 291.38 -7.0586 0.562765 0
M  V30 3212 H 291.788 -5.62852 -0.431088 0
M  V30 3213 N 291.186 -0.45159 -1.50991 0
M  V30 3214 C 292.134 0.366864 -2.29689 0
M  V30 3215 C 293.128 1.00809 -1.36139 0
M  V30 3216 O 294.334 0.941427 -1.53418 0
M  V30 3217 H 290.709 0.137133 -0.739391 0
M  V30 3218 H 292.68 -0.317538 -2.96706 0
M  V30 3219 C 291.429 1.44751 -3.16137 0
M  V30 3220 H 290.752 0.963473 -3.88017 0
M  V30 3221 H 292.192 1.99315 -3.74232 0
M  V30 3222 C 290.651 2.43869 -2.32442 0
M  V30 3223 O 291.181 3.4872 -1.99392 0
M  V30 3224 N 289.387 2.15105 -1.95392 0
M  V30 3225 H 288.934 1.29866 -2.22469 0
M  V30 3226 H 288.892 2.81661 -1.39693 0
M  V30 3227 N 292.664 1.56529 -0.183458 0
M  V30 3228 C 294.075 1.83739 0.331177 0
M  V30 3229 C 294.426 1.10373 1.62211 0
M  V30 3230 O 293.551 0.36071 2.13373 0
M  V30 3231 C 294.146 3.33306 0.607646 0
M  V30 3232 C 292.705 3.60969 1.06668 0
M  V30 3233 C 291.852 2.77086 0.109029 0
M  V30 3234 H 294.803 1.53379 -0.407484 0
M  V30 3235 H 294.824 3.51444 1.45832 0
M  V30 3236 H 294.336 3.86677 -0.332086 0
M  V30 3237 H 292.437 3.13021 2.0211 0
M  V30 3238 H 292.55 4.69231 0.967447 0
M  V30 3239 H 290.914 2.47319 0.608714 0
M  V30 3240 H 291.697 3.33241 -0.82494 0
M  V30 3241 N 294.142 -0.090211 1.57342 0
M  V30 3242 C 295.074 -1.13541 1.99101 0
M  V30 3243 C 296.087 -1.3604 0.894258 0
M  V30 3244 O 297.276 -1.34606 1.17233 0
M  V30 3245 C 294.376 -2.49001 2.29895 0
M  V30 3246 C 293.549 -2.46712 3.61182 0
M  V30 3247 C 292.608 -3.64136 3.79857 0
M  V30 3248 O 291.634 -3.46405 4.51655 0
M  V30 3249 N 292.836 -4.83802 3.20806 0
M  V30 3250 H 295.601 -0.779942 2.89373 0
M  V30 3251 H 293.162 -0.279125 1.59476 0
M  V30 3252 H 295.154 -3.26166 2.39578 0
M  V30 3253 H 293.724 -2.76619 1.45605 0
M  V30 3254 H 292.944 -1.55058 3.62423 0
M  V30 3255 H 294.232 -2.42265 4.4742 0
M  V30 3256 H 293.63 -5.01112 2.62494 0
M  V30 3257 H 292.187 -5.58543 3.35966 0
M  V30 3258 N 295.62 -1.53406 -0.361157 0
M  V30 3259 C 296.567 -1.80156 -1.44265 0
M  V30 3260 C 297.537 -0.646183 -1.53015 0
M  V30 3261 O 298.722 -0.888818 -1.68833 0
M  V30 3262 C 295.862 -2.00116 -2.81154 0
M  V30 3263 C 294.975 -3.27833 -2.81335 0
M  V30 3264 C 294.11 -3.37957 -4.09828 0
M  V30 3265 C 293.149 -4.59689 -4.04168 0
M  V30 3266 N 292.286 -4.66942 -5.24318 0
M  V30 3267 H 297.126 -2.72438 -1.20754 0
M  V30 3268 H 294.663 -1.34954 -0.585296 0
M  V30 3269 H 296.621 -2.09677 -3.60682 0
M  V30 3270 H 295.251 -1.11167 -3.03054 0
M  V30 3271 H 294.303 -3.27204 -1.94014 0
M  V30 3272 H 295.615 -4.17442 -2.73027 0
M  V30 3273 H 294.769 -3.46853 -4.97773 0
M  V30 3274 H 293.508 -2.46372 -4.20894 0
M  V30 3275 H 292.513 -4.50889 -3.14609 0
M  V30 3276 H 293.738 -5.5262 -3.947 0
M  V30 3277 H 291.684 -3.7826 -5.35962 0
M  V30 3278 H 291.601 -5.50462 -5.18197 0
M  V30 3279 H 292.869 -4.80127 -6.14084 0
M  V30 3280 N 297.098 0.621204 -1.44841 0
M  V30 3281 C 298.344 1.3826 -1.48365 0
M  V30 3282 C 298.677 1.93831 -0.119624 0
M  V30 3283 O 297.952 1.74251 0.864111 0
M  V30 3284 C 298.235 2.54058 -2.55199 0
M  V30 3285 C 298.088 2.03772 -4.00995 0
M  V30 3286 C 299.407 3.56225 -2.58442 0
M  V30 3287 H 296.526 0.501374 -0.540179 0
M  V30 3288 H 299.168 0.7015 -1.76576 0
M  V30 3289 H 297.318 3.12162 -2.31274 0
M  V30 3290 H 298.99 1.50423 -4.36086 0
M  V30 3291 H 297.233 1.34876 -4.12299 0
M  V30 3292 H 297.904 2.87185 -4.71411 0
M  V30 3293 H 300.38 3.07939 -2.79844 0
M  V30 3294 H 299.256 4.34756 -3.3508 0
M  V30 3295 H 299.517 4.10949 -1.63013 0
M  V30 3296 N 298.576 1.31904 0.862503 0
M  V30 3297 C 299.523 1.20182 1.9704 0
M  V30 3298 C 300.493 0.0858247 1.65878 0
M  V30 3299 O 301.678 0.26 1.8902 0
M  V30 3300 C 298.818 0.922797 3.32533 0
M  V30 3301 C 297.931 2.12284 3.76244 0
M  V30 3302 C 297.066 1.77996 5.00491 0
M  V30 3303 C 296.105 2.94366 5.36671 0
M  V30 3304 N 295.242 2.60223 6.52095 0
M  V30 3305 H 300.082 2.14951 2.06398 0
M  V30 3306 H 297.619 1.06917 1.01031 0
M  V30 3307 H 299.577 0.741548 4.10557 0
M  V30 3308 H 298.207 0.0119227 3.22798 0
M  V30 3309 H 297.259 2.41461 2.9394 0
M  V30 3310 H 298.571 2.99357 3.98982 0
M  V30 3311 H 297.725 1.56377 5.862 0
M  V30 3312 H 296.464 0.881252 4.79672 0
M  V30 3313 H 295.469 3.16625 4.49476 0
M  V30 3314 H 296.694 3.84957 5.59451 0
M  V30 3315 H 294.64 1.72884 6.32809 0
M  V30 3316 H 294.557 3.40827 6.74814 0
M  V30 3317 H 295.825 2.42016 7.40978 0
M  V30 3318 N 300.054 -1.07777 1.14986 0
M  V30 3319 C 301.465 -1.61766 0.932127 0
M  V30 3320 C 301.816 -1.88974 -0.527581 0
M  V30 3321 O 300.941 -1.65198 -1.39781 0
M  V30 3322 C 301.536 -2.93891 1.68563 0
M  V30 3323 C 300.095 -3.44639 1.5133 0
M  V30 3324 C 299.242 -2.18767 1.704 0
M  V30 3325 H 302.193 -0.909201 1.30074 0
M  V30 3326 H 302.214 -3.62623 1.15259 0
M  V30 3327 H 301.726 -2.74057 2.74799 0
M  V30 3328 H 299.827 -3.69564 0.474702 0
M  V30 3329 H 299.94 -4.20966 2.28746 0
M  V30 3330 H 298.304 -2.28253 1.13016 0
M  V30 3331 H 299.087 -2.01433 2.77992 0
M  V30 3332 N 301.532 -0.945985 -1.26051 0
M  V30 3333 C 302.943 -0.638096 -1.75457 0
M  V30 3334 C 303.294 0.846672 -1.76991 0
M  V30 3335 O 302.419 1.66262 -1.38513 0
M  V30 3336 C 303.014 -1.15157 -3.18629 0
M  V30 3337 C 301.573 -0.894004 -3.65629 0
M  V30 3338 C 300.72 -1.29967 -2.44957 0
M  V30 3339 H 303.671 -1.12376 -1.1206 0
M  V30 3340 H 303.692 -0.507615 -3.77099 0
M  V30 3341 H 303.204 -2.23222 -3.1748 0
M  V30 3342 H 301.305 0.172057 -3.72203 0
M  V30 3343 H 301.418 -1.52439 -4.54202 0
M  V30 3344 H 299.782 -0.718078 -2.44368 0
M  V30 3345 H 300.565 -2.38935 -2.46505 0
M  V30 3346 N 303.011 1.40521 -0.713556 0
M  V30 3347 C 303.921 2.34522 -0.0606667 0
M  V30 3348 C 304.937 1.57193 0.74607 0
M  V30 3349 O 306.113 1.89591 0.679493 0
M  V30 3350 C 303.178 3.36081 0.851491 0
M  V30 3351 C 302.239 4.29286 0.0349339 0
M  V30 3352 C 301.472 5.25994 0.903649 0
M  V30 3353 O 301.695 5.28616 2.14292 0
M  V30 3354 O 300.629 6.00918 0.343723 0
M  V30 3355 H 304.455 2.91968 -0.835972 0
M  V30 3356 H 302.04 1.41681 -0.47402 0
M  V30 3357 H 303.922 3.98369 1.37404 0
M  V30 3358 H 302.597 2.81052 1.60598 0
M  V30 3359 H 301.504 3.70289 -0.532633 0
M  V30 3360 H 302.837 4.87462 -0.681287 0
M  V30 3361 N 304.489 0.459591 1.5075 0
M  V30 3362 C 305.766 -0.160371 1.94941 0
M  V30 3363 C 306.146 -1.58048 1.39943 0
M  V30 3364 O 305.494 -2.206 0.595629 0
M  V30 3365 C 305.704 -0.115432 3.48809 0
M  V30 3366 C 307.052 -0.310026 4.23467 0
M  V30 3367 O 308.076 -0.192543 3.55679 0
M  V30 3368 O 306.935 -0.546031 5.43765 0
M  V30 3369 H 304.029 -0.117925 0.818549 0
M  V30 3370 H 306.575 0.519169 1.61563 0
M  V30 3371 H 305.347 0.87652 3.81357 0
M  V30 3372 H 304.97 -0.836928 3.88692 0
M  V30 3373 N 305.967 -1.56429 0.191757 0
M  V30 3374 C 306.897 -2.21937 -0.725696 0
M  V30 3375 C 307.878 -1.1814 -1.2238 0
M  V30 3376 O 309.063 -1.46636 -1.27325 0
M  V30 3377 C 306.193 -2.87611 -1.94672 0
M  V30 3378 C 305.147 -3.97623 -1.58366 0
M  V30 3379 C 304.473 -4.50446 -2.88102 0
M  V30 3380 C 305.773 -5.16197 -0.796133 0
M  V30 3381 H 307.467 -2.98861 -0.179606 0
M  V30 3382 H 305.013 -1.43749 -0.0849464 0
M  V30 3383 H 306.966 -3.3212 -2.59373 0
M  V30 3384 H 305.69 -2.08087 -2.51728 0
M  V30 3385 H 304.349 -3.53801 -0.960247 0
M  V30 3386 H 303.997 -3.67688 -3.43241 0
M  V30 3387 H 303.697 -5.24675 -2.64556 0
M  V30 3388 H 305.221 -4.97654 -3.53798 0
M  V30 3389 H 306.635 -5.57271 -1.34618 0
M  V30 3390 H 305.032 -5.96471 -0.658928 0
M  V30 3391 H 306.102 -4.84473 0.203478 0
M  V30 3392 N 307.445 0.0818655 -1.57387 0
M  V30 3393 C 308.377 1.12484 -1.997 0
M  V30 3394 C 309.39 1.35564 -0.90146 0
M  V30 3395 O 310.579 1.33982 -1.17945 0
M  V30 3396 C 307.679 2.47778 -2.31213 0
M  V30 3397 C 306.852 2.44793 -3.62485 0
M  V30 3398 C 305.911 3.62117 -3.81782 0
M  V30 3399 O 304.937 3.44005 -4.53486 0
M  V30 3400 N 306.139 4.82094 -3.23367 0
M  V30 3401 H 308.904 0.764585 -2.89783 0
M  V30 3402 H 306.465 0.270664 -1.59621 0
M  V30 3403 H 308.457 3.24891 -2.41304 0
M  V30 3404 H 307.027 2.75843 -1.4707 0
M  V30 3405 H 306.247 1.53134 -3.6324 0
M  V30 3406 H 307.535 2.39889 -4.48699 0
M  V30 3407 H 306.933 4.99713 -2.65148 0
M  V30 3408 H 305.49 5.56753 -3.38923 0
M  V30 3409 N 308.923 1.53595 0.353017 0
M  V30 3410 C 310.2 1.61002 1.11075 0
M  V30 3411 C 310.58 0.425356 2.0677 0
M  V30 3412 O 309.928 -0.583267 2.2093 0
M  V30 3413 C 310.138 2.96631 1.83877 0
M  V30 3414 C 311.486 3.51653 2.37961 0
M  V30 3415 O 312.51 2.98743 1.93987 0
M  V30 3416 O 311.369 4.44177 3.18386 0
M  V30 3417 H 308.463 0.650825 0.510251 0
M  V30 3418 H 311.009 1.6594 0.35527 0
M  V30 3419 H 309.781 3.74293 1.14108 0
M  V30 3420 H 309.404 2.95242 2.66304 0
M  V30 3421 N 310.401 -0.613514 1.45168 0
M  V30 3422 C 311.331 -1.7354 1.56225 0
M  V30 3423 C 312.312 -1.64981 0.41414 0
M  V30 3424 O 313.497 -1.83472 0.636526 0
M  V30 3425 C 310.627 -3.12128 1.52295 0
M  V30 3426 C 309.581 -3.35491 2.65762 0
M  V30 3427 C 308.907 -4.74291 2.46885 0
M  V30 3428 C 310.207 -3.26325 4.0781 0
M  V30 3429 H 311.901 -1.64543 2.50132 0
M  V30 3430 H 309.447 -0.790185 1.20383 0
M  V30 3431 H 311.4 -3.90404 1.58628 0
M  V30 3432 H 310.124 -3.2195 0.549139 0
M  V30 3433 H 308.783 -2.59603 2.58847 0
M  V30 3434 H 308.431 -4.80839 1.47657 0
M  V30 3435 H 308.131 -4.9088 3.22972 0
M  V30 3436 H 309.655 -5.54775 2.55063 0
M  V30 3437 H 311.069 -3.94483 4.16 0
M  V30 3438 H 309.466 -3.54445 4.8424 0
M  V30 3439 H 310.536 -2.23855 4.30136 0
M  V30 3440 N 311.879 -1.3236 -0.855495 0
M  V30 3441 C 313.127 -1.22629 -1.60644 0
M  V30 3442 C 313.448 0.212136 -1.93843 0
M  V30 3443 O 312.718 1.13666 -1.59552 0
M  V30 3444 H 311.298 -0.450882 -0.595579 0
M  V30 3445 H 313.96 -1.65871 -1.02337 0
M  V30 3446 H 313.056 -1.80832 -2.54374 0
M  V30 3447 N 313.357 1.07166 -1.15556 0
M  V30 3448 C 314.603 1.80065 -0.932984 0
M  V30 3449 C 314.936 1.86586 0.53845 0
M  V30 3450 O 314.211 1.35098 1.39924 0
M  V30 3451 C 314.494 3.25022 -1.55025 0
M  V30 3452 C 314.347 3.26634 -3.09242 0
M  V30 3453 C 315.666 4.22341 -1.2376 0
M  V30 3454 H 312.785 0.653697 -0.340366 0
M  V30 3455 H 315.427 1.25389 -1.4275 0
M  V30 3456 H 313.577 3.71712 -1.12972 0
M  V30 3457 H 315.249 2.88173 -3.60214 0
M  V30 3458 H 313.492 2.65539 -3.43033 0
M  V30 3459 H 314.163 4.28854 -3.47546 0
M  V30 3460 H 316.639 3.8405 -1.60139 0
M  V30 3461 H 315.515 5.22053 -1.69564 0
M  V30 3462 H 315.776 4.41828 -0.154938 0
M  V30 3463 N 314.835 0.952656 1.25548 0
M  V30 3464 C 316.251 0.656769 1.4546 0
M  V30 3465 C 316.451 -0.78633 1.85524 0
M  V30 3466 O 315.507 -1.56183 1.98402 0
M  V30 3467 C 316.82 1.62801 2.52817 0
M  V30 3468 C 318.368 1.63897 2.66659 0
M  V30 3469 C 318.843 2.5978 3.77198 0
M  V30 3470 N 320.334 2.58133 3.84606 0
M  V30 3471 C 321.069 3.29003 4.69621 0
M  V30 3472 N 320.565 4.09339 5.58939 0
M  V30 3473 N 322.358 3.179 4.63569 0
M  V30 3474 H 314.509 1.88526 0.978344 0
M  V30 3475 H 316.772 0.810815 0.491206 0
M  V30 3476 H 316.478 2.65869 2.30232 0
M  V30 3477 H 316.352 1.38898 3.50695 0
M  V30 3478 H 318.739 0.615481 2.8861 0
M  V30 3479 H 318.82 1.91858 1.69187 0
M  V30 3480 H 318.464 3.62254 3.55997 0
M  V30 3481 H 318.394 2.29105 4.7415 0
M  V30 3482 H 320.885 1.99809 3.20757 0
M  V30 3483 H 321.198 4.6034 6.20731 0
M  V30 3484 H 319.543 4.13438 5.58654 0
M  V30 3485 H 322.734 2.54612 3.92798 0
M  V30 3486 H 322.907 3.73398 5.29602 0
M  V30 3487 N 316.313 -1.40141 0.720998 0
M  V30 3488 C 317.56 -2.00787 0.262842 0
M  V30 3489 C 317.888 -1.5718 -1.14563 0
M  V30 3490 O 317.143 -0.785391 -1.79249 0
M  V30 3491 C 317.442 -3.56165 0.296892 0
M  V30 3492 C 317.108 -4.19373 1.65641 0
M  V30 3493 C 315.77 -4.36352 2.02855 0
M  V30 3494 C 318.122 -4.54578 2.54968 0
M  V30 3495 C 315.45 -4.8582 3.28931 0
M  V30 3496 C 317.802 -5.05447 3.80402 0
M  V30 3497 C 316.466 -5.20635 4.17726 0
M  V30 3498 H 315.736 -0.734731 0.0961807 0
M  V30 3499 H 318.383 -1.67673 0.925093 0
M  V30 3500 H 316.688 -3.8922 -0.448932 0
M  V30 3501 H 318.385 -4.00929 -0.0755208 0
M  V30 3502 H 314.975 -4.06549 1.35704 0
M  V30 3503 H 319.159 -4.41091 2.27491 0
M  V30 3504 H 314.415 -4.95764 3.57811 0
M  V30 3505 H 318.589 -5.31663 4.49786 0
M  V30 3506 H 316.216 -5.58728 5.15487 0
M  V30 3507 N 317.792 -0.46758 -1.50504 0
M  V30 3508 C 318.722 0.318381 -2.31319 0
M  V30 3509 C 319.703 0.993564 -1.38066 0
M  V30 3510 O 320.888 0.991411 -1.66987 0
M  V30 3511 C 318.018 1.40275 -3.17711 0
M  V30 3512 C 316.972 0.849373 -4.19487 0
M  V30 3513 C 316.298 2.03177 -4.94594 0
M  V30 3514 C 317.598 -0.136942 -5.2212 0
M  V30 3515 H 319.292 -0.356106 -2.97275 0
M  V30 3516 H 316.838 -0.172703 -1.42961 0
M  V30 3517 H 318.791 1.96004 -3.73042 0
M  V30 3518 H 317.515 2.10596 -2.49634 0
M  V30 3519 H 316.174 0.314076 -3.65252 0
M  V30 3520 H 315.822 2.72187 -4.22993 0
M  V30 3521 H 315.522 1.66774 -5.63436 0
M  V30 3522 H 317.046 2.59403 -5.52759 0
M  V30 3523 H 318.46 0.331056 -5.72343 0
M  V30 3524 H 316.857 -0.41507 -5.98663 0
M  V30 3525 H 317.927 -1.06398 -4.73083 0
M  V30 3526 N 319.27 1.56325 -0.20005 0
M  V30 3527 C 320.202 2.16555 0.750771 0
M  V30 3528 C 321.215 1.12871 1.1732 0
M  V30 3529 O 322.404 1.39943 1.10807 0
M  V30 3530 C 319.504 2.71684 2.02586 0
M  V30 3531 C 318.677 4.00321 1.76244 0
M  V30 3532 C 317.736 4.40227 2.88248 0
M  V30 3533 O 316.762 5.07552 2.57642 0
M  V30 3534 N 317.964 4.04138 4.16717 0
M  V30 3535 H 320.729 2.98772 0.235685 0
M  V30 3536 H 318.29 1.6189 -0.0182594 0
M  V30 3537 H 320.282 2.95363 2.76664 0
M  V30 3538 H 318.852 1.93893 2.45202 0
M  V30 3539 H 318.072 3.84723 0.85919 0
M  V30 3540 H 319.36 4.84279 1.56048 0
M  V30 3541 H 318.758 3.49993 4.44434 0
M  V30 3542 H 317.315 4.32756 4.87407 0
M  V30 3543 N 320.748 -0.0735177 1.57428 0
M  V30 3544 C 322.159 -0.625551 1.75908 0
M  V30 3545 C 322.51 -1.78 0.825261 0
M  V30 3546 O 321.635 -2.16398 0.00893964 0
M  V30 3547 C 322.23 -1.14155 3.18989 0
M  V30 3548 C 320.789 -1.63946 3.38819 0
M  V30 3549 C 319.936 -0.558151 2.71625 0
M  V30 3550 H 322.887 0.152647 1.57964 0
M  V30 3551 H 322.908 -2.0104 3.23053 0
M  V30 3552 H 322.42 -0.301116 3.8693 0
M  V30 3553 H 320.521 -2.50321 2.7599 0
M  V30 3554 H 320.634 -1.71759 4.47253 0
M  V30 3555 H 318.998 -1.00278 2.34129 0
M  V30 3556 H 319.781 0.272071 3.4222 0
M  V30 3557 N 322.226 -1.5378 -0.344866 0
M  V30 3558 C 323.473 -1.70963 -1.08526 0
M  V30 3559 C 323.801 -0.472126 -1.88683 0
M  V30 3560 O 323.056 0.546116 -1.87926 0
M  V30 3561 C 323.355 -2.92407 -2.05506 0
M  V30 3562 C 323.021 -4.28066 -1.41671 0
M  V30 3563 C 321.683 -4.64951 -1.2399 0
M  V30 3564 C 324.035 -5.12344 -0.956726 0
M  V30 3565 C 321.363 -5.83733 -0.589277 0
M  V30 3566 C 323.715 -6.3179 -0.320015 0
M  V30 3567 C 322.379 -6.67372 -0.130881 0
M  V30 3568 H 321.649 -0.625598 -0.397124 0
M  V30 3569 H 324.296 -1.87995 -0.36469 0
M  V30 3570 H 322.601 -2.69973 -2.8394 0
M  V30 3571 H 324.298 -3.02895 -2.62784 0
M  V30 3572 H 320.888 -3.99034 -1.56429 0
M  V30 3573 H 325.072 -4.8438 -1.08118 0
M  V30 3574 H 320.328 -6.09877 -0.431344 0
M  V30 3575 H 324.502 -6.96386 0.0445072 0
M  V30 3576 H 322.129 -7.59273 0.375318 0
M  V30 3577 N 323.704 0.605807 -1.45491 0
M  V30 3578 C 324.95 1.36679 -1.49823 0
M  V30 3579 C 325.283 1.93693 -0.140175 0
M  V30 3580 O 324.558 1.75158 0.845581 0
M  V30 3581 C 324.841 2.51337 -2.57879 0
M  V30 3582 C 324.694 1.99508 -4.03134 0
M  V30 3583 C 326.013 3.53463 -2.62205 0
M  V30 3584 H 323.132 0.495617 -0.545466 0
M  V30 3585 H 325.774 0.682732 -1.7731 0
M  V30 3586 H 323.924 3.09691 -2.34571 0
M  V30 3587 H 325.596 1.45789 -4.37656 0
M  V30 3588 H 323.839 1.30496 -4.13707 0
M  V30 3589 H 324.51 2.82169 -4.74431 0
M  V30 3590 H 326.986 3.04953 -2.83095 0
M  V30 3591 H 325.862 4.31178 -3.39672 0
M  V30 3592 H 326.123 4.09197 -1.67363 0
M  V30 3593 N 325.182 1.32811 0.848464 0
M  V30 3594 C 326.13 1.22231 1.97895 0
M  V30 3595 C 327.124 0.125749 1.68933 0
M  V30 3596 O 328.33 0.289083 1.77663 0
M  V30 3597 H 324.705 0.379058 0.649476 0
M  V30 3598 H 326.676 2.17828 2.03945 0
M  V30 3599 C 325.425 0.968572 3.33937 0
M  V30 3600 H 324.748 1.80458 3.56756 0
M  V30 3601 H 326.188 0.934808 4.13567 0
M  V30 3602 C 324.647 -0.328628 3.35293 0
M  V30 3603 O 325.177 -1.33848 3.78745 0
M  V30 3604 N 323.383 -0.352788 2.88451 0
M  V30 3605 H 322.93 0.469541 2.53285 0
M  V30 3606 H 322.888 -1.22057 2.89741 0
M  V30 3607 N 326.66 -1.06551 1.16123 0
M  V30 3608 C 327.59 -2.15935 0.88851 0
M  V30 3609 C 328.571 -1.69306 -0.164135 0
M  V30 3610 O 329.756 -1.94193 -0.0167857 0
M  V30 3611 C 326.886 -3.45149 0.385942 0
M  V30 3612 C 325.84 -4.05271 1.3762 0
M  V30 3613 C 325.166 -5.29664 0.732137 0
M  V30 3614 C 326.466 -4.44355 2.74493 0
M  V30 3615 H 328.16 -2.39006 1.80323 0
M  V30 3616 H 325.706 -1.14866 0.868435 0
M  V30 3617 H 327.659 -4.21004 0.182647 0
M  V30 3618 H 326.383 -3.21689 -0.564274 0
M  V30 3619 H 325.042 -3.3147 1.56599 0
M  V30 3620 H 324.69 -5.02499 -0.224483 0
M  V30 3621 H 324.39 -5.70848 1.39307 0
M  V30 3622 H 325.914 -6.08218 0.538802 0
M  V30 3623 H 327.328 -5.11303 2.59311 0
M  V30 3624 H 325.725 -4.96515 3.37035 0
M  V30 3625 H 326.795 -3.55339 3.29943 0
M  V30 3626 N 328.138 -0.959301 -1.25041 0
M  V30 3627 C 329.068 -0.501388 -2.28053 0
M  V30 3628 C 330.049 0.454673 -1.63911 0
M  V30 3629 O 331.234 0.352618 -1.90972 0
M  V30 3630 C 328.364 0.217224 -3.4662 0
M  V30 3631 C 327.318 -0.654034 -4.22973 0
M  V30 3632 C 326.644 0.195589 -5.34342 0
M  V30 3633 C 327.944 -1.93447 -4.85155 0
M  V30 3634 H 329.638 -1.36238 -2.66608 0
M  V30 3635 H 327.184 -0.656534 -1.28163 0
M  V30 3636 H 329.137 0.548732 -4.17812 0
M  V30 3637 H 327.861 1.1125 -3.07068 0
M  V30 3638 H 326.52 -0.968693 -3.5357 0
M  V30 3639 H 326.168 1.09076 -4.91031 0
M  V30 3640 H 325.868 -0.384091 -5.86343 0
M  V30 3641 H 327.392 0.521958 -6.08365 0
M  V30 3642 H 328.806 -1.66908 -5.48466 0
M  V30 3643 H 327.203 -2.46018 -5.47353 0
M  V30 3644 H 328.273 -2.63466 -4.07079 0
M  V30 3645 N 329.616 1.39756 -0.72842 0
M  V30 3646 C 330.841 2.05472 -0.282159 0
M  V30 3647 C 331.266 1.54549 1.07221 0
M  V30 3648 O 330.624 0.686372 1.67805 0
M  V30 3649 C 330.672 3.59462 -0.286264 0
M  V30 3650 O 329.776 4.05918 0.728298 0
M  V30 3651 H 329.117 0.651226 -0.129618 0
M  V30 3652 H 331.647 1.78915 -0.992499 0
M  V30 3653 H 331.657 4.07798 -0.128373 0
M  V30 3654 H 330.332 3.95889 -1.27456 0
M  V30 3655 H 328.909 3.69012 0.537081 0
M  V30 3656 N 331.094 0.475555 1.50254 0
M  V30 3657 C 332.041 -0.316293 2.28622 0
M  V30 3658 C 333.011 -0.983227 1.33873 0
M  V30 3659 O 334.196 -0.994805 1.62814 0
M  V30 3660 C 331.336 -1.38975 3.1588 0
M  V30 3661 C 330.449 -0.737146 4.25664 0
M  V30 3662 C 329.584 -1.78887 5.00173 0
M  V30 3663 C 328.623 -1.11676 6.01826 0
M  V30 3664 N 327.76 -2.11154 6.69596 0
M  V30 3665 H 332.6 0.358297 2.95838 0
M  V30 3666 H 330.137 0.188541 1.45887 0
M  V30 3667 H 332.095 -2.02383 3.64825 0
M  V30 3668 H 330.725 -2.03344 2.50701 0
M  V30 3669 H 329.777 0.0096065 3.80399 0
M  V30 3670 H 331.089 -0.206816 4.98371 0
M  V30 3671 H 330.243 -2.49865 5.52859 0
M  V30 3672 H 328.982 -2.35302 4.27182 0
M  V30 3673 H 327.987 -0.392633 5.48396 0
M  V30 3674 H 329.212 -0.55945 6.76792 0
M  V30 3675 H 327.158 -2.66577 5.99394 0
M  V30 3676 H 327.075 -1.63118 7.38193 0
M  V30 3677 H 328.343 -2.81497 7.26897 0
M  V30 3678 N 332.573 -1.56217 0.208337 0
M  V30 3679 C 333.536 -2.18455 -0.693557 0
M  V30 3680 C 334.536 -1.14268 -1.13135 0
M  V30 3681 O 335.726 -1.39577 -1.0423 0
M  V30 3682 C 332.858 -2.79727 -1.94848 0
M  V30 3683 H 334.051 -2.99519 -0.15114 0
M  V30 3684 H 331.604 -1.56245 -0.041287 0
M  V30 3685 H 332.339 -2.02497 -2.53309 0
M  V30 3686 H 332.124 -3.56009 -1.64316 0
M  V30 3687 H 333.614 -3.27475 -2.59133 0
M  V30 3688 N 334.051 0.0651679 -1.57465 0
M  V30 3689 C 335.279 0.775808 -1.91804 0
M  V30 3690 C 335.694 1.70782 -0.804916 0
M  V30 3691 O 335.051 1.81153 0.221311 0
M  V30 3692 C 335.102 1.56381 -3.25925 0
M  V30 3693 O 334.823 0.669248 -4.32958 0
M  V30 3694 C 336.324 2.37485 -3.7432 0
M  V30 3695 H 333.544 0.2202 -0.63384 0
M  V30 3696 H 336.088 0.0334587 -2.04473 0
M  V30 3697 H 334.243 2.25837 -3.14764 0
M  V30 3698 H 334.657 1.21801 -5.10162 0
M  V30 3699 H 336.131 2.88223 -4.70778 0
M  V30 3700 H 336.608 3.17307 -3.03666 0
M  V30 3701 H 337.214 1.73173 -3.88447 0
M  V30 3702 N 335.529 1.53961 0.336706 0
M  V30 3703 C 336.759 1.75229 1.09446 0
M  V30 3704 C 337.167 0.494602 1.82621 0
M  V30 3705 O 336.51 -0.543764 1.75468 0
M  V30 3706 C 336.572 2.88288 2.1478 0
M  V30 3707 C 336.236 4.27656 1.6112 0
M  V30 3708 C 337.233 5.08981 1.0599 0
M  V30 3709 C 334.918 4.74161 1.6576 0
M  V30 3710 C 336.912 6.34916 0.562129 0
M  V30 3711 C 334.599 6.00067 1.15595 0
M  V30 3712 C 335.597 6.80278 0.609147 0
M  V30 3713 O 335.285 8.03818 0.114999 0
M  V30 3714 H 335.017 0.588881 0.331956 0
M  V30 3715 H 337.571 2.01614 0.392566 0
M  V30 3716 H 335.801 2.57443 2.88548 0
M  V30 3717 H 337.49 2.97461 2.76174 0
M  V30 3718 H 338.256 4.74213 1.01722 0
M  V30 3719 H 334.135 4.11781 2.07261 0
M  V30 3720 H 337.679 6.9747 0.134668 0
M  V30 3721 H 333.576 6.3433 1.19566 0
M  V30 3722 H 334.344 8.18172 0.231651 0
M  V30 3723 N 337.007 -0.598083 1.45811 0
M  V30 3724 C 338.253 -1.35679 1.51535 0
M  V30 3725 C 338.608 -1.91745 0.15864 0
M  V30 3726 O 337.901 -1.72654 -0.830724 0
M  V30 3727 C 338.095 -2.51669 2.53766 0
M  V30 3728 C 337.924 -2.06963 3.99245 0
M  V30 3729 C 336.694 -1.92693 4.67116 0
M  V30 3730 C 338.892 -1.63855 4.875 0
M  V30 3731 N 336.874 -1.41897 5.97276 0
M  V30 3732 C 338.245 -1.24541 6.07363 0
M  V30 3733 C 340.3 -1.51533 4.74281 0
M  V30 3734 C 339.003 -0.741354 7.15469 0
M  V30 3735 C 341.029 -1.0253 5.82444 0
M  V30 3736 C 340.391 -0.641869 7.01469 0
M  V30 3737 H 336.49 -0.490042 0.609412 0
M  V30 3738 H 339.074 -0.682687 1.82339 0
M  V30 3739 H 337.245 -3.16663 2.24898 0
M  V30 3740 H 338.977 -3.18578 2.4958 0
M  V30 3741 H 335.732 -2.1417 4.22408 0
M  V30 3742 H 336.156 -1.18704 6.66512 0
M  V30 3743 H 340.798 -1.798 3.82664 0
M  V30 3744 H 338.516 -0.446243 8.06867 0
M  V30 3745 H 342.102 -0.934088 5.74253 0
M  V30 3746 H 340.982 -0.268531 7.8374 0
M  V30 3747 N 338.485 -1.33259 -0.841409 0
M  V30 3748 C 339.731 -1.25766 -1.59857 0
M  V30 3749 C 340.086 0.175602 -1.91597 0
M  V30 3750 O 339.379 1.117 -1.55672 0
M  V30 3751 C 339.573 -2.06381 -2.9179 0
M  V30 3752 C 339.402 -3.57401 -2.72937 0
M  V30 3753 C 338.172 -4.26718 -2.70628 0
M  V30 3754 C 340.37 -4.51786 -2.45753 0
M  V30 3755 N 338.352 -5.63705 -2.43125 0
M  V30 3756 C 339.723 -5.76643 -2.27777 0
M  V30 3757 C 341.778 -4.40898 -2.31329 0
M  V30 3758 C 340.481 -6.91842 -1.96841 0
M  V30 3759 C 342.507 -5.55911 -2.01786 0
M  V30 3760 C 341.869 -6.79776 -1.8462 0
M  V30 3761 H 337.968 -0.515406 -0.588117 0
M  V30 3762 H 340.552 -1.67772 -0.987955 0
M  V30 3763 H 338.723 -1.667 -3.50807 0
M  V30 3764 H 340.455 -1.90678 -3.56965 0
M  V30 3765 H 337.21 -3.78968 -2.84043 0
M  V30 3766 H 337.634 -6.35911 -2.32265 0
M  V30 3767 H 342.276 -3.45772 -2.43314 0
M  V30 3768 H 339.994 -7.86968 -1.83594 0
M  V30 3769 H 343.58 -5.49421 -1.91384 0
M  V30 3770 H 342.46 -7.67266 -1.62088 0
M  V30 3771 N 339.963 1.05934 -1.16686 0
M  V30 3772 C 340.896 2.1295 -0.820225 0
M  V30 3773 C 341.874 1.61242 0.209722 0
M  V30 3774 O 343.058 1.88271 0.0929688 0
M  V30 3775 C 340.185 3.3797 -0.22223 0
M  V30 3776 C 339.231 4.08488 -1.22637 0
M  V30 3777 S 340.064 4.58015 -2.77457 0
M  V30 3778 C 341.22 5.86292 -2.19117 0
M  V30 3779 H 341.453 2.42025 -1.72659 0
M  V30 3780 H 338.986 1.18423 -0.990722 0
M  V30 3781 H 340.944 4.10335 0.116322 0
M  V30 3782 H 339.605 3.07045 0.66196 0
M  V30 3783 H 338.798 4.98291 -0.756455 0
M  V30 3784 H 338.4 3.42154 -1.51019 0
M  V30 3785 H 340.692 6.59246 -1.56209 0
M  V30 3786 H 341.635 6.38019 -3.07144 0
M  V30 3787 H 342.043 5.40497 -1.62858 0
M  V30 3788 N 341.441 0.965919 1.2453 0
M  V30 3789 C 342.389 0.486506 2.27455 0
M  V30 3790 C 343.383 -0.449041 1.6334 0
M  V30 3791 O 344.589 -0.324527 1.7705 0
M  V30 3792 H 340.964 0.138857 0.739069 0
M  V30 3793 H 342.935 1.3666 2.65267 0
M  V30 3794 C 341.684 -0.209481 3.47068 0
M  V30 3795 H 341.007 0.50129 3.96645 0
M  V30 3796 H 342.447 -0.508775 4.20936 0
M  V30 3797 C 340.906 -1.43586 3.0477 0
M  V30 3798 O 341.436 -2.53299 3.11773 0
M  V30 3799 N 339.642 -1.30126 2.59838 0
M  V30 3800 H 339.189 -0.408583 2.54339 0
M  V30 3801 H 339.147 -2.12294 2.31902 0
M  V30 3802 N 342.919 -1.39368 0.735821 0
M  V30 3803 C 344.147 -2.04795 0.294393 0
M  V30 3804 C 344.562 -1.55478 -1.07107 0
M  V30 3805 O 343.919 -0.720038 -1.67695 0
M  V30 3806 C 343.97 -3.6035 0.288071 0
M  V30 3807 O 343.691 -4.07852 1.59963 0
M  V30 3808 C 345.192 -4.42976 -0.169422 0
M  V30 3809 H 342.412 -0.658571 0.128551 0
M  V30 3810 H 344.956 -1.78399 0.999701 0
M  V30 3811 H 343.111 -3.85645 -0.368355 0
M  V30 3812 H 343.525 -5.02181 1.51375 0
M  V30 3813 H 344.999 -5.51864 -0.122687 0
M  V30 3814 H 345.476 -4.22068 -1.21472 0
M  V30 3815 H 346.082 -4.22832 0.457469 0
M  V30 3816 N 344.397 -0.483516 -1.5 0
M  V30 3817 C 345.327 0.293829 -2.31644 0
M  V30 3818 C 346.308 0.978864 -1.39112 0
M  V30 3819 O 347.493 0.973644 -1.68029 0
M  V30 3820 C 344.623 1.36897 -3.19181 0
M  V30 3821 C 343.577 0.804833 -4.20365 0
M  V30 3822 C 342.903 1.9792 -4.96721 0
M  V30 3823 C 344.203 -0.192313 -5.21946 0
M  V30 3824 H 345.897 -0.387616 -2.9688 0
M  V30 3825 H 343.443 -0.187856 -1.42769 0
M  V30 3826 H 345.396 1.92037 -3.751 0
M  V30 3827 H 344.12 2.07936 -2.51853 0
M  V30 3828 H 342.779 0.275319 -3.65565 0
M  V30 3829 H 342.427 2.67686 -4.25856 0
M  V30 3830 H 342.127 1.60789 -5.65173 0
M  V30 3831 H 343.651 2.53526 -5.55479 0
M  V30 3832 H 345.065 0.270333 -5.72662 0
M  V30 3833 H 343.462 -0.478543 -5.98189 0
M  V30 3834 H 344.532 -1.11409 -4.71928 0
M  V30 3835 N 345.875 1.56104 -0.216619 0
M  V30 3836 C 347.124 1.97348 0.416744 0
M  V30 3837 C 347.437 1.10715 1.6125 0
M  V30 3838 O 348.643 1.41836 2.31506 0
M  V30 3839 C 347.099 3.51059 0.792835 0
M  V30 3840 C 346.707 4.46387 -0.379828 0
M  V30 3841 C 348.451 4.01026 1.39208 0
M  V30 3842 C 346.358 5.91397 0.0184223 0
M  V30 3843 H 345.288 0.736942 0.159475 0
M  V30 3844 H 347.939 1.80827 -0.31205 0
M  V30 3845 H 346.321 3.63162 1.57891 0
M  V30 3846 H 347.495 4.46029 -1.15737 0
M  V30 3847 H 345.81 4.06734 -0.891979 0
M  V30 3848 H 348.407 5.0686 1.70286 0
M  V30 3849 H 348.75 3.46587 2.30614 0
M  V30 3850 H 349.283 3.92125 0.669537 0
M  V30 3851 H 346.022 6.49807 -0.862002 0
M  V30 3852 H 345.542 5.94961 0.760384 0
M  V30 3853 H 347.221 6.45455 0.446818 0
M  V30 3854 N 347.353 -0.0568162 1.57498 0
M  V30 3855 C 348.602 -0.752001 1.87157 0
M  V30 3856 C 348.915 -1.77978 0.811375 0
M  V30 3857 O 350.121 -2.52559 0.996293 0
M  V30 3858 C 348.577 -1.38844 3.3204 0
M  V30 3859 C 348.185 -0.398456 4.46225 0
M  V30 3860 C 349.929 -2.06512 3.70882 0
M  V30 3861 C 347.836 -1.04166 5.82154 0
M  V30 3862 H 346.766 -0.28461 0.698222 0
M  V30 3863 H 349.417 -0.00561272 1.83499 0
M  V30 3864 H 347.799 -2.1836 3.30356 0
M  V30 3865 H 348.973 0.367977 4.59328 0
M  V30 3866 H 347.288 0.174592 4.16034 0
M  V30 3867 H 349.885 -2.55437 4.6974 0
M  V30 3868 H 350.228 -2.87117 3.01445 0
M  V30 3869 H 350.761 -1.33808 3.7462 0
M  V30 3870 H 347.5 -0.275614 6.5492 0
M  V30 3871 H 347.02 -1.7786 5.72823 0
M  V30 3872 H 348.699 -1.55715 6.27982 0
M  V30 3873 N 348.832 -1.54138 -0.328536 0
M  V30 3874 C 350.057 -1.76378 -1.09112 0
M  V30 3875 C 350.482 -0.508596 -1.81094 0
M  V30 3876 O 349.84 0.539598 -1.73084 0
M  V30 3877 C 349.888 -2.95358 -2.06872 0
M  V30 3878 O 348.992 -2.66556 -3.14677 0
M  V30 3879 H 348.333 -0.584614 -0.314838 0
M  V30 3880 H 350.863 -2.01146 -0.374348 0
M  V30 3881 H 350.873 -3.22566 -2.4983 0
M  V30 3882 H 349.548 -3.86385 -1.5388 0
M  V30 3883 H 348.125 -2.50282 -2.7643 0
M  V30 3884 N 350.31 0.590341 -1.46126 0
M  V30 3885 C 351.273 1.68194 -1.55703 0
M  V30 3886 C 352.273 1.54808 -0.434868 0
M  V30 3887 O 353.463 1.59564 -0.698928 0
M  V30 3888 C 350.595 3.07575 -1.47005 0
M  V30 3889 H 351.788 1.61064 -2.52979 0
M  V30 3890 H 349.341 0.807541 -1.33823 0
M  V30 3891 H 350.076 3.20268 -0.509785 0
M  V30 3892 H 349.861 3.187 -2.28414 0
M  V30 3893 H 351.351 3.87055 -1.56776 0
M  V30 3894 N 351.788 1.33704 0.83433 0
M  V30 3895 C 352.738 1.20899 1.93306 0
M  V30 3896 C 353.722 0.110783 1.60518 0
M  V30 3897 O 354.914 0.339331 1.73717 0
M  V30 3898 C 352.043 0.955018 3.29749 0
M  V30 3899 C 351.129 2.09587 3.68692 0
M  V30 3900 N 351.52 3.34621 3.79292 0
M  V30 3901 C 349.818 2.00358 3.98463 0
M  V30 3902 C 350.519 4.09472 4.13167 0
M  V30 3903 N 349.495 3.37954 4.25779 0
M  V30 3904 H 353.297 2.15665 1.99664 0
M  V30 3905 H 350.811 1.25777 1.02732 0
M  V30 3906 H 352.808 0.844208 4.08263 0
M  V30 3907 H 351.468 0.0159317 3.24696 0
M  V30 3908 H 352.479 3.69313 3.63082 0
M  V30 3909 H 349.156 1.14137 4.01596 0
M  V30 3910 H 350.546 5.17391 4.28668 0
M  V30 3911 N 353.266 -1.05314 1.17247 0
M  V30 3912 C 354.213 -2.13031 0.888058 0
M  V30 3913 C 355.183 -1.65253 -0.167537 0
M  V30 3914 O 356.368 -1.90775 -0.0305974 0
M  V30 3915 C 353.508 -3.42702 0.406147 0
M  V30 3916 C 352.621 -4.04161 1.52572 0
M  V30 3917 C 351.756 -5.21744 0.997808 0
M  V30 3918 C 350.795 -5.75207 2.09291 0
M  V30 3919 N 349.932 -6.84094 1.57986 0
M  V30 3920 H 354.772 -2.36698 1.81048 0
M  V30 3921 H 352.309 -1.16121 0.903013 0
M  V30 3922 H 354.267 -4.17059 0.108305 0
M  V30 3923 H 352.897 -3.19222 -0.479313 0
M  V30 3924 H 351.949 -3.27253 1.93931 0
M  V30 3925 H 353.261 -4.39881 2.35172 0
M  V30 3926 H 352.415 -6.03168 0.653739 0
M  V30 3927 H 351.154 -4.87495 0.141232 0
M  V30 3928 H 350.159 -4.92414 2.44557 0
M  V30 3929 H 351.384 -6.11505 2.95362 0
M  V30 3930 H 349.33 -6.51745 0.74598 0
M  V30 3931 H 349.247 -7.18811 2.34195 0
M  V30 3932 H 350.515 -7.69172 1.26468 0
M  V30 3933 N 354.744 -0.972509 -1.24016 0
M  V30 3934 C 355.691 -0.505969 -2.25186 0
M  V30 3935 C 356.661 0.451009 -1.5986 0
M  V30 3936 O 357.846 0.360307 -1.87367 0
M  V30 3937 C 354.986 0.193089 -3.44559 0
M  V30 3938 C 354.099 -0.803222 -4.24467 0
M  V30 3939 C 353.234 -0.0797793 -5.3114 0
M  V30 3940 C 352.273 -1.06583 -6.02749 0
M  V30 3941 N 351.41 -0.372074 -7.01113 0
M  V30 3942 H 356.25 -1.37351 -2.64459 0
M  V30 3943 H 353.787 -0.688419 -1.29997 0
M  V30 3944 H 355.745 0.615125 -4.1264 0
M  V30 3945 H 354.375 1.02455 -3.06109 0
M  V30 3946 H 353.427 -1.34368 -3.55878 0
M  V30 3947 H 354.739 -1.55494 -4.73944 0
M  V30 3948 H 353.893 0.400015 -6.0538 0
M  V30 3949 H 352.632 0.704597 -4.82583 0
M  V30 3950 H 351.637 -1.55645 -5.27309 0
M  V30 3951 H 352.862 -1.85074 -6.53395 0
M  V30 3952 H 350.808 0.393238 -6.5482 0
M  V30 3953 H 350.725 -1.06258 -7.48495 0
M  V30 3954 H 351.993 0.0855932 -7.79453 0
M  V30 3955 N 356.222 1.38976 -0.743202 0
M  V30 3956 C 357.633 1.83123 -0.363732 0
M  V30 3957 C 357.984 1.6205 1.10609 0
M  V30 3958 O 357.109 1.11606 1.854 0
M  V30 3959 C 357.704 3.32439 -0.653408 0
M  V30 3960 C 356.263 3.74974 -0.327338 0
M  V30 3961 C 355.41 2.61878 -0.911875 0
M  V30 3962 H 358.361 1.27852 -0.940191 0
M  V30 3963 H 358.382 3.80432 0.0720031 0
M  V30 3964 H 357.894 3.47745 -1.72323 0
M  V30 3965 H 355.995 3.65252 0.736314 0
M  V30 3966 H 356.108 4.72106 -0.815631 0
M  V30 3967 H 354.472 2.52448 -0.337944 0
M  V30 3968 H 355.255 2.79987 -1.98651 0
M  V30 3969 N 357.7 0.491464 1.49741 0
M  V30 3970 C 358.949 -0.0582189 2.01616 0
M  V30 3971 C 359.262 -1.38927 1.3769 0
M  V30 3972 O 360.468 -2.02509 1.80838 0
M  V30 3973 C 358.924 -0.154235 3.59569 0
M  V30 3974 C 358.532 1.1696 4.32463 0
M  V30 3975 C 360.276 -0.65479 4.1942 0
M  V30 3976 C 358.183 1.03627 5.8225 0
M  V30 3977 H 357.113 -0.0255317 0.753568 0
M  V30 3978 H 359.764 0.629445 1.72367 0
M  V30 3979 H 358.146 -0.906138 3.85493 0
M  V30 3980 H 359.32 1.93405 4.18248 0
M  V30 3981 H 357.635 1.60285 3.84315 0
M  V30 3982 H 360.232 -0.771903 5.29099 0
M  V30 3983 H 360.575 -1.65127 3.8215 0
M  V30 3984 H 361.108 0.040304 3.9778 0
M  V30 3985 H 357.847 2.00672 6.24028 0
M  V30 3986 H 357.367 0.312546 5.98985 0
M  V30 3987 H 359.046 0.711114 6.4308 0
M  V30 3988 N 359.178 -1.55987 0.224894 0
M  V30 3989 C 360.455 -1.90232 -0.455083 0
M  V30 3990 C 360.835 -1.14269 -1.77499 0
M  V30 3991 O 360.183 -0.253079 -2.27094 0
M  V30 3992 C 360.393 -3.42993 -0.644758 0
M  V30 3993 C 361.741 -4.13821 -0.950669 0
M  V30 3994 O 362.765 -3.4861 -0.731423 0
M  V30 3995 O 361.624 -5.29128 -1.36695 0
M  V30 3996 H 358.718 -0.79108 -0.241084 0
M  V30 3997 H 361.264 -1.67581 0.267327 0
M  V30 3998 H 360.036 -3.90252 0.28613 0
M  V30 3999 H 359.659 -3.71434 -1.41853 0
M  V30 4000 N 360.656 0.0484629 -1.57525 0
M  V30 4001 C 361.586 1.0549 -2.08313 0
M  V30 4002 C 362.567 1.38929 -0.981463 0
M  V30 4003 O 363.752 1.48151 -1.25558 0
M  V30 4004 C 360.882 2.36162 -2.54646 0
M  V30 4005 C 359.836 2.17016 -3.68901 0
M  V30 4006 C 359.162 3.53278 -4.01371 0
M  V30 4007 C 360.462 1.57219 -4.98076 0
M  V30 4008 H 362.156 0.632195 -2.92649 0
M  V30 4009 H 359.702 0.302654 -1.40784 0
M  V30 4010 H 361.655 3.06882 -2.88793 0
M  V30 4011 H 360.379 2.80456 -1.67368 0
M  V30 4012 H 359.038 1.48733 -3.35073 0
M  V30 4013 H 358.686 3.95185 -3.11188 0
M  V30 4014 H 358.386 3.41299 -4.78318 0
M  V30 4015 H 359.91 4.25391 -4.38035 0
M  V30 4016 H 361.324 2.17832 -5.30304 0
M  V30 4017 H 359.721 1.55871 -5.79503 0
M  V30 4018 H 360.791 0.535956 -4.81929 0
M  V30 4019 N 362.134 1.5431 0.320358 0
M  V30 4020 C 363.081 1.83918 1.39438 0
M  V30 4021 C 364.051 0.686525 1.51248 0
M  V30 4022 O 365.236 0.933269 1.66417 0
M  V30 4023 C 362.376 2.075 2.75749 0
M  V30 4024 C 361.489 3.35177 2.72544 0
M  V30 4025 C 360.624 3.48704 4.00723 0
M  V30 4026 C 359.663 4.70244 3.91838 0
M  V30 4027 N 358.8 4.80679 5.11754 0
M  V30 4028 H 363.64 2.75544 1.13489 0
M  V30 4029 H 361.177 1.36459 0.549309 0
M  V30 4030 H 363.135 2.19166 3.54996 0
M  V30 4031 H 361.765 1.19163 3 0
M  V30 4032 H 360.817 3.32233 1.85271 0
M  V30 4033 H 362.129 4.24534 2.61863 0
M  V30 4034 H 361.283 3.59928 4.88402 0
M  V30 4035 H 360.022 2.57445 4.14214 0
M  V30 4036 H 359.027 4.59072 3.02544 0
M  V30 4037 H 360.252 5.6289 3.7991 0
M  V30 4038 H 358.198 3.92337 5.25745 0
M  V30 4039 H 358.115 5.64007 5.0342 0
M  V30 4040 H 359.383 4.96239 6.01138 0
M  V30 4041 N 363.613 -0.582584 1.46437 0
M  V30 4042 C 364.576 -1.67366 1.56592 0
M  V30 4043 C 365.576 -1.54575 0.443072 0
M  V30 4044 O 366.766 -1.59191 0.707381 0
M  V30 4045 C 363.898 -3.06791 1.48634 0
M  V30 4046 H 365.091 -1.5972 2.5383 0
M  V30 4047 H 362.644 -0.800432 1.34249 0
M  V30 4048 H 363.379 -3.19993 0.526763 0
M  V30 4049 H 363.164 -3.17484 2.30101 0
M  V30 4050 H 364.654 -3.86218 1.58826 0
M  V30 4051 N 365.091 -1.34144 -0.827227 0
M  V30 4052 C 366.34 -1.25602 -1.5782 0
M  V30 4053 C 366.653 0.173445 -1.94829 0
M  V30 4054 O 367.859 0.380984 -2.68814 0
M  V30 4055 C 366.315 -2.20151 -2.84713 0
M  V30 4056 C 365.923 -3.68331 -2.55021 0
M  V30 4057 C 367.667 -2.20508 -3.62735 0
M  V30 4058 C 365.574 -4.54762 -3.78082 0
M  V30 4059 H 364.504 -0.466573 -0.592306 0
M  V30 4060 H 367.155 -1.59283 -0.911116 0
M  V30 4061 H 365.537 -1.79417 -3.53023 0
M  V30 4062 H 366.711 -4.17577 -1.94849 0
M  V30 4063 H 365.026 -3.7038 -1.90283 0
M  V30 4064 H 367.623 -2.82306 -4.54101 0
M  V30 4065 H 367.966 -1.20322 -3.98533 0
M  V30 4066 H 368.499 -2.59664 -3.01362 0
M  V30 4067 H 365.238 -5.55867 -3.47407 0
M  V30 4068 H 364.758 -4.10254 -4.37552 0
M  V30 4069 H 366.437 -4.69153 -4.45538 0
M  V30 4070 N 366.569 1.04691 -1.17803 0
M  V30 4071 C 367.817 1.7743 -0.967617 0
M  V30 4072 C 368.138 1.88359 0.504574 0
M  V30 4073 O 367.408 1.40402 1.36617 0
M  V30 4074 H 365.988 0.657242 -0.355024 0
M  V30 4075 H 368.65 1.2638 -1.48371 0
M  V30 4076 H 367.746 2.78924 -1.40027 0
M  V30 4077 N 368.047 0.979072 1.23499 0
M  V30 4078 C 368.994 0.517904 2.24914 0
M  V30 4079 C 369.964 -0.442525 1.60097 0
M  V30 4080 O 371.149 -0.350365 1.87556 0
M  V30 4081 C 368.289 -0.174813 3.44657 0
M  V30 4082 C 367.402 0.825721 4.24035 0
M  V30 4083 C 366.537 0.107946 5.3109 0
M  V30 4084 C 365.576 1.09778 6.02175 0
M  V30 4085 N 364.713 0.40925 7.00906 0
M  V30 4086 H 369.553 1.38751 2.63727 0
M  V30 4087 H 367.09 0.695303 1.2963 0
M  V30 4088 H 369.048 -0.593233 4.12961 0
M  V30 4089 H 367.678 -1.0083 3.06648 0
M  V30 4090 H 366.73 1.36253 3.55161 0
M  V30 4091 H 368.042 1.58005 4.73113 0
M  V30 4092 H 367.196 -0.367904 6.05583 0
M  V30 4093 H 365.935 -0.678994 4.8295 0
M  V30 4094 H 364.94 1.5844 5.26476 0
M  V30 4095 H 366.165 1.88536 6.52404 0
M  V30 4096 H 364.111 -0.358506 6.5502 0
M  V30 4097 H 364.028 1.10226 7.47921 0
M  V30 4098 H 365.296 -0.0442557 7.79487 0
M  V30 4099 N 369.525 -1.3858 0.750561 0
M  V30 4100 C 370.455 -2.33102 0.136237 0
M  V30 4101 C 371.436 -1.54713 -0.706965 0
M  V30 4102 O 372.621 -1.83043 -0.648769 0
M  V30 4103 C 369.751 -3.38882 -0.760017 0
M  V30 4104 C 368.705 -4.27995 -0.0197785 0
M  V30 4105 C 368.031 -5.24605 -1.03408 0
M  V30 4106 C 369.331 -5.09554 1.14684 0
M  V30 4107 H 371.025 -2.84726 0.925822 0
M  V30 4108 H 368.571 -1.36898 0.446654 0
M  V30 4109 H 370.524 -4.0397 -1.19943 0
M  V30 4110 H 369.248 -2.85734 -1.58189 0
M  V30 4111 H 367.907 -3.64409 0.400184 0
M  V30 4112 H 367.555 -4.67746 -1.84994 0
M  V30 4113 H 367.255 -5.85081 -0.543464 0
M  V30 4114 H 368.779 -5.9257 -1.47288 0
M  V30 4115 H 370.193 -5.67899 0.785118 0
M  V30 4116 H 368.59 -5.7925 1.56812 0
M  V30 4117 H 369.66 -4.4347 1.96118 0
M  V30 4118 N 371.003 -0.499398 -1.49478 0
M  V30 4119 C 372.414 -0.051215 -1.8663 0
M  V30 4120 C 372.765 1.36238 -1.41186 0
M  V30 4121 O 371.89 2.01502 -0.789051 0
M  V30 4122 C 372.485 -0.0861651 -3.3869 0
M  V30 4123 C 371.044 0.30667 -3.75149 0
M  V30 4124 C 370.191 -0.459397 -2.73468 0
M  V30 4125 H 373.142 -0.712264 -1.41818 0
M  V30 4126 H 373.163 0.709507 -3.73826 0
M  V30 4127 H 372.675 -1.11512 -3.71735 0
M  V30 4128 H 370.776 1.33892 -3.47712 0
M  V30 4129 H 370.889 -0.0116669 -4.79099 0
M  V30 4130 H 369.253 0.0905645 -2.54539 0
M  V30 4131 H 370.036 -1.4884 -3.09357 0
M  V30 4132 N 372.481 1.55866 -0.233164 0
M  V30 4133 C 373.73 1.97779 0.39579 0
M  V30 4134 C 374.043 1.12419 1.60066 0
M  V30 4135 O 375.249 1.44283 2.29988 0
M  V30 4136 C 373.705 3.5188 0.755556 0
M  V30 4137 C 373.313 4.45959 -0.427152 0
M  V30 4138 C 375.057 4.02479 1.34946 0
M  V30 4139 C 372.964 5.91383 -0.0443043 0
M  V30 4140 H 371.894 0.738592 0.15165 0
M  V30 4141 H 374.545 1.80486 -0.331212 0
M  V30 4142 H 372.927 3.64816 1.5403 0
M  V30 4143 H 374.101 4.44776 -1.20462 0
M  V30 4144 H 372.416 4.05765 -0.935068 0
M  V30 4145 H 375.013 5.08637 1.649 0
M  V30 4146 H 375.356 3.49014 2.26925 0
M  V30 4147 H 375.889 3.92813 0.62791 0
M  V30 4148 H 372.628 6.48857 -0.930874 0
M  V30 4149 H 372.148 5.95734 0.697238 0
M  V30 4150 H 373.827 6.45893 0.378334 0
M  V30 4151 N 373.959 -0.0401083 1.57549 0
M  V30 4152 C 374.922 -1.02871 2.04817 0
M  V30 4153 C 375.922 -1.29708 0.950388 0
M  V30 4154 O 377.112 -1.24897 1.21435 0
M  V30 4155 C 374.244 -2.36443 2.45576 0
M  V30 4156 H 375.437 -0.620631 2.93408 0
M  V30 4157 H 372.99 -0.286667 1.53649 0
M  V30 4158 H 373.725 -2.82021 1.60108 0
M  V30 4159 H 373.51 -2.18296 3.25713 0
M  V30 4160 H 375 -3.07441 2.82612 0
M  V30 4161 N 375.437 -1.54477 -0.31217 0
M  V30 4162 C 376.37 -1.79519 -1.40884 0
M  V30 4163 C 377.348 -0.645753 -1.49227 0
M  V30 4164 O 378.532 -0.884468 -1.66461 0
M  V30 4165 C 375.659 -1.92194 -2.78889 0
M  V30 4166 C 374.705 -3.14555 -2.88023 0
M  V30 4167 S 375.538 -4.72893 -2.51262 0
M  V30 4168 C 376.694 -4.8849 -3.91317 0
M  V30 4169 H 376.927 -2.72256 -1.19432 0
M  V30 4170 H 374.46 -1.45746 -0.509654 0
M  V30 4171 H 376.418 -2.00182 -3.58382 0
M  V30 4172 H 375.079 -1.00414 -2.97617 0
M  V30 4173 H 374.272 -3.20193 -3.89221 0
M  V30 4174 H 373.874 -3.04955 -2.16514 0
M  V30 4175 H 376.166 -4.71826 -4.86196 0
M  V30 4176 H 377.109 -5.90588 -3.90656 0
M  V30 4177 H 377.517 -4.16715 -3.80801 0
M  V30 4178 N 376.915 0.57481 -1.46744 0
M  V30 4179 C 378.331 0.898981 -1.31873 0
M  V30 4180 C 378.531 1.99313 -0.29605 0
M  V30 4181 O 377.587 2.50728 0.298621 0
M  V30 4182 C 378.9 1.30886 -2.7072 0
M  V30 4183 C 380.448 1.42127 -2.78871 0
M  V30 4184 C 380.923 1.86478 -4.18318 0
M  V30 4185 N 382.414 1.93658 -4.20774 0
M  V30 4186 C 383.149 2.29267 -5.2557 0
M  V30 4187 N 382.645 2.63612 -6.40688 0
M  V30 4188 N 384.438 2.29889 -5.1294 0
M  V30 4189 H 376.589 -0.147839 -2.11885 0
M  V30 4190 H 378.852 -0.00347013 -0.947994 0
M  V30 4191 H 378.558 0.578853 -3.46904 0
M  V30 4192 H 378.432 2.26874 -3.01343 0
M  V30 4193 H 380.819 2.14213 -2.0297 0
M  V30 4194 H 380.9 0.443705 -2.51922 0
M  V30 4195 H 380.544 1.14968 -4.94717 0
M  V30 4196 H 380.474 2.85207 -4.42679 0
M  V30 4197 H 382.965 1.69574 -3.37718 0
M  V30 4198 H 383.278 2.89759 -7.16421 0
M  V30 4199 H 381.623 2.61232 -6.44036 0
M  V30 4200 H 384.814 2.02485 -4.22039 0
M  V30 4201 H 384.987 2.57312 -5.94722 0
M  V30 4202 N 378.394 1.34581 0.820102 0
M  V30 4203 C 379.357 1.2628 1.91275 0
M  V30 4204 C 380.357 0.177344 1.59819 0
M  V30 4205 O 381.547 0.430156 1.68806 0
M  V30 4206 C 378.679 0.950327 3.27386 0
M  V30 4207 H 379.872 2.23421 2.00057 0
M  V30 4208 H 377.425 1.1891 1.0144 0
M  V30 4209 H 378.16 -0.0177938 3.24295 0
M  V30 4210 H 377.945 1.73549 3.51601 0
M  V30 4211 H 379.435 0.917492 4.07396 0
M  V30 4212 N 379.872 -1.04064 1.18357 0
M  V30 4213 C 381.118 -1.77528 0.980397 0
M  V30 4214 C 381.451 -1.87948 -0.48879 0
M  V30 4215 O 380.726 -1.3876 -1.36293 0
M  V30 4216 C 381.009 -3.20797 1.63588 0
M  V30 4217 C 380.862 -3.1832 3.17793 0
M  V30 4218 C 382.181 -4.18911 1.34914 0
M  V30 4219 H 379.3 -0.644443 0.357578 0
M  V30 4220 H 381.942 -1.2156 1.46024 0
M  V30 4221 H 380.092 -3.68586 1.22788 0
M  V30 4222 H 381.764 -2.78521 3.67728 0
M  V30 4223 H 380.007 -2.56351 3.49952 0
M  V30 4224 H 380.678 -4.19489 3.58794 0
M  V30 4225 H 383.154 -3.7967 1.70265 0
M  V30 4226 H 382.03 -5.17374 1.83346 0
M  V30 4227 H 382.291 -4.41262 0.272027 0
M  V30 4228 N 381.35 -0.985608 -1.22978 0
M  V30 4229 C 382.578 -0.675582 -1.95559 0
M  V30 4230 C 382.993 0.758413 -1.72897 0
M  V30 4231 O 382.35 1.51094 -1.02357 0
M  V30 4232 C 382.401 -0.96293 -3.48439 0
M  V30 4233 O 382.122 -2.34057 -3.70336 0
M  V30 4234 C 383.623 -0.669585 -4.38214 0
M  V30 4235 H 380.843 -0.250523 -0.622478 0
M  V30 4236 H 383.387 -1.3184 -1.56328 0
M  V30 4237 H 381.542 -0.366033 -3.85667 0
M  V30 4238 H 381.956 -2.43424 -4.64591 0
M  V30 4239 H 383.43 -0.920967 -5.44263 0
M  V30 4240 H 383.907 0.396383 -4.37408 0
M  V30 4241 H 384.513 -1.2472 -4.06602 0
M  V30 4242 N 382.828 1.3818 -0.7579 0
M  V30 4243 C 383.776 2.32277 -0.122482 0
M  V30 4244 C 384.77 1.54238 0.700505 0
M  V30 4245 O 385.976 1.69737 0.599119 0
M  V30 4246 H 382.351 0.751712 -0.0208143 0
M  V30 4247 H 384.322 2.83469 -0.932099 0
M  V30 4248 C 383.071 3.39447 0.753076 0
M  V30 4249 H 382.394 3.99591 0.129184 0
M  V30 4250 H 383.834 4.07684 1.16489 0
M  V30 4251 C 382.293 2.78375 1.8976 0
M  V30 4252 O 382.823 2.68025 2.99208 0
M  V30 4253 N 381.029 2.36121 1.69397 0
M  V30 4254 H 380.576 2.4474 0.803762 0
M  V30 4255 H 380.534 1.95602 2.46145 0
M  V30 4256 N 384.306 0.507319 1.49211 0
M  V30 4257 C 385.536 -0.0315292 2.06576 0
M  V30 4258 C 385.944 -1.30791 1.36713 0
M  V30 4259 O 385.287 -1.78324 0.441181 0
M  V30 4260 C 385.349 -0.349104 3.57801 0
M  V30 4261 C 385.013 0.830475 4.49391 0
M  V30 4262 C 386.01 1.72271 4.90529 0
M  V30 4263 C 383.695 1.03107 4.91604 0
M  V30 4264 C 385.689 2.79964 5.72625 0
M  V30 4265 C 383.376 2.11116 5.73475 0
M  V30 4266 C 384.374 2.99379 6.1389 0
M  V30 4267 O 384.062 4.05523 6.94123 0
M  V30 4268 H 383.794 0.0201002 0.675701 0
M  V30 4269 H 386.348 0.705737 1.92895 0
M  V30 4270 H 384.578 -1.14005 3.69513 0
M  V30 4271 H 386.267 -0.827319 3.97379 0
M  V30 4272 H 387.033 1.57958 4.58557 0
M  V30 4273 H 382.912 0.353417 4.59643 0
M  V30 4274 H 386.456 3.48884 6.04091 0
M  V30 4275 H 382.353 2.25421 6.0486 0
M  V30 4276 H 383.121 4.02953 7.1244 0
M  V30 4277 N 385.784 -1.5574 0.241426 0
M  V30 4278 C 387.03 -1.99104 -0.385406 0
M  V30 4279 C 387.363 -1.1293 -1.57988 0
M  V30 4280 O 386.638 -0.191449 -1.93555 0
M  V30 4281 C 386.921 -3.51087 -0.800616 0
M  V30 4282 C 386.774 -4.48028 0.398874 0
M  V30 4283 C 388.093 -4.08015 -1.64959 0
M  V30 4284 H 385.212 -0.723848 -0.138614 0
M  V30 4285 H 387.854 -1.86903 0.341642 0
M  V30 4286 H 386.004 -3.61615 -1.4201 0
M  V30 4287 H 387.676 -4.49487 1.03726 0
M  V30 4288 H 385.919 -4.21077 1.04293 0
M  V30 4289 H 386.59 -5.51962 0.0651056 0
M  V30 4290 H 389.066 -4.00555 -1.12672 0
M  V30 4291 H 387.942 -5.14635 -1.90898 0
M  V30 4292 H 388.203 -3.56131 -2.61961 0
M  V30 4293 N 387.262 0.0317525 -1.57568 0
M  V30 4294 C 388.502 0.727979 -1.90997 0
M  V30 4295 C 388.866 1.72664 -0.839708 0
M  V30 4296 O 390.067 2.47092 -1.05825 0
M  V30 4297 C 388.338 1.38239 -3.29583 0
M  V30 4298 S 389.897 2.10814 -3.84841 0
M  V30 4299 H 386.715 0.241226 -0.668828 0
M  V30 4300 H 389.317 -0.0173037 -1.95492 0
M  V30 4301 H 388.021 0.642288 -4.05343 0
M  V30 4302 H 387.552 2.16628 -3.28384 0
M  V30 4303 H 389.567 3.3792 -3.63352 0
M  V30 4304 N 388.74 1.54641 0.303973 0
M  V30 4305 C 389.67 1.88386 1.3796 0
M  V30 4306 C 390.651 0.742485 1.5304 0
M  V30 4307 O 391.836 0.997959 1.66597 0
M  V30 4308 C 388.966 2.12854 2.74427 0
M  V30 4309 C 387.92 3.28702 2.74115 0
M  V30 4310 C 387.246 3.38582 4.13844 0
M  V30 4311 C 388.546 4.65881 2.3612 0
M  V30 4312 H 390.24 2.78474 1.09966 0
M  V30 4313 H 387.786 1.33988 0.527556 0
M  V30 4314 H 389.739 2.35047 3.49758 0
M  V30 4315 H 388.463 1.19535 3.03939 0
M  V30 4316 H 387.122 3.06428 2.0124 0
M  V30 4317 H 386.77 2.42784 4.40528 0
M  V30 4318 H 386.47 4.16453 4.14537 0
M  V30 4319 H 387.994 3.63031 4.90959 0
M  V30 4320 H 389.408 4.87823 3.01167 0
M  V30 4321 H 387.805 5.46444 2.48031 0
M  V30 4322 H 388.875 4.66799 1.3125 0
M  V30 4323 N 390.218 -0.567019 1.47046 0
M  V30 4324 C 391.165 -1.67489 1.58796 0
M  V30 4325 C 392.135 -1.60399 0.43144 0
M  V30 4326 O 393.32 -1.79378 0.650233 0
M  V30 4327 C 390.46 -3.05821 1.59899 0
M  V30 4328 C 389.573 -3.2342 2.86397 0
M  V30 4329 C 388.708 -4.52093 2.789 0
M  V30 4330 C 387.747 -4.6309 4.00267 0
M  V30 4331 N 386.884 -5.83106 3.91064 0
M  V30 4332 H 391.724 -1.56785 2.53422 0
M  V30 4333 H 389.261 -0.763896 1.2571 0
M  V30 4334 H 391.219 -3.8591 1.58522 0
M  V30 4335 H 389.849 -3.15384 0.687929 0
M  V30 4336 H 388.901 -2.3683 2.97684 0
M  V30 4337 H 390.213 -3.27412 3.76301 0
M  V30 4338 H 389.367 -5.4043 2.75718 0
M  V30 4339 H 388.106 -4.50565 1.86662 0
M  V30 4340 H 387.111 -3.73168 4.03765 0
M  V30 4341 H 388.336 -4.66386 4.93621 0
M  V30 4342 H 386.282 -5.82546 3.01623 0
M  V30 4343 H 386.199 -5.88434 4.74638 0
M  V30 4344 H 387.467 -6.73831 3.91882 0
M  V30 4345 N 391.696 -1.35014 -0.812953 0
M  V30 4346 C 392.973 -1.18502 -1.55617 0
M  V30 4347 C 393.353 0.238421 -2.09749 0
M  V30 4348 O 392.701 1.2411 -1.91857 0
M  V30 4349 C 392.911 -2.24783 -2.66971 0
M  V30 4350 C 394.259 -2.60268 -3.35478 0
M  V30 4351 O 395.283 -2.23648 -2.77236 0
M  V30 4352 O 394.142 -3.2321 -4.40678 0
M  V30 4353 H 391.236 -0.459984 -0.687272 0
M  V30 4354 H 393.782 -1.46677 -0.853464 0
M  V30 4355 H 392.554 -3.20284 -2.24798 0
M  V30 4356 H 392.177 -1.97841 -3.44884 0
M  V30 4357 N 393.175 1.03435 -1.18907 0
M  V30 4358 C 394.138 2.09756 -0.923844 0
M  V30 4359 C 395.138 1.60528 0.093416 0
M  V30 4360 O 396.328 1.73631 -0.140727 0
M  V30 4361 C 393.46 3.38692 -0.387354 0
M  V30 4362 H 394.653 2.34719 -1.86674 0
M  V30 4363 H 392.206 1.19959 -1.00197 0
M  V30 4364 H 392.941 3.19396 0.561845 0
M  V30 4365 H 392.726 3.75742 -1.12074 0
M  V30 4366 H 394.216 4.17016 -0.220694 0
M  V30 4367 N 394.653 0.992116 1.22453 0
M  V30 4368 C 395.883 0.684949 1.94915 0
M  V30 4369 C 396.291 -0.754292 1.73514 0
M  V30 4370 O 395.634 -1.52056 1.03076 0
M  V30 4371 C 395.696 0.910054 3.47791 0
M  V30 4372 C 395.36 2.33363 3.92926 0
M  V30 4373 C 396.357 3.31308 4.00663 0
M  V30 4374 C 394.042 2.66785 4.25595 0
M  V30 4375 C 396.036 4.6075 4.40441 0
M  V30 4376 C 393.723 3.96446 4.65053 0
M  V30 4377 C 394.721 4.9324 4.72444 0
M  V30 4378 O 394.409 6.20584 5.1101 0
M  V30 4379 H 394.141 0.25258 0.62704 0
M  V30 4380 H 396.695 1.32939 1.56577 0
M  V30 4381 H 394.925 0.208443 3.86138 0
M  V30 4382 H 396.614 0.598257 4.01467 0
M  V30 4383 H 397.38 3.0682 3.75615 0
M  V30 4384 H 393.259 1.92148 4.19047 0
M  V30 4385 H 396.803 5.363 4.46126 0
M  V30 4386 H 392.7 4.20724 4.89552 0
M  V30 4387 H 393.468 6.24509 5.29085 0
M  V30 4388 N 396.131 -1.37776 0.765217 0
M  V30 4389 C 397.041 -2.34135 0.147666 0
M  V30 4390 C 398.057 -1.59854 -0.687215 0
M  V30 4391 O 399.233 -1.91983 -0.608659 0
M  V30 4392 C 396.298 -3.3901 -0.72617 0
M  V30 4393 C 395.359 -4.2912 0.124417 0
M  V30 4394 C 394.592 -5.28986 -0.707807 0
M  V30 4395 O 394.815 -5.36205 -1.94525 0
M  V30 4396 O 393.749 -6.01779 -0.12046 0
M  V30 4397 H 397.575 -2.88664 0.943758 0
M  V30 4398 H 395.16 -1.39824 0.526277 0
M  V30 4399 H 397.042 -4.03195 -1.22524 0
M  V30 4400 H 395.717 -2.86819 -1.50056 0
M  V30 4401 H 394.624 -3.68057 0.669696 0
M  V30 4402 H 395.957 -4.84598 0.861736 0
M  V30 4403 N 397.609 -0.515225 -1.4894 0
M  V30 4404 C 398.519 0.259774 -2.33157 0
M  V30 4405 C 399.535 0.953501 -1.45548 0
M  V30 4406 O 400.711 0.931735 -1.78552 0
M  V30 4407 C 397.776 1.30193 -3.21326 0
M  V30 4408 C 396.837 0.620129 -4.24797 0
M  V30 4409 C 396.07 1.61263 -5.08753 0
M  V30 4410 O 396.293 2.84389 -4.94448 0
M  V30 4411 O 395.227 1.16013 -5.90614 0
M  V30 4412 H 399.053 -0.429932 -3.00641 0
M  V30 4413 H 396.638 -0.276346 -1.46822 0
M  V30 4414 H 398.52 1.90455 -3.75905 0
M  V30 4415 H 397.195 1.97431 -2.56521 0
M  V30 4416 H 396.102 -0.0226019 -3.74093 0
M  V30 4417 H 397.435 -0.0100493 -4.92199 0
M  V30 4418 N 399.087 1.5561 -0.249682 0
M  V30 4419 C 400.019 2.18834 0.681496 0
M  V30 4420 C 401.032 1.16546 1.1367 0
M  V30 4421 O 402.221 1.43397 1.06299 0
M  V30 4422 C 399.321 2.77992 1.9384 0
M  V30 4423 C 398.494 4.05725 1.63419 0
M  V30 4424 C 397.553 4.49174 2.74096 0
M  V30 4425 O 396.579 5.15492 2.41364 0
M  V30 4426 N 397.781 4.17191 4.03649 0
M  V30 4427 H 400.546 2.9937 0.140514 0
M  V30 4428 H 398.107 1.6175 -0.0697541 0
M  V30 4429 H 400.099 3.04015 2.67127 0
M  V30 4430 H 398.669 2.01596 2.38909 0
M  V30 4431 H 397.889 3.87261 0.736358 0
M  V30 4432 H 399.177 4.88999 1.40562 0
M  V30 4433 H 398.575 3.63955 4.33074 0
M  V30 4434 H 397.132 4.48043 4.73393 0
M  V30 4435 N 400.565 -0.0233959 1.57583 0
M  V30 4436 C 401.512 -1.02224 2.06927 0
M  V30 4437 C 402.482 -1.35575 0.959617 0
M  V30 4438 O 403.667 -1.45815 1.23055 0
M  V30 4439 C 400.807 -2.31636 2.5581 0
M  V30 4440 C 399.92 -2.04394 3.80588 0
M  V30 4441 C 399.055 -3.27717 4.18061 0
M  V30 4442 C 398.094 -2.96056 5.3574 0
M  V30 4443 N 397.231 -4.11847 5.68618 0
M  V30 4444 H 402.071 -0.594504 2.9201 0
M  V30 4445 H 399.608 -0.281921 1.44373 0
M  V30 4446 H 401.566 -3.07258 2.82221 0
M  V30 4447 H 400.196 -2.72122 1.73636 0
M  V30 4448 H 399.248 -1.19244 3.61227 0
M  V30 4449 H 400.56 -1.77042 4.66323 0
M  V30 4450 H 399.714 -4.11702 4.4563 0
M  V30 4451 H 398.453 -3.58188 3.30988 0
M  V30 4452 H 397.458 -2.10474 5.07918 0
M  V30 4453 H 398.683 -2.66857 6.24471 0
M  V30 4454 H 396.629 -4.42258 4.84504 0
M  V30 4455 H 396.546 -3.87938 6.48876 0
M  V30 4456 H 397.814 -4.96689 6.00766 0
M  V30 4457 N 402.043 -1.548 -0.295768 0
M  V30 4458 C 402.99 -1.86113 -1.36494 0
M  V30 4459 C 403.96 -0.7105 -1.50137 0
M  V30 4460 O 405.145 -0.959626 -1.64912 0
M  V30 4461 C 402.285 -2.11861 -2.72413 0
M  V30 4462 C 401.398 -3.39471 -2.67177 0
M  V30 4463 C 400.533 -3.55035 -3.95125 0
M  V30 4464 C 399.572 -4.76418 -3.84308 0
M  V30 4465 N 398.709 -4.8876 -5.04042 0
M  V30 4466 H 403.549 -2.77314 -1.09091 0
M  V30 4467 H 401.086 -1.37315 -0.52753 0
M  V30 4468 H 403.044 -2.24786 -3.51464 0
M  V30 4469 H 401.674 -1.2392 -2.98066 0
M  V30 4470 H 400.726 -3.35139 -1.79962 0
M  V30 4471 H 402.038 -4.28646 -2.55076 0
M  V30 4472 H 401.192 -3.67653 -4.82614 0
M  V30 4473 H 399.931 -2.64002 -4.10066 0
M  V30 4474 H 398.936 -4.63827 -2.95202 0
M  V30 4475 H 400.161 -5.68863 -3.70906 0
M  V30 4476 H 398.107 -4.00652 -5.19436 0
M  V30 4477 H 398.024 -5.71945 -4.94384 0
M  V30 4478 H 399.292 -5.0574 -5.93167 0
M  V30 4479 N 403.521 0.559213 -1.47345 0
M  V30 4480 C 404.468 1.66645 -1.59682 0
M  V30 4481 C 405.438 1.60168 -0.43994 0
M  V30 4482 O 406.623 1.79031 -0.659736 0
M  V30 4483 C 403.763 3.04969 -1.61518 0
M  V30 4484 C 402.876 3.21897 -2.88108 0
M  V30 4485 C 402.011 4.50608 -2.81294 0
M  V30 4486 C 401.05 4.60961 -4.02717 0
M  V30 4487 N 400.187 5.81024 -3.94151 0
M  V30 4488 H 405.027 1.55439 -2.54249 0
M  V30 4489 H 402.564 0.757219 -1.26113 0
M  V30 4490 H 404.522 3.85064 -1.60566 0
M  V30 4491 H 403.152 3.15015 -0.704645 0
M  V30 4492 H 402.204 2.35248 -2.98936 0
M  V30 4493 H 403.516 3.25412 -3.78032 0
M  V30 4494 H 402.67 5.3896 -2.7858 0
M  V30 4495 H 401.409 4.49568 -1.89049 0
M  V30 4496 H 400.414 3.71021 -4.05738 0
M  V30 4497 H 401.639 4.63761 -4.96087 0
M  V30 4498 H 399.585 5.80938 -3.04708 0
M  V30 4499 H 399.502 5.85909 -4.77752 0
M  V30 4500 H 400.77 6.71744 -3.9545 0
M  V30 4501 N 404.999 1.35443 0.805782 0
M  V30 4502 C 406.245 1.28952 1.56522 0
M  V30 4503 C 406.578 -0.135597 1.93726 0
M  V30 4504 O 405.853 -1.08516 1.61414 0
M  V30 4505 C 406.136 2.19678 2.85331 0
M  V30 4506 C 405.989 3.7081 2.54598 0
M  V30 4507 C 407.308 2.09495 3.8704 0
M  V30 4508 H 404.427 0.469764 0.567883 0
M  V30 4509 H 407.069 1.65851 0.927001 0
M  V30 4510 H 405.219 1.8834 3.39795 0
M  V30 4511 H 406.891 4.12593 2.06312 0
M  V30 4512 H 405.134 3.91051 1.8778 0
M  V30 4513 H 405.805 4.29679 3.46525 0
M  V30 4514 H 408.281 2.37045 3.41978 0
M  V30 4515 H 407.157 2.75173 4.74943 0
M  V30 4516 H 407.418 1.07714 4.28777 0
M  V30 4517 N 406.477 -1.02803 1.19454 0
M  V30 4518 C 407.44 -2.09264 0.934955 0
M  V30 4519 C 408.44 -1.60576 -0.0849015 0
M  V30 4520 O 409.63 -1.73554 0.149933 0
M  V30 4521 C 406.762 -3.38482 0.40531 0
M  V30 4522 H 407.955 -2.33726 1.87916 0
M  V30 4523 H 405.508 -1.19426 1.00832 0
M  V30 4524 H 406.243 -3.19689 -0.544899 0
M  V30 4525 H 406.028 -3.75142 1.14065 0
M  V30 4526 H 407.518 -4.16894 0.242806 0
M  V30 4527 N 407.956 -0.998596 -1.21925 0
M  V30 4528 C 409.233 -0.593401 -1.86382 0
M  V30 4529 C 409.613 0.92916 -1.89552 0
M  V30 4530 O 408.961 1.81347 -1.39017 0
M  V30 4531 C 409.171 -1.22039 -3.26967 0
M  V30 4532 C 410.519 -1.32449 -4.03413 0
M  V30 4533 O 411.543 -1.17522 -3.36254 0
M  V30 4534 O 410.402 -1.56395 -5.23644 0
M  V30 4535 H 407.496 -0.202385 -0.801854 0
M  V30 4536 H 410.042 -1.09484 -1.29659 0
M  V30 4537 H 408.814 -2.26158 -3.19325 0
M  V30 4538 H 408.437 -0.704906 -3.91301 0
M  V30 4539 N 409.434 1.37368 -0.772513 0
M  V30 4540 C 410.384 2.27613 -0.132823 0
M  V30 4541 C 411.368 1.46138 0.673247 0
M  V30 4542 O 412.56 1.68686 0.536095 0
M  V30 4543 C 409.689 3.35122 0.744864 0
M  V30 4544 C 408.775 4.24044 -0.0690771 0
M  V30 4545 N 409.166 4.93355 -1.1151 0
M  V30 4546 C 407.464 4.45731 0.154782 0
M  V30 4547 C 408.165 5.59 -1.60917 0
M  V30 4548 N 407.141 5.35737 -0.921222 0
M  V30 4549 H 410.943 2.78675 -0.933681 0
M  V30 4550 H 408.457 1.50494 -0.610342 0
M  V30 4551 H 410.454 3.98683 1.21892 0
M  V30 4552 H 409.114 2.85616 1.54446 0
M  V30 4553 H 410.125 4.95785 -1.49726 0
M  V30 4554 H 406.802 4.07096 0.926224 0
M  V30 4555 H 408.192 6.24395 -2.48153 0
M  V30 4556 N 410.912 0.523116 1.48665 0
M  V30 4557 C 412.323 0.0808997 1.86525 0
M  V30 4558 C 412.674 -1.33975 1.43336 0
M  V30 4559 O 411.799 -2.00221 0.821009 0
M  V30 4560 C 412.394 0.140037 3.3851 0
M  V30 4561 C 410.953 -0.246948 3.75589 0
M  V30 4562 C 410.1 0.502845 2.72703 0
M  V30 4563 H 413.051 0.734736 1.40667 0
M  V30 4564 H 413.072 -0.649945 3.74908 0
M  V30 4565 H 412.584 1.17412 3.69914 0
M  V30 4566 H 410.685 -1.28343 3.49798 0
M  V30 4567 H 410.798 0.0878859 4.79019 0
M  V30 4568 H 409.162 -0.0500581 2.54651 0
M  V30 4569 H 409.945 1.53743 3.0695 0
M  V30 4570 N 412.39 -1.55475 0.257931 0
M  V30 4571 C 413.338 -2.23244 -0.653076 0
M  V30 4572 C 414.332 -1.22366 -1.17144 0
M  V30 4573 O 415.538 -1.40347 -1.12706 0
M  V30 4574 H 411.913 -0.716247 -0.229117 0
M  V30 4575 H 413.884 -2.98343 -0.0584788 0
M  V30 4576 C 412.633 -2.95401 -1.83395 0
M  V30 4577 H 411.956 -3.72802 -1.44424 0
M  V30 4578 H 413.396 -3.46165 -2.44838 0
M  V30 4579 C 411.855 -1.99895 -2.71189 0
M  V30 4580 O 412.385 -1.53909 -3.71046 0
M  V30 4581 N 410.591 -1.6676 -2.3799 0
M  V30 4582 H 410.138 -2.04352 -1.56837 0
M  V30 4583 H 410.096 -1.03127 -2.97005 0
M  V30 4584 N 413.868 0.0150385 -1.57593 0
M  V30 4585 C 415.284 0.370907 -1.5523 0
M  V30 4586 C 415.484 1.75735 -0.985882 0
M  V30 4587 O 414.54 2.44944 -0.613077 0
M  V30 4588 C 415.853 0.259908 -2.99575 0
M  V30 4589 C 417.401 0.335959 -3.11192 0
M  V30 4590 C 417.876 0.254253 -4.57294 0
M  V30 4591 N 419.367 0.312618 -4.62144 0
M  V30 4592 C 420.102 0.272505 -5.72752 0
M  V30 4593 N 419.598 0.183864 -6.92556 0
M  V30 4594 N 421.391 0.323267 -5.6117 0
M  V30 4595 H 413.542 -0.892104 -1.92757 0
M  V30 4596 H 415.805 -0.340563 -0.884715 0
M  V30 4597 H 415.511 -0.693403 -3.44797 0
M  V30 4598 H 415.385 1.048 -3.62349 0
M  V30 4599 H 417.772 1.27971 -2.65909 0
M  V30 4600 H 417.853 -0.481739 -2.51223 0
M  V30 4601 H 417.497 -0.685887 -5.03247 0
M  V30 4602 H 417.427 1.09024 -5.15191 0
M  V30 4603 H 419.918 0.38307 -3.75953 0
M  V30 4604 H 420.231 0.15874 -7.72637 0
M  V30 4605 H 418.576 0.149708 -6.94839 0
M  V30 4606 H 421.767 0.390607 -4.66467 0
M  V30 4607 H 421.94 0.288539 -6.47357 0
M  V30 4608 N 415.346 1.54954 0.287554 0
M  V30 4609 C 416.574 1.78881 1.03967 0
M  V30 4610 C 416.989 0.554894 1.80462 0
M  V30 4611 O 416.346 -0.475676 1.76192 0
M  V30 4612 C 416.397 3.00488 2.0097 0
M  V30 4613 O 416.118 4.19113 1.27577 0
M  V30 4614 C 417.619 3.36907 2.88112 0
M  V30 4615 H 414.839 0.596259 0.307761 0
M  V30 4616 H 417.383 2.01937 0.322749 0
M  V30 4617 H 415.538 2.79601 2.68145 0
M  V30 4618 H 415.952 4.87765 1.92835 0
M  V30 4619 H 417.426 4.25205 3.52001 0
M  V30 4620 H 417.903 2.55659 3.57121 0
M  V30 4621 H 418.509 3.60001 2.26449 0
M  V30 4622 N 416.824 -0.551391 1.4764 0
M  V30 4623 C 418.235 -1.13349 1.48354 0
M  V30 4624 C 418.586 -1.94709 0.241432 0
M  V30 4625 O 417.711 -2.06306 -0.653205 0
M  V30 4626 C 418.306 -2.0623 2.68802 0
M  V30 4627 C 416.865 -2.597 2.72457 0
M  V30 4628 C 416.012 -1.36201 2.41546 0
M  V30 4629 H 418.963 -0.337698 1.55065 0
M  V30 4630 H 418.984 -2.90196 2.46103 0
M  V30 4631 H 418.496 -1.46987 3.59188 0
M  V30 4632 H 416.597 -3.22724 1.86225 0
M  V30 4633 H 416.71 -3.00296 3.73308 0
M  V30 4634 H 415.074 -1.67068 1.9225 0
M  V30 4635 H 415.857 -0.787425 3.34147 0
M  V30 4636 N 418.302 -1.35869 -0.798587 0
M  V30 4637 C 419.527 -1.32883 -1.59238 0
M  V30 4638 C 419.952 0.0894587 -1.87887 0
M  V30 4639 O 419.31 1.05869 -1.47178 0
M  V30 4640 C 419.358 -2.14892 -2.89575 0
M  V30 4641 O 418.462 -1.53512 -3.82763 0
M  V30 4642 H 417.803 -0.455236 -0.48338 0
M  V30 4643 H 420.333 -1.79024 -0.990539 0
M  V30 4644 H 420.343 -2.27139 -3.38928 0
M  V30 4645 H 419.018 -3.17998 -2.68049 0
M  V30 4646 H 417.595 -1.50153 -3.41334 0
M  V30 4647 N 419.78 1.02168 -1.19998 0
M  V30 4648 C 421.029 1.75091 -1.0013 0
M  V30 4649 C 421.342 1.89923 0.467835 0
M  V30 4650 O 422.548 2.59888 0.785515 0
M  V30 4651 C 421.004 3.14892 -1.74273 0
M  V30 4652 C 420.612 3.0809 -3.25245 0
M  V30 4653 C 422.356 3.9206 -1.62755 0
M  V30 4654 C 420.263 4.42867 -3.91948 0
M  V30 4655 H 419.193 0.656394 -0.37103 0
M  V30 4656 H 421.844 1.14284 -1.43567 0
M  V30 4657 H 420.226 3.7621 -1.2362 0
M  V30 4658 H 421.4 2.5611 -3.83072 0
M  V30 4659 H 419.715 2.44416 -3.3712 0
M  V30 4660 H 422.312 4.91764 -2.09934 0
M  V30 4661 H 422.655 4.12199 -0.582894 0
M  V30 4662 H 423.188 3.37359 -2.10793 0
M  V30 4663 H 419.927 4.27931 -4.96543 0
M  V30 4664 H 419.447 4.94874 -3.3891 0
M  V30 4665 H 421.126 5.11728 -3.95909 0
M  V30 4666 N 421.258 1.00505 1.21394 0
M  V30 4667 C 422.504 0.698477 1.91031 0
M  V30 4668 C 422.859 -0.762448 1.76648 0
M  V30 4669 O 422.152 -1.54554 1.13241 0
M  V30 4670 C 422.346 1.0546 3.41486 0
M  V30 4671 C 422.175 2.5486 3.70508 0
M  V30 4672 C 420.945 3.21461 3.8986 0
M  V30 4673 C 423.143 3.53019 3.74008 0
M  V30 4674 N 421.125 4.60211 4.06299 0
M  V30 4675 C 422.496 4.77279 3.95733 0
M  V30 4676 C 424.551 3.47154 3.56915 0
M  V30 4677 C 423.254 5.96388 4.02137 0
M  V30 4678 C 425.28 4.65652 3.64585 0
M  V30 4679 C 424.642 5.88717 3.86771 0
M  V30 4680 H 420.741 0.30707 0.719189 0
M  V30 4681 H 423.325 1.28753 1.46051 0
M  V30 4682 H 421.496 0.494007 3.85246 0
M  V30 4683 H 423.228 0.702765 3.98552 0
M  V30 4684 H 419.983 2.71906 3.87768 0
M  V30 4685 H 420.407 5.32216 4.1842 0
M  V30 4686 H 425.049 2.53015 3.38738 0
M  V30 4687 H 422.767 6.90919 4.19114 0
M  V30 4688 H 426.353 4.62717 3.52681 0
M  V30 4689 H 425.233 6.78877 3.92549 0
M  V30 4690 N 422.737 -1.36956 0.779787 0
M  V30 4691 C 423.667 -2.32761 0.185651 0
M  V30 4692 C 424.648 -1.56177 -0.673989 0
M  V30 4693 O 425.833 -1.84378 -0.609797 0
M  V30 4694 C 422.963 -3.40418 -0.687964 0
M  V30 4695 C 421.917 -4.27941 0.0710102 0
M  V30 4696 C 421.243 -5.26681 -0.922573 0
M  V30 4697 C 422.543 -5.07006 1.25467 0
M  V30 4698 H 424.237 -2.82698 0.986008 0
M  V30 4699 H 421.783 -1.3592 0.475592 0
M  V30 4700 H 423.736 -4.06423 -1.11348 0
M  V30 4701 H 422.46 -2.89025 -1.52093 0
M  V30 4702 H 421.119 -3.63478 0.47739 0
M  V30 4703 H 420.767 -4.71565 -1.7503 0
M  V30 4704 H 420.467 -5.86103 -0.419237 0
M  V30 4705 H 421.991 -5.9556 -1.34686 0
M  V30 4706 H 423.405 -5.66105 0.905401 0
M  V30 4707 H 421.802 -5.75793 1.69063 0
M  V30 4708 H 422.872 -4.3921 2.05481 0
M  V30 4709 N 424.215 -0.530993 -1.48385 0
M  V30 4710 C 425.178 0.220497 -2.28137 0
M  V30 4711 C 426.178 0.866851 -1.35434 0
M  V30 4712 O 427.368 0.726746 -1.58316 0
M  V30 4713 C 424.5 1.31921 -3.1434 0
M  V30 4714 H 425.693 -0.479714 -2.96038 0
M  V30 4715 H 423.246 -0.286968 -1.53643 0
M  V30 4716 H 423.981 2.05264 -2.51072 0
M  V30 4717 H 423.766 0.86085 -3.82533 0
M  V30 4718 H 425.256 1.84776 -3.74497 0
M  V30 4719 N 425.693 1.55336 -0.266172 0
M  V30 4720 C 426.626 2.18256 0.666296 0
M  V30 4721 C 427.604 1.14064 1.1588 0
M  V30 4722 O 428.788 1.42546 1.23341 0
M  V30 4723 C 425.915 2.79867 1.90768 0
M  V30 4724 C 424.961 3.97283 1.55141 0
M  V30 4725 S 425.794 5.31694 0.637313 0
M  V30 4726 C 426.95 5.96769 1.88727 0
M  V30 4727 H 427.183 2.97008 0.131647 0
M  V30 4728 H 424.716 1.54317 -0.0504869 0
M  V30 4729 H 426.674 3.15996 2.62025 0
M  V30 4730 H 425.335 2.01025 2.41346 0
M  V30 4731 H 424.528 4.3905 2.4749 0
M  V30 4732 H 424.13 3.6253 0.919113 0
M  V30 4733 H 426.422 6.15458 2.83227 0
M  V30 4734 H 427.365 6.91752 1.51276 0
M  V30 4735 H 427.773 5.26034 2.04814 0
M  V30 4736 N 427.171 -0.0066808 1.57599 0
M  V30 4737 C 428.401 -0.703066 1.94269 0
M  V30 4738 C 428.809 -1.68206 0.866222 0
M  V30 4739 O 428.152 -1.82966 -0.164087 0
M  V30 4740 C 428.214 -1.49616 3.26887 0
M  V30 4741 C 427.878 -0.679494 4.5192 0
M  V30 4742 C 428.875 0.0299508 5.19891 0
M  V30 4743 C 426.56 -0.627433 4.98366 0
M  V30 4744 C 428.554 0.780514 6.32603 0
M  V30 4745 C 426.241 0.126861 6.10968 0
M  V30 4746 C 427.239 0.829574 6.77943 0
M  V30 4747 O 426.927 1.57157 7.88389 0
M  V30 4748 H 426.659 -0.201217 0.645359 0
M  V30 4749 H 429.213 0.0385326 2.05364 0
M  V30 4750 H 427.443 -2.28209 3.12182 0
M  V30 4751 H 429.132 -2.07726 3.48719 0
M  V30 4752 H 429.898 -0.00115963 4.85 0
M  V30 4753 H 425.777 -1.16392 4.46065 0
M  V30 4754 H 429.321 1.32954 6.84813 0
M  V30 4755 H 425.218 0.159815 6.45302 0
M  V30 4756 H 425.986 1.48758 8.04868 0
M  V30 4757 N 428.649 -1.55105 -0.279332 0
M  V30 4758 C 430.065 -1.46803 -0.626187 0
M  V30 4759 C 430.265 -0.676939 -1.89789 0
M  V30 4760 O 429.321 -0.19326 -2.51759 0
M  V30 4761 C 430.634 -2.90962 -0.759034 0
M  V30 4762 C 432.182 -3.01138 -0.853504 0
M  V30 4763 C 432.657 -4.46539 -1.01818 0
M  V30 4764 N 434.148 -4.50341 -1.08386 0
M  V30 4765 C 434.883 -5.60053 -1.22996 0
M  V30 4766 N 434.379 -6.79645 -1.34366 0
M  V30 4767 N 436.172 -5.47783 -1.26056 0
M  V30 4768 H 428.323 -2.04996 0.555921 0
M  V30 4769 H 430.586 -0.929325 0.187239 0
M  V30 4770 H 430.292 -3.51544 0.104852 0
M  V30 4771 H 430.166 -3.39619 -1.64131 0
M  V30 4772 H 432.553 -2.40658 -1.70786 0
M  V30 4773 H 432.634 -2.55745 0.0532466 0
M  V30 4774 H 432.278 -5.0762 -0.168504 0
M  V30 4775 H 432.208 -4.89583 -1.93948 0
M  V30 4776 H 434.699 -3.64191 -1.00864 0
M  V30 4777 H 435.012 -7.59012 -1.4533 0
M  V30 4778 H 433.357 -6.82469 -1.31382 0
M  V30 4779 H 436.548 -4.53294 -1.168 0
M  V30 4780 H 436.721 -6.33331 -1.37098 0
M  V30 4781 N 430.127 0.543554 -1.4793 0
M  V30 4782 C 431.09 1.63156 -1.60975 0
M  V30 4783 C 432.09 1.53346 -0.483899 0
M  V30 4784 O 433.28 1.5726 -0.749339 0
M  V30 4785 C 430.412 3.02743 -1.56716 0
M  V30 4786 H 431.605 1.52934 -2.57975 0
M  V30 4787 H 429.158 0.764557 -1.36324 0
M  V30 4788 H 429.893 3.18484 -0.611418 0
M  V30 4789 H 429.678 3.11272 -2.38438 0
M  V30 4790 H 431.168 3.81871 -1.6901 0
M  V30 4791 N 431.605 1.3629 0.791371 0
M  V30 4792 C 432.852 1.30412 1.54916 0
M  V30 4793 C 433.18 -0.117162 1.94147 0
M  V30 4794 O 432.435 -1.08599 1.62803 0
M  V30 4795 C 432.734 2.17068 2.8393 0
M  V30 4796 C 432.4 3.65645 2.63846 0
M  V30 4797 C 431.062 4.0614 2.58077 0
M  V30 4798 C 433.414 4.59855 2.45322 0
M  V30 4799 C 430.742 5.3899 2.31748 0
M  V30 4800 C 433.094 5.9292 2.2052 0
M  V30 4801 C 431.758 6.32542 2.13183 0
M  V30 4802 H 431.028 0.47721 0.566879 0
M  V30 4803 H 433.675 1.68325 0.913172 0
M  V30 4804 H 431.98 1.72085 3.51986 0
M  V30 4805 H 433.677 2.09846 3.4171 0
M  V30 4806 H 430.267 3.33518 2.69191 0
M  V30 4807 H 434.451 4.29443 2.48782 0
M  V30 4808 H 429.707 5.68672 2.24548 0
M  V30 4809 H 433.881 6.65487 2.05182 0
M  V30 4810 H 431.508 7.35412 1.92544 0
M  V30 4811 N 433.083 -1.0153 1.20538 0
M  V30 4812 C 434.331 -1.74803 1.01432 0
M  V30 4813 C 434.652 -1.8963 -0.454456 0
M  V30 4814 O 433.922 -1.43975 -1.32846 0
M  V30 4815 H 432.502 -0.647598 0.372324 0
M  V30 4816 H 435.164 -1.22402 1.5167 0
M  V30 4817 H 434.26 -2.75114 1.47373 0
M  V30 4818 N 434.561 -1.01147 -1.20859 0
M  V30 4819 C 435.977 -0.725422 -1.42161 0
M  V30 4820 C 436.177 0.696919 -1.89064 0
M  V30 4821 O 435.233 1.46539 -2.05627 0
M  V30 4822 C 436.546 -1.74678 -2.44761 0
M  V30 4823 C 438.094 -1.76433 -2.58535 0
M  V30 4824 C 438.569 -2.77481 -3.64374 0
M  V30 4825 N 440.06 -2.76189 -3.71852 0
M  V30 4826 C 440.795 -3.51035 -4.53389 0
M  V30 4827 N 440.291 -4.35541 -5.38773 0
M  V30 4828 N 442.084 -3.39655 -4.47873 0
M  V30 4829 H 434.235 -1.92979 -0.887282 0
M  V30 4830 H 436.498 -0.833327 -0.451962 0
M  V30 4831 H 436.204 -2.76551 -2.17285 0
M  V30 4832 H 436.078 -1.55472 -3.43669 0
M  V30 4833 H 438.465 -0.75248 -2.85345 0
M  V30 4834 H 438.546 -1.99712 -1.5984 0
M  V30 4835 H 438.19 -3.78827 -3.38308 0
M  V30 4836 H 438.12 -2.51466 -4.6268 0
M  V30 4837 H 440.611 -2.14885 -3.10858 0
M  V30 4838 H 440.924 -4.89432 -5.98061 0
M  V30 4839 H 439.269 -4.39621 -5.38292 0
M  V30 4840 H 442.46 -2.73063 -3.80203 0
M  V30 4841 H 442.633 -3.9824 -5.11184 0
M  V30 4842 N 436.039 1.36541 -0.78704 0
M  V30 4843 C 437.45 1.81873 -0.421807 0
M  V30 4844 C 437.801 1.65487 1.05397 0
M  V30 4845 O 436.926 1.17448 1.81755 0
M  V30 4846 C 437.521 3.30192 -0.758841 0
M  V30 4847 C 436.08 3.73743 -0.446468 0
M  V30 4848 C 435.227 2.58844 -0.994728 0
M  V30 4849 H 438.178 1.24796 -0.98039 0
M  V30 4850 H 438.199 3.80468 -0.0490648 0
M  V30 4851 H 437.711 3.42087 -1.83299 0
M  V30 4852 H 435.812 3.6741 0.619739 0
M  V30 4853 H 435.925 4.69272 -0.965415 0
M  V30 4854 H 434.289 2.51245 -0.418087 0
M  V30 4855 H 435.072 2.73525 -2.07458 0
M  V30 4856 N 437.518 0.538854 1.48102 0
M  V30 4857 C 438.767 0.0059532 2.01699 0
M  V30 4858 C 439.08 -1.34476 1.42041 0
M  V30 4859 O 440.286 -1.96653 1.87189 0
M  V30 4860 C 438.742 -0.0397627 3.59878 0
M  V30 4861 C 438.35 1.30659 4.28523 0
M  V30 4862 C 440.094 -0.521024 4.2129 0
M  V30 4863 C 438.001 1.22098 5.78659 0
M  V30 4864 H 436.931 -0.00154456 0.753998 0
M  V30 4865 H 439.582 0.683963 1.70277 0
M  V30 4866 H 437.964 -0.783037 3.88181 0
M  V30 4867 H 439.138 2.06613 4.11883 0
M  V30 4868 H 437.453 1.7243 3.79021 0
M  V30 4869 H 440.05 -0.603184 5.31287 0
M  V30 4870 H 440.393 -1.52885 3.8721 0
M  V30 4871 H 440.926 0.166834 3.9745 0
M  V30 4872 H 437.665 2.20424 6.17328 0
M  V30 4873 H 437.185 0.50295 5.97688 0
M  V30 4874 H 438.864 0.915345 6.40492 0
M  V30 4875 N 438.996 -1.55193 0.274407 0
M  V30 4876 C 439.926 -2.25471 -0.607032 0
M  V30 4877 C 440.907 -1.24461 -1.15946 0
M  V30 4878 O 442.092 -1.53179 -1.19373 0
M  V30 4879 C 439.222 -2.97526 -1.79153 0
M  V30 4880 C 438.176 -4.05459 -1.37067 0
M  V30 4881 C 437.502 -4.65084 -2.6382 0
M  V30 4882 C 438.802 -5.19691 -0.521389 0
M  V30 4883 H 440.496 -2.99393 -0.0209343 0
M  V30 4884 H 438.042 -1.43997 -0.00862866 0
M  V30 4885 H 439.995 -3.45402 -2.41404 0
M  V30 4886 H 438.719 -2.21138 -2.40344 0
M  V30 4887 H 437.378 -3.58393 -0.771355 0
M  V30 4888 H 437.026 -3.85365 -3.23268 0
M  V30 4889 H 436.726 -5.37961 -2.36372 0
M  V30 4890 H 438.25 -5.15708 -3.26921 0
M  V30 4891 H 439.664 -5.63623 -1.04889 0
M  V30 4892 H 438.061 -5.99126 -0.341825 0
M  V30 4893 H 439.131 -4.82713 0.46 0
M  V30 4894 N 440.474 -0.00167713 -1.576 0
M  V30 4895 C 441.404 0.988091 -2.11563 0
M  V30 4896 C 442.385 1.35736 -1.02517 0
M  V30 4897 O 443.57 1.44082 -1.30208 0
M  V30 4898 C 440.7 2.27941 -2.62031 0
M  V30 4899 C 439.654 2.0517 -3.75619 0
M  V30 4900 C 438.98 3.4033 -4.12407 0
M  V30 4901 C 440.28 1.41294 -5.02825 0
M  V30 4902 H 441.974 0.538771 -2.94513 0
M  V30 4903 H 439.52 0.257712 -1.41675 0
M  V30 4904 H 441.473 2.97539 -2.9841 0
M  V30 4905 H 440.197 2.74989 -1.76205 0
M  V30 4906 H 438.856 1.37998 -3.39635 0
M  V30 4907 H 438.504 3.85085 -3.23603 0
M  V30 4908 H 438.204 3.25909 -4.88935 0
M  V30 4909 H 439.728 4.1124 -4.51347 0
M  V30 4910 H 441.142 2.00851 -5.36965 0
M  V30 4911 H 439.539 1.37356 -5.84169 0
M  V30 4912 H 440.609 0.382362 -4.8339 0
M  V30 4913 N 441.952 1.55251 0.271103 0
M  V30 4914 C 443.177 1.80306 1.02491 0
M  V30 4915 C 443.602 0.575457 1.79081 0
M  V30 4916 O 442.96 -0.474987 1.74967 0
M  V30 4917 C 443.008 3.02832 1.95768 0
M  V30 4918 O 442.112 2.78051 3.04568 0
M  V30 4919 H 441.453 0.595896 0.292923 0
M  V30 4920 H 443.983 2.02397 0.299436 0
M  V30 4921 H 443.993 3.31616 2.37686 0
M  V30 4922 H 442.668 3.9183 1.39434 0
M  V30 4923 H 441.245 2.60369 2.66951 0
M  V30 4924 N 443.43 -0.535701 1.48216 0
M  V30 4925 C 444.655 -1.32149 1.59848 0
M  V30 4926 C 445.08 -1.86338 0.256842 0
M  V30 4927 O 444.438 -1.64107 -0.770632 0
M  V30 4928 C 444.486 -2.45224 2.64381 0
M  V30 4929 O 443.59 -3.48093 2.21144 0
M  V30 4930 H 442.931 -0.391634 0.536208 0
M  V30 4931 H 445.461 -0.645202 1.94161 0
M  V30 4932 H 445.471 -2.91491 2.85476 0
M  V30 4933 H 444.146 -2.05143 3.61786 0
M  V30 4934 H 442.723 -3.07984 2.10239 0
M  V30 4935 N 444.908 -1.36708 -0.784132 0
M  V30 4936 C 446.136 -1.34398 -1.57305 0
M  V30 4937 C 446.551 0.0735577 -1.88657 0
M  V30 4938 O 445.908 1.03193 -1.50524 0
M  V30 4939 C 445.959 -2.17053 -2.89085 0
M  V30 4940 O 445.68 -3.53281 -2.59083 0
M  V30 4941 C 447.181 -2.22583 -3.83369 0
M  V30 4942 H 444.401 -0.460819 -0.487736 0
M  V30 4943 H 446.945 -1.79879 -0.972819 0
M  V30 4944 H 445.1 -1.75113 -3.45564 0
M  V30 4945 H 445.514 -3.9647 -3.43383 0
M  V30 4946 H 446.988 -2.84763 -4.72878 0
M  V30 4947 H 447.465 -1.23075 -4.21603 0
M  V30 4948 H 448.071 -2.64781 -3.32823 0
M  V30 4949 N 446.386 1.0089 -1.21074 0
M  V30 4950 C 447.633 1.74607 -1.0256 0
M  V30 4951 C 447.961 1.89426 0.44136 0
M  V30 4952 O 447.216 1.42266 1.34384 0
M  V30 4953 C 447.515 3.16335 -1.66334 0
M  V30 4954 C 447.181 3.21474 -3.16173 0
M  V30 4955 C 445.843 3.22583 -3.57062 0
M  V30 4956 C 448.195 3.19025 -4.12156 0
M  V30 4957 C 445.523 3.18925 -4.92446 0
M  V30 4958 C 447.875 3.16909 -5.47496 0
M  V30 4959 C 446.539 3.16326 -5.87787 0
M  V30 4960 H 445.809 0.638933 -0.375294 0
M  V30 4961 H 448.456 1.18274 -1.50611 0
M  V30 4962 H 446.761 3.75876 -1.10566 0
M  V30 4963 H 448.458 3.72083 -1.49516 0
M  V30 4964 H 445.048 3.2135 -2.83605 0
M  V30 4965 H 449.232 3.17332 -3.81595 0
M  V30 4966 H 444.488 3.16809 -5.22917 0
M  V30 4967 H 448.662 3.13968 -6.21609 0
M  V30 4968 H 446.289 3.13246 -6.92662 0
M  V30 4969 N 447.864 1.01787 1.20321 0
M  V30 4970 C 449.28 0.732951 1.41774 0
M  V30 4971 C 449.48 -0.686883 1.89431 0
M  V30 4972 O 448.536 -1.45446 2.06402 0
M  V30 4973 C 449.849 1.75973 2.43832 0
M  V30 4974 C 451.397 1.77802 2.57596 0
M  V30 4975 C 451.872 2.7941 3.62897 0
M  V30 4976 N 453.363 2.78157 3.70382 0
M  V30 4977 C 454.098 3.53434 4.51521 0
M  V30 4978 N 453.594 4.38392 5.36455 0
M  V30 4979 N 455.387 3.42026 4.46066 0
M  V30 4980 H 447.538 1.93447 0.877035 0
M  V30 4981 H 449.801 0.835712 0.447536 0
M  V30 4982 H 449.507 2.77699 2.15815 0
M  V30 4983 H 449.381 1.57292 3.4284 0
M  V30 4984 H 451.768 0.767602 2.84942 0
M  V30 4985 H 451.849 2.00557 1.58779 0
M  V30 4986 H 451.493 3.80616 3.36295 0
M  V30 4987 H 451.423 2.53916 4.61339 0
M  V30 4988 H 453.914 2.16531 3.09714 0
M  V30 4989 H 454.227 4.92596 5.95457 0
M  V30 4990 H 452.572 4.4247 5.35953 0
M  V30 4991 H 455.763 2.75075 3.78749 0
M  V30 4992 H 455.936 4.00946 5.09064 0
M  V30 4993 N 449.342 -1.36122 0.79427 0
M  V30 4994 C 450.572 -2.03067 0.380437 0
M  V30 4995 C 450.98 -1.60018 -1.00949 0
M  V30 4996 O 450.323 -0.787425 -1.65968 0
M  V30 4997 C 450.385 -3.57587 0.37034 0
M  V30 4998 C 450.049 -4.23855 1.70867 0
M  V30 4999 C 451.046 -4.46404 2.66496 0
M  V30 5000 C 448.731 -4.61229 1.9893 0
M  V30 5001 C 450.725 -5.05412 3.88378 0
M  V30 5002 C 448.412 -5.19953 3.21079 0
M  V30 5003 C 449.41 -5.41985 4.15621 0
M  V30 5004 O 449.098 -5.99475 5.35616 0
M  V30 5005 H 448.83 -0.658168 0.154243 0
M  V30 5006 H 451.384 -1.7498 1.0757 0
M  V30 5007 H 449.614 -3.84814 -0.381444 0
M  V30 5008 H 451.303 -4.05895 -0.0194894 0
M  V30 5009 H 452.069 -4.17921 2.46103 0
M  V30 5010 H 447.948 -4.43402 1.26158 0
M  V30 5011 H 451.492 -5.22524 4.62185 0
M  V30 5012 H 447.389 -5.47862 3.41347 0
M  V30 5013 H 448.157 -6.17937 5.36745 0
M  V30 5014 N 450.82 -0.546701 -1.47814 0
M  V30 5015 C 451.75 0.195317 -2.32682 0
M  V30 5016 C 452.731 0.918981 -1.43139 0
M  V30 5017 O 453.916 0.901501 -1.72008 0
M  V30 5018 C 451.046 1.23237 -3.247 0
M  V30 5019 C 450 0.625818 -4.234 0
M  V30 5020 C 449.326 1.76674 -5.04669 0
M  V30 5021 C 450.626 -0.413515 -5.2066 0
M  V30 5022 H 452.32 -0.513184 -2.94969 0
M  V30 5023 H 449.866 -0.248241 -1.41844 0
M  V30 5024 H 451.819 1.75955 -3.82907 0
M  V30 5025 H 450.543 1.97067 -2.60446 0
M  V30 5026 H 449.202 0.120023 -3.66403 0
M  V30 5027 H 448.85 2.49383 -4.36826 0
M  V30 5028 H 448.55 1.36673 -5.71484 0
M  V30 5029 H 450.074 2.29738 -5.65732 0
M  V30 5030 H 451.488 0.0272042 -5.73294 0
M  V30 5031 H 449.885 -0.731825 -5.95621 0
M  V30 5032 H 450.955 -1.31325 -4.66778 0
M  V30 5033 N 452.299 1.55045 -0.282633 0
M  V30 5034 C 453.262 2.21515 0.588539 0
M  V30 5035 C 454.262 1.19535 1.07554 0
M  V30 5036 O 455.452 1.44391 0.974514 0
M  V30 5037 C 452.584 2.88704 1.8128 0
M  V30 5038 H 453.777 2.99899 0.00806397 0
M  V30 5039 H 451.33 1.56265 -0.0333067 0
M  V30 5040 H 452.065 2.14352 2.43359 0
M  V30 5041 H 451.85 3.63443 1.47144 0
M  V30 5042 H 453.34 3.39465 2.43214 0
M  V30 5043 N 453.777 0.010035 1.57597 0
M  V30 5044 C 455.054 -0.710296 1.82248 0
M  V30 5045 C 455.434 -1.91426 0.889911 0
M  V30 5046 O 454.782 -2.28424 -0.0590292 0
M  V30 5047 C 454.992 -1.10655 3.30993 0
M  V30 5048 C 456.34 -1.50621 3.96987 0
M  V30 5049 O 457.364 -1.20007 3.35375 0
M  V30 5050 O 456.223 -2.07587 5.05539 0
M  V30 5051 H 453.317 -0.34673 0.750804 0
M  V30 5052 H 455.863 0.0362578 1.69661 0
M  V30 5053 H 454.635 -0.248826 3.90508 0
M  V30 5054 H 454.258 -1.91189 3.48615 0
M  V30 5055 N 455.255 -1.55392 -0.262866 0
M  V30 5056 C 456.185 -1.91978 -1.32917 0
M  V30 5057 C 457.166 -0.7828 -1.51017 0
M  V30 5058 O 458.351 -1.04178 -1.63892 0
M  V30 5059 C 455.481 -2.20055 -2.68687 0
M  V30 5060 C 454.435 -3.35854 -2.65304 0
M  V30 5061 C 453.761 -3.49435 -4.04721 0
M  V30 5062 C 455.061 -4.71977 -2.23685 0
M  V30 5063 H 456.755 -2.81292 -1.02544 0
M  V30 5064 H 454.301 -1.3534 -0.491846 0
M  V30 5065 H 456.254 -2.44237 -3.43404 0
M  V30 5066 H 454.978 -1.27551 -3.00663 0
M  V30 5067 H 453.637 -3.11655 -1.93045 0
M  V30 5068 H 453.285 -2.54379 -4.33936 0
M  V30 5069 H 452.985 -4.27297 -4.0335 0
M  V30 5070 H 454.509 -3.7592 -4.81161 0
M  V30 5071 H 455.923 -4.95637 -2.88127 0
M  V30 5072 H 454.32 -5.52828 -2.33456 0
M  V30 5073 H 455.39 -4.70115 -1.18827 0
M  V30 5074 N 456.733 0.527833 -1.48498 0
M  V30 5075 C 457.663 1.64136 -1.66077 0
M  V30 5076 C 458.644 1.62286 -0.509625 0
M  V30 5077 O 459.829 1.79449 -0.742413 0
M  V30 5078 C 456.959 3.02717 -1.70234 0
M  V30 5079 C 455.913 3.19426 -2.8487 0
M  V30 5080 C 455.239 4.5909 -2.74118 0
M  V30 5081 C 456.539 3.01993 -4.26142 0
M  V30 5082 H 458.233 1.4968 -2.593 0
M  V30 5083 H 455.779 0.718654 -1.24785 0
M  V30 5084 H 457.732 3.80491 -1.8112 0
M  V30 5085 H 456.456 3.18201 -0.735911 0
M  V30 5086 H 455.115 2.4407 -2.73542 0
M  V30 5087 H 454.763 4.71413 -1.7544 0
M  V30 5088 H 454.463 4.71214 -3.51042 0
M  V30 5089 H 455.987 5.3896 -2.86974 0
M  V30 5090 H 457.401 3.69558 -4.38292 0
M  V30 5091 H 455.798 3.2561 -5.04082 0
M  V30 5092 H 456.868 1.98396 -4.42456 0
M  V30 5093 N 458.211 1.37122 0.776871 0
M  V30 5094 C 459.459 1.31787 1.53221 0
M  V30 5095 C 459.78 -0.0987589 1.9475 0
M  V30 5096 O 459.05 -1.0417 1.65908 0
M  V30 5097 H 457.63 0.484839 0.568278 0
M  V30 5098 H 460.292 1.71556 0.924917 0
M  V30 5099 H 459.388 1.95355 2.43398 0
M  V30 5100 N 459.689 -1.00246 1.21608 0
M  V30 5101 C 460.936 -1.74061 1.03485 0
M  V30 5102 C 461.264 -1.89658 -0.431308 0
M  V30 5103 O 460.519 -1.42976 -1.33627 0
M  V30 5104 C 460.818 -3.15448 1.68009 0
M  V30 5105 C 460.484 -3.19792 3.17874 0
M  V30 5106 C 459.146 -3.20685 3.58768 0
M  V30 5107 C 461.498 -3.16835 4.13842 0
M  V30 5108 C 458.826 -3.16309 4.94131 0
M  V30 5109 C 461.178 -3.14001 5.49169 0
M  V30 5110 C 459.842 -3.13204 5.89457 0
M  V30 5111 H 459.112 -0.636934 0.378677 0
M  V30 5112 H 461.759 -1.17473 1.51236 0
M  V30 5113 H 460.064 -3.75284 1.12557 0
M  V30 5114 H 461.761 -3.71285 1.51487 0
M  V30 5115 H 458.351 -3.19842 2.85305 0
M  V30 5116 H 462.535 -3.15303 3.83272 0
M  V30 5117 H 457.791 -3.14032 5.24589 0
M  V30 5118 H 461.965 -3.10667 6.23265 0
M  V30 5119 H 459.592 -3.09568 6.94314 0
M  V30 5120 N 461.167 -1.02423 -1.1978 0
M  V30 5121 C 462.13 -0.605703 -2.21052 0
M  V30 5122 C 463.13 0.328209 -1.57415 0
M  V30 5123 O 464.32 0.115853 -1.73814 0
M  V30 5124 C 461.452 0.114366 -3.40708 0
M  V30 5125 H 462.645 -1.5017 -2.59594 0
M  V30 5126 H 460.198 -0.814888 -1.33376 0
M  V30 5127 H 460.933 1.02492 -3.07678 0
M  V30 5128 H 460.718 -0.556641 -3.88129 0
M  V30 5129 H 462.208 0.394272 -4.15735 0
M  V30 5130 N 462.645 1.35699 -0.801477 0
M  V30 5131 C 463.893 1.9852 -0.37871 0
M  V30 5132 C 464.214 1.63907 1.05638 0
M  V30 5133 O 463.484 0.919013 1.73006 0
M  V30 5134 H 462.064 0.734322 -0.137042 0
M  V30 5135 H 464.726 1.65697 -1.02619 0
M  V30 5136 H 463.822 3.08382 -0.480284 0
M  V30 5137 N 464.123 0.554532 1.47522 0
M  V30 5138 C 465.534 0.120446 1.86311 0
M  V30 5139 C 465.885 -1.30904 1.46145 0
M  V30 5140 O 465.01 -1.98434 0.863294 0
M  V30 5141 C 465.605 0.211808 3.38137 0
M  V30 5142 C 464.164 -0.167224 3.76028 0
M  V30 5143 C 463.311 0.560576 2.71575 0
M  V30 5144 H 466.262 0.764408 1.39077 0
M  V30 5145 H 466.283 -0.570275 3.76202 0
M  V30 5146 H 465.795 1.25232 3.6734 0
M  V30 5147 H 463.896 -1.20894 3.52442 0
M  V30 5148 H 464.009 0.189473 4.78725 0
M  V30 5149 H 462.373 0.00396836 2.547 0
M  V30 5150 H 463.156 1.60219 3.0362 0
M  V30 5151 N 465.601 -1.54893 0.290851 0
M  V30 5152 C 466.531 -2.26103 -0.583084 0
M  V30 5153 C 467.512 -1.25684 -1.14619 0
M  V30 5154 O 468.697 -1.54436 -1.17741 0
M  V30 5155 C 465.827 -2.99409 -1.75987 0
M  V30 5156 C 464.781 -4.0689 -1.32758 0
M  V30 5157 C 464.107 -4.67856 -2.58872 0
M  V30 5158 C 465.407 -5.20215 -0.46624 0
M  V30 5159 H 467.101 -2.99398 0.0108214 0
M  V30 5160 H 464.647 -1.43998 0.00664468 0
M  V30 5161 H 466.6 -3.47943 -2.37727 0
M  V30 5162 H 465.324 -2.23675 -2.37985 0
M  V30 5163 H 463.983 -3.59191 -0.733299 0
M  V30 5164 H 463.631 -3.88772 -3.19163 0
M  V30 5165 H 463.331 -5.40438 -2.30653 0
M  V30 5166 H 464.855 -5.19147 -3.21433 0
M  V30 5167 H 466.269 -5.64704 -0.989047 0
M  V30 5168 H 464.666 -5.99455 -0.27826 0
M  V30 5169 H 465.736 -4.82198 0.511173 0
M  V30 5170 N 467.08 -0.0183926 -1.57589 0
M  V30 5171 C 468.32 0.666846 -1.93216 0
M  V30 5172 C 468.684 1.69905 -0.894215 0
M  V30 5173 O 469.885 2.436 -1.13633 0
M  V30 5174 C 468.156 1.27684 -3.33814 0
M  V30 5175 S 469.715 1.98464 -3.91353 0
M  V30 5176 H 466.533 0.219826 -0.676164 0
M  V30 5177 H 469.135 -0.0794893 -1.95338 0
M  V30 5178 H 467.839 0.513006 -4.07181 0
M  V30 5179 H 467.37 2.06071 -3.3511 0
M  V30 5180 H 469.385 3.26189 -3.73918 0
M  V30 5181 N 468.558 1.5553 0.254621 0
M  V30 5182 C 469.807 1.76202 0.981612 0
M  V30 5183 C 470.12 0.580883 1.86776 0
M  V30 5184 O 471.326 0.670448 2.63092 0
M  V30 5185 C 469.782 3.11921 1.79537 0
M  V30 5186 C 469.39 4.37659 0.956991 0
M  V30 5187 C 471.134 3.41936 2.51555 0
M  V30 5188 C 469.041 5.64411 1.76619 0
M  V30 5189 H 467.971 0.656841 0.370237 0
M  V30 5190 H 470.622 1.81969 0.236556 0
M  V30 5191 H 469.004 3.00241 2.58208 0
M  V30 5192 H 470.178 4.60307 0.21315 0
M  V30 5193 H 468.493 4.14922 0.350497 0
M  V30 5194 H 471.09 4.33849 3.12536 0
M  V30 5195 H 471.433 2.62905 3.22779 0
M  V30 5196 H 471.966 3.54797 1.799 0
M  V30 5197 H 468.705 6.46241 1.09783 0
M  V30 5198 H 468.225 5.45877 2.48551 0
M  V30 5199 H 469.904 6.03386 2.33527 0
M  V30 5200 N 470.036 -0.519951 1.48776 0
M  V30 5201 C 471.261 -1.30447 1.6124 0
M  V30 5202 C 471.686 -1.86055 0.276591 0
M  V30 5203 O 471.044 -1.64915 -0.753183 0
M  V30 5204 C 471.092 -2.42406 2.66967 0
M  V30 5205 O 470.196 -3.45728 2.24824 0
M  V30 5206 H 469.537 -0.385924 0.540332 0
M  V30 5207 H 472.067 -0.624572 1.94834 0
M  V30 5208 H 472.077 -2.88447 2.88552 0
M  V30 5209 H 470.752 -2.01294 3.63941 0
M  V30 5210 H 469.329 -3.05737 2.13494 0
M  V30 5211 N 471.514 -1.37532 -0.769588 0
M  V30 5212 C 472.762 -1.32597 -1.5252 0
M  V30 5213 C 473.083 0.0884294 -1.94799 0
M  V30 5214 O 472.353 1.03289 -1.66458 0
M  V30 5215 H 470.933 -0.487846 -0.565699 0
M  V30 5216 H 473.595 -1.72044 -0.915806 0
M  V30 5217 H 472.691 -1.96643 -2.42359 0
M  V30 5218 N 472.992 0.995999 -1.22138 0
M  V30 5219 C 474.241 1.72928 -1.03821 0
M  V30 5220 C 474.554 1.90872 0.427444 0
M  V30 5221 O 475.76 2.61496 0.730212 0
M  V30 5222 C 474.216 3.11124 -1.80913 0
M  V30 5223 C 473.824 3.01122 -3.31707 0
M  V30 5224 C 475.568 3.8852 -1.71035 0
M  V30 5225 C 473.475 4.34453 -4.01253 0
M  V30 5226 H 472.405 0.648376 -0.384869 0
M  V30 5227 H 475.056 1.11213 -1.45959 0
M  V30 5228 H 473.438 3.73503 -1.31573 0
M  V30 5229 H 474.612 2.47926 -3.88419 0
M  V30 5230 H 472.927 2.3721 -3.42228 0
M  V30 5231 H 475.524 4.872 -2.20318 0
M  V30 5232 H 475.867 4.1087 -0.670196 0
M  V30 5233 H 476.4 3.32812 -2.17902 0
M  V30 5234 H 473.139 4.17303 -5.05508 0
M  V30 5235 H 472.659 4.87574 -3.49331 0
M  V30 5236 H 474.338 5.03215 -4.06674 0
M  V30 5237 N 474.47 1.03057 1.19235 0
M  V30 5238 C 475.716 0.729098 1.89241 0
M  V30 5239 C 476.049 -0.740573 1.79525 0
M  V30 5240 O 475.324 -1.53946 1.18874 0
M  V30 5241 C 475.607 1.18304 3.40112 0
M  V30 5242 C 475.46 2.71406 3.5869 0
M  V30 5243 C 476.779 0.765161 4.33397 0
M  V30 5244 H 473.898 0.266338 0.687192 0
M  V30 5245 H 476.54 1.28079 1.40341 0
M  V30 5246 H 474.69 0.713672 3.81889 0
M  V30 5247 H 476.362 3.26303 3.26074 0
M  V30 5248 H 474.605 3.11717 3.01687 0
M  V30 5249 H 475.276 2.98225 4.64506 0
M  V30 5250 H 477.752 1.16889 3.99345 0
M  V30 5251 H 476.628 1.11065 5.37546 0
M  V30 5252 H 476.889 -0.332372 4.40849 0
M  V30 5253 N 475.948 -1.35272 0.808662 0
M  V30 5254 C 476.88 -2.28507 0.178149 0
M  V30 5255 C 477.893 -1.50377 -0.623754 0
M  V30 5256 O 479.082 -1.72583 -0.455774 0
M  V30 5257 C 476.182 -3.30038 -0.769959 0
M  V30 5258 C 475.355 -4.37398 -0.0139749 0
M  V30 5259 C 474.414 -5.18775 -0.880875 0
M  V30 5260 O 473.44 -5.68236 -0.331059 0
M  V30 5261 N 474.642 -5.37087 -2.20267 0
M  V30 5262 H 477.407 -2.83255 0.979106 0
M  V30 5263 H 474.968 -1.47643 0.664308 0
M  V30 5264 H 476.96 -3.81371 -1.35418 0
M  V30 5265 H 475.53 -2.75789 -1.47171 0
M  V30 5266 H 474.75 -3.86971 0.751468 0
M  V30 5267 H 476.038 -5.06268 0.506965 0
M  V30 5268 H 475.436 -4.9855 -2.67328 0
M  V30 5269 H 473.993 -5.91593 -2.73608 0
M  V30 5270 N 477.426 -0.562348 -1.47226 0
M  V30 5271 C 478.842 -0.222492 -1.58042 0
M  V30 5272 C 479.042 1.27505 -1.56028 0
M  V30 5273 O 478.098 2.05555 -1.46641 0
M  V30 5274 C 479.411 -0.853694 -2.88327 0
M  V30 5275 C 480.959 -0.825397 -3.01921 0
M  V30 5276 C 481.434 -1.43576 -4.34914 0
M  V30 5277 N 482.925 -1.39918 -4.41562 0
M  V30 5278 C 483.66 -1.84103 -5.43041 0
M  V30 5279 N 483.156 -2.36167 -6.51304 0
M  V30 5280 N 484.949 -1.75142 -5.34118 0
M  V30 5281 H 477.1 -1.53525 -1.46778 0
M  V30 5282 H 479.363 -0.640527 -0.698877 0
M  V30 5283 H 479.069 -1.90635 -2.95552 0
M  V30 5284 H 478.943 -0.34977 -3.75575 0
M  V30 5285 H 481.33 0.218583 -2.94289 0
M  V30 5286 H 481.411 -1.36713 -2.16202 0
M  V30 5287 H 481.055 -2.47884 -4.43301 0
M  V30 5288 H 480.985 -0.869427 -5.19373 0
M  V30 5289 H 483.476 -1.0184 -3.63919 0
M  V30 5290 H 483.789 -2.67793 -7.24919 0
M  V30 5291 H 482.134 -2.40181 -6.52179 0
M  V30 5292 H 485.325 -1.34241 -4.48439 0
M  V30 5293 H 485.498 -2.09895 -6.13065 0
M  V30 5294 N 478.904 1.54736 -0.299062 0
M  V30 5295 C 480.15 2.00397 0.311244 0
M  V30 5296 C 480.483 1.18716 1.53688 0
M  V30 5297 O 479.758 0.263154 1.92712 0
M  V30 5298 C 480.041 3.53817 0.669761 0
M  V30 5299 C 479.894 4.46239 -0.564882 0
M  V30 5300 C 481.213 4.13856 1.49702 0
M  V30 5301 H 478.332 0.728493 0.111653 0
M  V30 5302 H 480.974 1.85506 -0.410774 0
M  V30 5303 H 479.124 3.66637 1.28491 0
M  V30 5304 H 480.796 4.45328 -1.20337 0
M  V30 5305 H 479.039 4.16916 -1.19849 0
M  V30 5306 H 479.71 5.5134 -0.269918 0
M  V30 5307 H 482.186 4.04461 0.977284 0
M  V30 5308 H 481.062 5.21365 1.71666 0
M  V30 5309 H 481.323 3.65608 2.48563 0
M  V30 5310 N 480.382 0.0267497 1.57577 0
M  V30 5311 C 481.33 -0.973923 2.11229 0
M  V30 5312 C 482.324 -1.33849 1.03831 0
M  V30 5313 O 483.53 -1.321 1.22269 0
M  V30 5314 H 479.905 -0.331844 0.674821 0
M  V30 5315 H 481.876 -0.496092 2.94247 0
M  V30 5316 C 480.625 -2.24798 2.65257 0
M  V30 5317 H 479.948 -1.9762 3.47543 0
M  V30 5318 H 481.388 -2.93031 3.06445 0
M  V30 5319 C 479.847 -2.97611 1.57891 0
M  V30 5320 O 480.377 -3.89629 0.97735 0
M  V30 5321 N 478.583 -2.59905 1.29992 0
M  V30 5322 H 478.13 -1.85154 1.79097 0
M  V30 5323 H 478.088 -3.08932 0.583798 0
M  V30 5324 N 481.861 -1.55662 -0.24637 0
M  V30 5325 C 482.771 -1.93495 -1.32653 0
M  V30 5326 C 483.787 -0.835462 -1.5263 0
M  V30 5327 O 484.963 -1.1369 -1.66242 0
M  V30 5328 C 482.028 -2.22242 -2.66101 0
M  V30 5329 C 481.089 -3.45625 -2.54641 0
M  V30 5330 C 480.322 -3.72991 -3.81724 0
M  V30 5331 O 480.545 -3.02421 -4.8363 0
M  V30 5332 O 479.479 -4.66515 -3.80325 0
M  V30 5333 H 483.305 -2.85498 -1.03559 0
M  V30 5334 H 480.89 -1.42551 -0.44717 0
M  V30 5335 H 482.772 -2.42037 -3.44958 0
M  V30 5336 H 481.447 -1.33417 -2.94926 0
M  V30 5337 H 480.354 -3.31136 -1.74067 0
M  V30 5338 H 481.687 -4.34754 -2.3076 0
M  V30 5339 N 483.339 0.512053 -1.4905 0
M  V30 5340 C 484.567 1.29116 -1.61669 0
M  V30 5341 C 484.982 1.86655 -0.283787 0
M  V30 5342 O 484.339 1.67293 0.729331 0
M  V30 5343 C 484.39 2.4293 -2.67707 0
M  V30 5344 O 484.111 1.87758 -3.95826 0
M  V30 5345 C 485.612 3.34476 -2.90931 0
M  V30 5346 H 482.832 0.392009 -0.544583 0
M  V30 5347 H 485.376 0.615881 -1.95006 0
M  V30 5348 H 483.531 3.06308 -2.37179 0
M  V30 5349 H 483.945 2.62393 -4.54148 0
M  V30 5350 H 485.419 4.10642 -3.68886 0
M  V30 5351 H 485.896 3.90801 -2.00427 0
M  V30 5352 H 486.502 2.76874 -3.22832 0
M  V30 5353 N 484.817 1.37938 0.762283 0
M  V30 5354 C 485.749 1.30349 1.88525 0
M  V30 5355 C 486.762 0.217402 1.61342 0
M  V30 5356 O 487.951 0.474291 1.72084 0
M  V30 5357 C 485.051 0.994844 3.23969 0
M  V30 5358 C 484.224 2.18829 3.78725 0
M  V30 5359 C 483.283 1.84844 4.92665 0
M  V30 5360 O 482.309 2.57244 5.07754 0
M  V30 5361 N 483.511 0.798201 5.74986 0
M  V30 5362 H 486.276 2.27114 1.95549 0
M  V30 5363 H 483.837 1.31686 0.941825 0
M  V30 5364 H 485.829 0.748168 3.97724 0
M  V30 5365 H 484.399 0.115446 3.12387 0
M  V30 5366 H 483.619 2.59615 2.96637 0
M  V30 5367 H 484.907 2.98497 4.1204 0
M  V30 5368 H 484.305 0.197611 5.65355 0
M  V30 5369 H 482.862 0.611396 6.48926 0
M  V30 5370 N 486.295 -0.989507 1.22664 0
M  V30 5371 C 487.243 -2.10148 0.997035 0
M  V30 5372 C 488.237 -1.6929 -0.0609783 0
M  V30 5373 O 489.443 -1.79766 0.0917523 0
M  V30 5374 H 485.818 -0.687256 0.305259 0
M  V30 5375 H 487.789 -2.26685 1.94053 0
M  V30 5376 C 486.538 -3.4257 0.595085 0
M  V30 5377 H 485.861 -3.74453 1.40089 0
M  V30 5378 H 487.301 -4.21344 0.473869 0
M  V30 5379 C 485.76 -3.29638 -0.695725 0
M  V30 5380 O 486.29 -3.61709 -1.74727 0
M  V30 5381 N 484.496 -2.82814 -0.668173 0
M  V30 5382 H 484.043 -2.56914 0.18787 0
M  V30 5383 H 484.001 -2.74544 -1.5321 0
M  V30 5384 N 487.773 -1.03688 -1.18687 0
M  V30 5385 C 489.021 -0.736572 -1.88199 0
M  V30 5386 C 489.342 0.737665 -1.80509 0
M  V30 5387 O 488.612 1.53204 -1.22088 0
M  V30 5388 H 487.192 -0.269466 -0.696704 0
M  V30 5389 H 489.854 -1.31282 -1.44052 0
M  V30 5390 H 488.95 -1.03802 -2.94332 0
M  V30 5391 N 489.251 1.34841 -0.815825 0
M  V30 5392 C 490.479 2.0273 -0.413294 0
M  V30 5393 C 490.894 1.61459 0.978599 0
M  V30 5394 O 490.251 0.816584 1.63212 0
M  V30 5395 C 490.302 3.58058 -0.497676 0
M  V30 5396 O 490.023 3.97832 -1.8347 0
M  V30 5397 C 491.524 4.4321 -0.0891339 0
M  V30 5398 H 488.744 0.649956 -0.166728 0
M  V30 5399 H 491.288 1.72267 -1.10201 0
M  V30 5400 H 489.443 3.87136 0.142886 0
M  V30 5401 H 489.857 4.92501 -1.80396 0
M  V30 5402 H 491.331 5.5164 -0.199274 0
M  V30 5403 H 491.808 4.28432 0.966571 0
M  V30 5404 H 492.414 4.19446 -0.703214 0
M  V30 5405 N 490.729 0.570148 1.46925 0
M  V30 5406 C 491.677 -0.183181 2.31878 0
M  V30 5407 C 492.671 -0.896721 1.43719 0
M  V30 5408 O 493.877 -0.816536 1.60414 0
M  V30 5409 H 490.252 -0.077944 0.74795 0
M  V30 5410 H 492.223 0.552312 2.93244 0
M  V30 5411 C 490.972 -1.19172 3.2664 0
M  V30 5412 H 490.295 -0.652088 3.94446 0
M  V30 5413 H 491.735 -1.68946 3.88887 0
M  V30 5414 C 490.194 -2.24627 2.51086 0
M  V30 5415 O 490.724 -3.31773 2.26472 0
M  V30 5416 N 488.93 -1.98898 2.11867 0
M  V30 5417 H 488.477 -1.11777 2.32086 0
M  V30 5418 H 488.435 -2.6967 1.61634 0
M  V30 5419 N 492.207 -1.54576 0.307264 0
M  V30 5420 C 493.155 -2.25208 -0.581723 0
M  V30 5421 C 494.149 -1.26031 -1.13192 0
M  V30 5422 O 495.355 -1.43862 -1.08184 0
M  V30 5423 H 491.73 -0.723173 -0.206214 0
M  V30 5424 H 493.701 -2.98378 0.0364663 0
M  V30 5425 C 492.45 -3.01086 -1.73904 0
M  V30 5426 H 491.773 -3.77208 -1.32491 0
M  V30 5427 H 493.213 -3.5378 -2.33701 0
M  V30 5428 C 491.672 -2.08422 -2.64692 0
M  V30 5429 O 492.202 -1.65636 -3.65961 0
M  V30 5430 N 490.408 -1.74247 -2.32564 0
M  V30 5431 H 489.955 -2.09238 -1.50257 0
M  V30 5432 H 489.913 -1.12524 -2.93574 0
M  V30 5433 N 493.685 -0.035106 -1.57561 0
M  V30 5434 C 494.913 0.652258 -1.9635 0
M  V30 5435 C 495.328 1.65317 -0.911897 0
M  V30 5436 O 494.685 1.82194 0.105657 0
M  V30 5437 C 494.736 1.35337 -3.35211 0
M  V30 5438 O 494.457 0.392548 -4.36338 0
M  V30 5439 C 495.958 2.13199 -3.88666 0
M  V30 5440 H 493.178 0.179444 -0.646561 0
M  V30 5441 H 495.722 -0.0966459 -2.04271 0
M  V30 5442 H 493.877 2.05362 -3.28489 0
M  V30 5443 H 494.291 0.891097 -5.16875 0
M  V30 5444 H 495.765 2.577 -4.88154 0
M  V30 5445 H 496.242 2.97353 -3.23231 0
M  V30 5446 H 496.848 1.48118 -3.98674 0
M  V30 5447 N 495.163 1.55791 0.238111 0
M  V30 5448 C 496.391 1.82098 0.982233 0
M  V30 5449 C 496.806 0.612025 1.78605 0
M  V30 5450 O 496.163 -0.419381 1.77616 0
M  V30 5451 C 496.214 3.0673 1.91309 0
M  V30 5452 O 495.935 4.2296 1.14179 0
M  V30 5453 C 497.436 3.45903 2.77248 0
M  V30 5454 H 494.656 0.605748 0.288635 0
M  V30 5455 H 497.2 2.02862 0.258341 0
M  V30 5456 H 495.355 2.87991 2.59114 0
M  V30 5457 H 495.769 4.93653 1.7722 0
M  V30 5458 H 497.243 4.36189 3.38295 0
M  V30 5459 H 497.72 2.66891 3.48806 0
M  V30 5460 H 498.326 3.67024 2.14881 0
M  V30 5461 N 496.642 -0.504142 1.49319 0
M  V30 5462 C 497.89 -1.25598 1.58334 0
M  V30 5463 C 498.211 -1.93114 0.270538 0
M  V30 5464 O 497.481 -1.82585 -0.709891 0
M  V30 5465 H 496.061 -0.466571 0.58337 0
M  V30 5466 H 498.723 -0.584547 1.85928 0
M  V30 5467 H 497.819 -2.02159 2.37778 0
M  V30 5468 N 498.12 -1.38341 -0.754957 0
M  V30 5469 C 499.369 -1.33791 -1.5094 0
M  V30 5470 C 499.682 0.0699267 -1.95475 0
M  V30 5471 O 500.888 0.237956 -2.70455 0
M  V30 5472 C 499.344 -2.34934 -2.72643 0
M  V30 5473 C 498.952 -3.81332 -2.35138 0
M  V30 5474 C 500.696 -2.39425 -3.50536 0
M  V30 5475 C 498.603 -4.74164 -3.53444 0
M  V30 5476 H 497.533 -0.497314 -0.566741 0
M  V30 5477 H 500.184 -1.63888 -0.825403 0
M  V30 5478 H 498.566 -1.97878 -3.43017 0
M  V30 5479 H 499.74 -4.27319 -1.7244 0
M  V30 5480 H 498.055 -3.79946 -1.70382 0
M  V30 5481 H 500.652 -3.0598 -4.38498 0
M  V30 5482 H 500.995 -1.41278 -3.91594 0
M  V30 5483 H 501.528 -2.75274 -2.87174 0
M  V30 5484 H 498.267 -5.73501 -3.17453 0
M  V30 5485 H 497.787 -4.3287 -4.15191 0
M  V30 5486 H 499.466 -4.92111 -4.20043 0
M  V30 5487 N 499.598 0.982988 -1.23187 0
M  V30 5488 C 500.823 1.76455 -1.08988 0
M  V30 5489 C 501.248 1.84726 0.354691 0
M  V30 5490 O 500.606 1.30699 1.25649 0
M  V30 5491 C 500.654 3.17094 -1.71708 0
M  V30 5492 O 499.758 4.00648 -0.977477 0
M  V30 5493 H 499.099 0.542988 -0.382177 0
M  V30 5494 H 501.629 1.23413 -1.63188 0
M  V30 5495 H 501.639 3.67684 -1.76841 0
M  V30 5496 H 500.314 3.10389 -2.76823 0
M  V30 5497 H 498.891 3.59161 -1.0029 0
M  V30 5498 N 501.076 1.04316 1.18135 0
M  V30 5499 C 501.986 0.646876 2.25505 0
M  V30 5500 C 503.002 -0.328008 1.7088 0
M  V30 5501 O 504.178 -0.182309 2.00573 0
M  V30 5502 C 501.243 0.0185664 3.46695 0
M  V30 5503 C 500.304 1.04277 4.16443 0
M  V30 5504 C 499.537 0.444352 5.31847 0
M  V30 5505 O 499.76 -0.748735 5.65465 0
M  V30 5506 O 498.694 1.17428 5.90334 0
M  V30 5507 H 502.52 1.54147 2.61672 0
M  V30 5508 H 500.105 0.814188 1.25265 0
M  V30 5509 H 501.987 -0.331068 4.20097 0
M  V30 5510 H 500.662 -0.849814 3.12346 0
M  V30 5511 H 499.569 1.44425 3.45098 0
M  V30 5512 H 500.902 1.882 4.54798 0
M  V30 5513 N 502.554 -1.34406 0.822964 0
M  V30 5514 C 503.782 -2.02508 0.424039 0
M  V30 5515 C 504.197 -1.61975 -0.970022 0
M  V30 5516 O 503.554 -0.825228 -1.62777 0
M  V30 5517 C 503.605 -3.57789 0.516657 0
M  V30 5518 O 503.326 -3.96853 1.85577 0
M  V30 5519 C 504.827 -4.43157 0.112637 0
M  V30 5520 H 502.047 -0.649063 0.170173 0
M  V30 5521 H 504.591 -1.7168 1.11113 0
M  V30 5522 H 502.746 -3.87207 -0.122353 0
M  V30 5523 H 503.16 -4.91538 1.83005 0
M  V30 5524 H 504.634 -5.51527 0.228526 0
M  V30 5525 H 505.111 -4.28939 -0.943837 0
M  V30 5526 H 505.717 -4.19067 0.725449 0
M  V30 5527 N 504.032 -0.577932 -1.46621 0
M  V30 5528 C 504.962 0.145917 -2.33044 0
M  V30 5529 C 505.943 0.888412 -1.45056 0
M  V30 5530 O 507.128 0.864812 -1.73881 0
M  V30 5531 C 504.258 1.16322 -3.27241 0
M  V30 5532 C 503.212 0.535868 -4.24632 0
M  V30 5533 C 502.538 1.65929 -5.08303 0
M  V30 5534 C 503.838 -0.523861 -5.19666 0
M  V30 5535 H 505.532 -0.575636 -2.93814 0
M  V30 5536 H 503.078 -0.278272 -1.41286 0
M  V30 5537 H 505.031 1.67793 -3.86553 0
M  V30 5538 H 503.755 1.91498 -2.64567 0
M  V30 5539 H 502.414 0.0422759 -3.66576 0
M  V30 5540 H 502.062 2.40061 -4.42018 0
M  V30 5541 H 501.762 1.2452 -5.74255 0
M  V30 5542 H 503.286 2.17686 -5.70478 0
M  V30 5543 H 504.7 -0.0944059 -5.73222 0
M  V30 5544 H 503.097 -0.858 -5.93935 0
M  V30 5545 H 504.167 -1.41197 -4.63887 0
M  V30 5546 N 505.51 1.54411 -0.315457 0
M  V30 5547 C 506.735 2.05299 0.294496 0
M  V30 5548 C 507.16 1.19052 1.4563 0
M  V30 5549 O 506.518 0.197804 1.80218 0
M  V30 5550 C 506.566 3.5345 0.714549 0
M  V30 5551 O 505.67 3.70175 1.81781 0
M  V30 5552 H 505.011 0.661743 0.0547019 0
M  V30 5553 H 507.541 1.99327 -0.461508 0
M  V30 5554 H 507.551 3.9557 0.999426 0
M  V30 5555 H 506.226 4.1568 -0.135244 0
M  V30 5556 H 504.803 3.3996 1.53236 0
M  V30 5557 N 506.988 0.0434614 1.5754 0
M  V30 5558 C 508.213 -0.645358 1.97104 0
M  V30 5559 C 508.638 -1.64037 0.920521 0
M  V30 5560 O 507.996 -1.80922 -0.11708 0
M  V30 5561 C 508.044 -1.31547 3.35749 0
M  V30 5562 O 507.148 -2.43103 3.33129 0
M  V30 5563 H 506.489 -0.168403 0.64229 0
M  V30 5564 H 509.019 0.109573 2.04306 0
M  V30 5565 H 509.029 -1.66895 3.72304 0
M  V30 5566 H 507.704 -0.586205 4.11748 0
M  V30 5567 H 506.281 -2.0976 3.0831 0
M  V30 5568 N 508.466 -1.55915 -0.229846 0
M  V30 5569 C 509.413 -1.91734 -1.28478 0
M  V30 5570 C 510.383 -0.773539 -1.46988 0
M  V30 5571 O 511.568 -1.02871 -1.60693 0
M  V30 5572 C 508.708 -2.23224 -2.63182 0
M  V30 5573 C 507.821 -3.50497 -2.52539 0
M  V30 5574 C 506.956 -3.71474 -3.79711 0
M  V30 5575 C 505.995 -4.92289 -3.63755 0
M  V30 5576 N 505.132 -5.09698 -4.82858 0
M  V30 5577 H 509.972 -2.81692 -0.972308 0
M  V30 5578 H 507.509 -1.39429 -0.468815 0
M  V30 5579 H 509.467 -2.3949 -3.41614 0
M  V30 5580 H 508.097 -1.36451 -2.92542 0
M  V30 5581 H 507.149 -3.4247 -1.65585 0
M  V30 5582 H 508.461 -4.39079 -2.36666 0
M  V30 5583 H 507.615 -3.87791 -4.66586 0
M  V30 5584 H 506.354 -2.81157 -3.985 0
M  V30 5585 H 505.359 -4.7593 -2.75264 0
M  V30 5586 H 506.584 -5.84083 -3.46445 0
M  V30 5587 H 504.53 -4.22322 -5.01976 0
M  V30 5588 H 504.447 -5.92399 -4.69681 0
M  V30 5589 H 505.715 -5.30443 -5.71183 0
M  V30 5590 N 509.944 0.496216 -1.49584 0
M  V30 5591 C 510.854 1.62352 -1.69349 0
M  V30 5592 C 511.87 1.64184 -0.576147 0
M  V30 5593 O 513.046 1.82517 -0.85144 0
M  V30 5594 C 510.111 2.98698 -1.76013 0
M  V30 5595 C 509.172 3.07454 -2.99617 0
M  V30 5596 C 508.405 4.37296 -3.05953 0
M  V30 5597 O 508.628 5.2637 -2.19752 0
M  V30 5598 O 507.562 4.51124 -3.9846 0
M  V30 5599 H 511.388 1.48606 -2.64859 0
M  V30 5600 H 508.973 0.673022 -1.33382 0
M  V30 5601 H 510.855 3.79725 -1.82721 0
M  V30 5602 H 509.53 3.12696 -0.836828 0
M  V30 5603 H 508.437 2.25597 -2.98424 0
M  V30 5604 H 509.77 2.98385 -3.91443 0
M  V30 5605 N 511.423 1.38739 0.74761 0
M  V30 5606 C 512.67 1.35274 1.50689 0
M  V30 5607 C 512.998 -0.0553359 1.94421 0
M  V30 5608 O 512.253 -1.03365 1.66175 0
M  V30 5609 C 512.552 2.25992 2.7688 0
M  V30 5610 C 512.218 3.73854 2.5208 0
M  V30 5611 C 510.88 4.14145 2.45025 0
M  V30 5612 C 513.232 4.67427 2.30568 0
M  V30 5613 C 510.56 5.4609 2.14483 0
M  V30 5614 C 512.912 5.99635 2.01545 0
M  V30 5615 C 511.576 6.39004 1.92951 0
M  V30 5616 H 510.846 0.495003 0.55141 0
M  V30 5617 H 513.493 1.71145 0.859158 0
M  V30 5618 H 511.798 1.83196 3.46333 0
M  V30 5619 H 513.495 2.20611 3.34861 0
M  V30 5620 H 510.085 3.41913 2.58444 0
M  V30 5621 H 514.269 4.3714 2.34994 0
M  V30 5622 H 509.525 5.75528 2.06342 0
M  V30 5623 H 513.699 6.71678 1.83906 0
M  V30 5624 H 511.326 7.41165 1.6905 0
M  V30 5625 N 512.901 -0.976442 1.23707 0
M  V30 5626 C 513.831 -2.08749 1.04624 0
M  V30 5627 C 514.812 -1.70057 -0.0380956 0
M  V30 5628 O 515.997 -1.93782 0.127308 0
M  V30 5629 C 513.127 -3.41335 0.640902 0
M  V30 5630 C 512.081 -3.93947 1.67302 0
M  V30 5631 C 511.407 -5.22774 1.12301 0
M  V30 5632 C 512.707 -4.22769 3.06697 0
M  V30 5633 H 514.401 -2.24972 1.97555 0
M  V30 5634 H 511.947 -1.08108 0.951247 0
M  V30 5635 H 513.9 -4.18489 0.494434 0
M  V30 5636 H 512.624 -3.24988 -0.324099 0
M  V30 5637 H 511.283 -3.18941 1.80755 0
M  V30 5638 H 510.931 -5.0278 0.148877 0
M  V30 5639 H 510.631 -5.58942 1.81267 0
M  V30 5640 H 512.155 -6.02546 0.988479 0
M  V30 5641 H 513.569 -4.90659 2.96524 0
M  V30 5642 H 511.966 -4.70147 3.72937 0
M  V30 5643 H 513.036 -3.29885 3.55392 0
M  V30 5644 N 514.379 -1.04941 -1.1758 0
M  V30 5645 C 515.289 -0.658826 -2.25159 0
M  V30 5646 C 516.305 0.318941 -1.71052 0
M  V30 5647 O 517.481 0.171669 -2.00667 0
M  V30 5648 C 514.546 -0.0369522 -3.4668 0
M  V30 5649 C 513.607 -1.06484 -4.15884 0
M  V30 5650 C 512.84 -0.472551 -5.31604 0
M  V30 5651 O 513.063 0.718736 -5.65854 0
M  V30 5652 O 511.997 -1.20557 -5.89703 0
M  V30 5653 H 515.823 -1.55533 -2.60851 0
M  V30 5654 H 513.408 -0.820819 -1.24832 0
M  V30 5655 H 515.29 0.308784 -4.20267 0
M  V30 5656 H 513.965 0.833238 -3.12792 0
M  V30 5657 H 512.872 -1.46253 -3.44327 0
M  V30 5658 H 514.205 -1.9061 -4.53794 0
M  V30 5659 N 515.857 1.33968 -0.830081 0
M  V30 5660 C 516.805 2.31301 -0.245435 0
M  V30 5661 C 517.799 1.57734 0.617762 0
M  V30 5662 O 519.005 1.72674 0.508303 0
M  V30 5663 H 515.38 0.749552 -0.0606316 0
M  V30 5664 H 517.351 2.78129 -1.08105 0
M  V30 5665 C 516.1 3.42961 0.572084 0
M  V30 5666 H 515.423 3.99714 -0.0828118 0
M  V30 5667 H 516.863 4.13286 0.94715 0
M  V30 5668 C 515.322 2.88043 1.74737 0
M  V30 5669 O 515.852 2.83508 2.8458 0
M  V30 5670 N 514.058 2.44768 1.56642 0
M  V30 5671 H 513.605 2.48656 0.672901 0
M  V30 5672 H 513.563 2.08375 2.3543 0
M  V30 5673 N 517.335 0.585699 1.46312 0
M  V30 5674 C 518.298 -0.135673 2.28798 0
M  V30 5675 C 519.298 -0.815988 1.38558 0
M  V30 5676 O 520.488 -0.667487 1.60904 0
M  V30 5677 C 517.62 -1.20163 3.1902 0
M  V30 5678 H 518.813 0.589257 2.94054 0
M  V30 5679 H 516.366 0.343794 1.52472 0
M  V30 5680 H 517.101 -1.95804 2.58517 0
M  V30 5681 H 516.886 -0.718282 3.85465 0
M  V30 5682 H 518.376 -1.70749 3.81096 0
M  V30 5683 N 518.813 -1.54241 0.323641 0
M  V30 5684 C 520.043 -2.04687 -0.280464 0
M  V30 5685 C 520.451 -1.19939 -1.46326 0
M  V30 5686 O 519.794 -0.222872 -1.82343 0
M  V30 5687 C 519.856 -3.50978 -0.778123 0
M  V30 5688 C 519.52 -4.56127 0.282371 0
M  V30 5689 C 520.517 -5.07726 1.11847 0
M  V30 5690 C 518.202 -5.00451 0.430582 0
M  V30 5691 C 520.196 -6.02212 2.08851 0
M  V30 5692 C 517.883 -5.94752 1.40404 0
M  V30 5693 C 518.881 -6.45519 2.23147 0
M  V30 5694 O 518.569 -7.37968 3.1884 0
M  V30 5695 H 518.301 -0.673192 -0.0615473 0
M  V30 5696 H 520.855 -1.99999 0.467921 0
M  V30 5697 H 519.085 -3.53064 -1.57742 0
M  V30 5698 H 520.774 -3.84499 -1.30058 0
M  V30 5699 H 521.54 -4.74261 1.01496 0
M  V30 5700 H 517.419 -4.6055 -0.203569 0
M  V30 5701 H 520.963 -6.41761 2.73474 0
M  V30 5702 H 516.86 -6.27633 1.5082 0
M  V30 5703 H 517.628 -7.55841 3.14079 0
M  V30 5704 N 520.291 -0.0518155 -1.57515 0
M  V30 5705 C 521.537 0.622745 -1.93002 0
M  V30 5706 C 521.87 1.70456 -0.930499 0
M  V30 5707 O 521.145 1.94452 0.0434086 0
M  V30 5708 C 521.428 1.21824 -3.38867 0
M  V30 5709 C 521.281 0.144434 -4.49568 0
M  V30 5710 C 522.6 2.12968 -3.8514 0
M  V30 5711 H 519.719 0.22491 -0.701844 0
M  V30 5712 H 522.361 -0.113711 -1.89659 0
M  V30 5713 H 520.511 1.8459 -3.41846 0
M  V30 5714 H 522.183 -0.48753 -4.58717 0
M  V30 5715 H 520.426 -0.527424 -4.30582 0
M  V30 5716 H 521.097 0.601127 -5.48717 0
M  V30 5717 H 523.573 1.60163 -3.8404 0
M  V30 5718 H 522.449 2.51578 -4.87852 0
M  V30 5719 H 522.71 3.03004 -3.21934 0
M  V30 5720 N 521.769 1.56035 0.221574 0
M  V30 5721 C 522.699 1.95434 1.2778 0
M  V30 5722 C 523.68 0.822564 1.48889 0
M  V30 5723 O 524.865 1.08486 1.61072 0
M  V30 5724 C 521.995 2.27102 2.62759 0
M  V30 5725 C 520.949 3.4277 2.56306 0
M  V30 5726 C 520.275 3.60043 3.95314 0
M  V30 5727 C 521.575 4.77742 2.11093 0
M  V30 5728 H 523.269 2.83912 0.950504 0
M  V30 5729 H 520.815 1.36596 0.455791 0
M  V30 5730 H 522.768 2.53256 3.36807 0
M  V30 5731 H 521.492 1.35478 2.97176 0
M  V30 5732 H 520.151 3.16664 1.84715 0
M  V30 5733 H 519.799 2.65794 4.27039 0
M  V30 5734 H 519.499 4.37841 3.91879 0
M  V30 5735 H 521.023 3.88545 4.71025 0
M  V30 5736 H 522.437 5.03102 2.74885 0
M  V30 5737 H 520.834 5.58823 2.18716 0
M  V30 5738 H 521.904 4.731 1.06321 0
M  V30 5739 N 523.247 -0.488276 1.49845 0
M  V30 5740 C 524.21 -1.57069 1.66919 0
M  V30 5741 C 525.21 -1.51445 0.540479 0
M  V30 5742 O 526.4 -1.5437 0.807188 0
M  V30 5743 C 523.532 -2.96718 1.67844 0
M  V30 5744 H 524.725 -1.43254 2.63474 0
M  V30 5745 H 522.278 -0.713435 1.39068 0
M  V30 5746 H 523.013 -3.15996 0.7292 0
M  V30 5747 H 522.798 -3.02208 2.49826 0
M  V30 5748 H 524.288 -3.75335 1.83066 0
M  V30 5749 N 524.725 -1.39134 -0.740242 0
M  V30 5750 C 525.971 -1.36273 -1.50192 0
M  V30 5751 C 526.304 0.0430136 -1.94152 0
M  V30 5752 O 525.579 1.00691 -1.66408 0
M  V30 5753 C 525.862 -2.33041 -2.74525 0
M  V30 5754 C 525.715 -3.82535 -2.36617 0
M  V30 5755 C 527.034 -2.27723 -3.76604 0
M  V30 5756 H 524.153 -0.496323 -0.544823 0
M  V30 5757 H 526.795 -1.70085 -0.846815 0
M  V30 5758 H 524.945 -2.04337 -3.30422 0
M  V30 5759 H 526.617 -4.21967 -1.86391 0
M  V30 5760 H 524.86 -3.99565 -1.68909 0
M  V30 5761 H 525.531 -4.45723 -3.2563 0
M  V30 5762 H 528.007 -2.53091 -3.30279 0
M  V30 5763 H 526.883 -2.97519 -4.61274 0
M  V30 5764 H 527.144 -1.28049 -4.2315 0
M  V30 5765 N 526.204 0.969867 -1.24223 0
M  V30 5766 C 527.134 2.08191 -1.05729 0
M  V30 5767 C 528.115 1.70075 0.0290765 0
M  V30 5768 O 529.3 1.93712 -0.137583 0
M  V30 5769 C 526.43 3.40991 -0.658995 0
M  V30 5770 C 525.384 3.93054 -1.69389 0
M  V30 5771 C 524.71 5.22171 -1.15072 0
M  V30 5772 C 526.01 4.21137 -3.08935 0
M  V30 5773 H 527.704 2.23921 -1.98746 0
M  V30 5774 H 525.25 1.07602 -0.956967 0
M  V30 5775 H 527.203 4.18221 -0.51662 0
M  V30 5776 H 525.927 3.25155 0.30686 0
M  V30 5777 H 524.586 3.17977 -1.82444 0
M  V30 5778 H 524.234 5.02694 -0.175539 0
M  V30 5779 H 523.934 5.57973 -1.84229 0
M  V30 5780 H 525.458 6.02013 -1.02042 0
M  V30 5781 H 526.872 4.8908 -2.99121 0
M  V30 5782 H 525.269 4.68163 -3.75425 0
M  V30 5783 H 526.339 3.27996 -3.57137 0
M  V30 5784 N 527.682 1.05563 1.17022 0
M  V30 5785 C 528.612 0.681026 2.23348 0
M  V30 5786 C 529.593 -0.322983 1.67005 0
M  V30 5787 O 530.778 -0.199746 1.9317 0
M  V30 5788 C 527.908 0.0589053 3.4725 0
M  V30 5789 C 526.862 0.988082 4.16438 0
M  V30 5790 C 526.188 0.229646 5.34207 0
M  V30 5791 C 527.488 2.31388 4.68249 0
M  V30 5792 H 529.182 1.56993 2.54938 0
M  V30 5793 H 526.728 0.756302 1.2254 0
M  V30 5794 H 528.681 -0.214982 4.20851 0
M  V30 5795 H 527.405 -0.864968 3.14938 0
M  V30 5796 H 526.064 1.24659 3.44754 0
M  V30 5797 H 525.712 -0.697111 4.98146 0
M  V30 5798 H 525.412 0.848815 5.81437 0
M  V30 5799 H 526.936 -0.0368694 6.10589 0
M  V30 5800 H 528.35 2.09964 5.33468 0
M  V30 5801 H 526.747 2.88736 5.26072 0
M  V30 5802 H 527.817 2.94982 3.84855 0
M  V30 5803 N 529.16 -1.33526 0.837174 0
M  V30 5804 C 530.407 -1.97837 0.432064 0
M  V30 5805 C 530.735 -1.66324 -1.00829 0
M  V30 5806 O 529.99 -0.93448 -1.71948 0
M  V30 5807 C 530.289 -3.52367 0.597675 0
M  V30 5808 C 529.955 -4.03826 2.00587 0
M  V30 5809 C 528.617 -4.1759 2.39106 0
M  V30 5810 C 530.969 -4.31333 2.92576 0
M  V30 5811 C 528.297 -4.56195 3.68921 0
M  V30 5812 C 530.649 -4.7139 4.2187 0
M  V30 5813 C 529.313 -4.8336 4.60347 0
M  V30 5814 H 528.583 -0.723937 0.158104 0
M  V30 5815 H 531.23 -1.5923 1.06387 0
M  V30 5816 H 529.535 -3.91624 -0.117452 0
M  V30 5817 H 531.232 -4.00126 0.26454 0
M  V30 5818 H 527.822 -3.93586 1.69671 0
M  V30 5819 H 532.006 -4.20224 2.64056 0
M  V30 5820 H 527.262 -4.63655 3.9854 0
M  V30 5821 H 531.436 -4.91631 4.93226 0
M  V30 5822 H 529.063 -5.1303 5.60985 0
M  V30 5823 N 530.638 -0.59345 -1.46 0
M  V30 5824 C 531.568 0.121192 -2.33185 0
M  V30 5825 C 532.549 0.872977 -1.4599 0
M  V30 5826 O 533.734 0.846321 -1.74789 0
M  V30 5827 C 530.864 1.12844 -3.28456 0
M  V30 5828 C 529.818 0.4908 -4.25177 0
M  V30 5829 C 529.144 1.60529 -5.10034 0
M  V30 5830 C 530.444 -0.578949 -5.19081 0
M  V30 5831 H 532.138 -0.606767 -2.93187 0
M  V30 5832 H 529.684 -0.293242 -1.40983 0
M  V30 5833 H 531.637 1.63684 -3.88311 0
M  V30 5834 H 530.361 1.88681 -2.66584 0
M  V30 5835 H 529.02 0.00339328 -3.666 0
M  V30 5836 H 528.668 2.35359 -4.44539 0
M  V30 5837 H 528.368 1.18422 -5.75543 0
M  V30 5838 H 529.892 2.11623 -5.72755 0
M  V30 5839 H 531.306 -0.155199 -5.7309 0
M  V30 5840 H 529.703 -0.920947 -5.92991 0
M  V30 5841 H 530.773 -1.46109 -4.62364 0
M  V30 5842 N 532.116 1.54067 -0.331816 0
M  V30 5843 C 533.079 2.23275 0.517768 0
M  V30 5844 C 534.079 1.22897 1.03697 0
M  V30 5845 O 535.269 1.47419 0.928084 0
M  V30 5846 C 532.401 2.94326 1.72004 0
M  V30 5847 H 533.594 2.99773 -0.0873507 0
M  V30 5848 H 531.147 1.56079 -0.0830042 0
M  V30 5849 H 531.882 2.21986 2.36417 0
M  V30 5850 H 531.667 3.67941 1.35507 0
M  V30 5851 H 533.157 3.47031 2.32291 0
M  V30 5852 N 533.594 0.0601682 1.57485 0
M  V30 5853 C 534.524 -0.90889 2.15085 0
M  V30 5854 C 535.505 -1.31838 1.07484 0
M  V30 5855 O 536.69 -1.3915 1.35466 0
M  V30 5856 C 533.82 -2.18059 2.7031 0
M  V30 5857 C 532.774 -1.91088 3.82974 0
M  V30 5858 C 532.1 -3.24789 4.24754 0
M  V30 5859 C 533.4 -1.22535 5.07723 0
M  V30 5860 H 535.094 -0.429093 2.96309 0
M  V30 5861 H 532.64 -0.204952 1.42534 0
M  V30 5862 H 534.593 -2.86258 3.09248 0
M  V30 5863 H 533.317 -2.6826 1.8629 0
M  V30 5864 H 531.976 -1.25297 3.44523 0
M  V30 5865 H 531.624 -3.72809 3.37672 0
M  V30 5866 H 531.324 -3.07538 5.00694 0
M  V30 5867 H 532.848 -3.94205 4.66299 0
M  V30 5868 H 534.262 -1.80783 5.4405 0
M  V30 5869 H 532.659 -1.1558 5.88864 0
M  V30 5870 H 533.729 -0.202692 4.84476 0
M  V30 5871 N 535.072 -1.5615 -0.213296 0
M  V30 5872 C 536.321 -1.78743 -0.93455 0
M  V30 5873 C 536.634 -0.630199 -1.8517 0
M  V30 5874 O 537.84 -0.739966 -2.61222 0
M  V30 5875 C 536.296 -3.16571 -1.71203 0
M  V30 5876 C 535.904 -4.40043 -0.840617 0
M  V30 5877 C 537.648 -3.48485 -2.42401 0
M  V30 5878 C 535.555 -5.68895 -1.61592 0
M  V30 5879 H 534.485 -0.666426 -0.352692 0
M  V30 5880 H 537.136 -1.82532 -0.188227 0
M  V30 5881 H 535.518 -3.06981 -2.50157 0
M  V30 5882 H 536.692 -4.6071 -0.0910326 0
M  V30 5883 H 535.007 -4.15706 -0.240365 0
M  V30 5884 H 537.604 -4.41983 -3.00924 0
M  V30 5885 H 537.947 -2.71371 -3.15695 0
M  V30 5886 H 538.48 -3.59442 -1.7043 0
M  V30 5887 H 535.219 -6.48925 -0.926106 0
M  V30 5888 H 534.739 -5.52275 -2.33991 0
M  V30 5889 H 536.418 -6.09365 -2.17447 0
M  V30 5890 N 536.55 0.480323 -1.50102 0
M  V30 5891 C 537.48 1.58769 -1.71215 0
M  V30 5892 C 538.461 1.60583 -0.560997 0
M  V30 5893 O 539.646 1.76996 -0.799127 0
M  V30 5894 C 536.776 2.97148 -1.79778 0
M  V30 5895 C 535.73 3.10201 -2.94888 0
M  V30 5896 C 535.056 4.50137 -2.88584 0
M  V30 5897 C 536.356 2.88283 -4.35534 0
M  V30 5898 H 538.05 1.41354 -2.6393 0
M  V30 5899 H 535.596 0.678591 -1.27008 0
M  V30 5900 H 537.549 3.74536 -1.93133 0
M  V30 5901 H 536.273 3.15699 -0.836772 0
M  V30 5902 H 534.932 2.35244 -2.81169 0
M  V30 5903 H 534.58 4.65593 -1.90349 0
M  V30 5904 H 534.28 4.59808 -3.65856 0
M  V30 5905 H 535.804 5.29558 -3.03976 0
M  V30 5906 H 537.218 3.55427 -4.49827 0
M  V30 5907 H 535.615 3.09408 -5.14186 0
M  V30 5908 H 536.685 1.84219 -4.48544 0
M  V30 5909 N 538.028 1.39524 0.732853 0
M  V30 5910 C 538.96 1.34318 1.85718 0
M  V30 5911 C 539.973 0.251576 1.60844 0
M  V30 5912 O 541.162 0.510685 1.71039 0
M  V30 5913 C 538.262 1.06334 3.21786 0
M  V30 5914 C 537.435 2.26813 3.73998 0
M  V30 5915 C 536.494 1.95253 4.88634 0
M  V30 5916 O 535.52 2.67957 5.02183 0
M  V30 5917 N 536.722 0.919984 5.73164 0
M  V30 5918 H 539.487 2.3121 1.90688 0
M  V30 5919 H 537.048 1.33654 0.91368 0
M  V30 5920 H 539.04 0.832363 3.96048 0
M  V30 5921 H 537.61 0.181682 3.12072 0
M  V30 5922 H 536.83 2.65849 2.91064 0
M  V30 5923 H 538.118 3.0717 4.05616 0
M  V30 5924 H 537.516 0.317487 5.64808 0
M  V30 5925 H 536.073 0.748905 6.47483 0
M  V30 5926 N 539.506 -0.963266 1.24736 0
M  V30 5927 C 540.922 -1.23273 1.01371 0
M  V30 5928 C 541.122 -1.99618 -0.274776 0
M  V30 5929 O 540.178 -2.32293 -0.989769 0
M  V30 5930 C 541.491 -2.01554 2.23152 0
M  V30 5931 C 543.039 -2.14629 2.27823 0
M  V30 5932 C 543.514 -2.96307 3.49237 0
M  V30 5933 N 545.005 -3.03887 3.49581 0
M  V30 5934 C 545.74 -3.67456 4.40186 0
M  V30 5935 N 545.236 -4.32706 5.41052 0
M  V30 5936 N 547.029 -3.64511 4.27888 0
M  V30 5937 H 539.18 -0.452294 2.07528 0
M  V30 5938 H 541.443 -0.262521 0.910926 0
M  V30 5939 H 541.149 -1.52847 3.1675 0
M  V30 5940 H 541.023 -3.02278 2.25628 0
M  V30 5941 H 543.41 -2.62537 1.34753 0
M  V30 5942 H 543.491 -1.13238 2.2937 0
M  V30 5943 H 543.135 -2.49091 4.42624 0
M  V30 5944 H 543.065 -3.97905 3.44933 0
M  V30 5945 H 545.556 -2.57477 2.76611 0
M  V30 5946 H 545.869 -4.79042 6.06415 0
M  V30 5947 H 544.214 -4.31361 5.44934 0
M  V30 5948 H 547.405 -3.12715 3.4832 0
M  V30 5949 H 547.578 -4.13768 4.98698 0
M  V30 5950 N 540.985 -1.06182 -1.16461 0
M  V30 5951 C 542.213 -0.798583 -1.90867 0
M  V30 5952 C 542.628 0.646921 -1.77371 0
M  V30 5953 O 541.985 1.44279 -1.11758 0
M  V30 5954 C 542.036 -1.18258 -3.4161 0
M  V30 5955 O 541.757 -2.57135 -3.54701 0
M  V30 5956 C 543.258 -0.946917 -4.33069 0
M  V30 5957 H 540.478 -0.289603 -0.605286 0
M  V30 5958 H 543.022 -1.41515 -1.47627 0
M  V30 5959 H 541.177 -0.610562 -3.82558 0
M  V30 5960 H 541.591 -2.72477 -4.4817 0
M  V30 5961 H 543.065 -1.26523 -5.37304 0
M  V30 5962 H 543.542 0.117406 -4.39043 0
M  V30 5963 H 544.148 -1.50326 -3.97847 0
M  V30 5964 N 542.463 1.3308 -0.844243 0
M  V30 5965 C 543.71 1.97605 -0.44255 0
M  V30 5966 C 544.038 1.66856 0.999458 0
M  V30 5967 O 543.293 0.943586 1.7145 0
M  V30 5968 C 543.592 3.52045 -0.616354 0
M  V30 5969 C 543.258 4.02757 -2.02726 0
M  V30 5970 C 541.92 4.16316 -2.41317 0
M  V30 5971 C 544.272 4.29776 -2.9486 0
M  V30 5972 C 541.6 4.54232 -3.71335 0
M  V30 5973 C 543.952 4.69146 -4.24364 0
M  V30 5974 C 542.616 4.80911 -4.62904 0
M  V30 5975 H 541.886 0.723088 -0.161941 0
M  V30 5976 H 544.533 1.58663 -1.0723 0
M  V30 5977 H 542.838 3.91681 0.0966812 0
M  V30 5978 H 544.535 3.99981 -0.285756 0
M  V30 5979 H 541.125 3.9268 -1.71756 0
M  V30 5980 H 545.309 4.18818 -2.6628 0
M  V30 5981 H 540.565 4.61535 -4.00993 0
M  V30 5982 H 544.739 4.89008 -4.95827 0
M  V30 5983 H 542.366 5.10048 -5.63698 0
M  V30 5984 N 543.941 0.601185 1.45683 0
M  V30 5985 C 544.871 -0.108824 2.33246 0
M  V30 5986 C 545.852 -0.865223 1.46451 0
M  V30 5987 O 547.037 -0.83704 1.75235 0
M  V30 5988 C 544.167 -1.11101 3.2905 0
M  V30 5989 C 543.121 -0.468244 4.25431 0
M  V30 5990 C 542.447 -1.57822 5.10878 0
M  V30 5991 C 543.747 0.606469 5.18767 0
M  V30 5992 H 545.441 0.622306 2.92861 0
M  V30 5993 H 542.987 0.300714 1.40825 0
M  V30 5994 H 544.94 -1.61622 3.89174 0
M  V30 5995 H 543.664 -1.87265 2.67581 0
M  V30 5996 H 542.323 0.0160484 3.66596 0
M  V30 5997 H 541.971 -2.32998 4.45781 0
M  V30 5998 H 541.671 -1.15369 5.76163 0
M  V30 5999 H 543.195 -2.08583 5.73869 0
M  V30 6000 H 544.609 0.185589 5.73 0
M  V30 6001 H 543.006 0.952381 5.92494 0
M  V30 6002 H 544.076 1.48559 4.61582 0
M  V30 6003 N 545.419 -1.53889 0.339982 0
M  V30 6004 C 546.351 -2.22435 -0.55275 0
M  V30 6005 C 547.364 -1.22975 -1.06681 0
M  V30 6006 O 548.553 -1.49351 -0.977575 0
M  V30 6007 C 545.653 -2.8882 -1.77302 0
M  V30 6008 C 544.826 -4.14563 -1.39486 0
M  V30 6009 C 543.885 -4.64391 -2.47442 0
M  V30 6010 O 542.911 -5.28687 -2.10899 0
M  V30 6011 N 544.113 -4.40015 -3.78639 0
M  V30 6012 H 546.878 -2.9968 0.0342669 0
M  V30 6013 H 544.439 -1.61068 0.16394 0
M  V30 6014 H 546.431 -3.19072 -2.48948 0
M  V30 6015 H 545.001 -2.15182 -2.26749 0
M  V30 6016 H 544.221 -3.90896 -0.509321 0
M  V30 6017 H 545.509 -4.96362 -1.11813 0
M  V30 6018 H 544.907 -3.88586 -4.11118 0
M  V30 6019 H 543.464 -4.74881 -4.46465 0
M  V30 6020 N 546.897 -0.0685191 -1.57451 0
M  V30 6021 C 547.86 0.885173 -2.11417 0
M  V30 6022 C 548.86 1.22853 -1.03748 0
M  V30 6023 O 550.05 1.16235 -1.2975 0
M  V30 6024 C 547.182 2.18964 -2.61281 0
M  V30 6025 H 548.375 0.417034 -2.96986 0
M  V30 6026 H 545.928 0.18014 -1.55258 0
M  V30 6027 H 546.663 2.70321 -1.79156 0
M  V30 6028 H 546.448 1.9534 -3.39977 0
M  V30 6029 H 547.938 2.87242 -3.0312 0
M  V30 6030 N 548.375 1.56261 0.205012 0
M  V30 6031 C 549.6 1.84491 0.947512 0
M  V30 6032 C 550.025 0.650894 1.76479 0
M  V30 6033 O 549.383 -0.40035 1.76824 0
M  V30 6034 C 549.431 3.10863 1.82747 0
M  V30 6035 O 548.535 2.90719 2.925 0
M  V30 6036 H 547.876 0.607783 0.267386 0
M  V30 6037 H 550.406 2.03485 0.213323 0
M  V30 6038 H 550.416 3.41399 2.23407 0
M  V30 6039 H 549.091 3.97392 1.2269 0
M  V30 6040 H 547.668 2.71457 2.55667 0
M  V30 6041 N 549.853 -0.472356 1.50355 0
M  V30 6042 C 551.083 -1.24603 1.64796 0
M  V30 6043 C 551.491 -1.86297 0.330156 0
M  V30 6044 O 550.834 -1.69934 -0.697728 0
M  V30 6045 C 550.896 -2.39578 2.68035 0
M  V30 6046 C 550.56 -1.98531 4.11624 0
M  V30 6047 C 551.557 -1.50856 4.97532 0
M  V30 6048 C 549.242 -2.0729 4.57532 0
M  V30 6049 C 551.236 -1.12481 6.27397 0
M  V30 6050 C 548.923 -1.68527 5.87403 0
M  V30 6051 C 549.921 -1.212 6.7216 0
M  V30 6052 O 549.609 -0.829728 7.99607 0
M  V30 6053 H 549.341 -0.383035 0.55701 0
M  V30 6054 H 551.895 -0.570392 1.97321 0
M  V30 6055 H 550.125 -3.10309 2.30749 0
M  V30 6056 H 551.814 -3.01544 2.71709 0
M  V30 6057 H 552.58 -1.43511 4.63281 0
M  V30 6058 H 548.459 -2.43076 3.91708 0
M  V30 6059 H 552.003 -0.754698 6.93506 0
M  V30 6060 H 547.9 -1.7553 6.21176 0
M  V30 6061 H 548.668 -0.958689 8.12866 0
M  V30 6062 N 551.331 -1.39911 -0.725443 0
M  V30 6063 C 552.561 -1.40744 -1.51244 0
M  V30 6064 C 552.969 -0.00275403 -1.892 0
M  V30 6065 O 552.312 0.981299 -1.55294 0
M  V30 6066 C 552.374 -2.22527 -2.82351 0
M  V30 6067 C 552.038 -3.71053 -2.66774 0
M  V30 6068 C 553.035 -4.63916 -2.34686 0
M  V30 6069 C 550.72 -4.14753 -2.83347 0
M  V30 6070 C 552.714 -5.98463 -2.19366 0
M  V30 6071 C 550.401 -5.49372 -2.67644 0
M  V30 6072 C 551.399 -6.41042 -2.357 0
M  V30 6073 O 551.087 -7.73181 -2.20107 0
M  V30 6074 H 550.819 -0.482314 -0.473655 0
M  V30 6075 H 553.373 -1.84472 -0.903284 0
M  V30 6076 H 551.603 -1.73563 -3.45562 0
M  V30 6077 H 553.292 -2.15421 -3.44018 0
M  V30 6078 H 554.058 -4.31453 -2.21525 0
M  V30 6079 H 549.937 -3.43728 -3.072 0
M  V30 6080 H 553.481 -6.69979 -1.94354 0
M  V30 6081 H 549.378 -5.81424 -2.80387 0
M  V30 6082 H 550.146 -7.84008 -2.35103 0
M  V30 6083 N 552.809 0.956637 -1.25245 0
M  V30 6084 C 554.055 1.70352 -1.10036 0
M  V30 6085 C 554.388 1.90869 0.358156 0
M  V30 6086 O 553.663 1.47819 1.26411 0
M  V30 6087 C 553.946 3.08766 -1.85298 0
M  V30 6088 C 553.799 2.95672 -3.38966 0
M  V30 6089 C 555.118 4.08622 -1.63451 0
M  V30 6090 H 552.237 0.618279 -0.401123 0
M  V30 6091 H 554.879 1.11212 -1.54051 0
M  V30 6092 H 553.029 3.59252 -1.47887 0
M  V30 6093 H 554.701 2.52527 -3.86041 0
M  V30 6094 H 552.944 2.31634 -3.6678 0
M  V30 6095 H 553.615 3.93776 -3.86839 0
M  V30 6096 H 556.091 3.67038 -1.96015 0
M  V30 6097 H 554.967 5.03514 -2.18551 0
M  V30 6098 H 555.228 4.3834 -0.575357 0
M  V30 6099 N 554.287 1.06798 1.15896 0
M  V30 6100 C 555.515 0.808694 1.90441 0
M  V30 6101 C 555.93 -0.637506 1.77711 0
M  V30 6102 O 555.287 -1.43684 1.12522 0
M  V30 6103 C 555.338 1.20068 3.40978 0
M  V30 6104 O 555.059 2.59013 3.53333 0
M  V30 6105 C 556.56 0.96987 4.3256 0
M  V30 6106 H 553.78 0.292809 0.603742 0
M  V30 6107 H 556.324 1.42296 1.46874 0
M  V30 6108 H 554.479 0.630842 3.82229 0
M  V30 6109 H 554.893 2.7485 4.46719 0
M  V30 6110 H 556.367 1.29371 5.36626 0
M  V30 6111 H 556.844 -0.0941209 4.39099 0
M  V30 6112 H 557.45 1.52433 3.97044 0
M  V30 6113 N 555.766 -1.3263 0.851289 0
M  V30 6114 C 557.015 -1.96633 0.449267 0
M  V30 6115 C 557.328 -1.68131 -0.999562 0
M  V30 6116 O 558.534 -2.25845 -1.50685 0
M  V30 6117 C 556.99 -3.51946 0.752446 0
M  V30 6118 C 556.598 -3.89311 2.21678 0
M  V30 6119 C 558.342 -4.22437 0.417983 0
M  V30 6120 C 556.249 -5.37655 2.46336 0
M  V30 6121 H 555.179 -0.735888 0.164269 0
M  V30 6122 H 557.83 -1.51073 1.0416 0
M  V30 6123 H 556.212 -3.95899 0.0895858 0
M  V30 6124 H 557.386 -3.56378 2.92115 0
M  V30 6125 H 555.701 -3.31836 2.51543 0
M  V30 6126 H 558.298 -5.31549 0.579674 0
M  V30 6127 H 558.641 -4.11349 -0.640115 0
M  V30 6128 H 559.174 -3.84057 1.03659 0
M  V30 6129 H 555.913 -5.5376 3.50757 0
M  V30 6130 H 555.433 -5.72005 1.80473 0
M  V30 6131 H 557.112 -6.04695 2.30115 0
M  V30 6132 N 557.244 -0.608902 -1.45362 0
M  V30 6133 C 558.154 0.110969 -2.34337 0
M  V30 6134 C 559.17 0.859007 -1.51318 0
M  V30 6135 O 560.346 0.816296 -1.84116 0
M  V30 6136 C 557.411 1.09494 -3.28956 0
M  V30 6137 C 556.472 0.348718 -4.27881 0
M  V30 6138 C 555.705 1.28582 -5.17979 0
M  V30 6139 O 555.928 2.52369 -5.11533 0
M  V30 6140 O 554.862 0.782172 -5.96796 0
M  V30 6141 H 558.688 -0.620258 -2.97299 0
M  V30 6142 H 556.273 -0.36916 -1.44767 0
M  V30 6143 H 558.155 1.66163 -3.87257 0
M  V30 6144 H 556.83 1.80717 -2.68557 0
M  V30 6145 H 555.737 -0.260465 -3.73192 0
M  V30 6146 H 557.07 -0.323049 -4.91139 0
M  V30 6147 N 558.722 1.53707 -0.348139 0
M  V30 6148 C 559.95 2.05406 0.248224 0
M  V30 6149 C 560.365 1.22282 1.43849 0
M  V30 6150 O 559.722 0.259244 1.80649 0
M  V30 6151 C 559.773 3.55446 0.658793 0
M  V30 6152 O 559.494 4.35417 -0.484149 0
M  V30 6153 C 560.995 4.23335 1.31539 0
M  V30 6154 H 558.215 0.669344 0.0471075 0
M  V30 6155 H 560.759 1.98257 -0.501456 0
M  V30 6156 H 558.914 3.62803 1.35841 0
M  V30 6157 H 559.328 5.24268 -0.155949 0
M  V30 6158 H 560.802 5.29692 1.55338 0
M  V30 6159 H 561.279 3.75967 2.27036 0
M  V30 6160 H 561.885 4.20184 0.657683 0
M  V30 6161 N 560.2 0.0768682 1.57412 0
M  V30 6162 C 561.448 -0.589918 1.93299 0
M  V30 6163 C 561.769 -1.69842 0.958049 0
M  V30 6164 O 561.039 -1.95899 0.00703261 0
M  V30 6165 H 559.619 -0.220901 0.713591 0
M  V30 6166 H 562.281 0.135917 1.94425 0
M  V30 6167 H 561.377 -1.01195 2.95239 0
M  V30 6168 N 561.678 -1.56367 -0.196722 0
M  V30 6169 C 562.927 -1.79724 -0.915539 0
M  V30 6170 C 563.24 -0.649804 -1.84491 0
M  V30 6171 O 564.446 -0.767631 -2.60422 0
M  V30 6172 C 562.902 -3.18369 -1.67836 0
M  V30 6173 C 562.51 -4.4091 -0.793897 0
M  V30 6174 C 564.254 -3.51037 -2.38691 0
M  V30 6175 C 562.161 -5.70577 -1.55549 0
M  V30 6176 H 561.091 -0.67013 -0.345604 0
M  V30 6177 H 563.742 -1.82721 -0.168856 0
M  V30 6178 H 562.124 -3.09617 -2.46887 0
M  V30 6179 H 563.298 -4.60781 -0.042163 0
M  V30 6180 H 561.613 -4.15937 -0.19626 0
M  V30 6181 H 564.21 -4.4515 -2.96219 0
M  V30 6182 H 564.553 -2.74704 -3.12799 0
M  V30 6183 H 565.086 -3.61229 -1.66608 0
M  V30 6184 H 561.825 -6.49871 -0.857226 0
M  V30 6185 H 561.345 -5.54726 -2.2812 0
M  V30 6186 H 563.024 -6.11637 -2.10971 0
M  V30 6187 N 563.156 0.464375 -1.50603 0
M  V30 6188 C 564.104 1.58224 -1.70493 0
M  V30 6189 C 565.098 1.59492 -0.570836 0
M  V30 6190 O 566.304 1.63561 -0.751517 0
M  V30 6191 H 562.679 0.525161 -0.538247 0
M  V30 6192 H 564.65 1.38613 -2.64252 0
M  V30 6193 C 563.399 2.96113 -1.82243 0
M  V30 6194 H 562.722 2.95858 -2.68901 0
M  V30 6195 H 564.162 3.73769 -2.00182 0
M  V30 6196 C 562.621 3.31946 -0.575628 0
M  V30 6197 O 563.151 4.00708 0.282152 0
M  V30 6198 N 561.357 2.87436 -0.427665 0
M  V30 6199 H 560.904 2.31652 -1.12674 0
M  V30 6200 H 560.862 3.11776 0.405379 0
M  V30 6201 N 564.634 1.40294 0.718013 0
M  V30 6202 C 565.564 1.43118 1.84498 0
M  V30 6203 C 566.545 0.292403 1.67568 0
M  V30 6204 O 567.73 0.500675 1.87635 0
M  V30 6205 C 564.86 1.29065 3.22427 0
M  V30 6206 C 563.814 2.40521 3.54025 0
M  V30 6207 C 563.14 2.11546 4.91073 0
M  V30 6208 C 564.44 3.82859 3.55269 0
M  V30 6209 H 566.134 2.37432 1.82391 0
M  V30 6210 H 563.68 1.14283 0.87609 0
M  V30 6211 H 565.633 1.29658 4.00957 0
M  V30 6212 H 564.357 0.312271 3.25104 0
M  V30 6213 H 563.016 2.39173 2.77834 0
M  V30 6214 H 562.664 1.12104 4.90348 0
M  V30 6215 H 562.364 2.86216 5.1318 0
M  V30 6216 H 563.888 2.13817 5.71939 0
M  V30 6217 H 565.302 3.86044 4.23843 0
M  V30 6218 H 563.699 4.57029 3.88902 0
M  V30 6219 H 564.769 4.12617 2.54706 0
M  V30 6220 N 566.112 -0.949982 1.2575 0
M  V30 6221 C 567.528 -1.22191 1.02672 0
M  V30 6222 C 567.728 -1.99898 -0.253588 0
M  V30 6223 O 566.784 -2.33329 -0.965076 0
M  V30 6224 C 568.097 -1.99175 2.25277 0
M  V30 6225 C 569.645 -2.12201 2.30087 0
M  V30 6226 C 570.12 -2.92586 3.5236 0
M  V30 6227 N 571.611 -3.00163 3.52784 0
M  V30 6228 C 572.346 -3.62766 4.44059 0
M  V30 6229 N 571.842 -4.26943 5.45611 0
M  V30 6230 N 573.635 -3.59953 4.3173 0
M  V30 6231 H 565.786 -0.430258 2.07996 0
M  V30 6232 H 568.049 -0.252844 0.91366 0
M  V30 6233 H 567.755 -1.49479 3.18354 0
M  V30 6234 H 567.629 -2.99868 2.28821 0
M  V30 6235 H 570.016 -2.61093 1.3753 0
M  V30 6236 H 570.097 -1.10799 2.30559 0
M  V30 6237 H 569.741 -2.44383 4.45241 0
M  V30 6238 H 569.671 -3.94224 3.49134 0
M  V30 6239 H 572.162 -2.54529 2.79327 0
M  V30 6240 H 572.475 -4.72583 6.11461 0
M  V30 6241 H 570.82 -4.25557 5.49478 0
M  V30 6242 H 574.011 -3.09003 3.51617 0
M  V30 6243 H 574.184 -4.08455 5.03059 0
M  V30 6244 N 567.59 -1.07411 -1.15328 0
M  V30 6245 C 568.838 -0.796073 -1.85761 0
M  V30 6246 C 569.159 0.679864 -1.82764 0
M  V30 6247 O 568.429 1.49242 -1.269 0
M  V30 6248 H 567.009 -0.291495 -0.687779 0
M  V30 6249 H 569.671 -1.35799 -1.39802 0
M  V30 6250 H 568.767 -1.13114 -2.90881 0
M  V30 6251 N 569.068 1.32177 -0.85831 0
M  V30 6252 C 570.031 2.27086 -0.310588 0
M  V30 6253 C 571.031 1.51751 0.531806 0
M  V30 6254 O 572.221 1.70794 0.34279 0
M  V30 6255 C 569.353 3.36266 0.560179 0
M  V30 6256 H 570.546 2.77045 -1.1483 0
M  V30 6257 H 568.099 1.42911 -0.632942 0
M  V30 6258 H 568.834 2.9158 1.41956 0
M  V30 6259 H 568.619 3.92077 -0.0428473 0
M  V30 6260 H 570.109 4.06974 0.936056 0
M  V30 6261 N 570.547 0.616602 1.45037 0
M  V30 6262 C 571.477 -0.0840787 2.33349 0
M  V30 6263 C 572.458 -0.849641 1.4736 0
M  V30 6264 O 573.643 -0.818407 1.76113 0
M  V30 6265 C 570.773 -1.07604 3.3021 0
M  V30 6266 C 569.727 -0.423096 4.25904 0
M  V30 6267 C 569.053 -1.52394 5.12523 0
M  V30 6268 C 570.353 0.661457 5.18095 0
M  V30 6269 H 572.047 0.653333 2.92185 0
M  V30 6270 H 569.593 0.315634 1.40498 0
M  V30 6271 H 571.546 -1.57485 3.90866 0
M  V30 6272 H 570.27 -1.84416 2.69552 0
M  V30 6273 H 568.929 0.05493 3.66559 0
M  V30 6274 H 568.577 -2.28257 4.48227 0
M  V30 6275 H 568.277 -1.09251 5.77354 0
M  V30 6276 H 569.801 -2.02485 5.76049 0
M  V30 6277 H 571.215 0.246353 5.7277 0
M  V30 6278 H 569.612 1.01517 5.91451 0
M  V30 6279 H 570.682 1.53446 4.59981 0
M  V30 6280 N 572.025 -1.5352 0.356285 0
M  V30 6281 C 572.955 -2.28372 -0.486661 0
M  V30 6282 C 573.936 -1.30432 -1.09185 0
M  V30 6283 O 575.121 -1.59291 -1.11085 0
M  V30 6284 C 572.251 -3.06604 -1.63129 0
M  V30 6285 C 571.205 -4.12154 -1.15381 0
M  V30 6286 C 570.531 -4.78415 -2.38796 0
M  V30 6287 C 571.831 -5.21724 -0.245179 0
M  V30 6288 H 573.525 -2.99083 0.137797 0
M  V30 6289 H 571.071 -1.43841 0.0677134 0
M  V30 6290 H 573.024 -3.57712 -2.22755 0
M  V30 6291 H 571.748 -2.33568 -2.28284 0
M  V30 6292 H 570.407 -3.61978 -0.580294 0
M  V30 6293 H 570.055 -4.01959 -3.02387 0
M  V30 6294 H 569.755 -5.49734 -2.07524 0
M  V30 6295 H 571.279 -5.32313 -2.99125 0
M  V30 6296 H 572.693 -5.68391 -0.748646 0
M  V30 6297 H 571.09 -6.00095 -0.0237608 0
M  V30 6298 H 572.16 -4.79596 0.715229 0
M  V30 6299 N 573.503 -0.0852151 -1.57369 0
M  V30 6300 C 574.466 0.8627 -2.12344 0
M  V30 6301 C 575.466 1.21746 -1.05046 0
M  V30 6302 O 576.656 1.14852 -1.30976 0
M  V30 6303 C 573.788 2.1618 -2.63589 0
M  V30 6304 H 574.981 0.385511 -2.97412 0
M  V30 6305 H 572.534 0.163663 -1.55441 0
M  V30 6306 H 573.269 2.68406 -1.82013 0
M  V30 6307 H 573.054 1.91723 -3.4203 0
M  V30 6308 H 574.544 2.84011 -3.06149 0
M  V30 6309 N 574.981 1.5647 0.188427 0
M  V30 6310 C 575.914 1.90146 1.26173 0
M  V30 6311 C 576.892 0.762294 1.43624 0
M  V30 6312 O 578.076 1.01395 1.58907 0
M  V30 6313 C 575.203 2.13748 2.62735 0
M  V30 6314 C 574.249 3.36448 2.62116 0
M  V30 6315 S 575.082 4.91364 2.12889 0
M  V30 6316 C 576.238 5.18041 3.51261 0
M  V30 6317 H 576.471 2.80886 0.974192 0
M  V30 6318 H 574.004 1.49335 0.392226 0
M  V30 6319 H 575.962 2.28028 3.41341 0
M  V30 6320 H 574.623 1.23747 2.88696 0
M  V30 6321 H 573.816 3.50109 3.62546 0
M  V30 6322 H 573.418 3.21196 1.91596 0
M  V30 6323 H 575.71 5.0897 4.47164 0
M  V30 6324 H 576.653 6.19764 3.42489 0
M  V30 6325 H 577.061 4.45657 3.46482 0
M  V30 6326 N 576.459 -0.456382 1.50847 0
M  V30 6327 C 577.708 -1.2042 1.61808 0
M  V30 6328 C 578.021 -1.9278 0.330932 0
M  V30 6329 O 579.227 -2.69612 0.319643 0
M  V30 6330 C 577.683 -2.18891 2.85683 0
M  V30 6331 C 577.291 -1.52267 4.2133 0
M  V30 6332 C 579.035 -2.94224 3.05994 0
M  V30 6333 C 576.942 -2.4911 5.36375 0
M  V30 6334 H 575.872 -0.453177 0.602616 0
M  V30 6335 H 578.523 -0.473144 1.77295 0
M  V30 6336 H 576.905 -2.95351 2.63787 0
M  V30 6337 H 578.079 -0.814949 4.53536 0
M  V30 6338 H 576.394 -0.891594 4.06743 0
M  V30 6339 H 578.991 -3.66732 3.89117 0
M  V30 6340 H 579.334 -3.54469 2.18306 0
M  V30 6341 H 579.867 -2.24874 3.28141 0
M  V30 6342 H 576.606 -1.93582 6.26264 0
M  V30 6343 H 576.126 -3.17991 5.08569 0
M  V30 6344 H 577.805 -3.10637 5.67551 0
M  V30 6345 N 577.937 -1.40673 -0.710563 0
M  V30 6346 C 579.167 -1.4234 -1.49742 0
M  V30 6347 C 579.575 -0.022821 -1.89186 0
M  V30 6348 O 578.918 0.964773 -1.56326 0
M  V30 6349 C 578.98 -2.25509 -2.79975 0
M  V30 6350 C 578.644 -3.73862 -2.62824 0
M  V30 6351 C 579.641 -4.66379 -2.29752 0
M  V30 6352 C 577.326 -4.17735 -2.78932 0
M  V30 6353 C 579.32 -6.00756 -2.13006 0
M  V30 6354 C 577.007 -5.5218 -2.61802 0
M  V30 6355 C 578.005 -6.43505 -2.28888 0
M  V30 6356 O 577.693 -7.75472 -2.11894 0
M  V30 6357 H 577.425 -0.487311 -0.468513 0
M  V30 6358 H 579.979 -1.8542 -0.883668 0
M  V30 6359 H 578.209 -1.77218 -3.43701 0
M  V30 6360 H 579.898 -2.19058 -3.41714 0
M  V30 6361 H 580.664 -4.33778 -2.16936 0
M  V30 6362 H 576.543 -3.46967 -3.03537 0
M  V30 6363 H 580.087 -6.72003 -1.87237 0
M  V30 6364 H 575.984 -5.84365 -2.74204 0
M  V30 6365 H 576.752 -7.86458 -2.26775 0
M  V30 6366 N 579.415 0.9433 -1.26252 0
M  V30 6367 C 580.363 2.06302 -1.07434 0
M  V30 6368 C 581.357 1.694 -0.00189471 0
M  V30 6369 O 582.563 1.79302 -0.158408 0
M  V30 6370 H 578.938 0.675453 -0.330556 0
M  V30 6371 H 580.909 2.19326 -2.02333 0
M  V30 6372 C 579.658 3.40125 -0.721817 0
M  V30 6373 H 578.981 3.68996 -1.5389 0
M  V30 6374 H 580.421 4.19295 -0.629922 0
M  V30 6375 C 578.88 3.31993 0.572902 0
M  V30 6376 O 579.41 3.67945 1.61182 0
M  V30 6377 N 577.616 2.85099 0.562748 0
M  V30 6378 H 577.163 2.5604 -0.283092 0
M  V30 6379 H 577.121 2.80041 1.42915 0
M  V30 6380 N 580.893 1.08022 1.14757 0
M  V30 6381 C 581.84 0.706657 2.19716 0
M  V30 6382 C 582.81 -0.30525 1.63271 0
M  V30 6383 O 583.995 -0.19015 1.8985 0
M  V30 6384 C 581.135 0.117914 3.44898 0
M  V30 6385 C 580.248 1.18212 4.15512 0
M  V30 6386 C 579.383 0.557659 5.28265 0
M  V30 6387 C 578.422 1.60418 5.90705 0
M  V30 6388 N 577.559 1.0018 6.94916 0
M  V30 6389 H 582.399 1.60603 2.51019 0
M  V30 6390 H 579.936 0.802664 1.23271 0
M  V30 6391 H 581.894 -0.241112 4.16503 0
M  V30 6392 H 580.524 -0.744788 3.1409 0
M  V30 6393 H 579.576 1.65863 3.42335 0
M  V30 6394 H 580.888 1.97533 4.5802 0
M  V30 6395 H 580.042 0.146654 6.06523 0
M  V30 6396 H 578.781 -0.267249 4.86967 0
M  V30 6397 H 577.786 2.02489 5.11154 0
M  V30 6398 H 579.011 2.43149 6.34078 0
M  V30 6399 H 576.957 0.197917 6.55701 0
M  V30 6400 H 576.874 1.73216 7.35889 0
M  V30 6401 H 578.142 0.616523 7.77058 0
M  V30 6402 N 582.371 -1.3172 0.865308 0
M  V30 6403 C 583.62 -1.96145 0.470098 0
M  V30 6404 C 583.933 -1.69182 -0.981674 0
M  V30 6405 O 585.139 -2.27431 -1.48281 0
M  V30 6406 C 583.595 -3.51129 0.789732 0
M  V30 6407 C 583.203 -3.86938 2.25795 0
M  V30 6408 C 584.947 -4.2197 0.462765 0
M  V30 6409 C 582.854 -5.35012 2.52024 0
M  V30 6410 H 581.784 -0.734105 0.172065 0
M  V30 6411 H 584.435 -1.49959 1.05757 0
M  V30 6412 H 582.817 -3.95781 0.131571 0
M  V30 6413 H 583.991 -3.5326 2.95879 0
M  V30 6414 H 582.306 -3.29149 2.55049 0
M  V30 6415 H 584.903 -5.30904 0.636019 0
M  V30 6416 H 585.246 -4.12005 -0.59645 0
M  V30 6417 H 585.779 -3.82936 1.07727 0
M  V30 6418 H 582.518 -5.50008 3.56611 0
M  V30 6419 H 582.038 -5.70058 1.8653 0
M  V30 6420 H 583.717 -6.0222 2.36515 0
M  V30 6421 N 583.85 -0.624285 -1.44708 0
M  V30 6422 C 584.779 0.0717025 -2.3339 0
M  V30 6423 C 585.76 0.841814 -1.47809 0
M  V30 6424 O 586.946 0.809056 -1.76544 0
M  V30 6425 C 584.076 1.05852 -3.30776 0
M  V30 6426 C 583.029 0.400503 -4.26122 0
M  V30 6427 C 582.356 1.49674 -5.13324 0
M  V30 6428 C 583.656 -0.688924 -5.17737 0
M  V30 6429 H 585.35 -0.668819 -2.91834 0
M  V30 6430 H 582.896 -0.32308 -1.40329 0
M  V30 6431 H 584.849 1.5541 -3.91696 0
M  V30 6432 H 583.572 1.82984 -2.70526 0
M  V30 6433 H 582.231 -0.0743687 -3.66525 0
M  V30 6434 H 581.88 2.25877 -4.49431 0
M  V30 6435 H 581.58 1.06188 -5.77926 0
M  V30 6436 H 583.104 1.99427 -5.77115 0
M  V30 6437 H 584.518 -0.276724 -5.72632 0
M  V30 6438 H 582.915 -1.04652 -5.90904 0
M  V30 6439 H 583.985 -1.55884 -4.5916 0
M  V30 6440 N 585.328 1.53329 -0.364422 0
M  V30 6441 C 586.744 1.59594 -0.0133165 0
M  V30 6442 C 586.944 1.37959 1.46865 0
M  V30 6443 O 586 1.18418 2.2301 0
M  V30 6444 C 587.313 2.97032 -0.468213 0
M  V30 6445 C 588.861 3.10138 -0.422334 0
M  V30 6446 C 589.336 4.49986 -0.853024 0
M  V30 6447 N 590.827 4.56098 -0.808037 0
M  V30 6448 C 591.562 5.62495 -1.11299 0
M  V30 6449 N 591.058 6.7665 -1.48717 0
M  V30 6450 N 592.851 5.52473 -1.03586 0
M  V30 6451 H 585.002 1.65644 -1.32951 0
M  V30 6452 H 587.265 0.77684 -0.543345 0
M  V30 6453 H 586.971 3.18 -1.5023 0
M  V30 6454 H 586.845 3.76918 0.145775 0
M  V30 6455 H 589.232 2.88881 0.602622 0
M  V30 6456 H 589.313 2.32263 -1.0718 0
M  V30 6457 H 588.957 4.7198 -1.87609 0
M  V30 6458 H 588.887 5.26289 -0.180819 0
M  V30 6459 H 591.378 3.74131 -0.532361 0
M  V30 6460 H 591.691 7.53776 -1.70415 0
M  V30 6461 H 590.036 6.78044 -1.52581 0
M  V30 6462 H 593.227 4.6217 -0.742736 0
M  V30 6463 H 593.4 6.35295 -1.27686 0
M  V30 6464 N 586.806 0.0935595 1.57322 0
M  V30 6465 C 587.736 -0.863062 2.16964 0
M  V30 6466 C 588.717 -1.29528 1.10256 0
M  V30 6467 O 589.902 -1.36245 1.38387 0
M  V30 6468 C 587.032 -2.12276 2.74875 0
M  V30 6469 C 585.986 -1.82921 3.86942 0
M  V30 6470 C 585.312 -3.15707 4.31548 0
M  V30 6471 C 586.612 -1.11737 5.10208 0
M  V30 6472 H 588.306 -0.366145 2.97153 0
M  V30 6473 H 585.852 -0.174673 1.42937 0
M  V30 6474 H 587.805 -2.79634 3.1525 0
M  V30 6475 H 586.529 -2.64248 1.91938 0
M  V30 6476 H 585.188 -1.17961 3.47103 0
M  V30 6477 H 584.836 -3.65563 3.45504 0
M  V30 6478 H 584.536 -2.96849 5.07104 0
M  V30 6479 H 586.06 -3.84226 4.74555 0
M  V30 6480 H 587.474 -1.69203 5.47762 0
M  V30 6481 H 585.871 -1.03064 5.91183 0
M  V30 6482 H 586.941 -0.0998818 4.84797 0
M  V30 6483 N 588.284 -1.56567 -0.180126 0
M  V30 6484 C 589.509 -1.85975 -0.918041 0
M  V30 6485 C 589.934 -0.678888 -1.75422 0
M  V30 6486 O 589.292 0.372168 -1.77439 0
M  V30 6487 C 589.34 -3.13731 -1.77779 0
M  V30 6488 O 588.444 -2.95335 -2.87838 0
M  V30 6489 H 587.785 -0.61196 -0.257683 0
M  V30 6490 H 590.315 -2.03798 -0.180923 0
M  V30 6491 H 590.325 -3.4491 -2.17948 0
M  V30 6492 H 589 -3.99293 -1.16352 0
M  V30 6493 H 587.577 -2.7549 -2.51316 0
M  V30 6494 N 589.762 0.448376 -1.51087 0
M  V30 6495 C 590.99 1.22143 -1.66999 0
M  V30 6496 C 591.405 1.85283 -0.362699 0
M  V30 6497 O 590.762 1.70236 0.65772 0
M  V30 6498 C 590.813 2.31357 -2.7777 0
M  V30 6499 O 590.534 1.70801 -4.03434 0
M  V30 6500 C 592.035 3.21836 -3.04855 0
M  V30 6501 H 589.255 0.368558 -0.560719 0
M  V30 6502 H 591.799 0.532618 -1.97442 0
M  V30 6503 H 589.954 2.95973 -2.49958 0
M  V30 6504 H 590.368 2.42895 -4.64868 0
M  V30 6505 H 591.842 3.94627 -3.85971 0
M  V30 6506 H 592.319 3.81949 -2.16821 0
M  V30 6507 H 592.925 2.62933 -3.34285 0
M  V30 6508 N 591.24 1.41047 0.703093 0
M  V30 6509 C 592.465 1.43537 1.49706 0
M  V30 6510 C 592.89 0.0401853 1.88057 0
M  V30 6511 O 592.248 -0.954785 1.54122 0
M  V30 6512 C 592.296 2.3433 2.74084 0
M  V30 6513 O 591.4 1.79515 3.71279 0
M  V30 6514 H 590.741 0.487454 0.450871 0
M  V30 6515 H 593.271 1.85422 0.86486 0
M  V30 6516 H 593.281 2.49947 3.22476 0
M  V30 6517 H 591.956 3.35708 2.45506 0
M  V30 6518 H 590.533 1.7331 3.30179 0
M  V30 6519 N 592.718 -0.936591 1.26751 0
M  V30 6520 C 593.666 -2.0573 1.08527 0
M  V30 6521 C 594.66 -1.69397 0.0108784 0
M  V30 6522 O 595.866 -1.79215 0.167915 0
M  V30 6523 H 592.241 -0.673691 0.334133 0
M  V30 6524 H 594.212 -2.1825 2.03493 0
M  V30 6525 C 592.961 -3.39738 0.739845 0
M  V30 6526 H 592.284 -3.68174 1.55845 0
M  V30 6527 H 593.724 -4.18955 0.652149 0
M  V30 6528 C 592.183 -3.32292 -0.555288 0
M  V30 6529 O 592.713 -3.68794 -1.59229 0
M  V30 6530 N 590.919 -2.85394 -0.54762 0
M  V30 6531 H 590.466 -2.55886 0.296667 0
M  V30 6532 H 590.424 -2.80795 -1.41427 0
M  V30 6533 N 594.196 -1.08629 -1.14182 0
M  V30 6534 C 595.126 -0.740003 -2.21464 0
M  V30 6535 C 596.107 0.278591 -1.67803 0
M  V30 6536 O 597.292 0.148461 -1.93632 0
M  V30 6537 C 594.422 -0.150952 -3.46972 0
M  V30 6538 C 593.376 -1.09815 -4.13672 0
M  V30 6539 C 592.702 -0.3712 -5.3341 0
M  V30 6540 C 594.002 -2.43722 -4.61949 0
M  V30 6541 H 595.696 -1.63697 -2.50686 0
M  V30 6542 H 593.242 -0.788526 -1.20492 0
M  V30 6543 H 595.195 0.103325 -4.21273 0
M  V30 6544 H 593.919 0.781164 -3.1712 0
M  V30 6545 H 592.578 -1.33756 -3.41328 0
M  V30 6546 H 592.226 0.564792 -4.99819 0
M  V30 6547 H 591.926 -1.00267 -5.78982 0
M  V30 6548 H 593.45 -0.12503 -6.10472 0
M  V30 6549 H 594.864 -2.24034 -5.27714 0
M  V30 6550 H 593.261 -3.02582 -5.18232 0
M  V30 6551 H 594.331 -3.05082 -3.76899 0
M  V30 6552 N 595.674 1.31259 -0.872281 0
M  V30 6553 C 596.899 2.0133 -0.498099 0
M  V30 6554 C 597.324 1.65031 0.902568 0
M  V30 6555 O 596.682 0.860164 1.59596 0
M  V30 6556 C 596.73 3.54411 -0.665205 0
M  V30 6557 O 595.834 4.11347 0.294473 0
M  V30 6558 H 595.175 0.633844 -0.197832 0
M  V30 6559 H 597.705 1.67402 -1.17633 0
M  V30 6560 H 597.715 4.04147 -0.559373 0
M  V30 6561 H 596.39 3.80171 -1.68651 0
M  V30 6562 H 594.967 3.72624 0.143403 0
M  V30 6563 N 597.152 0.631951 1.44375 0
M  V30 6564 C 598.085 -0.121822 2.27875 0
M  V30 6565 C 599.063 -0.850457 1.38586 0
M  V30 6566 O 600.247 -0.854378 1.68026 0
M  V30 6567 C 597.374 -1.17859 3.17533 0
M  V30 6568 C 596.42 -0.550391 4.22934 0
M  V30 6569 S 597.253 0.660145 5.31415 0
M  V30 6570 C 598.409 -0.396613 6.24642 0
M  V30 6571 H 598.642 0.586537 2.91457 0
M  V30 6572 H 596.175 0.420146 1.48574 0
M  V30 6573 H 598.133 -1.78335 3.69739 0
M  V30 6574 H 596.794 -1.85915 2.53169 0
M  V30 6575 H 595.987 -1.34631 4.85685 0
M  V30 6576 H 595.589 -0.0202306 3.73995 0
M  V30 6577 H 597.881 -1.26893 6.65511 0
M  V30 6578 H 598.824 0.195345 7.0783 0
M  V30 6579 H 599.232 -0.72288 5.59852 0
M  V30 6580 N 598.631 -1.53133 0.372548 0
M  V30 6581 C 599.879 -2.00958 -0.214534 0
M  V30 6582 C 600.2 -1.26135 -1.48711 0
M  V30 6583 O 599.47 -0.376597 -1.92246 0
M  V30 6584 H 598.05 -0.742456 -0.0822664 0
M  V30 6585 H 600.712 -1.88367 0.500385 0
M  V30 6586 H 599.808 -3.09031 -0.436605 0
M  V30 6587 N 600.109 -0.101901 -1.5727 0
M  V30 6588 C 601.019 0.868647 -2.17926 0
M  V30 6589 C 602.035 1.30527 -1.1506 0
M  V30 6590 O 603.211 1.37178 -1.47459 0
M  V30 6591 C 600.276 2.10727 -2.75309 0
M  V30 6592 C 599.337 1.7242 -3.93154 0
M  V30 6593 C 598.57 2.90377 -4.47791 0
M  V30 6594 O 598.793 4.05305 -4.01353 0
M  V30 6595 O 597.727 2.6845 -5.38719 0
M  V30 6596 H 601.553 0.382544 -3.01281 0
M  V30 6597 H 599.138 0.122812 -1.48894 0
M  V30 6598 H 601.02 2.83303 -3.11958 0
M  V30 6599 H 599.695 2.58376 -1.94996 0
M  V30 6600 H 598.602 0.970039 -3.61305 0
M  V30 6601 H 599.935 1.29528 -4.74851 0
M  V30 6602 N 601.587 1.56661 0.17182 0
M  V30 6603 C 602.52 1.91474 1.24149 0
M  V30 6604 C 603.498 0.777485 1.42807 0
M  V30 6605 O 604.682 1.03075 1.57822 0
M  V30 6606 C 601.809 2.16523 2.60453 0
M  V30 6607 C 600.855 3.39209 2.58533 0
M  V30 6608 S 601.688 4.93594 2.07665 0
M  V30 6609 C 602.844 5.21737 3.45747 0
M  V30 6610 H 603.077 2.81903 0.944346 0
M  V30 6611 H 600.61 1.49743 0.376364 0
M  V30 6612 H 602.568 2.31635 3.38903 0
M  V30 6613 H 601.229 1.26802 2.87368 0
M  V30 6614 H 600.422 3.53935 3.58812 0
M  V30 6615 H 600.024 3.2321 1.88178 0
M  V30 6616 H 602.316 5.13684 4.41741 0
M  V30 6617 H 603.259 6.23361 3.35896 0
M  V30 6618 H 603.667 4.49307 3.41736 0
M  V30 6619 N 603.065 -0.440357 1.51323 0
M  V30 6620 C 604.293 -1.21255 1.67645 0
M  V30 6621 C 604.708 -1.85088 0.37252 0
M  V30 6622 O 604.065 -1.70582 -0.648683 0
M  V30 6623 C 604.116 -2.29881 2.78993 0
M  V30 6624 O 603.837 -1.68659 4.04334 0
M  V30 6625 C 605.338 -3.20214 3.06558 0
M  V30 6626 H 602.558 -0.36558 0.562666 0
M  V30 6627 H 605.102 -0.52214 1.97722 0
M  V30 6628 H 603.257 -2.94643 2.51524 0
M  V30 6629 H 603.671 -2.40426 4.6615 0
M  V30 6630 H 605.145 -3.92575 3.88058 0
M  V30 6631 H 605.622 -3.80794 2.18844 0
M  V30 6632 H 606.228 -2.61156 3.35675 0
M  V30 6633 N 604.543 -1.41418 -0.695603 0
M  V30 6634 C 605.473 -1.46035 -1.82197 0
M  V30 6635 C 606.454 -0.319025 -1.67082 0
M  V30 6636 O 607.639 -0.530462 -1.86815 0
M  V30 6637 C 604.769 -1.34179 -3.20333 0
M  V30 6638 C 603.723 -2.46123 -3.50154 0
M  V30 6639 C 603.049 -2.19332 -4.87645 0
M  V30 6640 C 604.349 -3.88463 -3.49133 0
M  V30 6641 H 606.043 -2.40303 -1.78591 0
M  V30 6642 H 603.589 -1.15663 -0.857797 0
M  V30 6643 H 605.542 -1.36021 -3.98844 0
M  V30 6644 H 604.266 -0.363952 -3.24566 0
M  V30 6645 H 602.925 -2.43563 -2.73994 0
M  V30 6646 H 602.573 -1.19891 -4.88503 0
M  V30 6647 H 602.273 -2.94344 -5.08562 0
M  V30 6648 H 603.797 -2.22889 -5.68465 0
M  V30 6649 H 605.211 -3.92738 -4.17648 0
M  V30 6650 H 603.608 -4.63158 -3.81582 0
M  V30 6651 H 604.678 -4.16617 -2.48109 0
M  V30 6652 N 606.021 0.929856 -1.27246 0
M  V30 6653 C 607.269 1.674 -1.13233 0
M  V30 6654 C 607.59 1.92311 0.322744 0
M  V30 6655 O 606.86 1.52784 1.22612 0
M  V30 6656 H 605.44 0.620411 -0.416052 0
M  V30 6657 H 608.102 1.11663 -1.59741 0
M  V30 6658 H 607.198 2.64308 -1.65975 0
M  V30 6659 N 607.499 1.09233 1.13605 0
M  V30 6660 C 608.431 0.687794 2.18637 0
M  V30 6661 C 609.444 -0.26936 1.60556 0
M  V30 6662 O 610.633 -0.0557162 1.78413 0
M  V30 6663 C 607.733 -0.00751901 3.38899 0
M  V30 6664 C 606.906 0.97067 4.26494 0
M  V30 6665 C 605.965 0.309129 5.25291 0
M  V30 6666 O 604.991 0.956149 5.61112 0
M  V30 6667 N 606.193 -0.937555 5.72879 0
M  V30 6668 H 608.958 1.59141 2.53957 0
M  V30 6669 H 606.519 0.979515 1.28907 0
M  V30 6670 H 608.511 -0.461238 4.02063 0
M  V30 6671 H 607.081 -0.813353 3.01833 0
M  V30 6672 H 606.301 1.603 3.60135 0
M  V30 6673 H 607.589 1.63323 4.81875 0
M  V30 6674 H 606.987 -1.48281 5.4592 0
M  V30 6675 H 605.544 -1.33463 6.3799 0
M  V30 6676 N 608.977 -1.30795 0.87923 0
M  V30 6677 C 610.226 -1.95636 0.490875 0
M  V30 6678 C 610.539 -1.70214 -0.963674 0
M  V30 6679 O 611.745 -2.28991 -1.45861 0
M  V30 6680 C 610.201 -3.50271 0.826929 0
M  V30 6681 C 609.809 -3.84521 2.29886 0
M  V30 6682 C 611.553 -4.21456 0.507494 0
M  V30 6683 C 609.46 -5.32309 2.57685 0
M  V30 6684 H 608.39 -0.732238 0.179841 0
M  V30 6685 H 611.041 -1.48829 1.07341 0
M  V30 6686 H 609.423 -3.9562 0.173542 0
M  V30 6687 H 610.597 -3.50102 2.99609 0
M  V30 6688 H 608.912 -3.26425 2.58526 0
M  V30 6689 H 611.509 -5.30199 0.692293 0
M  V30 6690 H 611.852 -4.12614 -0.552718 0
M  V30 6691 H 612.385 -3.81772 1.11782 0
M  V30 6692 H 609.124 -5.46195 3.62424 0
M  V30 6693 H 608.644 -5.68048 1.92566 0
M  V30 6694 H 610.323 -5.99678 2.42889 0
M  V30 6695 N 610.455 -0.639598 -1.44038 0
M  V30 6696 C 611.403 0.0723409 -2.32487 0
M  V30 6697 C 612.397 0.827129 -1.47834 0
M  V30 6698 O 613.603 0.73907 -1.64127 0
M  V30 6699 H 609.978 0.0421696 -0.750817 0
M  V30 6700 H 611.949 -0.691593 -2.90275 0
M  V30 6701 C 610.698 1.03452 -3.31953 0
M  V30 6702 H 610.021 0.46315 -3.97108 0
M  V30 6703 H 611.461 1.502 -3.96505 0
M  V30 6704 C 609.92 2.12392 -2.61518 0
M  V30 6705 O 610.45 3.2059 -2.42044 0
M  V30 6706 N 608.656 1.88563 -2.21116 0
M  V30 6707 H 608.203 1.00577 -2.37154 0
M  V30 6708 H 608.161 2.61651 -1.74316 0
M  V30 6709 N 611.933 1.52934 -0.380664 0
M  V30 6710 C 612.881 2.27727 0.47361 0
M  V30 6711 C 613.875 1.31288 1.0705 0
M  V30 6712 O 615.081 1.4886 1.01197 0
M  V30 6713 H 611.456 0.732189 0.171475 0
M  V30 6714 H 613.427 2.97864 -0.178785 0
M  V30 6715 C 612.176 3.0904 1.59341 0
M  V30 6716 H 611.499 3.831 1.14343 0
M  V30 6717 H 612.939 3.64527 2.16555 0
M  V30 6718 C 611.398 2.20813 2.54447 0
M  V30 6719 O 611.928 1.82907 3.57642 0
M  V30 6720 N 610.134 1.85145 2.23986 0
M  V30 6721 H 609.681 2.16169 1.40103 0
M  V30 6722 H 609.639 1.26402 2.87871 0
M  V30 6723 N 613.412 0.11024 1.57214 0
M  V30 6724 C 614.342 -0.840002 2.17867 0
M  V30 6725 C 615.323 -1.28352 1.11624 0
M  V30 6726 O 616.508 -1.3477 1.39824 0
M  V30 6727 C 613.638 -2.09349 2.77111 0
M  V30 6728 C 612.592 -1.78807 3.8886 0
M  V30 6729 C 611.918 -3.11112 4.34872 0
M  V30 6730 C 613.218 -1.0632 5.11364 0
M  V30 6731 H 614.912 -0.334608 2.97524 0
M  V30 6732 H 612.458 -0.159502 1.43114 0
M  V30 6733 H 614.411 -2.76275 3.18198 0
M  V30 6734 H 613.135 -2.62198 1.9473 0
M  V30 6735 H 611.794 -1.14273 3.48335 0
M  V30 6736 H 611.442 -3.61877 3.49362 0
M  V30 6737 H 611.142 -2.91453 5.10224 0
M  V30 6738 H 612.666 -3.79171 4.78604 0
M  V30 6739 H 614.08 -1.63383 5.49526 0
M  V30 6740 H 612.477 -0.967876 5.92243 0
M  V30 6741 H 613.547 -0.0484569 4.84876 0
M  V30 6742 N 614.89 -1.56749 -0.16351 0
M  V30 6743 C 616.136 -1.82704 -0.880168 0
M  V30 6744 C 616.469 -0.689311 -1.81555 0
M  V30 6745 O 615.744 0.308224 -1.92042 0
M  V30 6746 C 616.027 -3.19084 -1.66905 0
M  V30 6747 C 615.88 -4.43397 -0.756269 0
M  V30 6748 C 617.199 -3.52493 -2.63509 0
M  V30 6749 H 614.318 -0.664608 -0.318535 0
M  V30 6750 H 616.96 -1.89438 -0.146036 0
M  V30 6751 H 615.11 -3.13475 -2.2949 0
M  V30 6752 H 616.782 -4.61079 -0.14269 0
M  V30 6753 H 615.025 -4.33752 -0.0647944 0
M  V30 6754 H 615.696 -5.3539 -1.34393 0
M  V30 6755 H 618.172 -3.58606 -2.11047 0
M  V30 6756 H 617.048 -4.48979 -3.15767 0
M  V30 6757 H 617.309 -2.77597 -3.44082 0
M  V30 6758 N 616.368 0.432326 -1.51554 0
M  V30 6759 C 617.331 1.50765 -1.72634 0
M  V30 6760 C 618.331 1.49334 -0.596314 0
M  V30 6761 O 619.521 1.51268 -0.863925 0
M  V30 6762 C 616.653 2.90284 -1.7874 0
M  V30 6763 H 617.846 1.33377 -2.68609 0
M  V30 6764 H 615.399 0.661329 -1.4162 0
M  V30 6765 H 616.134 3.13071 -0.845977 0
M  V30 6766 H 615.919 2.92727 -2.6087 0
M  V30 6767 H 617.409 3.68282 -1.96871 0
M  V30 6768 N 617.846 1.41785 0.688094 0
M  V30 6769 C 619.095 1.4084 1.44385 0
M  V30 6770 C 619.408 0.0234166 1.95586 0
M  V30 6771 O 620.614 -0.108647 2.71283 0
M  V30 6772 C 619.07 2.47675 2.61123 0
M  V30 6773 C 618.678 3.92116 2.16677 0
M  V30 6774 C 620.422 2.55877 3.38714 0
M  V30 6775 C 618.329 4.90487 3.30419 0
M  V30 6776 H 617.259 0.523787 0.542368 0
M  V30 6777 H 619.91 1.6764 0.74627 0
M  V30 6778 H 618.292 2.14018 3.33185 0
M  V30 6779 H 619.466 4.35059 1.51856 0
M  V30 6780 H 617.781 3.87642 1.5206 0
M  V30 6781 H 620.378 3.26553 4.234 0
M  V30 6782 H 620.721 1.59801 3.84408 0
M  V30 6783 H 621.254 2.88662 2.73714 0
M  V30 6784 H 617.993 5.87994 2.89729 0
M  V30 6785 H 617.513 4.52187 3.94065 0
M  V30 6786 H 619.192 5.11591 3.96085 0
M  V30 6787 N 619.324 -0.923095 1.27737 0
M  V30 6788 C 620.234 -2.05765 1.12685 0
M  V30 6789 C 621.25 -1.73911 0.0557197 0
M  V30 6790 O 622.426 -1.99674 0.263137 0
M  V30 6791 C 619.491 -3.37804 0.780363 0
M  V30 6792 C 618.552 -3.83326 1.93286 0
M  V30 6793 C 617.785 -5.09064 1.60281 0
M  V30 6794 O 618.008 -5.6809 0.512828 0
M  V30 6795 O 616.942 -5.50071 2.44347 0
M  V30 6796 H 620.768 -2.21378 2.07907 0
M  V30 6797 H 618.353 -1.04299 1.06968 0
M  V30 6798 H 620.235 -4.17097 0.600668 0
M  V30 6799 H 618.91 -3.23387 -0.142291 0
M  V30 6800 H 617.817 -3.049 2.16764 0
M  V30 6801 H 619.15 -4.02292 2.83588 0
M  V30 6802 N 620.802 -1.09834 -1.13024 0
M  V30 6803 C 622.03 -0.858902 -1.8823 0
M  V30 6804 C 622.445 0.590164 -1.79339 0
M  V30 6805 O 621.802 1.4065 -1.16292 0
M  V30 6806 C 621.853 -1.29066 -3.37675 0
M  V30 6807 O 621.574 -2.6829 -3.46341 0
M  V30 6808 C 623.075 -1.08421 -4.29837 0
M  V30 6809 H 620.295 -0.308713 -0.595766 0
M  V30 6810 H 622.839 -1.4614 -1.4305 0
M  V30 6811 H 620.994 -0.731961 -3.80422 0
M  V30 6812 H 621.408 -2.86598 -4.39274 0
M  V30 6813 H 622.882 -1.43553 -5.33007 0
M  V30 6814 H 623.359 -0.0223315 -4.39194 0
M  V30 6815 H 623.965 -1.62907 -3.92863 0
M  V30 6816 N 622.28 1.30327 -0.886154 0
M  V30 6817 C 623.228 2.30052 -0.343317 0
M  V30 6818 C 624.222 1.60212 0.550305 0
M  V30 6819 O 625.428 1.74674 0.434609 0
M  V30 6820 H 621.803 0.746306 -0.0923681 0
M  V30 6821 H 623.774 2.73294 -1.19804 0
M  V30 6822 C 622.523 3.45079 0.426107 0
M  V30 6823 H 621.846 3.99003 -0.25227 0
M  V30 6824 H 623.286 4.16931 0.771009 0
M  V30 6825 C 621.745 2.95195 1.62363 0
M  V30 6826 O 622.275 2.95323 2.723 0
M  V30 6827 N 620.481 2.51192 1.4612 0
M  V30 6828 H 620.028 2.51286 0.566832 0
M  V30 6829 H 619.986 2.18173 2.2638 0
M  V30 6830 N 623.758 0.647228 1.43697 0
M  V30 6831 C 624.69 -0.0866232 2.29036 0
M  V30 6832 C 625.703 -0.793051 1.42178 0
M  V30 6833 O 626.892 -0.651807 1.66174 0
M  V30 6834 C 623.992 -1.14552 3.18953 0
M  V30 6835 C 623.165 -0.518422 4.34317 0
M  V30 6836 C 622.224 -1.4734 5.05151 0
M  V30 6837 O 621.25 -0.984312 5.60625 0
M  V30 6838 N 622.452 -2.8075 5.08094 0
M  V30 6839 H 625.217 0.645834 2.92659 0
M  V30 6840 H 622.778 0.489567 1.54321 0
M  V30 6841 H 624.77 -1.78505 3.63205 0
M  V30 6842 H 623.34 -1.78001 2.56971 0
M  V30 6843 H 622.56 0.300079 3.93056 0
M  V30 6844 H 623.848 -0.080401 5.08736 0
M  V30 6845 H 623.246 -3.23052 4.64386 0
M  V30 6846 H 621.803 -3.40022 5.56083 0
M  V30 6847 N 625.236 -1.5273 0.388769 0
M  V30 6848 C 626.166 -2.29353 -0.438111 0
M  V30 6849 C 627.147 -1.32719 -1.06394 0
M  V30 6850 O 628.332 -1.61612 -1.07681 0
M  V30 6851 C 625.462 -3.09995 -1.56589 0
M  V30 6852 C 624.416 -4.14509 -1.06613 0
M  V30 6853 C 623.742 -4.83372 -2.28594 0
M  V30 6854 C 625.042 -5.22127 -0.134459 0
M  V30 6855 H 626.736 -2.98723 0.201206 0
M  V30 6856 H 624.282 -1.43665 0.0982089 0
M  V30 6857 H 626.235 -3.62357 -2.15118 0
M  V30 6858 H 624.959 -2.38357 -2.23279 0
M  V30 6859 H 623.618 -3.63128 -0.503383 0
M  V30 6860 H 623.266 -4.08283 -2.93792 0
M  V30 6861 H 622.966 -5.54012 -1.95817 0
M  V30 6862 H 624.49 -5.38538 -2.87766 0
M  V30 6863 H 625.904 -5.69851 -0.627914 0
M  V30 6864 H 624.301 -6.00011 0.103534 0
M  V30 6865 H 625.371 -4.77971 0.816798 0
M  V30 6866 N 626.714 -0.118576 -1.57153 0
M  V30 6867 C 627.647 0.869046 -2.11004 0
M  V30 6868 C 628.625 1.26115 -1.02634 0
M  V30 6869 O 629.809 1.36228 -1.30285 0
M  V30 6870 C 626.936 2.16297 -2.6064 0
M  V30 6871 C 625.982 1.91896 -3.80891 0
M  V30 6872 S 626.815 1.13562 -5.2332 0
M  V30 6873 C 627.971 2.44135 -5.76324 0
M  V30 6874 H 628.204 0.411005 -2.94445 0
M  V30 6875 H 625.737 0.0951891 -1.54106 0
M  V30 6876 H 627.695 2.90642 -2.89892 0
M  V30 6877 H 626.356 2.59219 -1.77382 0
M  V30 6878 H 625.549 2.8777 -4.13768 0
M  V30 6879 H 625.151 1.25672 -3.52253 0
M  V30 6880 H 627.443 3.39976 -5.86022 0
M  V30 6881 H 628.386 2.15803 -6.74414 0
M  V30 6882 H 628.794 2.53483 -5.04387 0
M  V30 6883 N 628.193 1.56834 0.155195 0
M  V30 6884 C 629.439 1.84058 0.865687 0
M  V30 6885 C 629.794 0.701418 1.79159 0
M  V30 6886 O 629.087 -0.301162 1.89218 0
M  V30 6887 C 629.281 3.15239 1.68402 0
M  V30 6888 C 629.11 4.41807 0.838847 0
M  V30 6889 C 627.88 5.02744 0.507645 0
M  V30 6890 C 630.078 5.14009 0.172946 0
M  V30 6891 N 628.06 6.1289 -0.351978 0
M  V30 6892 C 629.431 6.17581 -0.547158 0
M  V30 6893 C 631.486 4.97814 0.0927721 0
M  V30 6894 C 630.189 7.06711 -1.33985 0
M  V30 6895 C 632.215 5.874 -0.686638 0
M  V30 6896 C 631.577 6.90447 -1.39505 0
M  V30 6897 H 627.676 0.724276 0.294871 0
M  V30 6898 H 630.26 1.94255 0.131583 0
M  V30 6899 H 628.431 3.06205 2.38942 0
M  V30 6900 H 630.163 3.304 2.33705 0
M  V30 6901 H 626.918 4.66064 0.841517 0
M  V30 6902 H 627.342 6.72577 -0.772573 0
M  V30 6903 H 631.984 4.18138 0.626112 0
M  V30 6904 H 629.702 7.8582 -1.88448 0
M  V30 6905 H 633.288 5.76938 -0.750555 0
M  V30 6906 H 632.168 7.58571 -1.98847 0
M  V30 6907 N 629.671 -0.424282 1.51781 0
M  V30 6908 C 630.918 -1.1726 1.65095 0
M  V30 6909 C 631.246 -1.90881 0.373477 0
M  V30 6910 O 630.501 -1.84835 -0.642997 0
M  V30 6911 C 630.8 -2.20418 2.81337 0
M  V30 6912 C 630.466 -1.63715 4.20129 0
M  V30 6913 C 629.128 -1.47975 4.57883 0
M  V30 6914 C 631.48 -1.22157 5.06682 0
M  V30 6915 C 628.808 -0.891703 5.79884 0
M  V30 6916 C 631.16 -0.647767 6.29275 0
M  V30 6917 C 629.824 -0.477371 6.65791 0
M  V30 6918 H 629.094 -0.429085 0.604125 0
M  V30 6919 H 631.741 -0.461852 1.85847 0
M  V30 6920 H 630.046 -2.97581 2.54859 0
M  V30 6921 H 631.743 -2.78163 2.88836 0
M  V30 6922 H 628.333 -1.76946 3.90369 0
M  V30 6923 H 632.517 -1.33133 4.7811 0
M  V30 6924 H 627.773 -0.747563 6.06813 0
M  V30 6925 H 631.947 -0.317291 6.95677 0
M  V30 6926 H 629.574 -0.0195936 7.60197 0
M  V30 6927 N 631.149 -1.42148 -0.680565 0
M  V30 6928 C 632.079 -1.4796 -1.80638 0
M  V30 6929 C 633.06 -0.336728 -1.66734 0
M  V30 6930 O 634.245 -0.550247 -1.86242 0
M  V30 6931 C 631.375 -1.37569 -3.18892 0
M  V30 6932 C 630.329 -2.49823 -3.47524 0
M  V30 6933 C 629.655 -2.24491 -4.85291 0
M  V30 6934 C 630.955 -3.92144 -3.44994 0
M  V30 6935 H 632.649 -2.42184 -1.76032 0
M  V30 6936 H 630.195 -1.16566 -0.845481 0
M  V30 6937 H 632.148 -1.40243 -3.97379 0
M  V30 6938 H 630.872 -0.398357 -3.24162 0
M  V30 6939 H 629.531 -2.46455 -2.71395 0
M  V30 6940 H 629.179 -1.25066 -4.87204 0
M  V30 6941 H 628.879 -2.99722 -5.05411 0
M  V30 6942 H 630.403 -2.28906 -5.66069 0
M  V30 6943 H 631.817 -3.97145 -4.13459 0
M  V30 6944 H 630.214 -4.67179 -3.76648 0
M  V30 6945 H 631.284 -4.19225 -2.43676 0
M  V30 6946 N 632.627 0.916307 -1.28225 0
M  V30 6947 C 633.874 1.66518 -1.1523 0
M  V30 6948 C 634.202 1.92178 0.299632 0
M  V30 6949 O 633.457 1.51842 1.2346 0
M  V30 6950 C 633.756 3.03125 -1.8934 0
M  V30 6951 C 633.422 2.97135 -3.39148 0
M  V30 6952 C 632.084 2.95208 -3.80007 0
M  V30 6953 C 634.436 2.87574 -4.34685 0
M  V30 6954 C 631.764 2.81518 -5.14747 0
M  V30 6955 C 634.116 2.75424 -5.69495 0
M  V30 6956 C 632.78 2.71854 -6.09632 0
M  V30 6957 H 632.05 0.609334 -0.421655 0
M  V30 6958 H 634.697 1.06776 -1.58969 0
M  V30 6959 H 633.002 3.66639 -1.38143 0
M  V30 6960 H 634.699 3.59968 -1.76704 0
M  V30 6961 H 631.289 2.99428 -3.06661 0
M  V30 6962 H 635.473 2.88152 -4.04082 0
M  V30 6963 H 630.729 2.77148 -5.44976 0
M  V30 6964 H 634.903 2.66993 -6.43185 0
M  V30 6965 H 632.53 2.61003 -7.1399 0
M  V30 6966 N 634.105 1.10431 1.1244 0
M  V30 6967 C 635.035 0.775143 2.20258 0
M  V30 6968 C 636.016 -0.25186 1.68225 0
M  V30 6969 O 637.201 -0.117637 1.93843 0
M  V30 6970 C 634.331 0.206133 3.46688 0
M  V30 6971 C 633.285 1.16382 4.11873 0
M  V30 6972 C 632.611 0.456014 5.32752 0
M  V30 6973 C 633.911 2.5104 4.58013 0
M  V30 6974 H 635.605 1.67665 2.4805 0
M  V30 6975 H 633.151 0.807595 1.19222 0
M  V30 6976 H 635.104 -0.036291 4.21384 0
M  V30 6977 H 633.828 -0.730614 3.18323 0
M  V30 6978 H 632.487 1.39169 3.39157 0
M  V30 6979 H 632.135 -0.485203 5.00654 0
M  V30 6980 H 631.835 1.09466 5.77314 0
M  V30 6981 H 633.359 0.222135 6.10196 0
M  V30 6982 H 634.773 2.32401 5.24083 0
M  V30 6983 H 633.17 3.10789 5.13352 0
M  V30 6984 H 634.24 3.11039 3.71998 0
M  V30 6985 N 635.583 -1.29855 0.893053 0
M  V30 6986 C 636.823 -1.97612 0.522399 0
M  V30 6987 C 637.187 -1.68903 -0.913 0
M  V30 6988 O 638.388 -2.30059 -1.39019 0
M  V30 6989 C 636.659 -3.48356 0.79893 0
M  V30 6990 S 638.218 -4.35568 0.531588 0
M  V30 6991 H 635.036 -0.684005 0.194058 0
M  V30 6992 H 637.638 -1.57803 1.15406 0
M  V30 6993 H 636.342 -3.66743 1.84196 0
M  V30 6994 H 635.873 -3.93094 0.155133 0
M  V30 6995 H 637.888 -4.92232 -0.626295 0
M  V30 6996 N 637.061 -0.65484 -1.43351 0
M  V30 6997 C 638.472 -0.248506 -1.85039 0
M  V30 6998 C 638.823 1.20526 -1.54816 0
M  V30 6999 O 637.948 1.92016 -0.99794 0
M  V30 7000 C 638.543 -0.444241 -3.35875 0
M  V30 7001 C 637.102 -0.0922108 -3.76287 0
M  V30 7002 C 636.249 -0.746327 -2.67068 0
M  V30 7003 H 639.2 -0.8584 -1.33481 0
M  V30 7004 H 639.221 0.309762 -3.79237 0
M  V30 7005 H 638.733 -1.50239 -3.5784 0
M  V30 7006 H 636.834 0.96328 -3.59933 0
M  V30 7007 H 636.947 -0.518807 -4.76283 0
M  V30 7008 H 635.311 -0.179416 -2.54067 0
M  V30 7009 H 636.094 -1.80754 -2.91861 0
M  V30 7010 N 638.539 1.52521 -0.396863 0
M  V30 7011 C 639.487 2.28217 0.44943 0
M  V30 7012 C 640.481 1.32416 1.05652 0
M  V30 7013 O 641.687 1.49925 0.996124 0
M  V30 7014 H 638.062 0.733966 0.1637 0
M  V30 7015 H 640.033 2.97658 -0.210367 0
M  V30 7016 C 638.782 3.10713 1.56054 0
M  V30 7017 H 638.105 3.84291 1.10273 0
M  V30 7018 H 639.545 3.66803 2.12677 0
M  V30 7019 C 638.004 2.23499 2.52091 0
M  V30 7020 O 638.534 1.8669 3.55682 0
M  V30 7021 N 636.74 1.8751 2.2201 0
M  V30 7022 H 636.287 2.17643 1.37802 0
M  V30 7023 H 636.245 1.29448 2.86514 0
M  V30 7024 N 640.017 0.126909 1.57088 0
M  V30 7025 C 640.947 -0.816847 2.18746 0
M  V30 7026 C 641.928 -1.27161 1.12979 0
M  V30 7027 O 643.113 -1.33279 1.41246 0
M  V30 7028 C 640.243 -2.06398 2.79315 0
M  V30 7029 C 639.197 -1.74673 3.90735 0
M  V30 7030 C 638.523 -3.06482 4.38147 0
M  V30 7031 C 639.823 -1.0089 5.12463 0
M  V30 7032 H 641.517 -0.303032 2.97863 0
M  V30 7033 H 639.063 -0.144314 1.43275 0
M  V30 7034 H 641.016 -2.72885 3.2111 0
M  V30 7035 H 639.74 -2.60118 1.975 0
M  V30 7036 H 638.399 -1.10572 3.49527 0
M  V30 7037 H 638.047 -3.58152 3.5318 0
M  V30 7038 H 637.747 -2.86025 5.13287 0
M  V30 7039 H 639.271 -3.74073 4.82599 0
M  V30 7040 H 640.685 -1.57546 5.51228 0
M  V30 7041 H 639.082 -0.905006 5.93237 0
M  V30 7042 H 640.152 0.00297335 4.849 0
M  V30 7043 N 641.495 -1.56914 -0.146875 0
M  V30 7044 C 642.741 -1.84515 -0.855914 0
M  V30 7045 C 643.096 -0.710909 -1.78784 0
M  V30 7046 O 642.389 0.291123 -1.89375 0
M  V30 7047 C 642.583 -3.16128 -1.66727 0
M  V30 7048 C 642.412 -4.42246 -0.815405 0
M  V30 7049 C 641.182 -5.03006 -0.480976 0
M  V30 7050 C 643.38 -5.14094 -0.145684 0
M  V30 7051 N 641.362 -6.12695 0.384476 0
M  V30 7052 C 642.733 -6.17282 0.579902 0
M  V30 7053 C 644.788 -4.97856 -0.0663705 0
M  V30 7054 C 643.491 -7.0599 1.37731 0
M  V30 7055 C 645.517 -5.87028 0.71778 0
M  V30 7056 C 644.879 -6.89698 1.43165 0
M  V30 7057 H 640.978 -0.725829 -0.291026 0
M  V30 7058 H 643.562 -1.94322 -0.121279 0
M  V30 7059 H 641.733 -3.07468 -2.37315 0
M  V30 7060 H 643.465 -3.31635 -2.31949 0
M  V30 7061 H 640.22 -4.66504 -0.816789 0
M  V30 7062 H 640.644 -6.72158 0.80823 0
M  V30 7063 H 645.286 -4.18465 -0.603929 0
M  V30 7064 H 643.004 -7.84809 1.92613 0
M  V30 7065 H 646.59 -5.76532 0.781141 0
M  V30 7066 H 645.47 -7.57505 2.02868 0
M  V30 7067 N 642.974 0.416227 -1.52004 0
M  V30 7068 C 643.937 1.48926 -1.74223 0
M  V30 7069 C 644.937 1.48693 -0.612119 0
M  V30 7070 O 646.127 1.50343 -0.879921 0
M  V30 7071 C 643.259 2.88372 -1.81809 0
M  V30 7072 H 644.452 1.3052 -2.70008 0
M  V30 7073 H 642.005 0.646271 -1.42313 0
M  V30 7074 H 642.74 3.12157 -0.879135 0
M  V30 7075 H 642.525 2.89944 -2.6396 0
M  V30 7076 H 644.015 3.66173 -2.00766 0
M  V30 7077 N 644.452 1.42507 0.673017 0
M  V30 7078 C 645.385 1.40557 1.79774 0
M  V30 7079 C 646.363 0.269606 1.60349 0
M  V30 7080 O 647.547 0.460105 1.82798 0
M  V30 7081 C 644.674 1.19815 3.168 0
M  V30 7082 C 643.72 2.36429 3.5497 0
M  V30 7083 S 644.553 3.98963 3.57196 0
M  V30 7084 C 645.709 3.80567 4.9691 0
M  V30 7085 H 645.942 2.35734 1.81154 0
M  V30 7086 H 643.475 1.293 0.843846 0
M  V30 7087 H 645.433 1.08535 3.95892 0
M  V30 7088 H 644.094 0.262215 3.13004 0
M  V30 7089 H 643.287 2.17669 4.54573 0
M  V30 7090 H 642.889 2.44233 2.83242 0
M  V30 7091 H 645.181 3.41668 5.85038 0
M  V30 7092 H 646.124 4.79852 5.20718 0
M  V30 7093 H 646.532 3.13399 4.69512 0
M  V30 7094 N 645.93 -0.909495 1.28709 0
M  V30 7095 C 647.341 -1.47419 1.14563 0
M  V30 7096 C 647.692 -1.94432 -0.262832 0
M  V30 7097 O 646.817 -1.82842 -1.15748 0
M  V30 7098 C 647.412 -2.67933 2.07358 0
M  V30 7099 C 645.971 -3.20568 1.97264 0
M  V30 7100 C 645.118 -1.93269 1.98852 0
M  V30 7101 H 648.069 -0.721787 1.41336 0
M  V30 7102 H 648.09 -3.43339 1.64007 0
M  V30 7103 H 647.602 -2.33685 3.09859 0
M  V30 7104 H 645.703 -3.59531 0.978157 0
M  V30 7105 H 645.816 -3.85529 2.84436 0
M  V30 7106 H 644.18 -2.10553 1.43317 0
M  V30 7107 H 644.963 -1.61312 3.0304 0
M  V30 7108 N 647.408 -1.11026 -1.11852 0
M  V30 7109 C 648.654 -0.857729 -1.83768 0
M  V30 7110 C 648.987 0.615143 -1.842 0
M  V30 7111 O 648.262 1.45391 -1.29196 0
M  V30 7112 C 648.545 -1.41453 -3.31154 0
M  V30 7113 C 648.398 -2.95471 -3.39142 0
M  V30 7114 C 649.717 -1.0619 -4.27097 0
M  V30 7115 H 646.836 -0.313044 -0.667212 0
M  V30 7116 H 649.478 -1.37443 -1.31185 0
M  V30 7117 H 647.628 -0.975052 -3.76065 0
M  V30 7118 H 649.3 -3.4799 -3.02821 0
M  V30 7119 H 647.543 -3.31759 -2.79497 0
M  V30 7120 H 648.214 -3.29515 -4.42859 0
M  V30 7121 H 650.69 -1.44122 -3.90344 0
M  V30 7122 H 649.566 -1.47832 -5.28618 0
M  V30 7123 H 649.827 0.0278912 -4.42091 0
M  V30 7124 N 648.886 1.2938 -0.899927 0
M  V30 7125 C 649.818 2.26737 -0.335139 0
M  V30 7126 C 650.831 1.54316 0.518681 0
M  V30 7127 O 652.02 1.75313 0.335803 0
M  V30 7128 C 649.12 3.34558 0.540774 0
M  V30 7129 C 648.293 4.36455 -0.287372 0
M  V30 7130 C 647.352 5.2361 0.52141 0
M  V30 7131 O 646.378 5.69167 -0.0611735 0
M  V30 7132 N 647.58 5.50985 1.82745 0
M  V30 7133 H 650.345 2.75838 -1.17191 0
M  V30 7134 H 647.906 1.42716 -0.764438 0
M  V30 7135 H 649.898 3.89794 1.08825 0
M  V30 7136 H 648.468 2.85272 1.27823 0
M  V30 7137 H 647.688 3.80875 -1.01626 0
M  V30 7138 H 648.976 5.01573 -0.854518 0
M  V30 7139 H 648.374 5.15781 2.32349 0
M  V30 7140 H 646.931 6.09036 2.32204 0
M  V30 7141 N 650.364 0.662433 1.43002 0
M  V30 7142 C 651.613 0.176873 2.00923 0
M  V30 7143 C 651.926 -1.21954 1.52927 0
M  V30 7144 O 653.132 -1.80081 2.03182 0
M  V30 7145 C 651.588 0.265379 3.5892 0
M  V30 7146 C 651.196 1.66507 4.15908 0
M  V30 7147 C 652.94 -0.162103 4.2419 0
M  V30 7148 C 650.847 1.707 5.66229 0
M  V30 7149 H 649.777 0.0623627 0.751417 0
M  V30 7150 H 652.428 0.825813 1.63868 0
M  V30 7151 H 650.81 -0.451235 3.93421 0
M  V30 7152 H 651.984 2.40777 3.92891 0
M  V30 7153 H 650.299 2.03932 3.63044 0
M  V30 7154 H 652.896 -0.150745 5.34487 0
M  V30 7155 H 653.239 -1.19519 3.98774 0
M  V30 7156 H 653.772 0.503075 3.94606 0
M  V30 7157 H 650.511 2.7195 5.96426 0
M  V30 7158 H 650.031 1.00768 5.91275 0
M  V30 7159 H 651.71 1.45487 6.3043 0
M  V30 7160 N 651.842 -1.52309 0.404946 0
M  V30 7161 C 653.091 -2.00952 -0.173529 0
M  V30 7162 C 653.404 -1.29512 -1.46581 0
M  V30 7163 O 654.61 -1.6895 -2.12528 0
M  V30 7164 C 653.066 -3.58097 -0.359801 0
M  V30 7165 C 652.674 -4.38449 0.920138 0
M  V30 7166 C 654.418 -4.14984 -0.893794 0
M  V30 7167 C 652.325 -5.87227 0.701285 0
M  V30 7168 H 651.255 -0.750871 -0.0686244 0
M  V30 7169 H 653.906 -1.75687 0.529749 0
M  V30 7170 H 652.288 -3.79675 -1.12531 0
M  V30 7171 H 653.462 -4.28633 1.69147 0
M  V30 7172 H 651.777 -3.92859 1.38024 0
M  V30 7173 H 654.374 -5.23813 -1.0735 0
M  V30 7174 H 654.717 -3.72072 -1.8673 0
M  V30 7175 H 655.25 -3.97358 -0.187453 0
M  V30 7176 H 651.989 -6.34491 1.64624 0
M  V30 7177 H 651.509 -5.99792 -0.0308288 0
M  V30 7178 H 653.188 -6.46096 0.341846 0
M  V30 7179 N 653.32 -0.135238 -1.57019 0
M  V30 7180 C 654.253 0.846618 -2.11914 0
M  V30 7181 C 655.231 1.25019 -1.03966 0
M  V30 7182 O 656.415 1.34838 -1.31723 0
M  V30 7183 C 653.542 2.1352 -2.6292 0
M  V30 7184 C 652.588 1.87846 -3.82905 0
M  V30 7185 S 653.421 1.08005 -5.24495 0
M  V30 7186 C 654.577 2.38008 -5.78881 0
M  V30 7187 H 654.81 0.379752 -2.94865 0
M  V30 7188 H 652.343 0.0788387 -1.54199 0
M  V30 7189 H 654.301 2.87551 -2.92958 0
M  V30 7190 H 652.962 2.57323 -1.80121 0
M  V30 7191 H 652.155 2.83365 -4.16797 0
M  V30 7192 H 651.757 1.21929 -3.53567 0
M  V30 7193 H 654.049 3.33742 -5.89595 0
M  V30 7194 H 654.992 2.08638 -6.76665 0
M  V30 7195 H 655.4 2.48119 -5.07048 0
M  V30 7196 N 654.798 1.5699 0.138552 0
M  V30 7197 C 656.046 1.83446 0.848053 0
M  V30 7198 C 656.367 0.71744 1.81322 0
M  V30 7199 O 655.637 -0.260228 1.94164 0
M  V30 7200 H 654.217 0.676792 0.316166 0
M  V30 7201 H 656.879 1.94462 0.130538 0
M  V30 7202 H 655.975 2.78677 1.40518 0
M  V30 7203 N 656.276 -0.40816 1.52223 0
M  V30 7204 C 657.522 -1.15673 1.66576 0
M  V30 7205 C 657.855 -1.90141 0.394996 0
M  V30 7206 O 657.13 -1.84798 -0.606613 0
M  V30 7207 C 657.413 -2.15042 2.88841 0
M  V30 7208 C 657.266 -1.44465 4.25969 0
M  V30 7209 C 658.585 -3.15699 3.0663 0
M  V30 7210 H 655.704 -0.41916 0.606196 0
M  V30 7211 H 658.346 -0.442348 1.84779 0
M  V30 7212 H 656.496 -2.75964 2.73452 0
M  V30 7213 H 658.168 -0.866544 4.53088 0
M  V30 7214 H 656.411 -0.746612 4.27327 0
M  V30 7215 H 657.082 -2.16976 5.07568 0
M  V30 7216 H 659.558 -2.64854 3.20923 0
M  V30 7217 H 658.434 -3.82491 3.9369 0
M  V30 7218 H 658.695 -3.83481 2.19987 0
M  V30 7219 N 657.755 -1.42862 -0.66545 0
M  V30 7220 C 659.004 -1.43119 -1.42126 0
M  V30 7221 C 659.317 -0.0545297 -1.95524 0
M  V30 7222 O 660.523 0.0654747 -2.71421 0
M  V30 7223 C 658.979 -2.51797 -2.5715 0
M  V30 7224 C 658.587 -3.95514 -2.10411 0
M  V30 7225 C 660.331 -2.61233 -3.346 0
M  V30 7226 C 658.238 -4.95682 -3.22573 0
M  V30 7227 H 657.168 -0.532349 -0.533966 0
M  V30 7228 H 659.819 -1.68806 -0.719506 0
M  V30 7229 H 658.201 -2.19292 -3.29738 0
M  V30 7230 H 659.375 -4.3742 -1.44915 0
M  V30 7231 H 657.69 -3.90012 -1.45874 0
M  V30 7232 H 660.287 -3.33248 -4.18151 0
M  V30 7233 H 660.63 -1.65896 -3.81817 0
M  V30 7234 H 661.163 -2.9298 -2.69087 0
M  V30 7235 H 657.902 -5.92529 -2.80338 0
M  V30 7236 H 657.422 -4.58399 -3.86821 0
M  V30 7237 H 659.101 -5.17828 -3.87896 0
M  V30 7238 N 659.233 0.902656 -1.29189 0
M  V30 7239 C 660.163 2.02294 -1.16616 0
M  V30 7240 C 661.144 1.6999 -0.0611175 0
M  V30 7241 O 662.329 1.9271 -0.240072 0
M  V30 7242 C 659.459 3.37018 -0.83882 0
M  V30 7243 C 658.413 3.83522 -1.89986 0
M  V30 7244 C 657.739 5.15337 -1.42589 0
M  V30 7245 C 659.039 4.04169 -3.30824 0
M  V30 7246 H 660.733 2.13071 -2.10336 0
M  V30 7247 H 658.279 1.02378 -1.01266 0
M  V30 7248 H 660.232 4.14895 -0.737584 0
M  V30 7249 H 658.956 3.26325 0.134071 0
M  V30 7250 H 657.615 3.07859 -1.99043 0
M  V30 7251 H 657.263 5.01056 -0.441759 0
M  V30 7252 H 656.963 5.47423 -2.13547 0
M  V30 7253 H 658.487 5.95758 -1.3381 0
M  V30 7254 H 659.901 4.72537 -3.24626 0
M  V30 7255 H 658.298 4.47604 -3.99713 0
M  V30 7256 H 659.368 3.08604 -3.74021 0
M  V30 7257 N 660.711 1.11618 1.11262 0
M  V30 7258 C 661.641 0.79846 2.19424 0
M  V30 7259 C 662.622 -0.234003 1.68483 0
M  V30 7260 O 663.807 -0.0970704 1.93957 0
M  V30 7261 C 660.937 0.242892 3.4645 0
M  V30 7262 C 659.891 1.20744 4.10615 0
M  V30 7263 C 659.217 0.512494 5.32238 0
M  V30 7264 C 660.517 2.55884 4.55325 0
M  V30 7265 H 662.211 1.70286 2.46258 0
M  V30 7266 H 659.757 0.820195 1.18359 0
M  V30 7267 H 661.71 0.00840447 4.21399 0
M  V30 7268 H 660.434 -0.696811 3.1908 0
M  V30 7269 H 659.093 1.42759 3.37662 0
M  V30 7270 H 658.741 -0.432075 5.01141 0
M  V30 7271 H 658.441 1.15583 5.7612 0
M  V30 7272 H 659.965 0.286842 6.09926 0
M  V30 7273 H 661.379 2.37946 5.21588 0
M  V30 7274 H 659.776 3.16216 5.10027 0
M  V30 7275 H 660.846 3.14968 3.68678 0
M  V30 7276 N 662.189 -1.289 0.906776 0
M  V30 7277 C 663.419 -1.99112 0.551168 0
M  V30 7278 C 663.827 -1.67998 -0.870243 0
M  V30 7279 O 663.17 -0.92525 -1.58697 0
M  V30 7280 C 663.232 -3.53162 0.672065 0
M  V30 7281 C 662.896 -4.07849 2.06174 0
M  V30 7282 C 663.893 -4.22212 3.0337 0
M  V30 7283 C 661.578 -4.4271 2.37304 0
M  V30 7284 C 663.572 -4.70678 4.29815 0
M  V30 7285 C 661.259 -4.90871 3.6399 0
M  V30 7286 C 662.257 -5.04811 4.6006 0
M  V30 7287 O 661.945 -5.51925 5.84495 0
M  V30 7288 H 661.677 -0.642728 0.209469 0
M  V30 7289 H 664.231 -1.65234 1.22012 0
M  V30 7290 H 662.461 -3.86662 -0.05394 0
M  V30 7291 H 664.15 -4.046 0.324579 0
M  V30 7292 H 664.916 -3.9556 2.80637 0
M  V30 7293 H 660.795 -4.31114 1.63283 0
M  V30 7294 H 664.339 -4.81474 5.04806 0
M  V30 7295 H 660.236 -5.16961 3.86551 0
M  V30 7296 H 661.004 -5.70225 5.87185 0
M  V30 7297 N 663.667 -0.670007 -1.42649 0
M  V30 7298 C 664.615 0.0230106 -2.32589 0
M  V30 7299 C 665.609 0.795585 -1.49555 0
M  V30 7300 O 666.815 0.70409 -1.65658 0
M  V30 7301 H 663.19 0.0262342 -0.751542 0
M  V30 7302 H 665.161 -0.753009 -2.88743 0
M  V30 7303 C 663.91 0.963872 -3.34073 0
M  V30 7304 H 663.233 0.378813 -3.98001 0
M  V30 7305 H 664.673 1.41755 -3.99602 0
M  V30 7306 C 663.132 2.06797 -2.65964 0
M  V30 7307 O 663.662 3.15383 -2.48789 0
M  V30 7308 N 661.868 1.83831 -2.25066 0
M  V30 7309 H 661.415 0.955235 -2.39234 0
M  V30 7310 H 661.373 2.57895 -1.79827 0
M  V30 7311 N 665.145 1.52092 -0.413018 0
M  V30 7312 C 666.075 2.30021 0.401567 0
M  V30 7313 C 667.056 1.34395 1.04269 0
M  V30 7314 O 668.241 1.63304 1.05097 0
M  V30 7315 C 665.371 3.12447 1.51638 0
M  V30 7316 C 664.325 4.16153 1.00005 0
M  V30 7317 C 663.651 4.86948 2.20875 0
M  V30 7318 C 664.951 5.22275 0.0513757 0
M  V30 7319 H 666.645 2.98365 -0.248704 0
M  V30 7320 H 664.191 1.4349 -0.121052 0
M  V30 7321 H 666.144 3.65733 2.09326 0
M  V30 7322 H 664.868 2.41879 2.19458 0
M  V30 7323 H 663.527 3.63882 0.445549 0
M  V30 7324 H 663.175 4.12905 2.8726 0
M  V30 7325 H 662.875 5.57057 1.86978 0
M  V30 7326 H 664.399 5.43048 2.79162 0
M  V30 7327 H 665.813 5.70778 0.537176 0
M  V30 7328 H 664.21 5.9977 -0.198977 0
M  V30 7329 H 665.28 4.76611 -0.892736 0
M  V30 7330 N 666.623 0.143563 1.56945 0
M  V30 7331 C 667.553 -0.7936 2.196 0
M  V30 7332 C 668.534 -1.25955 1.14321 0
M  V30 7333 O 669.719 -1.31773 1.42651 0
M  V30 7334 C 666.849 -2.03424 2.81489 0
M  V30 7335 C 665.803 -1.70519 3.92565 0
M  V30 7336 C 665.129 -3.01817 4.41373 0
M  V30 7337 C 666.429 -0.95449 5.13504 0
M  V30 7338 H 668.123 -0.271423 2.98167 0
M  V30 7339 H 665.669 -0.12911 1.4342 0
M  V30 7340 H 667.622 -2.69463 3.23987 0
M  V30 7341 H 666.346 -2.58008 2.00248 0
M  V30 7342 H 665.005 -1.06859 3.5068 0
M  V30 7343 H 664.653 -3.54386 3.56959 0
M  V30 7344 H 664.353 -2.80565 5.16292 0
M  V30 7345 H 665.877 -3.68934 4.86539 0
M  V30 7346 H 667.291 -1.5169 5.52868 0
M  V30 7347 H 665.688 -0.842035 5.94163 0
M  V30 7348 H 666.758 0.0544033 4.84869 0
M  V30 7349 N 668.101 -1.57061 -0.130224 0
M  V30 7350 C 669.349 -1.83893 -0.838313 0
M  V30 7351 C 669.67 -0.727046 -1.80939 0
M  V30 7352 O 668.94 0.249927 -1.94299 0
M  V30 7353 H 667.52 -0.67846 -0.312573 0
M  V30 7354 H 670.182 -1.94529 -0.120224 0
M  V30 7355 H 669.278 -2.79419 -1.39038 0
M  V30 7356 N 669.579 0.400081 -1.52437 0
M  V30 7357 C 670.804 1.17221 -1.71096 0
M  V30 7358 C 671.229 1.83269 -0.423565 0
M  V30 7359 O 670.587 1.70378 0.619751 0
M  V30 7360 C 670.635 2.20425 -2.85386 0
M  V30 7361 O 669.739 3.26769 -2.51586 0
M  V30 7362 H 669.08 0.341766 -0.569291 0
M  V30 7363 H 671.61 0.467772 -1.99181 0
M  V30 7364 H 671.62 2.64605 -3.10561 0
M  V30 7365 H 670.295 1.71737 -3.78786 0
M  V30 7366 H 668.872 2.87804 -2.37114 0
M  V30 7367 N 671.057 1.43213 0.657864 0
M  V30 7368 C 672.282 1.48227 1.45064 0
M  V30 7369 C 672.707 0.0999939 1.87834 0
M  V30 7370 O 672.065 -0.905269 1.57081 0
M  V30 7371 C 672.113 2.42931 2.6649 0
M  V30 7372 O 671.217 1.91237 3.6538 0
M  V30 7373 H 670.558 0.501551 0.435135 0
M  V30 7374 H 673.088 1.8808 0.805431 0
M  V30 7375 H 673.098 2.6008 3.1436 0
M  V30 7376 H 671.773 3.43348 2.34701 0
M  V30 7377 H 670.35 1.83726 3.24498 0
M  V30 7378 N 672.536 -0.895792 1.29666 0
M  V30 7379 C 673.499 -1.98189 1.15124 0
M  V30 7380 C 674.499 -1.60572 0.0855717 0
M  V30 7381 O 675.689 -1.70991 0.332826 0
M  V30 7382 C 672.821 -3.32289 0.761372 0
M  V30 7383 H 674.014 -2.12518 2.11603 0
M  V30 7384 H 671.567 -1.0808 1.12908 0
M  V30 7385 H 672.302 -3.23662 -0.203393 0
M  V30 7386 H 672.087 -3.60958 1.53139 0
M  V30 7387 H 673.577 -4.1198 0.682792 0
M  V30 7388 N 674.014 -1.12206 -1.10668 0
M  V30 7389 C 674.944 -0.810086 -2.18997 0
M  V30 7390 C 675.925 0.225065 -1.68604 0
M  V30 7391 O 677.11 0.086783 -1.94006 0
M  V30 7392 C 674.24 -0.261262 -3.46316 0
M  V30 7393 C 673.194 -1.2292 -4.09969 0
M  V30 7394 C 672.52 -0.540713 -5.31959 0
M  V30 7395 C 673.82 -2.58295 -4.53962 0
M  V30 7396 H 675.514 -1.7159 -2.45352 0
M  V30 7397 H 673.06 -0.82646 -1.17922 0
M  V30 7398 H 675.013 -0.0307522 -4.21389 0
M  V30 7399 H 673.737 0.679879 -3.19445 0
M  V30 7400 H 672.396 -1.44548 -3.369 0
M  V30 7401 H 672.044 0.405492 -5.01363 0
M  V30 7402 H 671.744 -1.18637 -5.75499 0
M  V30 7403 H 673.268 -0.319184 -6.09765 0
M  V30 7404 H 674.682 -2.40709 -5.20319 0
M  V30 7405 H 673.079 -3.18916 -5.08343 0
M  V30 7406 H 674.149 -3.16918 -3.67002 0
M  V30 7407 N 675.492 1.28418 -0.913599 0
M  V30 7408 C 676.738 1.9527 -0.547484 0
M  V30 7409 C 677.071 1.71745 0.906486 0
M  V30 7410 O 676.346 1.03834 1.64465 0
M  V30 7411 C 676.629 3.49748 -0.857205 0
M  V30 7412 C 676.482 3.82675 -2.3639 0
M  V30 7413 C 677.801 4.3868 -0.353258 0
M  V30 7414 H 674.92 0.709236 -0.200381 0
M  V30 7415 H 677.562 1.51789 -1.14281 0
M  V30 7416 H 675.712 3.86915 -0.350548 0
M  V30 7417 H 677.384 3.55378 -2.94116 0
M  V30 7418 H 675.627 3.29724 -2.81894 0
M  V30 7419 H 676.298 4.90547 -2.53115 0
M  V30 7420 H 678.774 4.08584 -0.787288 0
M  V30 7421 H 677.65 5.45621 -0.599049 0
M  V30 7422 H 677.911 4.35753 0.746413 0
M  V30 7423 N 676.97 0.677563 1.42291 0
M  V30 7424 C 678.218 0.200578 2.01102 0
M  V30 7425 C 678.539 -1.19803 1.53858 0
M  V30 7426 O 677.809 -1.80496 0.761439 0
M  V30 7427 H 676.389 0.0711634 0.743603 0
M  V30 7428 H 679.051 0.874691 1.7417 0
M  V30 7429 H 678.147 0.204 3.11433 0
M  V30 7430 N 678.448 -1.51871 0.421078 0
M  V30 7431 C 679.411 -2.25914 -0.386712 0
M  V30 7432 C 680.411 -1.28733 -0.963555 0
M  V30 7433 O 681.601 -1.52579 -0.840556 0
M  V30 7434 C 678.733 -3.03853 -1.54551 0
M  V30 7435 H 679.926 -2.98754 0.261978 0
M  V30 7436 H 677.479 -1.5533 0.173862 0
M  V30 7437 H 678.214 -2.35392 -2.23072 0
M  V30 7438 H 677.999 -3.75215 -1.13824 0
M  V30 7439 H 679.489 -3.59984 -2.11663 0
M  V30 7440 N 679.926 -0.151884 -1.56866 0
M  V30 7441 C 680.889 0.771861 -2.15812 0
M  V30 7442 C 681.889 1.17181 -1.10115 0
M  V30 7443 O 683.079 1.09194 -1.35729 0
M  V30 7444 C 680.211 2.04806 -2.7252 0
M  V30 7445 H 681.404 0.259021 -2.98779 0
M  V30 7446 H 678.957 0.097588 -1.55995 0
M  V30 7447 H 679.692 2.60445 -1.93233 0
M  V30 7448 H 679.477 1.77044 -3.49854 0
M  V30 7449 H 680.967 2.70771 -3.1792 0
M  V30 7450 N 681.404 1.57128 0.121893 0
M  V30 7451 C 682.65 1.84974 0.831418 0
M  V30 7452 C 682.983 0.737204 1.79663 0
M  V30 7453 O 682.258 -0.257199 1.92792 0
M  V30 7454 C 682.541 3.23397 1.58386 0
M  V30 7455 C 682.394 4.45246 0.638445 0
M  V30 7456 C 683.713 3.59355 2.54071 0
M  V30 7457 H 680.832 0.67282 0.300803 0
M  V30 7458 H 683.474 1.89759 0.0957587 0
M  V30 7459 H 681.624 3.19449 2.21098 0
M  V30 7460 H 683.296 4.61295 0.0203925 0
M  V30 7461 H 681.539 4.33771 -0.05023 0
M  V30 7462 H 682.21 5.38765 1.20151 0
M  V30 7463 H 684.686 3.64075 2.01465 0
M  V30 7464 H 683.562 4.57193 3.03752 0
M  V30 7465 H 683.823 2.86622 3.36601 0
M  V30 7466 N 682.882 -0.391992 1.52647 0
M  V30 7467 C 684.131 -1.13449 1.6677 0
M  V30 7468 C 684.444 -1.91203 0.412399 0
M  V30 7469 O 685.65 -2.68013 0.433707 0
M  V30 7470 C 684.106 -2.06577 2.9471 0
M  V30 7471 C 683.714 -1.3426 4.27409 0
M  V30 7472 C 685.458 -2.80981 3.18198 0
M  V30 7473 C 683.365 -2.26136 5.46458 0
M  V30 7474 H 682.295 -0.427211 0.621295 0
M  V30 7475 H 684.946 -0.397522 1.79142 0
M  V30 7476 H 683.328 -2.83898 2.76076 0
M  V30 7477 H 684.502 -0.621856 4.56585 0
M  V30 7478 H 682.817 -0.718279 4.10158 0
M  V30 7479 H 685.414 -3.49898 4.04321 0
M  V30 7480 H 685.757 -3.44891 2.33144 0
M  V30 7481 H 686.29 -2.10754 3.37383 0
M  V30 7482 H 683.029 -1.66846 6.33911 0
M  V30 7483 H 682.549 -2.96134 5.21598 0
M  V30 7484 H 684.228 -2.86286 5.80215 0
M  V30 7485 N 684.36 -1.4356 -0.65026 0
M  V30 7486 C 685.606 -1.45549 -1.41221 0
M  V30 7487 C 685.939 -0.0805472 -1.94033 0
M  V30 7488 O 685.214 0.899043 -1.72475 0
M  V30 7489 C 685.497 -2.50028 -2.59148 0
M  V30 7490 C 685.35 -3.96808 -2.1181 0
M  V30 7491 C 686.669 -2.51212 -3.61359 0
M  V30 7492 H 683.788 -0.529967 -0.512156 0
M  V30 7493 H 686.43 -1.75127 -0.736933 0
M  V30 7494 H 684.58 -2.24937 -3.16758 0
M  V30 7495 H 686.252 -4.32966 -1.59178 0
M  V30 7496 H 684.495 -4.09498 -1.43156 0
M  V30 7497 H 685.166 -4.6553 -2.96625 0
M  V30 7498 H 687.642 -2.73583 -3.13515 0
M  V30 7499 H 686.518 -3.26252 -4.41419 0
M  V30 7500 H 686.779 -1.54701 -4.1415 0
M  V30 7501 N 685.838 0.888903 -1.30139 0
M  V30 7502 C 686.768 2.01046 -1.18755 0
M  V30 7503 C 687.749 1.69916 -0.0791438 0
M  V30 7504 O 688.934 1.92445 -0.260498 0
M  V30 7505 C 686.064 3.36109 -0.874518 0
M  V30 7506 C 685.018 3.81486 -1.94043 0
M  V30 7507 C 684.344 5.13796 -1.48047 0
M  V30 7508 C 685.644 4.00637 -3.35093 0
M  V30 7509 H 687.338 2.10828 -2.12584 0
M  V30 7510 H 684.884 1.01298 -1.02346 0
M  V30 7511 H 686.837 4.14089 -0.781548 0
M  V30 7512 H 685.561 3.26449 0.0994519 0
M  V30 7513 H 684.22 3.05731 -2.02297 0
M  V30 7514 H 683.868 5.0056 -0.494878 0
M  V30 7515 H 683.568 5.45127 -2.19341 0
M  V30 7516 H 685.092 5.94305 -1.40121 0
M  V30 7517 H 686.506 4.69067 -3.2962 0
M  V30 7518 H 684.903 4.43339 -4.04438 0
M  V30 7519 H 685.973 3.0462 -3.77273 0
M  V30 7520 N 687.317 1.12792 1.10072 0
M  V30 7521 C 688.247 0.821688 2.18565 0
M  V30 7522 C 689.228 -0.21612 1.68721 0
M  V30 7523 O 690.413 -0.0764932 1.94049 0
M  V30 7524 C 687.543 0.279624 3.46172 0
M  V30 7525 C 686.497 1.25092 4.09312 0
M  V30 7526 C 685.823 0.568916 5.31665 0
M  V30 7527 C 687.123 2.60699 4.52585 0
M  V30 7528 H 688.817 1.72888 2.44438 0
M  V30 7529 H 686.363 0.832702 1.17482 0
M  V30 7530 H 688.316 0.053099 4.21367 0
M  V30 7531 H 687.04 -0.662929 3.19801 0
M  V30 7532 H 685.699 1.46332 3.36129 0
M  V30 7533 H 685.347 -0.378898 5.01571 0
M  V30 7534 H 685.047 1.21687 5.74862 0
M  V30 7535 H 686.571 0.351517 6.09587 0
M  V30 7536 H 687.985 2.43465 5.19035 0
M  V30 7537 H 686.382 3.21608 5.06644 0
M  V30 7538 H 687.452 3.1886 3.65317 0
M  V30 7539 N 688.795 -1.27931 0.920396 0
M  V30 7540 C 689.758 -2.25345 0.41858 0
M  V30 7541 C 690.758 -1.54116 -0.458798 0
M  V30 7542 O 691.948 -1.72235 -0.260912 0
M  V30 7543 C 689.08 -3.38556 -0.399104 0
M  V30 7544 H 690.273 -2.71251 1.27918 0
M  V30 7545 H 687.826 -1.39728 0.700406 0
M  V30 7546 H 688.561 -2.98021 -1.27882 0
M  V30 7547 H 688.346 -3.91426 0.229863 0
M  V30 7548 H 689.836 -4.10976 -0.740817 0
M  V30 7549 N 690.273 -0.685099 -1.4193 0
M  V30 7550 C 691.684 -0.287699 -1.8447 0
M  V30 7551 C 692.035 1.17215 -1.57338 0
M  V30 7552 O 691.16 1.89856 -1.03845 0
M  V30 7553 C 691.755 -0.515385 -3.34857 0
M  V30 7554 C 690.314 -0.172006 -3.76007 0
M  V30 7555 C 689.461 -0.802808 -2.65425 0
M  V30 7556 H 692.412 -0.88652 -1.3163 0
M  V30 7557 H 692.433 0.229251 -3.79809 0
M  V30 7558 H 691.945 -1.57796 -3.54573 0
M  V30 7559 H 690.046 0.886716 -3.61895 0
M  V30 7560 H 690.159 -0.619717 -4.75075 0
M  V30 7561 H 688.523 -0.233267 -2.5363 0
M  V30 7562 H 689.306 -1.86904 -2.87961 0
M  V30 7563 N 691.751 1.51645 -0.429126 0
M  V30 7564 C 693 2.01203 0.141538 0
M  V30 7565 C 693.313 1.31828 1.44502 0
M  V30 7566 O 694.519 1.7231 2.09813 0
M  V30 7567 C 692.975 3.58624 0.302786 0
M  V30 7568 C 692.583 4.3693 -0.989775 0
M  V30 7569 C 694.327 4.16353 0.827661 0
M  V30 7570 C 692.234 5.86037 -0.794619 0
M  V30 7571 H 691.164 0.751867 0.05667 0
M  V30 7572 H 693.815 1.74822 -0.557633 0
M  V30 7573 H 692.197 3.81417 1.06476 0
M  V30 7574 H 693.371 4.25887 -1.75945 0
M  V30 7575 H 691.686 3.90614 -1.44256 0
M  V30 7576 H 694.283 5.25455 0.990026 0
M  V30 7577 H 694.626 3.74995 1.80787 0
M  V30 7578 H 695.159 3.97606 0.124213 0
M  V30 7579 H 691.898 6.31792 -1.74697 0
M  V30 7580 H 691.418 5.99765 -0.0645968 0
M  V30 7581 H 693.097 6.45471 -0.444591 0
M  V30 7582 N 693.229 0.160201 1.56784 0
M  V30 7583 C 694.161 -0.80564 2.14574 0
M  V30 7584 C 695.174 -1.20154 1.09849 0
M  V30 7585 O 696.363 -1.14333 1.37078 0
M  V30 7586 C 693.463 -2.09434 2.6644 0
M  V30 7587 C 692.636 -1.86375 3.95706 0
M  V30 7588 C 691.695 -2.99358 4.32749 0
M  V30 7589 O 690.721 -2.70475 5.00831 0
M  V30 7590 N 691.923 -4.26867 3.93402 0
M  V30 7591 H 694.688 -0.311644 2.98075 0
M  V30 7592 H 692.249 -0.0229465 1.61884 0
M  V30 7593 H 694.241 -2.84091 2.88226 0
M  V30 7594 H 692.811 -2.50057 1.8759 0
M  V30 7595 H 692.031 -0.956821 3.82412 0
M  V30 7596 H 693.319 -1.68322 4.80151 0
M  V30 7597 H 692.717 -4.53197 3.38569 0
M  V30 7598 H 691.274 -4.98263 4.20211 0
M  V30 7599 N 694.707 -1.5719 -0.113559 0
M  V30 7600 C 695.937 -1.89053 -0.833212 0
M  V30 7601 C 696.345 -0.750139 -1.73694 0
M  V30 7602 O 695.688 0.287808 -1.81431 0
M  V30 7603 C 695.75 -3.15986 -1.71443 0
M  V30 7604 C 695.414 -4.46271 -0.984449 0
M  V30 7605 C 696.411 -5.18897 -0.322741 0
M  V30 7606 C 694.096 -4.92963 -0.964011 0
M  V30 7607 C 696.09 -6.3644 0.349646 0
M  V30 7608 C 693.777 -6.10422 -0.287828 0
M  V30 7609 C 694.775 -6.82009 0.36784 0
M  V30 7610 O 694.463 -7.97233 1.03322 0
M  V30 7611 H 694.195 -0.630225 -0.244526 0
M  V30 7612 H 696.749 -2.05152 -0.100847 0
M  V30 7613 H 694.979 -2.95984 -2.48858 0
M  V30 7614 H 696.668 -3.33826 -2.309 0
M  V30 7615 H 697.434 -4.83875 -0.330114 0
M  V30 7616 H 693.313 -4.37143 -1.46379 0
M  V30 7617 H 696.857 -6.92254 0.861996 0
M  V30 7618 H 692.754 -6.449 -0.278237 0
M  V30 7619 H 693.522 -8.13105 0.938247 0
M  V30 7620 N 696.185 0.383891 -1.52853 0
M  V30 7621 C 697.432 1.12842 -1.68146 0
M  V30 7622 C 697.76 1.89823 -0.423954 0
M  V30 7623 O 697.015 1.86475 0.593765 0
M  V30 7624 C 697.314 2.12881 -2.87082 0
M  V30 7625 C 696.98 1.52519 -4.24322 0
M  V30 7626 C 695.642 1.35783 -4.61645 0
M  V30 7627 C 697.994 1.0868 -5.09743 0
M  V30 7628 C 695.322 0.737643 -5.82044 0
M  V30 7629 C 697.674 0.480699 -6.30771 0
M  V30 7630 C 696.338 0.300681 -6.66822 0
M  V30 7631 H 695.608 0.412917 -0.615289 0
M  V30 7632 H 698.255 0.412416 -1.87006 0
M  V30 7633 H 696.56 2.90719 -2.62659 0
M  V30 7634 H 698.257 2.70408 -2.96109 0
M  V30 7635 H 694.847 1.66534 -3.94923 0
M  V30 7636 H 699.031 1.2041 -4.81472 0
M  V30 7637 H 694.287 0.586415 -6.08581 0
M  V30 7638 H 698.461 0.132733 -6.96273 0
M  V30 7639 H 696.088 -0.181966 -7.59982 0
M  V30 7640 N 697.663 1.43903 0.642637 0
M  V30 7641 C 698.912 1.45362 1.39831 0
M  V30 7642 C 699.225 0.0856289 1.95412 0
M  V30 7643 O 700.431 -0.0222856 2.71491 0
M  V30 7644 C 698.887 2.55857 2.53111 0
M  V30 7645 C 698.495 3.98811 2.04092 0
M  V30 7646 C 700.239 2.66524 3.30402 0
M  V30 7647 C 698.146 5.00751 3.14647 0
M  V30 7648 H 697.076 0.540777 0.52543 0
M  V30 7649 H 699.727 1.69929 0.692559 0
M  V30 7650 H 698.109 2.2451 3.26207 0
M  V30 7651 H 699.283 4.3967 1.37938 0
M  V30 7652 H 697.598 3.92284 1.39651 0
M  V30 7653 H 700.195 3.39858 4.12796 0
M  V30 7654 H 700.538 1.71949 3.79129 0
M  V30 7655 H 701.071 2.97224 2.64392 0
M  V30 7656 H 697.81 5.96914 2.70876 0
M  V30 7657 H 697.33 4.64495 3.79479 0
M  V30 7658 H 699.009 5.23933 3.79609 0
M  V30 7659 N 699.141 -0.881989 1.30609 0
M  V30 7660 C 700.104 -1.96957 1.1722 0
M  V30 7661 C 701.104 -1.60472 0.102598 0
M  V30 7662 O 702.294 -1.70628 0.350943 0
M  V30 7663 C 699.426 -3.31463 0.796572 0
M  V30 7664 H 700.619 -2.10262 2.13846 0
M  V30 7665 H 698.172 -1.06877 1.14048 0
M  V30 7666 H 698.907 -3.23859 -0.169053 0
M  V30 7667 H 698.692 -3.59314 1.56959 0
M  V30 7668 H 700.182 -4.11233 0.72645 0
M  V30 7669 N 700.619 -1.13374 -1.09472 0
M  V30 7670 C 701.847 -0.918351 -1.85402 0
M  V30 7671 C 702.262 0.53281 -1.81126 0
M  V30 7672 O 701.619 1.36879 -1.20708 0
M  V30 7673 C 701.67 -1.39743 -3.33398 0
M  V30 7674 O 701.391 -2.79172 -3.37631 0
M  V30 7675 C 702.892 -1.22042 -4.2617 0
M  V30 7676 H 700.112 -0.327511 -0.585643 0
M  V30 7677 H 702.656 -1.50617 -1.38328 0
M  V30 7678 H 700.811 -0.852619 -3.77901 0
M  V30 7679 H 701.225 -3.00428 -4.29934 0
M  V30 7680 H 702.699 -1.60438 -5.2817 0
M  V30 7681 H 703.176 -0.162047 -4.38901 0
M  V30 7682 H 703.782 -1.75323 -3.87482 0
M  V30 7683 N 702.098 1.27442 -0.927168 0
M  V30 7684 C 703.045 2.26863 -0.424459 0
M  V30 7685 C 704.015 1.5813 0.508346 0
M  V30 7686 O 705.2 1.85946 0.42762 0
M  V30 7687 C 702.34 3.43639 0.31718 0
M  V30 7688 C 701.453 4.27087 -0.649675 0
M  V30 7689 C 700.588 5.31082 0.111753 0
M  V30 7690 C 699.627 6.062 -0.847843 0
M  V30 7691 N 698.764 7.01999 -0.119074 0
M  V30 7692 H 703.604 2.69239 -1.27728 0
M  V30 7693 H 701.141 1.32394 -0.641106 0
M  V30 7694 H 703.099 4.10155 0.763486 0
M  V30 7695 H 701.729 3.02217 1.13424 0
M  V30 7696 H 700.781 3.60491 -1.21451 0
M  V30 7697 H 702.093 4.79242 -1.38307 0
M  V30 7698 H 701.247 6.03544 0.618 0
M  V30 7699 H 699.986 4.7973 0.878114 0
M  V30 7700 H 698.991 5.32577 -1.36534 0
M  V30 7701 H 700.216 6.59642 -1.61398 0
M  V30 7702 H 698.162 6.52977 0.629051 0
M  V30 7703 H 698.079 7.5184 -0.792046 0
M  V30 7704 H 699.347 7.78638 0.366537 0
M  V30 7705 N 703.576 0.692616 1.41565 0
M  V30 7706 C 704.506 0.0397325 2.33466 0
M  V30 7707 C 705.487 -0.770334 1.51657 0
M  V30 7708 O 706.672 -0.723903 1.80203 0
M  V30 7709 C 703.802 -0.899495 3.3545 0
M  V30 7710 C 702.756 -0.196738 4.27548 0
M  V30 7711 C 702.082 -1.25012 5.19881 0
M  V30 7712 C 703.382 0.935158 5.1386 0
M  V30 7713 H 705.076 0.807296 2.88311 0
M  V30 7714 H 702.622 0.389665 1.38628 0
M  V30 7715 H 704.575 -1.36545 3.98665 0
M  V30 7716 H 703.299 -1.69869 2.78948 0
M  V30 7717 H 701.958 0.249158 3.65752 0
M  V30 7718 H 701.606 -2.04177 4.59696 0
M  V30 7719 H 701.306 -0.784931 5.82334 0
M  V30 7720 H 702.83 -1.71665 5.85972 0
M  V30 7721 H 704.244 0.549619 5.70659 0
M  V30 7722 H 702.641 1.32726 5.85238 0
M  V30 7723 H 703.711 1.77613 4.512 0
M  V30 7724 N 705.054 -1.51416 0.437162 0
M  V30 7725 C 706.017 -2.26312 -0.362729 0
M  V30 7726 C 707.017 -1.29748 -0.949847 0
M  V30 7727 O 708.207 -1.53462 -0.824325 0
M  V30 7728 C 705.339 -3.05475 -1.5132 0
M  V30 7729 H 706.532 -2.98459 0.29365 0
M  V30 7730 H 704.085 -1.55137 0.190327 0
M  V30 7731 H 704.82 -2.37744 -2.20563 0
M  V30 7732 H 704.605 -3.76401 -1.09838 0
M  V30 7733 H 706.095 -3.62209 -2.07833 0
M  V30 7734 N 706.532 -0.168513 -1.56696 0
M  V30 7735 C 707.442 0.775435 -2.21414 0
M  V30 7736 C 708.458 1.25529 -1.20492 0
M  V30 7737 O 709.634 1.30801 -1.53144 0
M  V30 7738 C 706.699 1.9886 -2.83999 0
M  V30 7739 C 705.76 1.5559 -4.00113 0
M  V30 7740 C 704.993 2.71124 -4.59704 0
M  V30 7741 O 705.216 3.87917 -4.18182 0
M  V30 7742 O 704.15 2.4536 -5.4962 0
M  V30 7743 H 707.976 0.254416 -3.02632 0
M  V30 7744 H 705.561 0.0595507 -1.49281 0
M  V30 7745 H 707.443 2.69816 -3.23693 0
M  V30 7746 H 706.118 2.49874 -2.05779 0
M  V30 7747 H 705.025 0.815924 -3.65094 0
M  V30 7748 H 706.358 1.09271 -4.79917 0
M  V30 7749 N 708.01 1.57248 0.105221 0
M  V30 7750 C 708.973 2.00388 1.11252 0
M  V30 7751 C 709.973 0.89594 1.33527 0
M  V30 7752 O 711.163 1.16166 1.29811 0
M  V30 7753 C 708.295 2.35589 2.46395 0
M  V30 7754 H 709.488 2.90591 0.741424 0
M  V30 7755 H 707.041 1.52332 0.349956 0
M  V30 7756 H 707.776 1.4831 2.884 0
M  V30 7757 H 707.561 3.16408 2.31578 0
M  V30 7758 H 709.051 2.69658 3.18864 0
M  V30 7759 N 709.488 -0.375779 1.53054 0
M  V30 7760 C 710.42 -1.47963 1.75042 0
M  V30 7761 C 711.433 -1.50073 0.631031 0
M  V30 7762 O 712.622 -1.53736 0.907052 0
M  V30 7763 C 709.722 -2.86767 1.80604 0
M  V30 7764 C 708.895 -3.08471 3.10104 0
M  V30 7765 C 707.954 -4.27332 3.07041 0
M  V30 7766 O 706.98 -4.22998 3.80869 0
M  V30 7767 N 708.182 -5.34214 2.27147 0
M  V30 7768 H 710.947 -1.29484 2.70285 0
M  V30 7769 H 708.508 -0.565416 1.51706 0
M  V30 7770 H 710.5 -3.64404 1.76045 0
M  V30 7771 H 709.07 -2.98542 0.926897 0
M  V30 7772 H 708.29 -2.18583 3.28048 0
M  V30 7773 H 709.578 -3.19834 3.95706 0
M  V30 7774 H 708.976 -5.40594 1.66656 0
M  V30 7775 H 707.533 -6.10467 2.28415 0
M  V30 7776 N 710.966 -1.44241 -0.634997 0
M  V30 7777 C 711.913 -1.5081 -1.74714 0
M  V30 7778 C 712.883 -0.356147 -1.62237 0
M  V30 7779 O 714.068 -0.565848 -1.82216 0
M  V30 7780 C 711.208 -1.45458 -3.12947 0
M  V30 7781 C 710.321 -2.70998 -3.36428 0
M  V30 7782 C 709.456 -2.57507 -4.64611 0
M  V30 7783 C 708.495 -3.78229 -4.81258 0
M  V30 7784 N 707.632 -3.63438 -6.00714 0
M  V30 7785 H 712.472 -2.45832 -1.68436 0
M  V30 7786 H 710.009 -1.2201 -0.821706 0
M  V30 7787 H 711.967 -1.40347 -3.92885 0
M  V30 7788 H 710.597 -0.540058 -3.1825 0
M  V30 7789 H 709.649 -2.86312 -2.50458 0
M  V30 7790 H 710.961 -3.60619 -3.44609 0
M  V30 7791 H 710.115 -2.50207 -5.52703 0
M  V30 7792 H 708.854 -1.65441 -4.58782 0
M  V30 7793 H 707.859 -3.85918 -3.91596 0
M  V30 7794 H 709.084 -4.71327 -4.88904 0
M  V30 7795 H 707.03 -2.7412 -5.95982 0
M  V30 7796 H 706.947 -4.46672 -6.09934 0
M  V30 7797 H 708.215 -3.60022 -6.91378 0
M  V30 7798 N 712.444 0.87505 -1.31075 0
M  V30 7799 C 713.669 1.66583 -1.23551 0
M  V30 7800 C 714.094 1.87067 0.19686 0
M  V30 7801 O 713.452 1.40877 1.1412 0
M  V30 7802 C 713.5 3.01401 -1.97965 0
M  V30 7803 O 712.604 3.90923 -1.31351 0
M  V30 7804 H 711.945 0.508645 -0.426821 0
M  V30 7805 H 714.475 1.09139 -1.7306 0
M  V30 7806 H 714.485 3.51374 -2.07366 0
M  V30 7807 H 713.16 2.85812 -3.02133 0
M  V30 7808 H 711.737 3.49369 -1.30368 0
M  V30 7809 N 713.922 1.13953 1.08869 0
M  V30 7810 C 715.15 0.92817 1.84912 0
M  V30 7811 C 715.565 -0.523197 1.81406 0
M  V30 7812 O 714.922 -1.36237 1.21432 0
M  V30 7813 C 714.973 1.41509 3.32652 0
M  V30 7814 O 714.694 2.80959 3.36145 0
M  V30 7815 C 716.195 1.243 4.25517 0
M  V30 7816 H 713.415 0.330612 0.583898 0
M  V30 7817 H 715.959 1.51349 1.37527 0
M  V30 7818 H 714.114 0.872648 3.77444 0
M  V30 7819 H 714.528 3.02704 4.28335 0
M  V30 7820 H 716.002 1.63237 5.27312 0
M  V30 7821 H 716.479 0.18532 4.38809 0
M  V30 7822 H 717.085 1.77375 3.86546 0
M  V30 7823 N 715.4 -1.26948 0.933913 0
M  V30 7824 C 716.33 -2.29017 0.45534 0
M  V30 7825 C 717.311 -1.62961 -0.487605 0
M  V30 7826 O 718.496 -1.90223 -0.391022 0
M  V30 7827 C 715.626 -3.46112 -0.287015 0
M  V30 7828 C 714.58 -4.24205 0.568682 0
M  V30 7829 C 713.906 -5.3384 -0.303206 0
M  V30 7830 C 715.206 -4.88954 1.83633 0
M  V30 7831 H 716.9 -2.69298 1.30839 0
M  V30 7832 H 714.446 -1.29459 0.630579 0
M  V30 7833 H 716.399 -4.16622 -0.6328 0
M  V30 7834 H 715.123 -3.04765 -1.17414 0
M  V30 7835 H 713.782 -3.5545 0.897261 0
M  V30 7836 H 713.43 -4.88734 -1.18947 0
M  V30 7837 H 713.13 -5.86998 0.265879 0
M  V30 7838 H 714.654 -6.0719 -0.644423 0
M  V30 7839 H 716.068 -5.51717 1.55823 0
M  V30 7840 H 714.465 -5.52198 2.34941 0
M  V30 7841 H 715.535 -4.12305 2.55211 0
M  V30 7842 N 716.879 -0.700114 -1.41195 0
M  V30 7843 C 718.156 -0.160836 -1.94938 0
M  V30 7844 C 718.536 1.33014 -1.63922 0
M  V30 7845 O 717.884 2.07878 -0.948636 0
M  V30 7846 C 718.094 -0.456991 -3.45995 0
M  V30 7847 C 719.442 -0.387207 -4.22831 0
M  V30 7848 O 720.466 -0.392164 -3.54035 0
M  V30 7849 O 719.325 -0.351267 -5.4537 0
M  V30 7850 H 716.419 -0.0176304 -0.826812 0
M  V30 7851 H 718.965 -0.776586 -1.50888 0
M  V30 7852 H 717.737 -1.48884 -3.61869 0
M  V30 7853 H 717.36 0.189503 -3.97148 0
M  V30 7854 N 718.357 1.51182 -0.445186 0
M  V30 7855 C 719.587 2.06269 0.116922 0
M  V30 7856 C 719.995 1.31188 1.36332 0
M  V30 7857 O 719.338 0.367067 1.79995 0
M  V30 7858 C 719.4 3.56051 0.496757 0
M  V30 7859 C 719.064 4.52441 -0.64394 0
M  V30 7860 C 720.061 4.97233 -1.5184 0
M  V30 7861 C 717.746 4.95447 -0.826905 0
M  V30 7862 C 719.74 5.83712 -2.56046 0
M  V30 7863 C 717.427 5.81714 -1.87222 0
M  V30 7864 C 718.425 6.25745 -2.73738 0
M  V30 7865 O 718.113 7.10298 -3.76474 0
M  V30 7866 H 717.845 0.675954 0.00785733 0
M  V30 7867 H 720.399 1.95648 -0.625371 0
M  V30 7868 H 718.629 3.64483 1.29187 0
M  V30 7869 H 720.318 3.93618 0.990928 0
M  V30 7870 H 721.084 4.64696 -1.38862 0
M  V30 7871 H 716.963 4.60712 -0.163052 0
M  V30 7872 H 720.507 6.18 -3.23607 0
M  V30 7873 H 716.404 6.13664 -2.00218 0
M  V30 7874 H 717.172 7.28493 -3.73149 0
M  V30 7875 N 719.835 0.176821 1.56605 0
M  V30 7876 C 721.06 -0.47599 2.01864 0
M  V30 7877 C 721.485 -1.55645 1.05623 0
M  V30 7878 O 720.843 -1.81263 0.0366729 0
M  V30 7879 C 720.891 -1.02619 3.4569 0
M  V30 7880 O 719.995 -2.13996 3.52533 0
M  V30 7881 H 719.336 -0.113363 0.654251 0
M  V30 7882 H 721.866 0.28233 2.02643 0
M  V30 7883 H 721.876 -1.34742 3.85109 0
M  V30 7884 H 720.551 -0.235138 4.15235 0
M  V30 7885 H 719.128 -1.82876 3.24978 0
M  V30 7886 N 721.313 -1.57302 -0.09688 0
M  V30 7887 C 722.541 -1.90202 -0.814295 0
M  V30 7888 C 722.956 -0.770344 -1.72369 0
M  V30 7889 O 722.313 0.257764 -1.8067 0
M  V30 7890 C 722.364 -3.22708 -1.62916 0
M  V30 7891 O 722.085 -4.31522 -0.756343 0
M  V30 7892 C 723.586 -3.69459 -2.44979 0
M  V30 7893 H 720.806 -0.629275 -0.232925 0
M  V30 7894 H 723.35 -2.04364 -0.0746482 0
M  V30 7895 H 721.505 -3.1015 -2.32133 0
M  V30 7896 H 721.919 -5.07604 -1.32054 0
M  V30 7897 H 723.393 -4.64875 -2.9765 0
M  V30 7898 H 723.87 -2.97211 -3.23361 0
M  V30 7899 H 724.476 -3.84879 -1.80964 0
M  V30 7900 N 722.791 0.367657 -1.53252 0
M  V30 7901 C 723.701 1.47415 -1.82499 0
M  V30 7902 C 724.717 1.58711 -0.713222 0
M  V30 7903 O 725.893 1.74644 -1.00306 0
M  V30 7904 C 722.958 2.82706 -2.00694 0
M  V30 7905 C 722.019 2.80955 -3.24596 0
M  V30 7906 C 721.252 4.09793 -3.41914 0
M  V30 7907 O 721.475 5.05852 -2.63572 0
M  V30 7908 O 720.409 4.15731 -4.3526 0
M  V30 7909 H 724.235 1.25624 -2.765 0
M  V30 7910 H 721.82 0.557559 -1.38606 0
M  V30 7911 H 723.702 3.62873 -2.14246 0
M  V30 7912 H 722.377 3.04479 -1.09883 0
M  V30 7913 H 721.284 1.99494 -3.16469 0
M  V30 7914 H 722.617 2.64136 -4.15323 0
M  V30 7915 N 724.269 1.44576 0.627338 0
M  V30 7916 C 725.685 1.28546 0.945938 0
M  V30 7917 C 725.885 0.224003 2.00251 0
M  V30 7918 O 724.941 -0.388817 2.49488 0
M  V30 7919 C 726.254 2.65825 1.40561 0
M  V30 7920 C 727.802 2.73566 1.52088 0
M  V30 7921 C 728.277 4.11323 2.01438 0
M  V30 7922 N 729.768 4.13519 2.08702 0
M  V30 7923 C 730.503 5.16964 2.48065 0
M  V30 7924 N 729.999 6.30768 2.86538 0
M  V30 7925 N 731.792 5.04319 2.48232 0
M  V30 7926 H 723.943 2.1228 -0.0713567 0
M  V30 7927 H 726.206 0.947503 0.0307081 0
M  V30 7928 H 725.912 3.44591 0.703539 0
M  V30 7929 H 725.786 2.92969 2.37591 0
M  V30 7930 H 728.173 1.95116 2.21391 0
M  V30 7931 H 728.254 2.50159 0.534237 0
M  V30 7932 H 727.898 4.9025 1.32729 0
M  V30 7933 H 727.828 4.32109 3.0098 0
M  V30 7934 H 730.319 3.31385 1.81638 0
M  V30 7935 H 730.632 7.0551 3.15398 0
M  V30 7936 H 728.977 6.342 2.84281 0
M  V30 7937 H 732.168 4.14465 2.17569 0
M  V30 7938 H 732.341 5.85059 2.78585 0
M  V30 7939 N 725.747 -0.868086 1.31537 0
M  V30 7940 C 726.677 -1.99131 1.21939 0
M  V30 7941 C 727.658 -1.69768 0.106166 0
M  V30 7942 O 728.843 -1.92006 0.291081 0
M  V30 7943 C 725.973 -3.34676 0.927879 0
M  V30 7944 C 724.927 -3.7835 2.00088 0
M  V30 7945 C 724.253 -5.11375 1.56203 0
M  V30 7946 C 725.553 -3.95256 3.41424 0
M  V30 7947 H 727.247 -2.07419 2.15911 0
M  V30 7948 H 724.793 -0.996569 1.03945 0
M  V30 7949 H 726.746 -4.12793 0.847327 0
M  V30 7950 H 725.47 -3.26565 -0.0475042 0
M  V30 7951 H 724.129 -3.02474 2.07135 0
M  V30 7952 H 723.777 -4.99709 0.57445 0
M  V30 7953 H 723.477 -5.41568 2.27985 0
M  V30 7954 H 725.001 -5.92001 1.49558 0
M  V30 7955 H 726.415 -4.63764 3.3704 0
M  V30 7956 H 724.812 -4.36849 4.1144 0
M  V30 7957 H 725.882 -2.98579 3.82072 0
M  V30 7958 N 727.225 -1.14528 -1.08264 0
M  V30 7959 C 728.172 -0.833556 -2.15222 0
M  V30 7960 C 729.142 0.209539 -1.64773 0
M  V30 7961 O 730.327 0.0791388 -1.90636 0
M  V30 7962 C 727.467 -0.318799 -3.43624 0
M  V30 7963 C 726.58 -1.42237 -4.07913 0
M  V30 7964 C 725.715 -0.864704 -5.24115 0
M  V30 7965 C 724.754 -1.94585 -5.80347 0
M  V30 7966 N 723.891 -1.40525 -6.87893 0
M  V30 7967 H 728.731 -1.74965 -2.41228 0
M  V30 7968 H 726.268 -0.873169 -1.18381 0
M  V30 7969 H 728.226 -0.00213088 -4.172 0
M  V30 7970 H 726.856 0.560397 -3.17898 0
M  V30 7971 H 725.908 -1.8554 -3.32083 0
M  V30 7972 H 727.22 -2.23901 -4.45724 0
M  V30 7973 H 726.374 -0.500025 -6.04636 0
M  V30 7974 H 725.113 -0.0171219 -4.87697 0
M  V30 7975 H 724.118 -2.31946 -4.98479 0
M  V30 7976 H 725.343 -2.79704 -6.18823 0
M  V30 7977 H 723.289 -0.579873 -6.53432 0
M  V30 7978 H 723.206 -2.15825 -7.24538 0
M  V30 7979 H 724.474 -1.06852 -7.72142 0
M  V30 7980 N 728.703 1.26451 -0.940633 0
M  V30 7981 C 729.65 2.264 -0.448497 0
M  V30 7982 C 730.62 1.5866 0.491546 0
M  V30 7983 O 731.805 1.86389 0.407874 0
M  V30 7984 C 728.945 3.43956 0.280715 0
M  V30 7985 C 728.058 4.26374 -0.694937 0
M  V30 7986 C 727.193 5.31171 0.0554186 0
M  V30 7987 C 726.232 6.05266 -0.912091 0
M  V30 7988 N 725.369 7.01833 -0.193524 0
M  V30 7989 H 730.209 2.67869 -1.30576 0
M  V30 7990 H 727.746 1.31707 -0.655112 0
M  V30 7991 H 729.704 4.10941 0.71994 0
M  V30 7992 H 728.334 3.03403 1.10212 0
M  V30 7993 H 727.386 3.59183 -1.25267 0
M  V30 7994 H 728.698 4.77748 -1.43382 0
M  V30 7995 H 727.852 6.04166 0.553951 0
M  V30 7996 H 726.591 4.80634 0.827183 0
M  V30 7997 H 725.596 5.31099 -1.42175 0
M  V30 7998 H 726.821 6.57893 -1.68385 0
M  V30 7999 H 724.767 6.53607 0.559758 0
M  V30 8000 H 724.684 7.50957 -0.871744 0
M  V30 8001 H 725.952 7.78983 0.283932 0
M  V30 8002 N 730.181 0.707592 1.40822 0
M  V30 8003 C 731.409 0.253073 2.05346 0
M  V30 8004 C 731.824 -1.10218 1.53289 0
M  V30 8005 O 731.181 -1.69112 0.686105 0
M  V30 8006 C 731.232 0.215411 3.60858 0
M  V30 8007 O 730.953 1.51714 4.10992 0
M  V30 8008 C 732.454 -0.258636 4.42545 0
M  V30 8009 H 729.674 0.115256 0.661027 0
M  V30 8010 H 732.218 0.963555 1.80377 0
M  V30 8011 H 730.373 -0.445978 3.84824 0
M  V30 8012 H 730.787 1.41226 5.05129 0
M  V30 8013 H 732.261 -0.233849 5.51504 0
M  V30 8014 H 732.738 -1.2995 4.19535 0
M  V30 8015 H 733.344 0.372186 4.23668 0
M  V30 8016 N 731.66 -1.50943 0.453197 0
M  V30 8017 C 732.608 -2.29728 -0.364419 0
M  V30 8018 C 733.602 -1.36246 -1.00664 0
M  V30 8019 O 734.808 -1.53518 -0.939794 0
M  V30 8020 H 731.183 -0.739536 -0.136347 0
M  V30 8021 H 733.154 -2.96672 0.320696 0
M  V30 8022 C 731.903 -3.1629 -1.44415 0
M  V30 8023 H 731.226 -3.88119 -0.959343 0
M  V30 8024 H 732.666 -3.74444 -1.98917 0
M  V30 8025 C 731.125 -2.32702 -2.43622 0
M  V30 8026 O 731.655 -1.99763 -3.48508 0
M  V30 8027 N 729.861 -1.95621 -2.14897 0
M  V30 8028 H 729.408 -2.22607 -1.29629 0
M  V30 8029 H 729.366 -1.39993 -2.81513 0
M  V30 8030 N 733.138 -0.185124 -1.56509 0
M  V30 8031 C 734.048 0.751908 -2.22224 0
M  V30 8032 C 735.064 1.24244 -1.21817 0
M  V30 8033 O 736.24 1.29169 -1.54523 0
M  V30 8034 C 733.305 1.95837 -2.86092 0
M  V30 8035 C 732.366 1.51337 -4.01741 0
M  V30 8036 C 731.599 2.66233 -4.62554 0
M  V30 8037 O 731.822 3.8346 -4.22273 0
M  V30 8038 O 730.756 2.39517 -5.52191 0
M  V30 8039 H 734.582 0.222304 -3.02885 0
M  V30 8040 H 732.167 0.0437141 -1.49336 0
M  V30 8041 H 734.049 2.66368 -3.26536 0
M  V30 8042 H 732.724 2.47677 -2.08417 0
M  V30 8043 H 731.631 0.777155 -3.65939 0
M  V30 8044 H 732.964 1.04175 -4.81049 0
M  V30 8045 N 734.616 1.57351 0.0885366 0
M  V30 8046 C 735.865 1.85604 0.789556 0
M  V30 8047 C 736.178 0.775352 1.79576 0
M  V30 8048 O 737.384 0.945206 2.54515 0
M  V30 8049 C 735.84 3.29175 1.45506 0
M  V30 8050 C 735.448 4.45331 0.488278 0
M  V30 8051 C 737.192 3.66646 2.13942 0
M  V30 8052 C 735.099 5.79937 1.15874 0
M  V30 8053 H 734.029 0.692346 0.298619 0
M  V30 8054 H 736.68 1.83451 0.0425821 0
M  V30 8055 H 735.062 3.25889 2.24972 0
M  V30 8056 H 736.236 4.59977 -0.275359 0
M  V30 8057 H 734.551 4.16301 -0.0907363 0
M  V30 8058 H 737.148 4.64498 2.6485 0
M  V30 8059 H 737.491 2.956 2.93132 0
M  V30 8060 H 738.024 3.71848 1.41328 0
M  V30 8061 H 734.763 6.54232 0.407508 0
M  V30 8062 H 734.283 5.69123 1.89364 0
M  V30 8063 H 735.962 6.24718 1.68336 0
M  V30 8064 N 736.094 -0.359525 1.53444 0
M  V30 8065 C 737.024 -1.44662 1.8329 0
M  V30 8066 C 738.005 -1.55617 0.68683 0
M  V30 8067 O 739.19 -1.70086 0.93725 0
M  V30 8068 C 736.32 -2.81923 2.02822 0
M  V30 8069 C 735.274 -2.85787 3.18606 0
M  V30 8070 C 734.6 -4.25781 3.23442 0
M  V30 8071 C 735.9 -2.52762 4.57065 0
M  V30 8072 H 737.594 -1.19934 2.74329 0
M  V30 8073 H 735.14 -0.575517 1.31999 0
M  V30 8074 H 737.093 -3.58005 2.22285 0
M  V30 8075 H 735.817 -3.08051 1.085 0
M  V30 8076 H 734.476 -2.12157 2.98973 0
M  V30 8077 H 734.124 -4.48994 2.26745 0
M  V30 8078 H 733.824 -4.29281 4.01238 0
M  V30 8079 H 735.348 -5.03727 3.45096 0
M  V30 8080 H 736.762 -3.18557 4.76649 0
M  V30 8081 H 735.159 -2.67569 5.37147 0
M  V30 8082 H 736.229 -1.47993 4.61764 0
M  V30 8083 N 737.572 -1.44907 -0.619662 0
M  V30 8084 C 738.519 -1.52654 -1.73105 0
M  V30 8085 C 739.489 -0.373334 -1.6185 0
M  V30 8086 O 740.674 -0.585143 -1.81606 0
M  V30 8087 C 737.814 -1.48769 -3.11387 0
M  V30 8088 C 736.927 -2.74551 -3.33535 0
M  V30 8089 C 736.062 -2.62421 -4.61854 0
M  V30 8090 C 735.101 -3.83312 -4.77219 0
M  V30 8091 N 734.238 -3.69789 -5.96826 0
M  V30 8092 H 739.078 -2.47605 -1.65819 0
M  V30 8093 H 736.615 -1.22875 -0.808719 0
M  V30 8094 H 738.573 -1.44507 -3.91374 0
M  V30 8095 H 737.203 -0.573783 -3.1766 0
M  V30 8096 H 736.255 -2.88953 -2.47408 0
M  V30 8097 H 737.567 -3.64253 -3.40765 0
M  V30 8098 H 736.721 -2.56056 -5.50019 0
M  V30 8099 H 735.46 -1.70298 -4.57001 0
M  V30 8100 H 734.465 -3.90049 -3.87481 0
M  V30 8101 H 735.69 -4.76486 -4.83878 0
M  V30 8102 H 733.636 -2.80426 -5.93041 0
M  V30 8103 H 733.553 -4.53116 -6.05163 0
M  V30 8104 H 734.821 -3.67335 -6.87521 0
M  V30 8105 N 739.05 0.861098 -1.31996 0
M  V30 8106 C 740.298 1.61162 -1.21947 0
M  V30 8107 C 740.619 1.93751 0.220351 0
M  V30 8108 O 739.889 1.59069 1.14341 0
M  V30 8109 H 738.469 0.597485 -0.448353 0
M  V30 8110 H 741.131 1.03039 -1.65436 0
M  V30 8111 H 740.227 2.55138 -1.79752 0
M  V30 8112 N 740.528 1.15101 1.07655 0
M  V30 8113 C 741.777 0.918528 1.79572 0
M  V30 8114 C 742.09 -0.555922 1.87534 0
M  V30 8115 O 743.296 -0.905893 2.55941 0
M  V30 8116 C 741.752 1.59394 3.22679 0
M  V30 8117 C 741.36 3.1052 3.22927 0
M  V30 8118 C 743.104 1.44289 3.99225 0
M  V30 8119 C 741.011 3.70862 4.60668 0
M  V30 8120 H 739.941 0.340006 0.672987 0
M  V30 8121 H 742.592 1.38079 1.20857 0
M  V30 8122 H 740.974 1.05936 3.81567 0
M  V30 8123 H 742.148 3.70708 2.737 0
M  V30 8124 H 740.463 3.25351 2.59876 0
M  V30 8125 H 743.06 1.86766 5.01022 0
M  V30 8126 H 743.403 0.389975 4.14469 0
M  V30 8127 H 743.936 1.94826 3.46825 0
M  V30 8128 H 740.675 4.7604 4.50628 0
M  V30 8129 H 740.195 3.15456 5.10145 0
M  V30 8130 H 741.874 3.71607 5.29639 0
M  V30 8131 N 742.006 -1.2595 0.947325 0
M  V30 8132 C 742.953 -2.26159 0.460497 0
M  V30 8133 C 743.923 -1.58919 -0.483125 0
M  V30 8134 O 745.108 -1.86603 -0.397983 0
M  V30 8135 C 742.248 -3.441 -0.26247 0
M  V30 8136 C 741.361 -4.25999 0.717539 0
M  V30 8137 C 740.496 -5.31193 -0.0272486 0
M  V30 8138 C 739.535 -6.04774 0.944177 0
M  V30 8139 N 738.672 -7.01721 0.230741 0
M  V30 8140 H 743.512 -2.67173 1.31995 0
M  V30 8141 H 741.049 -1.31358 0.662088 0
M  V30 8142 H 743.007 -4.11317 -0.698137 0
M  V30 8143 H 741.637 -3.03983 -1.08602 0
M  V30 8144 H 740.689 -3.58513 1.27171 0
M  V30 8145 H 742.001 -4.76981 1.45913 0
M  V30 8146 H 741.155 -6.04451 -0.521903 0
M  V30 8147 H 739.894 -4.81066 -0.801682 0
M  V30 8148 H 738.899 -5.30338 1.4499 0
M  V30 8149 H 740.124 -6.56991 1.71872 0
M  V30 8150 H 738.07 -6.53895 -0.525088 0
M  V30 8151 H 737.987 -7.50484 0.911556 0
M  V30 8152 H 739.255 -7.79122 -0.242616 0
M  V30 8153 N 743.484 -0.715051 -1.40445 0
M  V30 8154 C 744.414 -0.0768699 -2.33373 0
M  V30 8155 C 745.395 0.746109 -1.52863 0
M  V30 8156 O 746.58 0.695142 -1.81332 0
M  V30 8157 C 743.71 0.846014 -3.36838 0
M  V30 8158 C 742.664 0.128694 -4.27806 0
M  V30 8159 C 741.99 1.16726 -5.21804 0
M  V30 8160 C 743.29 -1.01679 -5.12307 0
M  V30 8161 H 744.984 -0.853061 -2.8699 0
M  V30 8162 H 742.53 -0.41167 -1.3799 0
M  V30 8163 H 744.483 1.30185 -4.00786 0
M  V30 8164 H 743.207 1.6541 -2.81615 0
M  V30 8165 H 741.866 -0.307314 -3.6531 0
M  V30 8166 H 741.514 1.96838 -4.62887 0
M  V30 8167 H 741.214 0.692188 -5.83509 0
M  V30 8168 H 742.738 1.62321 -5.88629 0
M  V30 8169 H 744.152 -0.640337 -5.69713 0
M  V30 8170 H 742.549 -1.4202 -5.83053 0
M  V30 8171 H 743.619 -1.84769 -4.48317 0
M  V30 8172 N 744.962 1.50701 -0.461195 0
M  V30 8173 C 745.892 2.31182 0.328184 0
M  V30 8174 C 746.873 1.37644 0.999408 0
M  V30 8175 O 748.058 1.66565 0.99848 0
M  V30 8176 C 745.188 3.17113 1.41621 0
M  V30 8177 C 744.142 4.19124 0.867148 0
M  V30 8178 C 743.468 4.93728 2.05272 0
M  V30 8179 C 744.768 5.22174 -0.114808 0
M  V30 8180 H 746.462 2.97423 -0.343501 0
M  V30 8181 H 744.008 1.43033 -0.166641 0
M  V30 8182 H 745.961 3.72208 1.97584 0
M  V30 8183 H 744.685 2.48739 2.11652 0
M  V30 8184 H 743.344 3.65116 0.329557 0
M  V30 8185 H 742.992 4.21835 2.73978 0
M  V30 8186 H 742.692 5.62724 1.69161 0
M  V30 8187 H 744.216 5.51654 2.61744 0
M  V30 8188 H 745.63 5.72198 0.355316 0
M  V30 8189 H 744.027 5.98833 -0.389689 0
M  V30 8190 H 745.097 4.7353 -1.04391 0
M  V30 8191 N 746.441 0.193421 1.56409 0
M  V30 8192 C 747.388 -0.728124 2.19014 0
M  V30 8193 C 748.358 -1.21098 1.13686 0
M  V30 8194 O 749.543 -1.27517 1.4193 0
M  V30 8195 C 746.683 -1.94277 2.8522 0
M  V30 8196 C 745.796 -1.50143 4.05069 0
M  V30 8197 C 744.931 -2.67145 4.59137 0
M  V30 8198 C 743.97 -2.19609 5.71348 0
M  V30 8199 N 743.107 -3.29782 6.19829 0
M  V30 8200 H 747.947 -0.187499 2.9741 0
M  V30 8201 H 745.484 -0.0808064 1.46878 0
M  V30 8202 H 747.442 -2.65551 3.21774 0
M  V30 8203 H 746.072 -2.45673 2.09391 0
M  V30 8204 H 745.124 -0.684624 3.74189 0
M  V30 8205 H 746.436 -1.11266 4.86232 0
M  V30 8206 H 745.59 -3.46544 4.97988 0
M  V30 8207 H 744.329 -3.09295 3.77078 0
M  V30 8208 H 743.334 -1.38664 5.32027 0
M  V30 8209 H 744.559 -1.78492 6.55223 0
M  V30 8210 H 742.505 -3.71466 5.40693 0
M  V30 8211 H 742.422 -2.95069 6.96039 0
M  V30 8212 H 743.69 -4.094 6.63334 0
M  V30 8213 N 747.919 -1.57396 -0.0801906 0
M  V30 8214 C 748.849 -2.06145 -1.09665 0
M  V30 8215 C 749.83 -0.953273 -1.40878 0
M  V30 8216 O 751.015 -1.22548 -1.50651 0
M  V30 8217 C 748.145 -2.49836 -2.41245 0
M  V30 8218 C 747.099 -3.64454 -2.24405 0
M  V30 8219 C 746.425 -3.94172 -3.61293 0
M  V30 8220 C 747.725 -4.94807 -1.67223 0
M  V30 8221 H 749.419 -2.91316 -0.691028 0
M  V30 8222 H 746.965 -1.40145 -0.330957 0
M  V30 8223 H 748.918 -2.82552 -3.12638 0
M  V30 8224 H 747.642 -1.61683 -2.83771 0
M  V30 8225 H 746.301 -3.32008 -1.55454 0
M  V30 8226 H 745.949 -3.03163 -4.01374 0
M  V30 8227 H 745.649 -4.71345 -3.50867 0
M  V30 8228 H 747.173 -4.29376 -4.3413 0
M  V30 8229 H 748.587 -5.25807 -2.28472 0
M  V30 8230 H 746.984 -5.76245 -1.67515 0
M  V30 8231 H 748.054 -4.80751 -0.632944 0
M  V30 8232 N 749.397 0.351382 -1.53633 0
M  V30 8233 C 750.627 1.11113 -1.74176 0
M  V30 8234 C 751.035 1.83084 -0.477154 0
M  V30 8235 O 750.378 1.74941 0.560483 0
M  V30 8236 C 750.44 2.17521 -2.86225 0
M  V30 8237 C 750.104 1.65193 -4.26099 0
M  V30 8238 C 751.101 1.10842 -5.07947 0
M  V30 8239 C 748.786 1.70277 -4.72558 0
M  V30 8240 C 750.78 0.622689 -6.34351 0
M  V30 8241 C 748.467 1.21316 -5.98937 0
M  V30 8242 C 749.465 0.674033 -6.79666 0
M  V30 8243 O 749.153 0.191696 -8.03671 0
M  V30 8244 H 748.885 0.33756 -0.585687 0
M  V30 8245 H 751.439 0.411786 -2.0123 0
M  V30 8246 H 749.669 2.90991 -2.54678 0
M  V30 8247 H 751.358 2.78999 -2.94812 0
M  V30 8248 H 752.124 1.06243 -4.7322 0
M  V30 8249 H 748.003 2.11181 -4.09785 0
M  V30 8250 H 751.547 0.201216 -6.9731 0
M  V30 8251 H 747.444 1.25613 -6.3316 0
M  V30 8252 H 748.212 0.309712 -8.17914 0
M  V30 8253 N 750.875 1.45233 0.611969 0
M  V30 8254 C 751.838 1.53189 1.70487 0
M  V30 8255 C 752.838 0.411839 1.55437 0
M  V30 8256 O 754.028 0.675164 1.60584 0
M  V30 8257 C 751.16 1.42422 3.09723 0
M  V30 8258 H 752.353 2.5056 1.64802 0
M  V30 8259 H 749.906 1.32609 0.827318 0
M  V30 8260 H 750.641 0.462185 3.2099 0
M  V30 8261 H 750.426 2.23658 3.22055 0
M  V30 8262 H 751.916 1.51012 3.89339 0
M  V30 8263 N 752.353 -0.854086 1.3245 0
M  V30 8264 C 753.599 -1.6105 1.24235 0
M  V30 8265 C 753.954 -1.91421 -0.193877 0
M  V30 8266 O 753.247 -1.54599 -1.1318 0
M  V30 8267 C 753.441 -2.93746 2.03587 0
M  V30 8268 C 753.27 -2.76335 3.54781 0
M  V30 8269 C 752.04 -2.74687 4.24117 0
M  V30 8270 C 754.238 -2.50052 4.4942 0
M  V30 8271 N 752.22 -2.48493 5.6136 0
M  V30 8272 C 753.591 -2.33269 5.74444 0
M  V30 8273 C 755.646 -2.35525 4.38671 0
M  V30 8274 C 754.349 -2.03434 6.89933 0
M  V30 8275 C 756.375 -2.07081 5.5396 0
M  V30 8276 C 755.737 -1.91098 6.77983 0
M  V30 8277 H 751.836 -0.593008 0.50977 0
M  V30 8278 H 754.42 -1.00392 1.66822 0
M  V30 8279 H 752.591 -3.52382 1.63345 0
M  V30 8280 H 754.323 -3.58768 1.87263 0
M  V30 8281 H 751.078 -2.87647 3.7624 0
M  V30 8282 H 751.502 -2.38322 6.33665 0
M  V30 8283 H 756.144 -2.46602 3.43435 0
M  V30 8284 H 753.862 -1.91095 7.85181 0
M  V30 8285 H 757.448 -1.96618 5.4757 0
M  V30 8286 H 756.328 -1.69402 7.65684 0
M  V30 8287 N 753.831 -1.1567 -1.07043 0
M  V30 8288 C 754.741 -0.870435 -2.17855 0
M  V30 8289 C 755.757 0.154452 -1.73313 0
M  V30 8290 O 756.933 -0.0203759 -2.0139 0
M  V30 8291 C 753.998 -0.367219 -3.4475 0
M  V30 8292 C 753.059 -1.45639 -4.03841 0
M  V30 8293 C 752.292 -0.977092 -5.2468 0
M  V30 8294 O 752.515 0.176127 -5.70128 0
M  V30 8295 O 751.449 -1.76215 -5.75527 0
M  V30 8296 H 755.275 -1.79687 -2.44839 0
M  V30 8297 H 752.86 -0.936064 -1.1644 0
M  V30 8298 H 754.742 -0.0931947 -4.21297 0
M  V30 8299 H 753.417 0.53131 -3.1931 0
M  V30 8300 H 752.324 -1.78406 -3.28819 0
M  V30 8301 H 753.657 -2.32995 -4.3356 0
M  V30 8302 N 755.309 1.25446 -0.953992 0
M  V30 8303 C 756.259 2.23627 -0.444413 0
M  V30 8304 C 757.243 1.54004 0.465993 0
M  V30 8305 O 758.435 1.74454 0.29915 0
M  V30 8306 C 755.564 3.42179 0.277175 0
M  V30 8307 C 754.65 4.1907 -0.651263 0
M  V30 8308 N 755.041 4.73346 -1.78262 0
M  V30 8309 C 753.339 4.43628 -0.459338 0
M  V30 8310 C 754.04 5.31576 -2.36224 0
M  V30 8311 N 753.016 5.17991 -1.64884 0
M  V30 8312 H 756.818 2.63197 -1.30785 0
M  V30 8313 H 754.332 1.40677 -0.811402 0
M  V30 8314 H 756.329 4.11653 0.659367 0
M  V30 8315 H 754.989 3.04134 1.13723 0
M  V30 8316 H 756 4.705 -2.1645 0
M  V30 8317 H 752.677 4.15963 0.357885 0
M  V30 8318 H 754.067 5.84361 -3.3162 0
M  V30 8319 N 756.787 0.722489 1.40064 0
M  V30 8320 C 758.036 0.261932 1.99992 0
M  V30 8321 C 758.349 -1.15358 1.57961 0
M  V30 8322 O 759.555 -1.71301 2.10637 0
M  V30 8323 C 758.011 0.41737 3.57472 0
M  V30 8324 C 757.619 1.83997 4.08472 0
M  V30 8325 C 759.363 0.0179561 4.24496 0
M  V30 8326 C 757.27 1.94563 5.5848 0
M  V30 8327 H 756.2 0.0941768 0.748095 0
M  V30 8328 H 758.851 0.894572 1.60218 0
M  V30 8329 H 757.233 -0.283965 3.94981 0
M  V30 8330 H 758.407 2.57224 3.82325 0
M  V30 8331 H 756.722 2.19147 3.54067 0
M  V30 8332 H 759.319 0.076085 5.34646 0
M  V30 8333 H 759.662 -1.02498 4.03485 0
M  V30 8334 H 760.195 0.669988 3.92117 0
M  V30 8335 H 756.934 2.97001 5.84355 0
M  V30 8336 H 756.454 1.25756 5.86469 0
M  V30 8337 H 758.133 1.72095 6.23692 0
M  V30 8338 N 758.265 -1.50454 0.469181 0
M  V30 8339 C 759.512 -2.02315 -0.086469 0
M  V30 8340 C 759.84 -1.3513 -1.39893 0
M  V30 8341 O 759.095 -0.465341 -1.90087 0
M  V30 8342 C 759.394 -3.55963 -0.320207 0
M  V30 8343 C 759.06 -4.41615 0.910318 0
M  V30 8344 C 757.722 -4.64743 1.2477 0
M  V30 8345 C 760.074 -4.91661 1.72971 0
M  V30 8346 C 757.402 -5.35161 2.40457 0
M  V30 8347 C 759.754 -5.6335 2.87785 0
M  V30 8348 C 758.418 -5.84732 3.2194 0
M  V30 8349 H 757.688 -0.740324 -0.0316412 0
M  V30 8350 H 760.335 -1.81087 0.622872 0
M  V30 8351 H 758.64 -3.75695 -1.11177 0
M  V30 8352 H 760.337 -3.93653 -0.764071 0
M  V30 8353 H 756.927 -4.23833 0.637467 0
M  V30 8354 H 761.111 -4.73649 1.48224 0
M  V30 8355 H 756.367 -5.49924 2.67196 0
M  V30 8356 H 760.541 -6.0111 3.51624 0
M  V30 8357 H 758.168 -6.39074 4.1169 0
M  V30 8358 N 759.743 -0.201713 -1.56304 0
M  V30 8359 C 760.983 0.437395 -1.99665 0
M  V30 8360 C 761.347 1.58341 -1.08592 0
M  V30 8361 O 762.548 2.28716 -1.41217 0
M  V30 8362 C 760.819 0.879572 -3.46408 0
M  V30 8363 S 762.378 1.51558 -4.11795 0
M  V30 8364 H 759.196 0.139621 -0.697156 0
M  V30 8365 H 761.798 -0.306337 -1.93085 0
M  V30 8366 H 760.502 0.0355295 -4.10385 0
M  V30 8367 H 760.033 1.65661 -3.56819 0
M  V30 8368 H 762.048 2.80445 -4.09347 0
M  V30 8369 N 761.222 1.57436 0.0718424 0
M  V30 8370 C 762.169 2.03686 1.08539 0
M  V30 8371 C 763.139 0.917474 1.38462 0
M  V30 8372 O 764.324 1.18513 1.4953 0
M  V30 8373 C 761.464 2.48566 2.39393 0
M  V30 8374 C 760.577 3.74122 2.16001 0
M  V30 8375 C 759.712 4.07786 3.40418 0
M  V30 8376 C 758.751 5.26383 3.1239 0
M  V30 8377 N 757.888 5.55685 4.29138 0
M  V30 8378 H 762.728 2.90043 0.684018 0
M  V30 8379 H 760.265 1.43438 0.326183 0
M  V30 8380 H 762.223 2.72639 3.15791 0
M  V30 8381 H 760.853 1.65186 2.77333 0
M  V30 8382 H 759.905 3.57389 1.30296 0
M  V30 8383 H 761.217 4.60659 1.91298 0
M  V30 8384 H 760.371 4.32759 4.25211 0
M  V30 8385 H 759.11 3.19817 3.68197 0
M  V30 8386 H 758.115 5.01206 2.25993 0
M  V30 8387 H 759.34 6.1597 2.85934 0
M  V30 8388 H 757.286 4.70675 4.56948 0
M  V30 8389 H 757.203 6.3664 4.07708 0
M  V30 8390 H 758.471 5.85209 5.14928 0
M  V30 8391 N 762.7 -0.34323 1.53817 0
M  V30 8392 C 763.925 -1.1079 1.75329 0
M  V30 8393 C 764.35 -1.81571 0.491293 0
M  V30 8394 O 763.708 -1.72561 -0.556089 0
M  V30 8395 C 763.756 -2.09681 2.9337 0
M  V30 8396 O 762.86 -3.17207 2.63541 0
M  V30 8397 H 762.201 -0.320402 0.581583 0
M  V30 8398 H 764.731 -0.393525 2.0078 0
M  V30 8399 H 764.741 -2.52897 3.20168 0
M  V30 8400 H 763.416 -1.5756 3.84899 0
M  V30 8401 H 761.993 -2.78806 2.47632 0
M  V30 8402 N 764.178 -1.45556 -0.604258 0
M  V30 8403 C 765.424 -1.49968 -1.36519 0
M  V30 8404 C 765.757 -0.142236 -1.93678 0
M  V30 8405 O 765.032 0.843717 -1.75247 0
M  V30 8406 C 765.315 -2.58146 -2.51063 0
M  V30 8407 C 765.168 -4.03346 -1.99078 0
M  V30 8408 C 766.487 -2.62581 -3.53184 0
M  V30 8409 H 763.606 -0.545993 -0.495036 0
M  V30 8410 H 766.248 -1.77382 -0.680845 0
M  V30 8411 H 764.398 -2.34901 -3.09441 0
M  V30 8412 H 766.07 -4.37811 -1.45323 0
M  V30 8413 H 764.313 -4.13845 -1.30055 0
M  V30 8414 H 764.984 -4.74731 -2.81664 0
M  V30 8415 H 767.46 -2.83419 -3.04652 0
M  V30 8416 H 766.336 -3.40131 -4.30816 0
M  V30 8417 H 766.597 -1.67798 -4.09019 0
M  V30 8418 N 765.656 0.84705 -1.32902 0
M  V30 8419 C 766.566 1.98845 -1.2449 0
M  V30 8420 C 767.582 1.7329 -0.15702 0
M  V30 8421 O 768.758 1.978 -0.379104 0
M  V30 8422 C 765.823 3.32679 -0.975985 0
M  V30 8423 C 764.884 3.71405 -2.15306 0
M  V30 8424 C 764.117 4.98853 -1.89688 0
M  V30 8425 O 764.34 5.64134 -0.843168 0
M  V30 8426 O 763.274 5.34889 -2.76002 0
M  V30 8427 H 767.1 2.0888 -2.2046 0
M  V30 8428 H 764.685 0.978852 -1.12867 0
M  V30 8429 H 766.567 4.12885 -0.842826 0
M  V30 8430 H 765.242 3.23667 -0.0464954 0
M  V30 8431 H 764.149 2.91743 -2.34172 0
M  V30 8432 H 765.482 3.85073 -3.06561 0
M  V30 8433 N 767.134 1.16236 1.06428 0
M  V30 8434 C 768.044 0.881976 2.1739 0
M  V30 8435 C 769.06 -0.145259 1.73393 0
M  V30 8436 O 770.236 0.0310558 2.01376 0
M  V30 8437 C 767.301 0.385496 3.4455 0
M  V30 8438 C 766.362 1.47779 4.03063 0
M  V30 8439 C 765.595 1.0049 5.24154 0
M  V30 8440 O 765.818 -0.145889 5.70213 0
M  V30 8441 O 764.752 1.79265 5.74585 0
M  V30 8442 H 768.578 1.80983 2.43883 0
M  V30 8443 H 766.163 0.942226 1.15942 0
M  V30 8444 H 768.045 0.115536 4.21242 0
M  V30 8445 H 766.72 -0.514369 3.19587 0
M  V30 8446 H 765.627 1.80147 3.27869 0
M  V30 8447 H 766.96 2.35291 4.32318 0
M  V30 8448 N 768.612 -1.24939 0.960631 0
M  V30 8449 C 769.84 -1.96881 0.636045 0
M  V30 8450 C 770.255 -1.71334 -0.793093 0
M  V30 8451 O 769.612 -0.992917 -1.53125 0
M  V30 8452 C 769.663 -3.50309 0.892533 0
M  V30 8453 O 769.384 -3.74977 2.26548 0
M  V30 8454 C 770.885 -4.39474 0.581159 0
M  V30 8455 H 768.105 -0.627399 0.237931 0
M  V30 8456 H 770.649 -1.58952 1.28664 0
M  V30 8457 H 768.804 -3.86326 0.288257 0
M  V30 8458 H 769.218 -4.69401 2.34014 0
M  V30 8459 H 770.692 -5.46008 0.811125 0
M  V30 8460 H 771.169 -4.3652 -0.48443 0
M  V30 8461 H 771.775 -4.09032 1.16502 0
M  V30 8462 N 770.09 -0.729906 -1.39679 0
M  V30 8463 C 771.506 -0.404951 -1.54377 0
M  V30 8464 C 771.706 1.08476 -1.6981 0
M  V30 8465 O 770.762 1.87087 -1.69572 0
M  V30 8466 C 772.075 -1.18352 -2.76429 0
M  V30 8467 C 773.623 -1.17124 -2.9026 0
M  V30 8468 C 774.098 -1.93227 -4.15244 0
M  V30 8469 N 775.589 -1.90368 -4.22273 0
M  V30 8470 C 776.324 -2.46065 -5.17918 0
M  V30 8471 N 775.82 -3.10378 -6.19385 0
M  V30 8472 N 777.613 -2.36127 -5.10099 0
M  V30 8473 H 769.764 -1.69567 -1.27909 0
M  V30 8474 H 772.027 -0.717527 -0.619564 0
M  V30 8475 H 771.733 -2.23743 -2.71352 0
M  V30 8476 H 771.607 -0.784589 -3.6895 0
M  V30 8477 H 773.994 -0.125478 -2.94833 0
M  V30 8478 H 774.075 -1.60951 -1.98817 0
M  V30 8479 H 773.719 -2.97802 -4.11432 0
M  V30 8480 H 773.649 -1.4681 -5.05722 0
M  V30 8481 H 776.14 -1.4351 -3.4959 0
M  V30 8482 H 776.453 -3.50358 -6.88817 0
M  V30 8483 H 774.798 -3.14467 -6.19787 0
M  V30 8484 H 777.989 -1.85529 -4.29763 0
M  V30 8485 H 778.162 -2.79833 -5.84463 0
M  V30 8486 N 771.568 1.50203 -0.477153 0
M  V30 8487 C 772.501 2.25343 0.359983 0
M  V30 8488 C 773.479 1.28909 0.991022 0
M  V30 8489 O 774.663 1.58146 1.02578 0
M  V30 8490 C 771.79 3.03431 1.5049 0
M  V30 8491 C 770.836 4.14836 0.99063 0
M  V30 8492 S 771.669 5.35407 -0.0995413 0
M  V30 8493 C 772.825 6.17045 1.04911 0
M  V30 8494 H 773.058 2.95999 -0.277836 0
M  V30 8495 H 770.591 1.52159 -0.262115 0
M  V30 8496 H 772.549 3.49012 2.16105 0
M  V30 8497 H 771.21 2.32289 2.11425 0
M  V30 8498 H 770.403 4.689 1.84794 0
M  V30 8499 H 770.005 3.71723 0.412097 0
M  V30 8500 H 772.297 6.48546 1.95946 0
M  V30 8501 H 773.24 7.05979 0.547596 0
M  V30 8502 H 773.648 5.49193 1.30567 0
M  V30 8503 N 773.046 0.209999 1.56195 0
M  V30 8504 C 773.993 -0.704854 2.19774 0
M  V30 8505 C 774.963 -1.19886 1.14964 0
M  V30 8506 O 776.148 -1.26005 1.43274 0
M  V30 8507 C 773.288 -1.91241 2.87265 0
M  V30 8508 C 772.401 -1.45838 4.06639 0
M  V30 8509 C 771.536 -2.6226 4.61945 0
M  V30 8510 C 770.575 -2.13537 5.73645 0
M  V30 8511 N 769.712 -3.2319 6.23292 0
M  V30 8512 H 774.552 -0.155944 2.97592 0
M  V30 8513 H 772.089 -0.0652235 1.46955 0
M  V30 8514 H 774.047 -2.62123 3.24573 0
M  V30 8515 H 772.677 -2.43439 2.11985 0
M  V30 8516 H 771.729 -0.644897 3.74894 0
M  V30 8517 H 773.041 -1.06103 4.87384 0
M  V30 8518 H 772.195 -3.41243 5.01636 0
M  V30 8519 H 770.934 -3.05278 3.80338 0
M  V30 8520 H 769.939 -1.33013 5.33468 0
M  V30 8521 H 771.164 -1.71533 6.57079 0
M  V30 8522 H 769.11 -3.65711 5.44602 0
M  V30 8523 H 769.027 -2.8767 6.99129 0
M  V30 8524 H 770.295 -4.02342 6.67639 0
M  V30 8525 N 774.524 -1.57472 -0.0634922 0
M  V30 8526 C 775.434 -2.07621 -1.09227 0
M  V30 8527 C 776.45 -1.00746 -1.41867 0
M  V30 8528 O 777.626 -1.32269 -1.51878 0
M  V30 8529 C 774.691 -2.51707 -2.38421 0
M  V30 8530 C 773.752 -3.72917 -2.12676 0
M  V30 8531 C 772.985 -4.14891 -3.3571 0
M  V30 8532 O 773.208 -3.56663 -4.45137 0
M  V30 8533 O 772.142 -5.07616 -3.23434 0
M  V30 8534 H 775.968 -2.95612 -0.696205 0
M  V30 8535 H 773.553 -1.46787 -0.27819 0
M  V30 8536 H 775.435 -2.80547 -3.14438 0
M  V30 8537 H 774.11 -1.66842 -2.77391 0
M  V30 8538 H 773.017 -3.49148 -1.34337 0
M  V30 8539 H 774.35 -4.5866 -1.78583 0
M  V30 8540 N 776.003 0.335068 -1.53997 0
M  V30 8541 C 776.933 1.41727 -1.85568 0
M  V30 8542 C 777.914 1.54505 -0.7115 0
M  V30 8543 O 779.099 1.68573 -0.964191 0
M  V30 8544 C 776.229 2.7866 -2.07282 0
M  V30 8545 C 775.183 2.80682 -3.23112 0
M  V30 8546 C 774.509 4.20581 -3.30175 0
M  V30 8547 C 775.809 2.45458 -4.61029 0
M  V30 8548 H 777.503 1.15555 -2.76202 0
M  V30 8549 H 775.049 0.554445 -1.32898 0
M  V30 8550 H 777.002 3.54423 -2.27952 0
M  V30 8551 H 775.726 3.06286 -1.13387 0
M  V30 8552 H 774.385 2.07373 -3.02311 0
M  V30 8553 H 774.033 4.4533 -2.33859 0
M  V30 8554 H 773.733 4.22843 -4.08016 0
M  V30 8555 H 775.257 4.98174 -3.53066 0
M  V30 8556 H 776.671 3.10934 -4.81656 0
M  V30 8557 H 775.068 2.5899 -5.41336 0
M  V30 8558 H 776.138 1.40628 -4.6406 0
M  V30 8559 N 777.481 1.45874 0.596531 0
M  V30 8560 C 778.706 1.54247 1.38646 0
M  V30 8561 C 779.131 0.179571 1.87241 0
M  V30 8562 O 778.489 -0.837831 1.6078 0
M  V30 8563 C 778.537 2.54015 2.55946 0
M  V30 8564 O 777.641 2.06561 3.5694 0
M  V30 8565 H 776.982 0.519555 0.413471 0
M  V30 8566 H 779.512 1.91327 0.724936 0
M  V30 8567 H 779.522 2.73179 3.03047 0
M  V30 8568 H 778.197 3.52994 2.19928 0
M  V30 8569 H 776.774 1.97324 3.16414 0
M  V30 8570 N 778.959 -0.83999 1.33349 0
M  V30 8571 C 780.184 -1.63249 1.27924 0
M  V30 8572 C 780.609 -1.87523 -0.147193 0
M  V30 8573 O 779.967 -1.43853 -1.10345 0
M  V30 8574 C 780.015 -2.96046 2.05886 0
M  V30 8575 O 779.119 -3.87303 1.4167 0
M  V30 8576 H 778.46 -0.49715 0.440157 0
M  V30 8577 H 780.99 -1.04512 1.75893 0
M  V30 8578 H 781 -3.45752 2.16609 0
M  V30 8579 H 779.675 -2.77701 3.09605 0
M  V30 8580 H 778.252 -3.45789 1.39585 0
M  V30 8581 N 780.437 -1.16799 -1.0581 0
M  V30 8582 C 781.367 -0.902241 -2.15364 0
M  V30 8583 C 782.348 0.153351 -1.69407 0
M  V30 8584 O 783.533 0.00442032 -1.94199 0
M  V30 8585 C 780.663 -0.407911 -3.44896 0
M  V30 8586 C 779.617 -1.40197 -4.04387 0
M  V30 8587 C 778.943 -0.765848 -5.29187 0
M  V30 8588 C 780.243 -2.77316 -4.42598 0
M  V30 8589 H 781.937 -1.81841 -2.37853 0
M  V30 8590 H 779.483 -0.875731 -1.14311 0
M  V30 8591 H 781.436 -0.20945 -4.20879 0
M  V30 8592 H 780.16 0.54378 -3.22041 0
M  V30 8593 H 778.819 -1.58707 -3.30466 0
M  V30 8594 H 778.467 0.192482 -5.02632 0
M  V30 8595 H 778.167 -1.42939 -5.69949 0
M  V30 8596 H 779.691 -0.577519 -6.07863 0
M  V30 8597 H 781.105 -2.62561 -5.09642 0
M  V30 8598 H 779.502 -3.4019 -4.94359 0
M  V30 8599 H 780.572 -3.32199 -3.53231 0
M  V30 8600 N 781.915 1.24427 -0.967243 0
M  V30 8601 C 782.862 2.25398 -0.496419 0
M  V30 8602 C 783.832 1.59667 0.457781 0
M  V30 8603 O 785.017 1.87213 0.368246 0
M  V30 8604 C 782.157 3.44474 0.207693 0
M  V30 8605 C 781.27 4.24804 -0.785221 0
M  V30 8606 C 780.405 5.31169 -0.0572631 0
M  V30 8607 C 779.444 6.03195 -1.04027 0
M  V30 8608 N 778.581 7.01265 -0.34235 0
M  V30 8609 H 783.421 2.65039 -1.36229 0
M  V30 8610 H 780.958 1.30288 -0.682902 0
M  V30 8611 H 782.916 4.12376 0.632612 0
M  V30 8612 H 781.546 3.05672 1.03752 0
M  V30 8613 H 780.598 3.56445 -1.32858 0
M  V30 8614 H 781.91 4.74599 -1.53483 0
M  V30 8615 H 781.064 6.05205 0.425674 0
M  V30 8616 H 779.803 4.8228 0.725047 0
M  V30 8617 H 778.808 5.27964 -1.53409 0
M  V30 8618 H 780.033 6.54173 -1.82302 0
M  V30 8619 H 777.979 6.54648 0.420993 0
M  V30 8620 H 777.896 7.48939 -1.03084 0
M  V30 8621 H 779.164 7.7941 0.118634 0
M  V30 8622 N 783.393 0.737304 1.3929 0
M  V30 8623 C 784.621 0.296573 2.04763 0
M  V30 8624 C 785.036 -1.06941 1.55592 0
M  V30 8625 O 784.393 -1.67619 0.721822 0
M  V30 8626 C 784.444 0.291906 3.6032 0
M  V30 8627 O 784.165 1.60397 4.07682 0
M  V30 8628 C 785.666 -0.164708 4.42994 0
M  V30 8629 H 782.886 0.129251 0.658434 0
M  V30 8630 H 785.43 1.0016 1.78293 0
M  V30 8631 H 783.585 -0.364251 3.85684 0
M  V30 8632 H 783.999 1.51909 5.0202 0
M  V30 8633 H 785.473 -0.116814 5.51876 0
M  V30 8634 H 785.95 -1.21022 4.22197 0
M  V30 8635 H 786.556 0.461968 4.22784 0
M  V30 8636 N 784.871 -1.49948 0.485112 0
M  V30 8637 C 786.118 -2.02396 -0.0650059 0
M  V30 8638 C 786.446 -1.36606 -1.38452 0
M  V30 8639 O 785.701 -0.485476 -1.89583 0
M  V30 8640 C 786 -3.56282 -0.282434 0
M  V30 8641 C 785.666 -4.40625 0.957106 0
M  V30 8642 C 784.328 -4.63393 1.29692 0
M  V30 8643 C 786.68 -4.89799 1.78176 0
M  V30 8644 C 784.008 -5.3258 2.4612 0
M  V30 8645 C 786.36 -5.60266 2.93743 0
M  V30 8646 C 785.024 -5.81284 3.28124 0
M  V30 8647 H 784.294 -0.740618 -0.0237873 0
M  V30 8648 H 786.941 -1.80416 0.642044 0
M  V30 8649 H 785.246 -3.76853 -1.07186 0
M  V30 8650 H 786.943 -3.94442 -0.722276 0
M  V30 8651 H 783.533 -4.23133 0.682384 0
M  V30 8652 H 787.717 -4.7205 1.53239 0
M  V30 8653 H 782.973 -5.47059 2.73014 0
M  V30 8654 H 787.147 -5.97347 3.5798 0
M  V30 8655 H 784.774 -6.34671 4.18446 0
M  V30 8656 N 786.349 -0.21828 -1.56081 0
M  V30 8657 C 787.312 0.679633 -2.18892 0
M  V30 8658 C 788.312 1.12405 -1.14986 0
M  V30 8659 O 789.502 1.03339 -1.40238 0
M  V30 8660 C 786.634 1.93063 -2.80962 0
M  V30 8661 H 787.827 0.132066 -2.99609 0
M  V30 8662 H 785.38 0.0313374 -1.56269 0
M  V30 8663 H 786.115 2.52015 -2.04106 0
M  V30 8664 H 785.9 1.62046 -3.57048 0
M  V30 8665 H 787.39 2.57043 -3.29118 0
M  V30 8666 N 787.827 1.57504 0.0551401 0
M  V30 8667 C 788.757 2.07864 1.06372 0
M  V30 8668 C 789.738 0.975565 1.39344 0
M  V30 8669 O 790.923 1.24929 1.48682 0
M  V30 8670 C 788.053 2.53643 2.3724 0
M  V30 8671 C 787.007 3.67978 2.18578 0
M  V30 8672 C 786.333 3.9987 3.54976 0
M  V30 8673 C 787.633 4.97405 1.59329 0
M  V30 8674 H 789.327 2.92379 0.644595 0
M  V30 8675 H 786.873 1.40654 0.308619 0
M  V30 8676 H 788.826 2.8749 3.08103 0
M  V30 8677 H 787.55 1.66177 2.81163 0
M  V30 8678 H 786.209 3.3444 1.50152 0
M  V30 8679 H 785.857 3.0951 3.965 0
M  V30 8680 H 785.557 4.76867 3.43324 0
M  V30 8681 H 787.081 4.36228 4.27244 0
M  V30 8682 H 788.495 5.29375 2.20078 0
M  V30 8683 H 786.892 5.78837 1.58327 0
M  V30 8684 H 787.962 4.81697 0.55638 0
M  V30 8685 N 789.305 -0.326896 1.54172 0
M  V30 8686 C 790.535 -1.08328 1.75922 0
M  V30 8687 C 790.943 -1.82302 0.50622 0
M  V30 8688 O 790.286 -1.7581 -0.532581 0
M  V30 8689 C 790.348 -2.1294 2.8965 0
M  V30 8690 C 790.012 -1.58394 4.28673 0
M  V30 8691 C 791.009 -1.02747 5.09646 0
M  V30 8692 C 788.694 -1.62737 4.75207 0
M  V30 8693 C 790.688 -0.52169 6.35261 0
M  V30 8694 C 788.375 -1.11772 6.00791 0
M  V30 8695 C 789.373 -0.565819 6.80652 0
M  V30 8696 O 789.061 -0.0638146 8.03875 0
M  V30 8697 H 788.793 -0.3282 0.590983 0
M  V30 8698 H 791.347 -0.37972 2.0186 0
M  V30 8699 H 789.577 -2.86903 2.59275 0
M  V30 8700 H 791.266 -2.74274 2.99213 0
M  V30 8701 H 792.032 -0.987007 4.74851 0
M  V30 8702 H 787.911 -2.04635 4.13093 0
M  V30 8703 H 791.455 -0.0902544 6.97542 0
M  V30 8704 H 787.352 -1.15524 6.35078 0
M  V30 8705 H 788.12 -0.17955 8.18303 0
M  V30 8706 N 790.784 -1.46188 -0.588786 0
M  V30 8707 C 792.012 -1.54743 -1.37339 0
M  V30 8708 C 792.427 -0.186446 -1.87877 0
M  V30 8709 O 791.784 0.815247 -1.63279 0
M  V30 8710 C 791.835 -2.54727 -2.56508 0
M  V30 8711 O 791.556 -3.85539 -2.08066 0
M  V30 8712 C 793.057 -2.73163 -3.49137 0
M  V30 8713 H 790.277 -0.523484 -0.419768 0
M  V30 8714 H 792.821 -1.91543 -0.716345 0
M  V30 8715 H 790.976 -2.20948 -3.18215 0
M  V30 8716 H 791.39 -4.39905 -2.85629 0
M  V30 8717 H 792.864 -3.47057 -4.2925 0
M  V30 8718 H 793.341 -1.79856 -4.00685 0
M  V30 8719 H 793.947 -3.08014 -2.9327 0
M  V30 8720 N 792.262 0.832906 -1.33792 0
M  V30 8721 C 793.487 1.62568 -1.28788 0
M  V30 8722 C 793.912 1.87599 0.137246 0
M  V30 8723 O 793.27 1.44436 1.0958 0
M  V30 8724 C 793.318 2.9495 -2.07453 0
M  V30 8725 O 792.422 3.86546 -1.43722 0
M  V30 8726 H 791.763 0.494809 -0.442787 0
M  V30 8727 H 794.293 1.03578 -1.76445 0
M  V30 8728 H 794.303 3.44599 -2.1844 0
M  V30 8729 H 792.978 2.76055 -3.11073 0
M  V30 8730 H 791.555 3.45044 -1.41417 0
M  V30 8731 N 793.74 1.17359 1.05189 0
M  V30 8732 C 794.67 0.91365 2.14883 0
M  V30 8733 C 795.651 -0.144365 1.69486 0
M  V30 8734 O 796.836 0.00587861 1.94199 0
M  V30 8735 C 793.966 0.426196 3.44675 0
M  V30 8736 C 792.92 1.4234 4.03638 0
M  V30 8737 C 792.246 0.793902 5.28773 0
M  V30 8738 C 793.546 2.7966 4.41121 0
M  V30 8739 H 795.24 1.831 2.36885 0
M  V30 8740 H 792.786 0.881781 1.13845 0
M  V30 8741 H 794.739 0.231767 4.20762 0
M  V30 8742 H 793.463 -0.526693 3.22325 0
M  V30 8743 H 792.122 1.60457 3.2962 0
M  V30 8744 H 791.77 -0.165824 5.02727 0
M  V30 8745 H 791.47 1.45959 5.69183 0
M  V30 8746 H 792.994 0.609747 6.07548 0
M  V30 8747 H 794.408 2.6526 5.08242 0
M  V30 8748 H 792.805 3.42807 4.92548 0
M  V30 8749 H 793.875 3.34068 3.51464 0
M  V30 8750 N 795.218 -1.23913 0.973828 0
M  V30 8751 C 796.443 -1.96735 0.656511 0
M  V30 8752 C 796.868 -1.71682 -0.768571 0
M  V30 8753 O 796.226 -0.984267 -1.52256 0
M  V30 8754 C 796.274 -3.48004 0.944735 0
M  V30 8755 O 795.378 -4.12387 0.0333357 0
M  V30 8756 H 794.719 -0.616119 0.247575 0
M  V30 8757 H 797.249 -1.57525 1.30564 0
M  V30 8758 H 797.259 -3.98424 0.87876 0
M  V30 8759 H 795.934 -3.65567 1.98328 0
M  V30 8760 H 794.511 -3.72585 0.153157 0
M  V30 8761 N 796.696 -0.74468 -1.38897 0
M  V30 8762 C 797.945 -0.293716 -1.9955 0
M  V30 8763 C 798.258 1.12831 -1.59777 0
M  V30 8764 O 799.464 1.67929 -2.13336 0
M  V30 8765 C 797.92 -0.474188 -3.56762 0
M  V30 8766 C 797.528 -1.90472 -4.05493 0
M  V30 8767 C 799.272 -0.0854875 -4.24414 0
M  V30 8768 C 797.179 -2.03423 -5.55314 0
M  V30 8769 H 796.109 -0.106066 -0.746502 0
M  V30 8770 H 798.76 -0.919948 -1.58774 0
M  V30 8771 H 797.142 0.221092 -3.95382 0
M  V30 8772 H 798.316 -2.63274 -3.78184 0
M  V30 8773 H 796.631 -2.24752 -3.50536 0
M  V30 8774 H 799.228 -0.161133 -5.34457 0
M  V30 8775 H 799.571 0.96066 -4.05064 0
M  V30 8776 H 800.104 -0.732286 -3.91002 0
M  V30 8777 H 796.843 -3.0626 -5.79556 0
M  V30 8778 H 796.363 -1.3507 -5.84394 0
M  V30 8779 H 798.042 -1.81996 -6.20876 0
M  V30 8780 N 798.174 1.49689 -0.493057 0
M  V30 8781 C 799.421 2.02427 0.0542714 0
M  V30 8782 C 799.749 1.37339 1.37725 0
M  V30 8783 O 799.004 0.495523 1.89323 0
M  V30 8784 C 799.303 3.56427 0.263536 0
M  V30 8785 C 798.969 4.40111 -0.98046 0
M  V30 8786 C 797.631 4.62699 -1.32148 0
M  V30 8787 C 799.983 4.88847 -1.80771 0
M  V30 8788 C 797.311 5.31268 -2.48941 0
M  V30 8789 C 799.663 5.587 -2.96711 0
M  V30 8790 C 798.327 5.79536 -3.31202 0
M  V30 8791 H 797.597 0.740734 0.0198593 0
M  V30 8792 H 800.244 1.80073 -0.651603 0
M  V30 8793 H 798.549 3.77416 1.05186 0
M  V30 8794 H 800.246 3.94819 0.701348 0
M  V30 8795 H 796.836 4.22765 -0.704814 0
M  V30 8796 H 801.02 4.71231 -1.55741 0
M  V30 8797 H 796.276 5.45603 -2.75911 0
M  V30 8798 H 800.45 5.9544 -3.61143 0
M  V30 8799 H 798.077 6.32443 -4.21805 0
M  V30 8800 N 799.652 0.226554 1.55963 0
M  V30 8801 C 800.585 -0.721625 2.1649 0
M  V30 8802 C 801.563 -1.18745 1.11078 0
M  V30 8803 O 802.747 -1.26929 1.3936 0
M  V30 8804 C 799.874 -1.97828 2.74921 0
M  V30 8805 C 798.92 -1.65202 3.93206 0
M  V30 8806 S 799.753 -0.772419 5.299 0
M  V30 8807 C 800.909 -2.03853 5.91773 0
M  V30 8808 H 801.142 -0.207192 2.96577 0
M  V30 8809 H 798.675 0.0111976 1.54396 0
M  V30 8810 H 800.633 -2.69982 3.09225 0
M  V30 8811 H 799.294 -2.46384 1.94817 0
M  V30 8812 H 798.487 -2.58583 4.32609 0
M  V30 8813 H 798.089 -1.01108 3.60074 0
M  V30 8814 H 800.381 -2.98799 6.08051 0
M  V30 8815 H 801.324 -1.68831 6.87678 0
M  V30 8816 H 801.732 -2.18134 5.20651 0
M  V30 8817 N 801.13 -1.57531 -0.0467866 0
M  V30 8818 C 802.078 -2.06455 -1.0714 0
M  V30 8819 C 803.072 -0.974744 -1.38546 0
M  V30 8820 O 804.278 -1.15974 -1.37659 0
M  V30 8821 H 800.653 -0.658607 -0.362962 0
M  V30 8822 H 802.624 -2.91613 -0.632813 0
M  V30 8823 C 801.373 -2.54481 -2.36927 0
M  V30 8824 H 800.696 -3.37946 -2.13617 0
M  V30 8825 H 802.136 -2.92442 -3.07007 0
M  V30 8826 C 800.595 -1.43836 -3.04652 0
M  V30 8827 O 801.125 -0.794531 -3.93764 0
M  V30 8828 N 799.331 -1.17727 -2.65686 0
M  V30 8829 H 798.878 -1.70265 -1.93307 0
M  V30 8830 H 798.836 -0.439051 -3.11319 0
M  V30 8831 N 802.608 0.318715 -1.54344 0
M  V30 8832 C 803.571 1.37545 -1.83342 0
M  V30 8833 C 804.571 1.445 -0.705444 0
M  V30 8834 O 805.761 1.44443 -0.973752 0
M  V30 8835 C 802.893 2.76225 -1.99781 0
M  V30 8836 H 804.086 1.13084 -2.77762 0
M  V30 8837 H 801.639 0.554457 -1.46135 0
M  V30 8838 H 802.374 3.05934 -1.07588 0
M  V30 8839 H 802.159 2.7257 -2.81865 0
M  V30 8840 H 803.649 3.52664 -2.23647 0
M  V30 8841 N 804.086 1.46499 0.581025 0
M  V30 8842 C 805.049 1.5677 1.672 0
M  V30 8843 C 806.049 0.444716 1.54528 0
M  V30 8844 O 807.239 0.709074 1.59116 0
M  V30 8845 C 804.371 1.4896 3.06633 0
M  V30 8846 H 805.564 2.54 1.5945 0
M  V30 8847 H 803.117 1.34334 0.799003 0
M  V30 8848 H 803.852 0.530168 3.19937 0
M  V30 8849 H 803.637 2.30439 3.17239 0
M  V30 8850 H 805.127 1.59237 3.86048 0
M  V30 8851 N 805.565 -0.825799 1.34232 0
M  V30 8852 C 806.814 -1.57686 1.2577 0
M  V30 8853 C 807.127 -1.94848 -0.171372 0
M  V30 8854 O 808.333 -2.68854 -0.378123 0
M  V30 8855 C 806.789 -2.84478 2.20454 0
M  V30 8856 C 806.397 -2.54629 3.68603 0
M  V30 8857 C 808.141 -3.625 2.20893 0
M  V30 8858 C 806.048 -3.77597 4.55164 0
M  V30 8859 H 804.978 -0.591809 0.467203 0
M  V30 8860 H 807.629 -0.909421 1.59379 0
M  V30 8861 H 806.011 -3.52832 1.79793 0
M  V30 8862 H 807.185 -1.94404 4.17784 0
M  V30 8863 H 805.5 -1.89888 3.70582 0
M  V30 8864 H 808.097 -4.538 2.82789 0
M  V30 8865 H 808.44 -3.98404 1.20746 0
M  V30 8866 H 808.973 -3.01086 2.59985 0
M  V30 8867 H 805.712 -3.46815 5.56237 0
M  V30 8868 H 805.232 -4.37116 4.10719 0
M  V30 8869 H 806.911 -4.45039 4.69627 0
M  V30 8870 N 807.043 -1.17915 -1.04565 0
M  V30 8871 C 808.454 -0.976383 -1.59134 0
M  V30 8872 C 808.805 0.475267 -1.90357 0
M  V30 8873 O 807.93 1.35172 -1.6899 0
M  V30 8874 C 808.525 -1.76604 -2.89131 0
M  V30 8875 C 807.084 -1.60777 -3.40335 0
M  V30 8876 C 806.231 -1.76369 -2.13985 0
M  V30 8877 H 809.182 -1.32532 -0.872985 0
M  V30 8878 H 809.203 -1.25215 -3.59307 0
M  V30 8879 H 808.715 -2.82252 -2.66375 0
M  V30 8880 H 806.816 -0.576436 -3.68114 0
M  V30 8881 H 806.929 -2.40268 -4.14497 0
M  V30 8882 H 805.293 -1.19268 -2.25049 0
M  V30 8883 H 806.076 -2.83441 -1.9369 0
M  V30 8884 N 808.521 1.23394 -0.980386 0
M  V30 8885 C 809.77 1.91116 -0.644785 0
M  V30 8886 C 810.083 1.77333 0.825367 0
M  V30 8887 O 811.289 2.39858 1.27203 0
M  V30 8888 C 809.745 3.42592 -1.10266 0
M  V30 8889 C 809.353 3.65037 -2.59715 0
M  V30 8890 C 811.097 4.1609 -0.8408 0
M  V30 8891 C 809.004 5.10148 -2.9917 0
M  V30 8892 H 807.934 0.715632 -0.23746 0
M  V30 8893 H 810.585 1.39829 -1.18828 0
M  V30 8894 H 808.967 3.92989 -0.487372 0
M  V30 8895 H 810.141 3.25186 -3.26482 0
M  V30 8896 H 808.456 3.04849 -2.83647 0
M  V30 8897 H 811.053 5.23021 -1.11143 0
M  V30 8898 H 811.396 4.15702 0.223085 0
M  V30 8899 H 811.929 3.71681 -1.41767 0
M  V30 8900 H 808.668 5.15668 -4.04682 0
M  V30 8901 H 808.188 5.50949 -2.37097 0
M  V30 8902 H 809.867 5.7848 -2.89775 0
M  V30 8903 N 809.999 0.752036 1.385 0
M  V30 8904 C 810.962 0.131587 2.28822 0
M  V30 8905 C 811.962 -0.649149 1.47115 0
M  V30 8906 O 813.152 -0.475645 1.67581 0
M  V30 8907 C 810.284 -0.822101 3.30839 0
M  V30 8908 H 811.477 0.927551 2.85196 0
M  V30 8909 H 809.03 0.518945 1.47434 0
M  V30 8910 H 809.765 -1.6438 2.79553 0
M  V30 8911 H 809.55 -0.264689 3.91206 0
M  V30 8912 H 811.04 -1.25226 3.98382 0
M  V30 8913 N 811.477 -1.49425 0.500989 0
M  V30 8914 C 812.44 -2.27646 -0.266416 0
M  V30 8915 C 813.44 -1.3366 -0.893961 0
M  V30 8916 O 814.63 -1.5682 -0.758495 0
M  V30 8917 C 811.762 -3.11618 -1.38227 0
M  V30 8918 H 812.955 -2.96945 0.419973 0
M  V30 8919 H 810.508 -1.5419 0.255954 0
M  V30 8920 H 811.243 -2.46885 -2.10281 0
M  V30 8921 H 811.028 -3.80721 -0.937746 0
M  V30 8922 H 812.518 -3.70698 -1.92283 0
M  V30 8923 N 812.955 -0.234822 -1.55841 0
M  V30 8924 C 814.201 0.393843 -1.98939 0
M  V30 8925 C 814.534 1.58466 -1.1226 0
M  V30 8926 O 813.809 1.93635 -0.183242 0
M  V30 8927 C 814.092 0.815492 -3.50745 0
M  V30 8928 C 813.945 -0.379878 -4.48193 0
M  V30 8929 C 815.264 1.66687 -4.07312 0
M  V30 8930 H 812.383 0.141681 -0.723253 0
M  V30 8931 H 815.025 -0.333716 -1.87046 0
M  V30 8932 H 813.175 1.43541 -3.6101 0
M  V30 8933 H 814.847 -1.0182 -4.49923 0
M  V30 8934 H 813.09 -1.02507 -4.21515 0
M  V30 8935 H 813.761 -0.0417069 -5.51984 0
M  V30 8936 H 816.237 1.14369 -4.00074 0
M  V30 8937 H 815.113 1.93078 -5.13821 0
M  V30 8938 H 815.374 2.63468 -3.55017 0
M  V30 8939 N 814.433 1.57553 0.0384317 0
M  V30 8940 C 815.363 2.0898 1.04161 0
M  V30 8941 C 816.344 0.99029 1.38301 0
M  V30 8942 O 817.529 1.26499 1.47349 0
M  V30 8943 C 814.659 2.56145 2.34536 0
M  V30 8944 C 813.613 3.70275 2.14663 0
M  V30 8945 C 812.939 4.03612 3.50715 0
M  V30 8946 C 814.239 4.99067 1.54045 0
M  V30 8947 H 815.933 2.93046 0.613548 0
M  V30 8948 H 813.479 1.40973 0.293684 0
M  V30 8949 H 815.432 2.90741 3.05037 0
M  V30 8950 H 814.156 1.6915 2.79385 0
M  V30 8951 H 812.815 3.36013 1.46597 0
M  V30 8952 H 812.463 3.13698 3.93195 0
M  V30 8953 H 812.163 4.80482 3.38247 0
M  V30 8954 H 813.687 4.40735 4.22593 0
M  V30 8955 H 815.101 5.3168 2.14451 0
M  V30 8956 H 813.498 5.80484 1.52178 0
M  V30 8957 H 814.568 4.8226 0.505259 0
M  V30 8958 N 815.911 -0.310526 1.54511 0
M  V30 8959 C 816.874 -1.3657 1.84068 0
M  V30 8960 C 817.874 -1.44123 0.713097 0
M  V30 8961 O 819.064 -1.43924 0.981399 0
M  V30 8962 C 816.196 -2.75162 2.01243 0
M  V30 8963 H 817.389 -1.1161 2.78358 0
M  V30 8964 H 814.942 -0.546699 1.46427 0
M  V30 8965 H 815.677 -3.05359 1.09208 0
M  V30 8966 H 815.462 -2.71071 2.83307 0
M  V30 8967 H 816.952 -3.51473 2.25514 0
M  V30 8968 N 817.389 -1.46805 -0.573248 0
M  V30 8969 C 818.617 -1.56191 -1.3569 0
M  V30 8970 C 819.032 -0.206362 -1.87669 0
M  V30 8971 O 818.389 0.797883 -1.64134 0
M  V30 8972 C 818.44 -2.57433 -2.53792 0
M  V30 8973 O 818.161 -3.87724 -2.03965 0
M  V30 8974 C 819.662 -2.76851 -3.4622 0
M  V30 8975 H 816.882 -0.527907 -0.414192 0
M  V30 8976 H 819.426 -1.92292 -0.695989 0
M  V30 8977 H 817.581 -2.24311 -3.15854 0
M  V30 8978 H 817.995 -4.42909 -2.80948 0
M  V30 8979 H 819.469 -3.5159 -4.25545 0
M  V30 8980 H 819.946 -1.84095 -3.98755 0
M  V30 8981 H 820.552 -3.11107 -2.89987 0
M  V30 8982 N 818.867 0.818669 -1.34668 0
M  V30 8983 C 820.114 1.57512 -1.27264 0
M  V30 8984 C 820.442 1.93871 0.156254 0
M  V30 8985 O 819.697 1.60582 1.11857 0
M  V30 8986 C 819.996 2.88245 -2.11304 0
M  V30 8987 C 819.662 2.71159 -3.60255 0
M  V30 8988 C 818.324 2.66207 -4.00858 0
M  V30 8989 C 820.676 2.54538 -4.54819 0
M  V30 8990 C 818.004 2.4256 -5.34211 0
M  V30 8991 C 820.356 2.32421 -5.88356 0
M  V30 8992 C 819.02 2.25884 -6.28118 0
M  V30 8993 H 818.29 0.576378 -0.465692 0
M  V30 8994 H 820.937 0.9469 -1.66451 0
M  V30 8995 H 819.242 3.55381 -1.64958 0
M  V30 8996 H 820.939 3.45869 -2.02919 0
M  V30 8997 H 817.529 2.75856 -3.28027 0
M  V30 8998 H 821.713 2.57384 -4.24343 0
M  V30 8999 H 816.969 2.35959 -5.64033 0
M  V30 9000 H 821.143 2.18548 -6.61218 0
M  V30 9001 H 818.77 2.07322 -7.31383 0
M  V30 9002 N 820.346 1.18468 1.03938 0
M  V30 9003 C 821.592 0.982286 1.77423 0
M  V30 9004 C 821.925 -0.48679 1.88 0
M  V30 9005 O 821.2 -1.36146 1.38905 0
M  V30 9006 C 821.483 1.63929 3.20623 0
M  V30 9007 C 821.336 3.18132 3.17982 0
M  V30 9008 C 822.655 1.3536 4.18767 0
M  V30 9009 H 819.774 0.358264 0.644062 0
M  V30 9010 H 822.416 1.46154 1.21405 0
M  V30 9011 H 820.566 1.2318 3.68455 0
M  V30 9012 H 822.238 3.68024 2.78129 0
M  V30 9013 H 820.481 3.50225 2.55978 0
M  V30 9014 H 821.152 3.5924 4.19107 0
M  V30 9015 H 823.628 1.70669 3.79488 0
M  V30 9016 H 822.504 1.83896 5.17178 0
M  V30 9017 H 822.765 0.276722 4.41233 0
M  V30 9018 N 821.824 -1.22873 0.986916 0
M  V30 9019 C 823.052 -1.95487 0.677663 0
M  V30 9020 C 823.467 -1.72978 -0.756572 0
M  V30 9021 O 822.824 -1.02517 -1.50985 0
M  V30 9022 C 822.875 -3.48337 0.966638 0
M  V30 9023 O 822.596 -3.70087 2.34451 0
M  V30 9024 C 824.097 -4.38142 0.674248 0
M  V30 9025 H 821.317 -0.622211 0.251185 0
M  V30 9026 H 823.861 -1.56187 1.32007 0
M  V30 9027 H 822.016 -3.85628 0.370137 0
M  V30 9028 H 822.43 -4.64332 2.43918 0
M  V30 9029 H 823.904 -5.44165 0.926759 0
M  V30 9030 H 824.381 -4.3745 -0.391728 0
M  V30 9031 H 824.987 -4.06469 1.25152 0
M  V30 9032 N 823.302 -0.75937 -1.38099 0
M  V30 9033 C 824.252 -0.111098 -2.27729 0
M  V30 9034 C 825.236 0.687161 -1.45489 0
M  V30 9035 O 826.428 0.552167 -1.68167 0
M  V30 9036 C 823.557 0.776809 -3.34396 0
M  V30 9037 C 822.643 -0.0286108 -4.2409 0
M  V30 9038 N 823.034 -1.06797 -4.94397 0
M  V30 9039 C 821.332 0.197307 -4.45563 0
M  V30 9040 C 822.033 -1.55576 -5.6051 0
M  V30 9041 N 821.009 -0.870059 -5.36592 0
M  V30 9042 H 824.811 -0.907047 -2.79553 0
M  V30 9043 H 822.325 -0.595954 -1.5107 0
M  V30 9044 H 824.322 1.25691 -3.97502 0
M  V30 9045 H 822.982 1.57164 -2.84129 0
M  V30 9046 H 823.993 -1.44988 -4.97191 0
M  V30 9047 H 820.67 0.965028 -4.06194 0
M  V30 9048 H 822.06 -2.42184 -6.26735 0
M  V30 9049 N 824.78 1.49157 -0.508906 0
M  V30 9050 C 825.743 2.27784 0.25434 0
M  V30 9051 C 826.743 1.34132 0.88686 0
M  V30 9052 O 827.933 1.5722 0.750168 0
M  V30 9053 C 825.065 3.12347 1.36573 0
M  V30 9054 H 826.258 2.96718 -0.435714 0
M  V30 9055 H 823.811 1.54052 -0.264128 0
M  V30 9056 H 824.546 2.47997 2.08969 0
M  V30 9057 H 824.331 3.81213 0.917543 0
M  V30 9058 H 825.821 3.71712 1.90315 0
M  V30 9059 N 826.258 0.243083 1.55714 0
M  V30 9060 C 827.488 -0.38641 2.02954 0
M  V30 9061 C 827.896 -1.52358 1.12177 0
M  V30 9062 O 827.239 -1.83255 0.127853 0
M  V30 9063 C 827.301 -0.959388 3.46462 0
M  V30 9064 C 826.965 0.0450546 4.56978 0
M  V30 9065 C 827.962 0.853224 5.12851 0
M  V30 9066 C 825.647 0.170041 5.02012 0
M  V30 9067 C 827.641 1.77288 6.12248 0
M  V30 9068 C 825.328 1.0932 6.01242 0
M  V30 9069 C 826.326 1.89315 6.56238 0
M  V30 9070 O 826.014 2.80075 7.53534 0
M  V30 9071 H 825.746 -0.0964333 0.669086 0
M  V30 9072 H 828.3 0.363399 2.0216 0
M  V30 9073 H 826.53 -1.75869 3.44394 0
M  V30 9074 H 828.219 -1.49856 3.77224 0
M  V30 9075 H 828.985 0.767229 4.78893 0
M  V30 9076 H 824.864 -0.442528 4.58871 0
M  V30 9077 H 828.408 2.39768 6.55101 0
M  V30 9078 H 824.305 1.18013 6.3462 0
M  V30 9079 H 825.073 2.74393 7.71136 0
M  V30 9080 N 827.736 -1.57571 -0.0300757 0
M  V30 9081 C 828.699 -2.05468 -1.01565 0
M  V30 9082 C 829.699 -0.958628 -1.29101 0
M  V30 9083 O 830.889 -1.22228 -1.24121 0
M  V30 9084 C 828.021 -2.47077 -2.34874 0
M  V30 9085 H 829.214 -2.93797 -0.601936 0
M  V30 9086 H 826.767 -1.53828 -0.276878 0
M  V30 9087 H 827.502 -1.61901 -2.80996 0
M  V30 9088 H 827.287 -3.27097 -2.16218 0
M  V30 9089 H 828.777 -2.84564 -3.05635 0
M  V30 9090 N 829.214 0.302327 -1.54673 0
M  V30 9091 C 830.439 1.06103 -1.78205 0
M  V30 9092 C 830.864 1.80204 -0.53926 0
M  V30 9093 O 830.222 1.73975 0.510142 0
M  V30 9094 C 830.27 2.01829 -2.98827 0
M  V30 9095 O 829.374 3.10108 -2.71858 0
M  V30 9096 H 828.715 0.30487 -0.589873 0
M  V30 9097 H 831.245 0.340153 -2.01753 0
M  V30 9098 H 831.255 2.44319 -3.2676 0
M  V30 9099 H 829.93 1.473 -3.88942 0
M  V30 9100 H 828.507 2.72142 -2.54937 0
M  V30 9101 N 830.692 1.47107 0.565454 0
M  V30 9102 C 831.94 1.53005 1.32038 0
M  V30 9103 C 832.261 0.190453 1.94068 0
M  V30 9104 O 831.531 -0.784783 1.79494 0
M  V30 9105 H 830.111 0.563578 0.490294 0
M  V30 9106 H 832.773 1.83351 0.660928 0
M  V30 9107 H 831.869 2.29215 2.11818 0
M  V30 9108 N 832.17 -0.811516 1.35101 0
M  V30 9109 C 833.118 -1.94449 1.27642 0
M  V30 9110 C 834.112 -1.68522 0.172287 0
M  V30 9111 O 835.318 -1.76799 0.337967 0
M  V30 9112 H 831.693 -0.638776 0.396824 0
M  V30 9113 H 833.664 -1.97861 2.23369 0
M  V30 9114 C 832.413 -3.31139 1.06029 0
M  V30 9115 H 831.736 -3.51644 1.90227 0
M  V30 9116 H 833.176 -4.10831 1.0485 0
M  V30 9117 C 831.635 -3.36072 -0.236039 0
M  V30 9118 O 832.165 -3.82292 -1.23353 0
M  V30 9119 N 830.371 -2.89314 -0.273107 0
M  V30 9120 H 829.918 -2.51893 0.539211 0
M  V30 9121 H 829.876 -2.92996 -1.1402 0
M  V30 9122 N 833.648 -1.19017 -1.03309 0
M  V30 9123 C 834.596 -0.920627 -2.13605 0
M  V30 9124 C 835.59 0.121969 -1.6896 0
M  V30 9125 O 836.796 -0.0268854 -1.7998 0
M  V30 9126 H 833.171 -0.280284 -0.697814 0
M  V30 9127 H 835.142 -1.85755 -2.33533 0
M  V30 9128 C 833.891 -0.471198 -3.44492 0
M  V30 9129 H 833.214 -1.26499 -3.7926 0
M  V30 9130 H 834.654 -0.321663 -4.22778 0
M  V30 9131 C 833.113 0.81411 -3.26916 0
M  V30 9132 O 833.643 1.87654 -3.55175 0
M  V30 9133 N 831.849 0.769695 -2.80221 0
M  V30 9134 H 831.396 -0.0951278 -2.57424 0
M  V30 9135 H 831.354 1.63008 -2.68842 0
M  V30 9136 N 835.127 1.22348 -0.993418 0
M  V30 9137 C 836.057 2.26584 -0.564088 0
M  V30 9138 C 837.038 1.65102 0.409298 0
M  V30 9139 O 838.223 1.91872 0.299819 0
M  V30 9140 C 835.353 3.47087 0.121554 0
M  V30 9141 C 834.307 4.21009 -0.770429 0
M  V30 9142 C 833.633 5.34678 0.0481586 0
M  V30 9143 C 834.933 4.79636 -2.06752 0
M  V30 9144 H 836.627 2.62749 -1.43538 0
M  V30 9145 H 834.173 1.26303 -0.691628 0
M  V30 9146 H 836.126 4.19166 0.433303 0
M  V30 9147 H 834.85 3.1002 1.0274 0
M  V30 9148 H 833.509 3.50764 -1.06583 0
M  V30 9149 H 833.157 4.93852 0.954933 0
M  V30 9150 H 832.857 5.85061 -0.545641 0
M  V30 9151 H 834.381 6.09573 0.353991 0
M  V30 9152 H 835.795 5.43654 -1.81969 0
M  V30 9153 H 834.192 5.4036 -2.61019 0
M  V30 9154 H 835.262 3.99659 -2.74592 0
M  V30 9155 N 836.605 0.766683 1.37694 0
M  V30 9156 C 837.552 0.147725 2.30327 0
M  V30 9157 C 838.522 -0.695366 1.50844 0
M  V30 9158 O 839.707 -0.64878 1.79431 0
M  V30 9159 C 836.847 -0.72935 3.37305 0
M  V30 9160 C 835.96 0.129795 4.31805 0
M  V30 9161 C 835.095 -0.751511 5.25857 0
M  V30 9162 C 834.134 0.110475 6.12 0
M  V30 9163 N 833.271 -0.728522 6.9831 0
M  V30 9164 H 838.111 0.943204 2.82679 0
M  V30 9165 H 835.648 0.476736 1.3916 0
M  V30 9166 H 837.606 -1.25263 3.97951 0
M  V30 9167 H 836.236 -1.49048 2.86329 0
M  V30 9168 H 835.288 0.770829 3.72508 0
M  V30 9169 H 836.6 0.794923 4.92425 0
M  V30 9170 H 835.754 -1.34146 5.91684 0
M  V30 9171 H 834.493 -1.45034 4.65636 0
M  V30 9172 H 833.498 0.712999 5.45157 0
M  V30 9173 H 834.723 0.806557 6.74293 0
M  V30 9174 H 832.669 -1.41206 6.40622 0
M  V30 9175 H 832.586 -0.12058 7.55904 0
M  V30 9176 H 833.854 -1.30303 7.68532 0
M  V30 9177 N 838.083 -1.48885 0.516809 0
M  V30 9178 C 839.494 -1.86557 0.0729921 0
M  V30 9179 C 839.845 -1.42767 -1.34581 0
M  V30 9180 O 838.97 -0.812514 -2.00567 0
M  V30 9181 C 839.565 -3.38567 0.125686 0
M  V30 9182 C 838.124 -3.75481 -0.262867 0
M  V30 9183 C 837.271 -2.72913 0.491281 0
M  V30 9184 H 840.222 -1.40978 0.728767 0
M  V30 9185 H 840.243 -3.74629 -0.665831 0
M  V30 9186 H 839.755 -3.70408 1.15842 0
M  V30 9187 H 837.856 -3.49251 -1.29824 0
M  V30 9188 H 837.969 -4.79052 0.067579 0
M  V30 9189 H 836.333 -2.54627 -0.0608525 0
M  V30 9190 H 837.116 -3.07599 1.5244 0
M  V30 9191 N 839.561 -0.251338 -1.55583 0
M  V30 9192 C 840.524 0.63305 -2.20284 0
M  V30 9193 C 841.524 1.09941 -1.17344 0
M  V30 9194 O 842.714 1.00341 -1.42399 0
M  V30 9195 C 839.846 1.8706 -2.84993 0
M  V30 9196 H 841.039 0.0684846 -2.99822 0
M  V30 9197 H 838.592 -0.00181653 -1.563 0
M  V30 9198 H 839.327 2.47629 -2.09405 0
M  V30 9199 H 839.112 1.54436 -3.60405 0
M  V30 9200 H 840.602 2.50004 -3.34496 0
M  V30 9201 N 841.039 1.57585 0.0217189 0
M  V30 9202 C 841.949 2.10444 1.03684 0
M  V30 9203 C 842.965 1.04472 1.39146 0
M  V30 9204 O 844.141 1.36249 1.48317 0
M  V30 9205 C 841.206 2.5794 2.31664 0
M  V30 9206 C 840.267 3.78425 2.02714 0
M  V30 9207 C 839.5 4.23646 3.24592 0
M  V30 9208 O 839.723 3.6834 4.35525 0
M  V30 9209 O 838.657 5.16013 3.09862 0
M  V30 9210 H 842.483 2.97354 0.617584 0
M  V30 9211 H 840.068 1.47473 0.239174 0
M  V30 9212 H 841.95 2.88785 3.06889 0
M  V30 9213 H 840.625 1.74138 2.7287 0
M  V30 9214 H 839.532 3.52587 1.25033 0
M  V30 9215 H 840.865 4.63234 1.66359 0
M  V30 9216 N 842.517 -0.29412 1.54831 0
M  V30 9217 C 843.48 -1.3461 1.85507 0
M  V30 9218 C 844.48 -1.43359 0.728343 0
M  V30 9219 O 845.67 -1.42875 0.996609 0
M  V30 9220 C 842.802 -2.73012 2.0415 0
M  V30 9221 H 843.995 -1.08651 2.79526 0
M  V30 9222 H 841.548 -0.531138 1.46999 0
M  V30 9223 H 842.283 -3.04183 1.12441 0
M  V30 9224 H 842.068 -2.68051 2.86166 0
M  V30 9225 H 843.558 -3.49061 2.29229 0
M  V30 9226 N 843.995 -1.47404 -0.557645 0
M  V30 9227 C 845.242 -1.54007 -1.31484 0
M  V30 9228 C 845.57 -0.202162 -1.93447 0
M  V30 9229 O 844.825 0.804901 -1.78381 0
M  V30 9230 C 845.124 -2.6061 -2.44575 0
M  V30 9231 C 844.79 -4.03896 -2.00446 0
M  V30 9232 C 843.452 -4.42901 -1.88127 0
M  V30 9233 C 845.804 -4.93804 -1.66754 0
M  V30 9234 C 843.132 -5.6965 -1.40411 0
M  V30 9235 C 845.484 -6.21016 -1.20509 0
M  V30 9236 C 844.148 -6.58903 -1.06786 0
M  V30 9237 H 843.418 -0.563552 -0.481134 0
M  V30 9238 H 846.065 -1.81001 -0.625375 0
M  V30 9239 H 844.37 -2.27371 -3.19076 0
M  V30 9240 H 846.067 -2.62941 -3.02759 0
M  V30 9241 H 842.657 -3.73077 -2.10977 0
M  V30 9242 H 846.841 -4.64369 -1.75144 0
M  V30 9243 H 842.097 -5.97755 -1.2845 0
M  V30 9244 H 846.271 -6.90095 -0.935001 0
M  V30 9245 H 843.898 -7.57008 -0.695891 0
M  V30 9246 N 845.473 0.80434 -1.35529 0
M  V30 9247 C 846.436 1.89788 -1.28503 0
M  V30 9248 C 847.436 1.59601 -0.195983 0
M  V30 9249 O 848.626 1.68292 -0.449827 0
M  V30 9250 C 845.758 3.26255 -0.98847 0
M  V30 9251 H 846.951 1.97436 -2.25741 0
M  V30 9252 H 844.504 1.00046 -1.20086 0
M  V30 9253 H 845.239 3.24294 -0.0200541 0
M  V30 9254 H 845.024 3.49551 -1.77641 0
M  V30 9255 H 846.514 4.06298 -0.964975 0
M  V30 9256 N 846.951 1.19563 1.02676 0
M  V30 9257 C 848.176 1.02556 1.80269 0
M  V30 9258 C 848.601 -0.421056 1.83327 0
M  V30 9259 O 847.959 -1.30279 1.26084 0
M  V30 9260 C 848.007 1.60165 3.23078 0
M  V30 9261 O 847.111 0.832404 4.03912 0
M  V30 9262 H 846.452 0.362354 0.556413 0
M  V30 9263 H 848.982 1.58633 1.29216 0
M  V30 9264 H 848.992 1.6347 3.7382 0
M  V30 9265 H 847.667 2.65454 3.20167 0
M  V30 9266 H 846.244 0.872768 3.62543 0
M  V30 9267 N 848.429 -1.21819 0.999893 0
M  V30 9268 C 849.359 -2.26282 0.576096 0
M  V30 9269 C 850.34 -1.65317 -0.400537 0
M  V30 9270 O 851.525 -1.92028 -0.28964 0
M  V30 9271 C 848.655 -3.47147 -0.103145 0
M  V30 9272 C 847.609 -4.20594 0.792745 0
M  V30 9273 C 846.935 -5.34696 -0.0198026 0
M  V30 9274 C 848.235 -4.78533 2.09293 0
M  V30 9275 H 849.929 -2.61984 1.4493 0
M  V30 9276 H 847.475 -1.25935 0.698316 0
M  V30 9277 H 849.428 -4.1939 -0.411068 0
M  V30 9278 H 848.152 -3.1056 -1.01094 0
M  V30 9279 H 846.811 -3.50194 1.08442 0
M  V30 9280 H 846.459 -4.94352 -0.928729 0
M  V30 9281 H 846.159 -5.84764 0.576661 0
M  V30 9282 H 847.683 -6.09752 -0.321659 0
M  V30 9283 H 849.097 -5.42682 1.8485 0
M  V30 9284 H 847.494 -5.38968 2.63881 0
M  V30 9285 H 848.564 -3.98197 2.76708 0
M  V30 9286 N 849.908 -0.773975 -1.37286 0
M  V30 9287 C 851.133 -0.349561 -2.04433 0
M  V30 9288 C 851.558 1.02082 -1.5799 0
M  V30 9289 O 850.916 1.65458 -0.741172 0
M  V30 9290 C 850.964 -0.404292 -3.58326 0
M  V30 9291 O 850.068 0.594447 -4.08093 0
M  V30 9292 H 849.409 -0.150959 -0.646612 0
M  V30 9293 H 851.939 -1.05079 -1.75555 0
M  V30 9294 H 851.949 -0.262378 -4.07155 0
M  V30 9295 H 850.624 -1.40403 -3.91484 0
M  V30 9296 H 849.201 0.415468 -3.70578 0
M  V30 9297 N 851.386 1.48609 -0.524698 0
M  V30 9298 C 852.316 2.32366 0.229837 0
M  V30 9299 C 853.297 1.41759 0.940129 0
M  V30 9300 O 854.482 1.7065 0.926936 0
M  V30 9301 C 851.612 3.22835 1.28043 0
M  V30 9302 C 850.566 4.22424 0.688603 0
M  V30 9303 C 849.892 5.0199 1.84146 0
M  V30 9304 C 851.192 5.21217 -0.336176 0
M  V30 9305 H 852.886 2.95698 -0.469339 0
M  V30 9306 H 850.432 1.42197 -0.227156 0
M  V30 9307 H 852.385 3.80253 1.8162 0
M  V30 9308 H 851.109 2.57492 2.00912 0
M  V30 9309 H 849.768 3.66185 0.174402 0
M  V30 9310 H 849.416 4.33076 2.5584 0
M  V30 9311 H 849.116 5.69392 1.45142 0
M  V30 9312 H 850.64 5.62259 2.38111 0
M  V30 9313 H 852.054 5.7319 0.112307 0
M  V30 9314 H 850.451 5.96642 -0.643324 0
M  V30 9315 H 851.521 4.68676 -1.24381 0
M  V30 9316 N 852.864 0.259585 1.55447 0
M  V30 9317 C 854.111 -0.361607 1.99245 0
M  V30 9318 C 854.439 -1.57017 1.14787 0
M  V30 9319 O 853.694 -1.94658 0.201724 0
M  V30 9320 C 853.993 -0.802727 3.48269 0
M  V30 9321 C 853.659 0.299472 4.49904 0
M  V30 9322 C 852.321 0.602157 4.77418 0
M  V30 9323 C 854.673 1.04295 5.10658 0
M  V30 9324 C 852.001 1.65217 5.62957 0
M  V30 9325 C 854.353 2.08257 5.97337 0
M  V30 9326 C 853.017 2.39177 6.23178 0
M  V30 9327 H 852.287 -0.132322 0.72909 0
M  V30 9328 H 854.934 0.370059 1.8789 0
M  V30 9329 H 853.239 -1.61381 3.5702 0
M  V30 9330 H 854.936 -1.29385 3.79553 0
M  V30 9331 H 851.526 0.0534256 4.28567 0
M  V30 9332 H 855.71 0.822358 4.89439 0
M  V30 9333 H 850.966 1.89692 5.81229 0
M  V30 9334 H 855.14 2.6635 6.43452 0
M  V30 9335 H 852.767 3.20677 6.89253 0
M  V30 9336 N 854.342 -1.57594 -0.0133615 0
M  V30 9337 C 855.292 -2.04048 -1.01726 0
M  V30 9338 C 856.276 -0.932682 -1.3111 0
M  V30 9339 O 857.468 -1.19652 -1.30432 0
M  V30 9340 C 854.597 -2.53637 -2.31351 0
M  V30 9341 C 853.683 -3.71269 -2.04989 0
M  V30 9342 N 854.074 -4.83436 -1.48739 0
M  V30 9343 C 852.372 -3.78943 -2.35198 0
M  V30 9344 C 853.073 -5.64961 -1.38542 0
M  V30 9345 N 852.049 -5.10554 -1.86643 0
M  V30 9346 H 855.851 -2.88188 -0.576623 0
M  V30 9347 H 853.365 -1.60912 -0.219344 0
M  V30 9348 H 855.362 -2.85186 -3.04096 0
M  V30 9349 H 854.022 -1.7091 -2.76079 0
M  V30 9350 H 855.033 -5.04558 -1.16798 0
M  V30 9351 H 851.71 -3.07047 -2.82893 0
M  V30 9352 H 853.1 -6.65092 -0.954075 0
M  V30 9353 N 855.82 0.285905 -1.54985 0
M  V30 9354 C 857.069 1.01691 -1.74189 0
M  V30 9355 C 857.382 1.87908 -0.543135 0
M  V30 9356 O 858.588 2.64389 -0.617305 0
M  V30 9357 C 857.044 1.85785 -3.0824 0
M  V30 9358 C 856.652 1.04497 -4.35642 0
M  V30 9359 C 858.396 2.58393 -3.36798 0
M  V30 9360 C 856.303 1.87955 -5.60738 0
M  V30 9361 H 855.233 0.383396 -0.649248 0
M  V30 9362 H 857.884 0.27317 -1.81455 0
M  V30 9363 H 856.266 2.64205 -2.94978 0
M  V30 9364 H 857.44 0.305847 -4.59784 0
M  V30 9365 H 855.755 0.434023 -4.14132 0
M  V30 9366 H 858.352 3.21214 -4.27464 0
M  V30 9367 H 858.695 3.28011 -2.56349 0
M  V30 9368 H 859.228 1.87012 -3.511 0
M  V30 9369 H 855.967 1.22781 -6.43898 0
M  V30 9370 H 855.487 2.59499 -5.40759 0
M  V30 9371 H 857.166 2.45636 -5.98558 0
M  V30 9372 N 857.298 1.47698 0.54982 0
M  V30 9373 C 858.228 1.63622 1.66583 0
M  V30 9374 C 859.209 0.485477 1.63025 0
M  V30 9375 O 860.394 0.715692 1.80531 0
M  V30 9376 C 857.524 1.65721 3.05211 0
M  V30 9377 C 856.478 2.80097 3.2362 0
M  V30 9378 C 855.804 2.67272 4.63109 0
M  V30 9379 C 857.104 4.21612 3.08286 0
M  V30 9380 H 858.798 2.57049 1.53512 0
M  V30 9381 H 856.344 1.23705 0.737099 0
M  V30 9382 H 858.297 1.75451 3.83138 0
M  V30 9383 H 857.021 0.688593 3.19258 0
M  V30 9384 H 855.68 2.69889 2.48104 0
M  V30 9385 H 855.328 1.68422 4.73965 0
M  V30 9386 H 855.028 3.44008 4.76374 0
M  V30 9387 H 856.552 2.78942 5.43161 0
M  V30 9388 H 857.966 4.32758 3.76024 0
M  V30 9389 H 856.363 4.99193 3.33057 0
M  V30 9390 H 857.433 4.39462 2.04942 0
M  V30 9391 N 858.776 -0.797141 1.35954 0
M  V30 9392 C 860.022 -1.55698 1.29946 0
M  V30 9393 C 860.355 -1.93808 -0.123259 0
M  V30 9394 O 859.63 -1.62102 -1.07486 0
M  V30 9395 C 859.913 -2.83926 2.2149 0
M  V30 9396 C 859.766 -2.52232 3.72423 0
M  V30 9397 C 861.085 -3.85698 2.11955 0
M  V30 9398 H 858.204 -0.56488 0.47337 0
M  V30 9399 H 860.846 -0.916421 1.66438 0
M  V30 9400 H 858.996 -3.38588 1.905 0
M  V30 9401 H 860.668 -2.0368 4.13899 0
M  V30 9402 H 858.911 -1.85286 3.92239 0
M  V30 9403 H 859.582 -3.43782 4.31877 0
M  V30 9404 H 862.058 -3.40462 2.39218 0
M  V30 9405 H 860.934 -4.73182 2.78191 0
M  V30 9406 H 861.195 -4.28083 1.10442 0
M  V30 9407 N 860.254 -1.20106 -1.0204 0
M  V30 9408 C 861.482 -1.0344 -1.79186 0
M  V30 9409 C 861.897 0.416542 -1.84148 0
M  V30 9410 O 861.254 1.28925 -1.29168 0
M  V30 9411 C 861.305 -1.60663 -3.23836 0
M  V30 9412 O 861.026 -3.00079 -3.19193 0
M  V30 9413 C 862.527 -1.48897 -4.17546 0
M  V30 9414 H 859.747 -0.364093 -0.563629 0
M  V30 9415 H 862.291 -1.5911 -1.28469 0
M  V30 9416 H 860.446 -1.09122 -3.71714 0
M  V30 9417 H 860.86 -3.27162 -4.09958 0
M  V30 9418 H 862.334 -1.93703 -5.16898 0
M  V30 9419 H 862.811 -0.440843 -4.36982 0
M  V30 9420 H 863.417 -1.9961 -3.75547 0
M  V30 9421 N 861.732 1.21287 -1.00634 0
M  V30 9422 C 863.143 1.72136 -0.722914 0
M  V30 9423 C 863.494 1.8091 0.759338 0
M  V30 9424 O 862.619 1.46458 1.59308 0
M  V30 9425 C 863.214 3.12633 -1.30561 0
M  V30 9426 C 861.773 3.60833 -1.07127 0
M  V30 9427 C 860.92 2.38326 -1.4176 0
M  V30 9428 H 863.871 1.06445 -1.17708 0
M  V30 9429 H 863.892 3.74174 -0.690937 0
M  V30 9430 H 863.404 3.06215 -2.38441 0
M  V30 9431 H 861.505 3.72599 -0.00968671 0
M  V30 9432 H 861.618 4.46226 -1.74411 0
M  V30 9433 H 859.982 2.40575 -0.836412 0
M  V30 9434 H 860.765 2.34558 -2.50674 0
M  V30 9435 N 863.21 0.781244 1.36873 0
M  V30 9436 C 864.14 0.188128 2.32741 0
M  V30 9437 C 865.121 -0.672326 1.56249 0
M  V30 9438 O 866.306 -0.607835 1.84442 0
M  V30 9439 C 863.436 -0.684341 3.40491 0
M  V30 9440 C 862.39 0.0755641 4.27933 0
M  V30 9441 C 861.716 -0.916968 5.26779 0
M  V30 9442 C 863.016 1.26006 5.06873 0
M  V30 9443 H 864.71 0.989016 2.82593 0
M  V30 9444 H 862.256 0.477038 1.35869 0
M  V30 9445 H 864.209 -1.10915 4.06541 0
M  V30 9446 H 862.933 -1.51785 2.89187 0
M  V30 9447 H 861.592 0.481258 3.63427 0
M  V30 9448 H 861.24 -1.74528 4.71751 0
M  V30 9449 H 860.94 -0.413 5.86147 0
M  V30 9450 H 862.464 -1.34052 5.95703 0
M  V30 9451 H 863.878 0.911425 5.66009 0
M  V30 9452 H 862.275 1.69676 5.75613 0
M  V30 9453 H 863.345 2.05948 4.38991 0
M  V30 9454 N 864.689 -1.48329 0.532571 0
M  V30 9455 C 865.936 -2.025 -0.000582356 0
M  V30 9456 C 866.264 -1.40942 -1.34036 0
M  V30 9457 O 865.519 -0.545545 -1.87942 0
M  V30 9458 C 865.818 -3.57 -0.168943 0
M  V30 9459 C 865.484 -4.37357 1.0968 0
M  V30 9460 C 864.146 -4.59033 1.44369 0
M  V30 9461 C 866.498 -4.83882 1.93669 0
M  V30 9462 C 863.826 -5.24481 2.62939 0
M  V30 9463 C 866.178 -5.50637 3.11419 0
M  V30 9464 C 864.842 -5.70551 3.46451 0
M  V30 9465 H 864.112 -0.741 -0.000213099 0
M  V30 9466 H 866.759 -1.78282 0.699117 0
M  V30 9467 H 865.064 -3.80072 -0.951429 0
M  V30 9468 H 866.761 -3.9654 -0.596422 0
M  V30 9469 H 863.351 -4.20748 0.816655 0
M  V30 9470 H 867.535 -4.66936 1.6818 0
M  V30 9471 H 862.791 -5.38096 2.9028 0
M  V30 9472 H 866.965 -5.85655 3.76803 0
M  V30 9473 H 864.592 -6.21037 4.38425 0
M  V30 9474 N 866.167 -0.267825 -1.55308 0
M  V30 9475 C 867.097 0.616585 -2.25212 0
M  V30 9476 C 868.078 1.16472 -1.23969 0
M  V30 9477 O 869.263 1.20021 -1.52672 0
M  V30 9478 C 866.393 1.80412 -2.96764 0
M  V30 9479 C 865.347 1.38784 -4.04874 0
M  V30 9480 C 864.673 2.65789 -4.63961 0
M  V30 9481 C 865.973 0.543415 -5.19465 0
M  V30 9482 H 867.667 0.0336257 -2.99381 0
M  V30 9483 H 865.213 0.0147328 -1.43992 0
M  V30 9484 H 867.166 2.42866 -3.44375 0
M  V30 9485 H 865.89 2.4128 -2.20118 0
M  V30 9486 H 864.549 0.786541 -3.58063 0
M  V30 9487 H 864.197 3.24899 -3.83992 0
M  V30 9488 H 863.897 2.38651 -5.36954 0
M  V30 9489 H 865.421 3.29104 -5.14318 0
M  V30 9490 H 866.835 1.07277 -5.63174 0
M  V30 9491 H 865.232 0.367219 -5.98975 0
M  V30 9492 H 866.302 -0.439534 -4.82904 0
M  V30 9493 N 867.645 1.57599 0.00500368 0
M  V30 9494 C 868.575 2.11143 0.99705 0
M  V30 9495 C 869.556 1.0194 1.3617 0
M  V30 9496 O 870.741 1.29596 1.44632 0
M  V30 9497 C 867.871 2.61062 2.2905 0
M  V30 9498 C 866.825 3.74745 2.0676 0
M  V30 9499 C 866.151 4.10961 3.42075 0
M  V30 9500 C 867.451 5.02222 1.43424 0
M  V30 9501 H 869.145 2.94281 0.551251 0
M  V30 9502 H 866.691 1.41565 0.263715 0
M  V30 9503 H 868.644 2.97146 2.98801 0
M  V30 9504 H 867.368 1.75038 2.75734 0
M  V30 9505 H 866.027 3.39047 1.39436 0
M  V30 9506 H 865.675 3.21968 3.86453 0
M  V30 9507 H 865.375 4.87549 3.27979 0
M  V30 9508 H 866.899 4.49599 4.1315 0
M  V30 9509 H 868.313 5.36109 2.03125 0
M  V30 9510 H 866.71 5.83581 1.39831 0
M  V30 9511 H 867.78 4.83224 0.40285 0
M  V30 9512 N 869.123 -0.277682 1.55134 0
M  V30 9513 C 870.348 -1.03254 1.7987 0
M  V30 9514 C 870.773 -1.79324 0.567861 0
M  V30 9515 O 870.131 -1.74764 -0.4824 0
M  V30 9516 C 870.179 -1.9705 3.02 0
M  V30 9517 O 869.283 -3.05744 2.76757 0
M  V30 9518 H 868.624 -0.295447 0.594649 0
M  V30 9519 H 871.154 -0.308013 2.02268 0
M  V30 9520 H 871.164 -2.3909 3.30606 0
M  V30 9521 H 869.839 -1.41094 3.91236 0
M  V30 9522 H 868.416 -2.68052 2.59235 0
M  V30 9523 N 870.601 -1.47988 -0.541979 0
M  V30 9524 C 871.829 -1.59034 -1.32347 0
M  V30 9525 C 872.244 -0.246123 -1.87189 0
M  V30 9526 O 871.601 0.762889 -1.6579 0
M  V30 9527 C 871.652 -2.62759 -2.48274 0
M  V30 9528 O 871.373 -3.91963 -1.95695 0
M  V30 9529 C 872.874 -2.84133 -3.4027 0
M  V30 9530 H 870.094 -0.536574 -0.402901 0
M  V30 9531 H 872.638 -1.93725 -0.655045 0
M  V30 9532 H 870.793 -2.3096 -3.11025 0
M  V30 9533 H 871.207 -4.48769 -2.7149 0
M  V30 9534 H 872.681 -3.60538 -4.17991 0
M  V30 9535 H 873.158 -1.92512 -3.9476 0
M  V30 9536 H 873.764 -3.17188 -2.83322 0
M  V30 9537 N 872.079 0.78992 -1.36375 0
M  V30 9538 C 873.325 1.55007 -1.3077 0
M  V30 9539 C 873.658 1.93871 0.112979 0
M  V30 9540 O 872.933 1.6267 1.06625 0
M  V30 9541 C 873.216 2.82748 -2.22993 0
M  V30 9542 C 873.069 2.50253 -3.73756 0
M  V30 9543 C 874.388 3.84569 -2.13998 0
M  V30 9544 H 871.507 0.562362 -0.476359 0
M  V30 9545 H 874.149 0.907582 -1.66922 0
M  V30 9546 H 872.299 3.37573 -1.92292 0
M  V30 9547 H 873.971 2.01482 -4.14973 0
M  V30 9548 H 872.214 1.83203 -3.93216 0
M  V30 9549 H 872.885 3.41487 -4.33694 0
M  V30 9550 H 875.361 3.39188 -2.4102 0
M  V30 9551 H 874.237 4.717 -2.80697 0
M  V30 9552 H 874.498 4.27491 -1.12711 0
M  V30 9553 N 873.557 1.20646 1.01402 0
M  V30 9554 C 874.803 1.0197 1.753 0
M  V30 9555 C 875.136 -0.446803 1.8899 0
M  V30 9556 O 874.411 -1.33169 1.41762 0
M  V30 9557 C 874.694 1.70693 3.17074 0
M  V30 9558 C 874.547 3.24805 3.11162 0
M  V30 9559 C 875.866 1.44212 4.15802 0
M  V30 9560 H 872.985 0.371844 0.636318 0
M  V30 9561 H 875.627 1.48696 1.18277 0
M  V30 9562 H 873.777 1.30968 3.65759 0
M  V30 9563 H 875.449 3.73841 2.70261 0
M  V30 9564 H 873.692 3.55576 2.48492 0
M  V30 9565 H 874.363 3.68049 4.11393 0
M  V30 9566 H 876.839 1.7868 3.75783 0
M  V30 9567 H 875.715 1.94825 5.13161 0
M  V30 9568 H 875.976 0.370252 4.40547 0
M  V30 9569 N 875.035 -1.20752 1.01276 0
M  V30 9570 C 876.451 -1.42084 0.726934 0
M  V30 9571 C 876.651 -1.89138 -0.694907 0
M  V30 9572 O 875.707 -2.05783 -1.4632 0
M  V30 9573 C 877.02 -2.44575 1.74938 0
M  V30 9574 C 878.568 -2.58347 1.76708 0
M  V30 9575 C 879.043 -3.64078 2.77869 0
M  V30 9576 N 880.534 -3.71558 2.76585 0
M  V30 9577 C 881.269 -4.53016 3.51517 0
M  V30 9578 N 880.765 -5.38309 4.36114 0
M  V30 9579 N 882.558 -4.47512 3.40132 0
M  V30 9580 H 874.709 -0.885228 1.93074 0
M  V30 9581 H 876.972 -0.451075 0.833808 0
M  V30 9582 H 876.678 -2.1699 2.76782 0
M  V30 9583 H 876.552 -3.43503 1.55838 0
M  V30 9584 H 878.939 -2.85265 0.755516 0
M  V30 9585 H 879.02 -1.59628 1.99882 0
M  V30 9586 H 878.664 -3.37905 3.79187 0
M  V30 9587 H 878.594 -4.62412 2.51958 0
M  V30 9588 H 881.085 -3.10629 2.15216 0
M  V30 9589 H 881.398 -5.9754 4.90068 0
M  V30 9590 H 879.743 -5.37824 4.40194 0
M  V30 9591 H 882.934 -3.79912 2.73467 0
M  V30 9592 H 883.107 -5.10759 3.98784 0
M  V30 9593 N 876.513 -0.788492 -1.36457 0
M  V30 9594 C 877.76 -0.360461 -1.99266 0
M  V30 9595 C 878.088 1.0676 -1.62581 0
M  V30 9596 O 877.343 1.75205 -0.871884 0
M  V30 9597 C 877.642 -0.470255 -3.54293 0
M  V30 9598 C 877.308 -1.85899 -4.10795 0
M  V30 9599 C 875.97 -2.23896 -4.25939 0
M  V30 9600 C 878.322 -2.76836 -4.41601 0
M  V30 9601 C 875.65 -3.52235 -4.69199 0
M  V30 9602 C 878.002 -4.04602 -4.86292 0
M  V30 9603 C 876.666 -4.42623 -4.99641 0
M  V30 9604 H 875.936 -0.131902 -0.729166 0
M  V30 9605 H 878.583 -1.00577 -1.62962 0
M  V30 9606 H 876.888 0.258559 -3.90946 0
M  V30 9607 H 878.585 -0.120119 -4.0082 0
M  V30 9608 H 875.175 -1.55372 -3.99447 0
M  V30 9609 H 879.359 -2.48735 -4.2947 0
M  V30 9610 H 874.615 -3.81565 -4.77722 0
M  V30 9611 H 878.789 -4.75182 -5.09092 0
M  V30 9612 H 876.416 -5.42125 -5.32921 0
M  V30 9613 N 877.991 1.48044 -0.54043 0
M  V30 9614 C 878.954 2.28273 0.205966 0
M  V30 9615 C 879.954 1.35983 0.858209 0
M  V30 9616 O 881.144 1.58776 0.716651 0
M  V30 9617 C 878.276 3.15174 1.29917 0
M  V30 9618 H 879.469 2.95727 -0.498555 0
M  V30 9619 H 877.022 1.53457 -0.296745 0
M  V30 9620 H 877.757 2.52374 2.03661 0
M  V30 9621 H 877.542 3.83074 0.836475 0
M  V30 9622 H 879.032 3.75666 1.82387 0
M  V30 9623 N 879.47 0.276058 1.55163 0
M  V30 9624 C 880.716 -0.340959 1.99913 0
M  V30 9625 C 881.049 -1.55434 1.16422 0
M  V30 9626 O 880.324 -1.93081 0.234517 0
M  V30 9627 C 880.607 -0.722211 3.52783 0
M  V30 9628 C 880.46 0.498575 4.47028 0
M  V30 9629 C 881.779 -1.5583 4.11589 0
M  V30 9630 H 878.898 -0.122455 0.726756 0
M  V30 9631 H 881.54 0.38319 1.86096 0
M  V30 9632 H 879.69 -1.33919 3.64689 0
M  V30 9633 H 881.362 1.13713 4.47065 0
M  V30 9634 H 879.605 1.13646 4.18649 0
M  V30 9635 H 880.276 0.188041 5.5168 0
M  V30 9636 H 882.752 -1.03722 4.02965 0
M  V30 9637 H 881.628 -1.79387 5.1876 0
M  V30 9638 H 881.889 -2.53963 3.61877 0
M  V30 9639 N 880.948 -1.576 0.00335426 0
M  V30 9640 C 881.895 -2.08632 -0.986975 0
M  V30 9641 C 882.865 -0.982491 -1.33927 0
M  V30 9642 O 884.05 -1.25513 -1.43705 0
M  V30 9643 C 881.19 -2.59705 -2.27261 0
M  V30 9644 C 880.303 -3.84002 -1.97905 0
M  V30 9645 C 879.438 -4.23563 -3.20574 0
M  V30 9646 C 878.477 -5.40688 -2.8692 0
M  V30 9647 N 877.614 -5.75526 -4.02136 0
M  V30 9648 H 882.454 -2.92977 -0.544855 0
M  V30 9649 H 879.991 -1.44831 -0.257376 0
M  V30 9650 H 881.949 -2.87395 -3.02423 0
M  V30 9651 H 880.579 -1.7823 -2.69136 0
M  V30 9652 H 879.631 -3.63199 -1.13096 0
M  V30 9653 H 880.943 -4.69261 -1.69102 0
M  V30 9654 H 880.097 -4.52554 -4.04079 0
M  V30 9655 H 878.836 -3.37019 -3.52518 0
M  V30 9656 H 877.841 -5.11417 -2.01822 0
M  V30 9657 H 879.066 -6.2891 -2.5622 0
M  V30 9658 H 877.012 -4.9194 -4.33971 0
M  V30 9659 H 876.929 -6.55367 -3.76869 0
M  V30 9660 H 878.197 -6.0911 -4.8642 0
M  V30 9661 N 882.426 0.269451 -1.5528 0
M  V30 9662 C 883.389 1.31642 -1.87625 0
M  V30 9663 C 884.389 1.42182 -0.751058 0
M  V30 9664 O 885.579 1.41272 -1.01921 0
M  V30 9665 C 882.711 2.6973 -2.08467 0
M  V30 9666 H 883.904 1.0419 -2.81219 0
M  V30 9667 H 881.457 0.507685 -1.47825 0
M  V30 9668 H 882.192 3.02356 -1.17266 0
M  V30 9669 H 881.977 2.63465 -2.90394 0
M  V30 9670 H 883.467 3.4537 -2.34753 0
M  V30 9671 N 883.904 1.48273 0.534124 0
M  V30 9672 C 885.153 1.55334 1.28663 0
M  V30 9673 C 885.466 0.230345 1.94239 0
M  V30 9674 O 886.672 0.179161 2.70908 0
M  V30 9675 C 885.128 2.73927 2.33435 0
M  V30 9676 C 884.736 4.12852 1.73947 0
M  V30 9677 C 886.48 2.90298 3.09722 0
M  V30 9678 C 884.387 5.22711 2.76636 0
M  V30 9679 H 883.317 0.578262 0.483869 0
M  V30 9680 H 885.968 1.74598 0.564602 0
M  V30 9681 H 884.35 2.48089 3.08655 0
M  V30 9682 H 885.524 4.48691 1.04944 0
M  V30 9683 H 883.839 4.01562 1.10167 0
M  V30 9684 H 886.436 3.69542 3.86449 0
M  V30 9685 H 886.779 1.99598 3.6533 0
M  V30 9686 H 887.312 3.16017 2.41616 0
M  V30 9687 H 884.051 6.15362 2.25852 0
M  V30 9688 H 883.571 4.91364 3.43979 0
M  V30 9689 H 885.25 5.50648 3.39699 0
M  V30 9690 N 885.382 -0.782676 1.36792 0
M  V30 9691 C 886.631 -1.53605 1.30723 0
M  V30 9692 C 886.944 -1.95294 -0.109296 0
M  V30 9693 O 888.15 -2.69921 -0.292398 0
M  V30 9694 C 886.606 -2.77321 2.29393 0
M  V30 9695 C 886.214 -2.42774 3.76517 0
M  V30 9696 C 887.958 -3.55289 2.32314 0
M  V30 9697 C 885.865 -3.62926 4.66947 0
M  V30 9698 H 884.795 -0.576646 0.485794 0
M  V30 9699 H 887.446 -0.858255 1.62192 0
M  V30 9700 H 885.828 -3.46934 1.90927 0
M  V30 9701 H 887.002 -1.81014 4.23758 0
M  V30 9702 H 885.317 -1.78002 3.76436 0
M  V30 9703 H 887.914 -4.44573 2.97083 0
M  V30 9704 H 888.257 -3.94361 1.3336 0
M  V30 9705 H 888.79 -2.92662 2.69432 0
M  V30 9706 H 885.529 -3.28944 5.66989 0
M  V30 9707 H 885.049 -4.23828 4.24418 0
M  V30 9708 H 886.728 -4.29873 4.83548 0
M  V30 9709 N 886.86 -1.21182 -1.00761 0
M  V30 9710 C 888.085 -1.05411 -1.78615 0
M  V30 9711 C 888.51 0.391837 -1.83973 0
M  V30 9712 O 887.868 1.28256 -1.28141 0
M  V30 9713 C 887.916 -1.65285 -3.20489 0
M  V30 9714 O 887.02 -0.896558 -4.02536 0
M  V30 9715 H 886.361 -0.37116 -0.550578 0
M  V30 9716 H 888.891 -1.60669 -1.26676 0
M  V30 9717 H 888.901 -1.69397 -3.71172 0
M  V30 9718 H 887.576 -2.70514 -3.15904 0
M  V30 9719 H 886.153 -0.930335 -3.61108 0
M  V30 9720 N 888.338 1.20213 -1.01915 0
M  V30 9721 C 889.584 1.89928 -0.711007 0
M  V30 9722 C 889.917 1.7881 0.75767 0
M  V30 9723 O 889.192 1.17399 1.55073 0
M  V30 9724 C 889.475 3.41225 -1.15053 0
M  V30 9725 C 889.328 3.61264 -2.67971 0
M  V30 9726 C 890.647 4.34108 -0.72377 0
M  V30 9727 H 887.766 0.689702 -0.259768 0
M  V30 9728 H 890.408 1.41557 -1.26734 0
M  V30 9729 H 888.558 3.82552 -0.677199 0
M  V30 9730 H 890.23 3.29173 -3.23176 0
M  V30 9731 H 888.473 3.04647 -3.08824 0
M  V30 9732 H 889.144 4.67331 -2.93779 0
M  V30 9733 H 891.62 4.00442 -1.13073 0
M  V30 9734 H 890.496 5.38581 -1.05931 0
M  V30 9735 H 890.757 4.40512 0.374424 0
M  V30 9736 N 889.816 0.795718 1.36037 0
M  V30 9737 C 890.748 0.156336 2.28666 0
M  V30 9738 C 891.761 -0.638075 1.49775 0
M  V30 9739 O 892.95 -0.472222 1.7214 0
M  V30 9740 C 890.05 -0.801417 3.29288 0
M  V30 9741 C 889.223 -0.0557118 4.37365 0
M  V30 9742 C 888.282 -0.930338 5.1791 0
M  V30 9743 O 887.308 -0.385266 5.67895 0
M  V30 9744 N 888.51 -2.25382 5.34961 0
M  V30 9745 H 891.275 0.952033 2.84177 0
M  V30 9746 H 888.836 0.650189 1.48271 0
M  V30 9747 H 890.828 -1.39051 3.80062 0
M  V30 9748 H 889.398 -1.49796 2.74372 0
M  V30 9749 H 888.618 0.714508 3.87671 0
M  V30 9750 H 889.906 0.458633 5.06729 0
M  V30 9751 H 889.304 -2.72073 4.95977 0
M  V30 9752 H 887.861 -2.79241 5.88955 0
M  V30 9753 N 891.294 -1.47756 0.548274 0
M  V30 9754 C 892.241 -2.29893 -0.204408 0
M  V30 9755 C 893.211 -1.38509 -0.916761 0
M  V30 9756 O 894.396 -1.67472 -0.91421 0
M  V30 9757 C 891.536 -3.22282 -1.23403 0
M  V30 9758 C 890.649 -4.28753 -0.528654 0
M  V30 9759 C 889.784 -5.08303 -1.54279 0
M  V30 9760 C 888.823 -6.06557 -0.821893 0
M  V30 9761 N 887.96 -6.79098 -1.78243 0
M  V30 9762 H 892.8 -2.93739 0.502163 0
M  V30 9763 H 890.337 -1.44793 0.259471 0
M  V30 9764 H 892.295 -3.74262 -1.84348 0
M  V30 9765 H 890.925 -2.6032 -1.90875 0
M  V30 9766 H 889.977 -3.79899 0.195132 0
M  V30 9767 H 891.289 -4.98787 0.0365066 0
M  V30 9768 H 890.443 -5.64388 -2.22602 0
M  V30 9769 H 889.182 -4.3815 -2.14186 0
M  V30 9770 H 888.187 -5.49659 -0.12469 0
M  V30 9771 H 889.412 -6.78715 -0.228685 0
M  V30 9772 H 887.358 -6.11682 -2.37025 0
M  V30 9773 H 887.275 -7.4527 -1.26919 0
M  V30 9774 H 888.543 -7.39762 -2.45709 0
M  V30 9775 N 892.772 -0.284283 -1.55015 0
M  V30 9776 C 893.702 0.592663 -2.25853 0
M  V30 9777 C 894.683 1.15151 -1.25197 0
M  V30 9778 O 895.868 1.18395 -1.53936 0
M  V30 9779 C 892.998 1.77254 -2.98661 0
M  V30 9780 C 891.952 1.34482 -4.06323 0
M  V30 9781 C 891.278 2.60853 -4.66754 0
M  V30 9782 C 892.578 0.488288 -5.20013 0
M  V30 9783 H 894.272 0.00187041 -2.994 0
M  V30 9784 H 891.818 -0.000540402 -1.44 0
M  V30 9785 H 893.771 2.39199 -3.46932 0
M  V30 9786 H 892.495 2.38931 -2.22664 0
M  V30 9787 H 891.154 0.748519 -3.58877 0
M  V30 9788 H 890.802 3.20808 -3.87416 0
M  V30 9789 H 890.502 2.32942 -5.39455 0
M  V30 9790 H 892.026 3.23631 -5.1778 0
M  V30 9791 H 893.44 1.01298 -5.6428 0
M  V30 9792 H 891.837 0.303669 -5.99331 0
M  V30 9793 H 892.907 -0.490727 -4.8241 0
M  V30 9794 N 894.251 1.57596 -0.0117121 0
M  V30 9795 C 895.199 2.1029 0.994035 0
M  V30 9796 C 896.193 1.02549 1.34833 0
M  V30 9797 O 897.399 1.21003 1.3326 0
M  V30 9798 H 893.774 0.671624 0.338268 0
M  V30 9799 H 895.745 2.93761 0.524147 0
M  V30 9800 C 894.494 2.63099 2.27319 0
M  V30 9801 H 893.817 3.45642 2.00927 0
M  V30 9802 H 895.257 3.03635 2.95942 0
M  V30 9803 C 893.716 1.55044 2.99104 0
M  V30 9804 O 894.246 0.940127 3.90544 0
M  V30 9805 N 892.452 1.27506 2.61133 0
M  V30 9806 H 891.999 1.77322 1.86855 0
M  V30 9807 H 891.957 0.554292 3.09475 0
M  V30 9808 N 895.729 -0.261212 1.5542 0
M  V30 9809 C 896.639 -1.34493 1.92221 0
M  V30 9810 C 897.655 -1.53421 0.82086 0
M  V30 9811 O 898.831 -1.6732 1.12099 0
M  V30 9812 C 895.896 -2.68209 2.19692 0
M  V30 9813 C 894.957 -2.57927 3.43179 0
M  V30 9814 C 894.19 -3.85266 3.69331 0
M  V30 9815 O 894.413 -4.86493 2.97793 0
M  V30 9816 O 893.347 -3.8476 4.62865 0
M  V30 9817 H 897.173 -1.06278 2.84497 0
M  V30 9818 H 894.758 -0.460752 1.42118 0
M  V30 9819 H 896.64 -3.47252 2.38734 0
M  V30 9820 H 895.315 -2.96186 1.30597 0
M  V30 9821 H 894.222 -1.77219 3.2946 0
M  V30 9822 H 895.555 -2.34898 4.32532 0
M  V30 9823 N 897.207 -1.48554 -0.526253 0
M  V30 9824 C 898.454 -1.56761 -1.28188 0
M  V30 9825 C 898.782 -0.24315 -1.92974 0
M  V30 9826 O 898.037 0.766883 -1.80048 0
M  V30 9827 C 898.336 -2.65739 -2.38993 0
M  V30 9828 C 898.002 -4.08057 -1.91834 0
M  V30 9829 C 896.664 -4.46792 -1.78691 0
M  V30 9830 C 899.016 -4.9723 -1.56242 0
M  V30 9831 C 896.344 -5.72501 -1.28296 0
M  V30 9832 C 898.696 -6.23432 -1.07309 0
M  V30 9833 C 897.36 -6.6102 -0.927853 0
M  V30 9834 H 896.63 -0.573631 -0.469072 0
M  V30 9835 H 899.277 -1.82287 -0.586842 0
M  V30 9836 H 897.582 -2.34088 -3.14181 0
M  V30 9837 H 899.279 -2.69304 -2.97113 0
M  V30 9838 H 895.869 -3.77469 -2.03016 0
M  V30 9839 H 900.053 -4.67979 -1.65255 0
M  V30 9840 H 895.309 -6.00345 -1.15742 0
M  V30 9841 H 899.483 -6.91923 -0.788412 0
M  V30 9842 H 897.11 -7.58314 -0.535162 0
M  V30 9843 N 898.685 0.775411 -1.37205 0
M  V30 9844 C 899.615 1.90258 -1.35367 0
M  V30 9845 C 900.596 1.68634 -0.222864 0
M  V30 9846 O 901.781 1.89545 -0.422659 0
M  V30 9847 C 898.911 3.27488 -1.15623 0
M  V30 9848 C 897.865 3.63668 -2.25676 0
M  V30 9849 C 897.191 4.994 -1.91059 0
M  V30 9850 C 898.491 3.70797 -3.67841 0
M  V30 9851 H 900.185 1.92053 -2.29687 0
M  V30 9852 H 897.731 0.922597 -1.10563 0
M  V30 9853 H 899.684 4.05976 -1.12968 0
M  V30 9854 H 898.408 3.26117 -0.177573 0
M  V30 9855 H 897.067 2.87486 -2.2748 0
M  V30 9856 H 896.715 4.94565 -0.917324 0
M  V30 9857 H 896.415 5.24576 -2.64751 0
M  V30 9858 H 897.939 5.80291 -1.89985 0
M  V30 9859 H 899.353 4.39444 -3.68187 0
M  V30 9860 H 897.75 4.07468 -4.40556 0
M  V30 9861 H 898.82 2.71549 -4.01732 0
M  V30 9862 N 900.163 1.21714 1.00117 0
M  V30 9863 C 901.093 1.00397 2.10815 0
M  V30 9864 C 902.074 -0.0723502 1.69946 0
M  V30 9865 O 903.259 0.0882398 1.93999 0
M  V30 9866 C 900.389 0.572001 3.42557 0
M  V30 9867 C 899.343 1.59331 3.97237 0
M  V30 9868 C 898.669 1.01746 5.2493 0
M  V30 9869 C 899.969 2.98117 4.28863 0
M  V30 9870 H 901.663 1.92983 2.28906 0
M  V30 9871 H 899.209 0.929273 1.10002 0
M  V30 9872 H 901.162 0.410018 4.19401 0
M  V30 9873 H 899.886 -0.38951 3.24269 0
M  V30 9874 H 898.545 1.74293 3.22518 0
M  V30 9875 H 898.193 0.0475491 5.02978 0
M  V30 9876 H 897.893 1.69969 5.62481 0
M  V30 9877 H 899.417 0.866881 6.04415 0
M  V30 9878 H 900.831 2.86578 4.96534 0
M  V30 9879 H 899.228 3.63389 4.77565 0
M  V30 9880 H 900.298 3.48674 3.36979 0
M  V30 9881 N 901.641 -1.19671 1.02551 0
M  V30 9882 C 902.866 -1.93774 0.739363 0
M  V30 9883 C 903.291 -1.74787 -0.695064 0
M  V30 9884 O 902.649 -1.04796 -1.47944 0
M  V30 9885 C 902.697 -3.43684 1.09149 0
M  V30 9886 O 901.801 -4.11874 0.208213 0
M  V30 9887 H 901.142 -0.605064 0.273484 0
M  V30 9888 H 903.672 -1.51846 1.37128 0
M  V30 9889 H 903.682 -3.94339 1.04695 0
M  V30 9890 H 902.357 -3.56826 2.13654 0
M  V30 9891 H 900.934 -3.716 0.311045 0
M  V30 9892 N 903.119 -0.802921 -1.35613 0
M  V30 9893 C 904.396 -0.304993 -1.93208 0
M  V30 9894 C 904.776 1.20488 -1.73337 0
M  V30 9895 O 904.124 2.00268 -1.10022 0
M  V30 9896 C 904.334 -0.712383 -3.41652 0
M  V30 9897 C 905.682 -0.699785 -4.18794 0
M  V30 9898 O 906.706 -0.653698 -3.5015 0
M  V30 9899 O 905.565 -0.754842 -5.41262 0
M  V30 9900 H 902.659 -0.0789127 -0.823226 0
M  V30 9901 H 905.205 -0.886372 -1.44712 0
M  V30 9902 H 903.977 -1.75316 -3.49829 0
M  V30 9903 H 903.6 -0.105614 -3.9746 0
M  V30 9904 N 904.597 1.47463 -0.556102 0
M  V30 9905 C 905.507 2.33785 0.195378 0
M  V30 9906 C 906.523 1.48123 0.913 0
M  V30 9907 O 907.699 1.81053 0.882141 0
M  V30 9908 C 904.764 3.24795 1.21282 0
M  V30 9909 C 903.825 4.26346 0.502747 0
M  V30 9910 C 903.058 5.13007 1.47172 0
M  V30 9911 O 903.281 5.02103 2.70646 0
M  V30 9912 O 902.215 5.93588 0.996814 0
M  V30 9913 H 906.041 2.99341 -0.512676 0
M  V30 9914 H 903.626 1.46004 -0.31673 0
M  V30 9915 H 905.508 3.81015 1.80016 0
M  V30 9916 H 904.183 2.61868 1.90282 0
M  V30 9917 H 903.09 3.73889 -0.125757 0
M  V30 9918 H 904.423 4.91984 -0.145779 0
M  V30 9919 N 906.075 0.2925 1.54862 0
M  V30 9920 C 907.324 -0.319994 1.99146 0
M  V30 9921 C 907.637 -1.55658 1.18448 0
M  V30 9922 O 908.843 -2.24312 1.52959 0
M  V30 9923 C 907.299 -0.620665 3.54508 0
M  V30 9924 C 906.907 0.597098 4.44003 0
M  V30 9925 C 908.651 -1.19482 4.07338 0
M  V30 9926 C 906.558 0.270049 5.90783 0
M  V30 9927 H 905.488 -0.123342 0.743843 0
M  V30 9928 H 908.139 0.399876 1.7909 0
M  V30 9929 H 906.521 -1.3999 3.7043 0
M  V30 9930 H 907.695 1.37354 4.39853 0
M  V30 9931 H 906.01 1.0893 4.019 0
M  V30 9932 H 908.607 -1.45362 5.14562 0
M  V30 9933 H 908.95 -2.13435 3.57423 0
M  V30 9934 H 909.483 -0.477485 3.94924 0
M  V30 9935 H 906.222 1.17791 6.4483 0
M  V30 9936 H 905.742 -0.469292 5.97961 0
M  V30 9937 H 907.421 -0.131471 6.46866 0
M  V30 9938 N 907.553 -1.57587 0.0200696 0
M  V30 9939 C 908.801 -1.91046 -0.65922 0
M  V30 9940 C 909.122 -0.896197 -1.73186 0
M  V30 9941 O 908.392 0.0635952 -1.95797 0
M  V30 9942 H 906.972 -0.705163 -0.246483 0
M  V30 9943 H 909.634 -1.94789 0.0657368 0
M  V30 9944 H 908.73 -2.91399 -1.11773 0
M  V30 9945 N 909.032 0.252966 -1.55557 0
M  V30 9946 C 910.309 1.00432 -1.67847 0
M  V30 9947 C 910.689 2.03587 -0.55816 0
M  V30 9948 O 910.037 2.24239 0.439197 0
M  V30 9949 C 910.247 1.64313 -3.079 0
M  V30 9950 C 911.595 2.14726 -3.66303 0
M  V30 9951 O 912.619 1.74264 -3.10661 0
M  V30 9952 O 911.478 2.89 -4.63833 0
M  V30 9953 H 908.572 0.467102 -0.682455 0
M  V30 9954 H 911.118 0.247233 -1.67889 0
M  V30 9955 H 909.89 0.896681 -3.80888 0
M  V30 9956 H 909.513 2.46657 -3.11843 0
M  V30 9957 N 910.51 1.48831 0.518367 0
M  V30 9958 C 911.787 1.47933 1.27966 0
M  V30 9959 C 912.167 0.197393 2.10175 0
M  V30 9960 O 911.515 -0.820656 2.13255 0
M  V30 9961 C 911.725 2.74816 2.15121 0
M  V30 9962 C 913.073 3.23613 2.74881 0
M  V30 9963 O 914.097 2.75814 2.254 0
M  V30 9964 O 912.956 4.06818 3.64913 0
M  V30 9965 H 910.05 0.591316 0.578164 0
M  V30 9966 H 912.596 1.61077 0.534065 0
M  V30 9967 H 911.368 3.59621 1.54234 0
M  V30 9968 H 910.991 2.64449 2.96905 0
M  V30 9969 N 911.988 -0.768124 1.37614 0
M  V30 9970 C 913.213 -1.56239 1.36397 0
M  V30 9971 C 913.638 -1.8804 -0.0475839 0
M  V30 9972 O 912.996 -1.495 -1.02564 0
M  V30 9973 C 913.044 -2.84716 2.21289 0
M  V30 9974 O 912.148 -3.79249 1.62001 0
M  V30 9975 H 911.489 -0.473119 0.465891 0
M  V30 9976 H 914.019 -0.950415 1.81186 0
M  V30 9977 H 914.029 -3.33784 2.34632 0
M  V30 9978 H 912.704 -2.60899 3.2389 0
M  V30 9979 H 911.281 -3.37904 1.57719 0
M  V30 9980 N 913.466 -1.22244 -0.994698 0
M  V30 9981 C 914.712 -1.05752 -1.73747 0
M  V30 9982 C 915.067 0.403416 -1.88123 0
M  V30 9983 O 914.36 1.29511 -1.412 0
M  V30 9984 C 914.554 -1.70014 -3.14372 0
M  V30 9985 C 914.383 -3.22205 -3.1371 0
M  V30 9986 C 913.153 -3.91301 -3.19705 0
M  V30 9987 C 915.351 -4.19163 -2.98005 0
M  V30 9988 N 913.333 -5.30594 -3.08778 0
M  V30 9989 C 914.704 -5.45274 -2.95087 0
M  V30 9990 C 916.759 -4.10078 -2.82383 0
M  V30 9991 C 915.462 -6.63345 -2.78146 0
M  V30 9992 C 917.488 -5.27797 -2.66803 0
M  V30 9993 C 916.85 -6.52826 -2.6457 0
M  V30 9994 H 912.949 -0.441393 -0.64552 0
M  V30 9995 H 915.533 -1.54757 -1.18146 0
M  V30 9996 H 913.704 -1.23562 -3.68221 0
M  V30 9997 H 915.436 -1.46631 -3.77202 0
M  V30 9998 H 912.191 -3.42289 -3.27315 0
M  V30 9999 H 912.615 -6.0358 -3.06628 0
M  V30 10000 H 917.257 -3.14201 -2.82909 0
M  V30 10001 H 914.975 -7.59373 -2.76367 0
M  V30 10002 H 918.561 -5.22598 -2.557 0
M  V30 10003 H 917.441 -7.42383 -2.5266 0
M  V30 10004 N 914.944 1.19125 -1.03184 0
M  V30 10005 C 916.36 1.40909 -0.749447 0
M  V30 10006 C 916.56 1.9022 0.664729 0
M  V30 10007 O 915.616 2.08085 1.43028 0
M  V30 10008 C 916.929 2.41761 -1.78807 0
M  V30 10009 C 918.477 2.55503 -1.80796 0
M  V30 10010 C 918.952 3.59612 -2.83626 0
M  V30 10011 N 920.443 3.6711 -2.82461 0
M  V30 10012 C 921.178 4.47366 -3.5868 0
M  V30 10013 N 920.674 5.31302 -4.44623 0
M  V30 10014 N 922.467 4.42044 -3.47208 0
M  V30 10015 H 914.618 0.854399 -1.94458 0
M  V30 10016 H 916.881 0.437753 -0.840878 0
M  V30 10017 H 916.587 2.12559 -2.80199 0
M  V30 10018 H 916.461 3.40981 -1.61283 0
M  V30 10019 H 918.848 2.84027 -0.800803 0
M  V30 10020 H 918.929 1.56427 -2.02396 0
M  V30 10021 H 918.573 3.3183 -3.84515 0
M  V30 10022 H 918.503 4.58345 -2.59283 0
M  V30 10023 H 920.994 3.07166 -2.2013 0
M  V30 10024 H 921.307 5.89667 -4.99512 0
M  V30 10025 H 919.652 5.30753 -4.48694 0
M  V30 10026 H 922.843 3.75513 -2.79477 0
M  V30 10027 H 923.016 5.0435 -4.06859 0
M  V30 10028 N 916.422 0.810101 1.35185 0
M  V30 10029 C 917.65 0.404696 2.02903 0
M  V30 10030 C 918.065 -0.985434 1.61042 0
M  V30 10031 O 917.422 -1.63557 0.809658 0
M  V30 10032 C 917.473 0.482493 3.58266 0
M  V30 10033 O 917.194 1.81782 3.98606 0
M  V30 10034 C 918.695 0.070345 4.43244 0
M  V30 10035 H 915.915 0.163972 0.650657 0
M  V30 10036 H 918.459 1.0947 1.72733 0
M  V30 10037 H 916.614 -0.159296 3.87072 0
M  V30 10038 H 917.028 1.78306 4.93262 0
M  V30 10039 H 918.502 0.175888 5.5172 0
M  V30 10040 H 918.979 -0.984724 4.28018 0
M  V30 10041 H 919.585 0.685427 4.1974 0
M  V30 10042 N 917.9 -1.47166 0.563914 0
M  V30 10043 C 919.148 -2.02056 0.0422873 0
M  V30 10044 C 919.469 -1.43992 -1.31497 0
M  V30 10045 O 918.739 -0.617578 -1.85911 0
M  V30 10046 H 917.319 -0.746893 0.0126427 0
M  V30 10047 H 919.981 -1.80492 0.735441 0
M  V30 10048 H 919.077 -3.12073 -0.0408044 0
M  V30 10049 N 919.378 -0.300708 -1.54705 0
M  V30 10050 C 920.288 0.584996 -2.27189 0
M  V30 10051 C 921.304 1.14866 -1.30697 0
M  V30 10052 O 922.48 1.17351 -1.63679 0
M  V30 10053 C 919.545 1.74076 -2.99831 0
M  V30 10054 C 918.606 1.2112 -4.1186 0
M  V30 10055 C 917.839 2.31188 -4.81028 0
M  V30 10056 O 918.062 3.5108 -4.49554 0
M  V30 10057 O 916.996 1.97897 -5.68437 0
M  V30 10058 H 920.822 -0.00298177 -3.037 0
M  V30 10059 H 918.407 -0.0671802 -1.49249 0
M  V30 10060 H 920.289 2.41413 -3.45395 0
M  V30 10061 H 918.964 2.31535 -2.26215 0
M  V30 10062 H 917.871 0.50357 -3.70695 0
M  V30 10063 H 919.204 0.682046 -4.87452 0
M  V30 10064 N 920.856 1.57574 -0.0284266 0
M  V30 10065 C 922.081 1.96479 0.664137 0
M  V30 10066 C 922.506 0.904826 1.64908 0
M  V30 10067 O 921.864 -0.134339 1.80802 0
M  V30 10068 C 921.912 3.34479 1.34745 0
M  V30 10069 O 921.016 3.30794 2.46271 0
M  V30 10070 H 920.357 0.640654 0.174524 0
M  V30 10071 H 922.887 2.04402 -0.0900729 0
M  V30 10072 H 922.897 3.70694 1.7044 0
M  V30 10073 H 921.572 4.1117 0.625468 0
M  V30 10074 H 920.149 3.06294 2.12693 0
M  V30 10075 N 922.334 -0.244713 1.55689 0
M  V30 10076 C 923.559 -0.994157 1.8202 0
M  V30 10077 C 923.984 -1.78079 0.60577 0
M  V30 10078 O 923.342 -1.75748 -0.445221 0
M  V30 10079 C 923.39 -1.90599 3.06111 0
M  V30 10080 O 922.494 -2.99804 2.8318 0
M  V30 10081 H 921.835 -0.282767 0.600782 0
M  V30 10082 H 924.365 -0.26504 2.02876 0
M  V30 10083 H 924.375 -2.32023 3.35603 0
M  V30 10084 H 923.05 -1.32763 3.9414 0
M  V30 10085 H 921.627 -2.62493 2.64862 0
M  V30 10086 N 923.813 -1.49104 -0.510467 0
M  V30 10087 C 924.743 -1.67981 -1.62187 0
M  V30 10088 C 925.724 -0.528529 -1.6168 0
M  V30 10089 O 926.909 -0.763305 -1.7857 0
M  V30 10090 C 924.039 -1.73755 -3.0071 0
M  V30 10091 C 922.993 -2.88579 -3.1608 0
M  V30 10092 C 922.319 -2.79457 -4.5586 0
M  V30 10093 C 923.619 -4.29638 -2.97 0
M  V30 10094 H 925.313 -2.61029 -1.46643 0
M  V30 10095 H 922.859 -1.25615 -0.704042 0
M  V30 10096 H 924.812 -1.85548 -3.78352 0
M  V30 10097 H 923.536 -0.772996 -3.17321 0
M  V30 10098 H 922.195 -2.76372 -2.40861 0
M  V30 10099 H 921.843 -1.80929 -4.69333 0
M  V30 10100 H 921.543 -3.56518 -4.67086 0
M  V30 10101 H 923.067 -2.93245 -5.35574 0
M  V30 10102 H 924.481 -4.42575 -3.64418 0
M  V30 10103 H 922.878 -5.07847 -3.19704 0
M  V30 10104 H 923.948 -4.44741 -1.93219 0
M  V30 10105 N 925.291 0.760815 -1.38019 0
M  V30 10106 C 926.702 1.33773 -1.30237 0
M  V30 10107 C 927.053 1.96148 0.0451153 0
M  V30 10108 O 926.178 1.94574 0.9471 0
M  V30 10109 C 926.773 2.43227 -2.35851 0
M  V30 10110 C 925.332 2.96659 -2.31669 0
M  V30 10111 C 924.479 1.69972 -2.191 0
M  V30 10112 H 927.43 0.560237 -1.48482 0
M  V30 10113 H 927.451 3.22985 -2.01149 0
M  V30 10114 H 926.963 1.978 -3.33911 0
M  V30 10115 H 925.064 3.46433 -1.37167 0
M  V30 10116 H 925.177 3.51529 -3.25521 0
M  V30 10117 H 923.541 1.9332 -1.65829 0
M  V30 10118 H 924.324 1.26633 -3.19091 0
M  V30 10119 N 926.769 1.22769 0.988202 0
M  V30 10120 C 928.016 1.05509 1.72841 0
M  V30 10121 C 928.344 -0.409145 1.90148 0
M  V30 10122 O 927.599 -1.3195 1.44526 0
M  V30 10123 C 927.898 1.71679 3.13466 0
M  V30 10124 C 927.564 3.21584 3.16061 0
M  V30 10125 C 926.226 3.62486 3.16476 0
M  V30 10126 C 928.578 4.17511 3.11984 0
M  V30 10127 C 925.906 4.97789 3.10521 0
M  V30 10128 C 928.258 5.52796 3.0757 0
M  V30 10129 C 926.922 5.93072 3.06304 0
M  V30 10130 H 926.192 0.386085 0.632471 0
M  V30 10131 H 928.839 1.52596 1.157 0
M  V30 10132 H 927.144 1.1693 3.73945 0
M  V30 10133 H 928.841 1.55809 3.69492 0
M  V30 10134 H 925.431 2.89019 3.1649 0
M  V30 10135 H 929.615 3.86926 3.10809 0
M  V30 10136 H 924.871 5.28218 3.07888 0
M  V30 10137 H 929.045 6.26848 3.03372 0
M  V30 10138 H 926.672 6.97879 3.01444 0
M  V30 10139 N 928.247 -1.18576 1.03814 0
M  V30 10140 C 929.157 -2.25778 0.637311 0
M  V30 10141 C 930.173 -1.7074 -0.335248 0
M  V30 10142 O 931.349 -2.00494 -0.19081 0
M  V30 10143 C 928.414 -3.467 0.00386953 0
M  V30 10144 C 927.475 -4.16881 1.02511 0
M  V30 10145 C 926.708 -5.32031 0.421802 0
M  V30 10146 O 926.931 -5.65142 -0.772699 0
M  V30 10147 O 925.865 -5.90826 1.14925 0
M  V30 10148 H 929.691 -2.62323 1.53037 0
M  V30 10149 H 927.276 -1.25609 0.80887 0
M  V30 10150 H 929.158 -4.19953 -0.348873 0
M  V30 10151 H 927.833 -3.11983 -0.863047 0
M  V30 10152 H 926.74 -3.45707 1.4296 0
M  V30 10153 H 928.073 -4.55592 1.86271 0
M  V30 10154 N 929.725 -0.817259 -1.34754 0
M  V30 10155 C 930.95 -0.414423 -2.03217 0
M  V30 10156 C 931.375 0.970037 -1.61158 0
M  V30 10157 O 930.733 1.63016 -0.793436 0
M  V30 10158 C 930.781 -0.518087 -3.56859 0
M  V30 10159 O 929.885 0.464314 -4.09778 0
M  V30 10160 H 929.226 -0.171454 -0.641482 0
M  V30 10161 H 931.756 -1.10611 -1.72123 0
M  V30 10162 H 931.766 -0.391779 -4.06115 0
M  V30 10163 H 930.441 -1.52786 -3.86819 0
M  V30 10164 H 929.018 0.297361 -3.71712 0
M  V30 10165 N 931.203 1.46865 -0.571711 0
M  V30 10166 C 932.443 2.04324 -0.0556487 0
M  V30 10167 C 932.807 1.43486 1.27576 0
M  V30 10168 O 934.008 1.92079 1.8804 0
M  V30 10169 C 932.279 3.57394 0.0206263 0
M  V30 10170 S 933.838 4.36159 0.480709 0
M  V30 10171 H 930.656 0.710273 -0.0321467 0
M  V30 10172 H 933.258 1.8005 -0.761725 0
M  V30 10173 H 931.962 3.99193 -0.952509 0
M  V30 10174 H 931.493 3.86188 0.749812 0
M  V30 10175 H 933.508 4.6478 1.73763 0
M  V30 10176 N 932.681 0.308908 1.54543 0
M  V30 10177 C 933.628 -0.563659 2.23811 0
M  V30 10178 C 934.598 -1.12332 1.22355 0
M  V30 10179 O 935.783 -1.16638 1.50997 0
M  V30 10180 C 932.923 -1.72585 2.98845 0
M  V30 10181 C 932.036 -1.19682 4.1509 0
M  V30 10182 C 931.171 -2.32351 4.77688 0
M  V30 10183 C 930.21 -1.76623 5.86064 0
M  V30 10184 N 929.347 -2.82896 6.42584 0
M  V30 10185 H 934.187 0.0336288 2.97981 0
M  V30 10186 H 931.724 0.0283666 1.47073 0
M  V30 10187 H 933.682 -2.40951 3.40586 0
M  V30 10188 H 932.312 -2.29464 2.27037 0
M  V30 10189 H 931.364 -0.405173 3.78236 0
M  V30 10190 H 932.676 -0.748923 4.93146 0
M  V30 10191 H 931.83 -3.0865 5.22322 0
M  V30 10192 H 930.569 -2.80472 3.98982 0
M  V30 10193 H 929.574 -0.988171 5.40847 0
M  V30 10194 H 930.799 -1.29398 6.66658 0
M  V30 10195 H 928.745 -3.30336 5.66758 0
M  V30 10196 H 928.662 -2.42626 7.16009 0
M  V30 10197 H 929.93 -3.59068 6.91875 0
M  V30 10198 N 934.159 -1.57557 0.0367827 0
M  V30 10199 C 935.106 -2.10679 -0.942499 0
M  V30 10200 C 936.076 -1.01068 -1.31812 0
M  V30 10201 O 937.261 -1.28533 -1.41011 0
M  V30 10202 C 934.401 -2.64467 -2.21701 0
M  V30 10203 C 933.514 -3.88114 -1.89715 0
M  V30 10204 C 932.649 -4.30268 -3.11518 0
M  V30 10205 C 931.688 -5.46652 -2.75387 0
M  V30 10206 N 930.825 -5.83927 -3.89838 0
M  V30 10207 H 935.665 -2.94066 -0.482588 0
M  V30 10208 H 933.202 -1.45344 -0.226597 0
M  V30 10209 H 935.16 -2.93745 -2.96259 0
M  V30 10210 H 933.79 -1.83898 -2.65295 0
M  V30 10211 H 932.842 -3.65516 -1.05366 0
M  V30 10212 H 934.154 -4.72743 -1.5911 0
M  V30 10213 H 933.308 -4.61023 -3.94389 0
M  V30 10214 H 932.047 -3.44421 -3.4529 0
M  V30 10215 H 931.052 -5.15583 -1.90929 0
M  V30 10216 H 932.277 -6.34204 -2.42822 0
M  V30 10217 H 930.223 -5.01035 -4.23438 0
M  V30 10218 H 930.14 -6.63214 -3.62883 0
M  V30 10219 H 931.408 -6.19291 -4.73391 0
M  V30 10220 N 935.637 0.236453 -1.55816 0
M  V30 10221 C 936.587 1.29603 -1.87582 0
M  V30 10222 C 937.571 1.42999 -0.737566 0
M  V30 10223 O 938.763 1.46065 -0.999701 0
M  V30 10224 C 935.892 2.64945 -2.1831 0
M  V30 10225 C 934.978 2.55511 -3.38489 0
M  V30 10226 N 935.369 2.15716 -4.57494 0
M  V30 10227 C 933.667 2.86502 -3.41808 0
M  V30 10228 C 934.368 2.17169 -5.39641 0
M  V30 10229 N 933.344 2.5708 -4.78969 0
M  V30 10230 H 937.146 0.979016 -2.77115 0
M  V30 10231 H 934.66 0.445058 -1.56183 0
M  V30 10232 H 936.657 3.41426 -2.39236 0
M  V30 10233 H 935.317 2.97504 -1.30082 0
M  V30 10234 H 936.328 1.87089 -4.82927 0
M  V30 10235 H 933.005 3.23533 -2.6388 0
M  V30 10236 H 934.395 1.88653 -6.44872 0
M  V30 10237 N 937.115 1.49373 0.502552 0
M  V30 10238 C 938.343 1.62488 1.28084 0
M  V30 10239 C 938.758 0.295667 1.86471 0
M  V30 10240 O 938.115 -0.718664 1.67754 0
M  V30 10241 C 938.166 2.69249 2.4122 0
M  V30 10242 O 937.887 3.97014 1.85234 0
M  V30 10243 C 939.388 2.93054 3.32617 0
M  V30 10244 H 936.608 0.547068 0.388533 0
M  V30 10245 H 939.152 1.95394 0.603452 0
M  V30 10246 H 937.307 2.39125 3.04792 0
M  V30 10247 H 937.721 4.55809 2.59496 0
M  V30 10248 H 939.195 3.71493 4.08285 0
M  V30 10249 H 939.672 2.02911 3.89517 0
M  V30 10250 H 940.278 3.24589 2.74813 0
M  V30 10251 N 938.594 -0.753485 1.38421 0
M  V30 10252 C 939.842 -1.50962 1.34368 0
M  V30 10253 C 940.163 -1.94889 -0.0656895 0
M  V30 10254 O 939.433 -1.67652 -1.01339 0
M  V30 10255 H 938.013 -0.559967 0.494415 0
M  V30 10256 H 940.675 -0.895665 1.73101 0
M  V30 10257 H 939.771 -2.40048 1.99458 0
M  V30 10258 N 940.072 -1.23292 -0.981677 0
M  V30 10259 C 941.318 -1.06582 -1.72535 0
M  V30 10260 C 941.651 0.396538 -1.90108 0
M  V30 10261 O 940.926 1.29363 -1.45243 0
M  V30 10262 C 941.209 -1.7904 -3.12437 0
M  V30 10263 C 941.062 -3.32941 -3.02441 0
M  V30 10264 C 942.381 -1.55185 -4.11832 0
M  V30 10265 H 939.5 -0.388585 -0.626236 0
M  V30 10266 H 942.142 -1.51779 -1.14293 0
M  V30 10267 H 940.292 -1.40619 -3.62158 0
M  V30 10268 H 941.964 -3.80875 -2.60254 0
M  V30 10269 H 940.207 -3.62039 -2.38977 0
M  V30 10270 H 940.878 -3.78827 -4.0149 0
M  V30 10271 H 943.354 -1.88581 -3.70913 0
M  V30 10272 H 942.23 -2.08362 -5.07815 0
M  V30 10273 H 942.491 -0.486925 -4.3941 0
M  V30 10274 N 941.55 1.18024 -1.04442 0
M  V30 10275 C 942.482 2.21294 -0.596799 0
M  V30 10276 C 943.495 1.59305 0.33552 0
M  V30 10277 O 944.684 1.7803 0.129443 0
M  V30 10278 C 941.784 3.38578 0.147648 0
M  V30 10279 C 940.957 4.30143 -0.793484 0
M  V30 10280 C 940.016 5.2612 -0.0916561 0
M  V30 10281 O 939.042 5.64586 -0.72331 0
M  V30 10282 N 940.244 5.68512 1.17364 0
M  V30 10283 H 943.009 2.6032 -1.48504 0
M  V30 10284 H 940.57 1.32847 -0.925374 0
M  V30 10285 H 942.562 3.99812 0.627098 0
M  V30 10286 H 941.132 2.98212 0.937466 0
M  V30 10287 H 940.352 3.66456 -1.45272 0
M  V30 10288 H 941.64 4.88216 -1.43258 0
M  V30 10289 H 941.038 5.39322 1.70729 0
M  V30 10290 H 939.595 6.31925 1.5973 0
M  V30 10291 N 943.028 0.824394 1.34319 0
M  V30 10292 C 944.439 0.471802 1.8064 0
M  V30 10293 C 944.79 -1.00793 1.6833 0
M  V30 10294 O 943.915 -1.78447 1.22416 0
M  V30 10295 C 944.51 0.849609 3.27974 0
M  V30 10296 C 943.069 0.549365 3.72369 0
M  V30 10297 C 942.216 1.06573 2.56003 0
M  V30 10298 H 945.167 1.01443 1.22045 0
M  V30 10299 H 945.188 0.153968 3.80188 0
M  V30 10300 H 944.7 1.92663 3.36902 0
M  V30 10301 H 942.801 -0.518182 3.68979 0
M  V30 10302 H 942.914 1.09446 4.66432 0
M  V30 10303 H 941.278 0.487214 2.49997 0
M  V30 10304 H 942.061 2.14923 2.677 0
M  V30 10305 N 944.506 -1.46559 0.579492 0
M  V30 10306 C 945.453 -2.30275 -0.155598 0
M  V30 10307 C 946.423 -1.40422 -0.887175 0
M  V30 10308 O 947.608 -1.69373 -0.878481 0
M  V30 10309 C 944.748 -3.24827 -1.16539 0
M  V30 10310 C 943.861 -4.29778 -0.43759 0
M  V30 10311 C 942.996 -5.11461 -1.43462 0
M  V30 10312 C 942.035 -6.08164 -0.693048 0
M  V30 10313 N 941.172 -6.82726 -1.63799 0
M  V30 10314 H 946.012 -2.92607 0.564356 0
M  V30 10315 H 943.549 -1.44211 0.290126 0
M  V30 10316 H 945.507 -3.78088 -1.76368 0
M  V30 10317 H 944.137 -2.64311 -1.8531 0
M  V30 10318 H 943.189 -3.794 0.27567 0
M  V30 10319 H 944.501 -4.98597 0.142298 0
M  V30 10320 H 943.655 -5.68982 -2.1058 0
M  V30 10321 H 942.394 -4.42595 -2.04844 0
M  V30 10322 H 941.399 -5.49799 -0.00807093 0
M  V30 10323 H 942.624 -6.79047 -0.0846678 0
M  V30 10324 H 940.57 -6.16572 -2.23997 0
M  V30 10325 H 940.487 -7.47795 -1.11082 0
M  V30 10326 H 941.755 -7.44807 -2.29962 0
M  V30 10327 N 945.984 -0.3171 -1.54377 0
M  V30 10328 C 947.212 0.289558 -2.04864 0
M  V30 10329 C 947.627 1.46284 -1.19359 0
M  V30 10330 O 946.984 1.81135 -0.222795 0
M  V30 10331 C 947.035 0.730273 -3.54047 0
M  V30 10332 O 946.756 -0.396325 -4.36304 0
M  V30 10333 C 948.257 1.40041 -4.20599 0
M  V30 10334 H 945.477 0.0605836 -0.668259 0
M  V30 10335 H 948.021 -0.461411 -1.99227 0
M  V30 10336 H 946.176 1.43123 -3.59992 0
M  V30 10337 H 946.59 -0.0502901 -5.24476 0
M  V30 10338 H 948.064 1.65979 -5.26455 0
M  V30 10339 H 948.541 2.34565 -3.71316 0
M  V30 10340 H 949.147 0.742206 -4.18774 0
M  V30 10341 N 947.462 1.57535 -0.0451378 0
M  V30 10342 C 948.711 1.91628 0.629415 0
M  V30 10343 C 949.024 0.924754 1.72359 0
M  V30 10344 O 950.23 1.15751 2.45589 0
M  V30 10345 C 948.686 3.40322 1.17084 0
M  V30 10346 C 948.294 4.47867 0.109101 0
M  V30 10347 C 950.038 3.83458 1.82099 0
M  V30 10348 C 947.945 5.87671 0.663072 0
M  V30 10349 H 946.875 0.715163 0.238868 0
M  V30 10350 H 949.526 1.83151 -0.113046 0
M  V30 10351 H 947.908 3.43783 1.96543 0
M  V30 10352 H 949.082 4.55988 -0.664201 0
M  V30 10353 H 947.397 4.14034 -0.443227 0
M  V30 10354 H 949.994 4.85273 2.2453 0
M  V30 10355 H 950.337 3.19379 2.67026 0
M  V30 10356 H 950.87 3.82488 1.09305 0
M  V30 10357 H 947.609 6.55332 -0.148423 0
M  V30 10358 H 947.129 5.83124 1.4045 0
M  V30 10359 H 948.808 6.36737 1.14785 0
M  V30 10360 N 948.94 -0.228186 1.55939 0
M  V30 10361 C 949.888 -1.30239 1.92719 0
M  V30 10362 C 950.882 -1.48865 0.808424 0
M  V30 10363 O 952.088 -1.50118 0.993204 0
M  V30 10364 H 948.463 -0.436509 0.612343 0
M  V30 10365 H 950.434 -0.964965 2.82367 0
M  V30 10366 C 949.183 -2.647 2.25453 0
M  V30 10367 H 948.506 -2.51173 3.1105 0
M  V30 10368 H 949.946 -3.38691 2.55077 0
M  V30 10369 C 948.405 -3.1921 1.07734 0
M  V30 10370 O 948.935 -4.00301 0.335019 0
M  V30 10371 N 947.141 -2.77492 0.862938 0
M  V30 10372 H 946.688 -2.11657 1.4683 0
M  V30 10373 H 946.646 -3.14306 0.0770119 0
M  V30 10374 N 950.418 -1.49637 -0.494624 0
M  V30 10375 C 951.834 -1.36541 -0.826361 0
M  V30 10376 C 952.034 -0.403386 -1.97421 0
M  V30 10377 O 951.09 0.162614 -2.51976 0
M  V30 10378 C 952.403 -2.77401 -1.16057 0
M  V30 10379 C 953.951 -2.86148 -1.26841 0
M  V30 10380 C 954.426 -4.27789 -1.63587 0
M  V30 10381 N 955.917 -4.3063 -1.70624 0
M  V30 10382 C 956.652 -5.37198 -2.00514 0
M  V30 10383 N 956.148 -6.54004 -2.28584 0
M  V30 10384 N 957.941 -5.2462 -2.01818 0
M  V30 10385 H 950.092 -2.10776 0.26219 0
M  V30 10386 H 952.355 -0.946419 0.0547235 0
M  V30 10387 H 952.061 -3.49526 -0.390434 0
M  V30 10388 H 951.935 -3.1317 -2.10249 0
M  V30 10389 H 954.322 -2.14256 -2.02925 0
M  V30 10390 H 954.403 -2.53953 -0.30684 0
M  V30 10391 H 954.047 -5.00209 -0.880507 0
M  V30 10392 H 953.977 -4.57453 -2.60854 0
M  V30 10393 H 956.468 -3.46393 -1.51065 0
M  V30 10394 H 956.781 -7.31041 -2.50598 0
M  V30 10395 H 955.126 -6.57219 -2.26027 0
M  V30 10396 H 958.317 -4.32371 -1.79369 0
M  V30 10397 H 958.49 -6.07765 -2.24778 0
M  V30 10398 N 951.896 0.746133 -1.38819 0
M  V30 10399 C 952.843 1.86001 -1.36647 0
M  V30 10400 C 953.813 1.6453 -0.227849 0
M  V30 10401 O 954.998 1.86092 -0.421241 0
M  V30 10402 C 952.138 3.23388 -1.20474 0
M  V30 10403 C 951.251 3.5664 -2.43786 0
M  V30 10404 C 950.386 4.8337 -2.20287 0
M  V30 10405 C 949.425 5.09431 -3.39332 0
M  V30 10406 N 948.562 6.2736 -3.1522 0
M  V30 10407 H 953.402 1.87192 -2.31869 0
M  V30 10408 H 950.939 0.914838 -1.15192 0
M  V30 10409 H 952.897 4.02679 -1.09112 0
M  V30 10410 H 951.527 3.21505 -0.288874 0
M  V30 10411 H 950.579 2.72135 -2.65794 0
M  V30 10412 H 951.891 3.71823 -3.3249 0
M  V30 10413 H 951.045 5.70619 -2.06103 0
M  V30 10414 H 949.784 4.70341 -1.28961 0
M  V30 10415 H 948.789 4.20648 -3.54027 0
M  V30 10416 H 950.014 5.24354 -4.31544 0
M  V30 10417 H 947.96 6.15639 -2.26549 0
M  V30 10418 H 947.877 6.43078 -3.97476 0
M  V30 10419 H 949.145 7.17477 -3.04707 0
M  V30 10420 N 953.375 1.23811 0.975125 0
M  V30 10421 C 954.307 0.981779 2.07108 0
M  V30 10422 C 955.32 -0.0461211 1.62735 0
M  V30 10423 O 956.509 0.190039 1.77486 0
M  V30 10424 C 953.609 0.458364 3.35786 0
M  V30 10425 C 952.782 1.54767 4.09104 0
M  V30 10426 C 951.841 1.0282 5.16057 0
M  V30 10427 O 950.867 1.71831 5.42644 0
M  V30 10428 N 952.069 -0.141243 5.80328 0
M  V30 10429 H 954.834 1.92537 2.29673 0
M  V30 10430 H 952.395 1.1474 1.14221 0
M  V30 10431 H 954.387 0.0957686 4.04587 0
M  V30 10432 H 952.957 -0.390768 3.10148 0
M  V30 10433 H 952.177 2.08279 3.34684 0
M  V30 10434 H 953.465 2.28006 4.54853 0
M  V30 10435 H 952.863 -0.718382 5.6112 0
M  V30 10436 H 951.42 -0.445052 6.50279 0
M  V30 10437 N 954.853 -1.17469 1.05066 0
M  V30 10438 C 956.264 -1.69334 0.786304 0
M  V30 10439 C 956.615 -1.83604 -0.691671 0
M  V30 10440 O 955.74 -1.52269 -1.53763 0
M  V30 10441 C 956.335 -3.07572 1.42074 0
M  V30 10442 C 954.894 -3.56609 1.20446 0
M  V30 10443 C 954.041 -2.329 1.50508 0
M  V30 10444 H 956.992 -1.02003 1.21577 0
M  V30 10445 H 957.013 -3.71352 0.829334 0
M  V30 10446 H 956.525 -2.97154 2.49642 0
M  V30 10447 H 954.626 -3.72306 0.147968 0
M  V30 10448 H 954.739 -4.39446 1.90852 0
M  V30 10449 H 953.103 -2.37305 0.925124 0
M  V30 10450 H 953.886 -2.25093 2.59207 0
M  V30 10451 N 956.331 -0.831506 -1.3388 0
M  V30 10452 C 957.579 -0.422837 -1.97627 0
M  V30 10453 C 957.9 1.01961 -1.6622 0
M  V30 10454 O 957.17 1.70916 -0.957323 0
M  V30 10455 H 955.75 -0.153365 -0.731087 0
M  V30 10456 H 958.412 -1.06284 -1.6337 0
M  V30 10457 H 957.508 -0.548858 -3.07236 0
M  V30 10458 N 957.809 1.4625 -0.587256 0
M  V30 10459 C 959.225 1.57641 -0.249284 0
M  V30 10460 C 959.425 1.58169 1.24839 0
M  V30 10461 O 958.481 1.50109 2.03036 0
M  V30 10462 C 959.794 2.86837 -0.902509 0
M  V30 10463 C 961.342 3.00476 -0.876524 0
M  V30 10464 C 961.817 4.32414 -1.50938 0
M  V30 10465 N 963.308 4.39124 -1.47392 0
M  V30 10466 C 964.043 5.39838 -1.93293 0
M  V30 10467 N 963.539 6.47202 -2.47188 0
M  V30 10468 N 965.332 5.31068 -1.84183 0
M  V30 10469 H 957.483 1.44151 -1.55994 0
M  V30 10470 H 959.746 0.687905 -0.652297 0
M  V30 10471 H 959.452 2.92274 -1.95624 0
M  V30 10472 H 959.326 3.74927 -0.413466 0
M  V30 10473 H 961.713 2.94618 0.168601 0
M  V30 10474 H 961.794 2.1385 -1.40363 0
M  V30 10475 H 961.438 4.3903 -2.55372 0
M  V30 10476 H 961.368 5.17823 -0.957455 0
M  V30 10477 H 963.859 3.62138 -1.08002 0
M  V30 10478 H 964.172 7.20269 -2.80058 0
M  V30 10479 H 962.517 6.48009 -2.51216 0
M  V30 10480 H 965.708 4.46095 -1.41833 0
M  V30 10481 H 965.881 6.09414 -2.2027 0
M  V30 10482 N 959.287 0.325282 1.54207 0
M  V30 10483 C 960.517 -0.278285 2.04717 0
M  V30 10484 C 960.925 -1.46198 1.20095 0
M  V30 10485 O 960.268 -1.82319 0.224813 0
M  V30 10486 C 960.33 -0.774387 3.51061 0
M  V30 10487 C 959.994 0.287225 4.56096 0
M  V30 10488 C 960.991 1.12388 5.07607 0
M  V30 10489 C 958.676 0.435908 5.00405 0
M  V30 10490 C 960.67 2.09492 6.0199 0
M  V30 10491 C 958.357 1.41037 5.94602 0
M  V30 10492 C 959.355 2.23834 6.45281 0
M  V30 10493 O 959.043 3.19625 7.37628 0
M  V30 10494 H 958.775 -0.0608309 0.673257 0
M  V30 10495 H 961.329 0.470049 1.99949 0
M  V30 10496 H 959.559 -1.57366 3.53232 0
M  V30 10497 H 961.248 -1.29649 3.84637 0
M  V30 10498 H 962.014 1.02 4.74153 0
M  V30 10499 H 957.893 -0.198668 4.60572 0
M  V30 10500 H 961.437 2.74157 6.4147 0
M  V30 10501 H 957.334 1.51487 6.27473 0
M  V30 10502 H 958.102 3.14884 7.55507 0
M  V30 10503 N 960.765 -1.57509 0.0534917 0
M  V30 10504 C 961.715 -2.08179 -0.929802 0
M  V30 10505 C 962.699 -0.987451 -1.27036 0
M  V30 10506 O 963.891 -1.25076 -1.2524 0
M  V30 10507 C 961.02 -2.63221 -2.20385 0
M  V30 10508 C 960.106 -3.79629 -1.89058 0
M  V30 10509 N 960.497 -4.8931 -1.28101 0
M  V30 10510 C 958.795 -3.88578 -2.18914 0
M  V30 10511 C 959.496 -5.70329 -1.14455 0
M  V30 10512 N 958.472 -5.18011 -1.64821 0
M  V30 10513 H 962.274 -2.90374 -0.453874 0
M  V30 10514 H 959.788 -1.61697 -0.150899 0
M  V30 10515 H 961.785 -2.97827 -2.91727 0
M  V30 10516 H 960.445 -1.82466 -2.68582 0
M  V30 10517 H 961.456 -5.09058 -0.952924 0
M  V30 10518 H 958.133 -3.18769 -2.69616 0
M  V30 10519 H 959.523 -6.6854 -0.671129 0
M  V30 10520 N 962.243 0.219913 -1.56058 0
M  V30 10521 C 963.173 1.27572 -1.9557 0
M  V30 10522 C 964.154 1.48801 -0.824148 0
M  V30 10523 O 965.339 1.60957 -1.08658 0
M  V30 10524 C 962.469 2.62517 -2.27381 0
M  V30 10525 C 961.423 2.55941 -3.43042 0
M  V30 10526 C 960.749 3.94931 -3.60463 0
M  V30 10527 C 962.049 2.10584 -4.77966 0
M  V30 10528 H 963.743 0.947482 -2.84013 0
M  V30 10529 H 961.289 0.454337 -1.36645 0
M  V30 10530 H 963.242 3.36538 -2.53615 0
M  V30 10531 H 961.966 2.97031 -1.35794 0
M  V30 10532 H 960.625 1.84377 -3.1686 0
M  V30 10533 H 960.273 4.26756 -2.66249 0
M  V30 10534 H 959.973 3.91413 -4.38258 0
M  V30 10535 H 961.497 4.70611 -3.89046 0
M  V30 10536 H 962.911 2.74349 -5.03394 0
M  V30 10537 H 961.308 2.18122 -5.59055 0
M  V30 10538 H 962.378 1.05818 -4.73213 0
M  V30 10539 N 963.721 1.49897 0.486681 0
M  V30 10540 C 964.998 1.50614 1.24799 0
M  V30 10541 C 965.378 0.24193 2.09709 0
M  V30 10542 O 964.726 -0.775237 2.14947 0
M  V30 10543 C 964.936 2.79318 2.09243 0
M  V30 10544 C 966.284 3.29371 2.67955 0
M  V30 10545 O 967.308 2.80533 2.19499 0
M  V30 10546 O 966.167 4.14466 3.56202 0
M  V30 10547 H 963.261 0.603447 0.565491 0
M  V30 10548 H 965.807 1.62174 0.499778 0
M  V30 10549 H 964.579 3.62812 1.46572 0
M  V30 10550 H 964.202 2.70687 2.91229 0
M  V30 10551 N 965.199 -0.738761 1.39212 0
M  V30 10552 C 966.424 -1.5331 1.39681 0
M  V30 10553 C 966.849 -1.88098 -0.00768715 0
M  V30 10554 O 966.207 -1.51642 -0.993699 0
M  V30 10555 C 966.255 -2.79958 2.27279 0
M  V30 10556 O 965.359 -3.75727 1.70008 0
M  V30 10557 H 964.7 -0.463131 0.475821 0
M  V30 10558 H 967.23 -0.911768 1.83161 0
M  V30 10559 H 967.24 -3.28732 2.41659 0
M  V30 10560 H 965.915 -2.5397 3.29351 0
M  V30 10561 H 964.492 -3.34483 1.64851 0
M  V30 10562 N 966.677 -1.24326 -0.968545 0
M  V30 10563 C 967.907 -1.10786 -1.74385 0
M  V30 10564 C 968.315 0.342503 -1.86074 0
M  V30 10565 O 967.658 1.24817 -1.34782 0
M  V30 10566 C 967.72 -1.67274 -3.18213 0
M  V30 10567 C 967.384 -3.1615 -3.29998 0
M  V30 10568 C 968.381 -4.13309 -3.15392 0
M  V30 10569 C 966.066 -3.56092 -3.54265 0
M  V30 10570 C 968.06 -5.48392 -3.24878 0
M  V30 10571 C 965.747 -4.91316 -3.63389 0
M  V30 10572 C 966.745 -5.87275 -3.48707 0
M  V30 10573 O 966.433 -7.20041 -3.57485 0
M  V30 10574 H 966.165 -0.387795 -0.553706 0
M  V30 10575 H 968.719 -1.64894 -1.22471 0
M  V30 10576 H 966.949 -1.07598 -3.71429 0
M  V30 10577 H 968.638 -1.49036 -3.77549 0
M  V30 10578 H 969.404 -3.83792 -2.96528 0
M  V30 10579 H 965.283 -2.81907 -3.6476 0
M  V30 10580 H 968.827 -6.23271 -3.13335 0
M  V30 10581 H 964.724 -5.20505 -3.81766 0
M  V30 10582 H 965.492 -7.27951 -3.74205 0
M  V30 10583 N 968.156 1.1691 -1.05688 0
M  V30 10584 C 969.066 2.24735 -0.67315 0
M  V30 10585 C 970.082 1.71252 0.308043 0
M  V30 10586 O 971.258 2.00772 0.158889 0
M  V30 10587 C 968.323 3.4665 -0.059026 0
M  V30 10588 C 967.384 4.15198 -1.0913 0
M  V30 10589 C 966.617 5.31292 -0.50639 0
M  V30 10590 O 966.84 5.663 0.682692 0
M  V30 10591 O 965.774 5.88923 -1.2431 0
M  V30 10592 H 969.6 2.59855 -1.57191 0
M  V30 10593 H 967.185 1.24306 -0.828751 0
M  V30 10594 H 969.067 4.20455 0.282018 0
M  V30 10595 H 967.742 3.13316 0.813304 0
M  V30 10596 H 966.649 3.43389 -1.48442 0
M  V30 10597 H 967.982 4.52571 -1.93495 0
M  V30 10598 N 969.634 0.838594 1.33437 0
M  V30 10599 C 970.566 0.229006 2.28053 0
M  V30 10600 C 971.579 -0.590103 1.51729 0
M  V30 10601 O 972.768 -0.417218 1.73556 0
M  V30 10602 C 969.868 -0.696251 3.31671 0
M  V30 10603 C 969.041 0.0834606 4.3732 0
M  V30 10604 C 968.1 -0.765097 5.20608 0
M  V30 10605 O 967.126 -0.2044 5.68833 0
M  V30 10606 N 968.328 -2.08249 5.4186 0
M  V30 10607 H 971.093 1.04196 2.81004 0
M  V30 10608 H 968.654 0.697031 1.46127 0
M  V30 10609 H 970.646 -1.26889 3.84293 0
M  V30 10610 H 969.216 -1.40992 2.78998 0
M  V30 10611 H 968.436 0.837481 3.85201 0
M  V30 10612 H 969.724 0.619613 5.05013 0
M  V30 10613 H 969.122 -2.56156 5.04381 0
M  V30 10614 H 967.679 -2.60362 5.97541 0
M  V30 10615 N 971.112 -1.45937 0.595003 0
M  V30 10616 C 972.337 -2.07207 0.0894416 0
M  V30 10617 C 972.762 -1.43884 -1.21157 0
M  V30 10618 O 972.12 -0.526998 -1.73472 0
M  V30 10619 C 972.168 -3.60565 -0.0499828 0
M  V30 10620 O 971.272 -3.97364 -1.10342 0
M  V30 10621 H 970.613 -0.660471 0.0683627 0
M  V30 10622 H 973.143 -1.87386 0.82144 0
M  V30 10623 H 973.153 -4.0722 -0.252234 0
M  V30 10624 H 971.828 -4.06044 0.90006 0
M  V30 10625 H 970.405 -3.62401 -0.878645 0
M  V30 10626 N 972.59 -0.333456 -1.54032 0
M  V30 10627 C 973.818 0.267813 -2.05159 0
M  V30 10628 C 974.233 1.4501 -1.20903 0
M  V30 10629 O 973.59 1.80888 -0.241994 0
M  V30 10630 C 973.641 0.69268 -3.54802 0
M  V30 10631 O 973.362 -0.442579 -4.35859 0
M  V30 10632 C 974.863 1.35572 -4.2206 0
M  V30 10633 H 972.083 0.0534924 -0.668864 0
M  V30 10634 H 974.627 -0.482515 -1.98726 0
M  V30 10635 H 972.782 1.39297 -3.6149 0
M  V30 10636 H 973.196 -0.105915 -5.24393 0
M  V30 10637 H 974.67 1.60385 -5.28186 0
M  V30 10638 H 975.147 2.30614 -3.73783 0
M  V30 10639 H 975.753 0.697748 -4.19537 0
M  V30 10640 N 974.068 1.57479 -0.061844 0
M  V30 10641 C 975.484 1.56855 0.294753 0
M  V30 10642 C 975.684 1.07042 1.70717 0
M  V30 10643 O 974.74 0.731817 2.41662 0
M  V30 10644 C 976.053 3.00486 0.113484 0
M  V30 10645 C 977.601 3.1246 0.183778 0
M  V30 10646 C 978.076 4.5799 0.0309092 0
M  V30 10647 N 979.567 4.63119 0.0868393 0
M  V30 10648 C 980.302 5.734 -0.00717446 0
M  V30 10649 N 979.798 6.92628 -0.154144 0
M  V30 10650 N 981.591 5.62078 0.0491763 0
M  V30 10651 H 973.742 1.88176 -0.985058 0
M  V30 10652 H 976.005 0.867051 -0.383309 0
M  V30 10653 H 975.711 3.41004 -0.86075 0
M  V30 10654 H 975.585 3.67029 0.870023 0
M  V30 10655 H 977.972 2.71834 1.14849 0
M  V30 10656 H 978.053 2.48574 -0.603697 0
M  V30 10657 H 977.697 4.99303 -0.930526 0
M  V30 10658 H 977.627 5.19895 0.837664 0
M  V30 10659 H 980.118 3.77374 0.199245 0
M  V30 10660 H 980.431 7.72492 -0.218296 0
M  V30 10661 H 978.776 6.94742 -0.189372 0
M  V30 10662 H 981.967 4.67817 0.162626 0
M  V30 10663 H 982.14 6.47994 -0.0275478 0
M  V30 10664 N 975.546 -0.211634 1.56173 0
M  V30 10665 C 976.962 -0.56177 1.49386 0
M  V30 10666 C 977.162 -1.86666 0.758813 0
M  V30 10667 O 976.218 -2.50681 0.302534 0
M  V30 10668 C 977.531 -0.631815 2.93987 0
M  V30 10669 C 979.079 -0.721773 3.04564 0
M  V30 10670 C 979.554 -0.823075 4.50544 0
M  V30 10671 N 981.045 -0.887038 4.54627 0
M  V30 10672 C 981.78 -0.985304 5.64871 0
M  V30 10673 N 981.276 -1.0469 6.84844 0
M  V30 10674 N 983.069 -1.02121 5.52746 0
M  V30 10675 H 975.22 0.64452 2.02385 0
M  V30 10676 H 977.483 0.227466 0.920306 0
M  V30 10677 H 977.189 0.257592 3.50755 0
M  V30 10678 H 977.063 -1.4921 3.46433 0
M  V30 10679 H 979.45 -1.60162 2.47855 0
M  V30 10680 H 979.531 0.164385 2.55271 0
M  V30 10681 H 979.175 0.0523511 5.07873 0
M  V30 10682 H 979.105 -1.72479 4.97552 0
M  V30 10683 H 981.596 -0.849352 3.68231 0
M  V30 10684 H 981.909 -1.12193 7.64613 0
M  V30 10685 H 980.254 -1.01586 6.87536 0
M  V30 10686 H 983.445 -0.969814 4.57943 0
M  V30 10687 H 983.618 -1.09434 6.38693 0
M  V30 10688 N 977.024 -1.50153 -0.478725 0
M  V30 10689 C 977.954 -1.71384 -1.58587 0
M  V30 10690 C 978.935 -0.562705 -1.60523 0
M  V30 10691 O 980.12 -0.80101 -1.76911 0
M  V30 10692 C 977.25 -1.80094 -2.96957 0
M  V30 10693 C 976.204 -2.95218 -3.09888 0
M  V30 10694 C 975.53 -2.89063 -4.49829 0
M  V30 10695 C 976.83 -4.35841 -2.8782 0
M  V30 10696 H 978.524 -2.64081 -1.41073 0
M  V30 10697 H 976.07 -1.27081 -0.677239 0
M  V30 10698 H 978.023 -1.93531 -3.74331 0
M  V30 10699 H 976.747 -0.840131 -3.1561 0
M  V30 10700 H 975.406 -2.81419 -2.34944 0
M  V30 10701 H 975.054 -1.90844 -4.6539 0
M  V30 10702 H 974.754 -3.66345 -4.59418 0
M  V30 10703 H 976.278 -3.04539 -5.29234 0
M  V30 10704 H 977.692 -4.50205 -3.54948 0
M  V30 10705 H 976.089 -5.14515 -3.0886 0
M  V30 10706 H 977.159 -4.48739 -1.83742 0
M  V30 10707 N 978.502 0.731368 -1.39602 0
M  V30 10708 C 979.918 1.03739 -1.21286 0
M  V30 10709 C 980.118 2.01353 -0.0769875 0
M  V30 10710 O 979.174 2.45978 0.570193 0
M  V30 10711 C 980.487 1.59621 -2.54837 0
M  V30 10712 C 982.035 1.71683 -2.61713 0
M  V30 10713 C 982.51 2.30973 -3.95494 0
M  V30 10714 N 984.001 2.38378 -3.97153 0
M  V30 10715 C 984.736 2.852 -4.97442 0
M  V30 10716 N 984.232 3.31891 -6.08129 0
M  V30 10717 N 986.025 2.84441 -4.84819 0
M  V30 10718 H 978.176 0.0840456 -2.12234 0
M  V30 10719 H 980.439 0.0999038 -0.942721 0
M  V30 10720 H 980.145 0.953608 -3.38525 0
M  V30 10721 H 980.019 2.58375 -2.74813 0
M  V30 10722 H 982.406 2.35064 -1.78406 0
M  V30 10723 H 982.487 0.715714 -2.45583 0
M  V30 10724 H 982.131 1.68219 -4.79234 0
M  V30 10725 H 982.061 3.31769 -4.08946 0
M  V30 10726 H 984.552 2.05382 -3.17217 0
M  V30 10727 H 984.865 3.66138 -6.8056 0
M  V30 10728 H 983.21 3.2989 -6.11717 0
M  V30 10729 H 986.401 2.4729 -3.97448 0
M  V30 10730 H 986.574 3.20616 -5.63124 0
M  V30 10731 N 979.98 1.24838 0.961938 0
M  V30 10732 C 981.391 1.08369 1.5203 0
M  V30 10733 C 981.742 -0.343005 1.93178 0
M  V30 10734 O 980.867 -1.2321 1.779 0
M  V30 10735 C 981.462 1.96102 2.76278 0
M  V30 10736 C 980.021 1.8384 3.28451 0
M  V30 10737 C 979.168 1.9069 2.01327 0
M  V30 10738 H 982.119 1.38231 0.779613 0
M  V30 10739 H 982.14 1.4967 3.49827 0
M  V30 10740 H 981.652 2.99931 2.46298 0
M  V30 10741 H 979.753 0.828653 3.63269 0
M  V30 10742 H 979.866 2.68251 3.96961 0
M  V30 10743 H 978.23 1.34488 2.16299 0
M  V30 10744 H 979.013 2.96111 1.73705 0
M  V30 10745 N 981.458 -1.16348 1.06306 0
M  V30 10746 C 982.421 -2.18941 0.678053 0
M  V30 10747 C 983.421 -1.58409 -0.276277 0
M  V30 10748 O 984.611 -1.74101 -0.0586435 0
M  V30 10749 C 981.743 -3.409 -0.00228684 0
M  V30 10750 H 982.936 -2.54516 1.58624 0
M  V30 10751 H 980.489 -1.30625 0.858298 0
M  V30 10752 H 981.224 -3.10881 -0.923212 0
M  V30 10753 H 981.009 -3.86089 0.683949 0
M  V30 10754 H 982.499 -4.16806 -0.257374 0
M  V30 10755 N 982.937 -0.845659 -1.3299 0
M  V30 10756 C 983.847 -0.2864 -2.32845 0
M  V30 10757 C 984.863 0.591105 -1.63652 0
M  V30 10758 O 986.039 0.493615 -1.95257 0
M  V30 10759 C 983.104 0.523636 -3.42723 0
M  V30 10760 C 982.165 -0.378945 -4.27624 0
M  V30 10761 C 981.398 0.392526 -5.32255 0
M  V30 10762 O 981.621 1.6235 -5.46808 0
M  V30 10763 O 980.555 -0.237 -6.01433 0
M  V30 10764 H 984.381 -1.11346 -2.82552 0
M  V30 10765 H 981.966 -0.608356 -1.36453 0
M  V30 10766 H 983.848 0.983718 -4.09757 0
M  V30 10767 H 982.523 1.32764 -2.95221 0
M  V30 10768 H 981.43 -0.887012 -3.63432 0
M  V30 10769 H 982.763 -1.1479 -4.78627 0
M  V30 10770 N 984.415 1.45619 -0.602734 0
M  V30 10771 C 985.643 2.06647 -0.102253 0
M  V30 10772 C 986.058 1.4482 1.21131 0
M  V30 10773 O 985.415 0.560621 1.73676 0
M  V30 10774 C 985.466 3.61467 0.0490113 0
M  V30 10775 O 985.187 4.20985 -1.21257 0
M  V30 10776 C 986.688 4.39469 0.581517 0
M  V30 10777 H 983.908 0.667685 -0.0666155 0
M  V30 10778 H 986.452 1.86939 -0.829091 0
M  V30 10779 H 984.607 3.80534 0.726153 0
M  V30 10780 H 985.021 5.14103 -1.03915 0
M  V30 10781 H 986.495 5.48318 0.636462 0
M  V30 10782 H 986.972 4.0891 1.60277 0
M  V30 10783 H 987.578 4.25256 -0.061419 0
M  V30 10784 N 985.893 0.34162 1.53853 0
M  V30 10785 C 986.803 -0.524555 2.2866 0
M  V30 10786 C 987.819 -1.1136 1.33697 0
M  V30 10787 O 988.995 -1.1297 1.66732 0
M  V30 10788 C 986.06 -1.66065 3.04341 0
M  V30 10789 C 985.121 -1.10158 4.14926 0
M  V30 10790 C 984.354 -2.18353 4.86988 0
M  V30 10791 O 984.577 -3.39038 4.58704 0
M  V30 10792 O 983.511 -1.82756 5.73484 0
M  V30 10793 H 987.337 0.0835014 3.03585 0
M  V30 10794 H 984.922 0.106727 1.49018 0
M  V30 10795 H 986.804 -2.3217 3.51674 0
M  V30 10796 H 985.479 -2.25456 2.32275 0
M  V30 10797 H 984.386 -0.405109 3.719 0
M  V30 10798 H 985.719 -0.552567 4.89088 0
M  V30 10799 N 987.371 -1.57444 0.0701946 0
M  V30 10800 C 988.648 -1.84826 -0.6402 0
M  V30 10801 C 989.028 -0.962344 -1.87889 0
M  V30 10802 O 988.376 -0.0282209 -2.28483 0
M  V30 10803 C 988.586 -3.34976 -0.979382 0
M  V30 10804 C 989.934 -4.02448 -1.35355 0
M  V30 10805 O 990.958 -3.39713 -1.07116 0
M  V30 10806 O 989.817 -5.13096 -1.88136 0
M  V30 10807 H 986.911 -0.763494 -0.317813 0
M  V30 10808 H 989.457 -1.69399 0.101004 0
M  V30 10809 H 988.229 -3.91173 -0.0995576 0
M  V30 10810 H 987.852 -3.5566 -1.7774 0
M  V30 10811 N 988.849 0.203349 -1.56283 0
M  V30 10812 C 990.098 0.92315 -1.79334 0
M  V30 10813 C 990.411 1.84765 -0.641977 0
M  V30 10814 O 991.617 2.60745 -0.756584 0
M  V30 10815 C 990.073 1.69184 -3.17655 0
M  V30 10816 C 989.681 0.812581 -4.40569 0
M  V30 10817 C 991.425 2.40177 -3.50022 0
M  V30 10818 C 989.332 1.57967 -5.69913 0
M  V30 10819 H 988.262 0.348442 -0.668659 0
M  V30 10820 H 990.913 0.1766 -1.82648 0
M  V30 10821 H 989.295 2.48197 -3.08568 0
M  V30 10822 H 990.469 0.0616956 -4.60759 0
M  V30 10823 H 988.784 0.21389 -4.1585 0
M  V30 10824 H 991.381 2.98103 -4.4389 0
M  V30 10825 H 991.724 3.13961 -2.73376 0
M  V30 10826 H 992.257 1.68138 -3.6052 0
M  V30 10827 H 988.996 0.884767 -6.49501 0
M  V30 10828 H 988.516 2.3047 -5.53754 0
M  V30 10829 H 990.195 2.13562 -6.10737 0
M  V30 10830 N 990.327 1.50405 0.470755 0
M  V30 10831 C 991.29 1.68741 1.5511 0
M  V30 10832 C 992.29 0.558116 1.50804 0
M  V30 10833 O 993.48 0.825149 1.53418 0
M  V30 10834 C 990.612 1.71295 2.94739 0
M  V30 10835 H 991.805 2.65127 1.40169 0
M  V30 10836 H 989.358 1.39891 0.697156 0
M  V30 10837 H 990.093 0.766029 3.15123 0
M  V30 10838 H 989.878 2.53336 2.99271 0
M  V30 10839 H 991.368 1.87434 3.73173 0
M  V30 10840 N 991.805 -0.723954 1.39988 0
M  V30 10841 C 993.054 -1.47922 1.3712 0
M  V30 10842 C 993.367 -1.95582 -0.0263665 0
M  V30 10843 O 994.573 -2.70918 -0.177652 0
M  V30 10844 C 993.029 -2.67342 2.40949 0
M  V30 10845 C 992.637 -2.26586 3.86475 0
M  V30 10846 C 994.381 -3.45116 2.47174 0
M  V30 10847 C 992.288 -3.42794 4.81919 0
M  V30 10848 H 991.218 -0.555522 0.509815 0
M  V30 10849 H 993.869 -0.788692 1.65686 0
M  V30 10850 H 992.251 -3.38524 2.0547 0
M  V30 10851 H 993.425 -1.62878 4.31054 0
M  V30 10852 H 991.74 -1.61876 3.83647 0
M  V30 10853 H 994.337 -4.31573 3.15672 0
M  V30 10854 H 994.68 -3.8835 1.49966 0
M  V30 10855 H 995.213 -2.80971 2.81602 0
M  V30 10856 H 991.952 -3.046 5.8043 0
M  V30 10857 H 991.472 -4.05445 4.42012 0
M  V30 10858 H 993.151 -4.08977 5.01345 0
M  V30 10859 N 993.283 -1.25346 -0.955304 0
M  V30 10860 C 994.23 -1.05672 -2.05188 0
M  V30 10861 C 995.2 0.0339217 -1.66065 0
M  V30 10862 O 996.385 -0.123126 -1.90402 0
M  V30 10863 C 993.525 -0.680791 -3.38318 0
M  V30 10864 C 992.638 -1.84622 -3.90562 0
M  V30 10865 C 991.773 -1.41471 -5.12015 0
M  V30 10866 C 990.812 -2.54931 -5.56486 0
M  V30 10867 N 989.949 -2.1256 -6.69151 0
M  V30 10868 H 994.789 -1.9952 -2.2135 0
M  V30 10869 H 992.326 -0.993588 -1.08472 0
M  V30 10870 H 994.284 -0.443794 -4.14833 0
M  V30 10871 H 992.914 0.2207 -3.22045 0
M  V30 10872 H 991.966 -2.19654 -3.10574 0
M  V30 10873 H 993.278 -2.6983 -4.19515 0
M  V30 10874 H 992.432 -1.13732 -5.95945 0
M  V30 10875 H 991.171 -0.533334 -4.84775 0
M  V30 10876 H 990.176 -2.83415 -4.71122 0
M  V30 10877 H 991.401 -3.43645 -5.85734 0
M  V30 10878 H 989.347 -1.26838 -6.43621 0
M  V30 10879 H 989.264 -2.91317 -6.97618 0
M  V30 10880 H 990.532 -1.87996 -7.5649 0
M  V30 10881 N 994.761 1.15782 -1.06922 0
M  V30 10882 C 996.007 1.86741 -0.790922 0
M  V30 10883 C 996.34 1.81863 0.681149 0
M  V30 10884 O 995.615 1.23871 1.49954 0
M  V30 10885 C 995.898 3.36038 -1.29422 0
M  V30 10886 C 995.751 3.49573 -2.83052 0
M  V30 10887 C 997.07 4.30647 -0.907239 0
M  V30 10888 H 994.189 0.678064 -0.288787 0
M  V30 10889 H 996.831 1.36054 -1.32624 0
M  V30 10890 H 994.981 3.79336 -0.838843 0
M  V30 10891 H 996.653 3.1517 -3.36847 0
M  V30 10892 H 994.896 2.91275 -3.21467 0
M  V30 10893 H 995.567 4.5445 -3.13335 0
M  V30 10894 H 998.043 3.95286 -1.29956 0
M  V30 10895 H 996.919 5.33604 -1.28679 0
M  V30 10896 H 997.18 4.41703 0.187251 0
M  V30 10897 N 996.239 0.8527 1.3254 0
M  V30 10898 C 997.467 0.469044 2.01513 0
M  V30 10899 C 997.882 -0.933701 1.64096 0
M  V30 10900 O 997.239 -1.60898 0.861283 0
M  V30 10901 C 997.29 0.596228 3.56549 0
M  V30 10902 O 997.011 1.94371 3.92621 0
M  V30 10903 C 998.512 0.211324 4.42796 0
M  V30 10904 H 995.732 0.184589 0.645111 0
M  V30 10905 H 998.276 1.1491 1.69163 0
M  V30 10906 H 996.431 -0.0360712 3.87383 0
M  V30 10907 H 996.845 1.93909 4.87339 0
M  V30 10908 H 998.319 0.351324 5.50881 0
M  V30 10909 H 998.796 -0.848055 4.30935 0
M  V30 10910 H 999.402 0.818617 4.17347 0
M  V30 10911 N 997.718 -1.45297 0.610449 0
M  V30 10912 C 998.666 -2.32295 -0.119167 0
M  V30 10913 C 999.66 -1.46138 -0.856746 0
M  V30 10914 O 1000.87 -1.62605 -0.771988 0
M  V30 10915 H 997.241 -0.749815 -0.0572881 0
M  V30 10916 H 999.212 -2.91609 0.63297 0
M  V30 10917 C 997.961 -3.29802 -1.10119 0
M  V30 10918 H 997.284 -3.96095 -0.543063 0
M  V30 10919 H 998.724 -3.93398 -1.58158 0
M  V30 10920 C 997.183 -2.57185 -2.17617 0
M  V30 10921 O 997.713 -2.35535 -3.25401 0
M  V30 10922 N 995.919 -2.17272 -1.9298 0
M  V30 10923 H 995.466 -2.3508 -1.05334 0
M  V30 10924 H 995.424 -1.69009 -2.6511 0
M  V30 10925 N 999.196 -0.349774 -1.5367 0
M  V30 10926 C 1000.44 0.244343 -2.00617 0
M  V30 10927 C 1000.76 1.50567 -1.23914 0
M  V30 10928 O 1000.03 1.92784 -0.348016 0
M  V30 10929 H 998.615 0.0932792 -0.741153 0
M  V30 10930 H 1001.28 -0.472367 -1.89089 0
M  V30 10931 H 1000.37 0.482433 -3.08349 0
M  V30 10932 N 1000.67 1.57404 -0.0785433 0
M  V30 10933 C 1001.9 1.97787 0.596995 0
M  V30 10934 C 1002.31 0.955904 1.63276 0
M  V30 10935 O 1001.65 -0.0649169 1.83585 0
M  V30 10936 C 1001.72 3.34499 1.31723 0
M  V30 10937 C 1001.38 4.54933 0.434144 0
M  V30 10938 C 1002.38 5.18969 -0.311015 0
M  V30 10939 C 1000.06 5.01029 0.357046 0
M  V30 10940 C 1002.06 6.27457 -1.12142 0
M  V30 10941 C 999.744 6.09389 -0.457029 0
M  V30 10942 C 1000.74 6.72466 -1.19493 0
M  V30 10943 O 1000.43 7.78738 -1.99556 0
M  V30 10944 H 1000.16 0.655294 0.166028 0
M  V30 10945 H 1002.72 2.04855 -0.149517 0
M  V30 10946 H 1000.95 3.24064 2.10996 0
M  V30 10947 H 1002.63 3.5944 1.88567 0
M  V30 10948 H 1003.4 4.84297 -0.261084 0
M  V30 10949 H 999.28 4.51706 0.921026 0
M  V30 10950 H 1002.82 6.76622 -1.69788 0
M  V30 10951 H 998.721 6.43494 -0.508499 0
M  V30 10952 H 999.489 7.95648 -1.9206 0
M  V30 10953 N 1002.15 -0.195058 1.56388 0
M  V30 10954 C 1003.4 -0.915444 1.80626 0
M  V30 10955 C 1003.73 -1.83255 0.651768 0
M  V30 10956 O 1002.98 -1.92314 -0.362464 0
M  V30 10957 C 1003.28 -1.7637 3.10851 0
M  V30 10958 C 1002.95 -0.997572 4.39726 0
M  V30 10959 C 1001.61 -0.786043 4.74737 0
M  V30 10960 C 1003.96 -0.45851 5.19179 0
M  V30 10961 C 1001.29 -0.023972 5.86695 0
M  V30 10962 C 1003.64 0.29035 6.31933 0
M  V30 10963 C 1002.3 0.512895 6.65527 0
M  V30 10964 H 1001.57 -0.334985 0.660959 0
M  V30 10965 H 1004.22 -0.181815 1.90635 0
M  V30 10966 H 1002.53 -2.566 2.9608 0
M  V30 10967 H 1004.22 -2.3237 3.26811 0
M  V30 10968 H 1000.81 -1.17245 4.12252 0
M  V30 10969 H 1005 -0.609334 4.92545 0
M  V30 10970 H 1000.25 0.158421 6.11195 0
M  V30 10971 H 1004.43 0.715429 6.92715 0
M  V30 10972 H 1002.05 1.10531 7.52122 0
M  V30 10973 N 1003.63 -1.50653 -0.462772 0
M  V30 10974 C 1004.85 -1.66103 -1.24196 0
M  V30 10975 C 1005.28 -0.347421 -1.84864 0
M  V30 10976 O 1004.64 0.689673 -1.6767 0
M  V30 10977 C 1004.69 -2.76027 -2.32037 0
M  V30 10978 O 1003.79 -2.37859 -3.36893 0
M  V30 10979 H 1003.13 -0.554672 -0.365014 0
M  V30 10980 H 1005.66 -1.97076 -0.549734 0
M  V30 10981 H 1005.67 -2.99354 -2.77221 0
M  V30 10982 H 1004.35 -3.71361 -1.87253 0
M  V30 10983 H 1002.92 -2.2501 -2.97363 0
M  V30 10984 N 1005.11 0.71652 -1.4037 0
M  V30 10985 C 1006.35 1.47736 -1.39805 0
M  V30 10986 C 1006.71 1.924 0.000340438 0
M  V30 10987 O 1006 1.652 0.970547 0
M  V30 10988 C 1006.2 2.71777 -2.32103 0
M  V30 10989 C 1006.03 2.39245 -3.80778 0
M  V30 10990 C 1004.8 2.30632 -4.49597 0
M  V30 10991 C 1006.99 2.03576 -4.72294 0
M  V30 10992 N 1004.98 1.90764 -5.83509 0
M  V30 10993 C 1006.35 1.74302 -5.94995 0
M  V30 10994 C 1008.4 1.90204 -4.60138 0
M  V30 10995 C 1007.1 1.33001 -7.06897 0
M  V30 10996 C 1009.13 1.50307 -5.71981 0
M  V30 10997 C 1008.49 1.2193 -6.93767 0
M  V30 10998 H 1004.59 0.538721 -0.566836 0
M  V30 10999 H 1007.18 0.831018 -1.76074 0
M  V30 11000 H 1005.35 3.34163 -1.97963 0
M  V30 11001 H 1007.08 3.38112 -2.22402 0
M  V30 11002 H 1003.83 2.48341 -4.03266 0
M  V30 11003 H 1004.26 1.73372 -6.54424 0
M  V30 11004 H 1008.9 2.10805 -3.66499 0
M  V30 11005 H 1006.62 1.11143 -8.0042 0
M  V30 11006 H 1010.2 1.4054 -5.6457 0
M  V30 11007 H 1009.08 0.915214 -7.78841 0
M  V30 11008 N 1006.59 1.25851 0.948643 0
M  V30 11009 C 1007.83 1.10735 1.69062 0
M  V30 11010 C 1008.16 -0.351257 1.9181 0
M  V30 11011 O 1007.43 -1.24867 1.50947 0
M  V30 11012 H 1006.01 0.406796 0.626519 0
M  V30 11013 H 1008.67 1.58066 1.14022 0
M  V30 11014 H 1007.76 1.62033 2.66743 0
M  V30 11015 N 1008.06 -1.15214 1.07534 0
M  V30 11016 C 1009.29 -1.90463 0.820883 0
M  V30 11017 C 1009.71 -1.77578 -0.620305 0
M  V30 11018 O 1009.07 -1.10976 -1.43366 0
M  V30 11019 C 1009.12 -3.38746 1.23627 0
M  V30 11020 O 1008.22 -4.1062 0.382715 0
M  V30 11021 H 1007.57 -0.59292 0.298901 0
M  V30 11022 H 1010.1 -1.45893 1.43445 0
M  V30 11023 H 1010.11 -3.89543 1.21327 0
M  V30 11024 H 1008.78 -3.47443 2.28596 0
M  V30 11025 H 1007.36 -3.69947 0.468374 0
M  V30 11026 N 1009.54 -0.859717 -1.32086 0
M  V30 11027 C 1010.79 -0.464662 -1.96686 0
M  V30 11028 C 1011.11 0.98412 -1.68345 0
M  V30 11029 O 1010.38 1.68847 -0.993361 0
M  V30 11030 H 1008.96 -0.168838 -0.727669 0
M  V30 11031 H 1011.62 -1.09726 -1.61079 0
M  V30 11032 H 1010.72 -0.613904 -3.06003 0
M  V30 11033 N 1011.02 1.44971 -0.618145 0
M  V30 11034 C 1011.95 2.33357 0.0815955 0
M  V30 11035 C 1012.93 1.47451 0.848072 0
M  V30 11036 O 1014.12 1.762 0.816532 0
M  V30 11037 C 1011.25 3.30324 1.07253 0
M  V30 11038 C 1010.2 4.25948 0.418563 0
M  V30 11039 C 1009.53 5.12685 1.51849 0
M  V30 11040 C 1010.83 5.18024 -0.66697 0
M  V30 11041 H 1012.52 2.92115 -0.656442 0
M  V30 11042 H 1010.07 1.40465 -0.317129 0
M  V30 11043 H 1012.02 3.91033 1.57069 0
M  V30 11044 H 1010.74 2.69748 1.8413 0
M  V30 11045 H 1009.4 3.66553 -0.0588308 0
M  V30 11046 H 1009.05 4.4847 2.2778 0
M  V30 11047 H 1008.75 5.7747 1.08637 0
M  V30 11048 H 1010.27 5.76264 2.01871 0
M  V30 11049 H 1011.69 5.72744 -0.252448 0
M  V30 11050 H 1010.09 5.91343 -1.02146 0
M  V30 11051 H 1011.16 4.59817 -1.53936 0
M  V30 11052 N 1012.5 0.357919 1.53482 0
M  V30 11053 C 1013.46 -0.479797 2.24122 0
M  V30 11054 C 1014.46 -1.01596 1.24639 0
M  V30 11055 O 1015.65 -0.902928 1.48973 0
M  V30 11056 C 1012.78 -1.66983 2.97203 0
M  V30 11057 H 1013.98 0.138219 2.99581 0
M  V30 11058 H 1011.53 0.109484 1.55916 0
M  V30 11059 H 1012.26 -2.32615 2.25966 0
M  V30 11060 H 1012.05 -1.29242 3.70188 0
M  V30 11061 H 1013.54 -2.26367 3.50924 0
M  V30 11062 N 1013.98 -1.5736 0.0868897 0
M  V30 11063 C 1015.2 -1.98388 -0.587349 0
M  V30 11064 C 1015.62 -0.965757 -1.6223 0
M  V30 11065 O 1014.98 0.0456981 -1.82443 0
M  V30 11066 C 1015.03 -3.39479 -1.24242 0
M  V30 11067 O 1014.75 -4.37393 -0.248878 0
M  V30 11068 C 1016.25 -3.95465 -2.00305 0
M  V30 11069 H 1013.47 -0.652111 -0.15809 0
M  V30 11070 H 1016.01 -2.03843 0.163754 0
M  V30 11071 H 1014.17 -3.35063 -1.94451 0
M  V30 11072 H 1014.58 -5.19525 -0.720678 0
M  V30 11073 H 1016.06 -4.96363 -2.41511 0
M  V30 11074 H 1016.53 -3.32832 -2.86565 0
M  V30 11075 H 1017.14 -4.03328 -1.34931 0
M  V30 11076 N 1015.45 0.186762 -1.56489 0
M  V30 11077 C 1016.38 1.23395 -1.98232 0
M  V30 11078 C 1017.37 1.4702 -0.855526 0
M  V30 11079 O 1018.55 1.58616 -1.12048 0
M  V30 11080 C 1015.68 2.57635 -2.32898 0
M  V30 11081 C 1014.63 2.48607 -3.48394 0
M  V30 11082 C 1013.96 3.87196 -3.68759 0
M  V30 11083 C 1015.26 2.00398 -4.82325 0
M  V30 11084 H 1016.95 0.887026 -2.85958 0
M  V30 11085 H 1014.5 0.42525 -1.37578 0
M  V30 11086 H 1016.45 3.31082 -2.60696 0
M  V30 11087 H 1015.18 2.94084 -1.42064 0
M  V30 11088 H 1013.84 1.77615 -3.207 0
M  V30 11089 H 1013.48 4.21012 -2.75241 0
M  V30 11090 H 1013.18 3.82029 -4.46462 0
M  V30 11091 H 1014.71 4.62253 -3.98941 0
M  V30 11092 H 1016.12 2.6361 -5.091 0
M  V30 11093 H 1014.52 2.06214 -5.63556 0
M  V30 11094 H 1015.59 0.957562 -4.75351 0
M  V30 11095 N 1016.93 1.50896 0.454776 0
M  V30 11096 C 1018.16 1.66759 1.23313 0
M  V30 11097 C 1018.58 0.35722 1.84677 0
M  V30 11098 O 1017.94 -0.680771 1.68033 0
M  V30 11099 C 1017.99 2.77254 2.3057 0
M  V30 11100 O 1017.09 2.39642 3.35627 0
M  V30 11101 H 1016.43 0.556599 0.362068 0
M  V30 11102 H 1018.96 1.97365 0.539274 0
M  V30 11103 H 1018.97 3.0082 2.75629 0
M  V30 11104 H 1017.65 3.72349 1.85281 0
M  V30 11105 H 1016.23 2.26584 2.96165 0
M  V30 11106 N 1018.41 -0.709066 1.40748 0
M  V30 11107 C 1019.36 -1.84445 1.41714 0
M  V30 11108 C 1020.35 -1.66779 0.296818 0
M  V30 11109 O 1021.56 -1.73805 0.468181 0
M  V30 11110 H 1017.93 -0.607581 0.443114 0
M  V30 11111 H 1019.9 -1.80747 2.3743 0
M  V30 11112 C 1018.65 -3.22362 1.303 0
M  V30 11113 H 1017.98 -3.36565 2.15787 0
M  V30 11114 H 1019.42 -4.01922 1.35036 0
M  V30 11115 C 1017.88 -3.36897 0.0139015 0
M  V30 11116 O 1018.41 -3.90389 -0.946553 0
M  V30 11117 N 1016.61 -2.90543 -0.0577491 0
M  V30 11118 H 1016.16 -2.472 0.724574 0
M  V30 11119 H 1016.12 -3.00647 -0.919721 0
M  V30 11120 N 1019.89 -1.26353 -0.941956 0
M  V30 11121 C 1021.14 -1.11241 -1.68251 0
M  V30 11122 C 1021.45 0.344055 -1.9255 0
M  V30 11123 O 1022.66 0.615832 -2.64423 0
M  V30 11124 C 1021.11 -1.94269 -3.02965 0
M  V30 11125 C 1020.72 -3.44485 -2.86415 0
M  V30 11126 C 1022.47 -1.87764 -3.80716 0
M  V30 11127 C 1020.37 -4.19763 -4.16597 0
M  V30 11128 H 1019.3 -0.412694 -0.63103 0
M  V30 11129 H 1021.95 -1.50656 -1.04762 0
M  V30 11130 H 1020.34 -1.47687 -3.6743 0
M  V30 11131 H 1021.51 -3.9883 -2.30805 0
M  V30 11132 H 1019.82 -3.52218 -2.22107 0
M  V30 11133 H 1022.42 -2.41292 -4.77161 0
M  V30 11134 H 1022.76 -0.848195 -4.07568 0
M  V30 11135 H 1023.3 -2.32165 -3.23024 0
M  V30 11136 H 1020.04 -5.23173 -3.9493 0
M  V30 11137 H 1019.56 -3.70198 -4.71925 0
M  V30 11138 H 1021.24 -4.28168 -4.85058 0
M  V30 11139 N 1021.37 1.14642 -1.08144 0
M  V30 11140 C 1022.64 1.81774 -0.72232 0
M  V30 11141 C 1023.02 1.95587 0.794294 0
M  V30 11142 O 1022.37 1.51361 1.71178 0
M  V30 11143 C 1022.58 3.1763 -1.44611 0
M  V30 11144 C 1023.93 3.93161 -1.60343 0
M  V30 11145 O 1024.95 3.2721 -1.40755 0
M  V30 11146 O 1023.81 5.11422 -1.9264 0
M  V30 11147 H 1020.91 0.785733 -0.257978 0
M  V30 11148 H 1023.45 1.21683 -1.18285 0
M  V30 11149 H 1022.23 3.02723 -2.4794 0
M  V30 11150 H 1021.85 3.85412 -0.976892 0
M  V30 11151 N 1022.85 0.866709 1.31628 0
M  V30 11152 C 1024.09 0.472185 1.96095 0
M  V30 11153 C 1024.41 -0.979873 1.69286 0
M  V30 11154 O 1025.61 -1.48039 2.27589 0
M  V30 11155 C 1024.07 0.793468 3.51044 0
M  V30 11156 C 1023.68 2.26206 3.86697 0
M  V30 11157 C 1025.42 0.467255 4.21921 0
M  V30 11158 C 1023.33 2.52593 5.34743 0
M  V30 11159 H 1022.26 0.172846 0.733921 0
M  V30 11160 H 1024.91 1.05916 1.49847 0
M  V30 11161 H 1023.29 0.135783 3.95767 0
M  V30 11162 H 1024.47 2.96254 3.52945 0
M  V30 11163 H 1022.78 2.55399 3.28877 0
M  V30 11164 H 1025.38 0.641669 5.30836 0
M  V30 11165 H 1025.72 -0.592065 4.12068 0
M  V30 11166 H 1026.25 1.08134 3.82821 0
M  V30 11167 H 1022.99 3.57196 5.49628 0
M  V30 11168 H 1022.51 1.87136 5.6986 0
M  V30 11169 H 1024.19 2.37156 6.01968 0
M  V30 11170 N 1024.32 -1.44642 0.625825 0
M  V30 11171 C 1025.74 -1.56925 0.290992 0
M  V30 11172 C 1025.94 -1.61424 -1.20601 0
M  V30 11173 O 1025 -1.55439 -1.98985 0
M  V30 11174 C 1026.31 -2.84343 0.978242 0
M  V30 11175 C 1027.86 -2.98047 0.955882 0
M  V30 11176 C 1028.33 -4.2826 1.62349 0
M  V30 11177 N 1029.82 -4.35062 1.58983 0
M  V30 11178 C 1030.56 -5.34524 2.07538 0
M  V30 11179 N 1030.05 -6.4042 2.6426 0
M  V30 11180 N 1031.85 -5.25998 1.98198 0
M  V30 11181 H 1024 -1.39965 1.59761 0
M  V30 11182 H 1026.26 -0.670368 0.670306 0
M  V30 11183 H 1025.97 -2.86985 2.03304 0
M  V30 11184 H 1025.84 -3.73699 0.512726 0
M  V30 11185 H 1028.23 -2.94961 -0.0904292 0
M  V30 11186 H 1028.31 -2.10053 1.45984 0
M  V30 11187 H 1027.95 -4.32105 2.66923 0
M  V30 11188 H 1027.88 -5.15102 1.09441 0
M  V30 11189 H 1030.37 -3.59147 1.17565 0
M  V30 11190 H 1030.69 -7.1259 2.99056 0
M  V30 11191 H 1029.03 -6.41121 2.68308 0
M  V30 11192 H 1032.22 -4.42178 1.5361 0
M  V30 11193 H 1032.4 -6.03359 2.3635 0
M  V30 11194 N 1025.8 -0.366053 -1.5329 0
M  V30 11195 C 1027.05 0.224614 -2.00445 0
M  V30 11196 C 1027.36 1.49829 -1.2574 0
M  V30 11197 O 1028.57 2.16759 -1.63487 0
M  V30 11198 C 1027.03 0.450818 -3.57065 0
M  V30 11199 C 1026.63 -0.808257 -4.40649 0
M  V30 11200 C 1028.38 0.999116 -4.12575 0
M  V30 11201 C 1026.28 -0.551612 -5.88822 0
M  V30 11202 H 1025.21 0.0877114 -0.748881 0
M  V30 11203 H 1027.87 -0.484866 -1.76978 0
M  V30 11204 H 1026.25 1.22157 -3.76688 0
M  V30 11205 H 1027.42 -1.58184 -4.32798 0
M  V30 11206 H 1025.74 -1.27981 -3.96245 0
M  V30 11207 H 1028.33 1.20646 -5.20911 0
M  V30 11208 H 1028.68 1.96139 -3.67199 0
M  V30 11209 H 1029.21 0.288518 -3.96752 0
M  V30 11210 H 1025.95 -1.48423 -6.38475 0
M  V30 11211 H 1025.47 0.183462 -5.99519 0
M  V30 11212 H 1027.15 -0.177307 -6.46757 0
M  V30 11213 N 1027.28 1.57312 -0.0952337 0
M  V30 11214 C 1028.69 1.81589 0.433875 0
M  V30 11215 C 1029.04 1.01086 1.68155 0
M  V30 11216 O 1028.17 0.240272 2.15062 0
M  V30 11217 C 1028.76 3.29366 0.793931 0
M  V30 11218 C 1027.32 3.54407 1.26778 0
M  V30 11219 C 1026.47 2.76035 0.264518 0
M  V30 11220 H 1029.42 1.55426 -0.320675 0
M  V30 11221 H 1029.44 3.42697 1.65345 0
M  V30 11222 H 1028.95 3.87932 -0.114334 0
M  V30 11223 H 1027.05 3.01173 2.19376 0
M  V30 11224 H 1027.17 4.63055 1.22952 0
M  V30 11225 H 1025.53 2.43509 0.746691 0
M  V30 11226 H 1026.31 3.37349 -0.636429 0
M  V30 11227 N 1028.76 -0.17846 1.56586 0
M  V30 11228 C 1029.99 -0.911996 1.85715 0
M  V30 11229 C 1030.4 -1.76138 0.679766 0
M  V30 11230 O 1029.76 -1.79088 -0.351266 0
M  V30 11231 C 1029.81 -1.79459 3.1381 0
M  V30 11232 O 1029.53 -0.979476 4.2701 0
M  V30 11233 C 1031.03 -2.6384 3.56235 0
M  V30 11234 H 1028.25 -0.265299 0.616326 0
M  V30 11235 H 1030.79 -0.180704 2.037 0
M  V30 11236 H 1028.95 -2.4793 2.97673 0
M  V30 11237 H 1029.36 -1.58244 5.00059 0
M  V30 11238 H 1030.84 -3.21396 4.48786 0
M  V30 11239 H 1031.31 -3.38363 2.80013 0
M  V30 11240 H 1031.92 -2.00712 3.7496 0
M  V30 11241 N 1030.24 -1.51135 -0.446768 0
M  V30 11242 C 1031.48 -1.63013 -1.19461 0
M  V30 11243 C 1031.8 -0.344067 -1.91941 0
M  V30 11244 O 1031.07 0.639666 -1.85162 0
M  V30 11245 H 1029.65 -0.600757 -0.443959 0
M  V30 11246 H 1032.32 -1.88024 -0.513137 0
M  V30 11247 H 1031.41 -2.45322 -1.92933 0
M  V30 11248 N 1031.71 0.701592 -1.41122 0
M  V30 11249 C 1032.65 1.8268 -1.38422 0
M  V30 11250 C 1033.66 1.60244 -0.287342 0
M  V30 11251 O 1034.85 1.69859 -0.548658 0
M  V30 11252 C 1031.95 3.19338 -1.13475 0
M  V30 11253 C 1031.12 3.68853 -2.35088 0
M  V30 11254 C 1030.18 4.84163 -2.06089 0
M  V30 11255 O 1029.21 4.9609 -2.79077 0
M  V30 11256 N 1030.41 5.70972 -1.04743 0
M  V30 11257 H 1033.17 1.8549 -2.35401 0
M  V30 11258 H 1030.73 0.883682 -1.35656 0
M  V30 11259 H 1032.73 3.94095 -0.920377 0
M  V30 11260 H 1031.3 3.11589 -0.251152 0
M  V30 11261 H 1030.52 2.8507 -2.72266 0
M  V30 11262 H 1031.8 3.98673 -3.16129 0
M  V30 11263 H 1031.2 5.63961 -0.443221 0
M  V30 11264 H 1029.76 6.45654 -0.892949 0
M  V30 11265 N 1033.19 1.2685 0.935242 0
M  V30 11266 C 1034.12 1.1143 2.05196 0
M  V30 11267 C 1035.1 0.0178362 1.70091 0
M  V30 11268 O 1036.29 0.190951 1.93259 0
M  V30 11269 C 1033.42 0.752779 3.39044 0
M  V30 11270 C 1032.37 1.80164 3.88233 0
M  V30 11271 C 1031.7 1.29428 5.18799 0
M  V30 11272 C 1033 3.20431 4.12457 0
M  V30 11273 H 1034.69 2.04845 2.18355 0
M  V30 11274 H 1032.24 0.986276 1.04922 0
M  V30 11275 H 1034.19 0.631757 4.16637 0
M  V30 11276 H 1032.91 -0.217075 3.25878 0
M  V30 11277 H 1031.57 1.91144 3.12825 0
M  V30 11278 H 1031.22 0.3141 5.02018 0
M  V30 11279 H 1030.92 1.99546 5.5268 0
M  V30 11280 H 1032.45 1.18605 5.9897 0
M  V30 11281 H 1033.86 3.12495 4.80645 0
M  V30 11282 H 1032.26 3.88193 4.57631 0
M  V30 11283 H 1033.33 3.66046 3.18023 0
M  V30 11284 N 1034.67 -1.14067 1.0875 0
M  V30 11285 C 1035.9 -1.89041 0.840902 0
M  V30 11286 C 1036.31 -1.78768 -0.60725 0
M  V30 11287 O 1035.67 -1.14945 -1.41753 0
M  V30 11288 C 1035.72 -3.38891 1.25838 0
M  V30 11289 O 1035.44 -3.48886 2.64972 0
M  V30 11290 C 1036.94 -4.30852 1.04315 0
M  V30 11291 H 1034.16 -0.598685 0.303014 0
M  V30 11292 H 1036.71 -1.44438 1.44769 0
M  V30 11293 H 1034.86 -3.81103 0.695627 0
M  V30 11294 H 1035.28 -4.41989 2.82393 0
M  V30 11295 H 1036.75 -5.34353 1.38461 0
M  V30 11296 H 1037.23 -4.39196 -0.0195784 0
M  V30 11297 H 1037.83 -3.944 1.59151 0
M  V30 11298 N 1036.15 -0.873678 -1.31166 0
M  V30 11299 C 1037.08 -0.276805 -2.26515 0
M  V30 11300 C 1038.06 0.596166 -1.51277 0
M  V30 11301 O 1039.24 0.548769 -1.80335 0
M  V30 11302 C 1036.37 0.607711 -3.33203 0
M  V30 11303 C 1035.42 -0.194411 -4.26057 0
M  V30 11304 S 1036.25 -1.57534 -5.11804 0
M  V30 11305 C 1037.41 -0.697047 -6.22006 0
M  V30 11306 H 1037.64 -1.08505 -2.76792 0
M  V30 11307 H 1035.17 -0.672419 -1.38989 0
M  V30 11308 H 1037.13 1.11234 -3.95142 0
M  V30 11309 H 1035.79 1.38994 -2.81673 0
M  V30 11310 H 1034.98 0.480094 -5.01708 0
M  V30 11311 H 1034.59 -0.631262 -3.68634 0
M  V30 11312 H 1036.88 0.0907919 -6.77439 0
M  V30 11313 H 1037.82 -1.42481 -6.93617 0
M  V30 11314 H 1038.23 -0.262954 -5.63887 0
M  V30 11315 N 1037.63 1.44308 -0.633487 0
M  V30 11316 C 1038.88 2.01239 -0.136356 0
M  V30 11317 C 1039.19 1.50438 1.25011 0
M  V30 11318 O 1040.39 1.99513 1.84138 0
M  V30 11319 C 1038.85 3.59382 -0.193011 0
M  V30 11320 C 1038.46 4.19178 -1.58093 0
M  V30 11321 C 1040.2 4.23778 0.247534 0
M  V30 11322 C 1038.11 5.69553 -1.59258 0
M  V30 11323 H 1037.04 0.752521 -0.0472109 0
M  V30 11324 H 1039.69 1.65498 -0.79263 0
M  V30 11325 H 1038.07 3.92432 0.530408 0
M  V30 11326 H 1039.25 3.97662 -2.32813 0
M  V30 11327 H 1037.56 3.67079 -1.96576 0
M  V30 11328 H 1040.16 5.34075 0.258401 0
M  V30 11329 H 1040.5 3.96285 1.27529 0
M  V30 11330 H 1041.03 3.9554 -0.423469 0
M  V30 11331 H 1037.77 6.01784 -2.59878 0
M  V30 11332 H 1037.29 5.93185 -0.888352 0
M  V30 11333 H 1038.97 6.33234 -1.32756 0
M  V30 11334 N 1039.1 0.374177 1.53094 0
M  V30 11335 C 1040.35 -0.213131 2.01677 0
M  V30 11336 C 1040.68 -1.47715 1.26071 0
M  V30 11337 O 1039.96 -1.91199 0.356834 0
M  V30 11338 C 1040.24 -0.496392 3.56662 0
M  V30 11339 C 1040.09 0.781859 4.42953 0
M  V30 11340 C 1041.41 -1.29339 4.20666 0
M  V30 11341 H 1038.53 -0.0759885 0.733072 0
M  V30 11342 H 1041.17 0.500765 1.83282 0
M  V30 11343 H 1039.32 -1.10455 3.72467 0
M  V30 11344 H 1041 1.41914 4.38928 0
M  V30 11345 H 1039.24 1.40041 4.10574 0
M  V30 11346 H 1039.91 0.538508 5.49367 0
M  V30 11347 H 1042.39 -0.778848 4.08746 0
M  V30 11348 H 1041.26 -1.46033 5.29118 0
M  V30 11349 H 1041.52 -2.30435 3.77296 0
M  V30 11350 N 1040.58 -1.57259 0.103575 0
M  V30 11351 C 1041.83 -1.94272 -0.557024 0
M  V30 11352 C 1042.15 -0.986739 -1.68192 0
M  V30 11353 O 1041.42 -0.0402818 -1.95859 0
M  V30 11354 H 1040 -0.717237 -0.208757 0
M  V30 11355 H 1042.66 -1.94167 0.168898 0
M  V30 11356 H 1041.76 -2.96914 -0.961691 0
M  V30 11357 N 1042.06 0.170153 -1.56679 0
M  V30 11358 C 1042.99 1.23525 -1.93066 0
M  V30 11359 C 1044.01 1.40414 -0.823879 0
M  V30 11360 O 1045.19 1.40396 -1.10232 0
M  V30 11361 C 1042.29 2.60376 -2.16928 0
M  V30 11362 C 1041.47 2.6477 -3.4816 0
M  V30 11363 C 1040.53 3.82993 -3.60837 0
M  V30 11364 O 1039.55 3.68937 -4.33444 0
M  V30 11365 N 1040.75 4.99498 -2.95773 0
M  V30 11366 H 1043.52 0.926172 -2.8503 0
M  V30 11367 H 1041.08 0.359909 -1.57849 0
M  V30 11368 H 1043.07 3.37934 -2.22672 0
M  V30 11369 H 1041.64 2.83669 -1.31342 0
M  V30 11370 H 1040.86 1.73298 -3.54064 0
M  V30 11371 H 1042.15 2.64717 -4.34514 0
M  V30 11372 H 1041.55 5.13819 -2.36657 0
M  V30 11373 H 1040.11 5.74914 -3.07111 0
M  V30 11374 N 1043.54 1.5137 0.438746 0
M  V30 11375 C 1044.78 1.64211 1.19006 0
M  V30 11376 C 1045.12 0.356607 1.90898 0
M  V30 11377 O 1044.39 -0.643722 1.83539 0
M  V30 11378 C 1044.68 2.8445 2.20817 0
M  V30 11379 C 1044.53 4.22972 1.53018 0
M  V30 11380 C 1045.85 3.00207 3.21813 0
M  V30 11381 H 1042.97 0.597628 0.431288 0
M  V30 11382 H 1045.61 1.8385 0.479487 0
M  V30 11383 H 1043.76 2.67836 2.81418 0
M  V30 11384 H 1045.43 4.5125 0.957654 0
M  V30 11385 H 1043.67 4.25736 0.832556 0
M  V30 11386 H 1044.34 5.03094 2.27158 0
M  V30 11387 H 1046.82 3.15522 2.71266 0
M  V30 11388 H 1045.7 3.85904 3.90345 0
M  V30 11389 H 1045.96 2.12216 3.87836 0
M  V30 11390 N 1045.02 -0.694098 1.41492 0
M  V30 11391 C 1046.26 -1.45127 1.4065 0
M  V30 11392 C 1046.59 -1.94993 0.0170289 0
M  V30 11393 O 1045.86 -1.71799 -0.941372 0
M  V30 11394 H 1044.44 -0.538493 0.51772 0
M  V30 11395 H 1047.1 -0.821441 1.76744 0
M  V30 11396 H 1046.19 -2.31372 2.0946 0
M  V30 11397 N 1046.49 -1.27344 -0.928501 0
M  V30 11398 C 1047.73 -1.14871 -1.69068 0
M  V30 11399 C 1048.1 0.300603 -1.89632 0
M  V30 11400 O 1049.3 0.547743 -2.6316 0
M  V30 11401 C 1047.57 -1.90992 -3.02087 0
M  V30 11402 S 1049.13 -1.94722 -3.93229 0
M  V30 11403 H 1045.95 -0.410095 -0.580812 0
M  V30 11404 H 1048.55 -1.61242 -1.1055 0
M  V30 11405 H 1047.25 -2.95484 -2.84811 0
M  V30 11406 H 1046.78 -1.45112 -3.65658 0
M  V30 11407 H 1048.8 -1.04306 -4.85113 0
M  V30 11408 N 1047.97 1.13488 -1.09353 0
M  V30 11409 C 1049.22 1.84383 -0.827488 0
M  V30 11410 C 1049.54 1.83892 0.648745 0
M  V30 11411 O 1048.81 1.29415 1.47066 0
M  V30 11412 H 1047.39 0.682732 -0.303127 0
M  V30 11413 H 1050.05 1.37477 -1.38152 0
M  V30 11414 H 1049.15 2.88919 -1.18035 0
M  V30 11415 N 1049.45 0.880621 1.30701 0
M  V30 11416 C 1050.4 0.342397 2.28246 0
M  V30 11417 C 1051.37 -0.565023 1.56194 0
M  V30 11418 O 1052.55 -0.494377 1.84284 0
M  V30 11419 C 1049.69 -0.440859 3.42272 0
M  V30 11420 C 1048.81 0.495284 4.29151 0
M  V30 11421 C 1047.94 -0.303141 5.30334 0
M  V30 11422 C 1046.98 0.628751 6.08862 0
M  V30 11423 N 1046.12 -0.13408 7.01972 0
M  V30 11424 H 1050.96 1.17938 2.73669 0
M  V30 11425 H 1048.49 0.59296 1.34619 0
M  V30 11426 H 1050.45 -0.910854 4.07135 0
M  V30 11427 H 1049.08 -1.24245 2.97931 0
M  V30 11428 H 1048.13 1.08376 3.64635 0
M  V30 11429 H 1049.45 1.2094 4.83916 0
M  V30 11430 H 1048.6 -0.835181 6.00924 0
M  V30 11431 H 1047.34 -1.05049 4.76252 0
M  V30 11432 H 1046.34 1.17246 5.37153 0
M  V30 11433 H 1047.57 1.37512 6.65032 0
M  V30 11434 H 1045.52 -0.864046 6.50285 0
M  V30 11435 H 1045.43 0.520486 7.54206 0
M  V30 11436 H 1046.7 -0.647005 7.7681 0
M  V30 11437 N 1050.93 -1.4397 0.641131 0
M  V30 11438 C 1052.15 -2.06818 0.155318 0
M  V30 11439 C 1052.58 -1.47665 -1.16519 0
M  V30 11440 O 1051.94 -0.58192 -1.71707 0
M  V30 11441 C 1051.99 -3.60542 0.0647537 0
M  V30 11442 O 1051.09 -4.00674 -0.976447 0
M  V30 11443 H 1050.43 -0.657962 0.0893404 0
M  V30 11444 H 1052.96 -1.84678 0.88064 0
M  V30 11445 H 1052.97 -4.07816 -0.122552 0
M  V30 11446 H 1051.65 -4.02975 1.02878 0
M  V30 11447 H 1050.22 -3.65013 -0.762905 0
M  V30 11448 N 1052.41 -0.382291 -1.52893 0
M  V30 11449 C 1053.63 0.204961 -2.06385 0
M  V30 11450 C 1054.06 1.40316 -1.25271 0
M  V30 11451 O 1053.42 1.79187 -0.275969 0
M  V30 11452 C 1053.46 0.560205 -3.56222 0
M  V30 11453 O 1052.57 1.65515 -3.77728 0
M  V30 11454 H 1051.91 0.0258798 -0.663495 0
M  V30 11455 H 1054.44 -0.547733 -1.97132 0
M  V30 11456 H 1054.45 0.826501 -3.99541 0
M  V30 11457 H 1053.12 -0.31584 -4.14699 0
M  V30 11458 H 1051.7 1.38311 -3.46301 0
M  V30 11459 N 1053.89 1.57202 -0.111913 0
M  V30 11460 C 1054.82 2.17957 0.837683 0
M  V30 11461 C 1055.8 1.1176 1.28233 0
M  V30 11462 O 1056.98 1.39967 1.34621 0
M  V30 11463 C 1054.11 2.77333 2.09054 0
M  V30 11464 C 1053.07 3.8905 1.78393 0
M  V30 11465 C 1052.39 4.35203 3.10649 0
M  V30 11466 C 1053.69 5.11477 1.05775 0
M  V30 11467 H 1055.39 2.9756 0.331441 0
M  V30 11468 H 1052.93 1.43131 0.157979 0
M  V30 11469 H 1054.88 3.18492 2.75936 0
M  V30 11470 H 1053.61 1.95009 2.6199 0
M  V30 11471 H 1052.27 3.48456 1.13903 0
M  V30 11472 H 1051.92 3.49747 3.61506 0
M  V30 11473 H 1051.62 5.10534 2.9091 0
M  V30 11474 H 1053.14 4.79007 3.78661 0
M  V30 11475 H 1054.55 5.497 1.62798 0
M  V30 11476 H 1052.95 5.92346 0.961573 0
M  V30 11477 H 1054.02 4.84881 0.043297 0
M  V30 11478 N 1055.36 -0.161842 1.56767 0
M  V30 11479 C 1056.29 -1.20226 2.0017 0
M  V30 11480 C 1057.27 -1.4564 0.878807 0
M  V30 11481 O 1058.46 -1.56813 1.14557 0
M  V30 11482 C 1055.59 -2.53897 2.36968 0
M  V30 11483 C 1054.54 -2.43033 3.52305 0
M  V30 11484 C 1053.87 -3.81281 3.74872 0
M  V30 11485 C 1055.17 -1.927 4.85453 0
M  V30 11486 H 1056.86 -0.84142 2.87333 0
M  V30 11487 H 1054.41 -0.403309 1.38237 0
M  V30 11488 H 1056.36 -3.26893 2.6593 0
M  V30 11489 H 1055.09 -2.91787 1.46724 0
M  V30 11490 H 1053.75 -1.7249 3.23485 0
M  V30 11491 H 1053.39 -4.1658 2.81904 0
M  V30 11492 H 1053.09 -3.74877 4.52483 0
M  V30 11493 H 1054.62 -4.55848 4.06245 0
M  V30 11494 H 1056.03 -2.55477 5.13229 0
M  V30 11495 H 1054.43 -1.97222 5.66766 0
M  V30 11496 H 1055.5 -0.881816 4.76814 0
M  V30 11497 N 1056.84 -1.516 -0.430713 0
M  V30 11498 C 1057.77 -1.76342 -1.53054 0
M  V30 11499 C 1058.75 -0.61349 -1.58652 0
M  V30 11500 O 1059.94 -0.856888 -1.74273 0
M  V30 11501 C 1057.07 -1.8945 -2.91077 0
M  V30 11502 C 1056.02 -3.04928 -3.00339 0
M  V30 11503 C 1055.35 -3.03228 -4.40405 0
M  V30 11504 C 1056.65 -4.44777 -2.73808 0
M  V30 11505 H 1058.34 -2.68435 -1.326 0
M  V30 11506 H 1055.89 -1.29171 -0.636466 0
M  V30 11507 H 1057.84 -2.05343 -3.67984 0
M  V30 11508 H 1056.56 -0.940114 -3.12777 0
M  V30 11509 H 1055.22 -2.88751 -2.25872 0
M  V30 11510 H 1054.87 -2.05553 -4.59083 0
M  V30 11511 H 1054.57 -3.80776 -4.47531 0
M  V30 11512 H 1056.1 -3.21222 -5.19277 0
M  V30 11513 H 1057.51 -4.6127 -3.40445 0
M  V30 11514 H 1055.91 -5.2408 -2.92335 0
M  V30 11515 H 1056.98 -4.54358 -1.69372 0
M  V30 11516 N 1058.32 0.686584 -1.41858 0
M  V30 11517 C 1059.28 1.78214 -1.44126 0
M  V30 11518 C 1060.28 1.57366 -0.330541 0
M  V30 11519 O 1061.47 1.63874 -0.590837 0
M  V30 11520 C 1058.6 3.16704 -1.26142 0
M  V30 11521 H 1059.8 1.77594 -2.41661 0
M  V30 11522 H 1057.35 0.895085 -1.28132 0
M  V30 11523 H 1058.09 3.22957 -0.294823 0
M  V30 11524 H 1057.87 3.33238 -2.06627 0
M  V30 11525 H 1059.36 3.96658 -1.30584 0
M  V30 11526 N 1059.8 1.27835 0.921735 0
M  V30 11527 C 1061.05 1.13904 1.6646 0
M  V30 11528 C 1061.36 -0.313379 1.93073 0
M  V30 11529 O 1062.57 -0.573687 2.6537 0
M  V30 11530 C 1061.02 1.99064 2.99836 0
M  V30 11531 C 1060.63 3.48998 2.80899 0
M  V30 11532 C 1062.37 1.93797 3.77681 0
M  V30 11533 C 1060.28 4.26337 4.09867 0
M  V30 11534 H 1059.21 0.422681 0.624385 0
M  V30 11535 H 1061.86 1.52303 1.02352 0
M  V30 11536 H 1060.24 1.53514 3.65034 0
M  V30 11537 H 1061.42 4.02452 2.24431 0
M  V30 11538 H 1059.73 3.55707 2.16476 0
M  V30 11539 H 1062.33 2.48852 4.73262 0
M  V30 11540 H 1062.67 0.912928 4.06167 0
M  V30 11541 H 1063.21 2.37275 3.19289 0
M  V30 11542 H 1059.94 5.2939 3.86557 0
M  V30 11543 H 1059.46 3.77659 4.65976 0
M  V30 11544 H 1061.14 4.3583 4.78185 0
M  V30 11545 N 1061.28 -1.12907 1.09954 0
M  V30 11546 C 1062.21 -2.20585 0.765799 0
M  V30 11547 C 1063.19 -1.68117 -0.258989 0
M  V30 11548 O 1064.37 -1.93792 -0.125853 0
M  V30 11549 C 1061.5 -3.46772 0.191435 0
M  V30 11550 C 1060.46 -4.12363 1.14635 0
M  V30 11551 C 1059.78 -5.3294 0.433426 0
M  V30 11552 C 1061.08 -4.59073 2.49096 0
M  V30 11553 H 1062.78 -2.48759 1.66612 0
M  V30 11554 H 1060.32 -1.19563 0.802534 0
M  V30 11555 H 1062.27 -4.21365 -0.0541535 0
M  V30 11556 H 1061 -3.18011 -0.744101 0
M  V30 11557 H 1059.66 -3.39744 1.37731 0
M  V30 11558 H 1059.31 -5.00444 -0.506422 0
M  V30 11559 H 1059.01 -5.77772 1.07018 0
M  V30 11560 H 1060.53 -6.10284 0.196267 0
M  V30 11561 H 1061.94 -5.25063 2.30177 0
M  V30 11562 H 1060.34 -5.14665 3.0861 0
M  V30 11563 H 1061.41 -3.73313 3.0946 0
M  V30 11564 N 1062.75 -0.88754 -1.30232 0
M  V30 11565 C 1064 -0.506277 -1.95656 0
M  V30 11566 C 1064.32 0.948191 -1.70395 0
M  V30 11567 O 1063.59 1.66701 -1.02895 0
M  V30 11568 H 1062.17 -0.184235 -0.723924 0
M  V30 11569 H 1064.83 -1.13118 -1.58715 0
M  V30 11570 H 1063.93 -0.678673 -3.04632 0
M  V30 11571 N 1064.23 1.43628 -0.648757 0
M  V30 11572 C 1065.14 2.34554 0.0463037 0
M  V30 11573 C 1066.16 1.53629 0.816952 0
M  V30 11574 O 1067.33 1.86297 0.765212 0
M  V30 11575 C 1064.4 3.3185 1.00381 0
M  V30 11576 C 1063.46 4.2868 0.230589 0
M  V30 11577 C 1062.69 5.21328 1.14249 0
M  V30 11578 O 1062.92 5.18298 2.38166 0
M  V30 11579 O 1061.85 5.98726 0.617296 0
M  V30 11580 H 1065.68 2.95475 -0.702008 0
M  V30 11581 H 1063.26 1.43694 -0.408942 0
M  V30 11582 H 1065.14 3.91692 1.5542 0
M  V30 11583 H 1063.82 2.73439 1.73243 0
M  V30 11584 H 1062.73 3.72332 -0.363282 0
M  V30 11585 H 1064.06 4.90061 -0.458368 0
M  V30 11586 N 1065.71 0.390394 1.52688 0
M  V30 11587 C 1066.64 -0.48838 2.22913 0
M  V30 11588 C 1067.62 -1.06319 1.23025 0
M  V30 11589 O 1068.81 -1.11462 1.52015 0
M  V30 11590 C 1065.93 -1.67612 2.9432 0
M  V30 11591 C 1064.98 -1.22646 4.08485 0
M  V30 11592 S 1065.81 -0.207092 5.35099 0
M  V30 11593 C 1066.97 -1.40058 6.10028 0
M  V30 11594 H 1067.2 0.107949 2.97104 0
M  V30 11595 H 1064.73 0.174588 1.5341 0
M  V30 11596 H 1066.69 -2.35728 3.36069 0
M  V30 11597 H 1065.35 -2.24375 2.19806 0
M  V30 11598 H 1064.55 -2.11331 4.57554 0
M  V30 11599 H 1064.15 -0.624197 3.68754 0
M  V30 11600 H 1066.44 -2.32747 6.36266 0
M  V30 11601 H 1067.38 -0.950804 7.01687 0
M  V30 11602 H 1067.79 -1.61789 5.40818 0
M  V30 11603 N 1067.19 -1.57141 0.120249 0
M  V30 11604 C 1068.12 -2.12454 -0.859987 0
M  V30 11605 C 1069.13 -1.06755 -1.22911 0
M  V30 11606 O 1070.32 -1.34124 -1.17784 0
M  V30 11607 C 1067.42 -2.61024 -2.16147 0
M  V30 11608 C 1066.6 -3.90835 -1.96385 0
M  V30 11609 C 1065.65 -4.2499 -3.10274 0
M  V30 11610 O 1064.68 -4.93786 -2.83133 0
M  V30 11611 N 1065.88 -3.82411 -4.36741 0
M  V30 11612 H 1068.65 -2.97186 -0.387402 0
M  V30 11613 H 1066.21 -1.61773 -0.0641376 0
M  V30 11614 H 1068.2 -2.80903 -2.91334 0
M  V30 11615 H 1066.77 -1.81166 -2.5475 0
M  V30 11616 H 1065.99 -3.79853 -1.05383 0
M  V30 11617 H 1067.28 -4.75712 -1.80487 0
M  V30 11618 H 1066.68 -3.26926 -4.61666 0
M  V30 11619 H 1065.23 -4.07395 -5.08795 0
M  V30 11620 N 1068.67 0.153526 -1.5685 0
M  V30 11621 C 1069.89 0.882335 -1.87143 0
M  V30 11622 C 1070.31 1.75034 -0.707702 0
M  V30 11623 O 1069.67 1.79624 0.32273 0
M  V30 11624 C 1069.72 1.74444 -3.16625 0
M  V30 11625 O 1069.44 0.911419 -4.28515 0
M  V30 11626 C 1070.94 2.58139 -3.60388 0
M  V30 11627 H 1068.16 0.25546 -0.620469 0
M  V30 11628 H 1070.7 0.148275 -2.03962 0
M  V30 11629 H 1068.86 2.43163 -3.0158 0
M  V30 11630 H 1069.27 1.50268 -5.02513 0
M  V30 11631 H 1070.75 3.14215 -4.53842 0
M  V30 11632 H 1071.22 3.33865 -2.85361 0
M  V30 11633 H 1071.83 1.94721 -3.78105 0
M  V30 11634 N 1070.14 1.51827 0.422667 0
M  V30 11635 C 1071.07 1.77152 1.52117 0
M  V30 11636 C 1072.06 0.621895 1.58324 0
M  V30 11637 O 1073.24 0.866118 1.73816 0
M  V30 11638 C 1070.37 1.90991 2.90068 0
M  V30 11639 C 1069.32 3.06516 2.98717 0
M  V30 11640 C 1068.65 3.05559 4.38791 0
M  V30 11641 C 1069.95 4.46223 2.71445 0
M  V30 11642 H 1071.64 2.69135 1.31175 0
M  V30 11643 H 1069.19 1.29507 0.629607 0
M  V30 11644 H 1071.14 2.07291 3.6689 0
M  V30 11645 H 1069.87 0.956688 3.12274 0
M  V30 11646 H 1068.53 2.89945 2.24338 0
M  V30 11647 H 1068.17 2.07985 4.57986 0
M  V30 11648 H 1067.87 3.83144 4.45505 0
M  V30 11649 H 1069.4 3.23971 5.17566 0
M  V30 11650 H 1070.81 4.63069 3.37994 0
M  V30 11651 H 1069.21 5.25623 2.89552 0
M  V30 11652 H 1070.28 4.5525 1.6696 0
M  V30 11653 N 1071.62 -0.679052 1.4222 0
M  V30 11654 C 1072.53 -1.82221 1.47759 0
M  V30 11655 C 1073.55 -1.70092 0.3667 0
M  V30 11656 O 1074.72 -1.91718 0.616957 0
M  V30 11657 C 1071.79 -3.18332 1.37351 0
M  V30 11658 C 1070.85 -3.42449 2.58896 0
M  V30 11659 C 1070.08 -4.72067 2.48976 0
M  V30 11660 O 1070.31 -5.49683 1.5233 0
M  V30 11661 O 1069.24 -4.97333 3.39033 0
M  V30 11662 H 1073.07 -1.80504 2.44238 0
M  V30 11663 H 1070.65 -0.834251 1.23938 0
M  V30 11664 H 1072.53 -3.99563 1.33893 0
M  V30 11665 H 1071.21 -3.20696 0.439965 0
M  V30 11666 H 1070.12 -2.61083 2.6793 0
M  V30 11667 H 1071.45 -3.44912 3.51136 0
M  V30 11668 N 1073.1 -1.28322 -0.914942 0
M  V30 11669 C 1074.35 -1.15179 -1.66067 0
M  V30 11670 C 1074.67 0.300279 -1.92674 0
M  V30 11671 O 1073.94 1.20821 -1.54205 0
M  V30 11672 H 1072.52 -0.423264 -0.615513 0
M  V30 11673 H 1075.18 -1.61034 -1.09791 0
M  V30 11674 H 1074.28 -1.69048 -2.62353 0
M  V30 11675 N 1074.58 1.12322 -1.10551 0
M  V30 11676 C 1075.53 2.18087 -0.755424 0
M  V30 11677 C 1076.5 1.6391 0.268805 0
M  V30 11678 O 1077.68 1.90227 0.147813 0
M  V30 11679 C 1074.82 3.4455 -0.194713 0
M  V30 11680 C 1073.93 4.12775 -1.27439 0
M  V30 11681 C 1073.07 5.26891 -0.675194 0
M  V30 11682 C 1072.11 5.86985 -1.73536 0
M  V30 11683 N 1071.24 6.92512 -1.15635 0
M  V30 11684 H 1076.08 2.47379 -1.66155 0
M  V30 11685 H 1073.62 1.21452 -0.829924 0
M  V30 11686 H 1075.58 4.16936 0.148275 0
M  V30 11687 H 1074.21 3.15671 0.674638 0
M  V30 11688 H 1073.26 3.38556 -1.73448 0
M  V30 11689 H 1074.57 4.53506 -2.07687 0
M  V30 11690 H 1073.73 6.06046 -0.281723 0
M  V30 11691 H 1072.47 4.87442 0.158708 0
M  V30 11692 H 1071.47 5.06517 -2.13825 0
M  V30 11693 H 1072.7 6.28505 -2.57213 0
M  V30 11694 H 1070.64 6.55098 -0.343928 0
M  V30 11695 H 1070.56 7.31848 -1.89565 0
M  V30 11696 H 1071.83 7.75492 -0.789463 0
M  V30 11697 N 1076.06 0.894434 1.2976 0
M  V30 11698 C 1077.3 0.518435 1.96061 0
M  V30 11699 C 1077.64 -0.931882 1.70381 0
M  V30 11700 O 1076.91 -1.65988 1.01381 0
M  V30 11701 C 1077.19 0.80519 3.50982 0
M  V30 11702 C 1077.05 2.30683 3.86142 0
M  V30 11703 C 1078.37 0.288096 4.39156 0
M  V30 11704 H 1075.48 0.18983 0.712133 0
M  V30 11705 H 1078.13 1.12016 1.53468 0
M  V30 11706 H 1076.28 0.293071 3.87393 0
M  V30 11707 H 1077.95 2.88808 3.59705 0
M  V30 11708 H 1076.19 2.76968 3.33873 0
M  V30 11709 H 1076.86 2.45805 4.94251 0
M  V30 11710 H 1079.34 0.726547 4.09708 0
M  V30 11711 H 1078.21 0.517985 5.4645 0
M  V30 11712 H 1078.48 -0.811018 4.34597 0
M  V30 11713 N 1077.53 -1.43282 0.656365 0
M  V30 11714 C 1078.48 -2.27932 -0.0557069 0
M  V30 11715 C 1079.47 -1.40075 -0.791698 0
M  V30 11716 O 1080.66 -1.6368 -0.673646 0
M  V30 11717 C 1077.79 -3.27821 -1.01923 0
M  V30 11718 C 1076.88 -4.23164 -0.281545 0
M  V30 11719 N 1077.27 -5.00882 0.703629 0
M  V30 11720 C 1075.56 -4.42928 -0.522558 0
M  V30 11721 C 1076.27 -5.70384 1.14177 0
M  V30 11722 N 1075.24 -5.41517 0.475394 0
M  V30 11723 H 1079.04 -2.85437 0.70022 0
M  V30 11724 H 1076.56 -1.55023 0.483902 0
M  V30 11725 H 1078.55 -3.87248 -1.54418 0
M  V30 11726 H 1077.21 -2.71878 -1.77518 0
M  V30 11727 H 1078.23 -5.06461 1.08247 0
M  V30 11728 H 1074.9 -3.98051 -1.25944 0
M  V30 11729 H 1076.29 -6.42765 1.95711 0
M  V30 11730 N 1079.01 -0.398486 -1.52479 0
M  V30 11731 C 1080.26 0.17345 -2.02659 0
M  V30 11732 C 1080.61 1.43702 -1.27935 0
M  V30 11733 O 1079.91 1.87916 -0.37392 0
M  V30 11734 C 1080.1 0.485909 -3.54081 0
M  V30 11735 C 1079.93 -0.745833 -4.43472 0
M  V30 11736 C 1078.7 -1.26785 -4.89136 0
M  V30 11737 C 1080.9 -1.62085 -4.88091 0
M  V30 11738 N 1078.88 -2.45619 -5.62623 0
M  V30 11739 C 1080.25 -2.65552 -5.60252 0
M  V30 11740 C 1082.31 -1.63986 -4.7012 0
M  V30 11741 C 1081.01 -3.70818 -6.1635 0
M  V30 11742 C 1083.04 -2.68164 -5.27107 0
M  V30 11743 C 1082.4 -3.70353 -5.99181 0
M  V30 11744 H 1078.5 0.0253159 -0.78159 0
M  V30 11745 H 1081.08 -0.550442 -1.86757 0
M  V30 11746 H 1079.25 1.17885 -3.70078 0
M  V30 11747 H 1080.98 1.0458 -3.90954 0
M  V30 11748 H 1077.74 -0.827472 -4.66315 0
M  V30 11749 H 1078.16 -3.05771 -6.04014 0
M  V30 11750 H 1082.8 -0.863253 -4.13893 0
M  V30 11751 H 1080.52 -4.49341 -6.71653 0
M  V30 11752 H 1084.11 -2.7053 -5.15077 0
M  V30 11753 H 1082.99 -4.49642 -6.42489 0
M  V30 11754 N 1080.49 1.57075 -0.12858 0
M  V30 11755 C 1081.72 2.00305 0.537839 0
M  V30 11756 C 1082.14 1.00787 1.58819 0
M  V30 11757 O 1081.5 -0.0190839 1.8129 0
M  V30 11758 C 1081.55 3.42371 1.13201 0
M  V30 11759 O 1080.65 3.45786 2.24735 0
M  V30 11760 H 1079.99 0.650456 0.133428 0
M  V30 11761 H 1082.52 2.03415 -0.219882 0
M  V30 11762 H 1082.53 3.80783 1.4652 0
M  V30 11763 H 1081.21 4.14315 0.362713 0
M  V30 11764 H 1079.78 3.19201 1.92783 0
M  V30 11765 N 1081.97 -0.145205 1.5693 0
M  V30 11766 C 1082.92 -1.19841 1.99351 0
M  V30 11767 C 1083.91 -1.44371 0.886197 0
M  V30 11768 O 1085.12 -1.44642 1.07138 0
M  V30 11769 H 1081.49 -0.403437 0.63462 0
M  V30 11770 H 1083.46 -0.813932 2.87085 0
M  V30 11771 C 1082.21 -2.52377 2.39167 0
M  V30 11772 H 1081.54 -2.34332 3.23927 0
M  V30 11773 H 1082.98 -3.24694 2.72671 0
M  V30 11774 C 1081.43 -3.1305 1.24503 0
M  V30 11775 O 1081.96 -3.97962 0.546739 0
M  V30 11776 N 1080.17 -2.72528 1.00882 0
M  V30 11777 H 1079.72 -2.03576 1.57843 0
M  V30 11778 H 1079.68 -3.13456 0.24351 0
M  V30 11779 N 1083.45 -1.52049 -0.414609 0
M  V30 11780 C 1084.69 -1.66084 -1.16379 0
M  V30 11781 C 1085.03 -0.386932 -1.90306 0
M  V30 11782 O 1084.3 0.614441 -1.8454 0
M  V30 11783 C 1084.58 -2.87927 -2.16264 0
M  V30 11784 C 1084.44 -4.25353 -1.46269 0
M  V30 11785 C 1085.76 -3.05289 -3.16996 0
M  V30 11786 H 1082.88 -0.604414 -0.421726 0
M  V30 11787 H 1085.52 -1.8459 -0.450177 0
M  V30 11788 H 1083.67 -2.7228 -2.77121 0
M  V30 11789 H 1085.34 -4.52717 -0.885743 0
M  V30 11790 H 1083.58 -4.27006 -0.76472 0
M  V30 11791 H 1084.25 -5.06644 -2.19126 0
M  V30 11792 H 1086.73 -3.19798 -2.66212 0
M  V30 11793 H 1085.61 -3.92065 -3.84156 0
M  V30 11794 H 1085.87 -2.1836 -3.84411 0
M  V30 11795 N 1084.93 0.6715 -1.42579 0
M  V30 11796 C 1085.87 1.80623 -1.46554 0
M  V30 11797 C 1086.87 1.65934 -0.340932 0
M  V30 11798 O 1088.07 1.72502 -0.514098 0
M  V30 11799 H 1084.45 0.595619 -0.459067 0
M  V30 11800 H 1086.42 1.74388 -2.42139 0
M  V30 11801 C 1085.17 3.18794 -1.38801 0
M  V30 11802 H 1084.49 3.30725 -2.24635 0
M  V30 11803 H 1085.93 3.98201 -1.45645 0
M  V30 11804 C 1084.39 3.36742 -0.103219 0
M  V30 11805 O 1084.92 3.92761 0.842715 0
M  V30 11806 N 1083.13 2.90594 -0.0193034 0
M  V30 11807 H 1082.67 2.45192 -0.78986 0
M  V30 11808 H 1082.63 3.0298 0.839686 0
M  V30 11809 N 1086.4 1.28806 0.908124 0
M  V30 11810 C 1087.31 1.15079 2.04436 0
M  V30 11811 C 1088.33 0.076012 1.73834 0
M  V30 11812 O 1089.51 0.286421 1.99353 0
M  V30 11813 C 1086.57 0.819733 3.3687 0
M  V30 11814 C 1085.63 1.97746 3.81045 0
M  V30 11815 C 1084.86 1.66211 5.07158 0
M  V30 11816 O 1085.09 0.579092 5.67453 0
M  V30 11817 O 1084.02 2.5075 5.47182 0
M  V30 11818 H 1087.85 2.10477 2.18937 0
M  V30 11819 H 1085.43 1.08177 1.03044 0
M  V30 11820 H 1087.31 0.649304 4.16368 0
M  V30 11821 H 1085.99 -0.10454 3.23531 0
M  V30 11822 H 1084.9 2.20308 3.02349 0
M  V30 11823 H 1086.23 2.88264 3.98955 0
M  V30 11824 N 1087.88 -1.11734 1.11145 0
M  V30 11825 C 1089.11 -1.87755 0.881062 0
M  V30 11826 C 1089.53 -1.79461 -0.563496 0
M  V30 11827 O 1088.89 -1.15481 -1.39763 0
M  V30 11828 C 1088.94 -3.34641 1.34342 0
M  V30 11829 O 1088.04 -4.09195 0.513157 0
M  V30 11830 H 1087.38 -0.583111 0.317613 0
M  V30 11831 H 1089.91 -1.41256 1.48013 0
M  V30 11832 H 1089.92 -3.85486 1.33658 0
M  V30 11833 H 1088.6 -3.39994 2.39534 0
M  V30 11834 H 1087.17 -3.68269 0.585833 0
M  V30 11835 N 1089.36 -0.901303 -1.29284 0
M  V30 11836 C 1090.27 -0.3849 -2.31421 0
M  V30 11837 C 1091.29 0.521163 -1.66012 0
M  V30 11838 O 1092.46 0.410356 -1.97175 0
M  V30 11839 C 1089.53 0.377804 -3.44635 0
M  V30 11840 C 1088.59 -0.559974 -4.25632 0
M  V30 11841 C 1087.82 0.166425 -5.3344 0
M  V30 11842 O 1088.04 1.39012 -5.53202 0
M  V30 11843 O 1086.98 -0.491875 -5.99887 0
M  V30 11844 H 1090.8 -1.2323 -2.77575 0
M  V30 11845 H 1088.39 -0.665683 -1.3375 0
M  V30 11846 H 1090.27 0.809041 -4.13561 0
M  V30 11847 H 1088.95 1.20124 -3.00586 0
M  V30 11848 H 1087.85 -1.04036 -3.59343 0
M  V30 11849 H 1089.19 -1.34987 -4.73328 0
M  V30 11850 N 1090.84 1.42931 -0.663954 0
M  V30 11851 C 1092.25 1.84877 -0.260283 0
M  V30 11852 C 1092.6 1.5558 1.19538 0
M  V30 11853 O 1091.72 1.01015 1.91377 0
M  V30 11854 C 1092.32 3.35585 -0.465618 0
M  V30 11855 C 1090.88 3.76221 -0.116169 0
M  V30 11856 C 1090.03 2.66587 -0.763317 0
M  V30 11857 H 1092.98 1.32932 -0.866882 0
M  V30 11858 H 1093 3.79427 0.285608 0
M  V30 11859 H 1092.51 3.56877 -1.52515 0
M  V30 11860 H 1090.61 3.60539 0.940342 0
M  V30 11861 H 1090.72 4.75943 -0.549123 0
M  V30 11862 H 1089.09 2.53948 -0.19559 0
M  V30 11863 H 1089.87 2.90704 -1.82609 0
M  V30 11864 N 1092.32 0.406567 1.52266 0
M  V30 11865 C 1093.54 -0.172101 2.06685 0
M  V30 11866 C 1093.97 -1.38306 1.27488 0
M  V30 11867 O 1093.32 -1.78726 0.304441 0
M  V30 11868 C 1093.37 -0.503463 3.57068 0
M  V30 11869 O 1092.48 -1.59485 3.80314 0
M  V30 11870 H 1091.82 -0.0153209 0.663823 0
M  V30 11871 H 1094.35 0.579025 1.96236 0
M  V30 11872 H 1094.36 -0.762833 4.00805 0
M  V30 11873 H 1093.03 0.381775 4.14144 0
M  V30 11874 H 1091.61 -1.32784 3.48458 0
M  V30 11875 N 1093.79 -1.57004 0.136909 0
M  V30 11876 C 1095.04 -1.95797 -0.516711 0
M  V30 11877 C 1095.37 -1.02123 -1.65533 0
M  V30 11878 O 1094.62 -0.0484835 -1.9564 0
M  V30 11879 C 1094.92 -3.40903 -1.07331 0
M  V30 11880 C 1094.59 -4.50867 -0.0541941 0
M  V30 11881 C 1093.25 -4.80669 0.225988 0
M  V30 11882 C 1095.6 -5.17264 0.639361 0
M  V30 11883 C 1092.93 -5.74177 1.2057 0
M  V30 11884 C 1095.28 -6.11827 1.60783 0
M  V30 11885 C 1093.95 -6.40012 1.89581 0
M  V30 11886 H 1093.22 -0.716471 -0.189078 0
M  V30 11887 H 1095.86 -1.90213 0.221605 0
M  V30 11888 H 1094.17 -3.43268 -1.88876 0
M  V30 11889 H 1095.87 -3.6824 -1.58745 0
M  V30 11890 H 1092.46 -4.27666 -0.282754 0
M  V30 11891 H 1096.64 -4.9438 0.436085 0
M  V30 11892 H 1091.9 -5.94312 1.43538 0
M  V30 11893 H 1096.07 -6.62354 2.15081 0
M  V30 11894 H 1093.7 -7.12274 2.65649 0
M  V30 11895 N 1095.27 0.136881 -1.57004 0
M  V30 11896 C 1096.18 1.18793 -2.023 0
M  V30 11897 C 1097.2 1.46412 -0.94018 0
M  V30 11898 O 1098.37 1.57883 -1.2504 0
M  V30 11899 C 1095.44 2.49903 -2.40311 0
M  V30 11900 C 1094.5 2.29841 -3.6259 0
M  V30 11901 C 1093.73 3.54699 -3.98779 0
M  V30 11902 O 1093.96 4.61291 -3.3551 0
M  V30 11903 O 1092.89 3.46761 -4.91976 0
M  V30 11904 H 1096.72 0.833345 -2.92043 0
M  V30 11905 H 1094.3 0.346361 -1.4533 0
M  V30 11906 H 1096.18 3.27183 -2.65574 0
M  V30 11907 H 1094.86 2.84872 -1.5372 0
M  V30 11908 H 1093.77 1.50478 -3.42501 0
M  V30 11909 H 1095.1 1.99784 -4.4983 0
M  V30 11910 N 1096.75 1.52266 0.40654 0
M  V30 11911 C 1097.71 1.75168 1.47814 0
M  V30 11912 C 1098.71 0.621575 1.48301 0
M  V30 11913 O 1099.9 0.889476 1.4978 0
M  V30 11914 C 1097.04 1.83642 2.87208 0
M  V30 11915 H 1098.23 2.70834 1.28798 0
M  V30 11916 H 1095.78 1.42722 0.637196 0
M  V30 11917 H 1096.52 0.898994 3.1159 0
M  V30 11918 H 1096.3 2.65801 2.88257 0
M  V30 11919 H 1097.79 2.03093 3.64888 0
M  V30 11920 N 1098.23 -0.663929 1.42933 0
M  V30 11921 C 1099.46 -1.45192 1.474 0
M  V30 11922 C 1099.87 -1.88592 0.0886014 0
M  V30 11923 O 1099.23 -1.58824 -0.898962 0
M  V30 11924 C 1099.28 -2.69394 2.41059 0
M  V30 11925 O 1099 -2.27812 3.7421 0
M  V30 11926 C 1100.5 -3.62855 2.54659 0
M  V30 11927 H 1097.72 -0.446394 0.500973 0
M  V30 11928 H 1100.27 -0.814875 1.87563 0
M  V30 11929 H 1098.42 -3.29262 2.0412 0
M  V30 11930 H 1098.83 -3.08095 4.24474 0
M  V30 11931 H 1100.31 -4.46698 3.24291 0
M  V30 11932 H 1100.79 -4.09487 1.58799 0
M  V30 11933 H 1101.39 -3.08874 2.92364 0
M  V30 11934 N 1099.71 -1.29285 -0.901281 0
M  V30 11935 C 1101.12 -1.07263 -1.18182 0
M  V30 11936 C 1101.32 0.177087 -2.0072 0
M  V30 11937 O 1100.38 0.875292 -2.36844 0
M  V30 11938 C 1101.69 -2.32717 -1.9043 0
M  V30 11939 C 1103.24 -2.3802 -2.03262 0
M  V30 11940 C 1103.71 -3.63273 -2.7892 0
M  V30 11941 N 1105.21 -3.63986 -2.86475 0
M  V30 11942 C 1105.94 -4.57585 -3.45549 0
M  V30 11943 N 1105.44 -5.61513 -4.05801 0
M  V30 11944 N 1107.23 -4.45157 -3.43208 0
M  V30 11945 H 1099.38 -2.09487 -0.350536 0
M  V30 11946 H 1101.64 -0.922647 -0.217778 0
M  V30 11947 H 1101.35 -3.23828 -1.37216 0
M  V30 11948 H 1101.22 -2.40102 -2.90913 0
M  V30 11949 H 1103.61 -1.47398 -2.55652 0
M  V30 11950 H 1103.69 -2.3462 -1.01916 0
M  V30 11951 H 1103.34 -4.54246 -2.27206 0
M  V30 11952 H 1103.27 -3.6393 -3.80608 0
M  V30 11953 H 1105.76 -2.8884 -2.43679 0
M  V30 11954 H 1106.07 -6.29058 -4.48894 0
M  V30 11955 H 1104.41 -5.65325 -4.04268 0
M  V30 11956 H 1107.61 -3.63158 -2.95354 0
M  V30 11957 H 1107.78 -5.18286 -3.88952 0
M  V30 11958 N 1101.18 1.11143 -1.11736 0
M  V30 11959 C 1102.41 1.87285 -0.891007 0
M  V30 11960 C 1102.83 1.79758 0.553971 0
M  V30 11961 O 1102.19 1.16221 1.39149 0
M  V30 11962 C 1102.24 3.33924 -1.36114 0
M  V30 11963 O 1101.34 4.08917 -0.534851 0
M  V30 11964 H 1100.69 0.581418 -0.320701 0
M  V30 11965 H 1103.22 1.40469 -1.4876 0
M  V30 11966 H 1103.23 3.84772 -1.35701 0
M  V30 11967 H 1101.9 3.38719 -2.41334 0
M  V30 11968 H 1100.48 3.67954 -0.605355 0
M  V30 11969 N 1102.66 0.908147 1.28804 0
M  V30 11970 C 1104.08 0.605474 1.47669 0
M  V30 11971 C 1104.28 -0.850759 1.82659 0
M  V30 11972 O 1103.33 -1.63029 1.92816 0
M  V30 11973 C 1104.65 1.53856 2.58358 0
M  V30 11974 C 1106.2 1.54467 2.7223 0
M  V30 11975 C 1106.67 2.46424 3.86056 0
M  V30 11976 N 1108.16 2.44519 3.93402 0
M  V30 11977 C 1108.9 3.12371 4.80845 0
M  V30 11978 N 1108.39 3.89533 5.72919 0
M  V30 11979 N 1110.19 3.01486 4.74407 0
M  V30 11980 H 1102.34 1.84988 1.04371 0
M  V30 11981 H 1104.6 0.793132 0.519274 0
M  V30 11982 H 1104.31 2.57651 2.39393 0
M  V30 11983 H 1104.18 1.26543 3.5534 0
M  V30 11984 H 1106.57 0.514127 2.90587 0
M  V30 11985 H 1106.65 1.85821 1.75796 0
M  V30 11986 H 1106.29 3.49577 3.68454 0
M  V30 11987 H 1106.22 2.12375 4.81876 0
M  V30 11988 H 1108.71 1.88464 3.27551 0
M  V30 11989 H 1109.03 4.3834 6.36457 0
M  V30 11990 H 1107.37 3.93639 5.72777 0
M  V30 11991 H 1110.56 2.40713 4.01466 0
M  V30 11992 H 1110.73 3.5464 5.42342 0
M  V30 11993 N 1104.14 -1.42577 0.671525 0
M  V30 11994 C 1105.09 -2.32591 -0.0205354 0
M  V30 11995 C 1106.08 -1.4964 -0.793993 0
M  V30 11996 O 1107.29 -1.65733 -0.702327 0
M  V30 11997 H 1103.66 -0.75157 -0.0254344 0
M  V30 11998 H 1105.63 -2.88662 0.756082 0
M  V30 11999 C 1104.38 -3.34175 -0.960316 0
M  V30 12000 H 1103.71 -3.98041 -0.374577 0
M  V30 12001 H 1105.15 -3.99752 -1.4133 0
M  V30 12002 C 1103.61 -2.66184 -2.06513 0
M  V30 12003 O 1104.14 -2.49125 -3.15119 0
M  V30 12004 N 1102.34 -2.25261 -1.83591 0
M  V30 12005 H 1101.89 -2.39336 -0.952689 0
M  V30 12006 H 1101.85 -1.80101 -2.57703 0
M  V30 12007 N 1105.62 -0.414636 -1.52048 0
M  V30 12008 C 1107.03 -0.0657806 -1.59464 0
M  V30 12009 C 1107.23 1.4225 -1.42713 0
M  V30 12010 O 1106.29 2.18996 -1.25687 0
M  V30 12011 C 1107.6 -0.565618 -2.95332 0
M  V30 12012 C 1109.15 -0.524072 -3.08581 0
M  V30 12013 C 1109.63 -1.00051 -4.46938 0
M  V30 12014 N 1111.12 -0.957555 -4.53194 0
M  V30 12015 C 1111.85 -1.29733 -5.58531 0
M  V30 12016 N 1111.35 -1.70883 -6.71395 0
M  V30 12017 N 1113.14 -1.21694 -5.48769 0
M  V30 12018 H 1105.29 -1.38325 -1.61183 0
M  V30 12019 H 1107.56 -0.568593 -0.758556 0
M  V30 12020 H 1107.26 -1.60604 -3.12888 0
M  V30 12021 H 1107.14 0.0217735 -3.77194 0
M  V30 12022 H 1109.52 0.507319 -2.90707 0
M  V30 12023 H 1109.6 -1.14759 -2.28613 0
M  V30 12024 H 1109.25 -2.03025 -4.65557 0
M  V30 12025 H 1109.18 -0.353754 -5.2541 0
M  V30 12026 H 1111.67 -0.65508 -3.72179 0
M  V30 12027 H 1111.98 -1.95105 -7.47766 0
M  V30 12028 H 1110.33 -1.74791 -6.72661 0
M  V30 12029 H 1113.52 -0.894286 -4.59478 0
M  V30 12030 H 1113.69 -1.48504 -6.30754 0
M  V30 12031 N 1107.1 1.56929 -0.145233 0
M  V30 12032 C 1108.33 2.00141 0.51257 0
M  V30 12033 C 1108.73 1.0243 1.59075 0
M  V30 12034 O 1108.08 0.0130063 1.83695 0
M  V30 12035 C 1108.14 3.39785 1.17417 0
M  V30 12036 C 1107.8 4.56365 0.240801 0
M  V30 12037 C 1108.8 5.17183 -0.530847 0
M  V30 12038 C 1106.49 5.02093 0.144221 0
M  V30 12039 C 1108.48 6.22136 -1.38654 0
M  V30 12040 C 1106.17 6.06902 -0.71508 0
M  V30 12041 C 1107.16 6.66793 -1.47907 0
M  V30 12042 O 1106.85 7.69573 -2.32405 0
M  V30 12043 H 1106.58 0.661747 0.138085 0
M  V30 12044 H 1109.14 2.04037 -0.236269 0
M  V30 12045 H 1107.37 3.32722 1.97061 0
M  V30 12046 H 1109.06 3.67115 1.73152 0
M  V30 12047 H 1109.82 4.82754 -0.466256 0
M  V30 12048 H 1105.7 4.55206 0.728613 0
M  V30 12049 H 1109.25 6.68812 -1.98333 0
M  V30 12050 H 1105.14 6.40758 -0.78097 0
M  V30 12051 H 1105.91 7.86786 -2.25634 0
M  V30 12052 N 1108.58 -0.128553 1.57075 0
M  V30 12053 C 1109.8 -0.8564 1.88893 0
M  V30 12054 C 1110.23 -1.73095 0.736196 0
M  V30 12055 O 1109.58 -1.78567 -0.313629 0
M  V30 12056 C 1109.63 -1.67368 3.19406 0
M  V30 12057 O 1108.74 -2.77973 3.04639 0
M  V30 12058 H 1108.08 -0.237424 0.620102 0
M  V30 12059 H 1110.61 -0.113821 2.04283 0
M  V30 12060 H 1110.62 -2.0649 3.51889 0
M  V30 12061 H 1109.29 -1.03161 4.02903 0
M  V30 12062 H 1107.87 -2.42123 2.83603 0
M  V30 12063 N 1110.05 -1.5248 -0.398459 0
M  V30 12064 C 1111.3 -1.67309 -1.1461 0
M  V30 12065 C 1111.63 -0.407095 -1.89885 0
M  V30 12066 O 1110.91 0.594834 -1.85181 0
M  V30 12067 C 1111.19 -2.90204 -2.13198 0
M  V30 12068 C 1111.04 -4.26881 -1.4175 0
M  V30 12069 C 1112.36 -3.08634 -3.13741 0
M  V30 12070 H 1109.48 -0.608853 -0.415292 0
M  V30 12071 H 1112.12 -1.85057 -0.430573 0
M  V30 12072 H 1110.27 -2.75204 -2.74218 0
M  V30 12073 H 1111.95 -4.53631 -0.837676 0
M  V30 12074 H 1110.19 -4.27793 -0.719387 0
M  V30 12075 H 1110.86 -5.08939 -2.1374 0
M  V30 12076 H 1113.34 -3.22603 -2.62805 0
M  V30 12077 H 1112.21 -3.96117 -3.79977 0
M  V30 12078 H 1112.47 -2.22425 -3.82073 0
M  V30 12079 N 1111.53 0.65634 -1.43283 0
M  V30 12080 C 1112.49 1.75117 -1.47874 0
M  V30 12081 C 1113.49 1.56629 -0.363846 0
M  V30 12082 O 1114.68 1.62584 -0.625464 0
M  V30 12083 C 1111.82 3.13957 -1.32831 0
M  V30 12084 H 1113.01 1.72429 -2.45374 0
M  V30 12085 H 1110.56 0.867704 -1.30002 0
M  V30 12086 H 1111.3 3.22259 -0.36326 0
M  V30 12087 H 1111.08 3.28781 -2.13649 0
M  V30 12088 H 1112.57 3.93799 -1.38969 0
M  V30 12089 N 1113.01 1.29761 0.894412 0
M  V30 12090 C 1114.24 1.20765 1.67629 0
M  V30 12091 C 1114.65 -0.233434 1.87754 0
M  V30 12092 O 1113.99 -1.16747 1.4183 0
M  V30 12093 C 1114.05 1.85542 3.07919 0
M  V30 12094 C 1113.72 3.34852 3.11004 0
M  V30 12095 C 1114.71 4.30994 2.90758 0
M  V30 12096 C 1112.4 3.76141 3.32901 0
M  V30 12097 C 1114.39 5.664 2.92352 0
M  V30 12098 C 1112.08 5.11667 3.34126 0
M  V30 12099 C 1113.08 6.06607 3.13874 0
M  V30 12100 O 1112.77 7.39659 3.14897 0
M  V30 12101 H 1112.5 0.419418 0.530155 0
M  V30 12102 H 1115.05 1.71754 1.12648 0
M  V30 12103 H 1113.28 1.29071 3.64524 0
M  V30 12104 H 1114.97 1.70795 3.68217 0
M  V30 12105 H 1115.74 4.00427 2.73648 0
M  V30 12106 H 1111.62 3.02694 3.47703 0
M  V30 12107 H 1115.16 6.40479 2.76464 0
M  V30 12108 H 1111.06 5.41877 3.50769 0
M  V30 12109 H 1111.82 7.4853 3.31127 0
M  V30 12110 N 1114.49 -1.10549 1.12324 0
M  V30 12111 C 1115.45 -2.15039 0.793156 0
M  V30 12112 C 1116.45 -1.59651 -0.19192 0
M  V30 12113 O 1117.64 -1.74167 0.0337262 0
M  V30 12114 C 1114.77 -3.40433 0.17842 0
M  V30 12115 H 1115.97 -2.4575 1.71892 0
M  V30 12116 H 1113.52 -1.25892 0.926333 0
M  V30 12117 H 1114.25 -3.15338 -0.757122 0
M  V30 12118 H 1114.04 -3.81921 0.887645 0
M  V30 12119 H 1115.53 -4.17584 -0.0360724 0
M  V30 12120 N 1115.97 -0.914965 -1.28321 0
M  V30 12121 C 1116.93 -0.409024 -2.25521 0
M  V30 12122 C 1117.93 0.465327 -1.5392 0
M  V30 12123 O 1119.12 0.26821 -1.72123 0
M  V30 12124 C 1116.25 0.413452 -3.38383 0
M  V30 12125 H 1117.44 -1.26767 -2.71791 0
M  V30 12126 H 1115 -0.694477 -1.40024 0
M  V30 12127 H 1115.73 1.29145 -2.97476 0
M  V30 12128 H 1115.52 -0.213268 -3.9152 0
M  V30 12129 H 1117.01 0.758232 -4.10659 0
M  V30 12130 N 1117.44 1.42219 -0.679077 0
M  V30 12131 C 1118.38 2.29172 0.035583 0
M  V30 12132 C 1119.39 1.43909 0.761183 0
M  V30 12133 O 1120.58 1.67584 0.61463 0
M  V30 12134 C 1117.68 3.21426 1.07419 0
M  V30 12135 C 1116.85 4.35364 0.421547 0
M  V30 12136 C 1115.91 5.08307 1.36051 0
M  V30 12137 O 1114.94 5.62678 0.859186 0
M  V30 12138 N 1116.14 5.14222 2.69362 0
M  V30 12139 H 1118.9 2.91147 -0.710865 0
M  V30 12140 H 1116.46 1.53192 -0.523821 0
M  V30 12141 H 1118.46 3.67091 1.70371 0
M  V30 12142 H 1117.03 2.60873 1.72233 0
M  V30 12143 H 1116.25 3.9229 -0.387559 0
M  V30 12144 H 1117.53 5.08789 -0.0329421 0
M  V30 12145 H 1116.93 4.71467 3.12627 0
M  V30 12146 H 1115.49 5.63519 3.27551 0
M  V30 12147 N 1118.92 0.422693 1.51826 0
M  V30 12148 C 1119.87 -0.396088 2.27376 0
M  V30 12149 C 1120.84 -1.02946 1.30351 0
M  V30 12150 O 1122.02 -1.05116 1.59233 0
M  V30 12151 C 1119.16 -1.49942 3.10824 0
M  V30 12152 C 1118.28 -0.885623 4.22825 0
M  V30 12153 C 1117.41 -1.96278 4.93608 0
M  V30 12154 C 1116.45 -1.32664 5.97551 0
M  V30 12155 N 1115.59 -2.34452 6.61798 0
M  V30 12156 H 1120.43 0.254571 2.96911 0
M  V30 12157 H 1117.96 0.137383 1.46457 0
M  V30 12158 H 1119.92 -2.15023 3.57521 0
M  V30 12159 H 1118.55 -2.11991 2.43433 0
M  V30 12160 H 1117.6 -0.123491 3.80199 0
M  V30 12161 H 1118.92 -0.381057 4.97342 0
M  V30 12162 H 1118.07 -2.69055 5.43778 0
M  V30 12163 H 1116.81 -2.50103 4.18688 0
M  V30 12164 H 1115.81 -0.584262 5.46687 0
M  V30 12165 H 1117.04 -0.7959 6.7442 0
M  V30 12166 H 1114.99 -2.87385 5.897 0
M  V30 12167 H 1114.9 -1.88845 7.32034 0
M  V30 12168 H 1116.17 -3.06757 7.16603 0
M  V30 12169 N 1120.4 -1.5685 0.153553 0
M  V30 12170 C 1121.81 -1.83074 -0.36618 0
M  V30 12171 C 1122.16 -1.07257 -1.64288 0
M  V30 12172 O 1121.29 -0.319925 -2.14022 0
M  V30 12173 C 1121.88 -3.32086 -0.671142 0
M  V30 12174 C 1120.44 -3.58868 -1.13537 0
M  V30 12175 C 1119.59 -2.76827 -0.161887 0
M  V30 12176 H 1122.54 -1.54129 0.378139 0
M  V30 12177 H 1122.56 -3.48598 -1.52512 0
M  V30 12178 H 1122.07 -3.8724 0.258234 0
M  V30 12179 H 1120.17 -3.09107 -2.08047 0
M  V30 12180 H 1120.29 -4.67299 -1.05682 0
M  V30 12181 H 1118.65 -2.46112 -0.6558 0
M  V30 12182 H 1119.43 -3.34755 0.761195 0
M  V30 12183 N 1121.88 0.120221 -1.57141 0
M  V30 12184 C 1123.12 0.824472 -1.85941 0
M  V30 12185 C 1123.48 1.77552 -0.741152 0
M  V30 12186 O 1122.77 1.89842 0.258939 0
M  V30 12187 C 1122.97 1.61338 -3.18912 0
M  V30 12188 C 1122.79 0.740224 -4.43566 0
M  V30 12189 C 1121.56 0.39553 -5.0375 0
M  V30 12190 C 1123.76 0.0584053 -5.14267 0
M  V30 12191 N 1121.74 -0.488415 -6.11954 0
M  V30 12192 C 1123.12 -0.684591 -6.16209 0
M  V30 12193 C 1125.17 -0.0181409 -4.97897 0
M  V30 12194 C 1123.87 -1.49694 -7.03551 0
M  V30 12195 C 1125.9 -0.817313 -5.85725 0
M  V30 12196 C 1125.26 -1.54851 -6.87169 0
M  V30 12197 H 1121.36 0.278664 -0.730664 0
M  V30 12198 H 1123.94 0.0882789 -1.945 0
M  V30 12199 H 1122.12 2.32062 -3.11451 0
M  V30 12200 H 1123.85 2.26287 -3.35524 0
M  V30 12201 H 1120.6 0.737491 -4.67823 0
M  V30 12202 H 1121.03 -0.9222 -6.7069 0
M  V30 12203 H 1125.67 0.532815 -4.19429 0
M  V30 12204 H 1123.39 -2.05906 -7.81427 0
M  V30 12205 H 1126.97 -0.878884 -5.75123 0
M  V30 12206 H 1125.85 -2.15696 -7.53953 0
M  V30 12207 N 1123.36 1.52689 0.390367 0
M  V30 12208 C 1124.29 1.80338 1.48325 0
M  V30 12209 C 1125.27 0.655338 1.56969 0
M  V30 12210 O 1126.45 0.902792 1.7194 0
M  V30 12211 C 1123.58 1.97101 2.85952 0
M  V30 12212 C 1122.54 3.12783 2.92148 0
M  V30 12213 C 1121.86 3.14798 4.32211 0
M  V30 12214 C 1123.16 4.5188 2.61919 0
M  V30 12215 H 1124.86 2.71857 1.25437 0
M  V30 12216 H 1122.4 1.30813 0.601995 0
M  V30 12217 H 1124.36 2.15027 3.62411 0
M  V30 12218 H 1123.08 1.02271 3.10174 0
M  V30 12219 H 1121.74 2.94638 2.18137 0
M  V30 12220 H 1121.39 2.17653 4.53471 0
M  V30 12221 H 1121.09 3.92507 4.37278 0
M  V30 12222 H 1122.61 3.34877 5.10578 0
M  V30 12223 H 1124.02 4.70134 3.28096 0
M  V30 12224 H 1122.42 5.31647 2.78337 0
M  V30 12225 H 1123.49 4.58689 1.57266 0
M  V30 12226 N 1124.83 -0.648732 1.43629 0
M  V30 12227 C 1125.76 -1.77298 1.51947 0
M  V30 12228 C 1126.75 -1.65942 0.373785 0
M  V30 12229 O 1127.93 -1.8497 0.591596 0
M  V30 12230 C 1125.06 -3.15749 1.44638 0
M  V30 12231 C 1124.01 -3.41872 2.57502 0
M  V30 12232 C 1123.34 -4.8017 2.35246 0
M  V30 12233 C 1124.64 -3.36173 3.99731 0
M  V30 12234 H 1126.33 -1.70594 2.46045 0
M  V30 12235 H 1123.88 -0.819306 1.1842 0
M  V30 12236 H 1125.83 -3.94156 1.4906 0
M  V30 12237 H 1124.56 -3.23194 0.470466 0
M  V30 12238 H 1123.22 -2.65838 2.5244 0
M  V30 12239 H 1122.86 -4.84297 1.35887 0
M  V30 12240 H 1122.56 -4.9861 3.10906 0
M  V30 12241 H 1124.09 -5.6083 2.41459 0
M  V30 12242 H 1125.5 -4.0451 4.06257 0
M  V30 12243 H 1123.9 -3.66148 4.75453 0
M  V30 12244 H 1124.97 -2.34277 4.24549 0
M  V30 12245 N 1126.31 -1.30234 -0.887518 0
M  V30 12246 C 1127.26 -1.16302 -2.01436 0
M  V30 12247 C 1128.25 -0.0755422 -1.69231 0
M  V30 12248 O 1129.46 -0.236213 -1.78443 0
M  V30 12249 H 1125.84 -0.35961 -0.660443 0
M  V30 12250 H 1127.81 -2.11677 -2.10322 0
M  V30 12251 C 1126.56 -0.869009 -3.36665 0
M  V30 12252 H 1125.88 -1.69787 -3.61956 0
M  V30 12253 H 1127.32 -0.811621 -4.16159 0
M  V30 12254 C 1125.78 0.428021 -3.3417 0
M  V30 12255 O 1126.31 1.45033 -3.74604 0
M  V30 12256 N 1124.51 0.438264 -2.87276 0
M  V30 12257 H 1124.06 -0.394142 -2.54567 0
M  V30 12258 H 1124.02 1.30604 -2.85989 0
M  V30 12259 N 1127.79 1.09952 -1.12909 0
M  V30 12260 C 1128.75 2.14615 -0.804548 0
M  V30 12261 C 1129.75 1.5975 0.18345 0
M  V30 12262 O 1130.94 1.74147 -0.0429623 0
M  V30 12263 C 1128.08 3.40333 -0.196471 0
M  V30 12264 H 1129.27 2.44835 -1.73193 0
M  V30 12265 H 1126.82 1.25399 -0.932997 0
M  V30 12266 H 1127.56 3.15735 0.740388 0
M  V30 12267 H 1127.34 3.81444 -0.907886 0
M  V30 12268 H 1128.83 4.17598 0.0139264 0
M  V30 12269 N 1129.27 0.921757 1.27833 0
M  V30 12270 C 1130.5 0.575202 1.98744 0
M  V30 12271 C 1130.91 -0.845405 1.68815 0
M  V30 12272 O 1130.27 -1.56106 0.94536 0
M  V30 12273 C 1130.32 0.784389 3.52888 0
M  V30 12274 O 1130.04 2.1491 3.81766 0
M  V30 12275 C 1131.54 0.445744 4.41053 0
M  V30 12276 H 1128.76 0.218525 0.634419 0
M  V30 12277 H 1131.31 1.23715 1.62834 0
M  V30 12278 H 1129.46 0.169323 3.8703 0
M  V30 12279 H 1129.87 2.19469 4.76375 0
M  V30 12280 H 1131.35 0.64284 5.48244 0
M  V30 12281 H 1131.83 -0.618433 4.34824 0
M  V30 12282 H 1132.43 1.03869 4.12421 0
M  V30 12283 N 1130.75 -1.41857 0.686609 0
M  V30 12284 C 1131.99 -2.01666 0.214118 0
M  V30 12285 C 1132.33 -1.5422 -1.18025 0
M  V30 12286 O 1131.6 -0.749482 -1.7948 0
M  V30 12287 C 1131.88 -3.59147 0.261841 0
M  V30 12288 C 1131.74 -4.16742 1.69251 0
M  V30 12289 C 1133.06 -4.38427 -0.383378 0
M  V30 12290 H 1130.17 -0.732724 0.0792785 0
M  V30 12291 H 1132.82 -1.68724 0.873633 0
M  V30 12292 H 1130.97 -3.87342 -0.29971 0
M  V30 12293 H 1132.64 -3.99456 2.30722 0
M  V30 12294 H 1130.88 -3.72124 2.2295 0
M  V30 12295 H 1131.55 -5.25894 1.6775 0
M  V30 12296 H 1134.03 -4.15992 0.0947701 0
M  V30 12297 H 1132.9 -5.4797 -0.319401 0
M  V30 12298 H 1133.17 -4.172 -1.46276 0
M  V30 12299 N 1132.22 -0.430739 -1.51599 0
M  V30 12300 C 1133.13 0.390347 -2.3133 0
M  V30 12301 C 1134.15 1.03376 -1.39962 0
M  V30 12302 O 1135.33 1.03057 -1.73035 0
M  V30 12303 C 1132.39 1.48039 -3.13505 0
M  V30 12304 C 1131.45 0.857792 -4.20643 0
M  V30 12305 C 1130.69 1.89589 -4.9889 0
M  V30 12306 O 1130.91 3.11717 -4.77691 0
M  V30 12307 O 1129.84 1.49009 -5.83164 0
M  V30 12308 H 1133.67 -0.260358 -3.02582 0
M  V30 12309 H 1131.25 -0.193428 -1.48143 0
M  V30 12310 H 1133.14 2.11272 -3.64612 0
M  V30 12311 H 1131.81 2.1153 -2.45024 0
M  V30 12312 H 1130.72 0.187592 -3.73629 0
M  V30 12313 H 1132.05 0.266474 -4.91478 0
M  V30 12314 N 1133.7 1.56767 -0.161869 0
M  V30 12315 C 1134.61 2.21083 0.784814 0
M  V30 12316 C 1135.63 1.19959 1.26039 0
M  V30 12317 O 1136.8 1.52588 1.31449 0
M  V30 12318 C 1133.87 2.83153 2.00063 0
M  V30 12319 C 1132.93 3.9945 1.57285 0
M  V30 12320 C 1132.16 4.5855 2.7307 0
M  V30 12321 O 1132.39 4.16534 3.89686 0
M  V30 12322 O 1131.32 5.48575 2.47688 0
M  V30 12323 H 1135.15 3.02522 0.267243 0
M  V30 12324 H 1132.73 1.49255 0.0658783 0
M  V30 12325 H 1134.61 3.22546 2.71186 0
M  V30 12326 H 1133.29 2.04718 2.50744 0
M  V30 12327 H 1132.2 3.64745 0.831393 0
M  V30 12328 H 1133.53 4.7945 1.11304 0
M  V30 12329 N 1135.18 -0.111886 1.57202 0
M  V30 12330 C 1136.13 -1.15585 2.01849 0
M  V30 12331 C 1137.12 -1.42458 0.916621 0
M  V30 12332 O 1138.33 -1.42337 1.10182 0
M  V30 12333 H 1134.7 -0.389885 0.643035 0
M  V30 12334 H 1136.67 -0.752854 2.88747 0
M  V30 12335 C 1135.42 -2.47247 2.44467 0
M  V30 12336 H 1134.75 -2.27409 3.28824 0
M  V30 12337 H 1136.19 -3.18837 2.79497 0
M  V30 12338 C 1134.65 -3.10339 1.31115 0
M  V30 12339 O 1135.18 -3.96713 0.631029 0
M  V30 12340 N 1133.38 -2.70326 1.0664 0
M  V30 12341 H 1132.93 -2.00182 1.62126 0
M  V30 12342 H 1132.89 -3.12869 0.309944 0
M  V30 12343 N 1136.66 -1.52894 -0.382264 0
M  V30 12344 C 1137.91 -1.67489 -1.12385 0
M  V30 12345 C 1138.22 -0.424565 -1.90937 0
M  V30 12346 O 1139.43 -0.450763 -2.67732 0
M  V30 12347 C 1137.88 -2.96019 -2.04697 0
M  V30 12348 C 1137.49 -4.28255 -1.31535 0
M  V30 12349 C 1139.23 -3.19981 -2.78949 0
M  V30 12350 C 1137.14 -5.47887 -2.22652 0
M  V30 12351 H 1136.07 -0.624002 -0.423246 0
M  V30 12352 H 1138.72 -1.79392 -0.386107 0
M  V30 12353 H 1137.1 -2.77878 -2.82134 0
M  V30 12354 H 1138.28 -4.56971 -0.592771 0
M  V30 12355 H 1136.59 -4.10607 -0.692148 0
M  V30 12356 H 1139.19 -4.06541 -3.47316 0
M  V30 12357 H 1139.53 -2.35335 -3.43399 0
M  V30 12358 H 1140.07 -3.38718 -2.08602 0
M  V30 12359 H 1136.81 -6.3496 -1.62806 0
M  V30 12360 H 1136.33 -5.23473 -2.92807 0
M  V30 12361 H 1138 -5.82026 -2.82586 0
M  V30 12362 N 1138.14 0.641106 -1.43971 0
M  V30 12363 C 1139.37 1.42829 -1.49692 0
M  V30 12364 C 1139.78 1.88427 -0.118594 0
M  V30 12365 O 1139.14 1.60234 0.873581 0
M  V30 12366 C 1139.19 2.65524 -2.45314 0
M  V30 12367 O 1138.91 2.2183 -3.77787 0
M  V30 12368 C 1140.41 3.58758 -2.60399 0
M  V30 12369 H 1137.63 0.438367 -0.508011 0
M  V30 12370 H 1140.17 0.784933 -1.88836 0
M  V30 12371 H 1138.33 3.25973 -2.09332 0
M  V30 12372 H 1138.74 3.01303 -4.29321 0
M  V30 12373 H 1140.22 4.41483 -3.31357 0
M  V30 12374 H 1140.69 4.06909 -1.65294 0
M  V30 12375 H 1141.3 3.04184 -2.97241 0
M  V30 12376 N 1139.62 1.30703 0.880598 0
M  V30 12377 C 1140.86 1.19778 1.63277 0
M  V30 12378 C 1141.19 -0.246521 1.92931 0
M  V30 12379 O 1140.45 -1.19226 1.55189 0
M  V30 12380 C 1140.74 1.97628 2.97789 0
M  V30 12381 C 1140.41 3.47213 2.87669 0
M  V30 12382 C 1139.07 3.88004 2.84617 0
M  V30 12383 C 1141.42 4.4245 2.75477 0
M  V30 12384 C 1138.75 5.22315 2.67216 0
M  V30 12385 C 1141.1 5.76874 2.59614 0
M  V30 12386 C 1139.77 6.16898 2.54939 0
M  V30 12387 H 1139.04 0.438298 0.597475 0
M  V30 12388 H 1141.69 1.61853 1.02352 0
M  V30 12389 H 1139.99 1.48201 3.6269 0
M  V30 12390 H 1141.69 1.86563 3.54958 0
M  V30 12391 H 1138.28 3.14802 2.90857 0
M  V30 12392 H 1142.46 4.11875 2.76899 0
M  V30 12393 H 1137.72 5.52412 2.62014 0
M  V30 12394 H 1141.89 6.50304 2.49155 0
M  V30 12395 H 1139.52 7.20916 2.41214 0
M  V30 12396 N 1141.09 -1.09351 1.1349 0
M  V30 12397 C 1142.34 -1.81185 0.89535 0
M  V30 12398 C 1142.66 -1.86173 -0.580048 0
M  V30 12399 O 1141.93 -1.34784 -1.42162 0
M  V30 12400 H 1140.51 -0.671011 0.328257 0
M  V30 12401 H 1143.17 -1.32255 1.43159 0
M  V30 12402 H 1142.27 -2.84339 1.28676 0
M  V30 12403 N 1142.57 -0.928524 -1.27343 0
M  V30 12404 C 1143.8 -0.58516 -1.98974 0
M  V30 12405 C 1144.22 0.829964 -1.68799 0
M  V30 12406 O 1143.58 1.55705 -0.928738 0
M  V30 12407 C 1143.63 -0.818662 -3.51184 0
M  V30 12408 O 1142.73 0.115355 -4.12239 0
M  V30 12409 H 1142.07 -0.225203 -0.624644 0
M  V30 12410 H 1144.6 -1.248 -1.6213 0
M  V30 12411 H 1144.61 -0.734554 -4.01333 0
M  V30 12412 H 1143.29 -1.8502 -3.72479 0
M  V30 12413 H 1141.86 -0.0187371 -3.72895 0
M  V30 12414 N 1144.05 1.41491 -0.694123 0
M  V30 12415 C 1145.46 1.84283 -0.299439 0
M  V30 12416 C 1145.81 1.58081 1.16211 0
M  V30 12417 O 1144.94 1.05051 1.89191 0
M  V30 12418 C 1145.53 3.34522 -0.536696 0
M  V30 12419 C 1144.09 3.7589 -0.195944 0
M  V30 12420 C 1143.24 2.64908 -0.819692 0
M  V30 12421 H 1146.19 1.31063 -0.894884 0
M  V30 12422 H 1146.21 3.79947 0.205062 0
M  V30 12423 H 1145.72 3.53561 -1.6005 0
M  V30 12424 H 1143.82 3.62452 0.863655 0
M  V30 12425 H 1143.94 4.74671 -0.649954 0
M  V30 12426 H 1142.3 2.53476 -0.249412 0
M  V30 12427 H 1143.08 2.86765 -1.88734 0
M  V30 12428 N 1145.53 0.438773 1.51369 0
M  V30 12429 C 1146.77 -0.127213 2.021 0
M  V30 12430 C 1147.1 -1.42587 1.32284 0
M  V30 12431 O 1146.36 -1.90986 0.426949 0
M  V30 12432 C 1146.66 -0.39186 3.55245 0
M  V30 12433 C 1146.32 0.821158 4.4336 0
M  V30 12434 C 1144.98 1.15381 4.67162 0
M  V30 12435 C 1147.34 1.6303 4.95046 0
M  V30 12436 C 1144.66 2.29626 5.39897 0
M  V30 12437 C 1147.02 2.76376 5.69033 0
M  V30 12438 C 1145.68 3.10094 5.91099 0
M  V30 12439 H 1144.95 -0.0465505 0.739536 0
M  V30 12440 H 1147.6 0.586261 1.82305 0
M  V30 12441 H 1145.9 -1.18724 3.73379 0
M  V30 12442 H 1147.6 -0.843228 3.92034 0
M  V30 12443 H 1144.19 0.551946 4.25031 0
M  V30 12444 H 1148.37 1.38651 4.76539 0
M  V30 12445 H 1143.63 2.56062 5.55196 0
M  V30 12446 H 1147.8 3.39442 6.08072 0
M  V30 12447 H 1145.43 3.98731 6.47238 0
M  V30 12448 N 1147.01 -1.56678 0.170181 0
M  V30 12449 C 1147.95 -2.19222 -0.777459 0
M  V30 12450 C 1148.95 -1.15592 -1.23834 0
M  V30 12451 O 1150.15 -1.33794 -1.20412 0
M  V30 12452 H 1146.53 -0.702244 -0.268992 0
M  V30 12453 H 1148.5 -2.97543 -0.225989 0
M  V30 12454 C 1147.25 -2.84631 -1.997 0
M  V30 12455 H 1146.57 -3.641 -1.65139 0
M  V30 12456 H 1148.01 -3.31864 -2.63898 0
M  V30 12457 C 1146.47 -1.84345 -2.81991 0
M  V30 12458 O 1147 -1.32821 -3.79106 0
M  V30 12459 N 1145.21 -1.53127 -2.46983 0
M  V30 12460 H 1144.75 -1.95219 -1.6807 0
M  V30 12461 H 1144.71 -0.862787 -3.0233 0
M  V30 12462 N 1148.48 0.103547 -1.57259 0
M  V30 12463 C 1149.43 1.12621 -2.01458 0
M  V30 12464 C 1150.4 1.40282 -0.889391 0
M  V30 12465 O 1151.59 1.51887 -1.15477 0
M  V30 12466 C 1148.73 2.44352 -2.43692 0
M  V30 12467 C 1147.84 2.23495 -3.69695 0
M  V30 12468 C 1146.97 3.48565 -4.00844 0
M  V30 12469 C 1146.01 3.22932 -5.19982 0
M  V30 12470 N 1145.15 4.40246 -5.46926 0
M  V30 12471 H 1149.99 0.742315 -2.88606 0
M  V30 12472 H 1147.53 0.355016 -1.42752 0
M  V30 12473 H 1149.48 3.2122 -2.66221 0
M  V30 12474 H 1148.11 2.80605 -1.59565 0
M  V30 12475 H 1147.17 1.3747 -3.54692 0
M  V30 12476 H 1148.48 2.0054 -4.56711 0
M  V30 12477 H 1147.63 4.33844 -4.24104 0
M  V30 12478 H 1146.37 3.74565 -3.12333 0
M  V30 12479 H 1145.38 2.36045 -4.96551 0
M  V30 12480 H 1146.6 2.98286 -6.10084 0
M  V30 12481 H 1144.55 4.66338 -4.61373 0
M  V30 12482 H 1144.46 4.20452 -6.28296 0
M  V30 12483 H 1145.73 5.26614 -5.74716 0
M  V30 12484 N 1149.96 1.53094 0.37415 0
M  V30 12485 C 1150.89 1.75199 1.47776 0
M  V30 12486 C 1151.91 0.632627 1.50006 0
M  V30 12487 O 1153.1 0.908688 1.5364 0
M  V30 12488 C 1150.2 1.80909 2.86575 0
M  V30 12489 C 1149.37 3.10432 3.08141 0
M  V30 12490 C 1148.43 3.07495 4.27005 0
M  V30 12491 O 1147.45 3.81319 4.22592 0
M  V30 12492 N 1148.66 2.27715 5.33972 0
M  V30 12493 H 1151.42 2.70423 1.29196 0
M  V30 12494 H 1148.98 1.51766 0.563802 0
M  V30 12495 H 1150.97 1.76432 3.64217 0
M  V30 12496 H 1149.54 0.930074 2.98443 0
M  V30 12497 H 1148.76 3.2828 2.18233 0
M  V30 12498 H 1150.05 3.96047 3.19413 0
M  V30 12499 H 1149.45 1.67231 5.40417 0
M  V30 12500 H 1148.01 2.29065 6.10223 0
M  V30 12501 N 1151.44 -0.633461 1.44309 0
M  V30 12502 C 1152.86 -0.951379 1.28144 0
M  V30 12503 C 1153.06 -2.00344 0.215512 0
M  V30 12504 O 1152.11 -2.49321 -0.399389 0
M  V30 12505 C 1153.42 -1.41686 2.65227 0
M  V30 12506 C 1154.97 -1.53247 2.72918 0
M  V30 12507 C 1155.45 -2.03179 4.10466 0
M  V30 12508 N 1156.94 -2.10453 4.1263 0
M  V30 12509 C 1157.67 -2.50254 5.15907 0
M  V30 12510 N 1157.17 -2.89209 6.29547 0
M  V30 12511 N 1158.96 -2.50368 5.03262 0
M  V30 12512 H 1151.11 0.0623574 2.12308 0
M  V30 12513 H 1153.38 -0.0347244 0.947364 0
M  V30 12514 H 1153.08 -0.71814 3.4429 0
M  V30 12515 H 1152.96 -2.3883 2.91959 0
M  V30 12516 H 1155.34 -2.22216 1.94176 0
M  V30 12517 H 1155.42 -0.544836 2.4993 0
M  V30 12518 H 1155.07 -1.34806 4.89683 0
M  V30 12519 H 1155 -3.02809 4.3083 0
M  V30 12520 H 1157.49 -1.83042 3.30612 0
M  V30 12521 H 1157.8 -3.18386 7.04166 0
M  V30 12522 H 1156.15 -2.86966 6.32989 0
M  V30 12523 H 1159.34 -2.19324 4.13539 0
M  V30 12524 H 1159.51 -2.81062 5.83873 0
M  V30 12525 N 1152.92 -1.31168 -0.873655 0
M  V30 12526 C 1154.15 -1.23416 -1.65686 0
M  V30 12527 C 1154.56 0.203534 -1.88102 0
M  V30 12528 O 1153.9 1.14476 -1.4367 0
M  V30 12529 C 1153.96 -1.90418 -3.04929 0
M  V30 12530 C 1153.63 -3.39757 -3.05637 0
M  V30 12531 C 1154.62 -4.35565 -2.83865 0
M  V30 12532 C 1152.31 -3.81389 -3.26875 0
M  V30 12533 C 1154.3 -5.70979 -2.83304 0
M  V30 12534 C 1151.99 -5.16918 -3.25943 0
M  V30 12535 C 1152.99 -6.11524 -3.04184 0
M  V30 12536 O 1152.67 -7.44575 -3.0309 0
M  V30 12537 H 1152.41 -0.4278 -0.523415 0
M  V30 12538 H 1154.96 -1.73525 -1.09902 0
M  V30 12539 H 1153.19 -1.34854 -3.62424 0
M  V30 12540 H 1154.88 -1.76631 -3.65453 0
M  V30 12541 H 1155.65 -4.0473 -2.67243 0
M  V30 12542 H 1151.52 -3.08187 -3.42844 0
M  V30 12543 H 1155.07 -6.44796 -2.66239 0
M  V30 12544 H 1150.97 -5.47389 -3.42104 0
M  V30 12545 H 1151.73 -7.53703 -3.19177 0
M  V30 12546 N 1154.4 1.08748 -1.14068 0
M  V30 12547 C 1155.34 2.15573 -0.824425 0
M  V30 12548 C 1156.31 1.64683 0.216522 0
M  V30 12549 O 1157.5 1.90601 0.0872193 0
M  V30 12550 C 1154.64 3.43756 -0.30423 0
M  V30 12551 C 1153.75 4.08512 -1.40506 0
M  V30 12552 C 1152.89 5.24477 -0.842479 0
M  V30 12553 C 1151.93 5.81167 -1.92123 0
M  V30 12554 N 1151.06 6.88483 -1.37608 0
M  V30 12555 H 1155.9 2.41968 -1.73941 0
M  V30 12556 H 1153.44 1.18751 -0.868143 0
M  V30 12557 H 1155.4 4.17197 0.0155546 0
M  V30 12558 H 1154.03 3.17658 0.573868 0
M  V30 12559 H 1153.08 3.32866 -1.84131 0
M  V30 12560 H 1154.39 4.46669 -2.2201 0
M  V30 12561 H 1153.55 6.04842 -0.474389 0
M  V30 12562 H 1152.28 4.877 0.00355212 0
M  V30 12563 H 1151.29 4.99458 -2.29831 0
M  V30 12564 H 1152.51 6.20003 -2.77079 0
M  V30 12565 H 1150.46 6.53672 -0.552168 0
M  V30 12566 H 1150.38 7.25446 -2.12752 0
M  V30 12567 H 1151.65 7.72588 -1.03578 0
M  V30 12568 N 1155.87 0.935264 1.26849 0
M  V30 12569 C 1156.84 0.44485 2.24842 0
M  V30 12570 C 1157.84 -0.440781 1.54641 0
M  V30 12571 O 1159.03 -0.240793 1.72528 0
M  V30 12572 C 1156.16 -0.359566 3.38998 0
M  V30 12573 H 1157.35 1.31074 2.6974 0
M  V30 12574 H 1154.91 0.716665 1.38901 0
M  V30 12575 H 1155.64 -1.24396 2.99493 0
M  V30 12576 H 1155.43 0.275529 3.91131 0
M  V30 12577 H 1156.92 -0.692804 4.11813 0
M  V30 12578 N 1157.35 -1.41121 0.701616 0
M  V30 12579 C 1158.6 -2.01428 0.235495 0
M  V30 12580 C 1158.93 -1.55463 -1.16382 0
M  V30 12581 O 1158.21 -0.768477 -1.78675 0
M  V30 12582 C 1158.49 -3.58849 0.299919 0
M  V30 12583 C 1158.34 -4.14924 1.73661 0
M  V30 12584 C 1159.66 -4.38809 -0.336856 0
M  V30 12585 H 1156.78 -0.731842 0.0870456 0
M  V30 12586 H 1159.42 -1.67787 0.891479 0
M  V30 12587 H 1157.57 -3.87638 -0.258611 0
M  V30 12588 H 1159.24 -3.96987 2.34945 0
M  V30 12589 H 1157.49 -3.69738 2.26884 0
M  V30 12590 H 1158.16 -5.24085 1.73318 0
M  V30 12591 H 1160.63 -4.15868 0.138886 0
M  V30 12592 H 1159.51 -5.48278 -0.261264 0
M  V30 12593 H 1159.77 -4.18728 -1.41843 0
M  V30 12594 N 1158.83 -0.446794 -1.51134 0
M  V30 12595 C 1160.06 0.114893 -2.06581 0
M  V30 12596 C 1160.47 1.35642 -1.31327 0
M  V30 12597 O 1159.83 1.78595 -0.375506 0
M  V30 12598 C 1159.88 0.427589 -3.58962 0
M  V30 12599 O 1159.6 -0.764669 -4.31375 0
M  V30 12600 C 1161.1 1.03891 -4.30954 0
M  V30 12601 H 1158.32 0.00373031 -0.67099 0
M  V30 12602 H 1160.87 -0.628596 -1.94599 0
M  V30 12603 H 1159.02 1.12099 -3.70827 0
M  V30 12604 H 1159.44 -0.494605 -5.22163 0
M  V30 12605 H 1160.91 1.20764 -5.38628 0
M  V30 12606 H 1161.39 2.02252 -3.8986 0
M  V30 12607 H 1161.99 0.384623 -4.23557 0
M  V30 12608 N 1160.31 1.56586 -0.178487 0
M  V30 12609 C 1161.59 1.88798 0.511356 0
M  V30 12610 C 1161.97 1.08949 1.80813 0
M  V30 12611 O 1161.31 0.185551 2.27745 0
M  V30 12612 C 1161.52 3.40927 0.746298 0
M  V30 12613 C 1162.87 4.10816 1.0731 0
M  V30 12614 O 1163.9 3.46285 0.834592 0
M  V30 12615 O 1162.75 5.24837 1.52343 0
M  V30 12616 H 1159.85 0.783574 0.264463 0
M  V30 12617 H 1162.39 1.68301 -0.21746 0
M  V30 12618 H 1161.17 3.9093 -0.17015 0
M  V30 12619 H 1160.79 3.67059 1.52817 0
M  V30 12620 N 1161.79 -0.095206 1.57312 0
M  V30 12621 C 1162.75 -1.09974 2.01093 0
M  V30 12622 C 1163.75 -1.32954 0.904424 0
M  V30 12623 O 1164.94 -1.29069 1.16991 0
M  V30 12624 C 1162.07 -2.4489 2.37153 0
M  V30 12625 H 1163.26 -0.722906 2.91057 0
M  V30 12626 H 1160.82 -0.340249 1.52552 0
M  V30 12627 H 1161.55 -2.8745 1.50143 0
M  V30 12628 H 1161.34 -2.29559 3.17876 0
M  V30 12629 H 1162.83 -3.17141 2.71683 0
M  V30 12630 N 1163.26 -1.53291 -0.366026 0
M  V30 12631 C 1164.5 -1.71153 -1.11741 0
M  V30 12632 C 1164.87 -0.453416 -1.86569 0
M  V30 12633 O 1166.07 -0.508724 -2.63942 0
M  V30 12634 C 1164.34 -2.92657 -2.0515 0
M  V30 12635 S 1165.9 -3.31223 -2.87814 0
M  V30 12636 H 1162.72 -0.602251 -0.377909 0
M  V30 12637 H 1165.32 -1.91391 -0.398721 0
M  V30 12638 H 1164.02 -3.8242 -1.48939 0
M  V30 12639 H 1163.55 -2.7482 -2.81492 0
M  V30 12640 H 1165.57 -2.83201 -4.07445 0
M  V30 12641 N 1164.74 0.6258 -1.44643 0
M  V30 12642 C 1165.97 1.41726 -1.51422 0
M  V30 12643 C 1166.39 1.87565 -0.14181 0
M  V30 12644 O 1165.75 1.59059 0.870054 0
M  V30 12645 C 1165.8 2.61012 -2.48807 0
M  V30 12646 O 1164.9 3.61029 -1.99328 0
M  V30 12647 H 1164.24 0.423855 -0.511119 0
M  V30 12648 H 1166.77 0.763336 -1.89827 0
M  V30 12649 H 1166.78 3.08489 -2.67018 0
M  V30 12650 H 1165.46 2.26995 -3.48491 0
M  V30 12651 H 1164.04 3.20325 -1.90909 0
M  V30 12652 N 1166.22 1.31629 0.866686 0
M  V30 12653 C 1167.15 1.22151 1.99001 0
M  V30 12654 C 1168.13 0.107972 1.69757 0
M  V30 12655 O 1169.32 0.293125 1.91975 0
M  V30 12656 C 1166.45 0.93144 3.34577 0
M  V30 12657 C 1165.4 2.0049 3.78137 0
M  V30 12658 C 1164.73 1.56747 5.11209 0
M  V30 12659 C 1166.03 3.41844 3.94892 0
M  V30 12660 H 1167.72 2.16132 2.0719 0
M  V30 12661 H 1165.27 1.04051 0.995463 0
M  V30 12662 H 1167.22 0.851719 4.12703 0
M  V30 12663 H 1165.94 -0.0440289 3.2657 0
M  V30 12664 H 1164.6 2.07457 3.02253 0
M  V30 12665 H 1164.25 0.579767 4.99648 0
M  V30 12666 H 1163.95 2.28562 5.41326 0
M  V30 12667 H 1165.47 1.50188 5.91841 0
M  V30 12668 H 1166.89 3.37534 4.63405 0
M  V30 12669 H 1165.29 4.11905 4.36411 0
M  V30 12670 H 1166.36 3.82389 2.98172 0
M  V30 12671 N 1167.7 -1.08142 1.14644 0
M  V30 12672 C 1168.63 -2.15022 0.793614 0
M  V30 12673 C 1169.64 -1.61679 -0.190729 0
M  V30 12674 O 1170.83 -1.78472 0.0313696 0
M  V30 12675 C 1167.93 -3.38532 0.157785 0
M  V30 12676 C 1167.11 -4.21252 1.17753 0
M  V30 12677 C 1166.17 -5.23158 0.564968 0
M  V30 12678 O 1165.19 -5.5578 1.22869 0
M  V30 12679 N 1166.39 -5.7677 -0.657022 0
M  V30 12680 H 1169.16 -2.45893 1.71338 0
M  V30 12681 H 1166.72 -1.23976 1.04122 0
M  V30 12682 H 1168.71 -4.03834 -0.264586 0
M  V30 12683 H 1167.28 -3.05441 -0.665168 0
M  V30 12684 H 1166.5 -3.51888 1.77675 0
M  V30 12685 H 1167.79 -4.73335 1.86632 0
M  V30 12686 H 1167.19 -5.52503 -1.21478 0
M  V30 12687 H 1165.74 -6.4374 -1.02186 0
M  V30 12688 N 1169.18 -0.941978 -1.26351 0
M  V30 12689 C 1170.59 -0.632522 -1.75659 0
M  V30 12690 C 1170.94 0.852287 -1.76722 0
M  V30 12691 O 1170.06 1.66701 -1.37985 0
M  V30 12692 C 1170.66 -1.14145 -3.18993 0
M  V30 12693 C 1169.22 -0.882391 -3.65911 0
M  V30 12694 C 1168.37 -1.29189 -2.45368 0
M  V30 12695 H 1171.32 -1.12019 -1.12416 0
M  V30 12696 H 1171.34 -0.495639 -3.77258 0
M  V30 12697 H 1170.85 -2.22213 -3.18187 0
M  V30 12698 H 1168.95 0.183873 -3.72146 0
M  V30 12699 H 1169.06 -1.50996 -4.54683 0
M  V30 12700 H 1167.43 -0.710316 -2.44595 0
M  V30 12701 H 1168.21 -2.38152 -2.47262 0
M  V30 12702 N 1170.66 1.40747 -0.709091 0
M  V30 12703 C 1171.93 1.94831 -0.173246 0
M  V30 12704 C 1172.31 1.64766 1.31967 0
M  V30 12705 O 1171.66 0.961853 2.07269 0
M  V30 12706 C 1171.87 3.45697 -0.479013 0
M  V30 12707 C 1173.22 4.22576 -0.414122 0
M  V30 12708 O 1174.24 3.53778 -0.414699 0
M  V30 12709 O 1173.1 5.45135 -0.385986 0
M  V30 12710 H 1170.2 0.826683 -0.0228947 0
M  V30 12711 H 1172.74 1.50391 -0.786178 0
M  V30 12712 H 1171.51 3.60914 -1.51185 0
M  V30 12713 H 1171.14 3.97261 0.164211 0
M  V30 12714 N 1172.13 0.454803 1.50895 0
M  V30 12715 C 1173.38 -0.107367 2.01414 0
M  V30 12716 C 1173.7 -1.42243 1.34262 0
M  V30 12717 O 1174.9 -2.06858 1.75846 0
M  V30 12718 C 1173.36 -0.241872 3.59086 0
M  V30 12719 C 1172.97 1.06379 4.35187 0
M  V30 12720 C 1174.71 -0.756873 4.17698 0
M  V30 12721 C 1172.62 0.893973 5.84604 0
M  V30 12722 H 1171.55 -0.0439003 0.752721 0
M  V30 12723 H 1174.2 0.587225 1.7385 0
M  V30 12724 H 1172.58 -0.999873 3.83169 0
M  V30 12725 H 1173.75 1.83148 4.2284 0
M  V30 12726 H 1172.07 1.50865 3.88109 0
M  V30 12727 H 1174.67 -0.900697 5.27059 0
M  V30 12728 H 1175.01 -1.74397 3.7801 0
M  V30 12729 H 1175.54 -0.0567088 3.9776 0
M  V30 12730 H 1172.28 1.85395 6.28736 0
M  V30 12731 H 1171.8 0.166387 5.99569 0
M  V30 12732 H 1173.48 0.554084 6.44623 0
M  V30 12733 N 1173.61 -1.56489 0.186789 0
M  V30 12734 C 1174.89 -1.89066 -0.501337 0
M  V30 12735 C 1175.27 -1.09906 -1.80233 0
M  V30 12736 O 1174.62 -0.197626 -2.27644 0
M  V30 12737 C 1174.83 -3.41318 -0.728207 0
M  V30 12738 C 1176.17 -4.11379 -1.0513 0
M  V30 12739 O 1177.2 -3.46722 -0.816216 0
M  V30 12740 O 1176.06 -5.25638 -1.49557 0
M  V30 12741 H 1173.15 -0.784966 -0.260303 0
M  V30 12742 H 1175.7 -1.68183 0.226382 0
M  V30 12743 H 1174.47 -3.90834 0.19088 0
M  V30 12744 H 1174.09 -3.67865 -1.50869 0
M  V30 12745 N 1175.09 0.086862 -1.5736 0
M  V30 12746 C 1176.02 1.10538 -2.05678 0
M  V30 12747 C 1177 1.41281 -0.947293 0
M  V30 12748 O 1178.19 1.51169 -1.21908 0
M  V30 12749 C 1175.32 2.42302 -2.48812 0
M  V30 12750 C 1174.27 2.25948 -3.63499 0
M  V30 12751 C 1173.6 3.62961 -3.92637 0
M  V30 12752 C 1174.9 1.69319 -4.94094 0
M  V30 12753 H 1176.59 0.703371 -2.91021 0
M  V30 12754 H 1174.14 0.336895 -1.40004 0
M  V30 12755 H 1176.09 3.13833 -2.81224 0
M  V30 12756 H 1174.81 2.84454 -1.60479 0
M  V30 12757 H 1173.47 1.5686 -3.31347 0
M  V30 12758 H 1173.12 4.02656 -3.01459 0
M  V30 12759 H 1172.82 3.52862 -4.69853 0
M  V30 12760 H 1174.34 4.35946 -4.27531 0
M  V30 12761 H 1175.76 2.30699 -5.24834 0
M  V30 12762 H 1174.15 1.69957 -5.7553 0
M  V30 12763 H 1175.22 0.653318 -4.80479 0
M  V30 12764 N 1176.57 1.53483 0.357892 0
M  V30 12765 C 1177.5 1.83444 1.44466 0
M  V30 12766 C 1178.48 0.688486 1.55544 0
M  V30 12767 O 1179.66 0.93906 1.69986 0
M  V30 12768 C 1176.79 2.03122 2.81707 0
M  V30 12769 C 1175.75 3.1891 2.85448 0
M  V30 12770 C 1175.07 3.23895 4.25436 0
M  V30 12771 C 1176.37 4.57334 2.52275 0
M  V30 12772 H 1178.07 2.74456 1.19642 0
M  V30 12773 H 1175.61 1.3206 0.574112 0
M  V30 12774 H 1177.57 2.22666 3.57768 0
M  V30 12775 H 1176.29 1.08827 3.07935 0
M  V30 12776 H 1174.95 2.99199 2.11838 0
M  V30 12777 H 1174.6 2.27223 4.48753 0
M  V30 12778 H 1174.3 4.01694 4.28854 0
M  V30 12779 H 1175.82 3.45632 5.0336 0
M  V30 12780 H 1177.24 4.76988 3.1805 0
M  V30 12781 H 1175.63 5.37431 2.66998 0
M  V30 12782 H 1176.7 4.61921 1.47501 0
M  V30 12783 N 1178.05 -0.61812 1.44973 0
M  V30 12784 C 1179.46 -1.19994 1.43033 0
M  V30 12785 C 1179.81 -1.95607 0.152422 0
M  V30 12786 O 1178.93 -2.03114 -0.746571 0
M  V30 12787 C 1179.53 -2.18269 2.59122 0
M  V30 12788 C 1178.09 -2.7185 2.60336 0
M  V30 12789 C 1177.23 -1.4707 2.35086 0
M  V30 12790 H 1180.18 -0.408034 1.53365 0
M  V30 12791 H 1180.21 -3.01113 2.32619 0
M  V30 12792 H 1179.72 -1.63208 3.52115 0
M  V30 12793 H 1177.82 -3.30878 1.7132 0
M  V30 12794 H 1177.93 -3.17001 3.59231 0
M  V30 12795 H 1176.3 -1.75658 1.84435 0
M  V30 12796 H 1177.08 -0.938928 3.30211 0
M  V30 12797 N 1179.52 -1.32087 -0.859693 0
M  V30 12798 C 1180.77 -1.2236 -1.61351 0
M  V30 12799 C 1181.1 0.215796 -1.93299 0
M  V30 12800 O 1180.35 1.16742 -1.57066 0
M  V30 12801 C 1180.65 -2.0234 -2.94607 0
M  V30 12802 C 1180.32 -3.51746 -2.82109 0
M  V30 12803 C 1178.98 -3.92482 -2.78408 0
M  V30 12804 C 1181.33 -4.46776 -2.68403 0
M  V30 12805 C 1178.66 -5.265 -2.58873 0
M  V30 12806 C 1181.01 -5.80931 -2.50404 0
M  V30 12807 C 1179.68 -6.20875 -2.45092 0
M  V30 12808 H 1178.95 -0.447748 -0.590426 0
M  V30 12809 H 1181.59 -1.63461 -0.997637 0
M  V30 12810 H 1179.9 -1.53952 -3.60286 0
M  V30 12811 H 1181.6 -1.92187 -3.51945 0
M  V30 12812 H 1178.19 -3.19389 -2.85812 0
M  V30 12813 H 1182.37 -4.16228 -2.70311 0
M  V30 12814 H 1177.63 -5.5651 -2.53192 0
M  V30 12815 H 1181.8 -6.54185 -2.38777 0
M  V30 12816 H 1179.43 -7.24662 -2.29714 0
M  V30 12817 N 1181 1.07532 -1.15215 0
M  V30 12818 C 1182.25 1.79737 -0.924062 0
M  V30 12819 C 1182.57 1.87072 0.550356 0
M  V30 12820 O 1181.84 1.37029 1.4 0
M  V30 12821 H 1180.42 0.665704 -0.338891 0
M  V30 12822 H 1183.08 1.29961 -1.45245 0
M  V30 12823 H 1182.18 2.82256 -1.33184 0
M  V30 12824 N 1182.48 0.948665 1.2585 0
M  V30 12825 C 1183.76 0.517832 1.88621 0
M  V30 12826 C 1184.14 -1.00477 1.85654 0
M  V30 12827 O 1183.49 -1.868 1.31598 0
M  V30 12828 C 1183.7 1.08768 3.31618 0
M  V30 12829 C 1185.04 1.16089 4.08422 0
M  V30 12830 O 1186.07 1.0388 3.40716 0
M  V30 12831 O 1184.93 1.35172 5.29519 0
M  V30 12832 H 1182.02 0.169916 0.809356 0
M  V30 12833 H 1184.57 1.04171 1.33964 0
M  V30 12834 H 1183.34 2.13109 3.28177 0
M  V30 12835 H 1182.96 0.54669 3.93824 0
M  V30 12836 N 1183.96 -1.40369 0.716545 0
M  V30 12837 C 1184.89 -2.29186 0.0251905 0
M  V30 12838 C 1185.9 -1.45877 -0.722761 0
M  V30 12839 O 1187.09 -1.69155 -0.569982 0
M  V30 12840 C 1184.19 -3.24161 -0.988589 0
M  V30 12841 C 1183.37 -4.36329 -0.30597 0
M  V30 12842 C 1182.42 -5.11736 -1.22527 0
M  V30 12843 O 1181.45 -5.64758 -0.7097 0
M  V30 12844 N 1182.65 -5.21183 -2.55634 0
M  V30 12845 H 1185.42 -2.8916 0.787808 0
M  V30 12846 H 1182.98 -1.51749 0.564253 0
M  V30 12847 H 1184.97 -3.71479 -1.60578 0
M  V30 12848 H 1183.54 -2.65347 -1.65256 0
M  V30 12849 H 1182.76 -3.91125 0.491432 0
M  V30 12850 H 1184.05 -5.08523 0.167827 0
M  V30 12851 H 1183.45 -4.7959 -3.00017 0
M  V30 12852 H 1182 -5.72005 -3.12495 0
M  V30 12853 N 1185.44 -0.462799 -1.50652 0
M  V30 12854 C 1186.66 0.0929761 -2.06691 0
M  V30 12855 C 1187.08 1.34241 -1.32758 0
M  V30 12856 O 1186.44 1.78187 -0.394427 0
M  V30 12857 C 1186.49 0.389492 -3.59396 0
M  V30 12858 O 1186.21 -0.810379 -4.3054 0
M  V30 12859 C 1187.71 0.993147 -4.32032 0
M  V30 12860 H 1184.93 -0.00338664 -0.670991 0
M  V30 12861 H 1187.47 -0.649201 -1.93922 0
M  V30 12862 H 1185.63 1.08159 -3.71995 0
M  V30 12863 H 1186.04 -0.54996 -5.21609 0
M  V30 12864 H 1187.52 1.15044 -5.39878 0
M  V30 12865 H 1187.99 1.98106 -3.91983 0
M  V30 12866 H 1188.6 0.339677 -4.23941 0
M  V30 12867 N 1186.91 1.56388 -0.195085 0
M  V30 12868 C 1187.82 2.22698 0.737743 0
M  V30 12869 C 1188.84 1.22605 1.23466 0
M  V30 12870 O 1190.02 1.55342 1.28183 0
M  V30 12871 C 1187.08 2.87333 1.94011 0
M  V30 12872 C 1186.14 4.02696 1.48776 0
M  V30 12873 C 1185.38 4.64239 2.63282 0
M  V30 12874 O 1185.6 4.24706 3.80763 0
M  V30 12875 O 1184.53 5.53705 2.35996 0
M  V30 12876 H 1188.36 3.03021 0.203013 0
M  V30 12877 H 1185.94 1.49361 0.0342044 0
M  V30 12878 H 1187.83 3.28226 2.64284 0
M  V30 12879 H 1186.5 2.0999 2.46345 0
M  V30 12880 H 1185.41 3.66426 0.753839 0
M  V30 12881 H 1186.74 4.81703 1.01109 0
M  V30 12882 N 1188.39 -0.0785156 1.57404 0
M  V30 12883 C 1189.64 -0.777722 1.86103 0
M  V30 12884 C 1189.95 -1.79079 0.786771 0
M  V30 12885 O 1191.16 -2.53908 0.961393 0
M  V30 12886 C 1189.62 -1.43407 3.30095 0
M  V30 12887 C 1189.22 -0.459912 4.45633 0
M  V30 12888 C 1190.97 -2.11603 3.68 0
M  V30 12889 C 1188.88 -1.12179 5.80663 0
M  V30 12890 H 1187.81 -0.294205 0.694233 0
M  V30 12891 H 1190.46 -0.0309003 1.83474 0
M  V30 12892 H 1188.84 -2.22892 3.27315 0
M  V30 12893 H 1190.01 0.304642 4.59792 0
M  V30 12894 H 1188.33 0.117242 4.16235 0
M  V30 12895 H 1190.92 -2.61887 4.66175 0
M  V30 12896 H 1191.27 -2.91244 2.9746 0
M  V30 12897 H 1191.8 -1.38958 3.72741 0
M  V30 12898 H 1188.54 -0.365842 6.54478 0
M  V30 12899 H 1188.06 -1.85737 5.70317 0
M  V30 12900 H 1189.74 -1.64355 6.25777 0
M  V30 12901 N 1189.87 -1.5367 -0.349747 0
M  V30 12902 C 1191.12 -1.70281 -1.08853 0
M  V30 12903 C 1191.44 -0.465438 -1.89364 0
M  V30 12904 O 1190.71 0.520615 -1.88856 0
M  V30 12905 H 1189.29 -0.627775 -0.404854 0
M  V30 12906 H 1191.95 -1.90906 -0.392523 0
M  V30 12907 H 1191.05 -2.57096 -1.76941 0
M  V30 12908 N 1191.35 0.610423 -1.45298 0
M  V30 12909 C 1192.26 1.74964 -1.56285 0
M  V30 12910 C 1193.27 1.68149 -0.447436 0
M  V30 12911 O 1194.45 1.88556 -0.707725 0
M  V30 12912 C 1191.52 3.11417 -1.52383 0
M  V30 12913 C 1190.58 3.29707 -2.7494 0
M  V30 12914 C 1189.81 4.5965 -2.71215 0
M  V30 12915 O 1190.03 5.41789 -1.78383 0
M  V30 12916 O 1188.97 4.80591 -3.62375 0
M  V30 12917 H 1192.79 1.68646 -2.52571 0
M  V30 12918 H 1190.38 0.774168 -1.27777 0
M  V30 12919 H 1192.26 3.9272 -1.52805 0
M  V30 12920 H 1190.93 3.18232 -0.592472 0
M  V30 12921 H 1189.84 2.48003 -2.80081 0
M  V30 12922 H 1191.17 3.27766 -3.67192 0
M  V30 12923 N 1192.83 1.32541 0.852676 0
M  V30 12924 C 1194.24 1.11575 1.14119 0
M  V30 12925 C 1194.44 -0.102469 2.01239 0
M  V30 12926 O 1193.5 -0.786786 2.39929 0
M  V30 12927 C 1194.81 2.39624 1.81661 0
M  V30 12928 C 1196.36 2.454 1.94288 0
M  V30 12929 C 1196.83 3.73375 2.65245 0
M  V30 12930 N 1198.33 3.74368 2.72769 0
M  V30 12931 C 1199.06 4.70094 3.28328 0
M  V30 12932 N 1198.56 5.76187 3.84682 0
M  V30 12933 N 1200.35 4.57588 3.26449 0
M  V30 12934 H 1192.5 2.10644 0.272544 0
M  V30 12935 H 1194.76 0.930094 0.183385 0
M  V30 12936 H 1194.47 3.28698 1.25102 0
M  V30 12937 H 1194.34 2.50734 2.81802 0
M  V30 12938 H 1196.73 1.56784 2.50005 0
M  V30 12939 H 1196.81 2.38241 0.931379 0
M  V30 12940 H 1196.46 4.62366 2.10191 0
M  V30 12941 H 1196.39 3.77806 3.66838 0
M  V30 12942 H 1198.88 2.97685 2.32791 0
M  V30 12943 H 1199.19 6.45285 4.25238 0
M  V30 12944 H 1197.53 5.79939 3.83008 0
M  V30 12945 H 1200.73 3.7387 2.81672 0
M  V30 12946 H 1200.9 5.32365 3.69448 0
M  V30 12947 N 1194.3 -1.0692 1.15784 0
M  V30 12948 C 1195.55 -1.79245 0.933581 0
M  V30 12949 C 1195.87 -1.87362 -0.540427 0
M  V30 12950 O 1195.14 -1.37769 -1.39271 0
M  V30 12951 H 1193.72 -0.663898 0.342416 0
M  V30 12952 H 1196.39 -1.29189 1.45932 0
M  V30 12953 H 1195.48 -2.81546 1.34679 0
M  V30 12954 N 1195.78 -0.955326 -1.25345 0
M  V30 12955 C 1197.03 -0.606149 -1.92377 0
M  V30 12956 C 1197.34 0.860927 -1.75634 0
M  V30 12957 O 1198.55 1.3201 -2.37246 0
M  V30 12958 C 1197.01 -1.03341 -3.44744 0
M  V30 12959 C 1196.61 -2.52308 -3.70196 0
M  V30 12960 C 1198.36 -0.756797 -4.17699 0
M  V30 12961 C 1196.27 -2.88831 -5.16072 0
M  V30 12962 H 1195.2 -0.222994 -0.720271 0
M  V30 12963 H 1197.85 -1.15987 -1.42194 0
M  V30 12964 H 1196.23 -0.408096 -3.93892 0
M  V30 12965 H 1197.4 -3.19864 -3.31698 0
M  V30 12966 H 1195.72 -2.77448 -3.10502 0
M  V30 12967 H 1198.31 -1.00583 -5.25154 0
M  V30 12968 H 1198.66 0.306794 -4.15168 0
M  V30 12969 H 1199.19 -1.34249 -3.74462 0
M  V30 12970 H 1195.93 -3.9421 -5.23716 0
M  V30 12971 H 1195.45 -2.25948 -5.55614 0
M  V30 12972 H 1197.13 -2.78061 -5.84201 0
M  V30 12973 N 1197.26 1.39987 -0.723979 0
M  V30 12974 C 1198.21 2.32507 -0.0658033 0
M  V30 12975 C 1199.2 1.52484 0.737908 0
M  V30 12976 O 1200.41 1.68225 0.640332 0
M  V30 12977 H 1196.78 0.751996 -0.00247717 0
M  V30 12978 H 1198.76 2.85657 -0.862696 0
M  V30 12979 C 1197.5 3.37509 0.835628 0
M  V30 12980 H 1196.83 3.99157 0.226589 0
M  V30 12981 H 1198.27 4.04722 1.26396 0
M  V30 12982 C 1196.73 2.73665 1.96492 0
M  V30 12983 O 1197.26 2.60649 3.05655 0
M  V30 12984 N 1195.46 2.3192 1.75104 0
M  V30 12985 H 1195.01 2.42707 0.863204 0
M  V30 12986 H 1194.97 1.89542 2.50841 0
M  V30 12987 N 1198.74 0.470782 1.50404 0
M  V30 12988 C 1199.67 -0.313458 2.31386 0
M  V30 12989 C 1200.65 -0.990623 1.38278 0
M  V30 12990 O 1201.84 -0.987854 1.67198 0
M  V30 12991 C 1198.97 -1.39599 3.18009 0
M  V30 12992 C 1197.92 -0.840443 4.19667 0
M  V30 12993 C 1197.25 -2.02124 4.95025 0
M  V30 12994 C 1198.55 0.148055 5.2209 0
M  V30 12995 H 1200.24 0.362432 2.97198 0
M  V30 12996 H 1197.79 0.175745 1.42924 0
M  V30 12997 H 1199.74 -1.9521 3.73458 0
M  V30 12998 H 1198.46 -2.10064 2.50081 0
M  V30 12999 H 1197.12 -0.306302 3.65318 0
M  V30 13000 H 1196.77 -2.71286 4.23571 0
M  V30 13001 H 1196.47 -1.65574 5.6379 0
M  V30 13002 H 1197.99 -2.58226 5.5331 0
M  V30 13003 H 1199.41 -0.318874 5.72413 0
M  V30 13004 H 1197.8 0.427811 5.98573 0
M  V30 13005 H 1198.87 1.07404 4.72855 0
M  V30 13006 N 1200.22 -1.56282 0.203376 0
M  V30 13007 C 1201.44 -2.02643 -0.441658 0
M  V30 13008 C 1201.87 -1.0825 -1.5383 0
M  V30 13009 O 1201.23 -0.0674337 -1.81175 0
M  V30 13010 C 1201.27 -3.47382 -0.967369 0
M  V30 13011 O 1200.38 -3.56115 -2.07981 0
M  V30 13012 H 1199.72 -0.656081 -0.102242 0
M  V30 13013 H 1202.25 -2.02134 0.316684 0
M  V30 13014 H 1202.26 -3.8734 -1.28186 0
M  V30 13015 H 1200.93 -4.15574 -0.164625 0
M  V30 13016 H 1199.51 -3.28035 -1.77334 0
M  V30 13017 N 1201.7 0.070167 -1.57444 0
M  V30 13018 C 1202.94 0.767495 -1.8696 0
M  V30 13019 C 1203.26 1.78032 -0.795595 0
M  V30 13020 O 1202.53 1.95112 0.175566 0
M  V30 13021 H 1201.11 0.286443 -0.689898 0
M  V30 13022 H 1203.78 0.0458692 -1.94846 0
M  V30 13023 H 1202.87 1.28269 -2.84523 0
M  V30 13024 N 1203.17 1.53854 0.341593 0
M  V30 13025 C 1204.42 1.70856 1.07948 0
M  V30 13026 C 1204.74 0.475474 1.89114 0
M  V30 13027 O 1204.01 -0.510592 1.89129 0
M  V30 13028 H 1202.59 0.629914 0.401519 0
M  V30 13029 H 1205.25 1.91112 0.382393 0
M  V30 13030 H 1204.35 2.5803 1.75575 0
M  V30 13031 N 1204.65 -0.602709 1.4562 0
M  V30 13032 C 1205.58 -1.7271 1.50678 0
M  V30 13033 C 1206.6 -1.57884 0.397048 0
M  V30 13034 O 1207.79 -1.65676 0.664367 0
M  V30 13035 C 1204.89 -3.10762 1.35204 0
M  V30 13036 C 1204.06 -3.51782 2.59939 0
M  V30 13037 C 1203.12 -4.68816 2.38952 0
M  V30 13038 O 1202.14 -4.75686 3.12588 0
M  V30 13039 N 1203.35 -5.624 1.43827 0
M  V30 13040 H 1206.11 -1.68833 2.47619 0
M  V30 13041 H 1203.67 -0.788131 1.41422 0
M  V30 13042 H 1205.66 -3.86819 1.18967 0
M  V30 13043 H 1204.23 -3.09119 0.465203 0
M  V30 13044 H 1203.45 -2.65637 2.91257 0
M  V30 13045 H 1204.74 -3.75948 3.42842 0
M  V30 13046 H 1204.14 -5.59568 0.830669 0
M  V30 13047 H 1202.7 -6.37969 1.33561 0
M  V30 13048 N 1206.13 -1.32992 -0.845635 0
M  V30 13049 C 1207.55 -1.12179 -1.13526 0
M  V30 13050 C 1207.75 0.091795 -2.01291 0
M  V30 13051 O 1206.8 0.774051 -2.40343 0
M  V30 13052 C 1208.11 -2.40584 -1.80388 0
M  V30 13053 C 1209.66 -2.46427 -1.92984 0
M  V30 13054 C 1210.14 -3.74776 -2.63261 0
M  V30 13055 N 1211.63 -3.75809 -2.7078 0
M  V30 13056 C 1212.36 -4.71829 -3.2583 0
M  V30 13057 N 1211.86 -5.78219 -3.81621 0
M  V30 13058 N 1213.65 -4.59313 -3.24018 0
M  V30 13059 H 1205.8 -2.10786 -0.261369 0
M  V30 13060 H 1208.07 -0.931053 -0.17845 0
M  V30 13061 H 1207.77 -3.29357 -1.23357 0
M  V30 13062 H 1207.65 -2.52225 -2.80468 0
M  V30 13063 H 1210.03 -1.58108 -2.4917 0
M  V30 13064 H 1210.11 -2.38732 -0.918732 0
M  V30 13065 H 1209.76 -4.63474 -2.07736 0
M  V30 13066 H 1209.69 -3.79746 -3.6483 0
M  V30 13067 H 1212.18 -2.98916 -2.31209 0
M  V30 13068 H 1212.49 -6.47531 -4.2181 0
M  V30 13069 H 1210.84 -5.81962 -3.79927 0
M  V30 13070 H 1214.03 -3.75358 -2.79685 0
M  V30 13071 H 1214.2 -5.34316 -3.6662 0
M  V30 13072 N 1207.61 1.06304 -1.1635 0
M  V30 13073 C 1208.54 2.13732 -0.827721 0
M  V30 13074 C 1209.55 1.61962 0.164983 0
M  V30 13075 O 1210.74 1.784 -0.0597591 0
M  V30 13076 C 1207.84 3.38239 -0.211623 0
M  V30 13077 C 1207.01 4.19325 -1.2444 0
M  V30 13078 C 1206.07 5.22193 -0.648127 0
M  V30 13079 O 1205.1 5.53755 -1.31695 0
M  V30 13080 N 1206.3 5.77742 0.565179 0
M  V30 13081 H 1209.07 2.43136 -1.75228 0
M  V30 13082 H 1206.63 1.22304 -1.06081 0
M  V30 13083 H 1208.62 4.04204 0.200306 0
M  V30 13084 H 1207.19 3.06461 0.616491 0
M  V30 13085 H 1206.41 3.49017 -1.83251 0
M  V30 13086 H 1207.7 4.70306 -1.94138 0
M  V30 13087 H 1207.1 5.54366 1.12673 0
M  V30 13088 H 1205.65 6.45284 0.919321 0
M  V30 13089 N 1209.09 0.96196 1.24836 0
M  V30 13090 C 1210.5 0.667561 1.44968 0
M  V30 13091 C 1210.7 -0.772521 1.86103 0
M  V30 13092 O 1209.76 -1.54704 1.99557 0
M  V30 13093 C 1211.07 1.64675 2.516 0
M  V30 13094 C 1212.62 1.65874 2.65433 0
M  V30 13095 C 1213.09 2.62576 3.75257 0
M  V30 13096 N 1214.58 2.60984 3.82677 0
M  V30 13097 C 1215.32 3.32484 4.67163 0
M  V30 13098 N 1214.82 4.13482 5.55882 0
M  V30 13099 N 1216.61 3.21336 4.61193 0
M  V30 13100 H 1208.76 1.89248 0.964307 0
M  V30 13101 H 1211.02 0.814443 0.485167 0
M  V30 13102 H 1210.73 2.67572 2.2825 0
M  V30 13103 H 1210.6 1.415 3.49653 0
M  V30 13104 H 1212.99 0.636912 2.88145 0
M  V30 13105 H 1213.07 1.9311 1.67756 0
M  V30 13106 H 1212.71 3.6489 3.53295 0
M  V30 13107 H 1212.64 2.32622 4.72435 0
M  V30 13108 H 1215.14 2.02187 3.19263 0
M  V30 13109 H 1215.45 4.6494 6.17293 0
M  V30 13110 H 1213.79 4.17578 5.55566 0
M  V30 13111 H 1216.98 2.57524 3.90895 0
M  V30 13112 H 1217.16 3.77323 5.26812 0
M  V30 13113 N 1210.56 -1.39601 0.731392 0
M  V30 13114 C 1211.81 -1.99821 0.274661 0
M  V30 13115 C 1212.13 -1.58693 -1.1435 0
M  V30 13116 O 1213.33 -2.11724 -1.69957 0
M  V30 13117 C 1211.79 -3.57199 0.440124 0
M  V30 13118 C 1211.4 -4.07292 1.86594 0
M  V30 13119 C 1213.14 -4.24476 0.0449851 0
M  V30 13120 C 1211.05 -5.57229 1.98115 0
M  V30 13121 H 1209.98 -0.747481 0.0989383 0
M  V30 13122 H 1212.63 -1.59645 0.904755 0
M  V30 13123 H 1211.01 -3.95153 -0.25881 0
M  V30 13124 H 1212.18 -3.80679 2.59654 0
M  V30 13125 H 1210.5 -3.52665 2.21397 0
M  V30 13126 H 1213.1 -5.34587 0.110126 0
M  V30 13127 H 1213.44 -4.04129 -0.999269 0
M  V30 13128 H 1213.97 -3.91683 0.694942 0
M  V30 13129 H 1210.71 -5.82452 3.00716 0
M  V30 13130 H 1210.23 -5.85656 1.29487 0
M  V30 13131 H 1211.91 -6.22584 1.76063 0
M  V30 13132 N 1212.04 -0.478751 -1.50152 0
M  V30 13133 C 1213.28 0.0722328 -2.04272 0
M  V30 13134 C 1213.65 1.36299 -1.35227 0
M  V30 13135 O 1214.85 1.99683 -1.79945 0
M  V30 13136 C 1213.12 0.24408 -3.56566 0
M  V30 13137 S 1214.68 0.752517 -4.32299 0
M  V30 13138 H 1211.5 0.0123326 -0.710893 0
M  V30 13139 H 1214.1 -0.647641 -1.84461 0
M  V30 13140 H 1212.8 -0.701012 -4.04369 0
M  V30 13141 H 1212.33 0.989845 -3.80744 0
M  V30 13142 H 1214.35 2.02488 -4.53005 0
M  V30 13143 N 1213.52 1.56172 -0.211661 0
M  V30 13144 C 1214.77 1.98332 0.423332 0
M  V30 13145 C 1215.1 1.09895 1.60115 0
M  V30 13146 O 1214.37 0.154477 1.93886 0
M  V30 13147 C 1214.66 3.49495 0.86747 0
M  V30 13148 C 1214.51 4.48708 -0.313302 0
M  V30 13149 C 1215.83 4.04793 1.72716 0
M  V30 13150 H 1212.95 0.72107 0.152402 0
M  V30 13151 H 1215.59 1.87521 -0.305912 0
M  V30 13152 H 1213.74 3.58839 1.48885 0
M  V30 13153 H 1215.41 4.51385 -0.951291 0
M  V30 13154 H 1213.66 4.2299 -0.96238 0
M  V30 13155 H 1214.33 5.51985 0.0402402 0
M  V30 13156 H 1216.8 3.98332 1.20296 0
M  V30 13157 H 1215.68 5.10898 2.00684 0
M  V30 13158 H 1215.94 3.51067 2.68709 0
M  V30 13159 N 1215 -0.0618163 1.57479 0
M  V30 13160 C 1215.96 -1.05684 2.0338 0
M  V30 13161 C 1216.96 -1.31006 0.932423 0
M  V30 13162 O 1218.15 -1.26559 1.19702 0
M  V30 13163 C 1215.28 -2.39805 2.42294 0
M  V30 13164 H 1216.48 -0.661006 2.92525 0
M  V30 13165 H 1214.03 -0.307814 1.53239 0
M  V30 13166 H 1214.76 -2.84201 1.56207 0
M  V30 13167 H 1214.55 -2.22764 3.22674 0
M  V30 13168 H 1216.04 -3.11307 2.78349 0
M  V30 13169 N 1216.48 -1.54033 -0.333429 0
M  V30 13170 C 1217.89 -1.44522 -0.677166 0
M  V30 13171 C 1218.09 -0.610122 -1.92041 0
M  V30 13172 O 1217.15 -0.105058 -2.52281 0
M  V30 13173 C 1218.46 -2.88129 -0.860369 0
M  V30 13174 C 1220.01 -2.97968 -0.958342 0
M  V30 13175 C 1220.48 -4.42703 -1.17379 0
M  V30 13176 N 1221.98 -4.46273 -1.24075 0
M  V30 13177 C 1222.71 -5.55407 -1.42515 0
M  V30 13178 N 1222.21 -6.74528 -1.58062 0
M  V30 13179 N 1224 -5.43037 -1.45144 0
M  V30 13180 H 1216.15 -2.06815 0.483858 0
M  V30 13181 H 1218.41 -0.935307 0.15461 0
M  V30 13182 H 1218.12 -3.51695 -0.0182085 0
M  V30 13183 H 1217.99 -3.33668 -1.75913 0
M  V30 13184 H 1220.38 -2.34535 -1.79102 0
M  V30 13185 H 1220.46 -2.55774 -0.0362643 0
M  V30 13186 H 1220.11 -5.0672 -0.346004 0
M  V30 13187 H 1220.04 -4.82498 -2.10959 0
M  V30 13188 H 1222.53 -3.60439 -1.13545 0
M  V30 13189 H 1222.84 -7.53462 -1.71797 0
M  V30 13190 H 1221.18 -6.77454 -1.55179 0
M  V30 13191 H 1224.38 -4.4893 -1.32588 0
M  V30 13192 H 1224.55 -6.28146 -1.59173 0
M  V30 13193 N 1217.95 0.594978 -1.45938 0
M  V30 13194 C 1218.92 1.68688 -1.55168 0
M  V30 13195 C 1219.92 1.54945 -0.429951 0
M  V30 13196 O 1221.11 1.59785 -0.693859 0
M  V30 13197 C 1218.24 3.0804 -1.46027 0
M  V30 13198 H 1219.43 1.61866 -2.52467 0
M  V30 13199 H 1216.99 0.811785 -1.33565 0
M  V30 13200 H 1217.72 3.20428 -0.499614 0
M  V30 13201 H 1217.51 3.19423 -2.27401 0
M  V30 13202 H 1219 3.8755 -1.55546 0
M  V30 13203 N 1219.43 1.33438 0.838571 0
M  V30 13204 C 1220.36 1.26344 1.96365 0
M  V30 13205 C 1221.34 0.143956 1.6949 0
M  V30 13206 O 1222.53 0.333779 1.9131 0
M  V30 13207 C 1219.66 1.0022 3.32526 0
M  V30 13208 C 1218.61 2.08466 3.73799 0
M  V30 13209 C 1217.94 1.67555 5.07769 0
M  V30 13210 C 1219.24 3.50144 3.87552 0
M  V30 13211 H 1220.93 2.20478 2.02558 0
M  V30 13212 H 1218.48 1.06139 0.973168 0
M  V30 13213 H 1220.43 0.939068 4.10803 0
M  V30 13214 H 1219.16 0.0252514 3.2659 0
M  V30 13215 H 1217.81 2.13822 2.97785 0
M  V30 13216 H 1217.46 0.685619 4.98305 0
M  V30 13217 H 1217.16 2.39993 5.36356 0
M  V30 13218 H 1218.69 1.62708 5.88522 0
M  V30 13219 H 1220.1 3.47287 4.56141 0
M  V30 13220 H 1218.5 4.21069 4.27575 0
M  V30 13221 H 1219.57 3.88628 2.89994 0
M  V30 13222 N 1220.91 -1.05686 1.16912 0
M  V30 13223 C 1222.14 -1.82018 0.977392 0
M  V30 13224 C 1222.55 -1.83072 -0.477636 0
M  V30 13225 O 1221.89 -1.25296 -1.34338 0
M  V30 13226 C 1221.95 -3.29592 1.4356 0
M  V30 13227 C 1221.62 -3.5223 2.91175 0
M  V30 13228 C 1222.61 -3.44767 3.89142 0
M  V30 13229 C 1220.3 -3.79353 3.29236 0
M  V30 13230 C 1222.29 -3.64104 5.2317 0
M  V30 13231 C 1219.98 -3.98339 4.63432 0
M  V30 13232 C 1220.98 -3.90713 5.60207 0
M  V30 13233 O 1220.67 -4.09175 6.91976 0
M  V30 13234 H 1220.4 -0.580578 0.346273 0
M  V30 13235 H 1222.95 -1.34199 1.55498 0
M  V30 13236 H 1221.18 -3.78302 0.80153 0
M  V30 13237 H 1222.87 -3.87435 1.21032 0
M  V30 13238 H 1223.64 -3.23796 3.61083 0
M  V30 13239 H 1219.52 -3.84395 2.54482 0
M  V30 13240 H 1223.06 -3.58068 5.98693 0
M  V30 13241 H 1218.96 -4.18801 4.91198 0
M  V30 13242 H 1219.73 -4.26429 6.98642 0
M  V30 13243 N 1222.39 -0.968567 -1.24324 0
M  V30 13244 C 1223.32 -0.457247 -2.24593 0
M  V30 13245 C 1224.33 0.434483 -1.56895 0
M  V30 13246 O 1225.52 0.240519 -1.76872 0
M  V30 13247 C 1222.62 0.359086 -3.36992 0
M  V30 13248 C 1221.8 -0.522945 -4.34263 0
M  V30 13249 C 1220.85 0.237528 -5.25664 0
M  V30 13250 O 1219.88 -0.368835 -5.68004 0
M  V30 13251 N 1221.08 1.52686 -5.6006 0
M  V30 13252 H 1223.85 -1.31934 -2.69098 0
M  V30 13253 H 1221.41 -0.840488 -1.38374 0
M  V30 13254 H 1223.4 0.87589 -3.95108 0
M  V30 13255 H 1221.97 1.12212 -2.91766 0
M  V30 13256 H 1221.19 -1.22071 -3.74823 0
M  V30 13257 H 1222.48 -1.12447 -4.96219 0
M  V30 13258 H 1221.88 2.0412 -5.2759 0
M  V30 13259 H 1220.43 1.98934 -6.207 0
M  V30 13260 N 1223.87 1.39211 -0.738786 0
M  V30 13261 C 1224.81 2.32424 -0.0904601 0
M  V30 13262 C 1225.81 1.53258 0.721694 0
M  V30 13263 O 1227.01 1.68895 0.622454 0
M  V30 13264 H 1223.39 0.751927 -0.010453 0
M  V30 13265 H 1225.36 2.84726 -0.892945 0
M  V30 13266 C 1224.11 3.38377 0.799783 0
M  V30 13267 H 1223.43 3.99375 0.18424 0
M  V30 13268 H 1224.87 4.0604 1.22096 0
M  V30 13269 C 1223.33 2.75734 1.93578 0
M  V30 13270 O 1223.86 2.63876 3.02874 0
M  V30 13271 N 1222.07 2.33764 1.72634 0
M  V30 13272 H 1221.61 2.43609 0.837413 0
M  V30 13273 H 1221.57 1.92191 2.48817 0
M  V30 13274 N 1225.34 0.486708 1.49896 0
M  V30 13275 C 1226.57 -0.0600816 2.06813 0
M  V30 13276 C 1226.99 -1.32112 1.34877 0
M  V30 13277 O 1226.34 -1.77537 0.422725 0
M  V30 13278 C 1226.4 -0.332266 3.5997 0
M  V30 13279 O 1226.12 0.878771 4.29196 0
M  V30 13280 C 1227.62 -0.924289 4.33557 0
M  V30 13281 H 1224.84 0.0140611 0.670853 0
M  V30 13282 H 1227.38 0.67997 1.92864 0
M  V30 13283 H 1225.54 -1.02227 3.73669 0
M  V30 13284 H 1225.95 0.632873 5.20668 0
M  V30 13285 H 1227.42 -1.06441 5.4164 0
M  V30 13286 H 1227.9 -1.91844 3.95085 0
M  V30 13287 H 1228.51 -0.272189 4.24428 0
M  V30 13288 N 1226.82 -1.56058 0.219941 0
M  V30 13289 C 1227.77 -2.21585 -0.707321 0
M  V30 13290 C 1228.77 -1.19473 -1.20094 0
M  V30 13291 O 1229.97 -1.37557 -1.16095 0
M  V30 13292 H 1226.35 -0.710447 -0.246515 0
M  V30 13293 H 1228.32 -2.98111 -0.131214 0
M  V30 13294 C 1227.07 -2.90841 -1.90544 0
M  V30 13295 H 1226.39 -3.6917 -1.53472 0
M  V30 13296 H 1227.83 -3.40092 -2.53206 0
M  V30 13297 C 1226.29 -1.93223 -2.75983 0
M  V30 13298 O 1226.82 -1.44815 -3.74689 0
M  V30 13299 N 1225.02 -1.60907 -2.41986 0
M  V30 13300 H 1224.57 -2.00467 -1.61774 0
M  V30 13301 H 1224.53 -0.958534 -2.99432 0
M  V30 13302 N 1228.3 0.053464 -1.57509 0
M  V30 13303 C 1229.55 0.748016 -1.87317 0
M  V30 13304 C 1229.86 1.77805 -0.815161 0
M  V30 13305 O 1231.07 2.52347 -1.00167 0
M  V30 13306 C 1229.53 1.38137 -3.32334 0
M  V30 13307 C 1229.13 0.388958 -4.46308 0
M  V30 13308 C 1230.88 2.05722 -3.7132 0
M  V30 13309 C 1228.78 1.02927 -5.82374 0
M  V30 13310 H 1227.71 0.283123 -0.698826 0
M  V30 13311 H 1230.37 0.00170723 -1.835 0
M  V30 13312 H 1228.75 2.17656 -3.3082 0
M  V30 13313 H 1229.92 -0.377752 -4.59249 0
M  V30 13314 H 1228.24 -0.183447 -4.15996 0
M  V30 13315 H 1230.83 2.54437 -4.70283 0
M  V30 13316 H 1231.18 2.86475 -3.02056 0
M  V30 13317 H 1231.71 1.3301 -3.74904 0
M  V30 13318 H 1228.45 0.261674 -6.54977 0
M  V30 13319 H 1227.97 1.7664 -5.732 0
M  V30 13320 H 1229.65 1.54378 -6.28312 0
M  V30 13321 N 1229.78 1.54207 0.325255 0
M  V30 13322 C 1231.03 1.72587 1.06497 0
M  V30 13323 C 1231.36 0.497228 1.87727 0
M  V30 13324 O 1230.63 -0.505804 1.87808 0
M  V30 13325 C 1230.92 3.00046 1.99109 0
M  V30 13326 C 1230.77 4.33158 1.21221 0
M  V30 13327 C 1232.09 3.23251 2.98658 0
M  V30 13328 H 1229.21 0.627974 0.38577 0
M  V30 13329 H 1231.85 1.869 0.34179 0
M  V30 13330 H 1230 2.87973 2.60775 0
M  V30 13331 H 1231.67 4.57111 0.620289 0
M  V30 13332 H 1229.91 4.30739 0.514462 0
M  V30 13333 H 1230.59 5.18558 1.89214 0
M  V30 13334 H 1233.06 3.34774 2.47114 0
M  V30 13335 H 1231.94 4.13796 3.60645 0
M  V30 13336 H 1232.2 2.40401 3.71026 0
M  V30 13337 N 1231.26 -0.58723 1.46251 0
M  V30 13338 C 1232.5 -1.3456 1.51327 0
M  V30 13339 C 1232.83 -1.93815 0.163146 0
M  V30 13340 O 1232.09 -1.76723 -0.840677 0
M  V30 13341 C 1232.39 -2.49776 2.5563 0
M  V30 13342 C 1232.05 -2.08543 3.99776 0
M  V30 13343 C 1230.71 -1.97013 4.39021 0
M  V30 13344 C 1233.07 -1.76669 4.90344 0
M  V30 13345 C 1230.39 -1.5186 5.66706 0
M  V30 13346 C 1232.75 -1.32996 6.18462 0
M  V30 13347 C 1231.41 -1.20039 6.56618 0
M  V30 13348 H 1230.68 -0.492391 0.553744 0
M  V30 13349 H 1233.33 -0.661715 1.79704 0
M  V30 13350 H 1231.63 -3.23592 2.20897 0
M  V30 13351 H 1233.33 -3.07995 2.56788 0
M  V30 13352 H 1229.92 -2.18451 3.68751 0
M  V30 13353 H 1234.1 -1.84465 4.60746 0
M  V30 13354 H 1229.36 -1.40467 5.95045 0
M  V30 13355 H 1233.53 -1.07385 6.88071 0
M  V30 13356 H 1231.16 -0.848268 7.55452 0
M  V30 13357 N 1232.74 -1.33881 -0.831482 0
M  V30 13358 C 1233.67 -1.27384 -1.95693 0
M  V30 13359 C 1234.65 -0.152943 -1.69411 0
M  V30 13360 O 1235.83 -0.34392 -1.9113 0
M  V30 13361 C 1232.96 -1.01982 -3.31989 0
M  V30 13362 C 1231.92 -2.10445 -3.72689 0
M  V30 13363 C 1231.24 -1.70245 -5.06873 0
M  V30 13364 C 1232.54 -3.52194 -3.8569 0
M  V30 13365 H 1234.24 -2.21549 -2.01386 0
M  V30 13366 H 1231.78 -1.06653 -0.967526 0
M  V30 13367 H 1233.73 -0.960841 -4.103 0
M  V30 13368 H 1232.46 -0.0425709 -3.26572 0
M  V30 13369 H 1231.12 -2.15398 -2.96647 0
M  V30 13370 H 1230.77 -0.712036 -4.97935 0
M  V30 13371 H 1230.47 -2.42834 -5.35075 0
M  V30 13372 H 1231.99 -1.65827 -5.87651 0
M  V30 13373 H 1233.4 -3.49701 -4.54293 0
M  V30 13374 H 1231.8 -4.23331 -4.25336 0
M  V30 13375 H 1232.87 -3.9016 -2.87929 0
M  V30 13376 N 1234.21 1.05064 -1.1747 0
M  V30 13377 C 1235.49 1.74999 -0.873776 0
M  V30 13378 C 1235.87 2.01615 0.625676 0
M  V30 13379 O 1235.22 1.65324 1.57734 0
M  V30 13380 C 1235.43 3.04231 -1.7101 0
M  V30 13381 C 1236.78 3.78157 -1.93087 0
M  V30 13382 O 1237.8 3.14104 -1.6798 0
M  V30 13383 O 1236.66 4.93255 -2.3529 0
M  V30 13384 H 1233.75 0.761042 -0.323641 0
M  V30 13385 H 1236.3 1.1122 -1.28172 0
M  V30 13386 H 1235.07 2.80621 -2.72704 0
M  V30 13387 H 1234.69 3.75746 -1.30002 0
M  V30 13388 N 1235.69 0.975146 1.23809 0
M  V30 13389 C 1236.97 0.557725 1.8748 0
M  V30 13390 C 1237.35 -0.965164 1.87744 0
M  V30 13391 O 1236.7 -1.83966 1.35531 0
M  V30 13392 C 1236.91 1.15777 3.29236 0
M  V30 13393 C 1238.25 1.24726 4.05868 0
M  V30 13394 O 1239.28 1.11084 3.38436 0
M  V30 13395 O 1238.14 1.46373 5.26533 0
M  V30 13396 H 1235.23 0.187045 0.80557 0
M  V30 13397 H 1237.78 1.06989 1.31725 0
M  V30 13398 H 1236.55 2.20023 3.23583 0
M  V30 13399 H 1236.17 0.630103 3.92575 0
M  V30 13400 N 1237.17 -1.38817 0.746158 0
M  V30 13401 C 1238.58 -1.83045 0.367629 0
M  V30 13402 C 1238.93 -1.62285 -1.10263 0
M  V30 13403 O 1238.06 -1.12001 -1.85162 0
M  V30 13404 C 1238.65 -3.323 0.660482 0
M  V30 13405 C 1237.21 -3.74903 0.335318 0
M  V30 13406 C 1236.36 -2.61683 0.917446 0
M  V30 13407 H 1239.31 -1.27651 0.94291 0
M  V30 13408 H 1239.33 -3.80446 -0.0639061 0
M  V30 13409 H 1238.84 -3.47377 1.73062 0
M  V30 13410 H 1236.94 -3.65408 -0.728538 0
M  V30 13411 H 1237.06 -4.71932 0.825677 0
M  V30 13412 H 1235.42 -2.52376 0.343316 0
M  V30 13413 H 1236.2 -2.79563 1.99247 0
M  V30 13414 N 1238.65 -0.49465 -1.49636 0
M  V30 13415 C 1239.89 0.0521172 -2.02433 0
M  V30 13416 C 1240.22 1.37579 -1.37485 0
M  V30 13417 O 1239.48 1.8927 -0.497538 0
M  V30 13418 C 1239.78 0.259743 -3.56455 0
M  V30 13419 C 1239.44 -0.985143 -4.40007 0
M  V30 13420 C 1238.1 -1.3264 -4.62558 0
M  V30 13421 C 1240.46 -1.81291 -4.88654 0
M  V30 13422 C 1237.78 -2.49506 -5.31003 0
M  V30 13423 C 1240.14 -2.97305 -5.58384 0
M  V30 13424 C 1238.8 -3.31818 -5.79183 0
M  V30 13425 H 1238.07 0.0190711 -0.740755 0
M  V30 13426 H 1240.72 -0.653519 -1.80004 0
M  V30 13427 H 1239.02 1.04785 -3.77528 0
M  V30 13428 H 1240.72 0.697146 -3.94893 0
M  V30 13429 H 1237.31 -0.709313 -4.2269 0
M  V30 13430 H 1241.49 -1.56242 -4.71065 0
M  V30 13431 H 1236.75 -2.76491 -5.4531 0
M  V30 13432 H 1240.92 -3.61777 -5.95055 0
M  V30 13433 H 1238.55 -4.22478 -6.31994 0
M  V30 13434 N 1240.13 1.55939 -0.228214 0
M  V30 13435 C 1241.35 2.0332 0.409364 0
M  V30 13436 C 1241.78 1.10683 1.52088 0
M  V30 13437 O 1241.13 0.0962484 1.81044 0
M  V30 13438 C 1241.18 3.48877 0.911981 0
M  V30 13439 O 1240.29 3.59378 2.02289 0
M  V30 13440 H 1239.63 0.657625 0.0917909 0
M  V30 13441 H 1242.16 2.01605 -0.348802 0
M  V30 13442 H 1242.17 3.89331 1.22007 0
M  V30 13443 H 1240.84 4.15783 0.0984902 0
M  V30 13444 H 1239.42 3.30815 1.72093 0
M  V30 13445 N 1241.6 -0.0451101 1.57535 0
M  V30 13446 C 1242.57 -1.03521 2.0449 0
M  V30 13447 C 1243.57 -1.30009 0.946265 0
M  V30 13448 O 1244.76 -1.25282 1.21038 0
M  V30 13449 C 1241.89 -2.37221 2.44824 0
M  V30 13450 H 1243.08 -0.629943 2.93209 0
M  V30 13451 H 1240.64 -0.291544 1.53557 0
M  V30 13452 H 1241.37 -2.82528 1.59212 0
M  V30 13453 H 1241.16 -2.19329 3.25018 0
M  V30 13454 H 1242.65 -3.08337 2.81635 0
M  V30 13455 N 1243.08 -1.54377 -0.317073 0
M  V30 13456 C 1244.01 -1.8721 -1.39552 0
M  V30 13457 C 1244.99 -0.729483 -1.53664 0
M  V30 13458 O 1246.18 -0.983799 -1.67437 0
M  V30 13459 C 1243.31 -2.1052 -2.76222 0
M  V30 13460 C 1242.26 -3.26366 -2.76892 0
M  V30 13461 C 1241.59 -3.35061 -4.16699 0
M  V30 13462 C 1242.89 -4.63862 -2.40061 0
M  V30 13463 H 1244.58 -2.77532 -1.12323 0
M  V30 13464 H 1242.13 -1.33536 -0.538897 0
M  V30 13465 H 1244.08 -2.32073 -3.51739 0
M  V30 13466 H 1242.81 -1.16953 -3.04942 0
M  V30 13467 H 1241.46 -3.0471 -2.03831 0
M  V30 13468 H 1241.11 -2.39041 -4.4257 0
M  V30 13469 H 1240.81 -4.12923 -4.18053 0
M  V30 13470 H 1242.34 -3.58856 -4.94019 0
M  V30 13471 H 1243.75 -4.85252 -3.05292 0
M  V30 13472 H 1242.15 -5.44321 -2.52655 0
M  V30 13473 H 1243.22 -4.6567 -1.35202 0
M  V30 13474 N 1244.56 0.579466 -1.4656 0
M  V30 13475 C 1245.84 1.33973 -1.42515 0
M  V30 13476 C 1246.22 2.10812 -0.110317 0
M  V30 13477 O 1245.57 2.09679 0.908135 0
M  V30 13478 C 1245.78 2.26301 -2.65686 0
M  V30 13479 C 1247.12 2.88027 -3.1197 0
M  V30 13480 O 1248.15 2.36612 -2.66257 0
M  V30 13481 O 1247.01 3.81423 -3.9138 0
M  V30 13482 H 1244.1 0.602121 -0.566903 0
M  V30 13483 H 1246.65 0.600214 -1.58731 0
M  V30 13484 H 1245.42 1.68973 -3.52936 0
M  V30 13485 H 1245.04 3.07586 -2.51945 0
M  V30 13486 N 1246.04 1.3432 0.824371 0
M  V30 13487 C 1247.29 1.25938 1.57552 0
M  V30 13488 C 1247.6 -0.169298 1.94866 0
M  V30 13489 O 1248.81 -0.375262 2.68894 0
M  V30 13490 C 1247.26 2.20757 2.84244 0
M  V30 13491 C 1246.87 3.68873 2.54237 0
M  V30 13492 C 1248.61 2.21279 3.62265 0
M  V30 13493 C 1246.52 4.55566 3.77113 0
M  V30 13494 H 1245.45 0.467832 0.591311 0
M  V30 13495 H 1248.1 1.59476 0.907724 0
M  V30 13496 H 1246.48 1.80168 3.52641 0
M  V30 13497 H 1247.66 4.17991 1.93959 0
M  V30 13498 H 1245.97 3.70784 1.89494 0
M  V30 13499 H 1248.57 2.83272 4.53499 0
M  V30 13500 H 1248.91 1.2117 3.98276 0
M  V30 13501 H 1249.45 2.60305 3.00809 0
M  V30 13502 H 1246.19 5.56605 3.46223 0
M  V30 13503 H 1245.71 4.11184 4.36678 0
M  V30 13504 H 1247.38 4.701 4.44539 0
M  V30 13505 N 1247.52 -1.0444 1.18026 0
M  V30 13506 C 1248.47 -2.10671 0.871877 0
M  V30 13507 C 1249.45 -1.60134 -0.156798 0
M  V30 13508 O 1250.64 -1.76938 0.0467129 0
M  V30 13509 C 1247.77 -3.41017 0.395271 0
M  V30 13510 C 1246.86 -3.98331 1.4558 0
M  V30 13511 N 1247.25 -4.29508 2.67127 0
M  V30 13512 C 1245.55 -4.2616 1.31544 0
M  V30 13513 C 1246.25 -4.7532 3.35329 0
M  V30 13514 N 1245.22 -4.75904 2.6271 0
M  V30 13515 H 1249.03 -2.32647 1.79589 0
M  V30 13516 H 1246.54 -1.22158 1.0701 0
M  V30 13517 H 1248.54 -4.16609 0.155861 0
M  V30 13518 H 1247.2 -3.20469 -0.522452 0
M  V30 13519 H 1248.21 -4.19271 3.04027 0
M  V30 13520 H 1244.88 -4.14959 0.459962 0
M  V30 13521 H 1246.27 -5.08493 4.39186 0
M  V30 13522 N 1248.99 -0.981699 -1.2329 0
M  V30 13523 C 1249.92 -0.542441 -2.27112 0
M  V30 13524 C 1250.91 0.425034 -1.64704 0
M  V30 13525 O 1252.09 0.318114 -1.91577 0
M  V30 13526 C 1249.22 0.154668 -3.46955 0
M  V30 13527 C 1248.17 -0.73022 -4.21725 0
M  V30 13528 C 1247.5 0.0991766 -5.34608 0
M  V30 13529 C 1248.8 -2.02166 -4.81587 0
M  V30 13530 H 1250.49 -1.41024 -2.64107 0
M  V30 13531 H 1248.04 -0.679544 -1.26957 0
M  V30 13532 H 1249.99 0.473281 -4.18734 0
M  V30 13533 H 1248.72 1.05693 -3.09025 0
M  V30 13534 H 1247.38 -1.03231 -3.51765 0
M  V30 13535 H 1247.02 1.00201 -4.92919 0
M  V30 13536 H 1246.72 -0.489788 -5.85555 0
M  V30 13537 H 1248.25 0.412141 -6.09207 0
M  V30 13538 H 1249.66 -1.76773 -5.45366 0
M  V30 13539 H 1248.06 -2.55851 -5.42826 0
M  V30 13540 H 1249.13 -2.70766 -4.02261 0
M  V30 13541 N 1250.47 1.3842 -0.753509 0
M  V30 13542 C 1251.7 2.04929 -0.319174 0
M  V30 13543 C 1252.12 1.56457 1.04416 0
M  V30 13544 O 1251.48 0.716527 1.6654 0
M  V30 13545 C 1251.53 3.58887 -0.351054 0
M  V30 13546 O 1250.63 4.07166 0.654963 0
M  V30 13547 H 1249.97 0.648782 -0.141343 0
M  V30 13548 H 1252.5 1.77096 -1.02461 0
M  V30 13549 H 1252.51 4.075 -0.201907 0
M  V30 13550 H 1251.19 3.93525 -1.34576 0
M  V30 13551 H 1249.77 3.69921 0.470435 0
M  V30 13552 N 1251.95 0.502579 1.49372 0
M  V30 13553 C 1253.23 -0.104472 1.95321 0
M  V30 13554 C 1253.61 -1.53975 1.44412 0
M  V30 13555 O 1252.96 -2.18804 0.658566 0
M  V30 13556 C 1253.17 -0.0154833 3.48997 0
M  V30 13557 C 1254.51 -0.188615 4.24181 0
M  V30 13558 O 1255.54 -0.090595 3.56085 0
M  V30 13559 O 1254.4 -0.390068 5.45106 0
M  V30 13560 H 1251.49 -0.0944325 0.821591 0
M  V30 13561 H 1254.04 0.565229 1.6001 0
M  V30 13562 H 1252.81 0.985383 3.7869 0
M  V30 13563 H 1252.43 -0.72526 3.90929 0
M  V30 13564 N 1253.43 -1.55816 0.23648 0
M  V30 13565 C 1254.38 -2.17588 -0.681145 0
M  V30 13566 C 1255.36 -1.12862 -1.14678 0
M  V30 13567 O 1256.55 -1.38805 -1.09829 0
M  V30 13568 C 1253.68 -2.87086 -1.88246 0
M  V30 13569 C 1252.77 -3.99056 -1.43581 0
M  V30 13570 N 1253.16 -5.00895 -0.702704 0
M  V30 13571 C 1251.46 -4.11419 -1.72192 0
M  V30 13572 C 1252.16 -5.79775 -0.472866 0
M  V30 13573 N 1251.14 -5.33675 -1.034 0
M  V30 13574 H 1254.94 -2.93684 -0.112772 0
M  V30 13575 H 1252.45 -1.62355 0.0383551 0
M  V30 13576 H 1254.45 -3.29761 -2.55075 0
M  V30 13577 H 1253.11 -2.1249 -2.45516 0
M  V30 13578 H 1254.12 -5.1669 -0.353865 0
M  V30 13579 H 1250.8 -3.47987 -2.30676 0
M  V30 13580 H 1252.19 -6.71807 0.111664 0
M  V30 13581 N 1254.91 0.036755 -1.57557 0
M  V30 13582 C 1255.84 1.03939 -2.09091 0
M  V30 13583 C 1256.82 1.38196 -0.991761 0
M  V30 13584 O 1258 1.47214 -1.26656 0
M  V30 13585 C 1255.13 2.34263 -2.56394 0
M  V30 13586 C 1254.09 2.14269 -3.70504 0
M  V30 13587 C 1253.41 3.50286 -4.03985 0
M  V30 13588 C 1254.71 1.53514 -4.9923 0
M  V30 13589 H 1256.41 0.610429 -2.93111 0
M  V30 13590 H 1253.95 0.292183 -1.41005 0
M  V30 13591 H 1255.91 3.04727 -2.91066 0
M  V30 13592 H 1254.63 2.79205 -1.69447 0
M  V30 13593 H 1253.29 1.46239 -3.36169 0
M  V30 13594 H 1252.94 3.92861 -3.14116 0
M  V30 13595 H 1252.64 3.37735 -4.80842 0
M  V30 13596 H 1254.16 4.22124 -4.41184 0
M  V30 13597 H 1255.57 2.13885 -5.31908 0
M  V30 13598 H 1253.97 1.51561 -5.80646 0
M  V30 13599 H 1255.04 0.500126 -4.82314 0
M  V30 13600 N 1256.39 1.54543 0.308881 0
M  V30 13601 C 1257.32 1.79818 1.40502 0
M  V30 13602 C 1258.3 0.648927 1.4909 0
M  V30 13603 O 1259.48 0.888009 1.66273 0
M  V30 13604 C 1256.61 1.92787 2.7848 0
M  V30 13605 C 1255.65 3.15167 2.87353 0
M  V30 13606 S 1256.49 4.73427 2.50255 0
M  V30 13607 C 1257.64 4.89321 3.90276 0
M  V30 13608 H 1257.88 2.7251 1.18852 0
M  V30 13609 H 1255.41 1.45854 0.506551 0
M  V30 13610 H 1257.37 2.00944 3.57955 0
M  V30 13611 H 1256.03 1.01047 2.97403 0
M  V30 13612 H 1255.22 3.2102 3.88538 0
M  V30 13613 H 1254.82 3.05416 2.15864 0
M  V30 13614 H 1257.11 4.7286 4.8519 0
M  V30 13615 H 1258.06 5.91418 3.89398 0
M  V30 13616 H 1258.47 4.17524 3.79913 0
M  V30 13617 N 1257.86 -0.571685 1.46866 0
M  V30 13618 C 1258.8 -1.69475 1.54307 0
M  V30 13619 C 1259.81 -1.57006 0.430449 0
M  V30 13620 O 1261 -1.64229 0.69936 0
M  V30 13621 C 1258.1 -3.07824 1.41766 0
M  V30 13622 C 1257.27 -3.46189 2.67342 0
M  V30 13623 C 1256.33 -4.63642 2.48843 0
M  V30 13624 O 1255.36 -4.68949 3.22608 0
M  V30 13625 N 1256.56 -5.59223 1.55724 0
M  V30 13626 H 1259.32 -1.63543 2.51145 0
M  V30 13627 H 1256.88 -0.757957 1.43062 0
M  V30 13628 H 1258.88 -3.84208 1.27146 0
M  V30 13629 H 1257.45 -3.08063 0.530667 0
M  V30 13630 H 1256.67 -2.59399 2.96826 0
M  V30 13631 H 1257.95 -3.68591 3.50739 0
M  V30 13632 H 1257.35 -5.5768 0.949175 0
M  V30 13633 H 1255.91 -6.34993 1.47063 0
M  V30 13634 N 1259.34 -1.34755 -0.817236 0
M  V30 13635 C 1260.25 -1.28888 -1.96023 0
M  V30 13636 C 1261.27 -0.195582 -1.72897 0
M  V30 13637 O 1262.44 -0.423071 -1.96906 0
M  V30 13638 C 1259.51 -1.04985 -3.30423 0
M  V30 13639 C 1258.57 -2.23526 -3.66517 0
M  V30 13640 C 1257.8 -2.00753 -4.94504 0
M  V30 13641 O 1258.03 -0.968622 -5.62116 0
M  V30 13642 O 1256.96 -2.87848 -5.28608 0
M  V30 13643 H 1260.79 -2.25059 -2.03917 0
M  V30 13644 H 1258.37 -1.15019 -0.953467 0
M  V30 13645 H 1260.25 -0.934589 -4.10906 0
M  V30 13646 H 1258.93 -0.118582 -3.23483 0
M  V30 13647 H 1257.83 -2.40613 -2.86455 0
M  V30 13648 H 1259.17 -3.15062 -3.78149 0
M  V30 13649 N 1260.82 1.03812 -1.18578 0
M  V30 13650 C 1262.07 1.76706 -0.980776 0
M  V30 13651 C 1262.39 1.88729 0.490562 0
M  V30 13652 O 1261.66 1.41413 1.35569 0
M  V30 13653 H 1260.24 0.654586 -0.359898 0
M  V30 13654 H 1262.9 1.25274 -1.49306 0
M  V30 13655 H 1262 2.77876 -1.42096 0
M  V30 13656 N 1262.3 0.988223 1.22768 0
M  V30 13657 C 1263.55 0.656941 1.90702 0
M  V30 13658 C 1263.86 -0.814058 1.77855 0
M  V30 13659 O 1265.07 -1.25673 2.40663 0
M  V30 13660 C 1263.52 1.12445 3.41883 0
M  V30 13661 C 1263.13 2.62034 3.63376 0
M  V30 13662 C 1264.87 0.867277 4.15546 0
M  V30 13663 C 1262.78 3.02412 5.08233 0
M  V30 13664 H 1261.71 0.242012 0.714105 0
M  V30 13665 H 1264.36 1.19716 1.39069 0
M  V30 13666 H 1262.74 0.512386 3.92671 0
M  V30 13667 H 1263.92 3.28546 3.23101 0
M  V30 13668 H 1262.23 2.85583 3.03037 0
M  V30 13669 H 1264.83 1.14471 5.22303 0
M  V30 13670 H 1265.17 -0.196611 4.15835 0
M  V30 13671 H 1265.71 1.4413 3.70771 0
M  V30 13672 H 1262.44 4.07957 5.1308 0
M  V30 13673 H 1261.96 2.406 5.49429 0
M  V30 13674 H 1263.64 2.93452 5.76624 0
M  V30 13675 N 1263.78 -1.38018 0.760839 0
M  V30 13676 C 1264.71 -2.32995 0.153557 0
M  V30 13677 C 1265.69 -1.55234 -0.695448 0
M  V30 13678 O 1266.87 -1.8352 -0.635148 0
M  V30 13679 C 1264 -3.39437 -0.734811 0
M  V30 13680 C 1262.96 -4.27998 0.0120287 0
M  V30 13681 C 1262.28 -5.25359 -0.995067 0
M  V30 13682 C 1263.58 -5.08687 1.18468 0
M  V30 13683 H 1265.28 -2.8403 0.946956 0
M  V30 13684 H 1262.82 -1.36562 0.456816 0
M  V30 13685 H 1264.77 -4.0485 -1.16938 0
M  V30 13686 H 1263.5 -2.86901 -1.56061 0
M  V30 13687 H 1262.16 -3.64102 0.427254 0
M  V30 13688 H 1261.81 -4.69108 -1.81512 0
M  V30 13689 H 1261.51 -5.85469 -0.499969 0
M  V30 13690 H 1263.03 -5.93648 -1.4288 0
M  V30 13691 H 1264.44 -5.67299 0.8273 0
M  V30 13692 H 1262.84 -5.78068 1.61112 0
M  V30 13693 H 1263.91 -4.42 1.99409 0
M  V30 13694 N 1265.25 -0.510493 -1.49103 0
M  V30 13695 C 1266.2 0.262848 -2.29298 0
M  V30 13696 C 1267.17 0.951714 -1.36131 0
M  V30 13697 O 1268.36 0.956534 -1.65091 0
M  V30 13698 C 1265.5 1.31565 -3.19037 0
M  V30 13699 C 1264.61 0.637598 -4.27269 0
M  V30 13700 C 1263.74 1.67165 -5.04212 0
M  V30 13701 C 1262.78 0.975992 -6.04269 0
M  V30 13702 N 1261.92 1.95468 -6.74342 0
M  V30 13703 H 1266.76 -0.427246 -2.94921 0
M  V30 13704 H 1264.3 -0.222538 -1.45407 0
M  V30 13705 H 1266.25 1.93813 -3.69449 0
M  V30 13706 H 1264.88 1.97438 -2.55379 0
M  V30 13707 H 1263.94 -0.0983863 -3.80273 0
M  V30 13708 H 1265.25 0.0904435 -4.98718 0
M  V30 13709 H 1264.4 2.36893 -5.5854 0
M  V30 13710 H 1263.14 2.25267 -4.32557 0
M  V30 13711 H 1262.15 0.264534 -5.49163 0
M  V30 13712 H 1263.37 0.40134 -6.77913 0
M  V30 13713 H 1261.32 2.52515 -6.05452 0
M  V30 13714 H 1261.23 1.45845 -7.41799 0
M  V30 13715 H 1262.5 2.64455 -7.33269 0
M  V30 13716 N 1266.73 1.55688 -0.24474 0
M  V30 13717 C 1267.98 1.98891 0.380603 0
M  V30 13718 C 1268.31 1.13283 1.58105 0
M  V30 13719 O 1267.56 0.183141 1.94841 0
M  V30 13720 C 1267.86 3.47487 0.835923 0
M  V30 13721 C 1267.53 4.5017 -0.256528 0
M  V30 13722 C 1266.19 4.7797 -0.556573 0
M  V30 13723 C 1268.54 5.1163 -0.994174 0
M  V30 13724 C 1265.87 5.64508 -1.59838 0
M  V30 13725 C 1268.22 5.99297 -2.02548 0
M  V30 13726 C 1266.88 6.25432 -2.3322 0
M  V30 13727 H 1266.15 0.727794 0.139273 0
M  V30 13728 H 1268.8 1.88235 -0.352113 0
M  V30 13729 H 1267.11 3.55464 1.64781 0
M  V30 13730 H 1268.8 3.78301 1.33001 0
M  V30 13731 H 1265.39 4.28598 -0.0125284 0
M  V30 13732 H 1269.58 4.90202 -0.775617 0
M  V30 13733 H 1264.83 5.83012 -1.84138 0
M  V30 13734 H 1269.01 6.45964 -2.60198 0
M  V30 13735 H 1266.63 6.92282 -3.14085 0
M  V30 13736 N 1268.21 -0.0283989 1.57574 0
M  V30 13737 C 1269.14 -1.02828 2.09639 0
M  V30 13738 C 1270.12 -1.37668 0.999076 0
M  V30 13739 O 1271.31 -1.4654 1.27435 0
M  V30 13740 C 1268.44 -2.329 2.57633 0
M  V30 13741 C 1267.39 -2.12301 3.71635 0
M  V30 13742 C 1266.72 -3.48138 4.05837 0
M  V30 13743 C 1268.02 -1.50864 5.00037 0
M  V30 13744 H 1269.71 -0.594876 2.93431 0
M  V30 13745 H 1267.26 -0.284701 1.41158 0
M  V30 13746 H 1269.21 -3.03179 2.92678 0
M  V30 13747 H 1267.93 -2.78302 1.70926 0
M  V30 13748 H 1266.59 -1.44454 3.3694 0
M  V30 13749 H 1266.24 -3.9119 3.16195 0
M  V30 13750 H 1265.94 -3.3518 4.82626 0
M  V30 13751 H 1267.46 -4.19779 4.43417 0
M  V30 13752 H 1268.88 -2.11062 5.33035 0
M  V30 13753 H 1267.27 -1.48479 5.81441 0
M  V30 13754 H 1268.34 -0.474541 4.82572 0
M  V30 13755 N 1269.69 -1.54705 -0.300681 0
M  V30 13756 C 1270.62 -1.8205 -1.39249 0
M  V30 13757 C 1271.63 -0.703476 -1.46816 0
M  V30 13758 O 1272.82 -0.980957 -1.49129 0
M  V30 13759 C 1269.92 -1.94376 -2.77617 0
M  V30 13760 C 1269.09 -3.2478 -2.92979 0
M  V30 13761 C 1268.15 -3.27518 -4.11848 0
M  V30 13762 O 1267.18 -4.01047 -4.03918 0
M  V30 13763 N 1268.38 -2.52932 -5.22499 0
M  V30 13764 H 1271.15 -2.76279 -1.16146 0
M  V30 13765 H 1268.71 -1.54283 -0.49075 0
M  V30 13766 H 1270.7 -1.93609 -3.55384 0
M  V30 13767 H 1269.27 -1.07141 -2.93666 0
M  V30 13768 H 1268.49 -3.38319 -2.02322 0
M  V30 13769 H 1269.78 -4.10835 -3.00153 0
M  V30 13770 H 1269.18 -1.92825 -5.31822 0
M  V30 13771 H 1267.73 -2.57919 -5.98599 0
M  V30 13772 N 1271.17 0.563888 -1.47167 0
M  V30 13773 C 1272.44 1.32454 -1.43928 0
M  V30 13774 C 1272.82 2.10683 -0.13267 0
M  V30 13775 O 1272.17 2.1063 0.885845 0
M  V30 13776 C 1272.38 2.2347 -2.68071 0
M  V30 13777 C 1273.73 2.84702 -3.15008 0
M  V30 13778 O 1274.75 2.33775 -2.68752 0
M  V30 13779 O 1273.61 3.77251 -3.95404 0
M  V30 13780 H 1270.71 0.596074 -0.573258 0
M  V30 13781 H 1273.25 0.583345 -1.59359 0
M  V30 13782 H 1272.02 1.6522 -3.54708 0
M  V30 13783 H 1271.65 3.04897 -2.55193 0
M  V30 13784 N 1272.64 1.35187 0.810078 0
M  V30 13785 C 1273.92 1.18832 1.55365 0
M  V30 13786 C 1274.3 -0.233956 2.098 0
M  V30 13787 O 1273.65 -1.23701 1.92121 0
M  V30 13788 C 1273.86 2.25351 2.66492 0
M  V30 13789 C 1275.21 2.60981 3.34924 0
M  V30 13790 O 1276.23 2.24238 2.7676 0
M  V30 13791 O 1275.09 3.24147 4.3999 0
M  V30 13792 H 1272.18 0.461446 0.686292 0
M  V30 13793 H 1274.73 1.46858 0.850341 0
M  V30 13794 H 1273.5 3.20762 2.24115 0
M  V30 13795 H 1273.13 1.98575 3.44462 0
M  V30 13796 N 1274.12 -1.03182 1.19127 0
M  V30 13797 C 1275.07 -2.11394 0.926339 0
M  V30 13798 C 1276.04 -1.65528 -0.137703 0
M  V30 13799 O 1277.22 -1.908 0.00381804 0
M  V30 13800 C 1274.36 -3.41913 0.467894 0
M  V30 13801 C 1273.48 -4.01343 1.59837 0
M  V30 13802 C 1272.61 -5.1986 1.09175 0
M  V30 13803 C 1271.65 -5.71339 2.19632 0
M  V30 13804 N 1270.79 -6.81133 1.703 0
M  V30 13805 H 1275.63 -2.33393 1.85288 0
M  V30 13806 H 1273.17 -1.14473 0.923811 0
M  V30 13807 H 1275.12 -4.16796 0.183513 0
M  V30 13808 H 1273.75 -3.20034 -0.421656 0
M  V30 13809 H 1272.81 -3.23702 1.99803 0
M  V30 13810 H 1274.12 -4.35568 2.43068 0
M  V30 13811 H 1273.27 -6.0189 0.762427 0
M  V30 13812 H 1272.01 -4.87161 0.22914 0
M  V30 13813 H 1271.02 -4.87923 2.53399 0
M  V30 13814 H 1272.24 -6.06078 3.06344 0
M  V30 13815 H 1270.19 -6.50293 0.863415 0
M  V30 13816 H 1270.1 -7.1447 2.47122 0
M  V30 13817 H 1271.37 -7.66766 1.40321 0
M  V30 13818 N 1275.6 -0.99472 -1.22242 0
M  V30 13819 C 1277.02 -0.705762 -1.43147 0
M  V30 13820 C 1277.22 0.722908 -1.88086 0
M  V30 13821 O 1276.27 1.49359 -2.03588 0
M  V30 13822 C 1277.59 -1.71288 -2.47145 0
M  V30 13823 C 1279.13 -1.72853 -2.60942 0
M  V30 13824 C 1279.61 -2.72433 -3.68163 0
M  V30 13825 N 1281.1 -2.71039 -3.75623 0
M  V30 13826 C 1281.83 -3.44753 -4.58184 0
M  V30 13827 N 1281.33 -4.28075 -5.44724 0
M  V30 13828 N 1283.12 -3.33451 -4.52512 0
M  V30 13829 H 1275.27 -1.91738 -0.913792 0
M  V30 13830 H 1277.54 -0.82702 -0.463403 0
M  V30 13831 H 1277.24 -2.7353 -2.21075 0
M  V30 13832 H 1277.12 -1.50721 -3.45779 0
M  V30 13833 H 1279.5 -0.713085 -2.86355 0
M  V30 13834 H 1279.59 -1.9749 -1.62577 0
M  V30 13835 H 1279.23 -3.74129 -3.43497 0
M  V30 13836 H 1279.16 -2.45066 -4.66101 0
M  V30 13837 H 1281.65 -2.10581 -3.1379 0
M  V30 13838 H 1281.96 -4.81143 -6.04749 0
M  V30 13839 H 1280.31 -4.32161 -5.44299 0
M  V30 13840 H 1283.5 -2.67797 -3.8393 0
M  V30 13841 H 1283.67 -3.91158 -5.16623 0
M  V30 13842 N 1277.08 1.37613 -0.768148 0
M  V30 13843 C 1278.31 2.04052 -0.342111 0
M  V30 13844 C 1278.72 1.57936 1.03449 0
M  V30 13845 O 1278.08 0.758981 1.65969 0
M  V30 13846 C 1278.13 3.5958 -0.372096 0
M  V30 13847 O 1277.85 4.04008 -1.69439 0
M  V30 13848 C 1279.35 4.43251 0.0659884 0
M  V30 13849 H 1276.57 0.655391 -0.143886 0
M  V30 13850 H 1279.12 1.76017 -1.04107 0
M  V30 13851 H 1277.27 3.86399 0.278248 0
M  V30 13852 H 1277.68 4.98511 -1.63054 0
M  V30 13853 H 1279.16 5.52 -0.00614775 0
M  V30 13854 H 1279.64 4.24788 1.11588 0
M  V30 13855 H 1280.24 4.2165 -0.55603 0
M  V30 13856 N 1278.56 0.518393 1.4883 0
M  V30 13857 C 1279.49 -0.239685 2.32267 0
M  V30 13858 C 1280.47 -0.94613 1.41359 0
M  V30 13859 O 1281.65 -0.934162 1.70256 0
M  V30 13860 C 1278.78 -1.29411 3.22289 0
M  V30 13861 C 1277.74 -0.706504 4.22129 0
M  V30 13862 C 1277.06 -1.86273 5.01205 0
M  V30 13863 C 1278.36 0.314079 5.21355 0
M  V30 13864 H 1280.06 0.4568 2.95895 0
M  V30 13865 H 1277.6 0.221126 1.42292 0
M  V30 13866 H 1279.56 -1.8323 3.7948 0
M  V30 13867 H 1278.28 -2.02001 2.56638 0
M  V30 13868 H 1276.94 -0.189924 3.66108 0
M  V30 13869 H 1276.59 -2.57674 4.31988 0
M  V30 13870 H 1276.29 -1.47554 5.68772 0
M  V30 13871 H 1277.81 -2.40492 5.61245 0
M  V30 13872 H 1279.22 -0.136604 5.73137 0
M  V30 13873 H 1277.62 0.618026 5.96909 0
M  V30 13874 H 1278.69 1.22394 4.69199 0
M  V30 13875 N 1280.03 -1.55556 0.252993 0
M  V30 13876 C 1281.28 -1.99385 -0.370599 0
M  V30 13877 C 1281.61 -1.14101 -1.57145 0
M  V30 13878 O 1280.89 -0.205828 -1.93408 0
M  V30 13879 C 1281.17 -3.51672 -0.774503 0
M  V30 13880 C 1281.02 -4.47719 0.432159 0
M  V30 13881 C 1282.34 -4.0923 -1.61923 0
M  V30 13882 H 1279.46 -0.724858 -0.133231 0
M  V30 13883 H 1282.1 -1.86644 0.355522 0
M  V30 13884 H 1280.25 -3.62661 -1.39318 0
M  V30 13885 H 1281.93 -4.48704 1.07063 0
M  V30 13886 H 1280.17 -4.2029 1.07419 0
M  V30 13887 H 1280.84 -5.51898 0.106123 0
M  V30 13888 H 1283.32 -4.01381 -1.09693 0
M  V30 13889 H 1282.19 -5.16039 -1.87068 0
M  V30 13890 H 1282.45 -3.58067 -2.59307 0
M  V30 13891 N 1281.51 0.0200419 -1.57587 0
M  V30 13892 C 1282.44 1.01715 -2.10181 0
M  V30 13893 C 1283.42 1.37136 -1.00636 0
M  V30 13894 O 1284.61 1.45862 -1.2821 0
M  V30 13895 C 1281.74 2.31531 -2.58865 0
M  V30 13896 C 1280.69 2.10327 -3.72755 0
M  V30 13897 C 1280.02 3.45981 -4.07678 0
M  V30 13898 C 1281.32 1.4821 -5.0083 0
M  V30 13899 H 1283.01 0.579307 -2.93742 0
M  V30 13900 H 1280.56 0.277211 -1.41307 0
M  V30 13901 H 1282.51 3.01623 -2.94281 0
M  V30 13902 H 1281.24 2.77392 -1.72399 0
M  V30 13903 H 1279.89 1.42665 -3.37701 0
M  V30 13904 H 1279.54 3.89508 -3.18265 0
M  V30 13905 H 1279.24 3.32616 -4.84397 0
M  V30 13906 H 1280.77 4.17421 -4.45637 0
M  V30 13907 H 1282.18 2.08232 -5.34146 0
M  V30 13908 H 1280.58 1.45393 -5.82221 0
M  V30 13909 H 1281.65 0.448942 -4.82817 0
M  V30 13910 N 1282.99 1.54862 0.292472 0
M  V30 13911 C 1284.24 1.74807 1.02813 0
M  V30 13912 C 1284.57 0.536935 1.8663 0
M  V30 13913 O 1283.84 -0.465854 1.88839 0
M  V30 13914 C 1284.13 3.04202 1.927 0
M  V30 13915 C 1283.98 4.35631 1.12006 0
M  V30 13916 C 1285.3 3.29514 2.91734 0
M  V30 13917 H 1282.42 0.636015 0.372362 0
M  V30 13918 H 1285.06 1.87583 0.302069 0
M  V30 13919 H 1283.21 2.9344 2.54608 0
M  V30 13920 H 1284.88 4.58323 0.52319 0
M  V30 13921 H 1283.13 4.31733 0.42298 0
M  V30 13922 H 1283.8 5.22454 1.78172 0
M  V30 13923 H 1286.27 3.39941 2.39957 0
M  V30 13924 H 1285.15 4.21352 3.51786 0
M  V30 13925 H 1285.41 2.48216 3.65843 0
M  V30 13926 N 1284.47 -0.556076 1.47464 0
M  V30 13927 C 1285.7 -1.33858 1.57764 0
M  V30 13928 C 1286.11 -1.87415 0.22825 0
M  V30 13929 O 1285.47 -1.65054 -0.778674 0
M  V30 13930 C 1285.52 -2.5077 2.60378 0
M  V30 13931 O 1285.24 -1.99426 3.90078 0
M  V30 13932 C 1286.74 -3.42965 2.80873 0
M  V30 13933 H 1283.96 -0.408003 0.532705 0
M  V30 13934 H 1286.51 -0.673501 1.93091 0
M  V30 13935 H 1284.66 -3.13214 2.27982 0
M  V30 13936 H 1285.07 -2.75759 4.46158 0
M  V30 13937 H 1286.55 -4.21412 3.56533 0
M  V30 13938 H 1287.03 -3.96579 1.88737 0
M  V30 13939 H 1287.63 -2.86336 3.14471 0
M  V30 13940 N 1285.95 -1.35615 -0.802897 0
M  V30 13941 C 1286.9 -1.25378 -1.90432 0
M  V30 13942 C 1287.88 -0.148217 -1.60216 0
M  V30 13943 O 1289.07 -0.379783 -1.72878 0
M  V30 13944 C 1286.2 -1.03172 -3.2743 0
M  V30 13945 C 1285.29 -2.18135 -3.637 0
M  V30 13946 N 1285.68 -3.43382 -3.71379 0
M  V30 13947 C 1283.98 -2.09603 -3.93678 0
M  V30 13948 C 1284.68 -4.19004 -4.03498 0
M  V30 13949 N 1283.65 -3.47799 -4.17776 0
M  V30 13950 H 1287.46 -2.20267 -1.94576 0
M  V30 13951 H 1284.97 -1.2814 -0.997687 0
M  V30 13952 H 1286.97 -0.939264 -4.06182 0
M  V30 13953 H 1285.63 -0.0917091 -3.2457 0
M  V30 13954 H 1286.64 -3.77687 -3.54363 0
M  V30 13955 H 1283.32 -1.23479 -3.98822 0
M  V30 13956 H 1284.71 -5.27255 -4.16476 0
M  V30 13957 N 1287.43 1.02549 -1.19673 0
M  V30 13958 C 1288.37 2.109 -0.937536 0
M  V30 13959 C 1289.34 1.65599 0.128923 0
M  V30 13960 O 1290.53 1.90795 -0.0139366 0
M  V30 13961 C 1287.67 3.4166 -0.48602 0
M  V30 13962 C 1286.78 4.0049 -1.61963 0
M  V30 13963 C 1285.92 5.19273 -1.11931 0
M  V30 13964 C 1284.95 5.70166 -2.22659 0
M  V30 13965 N 1284.09 6.80221 -1.73909 0
M  V30 13966 H 1288.93 2.32408 -1.86523 0
M  V30 13967 H 1286.47 1.13982 -0.929869 0
M  V30 13968 H 1288.43 4.16693 -0.205614 0
M  V30 13969 H 1287.06 3.20253 0.404678 0
M  V30 13970 H 1286.11 3.22638 -2.01516 0
M  V30 13971 H 1287.42 4.34273 -2.45374 0
M  V30 13972 H 1286.57 6.01478 -0.794336 0
M  V30 13973 H 1285.31 4.87033 -0.254972 0
M  V30 13974 H 1284.32 4.86572 -2.55983 0
M  V30 13975 H 1285.54 6.04444 -3.09554 0
M  V30 13976 H 1283.49 6.49826 -0.897889 0
M  V30 13977 H 1283.41 7.13149 -2.50907 0
M  V30 13978 H 1284.67 7.66011 -1.44386 0
M  V30 13979 N 1288.9 1.00119 1.21713 0
M  V30 13980 C 1289.83 0.578504 2.2622 0
M  V30 13981 C 1290.81 -0.398777 1.6536 0
M  V30 13982 O 1292 -0.287596 1.92059 0
M  V30 13983 C 1289.13 -0.0994508 3.47158 0
M  V30 13984 C 1288.08 0.79722 4.2051 0
M  V30 13985 C 1287.41 -0.0141125 5.34698 0
M  V30 13986 C 1288.71 2.09802 4.7831 0
M  V30 13987 H 1290.4 1.45208 2.6183 0
M  V30 13988 H 1287.95 0.699656 1.2586 0
M  V30 13989 H 1289.9 -0.406605 4.19434 0
M  V30 13990 H 1288.63 -1.00763 3.10667 0
M  V30 13991 H 1287.29 1.08814 3.50079 0
M  V30 13992 H 1286.93 -0.923468 4.9445 0
M  V30 13993 H 1286.63 0.582883 5.84702 0
M  V30 13994 H 1288.16 -0.31517 6.09786 0
M  V30 13995 H 1289.57 1.85427 5.42485 0
M  V30 13996 H 1287.97 2.64455 5.38687 0
M  V30 13997 H 1289.04 2.77132 3.97902 0
M  V30 13998 N 1290.38 -1.37203 0.775435 0
M  V30 13999 C 1291.31 -2.28873 0.122374 0
M  V30 14000 C 1292.33 -1.48811 -0.660239 0
M  V30 14001 O 1293.52 -1.7142 -0.497724 0
M  V30 14002 C 1290.62 -3.28062 -0.850212 0
M  V30 14003 C 1289.79 -4.37234 -0.120633 0
M  V30 14004 C 1288.85 -5.16472 -1.00712 0
M  V30 14005 O 1287.87 -5.6726 -0.469528 0
M  V30 14006 N 1289.08 -5.31556 -2.33299 0
M  V30 14007 H 1291.84 -2.85559 0.909741 0
M  V30 14008 H 1289.4 -1.49219 0.628107 0
M  V30 14009 H 1291.39 -3.77956 -1.44678 0
M  V30 14010 H 1289.96 -2.72118 -1.53853 0
M  V30 14011 H 1289.18 -3.88688 0.656879 0
M  V30 14012 H 1290.47 -5.07354 0.383358 0
M  V30 14013 H 1289.87 -4.91883 -2.79406 0
M  V30 14014 H 1288.43 -5.84745 -2.87953 0
M  V30 14015 N 1291.86 -0.526279 -1.48553 0
M  V30 14016 C 1293.09 0.00522012 -2.06599 0
M  V30 14017 C 1293.5 1.29039 -1.38368 0
M  V30 14018 O 1292.84 1.77747 -0.463854 0
M  V30 14019 C 1292.9 0.303512 -3.58216 0
M  V30 14020 C 1292.57 -0.887635 -4.48297 0
M  V30 14021 C 1293.56 -1.78504 -4.88295 0
M  V30 14022 C 1291.25 -1.09359 -4.90251 0
M  V30 14023 C 1293.24 -2.87233 -5.69013 0
M  V30 14024 C 1290.93 -2.18402 -5.7074 0
M  V30 14025 C 1291.93 -3.07172 -6.10028 0
M  V30 14026 O 1291.62 -4.14329 -6.88902 0
M  V30 14027 H 1291.35 -0.0287033 -0.67539 0
M  V30 14028 H 1293.9 -0.730244 -1.91981 0
M  V30 14029 H 1292.13 1.0929 -3.70935 0
M  V30 14030 H 1293.82 0.776647 -3.98401 0
M  V30 14031 H 1294.59 -1.63785 -4.56508 0
M  V30 14032 H 1290.47 -0.411922 -4.59156 0
M  V30 14033 H 1294.01 -3.56549 -5.99599 0
M  V30 14034 H 1289.91 -2.33106 -6.0194 0
M  V30 14035 H 1290.67 -4.11993 -7.07251 0
M  V30 14036 N 1293.34 1.5542 -0.261239 0
M  V30 14037 C 1294.27 2.24949 0.626126 0
M  V30 14038 C 1295.25 1.23474 1.16997 0
M  V30 14039 O 1296.43 1.52161 1.20667 0
M  V30 14040 C 1293.56 2.95996 1.81669 0
M  V30 14041 C 1292.52 4.04282 1.40499 0
M  V30 14042 C 1291.84 4.62831 2.67753 0
M  V30 14043 C 1293.14 5.1923 0.56543 0
M  V30 14044 H 1294.84 2.99364 0.0463164 0
M  V30 14045 H 1292.38 1.43985 0.0208366 0
M  V30 14046 H 1294.34 3.43343 2.44323 0
M  V30 14047 H 1293.06 2.19093 2.42211 0
M  V30 14048 H 1291.72 3.57726 0.801712 0
M  V30 14049 H 1291.37 3.82611 3.26524 0
M  V30 14050 H 1291.07 5.35938 2.40925 0
M  V30 14051 H 1292.59 5.12918 3.31281 0
M  V30 14052 H 1294.01 5.62714 1.09663 0
M  V30 14053 H 1292.4 5.98814 0.392607 0
M  V30 14054 H 1293.47 4.83086 -0.419059 0
M  V30 14055 N 1294.82 -0.0116844 1.57596 0
M  V30 14056 C 1296.04 -0.71026 1.94327 0
M  V30 14057 C 1296.46 -1.67952 0.862418 0
M  V30 14058 O 1295.82 -1.818 -0.159698 0
M  V30 14059 C 1295.87 -1.45228 3.31045 0
M  V30 14060 O 1295.59 -0.52191 4.3498 0
M  V30 14061 C 1297.09 -2.24644 3.82165 0
M  V30 14062 H 1294.31 -0.198559 0.640949 0
M  V30 14063 H 1296.85 0.0359615 2.04468 0
M  V30 14064 H 1295.01 -2.15023 3.22248 0
M  V30 14065 H 1295.42 -1.04415 5.14002 0
M  V30 14066 H 1296.9 -2.72078 4.80289 0
M  V30 14067 H 1297.37 -3.06817 3.14261 0
M  V30 14068 H 1297.98 -1.59888 3.94101 0
M  V30 14069 N 1296.29 -1.55015 -0.284256 0
M  V30 14070 C 1297.24 -1.83508 -1.3531 0
M  V30 14071 C 1298.23 -0.693244 -1.452 0
M  V30 14072 O 1299.42 -0.954312 -1.4907 0
M  V30 14073 C 1296.55 -2.10059 -2.71533 0
M  V30 14074 C 1295.63 -3.30472 -2.65799 0
M  V30 14075 N 1296.03 -4.50644 -2.29682 0
M  V30 14076 C 1294.32 -3.32836 -2.96878 0
M  V30 14077 C 1295.02 -5.32708 -2.33661 0
M  V30 14078 N 1294 -4.70837 -2.71687 0
M  V30 14079 H 1297.8 -2.73973 -1.06377 0
M  V30 14080 H 1295.32 -1.5474 -0.492875 0
M  V30 14081 H 1297.31 -2.28624 -3.48621 0
M  V30 14082 H 1295.97 -1.20872 -3.01364 0
M  V30 14083 H 1296.98 -4.76945 -2.0185 0
M  V30 14084 H 1293.66 -2.53807 -3.31494 0
M  V30 14085 H 1295.05 -6.38766 -2.08394 0
M  V30 14086 N 1297.77 0.548248 -1.47757 0
M  V30 14087 C 1298.73 1.63666 -1.60456 0
M  V30 14088 C 1299.73 1.53499 -0.479028 0
M  V30 14089 O 1300.92 1.57497 -0.744342 0
M  V30 14090 C 1298.06 3.03239 -1.55754 0
M  V30 14091 H 1299.25 1.53752 -2.57488 0
M  V30 14092 H 1296.8 0.768881 -1.36081 0
M  V30 14093 H 1297.54 3.18677 -0.601303 0
M  V30 14094 H 1297.32 3.12027 -2.37448 0
M  V30 14095 H 1298.81 3.82406 -1.67797 0
M  V30 14096 N 1299.25 1.36039 0.795694 0
M  V30 14097 C 1300.53 1.20474 1.54096 0
M  V30 14098 C 1300.91 -0.211691 2.10036 0
M  V30 14099 O 1300.25 -1.21656 1.93422 0
M  V30 14100 C 1300.46 2.28164 2.64087 0
M  V30 14101 C 1301.81 2.64519 3.32137 0
M  V30 14102 O 1302.84 2.2716 2.74366 0
M  V30 14103 O 1301.7 3.28796 4.36527 0
M  V30 14104 H 1298.79 0.468699 0.681359 0
M  V30 14105 H 1301.34 1.47752 0.834716 0
M  V30 14106 H 1300.11 3.23121 2.20701 0
M  V30 14107 H 1299.73 2.02217 3.42336 0
M  V30 14108 N 1300.73 -1.01913 1.20215 0
M  V30 14109 C 1301.97 -1.75843 1.0223 0
M  V30 14110 C 1302.33 -1.87272 -0.441237 0
M  V30 14111 O 1301.62 -1.38562 -1.32329 0
M  V30 14112 C 1301.82 -3.17734 1.63646 0
M  V30 14113 C 1301.65 -3.20138 3.15819 0
M  V30 14114 C 1300.42 -3.27524 3.84781 0
M  V30 14115 C 1302.61 -3.0639 4.13073 0
M  V30 14116 N 1300.6 -3.19405 5.24265 0
M  V30 14117 C 1301.97 -3.06013 5.39218 0
M  V30 14118 C 1304.02 -2.90588 4.04306 0
M  V30 14119 C 1302.72 -2.91455 6.57607 0
M  V30 14120 C 1304.75 -2.77383 5.22315 0
M  V30 14121 C 1304.11 -2.77669 6.47363 0
M  V30 14122 H 1300.21 -0.654282 0.428298 0
M  V30 14123 H 1302.8 -1.2124 1.52345 0
M  V30 14124 H 1300.97 -3.70636 1.16118 0
M  V30 14125 H 1302.7 -3.8008 1.39002 0
M  V30 14126 H 1299.45 -3.34145 3.35625 0
M  V30 14127 H 1299.88 -3.18726 5.97279 0
M  V30 14128 H 1304.52 -2.89182 3.08438 0
M  V30 14129 H 1302.24 -2.9161 7.53651 0
M  V30 14130 H 1305.82 -2.66177 5.1734 0
M  V30 14131 H 1304.7 -2.67566 7.37142 0
M  V30 14132 N 1302.21 -1.00763 -1.2118 0
M  V30 14133 C 1303.46 -0.687197 -1.89633 0
M  V30 14134 C 1303.77 0.78566 -1.79128 0
M  V30 14135 O 1304.97 1.21828 -2.42632 0
M  V30 14136 C 1303.43 -1.1787 -3.40051 0
M  V30 14137 C 1303.04 -2.67782 -3.59161 0
M  V30 14138 C 1304.78 -0.933277 -4.14114 0
M  V30 14139 C 1302.69 -3.10459 -5.03358 0
M  V30 14140 H 1301.62 -0.253342 -0.710165 0
M  V30 14141 H 1304.27 -1.21914 -1.37147 0
M  V30 14142 H 1302.65 -0.574791 -3.91806 0
M  V30 14143 H 1303.83 -3.33645 -3.17833 0
M  V30 14144 H 1302.14 -2.90368 -2.98455 0
M  V30 14145 H 1304.74 -1.22766 -5.20416 0
M  V30 14146 H 1305.08 0.130431 -4.16096 0
M  V30 14147 H 1305.61 -1.50011 -3.68431 0
M  V30 14148 H 1302.35 -4.16068 -5.06525 0
M  V30 14149 H 1301.87 -2.4931 -5.45531 0
M  V30 14150 H 1303.55 -3.02589 -5.71882 0
M  V30 14151 N 1303.68 1.3679 -0.7827 0
M  V30 14152 C 1304.93 1.98664 -0.348634 0
M  V30 14153 C 1305.25 1.62827 1.08382 0
M  V30 14154 O 1306.45 2.17886 1.61982 0
M  V30 14155 C 1304.91 3.55319 -0.572392 0
M  V30 14156 C 1304.52 4.00086 -2.01582 0
M  V30 14157 C 1306.26 4.24017 -0.202496 0
M  V30 14158 C 1304.17 5.49493 -2.18659 0
M  V30 14159 H 1303.1 0.743294 -0.126612 0
M  V30 14160 H 1305.75 1.56177 -0.963383 0
M  V30 14161 H 1304.13 3.95842 0.111973 0
M  V30 14162 H 1305.3 3.7078 -2.73603 0
M  V30 14163 H 1303.62 3.44205 -2.34333 0
M  V30 14164 H 1306.22 5.3381 -0.308459 0
M  V30 14165 H 1306.56 4.07559 0.84859 0
M  V30 14166 H 1307.09 3.88834 -0.839834 0
M  V30 14167 H 1303.83 5.7089 -3.22126 0
M  V30 14168 H 1303.35 5.80447 -1.51134 0
M  V30 14169 H 1305.03 6.15621 -1.99048 0
M  V30 14170 N 1305.16 0.53415 1.48272 0
M  V30 14171 C 1306.13 -0.215641 2.28183 0
M  V30 14172 C 1307.13 -0.863966 1.35618 0
M  V30 14173 O 1308.32 -0.723375 1.58471 0
M  V30 14174 C 1305.45 -1.31251 3.1462 0
M  V30 14175 H 1306.64 0.486014 2.95936 0
M  V30 14176 H 1304.19 0.290237 1.53582 0
M  V30 14177 H 1304.93 -2.04729 2.51508 0
M  V30 14178 H 1304.71 -0.852706 3.82716 0
M  V30 14179 H 1306.2 -1.83978 3.74889 0
M  V30 14180 N 1306.64 -1.55279 0.269478 0
M  V30 14181 C 1307.57 -2.18397 -0.66165 0
M  V30 14182 C 1308.55 -1.1431 -1.15637 0
M  V30 14183 O 1309.74 -1.42808 -1.23037 0
M  V30 14184 C 1306.86 -2.80272 -1.90172 0
M  V30 14185 C 1305.91 -3.97612 -1.54295 0
M  V30 14186 S 1306.74 -5.31828 -0.625995 0
M  V30 14187 C 1307.9 -5.97169 -1.87456 0
M  V30 14188 H 1308.13 -2.97036 -0.125326 0
M  V30 14189 H 1305.66 -1.54306 0.0537711 0
M  V30 14190 H 1307.62 -3.16553 -2.61351 0
M  V30 14191 H 1306.28 -2.01538 -2.40918 0
M  V30 14192 H 1305.48 -4.39576 -2.46555 0
M  V30 14193 H 1305.08 -3.62725 -0.911395 0
M  V30 14194 H 1307.37 -6.16059 -2.81917 0
M  V30 14195 H 1308.31 -6.92073 -1.49803 0
M  V30 14196 H 1308.72 -5.26469 -2.03693 0
M  V30 14197 N 1308.12 0.00332656 -1.576 0
M  V30 14198 C 1309.07 0.99581 -2.08212 0
M  V30 14199 C 1310.04 1.34342 -0.976804 0
M  V30 14200 O 1311.22 1.44236 -1.24902 0
M  V30 14201 C 1308.36 2.2836 -2.58739 0
M  V30 14202 C 1307.47 1.99531 -3.8316 0
M  V30 14203 C 1306.61 3.22367 -4.222 0
M  V30 14204 C 1305.65 2.89209 -5.39467 0
M  V30 14205 N 1304.78 4.04572 -5.73817 0
M  V30 14206 H 1309.62 0.55727 -2.92743 0
M  V30 14207 H 1307.16 0.263513 -1.4472 0
M  V30 14208 H 1309.12 3.03639 -2.86111 0
M  V30 14209 H 1307.75 2.69889 -1.77087 0
M  V30 14210 H 1306.8 1.14634 -3.62716 0
M  V30 14211 H 1308.11 1.71089 -4.6854 0
M  V30 14212 H 1307.27 4.05994 -4.50837 0
M  V30 14213 H 1306.01 3.53944 -3.35522 0
M  V30 14214 H 1305.01 2.03989 -5.10557 0
M  V30 14215 H 1306.24 2.58883 -6.27819 0
M  V30 14216 H 1304.18 4.36052 -4.90096 0
M  V30 14217 H 1304.1 3.79643 -6.53764 0
M  V30 14218 H 1305.37 4.88998 -6.07043 0
M  V30 14219 N 1309.6 1.55164 0.276031 0
M  V30 14220 C 1310.87 1.66338 1.02913 0
M  V30 14221 C 1311.25 0.527876 2.04393 0
M  V30 14222 O 1310.6 -0.472437 2.23563 0
M  V30 14223 C 1310.81 3.05427 1.68865 0
M  V30 14224 C 1312.16 3.63075 2.2014 0
M  V30 14225 O 1313.18 3.0804 1.78857 0
M  V30 14226 O 1312.04 4.59492 2.95854 0
M  V30 14227 H 1309.14 0.675446 0.477181 0
M  V30 14228 H 1311.68 1.67504 0.272129 0
M  V30 14229 H 1310.45 3.79514 0.953125 0
M  V30 14230 H 1310.08 3.08147 2.5126 0
M  V30 14231 N 1311.07 -0.540404 1.48045 0
M  V30 14232 C 1312.32 -1.29422 1.55224 0
M  V30 14233 C 1312.64 -1.93716 0.223365 0
M  V30 14234 O 1311.91 -1.808 -0.754204 0
M  V30 14235 H 1310.49 -0.480658 0.571819 0
M  V30 14236 H 1313.16 -0.629712 1.84447 0
M  V30 14237 H 1312.25 -2.07897 2.32777 0
M  V30 14238 N 1312.55 -1.36459 -0.788468 0
M  V30 14239 C 1313.78 -1.34063 -1.58246 0
M  V30 14240 C 1314.2 0.0754933 -1.87948 0
M  V30 14241 O 1313.56 1.04772 -1.47961 0
M  V30 14242 C 1313.61 -2.17038 -2.8797 0
M  V30 14243 O 1312.71 -1.56353 -3.81612 0
M  V30 14244 H 1312.05 -0.458816 -0.479983 0
M  V30 14245 H 1314.58 -1.79755 -0.977207 0
M  V30 14246 H 1314.59 -2.29651 -3.3723 0
M  V30 14247 H 1313.27 -3.19981 -2.65678 0
M  V30 14248 H 1311.85 -1.52685 -3.40208 0
M  V30 14249 N 1314.03 1.01274 -1.20754 0
M  V30 14250 C 1315.28 1.75191 -1.02156 0
M  V30 14251 C 1315.61 1.89038 0.444791 0
M  V30 14252 O 1314.88 1.41903 1.33018 0
M  V30 14253 C 1315.17 3.16892 -1.71031 0
M  V30 14254 C 1315.02 3.10816 -3.25136 0
M  V30 14255 C 1316.34 4.15648 -1.44654 0
M  V30 14256 H 1313.46 0.635922 -0.372521 0
M  V30 14257 H 1316.1 1.18119 -1.48822 0
M  V30 14258 H 1314.25 3.6562 -1.31357 0
M  V30 14259 H 1315.92 2.69863 -3.74128 0
M  V30 14260 H 1314.17 2.48113 -3.5584 0
M  V30 14261 H 1314.84 4.11001 -3.68487 0
M  V30 14262 H 1317.31 3.75592 -1.7908 0
M  V30 14263 H 1316.19 5.12954 -1.95371 0
M  V30 14264 H 1316.45 4.40507 -0.37494 0
M  V30 14265 N 1315.51 1.01404 1.20644 0
M  V30 14266 C 1316.44 0.602465 2.25594 0
M  V30 14267 C 1317.42 -0.381216 1.65773 0
M  V30 14268 O 1318.61 -0.267209 1.92353 0
M  V30 14269 C 1315.74 -0.0626245 3.47244 0
M  V30 14270 C 1314.69 0.841776 4.1964 0
M  V30 14271 C 1314.02 0.0426002 5.34683 0
M  V30 14272 C 1315.32 2.14864 4.76058 0
M  V30 14273 H 1317.01 1.47977 2.60275 0
M  V30 14274 H 1314.56 0.712966 1.25111 0
M  V30 14275 H 1316.51 -0.362095 4.19841 0
M  V30 14276 H 1315.23 -0.974627 3.11719 0
M  V30 14277 H 1313.89 1.12521 3.48905 0
M  V30 14278 H 1313.54 -0.870973 4.95402 0
M  V30 14279 H 1313.24 0.644866 5.84051 0
M  V30 14280 H 1314.76 -0.250476 6.10086 0
M  V30 14281 H 1316.18 1.9117 5.40488 0
M  V30 14282 H 1314.57 2.70153 5.35852 0
M  V30 14283 H 1315.64 2.81336 3.9494 0
M  V30 14284 N 1316.99 -1.36373 0.789944 0
M  V30 14285 C 1318.4 -1.52471 0.471686 0
M  V30 14286 C 1318.6 -1.74365 -1.0099 0
M  V30 14287 O 1317.66 -1.77546 -1.79538 0
M  V30 14288 C 1318.97 -2.71022 1.30259 0
M  V30 14289 C 1320.52 -2.84893 1.29633 0
M  V30 14290 C 1321 -4.0645 2.11098 0
M  V30 14291 N 1322.49 -4.13597 2.08547 0
M  V30 14292 C 1323.22 -5.06731 2.6835 0
M  V30 14293 N 1322.72 -6.05305 3.37013 0
M  V30 14294 N 1324.51 -4.9935 2.58081 0
M  V30 14295 H 1316.66 -1.20416 1.74968 0
M  V30 14296 H 1318.92 -0.587782 0.743785 0
M  V30 14297 H 1318.63 -2.61368 2.35329 0
M  V30 14298 H 1318.5 -3.6519 0.944254 0
M  V30 14299 H 1320.89 -2.94009 0.253542 0
M  V30 14300 H 1320.97 -1.91632 1.69443 0
M  V30 14301 H 1320.62 -3.98096 3.15408 0
M  V30 14302 H 1320.55 -4.98861 1.68659 0
M  V30 14303 H 1323.04 -3.4302 1.58573 0
M  V30 14304 H 1323.35 -6.72934 3.79974 0
M  V30 14305 H 1321.7 -6.05529 3.41116 0
M  V30 14306 H 1324.89 -4.21291 2.04039 0
M  V30 14307 H 1325.06 -5.71745 3.04979 0
M  V30 14308 N 1318.47 -0.542005 -1.47987 0
M  V30 14309 C 1319.38 0.217677 -2.33588 0
M  V30 14310 C 1320.39 0.927093 -1.47245 0
M  V30 14311 O 1321.57 0.899378 -1.80203 0
M  V30 14312 C 1318.63 1.24376 -3.23622 0
M  V30 14313 C 1317.69 0.543407 -4.25847 0
M  V30 14314 C 1316.93 1.5206 -5.11579 0
M  V30 14315 O 1317.15 2.75425 -4.99497 0
M  V30 14316 O 1316.08 1.05341 -5.9261 0
M  V30 14317 H 1319.91 -0.484089 -2.99817 0
M  V30 14318 H 1317.49 -0.302783 -1.463 0
M  V30 14319 H 1319.38 1.83644 -3.7928 0
M  V30 14320 H 1318.05 1.92772 -2.6004 0
M  V30 14321 H 1316.96 -0.090074 -3.73992 0
M  V30 14322 H 1318.29 -0.0988264 -4.92101 0
M  V30 14323 N 1319.94 1.55134 -0.277709 0
M  V30 14324 C 1321.19 1.99259 0.337662 0
M  V30 14325 C 1321.51 1.16755 1.56183 0
M  V30 14326 O 1320.78 0.257707 1.94198 0
M  V30 14327 H 1319.36 0.735995 0.127751 0
M  V30 14328 H 1322.02 1.91087 -0.383646 0
M  V30 14329 H 1321.12 3.05763 0.625747 0
M  V30 14330 N 1321.42 0.00503138 1.57599 0
M  V30 14331 C 1322.65 -0.689609 1.95069 0
M  V30 14332 C 1323.06 -1.67028 0.880183 0
M  V30 14333 O 1322.42 -1.81959 -0.140406 0
M  V30 14334 C 1322.47 -1.41709 3.32567 0
M  V30 14335 O 1322.19 -0.475746 4.35509 0
M  V30 14336 C 1323.69 -2.20578 3.84526 0
M  V30 14337 H 1320.91 -0.19175 0.643019 0
M  V30 14338 H 1323.46 0.057646 2.04419 0
M  V30 14339 H 1321.61 -2.11593 3.2451 0
M  V30 14340 H 1322.03 -0.989573 5.1508 0
M  V30 14341 H 1323.5 -2.66969 4.83148 0
M  V30 14342 H 1323.98 -3.03467 3.17497 0
M  V30 14343 H 1324.58 -1.557 3.95775 0
M  V30 14344 N 1322.9 -1.55308 -0.267798 0
M  V30 14345 C 1323.83 -1.91555 -1.33525 0
M  V30 14346 C 1324.81 -0.778001 -1.51265 0
M  V30 14347 O 1326 -1.03657 -1.64222 0
M  V30 14348 C 1323.13 -2.19201 -2.69385 0
M  V30 14349 C 1322.08 -3.3501 -2.66369 0
M  V30 14350 C 1321.41 -3.48148 -4.05829 0
M  V30 14351 C 1322.71 -4.71265 -2.25182 0
M  V30 14352 H 1324.4 -2.80965 -1.03437 0
M  V30 14353 H 1321.95 -1.35183 -0.496141 0
M  V30 14354 H 1323.9 -2.43146 -3.44177 0
M  V30 14355 H 1322.62 -1.26596 -3.01067 0
M  V30 14356 H 1321.28 -3.11041 -1.94034 0
M  V30 14357 H 1320.93 -2.53 -4.34741 0
M  V30 14358 H 1320.63 -4.26014 -4.04704 0
M  V30 14359 H 1322.15 -3.74391 -4.82352 0
M  V30 14360 H 1323.57 -4.94719 -2.89699 0
M  V30 14361 H 1321.96 -5.52084 -2.3521 0
M  V30 14362 H 1323.03 -4.69735 -1.20319 0
M  V30 14363 N 1324.38 0.532545 -1.4833 0
M  V30 14364 C 1325.32 1.63737 -1.62661 0
M  V30 14365 C 1326.29 1.59348 -0.468758 0
M  V30 14366 O 1327.48 1.77812 -0.691921 0
M  V30 14367 C 1324.62 3.02006 -1.66993 0
M  V30 14368 C 1323.73 3.16648 -2.93867 0
M  V30 14369 C 1322.87 4.4546 -2.89376 0
M  V30 14370 C 1321.91 4.53622 -4.10966 0
M  V30 14371 N 1321.04 5.7382 -4.04567 0
M  V30 14372 H 1325.88 1.50828 -2.57012 0
M  V30 14373 H 1323.42 0.734348 -1.27459 0
M  V30 14374 H 1325.38 3.82105 -1.67486 0
M  V30 14375 H 1324.01 3.13693 -0.76135 0
M  V30 14376 H 1323.06 2.29817 -3.0313 0
M  V30 14377 H 1324.37 3.1854 -3.8384 0
M  V30 14378 H 1323.53 5.33848 -2.88256 0
M  V30 14379 H 1322.27 4.46085 -1.97127 0
M  V30 14380 H 1321.27 3.63642 -4.12364 0
M  V30 14381 H 1322.5 4.54738 -5.04371 0
M  V30 14382 H 1320.44 5.75347 -3.15137 0
M  V30 14383 H 1320.36 5.77196 -4.88243 0
M  V30 14384 H 1321.63 6.64502 -4.07502 0
M  V30 14385 N 1325.86 1.36875 0.78122 0
M  V30 14386 C 1327.13 1.22101 1.52809 0
M  V30 14387 C 1327.51 -0.189402 2.10249 0
M  V30 14388 O 1326.86 -1.19598 1.94701 0
M  V30 14389 C 1327.07 2.30953 2.61652 0
M  V30 14390 C 1328.42 2.68027 3.29313 0
M  V30 14391 O 1329.44 2.30058 2.71941 0
M  V30 14392 O 1328.3 3.33407 4.33015 0
M  V30 14393 H 1325.4 0.4759 0.676349 0
M  V30 14394 H 1327.94 1.48629 0.818998 0
M  V30 14395 H 1326.71 3.25443 2.17261 0
M  V30 14396 H 1326.34 2.05837 3.40172 0
M  V30 14397 N 1327.33 -1.00632 1.21289 0
M  V30 14398 C 1328.58 -1.73802 1.02351 0
M  V30 14399 C 1328.9 -1.90503 -0.443611 0
M  V30 14400 O 1330.1 -2.60868 -0.752356 0
M  V30 14401 C 1328.56 -3.12647 1.78269 0
M  V30 14402 C 1328.17 -3.03923 3.29142 0
M  V30 14403 C 1329.91 -3.89956 1.67735 0
M  V30 14404 C 1327.82 -4.3784 3.97556 0
M  V30 14405 H 1326.75 -0.651616 0.379358 0
M  V30 14406 H 1329.4 -1.12446 1.45011 0
M  V30 14407 H 1327.78 -3.74605 1.28401 0
M  V30 14408 H 1328.95 -2.51211 3.86303 0
M  V30 14409 H 1327.27 -2.40103 3.40205 0
M  V30 14410 H 1329.87 -4.89051 2.1618 0
M  V30 14411 H 1330.21 -4.11423 0.635338 0
M  V30 14412 H 1330.74 -3.34647 2.15072 0
M  V30 14413 H 1327.48 -4.21573 5.01952 0
M  V30 14414 H 1327 -4.90518 3.45184 0
M  V30 14415 H 1328.68 -5.06644 4.02393 0
M  V30 14416 N 1328.81 -1.02043 -1.20104 0
M  V30 14417 C 1329.74 -0.552093 -2.22451 0
M  V30 14418 C 1330.76 0.367547 -1.58597 0
M  V30 14419 O 1331.95 0.165285 -1.77733 0
M  V30 14420 C 1329.05 0.215833 -3.38212 0
M  V30 14421 C 1328.22 -0.70666 -4.31654 0
M  V30 14422 C 1327.28 0.0143628 -5.26198 0
M  V30 14423 O 1326.3 -0.609413 -5.65928 0
M  V30 14424 N 1327.51 1.28794 -5.66032 0
M  V30 14425 H 1330.27 -1.43229 -2.6326 0
M  V30 14426 H 1327.83 -0.89842 -1.34685 0
M  V30 14427 H 1329.82 0.707523 -3.98467 0
M  V30 14428 H 1328.39 0.997358 -2.96263 0
M  V30 14429 H 1327.61 -1.37859 -3.69308 0
M  V30 14430 H 1328.9 -1.33392 -4.91003 0
M  V30 14431 H 1328.3 1.8156 -5.35773 0
M  V30 14432 H 1326.86 1.72429 -6.28579 0
M  V30 14433 N 1330.29 1.35952 -0.797165 0
M  V30 14434 C 1331.52 2.0328 -0.385316 0
M  V30 14435 C 1331.93 1.60095 1.00076 0
M  V30 14436 O 1331.29 0.794014 1.64322 0
M  V30 14437 C 1331.34 3.5871 -0.448284 0
M  V30 14438 O 1331.06 4.00323 -1.7797 0
M  V30 14439 C 1332.56 4.43291 -0.0280465 0
M  V30 14440 H 1329.78 0.652192 -0.157756 0
M  V30 14441 H 1332.33 1.73769 -1.07817 0
M  V30 14442 H 1330.48 3.86903 0.196224 0
M  V30 14443 H 1330.9 4.94941 -1.73592 0
M  V30 14444 H 1332.37 5.51862 -0.123234 0
M  V30 14445 H 1332.85 4.27059 1.02552 0
M  V30 14446 H 1333.45 4.20375 -0.645343 0
M  V30 14447 N 1331.77 0.549846 1.47697 0
M  V30 14448 C 1332.72 -0.201961 2.29915 0
M  V30 14449 C 1333.69 -0.915287 1.38606 0
M  V30 14450 O 1334.87 -0.912427 1.67569 0
M  V30 14451 C 1332.01 -1.2306 3.22413 0
M  V30 14452 C 1331.12 -0.524091 4.28809 0
M  V30 14453 C 1330.26 -1.53738 5.08466 0
M  V30 14454 C 1329.3 -0.815437 6.06644 0
M  V30 14455 N 1328.43 -1.77521 6.79287 0
M  V30 14456 H 1333.27 0.505289 2.93685 0
M  V30 14457 H 1330.81 0.261012 1.44766 0
M  V30 14458 H 1332.77 -1.83949 3.74458 0
M  V30 14459 H 1331.4 -1.90597 2.60523 0
M  V30 14460 H 1330.45 0.199174 3.79878 0
M  V30 14461 H 1331.76 0.0418145 4.98782 0
M  V30 14462 H 1330.92 -2.22001 5.64624 0
M  V30 14463 H 1329.66 -2.1372 4.38378 0
M  V30 14464 H 1328.66 -0.11884 5.49672 0
M  V30 14465 H 1329.89 -0.221462 6.78739 0
M  V30 14466 H 1327.83 -2.36374 6.11934 0
M  V30 14467 H 1327.75 -1.26126 7.45405 0
M  V30 14468 H 1329.02 -2.44921 7.40023 0
M  V30 14469 N 1333.25 -1.54984 0.285932 0
M  V30 14470 C 1334.52 -1.91872 -0.380083 0
M  V30 14471 C 1334.9 -1.21146 -1.72878 0
M  V30 14472 O 1334.25 -0.341999 -2.25926 0
M  V30 14473 C 1334.46 -3.45258 -0.509667 0
M  V30 14474 C 1335.81 -4.17232 -0.787549 0
M  V30 14475 O 1336.83 -3.51211 -0.594062 0
M  V30 14476 O 1335.69 -5.34085 -1.15826 0
M  V30 14477 H 1332.79 -0.799931 -0.209856 0
M  V30 14478 H 1335.33 -1.66403 0.332882 0
M  V30 14479 H 1334.1 -3.88829 0.439049 0
M  V30 14480 H 1333.73 -3.76715 -1.27168 0
M  V30 14481 N 1334.72 -0.0133892 -1.57594 0
M  V30 14482 C 1335.97 0.669624 -1.91426 0
M  V30 14483 C 1336.3 1.72675 -0.888656 0
M  V30 14484 O 1335.58 1.94288 0.0908138 0
M  V30 14485 C 1335.86 1.30051 -3.35796 0
M  V30 14486 C 1335.71 0.254021 -4.49082 0
M  V30 14487 C 1337.03 2.22297 -3.79832 0
M  V30 14488 H 1334.15 0.241958 -0.69615 0
M  V30 14489 H 1336.79 -0.0674278 -1.8988 0
M  V30 14490 H 1334.94 1.92871 -3.37243 0
M  V30 14491 H 1336.62 -0.375524 -4.59769 0
M  V30 14492 H 1334.86 -0.422267 -4.3174 0
M  V30 14493 H 1335.53 0.734756 -5.47088 0
M  V30 14494 H 1338.01 1.69481 -3.8002 0
M  V30 14495 H 1336.88 2.634 -4.81572 0
M  V30 14496 H 1337.14 3.10764 -3.14449 0
M  V30 14497 N 1336.2 1.55448 0.259558 0
M  V30 14498 C 1337.11 1.92364 1.34289 0
M  V30 14499 C 1338.13 0.822492 1.53333 0
M  V30 14500 O 1339.3 1.12277 1.672 0
M  V30 14501 C 1336.37 2.19978 2.67975 0
M  V30 14502 C 1335.43 3.43454 2.57562 0
M  V30 14503 C 1334.66 3.69741 3.84873 0
M  V30 14504 O 1334.89 2.9831 4.86176 0
M  V30 14505 O 1333.82 4.63274 3.84267 0
M  V30 14506 H 1337.65 2.8461 1.05975 0
M  V30 14507 H 1335.23 1.42167 0.459239 0
M  V30 14508 H 1337.11 2.39104 3.46998 0
M  V30 14509 H 1335.79 1.30912 2.96047 0
M  V30 14510 H 1334.7 3.29649 1.76869 0
M  V30 14511 H 1336.03 4.32782 2.34437 0
M  V30 14512 N 1337.68 -0.524672 1.4861 0
M  V30 14513 C 1338.61 -1.63782 1.66426 0
M  V30 14514 C 1339.59 -1.62177 0.513077 0
M  V30 14515 O 1340.78 -1.7929 0.74623 0
M  V30 14516 C 1337.91 -3.02354 1.70877 0
M  V30 14517 C 1336.86 -3.18819 2.85549 0
M  V30 14518 C 1336.19 -4.58506 2.75094 0
M  V30 14519 C 1337.49 -3.01086 4.26784 0
M  V30 14520 H 1339.18 -1.49127 2.59618 0
M  V30 14521 H 1336.73 -0.715997 1.24938 0
M  V30 14522 H 1338.68 -3.80105 1.81929 0
M  V30 14523 H 1337.4 -3.18044 0.742682 0
M  V30 14524 H 1336.06 -2.43487 2.74061 0
M  V30 14525 H 1335.71 -4.71038 1.76443 0
M  V30 14526 H 1335.41 -4.70466 3.52044 0
M  V30 14527 H 1336.93 -5.38348 2.88121 0
M  V30 14528 H 1338.35 -3.68624 4.39077 0
M  V30 14529 H 1336.75 -3.24536 5.04774 0
M  V30 14530 H 1337.82 -1.97454 4.42877 0
M  V30 14531 N 1339.16 -1.37287 -0.77395 0
M  V30 14532 C 1340.39 -1.35366 -1.56075 0
M  V30 14533 C 1340.8 0.0634437 -1.89094 0
M  V30 14534 O 1340.14 1.03503 -1.51766 0
M  V30 14535 C 1340.2 -2.12512 -2.89964 0
M  V30 14536 C 1339.87 -3.61492 -2.79593 0
M  V30 14537 C 1340.86 -4.55421 -2.50774 0
M  V30 14538 C 1338.55 -4.04585 -2.97684 0
M  V30 14539 C 1340.54 -5.90421 -2.4017 0
M  V30 14540 C 1338.23 -5.39672 -2.86701 0
M  V30 14541 C 1339.23 -6.32403 -2.57984 0
M  V30 14542 O 1338.91 -7.65006 -2.47024 0
M  V30 14543 H 1338.65 -0.465447 -0.49024 0
M  V30 14544 H 1341.2 -1.81199 -0.967273 0
M  V30 14545 H 1339.43 -1.61366 -3.51423 0
M  V30 14546 H 1341.12 -2.03253 -3.51345 0
M  V30 14547 H 1341.89 -4.23438 -2.36485 0
M  V30 14548 H 1337.76 -3.32769 -3.19038 0
M  V30 14549 H 1341.31 -6.62769 -2.17676 0
M  V30 14550 H 1337.21 -5.71258 -3.00558 0
M  V30 14551 H 1337.97 -7.75302 -2.6239 0
M  V30 14552 N 1340.64 0.999871 -1.21821 0
M  V30 14553 C 1341.55 2.12303 -0.99823 0
M  V30 14554 C 1342.56 1.73924 0.0512923 0
M  V30 14555 O 1343.74 2.00914 -0.139895 0
M  V30 14556 C 1340.8 3.41962 -0.571232 0
M  V30 14557 C 1339.86 3.94483 -1.69356 0
M  V30 14558 C 1339.1 5.17954 -1.28685 0
M  V30 14559 O 1339.32 5.70168 -0.162641 0
M  V30 14560 O 1338.25 5.64051 -2.10071 0
M  V30 14561 H 1342.08 2.3374 -1.93905 0
M  V30 14562 H 1339.67 1.10677 -1.00354 0
M  V30 14563 H 1341.55 4.20001 -0.343134 0
M  V30 14564 H 1340.22 3.21901 0.340814 0
M  V30 14565 H 1339.13 3.17648 -1.97612 0
M  V30 14566 H 1340.46 4.18964 -2.58322 0
M  V30 14567 N 1342.11 1.02678 1.19562 0
M  V30 14568 C 1343.06 0.576385 2.20594 0
M  V30 14569 C 1344.05 -0.373747 1.56499 0
M  V30 14570 O 1345.24 -0.195058 1.75922 0
M  V30 14571 C 1342.37 -0.0735507 3.43221 0
M  V30 14572 C 1341.46 0.898896 4.14464 0
M  V30 14573 N 1341.85 2.06048 4.61928 0
M  V30 14574 C 1340.14 0.721889 4.40119 0
M  V30 14575 C 1340.85 2.67364 5.16615 0
M  V30 14576 N 1339.82 1.95344 5.07289 0
M  V30 14577 H 1343.62 1.46179 2.54968 0
M  V30 14578 H 1341.14 0.893484 1.35612 0
M  V30 14579 H 1343.13 -0.413825 4.14841 0
M  V30 14580 H 1341.79 -0.954671 3.10348 0
M  V30 14581 H 1342.81 2.43999 4.5682 0
M  V30 14582 H 1339.48 -0.110317 4.17354 0
M  V30 14583 H 1340.87 3.65726 5.63644 0
M  V30 14584 N 1343.59 -1.35528 0.804364 0
M  V30 14585 C 1344.84 -1.9956 0.393383 0
M  V30 14586 C 1345.19 -1.62667 -1.02749 0
M  V30 14587 O 1344.49 -0.87869 -1.70263 0
M  V30 14588 C 1344.68 -3.5372 0.511571 0
M  V30 14589 C 1344.51 -4.05588 1.94238 0
M  V30 14590 C 1343.28 -4.35046 2.57027 0
M  V30 14591 C 1345.48 -4.24287 2.90663 0
M  V30 14592 N 1343.46 -4.7283 3.91541 0
M  V30 14593 C 1344.83 -4.65043 4.10043 0
M  V30 14594 C 1346.89 -4.0649 2.87524 0
M  V30 14595 C 1345.59 -4.89864 5.26712 0
M  V30 14596 C 1347.61 -4.32467 4.03394 0
M  V30 14597 C 1346.98 -4.73492 5.21521 0
M  V30 14598 H 1343.08 -0.758146 0.191674 0
M  V30 14599 H 1345.66 -1.64271 1.04513 0
M  V30 14600 H 1343.83 -3.88244 -0.110174 0
M  V30 14601 H 1345.56 -4.0463 0.0753915 0
M  V30 14602 H 1342.32 -4.25285 2.08397 0
M  V30 14603 H 1342.74 -4.95985 4.6079 0
M  V30 14604 H 1347.38 -3.73916 1.97349 0
M  V30 14605 H 1345.1 -5.21313 6.17461 0
M  V30 14606 H 1348.69 -4.20252 4.02343 0
M  V30 14607 H 1347.57 -4.93201 6.09691 0
M  V30 14608 N 1345.07 -0.557671 -1.47404 0
M  V30 14609 C 1346.02 0.189765 -2.30019 0
M  V30 14610 C 1346.99 0.907923 -1.3909 0
M  V30 14611 O 1348.17 0.903528 -1.68051 0
M  V30 14612 C 1345.31 1.21348 -3.23061 0
M  V30 14613 C 1344.43 0.501343 -4.29081 0
M  V30 14614 C 1343.56 1.51039 -5.09275 0
M  V30 14615 C 1342.6 0.783254 -6.07068 0
M  V30 14616 N 1341.74 1.73916 -6.80219 0
M  V30 14617 H 1346.58 -0.520856 -2.93413 0
M  V30 14618 H 1344.11 -0.268686 -1.44625 0
M  V30 14619 H 1346.07 1.81961 -3.75428 0
M  V30 14620 H 1344.7 1.89213 -2.61531 0
M  V30 14621 H 1343.75 -0.219317 -3.79767 0
M  V30 14622 H 1345.07 -0.0682656 -4.98753 0
M  V30 14623 H 1344.22 2.19004 -5.65793 0
M  V30 14624 H 1342.96 2.11392 -4.39505 0
M  V30 14625 H 1341.96 0.0896883 -5.49727 0
M  V30 14626 H 1343.19 0.185464 -6.78847 0
M  V30 14627 H 1341.14 2.33125 -6.13179 0
M  V30 14628 H 1341.05 1.22171 -7.46063 0
M  V30 14629 H 1342.32 2.40993 -7.41311 0
M  V30 14630 N 1346.55 1.54831 -0.294147 0
M  V30 14631 C 1347.78 2.04411 0.319938 0
M  V30 14632 C 1348.19 1.17174 1.4804 0
M  V30 14633 O 1347.55 0.195881 1.81446 0
M  V30 14634 C 1347.6 3.52924 0.782751 0
M  V30 14635 O 1347.32 4.36844 -0.331512 0
M  V30 14636 C 1348.82 4.18474 1.4627 0
M  V30 14637 H 1346.04 0.667286 0.0704973 0
M  V30 14638 H 1348.59 1.9989 -0.431785 0
M  V30 14639 H 1346.74 3.57828 1.48451 0
M  V30 14640 H 1347.16 5.24493 0.0275743 0
M  V30 14641 H 1348.63 5.23933 1.73776 0
M  V30 14642 H 1349.11 3.67793 2.40052 0
M  V30 14643 H 1349.71 4.17626 0.804291 0
M  V30 14644 N 1348.03 0.0217466 1.57585 0
M  V30 14645 C 1348.96 -0.961069 2.12804 0
M  V30 14646 C 1349.94 -1.3442 1.04237 0
M  V30 14647 O 1351.12 -1.42412 1.32032 0
M  V30 14648 C 1348.25 -2.24586 2.64912 0
M  V30 14649 C 1347.21 -2.0037 3.78201 0
M  V30 14650 C 1346.53 -3.35051 4.16708 0
M  V30 14651 C 1347.83 -1.34879 5.04584 0
M  V30 14652 H 1349.53 -0.501222 2.95175 0
M  V30 14653 H 1347.07 -0.239649 1.41992 0
M  V30 14654 H 1349.03 -2.93715 3.02175 0
M  V30 14655 H 1347.75 -2.72723 1.79693 0
M  V30 14656 H 1346.41 -1.33662 3.41365 0
M  V30 14657 H 1346.06 -3.80932 3.28481 0
M  V30 14658 H 1345.76 -3.19656 4.93045 0
M  V30 14659 H 1347.28 -4.05459 4.56547 0
M  V30 14660 H 1348.7 -1.93997 5.3948 0
M  V30 14661 H 1347.09 -1.29906 5.85871 0
M  V30 14662 H 1348.16 -0.320774 4.83838 0
M  V30 14663 N 1349.51 -1.55583 -0.251311 0
M  V30 14664 C 1350.44 -1.84909 -1.33731 0
M  V30 14665 C 1351.42 -0.703814 -1.46578 0
M  V30 14666 O 1352.6 -0.949108 -1.62862 0
M  V30 14667 C 1349.73 -2.0299 -2.71133 0
M  V30 14668 C 1348.77 -3.25615 -2.75458 0
M  V30 14669 S 1349.61 -4.82388 -2.32512 0
M  V30 14670 C 1350.76 -5.03469 -3.71846 0
M  V30 14671 H 1351 -2.76733 -1.08656 0
M  V30 14672 H 1348.53 -1.47634 -0.45207 0
M  V30 14673 H 1350.49 -2.14091 -3.5025 0
M  V30 14674 H 1349.15 -1.12016 -2.93447 0
M  V30 14675 H 1348.34 -3.35219 -3.76356 0
M  V30 14676 H 1347.94 -3.13217 -2.0438 0
M  V30 14677 H 1350.23 -4.90542 -4.67306 0
M  V30 14678 H 1351.18 -6.05463 -3.67179 0
M  V30 14679 H 1351.59 -4.31337 -3.64155 0
M  V30 14680 N 1350.98 0.516783 -1.48886 0
M  V30 14681 C 1351.93 1.64093 -1.64853 0
M  V30 14682 C 1352.93 1.61392 -0.514685 0
M  V30 14683 O 1354.13 1.6609 -0.693831 0
M  V30 14684 H 1350.51 0.543672 -0.519543 0
M  V30 14685 H 1352.48 1.47774 -2.5924 0
M  V30 14686 C 1351.23 3.02308 -1.71771 0
M  V30 14687 H 1350.55 3.05085 -2.58385 0
M  V30 14688 H 1351.99 3.80544 -1.86982 0
M  V30 14689 C 1350.45 3.33757 -0.459136 0
M  V30 14690 O 1350.98 3.99475 0.422177 0
M  V30 14691 N 1349.18 2.88756 -0.326837 0
M  V30 14692 H 1348.73 2.35452 -1.045 0
M  V30 14693 H 1348.69 3.10166 0.514213 0
M  V30 14694 N 1352.46 1.37696 0.766659 0
M  V30 14695 C 1353.88 1.18607 1.06792 0
M  V30 14696 C 1354.08 0.0257195 2.01484 0
M  V30 14697 O 1353.13 -0.632608 2.44447 0
M  V30 14698 C 1354.45 2.50692 1.66054 0
M  V30 14699 C 1355.99 2.57259 1.78288 0
M  V30 14700 C 1356.47 3.89488 2.40963 0
M  V30 14701 N 1357.96 3.90957 2.48408 0
M  V30 14702 C 1358.7 4.90023 2.97767 0
M  V30 14703 N 1358.19 5.99485 3.4726 0
M  V30 14704 N 1359.98 4.77423 2.96688 0
M  V30 14705 H 1352.14 2.11951 0.138031 0
M  V30 14706 H 1354.4 0.939873 0.123863 0
M  V30 14707 H 1354.1 3.35989 1.03945 0
M  V30 14708 H 1353.98 2.68148 2.65286 0
M  V30 14709 H 1356.37 1.72366 2.39528 0
M  V30 14710 H 1356.45 2.43682 0.777981 0
M  V30 14711 H 1356.09 4.74797 1.8036 0
M  V30 14712 H 1356.02 4.0037 3.42069 0
M  V30 14713 H 1358.51 3.11888 2.13388 0
M  V30 14714 H 1358.82 6.71022 3.8334 0
M  V30 14715 H 1357.17 6.03123 3.45351 0
M  V30 14716 H 1360.36 3.91026 2.57325 0
M  V30 14717 H 1360.53 5.54783 3.34844 0
M  V30 14718 N 1353.94 -0.993397 1.22349 0
M  V30 14719 C 1354.87 -2.08543 0.950925 0
M  V30 14720 C 1355.88 -1.62648 -0.0702741 0
M  V30 14721 O 1357.07 -1.77748 0.16367 0
M  V30 14722 C 1354.17 -3.36429 0.408466 0
M  V30 14723 C 1353.35 -4.11356 1.48676 0
M  V30 14724 C 1352.41 -5.17526 0.951478 0
M  V30 14725 O 1351.43 -5.45135 1.63757 0
M  V30 14726 N 1352.63 -5.80055 -0.227378 0
M  V30 14727 H 1355.4 -2.32506 1.89106 0
M  V30 14728 H 1352.96 -1.15911 1.13032 0
M  V30 14729 H 1354.95 -4.04684 0.0356968 0
M  V30 14730 H 1353.52 -3.09534 -0.436767 0
M  V30 14731 H 1352.74 -3.37739 2.03288 0
M  V30 14732 H 1354.03 -4.58187 2.21228 0
M  V30 14733 H 1353.43 -5.59992 -0.801601 0
M  V30 14734 H 1351.98 -6.49546 -0.541538 0
M  V30 14735 N 1355.42 -1.03311 -1.19015 0
M  V30 14736 C 1356.69 -0.646539 -1.84606 0
M  V30 14737 C 1357.07 0.87449 -1.92135 0
M  V30 14738 O 1356.42 1.77291 -1.44154 0
M  V30 14739 C 1356.63 -1.31354 -3.23338 0
M  V30 14740 C 1357.98 -1.43949 -3.99455 0
M  V30 14741 O 1359 -1.27104 -3.32751 0
M  V30 14742 O 1357.86 -1.71328 -5.1895 0
M  V30 14743 H 1354.96 -0.225267 -0.795728 0
M  V30 14744 H 1357.5 -1.13152 -1.2647 0
M  V30 14745 H 1356.28 -2.3521 -3.12717 0
M  V30 14746 H 1355.9 -0.816688 -3.89122 0
M  V30 14747 N 1356.9 1.35099 -0.81154 0
M  V30 14748 C 1357.83 2.28468 -0.183012 0
M  V30 14749 C 1358.84 1.50509 0.620553 0
M  V30 14750 O 1360.03 1.7268 0.4521 0
M  V30 14751 C 1357.13 3.30201 0.762933 0
M  V30 14752 C 1356.3 4.374 0.00466561 0
M  V30 14753 C 1355.36 5.18961 0.869832 0
M  V30 14754 O 1354.39 5.68306 0.318964 0
M  V30 14755 N 1355.59 5.37555 2.19123 0
M  V30 14756 H 1358.35 2.83046 -0.985132 0
M  V30 14757 H 1355.92 1.47502 -0.667449 0
M  V30 14758 H 1357.91 3.81659 1.34606 0
M  V30 14759 H 1356.48 2.76101 1.46584 0
M  V30 14760 H 1355.7 3.8681 -0.759702 0
M  V30 14761 H 1356.99 5.06159 -0.517739 0
M  V30 14762 H 1356.38 4.99118 2.66266 0
M  V30 14763 H 1354.94 5.92174 2.72348 0
M  V30 14764 N 1358.37 0.56548 1.47106 0
M  V30 14765 C 1359.28 -0.180488 2.33905 0
M  V30 14766 C 1360.3 -0.90355 1.48701 0
M  V30 14767 O 1361.48 -0.870595 1.81611 0
M  V30 14768 C 1358.54 -1.19212 3.2556 0
M  V30 14769 C 1357.6 -0.475589 4.26658 0
M  V30 14770 C 1356.83 -1.43902 5.13934 0
M  V30 14771 O 1357.06 -2.67443 5.03816 0
M  V30 14772 O 1355.99 -0.958998 5.94211 0
M  V30 14773 H 1359.82 0.531726 2.99009 0
M  V30 14774 H 1357.4 0.32602 1.45799 0
M  V30 14775 H 1359.28 -1.77586 3.82153 0
M  V30 14776 H 1357.96 -1.8861 2.63074 0
M  V30 14777 H 1356.87 0.149561 3.73801 0
M  V30 14778 H 1358.2 0.177103 4.91881 0
M  V30 14779 N 1359.85 -1.54672 0.302354 0
M  V30 14780 C 1360.78 -2.2653 -0.566265 0
M  V30 14781 C 1361.76 -1.26532 -1.13682 0
M  V30 14782 O 1362.95 -1.55307 -1.1659 0
M  V30 14783 C 1360.08 -3.00709 -1.73757 0
M  V30 14784 C 1359.03 -4.07865 -1.29731 0
M  V30 14785 C 1358.36 -4.69767 -2.55388 0
M  V30 14786 C 1359.66 -5.20547 -0.427567 0
M  V30 14787 H 1361.35 -2.99382 0.033071 0
M  V30 14788 H 1358.9 -1.4399 0.0173458 0
M  V30 14789 H 1360.85 -3.497 -2.35134 0
M  V30 14790 H 1359.58 -2.25437 -2.36317 0
M  V30 14791 H 1358.23 -3.59726 -0.706586 0
M  V30 14792 H 1357.88 -3.91134 -3.16265 0
M  V30 14793 H 1357.58 -5.42137 -2.26631 0
M  V30 14794 H 1359.11 -5.21521 -3.17566 0
M  V30 14795 H 1360.52 -5.65424 -0.947053 0
M  V30 14796 H 1358.92 -5.99645 -0.233704 0
M  V30 14797 H 1359.99 -4.81805 0.546993 0
M  V30 14798 N 1361.33 -0.0301034 -1.57571 0
M  V30 14799 C 1362.24 0.967086 -2.1374 0
M  V30 14800 C 1363.26 1.35636 -1.0899 0
M  V30 14801 O 1364.43 1.43758 -1.41052 0
M  V30 14802 C 1361.5 2.23058 -2.65417 0
M  V30 14803 C 1360.56 1.90163 -3.84885 0
M  V30 14804 C 1359.79 3.10488 -4.34088 0
M  V30 14805 O 1360.01 4.23179 -3.8246 0
M  V30 14806 O 1358.95 2.92729 -5.25921 0
M  V30 14807 H 1362.77 0.519486 -2.99224 0
M  V30 14808 H 1360.36 0.190559 -1.4818 0
M  V30 14809 H 1362.24 2.97229 -2.98719 0
M  V30 14810 H 1360.92 2.66997 -1.83015 0
M  V30 14811 H 1359.82 1.13373 -3.56507 0
M  V30 14812 H 1361.16 1.51039 -4.68453 0
M  V30 14813 N 1362.81 1.55714 0.243056 0
M  V30 14814 C 1363.76 1.90638 1.30099 0
M  V30 14815 C 1364.73 0.761049 1.47639 0
M  V30 14816 O 1365.91 1.01505 1.61559 0
M  V30 14817 C 1363.05 2.20985 2.65065 0
M  V30 14818 C 1362.16 3.48343 2.55501 0
M  V30 14819 C 1361.3 3.68241 3.82847 0
M  V30 14820 C 1360.34 4.89187 3.67916 0
M  V30 14821 N 1359.47 5.05586 4.87162 0
M  V30 14822 H 1364.31 2.80857 0.996155 0
M  V30 14823 H 1361.85 1.39027 0.480619 0
M  V30 14824 H 1363.81 2.36585 3.43632 0
M  V30 14825 H 1362.44 1.33966 2.93689 0
M  V30 14826 H 1361.49 3.41054 1.68483 0
M  V30 14827 H 1362.8 4.37057 2.4038 0
M  V30 14828 H 1361.96 3.83822 4.69857 0
M  V30 14829 H 1360.7 2.77768 4.00869 0
M  V30 14830 H 1359.7 4.7358 2.79289 0
M  V30 14831 H 1360.93 5.81124 3.51385 0
M  V30 14832 H 1358.87 4.18051 5.05538 0
M  V30 14833 H 1358.79 5.88395 4.74686 0
M  V30 14834 H 1360.06 5.25582 5.7566 0
M  V30 14835 N 1364.29 -0.50888 1.49158 0
M  V30 14836 C 1365.56 -1.27021 1.48745 0
M  V30 14837 C 1365.94 -2.10045 0.210772 0
M  V30 14838 O 1365.29 -2.13773 -0.807061 0
M  V30 14839 C 1365.5 -2.13367 2.76181 0
M  V30 14840 C 1366.85 -2.72815 3.25357 0
M  V30 14841 O 1367.87 -2.23639 2.77243 0
M  V30 14842 O 1366.73 -3.62316 4.09133 0
M  V30 14843 H 1363.83 -0.574387 0.594986 0
M  V30 14844 H 1366.37 -0.523798 1.61414 0
M  V30 14845 H 1365.14 -1.51941 3.60596 0
M  V30 14846 H 1364.77 -2.95215 2.66334 0
M  V30 14847 N 1365.76 -1.381 -0.759346 0
M  V30 14848 C 1366.7 -1.29241 -1.88075 0
M  V30 14849 C 1367.68 -0.170526 -1.61703 0
M  V30 14850 O 1368.86 -0.346865 -1.85281 0
M  V30 14851 C 1365.99 -1.00115 -3.23566 0
M  V30 14852 C 1365.03 -2.14161 -3.68832 0
M  V30 14853 S 1365.87 -3.76251 -3.81045 0
M  V30 14854 C 1367.02 -3.49301 -5.19365 0
M  V30 14855 H 1367.25 -2.24152 -1.95303 0
M  V30 14856 H 1364.79 -1.23869 -0.921734 0
M  V30 14857 H 1366.75 -0.839934 -4.01815 0
M  V30 14858 H 1365.41 -0.0693088 -3.14024 0
M  V30 14859 H 1364.6 -1.89313 -4.67094 0
M  V30 14860 H 1364.2 -2.2636 -2.9772 0
M  V30 14861 H 1366.49 -3.05058 -6.04935 0
M  V30 14862 H 1367.44 -4.46935 -5.49231 0
M  V30 14863 H 1367.84 -2.83944 -4.87889 0
M  V30 14864 N 1367.24 0.986894 -1.22875 0
M  V30 14865 C 1368.15 2.11232 -1.02069 0
M  V30 14866 C 1369.17 1.73969 0.0328424 0
M  V30 14867 O 1370.34 2.00754 -0.161197 0
M  V30 14868 C 1367.41 3.41337 -0.60747 0
M  V30 14869 C 1366.47 3.92665 -1.73531 0
M  V30 14870 C 1365.7 5.1656 -1.34171 0
M  V30 14871 O 1365.93 5.69964 -0.223106 0
M  V30 14872 O 1364.86 5.61791 -2.16041 0
M  V30 14873 H 1368.69 2.3167 -1.96374 0
M  V30 14874 H 1366.27 1.09607 -1.01522 0
M  V30 14875 H 1368.15 4.19613 -0.387661 0
M  V30 14876 H 1366.83 3.22244 0.306653 0
M  V30 14877 H 1365.74 3.15534 -2.0097 0
M  V30 14878 H 1367.07 4.162 -2.62751 0
M  V30 14879 N 1368.72 1.0394 1.18466 0
M  V30 14880 C 1369.68 0.633804 2.20262 0
M  V30 14881 C 1370.68 -0.308136 1.5782 0
M  V30 14882 O 1371.87 -0.0937087 1.73948 0
M  V30 14883 C 1369.01 -0.0709693 3.40826 0
M  V30 14884 H 1370.2 1.53463 2.57661 0
M  V30 14885 H 1367.75 0.831806 1.32328 0
M  V30 14886 H 1368.49 -0.985659 3.08958 0
M  V30 14887 H 1368.27 0.606023 3.87388 0
M  V30 14888 H 1369.76 -0.341298 4.16203 0
M  V30 14889 N 1370.2 -1.34667 0.818693 0
M  V30 14890 C 1371.48 -1.92838 0.327521 0
M  V30 14891 C 1371.86 -1.74732 -1.18457 0
M  V30 14892 O 1371.2 -1.12352 -1.98971 0
M  V30 14893 C 1371.41 -3.40797 0.752207 0
M  V30 14894 C 1372.76 -4.17948 0.748613 0
M  V30 14895 O 1373.79 -3.49364 0.694517 0
M  V30 14896 O 1372.64 -5.40344 0.817958 0
M  V30 14897 H 1369.74 -0.822249 0.0885148 0
M  V30 14898 H 1372.28 -1.43668 0.9032 0
M  V30 14899 H 1371.06 -3.47759 1.79387 0
M  V30 14900 H 1370.68 -3.97309 0.151992 0
M  V30 14901 N 1371.68 -0.573274 -1.46804 0
M  V30 14902 C 1372.61 0.20305 -2.28299 0
M  V30 14903 C 1373.62 0.864367 -1.37958 0
M  V30 14904 O 1374.81 0.735516 -1.62642 0
M  V30 14905 C 1371.91 1.30633 -3.12711 0
M  V30 14906 C 1371.08 0.738741 -4.31116 0
M  V30 14907 C 1370.14 1.72853 -4.96999 0
M  V30 14908 O 1369.17 1.2683 -5.5489 0
M  V30 14909 N 1370.37 3.06239 -4.93151 0
M  V30 14910 H 1373.14 -0.496086 -2.95566 0
M  V30 14911 H 1370.7 -0.410411 -1.56612 0
M  V30 14912 H 1372.69 1.96755 -3.53652 0
M  V30 14913 H 1371.26 1.90846 -2.47581 0
M  V30 14914 H 1370.48 -0.0996941 -3.94074 0
M  V30 14915 H 1371.77 0.339154 -5.07668 0
M  V30 14916 H 1371.16 3.46262 -4.47347 0
M  V30 14917 H 1369.72 3.67876 -5.38062 0
M  V30 14918 N 1373.15 1.5451 -0.310553 0
M  V30 14919 C 1374.38 2.04739 0.29824 0
M  V30 14920 C 1374.8 1.18737 1.46788 0
M  V30 14921 O 1374.15 0.215114 1.81228 0
M  V30 14922 C 1374.21 3.53734 0.745274 0
M  V30 14923 O 1373.93 4.36468 -0.377826 0
M  V30 14924 C 1375.43 4.20001 1.41823 0
M  V30 14925 H 1372.65 0.667997 0.0634159 0
M  V30 14926 H 1375.19 1.9942 -0.452961 0
M  V30 14927 H 1373.35 3.59383 1.44648 0
M  V30 14928 H 1373.76 5.24492 -0.0280567 0
M  V30 14929 H 1375.23 5.25747 1.68209 0
M  V30 14930 H 1375.71 3.70319 2.36137 0
M  V30 14931 H 1376.32 4.18455 0.759951 0
M  V30 14932 N 1374.63 0.0384594 1.57553 0
M  V30 14933 C 1375.86 -0.648077 1.96488 0
M  V30 14934 C 1376.28 -1.65123 0.915414 0
M  V30 14935 O 1375.63 -1.82216 -0.101779 0
M  V30 14936 C 1375.68 -1.34623 3.35498 0
M  V30 14937 O 1375.41 -0.383261 4.3642 0
M  V30 14938 C 1376.91 -2.12372 3.89119 0
M  V30 14939 H 1374.13 -0.178068 0.646941 0
M  V30 14940 H 1376.67 0.100993 2.0425 0
M  V30 14941 H 1374.83 -2.04663 3.28926 0
M  V30 14942 H 1375.24 -0.880095 5.17063 0
M  V30 14943 H 1376.71 -2.5666 4.88702 0
M  V30 14944 H 1377.19 -2.96664 3.23863 0
M  V30 14945 H 1377.8 -1.4727 3.98988 0
M  V30 14946 N 1376.11 -1.55841 -0.234795 0
M  V30 14947 C 1377.04 -1.94344 -1.29432 0
M  V30 14948 C 1378.02 -0.809912 -1.49581 0
M  V30 14949 O 1379.21 -1.07117 -1.61986 0
M  V30 14950 C 1376.34 -2.24866 -2.64675 0
M  V30 14951 C 1375.29 -3.40584 -2.59203 0
M  V30 14952 C 1374.62 -3.56678 -3.98353 0
M  V30 14953 C 1375.92 -4.75935 -2.15135 0
M  V30 14954 H 1377.61 -2.83096 -0.97454 0
M  V30 14955 H 1375.16 -1.36205 -0.467355 0
M  V30 14956 H 1377.11 -2.50392 -3.38942 0
M  V30 14957 H 1375.83 -1.32953 -2.98314 0
M  V30 14958 H 1374.49 -3.15087 -1.87393 0
M  V30 14959 H 1374.14 -2.62164 -4.29277 0
M  V30 14960 H 1373.84 -4.34503 -3.95577 0
M  V30 14961 H 1375.37 -3.84538 -4.74302 0
M  V30 14962 H 1376.78 -5.00753 -2.7914 0
M  V30 14963 H 1375.18 -5.56949 -2.23446 0
M  V30 14964 H 1376.25 -4.72182 -1.10328 0
M  V30 14965 N 1377.59 0.500963 -1.49426 0
M  V30 14966 C 1378.5 1.62889 -1.68833 0
M  V30 14967 C 1379.52 1.64367 -0.570932 0
M  V30 14968 O 1380.69 1.82786 -0.845641 0
M  V30 14969 C 1377.76 2.99255 -1.75063 0
M  V30 14970 C 1376.82 3.08404 -2.9864 0
M  V30 14971 C 1376.05 4.38266 -3.04564 0
M  V30 14972 O 1376.27 5.27065 -2.1808 0
M  V30 14973 O 1375.21 4.52387 -3.97026 0
M  V30 14974 H 1379.03 1.49446 -2.64385 0
M  V30 14975 H 1376.62 0.677254 -1.33168 0
M  V30 14976 H 1378.5 3.80303 -1.81515 0
M  V30 14977 H 1377.18 3.1296 -0.826896 0
M  V30 14978 H 1376.08 2.26544 -2.97706 0
M  V30 14979 H 1377.42 2.99626 -3.90494 0
M  V30 14980 N 1379.07 1.38501 0.752011 0
M  V30 14981 C 1380.48 1.19733 1.05529 0
M  V30 14982 C 1380.68 0.047088 2.01445 0
M  V30 14983 O 1379.74 -0.606645 2.45104 0
M  V30 14984 C 1381.05 2.52439 1.63386 0
M  V30 14985 C 1382.6 2.59136 1.7555 0
M  V30 14986 C 1383.08 3.92022 2.36819 0
M  V30 14987 N 1384.57 3.9357 2.44248 0
M  V30 14988 C 1385.3 4.93154 2.92553 0
M  V30 14989 N 1384.8 6.03135 3.40882 0
M  V30 14990 N 1386.59 4.80543 2.91607 0
M  V30 14991 H 1378.74 2.12085 0.115543 0
M  V30 14992 H 1381 0.941134 0.113888 0
M  V30 14993 H 1380.71 3.37072 1.00376 0
M  V30 14994 H 1380.58 2.70947 2.62427 0
M  V30 14995 H 1382.97 1.74897 2.37687 0
M  V30 14996 H 1383.05 2.44494 0.752092 0
M  V30 14997 H 1382.7 4.76684 1.75314 0
M  V30 14998 H 1382.63 4.03976 3.37803 0
M  V30 14999 H 1385.12 3.14133 2.10068 0
M  V30 15000 H 1385.43 6.7505 3.76201 0
M  V30 15001 H 1383.78 6.06752 3.38935 0
M  V30 15002 H 1386.97 3.93733 2.53163 0
M  V30 15003 H 1387.14 5.58303 3.28941 0
M  V30 15004 N 1380.55 -0.980364 1.23396 0
M  V30 15005 C 1381.49 -2.07275 1.01516 0
M  V30 15006 C 1382.46 -1.65963 -0.0673729 0
M  V30 15007 O 1383.65 -1.90612 0.0847392 0
M  V30 15008 C 1380.79 -3.39621 0.61249 0
M  V30 15009 C 1379.9 -3.94203 1.76715 0
M  V30 15010 C 1379.04 -5.14761 1.31126 0
M  V30 15011 C 1378.07 -5.61509 2.43667 0
M  V30 15012 N 1377.21 -6.73297 1.99035 0
M  V30 15013 H 1382.05 -2.25325 1.9502 0
M  V30 15014 H 1379.59 -1.10452 0.971532 0
M  V30 15015 H 1381.55 -4.15643 0.360126 0
M  V30 15016 H 1380.18 -3.21535 -0.285539 0
M  V30 15017 H 1379.23 -3.14937 2.13352 0
M  V30 15018 H 1380.54 -4.24867 2.61323 0
M  V30 15019 H 1379.69 -5.98115 1.01702 0
M  V30 15020 H 1378.43 -4.85751 0.435555 0
M  V30 15021 H 1377.44 -4.76737 2.73865 0
M  V30 15022 H 1378.66 -5.92539 3.31774 0
M  V30 15023 H 1376.61 -6.46046 1.13845 0
M  V30 15024 H 1376.53 -7.03345 2.77203 0
M  V30 15025 H 1377.79 -7.60125 1.72716 0
M  V30 15026 N 1382.02 -1.04567 -1.17913 0
M  V30 15027 C 1383.25 -0.772204 -1.9195 0
M  V30 15028 C 1383.67 0.671303 -1.76462 0
M  V30 15029 O 1383.02 1.45805 -1.0976 0
M  V30 15030 C 1383.07 -1.13539 -3.43207 0
M  V30 15031 O 1382.8 -2.52223 -3.58211 0
M  V30 15032 C 1384.3 -0.887146 -4.34332 0
M  V30 15033 H 1381.52 -0.281234 -0.609219 0
M  V30 15034 H 1384.06 -1.39467 -1.49563 0
M  V30 15035 H 1382.22 -0.557784 -3.83363 0
M  V30 15036 H 1382.63 -2.66275 -4.51882 0
M  V30 15037 H 1384.1 -1.19107 -5.38997 0
M  V30 15038 H 1384.58 0.1779 -4.3884 0
M  V30 15039 H 1385.19 -1.44829 -3.99881 0
M  V30 15040 N 1383.5 1.34231 -0.825823 0
M  V30 15041 C 1384.43 2.31997 -0.264546 0
M  V30 15042 C 1385.41 1.58375 0.620592 0
M  V30 15043 O 1386.6 1.86341 0.546865 0
M  V30 15044 C 1383.73 3.42557 0.572025 0
M  V30 15045 C 1382.68 4.27454 -0.216219 0
M  V30 15046 C 1382.01 5.29509 0.743279 0
M  V30 15047 C 1383.31 5.02456 -1.42603 0
M  V30 15048 H 1385 2.79189 -1.08139 0
M  V30 15049 H 1382.55 1.34227 -0.521451 0
M  V30 15050 H 1384.5 4.09968 0.974889 0
M  V30 15051 H 1383.22 2.94021 1.42195 0
M  V30 15052 H 1381.88 3.61649 -0.600485 0
M  V30 15053 H 1381.53 4.77234 1.58924 0
M  V30 15054 H 1381.23 5.87188 0.220064 0
M  V30 15055 H 1382.76 5.99789 1.14394 0
M  V30 15056 H 1384.17 5.62706 -1.09702 0
M  V30 15057 H 1382.57 5.69723 -1.88509 0
M  V30 15058 H 1383.64 4.31983 -2.2027 0
M  V30 15059 N 1384.98 0.581051 1.46498 0
M  V30 15060 C 1386.4 0.242599 1.57745 0
M  V30 15061 C 1386.6 -1.25508 1.57639 0
M  V30 15062 O 1385.65 -2.0367 1.49247 0
M  V30 15063 C 1386.96 0.890342 2.87217 0
M  V30 15064 C 1388.51 0.863778 3.00845 0
M  V30 15065 C 1388.99 1.49103 4.3305 0
M  V30 15066 N 1390.48 1.4553 4.39745 0
M  V30 15067 C 1391.21 1.91003 5.40653 0
M  V30 15068 N 1390.71 2.44442 6.48244 0
M  V30 15069 N 1392.5 1.8193 5.31844 0
M  V30 15070 H 1384.65 1.55382 1.44811 0
M  V30 15071 H 1386.92 0.649375 0.690664 0
M  V30 15072 H 1386.62 1.94383 2.93101 0
M  V30 15073 H 1386.5 0.397569 3.75099 0
M  V30 15074 H 1388.88 -0.181089 2.94544 0
M  V30 15075 H 1388.96 1.39455 2.14443 0
M  V30 15076 H 1388.61 2.53509 4.40109 0
M  V30 15077 H 1388.54 0.935496 5.18224 0
M  V30 15078 H 1391.03 1.06466 3.62593 0
M  V30 15079 H 1391.34 2.77002 7.2145 0
M  V30 15080 H 1389.69 2.48467 6.49068 0
M  V30 15081 H 1392.88 1.3994 4.46693 0
M  V30 15082 H 1393.05 2.17685 6.10342 0
M  V30 15083 N 1386.46 -1.54343 0.318742 0
M  V30 15084 C 1387.87 -1.59564 -0.034068 0
M  V30 15085 C 1388.07 -1.33539 -1.50896 0
M  V30 15086 O 1387.13 -1.11746 -2.26427 0
M  V30 15087 C 1388.44 -2.98291 0.379827 0
M  V30 15088 C 1389.99 -3.11255 0.330078 0
M  V30 15089 C 1390.47 -4.5232 0.719061 0
M  V30 15090 N 1391.96 -4.58295 0.67228 0
M  V30 15091 C 1392.69 -5.65551 0.945513 0
M  V30 15092 N 1392.19 -6.80767 1.28563 0
M  V30 15093 N 1393.98 -5.55305 0.871394 0
M  V30 15094 H 1386.13 -1.69518 1.27975 0
M  V30 15095 H 1388.39 -0.792627 0.520044 0
M  V30 15096 H 1388.1 -3.22319 1.40724 0
M  V30 15097 H 1387.97 -3.76319 -0.257606 0
M  V30 15098 H 1390.36 -2.86965 -0.688117 0
M  V30 15099 H 1390.44 -2.35342 1.00238 0
M  V30 15100 H 1390.09 -4.77342 1.73515 0
M  V30 15101 H 1390.02 -5.26594 0.0245001 0
M  V30 15102 H 1392.51 -3.75547 0.421059 0
M  V30 15103 H 1392.82 -7.58503 1.47963 0
M  V30 15104 H 1391.17 -6.82275 1.32385 0
M  V30 15105 H 1394.36 -4.64171 0.605205 0
M  V30 15106 H 1394.53 -6.38806 1.08769 0
M  V30 15107 N 1387.94 -0.0468143 -1.5753 0
M  V30 15108 C 1388.9 0.914225 -2.10177 0
M  V30 15109 C 1389.9 1.24271 -1.02045 0
M  V30 15110 O 1391.09 1.18012 -1.28136 0
M  V30 15111 C 1388.22 2.22544 -2.58238 0
M  V30 15112 H 1389.41 0.457922 -2.96383 0
M  V30 15113 H 1386.97 0.20152 -1.54995 0
M  V30 15114 H 1387.7 2.72765 -1.75413 0
M  V30 15115 H 1387.49 2.00007 -3.37253 0
M  V30 15116 H 1388.98 2.91392 -2.99133 0
M  V30 15117 N 1389.41 1.55964 0.226527 0
M  V30 15118 C 1390.35 1.87013 1.30772 0
M  V30 15119 C 1391.33 0.727044 1.4544 0
M  V30 15120 O 1392.51 0.974898 1.61332 0
M  V30 15121 C 1389.64 2.07278 2.67869 0
M  V30 15122 C 1388.68 3.29956 2.70243 0
M  V30 15123 S 1389.52 4.86026 2.24808 0
M  V30 15124 C 1390.67 5.09321 3.6379 0
M  V30 15125 H 1390.9 2.78427 1.0424 0
M  V30 15126 H 1388.44 1.48334 0.428525 0
M  V30 15127 H 1390.4 2.19636 3.468 0
M  V30 15128 H 1389.06 1.1667 2.91628 0
M  V30 15129 H 1388.25 3.41164 3.70975 0
M  V30 15130 H 1387.85 3.16429 1.99371 0
M  V30 15131 H 1390.14 4.97914 4.59443 0
M  V30 15132 H 1391.09 6.11227 3.57501 0
M  V30 15133 H 1391.49 4.37076 3.57247 0
M  V30 15134 N 1390.89 -0.493031 1.4969 0
M  V30 15135 C 1392.12 -1.26862 1.63063 0
M  V30 15136 C 1392.53 -1.86734 0.304451 0
M  V30 15137 O 1391.87 -1.68956 -0.72108 0
M  V30 15138 C 1391.94 -2.43249 2.64708 0
M  V30 15139 C 1391.6 -2.04185 4.08849 0
M  V30 15140 C 1392.6 -1.57698 4.95406 0
M  V30 15141 C 1390.28 -2.13576 4.54632 0
M  V30 15142 C 1392.28 -1.21116 6.25787 0
M  V30 15143 C 1389.96 -1.76606 5.85024 0
M  V30 15144 C 1390.96 -1.30451 6.70426 0
M  V30 15145 O 1390.65 -0.939844 7.98387 0
M  V30 15146 H 1390.38 -0.390674 0.551679 0
M  V30 15147 H 1392.93 -0.59753 1.96516 0
M  V30 15148 H 1391.16 -3.1346 2.26451 0
M  V30 15149 H 1392.85 -3.0526 2.67528 0
M  V30 15150 H 1393.62 -1.49882 4.6126 0
M  V30 15151 H 1389.5 -2.48451 3.88321 0
M  V30 15152 H 1393.04 -0.850198 6.924 0
M  V30 15153 H 1388.94 -1.84074 6.18698 0
M  V30 15154 H 1389.71 -1.07062 8.11468 0
M  V30 15155 N 1392.37 -1.38898 -0.744656 0
M  V30 15156 C 1393.6 -1.3903 -1.53901 0
M  V30 15157 C 1394.02 0.0156607 -1.88093 0
M  V30 15158 O 1393.38 1.00012 -1.51219 0
M  V30 15159 C 1393.43 -2.2609 -2.80919 0
M  V30 15160 O 1392.53 -1.68414 -3.76444 0
M  V30 15161 H 1391.87 -0.473854 -0.465144 0
M  V30 15162 H 1394.4 -1.82773 -0.919525 0
M  V30 15163 H 1394.41 -2.40264 -3.29754 0
M  V30 15164 H 1393.09 -3.28271 -2.55364 0
M  V30 15165 H 1391.66 -1.63431 -3.35179 0
M  V30 15166 N 1393.85 0.973806 -1.23914 0
M  V30 15167 C 1395.26 1.24128 -1.00322 0
M  V30 15168 C 1395.46 1.99378 0.29169 0
M  V30 15169 O 1394.52 2.31445 1.00943 0
M  V30 15170 C 1395.83 2.03438 -2.21435 0
M  V30 15171 C 1397.38 2.16553 -2.25995 0
M  V30 15172 C 1397.86 2.99257 -3.46712 0
M  V30 15173 N 1399.35 3.0684 -3.46992 0
M  V30 15174 C 1400.08 3.71174 -4.37055 0
M  V30 15175 N 1399.58 4.37277 -5.37364 0
M  V30 15176 N 1401.37 3.68126 -4.24782 0
M  V30 15177 H 1393.52 0.469872 -2.07138 0
M  V30 15178 H 1395.79 0.270234 -0.908668 0
M  V30 15179 H 1395.49 1.55527 -3.15443 0
M  V30 15180 H 1395.37 3.0418 -2.23057 0
M  V30 15181 H 1397.75 2.6367 -1.32522 0
M  V30 15182 H 1397.83 1.15179 -2.28402 0
M  V30 15183 H 1397.48 2.52835 -4.40496 0
M  V30 15184 H 1397.41 4.00815 -3.41547 0
M  V30 15185 H 1399.9 2.59813 -2.74419 0
M  V30 15186 H 1400.21 4.84166 -6.02331 0
M  V30 15187 H 1398.56 4.35965 -5.41257 0
M  V30 15188 H 1401.75 3.15657 -3.45656 0
M  V30 15189 H 1401.92 4.17981 -4.95173 0
M  V30 15190 N 1395.33 1.05191 1.17357 0
M  V30 15191 C 1396.24 0.663617 2.25018 0
M  V30 15192 C 1397.25 -0.315299 1.71119 0
M  V30 15193 O 1398.43 -0.167398 2.00703 0
M  V30 15194 C 1395.49 0.0443307 3.46672 0
M  V30 15195 C 1394.55 1.07369 4.15656 0
M  V30 15196 C 1393.79 0.483864 5.31502 0
M  V30 15197 O 1394.01 -0.706692 5.66005 0
M  V30 15198 O 1392.94 1.21812 5.89445 0
M  V30 15199 H 1396.77 1.56088 2.60519 0
M  V30 15200 H 1394.36 0.823474 1.24657 0
M  V30 15201 H 1396.24 -0.299839 4.20332 0
M  V30 15202 H 1394.91 -0.826579 3.12969 0
M  V30 15203 H 1393.82 1.46985 3.44015 0
M  V30 15204 H 1395.15 1.91575 4.53387 0
M  V30 15205 N 1396.8 -1.33791 0.83293 0
M  V30 15206 C 1397.77 -2.27637 0.267196 0
M  V30 15207 C 1398.77 -1.50709 -0.560669 0
M  V30 15208 O 1399.96 -1.70109 -0.375321 0
M  V30 15209 C 1397.09 -3.35136 -0.624248 0
M  V30 15210 H 1398.28 -2.79186 1.09522 0
M  V30 15211 H 1395.84 -1.44093 0.605554 0
M  V30 15212 H 1396.57 -2.88818 -1.47494 0
M  V30 15213 H 1396.36 -3.92087 -0.0319827 0
M  V30 15214 H 1397.85 -4.05113 -1.01355 0
M  V30 15215 N 1398.28 -0.588812 -1.46187 0
M  V30 15216 C 1399.23 0.140932 -2.30369 0
M  V30 15217 C 1400.2 0.878216 -1.40984 0
M  V30 15218 O 1401.38 0.867678 -1.69929 0
M  V30 15219 C 1398.52 1.14468 -3.25563 0
M  V30 15220 C 1397.64 0.410215 -4.30048 0
M  V30 15221 C 1396.77 1.40203 -5.12364 0
M  V30 15222 C 1395.81 0.65431 -6.08593 0
M  V30 15223 N 1394.95 1.59448 -6.83755 0
M  V30 15224 H 1399.79 -0.582976 -2.92242 0
M  V30 15225 H 1397.33 -0.299302 -1.44023 0
M  V30 15226 H 1399.28 1.73957 -3.79203 0
M  V30 15227 H 1397.91 1.83623 -2.65485 0
M  V30 15228 H 1396.97 -0.299822 -3.79217 0
M  V30 15229 H 1398.28 -0.174043 -4.98496 0
M  V30 15230 H 1397.43 2.06953 -5.70312 0
M  V30 15231 H 1396.17 2.02022 -4.4389 0
M  V30 15232 H 1395.18 -0.0269371 -5.49793 0
M  V30 15233 H 1396.4 0.0414285 -6.79087 0
M  V30 15234 H 1394.35 2.20066 -6.17986 0
M  V30 15235 H 1394.26 1.06318 -7.48487 0
M  V30 15236 H 1395.53 2.25215 -7.46256 0
M  V30 15237 N 1399.76 1.54172 -0.326923 0
M  V30 15238 C 1400.72 2.2311 0.524855 0
M  V30 15239 C 1401.72 1.22567 1.04087 0
M  V30 15240 O 1402.91 1.47123 0.932759 0
M  V30 15241 C 1400.05 2.93778 1.72937 0
M  V30 15242 H 1401.24 2.99799 -0.0778327 0
M  V30 15243 H 1398.79 1.56105 -0.0780484 0
M  V30 15244 H 1399.53 2.21234 2.3712 0
M  V30 15245 H 1399.31 3.67509 1.36674 0
M  V30 15246 H 1400.8 3.46292 2.33392 0
M  V30 15247 N 1401.24 0.0551678 1.57503 0
M  V30 15248 C 1402.17 -0.947102 2.08717 0
M  V30 15249 C 1403.18 -1.2722 1.01582 0
M  V30 15250 O 1404.37 -1.23229 1.29139 0
M  V30 15251 C 1401.47 -2.26756 2.51863 0
M  V30 15252 C 1400.65 -2.12378 3.8238 0
M  V30 15253 C 1399.7 -3.27582 4.11797 0
M  V30 15254 O 1398.73 -3.03309 4.81656 0
M  V30 15255 N 1399.93 -4.5218 3.64024 0
M  V30 15256 H 1402.7 -0.509957 2.9533 0
M  V30 15257 H 1400.26 -0.130976 1.61369 0
M  V30 15258 H 1402.25 -3.02701 2.68616 0
M  V30 15259 H 1400.82 -2.62024 1.70477 0
M  V30 15260 H 1400.04 -1.21 3.7517 0
M  V30 15261 H 1401.33 -2.00003 4.67842 0
M  V30 15262 H 1400.73 -4.7479 3.07556 0
M  V30 15263 H 1399.28 -5.25206 3.86008 0
M  V30 15264 N 1402.72 -1.56081 -0.218252 0
M  V30 15265 C 1403.65 -1.87704 -1.29779 0
M  V30 15266 C 1404.63 -0.734747 -1.45053 0
M  V30 15267 O 1405.81 -0.98344 -1.60813 0
M  V30 15268 C 1402.94 -2.08695 -2.66766 0
M  V30 15269 C 1401.98 -3.31385 -2.68489 0
M  V30 15270 S 1402.82 -4.87212 -2.22227 0
M  V30 15271 C 1403.97 -5.11243 -3.61083 0
M  V30 15272 H 1404.21 -2.78975 -1.02762 0
M  V30 15273 H 1401.74 -1.48559 -0.420653 0
M  V30 15274 H 1403.7 -2.21472 -3.4563 0
M  V30 15275 H 1402.36 -1.18215 -2.91005 0
M  V30 15276 H 1401.55 -3.43127 -3.69161 0
M  V30 15277 H 1401.15 -3.17482 -1.9769 0
M  V30 15278 H 1403.45 -5.00344 -4.56796 0
M  V30 15279 H 1404.39 -6.13115 -3.54254 0
M  V30 15280 H 1404.8 -4.38964 -3.54924 0
M  V30 15281 N 1404.2 0.485086 -1.49949 0
M  V30 15282 C 1405.11 1.61089 -1.70551 0
M  V30 15283 C 1406.12 1.63752 -0.588333 0
M  V30 15284 O 1407.3 1.81879 -0.86498 0
M  V30 15285 C 1404.36 2.97382 -1.78227 0
M  V30 15286 C 1403.42 3.05219 -3.01894 0
M  V30 15287 C 1402.66 4.35011 -3.09195 0
M  V30 15288 O 1402.88 5.24722 -2.23658 0
M  V30 15289 O 1401.81 4.48151 -4.01802 0
M  V30 15290 H 1405.64 1.46633 -2.65956 0
M  V30 15291 H 1403.22 0.663091 -1.33879 0
M  V30 15292 H 1405.11 3.78356 -1.85538 0
M  V30 15293 H 1403.78 3.12066 -0.860043 0
M  V30 15294 H 1402.69 2.23373 -3.00092 0
M  V30 15295 H 1404.02 2.95467 -3.93649 0
M  V30 15296 N 1405.67 1.39291 0.737279 0
M  V30 15297 C 1406.95 1.26901 1.48847 0
M  V30 15298 C 1407.33 -0.122417 2.10745 0
M  V30 15299 O 1406.68 -1.13343 1.98408 0
M  V30 15300 C 1406.89 2.3916 2.54172 0
M  V30 15301 C 1408.24 2.78368 3.20619 0
M  V30 15302 O 1409.26 2.38593 2.64484 0
M  V30 15303 O 1408.12 3.47014 4.22189 0
M  V30 15304 H 1405.21 0.497176 0.660867 0
M  V30 15305 H 1407.76 1.51159 0.771299 0
M  V30 15306 H 1406.53 3.3219 2.06797 0
M  V30 15307 H 1406.15 2.16555 3.33451 0
M  V30 15308 N 1407.15 -0.967221 1.24429 0
M  V30 15309 C 1408.06 -2.09582 1.05417 0
M  V30 15310 C 1409.08 -1.73999 -0.00516127 0
M  V30 15311 O 1410.25 -2.00472 0.193115 0
M  V30 15312 C 1407.32 -3.40327 0.661697 0
M  V30 15313 C 1406.38 -3.89854 1.79756 0
M  V30 15314 C 1405.61 -5.1436 1.42372 0
M  V30 15315 O 1405.84 -5.69536 0.313754 0
M  V30 15316 O 1404.77 -5.58283 2.24952 0
M  V30 15317 H 1408.6 -2.28517 2.00034 0
M  V30 15318 H 1406.18 -1.07978 1.03253 0
M  V30 15319 H 1408.06 -4.18943 0.454369 0
M  V30 15320 H 1406.74 -3.22691 -0.255348 0
M  V30 15321 H 1405.64 -3.12297 2.05964 0
M  V30 15322 H 1406.98 -4.11967 2.69339 0
M  V30 15323 N 1408.63 -1.05812 -1.16797 0
M  V30 15324 C 1409.91 -0.685551 -1.83193 0
M  V30 15325 C 1410.29 0.833539 -1.93947 0
M  V30 15326 O 1409.63 1.74193 -1.47882 0
M  V30 15327 C 1409.84 -1.38183 -3.20479 0
M  V30 15328 C 1411.19 -1.52389 -3.96311 0
M  V30 15329 O 1412.22 -1.34134 -3.2998 0
M  V30 15330 O 1411.08 -1.82297 -5.15199 0
M  V30 15331 H 1408.17 -0.242095 -0.790771 0
M  V30 15332 H 1410.72 -1.15809 -1.24041 0
M  V30 15333 H 1409.49 -2.41791 -3.07657 0
M  V30 15334 H 1409.11 -0.899043 -3.87302 0
M  V30 15335 N 1410.11 1.33347 -0.840014 0
M  V30 15336 C 1411.02 2.32965 -0.276527 0
M  V30 15337 C 1412.03 1.634 0.598037 0
M  V30 15338 O 1413.21 1.95046 0.501888 0
M  V30 15339 C 1410.27 3.42498 0.53816 0
M  V30 15340 C 1409.34 4.27781 -0.360814 0
M  V30 15341 C 1408.57 5.32083 0.415085 0
M  V30 15342 O 1408.79 5.46115 1.64666 0
M  V30 15343 O 1407.73 6.01528 -0.211503 0
M  V30 15344 H 1411.55 2.83022 -1.10147 0
M  V30 15345 H 1409.14 1.3671 -0.602566 0
M  V30 15346 H 1411.02 4.09336 1.00108 0
M  V30 15347 H 1409.69 2.94655 1.34015 0
M  V30 15348 H 1408.6 3.63805 -0.871598 0
M  V30 15349 H 1409.93 4.7911 -1.1276 0
M  V30 15350 N 1411.59 0.596556 1.45873 0
M  V30 15351 C 1412.5 -0.130832 2.34235 0
M  V30 15352 C 1413.51 -0.871805 1.50584 0
M  V30 15353 O 1414.69 -0.831877 1.83417 0
M  V30 15354 C 1411.75 -1.12279 3.28016 0
M  V30 15355 C 1410.81 -0.384982 4.2757 0
M  V30 15356 C 1410.05 -1.32969 5.1687 0
M  V30 15357 O 1410.27 -2.56696 5.09375 0
M  V30 15358 O 1409.2 -0.832741 5.96112 0
M  V30 15359 H 1413.03 0.59503 2.97814 0
M  V30 15360 H 1410.61 0.356873 1.45075 0
M  V30 15361 H 1412.5 -1.6944 3.85834 0
M  V30 15362 H 1411.17 -1.82988 2.67015 0
M  V30 15363 H 1410.08 0.228816 3.734 0
M  V30 15364 H 1411.41 0.281398 4.91395 0
M  V30 15365 N 1413.06 -1.53996 0.335095 0
M  V30 15366 C 1413.97 -2.28436 -0.534244 0
M  V30 15367 C 1414.99 -1.33224 -1.11926 0
M  V30 15368 O 1416.17 -1.66252 -1.13676 0
M  V30 15369 C 1413.23 -3.03634 -1.67354 0
M  V30 15370 C 1412.29 -4.14455 -1.11916 0
M  V30 15371 C 1411.52 -4.86058 -2.20416 0
M  V30 15372 O 1411.75 -4.57263 -3.40979 0
M  V30 15373 O 1410.68 -5.72704 -1.85185 0
M  V30 15374 H 1414.51 -3.03618 0.0706314 0
M  V30 15375 H 1412.09 -1.49062 0.100409 0
M  V30 15376 H 1413.97 -3.50687 -2.33659 0
M  V30 15377 H 1412.65 -2.31317 -2.26438 0
M  V30 15378 H 1411.56 -3.71725 -0.420871 0
M  V30 15379 H 1412.89 -4.8885 -0.573295 0
M  V30 15380 N 1414.54 -0.0635198 -1.57472 0
M  V30 15381 C 1415.45 0.921531 -2.15743 0
M  V30 15382 C 1416.47 1.33294 -1.11842 0
M  V30 15383 O 1417.64 1.40733 -1.4407 0
M  V30 15384 C 1414.71 2.17378 -2.70088 0
M  V30 15385 C 1413.77 1.81956 -3.88832 0
M  V30 15386 C 1413 3.01211 -4.40577 0
M  V30 15387 O 1413.23 4.14971 -3.9135 0
M  V30 15388 O 1412.16 2.81507 -5.32012 0
M  V30 15389 H 1415.99 0.455899 -3.00259 0
M  V30 15390 H 1413.57 0.159085 -1.48551 0
M  V30 15391 H 1415.45 2.90826 -3.04956 0
M  V30 15392 H 1414.13 2.63055 -1.88637 0
M  V30 15393 H 1413.03 1.05786 -3.58832 0
M  V30 15394 H 1414.37 1.41069 -4.71551 0
M  V30 15395 N 1416.02 1.56195 0.209972 0
M  V30 15396 C 1416.93 1.96539 1.28101 0
M  V30 15397 C 1417.95 0.870858 1.50639 0
M  V30 15398 O 1419.12 1.17539 1.63544 0
M  V30 15399 C 1416.19 2.28392 2.60841 0
M  V30 15400 C 1415.25 3.51474 2.46505 0
M  V30 15401 C 1414.48 3.81798 3.72915 0
M  V30 15402 O 1414.7 3.13627 4.76439 0
M  V30 15403 O 1413.64 4.75264 3.69334 0
M  V30 15404 H 1417.46 2.87838 0.968671 0
M  V30 15405 H 1415.05 1.43556 0.413777 0
M  V30 15406 H 1416.93 2.50022 3.39215 0
M  V30 15407 H 1415.61 1.40264 2.91732 0
M  V30 15408 H 1414.51 3.35109 1.66292 0
M  V30 15409 H 1415.85 4.40021 2.2055 0
M  V30 15410 N 1417.5 -0.477127 1.50204 0
M  V30 15411 C 1418.41 -1.60182 1.71403 0
M  V30 15412 C 1419.42 -1.63437 0.597009 0
M  V30 15413 O 1420.6 -1.81418 0.874614 0
M  V30 15414 C 1417.66 -2.96432 1.79802 0
M  V30 15415 C 1416.73 -3.03614 3.03508 0
M  V30 15416 C 1415.96 -4.33365 3.11497 0
M  V30 15417 O 1416.18 -5.23529 2.26438 0
M  V30 15418 O 1415.12 -4.46013 4.04173 0
M  V30 15419 H 1418.94 -1.45221 2.66729 0
M  V30 15420 H 1416.53 -0.655982 1.34228 0
M  V30 15421 H 1418.41 -3.77367 1.87542 0
M  V30 15422 H 1417.08 -3.11605 0.876581 0
M  V30 15423 H 1415.99 -2.21779 3.01272 0
M  V30 15424 H 1417.32 -2.93376 3.95211 0
M  V30 15425 N 1418.98 -1.3968 -0.729882 0
M  V30 15426 C 1419.89 -1.41094 -1.87429 0
M  V30 15427 C 1420.9 -0.305142 -1.71303 0
M  V30 15428 O 1422.08 -0.54744 -1.93817 0
M  V30 15429 C 1419.14 -1.25786 -3.23077 0
M  V30 15430 C 1418.2 -2.46382 -3.5156 0
M  V30 15431 C 1417.44 -2.31795 -4.80735 0
M  V30 15432 O 1417.66 -1.32415 -5.54818 0
M  V30 15433 O 1416.59 -3.20883 -5.09232 0
M  V30 15434 H 1420.42 -2.37571 -1.89192 0
M  V30 15435 H 1418.01 -1.2085 -0.878389 0
M  V30 15436 H 1419.89 -1.19402 -4.0413 0
M  V30 15437 H 1418.56 -0.324065 -3.22074 0
M  V30 15438 H 1417.47 -2.58343 -2.70573 0
M  V30 15439 H 1418.8 -3.38473 -3.57347 0
M  V30 15440 N 1420.45 0.960609 -1.2494 0
M  V30 15441 C 1421.73 1.68035 -1.00118 0
M  V30 15442 C 1422.11 2.057 0.474399 0
M  V30 15443 O 1421.46 1.76569 1.45036 0
M  V30 15444 C 1421.67 2.90708 -1.93106 0
M  V30 15445 C 1423.02 3.62792 -2.20606 0
M  V30 15446 O 1424.04 3.00778 -1.90816 0
M  V30 15447 O 1422.9 4.74443 -2.71231 0
M  V30 15448 H 1419.99 0.734939 -0.379202 0
M  V30 15449 H 1422.54 1.01407 -1.36069 0
M  V30 15450 H 1421.31 2.59619 -2.92769 0
M  V30 15451 H 1420.94 3.65068 -1.57515 0
M  V30 15452 N 1421.93 1.0643 1.16234 0
M  V30 15453 C 1422.84 0.687446 2.24302 0
M  V30 15454 C 1423.86 -0.297132 1.71444 0
M  V30 15455 O 1425.03 -0.146101 2.00869 0
M  V30 15456 C 1422.1 0.0810973 3.46605 0
M  V30 15457 C 1421.16 1.11772 4.14494 0
M  V30 15458 C 1420.39 0.54021 5.30959 0
M  V30 15459 O 1420.62 -0.646619 5.66723 0
M  V30 15460 O 1419.55 1.28057 5.8812 0
M  V30 15461 H 1423.38 1.58842 2.58849 0
M  V30 15462 H 1420.96 0.836649 1.23776 0
M  V30 15463 H 1422.84 -0.25524 4.20626 0
M  V30 15464 H 1421.52 -0.793338 3.13828 0
M  V30 15465 H 1420.43 1.50626 3.42436 0
M  V30 15466 H 1421.76 1.96373 4.5133 0
M  V30 15467 N 1423.41 -1.329 0.847073 0
M  V30 15468 C 1424.69 -1.921 0.368351 0
M  V30 15469 C 1425.07 -1.77205 -1.14724 0
M  V30 15470 O 1424.42 -1.16547 -1.96543 0
M  V30 15471 C 1424.63 -3.39125 0.824326 0
M  V30 15472 C 1425.97 -4.16267 0.837097 0
M  V30 15473 O 1427 -3.47812 0.768466 0
M  V30 15474 O 1425.86 -5.38487 0.932389 0
M  V30 15475 H 1422.95 -0.820187 0.105936 0
M  V30 15476 H 1425.5 -1.41719 0.933471 0
M  V30 15477 H 1424.27 -3.43875 1.86723 0
M  V30 15478 H 1423.89 -3.96898 0.236233 0
M  V30 15479 N 1424.89 -0.604284 -1.45555 0
M  V30 15480 C 1426.17 -0.0303285 -1.95576 0
M  V30 15481 C 1426.55 1.43661 -1.54676 0
M  V30 15482 O 1425.89 2.13747 -0.807731 0
M  V30 15483 C 1426.1 -0.22497 -3.48274 0
M  V30 15484 C 1427.45 -0.104042 -4.24473 0
M  V30 15485 O 1428.48 -0.154919 -3.55863 0
M  V30 15486 O 1427.33 0.0136297 -5.46498 0
M  V30 15487 H 1424.43 0.0376106 -0.826144 0
M  V30 15488 H 1426.97 -0.674114 -1.55736 0
M  V30 15489 H 1425.75 -1.24391 -3.71002 0
M  V30 15490 H 1425.37 0.454234 -3.94997 0
M  V30 15491 N 1426.37 1.53816 -0.343257 0
M  V30 15492 C 1427.31 2.26505 0.529002 0
M  V30 15493 C 1428.31 1.28639 1.1022 0
M  V30 15494 O 1429.51 1.46348 1.04797 0
M  V30 15495 H 1425.89 0.727789 0.189279 0
M  V30 15496 H 1427.86 2.98211 -0.106096 0
M  V30 15497 C 1426.61 3.05062 1.6683 0
M  V30 15498 H 1425.93 3.80198 1.23651 0
M  V30 15499 H 1427.37 3.59138 2.2538 0
M  V30 15500 C 1425.83 2.14543 2.59756 0
M  V30 15501 O 1426.36 1.74132 3.61996 0
M  V30 15502 N 1424.57 1.79628 2.28434 0
M  V30 15503 H 1424.11 2.12688 1.45332 0
M  V30 15504 H 1424.07 1.19345 2.90868 0
M  V30 15505 N 1427.84 0.0718701 1.57436 0
M  V30 15506 C 1428.78 -0.931304 2.08331 0
M  V30 15507 C 1429.76 -1.29106 0.988448 0
M  V30 15508 O 1430.94 -1.40035 1.26184 0
M  V30 15509 C 1428.07 -2.23939 2.54104 0
M  V30 15510 C 1427.11 -2.03119 3.75026 0
M  V30 15511 S 1427.95 -1.29048 5.19718 0
M  V30 15512 C 1429.1 -2.61136 5.68822 0
M  V30 15513 H 1429.33 -0.498236 2.93095 0
M  V30 15514 H 1426.87 -0.140897 1.53756 0
M  V30 15515 H 1428.83 -2.9912 2.81136 0
M  V30 15516 H 1427.49 -2.64371 1.69608 0
M  V30 15517 H 1426.68 -2.99927 4.05043 0
M  V30 15518 H 1426.28 -1.36074 3.48367 0
M  V30 15519 H 1428.57 -3.57224 5.75671 0
M  V30 15520 H 1429.52 -2.35729 6.67711 0
M  V30 15521 H 1429.92 -2.68345 4.9664 0
M  V30 15522 N 1429.32 -1.56304 -0.201686 0
M  V30 15523 C 1430.55 -1.84692 -0.943583 0
M  V30 15524 C 1430.97 -0.654649 -1.7634 0
M  V30 15525 O 1430.33 0.396586 -1.76909 0
M  V30 15526 C 1430.38 -3.11251 -1.82085 0
M  V30 15527 O 1429.48 -2.9134 -2.91881 0
M  V30 15528 H 1428.82 -0.608351 -0.266092 0
M  V30 15529 H 1431.35 -2.0353 -0.208992 0
M  V30 15530 H 1431.36 -3.41874 -2.2268 0
M  V30 15531 H 1430.04 -3.97652 -1.21844 0
M  V30 15532 H 1428.62 -2.72 -2.55089 0
M  V30 15533 N 1430.8 0.469154 -1.50455 0
M  V30 15534 C 1432.03 1.24432 -1.653 0
M  V30 15535 C 1432.44 1.85766 -0.33713 0
M  V30 15536 O 1431.8 1.69313 0.681118 0
M  V30 15537 C 1431.85 2.35163 -2.74555 0
M  V30 15538 O 1431.57 1.76344 -4.01042 0
M  V30 15539 C 1433.07 3.26006 -3.00391 0
M  V30 15540 H 1430.29 0.376251 -0.555587 0
M  V30 15541 H 1432.84 0.559777 -1.96689 0
M  V30 15542 H 1430.99 2.99389 -2.45855 0
M  V30 15543 H 1431.41 2.49278 -4.61477 0
M  V30 15544 H 1432.88 3.99909 -3.80496 0
M  V30 15545 H 1433.36 3.84901 -2.11537 0
M  V30 15546 H 1433.96 2.67515 -3.3063 0
M  V30 15547 N 1432.28 1.40065 0.722464 0
M  V30 15548 C 1433.52 1.38175 1.48444 0
M  V30 15549 C 1433.86 -0.0182857 1.94191 0
M  V30 15550 O 1433.13 -0.985638 1.67677 0
M  V30 15551 C 1433.42 2.36518 2.71535 0
M  V30 15552 C 1433.27 3.85517 2.31726 0
M  V30 15553 C 1434.59 2.325 3.73673 0
M  V30 15554 H 1431.71 0.503221 0.538458 0
M  V30 15555 H 1434.35 1.7115 0.825087 0
M  V30 15556 H 1432.5 2.08529 3.27793 0
M  V30 15557 H 1434.17 4.24306 1.81003 0
M  V30 15558 H 1432.41 4.01684 1.63807 0
M  V30 15559 H 1433.08 4.49834 3.19928 0
M  V30 15560 H 1435.56 2.57277 3.27029 0
M  V30 15561 H 1434.44 3.03369 4.57447 0
M  V30 15562 H 1434.7 1.33427 4.21485 0
M  V30 15563 N 1433.76 -0.95397 1.25448 0
M  V30 15564 C 1434.69 -2.05019 1.00212 0
M  V30 15565 C 1435.67 -1.62454 -0.0688563 0
M  V30 15566 O 1436.85 -1.88366 0.0709352 0
M  V30 15567 C 1433.98 -3.34762 0.514987 0
M  V30 15568 C 1433.03 -3.9629 1.57659 0
M  V30 15569 S 1433.86 -4.32181 3.16196 0
M  V30 15570 C 1435.01 -5.65041 2.6922 0
M  V30 15571 H 1435.25 -2.26111 1.93032 0
M  V30 15572 H 1432.78 -1.09369 1.08985 0
M  V30 15573 H 1434.74 -4.09794 0.24058 0
M  V30 15574 H 1433.4 -3.11635 -0.392724 0
M  V30 15575 H 1432.59 -4.89836 1.18647 0
M  V30 15576 H 1432.19 -3.27741 1.80171 0
M  V30 15577 H 1434.49 -6.43184 2.12887 0
M  V30 15578 H 1435.43 -6.08925 3.61408 0
M  V30 15579 H 1435.84 -5.24306 2.09196 0
M  V30 15580 N 1435.24 -1.07045 -1.15668 0
M  V30 15581 C 1436.65 -0.795369 -1.38369 0
M  V30 15582 C 1436.85 0.601829 -1.92303 0
M  V30 15583 O 1435.91 1.36109 -2.12675 0
M  V30 15584 C 1437.22 -1.86659 -2.35752 0
M  V30 15585 C 1438.77 -1.89098 -2.49421 0
M  V30 15586 C 1439.24 -2.95296 -3.50092 0
M  V30 15587 N 1440.73 -2.94378 -3.57625 0
M  V30 15588 C 1441.47 -3.73194 -4.35331 0
M  V30 15589 N 1440.97 -4.61851 -5.16397 0
M  V30 15590 N 1442.76 -3.61554 -4.30389 0
M  V30 15591 H 1434.91 -1.97162 -0.790004 0
M  V30 15592 H 1437.17 -0.854816 -0.40987 0
M  V30 15593 H 1436.88 -2.87036 -2.03232 0
M  V30 15594 H 1436.75 -1.72406 -3.35494 0
M  V30 15595 H 1439.14 -0.893752 -2.8124 0
M  V30 15596 H 1439.22 -2.07429 -1.49689 0
M  V30 15597 H 1438.86 -3.95217 -3.19008 0
M  V30 15598 H 1438.79 -2.74212 -4.49572 0
M  V30 15599 H 1441.29 -2.3011 -2.99763 0
M  V30 15600 H 1441.6 -5.18629 -5.72926 0
M  V30 15601 H 1439.94 -4.65902 -5.15714 0
M  V30 15602 H 1443.13 -2.91672 -3.66122 0
M  V30 15603 H 1443.31 -4.23221 -4.90701 0
M  V30 15604 N 1436.71 1.32449 -0.85411 0
M  V30 15605 C 1437.64 2.31383 -0.313697 0
M  V30 15606 C 1438.62 1.59656 0.586858 0
M  V30 15607 O 1439.81 1.87459 0.507216 0
M  V30 15608 C 1436.94 3.43693 0.499235 0
M  V30 15609 C 1435.89 4.26899 -0.306839 0
M  V30 15610 C 1435.22 5.30966 0.630795 0
M  V30 15611 C 1436.52 4.99318 -1.53229 0
M  V30 15612 H 1438.21 2.76832 -1.14037 0
M  V30 15613 H 1435.76 1.33091 -0.549805 0
M  V30 15614 H 1437.71 4.11944 0.887709 0
M  V30 15615 H 1436.44 2.96971 1.35926 0
M  V30 15616 H 1435.1 3.60294 -0.677061 0
M  V30 15617 H 1434.74 4.80498 1.48765 0
M  V30 15618 H 1434.44 5.87522 0.0954635 0
M  V30 15619 H 1435.97 6.0208 1.01646 0
M  V30 15620 H 1437.38 5.60253 -1.21614 0
M  V30 15621 H 1435.78 5.65596 -2.00552 0
M  V30 15622 H 1436.85 4.27213 -2.29383 0
M  V30 15623 N 1438.19 0.611994 1.45232 0
M  V30 15624 C 1439.61 0.276005 1.57195 0
M  V30 15625 C 1439.81 -1.22136 1.60266 0
M  V30 15626 O 1438.86 -2.00459 1.53533 0
M  V30 15627 C 1440.18 0.951064 2.85263 0
M  V30 15628 C 1441.72 0.927398 2.98945 0
M  V30 15629 C 1442.2 1.58255 4.2979 0
M  V30 15630 N 1443.69 1.54825 4.36559 0
M  V30 15631 C 1444.43 2.02428 5.3648 0
M  V30 15632 N 1443.92 2.58137 6.42913 0
M  V30 15633 N 1445.71 1.9317 5.27865 0
M  V30 15634 H 1437.87 1.58418 1.41483 0
M  V30 15635 H 1440.13 0.663879 0.676734 0
M  V30 15636 H 1439.83 2.00557 2.88912 0
M  V30 15637 H 1439.71 0.477044 3.74171 0
M  V30 15638 H 1442.1 -0.118571 2.94862 0
M  V30 15639 H 1442.18 1.43973 2.11437 0
M  V30 15640 H 1441.82 2.62787 4.34632 0
M  V30 15641 H 1441.75 1.04521 5.16123 0
M  V30 15642 H 1444.24 1.14133 3.60253 0
M  V30 15643 H 1444.55 2.92243 7.15412 0
M  V30 15644 H 1442.9 2.62179 6.43652 0
M  V30 15645 H 1446.09 1.49384 4.43624 0
M  V30 15646 H 1446.26 2.30582 6.05587 0
M  V30 15647 N 1439.67 -1.53632 0.351409 0
M  V30 15648 C 1440.9 -2.05458 -0.243852 0
M  V30 15649 C 1441.31 -1.22588 -1.43589 0
M  V30 15650 O 1440.67 -0.263088 -1.80594 0
M  V30 15651 C 1440.72 -3.55586 -0.651226 0
M  V30 15652 O 1440.44 -4.35313 0.493415 0
M  V30 15653 C 1441.94 -4.23614 -1.30637 0
M  V30 15654 H 1439.16 -0.669443 -0.0456828 0
M  V30 15655 H 1441.71 -1.98149 0.505675 0
M  V30 15656 H 1439.86 -3.63091 -1.35068 0
M  V30 15657 H 1440.28 -5.24234 0.167107 0
M  V30 15658 H 1441.75 -5.30022 -1.5421 0
M  V30 15659 H 1442.23 -3.76449 -2.26236 0
M  V30 15660 H 1442.83 -4.20323 -0.648738 0
M  V30 15661 N 1441.15 -0.0802183 -1.57396 0
M  V30 15662 C 1442.09 0.884041 -2.13198 0
M  V30 15663 C 1443.06 1.28975 -1.04664 0
M  V30 15664 O 1444.25 1.37413 -1.32372 0
M  V30 15665 C 1441.39 2.14323 -2.7048 0
M  V30 15666 C 1440.5 1.7894 -3.93198 0
M  V30 15667 C 1439.64 2.99534 -4.38695 0
M  V30 15668 C 1438.68 2.60207 -5.54039 0
M  V30 15669 N 1437.81 3.73587 -5.94455 0
M  V30 15670 H 1442.65 0.40131 -2.95285 0
M  V30 15671 H 1440.19 0.186429 -1.45914 0
M  V30 15672 H 1442.15 2.88046 -3.01804 0
M  V30 15673 H 1440.78 2.60122 -1.91144 0
M  V30 15674 H 1439.83 0.952465 -3.68283 0
M  V30 15675 H 1441.14 1.46012 -4.76951 0
M  V30 15676 H 1440.3 3.81526 -4.71724 0
M  V30 15677 H 1439.04 3.35661 -3.53812 0
M  V30 15678 H 1438.04 1.76638 -5.20652 0
M  V30 15679 H 1439.27 2.2524 -6.40659 0
M  V30 15680 H 1437.21 4.0946 -5.12521 0
M  V30 15681 H 1437.13 3.44455 -6.72969 0
M  V30 15682 H 1438.4 4.56133 -6.3211 0
M  V30 15683 N 1442.63 1.56409 0.193394 0
M  V30 15684 C 1443.56 1.89745 1.26776 0
M  V30 15685 C 1444.54 0.75773 1.43865 0
M  V30 15686 O 1445.72 1.0089 1.59228 0
M  V30 15687 C 1442.85 2.12913 2.63412 0
M  V30 15688 C 1441.89 3.35614 2.63183 0
M  V30 15689 S 1442.73 4.90686 2.14448 0
M  V30 15690 C 1443.88 5.16923 3.52904 0
M  V30 15691 H 1444.12 2.80575 0.983105 0
M  V30 15692 H 1441.65 1.4921 0.396965 0
M  V30 15693 H 1443.61 2.26943 3.42063 0
M  V30 15694 H 1442.27 1.2283 2.89088 0
M  V30 15695 H 1441.46 3.48957 3.63655 0
M  V30 15696 H 1441.06 3.20586 1.92615 0
M  V30 15697 H 1443.35 5.07548 4.48778 0
M  V30 15698 H 1444.3 6.18673 3.44455 0
M  V30 15699 H 1444.71 4.44555 3.47895 0
M  V30 15700 N 1444.1 -0.461169 1.50702 0
M  V30 15701 C 1445.51 -1.04177 1.54932 0
M  V30 15702 C 1445.87 -1.92894 0.358648 0
M  V30 15703 O 1444.99 -2.09876 -0.527346 0
M  V30 15704 C 1445.59 -1.8961 2.80773 0
M  V30 15705 C 1444.14 -2.42761 2.87652 0
M  V30 15706 C 1443.29 -1.21356 2.49335 0
M  V30 15707 H 1446.24 -0.243379 1.56823 0
M  V30 15708 H 1446.26 -2.74794 2.63189 0
M  V30 15709 H 1445.78 -1.25014 3.67414 0
M  V30 15710 H 1443.88 -3.10881 2.05386 0
M  V30 15711 H 1443.99 -2.77189 3.90772 0
M  V30 15712 H 1442.35 -1.55146 2.01995 0
M  V30 15713 H 1443.14 -0.584069 3.38295 0
M  V30 15714 N 1445.58 -1.40446 -0.715026 0
M  V30 15715 C 1446.83 -1.39962 -1.47587 0
M  V30 15716 C 1447.18 -0.00170702 -1.924 0
M  V30 15717 O 1446.48 0.968788 -1.65303 0
M  V30 15718 C 1446.67 -2.32392 -2.7153 0
M  V30 15719 C 1446.5 -3.81032 -2.3884 0
M  V30 15720 C 1445.27 -4.49842 -2.30153 0
M  V30 15721 C 1447.47 -4.7251 -2.03073 0
M  V30 15722 N 1445.45 -5.83711 -1.90143 0
M  V30 15723 C 1446.82 -5.9518 -1.73668 0
M  V30 15724 C 1448.87 -4.6034 -1.89714 0
M  V30 15725 C 1447.58 -7.07038 -1.32248 0
M  V30 15726 C 1449.6 -5.7214 -1.49698 0
M  V30 15727 C 1448.97 -6.93896 -1.21191 0
M  V30 15728 H 1445.06 -0.567409 -0.538118 0
M  V30 15729 H 1447.65 -1.76163 -0.829144 0
M  V30 15730 H 1445.82 -1.98319 -3.33953 0
M  V30 15731 H 1447.55 -2.22762 -3.37875 0
M  V30 15732 H 1444.31 -4.0353 -2.47912 0
M  V30 15733 H 1444.73 -6.54608 -1.72675 0
M  V30 15734 H 1449.37 -3.66723 -2.10414 0
M  V30 15735 H 1447.09 -8.00538 -1.10291 0
M  V30 15736 H 1450.68 -5.6472 -1.39939 0
M  V30 15737 H 1449.56 -7.78938 -0.906925 0
M  V30 15738 N 1447.06 0.947303 -1.25952 0
M  V30 15739 C 1448.01 2.04511 -1.06976 0
M  V30 15740 C 1448.98 1.66084 0.023347 0
M  V30 15741 O 1450.16 1.9032 -0.135247 0
M  V30 15742 C 1447.3 3.37878 -0.70232 0
M  V30 15743 C 1446.41 3.89379 -1.87105 0
M  V30 15744 C 1445.55 5.11104 -1.44728 0
M  V30 15745 C 1444.59 5.54852 -2.58469 0
M  V30 15746 N 1443.73 6.67784 -2.16817 0
M  V30 15747 H 1448.57 2.20075 -2.00925 0
M  V30 15748 H 1446.1 1.07837 -1.00048 0
M  V30 15749 H 1448.06 4.14542 -0.470199 0
M  V30 15750 H 1446.69 3.22179 0.20019 0
M  V30 15751 H 1445.74 3.09169 -2.21627 0
M  V30 15752 H 1447.05 4.17789 -2.72496 0
M  V30 15753 H 1446.21 5.95208 -1.17525 0
M  V30 15754 H 1444.95 4.84426 -0.564191 0
M  V30 15755 H 1443.95 4.69308 -2.86409 0
M  V30 15756 H 1445.18 5.83534 -3.47368 0
M  V30 15757 H 1443.12 6.428 -1.30934 0
M  V30 15758 H 1443.04 6.95749 -2.95753 0
M  V30 15759 H 1444.31 7.55278 -1.92809 0
M  V30 15760 N 1448.54 1.07657 1.15099 0
M  V30 15761 C 1449.77 0.822825 1.89835 0
M  V30 15762 C 1450.18 -0.624281 1.7818 0
M  V30 15763 O 1449.54 -1.42844 1.13587 0
M  V30 15764 C 1449.59 1.22598 3.40076 0
M  V30 15765 O 1449.31 2.61631 3.51398 0
M  V30 15766 C 1450.81 1.00199 4.31828 0
M  V30 15767 H 1448.03 0.297288 0.601549 0
M  V30 15768 H 1450.58 1.43384 1.45813 0
M  V30 15769 H 1448.73 0.65923 3.8175 0
M  V30 15770 H 1449.14 2.78163 4.44664 0
M  V30 15771 H 1450.62 1.33355 5.35649 0
M  V30 15772 H 1451.1 -0.0614865 4.39157 0
M  V30 15773 H 1451.7 1.5538 3.959 0
M  V30 15774 N 1450.02 -1.31994 0.861122 0
M  V30 15775 C 1451.26 -1.98827 0.474055 0
M  V30 15776 C 1451.62 -1.66627 -0.953916 0
M  V30 15777 O 1452.82 -2.26601 -1.44587 0
M  V30 15778 C 1451.09 -3.50201 0.713743 0
M  V30 15779 S 1452.65 -4.36735 0.425214 0
M  V30 15780 H 1449.47 -0.688534 0.17732 0
M  V30 15781 H 1452.07 -1.6057 1.11523 0
M  V30 15782 H 1450.78 -3.71125 1.75198 0
M  V30 15783 H 1450.31 -3.93355 0.0592289 0
M  V30 15784 H 1452.32 -4.90558 -0.746142 0
M  V30 15785 N 1451.49 -0.619688 -1.44906 0
M  V30 15786 C 1452.74 -0.128286 -2.02995 0
M  V30 15787 C 1453.1 1.23194 -1.47787 0
M  V30 15788 O 1452.39 1.80316 -0.64782 0
M  V30 15789 C 1452.58 -0.0432891 -3.57374 0
M  V30 15790 C 1452.41 -1.39373 -4.27557 0
M  V30 15791 C 1451.18 -1.97756 -4.64995 0
M  V30 15792 C 1453.38 -2.32512 -4.5874 0
M  V30 15793 N 1451.36 -3.26154 -5.20093 0
M  V30 15794 C 1452.73 -3.45517 -5.14799 0
M  V30 15795 C 1454.79 -2.31734 -4.40685 0
M  V30 15796 C 1453.49 -4.57924 -5.54706 0
M  V30 15797 C 1455.52 -3.43197 -4.81632 0
M  V30 15798 C 1454.88 -4.54924 -5.37795 0
M  V30 15799 H 1450.98 -0.0905961 -0.776734 0
M  V30 15800 H 1453.56 -0.820685 -1.76558 0
M  V30 15801 H 1451.73 0.61836 -3.83446 0
M  V30 15802 H 1453.46 0.455886 -4.02124 0
M  V30 15803 H 1450.22 -1.50826 -4.48941 0
M  V30 15804 H 1450.64 -3.91768 -5.52129 0
M  V30 15805 H 1455.29 -1.46609 -3.96567 0
M  V30 15806 H 1453 -5.43765 -5.97784 0
M  V30 15807 H 1456.59 -3.43757 -4.69385 0
M  V30 15808 H 1455.47 -5.39748 -5.68896 0
M  V30 15809 N 1452.97 1.53444 -0.359552 0
M  V30 15810 C 1454.39 1.59598 -0.00824946 0
M  V30 15811 C 1454.59 1.37492 1.47303 0
M  V30 15812 O 1453.64 1.1771 2.23385 0
M  V30 15813 C 1454.96 2.9718 -0.45878 0
M  V30 15814 C 1456.51 3.1027 -0.412485 0
M  V30 15815 C 1456.98 4.50255 -0.838733 0
M  V30 15816 N 1458.47 4.56352 -0.793552 0
M  V30 15817 C 1459.21 5.62845 -1.09513 0
M  V30 15818 N 1458.7 6.77119 -1.46567 0
M  V30 15819 N 1460.5 5.52799 -1.01832 0
M  V30 15820 H 1452.65 1.66065 -1.32424 0
M  V30 15821 H 1454.91 0.778561 -0.540876 0
M  V30 15822 H 1454.62 3.18475 -1.4922 0
M  V30 15823 H 1454.49 3.7687 0.157741 0
M  V30 15824 H 1456.88 2.88689 0.611791 0
M  V30 15825 H 1456.96 2.32602 -1.06442 0
M  V30 15826 H 1456.6 4.72573 -1.8611 0
M  V30 15827 H 1456.53 5.26344 -0.164109 0
M  V30 15828 H 1459.02 3.74299 -0.52048 0
M  V30 15829 H 1459.34 7.54313 -1.68021 0
M  V30 15830 H 1457.68 6.78525 -1.50427 0
M  V30 15831 H 1460.87 4.62403 -0.728059 0
M  V30 15832 H 1461.04 6.35698 -1.25668 0
M  V30 15833 N 1454.45 0.0885642 1.57351 0
M  V30 15834 C 1455.68 -0.584389 1.98163 0
M  V30 15835 C 1456.09 -1.62664 0.966281 0
M  V30 15836 O 1455.43 -1.83623 -0.053226 0
M  V30 15837 C 1455.49 -1.2959 3.35331 0
M  V30 15838 C 1455.16 -0.405168 4.552 0
M  V30 15839 C 1456.15 0.344053 5.1876 0
M  V30 15840 C 1453.84 -0.325136 5.01247 0
M  V30 15841 C 1455.83 1.16135 6.26731 0
M  V30 15842 C 1453.52 0.495821 6.09085 0
M  V30 15843 C 1454.52 1.23772 6.71691 0
M  V30 15844 O 1454.21 2.04511 7.77451 0
M  V30 15845 H 1453.94 -0.161852 0.656338 0
M  V30 15846 H 1456.49 0.162558 2.04756 0
M  V30 15847 H 1454.72 -2.08928 3.25401 0
M  V30 15848 H 1456.41 -1.86274 3.60634 0
M  V30 15849 H 1457.18 0.291916 4.84121 0
M  V30 15850 H 1453.06 -0.892245 4.52283 0
M  V30 15851 H 1456.6 1.74093 6.75528 0
M  V30 15852 H 1452.5 0.549463 6.43157 0
M  V30 15853 H 1453.27 1.97123 7.94409 0
M  V30 15854 N 1455.93 -1.56509 -0.185096 0
M  V30 15855 C 1456.86 -1.98363 -1.23184 0
M  V30 15856 C 1457.84 -0.85709 -1.46929 0
M  V30 15857 O 1459.02 -1.12216 -1.58497 0
M  V30 15858 C 1456.15 -2.33172 -2.57387 0
M  V30 15859 C 1455.11 -3.48658 -2.48236 0
M  V30 15860 C 1454.43 -3.69171 -3.86804 0
M  V30 15861 C 1455.73 -4.82538 -1.99885 0
M  V30 15862 H 1457.43 -2.86053 -0.883982 0
M  V30 15863 H 1454.97 -1.37623 -0.423786 0
M  V30 15864 H 1456.93 -2.61048 -3.30805 0
M  V30 15865 H 1455.65 -1.42377 -2.93933 0
M  V30 15866 H 1454.31 -3.20889 -1.77273 0
M  V30 15867 H 1453.96 -2.75689 -4.20719 0
M  V30 15868 H 1453.66 -4.46868 -3.81553 0
M  V30 15869 H 1455.18 -3.99433 -4.61829 0
M  V30 15870 H 1456.6 -5.0938 -2.63068 0
M  V30 15871 H 1454.99 -5.63775 -2.05614 0
M  V30 15872 H 1456.06 -4.75453 -0.952503 0
M  V30 15873 N 1457.41 0.45317 -1.50944 0
M  V30 15874 C 1458.63 1.22672 -1.66611 0
M  V30 15875 C 1459.05 1.85398 -0.356814 0
M  V30 15876 O 1458.41 1.70026 0.663122 0
M  V30 15877 C 1458.46 2.32238 -2.77034 0
M  V30 15878 O 1458.18 1.72081 -4.02889 0
M  V30 15879 C 1459.68 3.22802 -3.03832 0
M  V30 15880 H 1456.9 0.370337 -0.559546 0
M  V30 15881 H 1459.44 0.538884 -1.97272 0
M  V30 15882 H 1457.6 2.96765 -2.49017 0
M  V30 15883 H 1458.01 2.4437 -4.64095 0
M  V30 15884 H 1459.49 3.95851 -3.84716 0
M  V30 15885 H 1459.96 3.82636 -2.15608 0
M  V30 15886 H 1460.57 2.63993 -3.33449 0
M  V30 15887 N 1458.88 1.40823 0.707568 0
M  V30 15888 C 1460.11 1.43061 1.50161 0
M  V30 15889 C 1460.53 0.0342144 1.88069 0
M  V30 15890 O 1459.89 -0.959674 1.53818 0
M  V30 15891 C 1459.94 2.33459 2.74826 0
M  V30 15892 O 1459.04 1.78336 3.71847 0
M  V30 15893 H 1458.39 0.48602 0.452417 0
M  V30 15894 H 1460.92 1.85147 0.870742 0
M  V30 15895 H 1460.93 2.48922 3.23267 0
M  V30 15896 H 1459.6 3.34927 2.46571 0
M  V30 15897 H 1458.18 1.7226 3.30728 0
M  V30 15898 N 1460.36 -0.94061 1.26453 0
M  V30 15899 C 1461.61 -1.68354 1.11809 0
M  V30 15900 C 1461.93 -1.9203 -0.339037 0
M  V30 15901 O 1461.2 -1.51739 -1.23903 0
M  V30 15902 H 1459.78 -0.623916 0.410777 0
M  V30 15903 H 1462.44 -1.13014 1.58789 0
M  V30 15904 H 1461.54 -2.65706 1.63728 0
M  V30 15905 N 1461.84 -1.08266 -1.14527 0
M  V30 15906 C 1463.09 -0.809856 -1.85164 0
M  V30 15907 C 1463.41 0.666263 -1.83265 0
M  V30 15908 O 1462.68 1.48295 -1.28006 0
M  V30 15909 H 1461.26 -0.296598 -0.685594 0
M  V30 15910 H 1463.92 -1.36834 -1.38789 0
M  V30 15911 H 1463.02 -1.15272 -2.90032 0
M  V30 15912 N 1463.32 1.31536 -0.86811 0
M  V30 15913 C 1464.57 1.96775 -0.47812 0
M  V30 15914 C 1464.89 1.68632 0.9692 0
M  V30 15915 O 1464.15 0.974357 1.6972 0
M  V30 15916 C 1464.45 3.50876 -0.679752 0
M  V30 15917 C 1464.11 3.99034 -2.09958 0
M  V30 15918 C 1462.78 4.11896 -2.48787 0
M  V30 15919 C 1465.13 4.24387 -3.02564 0
M  V30 15920 C 1462.46 4.47461 -3.79468 0
M  V30 15921 C 1464.81 4.61415 -4.32757 0
M  V30 15922 C 1463.47 4.72484 -4.71503 0
M  V30 15923 H 1462.74 0.720049 -0.174957 0
M  V30 15924 H 1465.39 1.56703 -1.10074 0
M  V30 15925 H 1463.69 3.91791 0.0260174 0
M  V30 15926 H 1465.39 3.994 -0.357855 0
M  V30 15927 H 1461.98 3.89518 -1.78811 0
M  V30 15928 H 1466.17 4.13947 -2.73791 0
M  V30 15929 H 1461.42 4.54227 -4.09252 0
M  V30 15930 H 1465.6 4.79985 -5.04566 0
M  V30 15931 H 1463.22 4.99798 -5.72806 0
M  V30 15932 N 1464.8 0.627364 1.44575 0
M  V30 15933 C 1466.04 0.130352 2.0208 0
M  V30 15934 C 1466.37 -1.24642 1.49314 0
M  V30 15935 O 1465.63 -1.84022 0.665923 0
M  V30 15936 C 1465.93 0.0622409 3.57346 0
M  V30 15937 C 1465.59 1.37729 4.2935 0
M  V30 15938 C 1464.25 1.73747 4.48737 0
M  V30 15939 C 1466.61 2.2455 4.70347 0
M  V30 15940 C 1463.93 2.96301 5.06382 0
M  V30 15941 C 1466.29 3.46371 5.29349 0
M  V30 15942 C 1464.95 3.82616 5.46956 0
M  V30 15943 H 1464.22 0.0476991 0.739463 0
M  V30 15944 H 1466.87 0.812928 1.73389 0
M  V30 15945 H 1465.17 -0.70369 3.85429 0
M  V30 15946 H 1466.87 -0.338778 3.99566 0
M  V30 15947 H 1463.46 1.08699 4.14587 0
M  V30 15948 H 1467.64 1.98019 4.55085 0
M  V30 15949 H 1462.9 3.24465 5.18201 0
M  V30 15950 H 1467.07 4.13882 5.60067 0
M  V30 15951 H 1464.7 4.77663 5.9139 0
M  V30 15952 N 1466.28 -1.53251 0.367684 0
M  V30 15953 C 1467.21 -2.28728 -0.469676 0
M  V30 15954 C 1468.19 -1.3124 -1.08213 0
M  V30 15955 O 1469.37 -1.60112 -1.09898 0
M  V30 15956 C 1466.5 -3.07808 -1.60846 0
M  V30 15957 C 1465.46 -4.13 -1.12315 0
M  V30 15958 C 1464.78 -4.80176 -2.35234 0
M  V30 15959 C 1466.08 -5.21892 -0.2064 0
M  V30 15960 H 1467.78 -2.98972 0.160019 0
M  V30 15961 H 1465.32 -1.43786 0.0784011 0
M  V30 15962 H 1467.27 -3.59358 -2.20091 0
M  V30 15963 H 1466 -2.35258 -2.26542 0
M  V30 15964 H 1464.66 -3.62399 -0.553378 0
M  V30 15965 H 1464.31 -4.04196 -2.99391 0
M  V30 15966 H 1464.01 -5.51261 -2.03433 0
M  V30 15967 H 1465.53 -5.34521 -2.9516 0
M  V30 15968 H 1466.94 -5.68932 -0.706386 0
M  V30 15969 H 1465.34 -6.00096 0.0208362 0
M  V30 15970 H 1466.41 -4.79051 0.750851 0
M  V30 15971 N 1467.75 -0.0969077 -1.57302 0
M  V30 15972 C 1468.68 0.858443 -2.17147 0
M  V30 15973 C 1469.66 1.29294 -1.10531 0
M  V30 15974 O 1470.85 1.3595 -1.38676 0
M  V30 15975 C 1467.98 2.11691 -2.75326 0
M  V30 15976 C 1466.93 1.82097 -3.8733 0
M  V30 15977 C 1466.26 3.14787 -4.32219 0
M  V30 15978 C 1467.56 1.10651 -5.10444 0
M  V30 15979 H 1469.25 0.35982 -2.9723 0
M  V30 15980 H 1466.8 0.17163 -1.42974 0
M  V30 15981 H 1468.75 2.78963 -3.15844 0
M  V30 15982 H 1467.48 2.63839 -1.925 0
M  V30 15983 H 1466.14 1.17222 -3.47354 0
M  V30 15984 H 1465.78 3.64826 -3.46281 0
M  V30 15985 H 1465.48 2.95769 -5.07735 0
M  V30 15986 H 1467.01 3.83215 -4.75372 0
M  V30 15987 H 1468.42 1.68036 -5.48121 0
M  V30 15988 H 1466.82 1.01805 -5.91401 0
M  V30 15989 H 1467.89 0.0895634 -4.84817 0
M  V30 15990 N 1469.23 1.56605 0.176793 0
M  V30 15991 C 1470.48 1.80875 0.892578 0
M  V30 15992 C 1470.79 0.673245 1.83648 0
M  V30 15993 O 1472 0.800732 2.59423 0
M  V30 15994 C 1470.46 3.20481 1.63768 0
M  V30 15995 C 1470.06 4.41885 0.737685 0
M  V30 15996 C 1471.81 3.54048 2.34202 0
M  V30 15997 C 1469.71 5.72512 1.48271 0
M  V30 15998 H 1468.64 0.674476 0.337042 0
M  V30 15999 H 1471.3 1.82922 0.145574 0
M  V30 16000 H 1469.68 3.12736 2.42924 0
M  V30 16001 H 1470.85 4.60797 -0.0165186 0
M  V30 16002 H 1469.17 4.16153 0.143277 0
M  V30 16003 H 1471.76 4.48886 2.90526 0
M  V30 16004 H 1472.11 2.78665 3.09276 0
M  V30 16005 H 1472.64 3.63322 1.61995 0
M  V30 16006 H 1469.38 6.5091 0.774399 0
M  V30 16007 H 1468.9 5.57586 2.21038 0
M  V30 16008 H 1470.58 6.14274 2.03165 0
M  V30 16009 N 1470.71 -0.445159 1.51182 0
M  V30 16010 C 1471.64 -1.5473 1.74874 0
M  V30 16011 C 1472.62 -1.5923 0.598323 0
M  V30 16012 O 1473.81 -1.75083 0.840219 0
M  V30 16013 C 1470.94 -2.92872 1.86664 0
M  V30 16014 C 1469.89 -3.03235 3.02048 0
M  V30 16015 C 1469.22 -4.43279 2.99012 0
M  V30 16016 C 1470.52 -2.7804 4.42144 0
M  V30 16017 H 1472.21 -1.35156 2.67158 0
M  V30 16018 H 1469.76 -0.648763 1.28558 0
M  V30 16019 H 1471.71 -3.69927 2.01822 0
M  V30 16020 H 1470.43 -3.1366 0.910225 0
M  V30 16021 H 1469.09 -2.28617 2.86583 0
M  V30 16022 H 1468.74 -4.61023 2.01163 0
M  V30 16023 H 1468.44 -4.51144 3.76488 0
M  V30 16024 H 1469.96 -5.22319 3.16252 0
M  V30 16025 H 1471.38 -3.44831 4.58 0
M  V30 16026 H 1469.77 -2.97323 5.21267 0
M  V30 16027 H 1470.84 -1.737 4.52721 0
M  V30 16028 N 1472.19 -1.41197 -0.700089 0
M  V30 16029 C 1473.12 -1.37101 -1.82424 0
M  V30 16030 C 1474.1 -0.238956 -1.60835 0
M  V30 16031 O 1475.28 -0.425136 -1.83643 0
M  V30 16032 C 1472.41 -1.13748 -3.19028 0
M  V30 16033 C 1471.46 -2.29612 -3.59417 0
M  V30 16034 S 1472.29 -3.92074 -3.64744 0
M  V30 16035 C 1473.44 -3.71015 -5.04082 0
M  V30 16036 H 1473.68 -2.32234 -1.8562 0
M  V30 16037 H 1471.21 -1.27667 -0.868367 0
M  V30 16038 H 1473.17 -1.0096 -3.97891 0
M  V30 16039 H 1471.83 -0.202435 -3.13447 0
M  V30 16040 H 1471.02 -2.08954 -4.58644 0
M  V30 16041 H 1470.62 -2.38783 -2.87851 0
M  V30 16042 H 1472.92 -3.30441 -5.91452 0
M  V30 16043 H 1473.86 -4.69828 -5.29781 0
M  V30 16044 H 1474.27 -3.04382 -4.75407 0
M  V30 16045 N 1473.67 0.933891 -1.2695 0
M  V30 16046 C 1474.91 1.67539 -1.1231 0
M  V30 16047 C 1475.23 1.92765 0.331788 0
M  V30 16048 O 1476.43 2.6481 0.598983 0
M  V30 16049 C 1474.89 3.01722 -1.96194 0
M  V30 16050 C 1474.5 2.84216 -3.46302 0
M  V30 16051 C 1476.24 3.79513 -1.90185 0
M  V30 16052 C 1474.15 4.13916 -4.22407 0
M  V30 16053 H 1473.08 0.62839 -0.416704 0
M  V30 16054 H 1475.73 1.03801 -1.5132 0
M  V30 16055 H 1474.11 3.66482 -1.50023 0
M  V30 16056 H 1475.29 2.28261 -4.00292 0
M  V30 16057 H 1473.6 2.1986 -3.53625 0
M  V30 16058 H 1476.2 4.75615 -2.44325 0
M  V30 16059 H 1476.54 4.07019 -0.874129 0
M  V30 16060 H 1477.07 3.21539 -2.34217 0
M  V30 16061 H 1473.81 3.91591 -5.25677 0
M  V30 16062 H 1473.33 4.69558 -3.73196 0
M  V30 16063 H 1475.01 4.82322 -4.31248 0
M  V30 16064 N 1475.14 1.08871 1.13951 0
M  V30 16065 C 1476.39 0.821287 1.85098 0
M  V30 16066 C 1476.72 -0.65302 1.8321 0
M  V30 16067 O 1475.97 -1.49629 1.26134 0
M  V30 16068 C 1476.27 1.29443 3.33135 0
M  V30 16069 C 1475.94 2.77737 3.55208 0
M  V30 16070 C 1474.6 3.18238 3.60941 0
M  V30 16071 C 1476.95 3.7338 3.63644 0
M  V30 16072 C 1474.28 4.53165 3.72637 0
M  V30 16073 C 1476.63 5.08089 3.76867 0
M  V30 16074 C 1475.3 5.48187 3.8085 0
M  V30 16075 H 1474.57 0.30053 0.67732 0
M  V30 16076 H 1477.21 1.36249 1.34568 0
M  V30 16077 H 1475.52 0.672919 3.85978 0
M  V30 16078 H 1477.22 1.06421 3.86621 0
M  V30 16079 H 1473.81 2.45393 3.51398 0
M  V30 16080 H 1477.99 3.43207 3.58501 0
M  V30 16081 H 1473.25 4.83679 3.73985 0
M  V30 16082 H 1477.42 5.82058 3.82337 0
M  V30 16083 H 1475.05 6.52737 3.89665 0
M  V30 16084 N 1476.62 -1.31073 0.875073 0
M  V30 16085 C 1477.85 -2.01223 0.502383 0
M  V30 16086 C 1478.27 -1.65223 -0.899053 0
M  V30 16087 O 1477.63 -0.863559 -1.59412 0
M  V30 16088 C 1477.68 -3.54269 0.672747 0
M  V30 16089 O 1476.78 -4.11409 -0.285718 0
M  V30 16090 H 1476.12 -0.633422 0.199181 0
M  V30 16091 H 1478.65 -1.67152 1.17989 0
M  V30 16092 H 1478.66 -4.04027 0.567973 0
M  V30 16093 H 1477.34 -3.79811 1.69459 0
M  V30 16094 H 1475.91 -3.72654 -0.135472 0
M  V30 16095 N 1478.1 -0.635022 -1.4424 0
M  V30 16096 C 1479.05 0.0675707 -2.30701 0
M  V30 16097 C 1480.02 0.832919 -1.43707 0
M  V30 16098 O 1481.2 0.813177 -1.72604 0
M  V30 16099 C 1478.34 1.04053 -3.2904 0
M  V30 16100 C 1477.46 0.273191 -4.31135 0
M  V30 16101 C 1476.59 1.23831 -5.16565 0
M  V30 16102 C 1475.63 0.460359 -6.10366 0
M  V30 16103 N 1474.77 1.37614 -6.88481 0
M  V30 16104 H 1479.61 -0.675656 -2.90239 0
M  V30 16105 H 1477.14 -0.344971 -1.42998 0
M  V30 16106 H 1479.1 1.61805 -3.84545 0
M  V30 16107 H 1477.73 1.75084 -2.71193 0
M  V30 16108 H 1476.78 -0.420315 -3.78071 0
M  V30 16109 H 1478.1 -0.332548 -4.9769 0
M  V30 16110 H 1477.25 1.88704 -5.76607 0
M  V30 16111 H 1475.99 1.87797 -4.50093 0
M  V30 16112 H 1474.99 -0.201836 -5.49429 0
M  V30 16113 H 1476.22 -0.174639 -6.78875 0
M  V30 16114 H 1474.16 2.00294 -6.24675 0
M  V30 16115 H 1474.08 0.82452 -7.5149 0
M  V30 16116 H 1475.35 2.01359 -7.53044 0
M  V30 16117 N 1479.58 1.53054 -0.375806 0
M  V30 16118 C 1480.51 2.28973 0.45754 0
M  V30 16119 C 1481.49 1.31812 1.07516 0
M  V30 16120 O 1482.67 1.60693 1.09048 0
M  V30 16121 C 1479.8 3.08657 1.59212 0
M  V30 16122 C 1478.76 4.1359 1.10123 0
M  V30 16123 C 1478.08 4.81417 2.32684 0
M  V30 16124 C 1479.38 5.21994 0.17872 0
M  V30 16125 H 1481.08 2.98883 -0.175872 0
M  V30 16126 H 1478.62 1.43743 -0.0860253 0
M  V30 16127 H 1480.58 3.6052 2.18182 0
M  V30 16128 H 1479.3 2.36456 2.25291 0
M  V30 16129 H 1477.96 3.62688 0.534151 0
M  V30 16130 H 1477.61 4.05778 2.97243 0
M  V30 16131 H 1477.31 5.52332 2.00506 0
M  V30 16132 H 1478.83 5.36079 2.92322 0
M  V30 16133 H 1480.25 5.69298 0.676204 0
M  V30 16134 H 1478.64 6.00077 -0.0526605 0
M  V30 16135 H 1479.71 4.78646 -0.776246 0
M  V30 16136 N 1481.06 0.105248 1.57248 0
M  V30 16137 C 1481.99 -0.846915 2.176 0
M  V30 16138 C 1482.97 -1.28706 1.11216 0
M  V30 16139 O 1484.15 -1.35213 1.39396 0
M  V30 16140 C 1481.28 -2.10228 2.76445 0
M  V30 16141 C 1480.24 -1.80041 3.8829 0
M  V30 16142 C 1479.56 -3.12491 4.33882 0
M  V30 16143 C 1480.86 -1.07943 5.11024 0
M  V30 16144 H 1482.56 -0.344052 2.97417 0
M  V30 16145 H 1480.1 -0.164045 1.43063 0
M  V30 16146 H 1482.06 -2.77284 3.17319 0
M  V30 16147 H 1480.78 -2.62815 1.93897 0
M  V30 16148 H 1479.44 -1.15379 3.4797 0
M  V30 16149 H 1479.09 -3.62985 3.48211 0
M  V30 16150 H 1478.79 -2.93072 5.09296 0
M  V30 16151 H 1480.31 -3.80688 4.77398 0
M  V30 16152 H 1481.72 -1.65127 5.49004 0
M  V30 16153 H 1480.12 -0.986674 5.91933 0
M  V30 16154 H 1481.19 -0.0638511 4.84858 0
M  V30 16155 N 1482.53 -1.56697 -0.168486 0
M  V30 16156 C 1483.48 -1.96628 -1.20855 0
M  V30 16157 C 1484.45 -0.830623 -1.4384 0
M  V30 16158 O 1485.64 -1.09097 -1.56533 0
M  V30 16159 C 1482.78 -2.3338 -2.5422 0
M  V30 16160 C 1481.89 -3.60137 -2.3859 0
M  V30 16161 C 1481.02 -3.86088 -3.64842 0
M  V30 16162 C 1480.06 -5.06184 -3.44157 0
M  V30 16163 N 1479.2 -5.28254 -4.62485 0
M  V30 16164 H 1484.04 -2.8529 -0.86102 0
M  V30 16165 H 1481.58 -1.41162 -0.413741 0
M  V30 16166 H 1483.54 -2.52711 -3.31953 0
M  V30 16167 H 1482.17 -1.47825 -2.86963 0
M  V30 16168 H 1481.22 -3.48704 -1.52019 0
M  V30 16169 H 1482.53 -4.48028 -2.19254 0
M  V30 16170 H 1481.68 -4.05802 -4.5101 0
M  V30 16171 H 1480.42 -2.96578 -3.8716 0
M  V30 16172 H 1479.43 -4.86366 -2.56376 0
M  V30 16173 H 1480.65 -5.97228 -3.23258 0
M  V30 16174 H 1478.6 -4.41695 -4.85017 0
M  V30 16175 H 1478.52 -6.10373 -4.46072 0
M  V30 16176 H 1479.78 -5.52448 -5.49928 0
M  V30 16177 N 1484.01 0.437135 -1.51416 0
M  V30 16178 C 1484.96 1.52903 -1.69129 0
M  V30 16179 C 1485.95 1.51379 -0.54528 0
M  V30 16180 O 1487.14 1.57828 -0.8012 0
M  V30 16181 C 1484.27 2.91092 -1.8199 0
M  V30 16182 C 1483.35 2.97372 -3.02375 0
M  V30 16183 N 1483.74 2.73395 -4.25545 0
M  V30 16184 C 1482.04 3.28532 -3.01634 0
M  V30 16185 C 1482.74 2.85523 -5.06805 0
M  V30 16186 N 1481.72 3.17201 -4.41457 0
M  V30 16187 H 1485.52 1.33118 -2.62025 0
M  V30 16188 H 1483.04 0.644444 -1.49066 0
M  V30 16189 H 1485.03 3.69645 -1.9279 0
M  V30 16190 H 1483.69 3.11898 -0.902757 0
M  V30 16191 H 1484.7 2.4832 -4.54486 0
M  V30 16192 H 1481.38 3.5511 -2.19552 0
M  V30 16193 H 1482.77 2.70938 -6.14852 0
M  V30 16194 N 1485.49 1.41566 0.692592 0
M  V30 16195 C 1486.72 1.44646 1.48635 0
M  V30 16196 C 1487.14 0.0541597 1.88022 0
M  V30 16197 O 1486.5 -0.943305 1.54827 0
M  V30 16198 C 1486.55 2.3636 2.72335 0
M  V30 16199 O 1485.65 1.8227 3.69934 0
M  V30 16200 H 1484.99 0.490791 0.447236 0
M  V30 16201 H 1487.52 1.8606 0.851056 0
M  V30 16202 H 1487.53 2.52337 3.20609 0
M  V30 16203 H 1486.21 3.37523 2.43004 0
M  V30 16204 H 1484.78 1.75759 3.28882 0
M  V30 16205 N 1486.97 -0.927146 1.27443 0
M  V30 16206 C 1488.21 -1.67738 1.13982 0
M  V30 16207 C 1488.55 -1.91653 -0.313511 0
M  V30 16208 O 1487.82 -1.50729 -1.22926 0
M  V30 16209 C 1488.11 -3.04357 1.92454 0
M  V30 16210 C 1487.96 -2.8768 3.45775 0
M  V30 16211 C 1489.28 -4.04696 1.72944 0
M  V30 16212 H 1486.4 -0.608749 0.415444 0
M  V30 16213 H 1489.04 -1.07587 1.56605 0
M  V30 16214 H 1487.19 -3.55702 1.56232 0
M  V30 16215 H 1488.86 -2.43449 3.9183 0
M  V30 16216 H 1487.1 -2.23011 3.72087 0
M  V30 16217 H 1487.77 -3.8464 3.95924 0
M  V30 16218 H 1490.25 -3.62364 2.04528 0
M  V30 16219 H 1489.13 -4.98276 2.30243 0
M  V30 16220 H 1489.39 -4.36878 0.677505 0
M  V30 16221 N 1488.45 -1.09474 -1.13372 0
M  V30 16222 C 1489.7 -0.825968 -1.84013 0
M  V30 16223 C 1490.01 0.650623 -1.84462 0
M  V30 16224 O 1491.21 1.03495 -2.51 0
M  V30 16225 C 1489.67 -1.42769 -3.30371 0
M  V30 16226 C 1489.28 -2.93686 -3.38308 0
M  V30 16227 C 1491.02 -1.23788 -4.0605 0
M  V30 16228 C 1488.93 -3.46942 -4.78942 0
M  V30 16229 H 1487.86 -0.305322 -0.689416 0
M  V30 16230 H 1490.51 -1.31751 -1.27726 0
M  V30 16231 H 1488.89 -0.86384 -3.86463 0
M  V30 16232 H 1490.07 -3.56302 -2.92208 0
M  V30 16233 H 1488.38 -3.11706 -2.76094 0
M  V30 16234 H 1490.98 -1.61031 -5.09876 0
M  V30 16235 H 1491.32 -0.178578 -4.15917 0
M  V30 16236 H 1491.85 -1.76927 -3.56289 0
M  V30 16237 H 1488.59 -4.52495 -4.74267 0
M  V30 16238 H 1488.11 -2.8909 -5.25535 0
M  V30 16239 H 1489.79 -3.44176 -5.47861 0
M  V30 16240 N 1489.92 1.30607 -0.882012 0
M  V30 16241 C 1491.17 1.96547 -0.499703 0
M  V30 16242 C 1491.5 1.69484 0.948098 0
M  V30 16243 O 1490.78 0.997929 1.66948 0
M  V30 16244 C 1491.06 3.51735 -0.771662 0
M  V30 16245 C 1490.91 3.88326 -2.26987 0
M  V30 16246 C 1492.23 4.39411 -0.246178 0
M  V30 16247 H 1489.35 0.713912 -0.183026 0
M  V30 16248 H 1491.99 1.5453 -1.10546 0
M  V30 16249 H 1490.14 3.87655 -0.256092 0
M  V30 16250 H 1491.82 3.62444 -2.85362 0
M  V30 16251 H 1490.06 3.36501 -2.7377 0
M  V30 16252 H 1490.73 4.96574 -2.41078 0
M  V30 16253 H 1493.21 4.10382 -0.687419 0
M  V30 16254 H 1492.08 5.4692 -0.465817 0
M  V30 16255 H 1492.34 4.33804 0.852452 0
M  V30 16256 N 1491.4 0.642663 1.43901 0
M  V30 16257 C 1492.37 -0.0457858 2.29154 0
M  V30 16258 C 1493.37 -0.760988 1.41653 0
M  V30 16259 O 1494.56 -0.603832 1.634 0
M  V30 16260 C 1491.69 -1.07552 3.23489 0
M  V30 16261 H 1492.88 0.704193 2.91515 0
M  V30 16262 H 1490.43 0.403361 1.51006 0
M  V30 16263 H 1491.17 -1.85509 2.66002 0
M  V30 16264 H 1490.95 -0.566468 3.87987 0
M  V30 16265 H 1492.44 -1.55663 3.87503 0
M  V30 16266 N 1492.88 -1.52852 0.383918 0
M  V30 16267 C 1494.13 -2.00694 -0.201206 0
M  V30 16268 C 1494.44 -1.2748 -1.48352 0
M  V30 16269 O 1495.65 -1.66005 -2.14836 0
M  V30 16270 C 1494.11 -3.57567 -0.409117 0
M  V30 16271 C 1493.71 -4.39675 0.859628 0
M  V30 16272 C 1495.46 -4.13713 -0.950899 0
M  V30 16273 C 1493.36 -5.88138 0.620292 0
M  V30 16274 H 1492.29 -0.749854 -0.0789656 0
M  V30 16275 H 1494.95 -1.764 0.505488 0
M  V30 16276 H 1493.33 -3.78088 -1.17753 0
M  V30 16277 H 1494.5 -4.30923 1.63224 0
M  V30 16278 H 1492.82 -3.94724 1.32597 0
M  V30 16279 H 1495.41 -5.22284 -1.14558 0
M  V30 16280 H 1495.76 -3.69463 -1.9184 0
M  V30 16281 H 1496.29 -3.97062 -0.242195 0
M  V30 16282 H 1493.03 -6.367 1.55864 0
M  V30 16283 H 1492.55 -5.99693 -0.113483 0
M  V30 16284 H 1494.23 -6.46506 0.252775 0
M  V30 16285 N 1494.36 -0.113586 -1.5719 0
M  V30 16286 C 1495.64 0.588987 -1.86522 0
M  V30 16287 C 1496.02 1.85163 -1.01379 0
M  V30 16288 O 1495.36 2.28318 -0.0912188 0
M  V30 16289 C 1495.57 0.886633 -3.3755 0
M  V30 16290 C 1496.92 1.24206 -4.06027 0
M  V30 16291 O 1497.95 0.977068 -3.42537 0
M  V30 16292 O 1496.81 1.73914 -5.18089 0
M  V30 16293 H 1493.9 0.296637 -0.771968 0
M  V30 16294 H 1496.45 -0.147681 -1.69056 0
M  V30 16295 H 1495.22 -0.00835421 -3.91299 0
M  V30 16296 H 1494.84 1.67865 -3.60426 0
M  V30 16297 N 1495.84 1.56784 0.160173 0
M  V30 16298 C 1497.07 1.86496 0.888969 0
M  V30 16299 C 1497.48 0.698244 1.75844 0
M  V30 16300 O 1496.82 -0.341543 1.80497 0
M  V30 16301 C 1496.88 3.10758 1.80748 0
M  V30 16302 C 1496.54 4.43152 1.1165 0
M  V30 16303 C 1497.54 5.1771 0.476643 0
M  V30 16304 C 1495.23 4.89883 1.10993 0
M  V30 16305 C 1497.22 6.37198 -0.160552 0
M  V30 16306 C 1494.91 6.09298 0.468916 0
M  V30 16307 C 1495.91 6.828 -0.165211 0
M  V30 16308 O 1495.59 7.99948 -0.796092 0
M  V30 16309 H 1495.33 0.622688 0.263128 0
M  V30 16310 H 1497.88 2.04762 0.161706 0
M  V30 16311 H 1496.11 2.88466 2.57535 0
M  V30 16312 H 1497.8 3.26825 2.40708 0
M  V30 16313 H 1498.56 4.82682 0.473616 0
M  V30 16314 H 1494.44 4.32605 1.59292 0
M  V30 16315 H 1497.99 6.94508 -0.656107 0
M  V30 16316 H 1493.88 6.4379 0.469565 0
M  V30 16317 H 1494.65 8.15532 -0.696448 0
M  V30 16318 N 1497.32 -0.429099 1.51646 0
M  V30 16319 C 1498.56 -1.17644 1.65926 0
M  V30 16320 C 1498.92 -1.88715 0.374777 0
M  V30 16321 O 1498.21 -1.80952 -0.629842 0
M  V30 16322 C 1498.4 -2.2131 2.80636 0
M  V30 16323 C 1498.23 -1.60416 4.20115 0
M  V30 16324 C 1497 -1.38551 4.85934 0
M  V30 16325 C 1499.2 -1.07589 5.0292 0
M  V30 16326 N 1497.18 -0.733404 6.09503 0
M  V30 16327 C 1498.55 -0.549542 6.1756 0
M  V30 16328 C 1500.61 -0.968438 4.88391 0
M  V30 16329 C 1499.31 0.07371 7.19262 0
M  V30 16330 C 1501.34 -0.359068 5.90309 0
M  V30 16331 C 1500.7 0.156699 7.04226 0
M  V30 16332 H 1496.8 -0.417871 0.66099 0
M  V30 16333 H 1499.38 -0.471789 1.88897 0
M  V30 16334 H 1497.55 -2.89155 2.59314 0
M  V30 16335 H 1499.29 -2.88263 2.84054 0
M  V30 16336 H 1496.04 -1.64953 4.43945 0
M  V30 16337 H 1496.46 -0.424555 6.75667 0
M  V30 16338 H 1501.11 -1.35305 4.00565 0
M  V30 16339 H 1498.82 0.470433 8.0673 0
M  V30 16340 H 1502.41 -0.277718 5.81137 0
M  V30 16341 H 1501.29 0.62081 7.81739 0
M  V30 16342 N 1498.79 -1.41931 -0.685074 0
M  V30 16343 C 1499.72 -1.47385 -1.81107 0
M  V30 16344 C 1500.7 -0.331433 -1.6684 0
M  V30 16345 O 1501.89 -0.544331 -1.86415 0
M  V30 16346 C 1499.02 -1.36555 -3.19327 0
M  V30 16347 C 1497.97 -2.48718 -3.48315 0
M  V30 16348 C 1497.3 -2.2295 -4.86002 0
M  V30 16349 C 1498.6 -3.91047 -3.46237 0
M  V30 16350 H 1500.29 -2.41624 -1.768 0
M  V30 16351 H 1497.84 -1.16297 -0.849178 0
M  V30 16352 H 1499.79 -1.38981 -3.97822 0
M  V30 16353 H 1498.52 -0.388063 -3.24286 0
M  V30 16354 H 1497.18 -2.45592 -2.72176 0
M  V30 16355 H 1496.82 -1.23518 -4.87598 0
M  V30 16356 H 1496.52 -2.98116 -5.0636 0
M  V30 16357 H 1498.05 -2.27108 -5.66793 0
M  V30 16358 H 1499.46 -3.95831 -4.14718 0
M  V30 16359 H 1497.86 -4.65981 -3.7813 0
M  V30 16360 H 1498.93 -4.1845 -2.45006 0
M  V30 16361 N 1500.27 0.920374 -1.27933 0
M  V30 16362 C 1501.23 2.0035 -1.11321 0
M  V30 16363 C 1502.23 1.60706 -0.0549132 0
M  V30 16364 O 1503.42 1.71595 -0.300134 0
M  V30 16365 C 1500.56 3.33681 -0.69782 0
M  V30 16366 H 1501.75 2.16518 -2.07509 0
M  V30 16367 H 1499.3 1.10216 -1.10825 0
M  V30 16368 H 1500.04 3.23214 0.265122 0
M  V30 16369 H 1499.82 3.63815 -1.46223 0
M  V30 16370 H 1501.31 4.13208 -0.604048 0
M  V30 16371 N 1501.75 1.10074 1.1279 0
M  V30 16372 C 1502.98 0.862906 1.88047 0
M  V30 16373 C 1503.39 -0.586346 1.79464 0
M  V30 16374 O 1502.75 -1.40402 1.16591 0
M  V30 16375 C 1502.8 1.29784 3.37399 0
M  V30 16376 O 1502.52 2.69026 3.4577 0
M  V30 16377 C 1504.02 1.09336 4.29605 0
M  V30 16378 H 1501.24 0.309981 0.595108 0
M  V30 16379 H 1503.79 1.46444 1.42738 0
M  V30 16380 H 1501.94 0.740056 3.80266 0
M  V30 16381 H 1502.36 2.87532 4.38663 0
M  V30 16382 H 1503.83 1.44687 5.327 0
M  V30 16383 H 1504.31 0.031679 4.39189 0
M  V30 16384 H 1504.91 1.63743 3.92516 0
M  V30 16385 N 1503.23 -1.30138 0.888926 0
M  V30 16386 C 1504.47 -1.96654 0.519499 0
M  V30 16387 C 1504.83 -1.68872 -0.92196 0
M  V30 16388 O 1504.12 -0.985192 -1.64331 0
M  V30 16389 C 1504.32 -3.4975 0.735488 0
M  V30 16390 C 1504.14 -3.92414 2.19639 0
M  V30 16391 C 1502.91 -4.1782 2.84174 0
M  V30 16392 C 1505.11 -4.04943 3.17058 0
M  V30 16393 N 1503.09 -4.46973 4.20819 0
M  V30 16394 C 1504.47 -4.38024 4.38788 0
M  V30 16395 C 1506.52 -3.87382 3.12793 0
M  V30 16396 C 1505.22 -4.55375 5.568 0
M  V30 16397 C 1507.25 -4.05937 4.3008 0
M  V30 16398 C 1506.61 -4.39367 5.50578 0
M  V30 16399 H 1502.71 -0.744421 0.239501 0
M  V30 16400 H 1505.29 -1.57292 1.14749 0
M  V30 16401 H 1503.47 -3.88158 0.136957 0
M  V30 16402 H 1505.2 -4.03331 0.332568 0
M  V30 16403 H 1501.95 -4.11171 2.35022 0
M  V30 16404 H 1502.38 -4.65677 4.914 0
M  V30 16405 H 1507.02 -3.60609 2.20729 0
M  V30 16406 H 1504.74 -4.80989 6.49365 0
M  V30 16407 H 1508.32 -3.93814 4.28255 0
M  V30 16408 H 1507.2 -4.53428 6.39822 0
M  V30 16409 N 1504.71 -0.650285 -1.43559 0
M  V30 16410 C 1505.93 -0.170139 -2.06199 0
M  V30 16411 C 1506.35 1.16304 -1.48724 0
M  V30 16412 O 1505.71 1.71739 -0.617418 0
M  V30 16413 C 1505.76 -0.0698577 -3.61432 0
M  V30 16414 O 1505.48 -1.35033 -4.16771 0
M  V30 16415 C 1506.98 0.436714 -4.41144 0
M  V30 16416 H 1504.2 -0.0885316 -0.665134 0
M  V30 16417 H 1506.74 -0.890104 -1.84112 0
M  V30 16418 H 1504.9 0.60065 -3.82715 0
M  V30 16419 H 1505.31 -1.20762 -5.10409 0
M  V30 16420 H 1506.79 0.455843 -5.50115 0
M  V30 16421 H 1507.26 1.46747 -4.13959 0
M  V30 16422 H 1507.87 -0.201201 -4.24824 0
M  V30 16423 N 1506.18 1.52647 -0.392018 0
M  V30 16424 C 1507.41 2.06511 0.191815 0
M  V30 16425 C 1507.83 1.26162 1.39516 0
M  V30 16426 O 1507.19 0.287373 1.79008 0
M  V30 16427 C 1507.24 3.56571 0.537512 0
M  V30 16428 O 1506.34 3.78774 1.63106 0
M  V30 16429 H 1505.68 0.663647 0.0216546 0
M  V30 16430 H 1508.21 1.96779 -0.560274 0
M  V30 16431 H 1508.22 4.00059 0.801044 0
M  V30 16432 H 1506.9 4.14489 -0.342239 0
M  V30 16433 H 1505.48 3.47175 1.36103 0
M  V30 16434 N 1507.66 0.121921 1.57128 0
M  V30 16435 C 1508.57 -0.840825 2.19014 0
M  V30 16436 C 1509.59 -1.29051 1.16712 0
M  V30 16437 O 1510.76 -1.35289 1.49194 0
M  V30 16438 C 1507.83 -2.07204 2.7797 0
M  V30 16439 C 1506.89 -1.67399 3.95318 0
M  V30 16440 C 1506.12 -2.84652 4.51452 0
M  V30 16441 O 1506.35 -4.00161 4.06482 0
M  V30 16442 O 1505.28 -2.61568 5.42094 0
M  V30 16443 H 1509.11 -0.344146 3.01744 0
M  V30 16444 H 1506.69 -0.103841 1.49039 0
M  V30 16445 H 1508.57 -2.79307 3.1554 0
M  V30 16446 H 1507.25 -2.55872 1.9827 0
M  V30 16447 H 1506.16 -0.92395 3.62511 0
M  V30 16448 H 1507.49 -1.2347 4.76462 0
M  V30 16449 N 1509.14 -1.56867 -0.151857 0
M  V30 16450 C 1510.37 -1.86965 -0.879066 0
M  V30 16451 C 1510.78 -0.70756 -1.75471 0
M  V30 16452 O 1510.12 0.331966 -1.80676 0
M  V30 16453 C 1510.18 -3.11712 -1.79098 0
M  V30 16454 C 1509.85 -4.43737 -1.09298 0
M  V30 16455 C 1510.84 -5.17956 -0.449181 0
M  V30 16456 C 1508.53 -4.90465 -1.08394 0
M  V30 16457 C 1510.52 -6.37104 0.194342 0
M  V30 16458 C 1508.21 -6.09538 -0.436597 0
M  V30 16459 C 1509.21 -6.82703 0.201419 0
M  V30 16460 O 1508.9 -7.99515 0.838504 0
M  V30 16461 H 1508.63 -0.624074 -0.259822 0
M  V30 16462 H 1511.18 -2.04845 -0.150844 0
M  V30 16463 H 1509.41 -2.89828 -2.56002 0
M  V30 16464 H 1511.1 -3.28097 -2.38972 0
M  V30 16465 H 1511.87 -4.82926 -0.448012 0
M  V30 16466 H 1507.75 -4.33444 -1.56995 0
M  V30 16467 H 1511.29 -6.9415 0.69293 0
M  V30 16468 H 1507.19 -6.4403 -0.435417 0
M  V30 16469 H 1507.96 -8.15151 0.739688 0
M  V30 16470 N 1510.62 0.421051 -1.51871 0
M  V30 16471 C 1511.84 1.19568 -1.69465 0
M  V30 16472 C 1512.27 1.83835 -0.398269 0
M  V30 16473 O 1511.63 1.69508 0.643172 0
M  V30 16474 C 1511.67 2.24337 -2.82321 0
M  V30 16475 O 1510.78 3.30205 -2.47059 0
M  V30 16476 H 1510.12 0.349579 -0.564527 0
M  V30 16477 H 1512.65 0.495177 -1.98517 0
M  V30 16478 H 1512.66 2.6886 -3.06885 0
M  V30 16479 H 1511.33 1.76941 -3.76384 0
M  V30 16480 H 1509.91 2.91045 -2.33125 0
M  V30 16481 N 1512.1 1.42293 0.677538 0
M  V30 16482 C 1513.35 1.41909 1.43334 0
M  V30 16483 C 1513.66 0.037951 1.95563 0
M  V30 16484 O 1514.86 -0.0884836 2.71356 0
M  V30 16485 C 1513.32 2.49608 2.59275 0
M  V30 16486 C 1512.93 3.93716 2.13757 0
M  V30 16487 C 1514.67 2.58387 3.36803 0
M  V30 16488 C 1512.58 4.92929 3.26764 0
M  V30 16489 H 1511.51 0.527803 0.538461 0
M  V30 16490 H 1514.16 1.6819 0.733791 0
M  V30 16491 H 1512.54 2.16488 3.31585 0
M  V30 16492 H 1513.72 4.36176 1.48618 0
M  V30 16493 H 1512.03 3.88762 1.49175 0
M  V30 16494 H 1514.63 3.29691 4.20961 0
M  V30 16495 H 1514.97 1.62653 3.8321 0
M  V30 16496 H 1515.5 2.90688 2.71561 0
M  V30 16497 H 1512.24 5.90131 2.85352 0
M  V30 16498 H 1511.76 4.55103 3.90694 0
M  V30 16499 H 1513.44 5.1452 3.92273 0
M  V30 16500 N 1513.57 -0.913576 1.28419 0
M  V30 16501 C 1514.52 -2.03739 1.1222 0
M  V30 16502 C 1515.52 -1.69349 0.0414309 0
M  V30 16503 O 1516.72 -1.78883 0.200213 0
M  V30 16504 H 1513.1 -0.667554 0.34623 0
M  V30 16505 H 1515.07 -2.14544 2.07397 0
M  V30 16506 C 1513.82 -3.38348 0.801003 0
M  V30 16507 H 1513.14 -3.65304 1.6246 0
M  V30 16508 H 1514.58 -4.1771 0.727611 0
M  V30 16509 C 1513.04 -3.3324 -0.495261 0
M  V30 16510 O 1513.57 -3.71606 -1.52551 0
M  V30 16511 N 1511.78 -2.86335 -0.496054 0
M  V30 16512 H 1511.32 -2.55309 0.342773 0
M  V30 16513 H 1511.28 -2.833 -1.3634 0
M  V30 16514 N 1515.05 -1.1067 -1.12204 0
M  V30 16515 C 1516 -0.752659 -2.20086 0
M  V30 16516 C 1516.99 0.252284 -1.67511 0
M  V30 16517 O 1518.2 0.112398 -1.79649 0
M  V30 16518 H 1514.58 -0.225473 -0.717402 0
M  V30 16519 H 1516.55 -1.67136 -2.472 0
M  V30 16520 C 1515.3 -0.203345 -3.47105 0
M  V30 16521 H 1514.62 -0.967864 -3.87908 0
M  V30 16522 H 1516.06 0.00629123 -4.24 0
M  V30 16523 C 1514.52 1.06452 -3.1964 0
M  V30 16524 O 1515.05 2.14562 -3.39597 0
M  V30 16525 N 1513.25 0.984122 -2.73429 0
M  V30 16526 H 1512.8 0.104258 -2.57389 0
M  V30 16527 H 1512.76 1.83312 -2.55429 0
M  V30 16528 N 1516.53 1.29665 -0.895815 0
M  V30 16529 C 1517.76 1.99862 -0.535043 0
M  V30 16530 C 1518.17 1.67077 0.879245 0
M  V30 16531 O 1517.53 0.913717 1.57979 0
M  V30 16532 C 1517.58 3.54396 -0.713132 0
M  V30 16533 O 1517.3 3.86018 -2.07175 0
M  V30 16534 C 1518.8 4.41862 -0.356792 0
M  V30 16535 H 1516.02 0.638693 -0.205699 0
M  V30 16536 H 1518.57 1.65293 -1.20409 0
M  V30 16537 H 1516.72 3.87292 -0.0913116 0
M  V30 16538 H 1517.14 4.80701 -2.09827 0
M  V30 16539 H 1518.61 5.49428 -0.532252 0
M  V30 16540 H 1519.09 4.3349 0.705914 0
M  V30 16541 H 1519.69 4.1443 -0.95539 0
M  V30 16542 N 1518.01 0.657889 1.43212 0
M  V30 16543 C 1519.26 0.172845 2.0136 0
M  V30 16544 C 1519.58 -1.21911 1.52193 0
M  V30 16545 O 1518.85 -1.81529 0.736492 0
M  V30 16546 H 1517.43 0.0609091 0.744513 0
M  V30 16547 H 1520.09 0.850605 1.75359 0
M  V30 16548 H 1519.19 0.161062 3.11684 0
M  V30 16549 N 1519.49 -1.52437 0.400108 0
M  V30 16550 C 1520.43 -2.26763 -0.429799 0
M  V30 16551 C 1521.4 -1.28808 -1.0487 0
M  V30 16552 O 1522.59 -1.57655 -1.07468 0
M  V30 16553 C 1519.73 -3.08564 -1.54539 0
M  V30 16554 C 1518.84 -4.21463 -0.948294 0
M  V30 16555 C 1517.98 -4.9064 -2.03584 0
M  V30 16556 C 1517.02 -5.95515 -1.4152 0
M  V30 16557 N 1516.15 -6.58245 -2.4425 0
M  V30 16558 H 1520.99 -2.97256 0.210467 0
M  V30 16559 H 1518.53 -1.46645 0.115627 0
M  V30 16560 H 1520.49 -3.54289 -2.20307 0
M  V30 16561 H 1519.12 -2.40259 -2.15582 0
M  V30 16562 H 1518.17 -3.79974 -0.179918 0
M  V30 16563 H 1519.48 -4.96722 -0.454845 0
M  V30 16564 H 1518.64 -5.39724 -2.77097 0
M  V30 16565 H 1517.37 -4.14929 -2.56291 0
M  V30 16566 H 1516.38 -5.45759 -0.665354 0
M  V30 16567 H 1517.6 -6.73164 -0.89593 0
M  V30 16568 H 1515.55 -5.85369 -2.96107 0
M  V30 16569 H 1515.47 -7.2915 -1.99692 0
M  V30 16570 H 1516.74 -7.1197 -3.17362 0
M  V30 16571 N 1520.96 -0.130252 -1.57061 0
M  V30 16572 C 1521.93 0.801529 -2.14728 0
M  V30 16573 C 1522.93 1.18687 -1.08489 0
M  V30 16574 O 1524.12 1.11054 -1.34211 0
M  V30 16575 C 1521.25 2.08542 -2.69672 0
M  V30 16576 H 1522.44 0.300172 -2.98394 0
M  V30 16577 H 1520 0.119077 -1.55846 0
M  V30 16578 H 1520.73 2.63083 -1.89625 0
M  V30 16579 H 1520.52 1.81849 -3.47381 0
M  V30 16580 H 1522.01 2.75126 -3.14158 0
M  V30 16581 N 1522.44 1.56945 0.143535 0
M  V30 16582 C 1523.72 1.74461 0.884454 0
M  V30 16583 C 1524.1 0.699201 1.99184 0
M  V30 16584 O 1523.45 -0.281267 2.26762 0
M  V30 16585 C 1523.66 3.18639 1.42373 0
M  V30 16586 C 1525.01 3.80426 1.88577 0
M  V30 16587 O 1526.03 3.2209 1.52107 0
M  V30 16588 O 1524.89 4.82913 2.55847 0
M  V30 16589 H 1521.98 0.713457 0.41822 0
M  V30 16590 H 1524.53 1.69208 0.12919 0
M  V30 16591 H 1523.3 3.86227 0.628056 0
M  V30 16592 H 1522.92 3.28332 2.2424 0
M  V30 16593 N 1523.92 -0.412991 1.52093 0
M  V30 16594 C 1524.85 -1.52187 1.71382 0
M  V30 16595 C 1525.87 -1.51567 0.594247 0
M  V30 16596 O 1527.06 -1.55902 0.869293 0
M  V30 16597 C 1524.16 -2.91086 1.73557 0
M  V30 16598 C 1523.33 -3.15941 3.0249 0
M  V30 16599 C 1522.39 -4.34692 2.96529 0
M  V30 16600 O 1521.41 -4.3216 3.70441 0
M  V30 16601 N 1522.62 -5.39594 2.14052 0
M  V30 16602 H 1525.38 -1.36036 2.67047 0
M  V30 16603 H 1522.94 -0.602243 1.50282 0
M  V30 16604 H 1524.93 -3.68589 1.67106 0
M  V30 16605 H 1523.5 -3.00714 0.85382 0
M  V30 16606 H 1522.72 -2.26517 3.2262 0
M  V30 16607 H 1524.01 -3.29388 3.87789 0
M  V30 16608 H 1523.41 -5.44498 1.53424 0
M  V30 16609 H 1521.97 -6.15855 2.13461 0
M  V30 16610 N 1525.4 -1.4265 -0.669982 0
M  V30 16611 C 1526.63 -1.46784 -1.45816 0
M  V30 16612 C 1527.04 -0.080606 -1.88628 0
M  V30 16613 O 1526.4 0.905687 -1.58441 0
M  V30 16614 C 1526.45 -2.39915 -2.70413 0
M  V30 16615 O 1526.17 -3.73241 -2.29396 0
M  V30 16616 C 1527.67 -2.53118 -3.63931 0
M  V30 16617 H 1524.89 -0.499076 -0.448513 0
M  V30 16618 H 1527.44 -1.87216 -0.822819 0
M  V30 16619 H 1525.59 -2.02722 -3.30125 0
M  V30 16620 H 1526.01 -4.23164 -3.09891 0
M  V30 16621 H 1527.48 -3.22395 -4.48069 0
M  V30 16622 H 1527.96 -1.57062 -4.10156 0
M  V30 16623 H 1528.56 -2.91052 -3.10111 0
M  V30 16624 N 1526.88 0.906753 -1.28902 0
M  V30 16625 C 1528.11 1.68774 -1.1916 0
M  V30 16626 C 1528.52 1.87523 0.251339 0
M  V30 16627 O 1527.86 1.4071 1.18095 0
M  V30 16628 C 1527.92 3.09676 -1.82596 0
M  V30 16629 C 1527.58 3.14185 -3.31869 0
M  V30 16630 C 1528.58 2.94858 -4.282 0
M  V30 16631 C 1526.27 3.36476 -3.72947 0
M  V30 16632 C 1528.26 2.97744 -5.63584 0
M  V30 16633 C 1525.95 3.38993 -5.08456 0
M  V30 16634 C 1526.95 3.19648 -6.03584 0
M  V30 16635 O 1526.63 3.2194 -7.3662 0
M  V30 16636 H 1526.37 0.534133 -0.41434 0
M  V30 16637 H 1528.92 1.14282 -1.70671 0
M  V30 16638 H 1527.15 3.65739 -1.25587 0
M  V30 16639 H 1528.84 3.6983 -1.67273 0
M  V30 16640 H 1529.6 2.77456 -3.97798 0
M  V30 16641 H 1525.48 3.50576 -2.99362 0
M  V30 16642 H 1529.03 2.82563 -6.37812 0
M  V30 16643 H 1524.92 3.55924 -5.38506 0
M  V30 16644 H 1525.69 3.38255 -7.45336 0
M  V30 16645 N 1528.36 1.11264 1.11616 0
M  V30 16646 C 1529.59 0.881522 1.8685 0
M  V30 16647 C 1529.99 -0.572088 1.80344 0
M  V30 16648 O 1529.34 -1.40665 1.18148 0
M  V30 16649 C 1529.4 1.26245 3.36604 0
M  V30 16650 C 1529.06 2.72485 3.6688 0
M  V30 16651 C 1530.06 3.70708 3.64516 0
M  V30 16652 C 1527.74 3.09086 3.95943 0
M  V30 16653 C 1529.74 5.0355 3.90789 0
M  V30 16654 C 1527.43 4.42114 4.21875 0
M  V30 16655 C 1528.42 5.39155 4.19286 0
M  V30 16656 O 1528.11 6.69787 4.44568 0
M  V30 16657 H 1527.84 0.315647 0.597782 0
M  V30 16658 H 1530.4 1.48317 1.42095 0
M  V30 16659 H 1528.63 0.603938 3.81955 0
M  V30 16660 H 1530.32 1.00744 3.93199 0
M  V30 16661 H 1531.08 3.43776 3.42115 0
M  V30 16662 H 1526.96 2.34171 3.97095 0
M  V30 16663 H 1530.51 5.79285 3.88684 0
M  V30 16664 H 1526.4 4.6878 4.43751 0
M  V30 16665 H 1527.17 6.75548 4.62144 0
M  V30 16666 N 1529.83 -1.29188 0.902679 0
M  V30 16667 C 1531.08 -1.95727 0.530909 0
M  V30 16668 C 1531.41 -1.70971 -0.921014 0
M  V30 16669 O 1530.69 -1.02436 -1.65339 0
M  V30 16670 C 1530.97 -3.50463 0.827523 0
M  V30 16671 C 1530.82 -3.84665 2.33137 0
M  V30 16672 C 1532.14 -4.38964 0.316053 0
M  V30 16673 H 1529.26 -0.71091 0.194361 0
M  V30 16674 H 1531.9 -1.52752 1.1299 0
M  V30 16675 H 1530.05 -3.87199 0.317732 0
M  V30 16676 H 1531.73 -3.57859 2.91093 0
M  V30 16677 H 1529.97 -3.32102 2.79088 0
M  V30 16678 H 1530.64 -4.92676 2.48947 0
M  V30 16679 H 1533.12 -4.09237 0.75262 0
M  V30 16680 H 1531.99 -5.4611 0.552769 0
M  V30 16681 H 1532.25 -4.35105 -0.783329 0
M  V30 16682 N 1531.31 -0.665475 -1.42861 0
M  V30 16683 C 1532.27 0.00932351 -2.29198 0
M  V30 16684 C 1533.27 0.738356 -1.42846 0
M  V30 16685 O 1534.46 0.57776 -1.6434 0
M  V30 16686 C 1531.6 1.02392 -3.25159 0
M  V30 16687 H 1532.79 -0.750481 -2.90358 0
M  V30 16688 H 1530.34 -0.427334 -1.50345 0
M  V30 16689 H 1531.08 1.81254 -2.68919 0
M  V30 16690 H 1530.86 0.504671 -3.88839 0
M  V30 16691 H 1532.35 1.49479 -3.89931 0
M  V30 16692 N 1532.79 1.52222 -0.408187 0
M  V30 16693 C 1534.04 2.01404 0.167574 0
M  V30 16694 C 1534.36 1.29572 1.45726 0
M  V30 16695 O 1533.63 0.421363 1.91315 0
M  V30 16696 H 1532.21 0.744174 0.0649156 0
M  V30 16697 H 1534.87 1.87148 -0.544212 0
M  V30 16698 H 1533.97 3.09966 0.36436 0
M  V30 16699 N 1534.27 0.138579 1.5699 0
M  V30 16700 C 1535.51 -0.514627 1.95852 0
M  V30 16701 C 1535.84 -1.65424 1.02299 0
M  V30 16702 O 1535.1 -1.95635 0.0505654 0
M  V30 16703 C 1535.4 -1.06969 3.41017 0
M  V30 16704 C 1535.06 -0.049396 4.50873 0
M  V30 16705 C 1533.72 0.231103 4.80645 0
M  V30 16706 C 1536.08 0.644865 5.17195 0
M  V30 16707 C 1533.4 1.21181 5.74049 0
M  V30 16708 C 1535.76 1.61434 6.11655 0
M  V30 16709 C 1534.42 1.90262 6.3981 0
M  V30 16710 H 1533.69 -0.188315 0.716672 0
M  V30 16711 H 1536.34 0.223629 1.9019 0
M  V30 16712 H 1534.64 -1.88511 3.43469 0
M  V30 16713 H 1536.34 -1.58354 3.68409 0
M  V30 16714 H 1532.93 -0.278202 4.27696 0
M  V30 16715 H 1537.11 0.441346 4.94334 0
M  V30 16716 H 1532.37 1.4417 5.94159 0
M  V30 16717 H 1536.54 2.15786 6.62125 0
M  V30 16718 H 1534.17 2.66407 7.11991 0
M  V30 16719 N 1535.75 -1.57019 -0.13521 0
M  V30 16720 C 1536.97 -1.88528 -0.864399 0
M  V30 16721 C 1537.4 -0.728852 -1.73405 0
M  V30 16722 O 1536.75 0.321196 -1.78432 0
M  V30 16723 C 1536.8 -3.18694 -1.6872 0
M  V30 16724 O 1535.91 -3.03458 -2.79262 0
M  V30 16725 H 1535.25 -0.61909 -0.24005 0
M  V30 16726 H 1537.78 -2.04233 -0.12248 0
M  V30 16727 H 1537.79 -3.51011 -2.0798 0
M  V30 16728 H 1536.46 -4.02462 -1.04868 0
M  V30 16729 H 1535.04 -2.82575 -2.43323 0
M  V30 16730 N 1537.22 0.404919 -1.52309 0
M  V30 16731 C 1538.47 1.14859 -1.65802 0
M  V30 16732 C 1538.79 1.91546 -0.396174 0
M  V30 16733 O 1539.99 2.68372 -0.410969 0
M  V30 16734 C 1538.45 2.09068 -2.92948 0
M  V30 16735 C 1538.06 1.37878 -4.26255 0
M  V30 16736 C 1539.8 2.83669 -3.15804 0
M  V30 16737 C 1537.71 2.30761 -5.44521 0
M  V30 16738 H 1536.64 0.432463 -0.61765 0
M  V30 16739 H 1539.29 0.412695 -1.78799 0
M  V30 16740 H 1537.67 2.86228 -2.7366 0
M  V30 16741 H 1538.84 0.660543 -4.56041 0
M  V30 16742 H 1537.16 0.753026 -4.09534 0
M  V30 16743 H 1539.76 3.53313 -4.0134 0
M  V30 16744 H 1540.1 3.46855 -2.30212 0
M  V30 16745 H 1540.63 2.13607 -3.35584 0
M  V30 16746 H 1537.37 1.72214 -6.32473 0
M  V30 16747 H 1536.89 3.00546 -5.19069 0
M  V30 16748 H 1538.57 2.91195 -5.77767 0
M  V30 16749 N 1538.7 1.43003 0.662408 0
M  V30 16750 C 1539.63 1.50248 1.78739 0
M  V30 16751 C 1540.61 0.357934 1.66291 0
M  V30 16752 O 1541.8 0.573919 1.85526 0
M  V30 16753 C 1538.93 1.41618 3.17114 0
M  V30 16754 C 1537.88 2.54228 3.44314 0
M  V30 16755 C 1537.21 2.30653 4.82393 0
M  V30 16756 C 1538.51 3.96505 3.39972 0
M  V30 16757 H 1540.2 2.44406 1.72934 0
M  V30 16758 H 1537.75 1.17633 0.830569 0
M  V30 16759 H 1539.7 1.45293 3.9556 0
M  V30 16760 H 1538.43 0.439605 3.23628 0
M  V30 16761 H 1537.08 2.49891 2.68235 0
M  V30 16762 H 1536.73 1.3126 4.85572 0
M  V30 16763 H 1536.43 3.06134 5.01554 0
M  V30 16764 H 1537.96 2.36096 5.63108 0
M  V30 16765 H 1539.37 4.02378 4.08368 0
M  V30 16766 H 1537.77 4.71937 3.70668 0
M  V30 16767 H 1538.84 4.22295 2.38318 0
M  V30 16768 N 1540.18 -0.899904 1.29381 0
M  V30 16769 C 1541.42 -1.66468 1.18608 0
M  V30 16770 C 1541.78 -1.90255 -0.258287 0
M  V30 16771 O 1542.99 -2.64315 -0.488987 0
M  V30 16772 C 1541.26 -2.97758 1.97674 0
M  V30 16773 S 1542.82 -3.88794 2.03433 0
M  V30 16774 H 1539.63 -0.571533 0.422931 0
M  V30 16775 H 1542.24 -1.06931 1.63664 0
M  V30 16776 H 1540.94 -2.78158 3.01755 0
M  V30 16777 H 1540.47 -3.62335 1.53221 0
M  V30 16778 H 1542.49 -4.82669 1.15086 0
M  V30 16779 N 1541.66 -1.11854 -1.11024 0
M  V30 16780 C 1542.91 -0.868355 -1.82494 0
M  V30 16781 C 1543.23 0.607622 -1.85292 0
M  V30 16782 O 1542.5 1.44147 -1.32659 0
M  V30 16783 H 1541.08 -0.31826 -0.67581 0
M  V30 16784 H 1543.74 -1.4118 -1.34366 0
M  V30 16785 H 1542.84 -1.24441 -2.86218 0
M  V30 16786 N 1543.14 1.28707 -0.909517 0
M  V30 16787 C 1544.1 2.25692 -0.39946 0
M  V30 16788 C 1545.1 1.53721 0.471848 0
M  V30 16789 O 1546.29 1.72008 0.275504 0
M  V30 16790 C 1543.42 3.38205 0.427793 0
M  V30 16791 H 1544.61 2.72326 -1.25613 0
M  V30 16792 H 1542.17 1.40317 -0.688535 0
M  V30 16793 H 1542.9 2.96926 1.30404 0
M  V30 16794 H 1542.69 3.91606 -0.19667 0
M  V30 16795 H 1544.18 4.10334 0.775634 0
M  V30 16796 N 1544.61 0.673042 1.42506 0
M  V30 16797 C 1545.86 0.194192 2.01165 0
M  V30 16798 C 1546.18 -1.2029 1.53477 0
M  V30 16799 O 1545.45 -1.80737 0.755704 0
M  V30 16800 H 1544.03 0.0688022 0.743825 0
M  V30 16801 H 1546.7 0.869157 1.74447 0
M  V30 16802 H 1545.79 0.194111 3.11496 0
M  V30 16803 N 1546.09 -1.52004 0.416254 0
M  V30 16804 C 1547.34 -2.01076 -0.158591 0
M  V30 16805 C 1547.65 -1.30598 -1.45614 0
M  V30 16806 O 1548.86 -1.70525 -2.11267 0
M  V30 16807 C 1547.32 -3.58354 -0.333179 0
M  V30 16808 C 1546.92 -4.37753 0.952696 0
M  V30 16809 C 1548.67 -4.15637 -0.86293 0
M  V30 16810 C 1546.58 -5.8669 0.744905 0
M  V30 16811 H 1545.51 -0.75136 -0.0630423 0
M  V30 16812 H 1548.16 -1.75288 0.542791 0
M  V30 16813 H 1546.54 -3.805 -1.09706 0
M  V30 16814 H 1547.71 -4.27364 1.72328 0
M  V30 16815 H 1546.03 -3.91823 1.40939 0
M  V30 16816 H 1548.62 -5.24596 -1.03454 0
M  V30 16817 H 1548.97 -3.73449 -1.8396 0
M  V30 16818 H 1549.5 -3.97486 -0.157918 0
M  V30 16819 H 1546.24 -6.3325 1.69334 0
M  V30 16820 H 1545.76 -5.99798 0.0137458 0
M  V30 16821 H 1547.44 -6.45824 0.389851 0
M  V30 16822 N 1547.57 -0.146903 -1.56914 0
M  V30 16823 C 1548.82 0.504234 -1.96122 0
M  V30 16824 C 1549.15 1.64879 -1.03175 0
M  V30 16825 O 1548.4 1.95605 -0.0609397 0
M  V30 16826 C 1548.7 1.05159 -3.41579 0
M  V30 16827 C 1548.37 0.0254845 -4.50893 0
M  V30 16828 C 1547.03 -0.256589 -4.80515 0
M  V30 16829 C 1549.38 -0.672284 -5.16846 0
M  V30 16830 C 1546.71 -1.24224 -5.73398 0
M  V30 16831 C 1549.06 -1.64675 -6.1079 0
M  V30 16832 C 1547.72 -1.93652 -6.38792 0
M  V30 16833 H 1546.99 0.184512 -0.71766 0
M  V30 16834 H 1549.64 -0.233712 -1.90069 0
M  V30 16835 H 1547.95 1.86687 -3.44464 0
M  V30 16836 H 1549.64 1.56398 -3.69244 0
M  V30 16837 H 1546.23 0.255517 -4.27838 0
M  V30 16838 H 1550.42 -0.467555 -4.94093 0
M  V30 16839 H 1545.67 -1.47319 -5.93386 0
M  V30 16840 H 1549.85 -2.19294 -6.60971 0
M  V30 16841 H 1547.47 -2.70179 -7.10568 0
M  V30 16842 N 1549.05 1.57088 0.126881 0
M  V30 16843 C 1549.98 2.02799 1.15737 0
M  V30 16844 C 1550.96 0.911031 1.43646 0
M  V30 16845 O 1552.14 1.18021 1.54223 0
M  V30 16846 C 1549.27 2.42565 2.48555 0
M  V30 16847 C 1548.23 3.57631 2.35125 0
M  V30 16848 C 1547.55 3.83272 3.72836 0
M  V30 16849 C 1548.85 4.89625 1.81838 0
M  V30 16850 H 1550.55 2.89136 0.777207 0
M  V30 16851 H 1548.09 1.39101 0.372416 0
M  V30 16852 H 1550.05 2.73146 3.20888 0
M  V30 16853 H 1548.77 1.53188 2.88446 0
M  V30 16854 H 1547.43 3.27247 1.65242 0
M  V30 16855 H 1547.08 2.91114 4.10197 0
M  V30 16856 H 1546.78 4.60721 3.64705 0
M  V30 16857 H 1548.3 4.16298 4.46686 0
M  V30 16858 H 1549.72 5.18793 2.43981 0
M  V30 16859 H 1548.11 5.71018 1.84548 0
M  V30 16860 H 1549.18 4.7866 0.775385 0
M  V30 16861 N 1550.53 -0.396836 1.52522 0
M  V30 16862 C 1551.77 -1.15166 1.68867 0
M  V30 16863 C 1552.13 -1.87445 0.415734 0
M  V30 16864 O 1553.33 -2.64913 0.455443 0
M  V30 16865 C 1551.6 -2.11005 2.88465 0
M  V30 16866 S 1553.16 -2.94429 3.25357 0
M  V30 16867 H 1549.98 -0.389966 0.594515 0
M  V30 16868 H 1552.58 -0.437201 1.90549 0
M  V30 16869 H 1551.29 -1.56613 3.79342 0
M  V30 16870 H 1550.82 -2.86971 2.69093 0
M  V30 16871 H 1552.83 -4.13068 2.74934 0
M  V30 16872 N 1552.01 -1.43353 -0.654814 0
M  V30 16873 C 1552.94 -1.51194 -1.7794 0
M  V30 16874 C 1553.92 -0.366747 -1.66099 0
M  V30 16875 O 1555.1 -0.58375 -1.85219 0
M  V30 16876 C 1552.23 -1.43298 -3.16359 0
M  V30 16877 C 1551.19 -2.5605 -3.42961 0
M  V30 16878 C 1550.51 -2.33208 -4.81163 0
M  V30 16879 C 1551.81 -3.98303 -3.37864 0
M  V30 16880 H 1553.51 -2.4532 -1.71635 0
M  V30 16881 H 1551.05 -1.18072 -0.824319 0
M  V30 16882 H 1553 -1.47388 -3.94784 0
M  V30 16883 H 1551.73 -0.456761 -3.2339 0
M  V30 16884 H 1550.39 -2.5131 -2.66906 0
M  V30 16885 H 1550.04 -1.33833 -4.84869 0
M  V30 16886 H 1549.74 -3.08789 -4.99923 0
M  V30 16887 H 1551.26 -2.39079 -5.61848 0
M  V30 16888 H 1552.67 -4.04538 -4.06229 0
M  V30 16889 H 1551.07 -4.73897 -3.6816 0
M  V30 16890 H 1552.14 -4.23552 -2.36075 0
M  V30 16891 N 1553.48 0.89303 -1.29857 0
M  V30 16892 C 1554.73 1.64657 -1.18389 0
M  V30 16893 C 1555.06 1.92417 0.262587 0
M  V30 16894 O 1554.34 1.53936 1.18887 0
M  V30 16895 C 1554.62 2.99148 -2.00456 0
M  V30 16896 C 1554.47 2.78411 -3.53281 0
M  V30 16897 C 1555.79 3.99968 -1.83613 0
M  V30 16898 H 1552.91 0.59752 -0.431438 0
M  V30 16899 H 1555.55 1.03397 -1.59402 0
M  V30 16900 H 1553.7 3.51435 -1.65607 0
M  V30 16901 H 1555.38 2.32974 -3.98147 0
M  V30 16902 H 1553.62 2.13067 -3.77869 0
M  V30 16903 H 1554.29 3.74008 -4.05983 0
M  V30 16904 H 1556.77 3.56813 -2.14064 0
M  V30 16905 H 1555.64 4.91997 -2.43373 0
M  V30 16906 H 1555.9 4.34928 -0.793098 0
M  V30 16907 N 1554.96 1.12442 1.10429 0
M  V30 16908 C 1556.19 0.902599 1.86174 0
M  V30 16909 C 1556.6 -0.548147 1.80668 0
M  V30 16910 O 1555.96 -1.37898 1.19543 0
M  V30 16911 C 1556.01 1.36912 3.34571 0
M  V30 16912 O 1555.73 2.763 3.39985 0
M  V30 16913 C 1557.23 1.18424 4.27189 0
M  V30 16914 H 1554.45 0.322534 0.588399 0
M  V30 16915 H 1557 1.49439 1.396 0
M  V30 16916 H 1555.15 0.82055 3.7861 0
M  V30 16917 H 1555.57 2.96772 4.32466 0
M  V30 16918 H 1557.04 1.55954 5.29511 0
M  V30 16919 H 1557.52 0.12483 4.39023 0
M  V30 16920 H 1558.12 1.72032 3.88954 0
M  V30 16921 N 1556.44 -1.28223 0.91633 0
M  V30 16922 C 1557.66 -1.99523 0.566147 0
M  V30 16923 C 1558.09 -1.68 -0.846034 0
M  V30 16924 O 1557.45 -0.913838 -1.56584 0
M  V30 16925 C 1557.5 -3.51949 0.785114 0
M  V30 16926 O 1556.6 -4.1211 -0.154686 0
M  V30 16927 H 1555.94 -0.626764 0.219232 0
M  V30 16928 H 1558.47 -1.63313 1.23247 0
M  V30 16929 H 1558.48 -4.02016 0.696224 0
M  V30 16930 H 1557.16 -3.74227 1.81457 0
M  V30 16931 H 1555.73 -3.72896 -0.0168463 0
M  V30 16932 N 1557.92 -0.68059 -1.42147 0
M  V30 16933 C 1558.85 -0.0199376 -2.33491 0
M  V30 16934 C 1559.83 0.783164 -1.50999 0
M  V30 16935 O 1561.01 0.739154 -1.79583 0
M  V30 16936 C 1558.14 0.927902 -3.34675 0
M  V30 16937 C 1557.1 0.232979 -4.27365 0
M  V30 16938 C 1556.42 1.29415 -5.18802 0
M  V30 16939 C 1557.72 -0.891559 -5.14634 0
M  V30 16940 H 1559.42 -0.782823 -2.88985 0
M  V30 16941 H 1556.96 -0.377898 -1.38953 0
M  V30 16942 H 1558.92 1.3992 -3.97493 0
M  V30 16943 H 1557.64 1.72228 -2.77498 0
M  V30 16944 H 1556.3 -0.21814 -3.6595 0
M  V30 16945 H 1555.95 2.08067 -4.57949 0
M  V30 16946 H 1555.65 0.834274 -5.81647 0
M  V30 16947 H 1557.17 1.76627 -5.84496 0
M  V30 16948 H 1558.59 -0.501219 -5.71105 0
M  V30 16949 H 1556.98 -1.27759 -5.86343 0
M  V30 16950 H 1558.05 -1.73781 -4.5269 0
M  V30 16951 N 1559.4 1.51781 -0.424309 0
M  V30 16952 C 1560.62 2.06387 0.145548 0
M  V30 16953 C 1561.04 1.29299 1.37576 0
M  V30 16954 O 1560.4 0.348952 1.79133 0
M  V30 16955 C 1560.45 3.58288 0.48083 0
M  V30 16956 O 1560.17 4.32463 -0.700546 0
M  V30 16957 C 1561.67 4.29364 1.10278 0
M  V30 16958 H 1558.89 0.67086 0.0136908 0
M  V30 16959 H 1561.43 1.95511 -0.599639 0
M  V30 16960 H 1559.59 3.69122 1.17591 0
M  V30 16961 H 1560 5.22839 -0.417035 0
M  V30 16962 H 1561.48 5.36776 1.28747 0
M  V30 16963 H 1561.95 3.86815 2.08017 0
M  V30 16964 H 1562.56 4.2294 0.447458 0
M  V30 16965 N 1560.87 0.155222 1.56834 0
M  V30 16966 C 1562.12 -0.494557 1.96677 0
M  V30 16967 C 1562.45 -1.63973 1.04051 0
M  V30 16968 O 1561.73 -1.94316 0.0844791 0
M  V30 16969 C 1562.01 -0.992902 3.46141 0
M  V30 16970 C 1561.86 0.151335 4.49545 0
M  V30 16971 C 1563.18 -1.87197 3.98303 0
M  V30 16972 H 1560.3 -0.178298 0.715107 0
M  V30 16973 H 1562.94 0.23811 1.88502 0
M  V30 16974 H 1561.09 -1.61724 3.53239 0
M  V30 16975 H 1562.77 0.787945 4.54521 0
M  V30 16976 H 1561.01 0.809262 4.26185 0
M  V30 16977 H 1561.68 -0.23921 5.51481 0
M  V30 16978 H 1564.16 -1.34578 3.93736 0
M  V30 16979 H 1563.03 -2.18972 5.03331 0
M  V30 16980 H 1563.29 -2.81191 3.41151 0
M  V30 16981 N 1562.35 -1.57153 -0.118549 0
M  V30 16982 C 1563.26 -2.03673 -1.16424 0
M  V30 16983 C 1564.28 -0.957203 -1.45305 0
M  V30 16984 O 1565.45 -1.26874 -1.56413 0
M  V30 16985 C 1562.52 -2.43211 -2.47082 0
M  V30 16986 C 1561.58 -3.65248 -2.25593 0
M  V30 16987 C 1560.81 -4.02891 -3.50021 0
M  V30 16988 O 1561.04 -3.40871 -4.57344 0
M  V30 16989 O 1559.97 -4.95989 -3.40996 0
M  V30 16990 H 1563.8 -2.92996 -0.799206 0
M  V30 16991 H 1561.38 -1.45724 -0.329376 0
M  V30 16992 H 1563.26 -2.69374 -3.24061 0
M  V30 16993 H 1561.94 -1.57034 -2.83058 0
M  V30 16994 H 1560.84 -3.44234 -1.46471 0
M  V30 16995 H 1562.18 -4.52131 -1.94521 0
M  V30 16996 N 1563.83 0.388742 -1.5273 0
M  V30 16997 C 1565.08 1.13204 -1.68987 0
M  V30 16998 C 1565.43 1.87655 -0.42468 0
M  V30 16999 O 1564.72 1.82558 0.581645 0
M  V30 17000 C 1564.92 2.13792 -2.86405 0
M  V30 17001 C 1564.75 1.49221 -4.24221 0
M  V30 17002 C 1563.52 1.25618 -4.89437 0
M  V30 17003 C 1565.71 0.942175 -5.05596 0
M  V30 17004 N 1563.7 0.571547 -6.11234 0
M  V30 17005 C 1565.07 0.385614 -6.188 0
M  V30 17006 C 1567.12 0.83861 -4.90787 0
M  V30 17007 C 1565.83 -0.264384 -7.18814 0
M  V30 17008 C 1567.85 0.202432 -5.91053 0
M  V30 17009 C 1567.21 -0.343357 -7.03563 0
M  V30 17010 H 1563.31 0.400199 -0.671837 0
M  V30 17011 H 1565.9 0.421541 -1.90082 0
M  V30 17012 H 1564.07 2.82178 -2.66889 0
M  V30 17013 H 1565.8 2.8063 -2.91597 0
M  V30 17014 H 1562.55 1.53124 -4.48163 0
M  V30 17015 H 1562.98 0.245264 -6.76556 0
M  V30 17016 H 1567.62 1.24637 -4.04012 0
M  V30 17017 H 1565.34 -0.684158 -8.05199 0
M  V30 17018 H 1568.92 0.123542 -5.81669 0
M  V30 17019 H 1567.8 -0.827856 -7.79818 0
M  V30 17020 N 1565.31 1.43698 0.647203 0
M  V30 17021 C 1566.24 1.43777 1.7721 0
M  V30 17022 C 1567.22 0.298484 1.59837 0
M  V30 17023 O 1568.4 0.493002 1.81939 0
M  V30 17024 C 1565.53 1.2551 3.14587 0
M  V30 17025 C 1564.58 2.42793 3.50647 0
M  V30 17026 S 1565.41 4.05341 3.49941 0
M  V30 17027 C 1566.56 3.89468 4.89965 0
M  V30 17028 H 1566.8 2.38963 1.76873 0
M  V30 17029 H 1564.33 1.30801 0.820387 0
M  V30 17030 H 1566.29 1.15658 3.9387 0
M  V30 17031 H 1564.95 0.318629 3.1248 0
M  V30 17032 H 1564.14 2.25832 4.50573 0
M  V30 17033 H 1563.74 2.49302 2.78791 0
M  V30 17034 H 1566.04 3.52164 5.7878 0
M  V30 17035 H 1566.98 4.89167 5.11978 0
M  V30 17036 H 1567.39 3.21816 4.63783 0
M  V30 17037 N 1566.79 -0.886131 1.30328 0
M  V30 17038 C 1568.03 -1.6346 1.18849 0
M  V30 17039 C 1568.36 -1.93295 -0.257285 0
M  V30 17040 O 1567.63 -1.56858 -1.17356 0
M  V30 17041 H 1566.21 -0.605932 0.43687 0
M  V30 17042 H 1568.87 -1.06177 1.63439 0
M  V30 17043 H 1567.96 -2.58522 1.7485 0
M  V30 17044 N 1568.26 -1.13026 -1.09832 0
M  V30 17045 C 1569.19 -0.826338 -2.18389 0
M  V30 17046 C 1570.18 0.212529 -1.68767 0
M  V30 17047 O 1571.36 0.072363 -1.94065 0
M  V30 17048 C 1568.49 -0.286991 -3.46112 0
M  V30 17049 C 1567.44 -1.25963 -4.09044 0
M  V30 17050 C 1566.77 -0.580231 -5.31542 0
M  V30 17051 C 1568.07 -2.61661 -4.5203 0
M  V30 17052 H 1569.76 -1.73408 -2.4407 0
M  V30 17053 H 1567.31 -0.835201 -1.17305 0
M  V30 17054 H 1569.26 -0.062067 -4.21354 0
M  V30 17055 H 1567.99 0.656121 -3.19942 0
M  V30 17056 H 1566.65 -1.47047 -3.35816 0
M  V30 17057 H 1566.29 0.368222 -5.0165 0
M  V30 17058 H 1565.99 -1.2291 -5.74601 0
M  V30 17059 H 1567.52 -0.36449 -6.09511 0
M  V30 17060 H 1568.93 -2.44569 -5.18516 0
M  V30 17061 H 1567.33 -3.22685 -5.05959 0
M  V30 17062 H 1568.4 -3.19637 -3.64637 0
M  V30 17063 N 1569.74 1.27735 -0.923117 0
M  V30 17064 C 1570.97 1.98682 -0.577317 0
M  V30 17065 C 1571.39 1.68904 0.843608 0
M  V30 17066 O 1570.74 0.947021 1.56006 0
M  V30 17067 C 1570.79 3.52804 -0.788144 0
M  V30 17068 O 1570.51 3.81537 -2.15316 0
M  V30 17069 C 1572.02 4.41006 -0.450437 0
M  V30 17070 H 1569.24 0.634186 -0.2192 0
M  V30 17071 H 1571.78 1.62702 -1.23888 0
M  V30 17072 H 1569.93 3.87012 -0.173441 0
M  V30 17073 H 1570.35 4.76142 -2.19976 0
M  V30 17074 H 1571.82 5.48175 -0.648674 0
M  V30 17075 H 1572.3 4.3489 0.613806 0
M  V30 17076 H 1572.91 4.1231 -1.04308 0
M  V30 17077 N 1571.22 0.688118 1.41784 0
M  V30 17078 C 1572.18 0.0271411 2.29184 0
M  V30 17079 C 1573.18 -0.715537 1.44002 0
M  V30 17080 O 1574.37 -0.551542 1.65238 0
M  V30 17081 C 1571.51 -0.97206 3.26747 0
M  V30 17082 H 1572.7 0.79658 2.89127 0
M  V30 17083 H 1570.25 0.451198 1.49646 0
M  V30 17084 H 1570.99 -1.76953 2.71769 0
M  V30 17085 H 1570.77 -0.442746 3.89592 0
M  V30 17086 H 1572.26 -1.43256 3.92259 0
M  V30 17087 N 1572.7 -1.51554 0.432352 0
M  V30 17088 C 1573.66 -2.26195 -0.369912 0
M  V30 17089 C 1574.66 -1.29446 -0.953961 0
M  V30 17090 O 1575.85 -1.53199 -0.829193 0
M  V30 17091 C 1572.98 -3.04993 -1.52289 0
M  V30 17092 H 1574.18 -2.98551 0.284173 0
M  V30 17093 H 1571.73 -1.55197 0.1854 0
M  V30 17094 H 1572.46 -2.37043 -2.21317 0
M  V30 17095 H 1572.25 -3.76051 -1.11032 0
M  V30 17096 H 1573.74 -3.61547 -2.08982 0
M  V30 17097 N 1574.18 -0.163538 -1.56749 0
M  V30 17098 C 1575.12 0.769787 -2.17584 0
M  V30 17099 C 1576.09 1.23246 -1.11354 0
M  V30 17100 O 1577.28 1.30203 -1.3947 0
M  V30 17101 C 1574.42 1.99685 -2.81461 0
M  V30 17102 C 1573.53 1.57846 -4.0213 0
M  V30 17103 C 1572.67 2.75858 -4.53955 0
M  V30 17104 C 1571.71 2.30473 -5.67053 0
M  V30 17105 N 1570.84 3.41551 -6.13423 0
M  V30 17106 H 1575.68 0.244221 -2.96998 0
M  V30 17107 H 1573.22 0.108821 -1.46697 0
M  V30 17108 H 1575.18 2.71643 -3.16648 0
M  V30 17109 H 1573.81 2.49624 -2.04664 0
M  V30 17110 H 1572.86 0.755907 -3.72814 0
M  V30 17111 H 1574.17 1.20525 -4.8402 0
M  V30 17112 H 1573.33 3.55984 -4.91284 0
M  V30 17113 H 1572.06 3.16434 -3.71107 0
M  V30 17114 H 1571.07 1.48791 -5.29284 0
M  V30 17115 H 1572.29 1.90964 -6.51698 0
M  V30 17116 H 1570.24 3.81717 -5.33506 0
M  V30 17117 H 1570.16 3.08298 -6.90281 0
M  V30 17118 H 1571.43 4.21985 -6.554 0
M  V30 17119 N 1575.65 1.57214 0.110213 0
M  V30 17120 C 1576.6 2.01971 1.1537 0
M  V30 17121 C 1577.6 0.918137 1.42361 0
M  V30 17122 O 1578.8 1.10334 1.4222 0
M  V30 17123 H 1575.18 0.64345 0.3892 0
M  V30 17124 H 1577.15 2.88827 0.749781 0
M  V30 17125 C 1575.9 2.4473 2.46987 0
M  V30 17126 H 1575.22 3.29066 2.27059 0
M  V30 17127 H 1576.66 2.79836 3.1854 0
M  V30 17128 C 1575.12 1.31445 3.10199 0
M  V30 17129 O 1575.65 0.635251 3.96645 0
M  V30 17130 N 1573.86 1.06927 2.70213 0
M  V30 17131 H 1573.4 1.62339 2.0001 0
M  V30 17132 H 1573.36 0.313273 3.12835 0
M  V30 17133 N 1577.13 -0.380637 1.52934 0
M  V30 17134 C 1578.06 -1.47174 1.81279 0
M  V30 17135 C 1579.04 -1.56549 0.665319 0
M  V30 17136 O 1580.23 -1.71362 0.913722 0
M  V30 17137 C 1577.36 -2.84691 1.98918 0
M  V30 17138 C 1576.31 -2.90151 3.14637 0
M  V30 17139 C 1575.64 -4.30198 3.17544 0
M  V30 17140 C 1576.94 -2.59037 4.53539 0
M  V30 17141 H 1578.63 -1.23703 2.7265 0
M  V30 17142 H 1576.18 -0.593654 1.31194 0
M  V30 17143 H 1578.13 -3.61034 2.1733 0
M  V30 17144 H 1576.86 -3.09517 1.04244 0
M  V30 17145 H 1575.51 -2.16257 2.96021 0
M  V30 17146 H 1575.16 -4.52076 2.20536 0
M  V30 17147 H 1574.86 -4.3477 3.95284 0
M  V30 17148 H 1576.39 -5.08435 3.38121 0
M  V30 17149 H 1577.8 -3.25096 4.72214 0
M  V30 17150 H 1576.2 -2.74946 5.33408 0
M  V30 17151 H 1577.27 -1.54342 4.59681 0
M  V30 17152 N 1578.61 -1.44039 -0.639573 0
M  V30 17153 C 1579.56 -1.46693 -1.74543 0
M  V30 17154 C 1580.54 -0.333712 -1.57401 0
M  V30 17155 O 1581.74 -0.578443 -1.67281 0
M  V30 17156 C 1578.87 -1.40586 -3.13194 0
M  V30 17157 C 1577.95 -2.5899 -3.35835 0
M  V30 17158 N 1578.34 -3.84279 -3.28882 0
M  V30 17159 C 1576.64 -2.54005 -3.66602 0
M  V30 17160 C 1577.34 -4.63125 -3.5198 0
M  V30 17161 N 1576.32 -3.94067 -3.74449 0
M  V30 17162 H 1580.12 -2.41419 -1.67612 0
M  V30 17163 H 1577.63 -1.38883 -0.841739 0
M  V30 17164 H 1579.63 -1.4057 -3.92486 0
M  V30 17165 H 1578.29 -0.46891 -3.21296 0
M  V30 17166 H 1579.3 -4.16369 -3.07988 0
M  V30 17167 H 1575.98 -1.69065 -3.81737 0
M  V30 17168 H 1577.37 -5.72151 -3.52268 0
M  V30 17169 N 1580.09 0.879207 -1.30796 0
M  V30 17170 C 1581.04 1.97297 -1.14272 0
M  V30 17171 C 1582.02 1.60802 -0.0562653 0
M  V30 17172 O 1583.21 1.74768 -0.280204 0
M  V30 17173 C 1580.34 3.32799 -0.842604 0
M  V30 17174 C 1579.43 3.7559 -1.96959 0
M  V30 17175 N 1579.82 3.90426 -3.21561 0
M  V30 17176 C 1578.12 4.05031 -1.86725 0
M  V30 17177 C 1578.82 4.2682 -3.9522 0
M  V30 17178 N 1577.8 4.36999 -3.23316 0
M  V30 17179 H 1581.6 2.06865 -2.08768 0
M  V30 17180 H 1579.11 1.0694 -1.2222 0
M  V30 17181 H 1581.11 4.10892 -0.705224 0
M  V30 17182 H 1579.77 3.24563 0.0942269 0
M  V30 17183 H 1580.78 3.75401 -3.56783 0
M  V30 17184 H 1577.46 4.05236 -1.00447 0
M  V30 17185 H 1578.85 4.45973 -5.02551 0
M  V30 17186 N 1581.57 1.13606 1.09231 0
M  V30 17187 C 1582.52 0.810747 2.18013 0
M  V30 17188 C 1583.51 -0.207782 1.68121 0
M  V30 17189 O 1584.72 -0.0647274 1.79884 0
M  V30 17190 H 1581.09 0.244415 0.711172 0
M  V30 17191 H 1583.06 1.73632 2.42682 0
M  V30 17192 C 1581.81 0.295302 3.46444 0
M  V30 17193 H 1581.13 1.07037 3.85205 0
M  V30 17194 H 1582.57 0.106127 4.23867 0
M  V30 17195 C 1581.03 -0.979398 3.2235 0
M  V30 17196 O 1581.56 -2.05483 3.45166 0
M  V30 17197 N 1579.77 -0.911282 2.75942 0
M  V30 17198 H 1579.32 -0.035979 2.57575 0
M  V30 17199 H 1579.27 -1.76476 2.60199 0
M  V30 17200 N 1583.05 -1.27244 0.929878 0
M  V30 17201 C 1583.98 -2.29161 0.448066 0
M  V30 17202 C 1584.96 -1.62806 -0.492776 0
M  V30 17203 O 1586.14 -1.90098 -0.39706 0
M  V30 17204 C 1583.27 -3.46019 -0.298002 0
M  V30 17205 C 1582.23 -4.24384 0.555211 0
M  V30 17206 C 1581.55 -5.33741 -0.320153 0
M  V30 17207 C 1582.85 -4.89535 1.8208 0
M  V30 17208 H 1584.55 -2.69712 1.29983 0
M  V30 17209 H 1582.09 -1.29659 0.626466 0
M  V30 17210 H 1584.04 -4.16419 -0.646024 0
M  V30 17211 H 1582.77 -3.0439 -1.18381 0
M  V30 17212 H 1581.43 -3.55733 0.885971 0
M  V30 17213 H 1581.08 -4.88354 -1.20498 0
M  V30 17214 H 1580.78 -5.8708 0.247241 0
M  V30 17215 H 1582.3 -6.06982 -0.663697 0
M  V30 17216 H 1583.71 -5.52209 1.54071 0
M  V30 17217 H 1582.11 -5.52941 2.33186 0
M  V30 17218 H 1583.18 -4.13113 2.53901 0
M  V30 17219 N 1584.52 -0.695628 -1.41417 0
M  V30 17220 C 1585.45 -0.0447013 -2.33457 0
M  V30 17221 C 1586.43 0.767104 -1.51821 0
M  V30 17222 O 1587.62 0.720066 -1.80357 0
M  V30 17223 C 1584.75 0.892353 -3.3564 0
M  V30 17224 C 1583.7 0.187638 -4.27588 0
M  V30 17225 C 1583.03 1.23906 -5.20146 0
M  V30 17226 C 1584.33 -0.946093 -5.1366 0
M  V30 17227 H 1586.02 -0.81343 -2.88138 0
M  V30 17228 H 1583.57 -0.392614 -1.38544 0
M  V30 17229 H 1585.52 1.35696 -3.98954 0
M  V30 17230 H 1584.25 1.69275 -2.79309 0
M  V30 17231 H 1582.91 -0.256942 -3.65698 0
M  V30 17232 H 1582.55 2.03198 -4.6013 0
M  V30 17233 H 1582.25 0.772536 -5.82499 0
M  V30 17234 H 1583.78 1.70417 -5.86336 0
M  V30 17235 H 1585.19 -0.561764 -5.70541 0
M  V30 17236 H 1583.59 -1.33971 -5.84954 0
M  V30 17237 H 1584.66 -1.78573 -4.50821 0
M  V30 17238 N 1586 1.51322 -0.440383 0
M  V30 17239 C 1586.95 2.2941 0.383883 0
M  V30 17240 C 1587.94 1.35388 1.01816 0
M  V30 17241 O 1589.15 1.52716 0.952775 0
M  V30 17242 H 1585.52 0.738354 0.142611 0
M  V30 17243 H 1587.5 2.96933 -0.295532 0
M  V30 17244 C 1586.24 3.15055 1.47091 0
M  V30 17245 H 1585.57 3.87292 0.992214 0
M  V30 17246 H 1587.01 3.72744 2.02084 0
M  V30 17247 C 1585.47 2.30628 2.45586 0
M  V30 17248 O 1586 1.96801 3.50189 0
M  V30 17249 N 1584.2 1.93792 2.16548 0
M  V30 17250 H 1583.75 2.215 1.31512 0
M  V30 17251 H 1583.71 1.37601 2.82689 0
M  V30 17252 N 1587.48 0.171848 1.5666 0
M  V30 17253 C 1588.43 -0.758237 2.17989 0
M  V30 17254 C 1589.4 -1.22654 1.12006 0
M  V30 17255 O 1590.58 -1.29461 1.40159 0
M  V30 17256 C 1587.72 -1.98189 2.82516 0
M  V30 17257 C 1586.83 -1.55711 4.02962 0
M  V30 17258 C 1585.97 -2.73447 4.55412 0
M  V30 17259 C 1585.01 -2.27462 5.68267 0
M  V30 17260 N 1584.15 -3.38293 6.15225 0
M  V30 17261 H 1588.99 -0.228467 2.97123 0
M  V30 17262 H 1586.52 -0.10104 1.46753 0
M  V30 17263 H 1588.48 -2.6996 3.18084 0
M  V30 17264 H 1587.11 -2.48536 2.05985 0
M  V30 17265 H 1586.16 -0.736126 3.7321 0
M  V30 17266 H 1587.47 -1.17957 4.84652 0
M  V30 17267 H 1586.63 -3.53374 4.93165 0
M  V30 17268 H 1585.37 -3.14462 3.7278 0
M  V30 17269 H 1584.37 -1.45982 5.30065 0
M  V30 17270 H 1585.6 -1.87505 6.52701 0
M  V30 17271 H 1583.54 -3.78882 5.35522 0
M  V30 17272 H 1583.46 -3.04633 6.91907 0
M  V30 17273 H 1584.73 -4.18503 6.57629 0
M  V30 17274 N 1588.96 -1.5727 -0.101874 0
M  V30 17275 C 1590.21 -1.84928 -0.805263 0
M  V30 17276 C 1590.52 -0.760099 -1.80227 0
M  V30 17277 O 1591.73 -0.923594 -2.55308 0
M  V30 17278 C 1590.18 -3.27929 -1.48291 0
M  V30 17279 C 1589.79 -4.44901 -0.526016 0
M  V30 17280 C 1591.53 -3.64819 -2.17043 0
M  V30 17281 C 1589.44 -5.78934 -1.20787 0
M  V30 17282 H 1588.37 -0.689789 -0.304478 0
M  V30 17283 H 1591.02 -1.83408 -0.0581337 0
M  V30 17284 H 1589.4 -3.2397 -2.27726 0
M  V30 17285 H 1590.58 -4.60193 0.236352 0
M  V30 17286 H 1588.89 -4.16363 0.0554387 0
M  V30 17287 H 1591.49 -4.62236 -2.68778 0
M  V30 17288 H 1591.83 -2.93104 -2.95628 0
M  V30 17289 H 1592.37 -3.70637 -1.44476 0
M  V30 17290 H 1589.1 -6.53863 -0.46296 0
M  V30 17291 H 1588.62 -5.67497 -1.94183 0
M  V30 17292 H 1590.3 -6.23268 -1.73626 0
M  V30 17293 N 1590.44 0.372521 -1.53134 0
M  V30 17294 C 1591.68 1.11316 -1.68201 0
M  V30 17295 C 1592 1.90662 -0.436714 0
M  V30 17296 O 1593.2 2.67439 -0.467802 0
M  V30 17297 C 1591.66 2.02808 -2.97317 0
M  V30 17298 C 1591.27 1.28806 -4.29084 0
M  V30 17299 C 1593.01 2.76906 -3.2175 0
M  V30 17300 C 1590.92 2.19159 -5.49294 0
M  V30 17301 H 1589.85 0.419264 -0.626685 0
M  V30 17302 H 1592.5 0.374677 -1.79634 0
M  V30 17303 H 1590.88 2.80359 -2.79669 0
M  V30 17304 H 1592.06 0.563661 -4.5734 0
M  V30 17305 H 1590.37 0.665989 -4.1104 0
M  V30 17306 H 1592.97 3.44721 -4.08744 0
M  V30 17307 H 1593.31 3.41894 -2.37517 0
M  V30 17308 H 1593.84 2.06441 -3.4004 0
M  V30 17309 H 1590.58 1.5876 -6.35984 0
M  V30 17310 H 1590.1 2.89468 -5.25327 0
M  V30 17311 H 1591.78 2.78874 -5.83814 0
M  V30 17312 N 1591.91 1.44376 0.631925 0
M  V30 17313 C 1592.84 1.54005 1.75512 0
M  V30 17314 C 1593.82 0.393126 1.65495 0
M  V30 17315 O 1595.01 0.613143 1.84267 0
M  V30 17316 C 1592.14 1.48313 3.14039 0
M  V30 17317 C 1591.09 2.61474 3.38844 0
M  V30 17318 C 1590.42 2.40834 4.77392 0
M  V30 17319 C 1591.72 4.03627 3.31485 0
M  V30 17320 H 1593.41 2.48019 1.6771 0
M  V30 17321 H 1590.96 1.19368 0.80543 0
M  V30 17322 H 1592.91 1.5365 3.9239 0
M  V30 17323 H 1591.64 0.508152 3.22623 0
M  V30 17324 H 1590.3 2.55525 2.62874 0
M  V30 17325 H 1589.94 1.4153 4.82678 0
M  V30 17326 H 1589.64 3.16703 4.94947 0
M  V30 17327 H 1591.17 2.47988 5.57974 0
M  V30 17328 H 1592.58 4.1095 3.99741 0
M  V30 17329 H 1590.98 4.79694 3.60574 0
M  V30 17330 H 1592.05 4.27255 2.29307 0
M  V30 17331 N 1593.39 -0.872258 1.31261 0
M  V30 17332 C 1594.64 -1.6219 1.20576 0
M  V30 17333 C 1594.96 -1.93557 -0.236769 0
M  V30 17334 O 1594.23 -1.58094 -1.15686 0
M  V30 17335 H 1592.81 -0.601265 0.443272 0
M  V30 17336 H 1595.47 -1.04438 1.64556 0
M  V30 17337 H 1594.57 -2.56653 1.77582 0
M  V30 17338 N 1594.87 -1.14184 -1.08627 0
M  V30 17339 C 1596.28 -0.920108 -1.62453 0
M  V30 17340 C 1596.63 0.541577 -1.88577 0
M  V30 17341 O 1595.76 1.41002 -1.64157 0
M  V30 17342 C 1596.35 -1.6638 -2.95132 0
M  V30 17343 C 1594.91 -1.48771 -3.45752 0
M  V30 17344 C 1594.06 -1.68774 -2.20024 0
M  V30 17345 H 1597.01 -1.29396 -0.91882 0
M  V30 17346 H 1597.03 -1.12568 -3.63468 0
M  V30 17347 H 1596.54 -2.72759 -2.76087 0
M  V30 17348 H 1594.64 -0.44729 -3.69905 0
M  V30 17349 H 1594.76 -2.25619 -4.2265 0
M  V30 17350 H 1593.12 -1.11321 -2.29084 0
M  V30 17351 H 1593.9 -2.76491 -2.03489 0
M  V30 17352 N 1596.35 1.26749 -0.936613 0
M  V30 17353 C 1597.6 1.93255 -0.577524 0
M  V30 17354 C 1597.91 1.74337 0.886905 0
M  V30 17355 O 1599.12 2.3526 1.35517 0
M  V30 17356 C 1597.57 3.4624 -0.982119 0
M  V30 17357 C 1597.18 3.739 -2.46784 0
M  V30 17358 C 1598.92 4.18777 -0.694706 0
M  V30 17359 C 1596.83 5.20303 -2.81138 0
M  V30 17360 H 1595.76 0.723502 -0.212276 0
M  V30 17361 H 1598.41 1.43901 -1.13863 0
M  V30 17362 H 1596.79 3.94454 -0.349577 0
M  V30 17363 H 1597.97 3.3641 -3.14905 0
M  V30 17364 H 1596.28 3.14587 -2.72808 0
M  V30 17365 H 1598.88 5.2659 -0.927756 0
M  V30 17366 H 1599.22 4.14667 0.368392 0
M  V30 17367 H 1599.76 3.76414 -1.28676 0
M  V30 17368 H 1596.5 5.29511 -3.86392 0
M  V30 17369 H 1596.02 5.58907 -2.17675 0
M  V30 17370 H 1597.69 5.88265 -2.69358 0
M  V30 17371 N 1597.83 0.703118 1.41046 0
M  V30 17372 C 1599.24 0.375417 1.55122 0
M  V30 17373 C 1599.44 -1.11696 1.67709 0
M  V30 17374 O 1598.5 -1.90289 1.65971 0
M  V30 17375 C 1599.81 1.13056 2.78638 0
M  V30 17376 C 1601.36 1.11564 2.92442 0
M  V30 17377 C 1601.83 1.85268 4.18855 0
M  V30 17378 N 1603.33 1.82275 4.25829 0
M  V30 17379 C 1604.06 2.36137 5.2252 0
M  V30 17380 N 1603.56 2.98502 6.25195 0
M  V30 17381 N 1605.35 2.26349 5.14512 0
M  V30 17382 H 1597.5 1.67096 1.31121 0
M  V30 17383 H 1599.76 0.705573 0.633144 0
M  V30 17384 H 1599.47 2.18524 2.75572 0
M  V30 17385 H 1599.34 0.714037 3.7038 0
M  V30 17386 H 1601.73 0.0691901 2.95019 0
M  V30 17387 H 1601.81 1.57128 2.01853 0
M  V30 17388 H 1601.46 2.89896 4.1704 0
M  V30 17389 H 1601.39 1.37133 5.08431 0
M  V30 17390 H 1603.88 1.36812 3.52265 0
M  V30 17391 H 1604.19 3.37149 6.95378 0
M  V30 17392 H 1602.53 3.02582 6.25675 0
M  V30 17393 H 1605.73 1.77294 4.33226 0
M  V30 17394 H 1605.9 2.68629 5.89697 0
M  V30 17395 N 1599.3 -1.51086 0.448402 0
M  V30 17396 C 1600.55 -2.02177 -0.114342 0
M  V30 17397 C 1600.88 -1.3319 -1.41742 0
M  V30 17398 O 1600.13 -0.439101 -1.9071 0
M  V30 17399 C 1600.43 -3.55488 -0.369232 0
M  V30 17400 C 1600.1 -4.42828 0.849372 0
M  V30 17401 C 1598.76 -4.66418 1.18354 0
M  V30 17402 C 1601.11 -4.93998 1.66179 0
M  V30 17403 C 1598.44 -5.38424 2.33059 0
M  V30 17404 C 1600.79 -5.67262 2.79994 0
M  V30 17405 C 1599.46 -5.89113 3.13851 0
M  V30 17406 H 1598.73 -0.739818 -0.0418407 0
M  V30 17407 H 1601.37 -1.81928 0.597857 0
M  V30 17408 H 1599.68 -3.74127 -1.16344 0
M  V30 17409 H 1601.38 -3.92563 -0.818248 0
M  V30 17410 H 1597.97 -4.24671 0.578998 0
M  V30 17411 H 1602.15 -4.75647 1.41683 0
M  V30 17412 H 1597.41 -5.53554 2.59592 0
M  V30 17413 H 1601.58 -6.05899 3.43307 0
M  V30 17414 H 1599.21 -6.44686 4.02844 0
M  V30 17415 N 1600.78 -0.180154 -1.56567 0
M  V30 17416 C 1602.03 0.46252 -1.97147 0
M  V30 17417 C 1602.36 1.62654 -1.06649 0
M  V30 17418 O 1601.61 1.95432 -0.102417 0
M  V30 17419 C 1601.91 0.978895 -3.43733 0
M  V30 17420 C 1601.58 -0.0701623 -4.50845 0
M  V30 17421 C 1600.24 -0.358456 -4.79863 0
M  V30 17422 C 1602.59 -0.781763 -5.15304 0
M  V30 17423 C 1599.92 -1.36359 -5.70634 0
M  V30 17424 C 1602.27 -1.77594 -6.0716 0
M  V30 17425 C 1600.94 -2.07159 -6.3454 0
M  V30 17426 H 1600.21 0.169248 -0.721413 0
M  V30 17427 H 1602.85 -0.273976 -1.8953 0
M  V30 17428 H 1601.16 1.79338 -3.48346 0
M  V30 17429 H 1602.85 1.4853 -3.72478 0
M  V30 17430 H 1599.44 0.164708 -4.28283 0
M  V30 17431 H 1603.63 -0.572254 -4.9299 0
M  V30 17432 H 1598.88 -1.59872 -5.90128 0
M  V30 17433 H 1603.06 -2.33265 -6.56171 0
M  V30 17434 H 1600.69 -2.85191 -7.04677 0
M  V30 17435 N 1602.26 1.57322 0.0935319 0
M  V30 17436 C 1603.54 1.77187 0.828503 0
M  V30 17437 C 1603.92 0.762216 1.96859 0
M  V30 17438 O 1603.27 -0.208982 2.27542 0
M  V30 17439 C 1603.48 3.23007 1.32163 0
M  V30 17440 C 1604.82 3.86233 1.76379 0
M  V30 17441 O 1605.85 3.26766 1.41783 0
M  V30 17442 O 1604.71 4.90808 2.40354 0
M  V30 17443 H 1601.8 0.726401 0.395311 0
M  V30 17444 H 1604.35 1.69533 0.0752924 0
M  V30 17445 H 1603.12 3.88029 0.504863 0
M  V30 17446 H 1602.74 3.353 2.13681 0
M  V30 17447 N 1603.74 -0.364395 1.53329 0
M  V30 17448 C 1604.97 -1.1275 1.7348 0
M  V30 17449 C 1605.38 -1.83002 0.4643 0
M  V30 17450 O 1604.74 -1.73603 -0.562864 0
M  V30 17451 C 1604.79 -2.15691 2.90103 0
M  V30 17452 O 1604.51 -1.48298 4.12237 0
M  V30 17453 C 1606.01 -3.04539 3.22135 0
M  V30 17454 H 1603.23 -0.337084 0.580186 0
M  V30 17455 H 1605.78 -0.422952 2.00078 0
M  V30 17456 H 1603.93 -2.81742 2.65895 0
M  V30 17457 H 1604.34 -2.16896 4.77553 0
M  V30 17458 H 1605.82 -3.72747 4.07141 0
M  V30 17459 H 1606.3 -3.69414 2.3755 0
M  V30 17460 H 1606.9 -2.44103 3.48273 0
M  V30 17461 N 1605.22 -1.44709 -0.62426 0
M  V30 17462 C 1606.44 -1.51348 -1.41072 0
M  V30 17463 C 1606.86 -0.140576 -1.88276 0
M  V30 17464 O 1606.22 0.854821 -1.61242 0
M  V30 17465 C 1606.27 -2.48396 -2.62643 0
M  V30 17466 O 1605.99 -3.8035 -2.17406 0
M  V30 17467 C 1607.49 -2.64568 -3.55694 0
M  V30 17468 H 1604.71 -0.513092 -0.432409 0
M  V30 17469 H 1607.25 -1.89739 -0.762841 0
M  V30 17470 H 1605.41 -2.13122 -3.23508 0
M  V30 17471 H 1605.82 -4.32809 -2.96272 0
M  V30 17472 H 1607.3 -3.36486 -4.37585 0
M  V30 17473 H 1607.77 -1.70031 -4.04952 0
M  V30 17474 H 1608.38 -3.00771 -3.00694 0
M  V30 17475 N 1606.69 0.865285 -1.31722 0
M  V30 17476 C 1608.11 1.43445 -1.195 0
M  V30 17477 C 1608.46 1.95212 0.196688 0
M  V30 17478 O 1607.58 1.86666 1.09475 0
M  V30 17479 C 1608.18 2.6074 -2.16333 0
M  V30 17480 C 1606.74 3.13688 -2.08031 0
M  V30 17481 C 1605.88 1.86409 -2.05298 0
M  V30 17482 H 1608.83 0.6734 -1.43705 0
M  V30 17483 H 1608.85 3.37575 -1.75566 0
M  V30 17484 H 1608.37 2.23033 -3.17612 0
M  V30 17485 H 1606.47 3.56004 -1.09962 0
M  V30 17486 H 1606.58 3.75653 -2.97358 0
M  V30 17487 H 1604.94 2.05567 -1.50381 0
M  V30 17488 H 1605.73 1.50933 -3.08341 0
M  V30 17489 N 1608.17 1.14759 1.0802 0
M  V30 17490 C 1609.1 0.860977 2.17047 0
M  V30 17491 C 1610.08 -0.185652 1.69084 0
M  V30 17492 O 1611.27 -0.0414797 1.94156 0
M  V30 17493 C 1608.4 0.342018 3.45612 0
M  V30 17494 C 1607.35 1.32455 4.06989 0
M  V30 17495 C 1606.68 0.664721 5.30552 0
M  V30 17496 C 1607.98 2.68819 4.4781 0
M  V30 17497 H 1609.67 1.77269 2.4128 0
M  V30 17498 H 1607.22 0.853757 1.15961 0
M  V30 17499 H 1609.17 0.129093 4.21202 0
M  V30 17500 H 1607.9 -0.605138 3.20945 0
M  V30 17501 H 1606.55 1.52371 3.33435 0
M  V30 17502 H 1606.2 -0.288367 5.02173 0
M  V30 17503 H 1605.9 1.32036 5.72573 0
M  V30 17504 H 1607.43 0.461412 6.08854 0
M  V30 17505 H 1608.84 2.52787 5.14559 0
M  V30 17506 H 1607.24 3.30694 5.00761 0
M  V30 17507 H 1608.31 3.25398 3.59506 0
M  V30 17508 N 1609.65 -1.26251 0.943322 0
M  V30 17509 C 1610.9 -1.9327 0.590863 0
M  V30 17510 C 1611.22 -1.74356 -0.873212 0
M  V30 17511 O 1610.49 -1.10046 -1.6207 0
M  V30 17512 H 1609.07 -0.71523 0.215535 0
M  V30 17513 H 1611.73 -1.53647 1.19911 0
M  V30 17514 H 1610.83 -3.01393 0.810475 0
M  V30 17515 N 1611.13 -0.710588 -1.40671 0
M  V30 17516 C 1612.06 -0.0694601 -2.33397 0
M  V30 17517 C 1613.04 0.750959 -1.52626 0
M  V30 17518 O 1614.23 0.700896 -1.81111 0
M  V30 17519 C 1611.36 0.856704 -3.36568 0
M  V30 17520 C 1610.31 0.142276 -4.27763 0
M  V30 17521 C 1609.64 1.18382 -5.21431 0
M  V30 17522 C 1610.94 -1.00052 -5.12627 0
M  V30 17523 H 1612.63 -0.843945 -2.87259 0
M  V30 17524 H 1610.18 -0.407287 -1.3812 0
M  V30 17525 H 1612.13 1.31457 -4.00371 0
M  V30 17526 H 1610.85 1.66303 -2.81089 0
M  V30 17527 H 1609.51 -0.295714 -3.65405 0
M  V30 17528 H 1609.16 1.98306 -4.62259 0
M  V30 17529 H 1608.86 0.71071 -5.83286 0
M  V30 17530 H 1610.38 1.64189 -5.88111 0
M  V30 17531 H 1611.8 -0.622246 -5.69913 0
M  V30 17532 H 1610.19 -1.40168 -5.83501 0
M  V30 17533 H 1611.26 -1.83345 -4.48902 0
M  V30 17534 N 1612.61 1.50847 -0.456408 0
M  V30 17535 C 1613.86 2.01425 0.105223 0
M  V30 17536 C 1614.17 1.34413 1.421 0
M  V30 17537 O 1615.38 1.76066 2.06671 0
M  V30 17538 C 1613.83 3.59112 0.238051 0
M  V30 17539 C 1613.44 4.35073 -1.06842 0
M  V30 17540 C 1615.18 4.17778 0.752428 0
M  V30 17541 C 1613.09 5.84509 -0.900194 0
M  V30 17542 H 1612.02 0.752767 0.0430992 0
M  V30 17543 H 1614.67 1.73788 -0.589075 0
M  V30 17544 H 1613.05 3.83275 0.995795 0
M  V30 17545 H 1614.23 4.22645 -1.83598 0
M  V30 17546 H 1612.54 3.87948 -1.51278 0
M  V30 17547 H 1615.14 5.27155 0.895088 0
M  V30 17548 H 1615.48 3.78195 1.73994 0
M  V30 17549 H 1616.02 3.97765 0.052476 0
M  V30 17550 H 1612.75 6.28538 -1.86064 0
M  V30 17551 H 1612.27 5.99551 -0.172767 0
M  V30 17552 H 1613.95 6.44564 -0.560943 0
M  V30 17553 N 1614.09 0.188454 1.56469 0
M  V30 17554 C 1615.02 -0.730379 2.21783 0
M  V30 17555 C 1616 -1.22629 1.17882 0
M  V30 17556 O 1617.18 -1.27634 1.46367 0
M  V30 17557 C 1614.31 -1.95278 2.872 0
M  V30 17558 C 1613.27 -1.59205 3.97288 0
M  V30 17559 C 1612.59 -2.89052 4.49836 0
M  V30 17560 C 1613.89 -0.807027 5.16027 0
M  V30 17561 H 1615.59 -0.185914 2.98822 0
M  V30 17562 H 1613.13 -0.0879804 1.43731 0
M  V30 17563 H 1615.08 -2.60074 3.31571 0
M  V30 17564 H 1613.81 -2.52167 2.07556 0
M  V30 17565 H 1612.47 -0.967713 3.53597 0
M  V30 17566 H 1612.12 -3.44017 3.66963 0
M  V30 17567 H 1611.82 -2.65663 5.24115 0
M  V30 17568 H 1613.34 -3.54847 4.96906 0
M  V30 17569 H 1614.75 -1.35794 5.56986 0
M  V30 17570 H 1613.15 -0.671516 5.96331 0
M  V30 17571 H 1614.22 0.193251 4.84515 0
M  V30 17572 N 1615.56 -1.5737 -0.0851874 0
M  V30 17573 C 1616.51 -2.03781 -1.12142 0
M  V30 17574 C 1617.51 -0.940669 -1.40882 0
M  V30 17575 O 1618.71 -1.12582 -1.40447 0
M  V30 17576 H 1615.09 -0.64956 -0.378914 0
M  V30 17577 H 1617.06 -2.89983 -0.703736 0
M  V30 17578 C 1615.81 -2.48628 -2.43062 0
M  V30 17579 H 1615.13 -3.32637 -2.21795 0
M  V30 17580 H 1616.57 -2.84869 -3.14048 0
M  V30 17581 C 1615.03 -1.36364 -3.08069 0
M  V30 17582 O 1615.56 -0.698273 -3.95584 0
M  V30 17583 N 1613.76 -1.11213 -2.68477 0
M  V30 17584 H 1613.31 -1.655 -1.97402 0
M  V30 17585 H 1613.27 -0.363003 -3.12297 0
M  V30 17586 N 1617.04 0.356258 -1.53521 0
M  V30 17587 C 1618.46 0.698546 -1.43501 0
M  V30 17588 C 1618.66 1.92926 -0.581547 0
M  V30 17589 O 1617.71 2.5241 -0.0675947 0
M  V30 17590 C 1619.03 0.903047 -2.8682 0
M  V30 17591 C 1620.57 1.00247 -2.96512 0
M  V30 17592 C 1621.05 1.23938 -4.40912 0
M  V30 17593 N 1622.54 1.30687 -4.44382 0
M  V30 17594 C 1623.28 1.50745 -5.5323 0
M  V30 17595 N 1622.77 1.68058 -6.72107 0
M  V30 17596 N 1624.56 1.5319 -5.40823 0
M  V30 17597 H 1616.72 -0.453102 -2.07511 0
M  V30 17598 H 1618.98 -0.140708 -0.937499 0
M  V30 17599 H 1618.68 0.070416 -3.5163 0
M  V30 17600 H 1618.56 1.80847 -3.3102 0
M  V30 17601 H 1620.95 1.82564 -2.3185 0
M  V30 17602 H 1621.03 0.0742303 -2.55692 0
M  V30 17603 H 1620.67 0.421189 -5.06151 0
M  V30 17604 H 1620.6 2.18098 -4.79313 0
M  V30 17605 H 1623.09 1.18883 -3.58713 0
M  V30 17606 H 1623.4 1.82963 -7.50829 0
M  V30 17607 H 1621.75 1.65219 -6.75076 0
M  V30 17608 H 1624.94 1.39237 -4.46912 0
M  V30 17609 H 1625.11 1.6848 -6.25714 0
M  V30 17610 N 1618.52 1.45038 0.616577 0
M  V30 17611 C 1619.77 1.48585 1.37582 0
M  V30 17612 C 1620.09 0.124065 1.94104 0
M  V30 17613 O 1619.35 -0.876112 1.74994 0
M  V30 17614 C 1619.65 2.50545 2.54876 0
M  V30 17615 C 1619.31 3.95493 2.16555 0
M  V30 17616 C 1617.98 4.34963 2.05818 0
M  V30 17617 C 1620.33 4.86685 1.86512 0
M  V30 17618 C 1617.66 5.63531 1.63246 0
M  V30 17619 C 1620.01 6.15657 1.4543 0
M  V30 17620 C 1618.67 6.54066 1.33244 0
M  V30 17621 H 1617.94 0.543711 0.503447 0
M  V30 17622 H 1620.59 1.78334 0.697787 0
M  V30 17623 H 1618.89 2.14332 3.27977 0
M  V30 17624 H 1620.59 2.50531 3.13106 0
M  V30 17625 H 1617.18 3.64275 2.25836 0
M  V30 17626 H 1621.37 4.56936 1.9371 0
M  V30 17627 H 1616.62 5.92094 1.52427 0
M  V30 17628 H 1620.8 6.85768 1.21226 0
M  V30 17629 H 1618.42 7.5359 1.0003 0
M  V30 17630 N 1620 -0.858287 1.32179 0
M  V30 17631 C 1621.22 -1.64997 1.25662 0
M  V30 17632 C 1621.65 -1.87303 -0.173021 0
M  V30 17633 O 1621.01 -1.42319 -1.12317 0
M  V30 17634 C 1621.05 -2.98855 2.01787 0
M  V30 17635 O 1620.16 -3.89218 1.36319 0
M  V30 17636 H 1619.5 -0.503169 0.433264 0
M  V30 17637 H 1622.03 -1.06926 1.74436 0
M  V30 17638 H 1622.04 -3.48704 2.11824 0
M  V30 17639 H 1620.71 -2.81941 3.05748 0
M  V30 17640 H 1619.29 -3.4768 1.34807 0
M  V30 17641 N 1621.48 -1.1533 -1.07409 0
M  V30 17642 C 1622.44 -0.852155 -2.1277 0
M  V30 17643 C 1623.44 0.14782 -1.60119 0
M  V30 17644 O 1624.63 -0.0817436 -1.74008 0
M  V30 17645 C 1621.76 -0.272233 -3.39811 0
M  V30 17646 H 1622.95 -1.78604 -2.40917 0
M  V30 17647 H 1620.51 -0.960698 -1.23289 0
M  V30 17648 H 1621.24 0.669873 -3.17306 0
M  V30 17649 H 1621.03 -0.992629 -3.79327 0
M  V30 17650 H 1622.52 -0.0790986 -4.17525 0
M  V30 17651 N 1622.95 1.25748 -0.950004 0
M  V30 17652 C 1624.23 1.88566 -0.519839 0
M  V30 17653 C 1624.61 1.85761 1.00279 0
M  V30 17654 O 1623.96 1.31797 1.8666 0
M  V30 17655 C 1624.17 3.31502 -1.09121 0
M  V30 17656 C 1625.52 4.08298 -1.16524 0
M  V30 17657 O 1626.54 3.40605 -1.04243 0
M  V30 17658 O 1625.4 5.29375 -1.35735 0
M  V30 17659 H 1622.49 0.809175 -0.170777 0
M  V30 17660 H 1625.04 1.33853 -1.04314 0
M  V30 17661 H 1623.81 3.2795 -2.13458 0
M  V30 17662 H 1623.43 3.93765 -0.550881 0
M  V30 17663 N 1624.43 0.718038 1.40292 0
M  V30 17664 C 1625.66 0.268326 2.05153 0
M  V30 17665 C 1626.07 -1.09075 1.54104 0
M  V30 17666 O 1625.43 -1.68597 0.698654 0
M  V30 17667 C 1625.48 0.242222 3.60688 0
M  V30 17668 O 1625.2 1.54764 4.09853 0
M  V30 17669 C 1626.7 -0.225741 4.42725 0
M  V30 17670 H 1623.92 0.120165 0.660153 0
M  V30 17671 H 1626.47 0.976933 1.79656 0
M  V30 17672 H 1624.62 -0.417367 3.85145 0
M  V30 17673 H 1625.04 1.44976 5.04066 0
M  V30 17674 H 1626.51 -0.192857 5.51663 0
M  V30 17675 H 1626.99 -1.26829 4.20489 0
M  V30 17676 H 1627.59 0.40366 4.2338 0
M  V30 17677 N 1625.91 -1.50602 0.464402 0
M  V30 17678 C 1626.86 -2.29992 -0.347337 0
M  V30 17679 C 1627.85 -1.36991 -0.996489 0
M  V30 17680 O 1629.06 -1.54213 -0.928359 0
M  V30 17681 H 1625.43 -0.740529 -0.130847 0
M  V30 17682 H 1627.4 -2.96425 0.342734 0
M  V30 17683 C 1626.15 -3.17355 -1.4206 0
M  V30 17684 H 1625.48 -3.88822 -0.930473 0
M  V30 17685 H 1626.92 -3.75912 -1.96129 0
M  V30 17686 C 1625.38 -2.34506 -2.41886 0
M  V30 17687 O 1625.91 -2.02347 -3.47014 0
M  V30 17688 N 1624.11 -1.97212 -2.13438 0
M  V30 17689 H 1623.66 -2.23564 -1.27971 0
M  V30 17690 H 1623.62 -1.42081 -2.80464 0
M  V30 17691 N 1627.39 -0.19675 -1.56367 0
M  V30 17692 C 1628.64 0.441807 -1.96802 0
M  V30 17693 C 1628.95 1.62645 -1.08656 0
M  V30 17694 O 1630.16 2.33291 -1.3888 0
M  V30 17695 C 1628.61 0.837415 -3.50022 0
M  V30 17696 C 1628.22 -0.323031 -4.46834 0
M  V30 17697 C 1629.96 1.44296 -3.99223 0
M  V30 17698 C 1627.87 0.0936285 -5.91326 0
M  V30 17699 H 1626.8 0.168834 -0.734854 0
M  V30 17700 H 1629.45 -0.289029 -1.81209 0
M  V30 17701 H 1627.83 1.62497 -3.61124 0
M  V30 17702 H 1629.01 -1.10056 -4.47464 0
M  V30 17703 H 1627.32 -0.840182 -4.07836 0
M  V30 17704 H 1629.92 1.76718 -5.04653 0
M  V30 17705 H 1630.26 2.35003 -3.43627 0
M  V30 17706 H 1630.8 0.71935 -3.91242 0
M  V30 17707 H 1627.54 -0.779297 -6.50851 0
M  V30 17708 H 1627.06 0.835984 -5.93946 0
M  V30 17709 H 1628.73 0.528864 -6.44835 0
M  V30 17710 N 1628.87 1.57413 0.0768405 0
M  V30 17711 C 1630.12 1.86186 0.775741 0
M  V30 17712 C 1630.43 0.788676 1.78995 0
M  V30 17713 O 1631.63 0.964095 2.53806 0
M  V30 17714 C 1630.09 3.30247 1.43055 0
M  V30 17715 C 1629.7 4.45682 0.45517 0
M  V30 17716 C 1631.44 3.68225 2.11211 0
M  V30 17717 C 1629.35 5.80782 1.11561 0
M  V30 17718 H 1628.28 0.694546 0.293466 0
M  V30 17719 H 1630.93 1.83477 0.0289478 0
M  V30 17720 H 1629.31 3.27552 2.22544 0
M  V30 17721 H 1630.49 4.59759 -0.309535 0
M  V30 17722 H 1628.8 4.16222 -0.121671 0
M  V30 17723 H 1631.4 4.66454 2.6139 0
M  V30 17724 H 1631.74 2.9777 2.90928 0
M  V30 17725 H 1632.27 3.72888 1.38561 0
M  V30 17726 H 1629.01 6.54517 0.358877 0
M  V30 17727 H 1628.53 5.70515 1.8513 0
M  V30 17728 H 1630.21 6.25951 1.63689 0
M  V30 17729 N 1630.34 -0.348112 1.53707 0
M  V30 17730 C 1631.62 -1.1056 1.61356 0
M  V30 17731 C 1632 -2.06633 0.431955 0
M  V30 17732 O 1631.35 -2.21115 -0.576211 0
M  V30 17733 C 1631.56 -1.82929 2.97217 0
M  V30 17734 C 1632.91 -2.36837 3.52411 0
M  V30 17735 O 1633.93 -1.93032 2.99361 0
M  V30 17736 O 1632.79 -3.16966 4.45191 0
M  V30 17737 H 1629.88 -0.50817 0.652451 0
M  V30 17738 H 1632.43 -0.349971 1.66052 0
M  V30 17739 H 1631.2 -1.12912 3.74655 0
M  V30 17740 H 1630.83 -2.65361 2.9609 0
M  V30 17741 N 1631.82 -1.45363 -0.608876 0
M  V30 17742 C 1632.75 -1.49944 -1.73348 0
M  V30 17743 C 1633.77 -0.390352 -1.58051 0
M  V30 17744 O 1634.96 -0.657338 -1.65956 0
M  V30 17745 C 1632.06 -1.33886 -3.11332 0
M  V30 17746 C 1631.23 -2.58445 -3.52881 0
M  V30 17747 C 1630.29 -2.36963 -4.69825 0
M  V30 17748 O 1629.31 -3.10569 -4.77007 0
M  V30 17749 N 1630.52 -1.41442 -5.63005 0
M  V30 17750 H 1633.28 -2.46902 -1.69882 0
M  V30 17751 H 1630.84 -1.41086 -0.794119 0
M  V30 17752 H 1632.83 -1.17327 -3.8732 0
M  V30 17753 H 1631.4 -0.452095 -3.09314 0
M  V30 17754 H 1630.62 -2.90129 -2.66869 0
M  V30 17755 H 1631.91 -3.41245 -3.77398 0
M  V30 17756 H 1631.31 -0.806941 -5.59915 0
M  V30 17757 H 1629.87 -1.30855 -6.3853 0
M  V30 17758 N 1633.3 0.851265 -1.32632 0
M  V30 17759 C 1634.25 1.94828 -1.18431 0
M  V30 17760 C 1635.23 1.60646 -0.090361 0
M  V30 17761 O 1636.43 1.74134 -0.317212 0
M  V30 17762 C 1633.56 3.30937 -0.913006 0
M  V30 17763 C 1632.64 3.71328 -2.04882 0
M  V30 17764 N 1633.03 3.83517 -3.2977 0
M  V30 17765 C 1631.33 4.00979 -1.95274 0
M  V30 17766 C 1632.03 4.18341 -4.04185 0
M  V30 17767 N 1631.01 4.30043 -3.32512 0
M  V30 17768 H 1634.81 2.0239 -2.13109 0
M  V30 17769 H 1632.32 1.04323 -1.2446 0
M  V30 17770 H 1634.32 4.09304 -0.792221 0
M  V30 17771 H 1632.98 3.2469 0.0253611 0
M  V30 17772 H 1633.99 3.67749 -3.64666 0
M  V30 17773 H 1630.67 4.03015 -1.0902 0
M  V30 17774 H 1632.06 4.35213 -5.11898 0
M  V30 17775 N 1634.78 1.15898 1.06796 0
M  V30 17776 C 1636.03 0.931848 1.78884 0
M  V30 17777 C 1636.34 -0.54197 1.87942 0
M  V30 17778 O 1637.55 -0.886848 2.56607 0
M  V30 17779 C 1636 1.61788 3.21485 0
M  V30 17780 C 1635.61 3.12911 3.2061 0
M  V30 17781 C 1637.35 1.47252 3.98142 0
M  V30 17782 C 1635.26 3.74275 4.579 0
M  V30 17783 H 1634.19 0.344998 0.670442 0
M  V30 17784 H 1636.84 1.38974 1.19827 0
M  V30 17785 H 1635.22 1.08769 3.80769 0
M  V30 17786 H 1636.4 3.72732 2.70938 0
M  V30 17787 H 1634.71 3.27273 2.57451 0
M  V30 17788 H 1637.31 1.90484 4.9962 0
M  V30 17789 H 1637.65 0.420766 4.14168 0
M  V30 17790 H 1638.19 1.97398 3.45367 0
M  V30 17791 H 1634.93 4.79376 4.47078 0
M  V30 17792 H 1634.45 3.19238 5.07786 0
M  V30 17793 H 1636.12 3.75532 5.26863 0
M  V30 17794 N 1636.26 -1.25243 0.956659 0
M  V30 17795 C 1637.67 -1.74909 0.652979 0
M  V30 17796 C 1638.02 -1.77704 -0.831605 0
M  V30 17797 O 1637.14 -1.39921 -1.65079 0
M  V30 17798 C 1637.74 -3.17639 1.1786 0
M  V30 17799 C 1636.3 -3.64856 0.925034 0
M  V30 17800 C 1635.44 -2.43844 1.32044 0
M  V30 17801 H 1638.4 -1.11101 1.13324 0
M  V30 17802 H 1638.42 -3.76654 0.539633 0
M  V30 17803 H 1637.93 -3.15572 2.25911 0
M  V30 17804 H 1636.03 -3.72335 -0.14043 0
M  V30 17805 H 1636.14 -4.5289 1.56292 0
M  V30 17806 H 1634.51 -2.43749 0.738813 0
M  V30 17807 H 1635.29 -2.44466 2.41021 0
M  V30 17808 N 1637.73 -0.725468 -1.3991 0
M  V30 17809 C 1639.15 -0.340415 -1.8357 0
M  V30 17810 C 1639.5 1.1266 -1.6063 0
M  V30 17811 O 1638.62 1.86804 -1.0924 0
M  V30 17812 C 1639.22 -0.611079 -3.33244 0
M  V30 17813 C 1637.78 -0.279627 -3.7536 0
M  V30 17814 C 1636.92 -0.878498 -2.63017 0
M  V30 17815 H 1639.87 -0.923856 -1.29037 0
M  V30 17816 H 1639.89 0.120377 -3.8031 0
M  V30 17817 H 1639.41 -1.67886 -3.49908 0
M  V30 17818 H 1637.51 0.782703 -3.64286 0
M  V30 17819 H 1637.62 -0.755528 -4.73105 0
M  V30 17820 H 1635.98 -0.305813 -2.52857 0
M  V30 17821 H 1636.77 -1.95075 -2.8249 0
M  V30 17822 N 1639.21 1.50354 -0.472382 0
M  V30 17823 C 1640.44 2.06746 0.0798134 0
M  V30 17824 C 1640.86 1.3361 1.33393 0
M  V30 17825 O 1640.21 0.405765 1.77932 0
M  V30 17826 C 1640.26 3.59636 0.3666 0
M  V30 17827 O 1639.98 4.30015 -0.837776 0
M  V30 17828 C 1641.49 4.32655 0.965618 0
M  V30 17829 H 1638.71 0.670956 -0.00765904 0
M  V30 17830 H 1641.25 1.93504 -0.661535 0
M  V30 17831 H 1639.4 3.72676 1.05788 0
M  V30 17832 H 1639.82 5.21248 -0.583161 0
M  V30 17833 H 1641.29 5.406 1.11604 0
M  V30 17834 H 1641.77 3.93237 1.95606 0
M  V30 17835 H 1642.38 4.24149 0.312676 0
M  V30 17836 N 1640.69 0.205039 1.56261 0
M  V30 17837 C 1641.62 -0.706815 2.22545 0
M  V30 17838 C 1642.6 -1.21372 1.19176 0
M  V30 17839 O 1643.79 -1.26074 1.47712 0
M  V30 17840 C 1640.92 -1.92221 2.89255 0
M  V30 17841 C 1639.87 -1.54982 3.98954 0
M  V30 17842 C 1639.2 -2.84265 4.52877 0
M  V30 17843 C 1640.5 -0.75225 5.16854 0
M  V30 17844 H 1642.19 -0.15421 2.99003 0
M  V30 17845 H 1639.74 -0.0727309 1.43816 0
M  V30 17846 H 1641.69 -2.56542 3.34311 0
M  V30 17847 H 1640.41 -2.49952 2.10218 0
M  V30 17848 H 1639.07 -0.930155 3.54604 0
M  V30 17849 H 1638.72 -3.40105 3.70591 0
M  V30 17850 H 1638.42 -2.60089 5.26904 0
M  V30 17851 H 1639.95 -3.49557 5.00642 0
M  V30 17852 H 1641.36 -1.29878 5.58395 0
M  V30 17853 H 1639.76 -0.60823 5.9701 0
M  V30 17854 H 1640.83 0.24463 4.84283 0
M  V30 17855 N 1642.17 -1.57451 -0.0684915 0
M  V30 17856 C 1643.08 -2.07274 -1.09885 0
M  V30 17857 C 1644.1 -1.00295 -1.42186 0
M  V30 17858 O 1645.27 -1.31786 -1.52297 0
M  V30 17859 C 1642.34 -2.50949 -2.39219 0
M  V30 17860 C 1641.4 -3.7224 -2.13859 0
M  V30 17861 C 1640.63 -4.13823 -3.37026 0
M  V30 17862 O 1640.85 -3.55248 -4.46268 0
M  V30 17863 O 1639.79 -5.06587 -3.25044 0
M  V30 17864 H 1643.61 -2.9539 -0.705587 0
M  V30 17865 H 1641.2 -1.46698 -0.282849 0
M  V30 17866 H 1643.08 -2.79547 -3.15327 0
M  V30 17867 H 1641.76 -1.6596 -2.77919 0
M  V30 17868 H 1640.66 -3.4872 -1.35445 0
M  V30 17869 H 1642 -4.58091 -1.80038 0
M  V30 17870 N 1643.65 0.339955 -1.5389 0
M  V30 17871 C 1644.87 1.10417 -1.75564 0
M  V30 17872 C 1645.3 1.81466 -0.495156 0
M  V30 17873 O 1644.66 1.72679 0.552415 0
M  V30 17874 C 1644.7 2.09056 -2.93816 0
M  V30 17875 O 1643.81 3.16645 -2.64215 0
M  V30 17876 H 1643.15 0.319164 -0.582263 0
M  V30 17877 H 1645.68 0.389251 -2.00863 0
M  V30 17878 H 1645.69 2.52215 -3.20705 0
M  V30 17879 H 1644.36 1.56741 -3.85234 0
M  V30 17880 H 1642.94 2.78278 -2.48225 0
M  V30 17881 N 1645.13 1.45684 0.601159 0
M  V30 17882 C 1646.06 1.57694 1.72206 0
M  V30 17883 C 1647.04 0.428141 1.64624 0
M  V30 17884 O 1648.22 0.65209 1.82925 0
M  V30 17885 C 1645.35 1.54941 3.10822 0
M  V30 17886 C 1644.31 2.68603 3.33222 0
M  V30 17887 C 1643.63 2.50906 4.72176 0
M  V30 17888 C 1644.93 4.10568 3.22849 0
M  V30 17889 H 1646.63 2.51521 1.62412 0
M  V30 17890 H 1644.17 1.2105 0.779929 0
M  V30 17891 H 1646.12 1.61939 3.89042 0
M  V30 17892 H 1644.85 0.576471 3.21472 0
M  V30 17893 H 1643.51 2.61043 2.57394 0
M  V30 17894 H 1643.16 1.51736 4.79568 0
M  V30 17895 H 1642.86 3.27131 4.88118 0
M  V30 17896 H 1644.38 2.59767 5.52588 0
M  V30 17897 H 1645.79 4.19336 3.90935 0
M  V30 17898 H 1644.19 4.87234 3.50318 0
M  V30 17899 H 1645.26 4.32022 2.20192 0
M  V30 17900 N 1646.6 -0.84422 1.33082 0
M  V30 17901 C 1647.83 -1.63133 1.27261 0
M  V30 17902 C 1648.25 -1.88142 -0.157479 0
M  V30 17903 O 1647.6 -1.4578 -1.09793 0
M  V30 17904 C 1647.65 -2.98462 2.03967 0
M  V30 17905 O 1647.38 -2.74555 3.41396 0
M  V30 17906 C 1648.88 -3.92899 2.05293 0
M  V30 17907 H 1646.1 -0.507769 0.438647 0
M  V30 17908 H 1648.64 -1.05194 1.75369 0
M  V30 17909 H 1646.8 -3.53017 1.59554 0
M  V30 17910 H 1647.21 -3.60694 3.80789 0
M  V30 17911 H 1648.68 -4.85088 2.63427 0
M  V30 17912 H 1649.16 -4.26665 1.04183 0
M  V30 17913 H 1649.77 -3.44281 2.49701 0
M  V30 17914 N 1648.08 -1.16463 -1.0618 0
M  V30 17915 C 1649.5 -0.909776 -1.31131 0
M  V30 17916 C 1649.7 0.436686 -1.96711 0
M  V30 17917 O 1648.75 1.17595 -2.23445 0
M  V30 17918 C 1650.07 -2.05967 -2.19084 0
M  V30 17919 C 1651.61 -2.09557 -2.32497 0
M  V30 17920 C 1652.09 -3.23904 -3.23806 0
M  V30 17921 N 1653.58 -3.23628 -3.3139 0
M  V30 17922 C 1654.32 -4.08746 -4.02137 0
M  V30 17923 N 1653.81 -5.03954 -4.75397 0
M  V30 17924 N 1655.6 -3.96729 -3.98199 0
M  V30 17925 H 1647.76 -2.03148 -0.620066 0
M  V30 17926 H 1650.02 -0.886477 -0.335949 0
M  V30 17927 H 1649.72 -3.03227 -1.78174 0
M  V30 17928 H 1649.6 -2.00219 -3.19675 0
M  V30 17929 H 1651.99 -1.12889 -2.72654 0
M  V30 17930 H 1652.07 -2.19369 -1.3157 0
M  V30 17931 H 1651.71 -4.20831 -2.84366 0
M  V30 17932 H 1651.64 -3.11327 -4.24715 0
M  V30 17933 H 1654.13 -2.54687 -2.79182 0
M  V30 17934 H 1654.44 -5.65319 -5.2691 0
M  V30 17935 H 1652.79 -5.07932 -4.74373 0
M  V30 17936 H 1655.98 -3.21652 -3.40085 0
M  V30 17937 H 1656.15 -4.63286 -4.53067 0
M  V30 17938 N 1649.56 1.24734 -0.963288 0
M  V30 17939 C 1650.78 1.97285 -0.639808 0
M  V30 17940 C 1651.21 1.71024 0.783099 0
M  V30 17941 O 1650.57 0.971324 1.53085 0
M  V30 17942 C 1650.62 3.48793 -0.915197 0
M  V30 17943 O 1649.72 4.124 0.00162805 0
M  V30 17944 H 1649.06 0.618196 -0.242343 0
M  V30 17945 H 1651.59 1.58627 -1.29224 0
M  V30 17946 H 1651.6 3.99155 -0.84495 0
M  V30 17947 H 1650.28 3.67235 -1.95221 0
M  V30 17948 H 1648.85 3.72702 -0.121563 0
M  V30 17949 N 1651.04 0.732878 1.39523 0
M  V30 17950 C 1652.27 0.29007 2.04857 0
M  V30 17951 C 1652.68 -1.07435 1.55252 0
M  V30 17952 O 1652.04 -1.67847 0.716497 0
M  V30 17953 C 1652.09 0.280464 3.6041 0
M  V30 17954 O 1651.81 1.59102 4.08189 0
M  V30 17955 C 1653.31 -0.178772 4.42939 0
M  V30 17956 H 1650.53 0.12716 0.658841 0
M  V30 17957 H 1653.07 0.995933 1.7861 0
M  V30 17958 H 1651.23 -0.376494 3.85566 0
M  V30 17959 H 1651.64 1.50314 5.025 0
M  V30 17960 H 1653.12 -0.134335 5.51837 0
M  V30 17961 H 1653.59 -1.22362 4.21811 0
M  V30 17962 H 1654.2 0.448543 4.22928 0
M  V30 17963 N 1652.52 -1.50101 0.480349 0
M  V30 17964 C 1653.45 -2.31581 -0.298718 0
M  V30 17965 C 1654.43 -1.38905 -0.981798 0
M  V30 17966 O 1655.61 -1.67823 -0.977188 0
M  V30 17967 C 1652.74 -3.18891 -1.37571 0
M  V30 17968 C 1651.7 -4.20194 -0.813704 0
M  V30 17969 C 1651.02 -4.96302 -1.98968 0
M  V30 17970 C 1652.32 -5.21985 0.181295 0
M  V30 17971 H 1654.02 -2.96961 0.381349 0
M  V30 17972 H 1651.56 -1.42809 0.184842 0
M  V30 17973 H 1653.51 -3.74694 -1.92828 0
M  V30 17974 H 1652.24 -2.51414 -2.08467 0
M  V30 17975 H 1650.9 -3.65506 -0.283034 0
M  V30 17976 H 1650.55 -4.2529 -2.68584 0
M  V30 17977 H 1650.25 -5.64833 -1.61981 0
M  V30 17978 H 1651.77 -5.54943 -2.54698 0
M  V30 17979 H 1653.18 -5.72604 -0.28242 0
M  V30 17980 H 1651.58 -5.98289 0.465916 0
M  V30 17981 H 1652.65 -4.72162 1.10413 0
M  V30 17982 N 1653.99 -0.213323 -1.5615 0
M  V30 17983 C 1654.92 0.695003 -2.22917 0
M  V30 17984 C 1655.9 1.20738 -1.19818 0
M  V30 17985 O 1657.09 1.25289 -1.48379 0
M  V30 17986 C 1654.22 1.90685 -2.9027 0
M  V30 17987 C 1653.17 1.52865 -3.9977 0
M  V30 17988 C 1652.5 2.81859 -4.54378 0
M  V30 17989 C 1653.8 0.724829 -5.17246 0
M  V30 17990 H 1655.49 0.138351 -2.9908 0
M  V30 17991 H 1653.04 0.0651029 -1.43853 0
M  V30 17992 H 1654.99 2.54766 -3.35667 0
M  V30 17993 H 1653.72 2.48833 -2.11541 0
M  V30 17994 H 1652.38 0.911336 -3.55092 0
M  V30 17995 H 1652.02 3.38135 -3.72389 0
M  V30 17996 H 1651.72 2.57291 -5.28275 0
M  V30 17997 H 1653.25 3.46897 -5.02489 0
M  V30 17998 H 1654.66 1.26915 -5.59076 0
M  V30 17999 H 1653.06 0.57656 -5.97324 0
M  V30 18000 H 1654.13 -0.270309 -4.84146 0
M  V30 18001 N 1655.47 1.57485 0.0601405 0
M  V30 18002 C 1656.71 1.89654 0.762278 0
M  V30 18003 C 1657.08 0.808458 1.74149 0
M  V30 18004 O 1658.28 1.01355 2.48959 0
M  V30 18005 C 1656.55 3.27038 1.44156 0
M  V30 18006 S 1658.11 3.8098 2.17715 0
M  V30 18007 H 1654.93 0.664373 0.253239 0
M  V30 18008 H 1657.53 1.95492 0.0179261 0
M  V30 18009 H 1656.23 4.0412 0.715225 0
M  V30 18010 H 1655.76 3.24427 2.2251 0
M  V30 18011 H 1657.78 3.57204 3.44413 0
M  V30 18012 N 1656.95 -0.331789 1.54068 0
M  V30 18013 C 1657.88 -1.41332 1.8587 0
M  V30 18014 C 1658.86 -1.54353 0.714787 0
M  V30 18015 O 1660.05 -1.68368 0.967777 0
M  V30 18016 C 1657.18 -2.78218 2.07875 0
M  V30 18017 C 1656.13 -2.79994 3.23709 0
M  V30 18018 C 1655.46 -4.19878 3.31069 0
M  V30 18019 C 1656.76 -2.44476 4.6155 0
M  V30 18020 H 1658.45 -1.14966 2.76447 0
M  V30 18021 H 1656 -0.551615 1.33016 0
M  V30 18022 H 1657.95 -3.53937 2.28706 0
M  V30 18023 H 1656.67 -3.06044 1.14038 0
M  V30 18024 H 1655.33 -2.0673 3.02751 0
M  V30 18025 H 1654.98 -4.44831 2.34807 0
M  V30 18026 H 1654.68 -4.21974 4.08915 0
M  V30 18027 H 1656.2 -4.97421 3.54125 0
M  V30 18028 H 1657.62 -3.09908 4.82317 0
M  V30 18029 H 1656.02 -2.57837 5.41886 0
M  V30 18030 H 1657.09 -1.3964 4.64358 0
M  V30 18031 N 1658.43 -1.46001 -0.593424 0
M  V30 18032 C 1659.65 -1.54541 -1.38318 0
M  V30 18033 C 1660.08 -0.183555 -1.87202 0
M  V30 18034 O 1659.44 0.834407 -1.60958 0
M  V30 18035 C 1659.48 -2.54559 -2.55405 0
M  V30 18036 O 1658.59 -2.07321 -3.56499 0
M  V30 18037 H 1657.93 -0.520434 -0.412364 0
M  V30 18038 H 1660.46 -1.9148 -0.720862 0
M  V30 18039 H 1660.47 -2.73823 -3.02465 0
M  V30 18040 H 1659.14 -3.53461 -2.19176 0
M  V30 18041 H 1657.72 -1.97997 -3.15993 0
M  V30 18042 N 1659.91 0.83715 -1.33527 0
M  V30 18043 C 1660.87 1.92865 -1.23837 0
M  V30 18044 C 1661.87 1.60032 -0.157005 0
M  V30 18045 O 1663.06 1.69339 -0.408654 0
M  V30 18046 C 1660.19 3.28568 -0.908617 0
M  V30 18047 H 1661.38 2.02883 -2.20859 0
M  V30 18048 H 1658.94 1.02944 -1.1761 0
M  V30 18049 H 1659.67 3.24246 0.0590328 0
M  V30 18050 H 1659.46 3.53779 -1.69064 0
M  V30 18051 H 1660.95 4.0853 -0.86561 0
M  V30 18052 N 1661.38 1.17024 1.05561 0
M  V30 18053 C 1662.63 0.950769 1.77886 0
M  V30 18054 C 1662.95 -0.522005 1.88506 0
M  V30 18055 O 1664.15 -0.859582 2.57533 0
M  V30 18056 C 1662.61 1.65189 3.19751 0
M  V30 18057 C 1662.22 3.16294 3.17273 0
M  V30 18058 C 1663.96 1.51466 3.96558 0
M  V30 18059 C 1661.87 3.79111 4.53904 0
M  V30 18060 H 1660.8 0.352089 0.666745 0
M  V30 18061 H 1663.45 1.40237 1.18346 0
M  V30 18062 H 1661.83 1.12801 3.79594 0
M  V30 18063 H 1663 3.75585 2.66969 0
M  V30 18064 H 1661.32 3.29986 2.53966 0
M  V30 18065 H 1663.92 1.95772 4.97571 0
M  V30 18066 H 1664.26 0.46467 4.13699 0
M  V30 18067 H 1664.79 2.0105 3.43254 0
M  V30 18068 H 1661.53 4.84091 4.41969 0
M  V30 18069 H 1661.05 3.24606 5.04372 0
M  V30 18070 H 1662.73 3.81099 5.2285 0
M  V30 18071 N 1662.86 -1.24221 0.969889 0
M  V30 18072 C 1664.11 -1.91973 0.631725 0
M  V30 18073 C 1664.43 -1.76169 -0.836032 0
M  V30 18074 O 1663.7 -1.13459 -1.597 0
M  V30 18075 H 1662.28 -0.710497 0.230658 0
M  V30 18076 H 1664.94 -1.51069 1.23143 0
M  V30 18077 H 1664.04 -2.99606 0.874223 0
M  V30 18078 N 1664.34 -0.740267 -1.39132 0
M  V30 18079 C 1665.27 -0.0524011 -2.2814 0
M  V30 18080 C 1666.25 0.742237 -1.44671 0
M  V30 18081 O 1667.44 0.723684 -1.74055 0
M  V30 18082 C 1664.56 0.932876 -3.256 0
M  V30 18083 C 1663.61 0.226089 -4.259 0
M  V30 18084 S 1664.44 -1.06369 -5.24829 0
M  V30 18085 C 1665.6 -0.0811445 -6.25847 0
M  V30 18086 H 1665.83 -0.807208 -2.86132 0
M  V30 18087 H 1663.36 -0.532283 -1.44935 0
M  V30 18088 H 1665.32 1.49604 -3.82268 0
M  V30 18089 H 1663.98 1.66056 -2.66616 0
M  V30 18090 H 1663.18 0.971812 -4.94542 0
M  V30 18091 H 1662.78 -0.265186 -3.73059 0
M  V30 18092 H 1665.07 0.757451 -6.73252 0
M  V30 18093 H 1666.01 -0.734849 -7.04277 0
M  V30 18094 H 1666.42 0.293606 -5.63736 0
M  V30 18095 N 1665.82 1.49844 -0.488302 0
M  V30 18096 C 1667.07 2.01603 0.0624744 0
M  V30 18097 C 1667.38 1.37397 1.39217 0
M  V30 18098 O 1668.59 1.8041 2.0289 0
M  V30 18099 C 1667.04 3.59536 0.161824 0
M  V30 18100 C 1666.65 4.32709 -1.16047 0
M  V30 18101 C 1668.39 4.1928 0.663642 0
M  V30 18102 C 1666.3 5.82468 -1.02397 0
M  V30 18103 H 1665.23 0.753512 0.0271222 0
M  V30 18104 H 1667.88 1.72499 -0.625805 0
M  V30 18105 H 1666.26 3.85301 0.914273 0
M  V30 18106 H 1667.44 4.18655 -1.92522 0
M  V30 18107 H 1665.75 3.84652 -1.59473 0
M  V30 18108 H 1668.35 5.28935 0.783069 0
M  V30 18109 H 1668.69 3.81801 1.65933 0
M  V30 18110 H 1669.23 3.97787 -0.0319078 0
M  V30 18111 H 1665.97 6.2445 -1.99355 0
M  V30 18112 H 1665.49 5.9905 -0.299902 0
M  V30 18113 H 1667.16 6.43229 -0.697538 0
M  V30 18114 N 1667.3 0.221601 1.56034 0
M  V30 18115 C 1668.52 -0.417979 2.03145 0
M  V30 18116 C 1668.95 -1.52556 1.10038 0
M  V30 18117 O 1668.3 -1.81084 0.0885729 0
M  V30 18118 C 1668.35 -0.926762 3.48487 0
M  V30 18119 O 1667.46 -2.03811 3.58518 0
M  V30 18120 H 1666.8 -0.0945778 0.65723 0
M  V30 18121 H 1669.33 0.340252 2.01751 0
M  V30 18122 H 1669.34 -1.23656 3.8881 0
M  V30 18123 H 1668.01 -0.116115 4.15738 0
M  V30 18124 H 1666.59 -1.73494 3.30082 0
M  V30 18125 N 1668.77 -1.57515 -0.0517878 0
M  V30 18126 C 1670 -1.92177 -0.758384 0
M  V30 18127 C 1670.41 -0.817721 -1.70616 0
M  V30 18128 O 1669.76 0.216391 -1.82421 0
M  V30 18129 C 1669.82 -3.22471 -1.58912 0
M  V30 18130 C 1669.48 -4.4979 -0.808569 0
M  V30 18131 C 1670.48 -5.19764 -0.118871 0
M  V30 18132 C 1668.16 -4.96366 -0.769824 0
M  V30 18133 C 1670.16 -6.34578 0.599123 0
M  V30 18134 C 1667.84 -6.11081 -0.0480698 0
M  V30 18135 C 1668.84 -6.8004 0.635185 0
M  V30 18136 O 1668.53 -7.92564 1.34527 0
M  V30 18137 H 1668.26 -0.639335 -0.219607 0
M  V30 18138 H 1670.82 -2.0539 -0.0202648 0
M  V30 18139 H 1669.05 -3.05522 -2.37051 0
M  V30 18140 H 1670.74 -3.4263 -2.17622 0
M  V30 18141 H 1671.5 -4.84798 -0.139982 0
M  V30 18142 H 1667.38 -4.42551 -1.29112 0
M  V30 18143 H 1670.92 -6.88338 1.13298 0
M  V30 18144 H 1666.82 -6.45495 -0.0249563 0
M  V30 18145 H 1667.59 -8.08797 1.2566 0
M  V30 18146 N 1670.25 0.323614 -1.54242 0
M  V30 18147 C 1671.22 1.38126 -1.82904 0
M  V30 18148 C 1672.22 1.44723 -0.700853 0
M  V30 18149 O 1673.41 1.44751 -0.969161 0
M  V30 18150 C 1670.54 2.76858 -1.98903 0
M  V30 18151 H 1671.73 1.13966 -2.77402 0
M  V30 18152 H 1669.28 0.559094 -1.45958 0
M  V30 18153 H 1670.02 3.06274 -1.06616 0
M  V30 18154 H 1669.8 2.73464 -2.80998 0
M  V30 18155 H 1671.29 3.53372 -2.22526 0
M  V30 18156 N 1671.73 1.46313 0.585673 0
M  V30 18157 C 1672.96 1.55035 1.3701 0
M  V30 18158 C 1673.37 0.190444 1.87837 0
M  V30 18159 O 1672.73 -0.81177 1.63452 0
M  V30 18160 C 1672.78 2.55272 2.55965 0
M  V30 18161 O 1672.5 3.85981 2.07245 0
M  V30 18162 C 1674 2.73906 3.48555 0
M  V30 18163 H 1671.22 0.524377 0.418653 0
M  V30 18164 H 1673.77 1.91695 0.712267 0
M  V30 18165 H 1671.92 2.21625 3.17744 0
M  V30 18166 H 1672.34 4.40512 2.84692 0
M  V30 18167 H 1673.81 3.4797 4.2851 0
M  V30 18168 H 1674.29 1.80708 4.00301 0
M  V30 18169 H 1674.89 3.08638 2.92614 0
M  V30 18170 N 1673.21 -0.830057 1.33969 0
M  V30 18171 C 1674.62 -1.40227 1.23261 0
M  V30 18172 C 1674.97 -1.95664 -0.144862 0
M  V30 18173 O 1674.1 -1.89503 -1.04488 0
M  V30 18174 C 1674.69 -2.54913 2.2317 0
M  V30 18175 C 1673.25 -3.08062 2.16274 0
M  V30 18176 C 1672.4 -1.809 2.10168 0
M  V30 18177 H 1675.35 -0.635062 1.4544 0
M  V30 18178 H 1675.37 -3.32801 1.84455 0
M  V30 18179 H 1674.88 -2.14534 3.23414 0
M  V30 18180 H 1672.98 -3.52964 1.19362 0
M  V30 18181 H 1673.1 -3.67637 3.07213 0
M  V30 18182 H 1671.46 -2.01508 1.55778 0
M  V30 18183 H 1672.24 -1.42705 3.12234 0
M  V30 18184 N 1674.69 -1.17582 -1.04939 0
M  V30 18185 C 1675.93 -0.967208 -1.7825 0
M  V30 18186 C 1676.27 0.502711 -1.87581 0
M  V30 18187 O 1675.54 1.37318 -1.37746 0
M  V30 18188 C 1675.82 -1.61205 -3.22001 0
M  V30 18189 C 1675.68 -3.15424 -3.20667 0
M  V30 18190 C 1677 -1.31804 -4.199 0
M  V30 18191 H 1674.12 -0.35279 -0.647077 0
M  V30 18192 H 1676.76 -1.45119 -1.2264 0
M  V30 18193 H 1674.91 -1.20052 -3.69486 0
M  V30 18194 H 1676.58 -3.65653 -2.8124 0
M  V30 18195 H 1674.82 -3.48042 -2.58938 0
M  V30 18196 H 1675.49 -3.55674 -4.22138 0
M  V30 18197 H 1677.97 -1.67446 -3.80921 0
M  V30 18198 H 1676.85 -1.79505 -5.18719 0
M  V30 18199 H 1677.11 -0.239304 -4.41452 0
M  V30 18200 N 1676.17 1.23705 -0.976463 0
M  V30 18201 C 1677.41 1.92015 -0.643168 0
M  V30 18202 C 1677.74 1.76239 0.822796 0
M  V30 18203 O 1677 1.11469 1.60851 0
M  V30 18204 C 1677.29 3.43853 -0.974676 0
M  V30 18205 C 1676.96 3.79805 -2.43021 0
M  V30 18206 C 1675.62 3.89329 -2.82801 0
M  V30 18207 C 1677.97 3.97218 -3.37442 0
M  V30 18208 C 1675.3 4.13691 -4.16025 0
M  V30 18209 C 1677.65 4.23079 -4.70305 0
M  V30 18210 C 1676.32 4.30824 -5.0985 0
M  V30 18211 H 1675.59 0.702631 -0.235352 0
M  V30 18212 H 1678.24 1.46811 -1.22959 0
M  V30 18213 H 1676.54 3.90602 -0.306121 0
M  V30 18214 H 1678.24 3.9493 -0.695061 0
M  V30 18215 H 1674.83 3.72963 -2.11179 0
M  V30 18216 H 1679.01 3.89254 -3.07889 0
M  V30 18217 H 1674.27 4.17909 -4.46276 0
M  V30 18218 H 1678.44 4.35496 -5.4343 0
M  V30 18219 H 1676.07 4.49454 -6.13103 0
M  V30 18220 N 1677.64 0.747635 1.38738 0
M  V30 18221 C 1678.57 0.131317 2.3313 0
M  V30 18222 C 1679.55 -0.710229 1.54563 0
M  V30 18223 O 1680.74 -0.652631 1.82905 0
M  V30 18224 C 1677.87 -0.767168 3.38721 0
M  V30 18225 C 1676.82 -0.0288124 4.2799 0
M  V30 18226 C 1676.15 -1.04515 5.24386 0
M  V30 18227 C 1677.45 1.13608 5.09795 0
M  V30 18228 H 1679.14 0.91981 2.84921 0
M  V30 18229 H 1676.69 0.443764 1.36992 0
M  V30 18230 H 1678.64 -1.20796 4.03716 0
M  V30 18231 H 1677.37 -1.58792 2.85399 0
M  V30 18232 H 1676.03 0.392491 3.64493 0
M  V30 18233 H 1675.67 -1.8598 4.67355 0
M  V30 18234 H 1675.37 -0.555813 5.84965 0
M  V30 18235 H 1676.9 -1.48538 5.92257 0
M  V30 18236 H 1678.31 0.773129 5.68063 0
M  V30 18237 H 1676.71 1.55589 5.79579 0
M  V30 18238 H 1677.78 1.95182 4.43883 0
M  V30 18239 N 1679.12 -1.49583 0.496242 0
M  V30 18240 C 1680.37 -2.02738 -0.050037 0
M  V30 18241 C 1680.7 -1.37556 -1.37083 0
M  V30 18242 O 1679.98 -0.50964 -1.87704 0
M  V30 18243 C 1680.26 -3.59501 -0.207575 0
M  V30 18244 C 1680.11 -4.35218 1.13601 0
M  V30 18245 C 1681.43 -4.29715 -0.950443 0
M  V30 18246 H 1678.55 -0.736811 -0.0167105 0
M  V30 18247 H 1681.19 -1.78654 0.646728 0
M  V30 18248 H 1679.34 -3.80152 -0.801033 0
M  V30 18249 H 1681.01 -4.26075 1.76798 0
M  V30 18250 H 1679.26 -3.97964 1.72648 0
M  V30 18251 H 1679.93 -5.43247 0.979142 0
M  V30 18252 H 1682.4 -4.1369 -0.447173 0
M  V30 18253 H 1681.28 -5.39159 -1.02951 0
M  V30 18254 H 1681.54 -3.94627 -1.99304 0
M  V30 18255 N 1680.6 -0.229873 -1.55915 0
M  V30 18256 C 1681.56 0.663347 -2.19391 0
M  V30 18257 C 1682.56 1.11548 -1.15818 0
M  V30 18258 O 1683.75 1.02294 -1.41002 0
M  V30 18259 C 1680.88 1.9097 -2.82389 0
M  V30 18260 H 1682.08 0.109797 -2.99699 0
M  V30 18261 H 1679.63 0.0197234 -1.56288 0
M  V30 18262 H 1680.37 2.50491 -2.05973 0
M  V30 18263 H 1680.15 1.59388 -3.58243 0
M  V30 18264 H 1681.64 2.5459 -3.31019 0
M  V30 18265 N 1682.08 1.5754 0.0434337 0
M  V30 18266 C 1683.01 2.08648 1.04824 0
M  V30 18267 C 1683.99 0.985894 1.38615 0
M  V30 18268 O 1685.17 1.2603 1.4775 0
M  V30 18269 C 1682.3 2.55399 2.35348 0
M  V30 18270 C 1681.26 3.69592 2.15837 0
M  V30 18271 C 1680.58 4.02497 3.51995 0
M  V30 18272 C 1681.88 4.98575 1.55629 0
M  V30 18273 H 1683.58 2.9285 0.622849 0
M  V30 18274 H 1681.12 1.40879 0.298158 0
M  V30 18275 H 1683.08 2.89771 3.05958 0
M  V30 18276 H 1681.8 1.68262 2.7992 0
M  V30 18277 H 1680.46 3.35546 1.47663 0
M  V30 18278 H 1680.11 3.12448 3.94189 0
M  V30 18279 H 1679.81 4.79406 3.39771 0
M  V30 18280 H 1681.33 4.39391 4.23991 0
M  V30 18281 H 1682.75 5.30996 2.16138 0
M  V30 18282 H 1681.14 5.79998 1.54021 0
M  V30 18283 H 1682.21 4.82098 0.520567 0
M  V30 18284 N 1683.56 -0.31543 1.54411 0
M  V30 18285 C 1684.49 -1.39353 1.87358 0
M  V30 18286 C 1685.47 -1.53586 0.731118 0
M  V30 18287 O 1686.65 -1.67332 0.98558 0
M  V30 18288 C 1683.78 -2.75998 2.10814 0
M  V30 18289 C 1682.74 -2.76545 3.2666 0
M  V30 18290 C 1682.06 -4.16343 3.35504 0
M  V30 18291 C 1683.36 -2.39567 4.64117 0
M  V30 18292 H 1685.06 -1.12028 2.77651 0
M  V30 18293 H 1682.6 -0.537476 1.33593 0
M  V30 18294 H 1684.55 -3.51491 2.32447 0
M  V30 18295 H 1683.28 -3.04817 1.17278 0
M  V30 18296 H 1681.94 -2.03507 3.04927 0
M  V30 18297 H 1681.59 -4.42316 2.39512 0
M  V30 18298 H 1681.29 -4.17613 4.13368 0
M  V30 18299 H 1682.81 -4.93637 3.59381 0
M  V30 18300 H 1684.22 -3.04775 4.85577 0
M  V30 18301 H 1682.62 -2.52075 5.4459 0
M  V30 18302 H 1683.69 -1.34707 4.65813 0
M  V30 18303 N 1685.03 -1.46622 -0.577906 0
M  V30 18304 C 1686.45 -1.46287 -1.16004 0
M  V30 18305 C 1686.8 -0.206307 -1.95112 0
M  V30 18306 O 1685.92 0.690275 -2.05096 0
M  V30 18307 C 1686.52 -2.65042 -2.1104 0
M  V30 18308 C 1685.08 -2.67733 -2.64567 0
M  V30 18309 C 1684.22 -2.39053 -1.40531 0
M  V30 18310 H 1687.17 -1.54432 -0.365585 0
M  V30 18311 H 1687.19 -2.40834 -2.94583 0
M  V30 18312 H 1686.71 -3.56481 -1.53436 0
M  V30 18313 H 1684.81 -1.80379 -3.26028 0
M  V30 18314 H 1684.92 -3.67836 -3.06974 0
M  V30 18315 H 1683.28 -1.89209 -1.70506 0
M  V30 18316 H 1684.07 -3.32674 -0.847509 0
M  V30 18317 N 1686.51 0.822941 -1.34408 0
M  V30 18318 C 1687.44 1.94878 -1.28627 0
M  V30 18319 C 1688.42 1.6931 -0.163727 0
M  V30 18320 O 1689.61 1.90908 -0.356083 0
M  V30 18321 C 1686.74 3.31333 -1.04094 0
M  V30 18322 C 1685.69 3.71341 -2.12814 0
M  V30 18323 C 1685.02 5.05779 -1.73469 0
M  V30 18324 C 1686.32 3.83439 -3.54643 0
M  V30 18325 H 1688.01 1.99972 -2.22827 0
M  V30 18326 H 1685.56 0.960715 -1.07267 0
M  V30 18327 H 1687.51 4.0968 -0.986947 0
M  V30 18328 H 1686.24 3.26539 -0.0633642 0
M  V30 18329 H 1684.89 2.95269 -2.17282 0
M  V30 18330 H 1684.54 4.97471 -0.743727 0
M  V30 18331 H 1684.24 5.33518 -2.46236 0
M  V30 18332 H 1685.77 5.86583 -1.69566 0
M  V30 18333 H 1687.18 4.52057 -3.52587 0
M  V30 18334 H 1685.58 4.22632 -4.2603 0
M  V30 18335 H 1686.65 2.85439 -3.91986 0
M  V30 18336 N 1687.99 1.18137 1.04314 0
M  V30 18337 C 1689.24 0.973277 1.77121 0
M  V30 18338 C 1689.56 -0.498558 1.88519 0
M  V30 18339 O 1688.83 -1.36168 1.40837 0
M  V30 18340 H 1687.41 0.35712 0.656105 0
M  V30 18341 H 1690.07 1.48774 1.25906 0
M  V30 18342 H 1689.17 1.40917 2.78476 0
M  V30 18343 N 1689.47 -1.23186 0.98301 0
M  V30 18344 C 1690.71 -1.91955 0.65431 0
M  V30 18345 C 1691.05 -1.76482 -0.810419 0
M  V30 18346 O 1690.32 -1.12744 -1.5849 0
M  V30 18347 C 1690.61 -3.4449 1.04873 0
M  V30 18348 C 1690.46 -3.6906 2.57128 0
M  V30 18349 C 1691.78 -4.36065 0.594578 0
M  V30 18350 H 1688.9 -0.69711 0.239179 0
M  V30 18351 H 1691.54 -1.45257 1.22476 0
M  V30 18352 H 1689.69 -3.84394 0.563333 0
M  V30 18353 H 1691.36 -3.38622 3.13262 0
M  V30 18354 H 1689.6 -3.13681 2.99644 0
M  V30 18355 H 1690.27 -4.75846 2.79776 0
M  V30 18356 H 1692.75 -4.03622 1.01136 0
M  V30 18357 H 1691.63 -5.41489 0.898955 0
M  V30 18358 H 1691.89 -4.39206 -0.505033 0
M  V30 18359 N 1690.95 -0.754982 -1.38339 0
M  V30 18360 C 1691.91 -0.136457 -2.28793 0
M  V30 18361 C 1692.91 0.646016 -1.47252 0
M  V30 18362 O 1694.1 0.472077 -1.67681 0
M  V30 18363 C 1691.23 0.815058 -3.31013 0
M  V30 18364 H 1692.42 -0.933619 -2.84997 0
M  V30 18365 H 1689.98 -0.522082 -1.47323 0
M  V30 18366 H 1690.71 1.63785 -2.79902 0
M  V30 18367 H 1690.5 0.256363 -3.91261 0
M  V30 18368 H 1691.99 1.24378 -3.98648 0
M  V30 18369 N 1692.42 1.49318 -0.504168 0
M  V30 18370 C 1693.67 2.02462 0.0392265 0
M  V30 18371 C 1694 1.38359 1.36701 0
M  V30 18372 O 1693.25 0.509579 1.88949 0
M  V30 18373 C 1693.55 3.56613 0.237041 0
M  V30 18374 C 1693.22 4.3937 -1.01314 0
M  V30 18375 C 1691.88 4.61704 -1.35583 0
M  V30 18376 C 1694.23 4.8749 -1.84399 0
M  V30 18377 C 1691.56 5.29403 -2.52882 0
M  V30 18378 C 1693.91 5.56479 -3.00854 0
M  V30 18379 C 1692.58 5.77058 -3.35499 0
M  V30 18380 H 1691.85 0.740861 0.014354 0
M  V30 18381 H 1694.49 1.79584 -0.664967 0
M  V30 18382 H 1692.8 3.78188 1.02379 0
M  V30 18383 H 1694.5 3.95329 0.671987 0
M  V30 18384 H 1691.09 4.2223 -0.736213 0
M  V30 18385 H 1695.27 4.7006 -1.59238 0
M  V30 18386 H 1690.53 5.43538 -2.79958 0
M  V30 18387 H 1694.7 5.9274 -3.65558 0
M  V30 18388 H 1692.33 6.29291 -4.26494 0
M  V30 18389 N 1693.9 0.238138 1.5579 0
M  V30 18390 C 1695.13 -0.392852 2.02831 0
M  V30 18391 C 1695.54 -1.52714 1.11692 0
M  V30 18392 O 1694.88 -1.83294 0.122034 0
M  V30 18393 C 1694.95 -0.970383 3.46156 0
M  V30 18394 C 1694.61 0.0305457 4.5699 0
M  V30 18395 C 1695.61 0.836938 5.13119 0
M  V30 18396 C 1693.29 0.154102 5.02064 0
M  V30 18397 C 1695.29 1.75343 6.12808 0
M  V30 18398 C 1692.97 1.07411 6.01586 0
M  V30 18399 C 1693.97 1.8723 6.56836 0
M  V30 18400 O 1693.66 2.77681 7.54419 0
M  V30 18401 H 1693.39 -0.0985571 0.668777 0
M  V30 18402 H 1695.94 0.356979 2.02274 0
M  V30 18403 H 1694.17 -1.76961 3.43834 0
M  V30 18404 H 1695.86 -1.51053 3.76747 0
M  V30 18405 H 1696.63 0.752021 4.79134 0
M  V30 18406 H 1692.51 -0.457094 4.58728 0
M  V30 18407 H 1696.05 2.37687 6.55859 0
M  V30 18408 H 1691.95 1.15998 6.34992 0
M  V30 18409 H 1692.72 2.71943 7.72003 0
M  V30 18410 N 1695.38 -1.57561 -0.0350783 0
M  V30 18411 C 1696.63 -1.88996 -0.727095 0
M  V30 18412 C 1696.96 -0.834671 -1.7568 0
M  V30 18413 O 1696.21 0.165098 -1.95002 0
M  V30 18414 C 1696.51 -3.27169 -1.43858 0
M  V30 18415 C 1696.18 -4.47589 -0.545421 0
M  V30 18416 C 1694.84 -4.80268 -0.2994 0
M  V30 18417 C 1697.19 -5.21151 0.0716124 0
M  V30 18418 C 1694.52 -5.839 0.57253 0
M  V30 18419 C 1696.87 -6.25709 0.931209 0
M  V30 18420 C 1695.53 -6.56866 1.18675 0
M  V30 18421 H 1694.8 -0.691586 -0.266063 0
M  V30 18422 H 1697.45 -1.91496 0.0129076 0
M  V30 18423 H 1695.76 -3.2063 -2.25175 0
M  V30 18424 H 1697.45 -3.48738 -1.97946 0
M  V30 18425 H 1694.04 -4.22034 -0.747323 0
M  V30 18426 H 1698.23 -4.96188 -0.105504 0
M  V30 18427 H 1693.48 -6.06418 0.778882 0
M  V30 18428 H 1697.66 -6.81855 1.41587 0
M  V30 18429 H 1695.28 -7.3699 1.86412 0
M  V30 18430 N 1696.86 0.307236 -1.54576 0
M  V30 18431 C 1698.11 1.04082 -1.72771 0
M  V30 18432 C 1698.42 1.88639 -0.517188 0
M  V30 18433 O 1699.63 2.65215 -0.580811 0
M  V30 18434 C 1698.08 1.90015 -3.05651 0
M  V30 18435 C 1697.69 1.10491 -4.34161 0
M  V30 18436 C 1699.43 2.6301 -3.33205 0
M  V30 18437 C 1697.34 1.95664 -5.58094 0
M  V30 18438 H 1696.27 0.392307 -0.643903 0
M  V30 18439 H 1698.92 0.29815 -1.81062 0
M  V30 18440 H 1697.3 2.68245 -2.91309 0
M  V30 18441 H 1698.48 0.369181 -4.59319 0
M  V30 18442 H 1696.79 0.491053 -4.13494 0
M  V30 18443 H 1699.39 3.27074 -4.22997 0
M  V30 18444 H 1699.73 3.31512 -2.51804 0
M  V30 18445 H 1700.27 1.91833 -3.4849 0
M  V30 18446 H 1697.01 1.31643 -6.42145 0
M  V30 18447 H 1696.53 2.66927 -5.37131 0
M  V30 18448 H 1698.2 2.53861 -5.95116 0
M  V30 18449 N 1698.34 1.46926 0.570122 0
M  V30 18450 C 1699.27 1.54487 1.69311 0
M  V30 18451 C 1700.28 0.432119 1.5696 0
M  V30 18452 O 1701.47 0.701107 1.64155 0
M  V30 18453 C 1698.57 1.42093 3.07673 0
M  V30 18454 C 1697.74 2.6771 3.45905 0
M  V30 18455 C 1696.8 2.49336 4.63377 0
M  V30 18456 O 1695.83 3.23107 4.68605 0
M  V30 18457 N 1697.03 1.56319 5.59057 0
M  V30 18458 H 1699.8 2.51319 1.63276 0
M  V30 18459 H 1697.36 1.43142 0.756434 0
M  V30 18460 H 1699.35 1.27554 3.84073 0
M  V30 18461 H 1697.92 0.533945 3.08006 0
M  V30 18462 H 1697.14 2.97102 2.59083 0
M  V30 18463 H 1698.43 3.51131 3.68218 0
M  V30 18464 H 1697.82 0.955109 5.57579 0
M  V30 18465 H 1696.38 1.47738 6.34836 0
M  V30 18466 N 1699.82 -0.815801 1.34842 0
M  V30 18467 C 1700.76 -1.92713 1.27006 0
M  V30 18468 C 1701.73 -1.65476 0.143838 0
M  V30 18469 O 1702.92 -1.87994 0.326007 0
M  V30 18470 C 1700.06 -3.29099 1.03863 0
M  V30 18471 C 1699.17 -3.68583 2.25324 0
M  V30 18472 C 1698.31 -4.93953 1.95407 0
M  V30 18473 C 1697.34 -5.26037 3.12971 0
M  V30 18474 N 1696.48 -6.42586 2.82891 0
M  V30 18475 H 1701.32 -1.98747 2.22044 0
M  V30 18476 H 1698.86 -0.972265 1.10388 0
M  V30 18477 H 1700.82 -4.07709 0.884809 0
M  V30 18478 H 1699.45 -3.22558 0.124911 0
M  V30 18479 H 1698.5 -2.85307 2.51603 0
M  V30 18480 H 1699.81 -3.88259 3.1314 0
M  V30 18481 H 1698.96 -5.80367 1.76801 0
M  V30 18482 H 1697.7 -4.76293 1.04862 0
M  V30 18483 H 1696.71 -4.38117 3.32165 0
M  V30 18484 H 1697.93 -5.45632 4.04305 0
M  V30 18485 H 1695.88 -6.26369 1.9493 0
M  V30 18486 H 1695.8 -6.62469 3.64239 0
M  V30 18487 H 1697.06 -7.32052 2.67805 0
M  V30 18488 N 1701.29 -1.18689 -1.03686 0
M  V30 18489 C 1702.52 -1.00814 -1.80333 0
M  V30 18490 C 1702.93 0.446495 -1.83856 0
M  V30 18491 O 1702.27 1.32192 -1.27558 0
M  V30 18492 C 1702.34 -1.49133 -3.27108 0
M  V30 18493 C 1702 -2.97112 -3.47237 0
M  V30 18494 C 1703 -3.94938 -3.38113 0
M  V30 18495 C 1700.68 -3.35628 -3.7371 0
M  V30 18496 C 1702.68 -5.29274 -3.55172 0
M  V30 18497 C 1700.36 -4.70126 -3.90416 0
M  V30 18498 C 1701.36 -5.66758 -3.81148 0
M  V30 18499 O 1701.05 -6.98821 -3.97371 0
M  V30 18500 H 1700.78 -0.356077 -0.574617 0
M  V30 18501 H 1703.34 -1.57754 -1.31541 0
M  V30 18502 H 1701.57 -0.865624 -3.76887 0
M  V30 18503 H 1703.25 -1.27591 -3.85325 0
M  V30 18504 H 1704.02 -3.66527 -3.17621 0
M  V30 18505 H 1699.9 -2.6097 -3.8002 0
M  V30 18506 H 1703.44 -6.04684 -3.47854 0
M  V30 18507 H 1699.34 -4.98236 -4.10404 0
M  V30 18508 H 1700.11 -7.05779 -4.14509 0
M  V30 18509 N 1702.77 1.22662 -0.989529 0
M  V30 18510 C 1704.02 1.91322 -0.663497 0
M  V30 18511 C 1704.35 1.77102 0.804057 0
M  V30 18512 O 1703.6 1.13169 1.5966 0
M  V30 18513 C 1703.9 3.428 -1.01109 0
M  V30 18514 C 1703.57 3.77206 -2.47035 0
M  V30 18515 C 1702.23 3.86308 -2.86914 0
M  V30 18516 C 1704.58 3.93617 -3.41636 0
M  V30 18517 C 1701.91 4.09255 -4.20389 0
M  V30 18518 C 1704.26 4.18067 -4.74766 0
M  V30 18519 C 1702.92 4.25392 -5.14391 0
M  V30 18520 H 1702.19 0.700095 -0.242791 0
M  V30 18521 H 1704.84 1.45498 -1.24509 0
M  V30 18522 H 1703.15 3.90256 -0.347533 0
M  V30 18523 H 1704.84 3.94171 -0.736909 0
M  V30 18524 H 1701.43 3.70702 -2.15123 0
M  V30 18525 H 1705.62 3.85966 -3.12 0
M  V30 18526 H 1700.87 4.13152 -4.50683 0
M  V30 18527 H 1705.05 4.29708 -5.48018 0
M  V30 18528 H 1702.67 4.42926 -6.17835 0
M  V30 18529 N 1704.25 0.762308 1.37937 0
M  V30 18530 C 1705.67 0.440871 1.5339 0
M  V30 18531 C 1705.87 -1.04483 1.72295 0
M  V30 18532 O 1704.92 -1.83078 1.73892 0
M  V30 18533 C 1706.23 1.24772 2.73592 0
M  V30 18534 C 1707.78 1.23867 2.87447 0
M  V30 18535 C 1708.26 2.02866 4.10621 0
M  V30 18536 N 1709.75 2.00171 4.17715 0
M  V30 18537 C 1710.48 2.58086 5.12034 0
M  V30 18538 N 1709.98 3.2475 6.11972 0
M  V30 18539 N 1711.77 2.47968 5.04449 0
M  V30 18540 H 1703.92 1.72506 1.23916 0
M  V30 18541 H 1706.19 0.731791 0.602649 0
M  V30 18542 H 1705.89 2.30016 2.66056 0
M  V30 18543 H 1705.77 0.870485 3.67018 0
M  V30 18544 H 1708.15 0.194255 2.9446 0
M  V30 18545 H 1708.23 1.65548 1.95007 0
M  V30 18546 H 1707.88 3.07323 4.04369 0
M  V30 18547 H 1707.81 1.58574 5.02157 0
M  V30 18548 H 1710.3 1.5163 3.46146 0
M  V30 18549 H 1710.61 3.66339 6.80453 0
M  V30 18550 H 1708.96 3.28846 6.12279 0
M  V30 18551 H 1712.15 1.95509 4.25316 0
M  V30 18552 H 1712.32 2.93398 5.77773 0
M  V30 18553 N 1705.73 -1.49049 0.51208 0
M  V30 18554 C 1706.97 -2.0278 -0.0285311 0
M  V30 18555 C 1707.31 -1.39003 -1.35617 0
M  V30 18556 O 1706.58 -0.52952 -1.87153 0
M  V30 18557 C 1706.86 -3.59701 -0.169433 0
M  V30 18558 C 1706.72 -4.33989 1.18211 0
M  V30 18559 C 1708.04 -4.30698 -0.904812 0
M  V30 18560 H 1705.16 -0.736946 -0.00889467 0
M  V30 18561 H 1707.8 -1.77959 0.66564 0
M  V30 18562 H 1705.95 -3.8098 -0.760667 0
M  V30 18563 H 1707.62 -4.24176 1.81307 0
M  V30 18564 H 1705.86 -3.9611 1.76859 0
M  V30 18565 H 1706.53 -5.42177 1.03671 0
M  V30 18566 H 1709.01 -4.14141 -0.40327 0
M  V30 18567 H 1707.89 -5.40221 -0.972264 0
M  V30 18568 H 1708.15 -3.96718 -1.95108 0
M  V30 18569 N 1707.21 -0.246397 -1.55662 0
M  V30 18570 C 1708.17 0.640041 -2.20082 0
M  V30 18571 C 1709.17 1.10313 -1.16994 0
M  V30 18572 O 1710.36 1.00792 -1.42079 0
M  V30 18573 C 1707.49 1.87964 -2.84398 0
M  V30 18574 H 1708.68 0.0780034 -2.99799 0
M  V30 18575 H 1706.24 0.00314588 -1.563 0
M  V30 18576 H 1706.97 2.48292 -2.08618 0
M  V30 18577 H 1706.76 1.5558 -3.59913 0
M  V30 18578 H 1708.25 2.51065 -3.33701 0
M  V30 18579 N 1708.68 1.57577 0.026722 0
M  V30 18580 C 1709.91 1.94035 0.732473 0
M  V30 18581 C 1710.33 0.846575 1.67972 0
M  V30 18582 O 1709.69 -0.197514 1.80221 0
M  V30 18583 C 1709.74 3.2956 1.46365 0
M  V30 18584 O 1708.84 3.21975 2.57694 0
M  V30 18585 H 1708.18 0.634155 0.196832 0
M  V30 18586 H 1710.71 2.04592 -0.018503 0
M  V30 18587 H 1710.72 3.64504 1.83305 0
M  V30 18588 H 1709.4 4.0873 0.768943 0
M  V30 18589 H 1707.98 2.98665 2.23279 0
M  V30 18590 N 1710.16 -0.299034 1.54737 0
M  V30 18591 C 1711.11 -1.36887 1.85824 0
M  V30 18592 C 1712.08 -1.50287 0.70733 0
M  V30 18593 O 1713.26 -1.65114 0.956143 0
M  V30 18594 C 1710.4 -2.7286 2.11286 0
M  V30 18595 C 1709.52 -2.67893 3.38906 0
M  V30 18596 C 1708.65 -3.95873 3.542 0
M  V30 18597 C 1707.69 -3.85312 4.75606 0
M  V30 18598 N 1706.83 -5.05072 4.87695 0
M  V30 18599 H 1711.67 -1.09676 2.77083 0
M  V30 18600 H 1709.2 -0.530427 1.37204 0
M  V30 18601 H 1711.16 -3.51938 2.24043 0
M  V30 18602 H 1709.79 -2.98327 1.23291 0
M  V30 18603 H 1708.84 -1.80669 3.34758 0
M  V30 18604 H 1710.16 -2.5598 4.28107 0
M  V30 18605 H 1709.31 -4.83389 3.66633 0
M  V30 18606 H 1708.05 -4.10622 2.63136 0
M  V30 18607 H 1707.05 -2.9618 4.63203 0
M  V30 18608 H 1708.28 -3.72106 5.68079 0
M  V30 18609 H 1706.23 -5.20281 3.99554 0
M  V30 18610 H 1706.14 -4.9559 5.709 0
M  V30 18611 H 1707.41 -5.94233 5.04487 0
M  V30 18612 N 1711.64 -1.47227 -0.562322 0
M  V30 18613 C 1712.92 -1.44069 -1.32301 0
M  V30 18614 C 1713.3 -0.134912 -2.10668 0
M  V30 18615 O 1712.64 0.883603 -2.10724 0
M  V30 18616 C 1712.85 -2.68309 -2.23184 0
M  V30 18617 C 1714.2 -3.1531 -2.84367 0
M  V30 18618 O 1715.23 -2.69001 -2.33489 0
M  V30 18619 O 1714.09 -3.95805 -3.7683 0
M  V30 18620 H 1711.18 -0.573892 -0.595464 0
M  V30 18621 H 1713.73 -1.59421 -0.581648 0
M  V30 18622 H 1712.5 -3.54884 -1.64842 0
M  V30 18623 H 1712.12 -2.55518 -3.04625 0
M  V30 18624 N 1713.12 0.808639 -1.35273 0
M  V30 18625 C 1714.05 1.93502 -1.30687 0
M  V30 18626 C 1715.03 1.69127 -0.181675 0
M  V30 18627 O 1716.21 1.90519 -0.376312 0
M  V30 18628 C 1713.34 3.30211 -1.07602 0
M  V30 18629 C 1712.3 3.69063 -2.16741 0
M  V30 18630 C 1711.62 5.03911 -1.78824 0
M  V30 18631 C 1712.92 3.79656 -3.5869 0
M  V30 18632 H 1714.62 1.97597 -2.24935 0
M  V30 18633 H 1712.16 0.949284 -1.0828 0
M  V30 18634 H 1714.12 4.0861 -1.03034 0
M  V30 18635 H 1712.84 3.26453 -0.0979944 0
M  V30 18636 H 1711.5 2.92948 -2.20402 0
M  V30 18637 H 1711.15 4.96655 -0.796449 0
M  V30 18638 H 1710.85 5.30877 -2.51881 0
M  V30 18639 H 1712.37 5.84752 -1.75777 0
M  V30 18640 H 1713.79 4.48292 -3.57362 0
M  V30 18641 H 1712.18 4.1809 -4.30489 0
M  V30 18642 H 1713.25 2.81265 -3.94991 0
M  V30 18643 N 1714.6 1.19237 1.03055 0
M  V30 18644 C 1715.53 0.886348 2.11368 0
M  V30 18645 C 1716.54 -0.120256 1.62355 0
M  V30 18646 O 1717.73 0.108934 1.78167 0
M  V30 18647 C 1714.83 0.304819 3.37526 0
M  V30 18648 C 1714 1.35957 4.15734 0
M  V30 18649 C 1713.06 0.791885 5.20207 0
M  V30 18650 O 1712.09 1.46916 5.49913 0
M  V30 18651 N 1713.29 -0.40564 5.79081 0
M  V30 18652 H 1716.06 1.81867 2.38211 0
M  V30 18653 H 1713.62 1.09414 1.19332 0
M  V30 18654 H 1715.61 -0.0887629 4.04603 0
M  V30 18655 H 1714.18 -0.531744 3.08044 0
M  V30 18656 H 1713.4 1.92806 3.43831 0
M  V30 18657 H 1714.69 2.07034 4.64773 0
M  V30 18658 H 1714.08 -0.973423 5.57262 0
M  V30 18659 H 1712.64 -0.741021 6.47574 0
M  V30 18660 N 1716.07 -1.22136 0.99602 0
M  V30 18661 C 1716.98 -2.27869 0.557927 0
M  V30 18662 C 1718 -1.69462 -0.394781 0
M  V30 18663 O 1719.18 -1.99704 -0.26084 0
M  V30 18664 C 1716.24 -3.46501 -0.117434 0
M  V30 18665 C 1715.3 -4.20213 0.878627 0
M  V30 18666 C 1714.54 -5.33181 0.2354 0
M  V30 18667 O 1714.76 -5.62093 -0.969954 0
M  V30 18668 O 1713.69 -5.94486 0.941828 0
M  V30 18669 H 1717.52 -2.67517 1.43765 0
M  V30 18670 H 1715.1 -1.28362 0.764428 0
M  V30 18671 H 1716.99 -4.18476 -0.49559 0
M  V30 18672 H 1715.66 -3.08772 -0.971674 0
M  V30 18673 H 1714.57 -3.50497 1.30777 0
M  V30 18674 H 1715.9 -4.6183 1.70217 0
M  V30 18675 N 1717.55 -0.769612 -1.37531 0
M  V30 18676 C 1718.48 -0.168389 -2.32892 0
M  V30 18677 C 1719.46 0.685549 -1.55673 0
M  V30 18678 O 1720.65 0.62345 -1.8392 0
M  V30 18679 C 1717.78 0.713183 -3.39898 0
M  V30 18680 C 1716.73 -0.0392808 -4.27982 0
M  V30 18681 C 1716.06 0.961596 -5.25982 0
M  V30 18682 C 1717.36 -1.21704 -5.07923 0
M  V30 18683 H 1719.05 -0.965022 -2.83421 0
M  V30 18684 H 1716.6 -0.465502 -1.36268 0
M  V30 18685 H 1718.55 1.14358 -4.05586 0
M  V30 18686 H 1717.28 1.54231 -2.87889 0
M  V30 18687 H 1715.93 -0.450429 -3.63822 0
M  V30 18688 H 1715.58 1.78522 -4.70254 0
M  V30 18689 H 1715.28 0.462679 -5.85776 0
M  V30 18690 H 1716.81 1.39097 -5.94545 0
M  V30 18691 H 1718.22 -0.863405 -5.66761 0
M  V30 18692 H 1716.62 -1.6479 -5.77031 0
M  V30 18693 H 1717.69 -2.02219 -4.40722 0
M  V30 18694 N 1719.03 1.48775 -0.519977 0
M  V30 18695 C 1720.31 1.95429 0.0816701 0
M  V30 18696 C 1720.69 1.46199 1.52279 0
M  V30 18697 O 1720.04 0.684057 2.1802 0
M  V30 18698 C 1720.25 3.48991 -0.0252472 0
M  V30 18699 C 1721.59 4.24372 0.139099 0
M  V30 18700 O 1722.62 3.56166 0.0490322 0
M  V30 18701 O 1721.48 5.45524 0.326426 0
M  V30 18702 H 1718.57 0.822637 0.0848378 0
M  V30 18703 H 1721.12 1.5934 -0.583865 0
M  V30 18704 H 1719.89 3.77514 -1.02951 0
M  V30 18705 H 1719.51 3.91749 0.679588 0
M  V30 18706 N 1720.51 0.254649 1.55529 0
M  V30 18707 C 1721.79 -0.418663 1.91067 0
M  V30 18708 C 1722.17 -1.75284 1.17638 0
M  V30 18709 O 1721.51 -2.26569 0.296411 0
M  V30 18710 C 1721.72 -0.579125 3.44162 0
M  V30 18711 C 1723.07 -0.871451 4.15561 0
M  V30 18712 O 1724.1 -0.664702 3.49943 0
M  V30 18713 O 1722.95 -1.26563 5.31643 0
M  V30 18714 H 1720.05 -0.22593 0.795541 0
M  V30 18715 H 1722.59 0.299288 1.6704 0
M  V30 18716 H 1721.37 0.36062 3.89635 0
M  V30 18717 H 1720.99 -1.34732 3.74076 0
M  V30 18718 N 1721.99 -1.57589 -0.0183649 0
M  V30 18719 C 1723.21 -1.94421 -0.722172 0
M  V30 18720 C 1723.64 -0.855471 -1.67521 0
M  V30 18721 O 1722.99 0.187954 -1.80323 0
M  V30 18722 C 1723.04 -3.30331 -1.44615 0
M  V30 18723 O 1722.15 -3.23337 -2.55982 0
M  V30 18724 H 1721.49 -0.63519 -0.193466 0
M  V30 18725 H 1724.02 -2.04579 0.0293527 0
M  V30 18726 H 1724.03 -3.65471 -1.8137 0
M  V30 18727 H 1722.7 -4.09132 -0.747256 0
M  V30 18728 H 1721.28 -2.99845 -2.21692 0
M  V30 18729 N 1723.46 0.290824 -1.54893 0
M  V30 18730 C 1724.69 1.04344 -1.78661 0
M  V30 18731 C 1725.11 1.80578 -0.551083 0
M  V30 18732 O 1724.46 1.76091 0.479394 0
M  V30 18733 C 1724.52 2.01604 -3.00064 0
M  V30 18734 O 1724.24 1.28461 -4.18843 0
M  V30 18735 C 1725.74 2.88822 -3.36298 0
M  V30 18736 H 1722.96 0.309018 -0.595608 0
M  V30 18737 H 1725.5 0.327011 -2.01868 0
M  V30 18738 H 1723.66 2.68735 -2.79035 0
M  V30 18739 H 1724.07 1.93864 -4.87357 0
M  V30 18740 H 1725.54 3.52898 -4.24461 0
M  V30 18741 H 1726.02 3.5766 -2.54904 0
M  V30 18742 H 1726.63 2.27208 -3.59523 0
M  V30 18743 N 1724.94 1.47523 0.554506 0
M  V30 18744 C 1725.87 1.56275 1.67663 0
M  V30 18745 C 1726.89 0.448743 1.56493 0
M  V30 18746 O 1728.08 0.718478 1.63402 0
M  V30 18747 C 1725.18 1.45348 3.06149 0
M  V30 18748 C 1724.35 2.71364 3.43046 0
M  V30 18749 C 1723.41 2.54237 4.60706 0
M  V30 18750 O 1722.43 3.28059 4.65152 0
M  V30 18751 N 1723.64 1.6224 5.57367 0
M  V30 18752 H 1726.4 2.53036 1.60601 0
M  V30 18753 H 1723.96 1.43936 0.741209 0
M  V30 18754 H 1725.95 1.31621 3.82698 0
M  V30 18755 H 1724.52 0.566583 3.07423 0
M  V30 18756 H 1723.74 2.99833 2.55917 0
M  V30 18757 H 1725.03 3.55017 3.64473 0
M  V30 18758 H 1724.43 1.01419 5.56534 0
M  V30 18759 H 1722.99 1.54463 6.33233 0
M  V30 18760 N 1726.42 -0.801453 1.357 0
M  V30 18761 C 1727.35 -1.92807 1.31711 0
M  V30 18762 C 1728.33 -1.69028 0.190642 0
M  V30 18763 O 1729.52 -1.90317 0.38641 0
M  V30 18764 C 1726.65 -3.29635 1.09352 0
M  V30 18765 C 1725.6 -3.67908 2.18695 0
M  V30 18766 C 1724.93 -5.02955 1.81494 0
M  V30 18767 C 1726.23 -3.77749 3.60698 0
M  V30 18768 H 1727.92 -1.96401 2.2598 0
M  V30 18769 H 1725.47 -0.943528 1.08782 0
M  V30 18770 H 1727.42 -4.08058 1.052 0
M  V30 18771 H 1726.14 -3.26396 0.115306 0
M  V30 18772 H 1724.8 -2.91775 2.21952 0
M  V30 18773 H 1724.45 -4.96225 0.822776 0
M  V30 18774 H 1724.15 -5.29533 2.54692 0
M  V30 18775 H 1725.67 -5.83811 1.78876 0
M  V30 18776 H 1727.09 -4.4639 3.59734 0
M  V30 18777 H 1725.49 -4.15801 4.327 0
M  V30 18778 H 1726.56 -2.79167 3.96477 0
M  V30 18779 N 1727.9 -1.19782 -1.02421 0
M  V30 18780 C 1729.31 -1.00493 -1.57347 0
M  V30 18781 C 1729.66 0.440854 -1.91183 0
M  V30 18782 O 1728.79 1.32102 -1.714 0
M  V30 18783 C 1729.38 -1.8179 -2.85898 0
M  V30 18784 C 1727.94 -1.66889 -3.3738 0
M  V30 18785 C 1727.09 -1.80199 -2.10769 0
M  V30 18786 H 1730.04 -1.34085 -0.848938 0
M  V30 18787 H 1730.06 -1.31676 -3.5699 0
M  V30 18788 H 1729.57 -2.87011 -2.6124 0
M  V30 18789 H 1727.67 -0.64274 -3.67014 0
M  V30 18790 H 1727.78 -2.47705 -4.10096 0
M  V30 18791 H 1726.15 -1.23308 -2.22862 0
M  V30 18792 H 1726.93 -2.86889 -1.88546 0
M  V30 18793 N 1729.38 1.21606 -1.00248 0
M  V30 18794 C 1730.31 2.26159 -0.580911 0
M  V30 18795 C 1731.29 1.65402 0.397017 0
M  V30 18796 O 1732.47 1.92089 0.285552 0
M  V30 18797 C 1729.6 3.47168 0.0957564 0
M  V30 18798 C 1728.56 4.20425 -0.801695 0
M  V30 18799 C 1727.88 5.34699 0.00842241 0
M  V30 18800 C 1729.18 4.78086 -2.10311 0
M  V30 18801 H 1730.88 2.61675 -1.45487 0
M  V30 18802 H 1728.42 1.25786 -0.700995 0
M  V30 18803 H 1730.38 4.19477 0.402141 0
M  V30 18804 H 1729.1 3.10775 1.00433 0
M  V30 18805 H 1727.76 3.49963 -1.09187 0
M  V30 18806 H 1727.41 4.94548 0.918206 0
M  V30 18807 H 1727.11 5.84639 -0.589105 0
M  V30 18808 H 1728.63 6.09819 0.30868 0
M  V30 18809 H 1730.05 5.42287 -1.86004 0
M  V30 18810 H 1728.44 5.38405 -2.65028 0
M  V30 18811 H 1729.51 3.97607 -2.77555 0
M  V30 18812 N 1730.86 0.776895 1.37121 0
M  V30 18813 C 1731.79 0.180738 2.32799 0
M  V30 18814 C 1732.77 -0.677284 1.56035 0
M  V30 18815 O 1733.95 -0.613687 1.84249 0
M  V30 18816 C 1731.08 -0.695148 3.40272 0
M  V30 18817 C 1730.04 0.0619772 4.27955 0
M  V30 18818 C 1729.36 -0.933688 5.26485 0
M  V30 18819 C 1730.66 1.24396 5.0727 0
M  V30 18820 H 1732.36 0.980039 2.82906 0
M  V30 18821 H 1729.9 0.472722 1.3602 0
M  V30 18822 H 1731.85 -1.12205 4.06187 0
M  V30 18823 H 1730.58 -1.52702 2.88703 0
M  V30 18824 H 1729.24 0.469717 3.63578 0
M  V30 18825 H 1728.89 -1.76025 4.71194 0
M  V30 18826 H 1728.59 -0.431608 5.86013 0
M  V30 18827 H 1730.11 -1.35942 5.95275 0
M  V30 18828 H 1731.52 0.89345 5.66295 0
M  V30 18829 H 1729.92 1.67848 5.76149 0
M  V30 18830 H 1730.99 2.04553 4.39643 0
M  V30 18831 N 1732.33 -1.48497 0.527859 0
M  V30 18832 C 1733.57 -2.04399 -0.00503337 0
M  V30 18833 C 1733.94 -1.39636 -1.3178 0
M  V30 18834 O 1735.14 -1.86412 -1.93659 0
M  V30 18835 C 1733.41 -3.57175 -0.126716 0
M  V30 18836 S 1734.97 -4.3454 -0.60998 0
M  V30 18837 H 1731.79 -0.710914 0.0110467 0
M  V30 18838 H 1734.39 -1.82232 0.707938 0
M  V30 18839 H 1733.09 -4.01845 0.833581 0
M  V30 18840 H 1732.62 -3.83792 -0.864129 0
M  V30 18841 H 1734.64 -4.59417 -1.87484 0
M  V30 18842 N 1733.81 -0.262893 -1.55392 0
M  V30 18843 C 1734.76 0.644115 -2.18712 0
M  V30 18844 C 1735.75 1.12746 -1.14792 0
M  V30 18845 O 1736.94 1.07457 -1.40649 0
M  V30 18846 C 1734.07 1.83346 -2.9024 0
M  V30 18847 C 1733.15 1.36787 -4.01435 0
M  V30 18848 N 1733.54 0.617586 -5.02015 0
M  V30 18849 C 1731.84 1.65185 -4.14283 0
M  V30 18850 C 1732.54 0.374392 -5.80494 0
M  V30 18851 N 1731.52 0.943273 -5.35353 0
M  V30 18852 H 1735.32 0.062908 -2.93833 0
M  V30 18853 H 1732.83 -0.0659062 -1.62266 0
M  V30 18854 H 1734.83 2.49441 -3.34043 0
M  V30 18855 H 1733.49 2.41874 -2.16627 0
M  V30 18856 H 1734.5 0.266115 -5.17216 0
M  V30 18857 H 1731.18 2.24736 -3.51852 0
M  V30 18858 H 1732.57 -0.225674 -6.71521 0
M  V30 18859 N 1735.29 1.57597 0.0100073 0
M  V30 18860 C 1736.54 1.90129 0.696935 0
M  V30 18861 C 1736.86 0.862514 1.7433 0
M  V30 18862 O 1736.12 -0.134054 1.9524 0
M  V30 18863 C 1736.42 3.29416 1.38635 0
M  V30 18864 C 1736.08 4.484 0.474144 0
M  V30 18865 C 1734.75 4.80683 0.222956 0
M  V30 18866 C 1737.1 5.20971 -0.154514 0
M  V30 18867 C 1734.43 5.82915 -0.665351 0
M  V30 18868 C 1736.78 6.24148 -1.03064 0
M  V30 18869 C 1735.44 6.54895 -1.2911 0
M  V30 18870 H 1734.71 0.695732 0.255027 0
M  V30 18871 H 1737.36 1.91451 -0.0433713 0
M  V30 18872 H 1735.66 3.24172 2.20045 0
M  V30 18873 H 1737.36 3.51843 1.92373 0
M  V30 18874 H 1733.95 4.2317 0.680087 0
M  V30 18875 H 1738.14 4.96293 0.0265512 0
M  V30 18876 H 1733.39 6.05103 -0.875259 0
M  V30 18877 H 1737.57 6.79516 -1.52417 0
M  V30 18878 H 1735.19 7.33931 -1.98113 0
M  V30 18879 N 1736.77 -0.282606 1.55045 0
M  V30 18880 C 1737.99 -1.03825 1.79542 0
M  V30 18881 C 1738.42 -1.79503 0.562165 0
M  V30 18882 O 1737.78 -1.7461 -0.487946 0
M  V30 18883 C 1737.82 -1.98007 3.01373 0
M  V30 18884 O 1736.93 -3.06621 2.75785 0
M  V30 18885 H 1736.27 -0.297333 0.593708 0
M  V30 18886 H 1738.8 -0.314434 2.02169 0
M  V30 18887 H 1738.81 -2.40138 3.29845 0
M  V30 18888 H 1737.48 -1.42335 3.90786 0
M  V30 18889 H 1736.06 -2.68874 2.58382 0
M  V30 18890 N 1738.25 -1.47815 -0.546675 0
M  V30 18891 C 1739.16 -1.63744 -1.68003 0
M  V30 18892 C 1740.17 -0.520118 -1.66044 0
M  V30 18893 O 1741.35 -0.789033 -1.853 0
M  V30 18894 C 1738.41 -1.65778 -3.04497 0
M  V30 18895 C 1737.47 -2.89015 -3.17441 0
M  V30 18896 C 1736.71 -2.90943 -4.47424 0
M  V30 18897 O 1736.93 -2.01769 -5.33522 0
M  V30 18898 O 1735.86 -3.82927 -4.64382 0
M  V30 18899 H 1739.69 -2.59665 -1.57505 0
M  V30 18900 H 1737.27 -1.31022 -0.717883 0
M  V30 18901 H 1739.16 -1.69734 -3.85705 0
M  V30 18902 H 1737.83 -0.730268 -3.15355 0
M  V30 18903 H 1736.74 -2.90599 -2.35591 0
M  V30 18904 H 1738.07 -3.81095 -3.11492 0
M  V30 18905 N 1739.72 0.794246 -1.36123 0
M  V30 18906 C 1740.95 1.58297 -1.33228 0
M  V30 18907 C 1741.37 1.88597 0.0875426 0
M  V30 18908 O 1740.72 1.49754 1.04307 0
M  V30 18909 C 1740.77 2.90687 -2.14904 0
M  V30 18910 O 1740.5 2.61695 -3.51351 0
M  V30 18911 C 1742 3.85009 -2.19734 0
M  V30 18912 H 1739.22 0.491139 -0.457191 0
M  V30 18913 H 1741.76 0.986129 -1.79153 0
M  V30 18914 H 1739.92 3.46852 -1.72546 0
M  V30 18915 H 1740.33 3.46313 -3.93913 0
M  V30 18916 H 1741.8 4.74976 -2.8125 0
M  V30 18917 H 1742.28 4.22504 -1.19946 0
M  V30 18918 H 1742.89 3.34777 -2.62307 0
M  V30 18919 N 1741.2 1.20323 1.01785 0
M  V30 18920 C 1742.16 0.9527 2.08462 0
M  V30 18921 C 1743.16 -0.0712564 1.60642 0
M  V30 18922 O 1744.35 0.164672 1.7342 0
M  V30 18923 C 1741.49 0.434052 3.38125 0
M  V30 18924 H 1742.68 1.89895 2.32121 0
M  V30 18925 H 1740.23 1.01843 1.18565 0
M  V30 18926 H 1740.97 -0.51772 3.20141 0
M  V30 18927 H 1740.75 1.17248 3.74159 0
M  V30 18928 H 1742.24 0.278215 4.16672 0
M  V30 18929 N 1742.68 -1.21073 1.00892 0
M  V30 18930 C 1743.59 -2.27265 0.582065 0
M  V30 18931 C 1744.61 -1.69872 -0.376785 0
M  V30 18932 O 1745.78 -1.99969 -0.239644 0
M  V30 18933 C 1742.85 -3.46606 -0.0806764 0
M  V30 18934 C 1741.91 -4.19257 0.923147 0
M  V30 18935 C 1741.14 -5.32901 0.291938 0
M  V30 18936 O 1741.36 -5.6309 -0.910282 0
M  V30 18937 O 1740.3 -5.93453 1.00483 0
M  V30 18938 H 1744.12 -2.65977 1.46594 0
M  V30 18939 H 1741.71 -1.27544 0.777999 0
M  V30 18940 H 1743.59 -4.18978 -0.451177 0
M  V30 18941 H 1742.27 -3.09785 -0.93887 0
M  V30 18942 H 1741.17 -3.4909 1.34488 0
M  V30 18943 H 1742.51 -4.59999 1.75106 0
M  V30 18944 N 1744.16 -0.784156 -1.36707 0
M  V30 18945 C 1745.41 -0.353434 -1.98986 0
M  V30 18946 C 1745.73 1.07714 -1.62551 0
M  V30 18947 O 1745 1.7416 -0.896938 0
M  V30 18948 H 1743.58 -0.127693 -0.736005 0
M  V30 18949 H 1746.24 -1.00503 -1.66988 0
M  V30 18950 H 1745.34 -0.441028 -3.08968 0
M  V30 18951 N 1745.64 1.48215 -0.535727 0
M  V30 18952 C 1746.57 2.3253 0.212562 0
M  V30 18953 C 1747.55 1.42454 0.929568 0
M  V30 18954 O 1748.73 1.71334 0.914228 0
M  V30 18955 C 1745.86 3.23777 1.25641 0
M  V30 18956 C 1744.82 4.22924 0.657191 0
M  V30 18957 C 1744.14 5.03345 1.80411 0
M  V30 18958 C 1745.44 5.20953 -0.374902 0
M  V30 18959 H 1747.14 2.95341 -0.491301 0
M  V30 18960 H 1744.68 1.42024 -0.237718 0
M  V30 18961 H 1746.64 3.81592 1.78789 0
M  V30 18962 H 1745.36 2.58978 1.98993 0
M  V30 18963 H 1744.02 3.66304 0.147184 0
M  V30 18964 H 1743.67 4.34965 2.52615 0
M  V30 18965 H 1743.37 5.70455 1.40906 0
M  V30 18966 H 1744.89 5.64013 2.33926 0
M  V30 18967 H 1746.3 5.73258 0.0697072 0
M  V30 18968 H 1744.7 5.96147 -0.687646 0
M  V30 18969 H 1745.77 4.67739 -1.27861 0
M  V30 18970 N 1747.11 0.27113 1.5525 0
M  V30 18971 C 1748.34 -0.350248 2.03914 0
M  V30 18972 C 1748.76 -1.49763 1.14963 0
M  V30 18973 O 1748.11 -1.81717 0.168923 0
M  V30 18974 C 1748.17 -0.835056 3.51723 0
M  V30 18975 O 1747.89 0.266625 4.37288 0
M  V30 18976 C 1749.39 -1.52466 4.16256 0
M  V30 18977 H 1746.61 -0.0803955 0.666166 0
M  V30 18978 H 1749.15 0.402063 2.00509 0
M  V30 18979 H 1747.31 -1.53747 3.55585 0
M  V30 18980 H 1747.72 -0.105433 5.24394 0
M  V30 18981 H 1749.19 -1.81534 5.21296 0
M  V30 18982 H 1749.67 -2.45485 3.64189 0
M  V30 18983 H 1750.28 -0.8662 4.16386 0
M  V30 18984 N 1748.59 -1.576 -0.00164943 0
M  V30 18985 C 1749.82 -1.94775 -0.697872 0
M  V30 18986 C 1750.24 -0.873094 -1.67399 0
M  V30 18987 O 1749.59 0.148119 -1.81898 0
M  V30 18988 C 1749.64 -3.31963 -1.43117 0
M  V30 18989 O 1749.36 -4.35304 -0.494203 0
M  V30 18990 C 1750.87 -3.83588 -2.22206 0
M  V30 18991 H 1748.09 -0.6422 -0.194474 0
M  V30 18992 H 1750.63 -2.04441 0.04898 0
M  V30 18993 H 1748.78 -3.2361 -2.12967 0
M  V30 18994 H 1749.2 -5.14656 -1.0114 0
M  V30 18995 H 1750.67 -4.82012 -2.69014 0
M  V30 18996 H 1751.15 -3.16208 -3.0481 0
M  V30 18997 H 1751.76 -3.95111 -1.57376 0
M  V30 18998 N 1750.07 0.274379 -1.55193 0
M  V30 18999 C 1751.32 1.00394 -1.7494 0
M  V30 19000 C 1751.63 1.87499 -0.557084 0
M  V30 19001 O 1752.84 2.63923 -0.636936 0
M  V30 19002 C 1751.29 1.83489 -3.09612 0
M  V30 19003 C 1750.9 1.01257 -4.36407 0
M  V30 19004 C 1752.65 2.55883 -3.38709 0
M  V30 19005 C 1750.55 1.83782 -5.62119 0
M  V30 19006 H 1749.48 0.378561 -0.65208 0
M  V30 19007 H 1752.13 0.259678 -1.81653 0
M  V30 19008 H 1750.52 2.62005 -2.96933 0
M  V30 19009 H 1751.69 0.27167 -4.59998 0
M  V30 19010 H 1750.01 0.403235 -4.14443 0
M  V30 19011 H 1752.6 3.18028 -4.2984 0
M  V30 19012 H 1752.95 3.26096 -2.58779 0
M  V30 19013 H 1753.48 1.84398 -3.5248 0
M  V30 19014 H 1750.22 1.17992 -6.44793 0
M  V30 19015 H 1749.74 2.55473 -5.42673 0
M  V30 19016 H 1751.42 2.41181 -6.00367 0
M  V30 19017 N 1751.55 1.48103 0.538828 0
M  V30 19018 C 1752.96 1.34028 0.866532 0
M  V30 19019 C 1753.16 0.3446 1.98531 0
M  V30 19020 O 1752.22 -0.237347 2.51382 0
M  V30 19021 C 1753.53 2.73833 1.24241 0
M  V30 19022 C 1755.08 2.82256 1.35279 0
M  V30 19023 C 1755.56 4.22744 1.76214 0
M  V30 19024 N 1757.05 4.25374 1.83332 0
M  V30 19025 C 1757.78 5.31009 2.16373 0
M  V30 19026 N 1757.28 6.4693 2.47899 0
M  V30 19027 N 1759.07 5.18397 2.17304 0
M  V30 19028 H 1751.22 2.11461 -0.199502 0
M  V30 19029 H 1753.49 0.947627 -0.0266031 0
M  V30 19030 H 1753.19 3.48213 0.494025 0
M  V30 19031 H 1753.07 3.0679 2.19453 0
M  V30 19032 H 1755.45 2.08137 2.09196 0
M  V30 19033 H 1755.53 2.5293 0.382096 0
M  V30 19034 H 1755.18 4.97375 1.02862 0
M  V30 19035 H 1755.11 4.49507 2.74319 0
M  V30 19036 H 1757.6 3.41755 1.61282 0
M  V30 19037 H 1757.91 7.23279 2.7219 0
M  V30 19038 H 1756.26 6.50219 2.45438 0
M  V30 19039 H 1759.45 4.26855 1.92126 0
M  V30 19040 H 1759.62 6.00824 2.42722 0
M  V30 19041 N 1753.03 -0.787016 1.36542 0
M  V30 19042 C 1753.99 -1.88136 1.3091 0
M  V30 19043 C 1754.99 -1.59339 0.216292 0
M  V30 19044 O 1756.18 -1.67706 0.471222 0
M  V30 19045 C 1753.31 -3.24969 1.02994 0
M  V30 19046 H 1754.5 -1.94546 2.28237 0
M  V30 19047 H 1752.06 -0.985084 1.2135 0
M  V30 19048 H 1752.79 -3.24242 0.0613497 0
M  V30 19049 H 1752.58 -3.47261 1.82078 0
M  V30 19050 H 1754.07 -4.05036 1.01664 0
M  V30 19051 N 1754.5 -1.20861 -1.01145 0
M  V30 19052 C 1755.75 -1.02191 -1.74823 0
M  V30 19053 C 1756.08 0.445357 -1.89333 0
M  V30 19054 O 1755.33 1.34684 -1.41982 0
M  V30 19055 C 1755.63 -1.65666 -3.16685 0
M  V30 19056 C 1755.3 -3.15494 -3.2214 0
M  V30 19057 C 1753.96 -3.56381 -3.23336 0
M  V30 19058 C 1756.31 -4.11481 -3.19895 0
M  V30 19059 C 1753.64 -4.91772 -3.19964 0
M  V30 19060 C 1755.99 -5.46826 -3.18064 0
M  V30 19061 C 1754.66 -5.87118 -3.17566 0
M  V30 19062 H 1753.93 -0.373945 -0.639724 0
M  V30 19063 H 1756.57 -1.50361 -1.18592 0
M  V30 19064 H 1754.88 -1.09772 -3.76108 0
M  V30 19065 H 1756.58 -1.4873 -3.72398 0
M  V30 19066 H 1753.17 -2.82926 -3.21948 0
M  V30 19067 H 1757.35 -3.80924 -3.18136 0
M  V30 19068 H 1752.61 -5.22247 -3.17913 0
M  V30 19069 H 1756.78 -6.20945 -3.15279 0
M  V30 19070 H 1754.41 -6.92 -3.14707 0
M  V30 19071 N 1755.98 1.20536 -1.01532 0
M  V30 19072 C 1757.4 1.41929 -0.729957 0
M  V30 19073 C 1757.6 1.89286 0.69088 0
M  V30 19074 O 1756.65 2.06094 1.45882 0
M  V30 19075 C 1757.97 2.44202 -1.75458 0
M  V30 19076 C 1759.52 2.57971 -1.77257 0
M  V30 19077 C 1759.99 3.63486 -2.78643 0
M  V30 19078 N 1761.48 3.70968 -2.77375 0
M  V30 19079 C 1762.22 4.52266 -3.52481 0
M  V30 19080 N 1761.71 5.37379 -4.37259 0
M  V30 19081 N 1763.51 4.46787 -3.41084 0
M  V30 19082 H 1755.66 0.881116 -1.93262 0
M  V30 19083 H 1757.92 0.449299 -0.834766 0
M  V30 19084 H 1757.63 2.16401 -2.77243 0
M  V30 19085 H 1757.5 3.43171 -1.56568 0
M  V30 19086 H 1759.89 2.85103 -0.761586 0
M  V30 19087 H 1759.97 1.59202 -2.00221 0
M  V30 19088 H 1759.61 3.37097 -3.79905 0
M  V30 19089 H 1759.54 4.61874 -2.52942 0
M  V30 19090 H 1762.03 3.10171 -2.15876 0
M  V30 19091 H 1762.35 5.96495 -4.91338 0
M  V30 19092 H 1760.69 5.36886 -4.41337 0
M  V30 19093 H 1763.88 3.79329 -2.74275 0
M  V30 19094 H 1764.05 5.0991 -3.9987 0
M  V30 19095 N 1757.46 0.791395 1.36289 0
M  V30 19096 C 1758.41 0.164218 2.27408 0
M  V30 19097 C 1759.39 -0.653018 1.47053 0
M  V30 19098 O 1760.59 -0.512767 1.6941 0
M  V30 19099 C 1757.72 -0.698551 3.36118 0
M  V30 19100 C 1756.8 0.127583 4.23908 0
M  V30 19101 N 1757.19 1.18307 4.91769 0
M  V30 19102 C 1755.49 -0.0932621 4.45902 0
M  V30 19103 C 1756.19 1.68616 5.56726 0
M  V30 19104 N 1755.17 0.995058 5.34415 0
M  V30 19105 H 1758.97 0.972045 2.7736 0
M  V30 19106 H 1756.48 0.63105 1.49638 0
M  V30 19107 H 1758.48 -1.16379 4.00327 0
M  V30 19108 H 1757.14 -1.5049 2.8772 0
M  V30 19109 H 1758.15 1.56553 4.93672 0
M  V30 19110 H 1754.83 -0.869962 4.08336 0
M  V30 19111 H 1756.22 2.56745 6.20912 0
M  V30 19112 N 1758.94 -1.47929 0.54358 0
M  V30 19113 C 1759.85 -2.33611 -0.215191 0
M  V30 19114 C 1760.87 -1.47343 -0.925526 0
M  V30 19115 O 1762.04 -1.80299 -0.897459 0
M  V30 19116 C 1759.11 -3.23755 -1.24031 0
M  V30 19117 C 1758.17 -4.25904 -0.538874 0
M  V30 19118 C 1757.4 -5.11741 -1.51516 0
M  V30 19119 O 1757.62 -4.9979 -2.74893 0
M  V30 19120 O 1756.56 -5.92722 -1.0471 0
M  V30 19121 H 1760.38 -2.99765 0.487279 0
M  V30 19122 H 1757.97 -1.46267 0.30434 0
M  V30 19123 H 1759.85 -3.79475 -1.8324 0
M  V30 19124 H 1758.53 -2.60245 -1.92495 0
M  V30 19125 H 1757.43 -3.73982 0.0940539 0
M  V30 19126 H 1758.77 -4.9209 0.104063 0
M  V30 19127 N 1760.42 -0.27936 -1.55104 0
M  V30 19128 C 1761.65 0.339429 -2.04097 0
M  V30 19129 C 1762.06 1.49151 -1.15756 0
M  V30 19130 O 1761.42 1.81624 -0.178558 0
M  V30 19131 C 1761.47 0.816392 -3.52161 0
M  V30 19132 O 1761.19 -0.289812 -4.3714 0
M  V30 19133 C 1762.69 1.50256 -4.17059 0
M  V30 19134 H 1759.91 0.0768615 -0.666583 0
M  V30 19135 H 1762.45 -0.412691 -2.00293 0
M  V30 19136 H 1760.61 1.51859 -3.56395 0
M  V30 19137 H 1761.02 0.0776213 -5.24443 0
M  V30 19138 H 1762.5 1.78767 -5.22251 0
M  V30 19139 H 1762.97 2.4355 -3.65486 0
M  V30 19140 H 1763.58 0.844106 -4.16839 0
M  V30 19141 N 1761.9 1.57599 -0.0067085 0
M  V30 19142 C 1763.31 1.55727 0.349452 0
M  V30 19143 C 1763.51 1.01004 1.74357 0
M  V30 19144 O 1762.57 0.646817 2.44075 0
M  V30 19145 C 1763.88 2.99905 0.218546 0
M  V30 19146 C 1765.43 3.11626 0.292987 0
M  V30 19147 C 1765.9 4.57601 0.191129 0
M  V30 19148 N 1767.39 4.62531 0.248819 0
M  V30 19149 C 1768.13 5.73074 0.193448 0
M  V30 19150 N 1767.63 6.92744 0.0882834 0
M  V30 19151 N 1769.42 5.61562 0.245803 0
M  V30 19152 H 1761.57 1.91508 -0.918617 0
M  V30 19153 H 1763.83 0.879931 -0.352739 0
M  V30 19154 H 1763.54 3.43807 -0.740914 0
M  V30 19155 H 1763.41 3.63761 0.997905 0
M  V30 19156 H 1765.8 2.67649 1.2429 0
M  V30 19157 H 1765.88 2.50534 -0.516358 0
M  V30 19158 H 1765.52 5.02253 -0.755263 0
M  V30 19159 H 1765.45 5.16646 1.01905 0
M  V30 19160 H 1767.95 3.76446 0.331157 0
M  V30 19161 H 1768.26 7.72782 0.052112 0
M  V30 19162 H 1766.6 6.94979 0.0538156 0
M  V30 19163 H 1769.79 4.66962 0.326204 0
M  V30 19164 H 1769.97 6.47694 0.199185 0
M  V30 19165 N 1763.37 -0.266145 1.55336 0
M  V30 19166 C 1764.62 -0.996831 1.76265 0
M  V30 19167 C 1764.95 -1.86035 0.567553 0
M  V30 19168 O 1764.2 -1.90462 -0.449754 0
M  V30 19169 C 1764.5 -1.90357 3.02488 0
M  V30 19170 C 1764.17 -1.19699 4.34722 0
M  V30 19171 C 1762.83 -1.00164 4.7066 0
M  V30 19172 C 1765.18 -0.694703 5.16549 0
M  V30 19173 C 1762.51 -0.291394 5.85976 0
M  V30 19174 C 1764.86 0.00198006 6.326 0
M  V30 19175 C 1763.53 0.20898 6.67173 0
M  V30 19176 H 1762.8 -0.364766 0.645001 0
M  V30 19177 H 1765.44 -0.268528 1.89608 0
M  V30 19178 H 1763.75 -2.69831 2.84075 0
M  V30 19179 H 1765.45 -2.47026 3.15878 0
M  V30 19180 H 1762.04 -1.35916 4.06479 0
M  V30 19181 H 1766.22 -0.833229 4.89256 0
M  V30 19182 H 1761.48 -0.120359 6.11282 0
M  V30 19183 H 1765.65 0.398909 6.95257 0
M  V30 19184 H 1763.28 0.761301 7.56378 0
M  V30 19185 N 1764.85 -1.48386 -0.530967 0
M  V30 19186 C 1765.8 -1.62835 -1.63564 0
M  V30 19187 C 1766.77 -0.470453 -1.59298 0
M  V30 19188 O 1767.95 -0.693813 -1.77738 0
M  V30 19189 C 1765.09 -1.67314 -3.01828 0
M  V30 19190 C 1764.21 -2.94204 -3.16335 0
M  V30 19191 C 1763.34 -2.8985 -4.45152 0
M  V30 19192 C 1762.38 -4.11449 -4.53185 0
M  V30 19193 N 1761.52 -4.05178 -5.7339 0
M  V30 19194 H 1766.36 -2.57172 -1.50554 0
M  V30 19195 H 1763.89 -1.27537 -0.732991 0
M  V30 19196 H 1765.85 -1.67892 -3.81927 0
M  V30 19197 H 1764.48 -0.764688 -3.13612 0
M  V30 19198 H 1763.53 -3.03375 -2.29495 0
M  V30 19199 H 1764.85 -3.84179 -3.18132 0
M  V30 19200 H 1764 -2.88824 -5.33541 0
M  V30 19201 H 1762.74 -1.97602 -4.45875 0
M  V30 19202 H 1761.74 -4.12751 -3.63203 0
M  V30 19203 H 1762.97 -5.04855 -4.54201 0
M  V30 19204 H 1760.92 -3.15749 -5.75012 0
M  V30 19205 H 1760.83 -4.88857 -5.76676 0
M  V30 19206 H 1762.1 -4.08209 -6.64067 0
M  V30 19207 N 1766.33 0.779763 -1.36958 0
M  V30 19208 C 1767.26 1.90168 -1.27941 0
M  V30 19209 C 1768.27 1.61605 -0.196866 0
M  V30 19210 O 1769.46 1.72673 -0.452368 0
M  V30 19211 C 1766.56 3.25208 -0.953565 0
M  V30 19212 C 1765.74 3.81477 -2.13995 0
M  V30 19213 C 1764.8 4.94976 -1.78564 0
M  V30 19214 O 1763.82 5.10984 -2.50767 0
M  V30 19215 N 1765.02 5.75955 -0.725015 0
M  V30 19216 H 1767.79 1.98422 -2.24608 0
M  V30 19217 H 1765.35 0.958495 -1.30478 0
M  V30 19218 H 1767.34 3.98643 -0.697529 0
M  V30 19219 H 1765.91 3.12508 -0.0757105 0
M  V30 19220 H 1765.13 2.99915 -2.55822 0
M  V30 19221 H 1766.42 4.15803 -2.93233 0
M  V30 19222 H 1765.82 5.6556 -0.125699 0
M  V30 19223 H 1764.37 6.49651 -0.528823 0
M  V30 19224 N 1767.81 1.21396 1.00503 0
M  V30 19225 C 1769.22 0.971304 1.26641 0
M  V30 19226 C 1769.42 -0.342336 1.98571 0
M  V30 19227 O 1768.48 -1.068 2.28801 0
M  V30 19228 C 1769.79 2.16186 2.09008 0
M  V30 19229 C 1771.34 2.20411 2.22234 0
M  V30 19230 C 1771.82 3.38984 3.07983 0
M  V30 19231 N 1773.31 3.3907 3.15572 0
M  V30 19232 C 1774.04 4.27467 3.82177 0
M  V30 19233 N 1773.54 5.26062 4.50811 0
M  V30 19234 N 1775.33 4.15276 3.78817 0
M  V30 19235 H 1767.48 2.05875 0.522436 0
M  V30 19236 H 1769.74 0.901496 0.293272 0
M  V30 19237 H 1769.45 3.11383 1.63504 0
M  V30 19238 H 1769.32 2.15243 3.09758 0
M  V30 19239 H 1771.71 1.25769 2.66957 0
M  V30 19240 H 1771.79 2.25397 1.20954 0
M  V30 19241 H 1771.44 4.33919 2.63964 0
M  V30 19242 H 1771.37 3.31236 4.09378 0
M  V30 19243 H 1773.86 2.67718 2.66713 0
M  V30 19244 H 1774.17 5.89815 4.99338 0
M  V30 19245 H 1772.52 5.29987 4.49599 0
M  V30 19246 H 1775.71 3.37511 3.24351 0
M  V30 19247 H 1775.88 4.84375 4.30448 0
M  V30 19248 N 1769.29 -1.19996 1.0217 0
M  V30 19249 C 1770.22 -2.21695 0.540962 0
M  V30 19250 C 1771.2 -1.57232 -0.414343 0
M  V30 19251 O 1772.38 -1.85533 -0.33314 0
M  V30 19252 C 1769.51 -3.38035 -0.212109 0
M  V30 19253 C 1768.55 -4.20824 0.693529 0
M  V30 19254 S 1769.39 -4.89756 2.16562 0
M  V30 19255 C 1770.54 -6.09513 1.42286 0
M  V30 19256 H 1770.78 -2.62131 1.40267 0
M  V30 19257 H 1768.31 -1.30128 0.831026 0
M  V30 19258 H 1770.27 -4.05473 -0.640484 0
M  V30 19259 H 1768.93 -2.96049 -1.04945 0
M  V30 19260 H 1768.12 -5.03874 0.112557 0
M  V30 19261 H 1767.72 -3.58667 1.05991 0
M  V30 19262 H 1770.01 -6.73816 0.705585 0
M  V30 19263 H 1770.96 -6.72079 2.22969 0
M  V30 19264 H 1771.37 -5.56895 0.923499 0
M  V30 19265 N 1770.76 -0.798611 -1.35867 0
M  V30 19266 C 1771.69 -0.217751 -2.32482 0
M  V30 19267 C 1772.67 0.652374 -1.57093 0
M  V30 19268 O 1773.86 0.584297 -1.85202 0
M  V30 19269 C 1770.99 0.640925 -3.41335 0
M  V30 19270 C 1769.94 -0.130053 -4.27802 0
M  V30 19271 C 1769.27 0.849811 -5.27904 0
M  V30 19272 C 1770.57 -1.32451 -5.05227 0
M  V30 19273 H 1772.26 -1.02492 -2.81311 0
M  V30 19274 H 1769.81 -0.494302 -1.3525 0
M  V30 19275 H 1771.76 1.05729 -4.07921 0
M  V30 19276 H 1770.49 1.4809 -2.91096 0
M  V30 19277 H 1769.15 -0.5275 -3.62785 0
M  V30 19278 H 1768.79 1.68507 -4.73935 0
M  V30 19279 H 1768.49 0.338323 -5.86625 0
M  V30 19280 H 1770.02 1.26455 -5.97362 0
M  V30 19281 H 1771.43 -0.983429 -5.64802 0
M  V30 19282 H 1769.83 -1.76992 -5.73405 0
M  V30 19283 H 1770.9 -2.11522 -4.36333 0
M  V30 19284 N 1772.24 1.47639 -0.551417 0
M  V30 19285 C 1773.15 2.33722 0.202799 0
M  V30 19286 C 1774.17 1.47832 0.917699 0
M  V30 19287 O 1775.34 1.80772 0.887885 0
M  V30 19288 C 1772.41 3.24408 1.22313 0
M  V30 19289 C 1771.47 4.26184 0.51628 0
M  V30 19290 C 1770.7 5.12537 1.488 0
M  V30 19291 O 1770.93 5.01241 2.72238 0
M  V30 19292 O 1769.86 5.93269 1.01566 0
M  V30 19293 H 1773.69 2.99503 -0.50317 0
M  V30 19294 H 1771.27 1.46104 -0.312093 0
M  V30 19295 H 1773.15 3.80441 1.81225 0
M  V30 19296 H 1771.83 2.61262 1.91112 0
M  V30 19297 H 1770.73 3.73927 -0.113886 0
M  V30 19298 H 1772.07 4.92028 -0.130158 0
M  V30 19299 N 1773.72 0.287581 1.54954 0
M  V30 19300 C 1774.65 -0.587855 2.25979 0
M  V30 19301 C 1775.63 -1.14884 1.25442 0
M  V30 19302 O 1776.82 -1.18067 1.54188 0
M  V30 19303 C 1773.95 -1.76618 2.99037 0
M  V30 19304 C 1772.9 -1.33617 4.06609 0
M  V30 19305 C 1772.23 -2.59859 4.67309 0
M  V30 19306 C 1773.53 -0.477219 5.20115 0
M  V30 19307 H 1775.22 0.00450183 2.994 0
M  V30 19308 H 1772.77 0.00360521 1.44 0
M  V30 19309 H 1774.72 -2.38461 3.4744 0
M  V30 19310 H 1773.44 -2.38457 2.23172 0
M  V30 19311 H 1772.1 -0.74088 3.59036 0
M  V30 19312 H 1771.75 -3.19983 3.88098 0
M  V30 19313 H 1771.45 -2.31793 5.3995 0
M  V30 19314 H 1772.97 -3.22528 5.18467 0
M  V30 19315 H 1774.39 -1.00096 5.64494 0
M  V30 19316 H 1772.79 -0.290913 5.99394 0
M  V30 19317 H 1773.86 0.500993 4.82305 0
M  V30 19318 N 1775.2 -1.57593 0.0150662 0
M  V30 19319 C 1776.43 -1.95504 -0.677174 0
M  V30 19320 C 1776.84 -0.8908 -1.66464 0
M  V30 19321 O 1776.2 0.128818 -1.82045 0
M  V30 19322 C 1776.25 -3.33463 -1.39589 0
M  V30 19323 O 1775.97 -4.35803 -0.448005 0
M  V30 19324 C 1777.47 -3.85923 -2.18125 0
M  V30 19325 H 1774.69 -0.644226 -0.187652 0
M  V30 19326 H 1777.24 -2.04378 0.070661 0
M  V30 19327 H 1775.39 -3.25851 -2.09523 0
M  V30 19328 H 1775.8 -5.157 -0.956756 0
M  V30 19329 H 1777.28 -4.84838 -2.63887 0
M  V30 19330 H 1777.76 -3.19423 -3.01439 0
M  V30 19331 H 1778.36 -3.96758 -1.53176 0
M  V30 19332 N 1776.68 0.257904 -1.55475 0
M  V30 19333 C 1777.95 1.00965 -1.67528 0
M  V30 19334 C 1778.33 2.03763 -0.551694 0
M  V30 19335 O 1777.68 2.24099 0.446314 0
M  V30 19336 C 1777.89 1.65289 -3.07377 0
M  V30 19337 C 1779.24 2.15888 -3.65619 0
M  V30 19338 O 1780.26 1.7525 -3.10106 0
M  V30 19339 O 1779.12 2.90471 -4.62913 0
M  V30 19340 H 1776.22 0.469266 -0.680969 0
M  V30 19341 H 1778.76 0.252562 -1.6781 0
M  V30 19342 H 1777.53 0.908769 -3.80601 0
M  V30 19343 H 1777.16 2.47646 -3.11058 0
M  V30 19344 N 1778.15 1.48666 0.52309 0
M  V30 19345 C 1779.38 1.60707 1.30311 0
M  V30 19346 C 1779.8 0.269941 1.8686 0
M  V30 19347 O 1779.15 -0.741714 1.66748 0
M  V30 19348 C 1779.21 2.65899 2.44908 0
M  V30 19349 O 1778.93 3.94423 1.90688 0
M  V30 19350 C 1780.43 2.88443 3.36624 0
M  V30 19351 H 1777.65 0.541661 0.396035 0
M  V30 19352 H 1780.19 1.94544 0.630322 0
M  V30 19353 H 1778.35 2.34902 3.08058 0
M  V30 19354 H 1778.76 4.5219 2.65753 0
M  V30 19355 H 1780.23 3.65831 4.13366 0
M  V30 19356 H 1780.71 1.97524 3.92277 0
M  V30 19357 H 1781.32 3.20771 2.7926 0
M  V30 19358 N 1779.63 -0.772489 1.37369 0
M  V30 19359 C 1780.58 -1.90713 1.33158 0
M  V30 19360 C 1781.57 -1.67959 0.220482 0
M  V30 19361 O 1782.78 -1.75758 0.388465 0
M  V30 19362 H 1779.16 -0.627149 0.414956 0
M  V30 19363 H 1781.13 -1.91382 2.28944 0
M  V30 19364 C 1779.88 -3.27966 1.1547 0
M  V30 19365 H 1779.2 -3.46052 2.00221 0
M  V30 19366 H 1780.64 -4.0766 1.16574 0
M  V30 19367 C 1779.1 -3.3661 -0.139688 0
M  V30 19368 O 1779.63 -3.85668 -1.12353 0
M  V30 19369 N 1777.83 -2.89977 -0.190134 0
M  V30 19370 H 1777.38 -2.50246 0.611134 0
M  V30 19371 H 1777.34 -2.96142 -1.05582 0
M  V30 19372 N 1781.11 -1.21927 -0.998575 0
M  V30 19373 C 1782.06 -0.981427 -2.10881 0
M  V30 19374 C 1783.05 0.0735277 -1.6924 0
M  V30 19375 O 1784.26 -0.078422 -1.79829 0
M  V30 19376 H 1780.63 -0.300155 -0.6895 0
M  V30 19377 H 1782.6 -1.92367 -2.28117 0
M  V30 19378 C 1781.35 -0.56967 -3.43002 0
M  V30 19379 H 1780.68 -1.37309 -3.75481 0
M  V30 19380 H 1782.12 -0.442618 -4.21683 0
M  V30 19381 C 1780.58 0.720145 -3.29113 0
M  V30 19382 O 1781.11 1.77404 -3.60403 0
M  V30 19383 N 1779.31 0.689122 -2.82311 0
M  V30 19384 H 1778.86 -0.168817 -2.57046 0
M  V30 19385 H 1778.82 1.55241 -2.734 0
M  V30 19386 N 1782.59 1.19452 -1.02805 0
M  V30 19387 C 1783.84 1.88439 -0.719284 0
M  V30 19388 C 1784.15 1.80435 0.755143 0
M  V30 19389 O 1785.36 2.44664 1.17693 0
M  V30 19390 C 1783.81 3.38001 -1.23625 0
M  V30 19391 C 1783.42 3.54564 -2.7384 0
M  V30 19392 C 1785.16 4.1247 -1.00343 0
M  V30 19393 C 1783.07 4.98016 -3.18958 0
M  V30 19394 H 1782 0.705762 -0.265359 0
M  V30 19395 H 1784.65 1.35058 -1.24224 0
M  V30 19396 H 1783.03 3.90774 -0.641211 0
M  V30 19397 H 1784.21 3.12124 -3.38991 0
M  V30 19398 H 1782.52 2.93484 -2.95392 0
M  V30 19399 H 1785.12 5.18257 -1.31581 0
M  V30 19400 H 1785.46 4.16257 0.0597873 0
M  V30 19401 H 1786 3.65832 -1.56243 0
M  V30 19402 H 1782.74 4.9939 -4.24605 0
M  V30 19403 H 1782.26 5.41221 -2.58534 0
M  V30 19404 H 1783.93 5.66664 -3.12252 0
M  V30 19405 N 1784.07 0.805805 1.35442 0
M  V30 19406 C 1785.03 0.221278 2.28129 0
M  V30 19407 C 1786.03 -0.590919 1.49549 0
M  V30 19408 O 1787.22 -0.409518 1.69318 0
M  V30 19409 C 1784.35 -0.691643 3.3381 0
M  V30 19410 H 1785.54 1.03875 2.81336 0
M  V30 19411 H 1783.1 0.5764 1.45284 0
M  V30 19412 H 1783.83 -1.53283 2.85788 0
M  V30 19413 H 1783.62 -0.110972 3.91943 0
M  V30 19414 H 1785.11 -1.09497 4.02989 0
M  V30 19415 N 1785.54 -1.47344 0.559239 0
M  V30 19416 C 1786.77 -2.0656 0.040802 0
M  V30 19417 C 1787.18 -1.41208 -1.25925 0
M  V30 19418 O 1786.53 -0.503333 -1.7667 0
M  V30 19419 C 1786.59 -3.58804 -0.223642 0
M  V30 19420 C 1786.25 -4.46208 0.987275 0
M  V30 19421 C 1787.25 -4.84198 1.89336 0
M  V30 19422 C 1784.93 -4.87693 1.20252 0
M  V30 19423 C 1786.93 -5.62474 2.99837 0
M  V30 19424 C 1784.61 -5.65733 2.31061 0
M  V30 19425 C 1785.61 -6.03034 3.20684 0
M  V30 19426 O 1785.3 -6.79502 4.29572 0
M  V30 19427 H 1785.03 -0.674583 0.0437408 0
M  V30 19428 H 1787.59 -1.90306 0.772827 0
M  V30 19429 H 1785.82 -3.73277 -1.01 0
M  V30 19430 H 1787.51 -4.00032 -0.687709 0
M  V30 19431 H 1788.27 -4.52746 1.73913 0
M  V30 19432 H 1784.15 -4.58124 0.514098 0
M  V30 19433 H 1787.69 -5.91508 3.69817 0
M  V30 19434 H 1783.59 -5.96598 2.46456 0
M  V30 19435 H 1784.36 -6.97898 4.27645 0
M  V30 19436 N 1787.02 -0.295795 -1.54799 0
M  V30 19437 C 1787.95 0.575863 -2.26288 0
M  V30 19438 C 1788.93 1.14217 -1.26049 0
M  V30 19439 O 1790.12 1.17248 -1.54812 0
M  V30 19440 C 1787.25 1.7503 -2.9997 0
M  V30 19441 C 1786.2 1.31459 -4.07311 0
M  V30 19442 C 1785.53 2.57377 -4.6868 0
M  V30 19443 C 1786.83 0.449629 -5.20361 0
M  V30 19444 H 1788.52 -0.0203797 -2.99393 0
M  V30 19445 H 1786.07 -0.0112418 -1.43996 0
M  V30 19446 H 1788.02 2.36615 -3.487 0
M  V30 19447 H 1786.75 2.3727 -2.24434 0
M  V30 19448 H 1785.4 0.721829 -3.59423 0
M  V30 19449 H 1785.05 3.1792 -3.89789 0
M  V30 19450 H 1784.75 2.28927 -5.41171 0
M  V30 19451 H 1786.28 3.19774 -5.2017 0
M  V30 19452 H 1787.69 0.971014 -5.65017 0
M  V30 19453 H 1786.09 0.259121 -5.9954 0
M  V30 19454 H 1787.16 -0.526564 -4.82032 0
M  V30 19455 N 1788.5 1.57583 -0.0234236 0
M  V30 19456 C 1789.75 1.91565 0.656449 0
M  V30 19457 C 1790.08 0.899298 1.72461 0
M  V30 19458 O 1789.33 -0.0926107 1.95481 0
M  V30 19459 C 1789.63 3.32283 1.31616 0
M  V30 19460 C 1789.3 4.49305 0.378925 0
M  V30 19461 C 1787.96 4.81048 0.120945 0
M  V30 19462 C 1790.31 5.20526 -0.264985 0
M  V30 19463 C 1787.64 5.81373 -0.788846 0
M  V30 19464 C 1789.99 6.21821 -1.1628 0
M  V30 19465 C 1788.65 6.52009 -1.42972 0
M  V30 19466 H 1787.92 0.700985 0.240212 0
M  V30 19467 H 1790.57 1.91316 -0.0839711 0
M  V30 19468 H 1788.88 3.28766 2.13119 0
M  V30 19469 H 1790.57 3.55845 1.84866 0
M  V30 19470 H 1787.16 4.24517 0.590173 0
M  V30 19471 H 1791.35 4.96238 -0.0787258 0
M  V30 19472 H 1786.6 6.0311 -1.00341 0
M  V30 19473 H 1790.78 6.7613 -1.66796 0
M  V30 19474 H 1788.4 7.29564 -2.13636 0
M  V30 19475 N 1789.98 -0.249655 1.5561 0
M  V30 19476 C 1790.91 -1.31281 1.931 0
M  V30 19477 C 1791.89 -1.50347 0.795601 0
M  V30 19478 O 1793.08 -1.63001 1.05566 0
M  V30 19479 C 1790.21 -2.66808 2.2233 0
M  V30 19480 C 1789.16 -2.62441 3.38096 0
M  V30 19481 C 1788.49 -4.01738 3.52861 0
M  V30 19482 C 1789.79 -2.19667 4.7386 0
M  V30 19483 H 1791.48 -1.00151 2.82153 0
M  V30 19484 H 1789.03 -0.480331 1.35753 0
M  V30 19485 H 1790.98 -3.41316 2.47146 0
M  V30 19486 H 1789.7 -2.99569 1.30101 0
M  V30 19487 H 1788.36 -1.90391 3.13284 0
M  V30 19488 H 1788.01 -4.31759 2.58056 0
M  V30 19489 H 1787.71 -3.99705 4.30708 0
M  V30 19490 H 1789.23 -4.7795 3.79995 0
M  V30 19491 H 1790.65 -2.83906 4.98067 0
M  V30 19492 H 1789.04 -2.28751 5.54791 0
M  V30 19493 H 1790.11 -1.14829 4.71108 0
M  V30 19494 N 1791.46 -1.48941 -0.515198 0
M  V30 19495 C 1792.68 -1.61656 -1.29931 0
M  V30 19496 C 1793.11 -0.282529 -1.85966 0
M  V30 19497 O 1792.47 0.747914 -1.65154 0
M  V30 19498 C 1792.51 -2.6774 -2.41553 0
M  V30 19499 O 1791.62 -2.25926 -3.45009 0
M  V30 19500 H 1790.96 -0.541561 -0.384197 0
M  V30 19501 H 1793.49 -1.95032 -0.618349 0
M  V30 19502 H 1793.5 -2.89471 -2.87525 0
M  V30 19503 H 1792.17 -3.64582 -2.00131 0
M  V30 19504 H 1790.75 -2.14469 -3.05053 0
M  V30 19505 N 1792.94 0.765193 -1.37777 0
M  V30 19506 C 1793.9 1.8603 -1.33886 0
M  V30 19507 C 1794.9 1.58974 -0.241614 0
M  V30 19508 O 1796.09 1.66935 -0.497843 0
M  V30 19509 C 1793.22 3.2329 -1.08151 0
M  V30 19510 H 1794.41 1.9089 -2.31303 0
M  V30 19511 H 1791.97 0.965653 -1.22902 0
M  V30 19512 H 1792.7 3.24103 -0.112926 0
M  V30 19513 H 1792.49 3.4432 -1.8758 0
M  V30 19514 H 1793.98 4.03367 -1.08095 0
M  V30 19515 N 1794.41 1.22455 0.992094 0
M  V30 19516 C 1795.38 0.996703 2.06394 0
M  V30 19517 C 1796.38 -0.0371659 1.60757 0
M  V30 19518 O 1797.57 0.20142 1.73032 0
M  V30 19519 C 1794.7 0.505675 3.37129 0
M  V30 19520 H 1795.89 1.94776 2.28041 0
M  V30 19521 H 1793.44 1.04335 1.16378 0
M  V30 19522 H 1794.18 -0.449697 3.21167 0
M  V30 19523 H 1793.96 1.25158 3.71588 0
M  V30 19524 H 1795.45 0.366535 4.15988 0
M  V30 19525 N 1795.89 -1.18905 1.03437 0
M  V30 19526 C 1796.84 -2.24362 0.613557 0
M  V30 19527 C 1797.83 -1.65605 -0.356541 0
M  V30 19528 O 1799.04 -1.78594 -0.22452 0
M  V30 19529 H 1795.41 -0.730098 0.18017 0
M  V30 19530 H 1797.39 -2.57168 1.51351 0
M  V30 19531 C 1796.13 -3.47697 -0.0141125 0
M  V30 19532 H 1795.46 -3.93201 0.723394 0
M  V30 19533 H 1796.9 -4.2313 -0.271424 0
M  V30 19534 C 1795.36 -3.12357 -1.26232 0
M  V30 19535 O 1795.89 -3.25515 -2.35378 0
M  V30 19536 N 1794.09 -2.6674 -1.15318 0
M  V30 19537 H 1793.64 -2.56233 -0.26501 0
M  V30 19538 H 1793.6 -2.43466 -1.98927 0
M  V30 19539 N 1797.37 -0.812977 -1.35013 0
M  V30 19540 C 1798.79 -0.497497 -1.51648 0
M  V30 19541 C 1798.99 0.980162 -1.76054 0
M  V30 19542 O 1798.04 1.76498 -1.80567 0
M  V30 19543 C 1799.35 -1.3484 -2.68772 0
M  V30 19544 C 1800.9 -1.3445 -2.82652 0
M  V30 19545 C 1801.38 -2.17966 -4.02808 0
M  V30 19546 N 1802.87 -2.15537 -4.09998 0
M  V30 19547 C 1803.6 -2.76912 -5.02103 0
M  V30 19548 N 1803.1 -3.47239 -5.99497 0
M  V30 19549 N 1804.89 -2.66519 -4.94898 0
M  V30 19550 H 1797.04 -1.76987 -1.17429 0
M  V30 19551 H 1799.31 -0.753654 -0.575073 0
M  V30 19552 H 1799.01 -2.39732 -2.57336 0
M  V30 19553 H 1798.89 -1.0061 -3.63535 0
M  V30 19554 H 1801.27 -0.303409 -2.93536 0
M  V30 19555 H 1801.35 -1.72671 -1.88728 0
M  V30 19556 H 1801 -3.2212 -3.92685 0
M  V30 19557 H 1800.93 -1.77102 -4.95926 0
M  V30 19558 H 1803.42 -1.64373 -3.40279 0
M  V30 19559 H 1803.73 -3.91341 -6.66387 0
M  V30 19560 H 1802.08 -3.51344 -5.99652 0
M  V30 19561 H 1805.27 -2.1116 -4.17767 0
M  V30 19562 H 1805.44 -3.14639 -5.66486 0
M  V30 19563 N 1798.85 1.47045 -0.567045 0
M  V30 19564 C 1800.09 2.03326 -0.0550208 0
M  V30 19565 C 1800.45 1.4325 1.28441 0
M  V30 19566 O 1799.74 0.582394 1.82534 0
M  V30 19567 C 1799.94 3.57298 0.0855754 0
M  V30 19568 C 1799.76 4.32304 -1.23868 0
M  V30 19569 C 1798.53 4.71822 -1.80864 0
M  V30 19570 C 1800.73 4.66824 -2.15823 0
M  V30 19571 N 1798.71 5.31513 -3.07192 0
M  V30 19572 C 1800.09 5.26921 -3.26733 0
M  V30 19573 C 1802.14 4.48753 -2.15696 0
M  V30 19574 C 1800.84 5.70854 -4.37628 0
M  V30 19575 C 1802.87 4.93692 -3.25611 0
M  V30 19576 C 1802.23 5.53846 -4.3524 0
M  V30 19577 H 1798.33 0.779496 -0.0625352 0
M  V30 19578 H 1800.91 1.79402 -0.7565 0
M  V30 19579 H 1799.09 3.80968 0.756194 0
M  V30 19580 H 1800.82 4.00219 0.600559 0
M  V30 19581 H 1797.57 4.54087 -1.34543 0
M  V30 19582 H 1798 5.65894 -3.71609 0
M  V30 19583 H 1802.64 4.01595 -1.32217 0
M  V30 19584 H 1800.36 6.16998 -5.21861 0
M  V30 19585 H 1803.94 4.81473 -3.26612 0
M  V30 19586 H 1802.82 5.87984 -5.18887 0
M  V30 19587 N 1800.33 0.304 1.5464 0
M  V30 19588 C 1801.26 -0.563854 2.2659 0
M  V30 19589 C 1802.24 -1.13547 1.26653 0
M  V30 19590 O 1803.42 -1.16425 1.55431 0
M  V30 19591 C 1800.55 -1.73437 3.00894 0
M  V30 19592 C 1799.51 -1.29297 4.08003 0
M  V30 19593 C 1798.83 -2.54888 4.70038 0
M  V30 19594 C 1800.13 -0.422027 5.20592 0
M  V30 19595 H 1801.83 0.0362569 2.99378 0
M  V30 19596 H 1799.37 0.0188781 1.43988 0
M  V30 19597 H 1801.32 -2.34762 3.4995 0
M  V30 19598 H 1800.05 -2.36076 2.25689 0
M  V30 19599 H 1798.71 -0.702757 3.59801 0
M  V30 19600 H 1798.36 -3.15848 3.9147 0
M  V30 19601 H 1798.06 -2.26054 5.42378 0
M  V30 19602 H 1799.58 -3.17011 5.21859 0
M  V30 19603 H 1800.99 -0.941036 5.65524 0
M  V30 19604 H 1799.39 -0.227323 5.99669 0
M  V30 19605 H 1800.46 0.55212 4.81746 0
M  V30 19606 N 1801.8 -1.57568 0.0317802 0
M  V30 19607 C 1802.71 -2.13842 -0.964811 0
M  V30 19608 C 1803.73 -1.09134 -1.3552 0
M  V30 19609 O 1804.91 -1.41205 -1.43608 0
M  V30 19610 C 1801.97 -2.65654 -2.22775 0
M  V30 19611 C 1801.03 -3.85087 -1.89753 0
M  V30 19612 C 1800.26 -4.34419 -3.10026 0
M  V30 19613 O 1800.49 -3.8291 -4.22772 0
M  V30 19614 O 1799.42 -5.26233 -2.92169 0
M  V30 19615 H 1803.25 -2.99279 -0.516302 0
M  V30 19616 H 1800.83 -1.482 -0.188982 0
M  V30 19617 H 1802.71 -2.99035 -2.96911 0
M  V30 19618 H 1801.39 -1.83299 -2.66802 0
M  V30 19619 H 1800.3 -3.56628 -1.12994 0
M  V30 19620 H 1801.63 -4.68613 -1.50541 0
M  V30 19621 N 1803.28 0.241399 -1.5574 0
M  V30 19622 C 1804.53 0.970098 -1.78093 0
M  V30 19623 C 1804.86 1.84763 -0.598005 0
M  V30 19624 O 1804.14 1.90268 0.403516 0
M  V30 19625 C 1804.42 1.82594 -3.10373 0
M  V30 19626 C 1804.27 0.976228 -4.39078 0
M  V30 19627 C 1805.59 2.80743 -3.38927 0
M  V30 19628 H 1802.71 0.35125 -0.647914 0
M  V30 19629 H 1805.35 0.240232 -1.88475 0
M  V30 19630 H 1803.5 2.44823 -3.01652 0
M  V30 19631 H 1805.17 0.37222 -4.59796 0
M  V30 19632 H 1803.42 0.280807 -4.3289 0
M  V30 19633 H 1804.09 1.60899 -5.2803 0
M  V30 19634 H 1806.56 2.28651 -3.47646 0
M  V30 19635 H 1805.44 3.37743 -4.3269 0
M  V30 19636 H 1805.7 3.57484 -2.6011 0
M  V30 19637 N 1804.76 1.49212 0.507292 0
M  V30 19638 C 1806.18 1.35835 0.837908 0
M  V30 19639 C 1806.38 0.386634 1.97756 0
M  V30 19640 O 1805.43 -0.183971 2.51829 0
M  V30 19641 C 1806.75 2.76407 1.18404 0
M  V30 19642 C 1808.29 2.85062 1.29262 0
M  V30 19643 C 1808.77 4.26387 1.67208 0
M  V30 19644 N 1810.26 4.29168 1.74268 0
M  V30 19645 C 1810.99 5.35479 2.05061 0
M  V30 19646 N 1810.49 6.52042 2.34121 0
M  V30 19647 N 1812.28 5.2289 2.06259 0
M  V30 19648 H 1804.43 2.1099 -0.244311 0
M  V30 19649 H 1806.7 0.946849 -0.0466977 0
M  V30 19650 H 1806.4 3.49183 0.420053 0
M  V30 19651 H 1806.28 3.11376 2.12896 0
M  V30 19652 H 1808.66 2.12528 2.04734 0
M  V30 19653 H 1808.75 2.53684 0.328359 0
M  V30 19654 H 1808.39 4.99445 0.922884 0
M  V30 19655 H 1808.32 4.55225 2.64723 0
M  V30 19656 H 1810.81 3.45099 1.53996 0
M  V30 19657 H 1811.12 7.2889 2.56787 0
M  V30 19658 H 1809.47 6.55279 2.31591 0
M  V30 19659 H 1812.66 4.30834 1.83028 0
M  V30 19660 H 1812.83 6.05838 2.29923 0
M  V30 19661 N 1806.24 -0.757876 1.38181 0
M  V30 19662 C 1807.47 -1.54709 1.37378 0
M  V30 19663 C 1807.88 -1.88763 -0.0375087 0
M  V30 19664 O 1807.24 -1.52467 -1.00299 0
M  V30 19665 C 1807.29 -2.84887 2.22535 0
M  V30 19666 O 1807.01 -2.52287 3.58166 0
M  V30 19667 C 1808.51 -3.79048 2.29865 0
M  V30 19668 H 1805.73 -0.478845 0.470052 0
M  V30 19669 H 1808.28 -0.938283 1.81704 0
M  V30 19670 H 1806.43 -3.42156 1.81682 0
M  V30 19671 H 1806.84 -3.35747 4.02957 0
M  V30 19672 H 1808.32 -4.67353 2.93744 0
M  V30 19673 H 1808.8 -4.19175 1.31106 0
M  V30 19674 H 1809.4 -3.27704 2.7109 0
M  V30 19675 N 1807.72 -1.22979 -0.985586 0
M  V30 19676 C 1808.99 -0.967121 -1.70018 0
M  V30 19677 C 1809.37 0.515746 -2.04703 0
M  V30 19678 O 1808.72 1.48564 -1.73611 0
M  V30 19679 C 1808.93 -1.8721 -2.94539 0
M  V30 19680 C 1810.28 -2.13251 -3.67163 0
M  V30 19681 O 1811.3 -1.84718 -3.04562 0
M  V30 19682 O 1810.16 -2.61617 -4.79811 0
M  V30 19683 H 1807.26 -0.364318 -0.74243 0
M  V30 19684 H 1809.8 -1.33998 -1.04127 0
M  V30 19685 H 1808.57 -2.87478 -2.65465 0
M  V30 19686 H 1808.2 -1.50128 -3.68167 0
M  V30 19687 N 1809.19 1.18355 -1.04066 0
M  V30 19688 C 1810.42 1.91996 -0.762952 0
M  V30 19689 C 1810.83 1.76413 0.683745 0
M  V30 19690 O 1810.18 1.09121 1.47778 0
M  V30 19691 C 1810.24 3.4384 -1.04949 0
M  V30 19692 C 1809.9 3.83201 -2.4901 0
M  V30 19693 C 1810.9 3.86984 -3.47187 0
M  V30 19694 C 1808.58 4.14497 -2.83721 0
M  V30 19695 C 1810.58 4.21513 -4.78127 0
M  V30 19696 C 1808.26 4.48696 -4.14867 0
M  V30 19697 C 1809.26 4.52181 -5.1188 0
M  V30 19698 O 1808.95 4.85582 -6.40676 0
M  V30 19699 H 1808.68 0.616351 -0.277647 0
M  V30 19700 H 1811.24 1.51092 -1.39141 0
M  V30 19701 H 1809.47 3.84984 -0.363904 0
M  V30 19702 H 1811.16 3.98729 -0.759579 0
M  V30 19703 H 1811.92 3.62944 -3.21709 0
M  V30 19704 H 1807.8 4.10962 -2.08881 0
M  V30 19705 H 1811.34 4.24148 -5.53845 0
M  V30 19706 H 1807.24 4.72198 -4.40113 0
M  V30 19707 H 1808.01 5.03485 -6.45326 0
M  V30 19708 N 1810.67 0.820125 1.3458 0
M  V30 19709 C 1811.6 0.254709 2.32107 0
M  V30 19710 C 1812.58 -0.6273 1.58111 0
M  V30 19711 O 1813.77 -0.554759 1.86108 0
M  V30 19712 C 1810.9 -0.586541 3.42311 0
M  V30 19713 C 1809.85 0.198096 4.27541 0
M  V30 19714 C 1809.18 -0.765718 5.29189 0
M  V30 19715 C 1810.48 1.40472 5.03056 0
M  V30 19716 H 1812.17 1.06955 2.79644 0
M  V30 19717 H 1809.72 0.515756 1.34447 0
M  V30 19718 H 1811.67 -0.992259 4.09551 0
M  V30 19719 H 1810.4 -1.4344 2.93415 0
M  V30 19720 H 1809.05 0.585149 3.619 0
M  V30 19721 H 1808.7 -1.60946 4.76556 0
M  V30 19722 H 1808.4 -0.244954 5.87089 0
M  V30 19723 H 1809.93 -1.16935 5.99298 0
M  V30 19724 H 1811.34 1.07316 5.63166 0
M  V30 19725 H 1809.74 1.86092 5.70517 0
M  V30 19726 H 1810.81 2.18437 4.32913 0
M  V30 19727 N 1812.15 -1.46743 0.574835 0
M  V30 19728 C 1813.4 -2.02019 0.057302 0
M  V30 19729 C 1813.72 -1.44965 -1.30423 0
M  V30 19730 O 1812.99 -0.631377 -1.85447 0
M  V30 19731 H 1811.57 -0.746778 0.018193 0
M  V30 19732 H 1814.23 -1.7994 0.748834 0
M  V30 19733 H 1813.33 -3.12095 -0.0176114 0
M  V30 19734 N 1813.63 -0.312197 -1.54477 0
M  V30 19735 C 1814.59 0.54612 -2.22599 0
M  V30 19736 C 1815.59 1.05252 -1.21568 0
M  V30 19737 O 1816.78 0.946756 -1.46226 0
M  V30 19738 C 1813.91 1.75733 -2.92114 0
M  V30 19739 H 1815.11 -0.0492216 -2.9986 0
M  V30 19740 H 1812.66 -0.063149 -1.56172 0
M  V30 19741 H 1813.39 2.39221 -2.18961 0
M  V30 19742 H 1813.18 1.40175 -3.66188 0
M  V30 19743 H 1814.67 2.36685 -3.44049 0
M  V30 19744 N 1815.11 1.57549 -0.040136 0
M  V30 19745 C 1816.35 1.94118 0.640122 0
M  V30 19746 C 1816.71 0.917574 1.68655 0
M  V30 19747 O 1817.91 1.16983 2.42009 0
M  V30 19748 C 1816.18 3.35544 1.23065 0
M  V30 19749 S 1817.74 3.94055 1.93045 0
M  V30 19750 H 1814.56 0.679133 0.210475 0
M  V30 19751 H 1817.16 1.9521 -0.106436 0
M  V30 19752 H 1815.87 4.0785 0.456772 0
M  V30 19753 H 1815.4 3.37921 2.01427 0
M  V30 19754 H 1817.41 3.78384 3.20999 0
M  V30 19755 N 1816.58 -0.233136 1.55866 0
M  V30 19756 C 1817.83 -0.957205 1.7754 0
M  V30 19757 C 1818.15 -1.85956 0.606601 0
M  V30 19758 O 1819.35 -2.62142 0.706687 0
M  V30 19759 C 1817.81 -1.75215 3.14369 0
M  V30 19760 C 1817.42 -0.896509 4.38938 0
M  V30 19761 C 1819.16 -2.46813 3.45374 0
M  V30 19762 C 1817.07 -1.68814 5.66794 0
M  V30 19763 H 1816 -0.361139 0.661887 0
M  V30 19764 H 1818.65 -0.211424 1.82278 0
M  V30 19765 H 1817.03 -2.54041 3.03775 0
M  V30 19766 H 1818.2 -0.149614 4.60557 0
M  V30 19767 H 1816.52 -0.293211 4.15366 0
M  V30 19768 H 1819.12 -3.0652 4.38121 0
M  V30 19769 H 1819.46 -3.19121 2.67334 0
M  V30 19770 H 1819.99 -1.74987 3.57245 0
M  V30 19771 H 1816.73 -1.00855 6.47695 0
M  V30 19772 H 1816.25 -2.40995 5.49255 0
M  V30 19773 H 1817.93 -2.25178 6.06551 0
M  V30 19774 N 1818.06 -1.49479 -0.499372 0
M  V30 19775 C 1819.31 -1.59284 -1.25525 0
M  V30 19776 C 1819.64 -0.27941 -1.92179 0
M  V30 19777 O 1818.92 0.717142 -1.80796 0
M  V30 19778 C 1819.2 -2.75323 -2.32098 0
M  V30 19779 C 1819.05 -4.16464 -1.69934 0
M  V30 19780 C 1820.37 -2.86998 -3.33646 0
M  V30 19781 H 1817.49 -0.579768 -0.455015 0
M  V30 19782 H 1820.13 -1.81769 -0.553165 0
M  V30 19783 H 1818.28 -2.56282 -2.91979 0
M  V30 19784 H 1819.96 -4.47026 -1.13867 0
M  V30 19785 H 1818.2 -4.22036 -1.0034 0
M  V30 19786 H 1818.87 -4.93534 -2.47242 0
M  V30 19787 H 1821.35 -3.04337 -2.83757 0
M  V30 19788 H 1820.22 -3.69865 -4.05575 0
M  V30 19789 H 1820.48 -1.96419 -3.9607 0
M  V30 19790 N 1819.54 0.750537 -1.38581 0
M  V30 19791 C 1820.47 1.87785 -1.38777 0
M  V30 19792 C 1821.45 1.68204 -0.253244 0
M  V30 19793 O 1822.64 1.88752 -0.456779 0
M  V30 19794 C 1819.77 3.2535 -1.21511 0
M  V30 19795 C 1818.72 3.59538 -2.32199 0
M  V30 19796 C 1818.05 4.95873 -2.00036 0
M  V30 19797 C 1819.35 3.64102 -3.74469 0
M  V30 19798 H 1821.04 1.87879 -2.33113 0
M  V30 19799 H 1818.59 0.902504 -1.12209 0
M  V30 19800 H 1820.54 4.03872 -1.20272 0
M  V30 19801 H 1819.26 3.25744 -0.236366 0
M  V30 19802 H 1817.92 2.83336 -2.32629 0
M  V30 19803 H 1817.57 4.9283 -1.00638 0
M  V30 19804 H 1817.27 5.19716 -2.7417 0
M  V30 19805 H 1818.8 5.7677 -2.00421 0
M  V30 19806 H 1820.21 4.32731 -3.76054 0
M  V30 19807 H 1818.61 3.99455 -4.47834 0
M  V30 19808 H 1819.68 2.64259 -4.06565 0
M  V30 19809 N 1821.02 1.235 0.979051 0
M  V30 19810 C 1822.25 1.09462 1.75572 0
M  V30 19811 C 1822.66 -0.3538 1.85455 0
M  V30 19812 O 1822.02 -1.24467 1.3347 0
M  V30 19813 C 1822.07 1.71562 3.18196 0
M  V30 19814 O 1821.79 3.1074 3.08824 0
M  V30 19815 C 1823.29 1.62984 4.12251 0
M  V30 19816 H 1820.51 0.383013 0.550946 0
M  V30 19817 H 1823.06 1.63378 1.22995 0
M  V30 19818 H 1821.21 1.21676 3.67796 0
M  V30 19819 H 1821.63 3.40888 3.98617 0
M  V30 19820 H 1823.1 2.11135 5.10025 0
M  V30 19821 H 1823.58 0.588907 4.35234 0
M  V30 19822 H 1824.18 2.12242 3.68556 0
M  V30 19823 N 1822.5 -1.17802 1.04693 0
M  V30 19824 C 1823.46 -2.19854 0.647816 0
M  V30 19825 C 1824.46 -1.58013 -0.298081 0
M  V30 19826 O 1825.65 -1.74004 -0.0826309 0
M  V30 19827 C 1822.78 -3.40864 -0.0492661 0
M  V30 19828 H 1823.98 -2.56678 1.55101 0
M  V30 19829 H 1821.53 -1.31796 0.840215 0
M  V30 19830 H 1822.26 -3.0958 -0.965967 0
M  V30 19831 H 1822.05 -3.86995 0.630677 0
M  V30 19832 H 1823.54 -4.16412 -0.31479 0
M  V30 19833 N 1823.98 -0.827251 -1.34143 0
M  V30 19834 C 1825.2 -0.429514 -2.02904 0
M  V30 19835 C 1825.63 0.958033 -1.61874 0
M  V30 19836 O 1824.98 1.62422 -0.805528 0
M  V30 19837 C 1825.03 -0.544592 -3.56464 0
M  V30 19838 O 1824.14 0.433849 -4.10112 0
M  V30 19839 H 1823.48 -0.176216 -0.64019 0
M  V30 19840 H 1826.01 -1.11887 -1.71297 0
M  V30 19841 H 1826.02 -0.421949 -4.05812 0
M  V30 19842 H 1824.69 -1.55657 -3.85673 0
M  V30 19843 H 1823.27 0.269729 -3.71923 0
M  V30 19844 N 1825.45 1.46436 -0.582609 0
M  V30 19845 C 1826.7 2.01592 -0.0658642 0
M  V30 19846 C 1827.02 1.45972 1.30198 0
M  V30 19847 O 1828.22 1.92948 1.91006 0
M  V30 19848 C 1826.68 3.59837 -0.0671547 0
M  V30 19849 C 1826.29 4.24453 -1.43331 0
M  V30 19850 C 1828.03 4.22652 0.395652 0
M  V30 19851 C 1825.94 5.74777 -1.39233 0
M  V30 19852 H 1824.87 0.753712 -0.0208533 0
M  V30 19853 H 1827.52 1.6817 -0.734241 0
M  V30 19854 H 1825.9 3.90336 0.667385 0
M  V30 19855 H 1827.07 4.05564 -2.18757 0
M  V30 19856 H 1825.39 3.73732 -1.83613 0
M  V30 19857 H 1827.99 5.32844 0.445101 0
M  V30 19858 H 1828.33 3.91581 1.41316 0
M  V30 19859 H 1828.86 3.96779 -0.284821 0
M  V30 19860 H 1825.6 6.10508 -2.38664 0
M  V30 19861 H 1825.12 5.9593 -0.680268 0
M  V30 19862 H 1826.8 6.37491 -1.1052 0
M  V30 19863 N 1826.93 0.320385 1.54309 0
M  V30 19864 C 1827.89 -0.534308 2.22885 0
M  V30 19865 C 1828.89 -1.04605 1.22124 0
M  V30 19866 O 1830.08 -0.938988 1.46726 0
M  V30 19867 C 1827.22 -1.74181 2.93042 0
M  V30 19868 H 1828.41 0.0651232 2.99829 0
M  V30 19869 H 1825.96 0.0714303 1.56137 0
M  V30 19870 H 1826.7 -2.38056 2.20227 0
M  V30 19871 H 1826.48 -1.38231 3.66926 0
M  V30 19872 H 1827.97 -2.34857 3.45299 0
M  V30 19873 N 1828.41 -1.57525 0.0484906 0
M  V30 19874 C 1829.63 -1.97309 -0.639062 0
M  V30 19875 C 1830.06 -0.925753 -1.63742 0
M  V30 19876 O 1829.42 0.111304 -1.80958 0
M  V30 19877 C 1829.47 -3.36168 -1.30475 0
M  V30 19878 O 1828.57 -3.33903 -2.42038 0
M  V30 19879 H 1827.91 -0.642824 -0.166351 0
M  V30 19880 H 1830.44 -2.0427 0.116095 0
M  V30 19881 H 1830.45 -3.72835 -1.65705 0
M  V30 19882 H 1829.13 -4.11933 -0.573057 0
M  V30 19883 H 1827.7 -3.08978 -2.08775 0
M  V30 19884 N 1829.89 0.224867 -1.55988 0
M  V30 19885 C 1831.14 0.947776 -1.78045 0
M  V30 19886 C 1831.45 1.85632 -0.616454 0
M  V30 19887 O 1832.66 2.61763 -0.720579 0
M  V30 19888 C 1831.11 1.73546 -3.15293 0
M  V30 19889 C 1830.72 0.873219 -4.39407 0
M  V30 19890 C 1832.46 2.44978 -3.46679 0
M  V30 19891 C 1830.37 1.65806 -5.67682 0
M  V30 19892 H 1829.3 0.357623 -0.663793 0
M  V30 19893 H 1831.95 0.201754 -1.82388 0
M  V30 19894 H 1830.33 2.52426 -3.05118 0
M  V30 19895 H 1831.51 0.125187 -4.6063 0
M  V30 19896 H 1829.82 0.271179 -4.15516 0
M  V30 19897 H 1832.42 3.04192 -4.3974 0
M  V30 19898 H 1832.76 3.17699 -2.69023 0
M  V30 19899 H 1833.3 1.7309 -3.58168 0
M  V30 19900 H 1830.03 0.974191 -6.4822 0
M  V30 19901 H 1829.55 2.38079 -5.50526 0
M  V30 19902 H 1831.23 2.21959 -6.07736 0
M  V30 19903 N 1831.37 1.49742 0.491438 0
M  V30 19904 C 1832.59 1.63703 1.27343 0
M  V30 19905 C 1833.02 0.312079 1.85493 0
M  V30 19906 O 1832.37 -0.721545 1.66323 0
M  V30 19907 C 1832.42 2.71549 2.37262 0
M  V30 19908 O 1831.53 2.31387 3.41371 0
M  V30 19909 H 1830.87 0.547605 0.375533 0
M  V30 19910 H 1833.4 1.95991 0.587243 0
M  V30 19911 H 1833.41 2.94009 2.82883 0
M  V30 19912 H 1832.08 3.6772 1.94306 0
M  V30 19913 H 1830.66 2.19295 3.01603 0
M  V30 19914 N 1832.84 -0.743177 1.38977 0
M  V30 19915 C 1834.09 -1.49959 1.35486 0
M  V30 19916 C 1834.41 -1.94933 -0.0512044 0
M  V30 19917 O 1833.68 -1.684 -1.0009 0
M  V30 19918 H 1832.26 -0.556277 0.498562 0
M  V30 19919 H 1834.93 -0.882776 1.73762 0
M  V30 19920 H 1834.02 -2.38559 2.01237 0
M  V30 19921 N 1834.32 -1.24018 -0.972487 0
M  V30 19922 C 1835.55 -1.10483 -1.75523 0
M  V30 19923 C 1835.97 0.338985 -1.8502 0
M  V30 19924 O 1835.33 1.24534 -1.31761 0
M  V30 19925 C 1835.38 -1.74396 -3.15624 0
M  V30 19926 O 1834.48 -1.01148 -3.99804 0
M  V30 19927 H 1833.82 -0.386777 -0.539722 0
M  V30 19928 H 1836.35 -1.64231 -1.22022 0
M  V30 19929 H 1836.36 -1.79958 -3.66168 0
M  V30 19930 H 1835.04 -2.7945 -3.08026 0
M  V30 19931 H 1833.62 -1.03338 -3.58296 0
M  V30 19932 N 1835.8 1.17245 -1.05316 0
M  V30 19933 C 1837.03 1.91995 -0.784387 0
M  V30 19934 C 1837.45 1.76362 0.65408 0
M  V30 19935 O 1836.81 1.0822 1.45458 0
M  V30 19936 C 1836.86 3.41043 -1.1714 0
M  V30 19937 O 1835.96 4.11276 -0.304285 0
M  V30 19938 H 1835.3 0.598516 -0.287532 0
M  V30 19939 H 1837.83 1.48604 -1.40634 0
M  V30 19940 H 1837.84 3.91788 -1.13871 0
M  V30 19941 H 1836.52 3.51742 -2.21924 0
M  V30 19942 H 1835.09 3.70773 -0.39769 0
M  V30 19943 N 1837.28 0.834353 1.33702 0
M  V30 19944 C 1838.23 0.252818 2.31222 0
M  V30 19945 C 1839.22 -0.612723 1.57931 0
M  V30 19946 O 1840.43 -0.502788 1.72835 0
M  V30 19947 H 1836.8 0.0630243 0.749354 0
M  V30 19948 H 1838.77 1.08992 2.77783 0
M  V30 19949 C 1837.52 -0.561132 3.43142 0
M  V30 19950 H 1836.84 0.0955723 3.99686 0
M  V30 19951 H 1838.28 -0.933951 4.13586 0
M  V30 19952 C 1836.74 -1.73817 2.88599 0
M  V30 19953 O 1837.27 -2.83674 2.84415 0
M  V30 19954 N 1835.48 -1.5586 2.45267 0
M  V30 19955 H 1835.03 -0.664959 2.4887 0
M  V30 19956 H 1834.98 -2.34764 2.09125 0
M  V30 19957 N 1838.76 -1.46125 0.590367 0
M  V30 19958 C 1839.98 -2.07234 0.0828625 0
M  V30 19959 C 1840.41 -1.43498 -1.21614 0
M  V30 19960 O 1839.76 -0.521488 -1.73638 0
M  V30 19961 C 1839.81 -3.60548 -0.0614302 0
M  V30 19962 O 1838.92 -3.97012 -1.11603 0
M  V30 19963 H 1838.26 -0.660685 0.0662654 0
M  V30 19964 H 1840.79 -1.87646 0.815486 0
M  V30 19965 H 1840.8 -4.07137 -0.265161 0
M  V30 19966 H 1839.47 -4.06328 0.887164 0
M  V30 19967 H 1838.05 -3.6212 -0.890146 0
M  V30 19968 N 1840.23 -0.328564 -1.54137 0
M  V30 19969 C 1841.48 0.271967 -2.00262 0
M  V30 19970 C 1841.8 1.5226 -1.21827 0
M  V30 19971 O 1841.07 1.93245 -0.321415 0
M  V30 19972 H 1839.65 0.103484 -0.739797 0
M  V30 19973 H 1842.32 -0.446264 -1.89722 0
M  V30 19974 H 1841.41 0.52488 -3.07655 0
M  V30 19975 N 1841.71 1.57497 -0.0568439 0
M  V30 19976 C 1842.64 2.14892 0.913427 0
M  V30 19977 C 1843.62 1.07205 1.32065 0
M  V30 19978 O 1844.81 1.35172 1.39435 0
M  V30 19979 C 1841.94 2.69849 2.18629 0
M  V30 19980 C 1840.89 3.8257 1.91896 0
M  V30 19981 C 1840.22 4.24068 3.25685 0
M  V30 19982 C 1841.52 5.07463 1.23606 0
M  V30 19983 H 1843.21 2.96218 0.435347 0
M  V30 19984 H 1840.76 1.4249 0.20796 0
M  V30 19985 H 1842.71 3.08643 2.86911 0
M  V30 19986 H 1841.44 1.85723 2.68653 0
M  V30 19987 H 1840.09 3.44258 1.26024 0
M  V30 19988 H 1839.74 3.36884 3.73521 0
M  V30 19989 H 1839.44 5.00043 3.08594 0
M  V30 19990 H 1840.97 4.65466 3.95189 0
M  V30 19991 H 1842.38 5.43667 1.81931 0
M  V30 19992 H 1840.78 5.88619 1.16823 0
M  V30 19993 H 1841.85 4.84432 0.212918 0
M  V30 19994 N 1843.19 -0.216591 1.56105 0
M  V30 19995 C 1844.44 -0.941642 1.79613 0
M  V30 19996 C 1844.77 -1.83789 0.627323 0
M  V30 19997 O 1844.04 -1.90886 -0.373195 0
M  V30 19998 C 1844.33 -1.77634 3.13238 0
M  V30 19999 C 1844.18 -0.906251 4.40576 0
M  V30 20000 C 1845.5 -2.75315 3.4335 0
M  V30 20001 H 1842.62 -0.340898 0.65342 0
M  V30 20002 H 1845.26 -0.210217 1.88833 0
M  V30 20003 H 1843.41 -2.39993 3.05509 0
M  V30 20004 H 1845.08 -0.299023 4.6033 0
M  V30 20005 H 1843.33 -0.211902 4.33282 0
M  V30 20006 H 1844 -1.52478 5.30523 0
M  V30 20007 H 1846.47 -2.23091 3.5124 0
M  V30 20008 H 1845.35 -3.30816 4.38009 0
M  V30 20009 H 1845.61 -3.53301 2.65765 0
M  V30 20010 N 1844.67 -1.5 -0.48349 0
M  V30 20011 C 1845.92 -1.60052 -1.23401 0
M  V30 20012 C 1846.24 -0.297159 -1.92723 0
M  V30 20013 O 1845.51 0.684629 -1.83547 0
M  V30 20014 H 1844.09 -0.589753 -0.458477 0
M  V30 20015 H 1846.75 -1.86716 -0.558835 0
M  V30 20016 H 1845.85 -2.40545 -1.98858 0
M  V30 20017 N 1846.15 0.735796 -1.39369 0
M  V30 20018 C 1847.08 1.86303 -1.4076 0
M  V30 20019 C 1848.06 1.67926 -0.27107 0
M  V30 20020 O 1849.24 1.88257 -0.476773 0
M  V30 20021 C 1846.37 3.24043 -1.24955 0
M  V30 20022 C 1845.33 3.57055 -2.35999 0
M  V30 20023 C 1844.65 4.93723 -2.05284 0
M  V30 20024 C 1845.95 3.60109 -3.7831 0
M  V30 20025 H 1847.65 1.85396 -2.35093 0
M  V30 20026 H 1845.19 0.890552 -1.1316 0
M  V30 20027 H 1847.15 4.02574 -1.24549 0
M  V30 20028 H 1845.87 3.25475 -0.270902 0
M  V30 20029 H 1844.53 2.80853 -2.35621 0
M  V30 20030 H 1844.18 4.91734 -1.05859 0
M  V30 20031 H 1843.88 5.16779 -2.79667 0
M  V30 20032 H 1845.4 5.74612 -2.06527 0
M  V30 20033 H 1846.81 4.28718 -3.80622 0
M  V30 20034 H 1845.21 3.94683 -4.52046 0
M  V30 20035 H 1846.28 2.59932 -4.09345 0
M  V30 20036 N 1847.63 1.24532 0.965897 0
M  V30 20037 C 1848.87 1.08395 1.70572 0
M  V30 20038 C 1849.19 -0.377657 1.91308 0
M  V30 20039 O 1848.46 -1.26935 1.49212 0
M  V30 20040 H 1847.04 0.398123 0.632066 0
M  V30 20041 H 1849.71 1.5648 1.1619 0
M  V30 20042 H 1848.8 1.58342 2.6895 0
M  V30 20043 N 1849.1 -1.16685 1.05936 0
M  V30 20044 C 1850.03 -2.23129 0.688153 0
M  V30 20045 C 1851.01 -1.67108 -0.31765 0
M  V30 20046 O 1852.2 -1.93233 -0.193578 0
M  V30 20047 C 1849.33 -3.47229 0.069991 0
M  V30 20048 C 1848.28 -4.16121 1.00137 0
M  V30 20049 C 1847.61 -5.34131 0.246699 0
M  V30 20050 C 1848.91 -4.67508 2.32882 0
M  V30 20051 H 1850.6 -2.54436 1.57806 0
M  V30 20052 H 1848.15 -1.22298 0.76021 0
M  V30 20053 H 1850.1 -4.20918 -0.201545 0
M  V30 20054 H 1848.83 -3.15212 -0.854909 0
M  V30 20055 H 1847.49 -3.44355 1.25759 0
M  V30 20056 H 1847.13 -4.98366 -0.681204 0
M  V30 20057 H 1846.83 -5.81163 0.867373 0
M  V30 20058 H 1848.36 -6.10598 -0.0173762 0
M  V30 20059 H 1849.77 -5.32795 2.11666 0
M  V30 20060 H 1848.17 -5.25147 2.90414 0
M  V30 20061 H 1849.24 -3.83912 2.96209 0
M  V30 20062 N 1850.58 -0.841432 -1.33258 0
M  V30 20063 C 1851.51 -0.291603 -2.31672 0
M  V30 20064 C 1852.49 0.602066 -1.59089 0
M  V30 20065 O 1853.68 0.525081 -1.86967 0
M  V30 20066 C 1850.81 0.532008 -3.43201 0
M  V30 20067 C 1849.76 -0.26609 -4.27172 0
M  V30 20068 C 1849.09 0.681432 -5.3034 0
M  V30 20069 C 1850.39 -1.48457 -5.00757 0
M  V30 20070 H 1852.08 -1.1139 -2.77908 0
M  V30 20071 H 1849.63 -0.53708 -1.33609 0
M  V30 20072 H 1851.58 0.926977 -4.11078 0
M  V30 20073 H 1850.3 1.38754 -2.9566 0
M  V30 20074 H 1848.96 -0.64265 -3.60923 0
M  V30 20075 H 1848.61 1.53344 -4.79056 0
M  V30 20076 H 1848.31 0.151522 -5.87405 0
M  V30 20077 H 1849.84 1.07386 -6.01083 0
M  V30 20078 H 1851.25 -1.16262 -5.61388 0
M  V30 20079 H 1849.65 -1.95145 -5.67484 0
M  V30 20080 H 1850.72 -2.25296 -4.29383 0
M  V30 20081 N 1852.06 1.4581 -0.598108 0
M  V30 20082 C 1853.29 2.06379 -0.0955533 0
M  V30 20083 C 1853.7 1.44497 1.22137 0
M  V30 20084 O 1853.04 0.549997 1.75273 0
M  V30 20085 C 1853.1 3.59271 0.128433 0
M  V30 20086 C 1852.77 4.43434 -1.10523 0
M  V30 20087 C 1853.76 4.79008 -2.02107 0
M  V30 20088 C 1851.45 4.84334 -1.3314 0
M  V30 20089 C 1853.44 5.54326 -3.14644 0
M  V30 20090 C 1851.13 5.59408 -2.45979 0
M  V30 20091 C 1852.13 5.9432 -3.3656 0
M  V30 20092 O 1851.82 6.67874 -4.47437 0
M  V30 20093 H 1851.55 0.673187 -0.0616108 0
M  V30 20094 H 1854.1 1.88191 -0.823012 0
M  V30 20095 H 1852.33 3.75824 0.910679 0
M  V30 20096 H 1854.02 4.01714 0.581406 0
M  V30 20097 H 1854.79 4.47976 -1.85856 0
M  V30 20098 H 1850.67 4.566 -0.635381 0
M  V30 20099 H 1854.21 5.81495 -3.8537 0
M  V30 20100 H 1850.11 5.89854 -2.62187 0
M  V30 20101 H 1850.87 6.86314 -4.45999 0
M  V30 20102 N 1853.54 0.336733 1.53961 0
M  V30 20103 C 1854.5 -0.510638 2.23439 0
M  V30 20104 C 1855.5 -1.03304 1.23227 0
M  V30 20105 O 1856.69 -0.923373 1.47714 0
M  V30 20106 C 1853.82 -1.71063 2.94873 0
M  V30 20107 H 1855.02 0.0969205 2.99743 0
M  V30 20108 H 1852.57 0.0879867 1.56052 0
M  V30 20109 H 1853.3 -2.35707 2.22739 0
M  V30 20110 H 1853.09 -1.34331 3.68371 0
M  V30 20111 H 1854.58 -2.31182 3.47771 0
M  V30 20112 N 1855.02 -1.57465 0.0651956 0
M  V30 20113 C 1855.95 -2.15374 -0.902018 0
M  V30 20114 C 1856.93 -1.07904 -1.31494 0
M  V30 20115 O 1858.11 -1.35909 -1.38717 0
M  V30 20116 C 1855.24 -2.71005 -2.17195 0
M  V30 20117 C 1854.2 -3.83583 -1.89864 0
M  V30 20118 C 1853.52 -4.25789 -3.23432 0
M  V30 20119 C 1854.82 -5.08112 -1.20913 0
M  V30 20120 H 1856.52 -2.96445 -0.419631 0
M  V30 20121 H 1854.06 -1.42599 -0.200401 0
M  V30 20122 H 1856.01 -3.1016 -2.8527 0
M  V30 20123 H 1854.74 -1.87146 -2.67664 0
M  V30 20124 H 1853.4 -3.44921 -1.24197 0
M  V30 20125 H 1853.05 -3.38861 -3.71729 0
M  V30 20126 H 1852.75 -5.01673 -3.05938 0
M  V30 20127 H 1854.27 -4.67555 -3.92715 0
M  V30 20128 H 1855.68 -5.44624 -1.79046 0
M  V30 20129 H 1854.08 -5.8923 -1.137 0
M  V30 20130 H 1855.15 -4.84538 -0.187224 0
M  V30 20131 N 1856.49 0.20831 -1.56217 0
M  V30 20132 C 1857.72 0.947271 -1.83941 0
M  V30 20133 C 1858.14 1.77403 -0.646029 0
M  V30 20134 O 1857.49 1.78385 0.385378 0
M  V30 20135 C 1857.54 1.85415 -3.10328 0
M  V30 20136 O 1857.27 1.06079 -4.25063 0
M  V30 20137 C 1858.77 2.7059 -3.51135 0
M  V30 20138 H 1855.99 0.277012 -0.611151 0
M  V30 20139 H 1858.53 0.219545 -2.03318 0
M  V30 20140 H 1856.69 2.53566 -2.92888 0
M  V30 20141 H 1857.1 1.67758 -4.96948 0
M  V30 20142 H 1858.57 3.29902 -4.42571 0
M  V30 20143 H 1859.05 3.43645 -2.73505 0
M  V30 20144 H 1859.66 2.07831 -3.71061 0
M  V30 20145 N 1857.97 1.50255 0.475528 0
M  V30 20146 C 1859.22 1.60263 1.22468 0
M  V30 20147 C 1859.53 0.306389 1.93185 0
M  V30 20148 O 1860.74 0.285331 2.69997 0
M  V30 20149 C 1859.2 2.82876 2.22506 0
M  V30 20150 C 1858.8 4.19359 1.57612 0
M  V30 20151 C 1860.55 3.02228 2.98091 0
M  V30 20152 C 1858.45 5.33164 2.55911 0
M  V30 20153 H 1857.38 0.596804 0.460804 0
M  V30 20154 H 1860.04 1.76679 0.495653 0
M  V30 20155 H 1858.42 2.6001 2.98682 0
M  V30 20156 H 1859.59 4.52463 0.872559 0
M  V30 20157 H 1857.91 4.05576 0.943247 0
M  V30 20158 H 1860.5 3.84422 3.7165 0
M  V30 20159 H 1860.85 2.13781 3.57216 0
M  V30 20160 H 1861.38 3.25255 2.29029 0
M  V30 20161 H 1858.12 6.23751 2.01531 0
M  V30 20162 H 1857.64 5.04484 3.24432 0
M  V30 20163 H 1859.32 5.63554 3.17829 0
M  V30 20164 N 1859.45 -0.728395 1.39758 0
M  V30 20165 C 1860.68 -1.5176 1.40629 0
M  V30 20166 C 1861.09 -1.888 0.00253909 0
M  V30 20167 O 1860.45 -1.54561 -0.970428 0
M  V30 20168 C 1860.5 -2.80102 2.28528 0
M  V30 20169 O 1860.22 -2.44633 3.63436 0
M  V30 20170 C 1861.72 -3.74087 2.37853 0
M  V30 20171 H 1858.94 -0.468767 0.480103 0
M  V30 20172 H 1861.49 -0.89953 1.83654 0
M  V30 20173 H 1859.64 -3.38225 1.88898 0
M  V30 20174 H 1860.06 -3.27124 4.09988 0
M  V30 20175 H 1861.53 -4.61017 3.03591 0
M  V30 20176 H 1862.01 -4.163 1.39968 0
M  V30 20177 H 1862.61 -3.2188 2.7798 0
M  V30 20178 N 1860.93 -1.25042 -0.959279 0
M  V30 20179 C 1861.88 -1.04802 -2.07652 0
M  V30 20180 C 1862.87 0.019648 -1.69389 0
M  V30 20181 O 1864.08 -0.135594 -1.79489 0
M  V30 20182 H 1860.45 -0.321939 -0.679602 0
M  V30 20183 H 1862.42 -1.99527 -2.21882 0
M  V30 20184 C 1861.17 -0.678505 -3.41016 0
M  V30 20185 H 1860.49 -1.49185 -3.70923 0
M  V30 20186 H 1861.93 -0.576549 -4.20062 0
M  V30 20187 C 1860.39 0.615075 -3.31238 0
M  V30 20188 O 1860.92 1.65848 -3.65865 0
M  V30 20189 N 1859.13 0.598958 -2.8436 0
M  V30 20190 H 1858.68 -0.250509 -2.56379 0
M  V30 20191 H 1858.63 1.46464 -2.78201 0
M  V30 20192 N 1862.41 1.16121 -1.06553 0
M  V30 20193 C 1863.64 1.90335 -0.803506 0
M  V30 20194 C 1864.04 1.77824 0.646172 0
M  V30 20195 O 1863.39 1.12231 1.4543 0
M  V30 20196 C 1863.45 3.41537 -1.12219 0
M  V30 20197 C 1863.11 3.77833 -2.57082 0
M  V30 20198 C 1864.11 3.79533 -3.55318 0
M  V30 20199 C 1861.8 4.08385 -2.92449 0
M  V30 20200 C 1863.79 4.11277 -4.8696 0
M  V30 20201 C 1861.48 4.39795 -4.24291 0
M  V30 20202 C 1862.47 4.41221 -5.21357 0
M  V30 20203 O 1862.16 4.71883 -6.50831 0
M  V30 20204 H 1861.89 0.610323 -0.290658 0
M  V30 20205 H 1864.45 1.48107 -1.42315 0
M  V30 20206 H 1862.68 3.84125 -0.445483 0
M  V30 20207 H 1864.37 3.97029 -0.843985 0
M  V30 20208 H 1865.13 3.56038 -3.29336 0
M  V30 20209 H 1861.01 4.06439 -2.17551 0
M  V30 20210 H 1864.56 4.12305 -5.62717 0
M  V30 20211 H 1860.45 4.62756 -4.5003 0
M  V30 20212 H 1861.22 4.89683 -6.5586 0
M  V30 20213 N 1863.88 0.848487 1.3281 0
M  V30 20214 C 1864.81 0.303885 2.31514 0
M  V30 20215 C 1865.8 -0.593621 1.59406 0
M  V30 20216 O 1866.98 -0.515158 1.87243 0
M  V30 20217 C 1864.11 -0.5138 3.43478 0
M  V30 20218 C 1863.06 0.28874 4.27025 0
M  V30 20219 C 1862.39 -0.653297 5.30694 0
M  V30 20220 C 1863.69 1.51111 4.99963 0
M  V30 20221 H 1865.38 1.12862 2.77313 0
M  V30 20222 H 1862.93 0.544158 1.33323 0
M  V30 20223 H 1864.88 -0.905164 4.11564 0
M  V30 20224 H 1863.61 -1.37184 2.96392 0
M  V30 20225 H 1862.27 0.661782 3.60577 0
M  V30 20226 H 1861.91 -1.50801 4.79863 0
M  V30 20227 H 1861.61 -0.120368 5.87477 0
M  V30 20228 H 1863.14 -1.04197 6.01644 0
M  V30 20229 H 1864.55 1.19237 5.60763 0
M  V30 20230 H 1862.95 1.98152 5.66441 0
M  V30 20231 H 1864.02 2.2757 4.28182 0
M  V30 20232 N 1865.36 -1.4549 0.605832 0
M  V30 20233 C 1866.31 -2.32256 -0.126541 0
M  V30 20234 C 1867.3 -1.45865 -0.861381 0
M  V30 20235 O 1868.51 -1.62359 -0.777146 0
M  V30 20236 H 1864.89 -0.749629 -0.0596684 0
M  V30 20237 H 1866.86 -2.91809 0.623708 0
M  V30 20238 C 1865.61 -3.2945 -1.11165 0
M  V30 20239 H 1864.93 -3.9592 -0.555636 0
M  V30 20240 H 1866.37 -3.92894 -1.59406 0
M  V30 20241 C 1864.83 -2.56493 -2.18433 0
M  V30 20242 O 1865.36 -2.34501 -3.26147 0
M  V30 20243 N 1863.56 -2.16658 -1.93669 0
M  V30 20244 H 1863.11 -2.34744 -1.0608 0
M  V30 20245 H 1863.07 -1.68166 -2.65645 0
M  V30 20246 N 1866.84 -0.344893 -1.5378 0
M  V30 20247 C 1868.09 0.244249 -2.01928 0
M  V30 20248 C 1868.44 1.48091 -1.22829 0
M  V30 20249 O 1867.73 1.89109 -0.307945 0
M  V30 20250 C 1867.93 0.609495 -3.52165 0
M  V30 20251 C 1867.76 -0.590217 -4.4581 0
M  V30 20252 C 1866.53 -1.09594 -4.93272 0
M  V30 20253 C 1868.73 -1.44908 -4.93463 0
M  V30 20254 N 1866.71 -2.25784 -5.70872 0
M  V30 20255 C 1868.08 -2.45787 -5.692 0
M  V30 20256 C 1870.13 -1.47437 -4.7557 0
M  V30 20257 C 1868.84 -3.49026 -6.28946 0
M  V30 20258 C 1870.86 -2.49558 -5.36167 0
M  V30 20259 C 1870.22 -3.49162 -6.11772 0
M  V30 20260 H 1866.32 0.0526462 -0.780226 0
M  V30 20261 H 1868.91 -0.484763 -1.88569 0
M  V30 20262 H 1867.08 1.30761 -3.65727 0
M  V30 20263 H 1868.81 1.18194 -3.87056 0
M  V30 20264 H 1865.57 -0.663814 -4.68925 0
M  V30 20265 H 1865.99 -2.84451 -6.14342 0
M  V30 20266 H 1870.63 -0.717913 -4.1666 0
M  V30 20267 H 1868.35 -4.25566 -6.86964 0
M  V30 20268 H 1871.94 -2.52343 -5.24227 0
M  V30 20269 H 1870.82 -4.26887 -6.57827 0
M  V30 20270 N 1868.32 1.57428 -0.0735454 0
M  V30 20271 C 1869.56 1.93843 0.596054 0
M  V30 20272 C 1869.9 0.953931 1.69156 0
M  V30 20273 O 1869.17 -0.0165729 1.94493 0
M  V30 20274 C 1869.46 3.40516 1.17137 0
M  V30 20275 C 1869.31 4.49725 0.0823861 0
M  V30 20276 C 1870.63 3.88042 2.07634 0
M  V30 20277 H 1867.75 0.70488 0.215204 0
M  V30 20278 H 1870.39 1.89484 -0.139871 0
M  V30 20279 H 1868.54 3.44361 1.79855 0
M  V30 20280 H 1870.21 4.58 -0.55078 0
M  V30 20281 H 1868.45 4.29813 -0.586788 0
M  V30 20282 H 1869.12 5.49494 0.525354 0
M  V30 20283 H 1871.6 3.86214 1.54849 0
M  V30 20284 H 1870.48 4.91277 2.44822 0
M  V30 20285 H 1870.74 3.26084 2.98532 0
M  V30 20286 N 1869.8 -0.200022 1.56326 0
M  V30 20287 C 1871.04 -0.922539 1.80602 0
M  V30 20288 C 1871.38 -1.83113 0.646781 0
M  V30 20289 O 1870.65 -1.91271 -0.352928 0
M  V30 20290 C 1870.93 -1.74301 3.15105 0
M  V30 20291 C 1870.79 -0.859471 4.41512 0
M  V30 20292 C 1872.11 -2.71658 3.46251 0
M  V30 20293 H 1869.22 -0.333949 0.656999 0
M  V30 20294 H 1871.87 -0.190177 1.89046 0
M  V30 20295 H 1870.02 -2.36739 3.08037 0
M  V30 20296 H 1871.69 -0.250183 4.60621 0
M  V30 20297 H 1869.93 -0.165935 4.33483 0
M  V30 20298 H 1870.6 -1.46842 5.3211 0
M  V30 20299 H 1873.08 -2.19353 3.53586 0
M  V30 20300 H 1871.95 -3.26152 4.41493 0
M  V30 20301 H 1872.22 -3.50462 2.69497 0
M  V30 20302 N 1871.27 -1.50505 -0.467553 0
M  V30 20303 C 1872.69 -1.38009 -0.801599 0
M  V30 20304 C 1872.89 -0.43893 -1.96661 0
M  V30 20305 O 1871.95 0.117139 -2.52228 0
M  V30 20306 C 1873.26 -2.79449 -1.11034 0
M  V30 20307 C 1874.81 -2.88389 -1.21659 0
M  V30 20308 C 1875.28 -4.3067 -1.55844 0
M  V30 20309 N 1876.77 -4.33637 -1.62829 0
M  V30 20310 C 1877.51 -5.40727 -1.90791 0
M  V30 20311 N 1877 -6.58021 -2.16751 0
M  V30 20312 N 1878.8 -5.28175 -1.92323 0
M  V30 20313 H 1870.95 -2.10268 0.300165 0
M  V30 20314 H 1873.21 -0.945278 0.0717853 0
M  V30 20315 H 1872.92 -3.50173 -0.327326 0
M  V30 20316 H 1872.79 -3.16911 -2.04566 0
M  V30 20317 H 1875.18 -2.17881 -1.99027 0
M  V30 20318 H 1875.26 -2.54465 -0.260984 0
M  V30 20319 H 1874.9 -5.01716 -0.79014 0
M  V30 20320 H 1874.83 -4.62083 -2.5256 0
M  V30 20321 H 1877.32 -3.49061 -1.44793 0
M  V30 20322 H 1877.64 -7.35442 -2.37371 0
M  V30 20323 H 1875.98 -6.61189 -2.14136 0
M  V30 20324 H 1879.17 -4.35536 -1.71541 0
M  V30 20325 H 1879.35 -6.11721 -2.13779 0
M  V30 20326 N 1872.75 0.720973 -1.40142 0
M  V30 20327 C 1873.7 1.8564 -1.40145 0
M  V30 20328 C 1874.69 1.67025 -0.282667 0
M  V30 20329 O 1875.9 1.74195 -0.453429 0
M  V30 20330 H 1872.28 0.611316 -0.437947 0
M  V30 20331 H 1874.25 1.82753 -2.35889 0
M  V30 20332 C 1873 3.23455 -1.27563 0
M  V30 20333 H 1872.32 3.38382 -2.12926 0
M  V30 20334 H 1873.76 4.03052 -1.31623 0
M  V30 20335 C 1872.22 3.36897 0.0146614 0
M  V30 20336 O 1872.75 3.89572 0.979616 0
M  V30 20337 N 1870.95 2.90483 0.0823795 0
M  V30 20338 H 1870.5 2.47805 -0.70359 0
M  V30 20339 H 1870.46 2.99856 0.945177 0
M  V30 20340 N 1874.23 1.25549 0.952634 0
M  V30 20341 C 1875.16 1.08592 2.06712 0
M  V30 20342 C 1876.14 -0.00560571 1.70099 0
M  V30 20343 O 1877.33 0.164299 1.93504 0
M  V30 20344 C 1874.46 0.705984 3.40049 0
M  V30 20345 C 1873.41 1.74797 3.90679 0
M  V30 20346 C 1872.74 1.22266 5.20533 0
M  V30 20347 C 1874.04 3.14717 4.16834 0
M  V30 20348 H 1875.73 2.01816 2.21157 0
M  V30 20349 H 1873.28 0.971723 1.06271 0
M  V30 20350 H 1875.23 0.57428 4.17469 0
M  V30 20351 H 1873.95 -0.261964 3.25548 0
M  V30 20352 H 1872.61 1.86815 3.1543 0
M  V30 20353 H 1872.26 0.244887 5.02404 0
M  V30 20354 H 1871.96 1.9191 5.55377 0
M  V30 20355 H 1873.48 1.10339 6.00548 0
M  V30 20356 H 1874.9 3.05842 4.84906 0
M  V30 20357 H 1873.3 3.81849 4.62938 0
M  V30 20358 H 1874.37 3.61629 3.23037 0
M  V30 20359 N 1875.71 -1.15554 1.07168 0
M  V30 20360 C 1876.67 -2.18431 0.694305 0
M  V30 20361 C 1877.67 -1.5861 -0.264497 0
M  V30 20362 O 1878.86 -1.7414 -0.0457035 0
M  V30 20363 C 1875.99 -3.40892 0.0230473 0
M  V30 20364 H 1877.19 -2.53331 1.60511 0
M  V30 20365 H 1874.74 -1.29984 0.867982 0
M  V30 20366 H 1875.47 -3.11559 -0.900083 0
M  V30 20367 H 1875.26 -3.8557 0.712622 0
M  V30 20368 H 1876.75 -4.16986 -0.226392 0
M  V30 20369 N 1877.19 -0.855519 -1.32358 0
M  V30 20370 C 1878.46 -0.380575 -1.91862 0
M  V30 20371 C 1878.84 1.13593 -1.77932 0
M  V30 20372 O 1878.19 1.95797 -1.17796 0
M  V30 20373 C 1878.4 -0.845902 -3.38593 0
M  V30 20374 C 1879.75 -0.863586 -4.15725 0
M  V30 20375 O 1880.77 -0.790597 -3.47315 0
M  V30 20376 O 1879.63 -0.966658 -5.37883 0
M  V30 20377 H 1876.73 -0.111156 -0.819496 0
M  V30 20378 H 1879.27 -0.942476 -1.41122 0
M  V30 20379 H 1878.05 -1.88909 -3.42679 0
M  V30 20380 H 1877.67 -0.2615 -3.96739 0
M  V30 20381 N 1878.67 1.45167 -0.61354 0
M  V30 20382 C 1879.6 2.3333 0.089004 0
M  V30 20383 C 1880.58 1.47181 0.85275 0
M  V30 20384 O 1881.76 1.7594 0.822122 0
M  V30 20385 C 1878.89 3.29982 1.08301 0
M  V30 20386 C 1877.85 4.25813 0.432084 0
M  V30 20387 C 1877.17 5.122 1.53476 0
M  V30 20388 C 1878.47 5.18233 -0.65052 0
M  V30 20389 H 1880.17 2.92322 -0.647165 0
M  V30 20390 H 1877.71 1.40565 -0.312667 0
M  V30 20391 H 1879.66 3.90533 1.5831 0
M  V30 20392 H 1878.39 2.69162 1.84985 0
M  V30 20393 H 1877.05 3.6657 -0.0471927 0
M  V30 20394 H 1876.7 4.47744 2.29203 0
M  V30 20395 H 1876.4 5.77122 1.10469 0
M  V30 20396 H 1877.92 5.7562 2.037 0
M  V30 20397 H 1879.33 5.72821 -0.234262 0
M  V30 20398 H 1877.73 5.91664 -1.00268 0
M  V30 20399 H 1878.8 4.60304 -1.52475 0
M  V30 20400 N 1880.14 0.353044 1.53595 0
M  V30 20401 C 1881.05 -0.507548 2.29044 0
M  V30 20402 C 1882.07 -1.10364 1.34521 0
M  V30 20403 O 1883.25 -1.11728 1.67567 0
M  V30 20404 C 1880.31 -1.63799 3.05566 0
M  V30 20405 C 1879.37 -1.07071 4.15733 0
M  V30 20406 C 1878.6 -2.14728 4.88597 0
M  V30 20407 O 1878.83 -3.35619 4.61211 0
M  V30 20408 O 1877.76 -1.78489 5.74826 0
M  V30 20409 H 1881.59 0.10606 3.03515 0
M  V30 20410 H 1879.17 0.117799 1.48935 0
M  V30 20411 H 1881.05 -2.2955 3.5339 0
M  V30 20412 H 1879.73 -2.23723 2.33944 0
M  V30 20413 H 1878.64 -0.37746 3.72191 0
M  V30 20414 H 1879.97 -0.516205 4.89486 0
M  V30 20415 N 1881.62 -1.57387 0.0818932 0
M  V30 20416 C 1882.87 -1.94156 -0.585765 0
M  V30 20417 C 1883.2 -0.962889 -1.68648 0
M  V30 20418 O 1882.48 0.00625819 -1.94499 0
M  V30 20419 C 1882.76 -3.41132 -1.15329 0
M  V30 20420 C 1882.61 -4.49762 -0.0585349 0
M  V30 20421 C 1883.93 -3.89137 -2.05573 0
M  V30 20422 H 1881.05 -0.706012 -0.211463 0
M  V30 20423 H 1883.69 -1.89408 0.149918 0
M  V30 20424 H 1881.84 -3.4531 -1.78026 0
M  V30 20425 H 1883.51 -4.57702 0.575061 0
M  V30 20426 H 1881.76 -4.29496 0.609574 0
M  V30 20427 H 1882.43 -5.49765 -0.496206 0
M  V30 20428 H 1884.9 -3.87029 -1.52798 0
M  V30 20429 H 1883.78 -4.92569 -2.42213 0
M  V30 20430 H 1884.04 -3.27663 -2.96799 0
M  V30 20431 N 1883.1 0.191729 -1.56429 0
M  V30 20432 C 1884.03 1.26174 -1.91345 0
M  V30 20433 C 1885.04 1.41536 -0.804451 0
M  V30 20434 O 1886.23 1.41902 -1.08287 0
M  V30 20435 C 1883.33 2.63341 -2.13319 0
M  V30 20436 C 1882.51 2.69543 -3.44479 0
M  V30 20437 C 1881.57 3.87929 -3.55524 0
M  V30 20438 O 1880.59 3.74875 -4.28319 0
M  V30 20439 N 1881.79 5.03527 -2.88861 0
M  V30 20440 H 1884.56 0.965364 -2.83727 0
M  V30 20441 H 1882.12 0.381628 -1.57338 0
M  V30 20442 H 1884.11 3.40971 -2.17993 0
M  V30 20443 H 1882.68 2.85452 -1.2742 0
M  V30 20444 H 1881.9 1.78161 -3.51642 0
M  V30 20445 H 1883.19 2.7068 -4.30824 0
M  V30 20446 H 1882.59 5.17032 -2.29553 0
M  V30 20447 H 1881.14 5.79092 -2.99159 0
M  V30 20448 N 1884.58 1.50751 0.459565 0
M  V30 20449 C 1885.51 1.65108 1.57526 0
M  V30 20450 C 1886.49 0.498959 1.54755 0
M  V30 20451 O 1887.67 0.719958 1.74209 0
M  V30 20452 C 1884.8 1.64427 2.96111 0
M  V30 20453 C 1883.85 2.85339 3.16992 0
M  V30 20454 S 1884.68 4.46482 2.95659 0
M  V30 20455 C 1885.83 4.48511 4.36565 0
M  V30 20456 H 1886.07 2.59481 1.45109 0
M  V30 20457 H 1883.6 1.40157 0.647718 0
M  V30 20458 H 1885.56 1.64718 3.76003 0
M  V30 20459 H 1884.22 0.712698 3.05908 0
M  V30 20460 H 1883.41 2.81199 4.18262 0
M  V30 20461 H 1883.01 2.82674 2.4489 0
M  V30 20462 H 1885.31 4.22783 5.29396 0
M  V30 20463 H 1886.25 5.50198 4.45744 0
M  V30 20464 H 1886.66 3.78084 4.19181 0
M  V30 20465 N 1886.06 -0.713531 1.40522 0
M  V30 20466 C 1887.3 -1.47052 1.38637 0
M  V30 20467 C 1887.62 -1.94998 -0.00984474 0
M  V30 20468 O 1886.89 -1.70486 -0.964959 0
M  V30 20469 H 1885.47 -0.545577 0.51025 0
M  V30 20470 H 1888.14 -0.84572 1.75595 0
M  V30 20471 H 1887.23 -2.34237 2.06251 0
M  V30 20472 N 1887.53 -1.26053 -0.945962 0
M  V30 20473 C 1888.5 -1.07262 -2.02553 0
M  V30 20474 C 1889.5 -0.0225237 -1.60784 0
M  V30 20475 O 1890.69 -0.265501 -1.72165 0
M  V30 20476 C 1887.82 -0.63045 -3.3502 0
M  V30 20477 H 1889.01 -2.03105 -2.20655 0
M  V30 20478 H 1886.56 -1.08582 -1.12426 0
M  V30 20479 H 1887.3 0.330188 -3.22615 0
M  V30 20480 H 1887.08 -1.38863 -3.66687 0
M  V30 20481 H 1888.57 -0.520674 -4.14341 0
M  V30 20482 N 1889.01 1.14984 -1.07779 0
M  V30 20483 C 1890.26 1.86148 -0.804777 0
M  V30 20484 C 1890.59 1.82364 0.667615 0
M  V30 20485 O 1889.87 1.24982 1.4903 0
M  V30 20486 C 1890.15 3.35067 -1.31916 0
M  V30 20487 C 1890 3.4746 -2.85642 0
M  V30 20488 C 1891.32 4.29961 -0.939217 0
M  V30 20489 H 1888.44 0.675899 -0.293818 0
M  V30 20490 H 1891.08 1.35065 -1.33632 0
M  V30 20491 H 1889.23 3.78702 -0.867011 0
M  V30 20492 H 1890.9 3.12658 -3.3918 0
M  V30 20493 H 1889.15 2.88878 -3.23623 0
M  V30 20494 H 1889.82 4.52109 -3.16704 0
M  V30 20495 H 1892.29 3.94309 -1.3289 0
M  V30 20496 H 1891.17 5.32633 -1.32641 0
M  V30 20497 H 1891.43 4.4183 0.15442 0
M  V30 20498 N 1890.49 0.862526 1.31902 0
M  V30 20499 C 1891.44 0.31091 2.28696 0
M  V30 20500 C 1892.41 -0.586495 1.55401 0
M  V30 20501 O 1893.59 -0.519727 1.83585 0
M  V30 20502 C 1890.73 -0.487986 3.41632 0
M  V30 20503 C 1889.84 0.436096 4.29793 0
M  V30 20504 C 1888.98 -0.376197 5.29866 0
M  V30 20505 C 1888.02 0.544784 6.09671 0
M  V30 20506 N 1887.16 -0.230806 7.01721 0
M  V30 20507 H 1892 1.14156 2.75268 0
M  V30 20508 H 1889.53 0.574352 1.35424 0
M  V30 20509 H 1891.49 -0.966875 4.05842 0
M  V30 20510 H 1890.12 -1.28339 2.96191 0
M  V30 20511 H 1889.17 1.03341 3.66094 0
M  V30 20512 H 1890.48 1.14259 4.85537 0
M  V30 20513 H 1889.64 -0.917915 5.99716 0
M  V30 20514 H 1888.38 -1.11602 4.74759 0
M  V30 20515 H 1887.38 1.09832 5.38718 0
M  V30 20516 H 1888.61 1.28334 6.66864 0
M  V30 20517 H 1886.55 -0.95358 6.49032 0
M  V30 20518 H 1886.47 0.416499 7.54852 0
M  V30 20519 H 1887.74 -0.753996 7.75845 0
M  V30 20520 N 1891.97 -1.4484 0.62123 0
M  V30 20521 C 1892.92 -2.30626 -0.0895817 0
M  V30 20522 C 1893.89 -1.42906 -0.846593 0
M  V30 20523 O 1895.07 -1.7182 -0.829611 0
M  V30 20524 C 1892.21 -3.28032 -1.07188 0
M  V30 20525 C 1891.32 -4.30855 -0.314319 0
M  V30 20526 C 1890.46 -5.1536 -1.28755 0
M  V30 20527 C 1889.5 -6.09899 -0.518581 0
M  V30 20528 N 1888.63 -6.87137 -1.44178 0
M  V30 20529 H 1893.47 -2.90871 0.64793 0
M  V30 20530 H 1891.01 -1.4332 0.33131 0
M  V30 20531 H 1892.97 -3.82984 -1.65467 0
M  V30 20532 H 1891.6 -2.6951 -1.77664 0
M  V30 20533 H 1890.65 -3.78455 0.38422 0
M  V30 20534 H 1891.96 -4.97985 0.285042 0
M  V30 20535 H 1891.12 -5.7478 -1.94198 0
M  V30 20536 H 1889.86 -4.4828 -1.92084 0
M  V30 20537 H 1888.86 -5.49597 0.149399 0
M  V30 20538 H 1890.09 -6.79011 0.109851 0
M  V30 20539 H 1888.03 -6.22735 -2.06246 0
M  V30 20540 H 1887.95 -7.50669 -0.896192 0
M  V30 20541 H 1889.22 -7.51088 -2.08536 0
M  V30 20542 N 1893.45 -0.361184 -1.53405 0
M  V30 20543 C 1894.69 0.230222 -2.01489 0
M  V30 20544 C 1895.03 1.48779 -1.24814 0
M  V30 20545 O 1894.3 1.91494 -0.340612 0
M  V30 20546 C 1894.58 0.526613 -3.56229 0
M  V30 20547 C 1894.44 -0.744277 -4.436 0
M  V30 20548 C 1895.76 1.32901 -4.19554 0
M  V30 20549 H 1892.87 0.0822009 -0.732402 0
M  V30 20550 H 1895.52 -0.485208 -1.837 0
M  V30 20551 H 1893.67 1.13609 -3.71517 0
M  V30 20552 H 1895.34 -1.38188 -4.40116 0
M  V30 20553 H 1893.58 -1.36555 -4.11747 0
M  V30 20554 H 1894.25 -0.491913 -5.49804 0
M  V30 20555 H 1896.73 0.813474 -4.08071 0
M  V30 20556 H 1895.6 1.50513 -5.27861 0
M  V30 20557 H 1895.87 2.33625 -3.75329 0
M  V30 20558 N 1894.92 1.57341 -0.0902386 0
M  V30 20559 C 1895.87 2.14982 0.887997 0
M  V30 20560 C 1896.87 1.09142 1.29555 0
M  V30 20561 O 1898.07 1.27494 1.27064 0
M  V30 20562 H 1894.45 0.687648 0.304376 0
M  V30 20563 H 1896.42 2.96008 0.377094 0
M  V30 20564 C 1895.17 2.74101 2.13925 0
M  V30 20565 H 1894.49 3.55226 1.83452 0
M  V30 20566 H 1895.93 3.18007 2.80442 0
M  V30 20567 C 1894.39 1.69757 2.91005 0
M  V30 20568 O 1894.92 1.13359 3.85373 0
M  V30 20569 N 1893.13 1.40362 2.54454 0
M  V30 20570 H 1892.67 1.86414 1.77785 0
M  V30 20571 H 1892.63 0.707837 3.06328 0
M  V30 20572 N 1896.4 -0.183431 1.56529 0
M  V30 20573 C 1897.63 -0.921964 1.85781 0
M  V30 20574 C 1898.05 -1.75564 0.675184 0
M  V30 20575 O 1897.41 -1.7736 -0.375913 0
M  V30 20576 C 1897.46 -1.7844 3.13355 0
M  V30 20577 O 1896.56 -2.88461 2.94727 0
M  V30 20578 H 1895.9 -0.258974 0.611415 0
M  V30 20579 H 1898.43 -0.185225 2.0376 0
M  V30 20580 H 1898.44 -2.18675 3.44449 0
M  V30 20581 H 1897.12 -1.17195 3.99047 0
M  V30 20582 H 1895.7 -2.51897 2.74959 0
M  V30 20583 N 1897.88 -1.50992 -0.451564 0
M  V30 20584 C 1899.13 -1.62955 -1.20216 0
M  V30 20585 C 1899.46 -0.33902 -1.91523 0
M  V30 20586 O 1898.71 0.676199 -1.83647 0
M  V30 20587 C 1899.01 -2.7732 -2.25452 0
M  V30 20588 C 1898.68 -4.1711 -1.71259 0
M  V30 20589 C 1897.34 -4.55142 -1.56202 0
M  V30 20590 C 1899.69 -5.04399 -1.31268 0
M  V30 20591 C 1897.02 -5.78183 -0.996051 0
M  V30 20592 C 1899.37 -6.28005 -0.761055 0
M  V30 20593 C 1898.03 -6.64823 -0.597267 0
M  V30 20594 H 1897.3 -0.596295 -0.439901 0
M  V30 20595 H 1899.95 -1.84985 -0.495266 0
M  V30 20596 H 1898.26 -2.49455 -3.02125 0
M  V30 20597 H 1899.95 -2.83777 -2.83323 0
M  V30 20598 H 1896.54 -3.87117 -1.83952 0
M  V30 20599 H 1900.73 -4.75633 -1.41727 0
M  V30 20600 H 1895.98 -6.05367 -0.856787 0
M  V30 20601 H 1900.16 -6.94992 -0.442598 0
M  V30 20602 H 1897.78 -7.60039 -0.156575 0
M  V30 20603 N 1899.36 0.706069 -1.40899 0
M  V30 20604 C 1900.29 1.83275 -1.44681 0
M  V30 20605 C 1901.27 1.67313 -0.306629 0
M  V30 20606 O 1902.45 1.87203 -0.516597 0
M  V30 20607 C 1899.58 3.21319 -1.318 0
M  V30 20608 C 1898.54 3.51969 -2.4352 0
M  V30 20609 C 1897.86 4.89258 -2.1571 0
M  V30 20610 C 1899.16 3.52004 -3.85864 0
M  V30 20611 H 1900.86 1.80367 -2.38973 0
M  V30 20612 H 1898.4 0.866349 -1.15023 0
M  V30 20613 H 1900.36 3.99841 -1.3306 0
M  V30 20614 H 1899.08 3.24827 -0.339879 0
M  V30 20615 H 1897.74 2.75792 -2.41525 0
M  V30 20616 H 1897.39 4.89378 -1.16266 0
M  V30 20617 H 1897.09 5.1073 -2.90566 0
M  V30 20618 H 1898.61 5.70102 -2.18669 0
M  V30 20619 H 1900.03 4.20548 -3.8963 0
M  V30 20620 H 1898.42 3.85005 -4.60316 0
M  V30 20621 H 1899.49 2.51191 -4.14766 0
M  V30 20622 N 1900.84 1.26553 0.939264 0
M  V30 20623 C 1902.06 1.14993 1.72001 0
M  V30 20624 C 1902.48 -0.29462 1.86487 0
M  V30 20625 O 1901.84 -1.20158 1.37362 0
M  V30 20626 C 1901.89 1.81598 3.12577 0
M  V30 20627 O 1901.61 3.20408 2.98781 0
M  V30 20628 C 1903.11 1.76017 4.06858 0
M  V30 20629 H 1900.33 0.400347 0.538482 0
M  V30 20630 H 1902.87 1.67209 1.17735 0
M  V30 20631 H 1901.03 1.33316 3.63739 0
M  V30 20632 H 1901.44 3.53397 3.8757 0
M  V30 20633 H 1902.92 2.27255 5.0305 0
M  V30 20634 H 1903.39 0.727075 4.3314 0
M  V30 20635 H 1904 2.2386 3.61617 0
M  V30 20636 N 1902.31 -1.14411 1.08387 0
M  V30 20637 C 1903.25 -2.18516 0.657718 0
M  V30 20638 C 1904.23 -1.59207 -0.330415 0
M  V30 20639 O 1905.41 -1.87038 -0.234325 0
M  V30 20640 C 1902.54 -3.38684 -0.0326254 0
M  V30 20641 C 1901.58 -4.16556 0.915623 0
M  V30 20642 S 1902.42 -4.77588 2.42218 0
M  V30 20643 C 1903.57 -6.01113 1.74395 0
M  V30 20644 H 1903.8 -2.54327 1.53965 0
M  V30 20645 H 1901.34 -1.2554 0.898836 0
M  V30 20646 H 1903.3 -4.08298 -0.424651 0
M  V30 20647 H 1901.96 -3.01196 -0.891048 0
M  V30 20648 H 1901.15 -5.02569 0.379492 0
M  V30 20649 H 1900.75 -3.52544 1.24854 0
M  V30 20650 H 1903.04 -6.69128 1.06177 0
M  V30 20651 H 1903.99 -6.59315 2.58281 0
M  V30 20652 H 1904.39 -5.51217 1.2174 0
M  V30 20653 N 1903.79 -0.869509 -1.31443 0
M  V30 20654 C 1904.7 -0.328352 -2.32291 0
M  V30 20655 C 1905.72 0.561491 -1.64691 0
M  V30 20656 O 1906.89 0.458316 -1.96116 0
M  V30 20657 C 1903.96 0.461733 -3.43612 0
M  V30 20658 C 1903.02 -0.456015 -4.26871 0
M  V30 20659 C 1902.25 0.296458 -5.32876 0
M  V30 20660 O 1902.48 1.5246 -5.49647 0
M  V30 20661 O 1901.41 -0.345443 -6.00908 0
M  V30 20662 H 1905.24 -1.16424 -2.80498 0
M  V30 20663 H 1902.82 -0.632869 -1.35333 0
M  V30 20664 H 1904.7 0.90965 -4.11465 0
M  V30 20665 H 1903.38 1.27418 -2.97567 0
M  V30 20666 H 1902.29 -0.952421 -3.61773 0
M  V30 20667 H 1903.62 -1.23404 -4.76479 0
M  V30 20668 N 1905.27 1.44508 -0.628902 0
M  V30 20669 C 1906.5 2.06942 -0.137778 0
M  V30 20670 C 1906.92 1.46672 1.17766 0
M  V30 20671 O 1906.28 0.567342 1.72194 0
M  V30 20672 C 1906.33 3.60584 -0.0341843 0
M  V30 20673 O 1905.43 3.99831 1.01038 0
M  V30 20674 H 1904.77 0.658696 -0.083759 0
M  V30 20675 H 1907.3 1.85418 -0.864951 0
M  V30 20676 H 1907.31 4.07697 0.157123 0
M  V30 20677 H 1905.99 4.03833 -0.994583 0
M  V30 20678 H 1904.56 3.64353 0.793824 0
M  V30 20679 N 1906.75 0.369315 1.53212 0
M  V30 20680 C 1907.66 -0.483226 2.29569 0
M  V30 20681 C 1908.68 -1.08931 1.35684 0
M  V30 20682 O 1909.85 -1.09944 1.68743 0
M  V30 20683 C 1906.92 -1.60549 3.07286 0
M  V30 20684 C 1905.98 -1.02656 4.16846 0
M  V30 20685 C 1905.21 -2.09534 4.90847 0
M  V30 20686 O 1905.43 -3.30709 4.64745 0
M  V30 20687 O 1904.37 -1.72382 5.76687 0
M  V30 20688 H 1908.19 0.138246 3.03385 0
M  V30 20689 H 1905.78 0.133589 1.48802 0
M  V30 20690 H 1907.66 -2.25789 3.55805 0
M  V30 20691 H 1906.34 -2.21229 2.36303 0
M  V30 20692 H 1905.24 -0.337963 3.7257 0
M  V30 20693 H 1906.58 -0.464259 4.90006 0
M  V30 20694 N 1908.23 -1.57291 0.0985816 0
M  V30 20695 C 1909.18 -2.1545 -0.876584 0
M  V30 20696 C 1910.17 -1.09827 -1.28974 0
M  V30 20697 O 1911.38 -1.28166 -1.26386 0
M  V30 20698 H 1907.75 -0.689252 -0.300725 0
M  V30 20699 H 1909.72 -2.96204 -0.36139 0
M  V30 20700 C 1908.47 -2.75232 -2.12468 0
M  V30 20701 H 1907.79 -3.56194 -1.81565 0
M  V30 20702 H 1909.23 -3.19489 -2.78752 0
M  V30 20703 C 1907.69 -1.71298 -2.90101 0
M  V30 20704 O 1908.22 -1.15402 -3.84767 0
M  V30 20705 N 1906.43 -1.41709 -2.53706 0
M  V30 20706 H 1905.98 -1.87354 -1.76794 0
M  V30 20707 H 1905.93 -0.724072 -3.05949 0
M  V30 20708 N 1909.71 0.175127 -1.56624 0
M  V30 20709 C 1910.94 0.906725 -1.8564 0
M  V30 20710 C 1911.34 1.76502 -0.681433 0
M  V30 20711 O 1910.69 1.80163 0.358751 0
M  V30 20712 C 1910.75 1.83706 -3.09019 0
M  V30 20713 C 1910.41 1.15874 -4.42066 0
M  V30 20714 C 1911.41 0.526022 -5.17232 0
M  V30 20715 C 1909.09 1.15663 -4.88802 0
M  V30 20716 C 1911.09 -0.0997423 -6.37322 0
M  V30 20717 C 1908.78 0.527036 -6.08823 0
M  V30 20718 C 1909.77 -0.100049 -6.82927 0
M  V30 20719 O 1909.46 -0.719723 -8.00672 0
M  V30 20720 H 1909.19 0.269058 -0.620148 0
M  V30 20721 H 1911.75 0.181237 -2.04599 0
M  V30 20722 H 1909.98 2.60276 -2.85995 0
M  V30 20723 H 1911.67 2.43816 -3.24513 0
M  V30 20724 H 1912.43 0.519653 -4.82208 0
M  V30 20725 H 1908.31 1.63412 -4.31065 0
M  V30 20726 H 1911.86 -0.589806 -6.95102 0
M  V30 20727 H 1907.75 0.530975 -6.43312 0
M  V30 20728 H 1908.52 -0.618596 -8.16159 0
M  V30 20729 N 1911.18 1.5123 0.44355 0
M  V30 20730 C 1912.09 1.74928 1.56324 0
M  V30 20731 C 1913.11 0.633267 1.62067 0
M  V30 20732 O 1914.29 0.914808 1.79425 0
M  V30 20733 C 1911.35 1.86361 2.92354 0
M  V30 20734 C 1910.41 3.10196 2.96778 0
M  V30 20735 C 1909.64 3.21073 4.26319 0
M  V30 20736 O 1909.87 2.38043 5.18355 0
M  V30 20737 O 1908.8 4.14008 4.369 0
M  V30 20738 H 1912.63 2.69898 1.39243 0
M  V30 20739 H 1910.21 1.35656 0.62592 0
M  V30 20740 H 1912.09 1.95901 3.73096 0
M  V30 20741 H 1910.77 0.945775 3.09575 0
M  V30 20742 H 1909.68 3.06138 2.15013 0
M  V30 20743 H 1911.01 4.01648 2.84499 0
M  V30 20744 N 1912.66 -0.698586 1.41271 0
M  V30 20745 C 1913.91 -1.45573 1.40189 0
M  V30 20746 C 1914.23 -1.94997 0.0108379 0
M  V30 20747 O 1913.5 -1.715 -0.946822 0
M  V30 20748 H 1912.08 -0.540134 0.516008 0
M  V30 20749 H 1914.74 -0.827048 1.76482 0
M  V30 20750 H 1913.84 -2.32036 2.08724 0
M  V30 20751 N 1914.14 -1.27049 -0.93254 0
M  V30 20752 C 1915.37 -1.15903 -1.71389 0
M  V30 20753 C 1915.78 0.284726 -1.86641 0
M  V30 20754 O 1915.14 1.19428 -1.37997 0
M  V30 20755 C 1915.19 -1.83254 -3.11609 0
M  V30 20756 O 1914.91 -3.21988 -2.97078 0
M  V30 20757 C 1916.41 -1.78172 -4.05918 0
M  V30 20758 H 1913.63 -0.403197 -0.536352 0
M  V30 20759 H 1916.18 -1.67831 -1.16846 0
M  V30 20760 H 1914.33 -1.35243 -3.63026 0
M  V30 20761 H 1914.75 -3.55447 -3.85691 0
M  V30 20762 H 1916.22 -2.29919 -5.01838 0
M  V30 20763 H 1916.7 -0.750036 -4.32748 0
M  V30 20764 H 1917.3 -2.25774 -3.60425 0
M  V30 20765 N 1915.62 1.13835 -1.08993 0
M  V30 20766 C 1916.55 2.18164 -0.669297 0
M  V30 20767 C 1917.53 1.5938 0.321968 0
M  V30 20768 O 1918.71 1.8716 0.224402 0
M  V30 20769 C 1915.84 3.38697 0.0146637 0
M  V30 20770 C 1914.89 4.16064 -0.937701 0
M  V30 20771 S 1915.72 4.76297 -2.44748 0
M  V30 20772 C 1916.87 6.0018 -1.7758 0
M  V30 20773 H 1917.11 2.53507 -1.55311 0
M  V30 20774 H 1914.64 1.25062 -0.905481 0
M  V30 20775 H 1916.6 4.08517 0.402992 0
M  V30 20776 H 1915.26 3.01664 0.875062 0
M  V30 20777 H 1914.45 5.02361 -0.406139 0
M  V30 20778 H 1914.05 3.51877 -1.26722 0
M  V30 20779 H 1916.35 6.68556 -1.09724 0
M  V30 20780 H 1917.29 6.57936 -2.61774 0
M  V30 20781 H 1917.7 5.50563 -1.24661 0
M  V30 20782 N 1917.1 0.876467 1.3098 0
M  V30 20783 C 1918.37 0.411051 1.91232 0
M  V30 20784 C 1918.75 -1.10748 1.79717 0
M  V30 20785 O 1918.1 -1.93898 1.20896 0
M  V30 20786 C 1918.31 0.899663 3.37205 0
M  V30 20787 C 1919.66 0.929615 4.14299 0
M  V30 20788 O 1920.68 0.845752 3.46014 0
M  V30 20789 O 1919.54 1.05211 5.36277 0
M  V30 20790 H 1916.64 0.12418 0.817624 0
M  V30 20791 H 1919.18 0.964808 1.39605 0
M  V30 20792 H 1917.95 1.94336 3.39631 0
M  V30 20793 H 1917.58 0.324585 3.96273 0
M  V30 20794 N 1918.57 -1.44173 0.636557 0
M  V30 20795 C 1919.98 -1.8534 0.224954 0
M  V30 20796 C 1920.34 -1.53271 -1.22485 0
M  V30 20797 O 1919.46 -0.973441 -1.93269 0
M  V30 20798 C 1920.06 -3.36413 0.401492 0
M  V30 20799 C 1918.61 -3.76374 0.0443511 0
M  V30 20800 C 1917.76 -2.67995 0.712303 0
M  V30 20801 H 1920.71 -1.34562 0.841356 0
M  V30 20802 H 1920.73 -3.78812 -0.357965 0
M  V30 20803 H 1920.25 -3.59722 1.45677 0
M  V30 20804 H 1918.35 -3.58679 -1.00897 0
M  V30 20805 H 1918.46 -4.76904 0.458196 0
M  V30 20806 H 1916.82 -2.54275 0.147092 0
M  V30 20807 H 1917.61 -2.94136 1.77028 0
M  V30 20808 N 1920.05 -0.377435 -1.53014 0
M  V30 20809 C 1921.28 0.211512 -2.06319 0
M  V30 20810 C 1921.7 1.40713 -1.24825 0
M  V30 20811 O 1921.06 1.79274 -0.270279 0
M  V30 20812 C 1921.11 0.571512 -3.56042 0
M  V30 20813 O 1920.21 1.66713 -3.77201 0
M  V30 20814 H 1919.55 0.0279862 -0.66341 0
M  V30 20815 H 1922.08 -0.541471 -1.97305 0
M  V30 20816 H 1922.09 0.839182 -3.99277 0
M  V30 20817 H 1920.77 -0.302672 -4.14797 0
M  V30 20818 H 1919.34 1.3941 -3.4586 0
M  V30 20819 N 1921.53 1.57237 -0.106922 0
M  V30 20820 C 1922.46 2.11718 0.877968 0
M  V30 20821 C 1923.48 1.0571 1.23812 0
M  V30 20822 O 1924.66 1.3312 1.18917 0
M  V30 20823 C 1921.76 2.59182 2.18352 0
M  V30 20824 C 1920.94 3.89156 1.99691 0
M  V30 20825 C 1920 4.22344 3.13866 0
M  V30 20826 O 1919.02 4.91367 2.87309 0
M  V30 20827 N 1920.22 3.78694 4.39967 0
M  V30 20828 H 1922.99 2.96846 0.412584 0
M  V30 20829 H 1920.55 1.61713 0.0778505 0
M  V30 20830 H 1922.54 2.78423 2.93706 0
M  V30 20831 H 1921.11 1.78999 2.56277 0
M  V30 20832 H 1920.33 3.78945 1.086 0
M  V30 20833 H 1921.62 4.74165 1.84514 0
M  V30 20834 H 1921.02 3.23 4.64422 0
M  V30 20835 H 1919.58 4.03067 5.12231 0
M  V30 20836 N 1923.01 -0.166818 1.56715 0
M  V30 20837 C 1924.25 -0.884023 1.82518 0
M  V30 20838 C 1924.59 -1.817 0.685477 0
M  V30 20839 O 1923.86 -1.91977 -0.312277 0
M  V30 20840 C 1924.15 -1.67578 3.18731 0
M  V30 20841 C 1924 -0.765627 4.43236 0
M  V30 20842 C 1925.32 -2.64252 3.51936 0
M  V30 20843 H 1922.44 -0.319938 0.663934 0
M  V30 20844 H 1925.08 -0.150034 1.89407 0
M  V30 20845 H 1923.23 -2.30152 3.1299 0
M  V30 20846 H 1924.9 -0.152422 4.61048 0
M  V30 20847 H 1923.14 -0.0739497 4.33737 0
M  V30 20848 H 1923.81 -1.35523 5.35105 0
M  V30 20849 H 1926.29 -2.11804 3.5816 0
M  V30 20850 H 1925.17 -3.16714 4.48312 0
M  V30 20851 H 1925.43 -3.44667 2.7687 0
M  V30 20852 N 1924.49 -1.51463 -0.435524 0
M  V30 20853 C 1925.9 -1.56678 -1.01533 0
M  V30 20854 C 1926.25 -0.391337 -1.92258 0
M  V30 20855 O 1925.37 0.491647 -2.10741 0
M  V30 20856 C 1925.97 -2.83951 -1.84817 0
M  V30 20857 C 1924.53 -2.91731 -2.37844 0
M  V30 20858 C 1923.67 -2.51359 -1.17106 0
M  V30 20859 H 1926.63 -1.57213 -0.216726 0
M  V30 20860 H 1926.65 -2.67815 -2.70287 0
M  V30 20861 H 1926.16 -3.69483 -1.1876 0
M  V30 20862 H 1924.26 -2.10633 -3.07351 0
M  V30 20863 H 1924.37 -3.95421 -2.70517 0
M  V30 20864 H 1922.74 -2.04599 -1.51695 0
M  V30 20865 H 1923.52 -3.39238 -0.526566 0
M  V30 20866 N 1925.96 0.691085 -1.4164 0
M  V30 20867 C 1926.87 1.83467 -1.46209 0
M  V30 20868 C 1927.89 1.70397 -0.352267 0
M  V30 20869 O 1929.07 1.92234 -0.60068 0
M  V30 20870 C 1926.13 3.19485 -1.34648 0
M  V30 20871 C 1925.19 3.44631 -2.55984 0
M  V30 20872 C 1924.43 4.7416 -2.44964 0
M  V30 20873 O 1924.65 5.50955 -1.47664 0
M  V30 20874 O 1923.58 5.0019 -3.34804 0
M  V30 20875 H 1927.41 1.82568 -2.42698 0
M  V30 20876 H 1924.99 0.844729 -1.23226 0
M  V30 20877 H 1926.88 4.00684 -1.30501 0
M  V30 20878 H 1925.55 3.21058 -0.41276 0
M  V30 20879 H 1924.46 2.63345 -2.65707 0
M  V30 20880 H 1925.79 3.47877 -3.48199 0
M  V30 20881 N 1927.44 1.27542 0.925789 0
M  V30 20882 C 1928.39 1.07085 2.01288 0
M  V30 20883 C 1929.38 -0.0017417 1.609 0
M  V30 20884 O 1930.57 0.217017 1.75665 0
M  V30 20885 C 1927.7 0.72208 3.3562 0
M  V30 20886 C 1926.78 1.83291 3.82446 0
M  V30 20887 N 1927.17 3.07277 4.01764 0
M  V30 20888 C 1925.47 1.72002 4.11499 0
M  V30 20889 C 1926.17 3.79576 4.40791 0
M  V30 20890 N 1925.15 3.07351 4.48371 0
M  V30 20891 H 1928.95 2.01175 2.14257 0
M  V30 20892 H 1926.47 1.18285 1.11277 0
M  V30 20893 H 1928.46 0.556635 4.13167 0
M  V30 20894 H 1927.12 -0.211174 3.24013 0
M  V30 20895 H 1928.13 3.43018 3.88019 0
M  V30 20896 H 1924.81 0.857729 4.08594 0
M  V30 20897 H 1926.2 4.86147 4.63801 0
M  V30 20898 N 1928.92 -1.13255 1.09595 0
M  V30 20899 C 1930.17 -1.85055 0.844167 0
M  V30 20900 C 1930.52 -1.82017 -0.623506 0
M  V30 20901 O 1929.81 -1.24858 -1.45331 0
M  V30 20902 C 1930.01 -3.32304 1.31562 0
M  V30 20903 C 1929.84 -3.49682 2.82759 0
M  V30 20904 C 1928.61 -3.63823 3.50658 0
M  V30 20905 C 1930.81 -3.45578 3.80894 0
M  V30 20906 N 1928.79 -3.69479 4.90264 0
M  V30 20907 C 1930.16 -3.57624 5.06463 0
M  V30 20908 C 1932.21 -3.28989 3.73725 0
M  V30 20909 C 1930.92 -3.54795 6.2571 0
M  V30 20910 C 1932.94 -3.27469 4.92461 0
M  V30 20911 C 1932.3 -3.40068 6.16874 0
M  V30 20912 H 1928.4 -0.693278 0.361787 0
M  V30 20913 H 1930.99 -1.35652 1.39666 0
M  V30 20914 H 1929.16 -3.80269 0.790555 0
M  V30 20915 H 1930.89 -3.9192 1.00898 0
M  V30 20916 H 1927.65 -3.65571 3.01089 0
M  V30 20917 H 1928.07 -3.75994 5.6299 0
M  V30 20918 H 1932.71 -3.18149 2.78462 0
M  V30 20919 H 1930.43 -3.64408 7.21272 0
M  V30 20920 H 1934.02 -3.15828 4.88614 0
M  V30 20921 H 1932.9 -3.38855 7.07211 0
M  V30 20922 N 1930.4 -0.883401 -1.30514 0
M  V30 20923 C 1931.81 -0.55179 -1.7836 0
M  V30 20924 C 1932.16 0.93196 -1.72653 0
M  V30 20925 O 1931.29 1.72818 -1.30242 0
M  V30 20926 C 1931.88 -0.994845 -3.23865 0
M  V30 20927 C 1930.44 -0.714672 -3.69553 0
M  V30 20928 C 1929.59 -1.1787 -2.51002 0
M  V30 20929 H 1932.54 -1.06778 -1.17406 0
M  V30 20930 H 1932.56 -0.32315 -3.79125 0
M  V30 20931 H 1932.07 -2.07477 -3.27986 0
M  V30 20932 H 1930.17 0.353326 -3.70921 0
M  V30 20933 H 1930.28 -1.30112 -4.61094 0
M  V30 20934 H 1928.65 -0.598079 -2.47578 0
M  V30 20935 H 1929.43 -2.26633 -2.57862 0
M  V30 20936 N 1931.88 1.43833 -0.644194 0
M  V30 20937 C 1932.81 2.29017 0.0914574 0
M  V30 20938 C 1933.82 1.4201 0.79605 0
M  V30 20939 O 1935.01 1.66036 0.655313 0
M  V30 20940 C 1932.11 3.18711 1.15225 0
M  V30 20941 C 1931.28 4.34206 0.527588 0
M  V30 20942 C 1930.34 5.04839 1.48406 0
M  V30 20943 O 1929.37 5.60416 0.996143 0
M  V30 20944 N 1930.57 5.075 2.81822 0
M  V30 20945 H 1933.34 2.92794 -0.639656 0
M  V30 20946 H 1930.9 1.54424 -0.486308 0
M  V30 20947 H 1932.89 3.62827 1.79272 0
M  V30 20948 H 1931.46 2.56595 1.78543 0
M  V30 20949 H 1930.68 3.93119 -0.291782 0
M  V30 20950 H 1931.97 5.08718 0.091139 0
M  V30 20951 H 1931.36 4.63703 3.24031 0
M  V30 20952 H 1929.92 5.55364 3.41195 0
M  V30 20953 N 1933.35 0.385544 1.52811 0
M  V30 20954 C 1934.26 -0.45885 2.30069 0
M  V30 20955 C 1935.28 -1.07486 1.36831 0
M  V30 20956 O 1936.46 -1.08148 1.699 0
M  V30 20957 C 1933.52 -1.57281 3.08972 0
M  V30 20958 C 1932.58 -0.98229 4.17911 0
M  V30 20959 C 1931.82 -2.04316 4.93042 0
M  V30 20960 O 1932.04 -3.25761 4.68226 0
M  V30 20961 O 1930.97 -1.66256 5.78483 0
M  V30 20962 H 1934.8 0.170416 3.03221 0
M  V30 20963 H 1932.38 0.149363 1.48651 0
M  V30 20964 H 1934.27 -2.22003 3.5818 0
M  V30 20965 H 1932.94 -2.18711 2.38637 0
M  V30 20966 H 1931.85 -0.298428 3.72908 0
M  V30 20967 H 1933.18 -0.412261 4.9047 0
M  V30 20968 N 1934.83 -1.57178 0.115259 0
M  V30 20969 C 1936.08 -1.94681 -0.542571 0
M  V30 20970 C 1936.4 -0.999211 -1.67454 0
M  V30 20971 O 1935.67 -0.054836 -1.95823 0
M  V30 20972 H 1934.25 -0.718769 -0.203421 0
M  V30 20973 H 1936.91 -1.94036 0.183323 0
M  V30 20974 H 1936.01 -2.9762 -0.939599 0
M  V30 20975 N 1936.31 0.158505 -1.56801 0
M  V30 20976 C 1937.22 1.2157 -2.00644 0
M  V30 20977 C 1938.24 1.47694 -0.919914 0
M  V30 20978 O 1939.41 1.59591 -1.22853 0
M  V30 20979 C 1936.48 2.53191 -2.36844 0
M  V30 20980 C 1935.54 2.34816 -3.59389 0
M  V30 20981 C 1934.77 3.60161 -3.93853 0
M  V30 20982 O 1935 4.65871 -3.29121 0
M  V30 20983 O 1933.93 3.53508 -4.8715 0
M  V30 20984 H 1937.76 0.873512 -2.90867 0
M  V30 20985 H 1935.34 0.366356 -1.44839 0
M  V30 20986 H 1937.22 3.30812 -2.6104 0
M  V30 20987 H 1935.9 2.86963 -1.4978 0
M  V30 20988 H 1934.8 1.55184 -3.40395 0
M  V30 20989 H 1936.14 2.05964 -4.47034 0
M  V30 20990 N 1937.79 1.51692 0.427485 0
M  V30 20991 C 1939.04 1.64079 1.17308 0
M  V30 20992 C 1939.35 0.367695 1.92113 0
M  V30 20993 O 1940.56 0.371083 2.68952 0
M  V30 20994 C 1939.01 2.89812 2.13394 0
M  V30 20995 C 1938.62 4.24161 1.44191 0
M  V30 20996 C 1940.37 3.11559 2.88325 0
M  V30 20997 C 1938.27 5.41036 2.38819 0
M  V30 20998 H 1937.2 0.611162 0.441584 0
M  V30 20999 H 1939.85 1.78167 0.439193 0
M  V30 21000 H 1938.24 2.6938 2.90259 0
M  V30 21001 H 1939.41 4.5501 0.72817 0
M  V30 21002 H 1937.72 4.08371 0.813739 0
M  V30 21003 H 1940.32 3.96051 3.59232 0
M  V30 21004 H 1940.66 2.25037 3.50234 0
M  V30 21005 H 1941.2 3.32376 2.18565 0
M  V30 21006 H 1937.94 6.29847 1.81585 0
M  V30 21007 H 1937.46 5.1455 3.08218 0
M  V30 21008 H 1939.14 5.73381 2.9974 0
M  V30 21009 N 1939.27 -0.683564 1.42004 0
M  V30 21010 C 1940.21 -1.7973 1.44796 0
M  V30 21011 C 1941.18 -1.63352 0.300905 0
M  V30 21012 O 1942.37 -1.84031 0.503707 0
M  V30 21013 C 1939.51 -3.17701 1.34758 0
M  V30 21014 C 1938.62 -3.45428 2.59429 0
M  V30 21015 C 1937.76 -4.73079 2.41598 0
M  V30 21016 C 1936.8 -4.93812 3.61685 0
M  V30 21017 N 1935.93 -6.12698 3.4285 0
M  V30 21018 H 1940.77 -1.76679 2.39976 0
M  V30 21019 H 1938.31 -0.862624 1.19152 0
M  V30 21020 H 1940.27 -3.9742 1.26938 0
M  V30 21021 H 1938.9 -3.19899 0.431785 0
M  V30 21022 H 1937.95 -2.60027 2.77651 0
M  V30 21023 H 1939.26 -3.56645 3.48721 0
M  V30 21024 H 1938.42 -5.60873 2.31314 0
M  V30 21025 H 1937.16 -4.6413 1.49782 0
M  V30 21026 H 1936.16 -4.04463 3.72411 0
M  V30 21027 H 1937.39 -5.04612 4.5447 0
M  V30 21028 H 1935.33 -6.04938 2.53744 0
M  V30 21029 H 1935.25 -6.24736 4.25724 0
M  V30 21030 H 1936.52 -7.03194 3.36361 0
M  V30 21031 N 1940.75 -1.28031 -0.919012 0
M  V30 21032 C 1941.99 -1.14258 -1.66217 0
M  V30 21033 C 1942.31 0.309269 -1.9314 0
M  V30 21034 O 1943.51 0.568038 -2.65491 0
M  V30 21035 C 1941.97 -1.99702 -2.99411 0
M  V30 21036 C 1941.58 -3.49596 -2.80155 0
M  V30 21037 C 1943.32 -1.94601 -3.77267 0
M  V30 21038 C 1941.23 -4.27209 -4.08958 0
M  V30 21039 H 1940.16 -0.424009 -0.623484 0
M  V30 21040 H 1942.81 -1.52521 -1.02028 0
M  V30 21041 H 1941.19 -1.5429 -3.64706 0
M  V30 21042 H 1942.37 -4.02929 -2.23574 0
M  V30 21043 H 1940.68 -3.56167 -2.15718 0
M  V30 21044 H 1943.28 -2.49859 -4.72731 0
M  V30 21045 H 1943.62 -0.92157 -4.05971 0
M  V30 21046 H 1944.15 -2.37954 -3.18783 0
M  V30 21047 H 1940.89 -5.30212 -3.8543 0
M  V30 21048 H 1940.41 -3.7865 -4.65171 0
M  V30 21049 H 1942.09 -4.36847 -4.77256 0
M  V30 21050 N 1942.22 1.12672 -1.10194 0
M  V30 21051 C 1943.17 2.16406 -0.717811 0
M  V30 21052 C 1944.16 1.58588 0.271775 0
M  V30 21053 O 1945.35 1.76815 0.0809013 0
M  V30 21054 C 1942.48 3.42979 -0.148524 0
M  V30 21055 C 1941.56 4.07785 -1.165 0
M  V30 21056 N 1941.96 4.47639 -2.35485 0
M  V30 21057 C 1940.25 4.3453 -1.00495 0
M  V30 21058 C 1940.95 4.98247 -3.00208 0
M  V30 21059 N 1939.93 4.93596 -2.27736 0
M  V30 21060 H 1943.73 2.44983 -1.62359 0
M  V30 21061 H 1941.25 1.29551 -0.979299 0
M  V30 21062 H 1943.24 4.16649 0.144731 0
M  V30 21063 H 1941.9 3.15872 0.752008 0
M  V30 21064 H 1942.91 4.40088 -2.73026 0
M  V30 21065 H 1939.59 4.17194 -0.159768 0
M  V30 21066 H 1940.98 5.38817 -4.01405 0
M  V30 21067 N 1943.7 0.89031 1.30043 0
M  V30 21068 C 1944.98 0.43131 1.90785 0
M  V30 21069 C 1945.36 -1.08836 1.80881 0
M  V30 21070 O 1944.71 -1.92605 1.22946 0
M  V30 21071 C 1944.92 0.935377 3.36232 0
M  V30 21072 C 1946.26 0.973504 4.13289 0
M  V30 21073 O 1947.29 0.882404 3.45097 0
M  V30 21074 O 1946.15 1.10893 5.35131 0
M  V30 21075 H 1943.24 0.132845 0.816261 0
M  V30 21076 H 1945.79 0.979561 1.38574 0
M  V30 21077 H 1944.56 1.97928 3.3755 0
M  V30 21078 H 1944.18 0.366596 3.95906 0
M  V30 21079 N 1945.18 -1.43489 0.651812 0
M  V30 21080 C 1946.11 -2.33484 -0.0271093 0
M  V30 21081 C 1947.09 -1.4939 -0.813427 0
M  V30 21082 O 1948.28 -1.78058 -0.775186 0
M  V30 21083 C 1945.41 -3.32737 -0.995143 0
M  V30 21084 C 1944.36 -4.26809 -0.319036 0
M  V30 21085 C 1943.69 -5.1609 -1.39842 0
M  V30 21086 C 1944.99 -5.16326 0.787692 0
M  V30 21087 H 1946.68 -2.90503 0.724441 0
M  V30 21088 H 1944.23 -1.39686 0.349826 0
M  V30 21089 H 1946.18 -3.94593 -1.479 0
M  V30 21090 H 1944.9 -2.73972 -1.77784 0
M  V30 21091 H 1943.56 -3.66316 0.144366 0
M  V30 21092 H 1943.21 -4.53664 -2.17251 0
M  V30 21093 H 1942.91 -5.79848 -0.951292 0
M  V30 21094 H 1944.43 -5.80819 -1.88367 0
M  V30 21095 H 1945.85 -5.71999 0.386053 0
M  V30 21096 H 1944.24 -5.88798 1.1592 0
M  V30 21097 H 1945.31 -4.56099 1.64626 0
M  V30 21098 N 1946.66 -0.393643 -1.52605 0
M  V30 21099 C 1947.9 0.186875 -2.03544 0
M  V30 21100 C 1948.26 1.43681 -1.27357 0
M  V30 21101 O 1949.46 2.09477 -1.68443 0
M  V30 21102 C 1947.73 0.444006 -3.54631 0
M  V30 21103 S 1949.29 0.994186 -4.27389 0
M  V30 21104 H 1946.11 0.0522497 -0.709078 0
M  V30 21105 H 1948.71 -0.542992 -1.87808 0
M  V30 21106 H 1947.42 -0.472739 -4.07668 0
M  V30 21107 H 1946.95 1.20218 -3.74581 0
M  V30 21108 H 1948.96 2.27617 -4.40914 0
M  V30 21109 N 1948.14 1.57115 -0.123593 0
M  V30 21110 C 1949.38 1.95641 0.534082 0
M  V30 21111 C 1949.71 1.00726 1.66036 0
M  V30 21112 O 1948.99 0.045312 1.94447 0
M  V30 21113 C 1949.27 3.4407 1.06244 0
M  V30 21114 C 1949.13 4.49759 -0.0607321 0
M  V30 21115 C 1950.44 3.94451 1.95183 0
M  V30 21116 H 1947.56 0.71137 0.19267 0
M  V30 21117 H 1950.21 1.88944 -0.200083 0
M  V30 21118 H 1948.36 3.49909 1.68808 0
M  V30 21119 H 1950.03 4.56016 -0.69621 0
M  V30 21120 H 1948.27 4.27729 -0.723232 0
M  V30 21121 H 1948.94 5.50888 0.350271 0
M  V30 21122 H 1951.42 3.90945 1.42483 0
M  V30 21123 H 1950.29 4.98817 2.29069 0
M  V30 21124 H 1950.55 3.35417 2.88007 0
M  V30 21125 N 1949.61 -0.150187 1.56883 0
M  V30 21126 C 1951.03 -0.502717 1.51476 0
M  V30 21127 C 1951.23 -1.83545 0.831478 0
M  V30 21128 O 1950.29 -2.49301 0.400671 0
M  V30 21129 C 1951.6 -0.515965 2.9624 0
M  V30 21130 C 1953.15 -0.601702 3.07162 0
M  V30 21131 C 1953.62 -0.645643 4.53426 0
M  V30 21132 N 1955.11 -0.707954 4.57758 0
M  V30 21133 C 1955.85 -0.762883 5.68302 0
M  V30 21134 N 1955.34 -0.777353 6.88425 0
M  V30 21135 N 1957.14 -0.803521 5.56327 0
M  V30 21136 H 1949.29 0.723442 1.997 0
M  V30 21137 H 1951.55 0.263405 0.910671 0
M  V30 21138 H 1951.26 0.395034 3.49474 0
M  V30 21139 H 1951.13 -1.35501 3.52022 0
M  V30 21140 H 1953.52 -1.50312 2.53949 0
M  V30 21141 H 1953.6 0.26443 2.5443 0
M  V30 21142 H 1953.24 0.251606 5.07276 0
M  V30 21143 H 1953.17 -1.52822 5.03937 0
M  V30 21144 H 1955.66 -0.7042 3.71281 0
M  V30 21145 H 1955.98 -0.821026 7.68426 0
M  V30 21146 H 1954.32 -0.745281 6.90992 0
M  V30 21147 H 1957.51 -0.789365 4.61396 0
M  V30 21148 H 1957.69 -0.842864 6.42495 0
M  V30 21149 N 1951.09 -1.51916 -0.419434 0
M  V30 21150 C 1952.32 -1.69057 -1.18758 0
M  V30 21151 C 1952.73 -0.395167 -1.85027 0
M  V30 21152 O 1952.07 0.637815 -1.72272 0
M  V30 21153 C 1952.14 -2.76257 -2.30049 0
M  V30 21154 C 1951.8 -4.18321 -1.84001 0
M  V30 21155 C 1952.8 -5.02508 -1.33347 0
M  V30 21156 C 1950.48 -4.64508 -1.91147 0
M  V30 21157 C 1952.48 -6.3095 -0.904498 0
M  V30 21158 C 1950.16 -5.92942 -1.47861 0
M  V30 21159 C 1951.16 -6.75991 -0.975967 0
M  V30 21160 O 1950.85 -8.02021 -0.549318 0
M  V30 21161 H 1950.58 -0.570077 -0.363302 0
M  V30 21162 H 1953.13 -1.99197 -0.50097 0
M  V30 21163 H 1951.36 -2.4147 -3.02042 0
M  V30 21164 H 1953.05 -2.82098 -2.91848 0
M  V30 21165 H 1953.82 -4.68021 -1.27206 0
M  V30 21166 H 1949.7 -3.99976 -2.29216 0
M  V30 21167 H 1953.24 -6.95722 -0.511474 0
M  V30 21168 H 1949.14 -6.2694 -1.53678 0
M  V30 21169 H 1949.91 -8.15724 -0.673558 0
M  V30 21170 N 1952.57 0.676023 -1.42365 0
M  V30 21171 C 1953.48 1.81906 -1.48147 0
M  V30 21172 C 1954.5 1.70014 -0.37032 0
M  V30 21173 O 1955.67 1.91586 -0.621036 0
M  V30 21174 C 1952.74 3.18039 -1.38029 0
M  V30 21175 C 1951.8 3.41897 -2.59625 0
M  V30 21176 C 1951.03 4.71536 -2.4998 0
M  V30 21177 O 1951.25 5.49358 -1.535 0
M  V30 21178 O 1950.19 4.9661 -3.40091 0
M  V30 21179 H 1954.01 1.79984 -2.44621 0
M  V30 21180 H 1951.6 0.831611 -1.24115 0
M  V30 21181 H 1953.48 3.99277 -1.34743 0
M  V30 21182 H 1952.16 3.20602 -0.446789 0
M  V30 21183 H 1951.06 2.60512 -2.68485 0
M  V30 21184 H 1952.4 3.44164 -3.51869 0
M  V30 21185 N 1954.05 1.28517 0.912209 0
M  V30 21186 C 1955 1.12437 2.03619 0
M  V30 21187 C 1955.99 0.0432331 1.69345 0
M  V30 21188 O 1957.2 0.202116 1.78862 0
M  V30 21189 H 1953.57 0.34694 0.667185 0
M  V30 21190 H 1955.54 2.07625 2.14323 0
M  V30 21191 C 1954.29 0.804603 3.38262 0
M  V30 21192 H 1953.61 1.62849 3.65131 0
M  V30 21193 H 1955.05 0.732055 4.17633 0
M  V30 21194 C 1953.51 -0.491715 3.33292 0
M  V30 21195 O 1954.04 -1.52155 3.71768 0
M  V30 21196 N 1952.25 -0.493007 2.86388 0
M  V30 21197 H 1951.8 0.34549 2.55273 0
M  V30 21198 H 1951.75 -1.36038 2.83445 0
M  V30 21199 N 1955.53 -1.12086 1.1079 0
M  V30 21200 C 1956.47 -2.20006 0.755001 0
M  V30 21201 C 1957.47 -1.67538 -0.250501 0
M  V30 21202 O 1958.67 -1.79661 -0.110486 0
M  V30 21203 H 1955.05 -0.717162 0.226237 0
M  V30 21204 H 1957.02 -2.47022 1.67399 0
M  V30 21205 C 1955.77 -3.47083 0.207038 0
M  V30 21206 H 1955.09 -3.87805 0.971991 0
M  V30 21207 H 1956.53 -4.24 -0.00177915 0
M  V30 21208 C 1954.99 -3.19753 -1.06112 0
M  V30 21209 O 1955.52 -3.39825 -2.142 0
M  V30 21210 N 1953.73 -2.73534 -0.981212 0
M  V30 21211 H 1953.27 -2.574 -0.101519 0
M  V30 21212 H 1953.23 -2.55624 -1.83041 0
M  V30 21213 N 1957 -0.897194 -1.29569 0
M  V30 21214 C 1957.93 -0.389601 -2.30227 0
M  V30 21215 C 1958.92 0.53405 -1.61499 0
M  V30 21216 O 1960.1 0.44531 -1.89025 0
M  V30 21217 C 1957.23 0.385966 -3.45149 0
M  V30 21218 C 1956.18 -0.447028 -4.25659 0
M  V30 21219 C 1955.51 0.455883 -5.32753 0
M  V30 21220 C 1956.81 -1.69562 -4.9401 0
M  V30 21221 H 1958.5 -1.23077 -2.72933 0
M  V30 21222 H 1956.05 -0.593265 -1.31211 0
M  V30 21223 H 1958 0.751791 -4.1464 0
M  V30 21224 H 1956.73 1.26089 -3.01279 0
M  V30 21225 H 1955.39 -0.795152 -3.57873 0
M  V30 21226 H 1955.03 1.32887 -4.85129 0
M  V30 21227 H 1954.73 -0.0977528 -5.87519 0
M  V30 21228 H 1956.26 0.817956 -6.05097 0
M  V30 21229 H 1957.67 -1.39968 -5.55951 0
M  V30 21230 H 1956.07 -2.19039 -5.58697 0
M  V30 21231 H 1957.14 -2.43305 -4.19441 0
M  V30 21232 N 1958.48 1.43142 -0.659413 0
M  V30 21233 C 1959.43 2.30783 0.0284037 0
M  V30 21234 C 1960.4 1.451 0.808407 0
M  V30 21235 O 1961.58 1.73959 0.783764 0
M  V30 21236 C 1958.72 3.30758 0.984529 0
M  V30 21237 C 1957.84 4.31537 0.199975 0
M  V30 21238 C 1956.97 5.18592 1.15046 0
M  V30 21239 C 1956.01 6.1106 0.356695 0
M  V30 21240 N 1955.15 6.90718 1.25909 0
M  V30 21241 H 1959.99 2.89051 -0.724821 0
M  V30 21242 H 1957.53 1.42392 -0.369192 0
M  V30 21243 H 1959.48 3.87236 1.55254 0
M  V30 21244 H 1958.11 2.74125 1.70456 0
M  V30 21245 H 1957.17 3.77303 -0.484425 0
M  V30 21246 H 1958.48 4.97054 -0.416974 0
M  V30 21247 H 1957.63 5.79727 1.7889 0
M  V30 21248 H 1956.37 4.53215 1.80131 0
M  V30 21249 H 1955.38 5.49008 -0.295063 0
M  V30 21250 H 1956.6 6.78481 -0.28984 0
M  V30 21251 H 1954.55 6.27984 1.89662 0
M  V30 21252 H 1954.46 7.52782 0.69685 0
M  V30 21253 H 1955.73 7.56353 1.88549 0
M  V30 21254 N 1959.96 0.40173 1.52394 0
M  V30 21255 C 1961.37 -0.0695308 1.8657 0
M  V30 21256 C 1961.72 -1.4508 1.32084 0
M  V30 21257 O 1960.85 -2.06181 0.657149 0
M  V30 21258 C 1961.44 -0.132947 3.38539 0
M  V30 21259 C 1960 -0.548527 3.72382 0
M  V30 21260 C 1959.15 0.281664 2.75866 0
M  V30 21261 H 1962.1 0.619102 1.46126 0
M  V30 21262 H 1962.12 -0.949667 3.68458 0
M  V30 21263 H 1961.63 0.872493 3.78166 0
M  V30 21264 H 1959.73 -1.56088 3.3833 0
M  V30 21265 H 1959.85 -0.29805 4.78172 0
M  V30 21266 H 1958.21 -0.254911 2.53421 0
M  V30 21267 H 1958.99 1.28531 3.18331 0
M  V30 21268 N 1961.44 -1.57047 0.131923 0
M  V30 21269 C 1962.68 -1.95921 -0.5237 0
M  V30 21270 C 1963.02 -1.01606 -1.65499 0
M  V30 21271 O 1962.29 -0.0556233 -1.9442 0
M  V30 21272 C 1962.58 -3.44629 -1.04418 0
M  V30 21273 C 1962.43 -4.4972 0.084583 0
M  V30 21274 C 1963.75 -3.9548 -1.93089 0
M  V30 21275 H 1960.87 -0.712382 -0.188894 0
M  V30 21276 H 1963.51 -1.88835 0.2101 0
M  V30 21277 H 1961.66 -3.50799 -1.6695 0
M  V30 21278 H 1963.33 -4.5564 0.720384 0
M  V30 21279 H 1961.57 -4.27339 0.745906 0
M  V30 21280 H 1962.24 -5.51066 -0.321051 0
M  V30 21281 H 1964.72 -3.91695 -1.40408 0
M  V30 21282 H 1963.6 -5.00025 -2.2642 0
M  V30 21283 H 1963.86 -3.36939 -2.86224 0
M  V30 21284 N 1962.92 0.141865 -1.5696 0
M  V30 21285 C 1963.85 1.17667 -2.01685 0
M  V30 21286 C 1964.83 1.44509 -0.897282 0
M  V30 21287 O 1966.01 1.55342 -1.16544 0
M  V30 21288 C 1963.14 2.50859 -2.40182 0
M  V30 21289 C 1962.1 2.38527 -3.55371 0
M  V30 21290 C 1961.42 3.76476 -3.79697 0
M  V30 21291 C 1962.72 1.86502 -4.87867 0
M  V30 21292 H 1964.42 0.804761 -2.88382 0
M  V30 21293 H 1961.96 0.385672 -1.38739 0
M  V30 21294 H 1963.92 3.2348 -2.70071 0
M  V30 21295 H 1962.64 2.89895 -1.50428 0
M  V30 21296 H 1961.3 1.68357 -3.25656 0
M  V30 21297 H 1960.95 4.12957 -2.87186 0
M  V30 21298 H 1960.65 3.69085 -4.5722 0
M  V30 21299 H 1962.17 4.50638 -4.12017 0
M  V30 21300 H 1963.58 2.48921 -5.16441 0
M  V30 21301 H 1961.98 1.89989 -5.69231 0
M  V30 21302 H 1963.05 0.821025 -4.77899 0
M  V30 21303 N 1964.39 1.52136 0.411372 0
M  V30 21304 C 1965.34 1.75318 1.50107 0
M  V30 21305 C 1966.31 0.595552 1.55056 0
M  V30 21306 O 1967.5 0.832859 1.71663 0
M  V30 21307 C 1964.64 1.9077 2.87578 0
M  V30 21308 C 1963.75 3.18411 2.91956 0
M  V30 21309 C 1962.88 3.24307 4.20712 0
M  V30 21310 C 1961.92 4.4616 4.19056 0
M  V30 21311 N 1961.06 4.49461 5.39379 0
M  V30 21312 H 1965.9 2.68323 1.29642 0
M  V30 21313 H 1963.44 1.32958 0.629326 0
M  V30 21314 H 1965.4 1.97711 3.67377 0
M  V30 21315 H 1964.03 1.01148 3.06543 0
M  V30 21316 H 1963.08 3.20652 2.04661 0
M  V30 21317 H 1964.39 4.08245 2.86597 0
M  V30 21318 H 1963.54 3.30308 5.08902 0
M  V30 21319 H 1962.28 2.32408 4.28763 0
M  V30 21320 H 1961.29 4.40308 3.29255 0
M  V30 21321 H 1962.51 5.39351 4.12646 0
M  V30 21322 H 1960.46 3.60444 5.48102 0
M  V30 21323 H 1960.38 5.33136 5.36005 0
M  V30 21324 H 1961.64 4.59688 6.29529 0
M  V30 21325 N 1965.87 -0.668464 1.42721 0
M  V30 21326 C 1966.82 -1.77463 1.43147 0
M  V30 21327 C 1967.81 -1.58042 0.301932 0
M  V30 21328 O 1969 -1.68413 0.544623 0
M  V30 21329 C 1966.13 -3.15963 1.34247 0
M  V30 21330 C 1965.21 -3.40985 2.52171 0
M  V30 21331 N 1965.61 -3.36558 3.77575 0
M  V30 21332 C 1963.9 -3.71646 2.46568 0
M  V30 21333 C 1964.6 -3.61239 4.5594 0
M  V30 21334 N 1963.58 -3.82312 3.86443 0
M  V30 21335 H 1967.38 -1.72442 2.37993 0
M  V30 21336 H 1964.9 -0.86955 1.37159 0
M  V30 21337 H 1966.89 -3.95239 1.32634 0
M  V30 21338 H 1965.55 -3.22176 0.404081 0
M  V30 21339 H 1966.56 -3.16315 4.1008 0
M  V30 21340 H 1963.24 -3.85066 1.6134 0
M  V30 21341 H 1964.63 -3.63724 5.64938 0
M  V30 21342 N 1967.35 -1.28999 -0.905381 0
M  V30 21343 C 1968.6 -1.16813 -1.65779 0
M  V30 21344 C 1968.93 0.280936 -1.92157 0
M  V30 21345 O 1968.21 1.2035 -1.52794 0
M  V30 21346 C 1968.49 -1.97593 -3.01047 0
M  V30 21347 C 1968.34 -3.50608 -2.8177 0
M  V30 21348 C 1969.66 -1.79788 -4.01702 0
M  V30 21349 H 1966.78 -0.425716 -0.60161 0
M  V30 21350 H 1969.42 -1.58409 -1.04913 0
M  V30 21351 H 1967.57 -1.62246 -3.52999 0
M  V30 21352 H 1969.24 -3.95905 -2.36763 0
M  V30 21353 H 1967.49 -3.75818 -2.16663 0
M  V30 21354 H 1968.16 -4.02396 -3.77865 0
M  V30 21355 H 1970.63 -2.10649 -3.5884 0
M  V30 21356 H 1969.51 -2.38667 -4.94297 0
M  V30 21357 H 1969.77 -0.75156 -4.35665 0
M  V30 21358 N 1968.83 1.11497 -1.11383 0
M  V30 21359 C 1969.78 2.1752 -0.771611 0
M  V30 21360 C 1970.75 1.64106 0.256616 0
M  V30 21361 O 1971.93 1.90331 0.133672 0
M  V30 21362 C 1969.07 3.44396 -0.220313 0
M  V30 21363 C 1968.18 4.11817 -1.30503 0
M  V30 21364 C 1967.32 5.26375 -0.714331 0
M  V30 21365 C 1966.36 5.85679 -1.77894 0
M  V30 21366 N 1965.5 6.91634 -1.20778 0
M  V30 21367 H 1970.34 2.46138 -1.67989 0
M  V30 21368 H 1967.87 1.20832 -0.838927 0
M  V30 21369 H 1969.83 4.17035 0.117286 0
M  V30 21370 H 1968.46 3.16164 0.651161 0
M  V30 21371 H 1967.51 3.37258 -1.75959 0
M  V30 21372 H 1968.82 4.5195 -2.11051 0
M  V30 21373 H 1967.98 6.05819 -0.326754 0
M  V30 21374 H 1966.72 4.87546 0.12248 0
M  V30 21375 H 1965.72 5.04914 -2.17583 0
M  V30 21376 H 1966.95 6.26576 -2.61877 0
M  V30 21377 H 1964.89 6.54824 -0.392602 0
M  V30 21378 H 1964.81 7.30419 -1.94998 0
M  V30 21379 H 1966.08 7.74884 -0.847072 0
M  V30 21380 N 1970.31 0.904053 1.29092 0
M  V30 21381 C 1971.27 0.389889 2.25859 0
M  V30 21382 C 1972.27 -0.47836 1.5352 0
M  V30 21383 O 1973.46 -0.282793 1.71889 0
M  V30 21384 C 1970.59 -0.442126 3.38021 0
M  V30 21385 H 1971.79 1.24458 2.72856 0
M  V30 21386 H 1969.34 0.68258 1.40608 0
M  V30 21387 H 1970.07 -1.31662 2.96371 0
M  V30 21388 H 1969.86 0.180067 3.91686 0
M  V30 21389 H 1971.35 -0.793021 4.10001 0
M  V30 21390 N 1971.79 -1.4279 0.666995 0
M  V30 21391 C 1973.02 -2.05688 0.193911 0
M  V30 21392 C 1973.42 -1.50159 -1.15103 0
M  V30 21393 O 1972.77 -0.632996 -1.7245 0
M  V30 21394 C 1972.83 -3.59474 0.0431257 0
M  V30 21395 C 1972.49 -4.37656 1.31554 0
M  V30 21396 C 1973.49 -4.6882 2.24731 0
M  V30 21397 C 1971.17 -4.7743 1.56097 0
M  V30 21398 C 1973.17 -5.38683 3.40734 0
M  V30 21399 C 1970.86 -5.47035 2.72389 0
M  V30 21400 C 1971.85 -5.77586 3.64532 0
M  V30 21401 O 1971.54 -6.45765 4.78792 0
M  V30 21402 H 1971.27 -0.66948 0.0936592 0
M  V30 21403 H 1973.83 -1.8405 0.911863 0
M  V30 21404 H 1972.06 -3.79741 -0.730331 0
M  V30 21405 H 1973.75 -4.04031 -0.389081 0
M  V30 21406 H 1974.51 -4.38599 2.07018 0
M  V30 21407 H 1970.39 -4.53049 0.852508 0
M  V30 21408 H 1973.94 -5.62446 4.12674 0
M  V30 21409 H 1969.83 -5.76673 2.90032 0
M  V30 21410 H 1970.6 -6.64254 4.78236 0
M  V30 21411 N 1973.26 -0.409806 -1.52179 0
M  V30 21412 C 1974.51 0.167113 -2.01007 0
M  V30 21413 C 1974.83 1.46166 -1.2998 0
M  V30 21414 O 1976.03 2.11988 -1.69628 0
M  V30 21415 C 1974.49 0.348367 -3.5821 0
M  V30 21416 C 1974.1 -0.934131 -4.38153 0
M  V30 21417 C 1975.84 0.880542 -4.15267 0
M  V30 21418 C 1973.75 -0.720028 -5.87 0
M  V30 21419 H 1972.68 0.0662269 -0.751086 0
M  V30 21420 H 1975.33 -0.535355 -1.75517 0
M  V30 21421 H 1973.71 1.11318 -3.80032 0
M  V30 21422 H 1974.88 -1.70515 -4.2809 0
M  V30 21423 H 1973.2 -1.39277 -3.92417 0
M  V30 21424 H 1975.8 1.05677 -5.24153 0
M  V30 21425 H 1976.14 1.85542 -3.72666 0
M  V30 21426 H 1976.67 0.174766 -3.97416 0
M  V30 21427 H 1973.41 -1.66649 -6.33963 0
M  V30 21428 H 1972.93 0.0116803 -5.99799 0
M  V30 21429 H 1974.61 -0.362471 -6.45984 0
M  V30 21430 N 1974.74 1.56975 -0.14025 0
M  V30 21431 C 1975.69 2.16418 0.802003 0
M  V30 21432 C 1976.66 1.09512 1.24885 0
M  V30 21433 O 1977.84 1.37522 1.32259 0
M  V30 21434 C 1974.98 2.78465 2.03841 0
M  V30 21435 C 1974.1 3.99743 1.63798 0
M  V30 21436 C 1973.23 4.4981 2.82567 0
M  V30 21437 C 1972.27 5.63569 2.38865 0
M  V30 21438 N 1971.41 6.08285 3.5062 0
M  V30 21439 H 1976.25 2.96602 0.288284 0
M  V30 21440 H 1973.78 1.46519 0.130587 0
M  V30 21441 H 1975.74 3.12581 2.76314 0
M  V30 21442 H 1974.37 2.00936 2.52635 0
M  V30 21443 H 1973.42 3.71651 0.811169 0
M  V30 21444 H 1974.74 4.82177 1.27697 0
M  V30 21445 H 1973.89 4.85945 3.63238 0
M  V30 21446 H 1972.63 3.66369 3.21908 0
M  V30 21447 H 1971.63 5.27017 1.56632 0
M  V30 21448 H 1972.86 6.48791 2.00617 0
M  V30 21449 H 1970.81 5.2778 3.89595 0
M  V30 21450 H 1970.72 6.85628 3.18512 0
M  V30 21451 H 1971.99 6.49063 4.31668 0
M  V30 21452 N 1976.22 -0.133539 1.57033 0
M  V30 21453 C 1977.63 -0.692222 1.73393 0
M  V30 21454 C 1977.98 -1.81019 0.756735 0
M  V30 21455 O 1977.11 -2.16275 -0.0736448 0
M  V30 21456 C 1977.7 -1.26245 3.144 0
M  V30 21457 C 1976.26 -1.76756 3.32316 0
M  V30 21458 C 1975.41 -0.661397 2.69297 0
M  V30 21459 H 1978.36 0.0922563 1.58432 0
M  V30 21460 H 1978.38 -2.13221 3.15146 0
M  V30 21461 H 1977.89 -0.44855 3.85499 0
M  V30 21462 H 1975.99 -2.6067 2.66236 0
M  V30 21463 H 1976.11 -1.88702 4.40373 0
M  V30 21464 H 1974.47 -1.0914 2.30132 0
M  V30 21465 H 1975.25 0.141281 3.43009 0
M  V30 21466 N 1977.7 -1.52352 -0.403298 0
M  V30 21467 C 1978.95 -1.66368 -1.14744 0
M  V30 21468 C 1979.27 -0.398899 -1.90876 0
M  V30 21469 O 1978.54 0.586372 -1.86918 0
M  V30 21470 H 1977.12 -0.613226 -0.426571 0
M  V30 21471 H 1979.78 -1.89416 -0.459075 0
M  V30 21472 H 1978.87 -2.50748 -1.85828 0
M  V30 21473 N 1979.18 0.660885 -1.43074 0
M  V30 21474 C 1980.11 1.78641 -1.43597 0
M  V30 21475 C 1981.12 1.59355 -0.333119 0
M  V30 21476 O 1982.31 1.68218 -0.597082 0
M  V30 21477 C 1979.41 3.15957 -1.22575 0
M  V30 21478 C 1978.58 3.61969 -2.45556 0
M  V30 21479 C 1977.64 4.78062 -2.19871 0
M  V30 21480 O 1976.67 4.87893 -2.93171 0
M  V30 21481 N 1977.87 5.67738 -1.21053 0
M  V30 21482 H 1980.63 1.78672 -2.40617 0
M  V30 21483 H 1978.2 0.844466 -1.38132 0
M  V30 21484 H 1980.19 3.91298 -1.03287 0
M  V30 21485 H 1978.76 3.10742 -0.34029 0
M  V30 21486 H 1977.98 2.77155 -2.80319 0
M  V30 21487 H 1979.27 3.89455 -3.27418 0
M  V30 21488 H 1978.66 5.6246 -0.604562 0
M  V30 21489 H 1977.22 6.42832 -1.0775 0
M  V30 21490 N 1980.65 1.29477 0.898527 0
M  V30 21491 C 1981.6 1.14706 2.00278 0
M  V30 21492 C 1982.57 0.040077 1.66052 0
M  V30 21493 O 1983.76 0.207808 1.89665 0
M  V30 21494 C 1980.9 0.830802 3.3495 0
M  V30 21495 C 1980.01 2.01834 3.81952 0
M  V30 21496 C 1979.14 1.64135 5.05206 0
M  V30 21497 C 1978.18 2.79464 5.44579 0
M  V30 21498 N 1977.32 2.42153 6.59019 0
M  V30 21499 H 1982.16 2.09181 2.12244 0
M  V30 21500 H 1979.7 1.04092 1.03939 0
M  V30 21501 H 1981.66 0.628119 4.12445 0
M  V30 21502 H 1980.29 -0.0770431 3.22708 0
M  V30 21503 H 1979.34 2.33269 3.00483 0
M  V30 21504 H 1980.65 2.88247 4.07081 0
M  V30 21505 H 1979.8 1.40163 5.90288 0
M  V30 21506 H 1978.54 0.748722 4.81918 0
M  V30 21507 H 1977.55 3.04117 4.58031 0
M  V30 21508 H 1978.77 3.69393 5.69847 0
M  V30 21509 H 1976.72 1.55379 6.37333 0
M  V30 21510 H 1976.64 3.221 6.8395 0
M  V30 21511 H 1977.9 2.21503 7.47366 0
M  V30 21512 N 1982.13 -1.10905 1.11972 0
M  V30 21513 C 1983.38 -1.83033 0.873311 0
M  V30 21514 C 1983.71 -1.84716 -0.599472 0
M  V30 21515 O 1982.99 -1.30427 -1.44288 0
M  V30 21516 C 1983.27 -3.29941 1.44261 0
M  V30 21517 C 1983.12 -3.36619 2.98341 0
M  V30 21518 C 1984.44 -4.26179 1.09815 0
M  V30 21519 H 1981.56 -0.664529 0.318701 0
M  V30 21520 H 1984.2 -1.30012 1.38553 0
M  V30 21521 H 1982.35 -3.75223 1.00697 0
M  V30 21522 H 1984.02 -2.99854 3.5055 0
M  V30 21523 H 1982.27 -2.76668 3.34122 0
M  V30 21524 H 1982.94 -4.40043 3.33266 0
M  V30 21525 H 1985.41 -3.89105 1.47433 0
M  V30 21526 H 1984.29 -5.27343 1.52318 0
M  V30 21527 H 1984.55 -4.42099 0.00966838 0
M  V30 21528 N 1983.61 -0.910886 -1.2861 0
M  V30 21529 C 1984.86 -0.541485 -1.94711 0
M  V30 21530 C 1985.18 0.917302 -1.72077 0
M  V30 21531 O 1984.45 1.64818 -1.05885 0
M  V30 21532 H 1983.03 -0.197263 -0.720483 0
M  V30 21533 H 1985.69 -1.15962 -1.56649 0
M  V30 21534 H 1984.79 -0.73351 -3.03358 0
M  V30 21535 N 1985.09 1.42434 -0.674558 0
M  V30 21536 C 1986.34 2.00765 -0.193936 0
M  V30 21537 C 1986.65 1.53957 1.20651 0
M  V30 21538 O 1987.86 2.04705 1.78348 0
M  V30 21539 C 1986.31 3.58682 -0.295862 0
M  V30 21540 C 1985.92 4.14478 -1.70034 0
M  V30 21541 C 1987.66 4.24313 0.12606 0
M  V30 21542 C 1985.57 5.64758 -1.75505 0
M  V30 21543 H 1984.5 0.75086 -0.0687443 0
M  V30 21544 H 1987.15 1.6316 -0.839705 0
M  V30 21545 H 1985.53 3.9379 0.417795 0
M  V30 21546 H 1986.71 3.90831 -2.44106 0
M  V30 21547 H 1985.02 3.61298 -2.07009 0
M  V30 21548 H 1987.62 5.34596 0.105331 0
M  V30 21549 H 1987.96 3.99775 1.16127 0
M  V30 21550 H 1988.5 3.94164 -0.536581 0
M  V30 21551 H 1985.24 5.94094 -2.77007 0
M  V30 21552 H 1984.76 5.90397 -1.05788 0
M  V30 21553 H 1986.43 6.29172 -1.50838 0
M  V30 21554 N 1986.57 0.417871 1.51959 0
M  V30 21555 C 1987.81 -0.154469 2.03815 0
M  V30 21556 C 1988.17 -1.41637 1.29627 0
M  V30 21557 O 1989.37 -2.06771 1.71754 0
M  V30 21558 C 1987.64 -0.387531 3.55293 0
M  V30 21559 S 1989.2 -0.926066 4.28917 0
M  V30 21560 H 1986.02 -0.0409623 0.709819 0
M  V30 21561 H 1988.62 0.572802 1.8692 0
M  V30 21562 H 1987.33 0.537536 4.06864 0
M  V30 21563 H 1986.86 -1.14243 3.76447 0
M  V30 21564 H 1988.87 -2.20573 4.44479 0
M  V30 21565 N 1988.04 -1.56898 0.148573 0
M  V30 21566 C 1989.29 -1.95788 -0.501154 0
M  V30 21567 C 1989.61 -1.03451 -1.65297 0
M  V30 21568 O 1988.88 -0.0963607 -1.95663 0
M  V30 21569 H 1987.46 -0.722922 -0.188129 0
M  V30 21570 H 1990.13 -1.93603 0.224439 0
M  V30 21571 H 1989.22 -2.99547 -0.876258 0
M  V30 21572 N 1989.52 0.125209 -1.57102 0
M  V30 21573 C 1990.94 0.478555 -1.52256 0
M  V30 21574 C 1991.14 1.82199 -0.860573 0
M  V30 21575 O 1990.19 2.48632 -0.440282 0
M  V30 21576 C 1991.51 0.46877 -2.97024 0
M  V30 21577 C 1993.06 0.552759 -3.0808 0
M  V30 21578 C 1993.53 0.573425 -4.54396 0
M  V30 21579 N 1995.02 0.635039 -4.58826 0
M  V30 21580 C 1995.76 0.672375 -5.69444 0
M  V30 21581 N 1995.25 0.667732 -6.89575 0
M  V30 21582 N 1997.05 0.714913 -5.57535 0
M  V30 21583 H 1989.2 -0.755121 -1.98524 0
M  V30 21584 H 1991.46 -0.27786 -0.906365 0
M  V30 21585 H 1991.17 -0.450582 -3.48802 0
M  V30 21586 H 1991.04 1.29884 -3.54133 0
M  V30 21587 H 1993.43 1.46253 -2.56308 0
M  V30 21588 H 1993.51 -0.304874 -2.53977 0
M  V30 21589 H 1993.15 -0.332277 -5.06812 0
M  V30 21590 H 1993.08 1.44786 -5.06305 0
M  V30 21591 H 1995.57 0.645043 -3.72354 0
M  V30 21592 H 1995.89 0.698672 -7.69635 0
M  V30 21593 H 1994.23 0.635256 -6.92091 0
M  V30 21594 H 1997.42 0.715861 -4.62594 0
M  V30 21595 H 1997.59 0.740542 -6.43755 0
M  V30 21596 N 1991 1.52564 0.395213 0
M  V30 21597 C 1992.23 1.71173 1.16222 0
M  V30 21598 C 1992.64 0.427335 1.839 0
M  V30 21599 O 1992 -0.597726 1.72434 0
M  V30 21600 C 1992.05 2.85698 2.21492 0
M  V30 21601 O 1991.77 4.09165 1.56574 0
M  V30 21602 C 1993.27 3.15934 3.10967 0
M  V30 21603 H 1990.49 0.573277 0.348705 0
M  V30 21604 H 1993.04 1.99186 0.463177 0
M  V30 21605 H 1991.19 2.60165 2.87042 0
M  V30 21606 H 1991.61 4.73086 2.26473 0
M  V30 21607 H 1993.08 3.99548 3.80874 0
M  V30 21608 H 1993.56 2.30059 3.74125 0
M  V30 21609 H 1994.16 3.43284 2.5107 0
M  V30 21610 N 1992.48 -0.653289 1.43422 0
M  V30 21611 C 1993.73 -1.41039 1.44749 0
M  V30 21612 C 1994.05 -1.94864 0.0728692 0
M  V30 21613 O 1993.32 -1.74425 -0.891782 0
M  V30 21614 H 1991.9 -0.523445 0.53293 0
M  V30 21615 H 1994.56 -0.770483 1.79024 0
M  V30 21616 H 1993.66 -2.25278 2.16001 0
M  V30 21617 N 1993.96 -1.29952 -0.891648 0
M  V30 21618 C 1995.18 -1.21422 -1.68141 0
M  V30 21619 C 1995.61 0.220633 -1.86802 0
M  V30 21620 O 1994.96 1.15902 -1.39414 0
M  V30 21621 C 1995.01 -1.94116 -3.03894 0
M  V30 21622 O 1994.12 -1.26369 -3.92562 0
M  V30 21623 H 1993.46 -0.420318 -0.514032 0
M  V30 21624 H 1995.99 -1.71658 -1.11331 0
M  V30 21625 H 1996 -2.02881 -3.53982 0
M  V30 21626 H 1994.67 -2.98474 -2.89631 0
M  V30 21627 H 1993.25 -1.25915 -3.50998 0
M  V30 21628 N 1995.44 1.1031 -1.12559 0
M  V30 21629 C 1996.68 1.81937 -0.879957 0
M  V30 21630 C 1997 1.85675 0.595811 0
M  V30 21631 O 1996.27 1.33574 1.433 0
M  V30 21632 H 1994.85 0.67377 -0.322556 0
M  V30 21633 H 1997.52 1.33464 -1.42033 0
M  V30 21634 H 1996.61 2.8542 -1.26261 0
M  V30 21635 N 1996.91 0.917694 1.28125 0
M  V30 21636 C 1997.86 0.407628 2.27172 0
M  V30 21637 C 1998.83 -0.520056 1.57749 0
M  V30 21638 O 2000.02 -0.441394 1.85624 0
M  V30 21639 C 1997.16 -0.342648 3.43395 0
M  V30 21640 C 1996.27 0.617993 4.27557 0
M  V30 21641 C 1995.4 -0.151124 5.30985 0
M  V30 21642 C 1994.44 0.802876 6.06812 0
M  V30 21643 N 1993.58 0.0670251 7.02068 0
M  V30 21644 H 1998.42 1.25728 2.70179 0
M  V30 21645 H 1995.96 0.631273 1.32866 0
M  V30 21646 H 1997.91 -0.793873 4.09577 0
M  V30 21647 H 1996.54 -1.15661 3.01367 0
M  V30 21648 H 1995.6 1.18775 3.61382 0
M  V30 21649 H 1996.91 1.3475 4.80254 0
M  V30 21650 H 1996.06 -0.662729 6.03069 0
M  V30 21651 H 1994.8 -0.913657 4.79065 0
M  V30 21652 H 1993.81 1.32582 5.33575 0
M  V30 21653 H 1995.03 1.56503 6.6082 0
M  V30 21654 H 1992.98 -0.677445 6.52493 0
M  V30 21655 H 1992.89 0.736283 7.52406 0
M  V30 21656 H 1994.16 -0.424255 7.78345 0
M  V30 21657 N 1998.39 -1.42074 0.682102 0
M  V30 21658 C 1999.62 -2.06288 0.214488 0
M  V30 21659 C 2000.04 -1.50942 -1.12241 0
M  V30 21660 O 1999.4 -0.63086 -1.6997 0
M  V30 21661 C 1999.45 -3.60208 0.167989 0
M  V30 21662 O 1998.55 -4.03306 -0.86129 0
M  V30 21663 H 1997.89 -0.655134 0.108148 0
M  V30 21664 H 2000.42 -1.8208 0.933171 0
M  V30 21665 H 2000.43 -4.08 -0.00570039 0
M  V30 21666 H 1999.11 -3.99863 1.14378 0
M  V30 21667 H 1997.68 -3.67048 -0.65805 0
M  V30 21668 N 1999.87 -0.425924 -1.51735 0
M  V30 21669 C 2001.09 0.145767 -2.06887 0
M  V30 21670 C 2001.52 1.36671 -1.29239 0
M  V30 21671 O 2000.88 1.78323 -0.327176 0
M  V30 21672 C 2000.93 0.457951 -3.5768 0
M  V30 21673 O 2000.03 1.54629 -3.82314 0
M  V30 21674 H 1999.37 0.00686619 -0.663964 0
M  V30 21675 H 2001.9 -0.603968 -1.95482 0
M  V30 21676 H 2001.91 0.71173 -4.01744 0
M  V30 21677 H 2000.59 -0.434483 -4.13624 0
M  V30 21678 H 1999.16 1.28336 -3.5012 0
M  V30 21679 N 2001.35 1.56817 -0.156891 0
M  V30 21680 C 2002.28 2.20266 0.774915 0
M  V30 21681 C 2003.26 1.15387 1.24979 0
M  V30 21682 O 2004.44 1.43766 1.30557 0
M  V30 21683 C 2001.57 2.83207 2.01025 0
M  V30 21684 C 2000.53 3.94 1.67177 0
M  V30 21685 C 1999.85 4.43921 2.98057 0
M  V30 21686 C 2001.15 5.14297 0.91083 0
M  V30 21687 H 2002.85 2.98387 0.246082 0
M  V30 21688 H 2000.39 1.43525 0.116921 0
M  V30 21689 H 2002.35 3.26264 2.66701 0
M  V30 21690 H 2001.07 2.02433 2.56298 0
M  V30 21691 H 1999.73 3.51576 1.03876 0
M  V30 21692 H 1999.38 3.59957 3.5134 0
M  V30 21693 H 1999.08 5.18657 2.76169 0
M  V30 21694 H 2000.6 4.89656 3.64787 0
M  V30 21695 H 2002.02 5.54137 1.46988 0
M  V30 21696 H 2000.41 5.94857 0.791526 0
M  V30 21697 H 2001.48 4.84806 -0.0955943 0
M  V30 21698 N 2002.83 -0.116876 1.57166 0
M  V30 21699 C 2004.05 -0.842338 1.89524 0
M  V30 21700 C 2004.48 -1.72543 0.749039 0
M  V30 21701 O 2003.83 -1.78795 -0.30035 0
M  V30 21702 C 2003.88 -1.64989 3.20641 0
M  V30 21703 O 2002.99 -2.75701 3.06696 0
M  V30 21704 H 2002.33 -0.232809 0.621849 0
M  V30 21705 H 2004.86 -0.0986366 2.04362 0
M  V30 21706 H 2004.87 -2.03869 3.53414 0
M  V30 21707 H 2003.54 -1.00164 4.03658 0
M  V30 21708 H 2002.12 -2.40009 2.85395 0
M  V30 21709 N 2004.3 -1.52772 -0.387116 0
M  V30 21710 C 2005.23 -1.80654 -1.47941 0
M  V30 21711 C 2006.21 -0.658677 -1.56829 0
M  V30 21712 O 2007.4 -0.906449 -1.71747 0
M  V30 21713 C 2004.53 -1.97709 -2.85532 0
M  V30 21714 C 2003.48 -3.13404 -2.91482 0
M  V30 21715 C 2002.81 -3.15717 -4.3154 0
M  V30 21716 C 2004.11 -4.52437 -2.60957 0
M  V30 21717 H 2005.8 -2.72123 -1.24858 0
M  V30 21718 H 2003.35 -1.30941 -0.59921 0
M  V30 21719 H 2005.3 -2.15798 -3.61952 0
M  V30 21720 H 2004.03 -1.02931 -3.09956 0
M  V30 21721 H 2002.69 -2.95102 -2.1751 0
M  V30 21722 H 2002.33 -2.18618 -4.53007 0
M  V30 21723 H 2002.03 -3.93437 -4.36441 0
M  V30 21724 H 2003.56 -3.35963 -5.09864 0
M  V30 21725 H 2004.97 -4.70831 -3.27095 0
M  V30 21726 H 2003.37 -5.32238 -2.77205 0
M  V30 21727 H 2004.44 -4.59022 -1.5629 0
M  V30 21728 N 2005.78 0.645673 -1.43767 0
M  V30 21729 C 2006.74 1.74013 -1.49171 0
M  V30 21730 C 2007.74 1.56355 -0.375476 0
M  V30 21731 O 2008.93 1.62115 -0.637529 0
M  V30 21732 C 2006.07 3.12961 -1.3516 0
M  V30 21733 H 2007.26 1.706 -2.46649 0
M  V30 21734 H 2004.81 0.858019 -1.30643 0
M  V30 21735 H 2005.55 3.2198 -0.387199 0
M  V30 21736 H 2005.33 3.27184 -2.16086 0
M  V30 21737 H 2006.82 3.92755 -1.41891 0
M  V30 21738 N 2007.26 1.30423 0.884744 0
M  V30 21739 C 2008.51 1.19259 1.63657 0
M  V30 21740 C 2008.83 -0.252645 1.92852 0
M  V30 21741 O 2008.09 -1.19718 1.5481 0
M  V30 21742 C 2008.39 1.96681 2.98415 0
M  V30 21743 C 2008.05 3.46298 2.8877 0
M  V30 21744 C 2006.72 3.87098 2.85847 0
M  V30 21745 C 2009.07 4.41573 2.7688 0
M  V30 21746 C 2006.4 5.21464 2.68873 0
M  V30 21747 C 2008.75 5.76047 2.61444 0
M  V30 21748 C 2007.41 6.16085 2.56896 0
M  V30 21749 H 2006.68 0.436399 0.598863 0
M  V30 21750 H 2009.33 1.61527 1.02865 0
M  V30 21751 H 2007.63 1.47049 3.63158 0
M  V30 21752 H 2009.33 1.85436 3.55548 0
M  V30 21753 H 2005.92 3.13877 2.91855 0
M  V30 21754 H 2010.11 4.10994 2.78205 0
M  V30 21755 H 2005.36 5.51577 2.63766 0
M  V30 21756 H 2009.54 6.49509 2.51218 0
M  V30 21757 H 2007.16 7.20147 2.43501 0
M  V30 21758 N 2008.74 -1.09711 1.13142 0
M  V30 21759 C 2009.98 -1.81827 0.891354 0
M  V30 21760 C 2010.31 -1.8557 -0.582598 0
M  V30 21761 O 2009.57 -1.31754 -1.44704 0
M  V30 21762 C 2009.87 -3.27951 1.42067 0
M  V30 21763 C 2009.53 -3.44346 2.91096 0
M  V30 21764 C 2008.19 -3.48528 3.31786 0
M  V30 21765 C 2010.55 -3.49124 3.86991 0
M  V30 21766 C 2007.87 -3.55064 4.67061 0
M  V30 21767 C 2010.23 -3.57194 5.22106 0
M  V30 21768 C 2008.89 -3.59644 5.62328 0
M  V30 21769 H 2008.16 -0.665353 0.32617 0
M  V30 21770 H 2010.81 -1.29268 1.41287 0
M  V30 21771 H 2009.11 -3.83128 0.819786 0
M  V30 21772 H 2010.81 -3.82276 1.21103 0
M  V30 21773 H 2007.4 -3.41773 2.58629 0
M  V30 21774 H 2011.58 -3.45136 3.56643 0
M  V30 21775 H 2006.84 -3.55246 4.97604 0
M  V30 21776 H 2011.01 -3.59836 5.9623 0
M  V30 21777 H 2008.64 -3.64461 6.67137 0
M  V30 21778 N 2010.22 -0.924476 -1.27637 0
M  V30 21779 C 2011.63 -0.62423 -1.46886 0
M  V30 21780 C 2011.83 0.827429 -1.83728 0
M  V30 21781 O 2010.89 1.6056 -1.94876 0
M  V30 21782 C 2012.2 -1.57134 -2.56378 0
M  V30 21783 C 2013.75 -1.57921 -2.7024 0
M  V30 21784 C 2014.22 -2.5132 -3.82886 0
M  V30 21785 N 2015.72 -2.49509 -3.90256 0
M  V30 21786 C 2016.45 -3.18469 -4.76828 0
M  V30 21787 N 2015.95 -3.96797 -5.67912 0
M  V30 21788 N 2017.74 -3.07503 -4.7053 0
M  V30 21789 H 2009.89 -1.86302 -1.02006 0
M  V30 21790 H 2012.15 -0.79968 -0.509132 0
M  V30 21791 H 2011.86 -2.60679 -2.36092 0
M  V30 21792 H 2011.73 -1.31058 -3.537 0
M  V30 21793 H 2014.12 -0.55109 -2.89909 0
M  V30 21794 H 2014.2 -1.88045 -1.73415 0
M  V30 21795 H 2013.85 -3.54241 -3.63972 0
M  V30 21796 H 2013.78 -2.18494 -4.79132 0
M  V30 21797 H 2016.27 -1.9262 -3.25124 0
M  V30 21798 H 2016.58 -4.4641 -6.30823 0
M  V30 21799 H 2014.92 -4.00901 -5.67718 0
M  V30 21800 H 2018.12 -2.45806 -3.98368 0
M  V30 21801 H 2018.29 -3.61517 -5.37782 0
M  V30 21802 N 2011.69 1.41711 -0.689627 0
M  V30 21803 C 2012.63 2.2818 0.0298794 0
M  V30 21804 C 2013.61 1.41901 0.793909 0
M  V30 21805 O 2014.79 1.71333 0.785962 0
M  V30 21806 C 2011.92 3.22025 1.04965 0
M  V30 21807 C 2010.96 4.24808 0.379483 0
M  V30 21808 S 2011.8 5.28323 -0.873793 0
M  V30 21809 C 2012.95 6.25733 0.144532 0
M  V30 21810 H 2013.18 2.88856 -0.703531 0
M  V30 21811 H 2010.72 1.4676 -0.479687 0
M  V30 21812 H 2012.68 3.76626 1.63288 0
M  V30 21813 H 2011.34 2.60457 1.7556 0
M  V30 21814 H 2010.53 4.90717 1.14947 0
M  V30 21815 H 2010.13 3.73772 -0.130522 0
M  V30 21816 H 2012.42 6.70084 0.999673 0
M  V30 21817 H 2013.37 7.06468 -0.480474 0
M  V30 21818 H 2013.77 5.62311 0.496647 0
M  V30 21819 N 2013.17 0.433965 1.51507 0
M  V30 21820 C 2014.42 -0.133827 2.02358 0
M  V30 21821 C 2014.75 -1.42654 1.3177 0
M  V30 21822 O 2014.03 -1.89651 0.431588 0
M  V30 21823 C 2014.31 -0.356052 3.58335 0
M  V30 21824 C 2014.16 0.955077 4.39543 0
M  V30 21825 C 2015.48 -1.12732 4.25417 0
M  V30 21826 H 2012.6 -0.0471634 0.735489 0
M  V30 21827 H 2015.24 0.572301 1.81176 0
M  V30 21828 H 2013.39 -0.957541 3.76515 0
M  V30 21829 H 2015.06 1.59029 4.33021 0
M  V30 21830 H 2013.31 1.56044 4.04762 0
M  V30 21831 H 2013.98 0.753671 5.46831 0
M  V30 21832 H 2016.45 -0.617852 4.11487 0
M  V30 21833 H 2015.33 -1.25157 5.34441 0
M  V30 21834 H 2015.59 -2.15452 3.86048 0
M  V30 21835 N 2014.65 -1.56732 0.165206 0
M  V30 21836 C 2015.93 -1.88357 -0.527344 0
M  V30 21837 C 2016.31 -1.07412 -1.8173 0
M  V30 21838 O 2015.66 -0.166236 -2.27895 0
M  V30 21839 C 2015.87 -3.40282 -0.775175 0
M  V30 21840 C 2017.21 -4.09891 -1.10789 0
M  V30 21841 O 2018.24 -3.45565 -0.863921 0
M  V30 21842 O 2017.1 -5.23527 -1.56787 0
M  V30 21843 H 2014.19 -0.781304 -0.271096 0
M  V30 21844 H 2016.74 -1.68479 0.203183 0
M  V30 21845 H 2015.51 -3.9106 0.137 0
M  V30 21846 H 2015.13 -3.65751 -1.55924 0
M  V30 21847 N 2016.13 0.10854 -1.57226 0
M  V30 21848 C 2017.38 0.813095 -1.84585 0
M  V30 21849 C 2017.69 1.80548 -0.752453 0
M  V30 21850 O 2018.9 2.55697 -0.912763 0
M  V30 21851 C 2017.35 1.4968 -3.27298 0
M  V30 21852 C 2016.96 0.544871 -4.44674 0
M  V30 21853 C 2018.7 2.18587 -3.63895 0
M  V30 21854 C 2016.61 1.2324 -5.78417 0
M  V30 21855 H 2015.54 0.3074 -0.688492 0
M  V30 21856 H 2018.19 0.065908 -1.83382 0
M  V30 21857 H 2016.57 2.29098 -3.23002 0
M  V30 21858 H 2017.75 -0.216842 -4.6029 0
M  V30 21859 H 2016.06 -0.0377882 -4.16383 0
M  V30 21860 H 2018.66 2.70735 -4.61093 0
M  V30 21861 H 2019 2.96868 -2.91848 0
M  V30 21862 H 2019.54 1.46046 -3.70021 0
M  V30 21863 H 2016.28 0.490673 -6.53661 0
M  V30 21864 H 2015.8 1.96587 -5.66669 0
M  V30 21865 H 2017.47 1.76267 -6.22526 0
M  V30 21866 N 2017.61 1.52975 0.379009 0
M  V30 21867 C 2018.85 1.68505 1.12304 0
M  V30 21868 C 2019.18 0.430012 1.89687 0
M  V30 21869 O 2018.44 -0.587809 1.86664 0
M  V30 21870 C 2018.74 2.8776 2.11964 0
M  V30 21871 C 2018.4 4.24806 1.51163 0
M  V30 21872 C 2017.06 4.62077 1.34308 0
M  V30 21873 C 2019.42 5.10087 1.07053 0
M  V30 21874 C 2016.74 5.82277 0.719058 0
M  V30 21875 C 2019.1 6.30921 0.460559 0
M  V30 21876 C 2017.76 6.66915 0.279391 0
M  V30 21877 H 2017.03 0.616604 0.41095 0
M  V30 21878 H 2019.68 1.87137 0.406443 0
M  V30 21879 H 2017.98 2.63586 2.89879 0
M  V30 21880 H 2019.68 2.96971 2.69461 0
M  V30 21881 H 2016.27 3.95453 1.65272 0
M  V30 21882 H 2020.45 4.81854 1.18872 0
M  V30 21883 H 2015.71 6.08765 0.566983 0
M  V30 21884 H 2019.88 6.96312 0.110504 0
M  V30 21885 H 2017.51 7.5992 -0.206228 0
M  V30 21886 N 2019.08 -0.63804 1.44107 0
M  V30 21887 C 2020.36 -1.39606 1.37002 0
M  V30 21888 C 2020.74 -2.11085 0.0252978 0
M  V30 21889 O 2020.09 -2.0585 -0.991871 0
M  V30 21890 C 2020.3 -2.3682 2.56353 0
M  V30 21891 C 2021.65 -3.00362 3.00113 0
M  V30 21892 O 2022.67 -2.47147 2.56509 0
M  V30 21893 O 2021.53 -3.96881 3.75696 0
M  V30 21894 H 2018.62 -0.624471 0.542186 0
M  V30 21895 H 2021.17 -0.663674 1.56184 0
M  V30 21896 H 2019.94 -1.83054 3.45842 0
M  V30 21897 H 2019.57 -3.17487 2.39349 0
M  V30 21898 N 2020.56 -1.3089 -0.877815 0
M  V30 21899 C 2021.81 -1.19888 -1.627 0
M  V30 21900 C 2022.13 0.244972 -1.93455 0
M  V30 21901 O 2021.4 1.16355 -1.57602 0
M  V30 21902 H 2019.98 -0.440719 -0.603138 0
M  V30 21903 H 2022.64 -1.64112 -1.05134 0
M  V30 21904 H 2021.74 -1.76493 -2.57404 0
M  V30 21905 N 2022.04 1.0911 -1.13723 0
M  V30 21906 C 2022.99 2.15834 -0.817576 0
M  V30 21907 C 2023.96 1.64613 0.221749 0
M  V30 21908 O 2025.14 1.90572 0.0932703 0
M  V30 21909 C 2022.28 3.43851 -0.293315 0
M  V30 21910 C 2021.4 4.08956 -1.39208 0
M  V30 21911 C 2020.53 5.24741 -0.825823 0
M  V30 21912 C 2019.57 5.81774 -1.90277 0
M  V30 21913 N 2018.71 6.88916 -1.35421 0
M  V30 21914 H 2023.55 2.42519 -1.73172 0
M  V30 21915 H 2021.08 1.19026 -0.864368 0
M  V30 21916 H 2023.04 4.1719 0.0288002 0
M  V30 21917 H 2021.67 3.17474 0.583951 0
M  V30 21918 H 2020.72 3.33449 -1.83073 0
M  V30 21919 H 2022.04 4.47372 -2.2059 0
M  V30 21920 H 2021.19 6.0499 -0.455184 0
M  V30 21921 H 2019.93 4.87696 0.0190362 0
M  V30 21922 H 2018.93 5.00185 -2.28244 0
M  V30 21923 H 2020.16 6.2088 -2.75109 0
M  V30 21924 H 2018.1 6.53844 -0.531412 0
M  V30 21925 H 2018.02 7.26118 -2.10448 0
M  V30 21926 H 2019.29 7.72913 -1.01125 0
M  V30 21927 N 2023.52 0.931232 1.27145 0
M  V30 21928 C 2024.77 0.569326 1.93498 0
M  V30 21929 C 2025.08 -0.894288 1.73959 0
M  V30 21930 O 2026.29 -1.36513 2.34684 0
M  V30 21931 C 2024.74 0.967432 3.46654 0
M  V30 21932 C 2024.35 2.45197 3.74943 0
M  V30 21933 C 2026.09 0.676947 4.19068 0
M  V30 21934 C 2024 2.7893 5.2149 0
M  V30 21935 H 2022.93 0.209208 0.724395 0
M  V30 21936 H 2025.58 1.13252 1.44382 0
M  V30 21937 H 2023.96 0.332853 3.94599 0
M  V30 21938 H 2025.14 3.13476 3.37742 0
M  V30 21939 H 2023.45 2.71472 3.1574 0
M  V30 21940 H 2026.05 0.905425 5.26978 0
M  V30 21941 H 2026.39 -0.385967 4.14507 0
M  V30 21942 H 2026.93 1.27079 3.76956 0
M  V30 21943 H 2023.67 3.84144 5.31144 0
M  V30 21944 H 2023.19 2.15304 5.59825 0
M  V30 21945 H 2024.86 2.66862 5.89401 0
M  V30 21946 N 2025 -1.41343 0.697132 0
M  V30 21947 C 2026.24 -2.01502 0.229099 0
M  V30 21948 C 2026.58 -1.55093 -1.16875 0
M  V30 21949 O 2025.85 -0.7628 -1.78918 0
M  V30 21950 C 2026.13 -3.58942 0.288524 0
M  V30 21951 C 2025.99 -4.15473 1.72343 0
M  V30 21952 C 2027.31 -4.387 -0.350786 0
M  V30 21953 H 2024.43 -0.732114 0.0847216 0
M  V30 21954 H 2027.07 -1.6807 0.886148 0
M  V30 21955 H 2025.22 -3.87554 -0.270916 0
M  V30 21956 H 2026.89 -3.97731 2.33684 0
M  V30 21957 H 2025.13 -3.70456 2.25709 0
M  V30 21958 H 2025.8 -5.24632 1.71653 0
M  V30 21959 H 2028.28 -4.1591 0.125682 0
M  V30 21960 H 2027.16 -5.48192 -0.27867 0
M  V30 21961 H 2027.42 -4.18275 -1.43172 0
M  V30 21962 N 2026.48 -0.441993 -1.51275 0
M  V30 21963 C 2027.72 0.124439 -2.01316 0
M  V30 21964 C 2028.04 1.43376 -1.33051 0
M  V30 21965 O 2029.24 2.08342 -1.74086 0
M  V30 21966 C 2027.7 0.272307 -3.58868 0
M  V30 21967 C 2027.31 -1.02686 -4.36073 0
M  V30 21968 C 2029.05 0.792259 -4.17041 0
M  V30 21969 C 2026.96 -0.844378 -5.85341 0
M  V30 21970 H 2025.89 0.0502803 -0.752322 0
M  V30 21971 H 2028.54 -0.572465 -1.74342 0
M  V30 21972 H 2026.92 1.03232 -3.82308 0
M  V30 21973 H 2028.1 -1.79557 -4.24377 0
M  V30 21974 H 2026.41 -1.4757 -3.89374 0
M  V30 21975 H 2029.01 0.94535 -5.26277 0
M  V30 21976 H 2029.35 1.77595 -3.76518 0
M  V30 21977 H 2029.88 0.0904292 -3.97697 0
M  V30 21978 H 2026.62 -1.80058 -6.30285 0
M  V30 21979 H 2026.14 -0.115549 -5.99689 0
M  V30 21980 H 2027.82 -0.499412 -6.4507 0
M  V30 21981 N 2027.95 1.56642 -0.173515 0
M  V30 21982 C 2029.23 1.88634 0.517348 0
M  V30 21983 C 2029.61 1.08374 1.81158 0
M  V30 21984 O 2028.96 0.178319 2.27803 0
M  V30 21985 C 2029.17 3.40689 0.757118 0
M  V30 21986 C 2030.52 4.10473 1.08614 0
M  V30 21987 O 2031.54 3.46018 0.845582 0
M  V30 21988 O 2030.4 5.24351 1.54008 0
M  V30 21989 H 2027.49 0.782731 0.266949 0
M  V30 21990 H 2030.04 1.68369 -0.212115 0
M  V30 21991 H 2028.81 3.90982 -0.157737 0
M  V30 21992 H 2028.43 3.66572 1.53982 0
M  V30 21993 N 2029.43 -0.1002 1.57281 0
M  V30 21994 C 2030.68 -0.803034 1.85461 0
M  V30 21995 C 2031 -1.79518 0.761475 0
M  V30 21996 O 2030.27 -1.94741 -0.212768 0
M  V30 21997 H 2028.85 -0.299556 0.684306 0
M  V30 21998 H 2031.51 -0.0830444 1.94723 0
M  V30 21999 H 2030.61 -1.33676 2.82024 0
M  V30 22000 N 2030.91 -1.53174 -0.370891 0
M  V30 22001 C 2032.16 -1.68319 -1.11137 0
M  V30 22002 C 2032.47 -0.438743 -1.90616 0
M  V30 22003 O 2033.68 -0.470648 -2.6739 0
M  V30 22004 C 2032.13 -2.97532 -2.02491 0
M  V30 22005 C 2031.74 -4.29221 -1.28349 0
M  V30 22006 C 2033.49 -3.22045 -2.76563 0
M  V30 22007 C 2031.39 -5.49526 -2.18574 0
M  V30 22008 H 2030.32 -0.62713 -0.418597 0
M  V30 22009 H 2032.97 -1.79674 -0.372765 0
M  V30 22010 H 2031.36 -2.79967 -2.80061 0
M  V30 22011 H 2032.53 -4.57399 -0.558794 0
M  V30 22012 H 2030.84 -4.1111 -0.661614 0
M  V30 22013 H 2033.44 -4.09111 -3.44285 0
M  V30 22014 H 2033.78 -2.37881 -3.41641 0
M  V30 22015 H 2034.32 -3.40259 -2.06079 0
M  V30 22016 H 2031.06 -6.36152 -1.58083 0
M  V30 22017 H 2030.58 -5.25635 -2.88909 0
M  V30 22018 H 2032.26 -5.8411 -2.78252 0
M  V30 22019 N 2032.39 0.630389 -1.44443 0
M  V30 22020 C 2033.66 1.38877 -1.3774 0
M  V30 22021 C 2034.04 2.11068 -0.0364918 0
M  V30 22022 O 2033.39 2.06373 0.98094 0
M  V30 22023 C 2033.6 2.35458 -2.57606 0
M  V30 22024 C 2034.95 2.98766 -3.01702 0
M  V30 22025 O 2035.97 2.45783 -2.57816 0
M  V30 22026 O 2034.83 3.94883 -3.77796 0
M  V30 22027 H 2031.93 0.621587 -0.54549 0
M  V30 22028 H 2034.47 0.655382 -1.56534 0
M  V30 22029 H 2033.25 1.81218 -3.46808 0
M  V30 22030 H 2032.87 3.16213 -2.41029 0
M  V30 22031 N 2033.87 1.31354 0.870861 0
M  V30 22032 C 2035.11 1.20348 1.61862 0
M  V30 22033 C 2035.43 -0.237373 1.94154 0
M  V30 22034 O 2036.63 -0.469111 2.67417 0
M  V30 22035 C 2035.09 2.10677 2.91793 0
M  V30 22036 C 2034.7 3.59752 2.66987 0
M  V30 22037 C 2036.44 2.08469 3.69785 0
M  V30 22038 C 2034.35 4.42092 3.92821 0
M  V30 22039 H 2033.28 0.446857 0.607317 0
M  V30 22040 H 2035.93 1.56203 0.962965 0
M  V30 22041 H 2034.31 1.6772 3.58728 0
M  V30 22042 H 2035.49 4.10949 2.08465 0
M  V30 22043 H 2033.8 3.63927 2.02351 0
M  V30 22044 H 2036.4 2.67232 4.63132 0
M  V30 22045 H 2036.74 1.07161 4.02271 0
M  V30 22046 H 2037.27 2.49621 3.09732 0
M  V30 22047 H 2034.01 5.44151 3.65486 0
M  V30 22048 H 2033.53 3.95654 4.50797 0
M  V30 22049 H 2035.21 4.54259 4.60714 0
M  V30 22050 N 2035.34 -1.08505 1.143 0
M  V30 22051 C 2036.57 -1.85155 0.934475 0
M  V30 22052 C 2036.99 -1.81002 -0.511866 0
M  V30 22053 O 2036.35 -1.19437 -1.36398 0
M  V30 22054 C 2036.4 -3.30656 1.43871 0
M  V30 22055 O 2035.5 -4.07557 0.630143 0
M  V30 22056 H 2034.84 -0.573775 0.334183 0
M  V30 22057 H 2037.37 -1.36959 1.51998 0
M  V30 22058 H 2037.38 -3.815 1.44644 0
M  V30 22059 H 2036.06 -3.32995 2.49173 0
M  V30 22060 H 2034.64 -3.66441 0.691067 0
M  V30 22061 N 2036.82 -0.937962 -1.26649 0
M  V30 22062 C 2037.77 -0.443717 -2.26495 0
M  V30 22063 C 2038.74 0.494894 -1.58556 0
M  V30 22064 O 2039.92 0.411807 -1.86303 0
M  V30 22065 C 2037.06 0.287974 -3.43896 0
M  V30 22066 C 2036.18 -0.685936 -4.2652 0
M  V30 22067 C 2035.31 0.0666303 -5.31158 0
M  V30 22068 C 2034.35 -0.899313 -6.05457 0
M  V30 22069 N 2033.49 -0.17871 -7.01873 0
M  V30 22070 H 2038.33 -1.3001 -2.68144 0
M  V30 22071 H 2035.86 -0.652331 -1.31845 0
M  V30 22072 H 2037.82 0.728613 -4.10788 0
M  V30 22073 H 2036.45 1.10852 -3.03169 0
M  V30 22074 H 2035.5 -1.24509 -3.59446 0
M  V30 22075 H 2036.82 -1.42373 -4.7805 0
M  V30 22076 H 2035.97 0.566702 -6.04047 0
M  V30 22077 H 2034.71 0.837326 -4.80458 0
M  V30 22078 H 2033.71 -1.41054 -5.31398 0
M  V30 22079 H 2034.94 -1.66996 -6.58247 0
M  V30 22080 H 2032.89 0.573553 -6.53488 0
M  V30 22081 H 2032.8 -0.855891 -7.51139 0
M  V30 22082 H 2034.07 0.300374 -7.78921 0
M  V30 22083 N 2038.3 1.40971 -0.704618 0
M  V30 22084 C 2039.23 2.33424 -0.0595656 0
M  V30 22085 C 2040.21 1.52306 0.757422 0
M  V30 22086 O 2041.4 1.80812 0.708567 0
M  V30 22087 C 2038.53 3.36202 0.870964 0
M  V30 22088 C 2037.48 4.27699 0.160408 0
M  V30 22089 C 2036.81 5.20924 1.20591 0
M  V30 22090 C 2038.11 5.13047 -0.97878 0
M  V30 22091 H 2039.8 2.87615 -0.83176 0
M  V30 22092 H 2037.35 1.38292 -0.401428 0
M  V30 22093 H 2039.3 3.9981 1.33153 0
M  V30 22094 H 2038.02 2.80381 1.67493 0
M  V30 22095 H 2036.68 3.65527 -0.280222 0
M  V30 22096 H 2036.33 4.61414 2.00264 0
M  V30 22097 H 2036.03 5.8298 0.73543 0
M  V30 22098 H 2037.55 5.8741 1.6668 0
M  V30 22099 H 2038.97 5.70172 -0.598081 0
M  V30 22100 H 2037.36 5.8409 -1.37693 0
M  V30 22101 H 2038.43 4.49675 -1.8144 0
M  V30 22102 N 2039.78 0.45001 1.51039 0
M  V30 22103 C 2041.19 -0.0101397 1.86697 0
M  V30 22104 C 2041.54 -1.40804 1.36633 0
M  V30 22105 O 2040.67 -2.03986 0.722411 0
M  V30 22106 C 2041.26 -0.0251761 3.38791 0
M  V30 22107 C 2039.82 -0.429779 3.73938 0
M  V30 22108 C 2038.97 0.369286 2.7483 0
M  V30 22109 H 2041.92 0.665278 1.44082 0
M  V30 22110 H 2041.94 -0.831964 3.71293 0
M  V30 22111 H 2041.45 0.992361 3.75198 0
M  V30 22112 H 2039.55 -1.45245 3.43125 0
M  V30 22113 H 2039.66 -0.145773 4.78878 0
M  V30 22114 H 2038.03 -0.174158 2.54104 0
M  V30 22115 H 2038.81 1.38594 3.14081 0
M  V30 22116 N 2041.26 -1.56548 0.18182 0
M  V30 22117 C 2042.19 -2.21471 -0.739774 0
M  V30 22118 C 2043.17 -1.17361 -1.23128 0
M  V30 22119 O 2044.35 -1.45825 -1.28253 0
M  V30 22120 C 2041.48 -2.86369 -1.96494 0
M  V30 22121 C 2040.44 -3.96609 -1.60888 0
M  V30 22122 C 2039.76 -4.48607 -2.90957 0
M  V30 22123 C 2041.06 -5.15681 -0.828895 0
M  V30 22124 H 2042.76 -2.98741 -0.19858 0
M  V30 22125 H 2040.3 -1.43692 -0.0940725 0
M  V30 22126 H 2042.26 -3.30466 -2.61477 0
M  V30 22127 H 2040.98 -2.06485 -2.53045 0
M  V30 22128 H 2039.64 -3.53184 -0.982694 0
M  V30 22129 H 2039.29 -3.65501 -3.45569 0
M  V30 22130 H 2038.99 -5.22984 -2.67882 0
M  V30 22131 H 2040.51 -4.95397 -3.56951 0
M  V30 22132 H 2041.92 -5.56405 -1.38153 0
M  V30 22133 H 2040.32 -5.96041 -0.696789 0
M  V30 22134 H 2041.39 -4.84592 0.172711 0
M  V30 22135 N 2042.73 0.0918577 -1.57332 0
M  V30 22136 C 2043.68 1.11765 -1.98727 0
M  V30 22137 C 2044.67 1.35594 -0.866205 0
M  V30 22138 O 2045.86 1.36231 -1.13005 0
M  V30 22139 C 2042.99 2.437 -2.41796 0
M  V30 22140 C 2042.08 2.23231 -3.60595 0
M  V30 22141 N 2042.47 1.72638 -4.75426 0
M  V30 22142 C 2040.76 2.53785 -3.66755 0
M  V30 22143 C 2041.47 1.66516 -5.57357 0
M  V30 22144 N 2040.44 2.11847 -5.00621 0
M  V30 22145 H 2044.24 0.719481 -2.84957 0
M  V30 22146 H 2041.76 0.299237 -1.59619 0
M  V30 22147 H 2043.75 3.17927 -2.69682 0
M  V30 22148 H 2042.41 2.84251 -1.56944 0
M  V30 22149 H 2043.43 1.41789 -4.98113 0
M  V30 22150 H 2040.1 2.97839 -2.92572 0
M  V30 22151 H 2041.49 1.28424 -6.59513 0
M  V30 22152 N 2044.21 1.53368 0.362763 0
M  V30 22153 C 2045.44 1.73599 1.12565 0
M  V30 22154 C 2045.86 0.466247 1.82952 0
M  V30 22155 O 2045.21 -0.561016 1.73663 0
M  V30 22156 C 2045.26 2.90332 2.15382 0
M  V30 22157 O 2044.98 4.12394 1.4786 0
M  V30 22158 C 2046.49 3.22459 3.04196 0
M  V30 22159 H 2043.71 0.580544 0.336466 0
M  V30 22160 H 2046.25 2.00123 0.420823 0
M  V30 22161 H 2044.4 2.66195 2.81459 0
M  V30 22162 H 2044.82 4.77783 2.16387 0
M  V30 22163 H 2046.29 4.07537 3.72314 0
M  V30 22164 H 2046.77 2.37943 3.69161 0
M  V30 22165 H 2047.38 3.48532 2.43732 0
M  V30 22166 N 2045.69 -0.62272 1.44776 0
M  V30 22167 C 2046.62 -1.74528 1.5512 0
M  V30 22168 C 2047.6 -1.65241 0.403656 0
M  V30 22169 O 2048.79 -1.83873 0.624863 0
M  V30 22170 C 2045.92 -3.13088 1.5031 0
M  V30 22171 C 2044.87 -3.37172 2.63626 0
M  V30 22172 C 2044.2 -4.75849 2.43868 0
M  V30 22173 C 2045.5 -3.28908 4.0573 0
M  V30 22174 H 2047.19 -1.66128 2.49082 0
M  V30 22175 H 2044.74 -0.797813 1.19879 0
M  V30 22176 H 2046.69 -3.91403 1.56146 0
M  V30 22177 H 2045.41 -3.22293 0.528684 0
M  V30 22178 H 2044.07 -2.61241 2.57194 0
M  V30 22179 H 2043.72 -4.81767 1.446 0
M  V30 22180 H 2043.42 -4.92921 3.19849 0
M  V30 22181 H 2044.94 -5.56383 2.51535 0
M  V30 22182 H 2046.36 -3.97117 4.13487 0
M  V30 22183 H 2044.76 -3.57513 4.8198 0
M  V30 22184 H 2045.83 -2.26581 4.28706 0
M  V30 22185 N 2047.17 -1.31814 -0.863883 0
M  V30 22186 C 2048.58 -1.10603 -1.15061 0
M  V30 22187 C 2048.78 0.119526 -2.01145 0
M  V30 22188 O 2047.84 0.807099 -2.39253 0
M  V30 22189 C 2049.15 -2.38075 -1.83686 0
M  V30 22190 C 2050.7 -2.43744 -1.96361 0
M  V30 22191 C 2051.18 -3.71113 -2.68401 0
M  V30 22192 N 2052.67 -3.72042 -2.75933 0
M  V30 22193 C 2053.4 -4.67294 -3.32301 0
M  V30 22194 N 2052.9 -5.72905 -3.89553 0
M  V30 22195 N 2054.69 -4.54804 -3.30317 0
M  V30 22196 H 2046.84 -2.10406 -0.290393 0
M  V30 22197 H 2049.11 -0.928505 -0.191264 0
M  V30 22198 H 2048.81 -3.27625 -1.27885 0
M  V30 22199 H 2048.69 -2.48336 -2.83917 0
M  V30 22200 H 2051.07 -1.54659 -2.51326 0
M  V30 22201 H 2051.15 -2.37443 -0.951544 0
M  V30 22202 H 2050.8 -4.60567 -2.14103 0
M  V30 22203 H 2050.73 -3.74682 -3.70028 0
M  V30 22204 H 2053.22 -2.95701 -2.35307 0
M  V30 22205 H 2053.53 -6.41656 -4.30694 0
M  V30 22206 H 2051.88 -5.76671 -3.87911 0
M  V30 22207 H 2055.07 -3.71468 -2.84832 0
M  V30 22208 H 2055.24 -5.29213 -3.73948 0
M  V30 22209 N 2048.65 1.07897 -1.14873 0
M  V30 22210 C 2049.87 1.84657 -0.944281 0
M  V30 22211 C 2050.3 1.8127 0.50226 0
M  V30 22212 O 2049.65 1.20159 1.35763 0
M  V30 22213 C 2049.7 3.29889 -1.45622 0
M  V30 22214 O 2048.81 4.07217 -0.651748 0
M  V30 22215 H 2048.15 0.571994 -0.337222 0
M  V30 22216 H 2050.68 1.36151 -1.52723 0
M  V30 22217 H 2050.69 3.80727 -1.46665 0
M  V30 22218 H 2049.36 3.31668 -2.50936 0
M  V30 22219 H 2047.94 3.66069 -0.710491 0
M  V30 22220 N 2050.12 0.944665 1.2615 0
M  V30 22221 C 2051.54 0.647519 1.45874 0
M  V30 22222 C 2051.74 -0.798095 1.85021 0
M  V30 22223 O 2050.8 -1.57439 1.97406 0
M  V30 22224 C 2052.11 1.61192 2.53845 0
M  V30 22225 C 2053.66 1.62201 2.67694 0
M  V30 22226 C 2054.13 2.5738 3.7884 0
M  V30 22227 N 2055.62 2.55686 3.86237 0
M  V30 22228 C 2056.36 3.26015 4.71701 0
M  V30 22229 N 2055.85 4.05782 5.61527 0
M  V30 22230 N 2057.65 3.1495 4.65578 0
M  V30 22231 H 2049.8 1.87901 0.990296 0
M  V30 22232 H 2052.06 0.807679 0.496345 0
M  V30 22233 H 2051.77 2.64402 2.31915 0
M  V30 22234 H 2051.64 1.36668 3.5157 0
M  V30 22235 H 2054.03 0.597142 2.88995 0
M  V30 22236 H 2054.11 1.9078 1.70402 0
M  V30 22237 H 2053.75 3.59987 3.5829 0
M  V30 22238 H 2053.68 2.26089 4.75596 0
M  V30 22239 H 2056.17 1.97768 3.22019 0
M  V30 22240 H 2056.49 4.56389 6.23642 0
M  V30 22241 H 2054.83 4.09882 5.61268 0
M  V30 22242 H 2058.02 2.52113 3.94407 0
M  V30 22243 H 2058.2 3.70027 5.31962 0
M  V30 22244 N 2051.6 -1.40596 0.712085 0
M  V30 22245 C 2052.53 -2.33389 0.0719438 0
M  V30 22246 C 2053.51 -1.52706 -0.749334 0
M  V30 22247 O 2054.7 -1.81185 -0.698968 0
M  V30 22248 C 2051.83 -3.36659 -0.853122 0
M  V30 22249 C 2050.78 -4.27778 -0.137724 0
M  V30 22250 C 2050.11 -5.21556 -1.17827 0
M  V30 22251 C 2051.41 -5.12521 1.00597 0
M  V30 22252 H 2053.1 -2.87169 0.847002 0
M  V30 22253 H 2050.65 -1.38077 0.408756 0
M  V30 22254 H 2052.6 -4.00511 -1.31031 0
M  V30 22255 H 2051.33 -2.81266 -1.66004 0
M  V30 22256 H 2049.98 -3.65374 0.299603 0
M  V30 22257 H 2049.63 -4.6247 -1.97814 0
M  V30 22258 H 2049.33 -5.83361 -0.704503 0
M  V30 22259 H 2050.86 -5.88285 -1.63563 0
M  V30 22260 H 2052.27 -5.69847 0.62831 0
M  V30 22261 H 2050.67 -5.83351 1.40789 0
M  V30 22262 H 2051.74 -4.48706 1.83822 0
M  V30 22263 N 2053.08 -0.458013 -1.50798 0
M  V30 22264 C 2054.31 0.10185 -2.0715 0
M  V30 22265 C 2054.73 1.33899 -1.32109 0
M  V30 22266 O 2054.09 1.77589 -0.364928 0
M  V30 22267 C 2054.14 0.381979 -3.58571 0
M  V30 22268 O 2053.24 1.46484 -3.85508 0
M  V30 22269 H 2052.58 -0.00721903 -0.663961 0
M  V30 22270 H 2055.11 -0.645297 -1.94157 0
M  V30 22271 H 2055.12 0.626354 -4.03163 0
M  V30 22272 H 2053.8 -0.522121 -4.1261 0
M  V30 22273 H 2052.37 1.20881 -3.52764 0
M  V30 22274 N 2054.56 1.56449 -0.190119 0
M  V30 22275 C 2055.81 1.96613 0.450146 0
M  V30 22276 C 2056.12 1.07965 1.63104 0
M  V30 22277 O 2057.33 1.3789 2.33877 0
M  V30 22278 C 2055.78 3.49664 0.852245 0
M  V30 22279 C 2055.39 4.46967 -0.304086 0
M  V30 22280 C 2057.14 3.98608 1.45987 0
M  V30 22281 C 2055.04 5.91281 0.118694 0
M  V30 22282 H 2053.97 0.734132 0.171947 0
M  V30 22283 H 2056.62 1.8133 -0.281345 0
M  V30 22284 H 2055.01 3.60432 1.64026 0
M  V30 22285 H 2056.18 4.47927 -1.08158 0
M  V30 22286 H 2054.49 4.08188 -0.822886 0
M  V30 22287 H 2057.09 5.039 1.78856 0
M  V30 22288 H 2057.43 3.42627 2.36458 0
M  V30 22289 H 2057.97 3.90933 0.735928 0
M  V30 22290 H 2054.71 6.51176 -0.751699 0
M  V30 22291 H 2054.23 5.93586 0.861154 0
M  V30 22292 H 2055.91 6.44605 0.556195 0
M  V30 22293 N 2056.04 -0.0835127 1.57379 0
M  V30 22294 C 2057.29 -0.783627 1.85855 0
M  V30 22295 C 2057.6 -1.79328 0.781081 0
M  V30 22296 O 2058.81 -2.54212 0.953327 0
M  V30 22297 C 2057.26 -1.44454 3.29638 0
M  V30 22298 C 2056.87 -0.474058 4.45485 0
M  V30 22299 C 2058.61 -2.1277 3.67327 0
M  V30 22300 C 2056.52 -1.14022 5.80304 0
M  V30 22301 H 2055.45 -0.296407 0.693295 0
M  V30 22302 H 2058.1 -0.0367253 1.83463 0
M  V30 22303 H 2056.48 -2.2393 3.26606 0
M  V30 22304 H 2057.66 0.290043 4.59886 0
M  V30 22305 H 2055.97 0.104026 4.1627 0
M  V30 22306 H 2058.57 -2.63365 4.65342 0
M  V30 22307 H 2058.91 -2.92187 2.96534 0
M  V30 22308 H 2059.45 -1.4014 3.72298 0
M  V30 22309 H 2056.18 -0.386619 6.54359 0
M  V30 22310 H 2055.7 -1.87547 5.69725 0
M  V30 22311 H 2057.38 -1.66341 6.25252 0
M  V30 22312 N 2057.52 -1.53558 -0.354624 0
M  V30 22313 C 2058.45 -1.83751 -1.44076 0
M  V30 22314 C 2059.43 -0.691795 -1.55397 0
M  V30 22315 O 2060.61 -0.942676 -1.69786 0
M  V30 22316 C 2057.74 -2.03721 -2.81274 0
M  V30 22317 C 2056.7 -3.19517 -2.84769 0
M  V30 22318 C 2056.02 -3.248 -4.24746 0
M  V30 22319 C 2057.32 -4.5787 -2.51301 0
M  V30 22320 H 2059.02 -2.7471 -1.19058 0
M  V30 22321 H 2056.56 -1.32182 -0.5713 0
M  V30 22322 H 2058.51 -2.23427 -3.57293 0
M  V30 22323 H 2057.24 -1.09482 -3.07703 0
M  V30 22324 H 2055.9 -2.99649 -2.11201 0
M  V30 22325 H 2055.55 -2.28177 -4.48268 0
M  V30 22326 H 2055.25 -4.02606 -4.27998 0
M  V30 22327 H 2056.77 -3.46702 -5.02623 0
M  V30 22328 H 2058.18 -4.77663 -3.17034 0
M  V30 22329 H 2056.58 -5.37998 -2.65853 0
M  V30 22330 H 2057.65 -4.62234 -1.46518 0
M  V30 22331 N 2058.99 0.615033 -1.45104 0
M  V30 22332 C 2059.93 1.73982 -1.49208 0
M  V30 22333 C 2060.94 1.58215 -0.383649 0
M  V30 22334 O 2062.13 1.66233 -0.650297 0
M  V30 22335 C 2059.23 3.11897 -1.32565 0
M  V30 22336 C 2058.4 3.53973 -2.56947 0
M  V30 22337 C 2057.46 4.70825 -2.34969 0
M  V30 22338 O 2056.49 4.78319 -3.08544 0
M  V30 22339 N 2057.69 5.63599 -1.39054 0
M  V30 22340 H 2060.45 1.70927 -2.46179 0
M  V30 22341 H 2058.01 0.800093 -1.40748 0
M  V30 22342 H 2060.01 3.87814 -1.15684 0
M  V30 22343 H 2058.58 3.09502 -0.438979 0
M  V30 22344 H 2057.8 2.68096 -2.88995 0
M  V30 22345 H 2059.08 3.78841 -3.39642 0
M  V30 22346 H 2058.48 5.60252 -0.783199 0
M  V30 22347 H 2057.04 6.39079 -1.28147 0
M  V30 22348 N 2060.47 1.3227 0.85688 0
M  V30 22349 C 2061.75 1.13324 1.59427 0
M  V30 22350 C 2062.13 -0.307216 2.08853 0
M  V30 22351 O 2061.48 -1.30347 1.87675 0
M  V30 22352 C 2061.69 2.15889 2.74213 0
M  V30 22353 C 2063.03 2.49103 3.4385 0
M  V30 22354 O 2064.06 2.14417 2.84436 0
M  V30 22355 O 2062.92 3.08555 4.51061 0
M  V30 22356 H 2060.01 0.437152 0.702016 0
M  V30 22357 H 2062.56 1.43793 0.901202 0
M  V30 22358 H 2061.33 3.12724 2.35201 0
M  V30 22359 H 2060.95 1.86401 3.51198 0
M  V30 22360 N 2061.95 -1.07287 1.15444 0
M  V30 22361 C 2063.36 -1.61368 0.939004 0
M  V30 22362 C 2063.71 -1.89196 -0.519532 0
M  V30 22363 O 2062.84 -1.65791 -1.39076 0
M  V30 22364 C 2063.43 -2.93171 1.69813 0
M  V30 22365 C 2061.99 -3.43992 1.52796 0
M  V30 22366 C 2061.14 -2.1804 1.7133 0
M  V30 22367 H 2064.09 -0.903656 1.3046 0
M  V30 22368 H 2064.11 -3.62129 1.16802 0
M  V30 22369 H 2063.62 -2.72885 2.75963 0
M  V30 22370 H 2061.72 -3.69358 0.490429 0
M  V30 22371 H 2061.84 -4.19988 2.30536 0
M  V30 22372 H 2060.2 -2.2777 1.13987 0
M  V30 22373 H 2060.98 -2.00248 2.78847 0
M  V30 22374 N 2063.43 -0.951342 -1.25647 0
M  V30 22375 C 2064.68 -0.600038 -1.92568 0
M  V30 22376 C 2064.99 0.866499 -1.7536 0
M  V30 22377 O 2066.2 1.32762 -2.36826 0
M  V30 22378 C 2064.65 -1.02246 -3.45071 0
M  V30 22379 C 2064.26 -2.51131 -3.70995 0
M  V30 22380 C 2066 -0.743532 -4.17938 0
M  V30 22381 C 2063.91 -2.87191 -5.16987 0
M  V30 22382 H 2062.84 -0.220706 -0.720975 0
M  V30 22383 H 2065.49 -1.15535 -1.42562 0
M  V30 22384 H 2063.87 -0.395588 -3.94019 0
M  V30 22385 H 2065.05 -3.18809 -3.32712 0
M  V30 22386 H 2063.36 -2.76461 -3.11381 0
M  V30 22387 H 2065.96 -0.989148 -5.25471 0
M  V30 22388 H 2066.3 0.319973 -4.15069 0
M  V30 22389 H 2066.84 -1.3306 -3.74887 0
M  V30 22390 H 2063.57 -3.92545 -5.24965 0
M  V30 22391 H 2063.09 -2.24183 -5.56329 0
M  V30 22392 H 2064.77 -2.76205 -5.85081 0
M  V30 22393 N 2064.91 1.40216 -0.719531 0
M  V30 22394 C 2065.84 2.33348 -0.08432 0
M  V30 22395 C 2066.82 1.53101 0.741225 0
M  V30 22396 O 2068 1.81553 0.68935 0
M  V30 22397 C 2065.13 3.37106 0.835256 0
M  V30 22398 C 2064.09 4.27845 0.115036 0
M  V30 22399 C 2063.41 5.22174 1.15059 0
M  V30 22400 C 2064.71 5.1198 -1.03314 0
M  V30 22401 H 2066.41 2.86716 -0.862219 0
M  V30 22402 H 2063.95 1.37858 -0.416073 0
M  V30 22403 H 2065.9 4.012 1.28905 0
M  V30 22404 H 2064.63 2.82142 1.6451 0
M  V30 22405 H 2063.29 3.6521 -0.318975 0
M  V30 22406 H 2062.94 4.63513 1.95359 0
M  V30 22407 H 2062.64 5.83727 0.673556 0
M  V30 22408 H 2064.16 5.89144 1.60441 0
M  V30 22409 H 2065.57 5.69505 -0.658522 0
M  V30 22410 H 2063.97 5.82596 -1.4388 0
M  V30 22411 H 2065.04 4.47725 -1.86199 0
M  V30 22412 N 2066.38 0.466004 1.50553 0
M  V30 22413 C 2067.63 -0.0907392 2.02297 0
M  V30 22414 C 2067.96 -1.40178 1.34835 0
M  V30 22415 O 2067.21 -1.90185 0.461328 0
M  V30 22416 C 2067.51 -0.32772 3.55894 0
M  V30 22417 C 2067.18 0.900994 4.41806 0
M  V30 22418 C 2065.84 1.23789 4.65005 0
M  V30 22419 C 2068.19 1.71933 4.92025 0
M  V30 22420 C 2065.52 2.39327 5.35667 0
M  V30 22421 C 2067.87 2.86595 5.63956 0
M  V30 22422 C 2066.54 3.20705 5.8541 0
M  V30 22423 H 2065.81 -0.0332038 0.740256 0
M  V30 22424 H 2068.45 0.619048 1.81218 0
M  V30 22425 H 2066.76 -1.1197 3.7546 0
M  V30 22426 H 2068.46 -0.772379 3.93491 0
M  V30 22427 H 2065.05 0.628519 4.23966 0
M  V30 22428 H 2069.23 1.47224 4.73961 0
M  V30 22429 H 2064.49 2.66035 5.50487 0
M  V30 22430 H 2068.66 3.50355 6.01851 0
M  V30 22431 H 2066.29 4.10341 6.39941 0
M  V30 22432 N 2067.86 -1.56346 0.198413 0
M  V30 22433 C 2069.09 -2.02502 -0.44809 0
M  V30 22434 C 2069.51 -1.07761 -1.54173 0
M  V30 22435 O 2068.87 -0.0616812 -1.81195 0
M  V30 22436 C 2068.92 -3.47073 -0.978394 0
M  V30 22437 O 2068.02 -3.55452 -2.09111 0
M  V30 22438 H 2067.36 -0.655753 -0.104324 0
M  V30 22439 H 2069.89 -2.02234 0.310265 0
M  V30 22440 H 2069.9 -3.86931 -1.29415 0
M  V30 22441 H 2068.58 -4.1552 -0.177819 0
M  V30 22442 H 2067.15 -3.27471 -1.78375 0
M  V30 22443 N 2069.34 0.0751653 -1.57421 0
M  V30 22444 C 2070.59 0.773427 -1.86715 0
M  V30 22445 C 2070.91 1.78283 -0.789938 0
M  V30 22446 O 2070.18 1.95055 0.18176 0
M  V30 22447 H 2068.76 0.288632 -0.688985 0
M  V30 22448 H 2071.42 0.0520552 -1.9483 0
M  V30 22449 H 2070.52 1.29172 -2.84114 0
M  V30 22450 N 2070.82 1.53744 0.346476 0
M  V30 22451 C 2072.04 1.75095 1.1116 0
M  V30 22452 C 2072.47 0.487459 1.81674 0
M  V30 22453 O 2071.83 -0.55973 1.72443 0
M  V30 22454 C 2071.87 2.92927 2.103 0
M  V30 22455 O 2070.98 2.62871 3.17762 0
M  V30 22456 H 2070.32 0.580905 0.321629 0
M  V30 22457 H 2072.85 2.00696 0.397762 0
M  V30 22458 H 2072.86 3.19633 2.53572 0
M  V30 22459 H 2071.53 3.84566 1.58372 0
M  V30 22460 H 2070.11 2.47043 2.79328 0
M  V30 22461 N 2072.3 -0.607329 1.45428 0
M  V30 22462 C 2073.55 -1.36242 1.48731 0
M  V30 22463 C 2073.86 -1.95145 0.13329 0
M  V30 22464 O 2075.06 -2.71464 0.0439733 0
M  V30 22465 C 2073.52 -2.46792 2.61957 0
M  V30 22466 C 2073.13 -1.94299 4.03673 0
M  V30 22467 C 2074.87 -3.238 2.74507 0
M  V30 22468 C 2072.78 -3.02333 5.0828 0
M  V30 22469 H 2071.71 -0.512076 0.553438 0
M  V30 22470 H 2074.36 -0.650885 1.71568 0
M  V30 22471 H 2072.74 -3.20632 2.32404 0
M  V30 22472 H 2073.92 -1.27167 4.42905 0
M  V30 22473 H 2072.23 -1.30036 3.95575 0
M  V30 22474 H 2074.83 -4.0438 3.4983 0
M  V30 22475 H 2075.17 -3.7482 1.8115 0
M  V30 22476 H 2075.7 -2.5706 3.03587 0
M  V30 22477 H 2072.44 -2.56229 6.03346 0
M  V30 22478 H 2071.96 -3.68031 4.73617 0
M  V30 22479 H 2073.64 -3.6671 5.33041 0
M  V30 22480 N 2073.77 -1.32722 -0.849853 0
M  V30 22481 C 2075.19 -1.11818 -1.13882 0
M  V30 22482 C 2075.39 0.0981854 -2.01261 0
M  V30 22483 O 2074.45 0.781678 -2.40096 0
M  V30 22484 C 2075.76 -2.4001 -1.81151 0
M  V30 22485 C 2077.31 -2.45813 -1.93765 0
M  V30 22486 C 2077.78 -3.73939 -2.6445 0
M  V30 22487 N 2079.27 -3.74948 -2.71971 0
M  V30 22488 C 2080.01 -4.70792 -3.27326 0
M  V30 22489 N 2079.5 -5.77005 -3.83454 0
M  V30 22490 N 2081.3 -4.58282 -3.25475 0
M  V30 22491 H 2073.45 -2.10702 -0.26806 0
M  V30 22492 H 2075.71 -0.930482 -0.181405 0
M  V30 22493 H 2075.42 -3.28963 -1.24403 0
M  V30 22494 H 2075.29 -2.51333 -2.81267 0
M  V30 22495 H 2077.68 -1.57316 -2.49671 0
M  V30 22496 H 2077.76 -2.38439 -0.926307 0
M  V30 22497 H 2077.4 -4.62812 -2.09206 0
M  V30 22498 H 2077.33 -3.78586 -3.66034 0
M  V30 22499 H 2079.82 -2.9818 -2.32157 0
M  V30 22500 H 2080.14 -6.46188 -4.23864 0
M  V30 22501 H 2078.48 -5.80753 -3.81773 0
M  V30 22502 H 2081.67 -3.74468 -2.80876 0
M  V30 22503 H 2081.85 -5.3315 -3.68314 0
M  V30 22504 N 2075.25 1.06673 -1.16011 0
M  V30 22505 C 2076.5 1.794 -0.939249 0
M  V30 22506 C 2076.83 1.87049 0.533193 0
M  V30 22507 O 2076.08 1.35544 1.4116 0
M  V30 22508 C 2076.38 3.24069 -1.50712 0
M  V30 22509 C 2076.05 3.36507 -3.00123 0
M  V30 22510 C 2074.71 3.39609 -3.4091 0
M  V30 22511 C 2077.06 3.38741 -3.96111 0
M  V30 22512 C 2074.39 3.42556 -4.76311 0
M  V30 22513 C 2076.74 3.43226 -5.31393 0
M  V30 22514 C 2075.41 3.44608 -5.71665 0
M  V30 22515 H 2074.68 0.656471 -0.343696 0
M  V30 22516 H 2077.32 1.25476 -1.44665 0
M  V30 22517 H 2075.63 3.80819 -0.921077 0
M  V30 22518 H 2077.32 3.78931 -1.31196 0
M  V30 22519 H 2073.91 3.34796 -2.676 0
M  V30 22520 H 2078.1 3.35559 -3.65669 0
M  V30 22521 H 2073.35 3.41928 -5.06848 0
M  V30 22522 H 2077.53 3.43902 -6.05561 0
M  V30 22523 H 2075.16 3.46645 -6.76566 0
M  V30 22524 N 2076.73 0.957992 1.25141 0
M  V30 22525 C 2077.68 0.472054 2.2776 0
M  V30 22526 C 2078.67 -0.459404 1.63052 0
M  V30 22527 O 2079.88 -0.335763 1.76841 0
M  V30 22528 H 2076.25 0.134161 0.739936 0
M  V30 22529 H 2078.22 1.34973 2.6613 0
M  V30 22530 C 2076.97 -0.231515 3.46928 0
M  V30 22531 H 2076.3 0.476093 3.96955 0
M  V30 22532 H 2077.74 -0.535494 4.20605 0
M  V30 22533 C 2076.2 -1.45518 3.03852 0
M  V30 22534 O 2076.73 -2.55274 3.10159 0
M  V30 22535 N 2074.93 -1.31773 2.59006 0
M  V30 22536 H 2074.48 -0.424725 2.54074 0
M  V30 22537 H 2074.44 -2.13762 2.30549 0
M  V30 22538 N 2078.21 -1.39832 0.726957 0
M  V30 22539 C 2079.14 -2.333 0.0966938 0
M  V30 22540 C 2080.12 -1.53492 -0.733095 0
M  V30 22541 O 2081.3 -1.81916 -0.679712 0
M  V30 22542 C 2078.43 -3.37545 -0.817367 0
M  V30 22543 C 2077.39 -4.279 -0.0923447 0
M  V30 22544 C 2076.71 -5.22777 -1.12288 0
M  V30 22545 C 2078.01 -5.11425 1.06028 0
M  V30 22546 H 2079.71 -2.86255 0.877412 0
M  V30 22547 H 2077.25 -1.37635 0.423378 0
M  V30 22548 H 2079.21 -4.01878 -1.26776 0
M  V30 22549 H 2077.93 -2.83011 -1.63011 0
M  V30 22550 H 2076.59 -3.65035 0.338339 0
M  V30 22551 H 2076.24 -4.64542 -1.92898 0
M  V30 22552 H 2075.94 -5.84076 -0.64259 0
M  V30 22553 H 2077.46 -5.89987 -1.57314 0
M  V30 22554 H 2078.88 -5.69148 0.688715 0
M  V30 22555 H 2077.27 -5.81825 1.46968 0
M  V30 22556 H 2078.34 -4.46731 1.88571 0
M  V30 22557 N 2079.69 -0.473982 -1.50304 0
M  V30 22558 C 2080.96 0.141727 -1.95086 0
M  V30 22559 C 2081.34 1.56703 -1.41447 0
M  V30 22560 O 2080.69 2.20021 -0.616691 0
M  V30 22561 C 2080.9 0.0820815 -3.48903 0
M  V30 22562 C 2082.25 0.26953 -4.23744 0
M  V30 22563 O 2083.27 0.158532 -3.55847 0
M  V30 22564 O 2082.13 0.494023 -5.44262 0
M  V30 22565 H 2079.23 0.110094 -0.819639 0
M  V30 22566 H 2081.77 -0.534591 -1.6106 0
M  V30 22567 H 2080.54 -0.912936 -3.80501 0
M  V30 22568 H 2080.17 0.799731 -3.89474 0
M  V30 22569 N 2081.16 1.56239 -0.206702 0
M  V30 22570 C 2082.58 1.84211 0.303832 0
M  V30 22571 C 2082.93 1.12771 1.60552 0
M  V30 22572 O 2082.05 0.392383 2.12813 0
M  V30 22573 C 2082.65 3.34173 0.558041 0
M  V30 22574 C 2081.21 3.62515 1.01292 0
M  V30 22575 C 2080.35 2.77217 0.0678344 0
M  V30 22576 H 2083.3 1.52757 -0.430235 0
M  V30 22577 H 2083.32 3.53573 1.40593 0
M  V30 22578 H 2082.84 3.8614 -0.38952 0
M  V30 22579 H 2080.94 3.15991 1.97435 0
M  V30 22580 H 2081.05 4.70617 0.8976 0
M  V30 22581 H 2079.41 2.48197 0.571888 0
M  V30 22582 H 2080.2 3.31978 -0.874377 0
M  V30 22583 N 2082.64 -0.0668159 1.57458 0
M  V30 22584 C 2083.55 -1.09665 2.0739 0
M  V30 22585 C 2084.57 -1.4208 1.00446 0
M  V30 22586 O 2085.74 -1.52157 1.31948 0
M  V30 22587 C 2082.81 -2.38952 2.51203 0
M  V30 22588 C 2081.87 -2.13463 3.72468 0
M  V30 22589 C 2081.1 -3.36585 4.14181 0
M  V30 22590 O 2081.33 -4.45889 3.55723 0
M  V30 22591 O 2080.26 -3.24505 5.06932 0
M  V30 22592 H 2084.09 -0.702443 2.95465 0
M  V30 22593 H 2081.67 -0.281287 1.46728 0
M  V30 22594 H 2083.55 -3.1503 2.79883 0
M  V30 22595 H 2082.23 -2.77742 1.66256 0
M  V30 22596 H 2081.14 -1.35074 3.48864 0
M  V30 22597 H 2082.47 -1.7955 4.58282 0
M  V30 22598 N 2084.12 -1.53926 -0.338317 0
M  V30 22599 C 2085.36 -1.73141 -1.08635 0
M  V30 22600 C 2085.73 -0.486994 -1.85721 0
M  V30 22601 O 2086.93 -0.556249 -2.62982 0
M  V30 22602 C 2085.2 -2.9631 -1.99838 0
M  V30 22603 S 2086.76 -3.3636 -2.81793 0
M  V30 22604 H 2083.57 -0.608969 -0.366984 0
M  V30 22605 H 2086.18 -1.92079 -0.364135 0
M  V30 22606 H 2084.88 -3.85045 -1.42017 0
M  V30 22607 H 2084.41 -2.79853 -2.76489 0
M  V30 22608 H 2086.43 -2.90504 -4.02271 0
M  V30 22609 N 2085.6 0.599608 -1.45748 0
M  V30 22610 C 2086.55 1.70982 -1.55028 0
M  V30 22611 C 2087.52 1.61319 -0.395631 0
M  V30 22612 O 2088.7 1.80781 -0.610146 0
M  V30 22613 C 2085.84 3.09304 -1.53052 0
M  V30 22614 C 2084.95 3.29715 -2.79127 0
M  V30 22615 C 2084.09 4.58189 -2.68769 0
M  V30 22616 C 2083.13 4.71885 -3.89861 0
M  V30 22617 N 2082.27 5.91666 -3.77989 0
M  V30 22618 H 2087.11 1.62387 -2.49869 0
M  V30 22619 H 2084.64 0.791687 -1.23979 0
M  V30 22620 H 2086.6 3.89343 -1.49893 0
M  V30 22621 H 2085.23 3.16838 -0.617561 0
M  V30 22622 H 2084.28 2.43397 -2.92339 0
M  V30 22623 H 2085.59 3.35707 -3.68921 0
M  V30 22624 H 2084.75 5.46433 -2.63621 0
M  V30 22625 H 2083.49 4.54608 -1.76587 0
M  V30 22626 H 2082.49 3.82062 -3.95359 0
M  V30 22627 H 2083.72 4.77257 -4.83118 0
M  V30 22628 H 2081.66 5.89115 -2.88582 0
M  V30 22629 H 2081.58 5.98853 -4.61423 0
M  V30 22630 H 2082.85 6.82387 -3.76787 0
M  V30 22631 N 2087.08 1.33171 0.842803 0
M  V30 22632 C 2088.32 1.25734 1.61153 0
M  V30 22633 C 2088.68 -0.175326 1.91198 0
M  V30 22634 O 2089.88 -0.37361 2.66191 0
M  V30 22635 C 2088.15 2.10432 2.88882 0
M  V30 22636 S 2089.71 2.20144 3.79582 0
M  V30 22637 H 2086.53 0.44738 0.552605 0
M  V30 22638 H 2089.13 1.68159 0.997142 0
M  V30 22639 H 2087.84 3.13563 2.64776 0
M  V30 22640 H 2087.37 1.68829 3.55331 0
M  V30 22641 H 2089.38 1.35962 4.77209 0
M  V30 22642 N 2088.56 -1.06056 1.16576 0
M  V30 22643 C 2089.78 -1.82592 0.973019 0
M  V30 22644 C 2090.2 -1.82629 -0.478773 0
M  V30 22645 O 2089.56 -1.2472 -1.33233 0
M  V30 22646 C 2089.61 -3.291 1.49585 0
M  V30 22647 O 2089.33 -3.29189 2.89078 0
M  V30 22648 C 2090.83 -4.22357 1.34647 0
M  V30 22649 H 2088.05 -0.575656 0.344763 0
M  V30 22650 H 2090.59 -1.33793 1.5466 0
M  V30 22651 H 2088.75 -3.75202 0.964496 0
M  V30 22652 H 2089.16 -4.2082 3.13066 0
M  V30 22653 H 2090.64 -5.23171 1.76056 0
M  V30 22654 H 2091.11 -4.38226 0.292348 0
M  V30 22655 H 2091.72 -3.82103 1.86755 0
M  V30 22656 N 2090.03 -0.964615 -1.24631 0
M  V30 22657 C 2091.31 -0.54181 -1.87946 0
M  V30 22658 C 2091.69 0.981047 -1.86919 0
M  V30 22659 O 2091.04 1.85109 -1.33966 0
M  V30 22660 C 2091.25 -1.12982 -3.30206 0
M  V30 22661 C 2092.6 -1.21281 -4.0691 0
M  V30 22662 O 2093.62 -1.0821 -3.39366 0
M  V30 22663 O 2092.48 -1.41904 -5.27755 0
M  V30 22664 H 2089.57 -0.180209 -0.807127 0
M  V30 22665 H 2092.12 -1.05869 -1.32627 0
M  V30 22666 H 2090.89 -2.17271 -3.25436 0
M  V30 22667 H 2090.51 -0.596798 -3.93096 0
M  V30 22668 N 2091.51 1.39445 -0.734362 0
M  V30 22669 C 2092.79 1.94487 -0.208359 0
M  V30 22670 C 2093.17 1.6712 1.28974 0
M  V30 22671 O 2092.52 0.999082 2.05501 0
M  V30 22672 C 2092.73 3.44777 -0.541289 0
M  V30 22673 C 2094.07 4.2176 -0.490275 0
M  V30 22674 O 2095.1 3.52972 -0.478443 0
M  V30 22675 O 2093.96 5.4435 -0.48425 0
M  V30 22676 H 2091.05 0.826136 -0.037802 0
M  V30 22677 H 2093.6 1.48948 -0.813177 0
M  V30 22678 H 2092.37 3.58128 -1.5767 0
M  V30 22679 H 2091.99 3.97492 0.0925302 0
M  V30 22680 N 2092.99 0.481946 1.5005 0
M  V30 22681 C 2094.41 0.13674 1.59013 0
M  V30 22682 C 2094.61 -1.35753 1.48908 0
M  V30 22683 O 2093.66 -2.1318 1.35316 0
M  V30 22684 C 2094.97 0.696597 2.9252 0
M  V30 22685 C 2096.52 0.660993 3.05941 0
M  V30 22686 C 2097 1.19858 4.42038 0
M  V30 22687 N 2098.49 1.15846 4.4848 0
M  V30 22688 C 2099.22 1.54481 5.52199 0
M  V30 22689 N 2098.72 2.00617 6.63117 0
M  V30 22690 N 2100.51 1.46016 5.42804 0
M  V30 22691 H 2092.66 1.45367 1.54862 0
M  V30 22692 H 2094.93 0.601814 0.732478 0
M  V30 22693 H 2094.63 1.74381 3.05425 0
M  V30 22694 H 2094.51 0.146249 3.76916 0
M  V30 22695 H 2096.89 -0.377335 2.92678 0
M  V30 22696 H 2096.97 1.24827 2.23275 0
M  V30 22697 H 2096.62 2.2356 4.56052 0
M  V30 22698 H 2096.55 0.587419 5.23313 0
M  V30 22699 H 2099.04 0.820197 3.68892 0
M  V30 22700 H 2099.35 2.28217 7.38334 0
M  V30 22701 H 2097.7 2.04578 6.64209 0
M  V30 22702 H 2100.89 1.09805 4.55039 0
M  V30 22703 H 2101.06 1.7645 6.23514 0
M  V30 22704 N 2094.47 -1.56127 0.214985 0
M  V30 22705 C 2095.4 -2.22991 -0.69263 0
M  V30 22706 C 2096.38 -1.19946 -1.20611 0
M  V30 22707 O 2097.56 -1.48512 -1.25131 0
M  V30 22708 C 2094.69 -2.90473 -1.90376 0
M  V30 22709 C 2093.65 -3.99933 -1.52439 0
M  V30 22710 C 2092.97 -4.54678 -2.81375 0
M  V30 22711 C 2094.27 -5.17323 -0.719325 0
M  V30 22712 H 2095.97 -2.99095 -0.135168 0
M  V30 22713 H 2093.51 -1.4386 -0.0635721 0
M  V30 22714 H 2095.47 -3.35938 -2.54408 0
M  V30 22715 H 2094.19 -2.11806 -2.48608 0
M  V30 22716 H 2092.85 -3.55189 -0.907557 0
M  V30 22717 H 2092.5 -3.72749 -3.37739 0
M  V30 22718 H 2092.2 -5.28549 -2.56729 0
M  V30 22719 H 2093.72 -5.02857 -3.46362 0
M  V30 22720 H 2095.14 -5.5921 -1.2632 0
M  V30 22721 H 2093.53 -5.97385 -0.570203 0
M  V30 22722 H 2094.6 -4.84117 0.275461 0
M  V30 22723 N 2095.95 0.0584645 -1.57492 0
M  V30 22724 C 2097.19 0.750872 -1.89033 0
M  V30 22725 C 2097.55 1.74507 -0.810254 0
M  V30 22726 O 2096.84 1.90712 0.184243 0
M  V30 22727 C 2097.03 1.48699 -3.24998 0
M  V30 22728 C 2096.86 0.565594 -4.46129 0
M  V30 22729 C 2095.63 0.197549 -5.04914 0
M  V30 22730 C 2097.83 -0.143444 -5.141 0
M  V30 22731 N 2095.81 -0.728176 -6.09566 0
M  V30 22732 C 2097.18 -0.925871 -6.13048 0
M  V30 22733 C 2099.24 -0.213507 -4.97442 0
M  V30 22734 C 2097.94 -1.77187 -6.97135 0
M  V30 22735 C 2099.97 -1.04653 -5.82067 0
M  V30 22736 C 2099.33 -1.81697 -6.80563 0
M  V30 22737 H 2095.43 0.249778 -0.741037 0
M  V30 22738 H 2098.01 0.0118869 -1.94696 0
M  V30 22739 H 2096.18 2.19661 -3.20318 0
M  V30 22740 H 2097.92 2.12946 -3.44145 0
M  V30 22741 H 2094.67 0.553344 -4.70356 0
M  V30 22742 H 2095.09 -1.18468 -6.66554 0
M  V30 22743 H 2099.74 0.367816 -4.21197 0
M  V30 22744 H 2097.45 -2.36411 -7.72745 0
M  V30 22745 H 2101.04 -1.10389 -5.71232 0
M  V30 22746 H 2099.92 -2.45115 -7.44908 0
M  V30 22747 N 2097.42 1.54103 0.330149 0
M  V30 22748 C 2098.33 1.86042 1.42918 0
M  V30 22749 C 2099.35 0.75174 1.56923 0
M  V30 22750 O 2100.53 1.04538 1.72145 0
M  V30 22751 C 2097.59 2.07533 2.77724 0
M  V30 22752 C 2096.65 3.31356 2.7295 0
M  V30 22753 C 2095.88 3.51812 4.01328 0
M  V30 22754 O 2096.11 2.75838 4.99269 0
M  V30 22755 O 2095.04 4.45275 4.04986 0
M  V30 22756 H 2098.87 2.79483 1.18839 0
M  V30 22757 H 2096.45 1.39925 0.523569 0
M  V30 22758 H 2098.33 2.23037 3.57537 0
M  V30 22759 H 2097.01 1.1728 3.01707 0
M  V30 22760 H 2095.92 3.21243 1.91712 0
M  V30 22761 H 2097.25 4.21645 2.53922 0
M  V30 22762 N 2098.9 -0.59187 1.46064 0
M  V30 22763 C 2099.87 -1.68357 1.55526 0
M  V30 22764 C 2100.87 -1.54854 0.433247 0
M  V30 22765 O 2102.06 -1.59637 0.697258 0
M  V30 22766 C 2099.19 -3.07729 1.46683 0
M  V30 22767 H 2100.38 -1.61328 2.5281 0
M  V30 22768 H 2097.93 -0.808941 1.33738 0
M  V30 22769 H 2098.67 -3.20321 0.506433 0
M  V30 22770 H 2098.45 -3.18939 2.2808 0
M  V30 22771 H 2099.94 -3.87218 1.5637 0
M  V30 22772 N 2100.38 -1.33616 -0.835729 0
M  V30 22773 C 2101.31 -1.26762 -1.96096 0
M  V30 22774 C 2102.29 -0.147563 -1.69459 0
M  V30 22775 O 2103.48 -0.33785 -1.91239 0
M  V30 22776 C 2100.61 -1.00927 -3.32312 0
M  V30 22777 C 2099.56 -2.09261 -3.73355 0
M  V30 22778 C 2098.89 -1.68635 -5.07411 0
M  V30 22779 C 2100.19 -3.50968 -3.86806 0
M  V30 22780 H 2101.88 -2.20908 -2.02089 0
M  V30 22781 H 2099.43 -1.06346 -0.970907 0
M  V30 22782 H 2101.38 -0.947809 -4.10603 0
M  V30 22783 H 2100.1 -0.0322023 -3.26584 0
M  V30 22784 H 2098.76 -2.14455 -2.97329 0
M  V30 22785 H 2098.41 -0.696223 -4.98158 0
M  V30 22786 H 2098.11 -2.41134 -5.35844 0
M  V30 22787 H 2099.63 -1.63961 -5.88175 0
M  V30 22788 H 2101.05 -3.48257 -4.55401 0
M  V30 22789 H 2099.45 -4.21978 -4.26678 0
M  V30 22790 H 2100.52 -3.89244 -2.89166 0
M  V30 22791 N 2101.86 1.05436 -1.17136 0
M  V30 22792 C 2102.77 2.16633 -0.900413 0
M  V30 22793 C 2103.78 1.7351 0.130523 0
M  V30 22794 O 2104.96 2.01342 -0.0481629 0
M  V30 22795 C 2102.03 3.4421 -0.414754 0
M  V30 22796 C 2101.09 4.01793 -1.51198 0
M  V30 22797 C 2100.32 5.23281 -1.0494 0
M  V30 22798 O 2100.54 5.70317 0.0974405 0
M  V30 22799 O 2099.48 5.73041 -1.8414 0
M  V30 22800 H 2103.3 2.42336 -1.83049 0
M  V30 22801 H 2100.89 1.15137 -0.952042 0
M  V30 22802 H 2102.77 4.21128 -0.151319 0
M  V30 22803 H 2101.44 3.20013 0.487199 0
M  V30 22804 H 2100.35 3.26326 -1.82926 0
M  V30 22805 H 2101.68 4.30304 -2.38955 0
M  V30 22806 N 2103.34 0.971211 1.24118 0
M  V30 22807 C 2104.59 0.630598 1.91589 0
M  V30 22808 C 2104.9 -0.838491 1.76716 0
M  V30 22809 O 2106.1 -1.28978 2.38908 0
M  V30 22810 C 2104.56 1.07723 3.434 0
M  V30 22811 C 2104.17 2.57002 3.66953 0
M  V30 22812 C 2105.91 0.809928 4.16702 0
M  V30 22813 C 2103.82 2.95379 5.12352 0
M  V30 22814 H 2102.75 0.232148 0.717373 0
M  V30 22815 H 2105.4 1.17789 1.40706 0
M  V30 22816 H 2103.78 0.458223 3.9334 0
M  V30 22817 H 2104.96 3.24062 3.27598 0
M  V30 22818 H 2103.27 2.8138 3.06944 0
M  V30 22819 H 2105.87 1.07262 5.23831 0
M  V30 22820 H 2106.21 -0.253899 4.15525 0
M  V30 22821 H 2106.74 1.39007 3.72722 0
M  V30 22822 H 2103.48 4.00847 5.18654 0
M  V30 22823 H 2103 2.33005 5.52692 0
M  V30 22824 H 2104.68 2.85478 5.80613 0
M  V30 22825 N 2104.81 -1.39054 0.741747 0
M  V30 22826 C 2105.78 -2.28913 0.114619 0
M  V30 22827 C 2106.78 -1.46629 -0.660038 0
M  V30 22828 O 2107.97 -1.67223 -0.488056 0
M  V30 22829 C 2105.1 -3.3022 -0.846607 0
M  V30 22830 H 2106.29 -2.85875 0.906381 0
M  V30 22831 H 2103.85 -1.47814 0.508001 0
M  V30 22832 H 2104.58 -2.78326 -1.66448 0
M  V30 22833 H 2104.37 -3.90999 -0.293686 0
M  V30 22834 H 2105.86 -3.97443 -1.28176 0
M  V30 22835 N 2106.29 -0.489897 -1.49792 0
M  V30 22836 C 2107.22 0.330983 -2.26798 0
M  V30 22837 C 2108.24 0.940504 -1.32885 0
M  V30 22838 O 2109.43 0.825724 -1.58253 0
M  V30 22839 C 2106.53 1.47994 -3.04879 0
M  V30 22840 C 2105.7 0.979767 -4.26286 0
M  V30 22841 C 2104.76 2.005 -4.86504 0
M  V30 22842 O 2103.78 1.57802 -5.46889 0
M  V30 22843 N 2104.99 3.3346 -4.75168 0
M  V30 22844 H 2107.75 -0.32926 -2.97886 0
M  V30 22845 H 2105.31 -0.321781 -1.5867 0
M  V30 22846 H 2107.3 2.16312 -3.4204 0
M  V30 22847 H 2105.87 2.04453 -2.36469 0
M  V30 22848 H 2105.09 0.121846 -3.94012 0
M  V30 22849 H 2106.38 0.623816 -5.04961 0
M  V30 22850 H 2105.78 3.70846 -4.27188 0
M  V30 22851 H 2104.34 3.97523 -5.16545 0
M  V30 22852 N 2107.77 1.56011 -0.223262 0
M  V30 22853 C 2108.7 2.23355 0.680795 0
M  V30 22854 C 2109.68 1.20584 1.19973 0
M  V30 22855 O 2110.87 1.49174 1.24342 0
M  V30 22856 C 2108 2.91478 1.88833 0
M  V30 22857 C 2106.95 4.00736 1.50316 0
M  V30 22858 C 2106.28 4.56164 2.7896 0
M  V30 22859 C 2107.58 5.17697 0.69188 0
M  V30 22860 H 2109.27 2.99162 0.119304 0
M  V30 22861 H 2106.82 1.43891 0.055942 0
M  V30 22862 H 2108.77 3.37282 2.52623 0
M  V30 22863 H 2107.49 2.13121 2.47481 0
M  V30 22864 H 2106.15 3.55665 0.888708 0
M  V30 22865 H 2105.8 3.74535 3.35757 0
M  V30 22866 H 2105.5 5.29903 2.53922 0
M  V30 22867 H 2107.02 5.04687 3.43691 0
M  V30 22868 H 2108.44 5.59872 1.23353 0
M  V30 22869 H 2106.84 5.97679 0.538515 0
M  V30 22870 H 2107.91 4.83964 -0.301131 0
M  V30 22871 N 2109.25 -0.0501116 1.5752 0
M  V30 22872 C 2110.2 -1.05718 2.05164 0
M  V30 22873 C 2111.17 -1.37182 0.936492 0
M  V30 22874 O 2112.35 -1.4788 1.20565 0
M  V30 22875 C 2109.49 -2.3594 2.51846 0
M  V30 22876 C 2108.6 -2.10818 3.77067 0
M  V30 22877 C 2107.74 -3.34759 4.12444 0
M  V30 22878 C 2106.78 -3.05097 5.30643 0
M  V30 22879 N 2105.91 -4.21429 5.61553 0
M  V30 22880 H 2110.75 -0.643931 2.9096 0
M  V30 22881 H 2108.29 -0.30636 1.43874 0
M  V30 22882 H 2110.25 -3.11999 2.7697 0
M  V30 22883 H 2108.88 -2.75027 1.68997 0
M  V30 22884 H 2107.93 -1.25352 3.59153 0
M  V30 22885 H 2109.24 -1.84923 4.63255 0
M  V30 22886 H 2108.4 -4.19199 4.38585 0
M  V30 22887 H 2107.14 -3.63748 3.24867 0
M  V30 22888 H 2106.14 -2.19056 5.04276 0
M  V30 22889 H 2107.37 -2.77407 6.19856 0
M  V30 22890 H 2105.31 -4.5041 4.76935 0
M  V30 22891 H 2105.23 -3.98884 6.42205 0
M  V30 22892 H 2106.5 -5.06804 5.92258 0
M  V30 22893 N 2110.73 -1.54276 -0.321972 0
M  V30 22894 C 2111.67 -1.84499 -1.41644 0
M  V30 22895 C 2112.67 -0.717018 -1.53477 0
M  V30 22896 O 2113.87 -0.900704 -1.55844 0
M  V30 22897 H 2110.25 -0.584855 -0.472704 0
M  V30 22898 H 2112.22 -2.76022 -1.13378 0
M  V30 22899 C 2110.97 -2.09051 -2.77836 0
M  V30 22900 H 2110.29 -2.95308 -2.69505 0
M  V30 22901 H 2111.73 -2.3415 -3.53482 0
M  V30 22902 C 2110.19 -0.882537 -3.25135 0
M  V30 22903 O 2110.72 -0.0925862 -4.01593 0
M  V30 22904 N 2108.93 -0.693729 -2.82198 0
M  V30 22905 H 2108.47 -1.33776 -2.2014 0
M  V30 22906 H 2108.43 0.113 -3.14197 0
M  V30 22907 N 2112.2 0.584116 -1.46376 0
M  V30 22908 C 2113.14 1.70791 -1.51346 0
M  V30 22909 C 2114.12 1.58388 -0.367694 0
M  V30 22910 O 2115.3 1.79623 -0.571636 0
M  V30 22911 C 2112.43 3.08833 -1.39069 0
M  V30 22912 C 2111.47 3.3976 -2.57809 0
M  V30 22913 S 2112.31 3.31988 -4.20172 0
M  V30 22914 C 2113.46 4.72569 -4.10401 0
M  V30 22915 H 2113.69 1.66316 -2.46427 0
M  V30 22916 H 2111.23 0.762743 -1.34245 0
M  V30 22917 H 2113.19 3.88469 -1.32673 0
M  V30 22918 H 2111.85 3.10799 -0.454183 0
M  V30 22919 H 2111.04 4.40328 -2.45208 0
M  V30 22920 H 2110.64 2.67688 -2.61188 0
M  V30 22921 H 2112.93 5.62922 -3.76995 0
M  V30 22922 H 2113.88 4.90227 -5.10963 0
M  V30 22923 H 2114.28 4.49353 -3.41676 0
M  V30 22924 N 2113.68 1.34058 0.828631 0
M  V30 22925 C 2114.93 1.2628 1.58686 0
M  V30 22926 C 2115.26 -0.168425 1.93468 0
M  V30 22927 O 2114.54 -1.11237 1.59551 0
M  V30 22928 C 2114.82 2.14808 2.89015 0
M  V30 22929 C 2114.67 3.66439 2.60849 0
M  V30 22930 C 2115.99 2.02902 3.90536 0
M  V30 22931 H 2113.11 0.460068 0.575766 0
M  V30 22932 H 2115.75 1.64256 0.954988 0
M  V30 22933 H 2113.9 1.82551 3.42939 0
M  V30 22934 H 2115.58 4.09036 2.13278 0
M  V30 22935 H 2113.82 3.87811 1.94384 0
M  V30 22936 H 2114.49 4.23742 3.53761 0
M  V30 22937 H 2116.97 2.31212 3.45948 0
M  V30 22938 H 2115.84 2.6708 4.79541 0
M  V30 22939 H 2116.1 1.00429 4.30542 0
M  V30 22940 N 2115.16 -1.04814 1.17694 0
M  V30 22941 C 2116.11 -2.12651 0.897118 0
M  V30 22942 C 2117.08 -1.65323 -0.160501 0
M  V30 22943 O 2118.26 -1.90787 -0.0224765 0
M  V30 22944 C 2115.4 -3.42526 0.420731 0
M  V30 22945 C 2114.52 -4.03508 1.54291 0
M  V30 22946 C 2113.65 -5.21315 1.02001 0
M  V30 22947 C 2112.69 -5.74311 2.11738 0
M  V30 22948 N 2111.83 -6.83415 1.60897 0
M  V30 22949 H 2116.67 -2.35925 1.82054 0
M  V30 22950 H 2114.2 -1.15736 0.907948 0
M  V30 22951 H 2116.16 -4.1701 0.126057 0
M  V30 22952 H 2114.79 -3.19423 -0.46572 0
M  V30 22953 H 2113.84 -3.26425 1.95323 0
M  V30 22954 H 2115.16 -4.38876 2.37042 0
M  V30 22955 H 2114.31 -6.02884 0.679408 0
M  V30 22956 H 2113.05 -4.87431 0.161982 0
M  V30 22957 H 2112.05 -4.91369 2.46651 0
M  V30 22958 H 2113.28 -6.10242 2.97963 0
M  V30 22959 H 2111.23 -6.51421 0.773715 0
M  V30 22960 H 2111.14 -7.17807 2.37252 0
M  V30 22961 H 2112.41 -7.68627 1.29741 0
M  V30 22962 N 2116.64 -0.977779 -1.23601 0
M  V30 22963 C 2117.86 -0.662789 -1.96524 0
M  V30 22964 C 2118.29 0.763086 -1.71926 0
M  V30 22965 O 2117.65 1.51941 -0.989123 0
M  V30 22966 C 2117.7 -0.95584 -3.47701 0
M  V30 22967 O 2116.8 -0.046501 -4.12374 0
M  V30 22968 H 2116.14 -0.249541 -0.615325 0
M  V30 22969 H 2118.67 -1.31066 -1.57108 0
M  V30 22970 H 2118.68 -0.891475 -3.98142 0
M  V30 22971 H 2117.36 -1.99494 -3.64932 0
M  V30 22972 H 2115.93 -0.165051 -3.72535 0
M  V30 22973 N 2118.12 1.38658 -0.749111 0
M  V30 22974 C 2119.05 2.33116 -0.133797 0
M  V30 22975 C 2120.03 1.54639 0.708583 0
M  V30 22976 O 2121.21 1.82975 0.650684 0
M  V30 22977 C 2118.34 3.38802 0.763563 0
M  V30 22978 C 2117.3 4.27993 0.0242578 0
M  V30 22979 C 2116.62 5.24497 1.03957 0
M  V30 22980 C 2117.92 5.09673 -1.14151 0
M  V30 22981 H 2119.62 2.84823 -0.922842 0
M  V30 22982 H 2117.16 1.36944 -0.445221 0
M  V30 22983 H 2119.12 4.03844 1.20366 0
M  V30 22984 H 2117.84 2.85568 1.58488 0
M  V30 22985 H 2116.5 3.64451 -0.39637 0
M  V30 22986 H 2116.15 4.67552 1.85483 0
M  V30 22987 H 2115.85 5.85024 0.549587 0
M  V30 22988 H 2117.37 5.92415 1.47908 0
M  V30 22989 H 2118.79 5.6798 -0.779174 0
M  V30 22990 H 2117.18 5.79413 -1.56206 0
M  V30 22991 H 2118.25 4.43675 -1.95654 0
M  V30 22992 N 2119.6 0.497834 1.49531 0
M  V30 22993 C 2121.01 0.0492618 1.86635 0
M  V30 22994 C 2121.36 -1.36386 1.41044 0
M  V30 22995 O 2120.48 -2.01584 0.786942 0
M  V30 22996 C 2121.08 0.0826203 3.38699 0
M  V30 22997 C 2119.64 -0.310596 3.75116 0
M  V30 22998 C 2118.78 0.456535 2.73516 0
M  V30 22999 H 2121.73 0.71078 1.41893 0
M  V30 23000 H 2121.76 -0.713419 3.73752 0
M  V30 23001 H 2121.27 1.11123 3.71851 0
M  V30 23002 H 2119.37 -1.34255 3.47572 0
M  V30 23003 H 2119.48 0.0066527 4.791 0
M  V30 23004 H 2117.85 -0.0932284 2.54529 0
M  V30 23005 H 2118.63 1.48516 3.09512 0
M  V30 23006 N 2121.07 -1.5589 0.231532 0
M  V30 23007 C 2122.32 -1.98169 -0.396667 0
M  V30 23008 C 2122.64 -1.12067 -1.59581 0
M  V30 23009 O 2121.91 -0.199942 -1.94877 0
M  V30 23010 H 2120.49 -0.731878 -0.149544 0
M  V30 23011 H 2123.15 -1.92142 0.326749 0
M  V30 23012 H 2122.25 -3.0377 -0.716243 0
M  V30 23013 N 2122.55 0.0417572 -1.57545 0
M  V30 23014 C 2123.8 0.733648 -1.88314 0
M  V30 23015 C 2124.12 1.76568 -0.827577 0
M  V30 23016 O 2123.39 1.95397 0.140345 0
M  V30 23017 H 2121.97 0.273952 -0.694953 0
M  V30 23018 H 2124.63 0.010717 -1.94897 0
M  V30 23019 H 2123.73 1.23116 -2.8679 0
M  V30 23020 N 2124.03 1.54445 0.313786 0
M  V30 23021 C 2124.96 1.87506 1.39153 0
M  V30 23022 C 2125.94 0.732752 1.53508 0
M  V30 23023 O 2127.13 0.98736 1.67227 0
M  V30 23024 C 2124.26 2.11107 2.75773 0
M  V30 23025 C 2123.21 3.26954 2.76197 0
M  V30 23026 C 2122.54 3.35947 4.15985 0
M  V30 23027 C 2123.84 4.64372 2.39073 0
M  V30 23028 H 2125.53 2.7777 1.11732 0
M  V30 23029 H 2123.08 1.33651 0.536054 0
M  V30 23030 H 2125.03 2.32821 3.51244 0
M  V30 23031 H 2123.75 1.17602 3.04692 0
M  V30 23032 H 2122.41 3.05144 2.03182 0
M  V30 23033 H 2122.06 2.39982 4.42061 0
M  V30 23034 H 2121.76 4.13812 4.17173 0
M  V30 23035 H 2123.28 3.59906 4.93254 0
M  V30 23036 H 2124.7 4.85901 3.04258 0
M  V30 23037 H 2123.09 5.44858 2.51496 0
M  V30 23038 H 2124.16 4.65956 1.34211 0
M  V30 23039 N 2125.51 -0.576345 1.46683 0
M  V30 23040 C 2126.78 -1.3367 1.428 0
M  V30 23041 C 2127.16 -2.10788 0.114803 0
M  V30 23042 O 2126.51 -2.09871 -0.903671 0
M  V30 23043 C 2126.72 -2.25735 2.66167 0
M  V30 23044 C 2128.07 -2.87363 3.12583 0
M  V30 23045 O 2129.09 -2.36045 2.6676 0
M  V30 23046 O 2127.95 -3.80589 3.92191 0
M  V30 23047 H 2125.05 -0.600913 0.568184 0
M  V30 23048 H 2127.59 -0.596834 1.58858 0
M  V30 23049 H 2126.37 -1.68221 3.53295 0
M  V30 23050 H 2125.99 -3.07049 2.52599 0
M  V30 23051 N 2126.99 -1.34495 -0.82151 0
M  V30 23052 C 2127.95 -1.2608 -1.91407 0
M  V30 23053 C 2128.95 -0.175671 -1.59838 0
M  V30 23054 O 2130.14 -0.428389 -1.6885 0
M  V30 23055 C 2127.27 -0.9469 -3.27485 0
M  V30 23056 H 2128.46 -2.23212 -2.00291 0
M  V30 23057 H 2126.02 -1.18804 -1.01565 0
M  V30 23058 H 2126.75 0.0211878 -3.24293 0
M  V30 23059 H 2126.54 -1.73181 -3.51782 0
M  V30 23060 H 2128.03 -0.913228 -4.07492 0
M  V30 23061 N 2128.46 1.04188 -1.18248 0
M  V30 23062 C 2129.71 1.7763 -0.978539 0
M  V30 23063 C 2130.04 1.87897 0.490757 0
M  V30 23064 O 2129.32 1.38617 1.36439 0
M  V30 23065 C 2129.6 3.20968 -1.63252 0
M  V30 23066 C 2129.45 3.18653 -3.1746 0
M  V30 23067 C 2130.77 4.19052 -1.34475 0
M  V30 23068 H 2127.89 0.644817 -0.356903 0
M  V30 23069 H 2130.53 1.21713 -1.45897 0
M  V30 23070 H 2128.68 3.68714 -1.22402 0
M  V30 23071 H 2130.36 2.78906 -3.67436 0
M  V30 23072 H 2128.6 2.56717 -3.49684 0
M  V30 23073 H 2129.27 4.19864 -3.58354 0
M  V30 23074 H 2131.75 3.79848 -1.69868 0
M  V30 23075 H 2130.62 5.17565 -1.82804 0
M  V30 23076 H 2130.88 4.41291 -0.267408 0
M  V30 23077 N 2129.94 0.98432 1.23081 0
M  V30 23078 C 2131.19 0.656352 1.91885 0
M  V30 23079 C 2131.52 -0.808541 1.76568 0
M  V30 23080 O 2130.8 -1.5837 1.12912 0
M  V30 23081 C 2131.08 1.05239 3.44379 0
M  V30 23082 C 2130.93 2.57521 3.68786 0
M  V30 23083 C 2132.25 0.599218 4.36002 0
M  V30 23084 H 2129.37 0.23992 0.696855 0
M  V30 23085 H 2132.01 1.22631 1.45127 0
M  V30 23086 H 2130.16 0.567423 3.84334 0
M  V30 23087 H 2131.83 3.13622 3.38288 0
M  V30 23088 H 2130.08 2.99978 3.13362 0
M  V30 23089 H 2130.75 2.80282 4.75548 0
M  V30 23090 H 2133.22 1.01565 4.03514 0
M  V30 23091 H 2132.1 0.904717 5.41393 0
M  V30 23092 H 2132.36 -0.500359 4.39259 0
M  V30 23093 N 2131.42 -1.38259 0.756453 0
M  V30 23094 C 2132.65 -2.04335 0.324799 0
M  V30 23095 C 2133.06 -1.57053 -1.04784 0
M  V30 23096 O 2132.42 -0.744882 -1.66607 0
M  V30 23097 C 2132.47 -3.59882 0.341597 0
M  V30 23098 O 2132.19 -4.0543 1.66008 0
M  V30 23099 C 2133.69 -4.43179 -0.103565 0
M  V30 23100 H 2130.91 -0.656588 0.138324 0
M  V30 23101 H 2133.46 -1.76894 1.02611 0
M  V30 23102 H 2131.61 -3.8615 -0.310997 0
M  V30 23103 H 2132.03 -4.99876 1.58822 0
M  V30 23104 H 2133.5 -5.51985 -0.0406515 0
M  V30 23105 H 2133.98 -4.23827 -1.15185 0
M  V30 23106 H 2134.58 -4.22106 0.520263 0
M  V30 23107 N 2132.9 -0.505757 -1.49264 0
M  V30 23108 C 2133.81 0.274574 -2.32988 0
M  V30 23109 C 2134.82 0.962724 -1.4494 0
M  V30 23110 O 2136 0.943054 -1.77956 0
M  V30 23111 C 2133.07 1.32231 -3.20493 0
M  V30 23112 C 2132.13 0.64709 -4.24395 0
M  V30 23113 C 2131.36 1.6449 -5.07719 0
M  V30 23114 O 2131.58 2.87523 -4.92632 0
M  V30 23115 O 2130.52 1.19761 -5.89865 0
M  V30 23116 H 2134.34 -0.410833 -3.00908 0
M  V30 23117 H 2131.93 -0.267017 -1.46994 0
M  V30 23118 H 2133.81 1.92838 -3.74689 0
M  V30 23119 H 2132.48 1.99056 -2.55262 0
M  V30 23120 H 2131.39 0.00115278 -3.741 0
M  V30 23121 H 2132.72 0.0212046 -4.92195 0
M  V30 23122 N 2134.38 1.55765 -0.239796 0
M  V30 23123 C 2135.62 1.98377 0.386152 0
M  V30 23124 C 2135.95 1.12912 1.58984 0
M  V30 23125 O 2135.22 0.210274 1.94768 0
M  V30 23126 H 2133.8 0.732661 0.145661 0
M  V30 23127 H 2136.46 1.91966 -0.336934 0
M  V30 23128 H 2135.55 3.04146 0.700123 0
M  V30 23129 N 2135.85 -0.0334016 1.57565 0
M  V30 23130 C 2137.1 -0.723651 1.887 0
M  V30 23131 C 2137.42 -1.76126 0.836929 0
M  V30 23132 O 2136.69 -1.95468 -0.12998 0
M  V30 23133 H 2135.27 -0.270263 0.696396 0
M  V30 23134 H 2137.94 -0.000381018 1.949 0
M  V30 23135 H 2137.03 -1.21594 2.87439 0
M  V30 23136 N 2137.33 -1.54609 -0.305591 0
M  V30 23137 C 2138.24 -1.88292 -1.3994 0
M  V30 23138 C 2139.26 -0.77661 -1.55707 0
M  V30 23139 O 2140.43 -1.07264 -1.7046 0
M  V30 23140 C 2137.5 -2.11925 -2.74388 0
M  V30 23141 C 2136.56 -3.35656 -2.67644 0
M  V30 23142 C 2135.79 -3.58152 -3.9568 0
M  V30 23143 O 2136.02 -2.83746 -4.94818 0
M  V30 23144 O 2134.95 -4.51662 -3.97851 0
M  V30 23145 H 2138.78 -2.81339 -1.14378 0
M  V30 23146 H 2136.36 -1.40741 -0.501242 0
M  V30 23147 H 2138.24 -2.28697 -3.53943 0
M  V30 23148 H 2136.92 -1.22065 -2.99803 0
M  V30 23149 H 2135.83 -3.24253 -1.86577 0
M  V30 23150 H 2137.16 -4.25631 -2.47182 0
M  V30 23151 N 2138.81 0.568558 -1.46987 0
M  V30 23152 C 2139.76 1.6976 -1.5901 0
M  V30 23153 C 2140.75 1.63094 -0.457903 0
M  V30 23154 O 2141.96 1.68416 -0.635295 0
M  V30 23155 H 2138.33 0.561516 -0.500203 0
M  V30 23156 H 2140.3 1.56753 -2.53911 0
M  V30 23157 C 2139.05 3.08133 -1.61089 0
M  V30 23158 H 2138.38 3.13939 -2.47553 0
M  V30 23159 H 2139.82 3.86853 -1.73554 0
M  V30 23160 C 2138.28 3.35159 -0.342082 0
M  V30 23161 O 2138.81 3.97754 0.561684 0
M  V30 23162 N 2137.01 2.89723 -0.225608 0
M  V30 23163 H 2136.56 2.38964 -0.961979 0
M  V30 23164 H 2136.52 3.08177 0.622418 0
M  V30 23165 N 2140.29 1.34929 0.814366 0
M  V30 23166 C 2141.54 1.27766 1.57105 0
M  V30 23167 C 2141.86 -0.150063 1.9392 0
M  V30 23168 O 2141.12 -1.11344 1.60938 0
M  V30 23169 C 2141.42 2.12223 2.87569 0
M  V30 23170 C 2141.08 3.61119 2.70008 0
M  V30 23171 C 2139.75 4.01706 2.64926 0
M  V30 23172 C 2142.1 4.55629 2.53084 0
M  V30 23173 C 2139.43 5.34983 2.40853 0
M  V30 23174 C 2141.78 5.89095 2.30542 0
M  V30 23175 C 2140.44 6.28836 2.23877 0
M  V30 23176 H 2139.71 0.46753 0.574889 0
M  V30 23177 H 2142.36 1.66753 0.941581 0
M  V30 23178 H 2140.66 1.66092 3.54853 0
M  V30 23179 H 2142.36 2.04022 3.45219 0
M  V30 23180 H 2138.95 3.28906 2.74807 0
M  V30 23181 H 2143.13 4.25163 2.56028 0
M  V30 23182 H 2138.39 5.64783 2.34158 0
M  V30 23183 H 2142.56 6.61913 2.16436 0
M  V30 23184 H 2140.19 7.32042 2.04986 0
M  V30 23185 N 2141.77 -1.0356 1.18799 0
M  V30 23186 C 2142.99 -1.81025 1.01216 0
M  V30 23187 C 2143.42 -1.8301 -0.434636 0
M  V30 23188 O 2142.77 -1.25115 -1.3121 0
M  V30 23189 C 2142.82 -3.24257 1.57766 0
M  V30 23190 O 2141.93 -4.04518 0.802435 0
M  V30 23191 H 2141.27 -0.559085 0.358218 0
M  V30 23192 H 2143.8 -1.30389 1.57671 0
M  V30 23193 H 2143.81 -3.75022 1.60694 0
M  V30 23194 H 2142.48 -3.22127 2.63073 0
M  V30 23195 H 2141.06 -3.6318 0.845866 0
M  V30 23196 N 2143.25 -0.990834 -1.22557 0
M  V30 23197 C 2144.49 -0.666519 -1.91534 0
M  V30 23198 C 2144.82 0.799165 -1.76994 0
M  V30 23199 O 2144.1 1.57769 -1.13751 0
M  V30 23200 C 2144.38 -1.07064 -3.43816 0
M  V30 23201 C 2144.24 -2.59473 -3.67415 0
M  V30 23202 C 2145.55 -0.622332 -4.35678 0
M  V30 23203 H 2142.67 -0.243613 -0.695573 0
M  V30 23204 H 2145.32 -1.23399 -1.44474 0
M  V30 23205 H 2143.47 -0.587797 -3.84028 0
M  V30 23206 H 2145.14 -3.15412 -3.3662 0
M  V30 23207 H 2143.38 -3.01635 -3.11767 0
M  V30 23208 H 2144.05 -2.828 -4.74055 0
M  V30 23209 H 2146.53 -1.03704 -4.0297 0
M  V30 23210 H 2145.4 -0.933416 -5.40905 0
M  V30 23211 H 2145.66 0.477057 -4.39519 0
M  V30 23212 N 2144.72 1.37856 -0.763775 0
M  V30 23213 C 2145.97 1.99488 -0.323855 0
M  V30 23214 C 2146.29 1.60934 1.10115 0
M  V30 23215 O 2145.56 0.870985 1.75473 0
M  V30 23216 H 2144.14 0.73782 -0.116753 0
M  V30 23217 H 2146.8 1.68462 -0.980132 0
M  V30 23218 H 2145.9 3.09589 -0.395113 0
M  V30 23219 N 2146.2 0.513665 1.48994 0
M  V30 23220 C 2147.13 -0.29486 2.27295 0
M  V30 23221 C 2148.15 -0.919245 1.34364 0
M  V30 23222 O 2149.34 -0.800442 1.59547 0
M  V30 23223 C 2146.44 -1.43125 3.07195 0
M  V30 23224 C 2145.61 -0.911824 4.2779 0
M  V30 23225 C 2144.67 -1.92735 4.89632 0
M  V30 23226 O 2143.69 -1.49081 5.4933 0
M  V30 23227 N 2144.9 -3.25858 4.80413 0
M  V30 23228 H 2147.66 0.376609 2.97324 0
M  V30 23229 H 2145.22 0.346983 1.58138 0
M  V30 23230 H 2147.21 -2.10843 3.45438 0
M  V30 23231 H 2145.78 -2.00665 2.39692 0
M  V30 23232 H 2145 -0.059147 3.94156 0
M  V30 23233 H 2146.29 -0.543402 5.0589 0
M  V30 23234 H 2145.69 -3.64003 4.33034 0
M  V30 23235 H 2144.25 -3.89255 5.22804 0
M  V30 23236 N 2147.68 -1.55636 0.248053 0
M  V30 23237 C 2149.1 -1.59242 -0.10677 0
M  V30 23238 C 2149.3 -1.26521 -1.56827 0
M  V30 23239 O 2148.35 -1.01308 -2.31285 0
M  V30 23240 C 2149.66 -2.99713 0.243455 0
M  V30 23241 C 2151.21 -3.12436 0.187848 0
M  V30 23242 C 2151.69 -4.55128 0.512122 0
M  V30 23243 N 2153.18 -4.60884 0.462665 0
M  V30 23244 C 2153.91 -5.69273 0.686723 0
M  V30 23245 N 2153.41 -6.8592 0.973967 0
M  V30 23246 N 2155.2 -5.587 0.617351 0
M  V30 23247 H 2147.35 -1.75175 1.20114 0
M  V30 23248 H 2149.62 -0.81551 0.483371 0
M  V30 23249 H 2149.32 -3.28399 1.25884 0
M  V30 23250 H 2149.2 -3.74754 -0.428884 0
M  V30 23251 H 2151.58 -2.8353 -0.818215 0
M  V30 23252 H 2151.66 -2.39667 0.894055 0
M  V30 23253 H 2151.31 -4.84755 1.51575 0
M  V30 23254 H 2151.24 -5.26159 -0.215575 0
M  V30 23255 H 2153.73 -3.77076 0.249427 0
M  V30 23256 H 2154.04 -7.64459 1.13232 0
M  V30 23257 H 2152.39 -6.87601 1.01145 0
M  V30 23258 H 2155.58 -4.66447 0.392982 0
M  V30 23259 H 2155.75 -6.431 0.795363 0
M  V30 23260 N 2149.16 0.0250451 -1.5758 0
M  V30 23261 C 2150.09 1.05207 -2.03627 0
M  V30 23262 C 2151.1 1.32224 -0.949769 0
M  V30 23263 O 2152.29 1.29641 -1.22701 0
M  V30 23264 C 2149.39 2.39277 -2.39999 0
M  V30 23265 C 2148.56 2.31559 -3.71078 0
M  V30 23266 C 2147.62 3.48111 -3.94595 0
M  V30 23267 O 2146.65 3.27424 -4.65599 0
M  V30 23268 N 2147.85 4.70117 -3.40545 0
M  V30 23269 H 2150.62 0.659567 -2.92352 0
M  V30 23270 H 2148.18 0.212915 -1.60494 0
M  V30 23271 H 2150.17 3.15976 -2.52866 0
M  V30 23272 H 2148.74 2.70358 -1.56924 0
M  V30 23273 H 2147.96 1.39933 -3.68527 0
M  V30 23274 H 2149.25 2.23549 -4.57059 0
M  V30 23275 H 2148.65 4.89824 -2.83 0
M  V30 23276 H 2147.2 5.44167 -3.58784 0
M  V30 23277 N 2150.64 1.54769 0.297388 0
M  V30 23278 C 2151.57 1.88972 1.37157 0
M  V30 23279 C 2152.55 0.748993 1.52722 0
M  V30 23280 O 2153.73 1.00504 1.6617 0
M  V30 23281 C 2150.86 2.1402 2.73519 0
M  V30 23282 C 2149.82 3.29865 2.72714 0
M  V30 23283 C 2149.14 3.4034 4.12399 0
M  V30 23284 C 2150.44 4.66881 2.34135 0
M  V30 23285 H 2152.14 2.7894 1.0878 0
M  V30 23286 H 2149.68 1.34212 0.521848 0
M  V30 23287 H 2151.63 2.36533 3.48755 0
M  V30 23288 H 2150.36 1.20827 3.03428 0
M  V30 23289 H 2149.02 3.07281 1.99934 0
M  V30 23290 H 2148.67 2.44657 4.3949 0
M  V30 23291 H 2148.37 4.18214 4.1276 0
M  V30 23292 H 2149.89 3.65118 4.89409 0
M  V30 23293 H 2151.3 4.89101 2.99087 0
M  V30 23294 H 2149.7 5.47495 2.45703 0
M  V30 23295 H 2150.77 4.67354 1.29261 0
M  V30 23296 N 2152.11 -0.560755 1.47286 0
M  V30 23297 C 2153.36 -1.31809 1.53729 0
M  V30 23298 C 2153.69 -1.93489 0.198079 0
M  V30 23299 O 2152.94 -1.78211 -0.808664 0
M  V30 23300 C 2153.24 -2.45125 2.60093 0
M  V30 23301 C 2152.91 -2.01298 4.03472 0
M  V30 23302 C 2151.57 -1.89062 4.42503 0
M  V30 23303 C 2153.92 -1.67796 4.93451 0
M  V30 23304 C 2151.25 -1.41613 5.69353 0
M  V30 23305 C 2153.6 -1.21819 6.2076 0
M  V30 23306 C 2152.27 -1.08176 6.58676 0
M  V30 23307 H 2151.54 -0.482323 0.562535 0
M  V30 23308 H 2154.18 -0.629194 1.80868 0
M  V30 23309 H 2152.49 -3.19555 2.26697 0
M  V30 23310 H 2154.19 -3.03313 2.62302 0
M  V30 23311 H 2150.78 -2.11764 3.72631 0
M  V30 23312 H 2154.96 -1.76124 4.63998 0
M  V30 23313 H 2150.22 -1.29712 5.97482 0
M  V30 23314 H 2154.39 -0.949566 6.89896 0
M  V30 23315 H 2152.02 -0.711868 7.5686 0
M  V30 23316 N 2153.59 -1.35359 -0.807199 0
M  V30 23317 C 2154.83 -1.29962 -1.57763 0
M  V30 23318 C 2155.2 0.124572 -1.91595 0
M  V30 23319 O 2156.4 0.302903 -2.67088 0
M  V30 23320 C 2154.67 -2.18018 -2.83202 0
M  V30 23321 S 2156.23 -2.3013 -3.73611 0
M  V30 23322 H 2153.04 -0.461874 -0.540549 0
M  V30 23323 H 2155.65 -1.70743 -0.952207 0
M  V30 23324 H 2154.35 -3.20473 -2.56369 0
M  V30 23325 H 2153.88 -1.78191 -3.5073 0
M  V30 23326 H 2155.9 -1.48567 -4.73437 0
M  V30 23327 N 2155.07 1.02928 -1.19346 0
M  V30 23328 C 2156 2.13099 -0.954528 0
M  V30 23329 C 2156.98 1.69731 0.111965 0
M  V30 23330 O 2158.17 1.94152 -0.0429718 0
M  V30 23331 C 2155.3 3.43798 -0.491955 0
M  V30 23332 C 2154.25 4.00845 -1.50024 0
M  V30 23333 C 2153.58 5.2716 -0.894759 0
M  V30 23334 C 2154.88 4.35699 -2.88035 0
M  V30 23335 H 2156.57 2.33345 -1.87592 0
M  V30 23336 H 2154.12 1.1214 -0.903366 0
M  V30 23337 H 2156.07 4.20243 -0.312095 0
M  V30 23338 H 2154.79 3.23272 0.46503 0
M  V30 23339 H 2153.45 3.26495 -1.66724 0
M  V30 23340 H 2153.1 5.02952 0.0697668 0
M  V30 23341 H 2152.8 5.66291 -1.56805 0
M  V30 23342 H 2154.32 6.06272 -0.725685 0
M  V30 23343 H 2155.74 5.03083 -2.7492 0
M  V30 23344 H 2154.13 4.8591 -3.52152 0
M  V30 23345 H 2155.2 3.45019 -3.4072 0
M  V30 23346 N 2156.55 0.997319 1.2203 0
M  V30 23347 C 2157.51 0.556352 2.22345 0
M  V30 23348 C 2158.51 -0.363165 1.56645 0
M  V30 23349 O 2159.7 -0.154511 1.73513 0
M  V30 23350 C 2156.83 -0.190172 3.40369 0
M  V30 23351 H 2158.03 1.44355 2.62872 0
M  V30 23352 H 2155.58 0.784999 1.35157 0
M  V30 23353 H 2156.31 -1.09315 3.05321 0
M  V30 23354 H 2156.1 0.470115 3.89272 0
M  V30 23355 H 2157.59 -0.486708 4.14754 0
M  V30 23356 N 2158.03 -1.37449 0.771075 0
M  V30 23357 C 2159.44 -1.53106 0.450629 0
M  V30 23358 C 2159.64 -1.72957 -1.03384 0
M  V30 23359 O 2158.7 -1.75055 -1.81967 0
M  V30 23360 C 2160.01 -2.72792 1.26511 0
M  V30 23361 C 2161.56 -2.86653 1.25695 0
M  V30 23362 C 2162.03 -4.09321 2.05477 0
M  V30 23363 N 2163.53 -4.16432 2.02827 0
M  V30 23364 C 2164.26 -5.10381 2.61341 0
M  V30 23365 N 2163.76 -6.09892 3.2864 0
M  V30 23366 N 2165.55 -5.02859 2.51175 0
M  V30 23367 H 2157.7 -1.22815 1.73292 0
M  V30 23368 H 2159.96 -0.597977 0.735614 0
M  V30 23369 H 2159.67 -2.64586 2.31705 0
M  V30 23370 H 2159.54 -3.66457 0.893837 0
M  V30 23371 H 2161.93 -2.9433 0.213001 0
M  V30 23372 H 2162.01 -1.93949 1.66786 0
M  V30 23373 H 2161.66 -4.02404 3.09892 0
M  V30 23374 H 2161.59 -5.01137 1.61768 0
M  V30 23375 H 2164.08 -3.45173 1.53831 0
M  V30 23376 H 2164.39 -6.78106 3.70664 0
M  V30 23377 H 2162.73 -6.10172 3.32738 0
M  V30 23378 H 2165.93 -4.24063 1.98213 0
M  V30 23379 H 2166.1 -5.75893 2.97071 0
M  V30 23380 N 2159.5 -0.52156 -1.4872 0
M  V30 23381 C 2160.47 0.234979 -2.27992 0
M  V30 23382 C 2161.47 0.875433 -1.34881 0
M  V30 23383 O 2162.66 0.736784 -1.57852 0
M  V30 23384 C 2159.79 1.33914 -3.13496 0
M  V30 23385 H 2160.98 -0.460907 -2.96337 0
M  V30 23386 H 2158.54 -0.277206 -1.53822 0
M  V30 23387 H 2159.27 2.06854 -2.49763 0
M  V30 23388 H 2159.06 0.885123 -3.81979 0
M  V30 23389 H 2160.55 1.8715 -3.73316 0
M  V30 23390 N 2160.98 1.55502 -0.256304 0
M  V30 23391 C 2162.23 1.99168 0.365812 0
M  V30 23392 C 2162.56 1.14455 1.57259 0
M  V30 23393 O 2161.81 0.197615 1.947 0
M  V30 23394 C 2162.11 3.48098 0.810077 0
M  V30 23395 C 2161.78 4.49967 -0.289975 0
M  V30 23396 C 2160.44 4.77544 -0.592079 0
M  V30 23397 C 2162.79 5.10877 -1.03217 0
M  V30 23398 C 2160.12 5.63304 -1.64029 0
M  V30 23399 C 2162.47 5.97775 -2.06996 0
M  V30 23400 C 2161.14 6.23681 -2.37861 0
M  V30 23401 H 2160.41 0.728809 0.13386 0
M  V30 23402 H 2163.05 1.87968 -0.366092 0
M  V30 23403 H 2161.36 3.56679 1.62134 0
M  V30 23404 H 2163.05 3.79279 1.30186 0
M  V30 23405 H 2159.64 4.28577 -0.0443795 0
M  V30 23406 H 2163.83 4.89612 -0.812025 0
M  V30 23407 H 2159.08 5.81628 -1.88465 0
M  V30 23408 H 2163.26 6.44013 -2.64992 0
M  V30 23409 H 2160.89 6.89929 -3.19221 0
M  V30 23410 N 2162.46 -0.0166879 1.57591 0
M  V30 23411 C 2163.71 -0.706033 1.90113 0
M  V30 23412 C 2164.04 -1.74339 0.855541 0
M  V30 23413 O 2163.31 -1.94079 -0.127874 0
M  V30 23414 C 2163.6 -1.36436 3.33253 0
M  V30 23415 C 2163.45 -0.339675 4.48516 0
M  V30 23416 C 2164.77 -2.29505 3.7552 0
M  V30 23417 H 2161.89 -0.255199 0.691406 0
M  V30 23418 H 2164.53 0.0311796 1.89974 0
M  V30 23419 H 2162.68 -1.99271 3.33501 0
M  V30 23420 H 2164.35 0.287715 4.60402 0
M  V30 23421 H 2162.6 0.339799 4.32467 0
M  V30 23422 H 2163.27 -0.839026 5.45586 0
M  V30 23423 H 2165.74 -1.76702 3.76717 0
M  V30 23424 H 2164.62 -2.72542 4.76458 0
M  V30 23425 H 2164.88 -3.16708 3.08461 0
M  V30 23426 N 2163.94 -1.54924 -0.289176 0
M  V30 23427 C 2165.35 -1.46402 -0.635496 0
M  V30 23428 C 2165.55 -0.664874 -1.90215 0
M  V30 23429 O 2164.61 -0.17727 -2.51877 0
M  V30 23430 C 2165.92 -2.90475 -0.777494 0
M  V30 23431 C 2167.47 -3.0059 -0.872609 0
M  V30 23432 C 2167.95 -4.45884 -1.04651 0
M  V30 23433 N 2169.44 -4.49643 -1.11243 0
M  V30 23434 C 2170.17 -5.59261 -1.2655 0
M  V30 23435 N 2169.67 -6.78778 -1.38679 0
M  V30 23436 N 2171.46 -5.46972 -1.29532 0
M  V30 23437 H 2163.61 -2.05345 0.542893 0
M  V30 23438 H 2165.88 -0.930495 0.181335 0
M  V30 23439 H 2165.58 -3.51603 0.0825272 0
M  V30 23440 H 2165.46 -3.3857 -1.66284 0
M  V30 23441 H 2167.84 -2.39568 -1.72311 0
M  V30 23442 H 2167.92 -2.55773 0.0370062 0
M  V30 23443 H 2167.57 -5.07503 -0.200734 0
M  V30 23444 H 2167.5 -4.88342 -1.97053 0
M  V30 23445 H 2169.99 -3.63543 -1.03175 0
M  V30 23446 H 2170.3 -7.58074 -1.50147 0
M  V30 23447 H 2168.65 -6.81621 -1.35713 0
M  V30 23448 H 2171.84 -4.52543 -1.19675 0
M  V30 23449 H 2172.01 -6.32448 -1.41117 0
M  V30 23450 N 2165.42 0.552936 -1.47582 0
M  V30 23451 C 2166.36 1.65963 -1.60389 0
M  V30 23452 C 2167.33 1.59979 -0.446754 0
M  V30 23453 O 2168.52 1.78749 -0.667351 0
M  V30 23454 C 2165.66 3.04278 -1.62815 0
M  V30 23455 C 2164.77 3.20668 -2.89476 0
M  V30 23456 C 2163.91 4.49406 -2.8321 0
M  V30 23457 C 2162.95 4.59243 -4.04676 0
M  V30 23458 N 2162.08 5.79341 -3.96621 0
M  V30 23459 H 2166.92 1.54355 -2.54909 0
M  V30 23460 H 2164.46 0.751844 -1.26435 0
M  V30 23461 H 2166.42 3.84377 -1.62204 0
M  V30 23462 H 2165.05 3.14712 -0.718048 0
M  V30 23463 H 2164.1 2.33973 -2.99935 0
M  V30 23464 H 2165.41 3.238 -3.79414 0
M  V30 23465 H 2164.57 5.3777 -2.80872 0
M  V30 23466 H 2163.3 4.4876 -1.90961 0
M  V30 23467 H 2162.31 3.69291 -4.07314 0
M  V30 23468 H 2163.53 4.61645 -4.98057 0
M  V30 23469 H 2161.48 5.79636 -3.07178 0
M  V30 23470 H 2161.4 5.8387 -4.80242 0
M  V30 23471 H 2162.67 6.70054 -3.98306 0
M  V30 23472 N 2166.89 1.35785 0.800009 0
M  V30 23473 C 2168.12 1.32717 1.59377 0
M  V30 23474 C 2168.54 -0.0914251 1.87878 0
M  V30 23475 O 2167.9 -1.06023 1.47068 0
M  V30 23476 C 2167.95 2.14589 2.898 0
M  V30 23477 O 2167.05 1.53112 3.82924 0
M  V30 23478 H 2166.4 0.45473 0.483856 0
M  V30 23479 H 2168.93 1.7892 0.992412 0
M  V30 23480 H 2168.94 2.26784 3.39165 0
M  V30 23481 H 2167.61 3.17717 2.68382 0
M  V30 23482 H 2166.19 1.49795 3.41491 0
M  V30 23483 N 2168.37 -1.02294 1.19891 0
M  V30 23484 C 2169.6 -1.79941 1.03131 0
M  V30 23485 C 2170.02 -1.8346 -0.415201 0
M  V30 23486 O 2169.38 -1.26499 -1.29876 0
M  V30 23487 C 2169.43 -3.22565 1.61196 0
M  V30 23488 O 2168.53 -4.03644 0.845295 0
M  V30 23489 H 2167.87 -0.555254 0.364128 0
M  V30 23490 H 2170.4 -1.28709 1.59045 0
M  V30 23491 H 2170.41 -3.73296 1.64663 0
M  V30 23492 H 2169.09 -3.19318 2.66474 0
M  V30 23493 H 2167.67 -3.62262 0.884338 0
M  V30 23494 N 2169.85 -1.00378 -1.21499 0
M  V30 23495 C 2171.1 -0.681173 -1.8985 0
M  V30 23496 C 2171.41 0.791343 -1.78877 0
M  V30 23497 O 2172.62 1.22598 -2.42244 0
M  V30 23498 C 2171.07 -1.1679 -3.40424 0
M  V30 23499 C 2170.68 -2.6664 -3.6001 0
M  V30 23500 C 2172.43 -0.920124 -4.14408 0
M  V30 23501 C 2170.33 -3.0886 -5.04341 0
M  V30 23502 H 2169.26 -0.251086 -0.710965 0
M  V30 23503 H 2171.91 -1.21478 -1.37533 0
M  V30 23504 H 2170.3 -0.562349 -3.91987 0
M  V30 23505 H 2171.47 -3.32634 -3.18891 0
M  V30 23506 H 2169.79 -2.89419 -2.99376 0
M  V30 23507 H 2172.38 -1.21113 -5.20803 0
M  V30 23508 H 2172.73 0.143641 -4.16052 0
M  V30 23509 H 2173.26 -1.4884 -3.68906 0
M  V30 23510 H 2170 -4.14458 -5.07844 0
M  V30 23511 H 2169.52 -2.47577 -5.4632 0
M  V30 23512 H 2171.2 -3.00772 -5.7284 0
M  V30 23513 N 2171.33 1.37038 -0.778354 0
M  V30 23514 C 2172.26 2.3278 -0.183215 0
M  V30 23515 C 2173.24 1.56107 0.675623 0
M  V30 23516 O 2174.42 1.84314 0.611726 0
M  V30 23517 C 2171.55 3.40346 0.691526 0
M  V30 23518 C 2170.51 4.27948 -0.0665313 0
M  V30 23519 C 2169.83 5.26584 0.928085 0
M  V30 23520 C 2171.13 5.07137 -1.24936 0
M  V30 23521 H 2172.83 2.82801 -0.983049 0
M  V30 23522 H 2170.37 1.35969 -0.474169 0
M  V30 23523 H 2172.33 4.06306 1.11773 0
M  V30 23524 H 2171.05 2.88866 1.52395 0
M  V30 23525 H 2169.71 3.63528 -0.473586 0
M  V30 23526 H 2169.36 4.71381 1.75524 0
M  V30 23527 H 2169.06 5.86058 0.425371 0
M  V30 23528 H 2170.58 5.95419 1.35309 0
M  V30 23529 H 2172 5.662 -0.899476 0
M  V30 23530 H 2170.39 5.7597 -1.68461 0
M  V30 23531 H 2171.46 4.39425 -2.05021 0
M  V30 23532 N 2172.81 0.529439 1.48441 0
M  V30 23533 C 2174.06 -0.00685445 2.01699 0
M  V30 23534 C 2174.37 -1.35375 1.41184 0
M  V30 23535 O 2175.58 -1.97838 1.85937 0
M  V30 23536 C 2174.03 -0.0626135 3.59846 0
M  V30 23537 C 2173.64 1.27936 4.29344 0
M  V30 23538 C 2175.38 -0.547764 4.20951 0
M  V30 23539 C 2173.29 1.18421 5.79422 0
M  V30 23540 H 2172.22 -0.00633228 0.753973 0
M  V30 23541 H 2174.87 0.673137 1.70708 0
M  V30 23542 H 2173.25 -0.80767 3.87676 0
M  V30 23543 H 2174.43 2.03994 4.13187 0
M  V30 23544 H 2172.74 1.7002 3.80108 0
M  V30 23545 H 2175.34 -0.636907 5.30893 0
M  V30 23546 H 2175.68 -1.55341 3.86232 0
M  V30 23547 H 2176.22 0.141593 3.97548 0
M  V30 23548 H 2172.95 2.16499 6.18715 0
M  V30 23549 H 2172.47 0.464988 5.97995 0
M  V30 23550 H 2174.15 0.874656 6.41061 0
M  V30 23551 N 2174.29 -1.55364 0.264547 0
M  V30 23552 C 2175.22 -2.18186 -0.66858 0
M  V30 23553 C 2176.2 -1.13943 -1.15999 0
M  V30 23554 O 2177.38 -1.42416 -1.2349 0
M  V30 23555 C 2174.51 -2.79667 -1.9106 0
M  V30 23556 C 2173.55 -3.9712 -1.55557 0
M  V30 23557 S 2174.39 -5.31627 -0.642877 0
M  V30 23558 C 2175.54 -5.96571 -1.89351 0
M  V30 23559 H 2175.78 -2.96994 -0.134756 0
M  V30 23560 H 2173.31 -1.54323 0.0488718 0
M  V30 23561 H 2175.27 -3.15721 -2.62355 0
M  V30 23562 H 2173.93 -2.00772 -2.41556 0
M  V30 23563 H 2173.12 -4.38791 -2.47949 0
M  V30 23564 H 2172.72 -3.62434 -0.922906 0
M  V30 23565 H 2175.01 -6.15161 -2.83871 0
M  V30 23566 H 2175.96 -6.91594 -1.52 0
M  V30 23567 H 2176.37 -5.25819 -2.05364 0
M  V30 23568 N 2175.76 0.00833021 -1.57598 0
M  V30 23569 C 2177.04 0.731485 -1.81407 0
M  V30 23570 C 2177.42 1.9245 -0.867544 0
M  V30 23571 O 2176.77 2.28339 0.0856431 0
M  V30 23572 C 2176.98 1.14505 -3.29681 0
M  V30 23573 C 2178.33 1.55237 -3.95205 0
M  V30 23574 O 2179.35 1.23907 -3.33954 0
M  V30 23575 O 2178.21 2.13464 -5.03086 0
M  V30 23576 H 2175.3 0.355455 -0.746713 0
M  V30 23577 H 2177.85 -0.0164849 -1.69692 0
M  V30 23578 H 2176.62 0.294315 -3.90192 0
M  V30 23579 H 2176.24 1.95238 -3.46364 0
M  V30 23580 N 2177.24 1.55075 0.280956 0
M  V30 23581 C 2178.15 1.90495 1.36927 0
M  V30 23582 C 2179.17 0.801283 1.54452 0
M  V30 23583 O 2180.34 1.09962 1.68732 0
M  V30 23584 C 2177.41 2.16264 2.70981 0
M  V30 23585 C 2176.47 3.39872 2.6227 0
M  V30 23586 C 2175.7 3.64402 3.89932 0
M  V30 23587 O 2175.93 2.91582 4.90241 0
M  V30 23588 O 2174.86 4.57934 3.90615 0
M  V30 23589 H 2178.69 2.83123 1.09888 0
M  V30 23590 H 2176.27 1.4152 0.478787 0
M  V30 23591 H 2178.15 2.34299 3.5026 0
M  V30 23592 H 2176.83 1.2682 2.97823 0
M  V30 23593 H 2175.73 3.2718 1.81395 0
M  V30 23594 H 2177.07 4.2951 2.40379 0
M  V30 23595 N 2178.72 -0.545102 1.47873 0
M  V30 23596 C 2179.68 -1.63324 1.60804 0
M  V30 23597 C 2180.68 -1.53397 0.482294 0
M  V30 23598 O 2181.87 -1.57338 0.747692 0
M  V30 23599 C 2179 -3.02906 1.56399 0
M  V30 23600 H 2180.2 -1.53204 2.57815 0
M  V30 23601 H 2177.75 -0.765983 1.36244 0
M  V30 23602 H 2178.49 -3.18548 0.608084 0
M  V30 23603 H 2178.27 -3.11521 2.38112 0
M  V30 23604 H 2179.76 -3.82048 1.6861 0
M  V30 23605 N 2180.2 -1.36208 -0.792797 0
M  V30 23606 C 2181.43 -1.33396 -1.58155 0
M  V30 23607 C 2181.84 0.0855356 -1.88606 0
M  V30 23608 O 2181.2 1.04147 -1.49865 0
M  V30 23609 C 2181.25 -2.15213 -2.90458 0
M  V30 23610 O 2180.97 -3.51629 -2.61321 0
M  V30 23611 C 2182.47 -2.20144 -3.84775 0
M  V30 23612 H 2179.69 -0.457713 -0.490652 0
M  V30 23613 H 2182.23 -1.79258 -0.984222 0
M  V30 23614 H 2180.39 -1.72915 -3.46669 0
M  V30 23615 H 2180.8 -3.94282 -3.45893 0
M  V30 23616 H 2182.28 -2.81755 -4.74677 0
M  V30 23617 H 2182.75 -1.20396 -4.22376 0
M  V30 23618 H 2183.36 -2.62663 -3.34497 0
M  V30 23619 N 2181.68 1.01656 -1.20431 0
M  V30 23620 C 2182.64 2.0836 -0.954918 0
M  V30 23621 C 2183.64 1.6065 0.0695469 0
M  V30 23622 O 2184.83 1.73402 -0.166517 0
M  V30 23623 C 2181.96 3.38079 -0.43765 0
M  V30 23624 H 2183.15 2.31919 -1.90142 0
M  V30 23625 H 2180.71 1.18457 -1.01969 0
M  V30 23626 H 2181.44 3.20196 0.514313 0
M  V30 23627 H 2181.23 3.74034 -1.17646 0
M  V30 23628 H 2182.72 4.16642 -0.282649 0
M  V30 23629 N 2183.15 1.01021 1.20965 0
M  V30 23630 C 2184.38 0.714661 1.94698 0
M  V30 23631 C 2184.8 -0.717235 1.73889 0
M  V30 23632 O 2184.16 -1.49265 1.02906 0
M  V30 23633 C 2184.21 1.04769 3.45045 0
M  V30 23634 O 2183.31 0.155818 4.12106 0
M  V30 23635 H 2182.65 0.265768 0.608493 0
M  V30 23636 H 2185.18 1.35186 1.53577 0
M  V30 23637 H 2185.19 0.996722 3.95638 0
M  V30 23638 H 2183.87 2.09099 3.59514 0
M  V30 23639 H 2182.45 0.263764 3.71966 0
M  V30 23640 N 2184.63 -1.36623 0.78561 0
M  V30 23641 C 2185.88 -1.98589 0.352861 0
M  V30 23642 C 2186.19 -1.63058 -1.08035 0
M  V30 23643 O 2187.4 -2.1823 -1.61518 0
M  V30 23644 C 2185.86 -3.55196 0.579953 0
M  V30 23645 C 2185.46 -3.99656 2.02433 0
M  V30 23646 C 2187.21 -4.23973 0.21152 0
M  V30 23647 C 2185.11 -5.49026 2.19828 0
M  V30 23648 H 2184.04 -0.743022 0.128194 0
M  V30 23649 H 2186.7 -1.55971 0.966705 0
M  V30 23650 H 2185.08 -3.95865 -0.103548 0
M  V30 23651 H 2186.25 -3.70197 2.74392 0
M  V30 23652 H 2184.57 -3.43705 2.35065 0
M  V30 23653 H 2187.16 -5.33743 0.319819 0
M  V30 23654 H 2187.51 -4.07739 -0.839914 0
M  V30 23655 H 2188.04 -3.88654 0.848108 0
M  V30 23656 H 2184.78 -5.70203 3.23341 0
M  V30 23657 H 2184.3 -5.80124 1.52369 0
M  V30 23658 H 2185.98 -6.15196 2.00358 0
M  V30 23659 N 2186.11 -0.537304 -1.48158 0
M  V30 23660 C 2187.39 0.0588571 -1.95511 0
M  V30 23661 C 2187.77 1.50563 -1.47966 0
M  V30 23662 O 2187.11 2.17207 -0.709454 0
M  V30 23663 C 2187.32 -0.0659743 -3.48938 0
M  V30 23664 C 2188.67 0.089563 -4.24506 0
M  V30 23665 O 2189.7 0.00746266 -3.56199 0
M  V30 23666 O 2188.56 0.262738 -5.45868 0
M  V30 23667 H 2185.65 0.0752315 -0.823571 0
M  V30 23668 H 2188.2 -0.60242 -1.58647 0
M  V30 23669 H 2186.97 -1.0735 -3.76287 0
M  V30 23670 H 2186.59 0.633822 -3.92516 0
M  V30 23671 N 2187.59 1.55221 -0.272782 0
M  V30 23672 C 2188.52 2.18538 0.657 0
M  V30 23673 C 2189.5 1.14556 1.15393 0
M  V30 23674 O 2190.68 1.43069 1.22733 0
M  V30 23675 C 2187.81 2.80676 1.89575 0
M  V30 23676 C 2186.86 3.97939 1.53449 0
M  V30 23677 S 2187.69 5.31961 0.614675 0
M  V30 23678 C 2188.85 5.97567 1.86185 0
M  V30 23679 H 2189.08 2.97062 0.119003 0
M  V30 23680 H 2186.61 1.54295 -0.0570552 0
M  V30 23681 H 2188.57 3.17108 2.60677 0
M  V30 23682 H 2187.23 2.0205 2.40488 0
M  V30 23683 H 2186.42 4.401 2.45618 0
M  V30 23684 H 2186.03 3.62918 0.903673 0
M  V30 23685 H 2188.32 6.16658 2.80605 0
M  V30 23686 H 2189.26 6.9239 1.4833 0
M  V30 23687 H 2189.67 5.26901 2.02573 0
M  V30 23688 N 2189.07 2.77022e-05 1.576 0
M  V30 23689 C 2190.03 -0.976217 2.07371 0
M  V30 23690 C 2191.03 -1.27246 0.983113 0
M  V30 23691 O 2192.22 -1.21764 1.24576 0
M  V30 23692 C 2189.35 -2.30112 2.51518 0
M  V30 23693 H 2190.54 -0.545707 2.94893 0
M  V30 23694 H 2188.1 -0.247444 1.54329 0
M  V30 23695 H 2188.83 -2.77852 1.67239 0
M  V30 23696 H 2188.62 -2.09931 3.31167 0
M  V30 23697 H 2190.11 -3.00144 2.9035 0
M  V30 23698 N 2190.54 -1.55222 -0.272728 0
M  V30 23699 C 2191.77 -1.79867 -1.02252 0
M  V30 23700 C 2192.19 -0.57212 -1.79923 0
M  V30 23701 O 2191.54 0.458811 -1.76639 0
M  V30 23702 C 2191.6 -3.02396 -1.98088 0
M  V30 23703 O 2191.32 -4.20314 -1.23564 0
M  V30 23704 C 2192.82 -3.39646 -2.84878 0
M  V30 23705 H 2190.04 -0.599174 -0.302046 0
M  V30 23706 H 2192.58 -2.02236 -0.303429 0
M  V30 23707 H 2190.74 -2.82152 -2.6546 0
M  V30 23708 H 2191.15 -4.89586 -1.88163 0
M  V30 23709 H 2192.62 -4.28551 -3.4792 0
M  V30 23710 H 2193.1 -2.59061 -3.5466 0
M  V30 23711 H 2193.71 -3.6215 -2.22997 0
M  V30 23712 N 2192.02 0.537252 -1.4816 0
M  V30 23713 C 2192.93 1.66957 -1.6481 0
M  V30 23714 C 2193.95 1.6571 -0.53068 0
M  V30 23715 O 2195.12 1.84794 -0.800816 0
M  V30 23716 C 2192.19 3.03435 -1.67714 0
M  V30 23717 C 2191.25 3.15595 -2.9103 0
M  V30 23718 C 2190.48 4.45562 -2.93786 0
M  V30 23719 O 2190.71 5.32226 -2.05162 0
M  V30 23720 O 2189.64 4.61934 -3.85876 0
M  V30 23721 H 2193.47 1.55849 -2.60662 0
M  V30 23722 H 2191.05 0.709526 -1.31477 0
M  V30 23723 H 2192.93 3.84616 -1.72187 0
M  V30 23724 H 2191.61 3.14884 -0.750333 0
M  V30 23725 H 2190.52 2.33736 -2.92093 0
M  V30 23726 H 2191.85 3.09059 -3.83071 0
M  V30 23727 N 2193.5 1.36626 0.785562 0
M  V30 23728 C 2194.45 1.31333 1.91975 0
M  V30 23729 C 2195.44 0.204445 1.68162 0
M  V30 23730 O 2196.65 0.371676 1.76121 0
M  V30 23731 H 2193.02 0.408953 0.63108 0
M  V30 23732 H 2194.99 2.27108 1.93558 0
M  V30 23733 C 2193.74 1.12335 3.29053 0
M  V30 23734 H 2193.07 1.96909 3.47946 0
M  V30 23735 H 2194.51 1.12678 4.08754 0
M  V30 23736 C 2192.97 -0.171802 3.36462 0
M  V30 23737 O 2193.5 -1.16028 3.84578 0
M  V30 23738 N 2191.7 -0.217795 2.89783 0
M  V30 23739 H 2191.25 0.587227 2.50817 0
M  V30 23740 H 2191.21 -1.08403 2.95121 0
M  V30 23741 N 2194.98 -1.01016 1.20969 0
M  V30 23742 C 2196.23 -1.74126 1.01799 0
M  V30 23743 C 2196.54 -1.90361 -0.449657 0
M  V30 23744 O 2197.75 -2.60627 -0.760634 0
M  V30 23745 C 2196.2 -3.13211 1.77276 0
M  V30 23746 C 2195.81 -3.04967 3.28176 0
M  V30 23747 C 2197.55 -3.90486 1.66496 0
M  V30 23748 C 2195.46 -4.391 3.96164 0
M  V30 23749 H 2194.39 -0.652817 0.377288 0
M  V30 23750 H 2197.04 -1.12906 1.44653 0
M  V30 23751 H 2195.42 -3.75011 1.27211 0
M  V30 23752 H 2196.6 -2.52436 3.85503 0
M  V30 23753 H 2194.91 -2.41182 3.39441 0
M  V30 23754 H 2197.51 -4.89734 2.14626 0
M  V30 23755 H 2197.85 -4.11623 0.622272 0
M  V30 23756 H 2198.39 -3.35328 2.14009 0
M  V30 23757 H 2195.13 -4.23165 5.00611 0
M  V30 23758 H 2194.65 -4.91611 3.43625 0
M  V30 23759 H 2196.32 -5.07919 4.00783 0
M  V30 23760 N 2196.46 -1.01661 -1.20428 0
M  V30 23761 C 2197.39 -0.607265 -2.25465 0
M  V30 23762 C 2198.37 0.377687 -1.65854 0
M  V30 23763 O 2199.55 0.263115 -1.92409 0
M  V30 23764 C 2196.68 0.0552339 -3.47256 0
M  V30 23765 C 2195.64 -0.850705 -4.1946 0
M  V30 23766 C 2194.96 -0.0539799 -5.34673 0
M  V30 23767 C 2196.26 -2.15876 -4.75599 0
M  V30 23768 H 2197.96 -1.48531 -2.5996 0
M  V30 23769 H 2195.5 -0.715627 -1.24959 0
M  V30 23770 H 2197.46 0.353159 -4.19918 0
M  V30 23771 H 2196.18 0.967991 -3.11925 0
M  V30 23772 H 2194.84 -1.13263 -3.48665 0
M  V30 23773 H 2194.49 0.860427 -4.95586 0
M  V30 23774 H 2194.19 -0.657295 -5.83912 0
M  V30 23775 H 2195.71 0.237491 -6.10138 0
M  V30 23776 H 2197.12 -1.9232 -5.40079 0
M  V30 23777 H 2195.52 -2.71293 -5.35276 0
M  V30 23778 H 2196.59 -2.82176 -3.94341 0
M  V30 23779 N 2197.93 1.36205 -0.792844 0
M  V30 23780 C 2198.87 2.28699 -0.15151 0
M  V30 23781 C 2199.88 1.4964 0.641235 0
M  V30 23782 O 2201.07 1.7204 0.475854 0
M  V30 23783 C 2198.17 3.29118 0.808366 0
M  V30 23784 C 2197.34 4.37352 0.0649434 0
M  V30 23785 C 2196.4 5.17713 0.941267 0
M  V30 23786 O 2195.43 5.67812 0.397252 0
M  V30 23787 N 2196.63 5.34484 2.26511 0
M  V30 23788 H 2199.39 2.84377 -0.946032 0
M  V30 23789 H 2196.95 1.48407 -0.647058 0
M  V30 23790 H 2198.95 3.79767 1.39853 0
M  V30 23791 H 2197.52 2.74055 1.50375 0
M  V30 23792 H 2196.74 3.8782 -0.706324 0
M  V30 23793 H 2198.02 5.06824 -0.447936 0
M  V30 23794 H 2197.42 4.95401 2.73119 0
M  V30 23795 H 2195.98 5.88364 2.80483 0
M  V30 23796 N 2199.41 0.545154 1.47871 0
M  V30 23797 C 2200.36 -0.20926 2.29849 0
M  V30 23798 C 2201.33 -0.919683 1.38315 0
M  V30 23799 O 2202.51 -0.917743 1.67279 0
M  V30 23800 C 2199.65 -1.24083 3.22021 0
M  V30 23801 C 2198.77 -0.537702 4.28641 0
M  V30 23802 C 2197.9 -1.55351 5.07976 0
M  V30 23803 C 2196.94 -0.834694 6.06382 0
M  V30 23804 N 2196.08 -1.79676 6.7872 0
M  V30 23805 H 2200.92 0.495962 2.93844 0
M  V30 23806 H 2198.46 0.256415 1.44848 0
M  V30 23807 H 2200.41 -1.85137 3.73872 0
M  V30 23808 H 2199.04 -1.91424 2.59917 0
M  V30 23809 H 2198.1 0.187112 3.7994 0
M  V30 23810 H 2199.41 0.0259783 4.98793 0
M  V30 23811 H 2198.56 -2.23793 5.63916 0
M  V30 23812 H 2197.3 -2.1511 4.37697 0
M  V30 23813 H 2196.31 -0.136291 5.49631 0
M  V30 23814 H 2197.53 -0.24301 6.78665 0
M  V30 23815 H 2195.48 -2.38315 6.11181 0
M  V30 23816 H 2195.39 -1.28492 7.45001 0
M  V30 23817 H 2196.66 -2.47269 7.39242 0
M  V30 23818 N 2200.89 -1.55074 0.28101 0
M  V30 23819 C 2202.14 -2.00021 -0.334575 0
M  V30 23820 C 2202.47 -1.16917 -1.55061 0
M  V30 23821 O 2201.74 -0.24068 -1.93005 0
M  V30 23822 C 2202.03 -3.53012 -0.710945 0
M  V30 23823 C 2201.88 -4.46867 0.512844 0
M  V30 23824 C 2203.2 -4.12084 -1.54515 0
M  V30 23825 H 2200.32 -0.727143 -0.120135 0
M  V30 23826 H 2202.96 -1.85973 0.38913 0
M  V30 23827 H 2201.11 -3.65114 -1.32754 0
M  V30 23828 H 2202.78 -4.467 1.15139 0
M  V30 23829 H 2201.03 -4.18284 1.14982 0
M  V30 23830 H 2201.7 -5.51617 0.205653 0
M  V30 23831 H 2204.17 -4.03294 -1.02435 0
M  V30 23832 H 2203.05 -5.1933 -1.7773 0
M  V30 23833 H 2203.31 -3.62686 -2.52806 0
M  V30 23834 N 2202.37 -0.00838561 -1.57598 0
M  V30 23835 C 2203.62 0.675698 -1.91212 0
M  V30 23836 C 2203.95 1.72956 -0.883169 0
M  V30 23837 O 2203.22 1.94258 0.0969819 0
M  V30 23838 C 2203.51 1.31117 -3.35381 0
M  V30 23839 C 2203.36 0.268278 -4.48999 0
M  V30 23840 C 2204.68 2.23502 -3.79124 0
M  V30 23841 H 2201.8 0.244167 -0.695379 0
M  V30 23842 H 2204.44 -0.0613989 -1.89901 0
M  V30 23843 H 2202.59 1.93941 -3.36629 0
M  V30 23844 H 2204.26 -0.360925 -4.59886 0
M  V30 23845 H 2202.5 -0.408557 -4.31872 0
M  V30 23846 H 2203.18 0.752122 -5.46852 0
M  V30 23847 H 2205.65 1.70686 -3.7948 0
M  V30 23848 H 2204.53 2.64927 -4.80734 0
M  V30 23849 H 2204.79 3.11761 -3.13461 0
M  V30 23850 N 2203.85 1.55365 0.264492 0
M  V30 23851 C 2204.78 1.83768 1.35294 0
M  V30 23852 C 2205.76 0.691361 1.4717 0
M  V30 23853 O 2206.94 0.935267 1.63661 0
M  V30 23854 C 2204.07 2.00684 2.72844 0
M  V30 23855 C 2203.12 3.23268 2.78208 0
M  V30 23856 S 2203.95 4.804 2.36593 0
M  V30 23857 C 2205.1 5.00298 3.76101 0
M  V30 23858 H 2205.34 2.75802 1.10998 0
M  V30 23859 H 2202.87 1.47245 0.46457 0
M  V30 23860 H 2204.83 2.11114 3.52053 0
M  V30 23861 H 2203.49 1.09524 2.94386 0
M  V30 23862 H 2202.68 3.32017 3.79185 0
M  V30 23863 H 2202.28 3.11473 2.07028 0
M  V30 23864 H 2204.58 4.86562 4.71448 0
M  V30 23865 H 2205.52 6.02328 3.72299 0
M  V30 23866 H 2205.93 4.28234 3.67799 0
M  V30 23867 N 2205.33 -0.529387 1.48443 0
M  V30 23868 C 2206.55 -1.30991 1.60153 0
M  V30 23869 C 2206.97 -1.86973 0.262017 0
M  V30 23870 O 2206.33 -1.66432 -0.748776 0
M  V30 23871 C 2206.38 -2.46033 2.64858 0
M  V30 23872 O 2206.1 -1.92358 3.93612 0
M  V30 23873 C 2207.6 -3.37844 2.87013 0
M  V30 23874 H 2204.82 -0.398328 0.539978 0
M  V30 23875 H 2207.36 -0.638563 1.94275 0
M  V30 23876 H 2205.52 -3.09051 2.33594 0
M  V30 23877 H 2205.93 -2.67667 4.51059 0
M  V30 23878 H 2207.41 -4.14913 3.64076 0
M  V30 23879 H 2207.88 -3.93111 1.95859 0
M  V30 23880 H 2208.49 -2.80617 3.19584 0
M  V30 23881 N 2206.8 -1.37041 -0.778305 0
M  V30 23882 C 2207.77 -1.32105 -1.87299 0
M  V30 23883 C 2208.77 -0.226433 -1.59198 0
M  V30 23884 O 2209.96 -0.481891 -1.67402 0
M  V30 23885 C 2207.09 -1.05061 -3.24307 0
M  V30 23886 H 2208.28 -2.29471 -1.93089 0
M  V30 23887 H 2205.83 -1.21975 -0.977337 0
M  V30 23888 H 2206.57 -0.0819943 -3.24196 0
M  V30 23889 H 2206.35 -1.84285 -3.46094 0
M  V30 23890 H 2207.84 -1.04241 -4.04381 0
M  V30 23891 N 2208.28 1.00373 -1.21503 0
M  V30 23892 C 2209.53 1.74169 -1.03302 0
M  V30 23893 C 2209.86 1.89612 0.433293 0
M  V30 23894 O 2209.11 1.42837 1.33777 0
M  V30 23895 C 2209.41 3.15624 -1.67679 0
M  V30 23896 C 2209.08 3.20125 -3.17539 0
M  V30 23897 C 2207.74 3.2106 -3.58432 0
M  V30 23898 C 2210.09 3.17268 -4.1351 0
M  V30 23899 C 2207.42 3.16826 -4.938 0
M  V30 23900 C 2209.77 3.14575 -5.4884 0
M  V30 23901 C 2208.43 3.13821 -5.89129 0
M  V30 23902 H 2207.7 0.63733 -0.378011 0
M  V30 23903 H 2210.35 1.17632 -1.51113 0
M  V30 23904 H 2208.66 3.75402 -1.12165 0
M  V30 23905 H 2210.35 3.71444 -1.51098 0
M  V30 23906 H 2206.94 3.2014 -2.84971 0
M  V30 23907 H 2211.13 3.15704 -3.82942 0
M  V30 23908 H 2206.38 3.14581 -5.2426 0
M  V30 23909 H 2210.56 3.11319 -6.22939 0
M  V30 23910 H 2208.18 3.10294 -6.93989 0
M  V30 23911 N 2209.76 1.02298 1.19887 0
M  V30 23912 C 2210.72 0.60339 2.21115 0
M  V30 23913 C 2211.72 -0.329856 1.5738 0
M  V30 23914 O 2212.91 -0.117672 1.73802 0
M  V30 23915 C 2210.04 -0.117932 3.40696 0
M  V30 23916 H 2211.24 1.49898 2.59751 0
M  V30 23917 H 2208.79 0.813491 1.33462 0
M  V30 23918 H 2209.53 -1.02814 3.07571 0
M  V30 23919 H 2209.31 0.552579 3.88187 0
M  V30 23920 H 2210.8 -0.398623 4.15693 0
M  V30 23921 N 2211.24 -1.35782 0.800057 0
M  V30 23922 C 2212.51 -1.93271 0.300914 0
M  V30 23923 C 2212.89 -1.73083 -1.20854 0
M  V30 23924 O 2212.24 -1.09599 -2.005 0
M  V30 23925 C 2212.45 -3.41802 0.70517 0
M  V30 23926 C 2213.8 -4.1894 0.690944 0
M  V30 23927 O 2214.82 -3.50288 0.646305 0
M  V30 23928 O 2213.68 -5.4142 0.743415 0
M  V30 23929 H 2210.78 -0.823391 0.0771749 0
M  V30 23930 H 2213.32 -1.44899 0.883316 0
M  V30 23931 H 2212.1 -3.50198 1.74577 0
M  V30 23932 H 2211.72 -3.97481 0.0972239 0
M  V30 23933 N 2212.72 -0.552988 -1.4758 0
M  V30 23934 C 2214.13 -0.212452 -1.5818 0
M  V30 23935 C 2214.33 1.28493 -1.55215 0
M  V30 23936 O 2213.39 2.06482 -1.45333 0
M  V30 23937 C 2214.7 -0.835368 -2.88863 0
M  V30 23938 C 2216.25 -0.806209 -3.02439 0
M  V30 23939 C 2216.72 -1.40812 -4.35817 0
M  V30 23940 N 2218.21 -1.37111 -4.42442 0
M  V30 23941 C 2218.95 -1.80651 -5.44199 0
M  V30 23942 N 2218.45 -2.32027 -6.5279 0
M  V30 23943 N 2220.24 -1.71747 -5.35219 0
M  V30 23944 H 2212.39 -1.5259 -1.4775 0
M  V30 23945 H 2214.65 -0.636076 -0.70293 0
M  V30 23946 H 2214.36 -1.88754 -2.96757 0
M  V30 23947 H 2214.23 -0.325914 -3.75789 0
M  V30 23948 H 2216.62 0.237265 -2.94145 0
M  V30 23949 H 2216.7 -1.35338 -2.17065 0
M  V30 23950 H 2216.34 -2.45064 -4.44866 0
M  V30 23951 H 2216.27 -0.83643 -5.19915 0
M  V30 23952 H 2218.77 -0.995266 -3.64558 0
M  V30 23953 H 2219.08 -2.63184 -7.26604 0
M  V30 23954 H 2217.42 -2.36035 -6.53691 0
M  V30 23955 H 2220.61 -1.3139 -4.49282 0
M  V30 23956 H 2220.79 -2.05998 -6.14385 0
M  V30 23957 N 2214.19 1.54923 -0.28923 0
M  V30 23958 C 2215.42 2.04309 0.326427 0
M  V30 23959 C 2215.84 1.16703 1.48411 0
M  V30 23960 O 2215.19 0.190119 1.81507 0
M  V30 23961 C 2215.24 3.52674 0.793952 0
M  V30 23962 O 2214.97 4.36947 -0.317641 0
M  V30 23963 C 2216.47 4.18007 1.47598 0
M  V30 23964 H 2213.69 0.667059 0.0726155 0
M  V30 23965 H 2216.23 2.00026 -0.425436 0
M  V30 23966 H 2214.39 3.57355 1.49587 0
M  V30 23967 H 2214.8 5.24481 0.0442264 0
M  V30 23968 H 2216.27 5.23379 1.75438 0
M  V30 23969 H 2216.75 3.67029 2.41218 0
M  V30 23970 H 2217.36 4.17368 0.817547 0
M  V30 23971 N 2215.67 0.0167433 1.57591 0
M  V30 23972 C 2216.92 -0.665548 1.91568 0
M  V30 23973 C 2217.25 -1.72485 0.892329 0
M  V30 23974 O 2216.53 -1.94307 -0.0866785 0
M  V30 23975 C 2216.81 -1.29336 3.36072 0
M  V30 23976 C 2216.66 -0.244462 4.49135 0
M  V30 23977 C 2217.98 -2.21488 3.80304 0
M  V30 23978 H 2215.1 -0.240476 0.696664 0
M  V30 23979 H 2217.74 0.071469 1.89866 0
M  V30 23980 H 2215.89 -1.92153 3.37653 0
M  V30 23981 H 2217.56 0.385309 4.59688 0
M  V30 23982 H 2215.81 0.431455 4.31649 0
M  V30 23983 H 2216.48 -0.723111 5.47243 0
M  V30 23984 H 2218.95 -1.68672 3.8038 0
M  V30 23985 H 2217.83 -2.62374 4.82132 0
M  V30 23986 H 2218.09 -3.10094 3.1511 0
M  V30 23987 N 2217.15 -1.55503 -0.256249 0
M  V30 23988 C 2218.4 -1.77159 -0.987048 0
M  V30 23989 C 2218.73 -0.580347 -1.85326 0
M  V30 23990 O 2218 0.421653 -1.89875 0
M  V30 23991 C 2218.29 -3.08616 -1.85548 0
M  V30 23992 C 2218.14 -4.38127 -1.01808 0
M  V30 23993 C 2219.46 -3.36233 -2.83964 0
M  V30 23994 H 2216.58 -0.644533 -0.357417 0
M  V30 23995 H 2219.22 -1.88237 -0.258206 0
M  V30 23996 H 2217.37 -2.99302 -2.4769 0
M  V30 23997 H 2219.04 -4.5942 -0.416078 0
M  V30 23998 H 2217.29 -4.32603 -0.322102 0
M  V30 23999 H 2217.96 -5.26471 -1.6593 0
M  V30 24000 H 2220.43 -3.45449 -2.31958 0
M  V30 24001 H 2219.31 -4.29448 -3.41856 0
M  V30 24002 H 2219.57 -2.56687 -3.5995 0
M  V30 24003 N 2218.63 0.521507 -1.48721 0
M  V30 24004 C 2219.86 1.3014 -1.60846 0
M  V30 24005 C 2220.27 1.86831 -0.271929 0
M  V30 24006 O 2219.63 1.66827 0.739939 0
M  V30 24007 C 2219.68 2.44625 -2.6616 0
M  V30 24008 O 2219.4 1.90268 -3.94626 0
M  V30 24009 C 2220.9 3.36317 -2.88801 0
M  V30 24010 H 2218.12 0.395459 -0.542082 0
M  V30 24011 H 2220.67 0.628251 -1.94611 0
M  V30 24012 H 2218.82 3.07808 -2.3523 0
M  V30 24013 H 2219.23 2.65271 -4.52472 0
M  V30 24014 H 2220.71 4.12976 -3.66271 0
M  V30 24015 H 2221.19 3.92066 -1.97941 0
M  V30 24016 H 2221.79 2.78919 -3.21068 0
M  V30 24017 N 2220.11 1.37452 0.771027 0
M  V30 24018 C 2221.36 1.32023 1.52489 0
M  V30 24019 C 2221.67 -0.0927004 1.9538 0
M  V30 24020 O 2222.87 -0.269455 2.7016 0
M  V30 24021 C 2221.33 2.31741 2.75362 0
M  V30 24022 C 2220.94 3.78566 2.39566 0
M  V30 24023 C 2222.68 2.35324 3.53303 0
M  V30 24024 C 2220.59 4.70013 3.58945 0
M  V30 24025 H 2219.52 0.490676 0.572498 0
M  V30 24026 H 2222.17 1.62915 0.844445 0
M  V30 24027 H 2220.55 1.93867 3.45299 0
M  V30 24028 H 2221.73 4.2528 1.77408 0
M  V30 24029 H 2220.04 3.77935 1.74798 0
M  V30 24030 H 2222.64 3.0085 4.42033 0
M  V30 24031 H 2222.98 1.36705 3.93214 0
M  V30 24032 H 2223.51 2.71909 2.90363 0
M  V30 24033 H 2220.25 5.69763 3.24115 0
M  V30 24034 H 2219.77 4.28003 4.20207 0
M  V30 24035 H 2221.45 4.87182 4.25749 0
M  V30 24036 N 2221.58 -0.997276 1.22033 0
M  V30 24037 C 2222.55 -2.06815 0.987945 0
M  V30 24038 C 2223.55 -1.6074 -0.0439802 0
M  V30 24039 O 2224.74 -1.73115 0.194083 0
M  V30 24040 C 2221.87 -3.3734 0.49138 0
M  V30 24041 H 2223.06 -2.28864 1.93807 0
M  V30 24042 H 2220.62 -1.1682 1.0384 0
M  V30 24043 H 2221.35 -3.20973 -0.463307 0
M  V30 24044 H 2221.14 -3.72115 1.23582 0
M  V30 24045 H 2222.63 -4.1614 0.348897 0
M  V30 24046 N 2223.06 -1.02932 -1.19343 0
M  V30 24047 C 2224.01 -0.581079 -2.20471 0
M  V30 24048 C 2225 0.370415 -1.56578 0
M  V30 24049 O 2226.19 0.191313 -1.75963 0
M  V30 24050 C 2223.32 0.0662457 -3.43236 0
M  V30 24051 C 2222.4 -0.907715 -4.14272 0
M  V30 24052 N 2222.79 -2.07031 -4.61489 0
M  V30 24053 C 2221.09 -0.731255 -4.39964 0
M  V30 24054 C 2221.79 -2.68463 -5.16045 0
M  V30 24055 N 2220.77 -1.96423 -5.06872 0
M  V30 24056 H 2224.57 -1.46722 -2.54657 0
M  V30 24057 H 2222.09 -0.896368 -1.35422 0
M  V30 24058 H 2224.08 0.404995 -4.14928 0
M  V30 24059 H 2222.74 0.948064 -3.10551 0
M  V30 24060 H 2223.75 -2.44971 -4.563 0
M  V30 24061 H 2220.43 0.101434 -4.17377 0
M  V30 24062 H 2221.82 -3.66925 -5.62864 0
M  V30 24063 N 2224.54 1.35356 -0.807246 0
M  V30 24064 C 2225.96 1.51858 -0.491064 0
M  V30 24065 C 2226.16 1.75637 0.987617 0
M  V30 24066 O 2225.21 1.79818 1.77262 0
M  V30 24067 C 2226.53 2.69342 -1.337 0
M  V30 24068 C 2228.07 2.83219 -1.33251 0
M  V30 24069 C 2228.55 4.03729 -2.16257 0
M  V30 24070 N 2230.04 4.10908 -2.13797 0
M  V30 24071 C 2230.77 5.03272 -2.74781 0
M  V30 24072 N 2230.27 6.00964 -3.44694 0
M  V30 24073 N 2232.06 4.96023 -2.64419 0
M  V30 24074 H 2224.21 1.18178 -1.76487 0
M  V30 24075 H 2226.48 0.578263 -0.75121 0
M  V30 24076 H 2226.18 2.5835 -2.38639 0
M  V30 24077 H 2226.06 3.63958 -0.990682 0
M  V30 24078 H 2228.44 2.93662 -0.290963 0
M  V30 24079 H 2228.53 1.89458 -1.7187 0
M  V30 24080 H 2228.17 3.94047 -3.20452 0
M  V30 24081 H 2228.1 4.96672 -1.74998 0
M  V30 24082 H 2230.59 3.40973 -1.62929 0
M  V30 24083 H 2230.9 6.6804 -3.88513 0
M  V30 24084 H 2229.25 6.01136 -3.48799 0
M  V30 24085 H 2232.44 4.18658 -2.09387 0
M  V30 24086 H 2232.61 5.67814 -3.12235 0
M  V30 24087 N 2226.02 0.560807 1.47284 0
M  V30 24088 C 2227.26 0.038154 2.02764 0
M  V30 24089 C 2227.6 -1.30973 1.43386 0
M  V30 24090 O 2226.87 -1.85311 0.590766 0
M  V30 24091 C 2227.16 -0.0510795 3.60064 0
M  V30 24092 C 2227.01 1.32416 4.29868 0
M  V30 24093 C 2228.33 -0.762719 4.3344 0
M  V30 24094 H 2225.45 0.0153393 0.73684 0
M  V30 24095 H 2228.09 0.723789 1.75674 0
M  V30 24096 H 2226.24 -0.634998 3.83275 0
M  V30 24097 H 2227.91 1.95155 4.17986 0
M  V30 24098 H 2226.15 1.89787 3.90081 0
M  V30 24099 H 2226.82 1.2144 5.38476 0
M  V30 24100 H 2229.3 -0.266892 4.15243 0
M  V30 24101 H 2228.18 -0.794125 5.43125 0
M  V30 24102 H 2228.44 -1.81959 4.02919 0
M  V30 24103 N 2227.5 -1.54768 0.297442 0
M  V30 24104 C 2228.72 -2.04941 -0.318399 0
M  V30 24105 C 2229.15 -1.17347 -1.47007 0
M  V30 24106 O 2228.5 -0.17679 -1.80436 0
M  V30 24107 C 2228.55 -3.52593 -0.755687 0
M  V30 24108 O 2227.66 -3.68032 -1.86082 0
M  V30 24109 H 2227 -0.661061 -0.0624094 0
M  V30 24110 H 2229.53 -1.99851 0.43825 0
M  V30 24111 H 2229.54 -3.94378 -1.04545 0
M  V30 24112 H 2228.21 -4.15809 0.0867964 0
M  V30 24113 H 2226.79 -3.38152 -1.57188 0
M  V30 24114 N 2228.97 -0.0251005 -1.5758 0
M  V30 24115 C 2230.2 0.668282 -1.96338 0
M  V30 24116 C 2230.62 1.65098 -0.901343 0
M  V30 24117 O 2229.98 1.80773 0.138155 0
M  V30 24118 C 2230.03 1.35451 -3.34194 0
M  V30 24119 O 2229.13 2.46968 -3.30273 0
M  V30 24120 H 2228.48 0.175876 -0.640284 0
M  V30 24121 H 2231.01 -0.0857583 -2.0442 0
M  V30 24122 H 2231.02 1.71222 -3.70334 0
M  V30 24123 H 2229.69 0.634146 -4.11037 0
M  V30 24124 H 2228.27 2.13339 -3.05845 0
M  V30 24125 N 2230.45 1.55637 0.247999 0
M  V30 24126 C 2231.7 1.76619 0.974103 0
M  V30 24127 C 2232.01 0.588829 1.86527 0
M  V30 24128 O 2233.22 0.681641 2.62804 0
M  V30 24129 C 2231.68 3.12682 1.78207 0
M  V30 24130 C 2231.28 4.38063 0.938353 0
M  V30 24131 C 2233.03 3.43004 2.50098 0
M  V30 24132 C 2230.94 5.65158 1.74215 0
M  V30 24133 H 2229.87 0.658411 0.367438 0
M  V30 24134 H 2232.52 1.82068 0.228808 0
M  V30 24135 H 2230.9 3.01337 2.56928 0
M  V30 24136 H 2232.07 4.60393 0.193554 0
M  V30 24137 H 2230.39 4.15068 0.332832 0
M  V30 24138 H 2232.98 4.35176 3.10687 0
M  V30 24139 H 2233.33 2.64277 3.21657 0
M  V30 24140 H 2233.86 3.55559 1.78388 0
M  V30 24141 H 2230.6 6.46703 1.07031 0
M  V30 24142 H 2230.12 5.46931 2.46226 0
M  V30 24143 H 2231.8 6.04374 2.30956 0
M  V30 24144 N 2231.93 -0.513613 1.48996 0
M  V30 24145 C 2232.86 -1.63376 1.59322 0
M  V30 24146 C 2233.84 -1.56453 0.442844 0
M  V30 24147 O 2235.03 -1.76692 0.656686 0
M  V30 24148 C 2232.15 -3.01846 1.53645 0
M  V30 24149 C 2231.2 -3.27073 2.73725 0
M  V30 24150 S 2232.03 -3.11563 4.35533 0
M  V30 24151 C 2233.19 -4.5245 4.32481 0
M  V30 24152 H 2233.42 -1.5437 2.54081 0
M  V30 24153 H 2230.95 -0.697824 1.37731 0
M  V30 24154 H 2232.91 -3.81697 1.51056 0
M  V30 24155 H 2231.57 -3.08278 0.601952 0
M  V30 24156 H 2230.77 -4.28128 2.65938 0
M  V30 24157 H 2230.37 -2.54922 2.73662 0
M  V30 24158 H 2232.66 -5.44294 4.03423 0
M  V30 24159 H 2233.6 -4.6529 5.33771 0
M  V30 24160 H 2234.01 -4.32539 3.62726 0
M  V30 24161 N 2233.41 -1.37859 -0.763727 0
M  V30 24162 C 2234.69 -1.24037 -1.51242 0
M  V30 24163 C 2235.07 0.162612 -2.10473 0
M  V30 24164 O 2234.41 1.17109 -1.96208 0
M  V30 24165 C 2234.62 -2.34266 -2.5869 0
M  V30 24166 C 2235.97 -2.72199 -3.25873 0
M  V30 24167 O 2237 -2.33502 -2.68989 0
M  V30 24168 O 2235.86 -3.38894 -4.28734 0
M  V30 24169 H 2232.95 -0.484474 -0.670234 0
M  V30 24170 H 2235.5 -1.4966 -0.800005 0
M  V30 24171 H 2234.27 -3.28184 -2.13099 0
M  V30 24172 H 2233.89 -2.10152 -3.37523 0
M  V30 24173 N 2234.89 0.990791 -1.22561 0
M  V30 24174 C 2235.85 2.06288 -0.998899 0
M  V30 24175 C 2236.85 1.60761 0.0354551 0
M  V30 24176 O 2238.04 1.7301 -0.203261 0
M  V30 24177 C 2235.17 3.37075 -0.509263 0
M  V30 24178 H 2236.37 2.27833 -1.95018 0
M  V30 24179 H 2233.92 1.16267 -1.04459 0
M  V30 24180 H 2234.65 3.21215 0.446279 0
M  V30 24181 H 2234.44 3.71455 -1.25554 0
M  V30 24182 H 2235.93 4.15949 -0.370961 0
M  V30 24183 N 2236.37 1.03564 1.18795 0
M  V30 24184 C 2237.61 0.734602 1.88276 0
M  V30 24185 C 2237.93 -0.739554 1.80432 0
M  V30 24186 O 2237.2 -1.53331 1.21928 0
M  V30 24187 H 2235.78 0.268737 0.696986 0
M  V30 24188 H 2238.45 1.31131 1.44189 0
M  V30 24189 H 2237.54 1.03494 2.94441 0
M  V30 24190 N 2237.84 -1.34926 0.814413 0
M  V30 24191 C 2238.77 -2.32213 0.244868 0
M  V30 24192 C 2239.75 -1.57843 -0.633996 0
M  V30 24193 O 2240.94 -1.85871 -0.562644 0
M  V30 24194 C 2238.07 -3.4206 -0.601046 0
M  V30 24195 C 2237.02 -4.27621 0.179971 0
M  V30 24196 C 2236.35 -5.2886 -0.788144 0
M  V30 24197 C 2237.65 -5.03647 1.38338 0
M  V30 24198 H 2239.34 -2.80095 1.05768 0
M  V30 24199 H 2236.89 -1.34664 0.510052 0
M  V30 24200 H 2238.84 -4.09127 -1.00961 0
M  V30 24201 H 2237.57 -2.92805 -1.44683 0
M  V30 24202 H 2236.23 -3.62145 0.569803 0
M  V30 24203 H 2235.87 -4.75869 -1.62964 0
M  V30 24204 H 2235.57 -5.8698 -0.269839 0
M  V30 24205 H 2237.1 -5.98797 -1.19475 0
M  V30 24206 H 2238.51 -5.63616 1.04928 0
M  V30 24207 H 2236.91 -5.71301 1.83672 0
M  V30 24208 H 2237.98 -4.33835 2.166 0
M  V30 24209 N 2239.32 -0.56861 -1.46985 0
M  V30 24210 C 2240.57 -0.0489066 -2.02741 0
M  V30 24211 C 2240.9 1.30211 -1.44079 0
M  V30 24212 O 2240.18 1.84995 -0.600585 0
M  V30 24213 C 2240.46 0.0319837 -3.60086 0
M  V30 24214 C 2240.31 -1.34693 -4.29159 0
M  V30 24215 C 2241.63 0.739722 -4.33839 0
M  V30 24216 H 2238.75 -0.0192468 -0.736749 0
M  V30 24217 H 2241.39 -0.733096 -1.75287 0
M  V30 24218 H 2239.54 0.614663 -3.83607 0
M  V30 24219 H 2241.21 -1.97369 -4.16945 0
M  V30 24220 H 2239.46 -1.91853 -3.89069 0
M  V30 24221 H 2240.13 -1.24294 -5.37824 0
M  V30 24222 H 2242.6 0.244866 -4.15379 0
M  V30 24223 H 2241.48 0.765311 -5.43539 0
M  V30 24224 H 2241.74 1.79819 -4.03878 0
M  V30 24225 N 2240.8 1.54608 -0.305646 0
M  V30 24226 C 2241.73 2.2665 0.561442 0
M  V30 24227 C 2242.71 1.26774 1.13412 0
M  V30 24228 O 2243.9 1.55555 1.1626 0
M  V30 24229 C 2241.03 3.01078 1.73116 0
M  V30 24230 C 2239.98 4.0814 1.28863 0
M  V30 24231 C 2239.31 4.70309 2.54388 0
M  V30 24232 C 2240.61 5.20637 0.416487 0
M  V30 24233 H 2242.3 2.99374 -0.0394428 0
M  V30 24234 H 2239.85 1.43986 -0.0204103 0
M  V30 24235 H 2241.8 3.50199 2.34389 0
M  V30 24236 H 2240.52 2.2594 2.35836 0
M  V30 24237 H 2239.18 3.59876 0.698928 0
M  V30 24238 H 2238.83 3.91806 3.15432 0
M  V30 24239 H 2238.53 5.42618 2.25476 0
M  V30 24240 H 2240.05 5.22196 3.16455 0
M  V30 24241 H 2241.47 5.65624 0.935017 0
M  V30 24242 H 2239.86 5.99693 0.220941 0
M  V30 24243 H 2240.93 4.81687 -0.557246 0
M  V30 24244 N 2242.28 0.033457 1.57564 0
M  V30 24245 C 2243.52 -0.645193 1.92263 0
M  V30 24246 C 2243.86 -1.71529 0.910573 0
M  V30 24247 O 2243.13 -1.94388 -0.0660648 0
M  V30 24248 C 2243.41 -1.25765 3.37425 0
M  V30 24249 C 2243.27 -0.196812 4.49369 0
M  V30 24250 C 2244.59 -2.17442 3.82632 0
M  V30 24251 H 2241.71 -0.233073 0.699175 0
M  V30 24252 H 2244.35 0.0916027 1.89779 0
M  V30 24253 H 2242.5 -1.8856 3.39672 0
M  V30 24254 H 2244.17 0.434043 4.59253 0
M  V30 24255 H 2242.41 0.477213 4.31167 0
M  V30 24256 H 2243.08 -0.665027 5.47979 0
M  V30 24257 H 2245.56 -1.64628 3.82148 0
M  V30 24258 H 2244.44 -2.57246 4.84888 0
M  V30 24259 H 2244.7 -3.06734 3.18381 0
M  V30 24260 N 2243.76 -1.55766 -0.239741 0
M  V30 24261 C 2245 -1.77932 -0.96677 0
M  V30 24262 C 2245.33 -0.599047 -1.85045 0
M  V30 24263 O 2244.59 0.417362 -1.91198 0
M  V30 24264 C 2244.88 -3.05676 -1.85195 0
M  V30 24265 C 2244.55 -4.36691 -1.12303 0
M  V30 24266 C 2243.21 -4.72292 -0.921606 0
M  V30 24267 C 2245.56 -5.17654 -0.606928 0
M  V30 24268 C 2242.89 -5.86386 -0.191893 0
M  V30 24269 C 2245.24 -6.32505 0.109352 0
M  V30 24270 C 2243.91 -6.66722 0.32219 0
M  V30 24271 H 2243.18 -0.651099 -0.353766 0
M  V30 24272 H 2245.83 -1.90036 -0.236307 0
M  V30 24273 H 2244.13 -2.88614 -2.6497 0
M  V30 24274 H 2245.83 -3.20026 -2.41629 0
M  V30 24275 H 2242.42 -4.08727 -1.28997 0
M  V30 24276 H 2246.6 -4.90599 -0.750067 0
M  V30 24277 H 2241.86 -6.11398 -0.0165874 0
M  V30 24278 H 2246.03 -6.94479 0.516859 0
M  V30 24279 H 2243.66 -7.54977 0.889573 0
M  V30 24280 N 2245.23 0.505704 -1.49266 0
M  V30 24281 C 2246.46 1.28899 -1.6248 0
M  V30 24282 C 2246.88 1.85782 -0.294365 0
M  V30 24283 O 2246.24 1.65627 0.737383 0
M  V30 24284 C 2246.29 2.39843 -2.69273 0
M  V30 24285 O 2245.39 3.43563 -2.28119 0
M  V30 24286 H 2244.73 0.380741 -0.543996 0
M  V30 24287 H 2247.26 0.605918 -1.95422 0
M  V30 24288 H 2247.27 2.85676 -2.91296 0
M  V30 24289 H 2245.95 1.97806 -3.65849 0
M  V30 24290 H 2244.53 3.03682 -2.16407 0
M  V30 24291 N 2246.71 1.38262 0.756405 0
M  V30 24292 C 2247.62 1.37491 1.90088 0
M  V30 24293 C 2248.64 0.272396 1.71855 0
M  V30 24294 O 2249.81 0.510353 1.94826 0
M  V30 24295 C 2246.88 1.19598 3.25419 0
M  V30 24296 C 2245.94 2.39629 3.56197 0
M  V30 24297 C 2245.17 2.22579 4.85071 0
M  V30 24298 O 2245.4 1.21803 5.57243 0
M  V30 24299 O 2244.33 3.11107 5.15263 0
M  V30 24300 H 2248.16 2.33918 1.93691 0
M  V30 24301 H 2245.74 1.19152 0.901292 0
M  V30 24302 H 2247.62 1.11668 4.06335 0
M  V30 24303 H 2246.3 0.262543 3.22634 0
M  V30 24304 H 2245.21 2.53133 2.75453 0
M  V30 24305 H 2246.54 3.31592 3.63741 0
M  V30 24306 N 2248.19 -0.984277 1.23084 0
M  V30 24307 C 2249.44 -1.72163 1.05851 0
M  V30 24308 C 2249.76 -1.90726 -0.406016 0
M  V30 24309 O 2249.03 -1.47311 -1.29136 0
M  V30 24310 H 2247.61 -0.637906 0.388696 0
M  V30 24311 H 2250.27 -1.185 1.54738 0
M  V30 24312 H 2249.37 -2.71271 1.54331 0
M  V30 24313 N 2249.67 -1.04192 -1.18244 0
M  V30 24314 C 2250.92 -0.741227 -1.87587 0
M  V30 24315 C 2251.23 0.734034 -1.81304 0
M  V30 24316 O 2252.44 1.14829 -2.46021 0
M  V30 24317 C 2250.89 -1.27561 -3.36536 0
M  V30 24318 C 2250.5 -2.77959 -3.51344 0
M  V30 24319 C 2252.24 -1.0515 -4.11271 0
M  V30 24320 C 2250.15 -3.24748 -4.94259 0
M  V30 24321 H 2249.08 -0.273578 -0.702617 0
M  V30 24322 H 2251.73 -1.25792 -1.33599 0
M  V30 24323 H 2250.11 -0.686772 -3.89999 0
M  V30 24324 H 2251.29 -3.42611 -3.08147 0
M  V30 24325 H 2249.6 -2.98797 -2.90016 0
M  V30 24326 H 2252.2 -1.3762 -5.16686 0
M  V30 24327 H 2252.54 0.0112042 -4.16298 0
M  V30 24328 H 2253.08 -1.60501 -3.63984 0
M  V30 24329 H 2249.82 -4.30405 -4.94401 0
M  V30 24330 H 2249.34 -2.64833 -5.38167 0
M  V30 24331 H 2251.01 -3.18844 -5.62981 0
M  V30 24332 N 2251.15 1.34492 -0.821557 0
M  V30 24333 C 2252.08 2.32079 -0.257179 0
M  V30 24334 C 2253.06 1.58177 0.625617 0
M  V30 24335 O 2254.24 1.86167 0.552779 0
M  V30 24336 C 2251.37 3.42373 0.582898 0
M  V30 24337 C 2250.33 4.2752 -0.202646 0
M  V30 24338 C 2249.65 5.2927 0.760086 0
M  V30 24339 C 2250.95 5.02906 -1.41007 0
M  V30 24340 H 2252.65 2.79531 -1.07252 0
M  V30 24341 H 2250.19 1.34392 -0.517187 0
M  V30 24342 H 2252.15 4.09657 0.9879 0
M  V30 24343 H 2250.87 2.93568 1.43128 0
M  V30 24344 H 2249.53 3.61837 -0.589 0
M  V30 24345 H 2249.18 4.76727 1.60438 0
M  V30 24346 H 2248.88 5.87115 0.238706 0
M  V30 24347 H 2250.4 5.99422 1.16297 0
M  V30 24348 H 2251.81 5.63052 -1.07915 0
M  V30 24349 H 2250.21 5.70319 -1.86699 0
M  V30 24350 H 2251.28 4.3268 -2.18897 0
M  V30 24351 N 2252.62 0.576397 1.46681 0
M  V30 24352 C 2253.87 0.0596577 2.02712 0
M  V30 24353 C 2254.2 -1.29445 1.44767 0
M  V30 24354 O 2253.48 -1.84674 0.610387 0
M  V30 24355 C 2253.76 -0.012887 3.60098 0
M  V30 24356 C 2253.61 1.36967 4.28439 0
M  V30 24357 C 2254.93 -0.716704 4.34225 0
M  V30 24358 H 2252.05 0.0231537 0.736636 0
M  V30 24359 H 2254.69 0.742381 1.74896 0
M  V30 24360 H 2252.84 -0.594311 3.83927 0
M  V30 24361 H 2254.52 1.99578 4.15892 0
M  V30 24362 H 2252.76 1.93913 3.88046 0
M  V30 24363 H 2253.43 1.27145 5.37158 0
M  V30 24364 H 2255.91 -0.222834 4.15503 0
M  V30 24365 H 2254.78 -0.736475 5.43937 0
M  V30 24366 H 2255.04 -1.77675 4.04826 0
M  V30 24367 N 2254.1 -1.54444 0.313841 0
M  V30 24368 C 2255.01 -2.27678 -0.565674 0
M  V30 24369 C 2256.03 -1.31668 -1.13752 0
M  V30 24370 O 2257.2 -1.6467 -1.15956 0
M  V30 24371 C 2254.27 -3.01299 -1.71522 0
M  V30 24372 C 2253.33 -4.12874 -1.17617 0
M  V30 24373 C 2252.56 -4.82974 -2.27093 0
M  V30 24374 O 2252.79 -4.5252 -3.47248 0
M  V30 24375 O 2251.72 -5.70098 -1.9306 0
M  V30 24376 H 2255.55 -3.03686 0.028783 0
M  V30 24377 H 2253.13 -1.49186 0.0798574 0
M  V30 24378 H 2255.01 -3.47434 -2.3847 0
M  V30 24379 H 2253.69 -2.28174 -2.29604 0
M  V30 24380 H 2252.6 -3.7111 -0.472059 0
M  V30 24381 H 2253.93 -4.88013 -0.640609 0
M  V30 24382 N 2255.58 -0.0418125 -1.57545 0
M  V30 24383 C 2256.82 0.638056 -1.94186 0
M  V30 24384 C 2257.18 1.68557 -0.919368 0
M  V30 24385 O 2258.39 2.41884 -1.17241 0
M  V30 24386 C 2256.66 1.22708 -3.35675 0
M  V30 24387 S 2258.22 1.92626 -3.9426 0
M  V30 24388 H 2255.03 0.209752 -0.679356 0
M  V30 24389 H 2257.64 -0.108513 -1.95199 0
M  V30 24390 H 2256.34 0.452431 -4.07899 0
M  V30 24391 H 2255.87 2.01067 -3.38135 0
M  V30 24392 H 2257.89 3.20596 -3.78725 0
M  V30 24393 N 2257.06 1.55891 0.231477 0
M  V30 24394 C 2258.34 1.69217 0.981066 0
M  V30 24395 C 2258.72 0.586199 2.02798 0
M  V30 24396 O 2258.06 -0.408214 2.24824 0
M  V30 24397 C 2258.27 3.10138 1.60048 0
M  V30 24398 C 2259.62 3.69231 2.09651 0
M  V30 24399 O 2260.65 3.13036 1.69961 0
M  V30 24400 O 2259.5 4.67777 2.82572 0
M  V30 24401 H 2256.6 0.688835 0.45764 0
M  V30 24402 H 2259.14 1.68215 0.224043 0
M  V30 24403 H 2257.92 3.82089 0.844038 0
M  V30 24404 H 2257.54 3.15217 2.42331 0
M  V30 24405 N 2258.54 -0.497781 1.49532 0
M  V30 24406 C 2259.76 -1.27564 1.62896 0
M  V30 24407 C 2260.18 -1.86375 0.301618 0
M  V30 24408 O 2259.54 -1.67983 -0.713305 0
M  V30 24409 C 2259.59 -2.4036 2.70018 0
M  V30 24410 O 2259.31 -1.83965 3.97603 0
M  V30 24411 C 2260.81 -3.3168 2.94115 0
M  V30 24412 H 2258.03 -0.386785 0.548305 0
M  V30 24413 H 2260.57 -0.597211 1.95585 0
M  V30 24414 H 2258.73 -3.04027 2.40097 0
M  V30 24415 H 2259.14 -2.58039 4.56635 0
M  V30 24416 H 2260.62 -4.07097 3.72795 0
M  V30 24417 H 2261.09 -3.88868 2.04153 0
M  V30 24418 H 2261.7 -2.73775 3.25464 0
M  V30 24419 N 2260.01 -1.38661 -0.749062 0
M  V30 24420 C 2261.26 -1.35317 -1.51054 0
M  V30 24421 C 2261.59 0.055341 -1.94121 0
M  V30 24422 O 2260.87 1.01746 -1.65765 0
M  V30 24423 C 2261.15 -2.31293 -2.75999 0
M  V30 24424 C 2261 -3.81024 -2.39041 0
M  V30 24425 C 2262.32 -2.25327 -3.78042 0
M  V30 24426 H 2259.44 -0.492854 -0.547963 0
M  V30 24427 H 2262.08 -1.69544 -0.857598 0
M  V30 24428 H 2260.23 -2.02235 -3.31713 0
M  V30 24429 H 2261.91 -4.20775 -1.89067 0
M  V30 24430 H 2260.15 -3.98485 -1.71442 0
M  V30 24431 H 2260.82 -4.43646 -3.28454 0
M  V30 24432 H 2263.3 -2.50989 -3.31879 0
M  V30 24433 H 2262.17 -2.94584 -4.63154 0
M  V30 24434 H 2262.43 -1.2536 -4.23954 0
M  V30 24435 N 2261.49 0.977736 -1.23605 0
M  V30 24436 C 2262.9 1.53396 -1.06427 0
M  V30 24437 C 2263.26 1.92727 0.367544 0
M  V30 24438 O 2262.38 1.76319 1.25462 0
M  V30 24439 C 2262.98 2.78749 -1.92573 0
M  V30 24440 C 2261.53 3.30762 -1.79648 0
M  V30 24441 C 2260.68 2.03735 -1.88115 0
M  V30 24442 H 2263.63 0.797128 -1.37228 0
M  V30 24443 H 2263.65 3.51702 -1.45209 0
M  V30 24444 H 2263.17 2.50092 -2.96775 0
M  V30 24445 H 2261.27 3.64293 -0.782389 0
M  V30 24446 H 2261.38 4.0034 -2.63181 0
M  V30 24447 H 2259.74 2.17991 -1.31726 0
M  V30 24448 H 2260.53 1.77456 -2.93878 0
M  V30 24449 N 2262.97 1.04818 1.1769 0
M  V30 24450 C 2263.92 0.6397 2.23631 0
M  V30 24451 C 2264.91 -0.33719 1.6601 0
M  V30 24452 O 2266.12 -0.203662 1.78844 0
M  V30 24453 H 2262.49 0.188678 0.727945 0
M  V30 24454 H 2264.47 1.54342 2.55384 0
M  V30 24455 C 2263.21 0.0264662 3.4769 0
M  V30 24456 H 2262.54 0.769233 3.9233 0
M  V30 24457 H 2263.98 -0.222024 4.23418 0
M  V30 24458 C 2262.44 -1.22578 3.13809 0
M  V30 24459 O 2262.97 -2.31563 3.2824 0
M  V30 24460 N 2261.17 -1.12197 2.68067 0
M  V30 24461 H 2260.72 -0.235088 2.56525 0
M  V30 24462 H 2260.68 -1.96072 2.45771 0
M  V30 24463 N 2264.45 -1.34055 0.828678 0
M  V30 24464 C 2265.38 -2.3194 0.269483 0
M  V30 24465 C 2266.36 -1.58507 -0.617219 0
M  V30 24466 O 2267.55 -1.86457 -0.542898 0
M  V30 24467 C 2264.68 -3.42678 -0.564733 0
M  V30 24468 C 2263.63 -4.27407 0.225316 0
M  V30 24469 C 2262.96 -5.29666 -0.732007 0
M  V30 24470 C 2264.26 -5.02151 1.43672 0
M  V30 24471 H 2265.95 -2.78958 1.08733 0
M  V30 24472 H 2263.5 -1.34116 0.524307 0
M  V30 24473 H 2265.45 -4.10175 -0.966161 0
M  V30 24474 H 2264.17 -2.94323 -1.41569 0
M  V30 24475 H 2262.83 -3.6152 0.608181 0
M  V30 24476 H 2262.48 -4.77571 -1.57908 0
M  V30 24477 H 2262.18 -5.87233 -0.207566 0
M  V30 24478 H 2263.7 -6.00031 -1.13117 0
M  V30 24479 H 2265.12 -5.62471 1.109 0
M  V30 24480 H 2263.51 -5.6932 1.89721 0
M  V30 24481 H 2264.58 -4.31513 2.21189 0
M  V30 24482 N 2265.93 -0.584167 -1.46374 0
M  V30 24483 C 2266.86 0.135996 -2.33104 0
M  V30 24484 C 2267.84 0.88223 -1.45433 0
M  V30 24485 O 2269.02 0.857403 -1.74248 0
M  V30 24486 C 2266.15 1.14928 -3.27733 0
M  V30 24487 C 2265.11 0.517788 -4.24856 0
M  V30 24488 C 2264.43 1.63764 -5.09004 0
M  V30 24489 C 2265.73 -0.545977 -5.19439 0
M  V30 24490 H 2267.43 -0.588137 -2.93567 0
M  V30 24491 H 2264.97 -0.284284 -1.41166 0
M  V30 24492 H 2266.93 1.66146 -3.87264 0
M  V30 24493 H 2265.65 1.9037 -2.6538 0
M  V30 24494 H 2264.31 0.0266716 -3.6659 0
M  V30 24495 H 2263.96 2.38177 -4.43036 0
M  V30 24496 H 2263.66 1.22075 -5.7478 0
M  V30 24497 H 2265.18 2.15256 -5.71399 0
M  V30 24498 H 2266.6 -0.118805 -5.73177 0
M  V30 24499 H 2264.99 -0.883274 -5.93564 0
M  V30 24500 H 2266.06 -1.4317 -4.63282 0
M  V30 24501 N 2267.41 1.54275 -0.322027 0
M  V30 24502 C 2268.37 2.22942 0.531935 0
M  V30 24503 C 2269.37 1.22236 1.04475 0
M  V30 24504 O 2270.56 1.46826 0.937426 0
M  V30 24505 C 2267.69 2.93227 1.73869 0
M  V30 24506 H 2268.88 2.99822 -0.0683139 0
M  V30 24507 H 2266.44 1.56129 -0.0730918 0
M  V30 24508 H 2267.17 2.2048 2.37822 0
M  V30 24509 H 2266.96 3.67073 1.3784 0
M  V30 24510 H 2268.45 3.45549 2.3449 0
M  V30 24511 N 2268.88 0.0501669 1.5752 0
M  V30 24512 C 2269.83 -0.934194 2.07983 0
M  V30 24513 C 2270.82 -1.27244 0.984767 0
M  V30 24514 O 2272.01 -1.25503 1.24811 0
M  V30 24515 C 2269.14 -2.2094 2.62755 0
M  V30 24516 C 2268.22 -1.89859 3.79229 0
M  V30 24517 N 2268.62 -1.29133 4.89038 0
M  V30 24518 C 2266.91 -2.19734 3.88115 0
M  V30 24519 C 2267.61 -1.15659 5.70086 0
M  V30 24520 N 2266.59 -1.65914 5.17662 0
M  V30 24521 H 2270.39 -0.460002 2.90278 0
M  V30 24522 H 2267.91 -0.154311 1.61665 0
M  V30 24523 H 2269.9 -2.92355 2.97211 0
M  V30 24524 H 2268.56 -2.68966 1.81899 0
M  V30 24525 H 2269.57 -0.963667 5.08855 0
M  V30 24526 H 2266.25 -2.70288 3.18199 0
M  V30 24527 H 2267.64 -0.685238 6.68397 0
M  V30 24528 N 2270.36 -1.56011 -0.223207 0
M  V30 24529 C 2271.31 -1.9228 -1.2766 0
M  V30 24530 C 2272.28 -0.779789 -1.46658 0
M  V30 24531 O 2273.46 -1.03554 -1.60254 0
M  V30 24532 C 2270.6 -2.24343 -2.6223 0
M  V30 24533 C 2269.72 -3.51569 -2.51045 0
M  V30 24534 C 2268.85 -3.73087 -3.78126 0
M  V30 24535 C 2267.89 -4.93833 -3.61657 0
M  V30 24536 N 2267.03 -5.11749 -4.80684 0
M  V30 24537 H 2271.87 -2.82103 -0.960308 0
M  V30 24538 H 2269.4 -1.39628 -0.462876 0
M  V30 24539 H 2271.36 -2.40942 -3.40592 0
M  V30 24540 H 2269.99 -1.37695 -2.91959 0
M  V30 24541 H 2269.04 -3.43172 -1.64126 0
M  V30 24542 H 2270.36 -4.40083 -2.34795 0
M  V30 24543 H 2269.51 -3.89774 -4.64931 0
M  V30 24544 H 2268.25 -2.82851 -3.97299 0
M  V30 24545 H 2267.25 -4.77098 -2.73236 0
M  V30 24546 H 2268.48 -5.85552 -3.43956 0
M  V30 24547 H 2266.43 -4.24455 -5.00174 0
M  V30 24548 H 2266.34 -5.94393 -4.67155 0
M  V30 24549 H 2267.61 -5.3287 -5.6892 0
M  V30 24550 N 2271.84 0.489844 -1.49794 0
M  V30 24551 C 2272.79 1.61093 -1.67785 0
M  V30 24552 C 2273.78 1.60437 -0.543711 0
M  V30 24553 O 2274.99 1.64812 -0.723676 0
M  V30 24554 H 2271.36 0.534212 -0.529265 0
M  V30 24555 H 2273.33 1.43074 -2.61863 0
M  V30 24556 C 2272.08 2.9916 -1.77196 0
M  V30 24557 H 2271.41 3.00375 -2.63846 0
M  V30 24558 H 2272.85 3.77109 -1.93816 0
M  V30 24559 C 2271.3 3.32874 -0.519262 0
M  V30 24560 O 2271.83 4.00172 0.350054 0
M  V30 24561 N 2270.04 2.8812 -0.378867 0
M  V30 24562 H 2269.59 2.33529 -1.0873 0
M  V30 24563 H 2269.55 3.11043 0.458185 0
M  V30 24564 N 2273.32 1.39056 0.741698 0
M  V30 24565 C 2274.57 1.35646 1.49815 0
M  V30 24566 C 2274.89 -0.0491299 1.94938 0
M  V30 24567 O 2274.16 -0.999111 1.68507 0
M  V30 24568 H 2272.74 0.499154 0.555746 0
M  V30 24569 H 2275.4 1.73855 0.880927 0
M  V30 24570 H 2274.49 2.0149 2.38344 0
M  V30 24571 N 2274.8 -0.971167 1.24121 0
M  V30 24572 C 2275.73 -2.08302 1.05511 0
M  V30 24573 C 2276.71 -1.70072 -0.0308565 0
M  V30 24574 O 2277.89 -1.93726 0.135556 0
M  V30 24575 C 2275.02 -3.41059 0.655425 0
M  V30 24576 C 2273.98 -3.93231 1.68978 0
M  V30 24577 C 2273.3 -5.22291 1.14525 0
M  V30 24578 C 2274.6 -4.2146 3.08494 0
M  V30 24579 H 2276.3 -2.24129 1.98511 0
M  V30 24580 H 2273.84 -1.07702 0.95584 0
M  V30 24581 H 2275.79 -4.18275 0.512243 0
M  V30 24582 H 2274.52 -3.25123 -0.310263 0
M  V30 24583 H 2273.18 -3.18168 1.82111 0
M  V30 24584 H 2272.83 -5.02712 0.170277 0
M  V30 24585 H 2272.53 -5.58165 1.83645 0
M  V30 24586 H 2274.05 -6.0212 1.01412 0
M  V30 24587 H 2275.46 -4.89393 2.98609 0
M  V30 24588 H 2273.86 -4.68555 3.74935 0
M  V30 24589 H 2274.93 -3.2837 3.56793 0
M  V30 24590 N 2276.27 -1.05441 -1.17133 0
M  V30 24591 C 2277.52 -0.765975 -1.87454 0
M  V30 24592 C 2277.85 0.707121 -1.81191 0
M  V30 24593 O 2277.1 1.53307 -1.21636 0
M  V30 24594 C 2277.4 -1.19497 -3.36831 0
M  V30 24595 C 2277.07 -2.6707 -3.63297 0
M  V30 24596 C 2275.73 -3.07382 -3.70229 0
M  V30 24597 C 2278.08 -3.6242 -3.74568 0
M  V30 24598 C 2275.41 -4.41903 -3.85926 0
M  V30 24599 C 2277.76 -4.96677 -3.91784 0
M  V30 24600 C 2276.43 -5.3664 -3.96956 0
M  V30 24601 H 2275.7 -0.28029 -0.685943 0
M  V30 24602 H 2278.34 -1.32194 -1.38553 0
M  V30 24603 H 2276.65 -0.558037 -3.87806 0
M  V30 24604 H 2278.35 -0.948961 -3.8961 0
M  V30 24605 H 2274.94 -2.34853 -3.58528 0
M  V30 24606 H 2279.12 -3.32413 -3.68531 0
M  V30 24607 H 2274.38 -4.72363 -3.88179 0
M  V30 24608 H 2278.55 -5.70451 -3.99448 0
M  V30 24609 H 2276.18 -6.40881 -4.08871 0
M  V30 24610 N 2277.75 1.33613 -0.835776 0
M  V30 24611 C 2278.98 2.02626 -0.442425 0
M  V30 24612 C 2279.4 1.62481 0.947707 0
M  V30 24613 O 2278.76 0.815854 1.61906 0
M  V30 24614 C 2278.81 3.5611 -0.567279 0
M  V30 24615 O 2277.91 4.1038 0.407726 0
M  V30 24616 H 2277.25 0.639055 -0.180289 0
M  V30 24617 H 2279.78 1.70581 -1.12975 0
M  V30 24618 H 2279.79 4.05535 -0.44778 0
M  V30 24619 H 2278.47 3.84674 -1.58109 0
M  V30 24620 H 2277.05 3.72087 0.246042 0
M  V30 24621 N 2279.23 0.591922 1.46062 0
M  V30 24622 C 2280.46 0.0869299 2.06717 0
M  V30 24623 C 2280.87 -1.22201 1.43918 0
M  V30 24624 O 2280.23 -1.74087 0.547729 0
M  V30 24625 C 2280.28 -0.0758089 3.61421 0
M  V30 24626 O 2280 1.18133 4.21872 0
M  V30 24627 C 2281.5 -0.614083 4.39026 0
M  V30 24628 H 2278.72 0.0616635 0.668161 0
M  V30 24629 H 2281.27 0.815208 1.87549 0
M  V30 24630 H 2279.42 -0.754346 3.79985 0
M  V30 24631 H 2279.84 1.00101 5.14859 0
M  V30 24632 H 2281.31 -0.677097 5.47832 0
M  V30 24633 H 2281.79 -1.63305 4.07711 0
M  V30 24634 H 2282.39 0.029889 4.25289 0
M  V30 24635 N 2280.71 -1.54102 0.330204 0
M  V30 24636 C 2281.64 -2.27514 -0.525313 0
M  V30 24637 C 2282.62 -1.28562 -1.11381 0
M  V30 24638 O 2283.8 -1.57385 -1.1377 0
M  V30 24639 C 2280.93 -3.03794 -1.68305 0
M  V30 24640 C 2279.89 -4.10139 -1.22353 0
M  V30 24641 C 2279.21 -4.74297 -2.46873 0
M  V30 24642 C 2280.51 -5.21234 -0.333605 0
M  V30 24643 H 2282.21 -2.99273 0.0870656 0
M  V30 24644 H 2279.75 -1.43935 0.0433146 0
M  V30 24645 H 2281.71 -3.53884 -2.28788 0
M  V30 24646 H 2280.43 -2.29663 -2.32212 0
M  V30 24647 H 2279.09 -3.60942 -0.641586 0
M  V30 24648 H 2278.74 -3.96775 -3.09159 0
M  V30 24649 H 2278.44 -5.46136 -2.16815 0
M  V30 24650 H 2279.96 -5.27164 -3.08107 0
M  V30 24651 H 2281.38 -5.6704 -0.844913 0
M  V30 24652 H 2279.77 -5.99969 -0.125507 0
M  V30 24653 H 2280.84 -4.8074 0.633808 0
M  V30 24654 N 2282.19 -0.0585199 -1.57491 0
M  V30 24655 C 2283.43 0.614524 -1.93265 0
M  V30 24656 C 2283.77 1.70059 -0.937746 0
M  V30 24657 O 2283.04 1.94468 0.0351311 0
M  V30 24658 C 2283.32 1.2038 -3.39383 0
M  V30 24659 C 2283.18 0.125296 -4.49625 0
M  V30 24660 C 2284.5 2.11327 -3.86043 0
M  V30 24661 H 2281.61 0.22192 -0.702795 0
M  V30 24662 H 2284.26 -0.121783 -1.89609 0
M  V30 24663 H 2282.41 1.83133 -3.42629 0
M  V30 24664 H 2284.08 -0.507051 -4.58505 0
M  V30 24665 H 2282.32 -0.545747 -4.30353 0
M  V30 24666 H 2282.99 0.577765 -5.48968 0
M  V30 24667 H 2285.47 1.58527 -3.84719 0
M  V30 24668 H 2284.34 2.49499 -4.88919 0
M  V30 24669 H 2284.61 3.0163 -3.23221 0
M  V30 24670 N 2283.66 1.56128 0.21493 0
M  V30 24671 C 2284.6 1.8798 1.29379 0
M  V30 24672 C 2285.58 0.737832 1.44896 0
M  V30 24673 O 2286.76 0.986861 1.60603 0
M  V30 24674 C 2283.89 2.09263 2.66321 0
M  V30 24675 C 2282.93 3.31955 2.67783 0
M  V30 24676 S 2283.77 4.87684 2.2119 0
M  V30 24677 C 2284.92 5.12011 3.59994 0
M  V30 24678 H 2285.15 2.79194 1.02168 0
M  V30 24679 H 2282.69 1.48649 0.41749 0
M  V30 24680 H 2284.65 2.22207 3.45158 0
M  V30 24681 H 2283.31 1.18834 2.90753 0
M  V30 24682 H 2282.5 3.43912 3.6843 0
M  V30 24683 H 2282.1 3.17902 1.97014 0
M  V30 24684 H 2284.39 5.01315 4.5573 0
M  V30 24685 H 2285.34 6.13867 3.52948 0
M  V30 24686 H 2285.74 4.39718 3.53989 0
M  V30 24687 N 2285.14 -0.481893 1.50052 0
M  V30 24688 C 2286.37 -1.25829 1.64239 0
M  V30 24689 C 2286.79 -1.86045 0.321369 0
M  V30 24690 O 2286.14 -1.6873 -0.695448 0
M  V30 24691 C 2286.19 -2.37482 2.72552 0
M  V30 24692 O 2285.91 -1.79738 3.99532 0
M  V30 24693 C 2287.42 -3.28541 2.97616 0
M  V30 24694 H 2284.64 -0.380947 0.552377 0
M  V30 24695 H 2287.18 -0.576433 1.96208 0
M  V30 24696 H 2285.33 -3.01463 2.43308 0
M  V30 24697 H 2285.75 -2.53182 4.59347 0
M  V30 24698 H 2287.22 -4.0312 3.77092 0
M  V30 24699 H 2287.7 -3.8668 2.08266 0
M  V30 24700 H 2288.31 -2.70308 3.2835 0
M  V30 24701 N 2286.62 -1.39448 -0.734313 0
M  V30 24702 C 2287.57 -1.38367 -1.86969 0
M  V30 24703 C 2288.56 -0.266717 -1.67287 0
M  V30 24704 O 2289.77 -0.436786 -1.7462 0
M  V30 24705 H 2286.14 -0.432093 -0.615467 0
M  V30 24706 H 2288.11 -2.34135 -1.84996 0
M  V30 24707 C 2286.86 -1.2447 -3.24657 0
M  V30 24708 H 2286.19 -2.09688 -3.40399 0
M  V30 24709 H 2287.63 -1.27771 -4.0429 0
M  V30 24710 C 2286.09 0.0468082 -3.36867 0
M  V30 24711 O 2286.62 1.01675 -3.8862 0
M  V30 24712 N 2284.82 0.110094 -2.90391 0
M  V30 24713 H 2284.37 -0.679912 -2.48465 0
M  V30 24714 H 2284.33 0.973747 -2.98941 0
M  V30 24715 N 2288.1 0.964571 -1.24635 0
M  V30 24716 C 2289.05 2.05966 -1.04148 0
M  V30 24717 C 2290.02 1.66036 0.0462328 0
M  V30 24718 O 2291.2 1.90488 -0.109006 0
M  V30 24719 C 2288.34 3.38814 -0.65569 0
M  V30 24720 C 2287.45 3.9192 -1.81721 0
M  V30 24721 C 2286.59 5.1305 -1.37671 0
M  V30 24722 C 2285.63 5.58361 -2.50798 0
M  V30 24723 N 2284.76 6.70708 -2.07593 0
M  V30 24724 H 2289.6 2.22823 -1.97873 0
M  V30 24725 H 2287.14 1.09206 -0.985519 0
M  V30 24726 H 2289.1 4.1515 -0.413027 0
M  V30 24727 H 2287.73 3.21872 0.24457 0
M  V30 24728 H 2286.78 3.12194 -2.17345 0
M  V30 24729 H 2288.09 4.21504 -2.66712 0
M  V30 24730 H 2287.25 5.96771 -1.09311 0
M  V30 24731 H 2285.99 4.85157 -0.497378 0
M  V30 24732 H 2284.99 4.7321 -2.79914 0
M  V30 24733 H 2286.22 5.88266 -3.39293 0
M  V30 24734 H 2284.16 6.44544 -1.22063 0
M  V30 24735 H 2284.08 6.99758 -2.86137 0
M  V30 24736 H 2285.35 7.57863 -1.82382 0
M  V30 24737 O 2289.62 1.18515 1.0971 0
M  V30 24738 H 2290.31 0.928577 1.69992 0
M  V30 END ATOM
M  V30 BEGIN BOND
M  V30 END BOND
M  V30 END CTAB
M  END
$$$$
