drugbank_target|O60733 85/88 kDa calcium-independent phospholipase A2 (DB01103)
 OpenBabel12092119473D

  0  0  0     0  0            999 V3000
M  V30 BEGIN CTAB
M  V30 COUNTS 12585 12723 0 0 0
M  V30 BEGIN ATOM
M  V30 1 H -0.908 1.98254 -0.117106 0
M  V30 2 N 0 1.576 0 0
M  V30 3 C 0.933 2.03868 1.02534 0
M  V30 4 C 1.911 0.928543 1.3348 0
M  V30 5 O 3.095 1.19667 1.45644 0
M  V30 6 C 0.222 2.43627 2.35294 0
M  V30 7 C -0.732 3.65373 2.2001 0
M  V30 8 S 0.101 5.13292 1.52614 0
M  V30 9 C 1.257 5.56322 2.86805 0
M  V30 10 H 1.49 2.90518 0.631377 0
M  V30 11 H -0.977 1.52953 0.210867 0
M  V30 12 H 0.981 2.67203 3.11629 0
M  V30 13 H -0.358 1.57376 2.7183 0
M  V30 14 H -1.165 3.90944 3.18086 0
M  V30 15 H -1.563 3.418 1.51819 0
M  V30 16 H 0.729 5.58782 3.83104 0
M  V30 17 H 1.672 6.56266 2.65933 0
M  V30 18 H 2.08 4.83886 2.90714 0
M  V30 19 N 1.4781 -0.272755 1.55222 0
M  V30 20 C 2.4101 -1.35946 1.8453 0
M  V30 21 C 3.4231 -1.45525 0.729818 0
M  V30 22 O 4.6121 -1.47337 1.00767 0
M  V30 23 C 1.7121 -2.74069 1.99347 0
M  V30 24 C 0.8851 -2.87079 3.30007 0
M  V30 25 C -0.0559 -4.05879 3.34886 0
M  V30 26 O -1.0299 -3.96626 4.08261 0
M  V30 27 N 0.1721 -5.17857 2.62307 0
M  V30 28 H 2.9371 -1.11149 2.78327 0
M  V30 29 H 0.4981 -0.462869 1.55142 0
M  V30 30 H 2.4901 -3.51838 1.99981 0
M  V30 31 H 1.0601 -2.91688 1.12415 0
M  V30 32 H 0.2801 -1.96193 3.41909 0
M  V30 33 H 1.5681 -2.92701 4.16177 0
M  V30 34 H 0.9661 -5.28261 2.02377 0
M  V30 35 H -0.4769 -5.93855 2.68663 0
M  V30 36 N 2.9562 -1.48159 -0.537278 0
M  V30 37 C 4.2032 -1.55804 -1.29349 0
M  V30 38 C 4.5312 -0.228802 -1.9315 0
M  V30 39 O 3.7862 0.780242 -1.79473 0
M  V30 40 C 4.0852 -2.63956 -2.40961 0
M  V30 41 C 3.7512 -4.0662 -1.94861 0
M  V30 42 C 2.4132 -4.45452 -1.82006 0
M  V30 43 C 4.7652 -4.96055 -1.59933 0
M  V30 44 C 2.0932 -5.71531 -1.32547 0
M  V30 45 C 4.4452 -6.22617 -1.11939 0
M  V30 46 C 3.1092 -6.60312 -0.976951 0
M  V30 47 H 2.3792 -0.570129 -0.473322 0
M  V30 48 H 5.0262 -1.81845 -0.600372 0
M  V30 49 H 3.3312 -2.31747 -3.15912 0
M  V30 50 H 5.0282 -2.67089 -2.99107 0
M  V30 51 H 1.6182 -3.75949 -2.05815 0
M  V30 52 H 5.8022 -4.66738 -1.68728 0
M  V30 53 H 1.0582 -5.99468 -1.202 0
M  V30 54 H 5.2322 -6.91318 -0.839811 0
M  V30 55 H 2.8592 -7.57895 -0.591501 0
M  V30 56 N 4.4343 0.785586 -1.36625 0
M  V30 57 C 5.6813 1.54362 -1.31067 0
M  V30 58 C 6.0093 1.94195 0.10893 0
M  V30 59 O 5.2643 1.63262 1.07908 0
M  V30 60 C 5.5633 2.83007 -2.1827 0
M  V30 61 C 5.2293 2.62294 -3.6676 0
M  V30 62 C 3.8913 2.56353 -4.0723 0
M  V30 63 C 6.2433 2.43371 -4.6089 0
M  V30 64 C 3.5713 2.29461 -5.39967 0
M  V30 65 C 5.9233 2.18005 -5.93849 0
M  V30 66 C 4.5873 2.105 -6.3344 0
M  V30 67 H 3.8573 0.564851 -0.479609 0
M  V30 68 H 6.5043 0.906028 -1.68711 0
M  V30 69 H 4.8093 3.51253 -1.73576 0
M  V30 70 H 6.5063 3.40817 -2.11292 0
M  V30 71 H 3.0963 2.67774 -3.34656 0
M  V30 72 H 7.2803 2.46959 -4.30494 0
M  V30 73 H 2.5363 2.22135 -5.69619 0
M  V30 74 H 6.7103 2.02359 -6.66351 0
M  V30 75 H 4.3373 1.89425 -7.36222 0
M  V30 76 N 5.9124 1.20967 1.01018 0
M  V30 77 C 7.1604 1.02172 1.74371 0
M  V30 78 C 7.4814 -0.446414 1.89821 0
M  V30 79 O 6.7514 -1.32234 1.44537 0
M  V30 80 H 5.3314 0.375066 0.646014 0
M  V30 81 H 7.9934 1.52187 1.21758 0
M  V30 82 H 7.0894 1.48538 2.74487 0
M  V30 83 N 7.3905 -1.2043 1.01659 0
M  V30 84 C 8.8065 -1.41852 0.731442 0
M  V30 85 C 9.0065 -1.89358 -0.688898 0
M  V30 86 O 8.0625 -2.06247 -1.45666 0
M  V30 87 C 9.3755 -2.44019 1.75714 0
M  V30 88 C 10.9235 -2.57785 1.77527 0
M  V30 89 C 11.3985 -3.63194 2.79023 0
M  V30 90 N 12.8895 -3.70678 2.77763 0
M  V30 91 C 13.6245 -4.51897 3.52954 0
M  V30 92 N 13.1205 -5.36921 4.37821 0
M  V30 93 N 14.9135 -4.4643 3.41551 0
M  V30 94 H 7.0645 -0.879093 1.93354 0
M  V30 95 H 9.3275 -0.448425 0.835236 0
M  V30 96 H 9.0335 -2.1611 2.77469 0
M  V30 97 H 8.9075 -3.43007 1.56927 0
M  V30 98 H 11.2945 -2.85023 0.764569 0
M  V30 99 H 11.3755 -1.58992 2.00387 0
M  V30 100 H 11.0195 -3.36699 3.80258 0
M  V30 101 H 10.9495 -4.61609 2.53425 0
M  V30 102 H 13.4405 -3.09944 2.16201 0
M  V30 103 H 13.7535 -5.95981 4.91962 0
M  V30 104 H 12.0985 -5.36424 4.41899 0
M  V30 105 H 15.2895 -3.79042 2.74672 0
M  V30 106 H 15.4625 -5.09491 4.00404 0
M  V30 107 N 8.8686 -0.792821 -1.36206 0
M  V30 108 C 9.7986 -0.207853 -2.32573 0
M  V30 109 C 10.7796 0.659055 -1.56813 0
M  V30 110 O 11.9646 0.592176 -1.84951 0
M  V30 111 C 9.0946 0.655449 -3.41059 0
M  V30 112 C 8.0486 -0.111842 -4.27854 0
M  V30 113 C 7.3746 0.872274 -5.27537 0
M  V30 114 C 8.6746 -1.30299 -5.05786 0
M  V30 115 H 10.3686 -1.01294 -2.81744 0
M  V30 116 H 7.9146 -0.48854 -1.3546 0
M  V30 117 H 9.8676 1.07464 -4.07467 0
M  V30 118 H 8.5916 1.49328 -2.90463 0
M  V30 119 H 7.2506 -0.512053 -3.63006 0
M  V30 120 H 6.8986 1.70523 -4.73214 0
M  V30 121 H 6.5986 0.363291 -5.86476 0
M  V30 122 H 8.1226 1.28996 -5.96818 0
M  V30 123 H 9.5366 -0.959379 -5.65216 0
M  V30 124 H 7.9336 -1.7455 -5.74154 0
M  V30 125 H 9.0036 -2.09663 -4.37229 0
M  V30 126 N 10.3467 1.47872 -0.545128 0
M  V30 127 C 11.5927 2.02793 -0.0166104 0
M  V30 128 C 11.9257 1.41987 1.32489 0
M  V30 129 O 11.2007 0.571045 1.85928 0
M  V30 130 C 11.4837 3.59989 0.0893294 0
M  V30 131 C 11.3367 4.3125 -1.27841 0
M  V30 132 C 12.6557 4.32606 0.808724 0
M  V30 133 H 9.7747 0.736962 -0.00751035 0
M  V30 134 H 12.4167 1.76433 -0.705085 0
M  V30 135 H 10.5667 3.82579 0.675681 0
M  V30 136 H 12.2387 4.20035 -1.90704 0
M  V30 137 H 10.4817 3.92076 -1.85632 0
M  V30 138 H 11.1527 5.39736 -1.15713 0
M  V30 139 H 13.6287 4.14936 0.310992 0
M  V30 140 H 12.5047 5.42251 0.851782 0
M  V30 141 H 12.7657 4.00963 1.86229 0
M  V30 142 N 11.8248 0.280983 1.55075 0
M  V30 143 C 12.7728 -0.619864 2.24188 0
M  V30 144 C 13.7668 -1.15315 1.24092 0
M  V30 145 O 14.9728 -1.1061 1.42005 0
M  V30 146 H 11.3478 -0.218459 0.719569 0
M  V30 147 H 13.3188 -0.0141831 2.98397 0
M  V30 148 C 12.0678 -1.7899 2.98091 0
M  V30 149 H 11.3908 -1.38874 3.74905 0
M  V30 150 H 12.8308 -2.39672 3.49762 0
M  V30 151 C 11.2898 -2.68192 2.03899 0
M  V30 152 O 11.8198 -3.6872 1.594 0
M  V30 153 N 10.0258 -2.35488 1.70275 0
M  V30 154 H 9.5728 -1.53787 2.06658 0
M  V30 155 H 9.5308 -2.95442 1.07524 0
M  V30 156 N 13.3029 -1.57598 0.00835791 0
M  V30 157 C 14.5309 -1.95214 -0.68549 0
M  V30 158 C 14.9459 -0.883706 -1.66841 0
M  V30 159 O 14.3029 0.136565 -1.81988 0
M  V30 160 C 14.3539 -3.32865 -1.41007 0
M  V30 161 O 14.0749 -4.35609 -0.466552 0
M  V30 162 C 15.5759 -3.84991 -2.19765 0
M  V30 163 H 12.7959 -0.643422 -0.190392 0
M  V30 164 H 15.3399 -2.04406 0.0619607 0
M  V30 165 H 13.4949 -3.24956 -2.10908 0
M  V30 166 H 13.9089 -5.15288 -0.978699 0
M  V30 167 H 15.3829 -4.8371 -2.65948 0
M  V30 168 H 15.8599 -3.18137 -3.02796 0
M  V30 169 H 16.4659 -3.96103 -1.54864 0
M  V30 170 N 14.781 0.264519 -1.55364 0
M  V30 171 C 16.028 0.994986 -1.7637 0
M  V30 172 C 16.356 1.85976 -0.5695 0
M  V30 173 O 15.611 1.90509 0.44776 0
M  V30 174 C 15.91 1.9004 -3.02687 0
M  V30 175 C 15.576 1.19243 -4.34847 0
M  V30 176 C 14.238 0.996709 -4.70764 0
M  V30 177 C 16.59 0.689296 -5.16622 0
M  V30 178 C 13.918 0.285261 -5.86006 0
M  V30 179 C 16.27 -0.00860079 -6.32599 0
M  V30 180 C 14.934 -0.215963 -6.67151 0
M  V30 181 H 14.204 0.364091 -0.645383 0
M  V30 182 H 16.851 0.266543 -1.89636 0
M  V30 183 H 15.156 2.69533 -2.84357 0
M  V30 184 H 16.853 2.46695 -3.16137 0
M  V30 185 H 13.443 1.3549 -4.06621 0
M  V30 186 H 17.627 0.828108 -4.89342 0
M  V30 187 H 12.883 0.113961 -6.11294 0
M  V30 188 H 17.057 -0.406186 -6.95214 0
M  V30 189 H 14.684 -0.769217 -7.56298 0
M  V30 190 N 16.2591 1.48442 0.529413 0
M  V30 191 C 17.4841 1.60406 1.31471 0
M  V30 192 C 17.9091 0.264738 1.86228 0
M  V30 193 O 17.2671 -0.763668 1.64432 0
M  V30 194 C 17.3151 2.65419 2.44101 0
M  V30 195 O 16.4191 2.22618 3.47153 0
M  V30 196 H 15.7601 0.537863 0.389357 0
M  V30 197 H 18.2901 1.94432 0.636965 0
M  V30 198 H 18.3001 2.86709 2.90279 0
M  V30 199 H 16.9751 3.62652 2.03608 0
M  V30 200 H 15.5521 2.11543 3.0709 0
M  V30 201 N 17.7372 -0.778329 1.37039 0
M  V30 202 C 18.9852 -1.53361 1.31623 0
M  V30 203 C 19.3062 -1.94739 -0.100831 0
M  V30 204 O 18.5762 -1.65797 -1.04347 0
M  V30 205 H 17.1562 -0.568794 0.484234 0
M  V30 206 H 19.8182 -0.926742 1.71457 0
M  V30 207 H 18.9142 -2.43606 1.95096 0
M  V30 208 N 19.2153 -1.21501 -1.00376 0
M  V30 209 C 20.4613 -1.03452 -1.74429 0
M  V30 210 C 20.7943 0.430764 -1.89362 0
M  V30 211 O 20.0693 1.31962 -1.42886 0
M  V30 212 C 20.3523 -1.73375 -3.15615 0
M  V30 213 C 20.2053 -3.27431 -3.08397 0
M  V30 214 C 21.5243 -1.47732 -4.14564 0
M  V30 215 H 18.6433 -0.377226 -0.633143 0
M  V30 216 H 21.2853 -1.49693 -1.17013 0
M  V30 217 H 19.4353 -1.34064 -3.64636 0
M  V30 218 H 21.1073 -3.76119 -2.67081 0
M  V30 219 H 19.3503 -3.5767 -2.45468 0
M  V30 220 H 20.0213 -3.71524 -4.08258 0
M  V30 221 H 22.4973 -1.8186 -3.74254 0
M  V30 222 H 21.3733 -1.99169 -5.11491 0
M  V30 223 H 21.6343 -0.407589 -4.40217 0
M  V30 224 N 20.6934 1.19889 -1.02296 0
M  V30 225 C 21.9214 1.9339 -0.735399 0
M  V30 226 C 22.3364 1.75148 0.704887 0
M  V30 227 O 21.6934 1.06954 1.47875 0
M  V30 228 C 21.7444 3.45313 -1.06962 0
M  V30 229 O 21.4654 3.62964 -2.45334 0
M  V30 230 C 22.9664 4.35948 -0.804021 0
M  V30 231 H 20.1864 0.61448 -0.269546 0
M  V30 232 H 22.7304 1.522 -1.36585 0
M  V30 233 H 20.8854 3.84359 -0.484455 0
M  V30 234 H 21.2994 4.56886 -2.57595 0
M  V30 235 H 22.7734 5.41174 -1.0879 0
M  V30 236 H 23.2504 4.3842 0.261691 0
M  V30 237 H 23.8564 4.02574 -1.37164 0
M  V30 238 N 22.1715 0.800033 1.35784 0
M  V30 239 C 23.1195 0.193851 2.31791 0
M  V30 240 C 24.1135 -0.652744 1.56319 0
M  V30 241 O 25.3195 -0.546641 1.71499 0
M  V30 242 H 21.6945 0.04392 0.750716 0
M  V30 243 H 23.6655 1.01883 2.80468 0
M  V30 244 C 22.4145 -0.648338 3.41602 0
M  V30 245 H 21.7375 -0.00624665 3.998 0
M  V30 246 H 23.1775 -1.03898 4.11073 0
M  V30 247 C 21.6365 -1.8111 2.84079 0
M  V30 248 O 22.1665 -2.90825 2.77099 0
M  V30 249 N 20.3725 -1.62056 2.41218 0
M  V30 250 H 19.9195 -0.728123 2.47095 0
M  V30 251 H 19.8775 -2.40013 2.03079 0
M  V30 252 N 23.6496 -1.47581 0.552962 0
M  V30 253 C 24.5796 -2.32762 -0.185451 0
M  V30 254 C 25.5606 -1.43527 -0.912905 0
M  V30 255 O 26.7456 -1.72388 -0.894201 0
M  V30 256 C 23.8756 -3.25219 -1.21859 0
M  V30 257 C 22.8296 -4.23661 -0.607864 0
M  V30 258 C 22.1556 -5.05413 -1.74533 0
M  V30 259 C 23.4556 -5.20481 0.435582 0
M  V30 260 H 25.1496 -2.94749 0.525684 0
M  V30 261 H 22.6956 -1.41738 0.254251 0
M  V30 262 H 24.6486 -3.8365 -1.7433 0
M  V30 263 H 23.3726 -2.61279 -1.95961 0
M  V30 264 H 22.0316 -3.66451 -0.104489 0
M  V30 265 H 21.6796 -4.3788 -2.47529 0
M  V30 266 H 21.3796 -5.72059 -1.34249 0
M  V30 267 H 22.9036 -5.66701 -2.27338 0
M  V30 268 H 24.3176 -5.733 -0.00290157 0
M  V30 269 H 22.7146 -5.95305 0.757067 0
M  V30 270 H 23.7846 -4.66217 1.33303 0
M  V30 271 N 25.1277 -0.289203 -1.54924 0
M  V30 272 C 26.3747 0.323519 -1.99899 0
M  V30 273 C 26.7027 1.54797 -1.17762 0
M  V30 274 O 25.9577 1.94237 -0.238835 0
M  V30 275 C 26.2567 0.736119 -3.49737 0
M  V30 276 C 25.9227 -0.385276 -4.49251 0
M  V30 277 C 24.5847 -0.693156 -4.76181 0
M  V30 278 C 26.9367 -1.14021 -5.08575 0
M  V30 279 C 24.2647 -1.7593 -5.59701 0
M  V30 280 C 26.6167 -2.19619 -5.93254 0
M  V30 281 C 25.2807 -2.51026 -6.185 0
M  V30 282 H 24.5507 0.118384 -0.731482 0
M  V30 283 H 27.1977 -0.405847 -1.8715 0
M  V30 284 H 25.5027 1.54539 -3.60035 0
M  V30 285 H 27.1997 1.22118 -3.81953 0
M  V30 286 H 23.7897 -0.135202 -4.28387 0
M  V30 287 H 27.9737 -0.915611 -4.87781 0
M  V30 288 H 23.2297 -2.0075 -5.77503 0
M  V30 289 H 27.4037 -2.78581 -6.38252 0
M  V30 290 H 25.0307 -3.33772 -6.83008 0
M  V30 291 N 26.6058 1.57591 -0.0167156 0
M  V30 292 C 27.8308 1.9598 0.67872 0
M  V30 293 C 28.2558 0.892546 1.65575 0
M  V30 294 O 27.6138 -0.147772 1.80697 0
M  V30 295 C 27.6618 3.33468 1.37227 0
M  V30 296 O 26.7658 3.28954 2.48722 0
M  V30 297 H 26.1068 0.639339 0.17928 0
M  V30 298 H 28.6368 2.04463 -0.0748802 0
M  V30 299 H 28.6468 3.69417 1.7319 0
M  V30 300 H 27.3218 4.10694 0.656007 0
M  V30 301 H 25.8988 3.04705 2.14963 0
M  V30 302 N 28.0839 -0.256276 1.55502 0
M  V30 303 C 29.0319 -1.33694 1.90338 0
M  V30 304 C 30.0259 -1.50299 0.781441 0
M  V30 305 O 31.2319 -1.51885 0.965966 0
M  V30 306 H 27.6069 -0.447483 0.60437 0
M  V30 307 H 29.5779 -1.01574 2.8058 0
M  V30 308 C 28.3269 -2.68724 2.20642 0
M  V30 309 H 27.6499 -2.56743 3.06469 0
M  V30 310 H 29.0899 -3.43237 2.48926 0
M  V30 311 C 27.5489 -3.21101 1.01959 0
M  V30 312 O 28.0789 -4.0084 0.262762 0
M  V30 313 N 26.2849 -2.79003 0.812746 0
M  V30 314 H 25.8319 -2.14271 1.42989 0
M  V30 315 H 25.7899 -3.14393 0.0203076 0
M  V30 316 N 29.562 -1.4872 -0.521534 0
M  V30 317 C 30.973 -1.50607 -1.10337 0
M  V30 318 C 31.324 -0.280612 -1.94183 0
M  V30 319 O 30.449 0.611507 -2.0758 0
M  V30 320 C 31.044 -2.72903 -2.00772 0
M  V30 321 C 29.603 -2.77634 -2.54158 0
M  V30 322 C 28.75 -2.44241 -1.31307 0
M  V30 323 H 31.701 -1.55714 -0.306388 0
M  V30 324 H 31.722 -2.519 -2.85178 0
M  V30 325 H 31.234 -3.62077 -1.39721 0
M  V30 326 H 29.335 -1.92689 -3.18907 0
M  V30 327 H 29.448 -3.79283 -2.92714 0
M  V30 328 H 27.812 -1.95577 -1.63161 0
M  V30 329 H 28.595 -3.35666 -0.719943 0
M  V30 330 N 31.0401 0.771051 -1.3745 0
M  V30 331 C 32.2871 1.52963 -1.32697 0
M  V30 332 C 32.6151 1.94299 0.0883274 0
M  V30 333 O 31.8701 1.64397 1.0617 0
M  V30 334 C 32.1691 2.80676 -2.2126 0
M  V30 335 C 31.8351 2.58389 -3.69521 0
M  V30 336 C 30.4971 2.52019 -4.09927 0
M  V30 337 C 32.8491 2.38469 -4.63446 0
M  V30 338 C 30.1771 2.23721 -5.42371 0
M  V30 339 C 32.5291 2.11694 -5.96128 0
M  V30 340 C 31.1931 2.03769 -6.35637 0
M  V30 341 H 30.4631 0.559732 -0.485573 0
M  V30 342 H 33.1101 0.888083 -1.69662 0
M  V30 343 H 31.4151 3.49392 -1.77291 0
M  V30 344 H 33.1121 3.38557 -2.14895 0
M  V30 345 H 29.7021 2.6421 -3.37478 0
M  V30 346 H 33.8861 2.4238 -4.33089 0
M  V30 347 H 29.1421 2.16081 -5.71943 0
M  V30 348 H 33.3161 1.9528 -6.6846 0
M  V30 349 H 30.9431 1.81606 -7.38189 0
M  V30 350 N 32.5182 1.22032 0.997298 0
M  V30 351 C 33.9342 0.979326 1.26021 0
M  V30 352 C 34.1342 -0.32972 1.98784 0
M  V30 353 O 33.1902 -1.05345 2.29475 0
M  V30 354 C 34.5032 2.17509 2.07631 0
M  V30 355 C 36.0512 2.21817 2.2083 0
M  V30 356 C 36.5262 3.40933 3.05825 0
M  V30 357 N 38.0172 3.41067 3.13412 0
M  V30 358 C 38.7522 4.29885 3.79455 0
M  V30 359 N 38.2482 5.28914 4.47462 0
M  V30 360 N 40.0412 4.17673 3.76173 0
M  V30 361 H 32.1922 2.06202 0.509352 0
M  V30 362 H 34.4552 0.90334 0.287541 0
M  V30 363 H 34.1612 3.12415 1.61524 0
M  V30 364 H 34.0352 2.17206 3.08385 0
M  V30 365 H 36.4222 1.27462 2.66153 0
M  V30 366 H 36.5032 2.2616 1.1952 0
M  V30 367 H 36.1472 4.35586 2.61203 0
M  V30 368 H 36.0772 3.33829 4.07266 0
M  V30 369 H 38.5682 2.69406 2.65007 0
M  V30 370 H 38.8812 5.92973 4.95583 0
M  V30 371 H 37.2262 5.32831 4.46224 0
M  V30 372 H 40.4172 3.39564 3.22202 0
M  V30 373 H 40.5902 4.87098 4.27363 0
M  V30 374 N 33.9963 -1.19345 1.0293 0
M  V30 375 C 35.2423 -1.89318 0.727083 0
M  V30 376 C 35.5753 -1.79446 -0.742483 0
M  V30 377 O 34.8503 -1.1871 -1.54072 0
M  V30 378 C 35.1333 -3.40238 1.17942 0
M  V30 379 C 34.9863 -3.58979 2.71024 0
M  V30 380 C 36.3053 -4.33479 0.760548 0
M  V30 381 H 33.4243 -0.687475 0.265606 0
M  V30 382 H 36.0663 -1.40477 1.2793 0
M  V30 383 H 34.2163 -3.81964 0.709608 0
M  V30 384 H 35.8883 -3.26421 3.25955 0
M  V30 385 H 34.1313 -3.02018 3.11396 0
M  V30 386 H 34.8023 -4.64823 2.9773 0
M  V30 387 H 37.2783 -3.99469 1.16464 0
M  V30 388 H 36.1543 -5.37664 1.10493 0
M  V30 389 H 36.4153 -4.40813 -0.337063 0
M  V30 390 N 35.4744 -0.807222 -1.35358 0
M  V30 391 C 36.4214 -0.216037 -2.29787 0
M  V30 392 C 37.3914 0.650278 -1.52842 0
M  V30 393 O 38.5764 0.595227 -1.81278 0
M  V30 394 C 35.7164 0.628893 -3.39321 0
M  V30 395 C 34.8294 -0.257927 -4.31229 0
M  V30 396 C 33.9644 0.595069 -5.27856 0
M  V30 397 C 33.0034 -0.292111 -6.11403 0
M  V30 398 N 32.1404 0.520895 -7.00165 0
M  V30 399 H 36.9804 -1.02671 -2.79755 0
M  V30 400 H 34.5174 -0.517839 -1.37684 0
M  V30 401 H 36.4754 1.13393 -4.01494 0
M  V30 402 H 35.1054 1.40482 -2.90628 0
M  V30 403 H 34.1574 -0.881076 -3.70056 0
M  V30 404 H 35.4694 -0.940759 -4.89848 0
M  V30 405 H 34.6234 1.16522 -5.95405 0
M  V30 406 H 33.3624 1.31146 -4.69736 0
M  V30 407 H 32.3674 -0.874525 -5.428 0
M  V30 408 H 33.5924 -1.00638 -6.71602 0
M  V30 409 H 31.5384 1.22125 -6.44532 0
M  V30 410 H 31.4554 -0.103877 -7.55929 0
M  V30 411 H 32.7234 1.0743 -7.72062 0
M  V30 412 N 36.9525 1.47285 -0.560781 0
M  V30 413 C 37.8625 2.33846 0.187954 0
M  V30 414 C 38.8785 1.48412 0.908293 0
M  V30 415 O 40.0545 1.81332 0.876388 0
M  V30 416 C 37.1195 3.25178 1.2025 0
M  V30 417 C 36.1805 4.26504 0.489208 0
M  V30 418 C 35.4135 5.13472 1.45542 0
M  V30 419 O 35.6365 5.02959 2.6905 0
M  V30 420 O 34.5705 5.93902 0.977963 0
M  V30 421 H 38.3965 2.99177 -0.522177 0
M  V30 422 H 35.9815 1.45903 -0.321364 0
M  V30 423 H 37.8635 3.81584 1.78805 0
M  V30 424 H 36.5385 2.6247 1.89449 0
M  V30 425 H 35.4455 3.73847 -0.137627 0
M  V30 426 H 36.7785 4.91935 -0.161399 0
M  V30 427 N 38.4306 0.297415 1.54768 0
M  V30 428 C 39.6766 -0.313376 2.00364 0
M  V30 429 C 40.0096 -1.53815 1.18553 0
M  V30 430 O 39.2846 -1.92739 0.261103 0
M  V30 431 C 39.5676 -0.673525 3.53745 0
M  V30 432 C 39.4206 0.560133 4.46299 0
M  V30 433 C 40.7396 -1.50143 4.13697 0
M  V30 434 H 37.8586 -0.112428 0.728374 0
M  V30 435 H 40.5006 0.4088 1.8555 0
M  V30 436 H 38.6506 -1.28881 3.665 0
M  V30 437 H 40.3226 1.19863 4.45455 0
M  V30 438 H 38.5656 1.19405 4.17043 0
M  V30 439 H 39.2366 0.26405 5.51368 0
M  V30 440 H 41.7126 -0.981588 4.04356 0
M  V30 441 H 40.5886 -1.72221 5.21182 0
M  V30 442 H 40.8496 -2.48952 3.65343 0
M  V30 443 N 39.9087 -1.5758 0.0250728 0
M  V30 444 C 40.8717 -2.08896 -0.943139 0
M  V30 445 C 41.8717 -1.00321 -1.25668 0
M  V30 446 O 43.0617 -1.26495 -1.19769 0
M  V30 447 C 40.1937 -2.55143 -2.26086 0
M  V30 448 H 41.3867 -2.95723 -0.498775 0
M  V30 449 H 38.9397 -1.54703 -0.222888 0
M  V30 450 H 39.6747 -1.71633 -2.75159 0
M  V30 451 H 39.4597 -3.34461 -2.04641 0
M  V30 452 H 40.9497 -2.95083 -2.95492 0
M  V30 453 N 41.3868 0.248026 -1.55636 0
M  V30 454 C 42.6328 0.97767 -1.77678 0
M  V30 455 C 42.9658 1.85016 -0.590135 0
M  V30 456 O 42.2408 1.90095 0.411611 0
M  V30 457 C 42.5238 1.83914 -3.09593 0
M  V30 458 C 42.3768 0.99491 -4.38659 0
M  V30 459 C 43.6958 2.82183 -3.37729 0
M  V30 460 H 40.8148 0.354005 -0.646413 0
M  V30 461 H 43.4568 0.248253 -1.88371 0
M  V30 462 H 41.6068 2.46104 -3.00608 0
M  V30 463 H 43.2788 0.391789 -4.59633 0
M  V30 464 H 41.5218 0.299231 -4.32767 0
M  V30 465 H 42.1928 1.63145 -5.2734 0
M  V30 466 H 44.6688 2.30129 -3.4667 0
M  V30 467 H 43.5448 3.39582 -4.31249 0
M  V30 468 H 43.8058 3.58588 -2.58586 0
M  V30 469 N 42.8649 1.48995 0.513639 0
M  V30 470 C 43.8279 1.64229 1.59879 0
M  V30 471 C 44.8279 0.514696 1.5234 0
M  V30 472 O 46.0179 0.78087 1.55718 0
M  V30 473 C 43.1499 1.62783 2.99524 0
M  V30 474 H 44.3429 2.61004 1.47705 0
M  V30 475 H 41.8959 1.37837 0.736936 0
M  V30 476 H 42.6309 0.675461 3.17188 0
M  V30 477 H 42.4159 2.4466 3.06404 0
M  V30 478 H 43.9059 1.76669 3.78388 0
M  V30 479 N 44.343 -0.763751 1.37857 0
M  V30 480 C 45.62 -1.51244 1.24035 0
M  V30 481 C 46 -2.10472 -0.162649 0
M  V30 482 O 45.348 -1.96206 -1.17112 0
M  V30 483 C 45.558 -2.58694 2.34261 0
M  V30 484 C 46.906 -3.25878 2.72193 0
M  V30 485 O 47.93 -2.68993 2.33497 0
M  V30 486 O 46.789 -4.2874 3.38887 0
M  V30 487 H 43.883 -0.670243 0.484462 0
M  V30 488 H 46.429 -0.800031 1.49658 0
M  V30 489 H 45.201 -2.13105 3.2818 0
M  V30 490 H 44.824 -3.37527 2.10146 0
M  V30 491 N 45.8211 -1.22559 -0.990812 0
M  V30 492 C 47.0511 -1.07623 -1.76355 0
M  V30 493 C 47.4591 0.37601 -1.85426 0
M  V30 494 O 46.8021 1.27228 -1.32509 0
M  V30 495 C 46.8641 -1.61507 -3.21179 0
M  V30 496 C 46.5281 -3.10146 -3.35646 0
M  V30 497 C 47.5251 -4.07553 -3.22796 0
M  V30 498 C 45.2101 -3.49644 -3.60631 0
M  V30 499 C 47.2041 -5.42442 -3.34716 0
M  V30 500 C 44.8911 -4.84682 -3.72192 0
M  V30 501 C 45.8891 -5.8089 -3.59243 0
M  V30 502 O 45.5771 -7.13476 -3.70415 0
M  V30 503 H 45.3091 -0.377745 -0.560611 0
M  V30 504 H 47.8631 -1.62658 -1.25425 0
M  V30 505 H 46.0931 -1.00881 -3.73309 0
M  V30 506 H 47.7821 -1.42202 -3.80175 0
M  V30 507 H 48.5481 -3.78381 -3.03403 0
M  V30 508 H 44.4271 -2.75282 -3.69785 0
M  V30 509 H 47.9711 -6.17518 -3.24526 0
M  V30 510 H 43.8681 -5.13534 -3.91092 0
M  V30 511 H 44.6361 -7.21083 -3.87275 0
M  V30 512 N 47.2992 1.18797 -1.03562 0
M  V30 513 C 48.5272 1.92599 -0.755869 0
M  V30 514 C 48.9422 1.75886 0.686271 0
M  V30 515 O 48.2992 1.08517 1.46732 0
M  V30 516 C 48.3502 3.44159 -1.10619 0
M  V30 517 O 48.0712 3.60341 -2.4917 0
M  V30 518 C 49.5722 4.3507 -0.850214 0
M  V30 519 H 46.7922 0.611587 -0.276048 0
M  V30 520 H 49.3362 1.50742 -1.38192 0
M  V30 521 H 47.4912 3.83823 -0.525194 0
M  V30 522 H 47.9052 4.54128 -2.62427 0
M  V30 523 H 49.3792 5.39989 -1.14523 0
M  V30 524 H 49.8562 4.38673 0.215176 0
M  V30 525 H 50.4622 4.01097 -1.41426 0
M  V30 526 N 48.7773 0.814389 1.34928 0
M  V30 527 C 50.0023 0.410097 2.03305 0
M  V30 528 C 50.4273 -0.973464 1.60951 0
M  V30 529 O 49.7853 -1.63185 0.789964 0
M  V30 530 C 49.8333 0.51049 3.56968 0
M  V30 531 O 48.9373 -0.473035 4.09678 0
M  V30 532 H 48.2783 0.170088 0.641846 0
M  V30 533 H 50.8083 1.10244 1.72358 0
M  V30 534 H 50.8183 0.383135 4.06197 0
M  V30 535 H 49.4933 1.51963 3.87144 0
M  V30 536 H 48.0703 -0.305272 3.71648 0
M  V30 537 N 50.2554 -1.46986 0.568584 0
M  V30 538 C 51.4804 -2.07335 0.0520528 0
M  V30 539 C 51.9054 -1.41675 -1.23733 0
M  V30 540 O 51.2634 -0.495623 -1.74394 0
M  V30 541 C 51.3114 -3.60417 -0.11501 0
M  V30 542 O 50.4154 -3.95309 -1.17492 0
M  V30 543 H 49.7564 -0.661597 0.0564385 0
M  V30 544 H 52.2864 -1.88837 0.787507 0
M  V30 545 H 52.2964 -4.06698 -0.325644 0
M  V30 546 H 50.9714 -4.07601 0.826675 0
M  V30 547 H 49.5484 -3.60757 -0.943869 0
M  V30 548 N 51.7335 -0.305618 -1.54608 0
M  V30 549 C 53.0105 0.355652 -1.92339 0
M  V30 550 C 53.3905 1.71324 -1.23335 0
M  V30 551 O 52.7385 2.25473 -0.370702 0
M  V30 552 C 52.9485 0.46572 -3.45879 0
M  V30 553 C 54.2965 0.734426 -4.182 0
M  V30 554 O 55.3205 0.54935 -3.51938 0
M  V30 555 O 54.1795 1.09024 -5.35515 0
M  V30 556 H 51.2735 0.199666 -0.802535 0
M  V30 557 H 53.8195 -0.354017 -1.65966 0
M  V30 558 H 52.5915 -0.488461 -3.88239 0
M  V30 559 H 52.2145 1.22367 -3.78301 0
M  V30 560 N 53.2116 1.57565 -0.0334293 0
M  V30 561 C 54.6276 1.56297 0.322997 0
M  V30 562 C 54.8276 1.03945 1.7262 0
M  V30 563 O 53.8836 0.688109 2.42943 0
M  V30 564 C 55.1966 3.00232 0.167664 0
M  V30 565 C 56.7446 3.12078 0.240107 0
M  V30 566 C 57.2196 4.57859 0.113513 0
M  V30 567 N 58.7106 4.62887 0.170359 0
M  V30 568 C 59.4456 5.73319 0.0962517 0
M  V30 569 N 58.9416 6.92794 -0.0291881 0
M  V30 570 N 60.7346 5.61898 0.150551 0
M  V30 571 H 52.8856 1.89923 -0.950956 0
M  V30 572 H 55.1486 0.873824 -0.367608 0
M  V30 573 H 54.8546 3.42501 -0.799102 0
M  V30 574 H 54.7286 3.654 0.936083 0
M  V30 575 H 57.1156 2.69718 1.19733 0
M  V30 576 H 57.1966 2.49623 -0.558763 0
M  V30 577 H 56.8406 5.009 -0.840314 0
M  V30 578 H 56.7706 5.18299 0.931302 0
M  V30 579 H 59.2616 3.76954 0.26728 0
M  V30 580 H 59.5746 7.7276 -0.0789252 0
M  V30 581 H 57.9196 6.94971 -0.0640299 0
M  V30 582 H 61.1106 4.67448 0.246981 0
M  V30 583 H 61.2836 6.47938 0.0893365 0
M  V30 584 N 54.6897 -0.239769 1.55765 0
M  V30 585 C 55.9357 -0.968234 1.78194 0
M  V30 586 C 56.2687 -1.84701 0.599938 0
M  V30 587 O 55.5437 -1.9031 -0.401524 0
M  V30 588 C 55.8267 -1.8227 3.10564 0
M  V30 589 C 55.6797 -0.971633 4.3918 0
M  V30 590 C 56.9987 -2.80388 3.39221 0
M  V30 591 H 54.1177 -0.350572 0.648281 0
M  V30 592 H 56.7597 -0.238259 1.885 0
M  V30 593 H 54.9097 -2.44507 3.01908 0
M  V30 594 H 56.5817 -0.367408 4.59835 0
M  V30 595 H 54.8247 -0.276276 4.32919 0
M  V30 596 H 55.4957 -1.60346 5.28198 0
M  V30 597 H 57.9717 -2.28287 3.47885 0
M  V30 598 H 56.8477 -3.3729 4.33044 0
M  V30 599 H 57.1087 -3.57212 2.60484 0
M  V30 600 N 56.1678 -1.49265 -0.50573 0
M  V30 601 C 57.5838 -1.35923 -0.836486 0
M  V30 602 C 57.7838 -0.388704 -1.97715 0
M  V30 603 O 56.8398 0.181336 -2.51848 0
M  V30 604 C 58.1528 -2.76531 -1.18115 0
M  V30 605 C 59.7008 -2.85197 -1.28964 0
M  V30 606 C 60.1758 -4.26561 -1.66761 0
M  V30 607 N 61.6668 -4.2935 -1.73819 0
M  V30 608 C 62.4018 -5.35693 -2.045 0
M  V30 609 N 61.8978 -6.52287 -2.33438 0
M  V30 610 N 63.6908 -5.23105 -2.05711 0
M  V30 611 H 55.8418 -2.10965 0.246519 0
M  V30 612 H 58.1048 -0.9468 0.0476887 0
M  V30 613 H 57.8108 -3.49226 -0.416398 0
M  V30 614 H 57.6848 -3.11599 -2.1257 0
M  V30 615 H 60.0718 -2.12742 -2.04511 0
M  V30 616 H 60.1528 -2.53718 -0.325704 0
M  V30 617 H 59.7968 -4.99541 -0.917656 0
M  V30 618 H 59.7268 -4.55502 -2.64246 0
M  V30 619 H 62.2178 -3.4526 -1.53635 0
M  V30 620 H 62.5308 -7.29158 -2.56024 0
M  V30 621 H 60.8758 -6.55521 -2.30905 0
M  V30 622 H 64.0668 -4.31026 -1.82577 0
M  V30 623 H 64.2398 -6.06078 -2.29289 0
M  V30 624 N 57.6459 0.756429 -1.3826 0
M  V30 625 C 58.5559 1.9009 -1.37488 0
M  V30 626 C 59.5719 1.71855 -0.272366 0
M  V30 627 O 60.7479 1.94827 -0.510318 0
M  V30 628 C 57.8129 3.25421 -1.19592 0
M  V30 629 C 56.8739 3.56202 -2.39622 0
M  V30 630 C 56.1069 4.85075 -2.2257 0
M  V30 631 O 56.3299 5.57246 -1.21793 0
M  V30 632 O 55.2639 5.15269 -3.11098 0
M  V30 633 H 59.0899 1.93695 -2.33914 0
M  V30 634 H 56.6749 0.901313 -1.1915 0
M  V30 635 H 58.5569 4.06337 -1.11661 0
M  V30 636 H 57.2319 3.22634 -0.262486 0
M  V30 637 H 56.1389 2.75458 -2.53128 0
M  V30 638 H 57.4719 3.63747 -3.31586 0
M  V30 639 N 59.124 1.23083 0.984299 0
M  V30 640 C 60.034 1.02515 2.11016 0
M  V30 641 C 61.05 -0.0291702 1.73976 0
M  V30 642 O 62.226 0.165434 2.00719 0
M  V30 643 C 59.291 0.614673 3.41208 0
M  V30 644 C 58.352 1.74359 3.92297 0
M  V30 645 C 57.585 1.35261 5.16275 0
M  V30 646 O 57.808 0.235136 5.69915 0
M  V30 647 O 56.742 2.17227 5.61334 0
M  V30 648 H 60.568 1.96862 2.31255 0
M  V30 649 H 58.153 1.01753 1.09392 0
M  V30 650 H 60.035 0.396518 4.1953 0
M  V30 651 H 58.71 -0.299851 3.22308 0
M  V30 652 H 57.617 2.01635 3.1511 0
M  V30 653 H 58.95 2.63629 4.15645 0
M  V30 654 N 60.6021 -1.18246 1.0419 0
M  V30 655 C 61.8501 -1.87886 0.744543 0
M  V30 656 C 62.1711 -1.8082 -0.730006 0
M  V30 657 O 61.4411 -1.22736 -1.52685 0
M  V30 658 H 60.0211 -0.695556 0.272417 0
M  V30 659 H 62.6831 -1.43494 1.31892 0
M  V30 660 H 61.7791 -2.9389 1.05049 0
M  V30 661 N 62.0802 -0.821533 -1.34494 0
M  V30 662 C 63.0122 -0.199946 -2.28326 0
M  V30 663 C 64.0252 0.609377 -1.50965 0
M  V30 664 O 65.2142 0.439285 -1.7301 0
M  V30 665 C 62.3142 0.738431 -3.30757 0
M  V30 666 C 61.4872 -0.0277632 -4.37391 0
M  V30 667 C 60.5462 0.831332 -5.19591 0
M  V30 668 O 59.5722 0.276822 -5.68526 0
M  V30 669 N 60.7742 2.15132 -5.39165 0
M  V30 670 H 63.5392 -1.00609 -2.82308 0
M  V30 671 H 61.1002 -0.678366 -1.47003 0
M  V30 672 H 63.0922 1.31773 -3.82646 0
M  V30 673 H 61.6622 1.44533 -2.7718 0
M  V30 674 H 60.8822 -0.788359 -3.86236 0
M  V30 675 H 62.1702 -0.555251 -5.05761 0
M  V30 676 H 61.5682 2.62559 -5.01078 0
M  V30 677 H 60.1252 2.6795 -5.94177 0
M  V30 678 N 63.5583 1.46682 -0.576371 0
M  V30 679 C 64.4883 2.33028 0.148397 0
M  V30 680 C 65.4693 1.44961 0.889956 0
M  V30 681 O 66.6543 1.73789 0.866662 0
M  V30 682 C 63.7843 3.27117 1.1667 0
M  V30 683 C 62.7383 4.24575 0.540386 0
M  V30 684 C 62.0643 5.08126 1.6647 0
M  V30 685 C 63.3643 5.19722 -0.518331 0
M  V30 686 H 65.0583 2.93875 -0.572509 0
M  V30 687 H 62.6043 1.41315 -0.276768 0
M  V30 688 H 64.5573 3.86374 1.68204 0
M  V30 689 H 63.2813 2.64364 1.9178 0
M  V30 690 H 61.9403 3.66571 0.0461769 0
M  V30 691 H 61.5883 4.41762 2.40531 0
M  V30 692 H 61.2883 5.74122 1.25131 0
M  V30 693 H 62.8123 5.70246 2.18293 0
M  V30 694 H 64.2263 5.73232 -0.0883058 0
M  V30 695 H 62.6233 5.94026 -0.851679 0
M  V30 696 H 63.6933 4.64037 -1.40703 0
M  V30 697 N 65.0364 0.313813 1.54444 0
M  V30 698 C 66.2854 -0.292519 1.99568 0
M  V30 699 C 66.5984 -1.54011 1.20582 0
M  V30 700 O 67.8044 -2.22183 1.56035 0
M  V30 701 C 66.2604 -0.571752 3.55329 0
M  V30 702 C 65.8684 0.658229 4.43138 0
M  V30 703 C 67.6124 -1.13857 4.08946 0
M  V30 704 C 65.5194 0.351439 5.90355 0
M  V30 705 H 64.4494 -0.113079 0.745472 0
M  V30 706 H 67.1004 0.424518 1.78522 0
M  V30 707 H 65.4824 -1.34872 3.72325 0
M  V30 708 H 66.6564 1.43403 4.37918 0
M  V30 709 H 64.9714 1.14458 4.0036 0
M  V30 710 H 67.5684 -1.38257 5.16516 0
M  V30 711 H 67.9114 -2.08489 3.6033 0
M  V30 712 H 68.4444 -0.423015 3.95544 0
M  V30 713 H 65.1834 1.26667 6.43145 0
M  V30 714 H 64.7034 -0.386842 5.98551 0
M  V30 715 H 66.3824 -0.0423134 6.46986 0
M  V30 716 N 66.5145 -1.57545 0.0417849 0
M  V30 717 C 67.4445 -2.14009 -0.933929 0
M  V30 718 C 68.4255 -1.05938 -1.33083 0
M  V30 719 O 69.6105 -1.33833 -1.40721 0
M  V30 720 C 66.7405 -2.67747 -2.21199 0
M  V30 721 C 65.6945 -3.80718 -1.95544 0
M  V30 722 C 65.0205 -4.20935 -3.29724 0
M  V30 723 C 66.3205 -5.06258 -1.28452 0
M  V30 724 H 68.0145 -2.95788 -0.463645 0
M  V30 725 H 65.5605 -1.42285 -0.221573 0
M  V30 726 H 67.5135 -3.05886 -2.89848 0
M  V30 727 H 66.2375 -1.83147 -2.70416 0
M  V30 728 H 64.8965 -3.43037 -1.2931 0
M  V30 729 H 64.5445 -3.33298 -3.76724 0
M  V30 730 H 64.2445 -4.9707 -3.13361 0
M  V30 731 H 65.7685 -4.61666 -3.9962 0
M  V30 732 H 67.1825 -5.41903 -1.8712 0
M  V30 733 H 65.5795 -5.87475 -1.22445 0
M  V30 734 H 66.6495 -4.84207 -0.259219 0
M  V30 735 N 67.9926 0.231505 -1.5589 0
M  V30 736 C 69.2396 0.957352 -1.78441 0
M  V30 737 C 69.5676 1.84726 -0.60882 0
M  V30 738 O 68.8226 1.91416 0.40725 0
M  V30 739 C 69.1216 1.83577 -3.0665 0
M  V30 740 C 68.7876 1.09993 -4.37278 0
M  V30 741 C 67.4496 0.896629 -4.72773 0
M  V30 742 C 69.8016 0.579558 -5.17968 0
M  V30 743 C 67.1296 0.160896 -5.86479 0
M  V30 744 C 69.4816 -0.142783 -6.32439 0
M  V30 745 C 68.1456 -0.357427 -6.66542 0
M  V30 746 H 67.4156 0.35032 -0.65296 0
M  V30 747 H 70.0626 0.226259 -1.90159 0
M  V30 748 H 68.3676 2.63441 -2.90011 0
M  V30 749 H 70.0646 2.39934 -3.21298 0
M  V30 750 H 66.6546 1.26835 -4.09403 0
M  V30 751 H 70.8386 0.724125 -4.90989 0
M  V30 752 H 66.0946 -0.0157293 -6.11398 0
M  V30 753 H 70.2686 -0.553559 -6.94196 0
M  V30 754 H 67.8956 -0.929466 -7.54497 0
M  V30 755 N 69.4707 1.49531 0.497807 0
M  V30 756 C 70.4027 1.62559 1.61578 0
M  V30 757 C 71.4157 0.508134 1.54667 0
M  V30 758 O 72.6047 0.780309 1.60541 0
M  V30 759 C 69.7047 1.56925 3.00379 0
M  V30 760 C 68.8777 2.84257 3.3244 0
M  V30 761 C 67.9367 2.71632 4.50669 0
M  V30 762 O 66.9627 3.4557 4.52294 0
M  V30 763 N 68.1647 1.83391 5.5077 0
M  V30 764 H 70.9297 2.58981 1.50828 0
M  V30 765 H 68.4907 1.4666 0.685743 0
M  V30 766 H 70.4827 1.46129 3.77397 0
M  V30 767 H 69.0527 0.683483 3.05037 0
M  V30 768 H 68.2727 3.09381 2.44289 0
M  V30 769 H 69.5607 3.68666 3.5066 0
M  V30 770 H 68.9587 1.22583 5.52259 0
M  V30 771 H 67.5157 1.78515 6.26878 0
M  V30 772 N 70.9488 -0.749086 1.3866 0
M  V30 773 C 71.8968 -1.88428 1.36373 0
M  V30 774 C 72.8908 -1.67561 0.248929 0
M  V30 775 O 74.0968 -1.75074 0.41821 0
M  V30 776 H 70.4718 -0.620023 0.42553 0
M  V30 777 H 72.4428 -1.87473 2.32156 0
M  V30 778 C 71.1918 -3.25961 1.21014 0
M  V30 779 H 70.5148 -3.42607 2.06059 0
M  V30 780 H 71.9548 -4.05625 1.23469 0
M  V30 781 C 70.4138 -3.36799 -0.0825941 0
M  V30 782 O 70.9438 -3.87517 -1.05797 0
M  V30 783 N 69.1498 -2.90258 -0.140939 0
M  V30 784 H 68.6968 -2.49174 0.653477 0
M  V30 785 H 68.6548 -2.97889 -1.00545 0
M  V30 786 N 72.4269 -1.23603 -0.977757 0
M  V30 787 C 73.6549 -1.09646 -1.75458 0
M  V30 788 C 74.0699 0.351859 -1.85492 0
M  V30 789 O 73.4269 1.24327 -1.336 0
M  V30 790 C 73.4779 -1.71895 -3.18016 0
M  V30 791 O 73.1989 -3.11063 -3.08498 0
M  V30 792 C 74.6999 -1.63415 -4.12081 0
M  V30 793 H 71.9199 -0.38359 -0.550545 0
M  V30 794 H 74.4639 -1.63507 -1.22824 0
M  V30 795 H 72.6189 -1.22061 -3.67668 0
M  V30 796 H 73.0329 -3.41305 -3.9826 0
M  V30 797 H 74.5069 -2.11669 -5.09804 0
M  V30 798 H 74.9839 -0.593462 -4.35172 0
M  V30 799 H 75.5899 -2.12628 -3.68334 0
M  V30 800 N 73.905 1.17692 -1.04816 0
M  V30 801 C 75.316 1.69501 -0.782698 0
M  V30 802 C 75.667 1.83456 0.695577 0
M  V30 803 O 74.792 1.51942 1.54086 0
M  V30 804 C 75.387 3.07874 -1.41419 0
M  V30 805 C 73.946 3.56864 -1.19686 0
M  V30 806 C 73.093 2.3322 -1.50012 0
M  V30 807 H 76.044 1.02262 -1.2136 0
M  V30 808 H 76.065 3.71528 -0.821428 0
M  V30 809 H 75.577 2.97685 -2.49009 0
M  V30 810 H 73.678 3.72337 -0.140043 0
M  V30 811 H 73.791 4.39851 -1.89916 0
M  V30 812 H 72.155 2.37501 -0.920071 0
M  V30 813 H 72.938 2.25644 -2.58727 0
M  V30 814 N 75.3831 0.828654 1.34056 0
M  V30 815 C 76.3311 0.242973 2.31327 0
M  V30 816 C 77.3251 -0.61944 1.57668 0
M  V30 817 O 78.5311 -0.51014 1.7262 0
M  V30 818 H 74.9061 0.059834 0.749616 0
M  V30 819 H 76.8771 1.07809 2.78244 0
M  V30 820 C 75.6261 -0.575733 3.429 0
M  V30 821 H 74.9491 0.0785582 3.99723 0
M  V30 822 H 76.3891 -0.951547 4.13185 0
M  V30 823 C 74.8481 -1.75044 2.87856 0
M  V30 824 O 75.3781 -2.84882 2.83205 0
M  V30 825 N 73.5841 -1.56903 2.44602 0
M  V30 826 H 73.1311 -0.675547 2.48584 0
M  V30 827 H 73.0891 -2.35652 2.08124 0
M  V30 828 N 76.8612 -1.46375 0.584142 0
M  V30 829 C 78.2772 -1.57694 0.245929 0
M  V30 830 C 78.4772 -1.57903 -1.25175 0
M  V30 831 O 77.5332 -1.49676 -2.03355 0
M  V30 832 C 78.8462 -2.87028 0.896402 0
M  V30 833 C 80.3942 -3.00662 0.870127 0
M  V30 834 C 80.8692 -4.32734 1.50017 0
M  V30 835 N 82.3602 -4.39436 1.46458 0
M  V30 836 C 83.0952 -5.40248 1.92144 0
M  V30 837 N 82.5912 -6.47726 2.4581 0
M  V30 838 N 84.3842 -5.31459 1.83052 0
M  V30 839 H 76.5352 -1.44483 1.55687 0
M  V30 840 H 78.7982 -0.689291 0.650831 0
M  V30 841 H 78.5042 -2.9269 1.95002 0
M  V30 842 H 78.3782 -3.75014 0.405486 0
M  V30 843 H 80.7652 -2.94581 -0.174871 0
M  V30 844 H 80.8462 -2.14148 1.39908 0
M  V30 845 H 80.4902 -4.39573 2.54437 0
M  V30 846 H 80.4202 -5.18025 0.946432 0
M  V30 847 H 82.9112 -3.62367 1.07231 0
M  V30 848 H 83.2242 -7.20863 2.78525 0
M  V30 849 H 81.5692 -6.48542 2.49836 0
M  V30 850 H 84.7602 -4.46396 1.40883 0
M  V30 851 H 84.9332 -6.09881 2.18973 0
M  V30 852 N 78.3393 -0.321999 -1.54275 0
M  V30 853 C 79.5673 0.283052 -2.04955 0
M  V30 854 C 79.9823 1.45904 -1.19823 0
M  V30 855 O 79.3393 1.81063 -0.228545 0
M  V30 856 C 79.3903 0.719028 -3.54277 0
M  V30 857 O 79.1113 -0.410175 -4.36176 0
M  V30 858 C 80.6123 1.38705 -4.21041 0
M  V30 859 H 77.8323 0.0584616 -0.668448 0
M  V30 860 H 80.3763 -0.467734 -1.99079 0
M  V30 861 H 78.5313 1.41979 -3.60445 0
M  V30 862 H 78.9453 -0.0669416 -5.24457 0
M  V30 863 H 80.4193 1.64306 -5.2698 0
M  V30 864 H 80.8963 2.33385 -3.72059 0
M  V30 865 H 81.5023 0.728906 -4.19007 0
M  V30 866 N 79.8174 1.5752 -0.0501392 0
M  V30 867 C 81.0634 1.93755 0.618901 0
M  V30 868 C 81.4184 0.928514 1.68512 0
M  V30 869 O 80.7114 -0.0524613 1.91528 0
M  V30 870 C 80.9054 3.34467 1.25963 0
M  V30 871 C 80.7344 4.48965 0.257 0
M  V30 872 C 79.5044 5.05075 -0.150656 0
M  V30 873 C 81.7024 5.11891 -0.497166 0
M  V30 874 N 79.6844 6.03104 -1.14626 0
M  V30 875 C 81.0554 6.05216 -1.34588 0
M  V30 876 C 83.1104 4.9479 -0.55559 0
M  V30 877 C 81.8134 6.83277 -2.24778 0
M  V30 878 C 83.8394 5.73477 -1.44492 0
M  V30 879 C 83.2014 6.66433 -2.28136 0
M  V30 880 H 79.3004 0.756479 0.198149 0
M  V30 881 H 81.8844 1.94316 -0.122229 0
M  V30 882 H 80.0554 3.34685 1.97079 0
M  V30 883 H 81.7874 3.57994 1.88739 0
M  V30 884 H 78.5424 4.7305 0.228094 0
M  V30 885 H 78.9664 6.56813 -1.64092 0
M  V30 886 H 83.6084 4.2273 0.0768625 0
M  V30 887 H 81.3264 7.54629 -2.89069 0
M  V30 888 H 84.9124 5.62273 -1.49468 0
M  V30 889 H 83.7924 7.26258 -2.95835 0
M  V30 890 N 81.2955 -0.223234 1.56011 0
M  V30 891 C 82.5725 -0.972108 1.69733 0
M  V30 892 C 82.9525 -2.02485 0.59691 0
M  V30 893 O 82.3005 -2.25037 -0.396324 0
M  V30 894 C 82.5105 -1.58407 3.10979 0
M  V30 895 C 83.8585 -2.07696 3.70334 0
M  V30 896 O 84.8825 -1.68304 3.1393 0
M  V30 897 O 83.7415 -2.80096 4.69264 0
M  V30 898 H 80.8355 -0.453993 0.691245 0
M  V30 899 H 83.3815 -0.215149 1.68331 0
M  V30 900 H 82.1535 -0.823831 3.82529 0
M  V30 901 H 81.7765 -2.40661 3.16493 0
M  V30 902 N 82.7736 -1.49793 -0.48987 0
M  V30 903 C 84.0136 -1.61466 -1.25332 0
M  V30 904 C 84.3776 -0.299688 -1.89647 0
M  V30 905 O 85.5786 -0.291687 -2.67213 0
M  V30 906 C 83.8496 -2.74944 -2.28343 0
M  V30 907 S 85.4086 -3.06637 -3.13878 0
M  V30 908 H 82.2266 -0.569411 -0.425784 0
M  V30 909 H 84.8286 -1.875 -0.553541 0
M  V30 910 H 83.5326 -3.68994 -1.79643 0
M  V30 911 H 83.0636 -2.50938 -3.02975 0
M  V30 912 H 85.0786 -2.49015 -4.29192 0
M  V30 913 N 84.2517 0.741722 -1.39055 0
M  V30 914 C 85.4977 1.50336 -1.36113 0
M  V30 915 C 85.8307 1.94148 0.0450796 0
M  V30 916 O 85.1057 1.66301 1.00868 0
M  V30 917 C 85.3887 2.74773 -2.32749 0
M  V30 918 C 85.2417 2.37023 -3.82283 0
M  V30 919 C 86.5607 3.76846 -2.27322 0
M  V30 920 H 83.6797 0.545351 -0.495743 0
M  V30 921 H 86.3217 0.848624 -1.69995 0
M  V30 922 H 84.4717 3.30639 -2.03986 0
M  V30 923 H 86.1437 1.8684 -4.21768 0
M  V30 924 H 84.3867 1.69334 -3.99385 0
M  V30 925 H 85.0577 3.26104 -4.45376 0
M  V30 926 H 87.5337 3.30548 -2.5274 0
M  V30 927 H 86.4097 4.6159 -2.97028 0
M  V30 928 H 86.6707 4.23286 -1.27599 0
M  V30 929 N 85.7298 1.2412 0.971189 0
M  V30 930 C 86.6598 1.05508 2.08304 0
M  V30 931 C 87.6408 -0.0308864 1.70072 0
M  V30 932 O 88.8258 0.135521 1.93727 0
M  V30 933 C 85.9558 0.655365 3.4106 0
M  V30 934 C 84.9098 1.68971 3.93234 0
M  V30 935 C 84.2358 1.14516 5.22293 0
M  V30 936 C 85.5358 3.08487 4.21465 0
M  V30 937 H 87.2298 1.98507 2.24132 0
M  V30 938 H 84.7758 0.955821 1.07704 0
M  V30 939 H 86.7288 0.51217 4.18276 0
M  V30 940 H 85.4528 -0.31032 3.25122 0
M  V30 941 H 84.1118 1.82106 3.18171 0
M  V30 942 H 83.7598 0.170189 5.02712 0
M  V30 943 H 83.4598 1.83635 5.58168 0
M  V30 944 H 84.9838 1.01401 6.02121 0
M  V30 945 H 86.3978 2.98601 4.89398 0
M  V30 946 H 84.7948 3.74926 4.68562 0
M  V30 947 H 85.8648 3.56787 3.28376 0
M  V30 948 N 87.2079 -1.17134 1.05439 0
M  V30 949 C 88.4539 -1.87733 0.767077 0
M  V30 950 C 88.7869 -1.8098 -0.704253 0
M  V30 951 O 88.0619 -1.21951 -1.5152 0
M  V30 952 C 88.3449 -3.37659 1.25133 0
M  V30 953 C 88.1979 -3.53149 2.78578 0
M  V30 954 C 89.5169 -4.31768 0.852324 0
M  V30 955 H 86.6359 -0.681687 0.280129 0
M  V30 956 H 89.2779 -1.37732 1.30881 0
M  V30 957 H 87.4279 -3.80373 0.790469 0
M  V30 958 H 89.0999 -3.19434 3.32806 0
M  V30 959 H 87.3429 -2.95345 3.17732 0
M  V30 960 H 88.0139 -4.58403 3.07523 0
M  V30 961 H 90.4899 -3.96909 1.24911 0
M  V30 962 H 89.3659 -5.35199 1.21873 0
M  V30 963 H 89.6269 -4.41429 -0.243485 0
M  V30 964 N 88.686 -0.835752 -1.33615 0
M  V30 965 C 89.634 -0.255238 -2.31195 0
M  V30 966 C 90.628 0.61107 -1.57995 0
M  V30 967 O 91.834 0.500979 -1.72888 0
M  V30 968 H 88.209 -0.0638085 -0.749288 0
M  V30 969 H 90.18 -1.09283 -2.77669 0
M  V30 970 C 88.929 0.55754 -3.43201 0
M  V30 971 H 88.252 -0.0997553 -3.99676 0
M  V30 972 H 89.692 0.929622 -4.13683 0
M  V30 973 C 88.151 1.73515 -2.88781 0
M  V30 974 O 88.681 2.83376 -2.84712 0
M  V30 975 N 86.887 1.55603 -2.4543 0
M  V30 976 H 86.434 0.662354 -2.48939 0
M  V30 977 H 86.392 2.34545 -2.09371 0
M  V30 978 N 90.1641 1.46063 -0.591896 0
M  V30 979 C 91.5751 1.85944 -0.167822 0
M  V30 980 C 91.9261 1.49429 1.27143 0
M  V30 981 O 91.0511 0.913515 1.96173 0
M  V30 982 C 91.6461 3.37489 -0.297794 0
M  V30 983 C 90.2051 3.76332 0.0714732 0
M  V30 984 C 89.3521 2.7006 -0.629509 0
M  V30 985 H 92.3031 1.37087 -0.799555 0
M  V30 986 H 92.3241 3.77532 0.474349 0
M  V30 987 H 91.8361 3.64034 -1.3454 0
M  V30 988 H 89.9371 3.55405 1.11886 0
M  V30 989 H 90.0501 4.78088 -0.311245 0
M  V30 990 H 88.4141 2.54607 -0.0687867 0
M  V30 991 H 89.1971 2.99444 -1.67894 0
M  V30 992 N 91.6422 0.330177 1.54103 0
M  V30 993 C 93.0582 -0.0222371 1.59585 0
M  V30 994 C 93.2582 -1.49902 1.34654 0
M  V30 995 O 92.3142 -2.25592 1.13421 0
M  V30 996 C 93.6272 0.401932 2.98002 0
M  V30 997 C 95.1752 0.353145 3.11001 0
M  V30 998 C 95.6502 0.752576 4.51775 0
M  V30 999 N 97.1412 0.706239 4.57784 0
M  V30 1000 C 97.8762 0.987417 5.64834 0
M  V30 1001 N 97.3722 1.33607 6.79795 0
M  V30 1002 N 99.1652 0.91254 5.54643 0
M  V30 1003 H 91.3162 1.29228 1.68564 0
M  V30 1004 H 93.5792 0.525906 0.78875 0
M  V30 1005 H 93.2852 1.4311 3.21267 0
M  V30 1006 H 93.1592 -0.229699 3.765 0
M  V30 1007 H 95.5462 -0.666822 2.87467 0
M  V30 1008 H 95.6272 1.0198 2.34593 0
M  V30 1009 H 95.2712 1.77049 4.76042 0
M  V30 1010 H 95.2012 0.0635409 5.26562 0
M  V30 1011 H 97.6922 0.44889 3.75224 0
M  V30 1012 H 98.0052 1.53582 7.57385 0
M  V30 1013 H 96.3502 1.37439 6.81275 0
M  V30 1014 H 99.5412 0.639601 4.6371 0
M  V30 1015 H 99.7142 1.13503 6.37982 0
M  V30 1016 N 93.1203 -1.57491 0.0584922 0
M  V30 1017 C 94.0683 -2.13148 -0.931168 0
M  V30 1018 C 95.0623 -1.06507 -1.31729 0
M  V30 1019 O 96.2683 -1.24906 -1.29609 0
M  V30 1020 H 92.6433 -0.68137 -0.31818 0
M  V30 1021 H 94.6143 -2.95187 -0.436707 0
M  V30 1022 C 93.3633 -2.69732 -2.19408 0
M  V30 1023 H 92.6863 -3.51454 -1.90578 0
M  V30 1024 H 94.1263 -3.12287 -2.86798 0
M  V30 1025 C 92.5853 -1.63855 -2.94369 0
M  V30 1026 O 93.1153 -1.05565 -3.87581 0
M  V30 1027 N 91.3213 -1.35202 -2.57233 0
M  V30 1028 H 90.8683 -1.82791 -1.81508 0
M  V30 1029 H 90.8263 -0.645922 -3.07693 0
M  V30 1030 N 94.5984 0.214957 -1.56127 0
M  V30 1031 C 95.8234 0.95924 -1.83884 0
M  V30 1032 C 96.2484 1.7689 -0.639644 0
M  V30 1033 O 95.6064 1.76566 0.411601 0
M  V30 1034 C 95.6544 1.84723 -3.09693 0
M  V30 1035 O 94.7584 2.94346 -2.8885 0
M  V30 1036 H 94.0994 0.27125 -0.606069 0
M  V30 1037 H 96.6294 0.226276 -2.03345 0
M  V30 1038 H 96.6394 2.25576 -3.39969 0
M  V30 1039 H 95.3144 1.25218 -3.96602 0
M  V30 1040 H 93.8914 2.57391 -2.69823 0
M  V30 1041 N 96.0765 1.50051 0.48192 0
M  V30 1042 C 97.0085 1.64263 1.59844 0
M  V30 1043 C 98.0215 0.52451 1.54119 0
M  V30 1044 O 99.2105 0.797293 1.59704 0
M  V30 1045 C 96.3105 1.60102 2.98698 0
M  V30 1046 C 95.4835 2.87767 3.29407 0
M  V30 1047 C 94.5425 2.76397 4.47762 0
M  V30 1048 O 93.5685 3.50348 4.48603 0
M  V30 1049 N 94.7705 1.89222 5.48794 0
M  V30 1050 H 97.5355 2.60566 1.48073 0
M  V30 1051 H 95.0965 1.47379 0.670149 0
M  V30 1052 H 97.0885 1.50123 3.75826 0
M  V30 1053 H 95.6585 0.715798 3.04294 0
M  V30 1054 H 94.8785 3.11954 2.40994 0
M  V30 1055 H 96.1665 3.72365 3.4673 0
M  V30 1056 H 95.5645 1.28434 5.50928 0
M  V30 1057 H 94.1215 1.85154 6.24949 0
M  V30 1058 N 97.5546 -0.734337 1.39446 0
M  V30 1059 C 98.7796 -1.52866 1.40167 0
M  V30 1060 C 99.2046 -1.881 -0.00171513 0
M  V30 1061 O 98.5626 -1.51957 -0.988879 0
M  V30 1062 C 98.6106 -2.79235 2.28167 0
M  V30 1063 O 97.7146 -3.75185 1.71201 0
M  V30 1064 H 97.0556 -0.461618 0.477289 0
M  V30 1065 H 99.5856 -0.905949 1.8345 0
M  V30 1066 H 99.5956 -3.27963 2.42702 0
M  V30 1067 H 98.2706 -2.52923 3.30156 0
M  V30 1068 H 96.8476 -3.33958 1.65912 0
M  V30 1069 N 99.0327 -1.24633 -0.964593 0
M  V30 1070 C 100.281 -1.08573 -1.70459 0
M  V30 1071 C 100.602 0.375655 -1.91347 0
M  V30 1072 O 99.8717 1.26779 -1.49345 0
M  V30 1073 H 98.4517 -0.398784 -0.631649 0
M  V30 1074 H 101.114 -1.56601 -1.16026 0
M  V30 1075 H 100.21 -1.58623 -2.68785 0
M  V30 1076 N 100.511 1.16574 -1.06058 0
M  V30 1077 C 101.758 1.87047 -0.775873 0
M  V30 1078 C 102.086 1.81562 0.697534 0
M  V30 1079 O 101.341 1.22445 1.52662 0
M  V30 1080 C 101.64 3.36195 -1.21275 0
M  V30 1081 C 101.306 3.6188 -2.68986 0
M  V30 1082 C 99.9678 3.68599 -3.09335 0
M  V30 1083 C 102.32 3.72648 -3.64394 0
M  V30 1084 C 99.6478 3.83584 -4.43937 0
M  V30 1085 C 102 3.89154 -4.98741 0
M  V30 1086 C 100.664 3.94114 -5.3873 0
M  V30 1087 H 99.9338 0.684452 -0.283912 0
M  V30 1088 H 102.581 1.37853 -1.32925 0
M  V30 1089 H 100.886 3.87505 -0.578528 0
M  V30 1090 H 102.583 3.89103 -0.969542 0
M  V30 1091 H 99.1728 3.57281 -2.36744 0
M  V30 1092 H 103.357 3.66769 -3.34356 0
M  V30 1093 H 98.6128 3.85677 -4.74409 0
M  V30 1094 H 102.787 3.96427 -5.72554 0
M  V30 1095 H 100.414 4.05478 -6.43033 0
M  V30 1096 N 101.989 0.842826 1.3317 0
M  V30 1097 C 103.405 0.531128 1.50503 0
M  V30 1098 C 103.605 -0.940734 1.78192 0
M  V30 1099 O 102.661 -1.72436 1.84451 0
M  V30 1100 C 103.974 1.40789 2.65705 0
M  V30 1101 C 105.522 1.40708 2.79589 0
M  V30 1102 C 105.997 2.26878 3.97857 0
M  V30 1103 N 107.488 2.24609 4.05099 0
M  V30 1104 C 108.223 2.88019 4.95815 0
M  V30 1105 N 107.719 3.60496 5.9162 0
M  V30 1106 N 109.512 2.77469 4.88843 0
M  V30 1107 H 101.663 1.79557 1.1346 0
M  V30 1108 H 103.926 0.766267 0.558156 0
M  V30 1109 H 103.632 2.454 2.51936 0
M  V30 1110 H 103.506 1.08677 3.61205 0
M  V30 1111 H 105.893 0.368668 2.92788 0
M  V30 1112 H 105.974 1.76829 1.84838 0
M  V30 1113 H 105.618 3.3078 3.85418 0
M  V30 1114 H 105.548 1.88096 4.91861 0
M  V30 1115 H 108.039 1.71906 3.36536 0
M  V30 1116 H 108.352 4.06076 6.57512 0
M  V30 1117 H 106.697 3.64604 5.91683 0
M  V30 1118 H 109.888 2.20406 4.12963 0
M  V30 1119 H 110.061 3.2717 5.59342 0
M  V30 1120 N 103.467 -1.45747 0.599634 0
M  V30 1121 C 104.397 -2.33235 -0.111306 0
M  V30 1122 C 105.378 -1.46359 -0.866781 0
M  V30 1123 O 106.563 -1.75146 -0.838904 0
M  V30 1124 C 103.693 -3.28932 -1.11451 0
M  V30 1125 C 102.647 -4.25381 -0.472772 0
M  V30 1126 C 101.973 -5.1071 -1.58365 0
M  V30 1127 C 103.273 -5.18831 0.600948 0
M  V30 1128 H 104.967 -2.92927 0.61919 0
M  V30 1129 H 102.513 -1.40857 0.299215 0
M  V30 1130 H 104.466 -3.89002 -1.62036 0
M  V30 1131 H 103.19 -2.67381 -1.8755 0
M  V30 1132 H 101.849 -3.66598 0.0121472 0
M  V30 1133 H 101.497 -4.45533 -2.33473 0
M  V30 1134 H 101.197 -5.7604 -1.15982 0
M  V30 1135 H 102.721 -5.73647 -2.09194 0
M  V30 1136 H 104.135 -5.73019 0.179491 0
M  V30 1137 H 102.532 -5.92595 0.946076 0
M  V30 1138 H 103.602 -4.6174 1.48068 0
M  V30 1139 N 104.945 -0.338344 -1.53925 0
M  V30 1140 C 106.192 0.259758 -2.00827 0
M  V30 1141 C 106.52 1.50973 -1.22628 0
M  V30 1142 O 105.775 1.93379 -0.300509 0
M  V30 1143 C 106.074 0.62448 -3.51902 0
M  V30 1144 C 105.74 -0.528006 -4.47798 0
M  V30 1145 C 104.402 -0.844298 -4.73735 0
M  V30 1146 C 106.754 -1.30143 -5.0469 0
M  V30 1147 C 104.082 -1.93648 -5.53821 0
M  V30 1148 C 106.434 -2.38382 -5.85967 0
M  V30 1149 C 105.098 -2.70576 -6.10201 0
M  V30 1150 H 104.368 0.0950523 -0.734878 0
M  V30 1151 H 107.015 -0.465182 -1.85764 0
M  V30 1152 H 105.32 1.43006 -3.64769 0
M  V30 1153 H 107.017 1.09905 -3.85645 0
M  V30 1154 H 103.607 -0.271421 -4.2774 0
M  V30 1155 H 107.791 -1.07033 -4.84621 0
M  V30 1156 H 103.047 -2.19021 -5.70824 0
M  V30 1157 H 107.221 -2.98746 -6.29066 0
M  V30 1158 H 104.848 -3.55333 -6.72044 0
M  V30 1159 N 106.423 1.57458 -0.0668435 0
M  V30 1160 C 107.355 2.09413 0.931601 0
M  V30 1161 C 108.368 1.02522 1.26464 0
M  V30 1162 O 109.557 1.30049 1.22269 0
M  V30 1163 C 106.657 2.53537 2.24882 0
M  V30 1164 C 105.83 3.83944 2.09537 0
M  V30 1165 C 104.889 4.14214 3.2452 0
M  V30 1166 O 103.915 4.83891 2.9973 0
M  V30 1167 N 105.117 3.67367 4.49469 0
M  V30 1168 H 107.882 2.95699 0.488048 0
M  V30 1169 H 105.443 1.61462 0.119009 0
M  V30 1170 H 107.435 2.70853 3.00701 0
M  V30 1171 H 106.005 1.72415 2.60753 0
M  V30 1172 H 105.225 3.76057 1.18215 0
M  V30 1173 H 106.513 4.69312 1.96529 0
M  V30 1174 H 105.911 3.11068 4.72497 0
M  V30 1175 H 104.468 3.89891 5.2233 0
M  V30 1176 N 107.901 -0.206675 1.56239 0
M  V30 1177 C 108.831 -1.25909 1.96645 0
M  V30 1178 C 109.812 -1.48097 0.836734 0
M  V30 1179 O 110.997 -1.6003 1.10019 0
M  V30 1180 C 108.127 -2.6058 2.29599 0
M  V30 1181 C 107.081 -2.53024 3.452 0
M  V30 1182 C 106.407 -3.91861 3.63798 0
M  V30 1183 C 107.707 -2.06524 4.79734 0
M  V30 1184 H 109.401 -0.923369 2.84806 0
M  V30 1185 H 106.947 -0.442735 1.37025 0
M  V30 1186 H 108.9 -3.34375 2.56459 0
M  V30 1187 H 107.624 -2.95869 1.38307 0
M  V30 1188 H 106.283 -1.81684 3.18412 0
M  V30 1189 H 105.931 -4.24483 2.69857 0
M  V30 1190 H 105.631 -3.87683 4.4156 0
M  V30 1191 H 107.155 -4.67296 3.93022 0
M  V30 1192 H 108.569 -2.70072 5.05702 0
M  V30 1193 H 106.966 -2.13374 5.60885 0
M  V30 1194 H 108.036 -1.01802 4.74093 0
M  V30 1195 N 109.379 -1.50304 -0.473955 0
M  V30 1196 C 110.289 -1.7174 -1.5982 0
M  V30 1197 C 111.305 -0.600457 -1.63311 0
M  V30 1198 O 112.481 -0.878441 -1.81233 0
M  V30 1199 C 109.546 -1.80427 -2.96052 0
M  V30 1200 C 108.607 -3.04148 -3.02972 0
M  V30 1201 C 107.84 -3.12411 -4.32706 0
M  V30 1202 O 108.063 -2.27542 -5.23049 0
M  V30 1203 O 106.997 -4.05113 -4.45159 0
M  V30 1204 H 110.823 -2.67035 -1.44657 0
M  V30 1205 H 108.408 -1.34366 -0.653148 0
M  V30 1206 H 110.29 -1.88338 -3.7697 0
M  V30 1207 H 108.965 -0.883156 -3.11419 0
M  V30 1208 H 107.872 -3.0174 -2.21142 0
M  V30 1209 H 109.205 -3.95829 -2.92541 0
M  V30 1210 N 110.857 0.726932 -1.39834 0
M  V30 1211 C 111.787 1.85405 -1.41941 0
M  V30 1212 C 112.768 1.67751 -0.281728 0
M  V30 1213 O 113.953 1.8795 -0.488717 0
M  V30 1214 C 111.083 3.23243 -1.2701 0
M  V30 1215 C 110.037 3.55549 -2.38262 0
M  V30 1216 C 109.363 4.9241 -2.08415 0
M  V30 1217 C 110.663 3.577 -3.80589 0
M  V30 1218 H 112.357 1.83899 -2.36266 0
M  V30 1219 H 109.903 0.883349 -1.13723 0
M  V30 1220 H 111.856 4.01775 -1.27103 0
M  V30 1221 H 110.58 3.25296 -0.291564 0
M  V30 1222 H 109.239 2.79351 -2.37399 0
M  V30 1223 H 108.887 4.91052 -1.0898 0
M  V30 1224 H 108.587 5.14992 -2.82943 0
M  V30 1225 H 110.111 5.73289 -2.10171 0
M  V30 1226 H 111.525 4.26293 -3.83337 0
M  V30 1227 H 109.922 3.91804 -4.54543 0
M  V30 1228 H 110.992 2.57328 -4.10987 0
M  V30 1229 N 112.336 1.25143 0.95797 0
M  V30 1230 C 113.246 1.06968 2.08794 0
M  V30 1231 C 114.262 0.00773911 1.73998 0
M  V30 1232 O 115.438 0.207972 2.00323 0
M  V30 1233 C 112.503 0.68691 3.39827 0
M  V30 1234 C 111.564 1.82641 3.88511 0
M  V30 1235 C 110.797 1.46181 5.1329 0
M  V30 1236 O 111.02 0.355971 5.69288 0
M  V30 1237 O 109.954 2.29085 5.566 0
M  V30 1238 H 113.78 2.01723 2.27027 0
M  V30 1239 H 111.365 1.04051 1.07209 0
M  V30 1240 H 113.247 0.485417 4.18595 0
M  V30 1241 H 111.922 -0.231417 3.22872 0
M  V30 1242 H 110.829 2.08274 3.10762 0
M  V30 1243 H 112.162 2.72386 4.09959 0
M  V30 1244 N 113.814 -1.1601 1.06675 0
M  V30 1245 C 114.777 -2.18724 0.685001 0
M  V30 1246 C 115.777 -1.58496 -0.271246 0
M  V30 1247 O 116.967 -1.74119 -0.0531156 0
M  V30 1248 C 114.099 -3.40899 0.00853648 0
M  V30 1249 H 115.292 -2.54011 1.59431 0
M  V30 1250 H 112.845 -1.30352 0.862441 0
M  V30 1251 H 113.58 -3.11173 -0.913337 0
M  V30 1252 H 113.365 -3.8587 0.696204 0
M  V30 1253 H 114.855 -4.16886 -0.24414 0
M  V30 1254 N 115.292 -0.849877 -1.32721 0
M  V30 1255 C 116.569 -0.372405 -1.92022 0
M  V30 1256 C 116.949 1.1435 -1.77447 0
M  V30 1257 O 116.297 1.96296 -1.16962 0
M  V30 1258 C 116.507 -0.831482 -3.3895 0
M  V30 1259 C 117.855 -0.845882 -4.16089 0
M  V30 1260 O 118.879 -0.775806 -3.47649 0
M  V30 1261 O 117.738 -0.943753 -5.38289 0
M  V30 1262 H 114.832 -0.107667 -0.819961 0
M  V30 1263 H 117.378 -0.93646 -1.41522 0
M  V30 1264 H 116.15 -1.87448 -3.4348 0
M  V30 1265 H 115.773 -0.24461 -3.96847 0
M  V30 1266 N 116.77 1.45427 -0.607355 0
M  V30 1267 C 117.733 2.28974 0.101693 0
M  V30 1268 C 118.733 1.39754 0.795329 0
M  V30 1269 O 119.923 1.61878 0.643527 0
M  V30 1270 C 117.055 3.20768 1.15414 0
M  V30 1271 H 118.248 2.93147 -0.632844 0
M  V30 1272 H 115.801 1.51945 -0.366391 0
M  V30 1273 H 116.536 2.61395 1.91945 0
M  V30 1274 H 116.321 3.86489 0.66098 0
M  V30 1275 H 117.811 3.83589 1.65073 0
M  V30 1276 N 118.248 0.346503 1.53744 0
M  V30 1277 C 119.178 -0.501193 2.28058 0
M  V30 1278 C 120.159 -1.10014 1.29734 0
M  V30 1279 O 121.344 -1.12097 1.58581 0
M  V30 1280 C 118.474 -1.65078 3.05559 0
M  V30 1281 C 117.428 -1.18003 4.11411 0
M  V30 1282 C 116.754 -2.41837 4.76884 0
M  V30 1283 C 118.054 -0.278394 5.21558 0
M  V30 1284 H 119.748 0.11875 2.99164 0
M  V30 1285 H 117.294 0.0585531 1.43881 0
M  V30 1286 H 119.247 -2.25028 3.56287 0
M  V30 1287 H 117.971 -2.29767 2.32109 0
M  V30 1288 H 116.63 -0.603331 3.61601 0
M  V30 1289 H 116.278 -3.0494 4.00026 0
M  V30 1290 H 115.978 -2.1102 5.48402 0
M  V30 1291 H 117.502 -3.02508 5.30397 0
M  V30 1292 H 118.916 -0.784823 5.67903 0
M  V30 1293 H 117.313 -0.0619707 6.00068 0
M  V30 1294 H 118.383 0.684677 4.80042 0
M  V30 1295 N 119.726 -1.57421 0.075193 0
M  V30 1296 C 120.972 -1.93905 -0.594025 0
M  V30 1297 C 121.305 -0.955701 -1.69056 0
M  V30 1298 O 120.58 0.0145373 -1.94495 0
M  V30 1299 C 120.863 -3.40638 -1.1678 0
M  V30 1300 C 120.716 -4.49733 -0.0776792 0
M  V30 1301 C 122.035 -3.88259 -2.07228 0
M  V30 1302 H 119.154 -0.705105 -0.214466 0
M  V30 1303 H 121.796 -1.8947 0.141854 0
M  V30 1304 H 119.946 -3.44549 -1.79494 0
M  V30 1305 H 121.618 -4.57942 0.555573 0
M  V30 1306 H 119.861 -4.29751 0.591286 0
M  V30 1307 H 120.532 -5.49549 -0.519603 0
M  V30 1308 H 123.008 -3.86376 -1.54445 0
M  V30 1309 H 121.884 -4.91533 -2.44308 0
M  V30 1310 H 122.145 -3.26396 -2.98191 0
M  V30 1311 N 121.204 0.198386 -1.56346 0
M  V30 1312 C 122.152 1.26538 -1.95169 0
M  V30 1313 C 123.146 1.47295 -0.836685 0
M  V30 1314 O 124.352 1.48195 -1.02167 0
M  V30 1315 H 120.727 0.424744 -0.620561 0
M  V30 1316 H 122.698 0.910904 -2.84157 0
M  V30 1317 C 121.447 2.6035 -2.30463 0
M  V30 1318 H 120.77 2.45192 -3.15786 0
M  V30 1319 H 122.21 3.33762 -2.61494 0
M  V30 1320 C 120.669 3.17096 -1.13806 0
M  V30 1321 O 121.199 3.99588 -0.41135 0
M  V30 1322 N 119.405 2.75795 -0.915736 0
M  V30 1323 H 118.952 2.08816 -1.50843 0
M  V30 1324 H 118.91 3.14101 -0.136979 0
M  V30 1325 N 122.682 1.50554 0.465978 0
M  V30 1326 C 123.929 1.61798 1.21768 0
M  V30 1327 C 124.257 0.320696 1.91838 0
M  V30 1328 O 123.512 -0.693724 1.82992 0
M  V30 1329 C 123.811 2.75152 2.28093 0
M  V30 1330 C 123.477 4.15454 1.75239 0
M  V30 1331 C 122.139 4.53628 1.60546 0
M  V30 1332 C 124.491 5.03121 1.36083 0
M  V30 1333 C 121.819 5.77204 1.05128 0
M  V30 1334 C 124.171 6.27249 0.821056 0
M  V30 1335 C 122.835 6.64221 0.660795 0
M  V30 1336 H 122.105 0.592063 0.445582 0
M  V30 1337 H 124.752 1.84503 0.512927 0
M  V30 1338 H 123.057 2.46556 3.04496 0
M  V30 1339 H 124.754 2.81055 2.86023 0
M  V30 1340 H 121.344 3.85341 1.87644 0
M  V30 1341 H 125.528 4.74257 1.46267 0
M  V30 1342 H 120.784 6.0452 0.91462 0
M  V30 1343 H 124.958 6.94537 0.509018 0
M  V30 1344 H 122.585 7.59854 0.229226 0
M  V30 1345 N 124.16 -0.719506 1.40217 0
M  V30 1346 C 125.11 -1.8251 1.36653 0
M  V30 1347 C 126.094 -1.59028 0.244732 0
M  V30 1348 O 127.286 -1.70268 0.483524 0
M  V30 1349 C 124.415 -3.20599 1.22763 0
M  V30 1350 C 123.501 -3.49858 2.39708 0
M  V30 1351 N 123.892 -3.49957 3.6519 0
M  V30 1352 C 122.19 -3.80297 2.33002 0
M  V30 1353 C 122.891 -3.77449 4.42614 0
M  V30 1354 N 121.867 -3.96002 3.72402 0
M  V30 1355 H 125.669 -1.80914 2.31619 0
M  V30 1356 H 123.183 -0.918455 1.33933 0
M  V30 1357 H 125.18 -3.99766 1.18292 0
M  V30 1358 H 123.84 -3.23424 0.287614 0
M  V30 1359 H 124.851 -3.309 3.98404 0
M  V30 1360 H 121.528 -3.90635 1.47346 0
M  V30 1361 H 122.918 -3.83863 5.51451 0
M  V30 1362 N 125.638 -1.25649 -0.95132 0
M  V30 1363 C 126.57 -1.02112 -2.05197 0
M  V30 1364 C 127.583 0.0150571 -1.62793 0
M  V30 1365 O 128.772 -0.223874 -1.77091 0
M  V30 1366 C 125.872 -0.522361 -3.3485 0
M  V30 1367 C 125.045 -1.62546 -4.06076 0
M  V30 1368 C 124.104 -1.12649 -5.14001 0
M  V30 1369 O 123.13 -1.82156 -5.39266 0
M  V30 1370 N 124.332 0.03047 -5.80492 0
M  V30 1371 H 127.097 -1.96885 -2.25957 0
M  V30 1372 H 124.658 -1.16899 -1.1201 0
M  V30 1373 H 126.65 -0.172961 -4.0433 0
M  V30 1374 H 125.22 0.33151 -3.10837 0
M  V30 1375 H 124.44 -2.14628 -3.30649 0
M  V30 1376 H 125.728 -2.36644 -4.50419 0
M  V30 1377 H 125.126 0.611169 -5.62389 0
M  V30 1378 H 123.683 0.320875 -6.5101 0
M  V30 1379 N 127.117 1.15442 -1.07289 0
M  V30 1380 C 128.347 1.89821 -0.815576 0
M  V30 1381 C 128.755 1.7823 0.634867 0
M  V30 1382 O 128.098 1.13152 1.44715 0
M  V30 1383 C 128.16 3.40817 -1.14385 0
M  V30 1384 C 127.824 3.76193 -2.59476 0
M  V30 1385 C 128.821 3.77269 -3.57721 0
M  V30 1386 C 126.506 4.0652 -2.95037 0
M  V30 1387 C 128.5 4.08176 -4.89562 0
M  V30 1388 C 126.187 4.37092 -4.27076 0
M  V30 1389 C 127.185 4.37902 -5.24148 0
M  V30 1390 O 126.873 4.67741 -6.53815 0
M  V30 1391 H 126.605 0.608465 -0.294528 0
M  V30 1392 H 129.159 1.472 -1.43252 0
M  V30 1393 H 127.389 3.83835 -0.469865 0
M  V30 1394 H 129.078 3.96485 -0.869179 0
M  V30 1395 H 129.844 3.5394 -3.3159 0
M  V30 1396 H 125.723 4.05049 -2.20128 0
M  V30 1397 H 129.267 4.08723 -5.65324 0
M  V30 1398 H 125.164 4.59889 -4.5296 0
M  V30 1399 H 125.932 4.85509 -6.58957 0
M  V30 1400 N 128.595 0.856903 1.32268 0
M  V30 1401 C 129.82 0.474569 2.01897 0
M  V30 1402 C 130.245 -0.921766 1.63967 0
M  V30 1403 O 129.603 -1.60589 0.84148 0
M  V30 1404 C 129.651 0.623799 3.55164 0
M  V30 1405 O 128.755 -0.342459 4.10976 0
M  V30 1406 H 128.096 0.190422 0.63611 0
M  V30 1407 H 130.626 1.15672 1.68764 0
M  V30 1408 H 130.636 0.512169 4.04773 0
M  V30 1409 H 129.311 1.64202 3.82113 0
M  V30 1410 H 127.888 -0.18688 3.72431 0
M  V30 1411 N 130.073 -1.45103 0.615059 0
M  V30 1412 C 131.298 -2.07064 0.117988 0
M  V30 1413 C 131.723 -1.4554 -1.19163 0
M  V30 1414 O 131.081 -0.550855 -1.72729 0
M  V30 1415 C 131.129 -3.606 -0.000288387 0
M  V30 1416 O 130.233 -3.98847 -1.04856 0
M  V30 1417 H 129.574 -0.659467 0.0774581 0
M  V30 1418 H 132.104 -1.86236 0.847186 0
M  V30 1419 H 132.114 -4.07529 -0.196091 0
M  V30 1420 H 130.789 -4.04765 0.955932 0
M  V30 1421 H 129.366 -3.63577 -0.828619 0
M  V30 1422 N 131.551 -0.354651 -1.53558 0
M  V30 1423 C 132.483 0.5315 -2.22952 0
M  V30 1424 C 133.496 1.05503 -1.23988 0
M  V30 1425 O 134.685 0.963279 -1.50277 0
M  V30 1426 C 131.785 1.74538 -2.90499 0
M  V30 1427 C 130.958 1.35524 -4.15875 0
M  V30 1428 C 130.017 2.42999 -4.66731 0
M  V30 1429 O 129.043 2.05844 -5.30676 0
M  V30 1430 N 130.245 3.74423 -4.43608 0
M  V30 1431 H 133.01 -0.0628615 -2.99634 0
M  V30 1432 H 130.571 -0.179302 -1.60904 0
M  V30 1433 H 132.563 2.45892 -3.21433 0
M  V30 1434 H 131.133 2.24686 -2.17336 0
M  V30 1435 H 130.353 0.471998 -3.91364 0
M  V30 1436 H 131.641 1.07071 -4.97406 0
M  V30 1437 H 131.039 4.07391 -3.92491 0
M  V30 1438 H 129.596 4.41913 -4.7912 0
M  V30 1439 N 133.029 1.57378 -0.0835403 0
M  V30 1440 C 133.959 2.1641 0.87686 0
M  V30 1441 C 134.94 1.09429 1.30228 0
M  V30 1442 O 136.125 1.37516 1.37124 0
M  V30 1443 C 133.255 2.73517 2.14022 0
M  V30 1444 C 132.209 3.85769 1.85381 0
M  V30 1445 C 131.535 4.29529 3.18448 0
M  V30 1446 C 132.835 5.09486 1.14984 0
M  V30 1447 H 134.529 2.96914 0.385059 0
M  V30 1448 H 132.075 1.42823 0.18377 0
M  V30 1449 H 134.028 3.13463 2.81636 0
M  V30 1450 H 132.752 1.90252 2.65465 0
M  V30 1451 H 131.411 3.46345 1.20169 0
M  V30 1452 H 131.059 3.43169 3.67755 0
M  V30 1453 H 130.759 5.05204 3.00071 0
M  V30 1454 H 132.283 4.72099 3.8724 0
M  V30 1455 H 133.697 5.46674 1.72687 0
M  V30 1456 H 132.094 5.90515 1.06826 0
M  V30 1457 H 133.164 4.84724 0.130749 0
M  V30 1458 N 134.507 -0.190092 1.56449 0
M  V30 1459 C 135.437 -1.23816 1.97969 0
M  V30 1460 C 136.418 -1.47201 0.852395 0
M  V30 1461 O 137.603 -1.58854 1.1171 0
M  V30 1462 C 134.733 -2.5813 2.3235 0
M  V30 1463 C 133.687 -2.49348 3.47864 0
M  V30 1464 C 133.013 -3.8798 3.67934 0
M  V30 1465 C 134.313 -2.01424 4.81898 0
M  V30 1466 H 136.007 -0.89311 2.85769 0
M  V30 1467 H 133.553 -0.428177 1.37487 0
M  V30 1468 H 135.506 -3.31637 2.59991 0
M  V30 1469 H 134.23 -2.94386 1.41438 0
M  V30 1470 H 132.889 -1.78297 3.20321 0
M  V30 1471 H 132.537 -4.21597 2.74344 0
M  V30 1472 H 132.237 -3.82978 4.45648 0
M  V30 1473 H 133.761 -4.63101 3.97957 0
M  V30 1474 H 135.175 -2.64693 5.08538 0
M  V30 1475 H 133.572 -2.07413 5.63116 0
M  V30 1476 H 134.642 -0.967677 4.75146 0
M  V30 1477 N 135.985 -1.50799 -0.457987 0
M  V30 1478 C 137.396 -1.55152 -1.0385 0
M  V30 1479 C 137.747 -0.362719 -1.92818 0
M  V30 1480 O 136.872 0.522915 -2.09987 0
M  V30 1481 C 137.467 -2.81173 -1.89017 0
M  V30 1482 C 136.026 -2.88164 -2.42154 0
M  V30 1483 C 135.173 -2.49591 -1.20829 0
M  V30 1484 H 138.124 -1.56874 -0.240068 0
M  V30 1485 H 138.145 -2.63769 -2.74238 0
M  V30 1486 H 137.657 -3.67677 -1.24238 0
M  V30 1487 H 135.758 -2.06042 -3.10447 0
M  V30 1488 H 135.871 -3.91356 -2.76364 0
M  V30 1489 H 134.235 -2.02322 -1.54719 0
M  V30 1490 H 135.018 -3.38418 -0.576927 0
M  V30 1491 N 137.463 0.71206 -1.40597 0
M  V30 1492 C 138.71 1.47197 -1.39065 0
M  V30 1493 C 139.038 1.94499 0.00583891 0
M  V30 1494 O 138.293 1.68752 0.99102 0
M  V30 1495 C 138.592 2.71039 -2.32965 0
M  V30 1496 C 138.258 2.42484 -3.80148 0
M  V30 1497 C 136.92 2.34406 -4.20247 0
M  V30 1498 C 139.272 2.18598 -4.73143 0
M  V30 1499 C 136.6 2.00516 -5.51371 0
M  V30 1500 C 138.952 1.8622 -6.0457 0
M  V30 1501 C 137.616 1.76626 -6.43708 0
M  V30 1502 H 136.886 0.538634 -0.508876 0
M  V30 1503 H 139.533 0.815325 -1.73276 0
M  V30 1504 H 137.838 3.41558 -1.91951 0
M  V30 1505 H 139.535 3.29138 -2.29061 0
M  V30 1506 H 136.125 2.49659 -3.4838 0
M  V30 1507 H 140.309 2.23793 -4.42979 0
M  V30 1508 H 135.565 1.91628 -5.80593 0
M  V30 1509 H 139.739 1.66752 -6.76141 0
M  V30 1510 H 137.366 1.50133 -7.45228 0
M  V30 1511 N 138.941 1.26152 0.944643 0
M  V30 1512 C 140.171 1.14094 1.72239 0
M  V30 1513 C 140.579 -0.306931 1.86694 0
M  V30 1514 O 139.922 -1.22222 1.3714 0
M  V30 1515 C 139.984 1.73316 3.14963 0
M  V30 1516 C 139.648 3.2239 3.23904 0
M  V30 1517 C 140.645 4.19252 3.07447 0
M  V30 1518 C 138.33 3.62788 3.47405 0
M  V30 1519 C 140.324 5.54491 3.14353 0
M  V30 1520 C 138.011 4.98162 3.53947 0
M  V30 1521 C 139.009 5.93823 3.37436 0
M  V30 1522 O 138.697 7.26732 3.43679 0
M  V30 1523 H 138.429 0.398292 0.546205 0
M  V30 1524 H 140.983 1.67201 1.19301 0
M  V30 1525 H 139.213 1.14667 3.69308 0
M  V30 1526 H 140.902 1.56214 3.74636 0
M  V30 1527 H 141.668 3.8938 2.8915 0
M  V30 1528 H 137.547 2.88816 3.59313 0
M  V30 1529 H 141.091 6.29137 3.01384 0
M  V30 1530 H 136.988 5.27695 3.71763 0
M  V30 1531 H 137.756 7.3496 3.60245 0
M  V30 1532 N 140.419 -1.14872 1.07899 0
M  V30 1533 C 141.329 -2.2341 0.715915 0
M  V30 1534 C 142.345 -1.71808 -0.275306 0
M  V30 1535 O 143.521 -2.01039 -0.120545 0
M  V30 1536 C 140.586 -3.46474 0.125168 0
M  V30 1537 C 139.647 -4.13039 1.17034 0
M  V30 1538 C 138.88 -5.30229 0.607688 0
M  V30 1539 O 139.103 -5.675 -0.574497 0
M  V30 1540 O 138.037 -5.86444 1.35526 0
M  V30 1541 H 141.863 -2.56808 1.62121 0
M  V30 1542 H 139.448 -1.22702 0.852322 0
M  V30 1543 H 141.33 -4.20917 -0.201729 0
M  V30 1544 H 140.005 -3.14811 -0.753364 0
M  V30 1545 H 138.912 -3.40493 1.54968 0
M  V30 1546 H 140.245 -4.48796 2.02097 0
M  V30 1547 N 141.898 -0.863906 -1.31812 0
M  V30 1548 C 143.123 -0.48527 -2.01643 0
M  V30 1549 C 143.548 0.913058 -1.64453 0
M  V30 1550 O 142.906 1.6014 -0.849985 0
M  V30 1551 C 142.954 -0.642625 -3.54828 0
M  V30 1552 O 142.058 0.320659 -4.11151 0
M  V30 1553 H 141.399 -0.193793 -0.635091 0
M  V30 1554 H 143.929 -1.16565 -1.68148 0
M  V30 1555 H 143.939 -0.533628 -4.04495 0
M  V30 1556 H 142.614 -1.66227 -3.81237 0
M  V30 1557 H 141.191 0.167126 -3.72525 0
M  V30 1558 N 143.376 1.44774 -0.622745 0
M  V30 1559 C 144.601 2.06999 -0.128968 0
M  V30 1560 C 145.026 1.4617 1.1839 0
M  V30 1561 O 144.384 0.560007 1.72434 0
M  V30 1562 C 144.432 3.60595 -0.0188351 0
M  V30 1563 O 143.536 3.99398 1.02739 0
M  V30 1564 H 142.877 0.659047 -0.0809544 0
M  V30 1565 H 145.407 1.85784 -0.85705 0
M  V30 1566 H 145.417 4.07627 0.174476 0
M  V30 1567 H 144.092 4.04252 -0.977384 0
M  V30 1568 H 142.669 3.64011 0.809326 0
M  V30 1569 N 144.854 0.36279 1.53368 0
M  V30 1570 C 146.265 -0.117022 1.86333 0
M  V30 1571 C 146.616 -1.48397 1.28347 0
M  V30 1572 O 145.741 -2.07787 0.604428 0
M  V30 1573 C 146.336 -0.21912 3.38091 0
M  V30 1574 C 144.895 -0.643184 3.70864 0
M  V30 1575 C 144.042 0.211318 2.76494 0
M  V30 1576 H 146.993 0.581687 1.47655 0
M  V30 1577 H 147.014 -1.04319 3.6592 0
M  V30 1578 H 146.526 0.775902 3.80265 0
M  V30 1579 H 144.627 -1.64654 3.34245 0
M  V30 1580 H 144.74 -0.41973 4.77258 0
M  V30 1581 H 143.104 -0.319367 2.5269 0
M  V30 1582 H 143.887 1.20383 3.21501 0
M  V30 1583 N 146.332 -1.57332 0.0918853 0
M  V30 1584 C 147.264 -2.10869 -0.898168 0
M  V30 1585 C 148.277 -1.04521 -1.24817 0
M  V30 1586 O 149.466 -1.31977 -1.20184 0
M  V30 1587 C 146.566 -2.57083 -2.2082 0
M  V30 1588 C 145.739 -3.87229 -2.03402 0
M  V30 1589 C 144.798 -4.19324 -3.17889 0
M  V30 1590 O 143.824 -4.88598 -2.91994 0
M  V30 1591 N 145.026 -3.74471 -4.43567 0
M  V30 1592 H 147.791 -2.96439 -0.440943 0
M  V30 1593 H 145.352 -1.61631 -0.0933064 0
M  V30 1594 H 147.344 -2.75602 -2.96354 0
M  V30 1595 H 145.914 -1.76541 -2.57977 0
M  V30 1596 H 145.134 -3.7789 -1.12218 0
M  V30 1597 H 146.422 -4.72379 -1.89038 0
M  V30 1598 H 145.82 -3.18546 -4.67488 0
M  V30 1599 H 144.377 -3.98151 -5.16061 0
M  V30 1600 N 147.81 0.181792 -1.56548 0
M  V30 1601 C 149.056 0.901431 -1.81665 0
M  V30 1602 C 149.389 1.82347 -0.668075 0
M  V30 1603 O 148.664 1.91669 0.330615 0
M  V30 1604 C 148.947 1.70618 -3.17115 0
M  V30 1605 C 148.8 0.807964 -4.42484 0
M  V30 1606 C 150.119 2.67605 -3.49393 0
M  V30 1607 H 147.238 0.32627 -0.660846 0
M  V30 1608 H 149.88 0.168134 -1.89255 0
M  V30 1609 H 148.03 2.33133 -3.10775 0
M  V30 1610 H 149.702 0.19649 -4.60881 0
M  V30 1611 H 147.945 0.115411 -4.33646 0
M  V30 1612 H 148.616 1.40632 -5.33785 0
M  V30 1613 H 151.092 2.15218 -3.56118 0
M  V30 1614 H 149.968 3.20985 -4.45264 0
M  V30 1615 H 150.229 3.47298 -2.73563 0
M  V30 1616 N 149.288 1.51039 0.449983 0
M  V30 1617 C 150.218 1.74379 1.55288 0
M  V30 1618 C 151.199 0.593236 1.5942 0
M  V30 1619 O 152.384 0.834625 1.7535 0
M  V30 1620 C 149.514 1.85728 2.93466 0
M  V30 1621 C 148.468 3.01078 3.04197 0
M  V30 1622 C 147.794 2.97595 4.44231 0
M  V30 1623 C 149.094 4.41254 2.7945 0
M  V30 1624 H 150.788 2.66725 1.36008 0
M  V30 1625 H 148.334 1.2835 0.652864 0
M  V30 1626 H 150.287 2.0064 3.70569 0
M  V30 1627 H 149.011 0.900207 3.13949 0
M  V30 1628 H 147.67 2.85851 2.29531 0
M  V30 1629 H 147.318 1.99691 4.61663 0
M  V30 1630 H 147.018 3.75046 4.52343 0
M  V30 1631 H 148.542 3.14583 5.23326 0
M  V30 1632 H 149.956 4.56897 3.46292 0
M  V30 1633 H 148.353 5.20315 2.98985 0
M  V30 1634 H 149.423 4.52164 1.75144 0
M  V30 1635 N 150.766 -0.704594 1.40972 0
M  V30 1636 C 151.716 -1.81051 1.38581 0
M  V30 1637 C 152.7 -1.58759 0.261585 0
M  V30 1638 O 153.892 -1.69745 0.501556 0
M  V30 1639 C 151.021 -3.19279 1.26157 0
M  V30 1640 C 150.107 -3.47296 2.43405 0
M  V30 1641 N 150.498 -3.46064 3.68881 0
M  V30 1642 C 148.796 -3.77804 2.37023 0
M  V30 1643 C 149.497 -3.72733 4.46592 0
M  V30 1644 N 148.473 -3.9203 3.76581 0
M  V30 1645 H 152.275 -1.78448 2.33525 0
M  V30 1646 H 149.789 -0.904198 1.349 0
M  V30 1647 H 151.786 -3.98488 1.22526 0
M  V30 1648 H 150.446 -3.231 0.321902 0
M  V30 1649 H 151.457 -3.26656 4.01891 0
M  V30 1650 H 148.134 -3.8905 1.51481 0
M  V30 1651 H 149.524 -3.77993 5.55492 0
M  V30 1652 N 152.244 -1.26651 -0.937939 0
M  V30 1653 C 153.472 -1.15173 -1.7188 0
M  V30 1654 C 153.887 0.292668 -1.86518 0
M  V30 1655 O 153.244 1.20014 -1.37488 0
M  V30 1656 C 153.295 -1.81925 -3.12387 0
M  V30 1657 O 153.016 -3.2072 -2.98446 0
M  V30 1658 C 154.517 -1.76442 -4.06673 0
M  V30 1659 H 151.737 -0.400911 -0.538063 0
M  V30 1660 H 154.281 -1.67332 -1.1756 0
M  V30 1661 H 152.436 -1.33696 -3.63599 0
M  V30 1662 H 152.85 -3.53802 -3.872 0
M  V30 1663 H 154.324 -2.27781 -5.02812 0
M  V30 1664 H 154.801 -0.731608 -4.33064 0
M  V30 1665 H 155.407 -2.24238 -3.61382 0
M  V30 1666 N 153.722 1.14298 -1.08507 0
M  V30 1667 C 154.632 2.23027 -0.727753 0
M  V30 1668 C 155.648 1.71952 0.26619 0
M  V30 1669 O 156.824 2.011 0.109882 0
M  V30 1670 C 153.889 3.46403 -0.143541 0
M  V30 1671 C 152.95 4.12413 -1.19223 0
M  V30 1672 C 152.183 5.29899 -0.635798 0
M  V30 1673 O 152.406 5.67796 0.544393 0
M  V30 1674 O 151.34 5.85717 -1.38634 0
M  V30 1675 H 155.166 2.55945 -1.63481 0
M  V30 1676 H 152.751 1.22248 -0.858817 0
M  V30 1677 H 154.633 4.21018 0.179404 0
M  V30 1678 H 153.308 3.15206 0.736659 0
M  V30 1679 H 152.215 3.39667 -1.56772 0
M  V30 1680 H 153.548 4.47718 -2.04474 0
M  V30 1681 N 155.201 0.870884 1.31352 0
M  V30 1682 C 156.447 0.482987 1.96965 0
M  V30 1683 C 156.78 -0.962462 1.68672 0
M  V30 1684 O 156.055 -1.6779 0.98371 0
M  V30 1685 C 156.338 0.741752 3.52378 0
M  V30 1686 C 156.191 2.2368 3.9024 0
M  V30 1687 C 157.51 0.208838 4.39604 0
M  V30 1688 H 154.629 0.176955 0.715441 0
M  V30 1689 H 157.271 1.09229 1.55464 0
M  V30 1690 H 155.421 0.223149 3.87859 0
M  V30 1691 H 157.093 2.82273 3.64856 0
M  V30 1692 H 155.336 2.70901 3.38814 0
M  V30 1693 H 156.007 2.3685 4.98604 0
M  V30 1694 H 158.483 0.652529 4.10952 0
M  V30 1695 H 157.359 0.419336 5.47296 0
M  V30 1696 H 157.62 -0.889275 4.33064 0
M  V30 1697 N 156.679 -1.44442 0.630414 0
M  V30 1698 C 157.609 -2.33418 -0.0618083 0
M  V30 1699 C 158.59 -1.48165 -0.835541 0
M  V30 1700 O 159.775 -1.76886 -0.801564 0
M  V30 1701 C 156.905 -3.31222 -1.04449 0
M  V30 1702 C 155.859 -4.26288 -0.382436 0
M  V30 1703 C 155.185 -5.13954 -1.47497 0
M  V30 1704 C 156.485 -5.1744 0.710865 0
M  V30 1705 H 158.179 -2.91548 0.681184 0
M  V30 1706 H 155.725 -1.40191 0.329026 0
M  V30 1707 H 157.678 -3.92351 -1.53748 0
M  V30 1708 H 156.402 -2.71299 -1.81836 0
M  V30 1709 H 155.061 -3.6649 0.0899054 0
M  V30 1710 H 154.709 -4.50385 -2.2397 0
M  V30 1711 H 154.409 -5.7837 -1.03737 0
M  V30 1712 H 155.933 -5.77955 -1.96979 0
M  V30 1713 H 157.347 -5.72509 0.300996 0
M  V30 1714 H 155.744 -5.90455 1.07156 0
M  V30 1715 H 156.814 -4.58496 1.57829 0
M  V30 1716 N 158.157 -0.370918 -1.53173 0
M  V30 1717 C 159.089 0.507823 -2.23503 0
M  V30 1718 C 160.102 1.04182 -1.251 0
M  V30 1719 O 161.291 0.947286 -1.5129 0
M  V30 1720 C 158.391 1.71447 -2.92334 0
M  V30 1721 C 157.564 1.31105 -4.17289 0
M  V30 1722 C 156.623 2.38035 -4.69282 0
M  V30 1723 O 155.649 2.00204 -5.32829 0
M  V30 1724 N 156.851 3.69697 -4.47554 0
M  V30 1725 H 159.616 -0.0946382 -2.99551 0
M  V30 1726 H 157.177 -0.196358 -1.60705 0
M  V30 1727 H 159.169 2.42469 -3.24023 0
M  V30 1728 H 157.739 2.22368 -2.19707 0
M  V30 1729 H 156.959 0.430462 -3.91843 0
M  V30 1730 H 158.247 1.0179 -4.98514 0
M  V30 1731 H 157.645 4.03205 -3.9679 0
M  V30 1732 H 156.202 4.36807 -4.8378 0
M  V30 1733 N 159.635 1.57281 -0.100228 0
M  V30 1734 C 160.585 2.10848 0.86759 0
M  V30 1735 C 161.569 1.02473 1.24049 0
M  V30 1736 O 162.761 1.28739 1.21471 0
M  V30 1737 C 159.89 2.69648 2.12474 0
M  V30 1738 C 158.976 3.85074 1.77704 0
M  V30 1739 N 159.367 4.92897 1.13518 0
M  V30 1740 C 157.665 3.94905 2.07282 0
M  V30 1741 C 158.366 5.73475 0.974735 0
M  V30 1742 N 157.342 5.22675 1.4937 0
M  V30 1743 H 161.144 2.91594 0.367471 0
M  V30 1744 H 158.658 1.62074 0.102829 0
M  V30 1745 H 160.655 3.06356 2.82757 0
M  V30 1746 H 159.315 1.90359 2.63047 0
M  V30 1747 H 160.326 5.11662 0.801381 0
M  V30 1748 H 157.003 3.26633 2.60033 0
M  V30 1749 H 158.393 6.70238 0.472364 0
M  V30 1750 N 161.113 -0.173488 1.56642 0
M  V30 1751 C 162.043 -1.2171 1.99271 0
M  V30 1752 C 163.024 -1.46289 0.867959 0
M  V30 1753 O 164.209 -1.5766 1.13388 0
M  V30 1754 C 161.339 -2.55651 2.35074 0
M  V30 1755 C 160.293 -2.45645 3.50489 0
M  V30 1756 C 159.619 -3.84056 3.72028 0
M  V30 1757 C 160.919 -1.96302 4.84007 0
M  V30 1758 H 162.613 -0.86275 2.867 0
M  V30 1759 H 160.159 -0.413571 1.37933 0
M  V30 1760 H 162.112 -3.2886 2.63494 0
M  V30 1761 H 160.836 -2.92869 1.44552 0
M  V30 1762 H 159.495 -1.7489 3.22194 0
M  V30 1763 H 159.143 -4.18664 2.788 0
M  V30 1764 H 158.843 -3.7823 4.49684 0
M  V30 1765 H 160.367 -4.58854 4.02846 0
M  V30 1766 H 161.781 -2.59284 5.11317 0
M  V30 1767 H 160.178 -2.01429 5.65284 0
M  V30 1768 H 161.248 -0.917226 4.76146 0
M  V30 1769 N 162.591 -1.51276 -0.441967 0
M  V30 1770 C 163.819 -1.67516 -1.21434 0
M  V30 1771 C 164.234 -0.37055 -1.85128 0
M  V30 1772 O 163.591 0.650498 -1.70513 0
M  V30 1773 C 163.642 -2.78748 -2.30177 0
M  V30 1774 O 163.363 -4.04154 -1.69089 0
M  V30 1775 C 164.864 -3.06217 -3.20541 0
M  V30 1776 H 162.084 -0.562276 -0.366178 0
M  V30 1777 H 164.628 -1.97666 -0.524244 0
M  V30 1778 H 162.783 -2.5121 -2.94911 0
M  V30 1779 H 163.197 -4.65894 -2.40922 0
M  V30 1780 H 164.671 -3.8764 -3.92987 0
M  V30 1781 H 165.148 -2.18439 -3.81026 0
M  V30 1782 H 165.754 -3.35397 -2.61513 0
M  V30 1783 N 164.069 0.697108 -1.41344 0
M  V30 1784 C 165.346 1.45154 -1.31109 0
M  V30 1785 C 165.726 2.11009 0.0620449 0
M  V30 1786 O 165.074 2.01571 1.07618 0
M  V30 1787 C 165.284 2.47223 -2.46337 0
M  V30 1788 C 166.632 3.1252 -2.87431 0
M  V30 1789 O 167.656 2.57547 -2.46065 0
M  V30 1790 O 166.515 4.12083 -3.58957 0
M  V30 1791 H 163.609 0.646365 -0.515889 0
M  V30 1792 H 166.155 0.727716 -1.53305 0
M  V30 1793 H 164.927 1.97204 -3.37974 0
M  V30 1794 H 164.55 3.27116 -2.2601 0
M  V30 1795 N 165.547 1.27147 0.931209 0
M  V30 1796 C 166.477 1.12081 2.04842 0
M  V30 1797 C 167.458 0.0232364 1.70084 0
M  V30 1798 O 168.643 0.197085 1.93197 0
M  V30 1799 C 165.773 0.76354 3.38803 0
M  V30 1800 C 164.727 1.81396 3.87659 0
M  V30 1801 C 164.053 1.31075 5.18385 0
M  V30 1802 C 165.353 3.21739 4.11438 0
M  V30 1803 H 167.047 2.05537 2.17703 0
M  V30 1804 H 164.593 0.989603 1.04608 0
M  V30 1805 H 166.546 0.644982 4.16435 0
M  V30 1806 H 165.27 -0.206727 3.25945 0
M  V30 1807 H 163.929 1.92136 3.12217 0
M  V30 1808 H 163.577 0.330037 5.01916 0
M  V30 1809 H 163.277 2.013 5.52044 0
M  V30 1810 H 164.801 1.20506 5.98591 0
M  V30 1811 H 166.215 3.14019 4.79651 0
M  V30 1812 H 164.612 3.89644 4.56397 0
M  V30 1813 H 165.682 3.67054 3.16859 0
M  V30 1814 N 167.025 -1.13721 1.09112 0
M  V30 1815 C 168.274 -1.84275 0.82009 0
M  V30 1816 C 168.587 -1.84253 -0.656509 0
M  V30 1817 O 169.793 -2.50668 -1.04296 0
M  V30 1818 C 168.249 -3.30825 1.41714 0
M  V30 1819 C 167.857 -3.39244 2.92605 0
M  V30 1820 C 169.601 -4.06443 1.22492 0
M  V30 1821 C 167.508 -4.80047 3.45411 0
M  V30 1822 H 166.438 -0.690387 0.30312 0
M  V30 1823 H 169.089 -1.28146 1.31343 0
M  V30 1824 H 167.471 -3.86737 0.851498 0
M  V30 1825 H 168.645 -2.93344 3.55367 0
M  V30 1826 H 166.96 -2.77088 3.10823 0
M  V30 1827 H 169.557 -5.10387 1.59402 0
M  V30 1828 H 169.9 -4.15972 0.165299 0
M  V30 1829 H 170.433 -3.56852 1.75788 0
M  V30 1830 H 167.172 -4.75709 4.50978 0
M  V30 1831 H 166.692 -5.26455 2.87411 0
M  V30 1832 H 168.371 -5.48957 3.42425 0
M  V30 1833 N 168.503 -0.877838 -1.30888 0
M  V30 1834 C 169.919 -0.570844 -1.49042 0
M  V30 1835 C 170.119 0.893159 -1.80624 0
M  V30 1836 O 169.175 1.67485 -1.88958 0
M  V30 1837 C 170.488 -1.47784 -2.61878 0
M  V30 1838 C 172.036 -1.48071 -2.75761 0
M  V30 1839 C 172.511 -2.37347 -3.91702 0
M  V30 1840 N 174.002 -2.35271 -3.99001 0
M  V30 1841 C 174.737 -3.01063 -4.88004 0
M  V30 1842 N 174.233 -3.76055 -5.81854 0
M  V30 1843 N 176.026 -2.90332 -4.81315 0
M  V30 1844 H 168.177 -1.82502 -1.0866 0
M  V30 1845 H 170.44 -0.780797 -0.537644 0
M  V30 1846 H 170.146 -2.51993 -2.45341 0
M  V30 1847 H 170.02 -1.18215 -3.58197 0
M  V30 1848 H 172.407 -0.446166 -2.91708 0
M  V30 1849 H 172.488 -1.81668 -1.80085 0
M  V30 1850 H 172.132 -3.40883 -3.76512 0
M  V30 1851 H 172.062 -2.01071 -4.86701 0
M  V30 1852 H 174.553 -1.80768 -3.3186 0
M  V30 1853 H 174.866 -4.23366 -6.46514 0
M  V30 1854 H 173.211 -3.80163 -5.81808 0
M  V30 1855 H 176.402 -2.31278 -4.06974 0
M  V30 1856 H 176.575 -3.41885 -5.50471 0
M  V30 1857 N 169.982 1.44106 -0.638065 0
M  V30 1858 C 170.93 2.3248 0.0748149 0
M  V30 1859 C 171.924 1.47746 0.828702 0
M  V30 1860 O 173.13 1.64049 0.740816 0
M  V30 1861 H 169.505 0.750771 0.0429686 0
M  V30 1862 H 171.476 2.90348 -0.688504 0
M  V30 1863 C 170.225 3.31843 1.03805 0
M  V30 1864 H 169.548 3.97059 0.467375 0
M  V30 1865 H 170.988 3.96345 1.50622 0
M  V30 1866 C 169.447 2.61291 2.1267 0
M  V30 1867 O 169.977 2.41702 3.20847 0
M  V30 1868 N 168.183 2.20915 1.88798 0
M  V30 1869 H 167.73 2.37047 1.00829 0
M  V30 1870 H 167.688 1.74038 2.61836 0
M  V30 1871 N 171.46 0.379036 1.52974 0
M  V30 1872 C 172.41 -0.477772 2.22938 0
M  V30 1873 C 173.394 -1.03792 1.22948 0
M  V30 1874 O 174.586 -0.965725 1.48333 0
M  V30 1875 C 171.715 -1.60994 3.03209 0
M  V30 1876 C 170.801 -1.06203 4.10587 0
M  V30 1877 N 171.192 -0.238214 5.05239 0
M  V30 1878 C 169.49 -1.33554 4.25534 0
M  V30 1879 C 170.191 0.0633235 5.81666 0
M  V30 1880 N 169.167 -0.537901 5.40932 0
M  V30 1881 H 172.969 0.158295 2.93473 0
M  V30 1882 H 170.483 0.187778 1.61311 0
M  V30 1883 H 172.48 -2.23607 3.5186 0
M  V30 1884 H 171.14 -2.24893 2.34207 0
M  V30 1885 H 172.151 0.123695 5.17752 0
M  V30 1886 H 168.828 -1.97632 3.6776 0
M  V30 1887 H 170.218 0.730161 6.67921 0
M  V30 1888 N 172.938 -1.57226 0.108567 0
M  V30 1889 C 174.349 -1.8195 -0.418464 0
M  V30 1890 C 174.7 -1.02508 -1.67292 0
M  V30 1891 O 173.825 -0.258496 -2.14851 0
M  V30 1892 C 174.42 -3.30028 -0.765979 0
M  V30 1893 C 172.979 -3.55469 -1.23769 0
M  V30 1894 C 172.126 -2.7625 -0.241106 0
M  V30 1895 H 175.077 -1.55149 0.33384 0
M  V30 1896 H 175.098 -3.44086 -1.62434 0
M  V30 1897 H 174.61 -3.87821 0.147219 0
M  V30 1898 H 172.711 -3.03022 -2.16814 0
M  V30 1899 H 172.824 -4.6408 -1.19022 0
M  V30 1900 H 171.188 -2.44133 -0.72602 0
M  V30 1901 H 171.971 -3.36797 0.665007 0
M  V30 1902 N 174.416 0.165178 -1.56732 0
M  V30 1903 C 175.641 0.900253 -1.86843 0
M  V30 1904 C 176.066 1.74766 -0.695596 0
M  V30 1905 O 175.424 1.77786 0.35522 0
M  V30 1906 C 175.472 1.74777 -3.15413 0
M  V30 1907 O 174.576 2.85007 -2.98068 0
M  V30 1908 H 173.917 0.251832 -0.614391 0
M  V30 1909 H 176.447 0.161468 -2.03962 0
M  V30 1910 H 176.457 2.14646 -3.46974 0
M  V30 1911 H 175.132 1.12537 -4.00385 0
M  V30 1912 H 173.709 2.48676 -2.77875 0
M  V30 1913 N 175.894 1.51508 0.433938 0
M  V30 1914 C 177.14 1.65549 1.18173 0
M  V30 1915 C 177.495 0.368751 1.88833 0
M  V30 1916 O 176.788 -0.635616 1.8075 0
M  V30 1917 C 176.982 2.79928 2.22205 0
M  V30 1918 C 176.811 4.19601 1.61756 0
M  V30 1919 C 175.581 4.85489 1.40101 0
M  V30 1920 C 177.779 5.02574 1.09194 0
M  V30 1921 N 175.761 6.09266 0.752859 0
M  V30 1922 C 177.132 6.17381 0.569255 0
M  V30 1923 C 179.187 4.88079 0.984025 0
M  V30 1924 C 177.89 7.19282 -0.0507472 0
M  V30 1925 C 179.916 5.90191 0.377912 0
M  V30 1926 C 179.278 7.04272 -0.134216 0
M  V30 1927 H 175.377 0.659653 0.419979 0
M  V30 1928 H 177.961 1.88746 0.477818 0
M  V30 1929 H 176.132 2.5839 2.89982 0
M  V30 1930 H 177.864 2.83132 2.89168 0
M  V30 1931 H 174.619 4.43417 1.66369 0
M  V30 1932 H 175.043 6.75528 0.446123 0
M  V30 1933 H 179.685 4.00131 1.36583 0
M  V30 1934 H 177.403 8.06876 -0.444676 0
M  V30 1935 H 180.989 5.81045 0.296269 0
M  V30 1936 H 179.869 7.81933 -0.59585 0
M  V30 1937 N 177.372 -0.689602 1.41712 0
M  V30 1938 C 178.597 -1.48329 1.44959 0
M  V30 1939 C 179.022 -1.8801 0.0581283 0
M  V30 1940 O 178.38 -1.55026 -0.940035 0
M  V30 1941 C 178.428 -2.71835 2.36935 0
M  V30 1942 O 177.532 -3.69549 1.8305 0
M  V30 1943 H 176.873 -0.446199 0.491734 0
M  V30 1944 H 179.403 -0.847127 1.86239 0
M  V30 1945 H 179.413 -3.20076 2.53013 0
M  V30 1946 H 178.088 -2.42291 3.38035 0
M  V30 1947 H 176.665 -3.2851 1.76452 0
M  V30 1948 N 178.85 -1.27639 -0.924453 0
M  V30 1949 C 180.096 -1.14336 -1.67497 0
M  V30 1950 C 180.429 0.309465 -1.91718 0
M  V30 1951 O 179.704 1.22608 -1.50989 0
M  V30 1952 C 179.987 -1.93096 -3.0395 0
M  V30 1953 C 179.84 -3.46381 -2.8695 0
M  V30 1954 C 181.159 -1.73798 -4.0433 0
M  V30 1955 H 178.278 -0.416728 -0.607871 0
M  V30 1956 H 180.92 -1.56832 -1.07256 0
M  V30 1957 H 179.07 -1.56982 -3.55372 0
M  V30 1958 H 180.742 -3.92343 -2.42621 0
M  V30 1959 H 178.985 -3.72557 -2.22225 0
M  V30 1960 H 179.656 -3.96735 -3.83804 0
M  V30 1961 H 182.132 -2.05293 -3.61931 0
M  V30 1962 H 181.008 -2.31294 -4.97789 0
M  V30 1963 H 181.269 -0.686725 -4.36734 0
M  V30 1964 N 180.328 1.1314 -1.09713 0
M  V30 1965 C 181.291 2.16831 -0.742751 0
M  V30 1966 C 182.291 1.59159 0.229129 0
M  V30 1967 O 183.481 1.74199 0.00693237 0
M  V30 1968 C 180.613 3.40756 -0.0989168 0
M  V30 1969 H 181.806 2.49695 -1.66109 0
M  V30 1970 H 179.359 1.2802 -0.896699 0
M  V30 1971 H 180.094 3.13485 0.830514 0
M  V30 1972 H 179.879 3.83888 -0.798265 0
M  V30 1973 H 181.369 4.17386 0.133524 0
M  V30 1974 N 181.806 0.884767 1.30421 0
M  V30 1975 C 182.756 0.322846 2.25703 0
M  V30 1976 C 183.74 -0.548582 1.51259 0
M  V30 1977 O 184.932 -0.39304 1.72581 0
M  V30 1978 C 182.061 -0.461787 3.4018 0
M  V30 1979 C 181.147 0.423717 4.21978 0
M  V30 1980 N 181.538 1.52408 4.82292 0
M  V30 1981 C 179.836 0.218795 4.45463 0
M  V30 1982 C 180.537 2.07136 5.43571 0
M  V30 1983 N 179.513 1.36635 5.26148 0
M  V30 1984 H 183.315 1.16363 2.69883 0
M  V30 1985 H 180.829 0.73415 1.44859 0
M  V30 1986 H 182.826 -0.880985 4.07485 0
M  V30 1987 H 181.486 -1.30001 2.9754 0
M  V30 1988 H 182.497 1.90693 4.81515 0
M  V30 1989 H 179.174 -0.582275 4.1342 0
M  V30 1990 H 180.564 2.99538 6.01437 0
M  V30 1991 N 183.284 -1.43765 0.645699 0
M  V30 1992 C 184.214 -2.33471 -0.0370477 0
M  V30 1993 C 185.195 -1.49042 -0.819779 0
M  V30 1994 O 186.38 -1.77726 -0.782758 0
M  V30 1995 C 183.51 -3.32311 -1.0093 0
M  V30 1996 C 182.464 -4.2667 -0.337201 0
M  V30 1997 C 181.79 -5.1549 -1.42037 0
M  V30 1998 C 183.09 -5.16657 0.765706 0
M  V30 1999 H 184.784 -2.90809 0.712069 0
M  V30 2000 H 182.33 -1.39834 0.343876 0
M  V30 2001 H 184.283 -3.9396 -1.49578 0
M  V30 2002 H 183.007 -2.73213 -1.78948 0
M  V30 2003 H 181.666 -3.66374 0.128771 0
M  V30 2004 H 181.314 -4.52735 -2.1918 0
M  V30 2005 H 181.014 -5.79438 -0.975966 0
M  V30 2006 H 182.538 -5.80012 -1.90838 0
M  V30 2007 H 183.952 -5.72158 0.361702 0
M  V30 2008 H 182.349 -5.89286 1.13413 0
M  V30 2009 H 183.419 -4.56796 1.62683 0
M  V30 2010 N 184.763 -0.387143 -1.52771 0
M  V30 2011 C 185.726 0.436939 -2.24997 0
M  V30 2012 C 186.726 0.991991 -1.26555 0
M  V30 2013 O 187.916 0.874335 -1.50669 0
M  V30 2014 C 185.048 1.61281 -3.00335 0
M  V30 2015 H 186.241 -0.195365 -2.99263 0
M  V30 2016 H 183.794 -0.139218 -1.55679 0
M  V30 2017 H 184.529 2.2826 -2.30364 0
M  V30 2018 H 184.314 1.22154 -3.72587 0
M  V30 2019 H 185.804 2.19629 -3.5518 0
M  V30 2020 N 186.241 1.57166 -0.116904 0
M  V30 2021 C 187.487 1.95412 0.542405 0
M  V30 2022 C 187.82 1.00019 1.66463 0
M  V30 2023 O 187.095 0.0370346 1.94465 0
M  V30 2024 C 187.378 3.43615 1.07708 0
M  V30 2025 C 187.231 4.49781 -0.0415868 0
M  V30 2026 C 188.55 3.93616 1.96861 0
M  V30 2027 H 185.669 0.710543 0.195696 0
M  V30 2028 H 188.311 1.89027 -0.192038 0
M  V30 2029 H 186.461 3.49187 1.70296 0
M  V30 2030 H 188.133 4.56308 -0.676793 0
M  V30 2031 H 186.376 4.28033 -0.705019 0
M  V30 2032 H 187.047 5.50733 0.373717 0
M  V30 2033 H 189.523 3.90335 1.44146 0
M  V30 2034 H 188.399 4.97838 2.3119 0
M  V30 2035 H 188.66 3.34188 2.89432 0
M  V30 2036 N 187.719 -0.156864 1.56817 0
M  V30 2037 C 188.629 -1.2136 2.00771 0
M  V30 2038 C 189.645 -1.47598 0.921459 0
M  V30 2039 O 190.821 -1.59462 1.2302 0
M  V30 2040 C 187.886 -2.52943 2.37109 0
M  V30 2041 C 186.947 -2.34439 3.59634 0
M  V30 2042 C 186.18 -3.59748 3.94229 0
M  V30 2043 O 186.403 -4.65526 3.29609 0
M  V30 2044 O 185.337 -3.52998 4.8752 0
M  V30 2045 H 189.163 -0.870468 2.90958 0
M  V30 2046 H 186.748 -0.36484 1.44877 0
M  V30 2047 H 188.63 -3.30538 2.61386 0
M  V30 2048 H 187.305 -2.86806 1.5008 0
M  V30 2049 H 186.212 -1.54828 3.40557 0
M  V30 2050 H 187.545 -2.05496 4.4725 0
M  V30 2051 N 189.197 -1.51736 -0.425897 0
M  V30 2052 C 190.127 -1.76827 -1.52494 0
M  V30 2053 C 191.108 -0.618524 -1.58456 0
M  V30 2054 O 192.293 -0.862416 -1.74 0
M  V30 2055 C 189.423 -1.90374 -2.90474 0
M  V30 2056 C 188.377 -3.0588 -2.99369 0
M  V30 2057 C 187.703 -3.04625 -4.3944 0
M  V30 2058 C 189.003 -4.45644 -2.72394 0
M  V30 2059 H 190.697 -2.68855 -1.31748 0
M  V30 2060 H 188.243 -1.29372 -0.632362 0
M  V30 2061 H 190.196 -2.0651 -3.6733 0
M  V30 2062 H 188.92 -0.95004 -3.12477 0
M  V30 2063 H 187.579 -2.89467 -2.24954 0
M  V30 2064 H 187.227 -2.0701 -4.58428 0
M  V30 2065 H 186.927 -3.82195 -4.46319 0
M  V30 2066 H 188.451 -3.22869 -5.18255 0
M  V30 2067 H 189.865 -4.62348 -3.38979 0
M  V30 2068 H 188.262 -5.25006 -2.9067 0
M  V30 2069 H 189.332 -4.54893 -1.67929 0
M  V30 2070 N 190.675 0.682077 -1.42076 0
M  V30 2071 C 191.923 1.4393 -1.41876 0
M  V30 2072 C 192.244 1.94971 -0.0335599 0
M  V30 2073 O 191.514 1.72591 0.926773 0
M  V30 2074 H 190.094 0.534085 -0.522267 0
M  V30 2075 H 192.756 0.806427 -1.77434 0
M  V30 2076 H 191.852 2.29588 -2.11414 0
M  V30 2077 N 192.153 1.28127 0.917671 0
M  V30 2078 C 193.402 1.14432 1.66097 0
M  V30 2079 C 193.715 -0.307247 1.93172 0
M  V30 2080 O 194.921 -0.565259 2.65551 0
M  V30 2081 C 193.377 2.00015 2.99202 0
M  V30 2082 C 192.985 3.49889 2.79789 0
M  V30 2083 C 194.729 1.94996 3.77064 0
M  V30 2084 C 192.636 4.27636 4.08511 0
M  V30 2085 H 191.566 0.424662 0.62304 0
M  V30 2086 H 194.217 1.52628 1.01868 0
M  V30 2087 H 192.599 1.54672 3.64544 0
M  V30 2088 H 193.773 4.03162 2.23152 0
M  V30 2089 H 192.088 3.56392 2.15345 0
M  V30 2090 H 194.685 2.50354 4.72469 0
M  V30 2091 H 195.028 0.925819 4.05875 0
M  V30 2092 H 195.561 2.38287 3.18534 0
M  V30 2093 H 192.3 5.30615 3.84874 0
M  V30 2094 H 191.82 3.79137 4.64774 0
M  V30 2095 H 193.499 4.37346 4.76799 0
M  V30 2096 N 193.631 -1.12557 1.10312 0
M  V30 2097 C 195.047 -1.36036 0.834649 0
M  V30 2098 C 195.247 -1.93946 -0.546539 0
M  V30 2099 O 194.303 -2.16484 -1.29966 0
M  V30 2100 C 195.616 -2.30312 1.9333 0
M  V30 2101 C 197.164 -2.43906 1.9616 0
M  V30 2102 C 197.639 -3.41496 3.05195 0
M  V30 2103 N 199.13 -3.49053 3.04494 0
M  V30 2104 C 199.865 -4.24471 3.85502 0
M  V30 2105 N 199.361 -5.02966 4.76442 0
M  V30 2106 N 201.154 -4.19864 3.73725 0
M  V30 2107 H 193.305 -0.733246 1.99342 0
M  V30 2108 H 195.568 -0.385234 0.866198 0
M  V30 2109 H 195.274 -1.94933 2.92735 0
M  V30 2110 H 195.148 -3.30421 1.81939 0
M  V30 2111 H 197.535 -2.78567 0.973886 0
M  V30 2112 H 197.616 -1.4369 2.11629 0
M  V30 2113 H 197.26 -3.07565 4.04186 0
M  V30 2114 H 197.19 -4.41539 2.86968 0
M  V30 2115 H 199.681 -2.93053 2.38596 0
M  V30 2116 H 199.994 -5.57846 5.34815 0
M  V30 2117 H 198.339 -5.02167 4.80472 0
M  V30 2118 H 201.53 -3.57623 3.02032 0
M  V30 2119 H 201.703 -4.78386 4.37093 0
M  V30 2120 N 195.109 -0.891671 -1.2995 0
M  V30 2121 C 196.019 -0.367691 -2.31701 0
M  V30 2122 C 197.035 0.533486 -1.6562 0
M  V30 2123 O 198.211 0.424997 -1.96865 0
M  V30 2124 C 195.276 0.403406 -3.44345 0
M  V30 2125 C 194.337 -0.528328 -4.26037 0
M  V30 2126 C 193.57 0.206063 -5.33302 0
M  V30 2127 O 193.793 1.43119 -5.52153 0
M  V30 2128 O 192.727 -0.447281 -6.00236 0
M  V30 2129 H 196.553 -1.21163 -2.78484 0
M  V30 2130 H 194.138 -0.655725 -1.34241 0
M  V30 2131 H 196.02 0.839753 -4.12948 0
M  V30 2132 H 194.695 1.22354 -2.99685 0
M  V30 2133 H 193.602 -1.01362 -3.60106 0
M  V30 2134 H 194.935 -1.31465 -4.74318 0
M  V30 2135 N 196.587 1.43421 -0.653314 0
M  V30 2136 C 197.827 2.03689 -0.170346 0
M  V30 2137 C 198.191 1.50427 1.19314 0
M  V30 2138 O 199.392 2.0234 1.76952 0
M  V30 2139 C 197.663 3.56946 -0.180183 0
M  V30 2140 S 199.222 4.38171 0.234925 0
M  V30 2141 H 196.04 0.707345 -0.0719976 0
M  V30 2142 H 198.642 1.75486 -0.86167 0
M  V30 2143 H 197.346 3.93212 -1.17526 0
M  V30 2144 H 196.877 3.89791 0.531675 0
M  V30 2145 H 198.892 4.73808 1.47378 0
M  V30 2146 N 198.065 0.39524 1.52563 0
M  V30 2147 C 199.312 -0.185044 2.01653 0
M  V30 2148 C 199.64 -1.46317 1.28146 0
M  V30 2149 O 198.895 -1.9213 0.372074 0
M  V30 2150 C 199.194 -0.493444 3.53977 0
M  V30 2151 C 198.86 0.69384 4.4553 0
M  V30 2152 C 197.522 1.01954 4.70275 0
M  V30 2153 C 199.874 1.48785 4.99512 0
M  V30 2154 C 197.202 2.14069 5.46252 0
M  V30 2155 C 199.554 2.59965 5.76716 0
M  V30 2156 C 198.218 2.93037 5.99738 0
M  V30 2157 H 197.488 -0.0677123 0.7379 0
M  V30 2158 H 200.135 0.533807 1.8391 0
M  V30 2159 H 198.44 -1.29369 3.69825 0
M  V30 2160 H 200.137 -0.955163 3.89458 0
M  V30 2161 H 196.727 0.429987 4.26438 0
M  V30 2162 H 200.911 1.24946 4.80315 0
M  V30 2163 H 196.167 2.40056 5.62302 0
M  V30 2164 H 200.341 3.21887 6.17545 0
M  V30 2165 H 197.968 3.8003 6.58393 0
M  V30 2166 N 199.544 -1.57102 0.125237 0
M  V30 2167 C 200.494 -2.12202 -0.833936 0
M  V30 2168 C 201.478 -1.04433 -1.22403 0
M  V30 2169 O 202.67 -1.30655 -1.19408 0
M  V30 2170 C 199.799 -2.72994 -2.08157 0
M  V30 2171 C 198.885 -3.87852 -1.71556 0
M  V30 2172 N 199.276 -4.9464 -1.05662 0
M  V30 2173 C 197.574 -3.98153 -2.00973 0
M  V30 2174 C 198.275 -5.74953 -0.883376 0
M  V30 2175 N 197.251 -5.24985 -1.41036 0
M  V30 2176 H 201.053 -2.92141 -0.321035 0
M  V30 2177 H 198.567 -1.62217 -0.0770315 0
M  V30 2178 H 200.564 -3.10816 -2.77847 0
M  V30 2179 H 199.224 -1.9452 -2.59985 0
M  V30 2180 H 200.235 -5.12872 -0.719878 0
M  V30 2181 H 196.912 -3.30728 -2.54804 0
M  V30 2182 H 198.302 -6.70904 -0.365675 0
M  V30 2183 N 201.022 0.148545 -1.56898 0
M  V30 2184 C 201.972 1.1886 -1.94567 0
M  V30 2185 C 202.956 1.3863 -0.816735 0
M  V30 2186 O 204.148 1.40218 -1.08018 0
M  V30 2187 C 201.277 2.52262 -2.32849 0
M  V30 2188 C 200.363 2.36092 -3.52309 0
M  V30 2189 N 200.754 1.89674 -4.6889 0
M  V30 2190 C 199.052 2.66848 -3.57363 0
M  V30 2191 C 199.753 1.86511 -5.50989 0
M  V30 2192 N 198.729 2.29766 -4.92655 0
M  V30 2193 H 202.531 0.821793 -2.82177 0
M  V30 2194 H 200.045 0.356615 -1.58436 0
M  V30 2195 H 202.042 3.27447 -2.58039 0
M  V30 2196 H 200.702 2.89727 -1.46589 0
M  V30 2197 H 201.713 1.59663 -4.92674 0
M  V30 2198 H 198.39 3.08198 -2.81639 0
M  V30 2199 H 199.78 1.52128 -6.54452 0
M  V30 2200 N 202.5 1.5196 0.417844 0
M  V30 2201 C 203.725 1.69717 1.1921 0
M  V30 2202 C 204.15 0.402148 1.83751 0
M  V30 2203 O 203.508 -0.639593 1.69643 0
M  V30 2204 C 203.556 2.82794 2.2374 0
M  V30 2205 O 202.66 2.47756 3.29683 0
M  V30 2206 H 202.001 0.565263 0.348387 0
M  V30 2207 H 204.531 1.98621 0.490985 0
M  V30 2208 H 204.541 3.07452 2.68212 0
M  V30 2209 H 203.216 3.76756 1.76146 0
M  V30 2210 H 201.793 2.33739 2.90552 0
M  V30 2211 N 203.978 -0.674533 1.42435 0
M  V30 2212 C 205.394 -0.98769 1.25367 0
M  V30 2213 C 205.594 -2.00879 0.158044 0
M  V30 2214 O 204.65 -2.48075 -0.470633 0
M  V30 2215 C 205.963 -1.49224 2.6106 0
M  V30 2216 C 207.511 -1.61 2.68417 0
M  V30 2217 C 207.986 -2.14852 4.04478 0
M  V30 2218 N 209.477 -2.22185 4.06434 0
M  V30 2219 C 210.212 -2.64928 5.08528 0
M  V30 2220 N 209.708 -3.07121 6.21006 0
M  V30 2221 N 211.501 -2.64679 4.95885 0
M  V30 2222 H 203.652 0.00152503 2.124 0
M  V30 2223 H 205.915 -0.0618434 0.945981 0
M  V30 2224 H 205.621 -0.816453 3.42092 0
M  V30 2225 H 205.495 -2.47094 2.84999 0
M  V30 2226 H 207.882 -2.27686 1.87732 0
M  V30 2227 H 207.963 -0.616195 2.48267 0
M  V30 2228 H 207.607 -1.48775 4.85622 0
M  V30 2229 H 207.537 -3.15024 4.2198 0
M  V30 2230 H 210.028 -1.92435 3.25234 0
M  V30 2231 H 210.341 -3.38423 6.94759 0
M  V30 2232 H 208.686 -3.04978 6.24511 0
M  V30 2233 H 211.877 -2.31078 4.07088 0
M  V30 2234 H 212.05 -2.9767 5.75584 0
M  V30 2235 N 205.456 -1.28612 -0.910864 0
M  V30 2236 C 206.705 -1.15311 -1.65488 0
M  V30 2237 C 207.018 0.296999 -1.93332 0
M  V30 2238 O 208.224 0.551168 -2.65847 0
M  V30 2239 C 206.68 -2.01599 -2.98137 0
M  V30 2240 C 206.288 -3.51367 -2.7793 0
M  V30 2241 C 208.032 -1.96993 -3.76024 0
M  V30 2242 C 205.939 -4.29797 -4.06237 0
M  V30 2243 H 204.869 -0.42796 -0.620779 0
M  V30 2244 H 207.52 -1.53166 -1.01057 0
M  V30 2245 H 205.902 -1.56603 -3.63719 0
M  V30 2246 H 207.076 -4.0434 -2.21011 0
M  V30 2247 H 205.391 -3.57529 -2.13452 0
M  V30 2248 H 207.988 -2.52856 -4.71135 0
M  V30 2249 H 208.331 -0.94733 -4.05378 0
M  V30 2250 H 208.864 -2.39973 -3.17266 0
M  V30 2251 H 205.603 -5.32648 -3.82055 0
M  V30 2252 H 205.123 -3.81596 -4.62757 0
M  V30 2253 H 206.802 -4.39869 -4.74473 0
M  V30 2254 N 206.934 1.1197 -1.10907 0
M  V30 2255 C 208.183 1.82947 -0.849302 0
M  V30 2256 C 208.496 1.85275 0.627112 0
M  V30 2257 O 209.702 2.52296 1.00295 0
M  V30 2258 C 208.158 3.28529 -1.46959 0
M  V30 2259 C 207.766 3.34546 -2.97965 0
M  V30 2260 C 209.51 4.04443 -1.28942 0
M  V30 2261 C 207.417 4.74491 -3.53004 0
M  V30 2262 H 206.347 0.685477 -0.314065 0
M  V30 2263 H 208.998 1.2604 -1.33365 0
M  V30 2264 H 207.38 3.85333 -0.912917 0
M  V30 2265 H 208.554 2.87654 -3.59989 0
M  V30 2266 H 206.869 2.72108 -3.15192 0
M  V30 2267 H 209.466 5.07787 -1.67502 0
M  V30 2268 H 209.809 4.15656 -0.231456 0
M  V30 2269 H 210.342 3.5401 -1.81443 0
M  V30 2270 H 207.081 4.68474 -4.58489 0
M  V30 2271 H 206.601 5.21816 -2.9575 0
M  V30 2272 H 208.28 5.4344 -3.51115 0
M  V30 2273 N 208.412 0.89855 1.29475 0
M  V30 2274 C 209.637 0.538561 2.00285 0
M  V30 2275 C 210.062 -0.869135 1.66816 0
M  V30 2276 O 209.42 -1.57831 0.892145 0
M  V30 2277 C 209.468 0.736475 3.52999 0
M  V30 2278 O 208.572 -0.211537 4.11857 0
M  V30 2279 H 207.913 0.210563 0.62973 0
M  V30 2280 H 210.443 1.20982 1.64998 0
M  V30 2281 H 210.453 0.640685 4.02938 0
M  V30 2282 H 209.128 1.76276 3.76696 0
M  V30 2283 H 207.705 -0.0682991 3.72837 0
M  V30 2284 N 209.89 -1.43072 0.660911 0
M  V30 2285 C 211.13 -2.03596 0.181146 0
M  V30 2286 C 211.494 -1.51057 -1.18515 0
M  V30 2287 O 212.695 -2.03275 -1.75877 0
M  V30 2288 C 210.966 -3.56845 0.19911 0
M  V30 2289 S 212.525 -4.38289 -0.211684 0
M  V30 2290 H 209.343 -0.706954 0.0757479 0
M  V30 2291 H 211.945 -1.75027 0.870965 0
M  V30 2292 H 210.649 -3.92583 1.1961 0
M  V30 2293 H 210.18 -3.90067 -0.510996 0
M  V30 2294 H 212.195 -4.74583 -1.44863 0
M  V30 2295 N 211.368 -0.403325 -1.52352 0
M  V30 2296 C 212.331 0.413051 -2.25447 0
M  V30 2297 C 213.331 0.978513 -1.276 0
M  V30 2298 O 214.521 0.858305 -1.51587 0
M  V30 2299 C 211.653 1.58087 -3.02029 0
M  V30 2300 H 212.846 -0.227094 -2.99039 0
M  V30 2301 H 210.399 -0.155722 -1.55522 0
M  V30 2302 H 211.134 2.25804 -2.32772 0
M  V30 2303 H 210.919 1.18195 -3.73861 0
M  V30 2304 H 212.409 2.1585 -3.57489 0
M  V30 2305 N 212.846 1.57033 -0.133567 0
M  V30 2306 C 213.794 2.17348 0.828412 0
M  V30 2307 C 214.788 1.12671 1.26498 0
M  V30 2308 O 215.994 1.30947 1.23502 0
M  V30 2309 H 212.369 0.695775 0.285309 0
M  V30 2310 H 214.34 2.96935 0.295372 0
M  V30 2311 C 213.089 2.79893 2.06289 0
M  V30 2312 H 212.412 3.60147 1.73592 0
M  V30 2313 H 213.852 3.25615 2.71572 0
M  V30 2314 C 212.311 1.77713 2.86216 0
M  V30 2315 O 212.841 1.23937 3.82103 0
M  V30 2316 N 211.047 1.47321 2.50489 0
M  V30 2317 H 210.594 1.91243 1.7258 0
M  V30 2318 H 210.552 0.79199 3.04261 0
M  V30 2319 N 214.325 -0.140222 1.56975 0
M  V30 2320 C 215.565 -0.857823 1.85528 0
M  V30 2321 C 215.929 -1.78039 0.718768 0
M  V30 2322 O 217.13 -2.53795 0.885521 0
M  V30 2323 C 215.401 -1.60615 3.19277 0
M  V30 2324 S 216.96 -2.36824 3.69405 0
M  V30 2325 H 213.778 -0.286727 0.650622 0
M  V30 2326 H 216.38 -0.117408 1.95147 0
M  V30 2327 H 215.084 -0.919994 3.99955 0
M  V30 2328 H 214.615 -2.38735 3.12681 0
M  V30 2329 H 216.63 -3.62148 3.3921 0
M  V30 2330 N 215.803 -1.52179 -0.40978 0
M  V30 2331 C 216.766 -1.74853 -1.48186 0
M  V30 2332 C 217.766 -0.618417 -1.48433 0
M  V30 2333 O 218.956 -0.886286 -1.49969 0
M  V30 2334 C 216.088 -1.8303 -2.87598 0
M  V30 2335 H 217.281 -2.70559 -1.29374 0
M  V30 2336 H 214.834 -1.42586 -0.640233 0
M  V30 2337 H 215.569 -0.89236 -3.11781 0
M  V30 2338 H 215.354 -2.65187 -2.88822 0
M  V30 2339 H 216.844 -2.02316 -3.65319 0
M  V30 2340 N 217.281 0.66697 -1.42791 0
M  V30 2341 C 218.191 1.80962 -1.49299 0
M  V30 2342 C 219.207 1.69775 -0.381108 0
M  V30 2343 O 220.383 1.91188 -0.633188 0
M  V30 2344 C 217.448 3.17156 -1.40045 0
M  V30 2345 C 216.509 3.40242 -2.6179 0
M  V30 2346 C 215.742 4.69939 -2.52969 0
M  V30 2347 O 215.965 5.48372 -1.56985 0
M  V30 2348 O 214.899 4.94441 -3.43237 0
M  V30 2349 H 218.725 1.78427 -2.45759 0
M  V30 2350 H 216.31 0.823713 -1.24641 0
M  V30 2351 H 218.192 3.98413 -1.37276 0
M  V30 2352 H 216.867 3.20312 -0.467138 0
M  V30 2353 H 215.774 2.58802 -2.70134 0
M  V30 2354 H 217.107 3.41923 -3.54047 0
M  V30 2355 N 218.759 1.29093 0.90403 0
M  V30 2356 C 219.707 1.13727 2.02901 0
M  V30 2357 C 220.701 0.0539853 1.69314 0
M  V30 2358 O 221.907 0.213469 1.7873 0
M  V30 2359 H 218.282 0.35117 0.664969 0
M  V30 2360 H 220.253 2.08982 2.13001 0
M  V30 2361 C 219.002 0.826066 3.37745 0
M  V30 2362 H 218.325 1.65164 3.64089 0
M  V30 2363 H 219.765 0.758559 4.17159 0
M  V30 2364 C 218.224 -0.470541 3.33598 0
M  V30 2365 O 218.754 -1.49792 3.72727 0
M  V30 2366 N 216.96 -0.474812 2.86695 0
M  V30 2367 H 216.507 0.361692 2.55048 0
M  V30 2368 H 216.465 -1.34236 2.84303 0
M  V30 2369 N 220.237 -1.11381 1.11499 0
M  V30 2370 C 221.147 -2.21019 0.786628 0
M  V30 2371 C 222.163 -1.72597 -0.220507 0
M  V30 2372 O 223.339 -2.01321 -0.0565251 0
M  V30 2373 C 220.404 -3.459 0.235333 0
M  V30 2374 C 219.465 -4.09107 1.30115 0
M  V30 2375 C 218.698 -5.28027 0.776068 0
M  V30 2376 O 218.921 -5.6904 -0.393661 0
M  V30 2377 O 217.855 -5.81835 1.54114 0
M  V30 2378 H 221.681 -2.51521 1.70209 0
M  V30 2379 H 219.266 -1.19928 0.890928 0
M  V30 2380 H 221.148 -4.21346 -0.067715 0
M  V30 2381 H 219.823 -3.17049 -0.652828 0
M  V30 2382 H 218.73 -3.35391 1.65722 0
M  V30 2383 H 220.063 -4.42139 2.16273 0
M  V30 2384 N 221.715 -0.905404 -1.28997 0
M  V30 2385 C 222.625 -0.392246 -2.31298 0
M  V30 2386 C 223.641 0.515889 -1.66176 0
M  V30 2387 O 224.817 0.404093 -1.97304 0
M  V30 2388 C 221.882 0.36686 -3.44754 0
M  V30 2389 C 220.943 -0.573485 -4.25452 0
M  V30 2390 C 220.176 0.149488 -5.33491 0
M  V30 2391 O 220.399 1.37255 -5.5364 0
M  V30 2392 O 219.333 -0.510919 -5.99728 0
M  V30 2393 H 223.159 -1.2411 -2.77183 0
M  V30 2394 H 220.744 -0.669926 -1.33538 0
M  V30 2395 H 222.626 0.795907 -4.13816 0
M  V30 2396 H 221.301 1.19169 -3.00966 0
M  V30 2397 H 220.208 -1.05176 -3.59011 0
M  V30 2398 H 221.541 -1.36489 -4.72897 0
M  V30 2399 N 223.193 1.4272 -0.668489 0
M  V30 2400 C 224.441 2.01226 -0.187769 0
M  V30 2401 C 224.762 1.53092 1.2078 0
M  V30 2402 O 224.032 0.74993 1.80977 0
M  V30 2403 H 222.612 0.744041 -0.0664272 0
M  V30 2404 H 225.274 1.74723 -0.863583 0
M  V30 2405 H 224.37 3.11556 -0.184166 0
M  V30 2406 N 224.671 0.411399 1.52136 0
M  V30 2407 C 225.911 -0.163143 2.03748 0
M  V30 2408 C 226.275 -1.42187 1.29022 0
M  V30 2409 O 227.476 -2.075 1.70872 0
M  V30 2410 C 225.747 -0.402651 3.55125 0
M  V30 2411 S 227.306 -0.944315 4.28519 0
M  V30 2412 H 224.124 -0.0439833 0.709638 0
M  V30 2413 H 226.726 0.56484 1.87163 0
M  V30 2414 H 225.43 0.520212 4.0709 0
M  V30 2415 H 224.961 -1.15844 3.75957 0
M  V30 2416 H 226.976 -2.22463 4.43536 0
M  V30 2417 N 226.149 -1.5696 0.141893 0
M  V30 2418 C 227.377 -2.00322 -0.517579 0
M  V30 2419 C 227.792 -1.02193 -1.58752 0
M  V30 2420 O 227.149 -0.0181619 -1.82491 0
M  V30 2421 C 227.2 -3.43618 -1.12289 0
M  V30 2422 O 226.921 -4.37995 -0.0956929 0
M  V30 2423 C 228.422 -4.02231 -1.86347 0
M  V30 2424 H 225.642 -0.657243 -0.135177 0
M  V30 2425 H 228.186 -2.03146 0.234973 0
M  V30 2426 H 226.341 -3.41662 -1.82609 0
M  V30 2427 H 226.755 -5.21729 -0.538469 0
M  V30 2428 H 228.229 -5.04509 -2.23997 0
M  V30 2429 H 228.706 -3.42655 -2.74744 0
M  V30 2430 H 229.312 -4.07802 -1.20737 0
M  V30 2431 N 227.627 0.131896 -1.57047 0
M  V30 2432 C 229.038 0.690407 -1.73465 0
M  V30 2433 C 229.389 1.8094 -0.758629 0
M  V30 2434 O 228.514 2.16282 0.0713813 0
M  V30 2435 C 229.109 1.25916 -3.14532 0
M  V30 2436 C 227.668 1.76409 -3.32501 0
M  V30 2437 C 226.815 0.658579 -2.69366 0
M  V30 2438 H 229.766 -0.0939144 -1.58422 0
M  V30 2439 H 229.787 2.12892 -3.15369 0
M  V30 2440 H 229.299 0.444515 -3.85546 0
M  V30 2441 H 227.4 2.60391 -2.66509 0
M  V30 2442 H 227.513 1.88241 -4.4057 0
M  V30 2443 H 225.877 1.08899 -2.30246 0
M  V30 2444 H 226.66 -0.14487 -3.42994 0
M  V30 2445 N 229.106 1.52395 0.401703 0
M  V30 2446 C 230.036 1.79231 1.49661 0
M  V30 2447 C 231.017 0.643654 1.57452 0
M  V30 2448 O 232.202 0.889989 1.72606 0
M  V30 2449 C 229.332 1.94971 2.87409 0
M  V30 2450 C 228.286 3.10604 2.94465 0
M  V30 2451 C 227.612 3.11577 4.34538 0
M  V30 2452 C 228.912 4.49921 2.6527 0
M  V30 2453 H 230.606 2.70917 1.27454 0
M  V30 2454 H 228.152 1.30362 0.6117 0
M  V30 2455 H 230.105 2.12328 3.63999 0
M  V30 2456 H 228.829 0.999632 3.10926 0
M  V30 2457 H 227.488 2.93009 2.20321 0
M  V30 2458 H 227.136 2.14277 4.55076 0
M  V30 2459 H 226.836 3.89247 4.40183 0
M  V30 2460 H 228.36 3.31073 5.13053 0
M  V30 2461 H 229.774 4.67683 3.31581 0
M  V30 2462 H 228.171 5.29564 2.82281 0
M  V30 2463 H 229.241 4.57507 1.60671 0
M  V30 2464 N 230.584 -0.659388 1.43143 0
M  V30 2465 C 231.534 -1.7655 1.44271 0
M  V30 2466 C 232.518 -1.57847 0.311961 0
M  V30 2467 O 233.71 -1.68064 0.555306 0
M  V30 2468 C 230.839 -3.15104 1.36251 0
M  V30 2469 C 229.925 -3.39377 2.54331 0
M  V30 2470 N 230.316 -3.34153 3.79704 0
M  V30 2471 C 228.614 -3.70072 2.48922 0
M  V30 2472 C 229.315 -3.58337 4.58225 0
M  V30 2473 N 228.291 -3.79851 3.88863 0
M  V30 2474 H 232.093 -1.70928 2.39083 0
M  V30 2475 H 229.607 -0.860823 1.37708 0
M  V30 2476 H 231.604 -3.94389 1.35141 0
M  V30 2477 H 230.264 -3.21913 0.424531 0
M  V30 2478 H 231.275 -3.13704 4.1208 0
M  V30 2479 H 227.952 -3.84034 1.63781 0
M  V30 2480 H 229.342 -3.60129 5.67236 0
M  V30 2481 N 232.062 -1.29571 -0.897171 0
M  V30 2482 C 232.992 -1.17473 -2.01798 0
M  V30 2483 C 233.973 -0.068323 -1.69963 0
M  V30 2484 O 235.158 -0.248239 -1.92607 0
M  V30 2485 C 232.288 -0.853099 -3.36659 0
M  V30 2486 C 231.242 -1.9161 -3.82713 0
M  V30 2487 C 230.568 -1.44773 -5.14728 0
M  V30 2488 C 231.868 -3.32535 -4.02763 0
M  V30 2489 H 233.562 -2.11237 -2.12177 0
M  V30 2490 H 231.108 -1.01699 -1.01948 0
M  V30 2491 H 233.061 -0.755165 -4.14578 0
M  V30 2492 H 231.785 0.120236 -3.26379 0
M  V30 2493 H 230.444 -2.00346 -3.07013 0
M  V30 2494 H 230.092 -0.462995 -5.00865 0
M  V30 2495 H 229.792 -2.15865 -5.46513 0
M  V30 2496 H 231.316 -1.36334 -5.95185 0
M  V30 2497 H 232.73 -3.26626 -4.71156 0
M  V30 2498 H 231.127 -4.01607 -4.45905 0
M  V30 2499 H 232.197 -3.75326 -3.07016 0
M  V30 2500 N 233.54 1.10788 -1.12088 0
M  V30 2501 C 234.503 2.15207 -0.788577 0
M  V30 2502 C 235.503 1.59609 0.195317 0
M  V30 2503 O 236.693 1.74174 -0.0300193 0
M  V30 2504 C 233.825 3.4047 -0.171174 0
M  V30 2505 H 235.018 2.46116 -1.71368 0
M  V30 2506 H 232.571 1.26089 -0.923652 0
M  V30 2507 H 233.306 3.15176 0.763832 0
M  V30 2508 H 233.091 3.82109 -0.879514 0
M  V30 2509 H 234.581 4.17576 0.04496 0
M  V30 2510 N 235.018 0.912232 1.28515 0
M  V30 2511 C 236.258 0.551677 1.96814 0
M  V30 2512 C 236.622 -0.887825 1.7024 0
M  V30 2513 O 237.823 -1.35588 2.32098 0
M  V30 2514 C 236.094 0.850555 3.47132 0
M  V30 2515 S 237.653 0.59619 4.34731 0
M  V30 2516 H 234.471 0.204191 0.681049 0
M  V30 2517 H 237.073 1.17736 1.56072 0
M  V30 2518 H 235.777 1.8962 3.63968 0
M  V30 2519 H 235.308 0.213471 3.9282 0
M  V30 2520 H 237.323 -0.553154 4.93107 0
M  V30 2521 N 236.496 -1.42363 0.676048 0
M  V30 2522 C 237.912 -1.55811 0.345718 0
M  V30 2523 C 238.112 -1.65544 -1.14879 0
M  V30 2524 O 237.168 -1.62306 -1.93424 0
M  V30 2525 C 238.481 -2.80746 1.07713 0
M  V30 2526 C 240.029 -2.9452 1.05958 0
M  V30 2527 C 240.504 -4.22318 1.77233 0
M  V30 2528 N 241.995 -4.29233 1.74108 0
M  V30 2529 C 242.73 -5.26935 2.26113 0
M  V30 2530 N 242.226 -6.30783 2.86505 0
M  V30 2531 N 244.019 -5.18741 2.1648 0
M  V30 2532 H 236.17 -1.34289 1.6456 0
M  V30 2533 H 238.433 -0.646506 0.69335 0
M  V30 2534 H 238.139 -2.79696 2.13221 0
M  V30 2535 H 238.013 -3.71676 0.64316 0
M  V30 2536 H 240.4 -2.95097 0.0128255 0
M  V30 2537 H 240.481 -2.04817 1.53244 0
M  V30 2538 H 240.125 -4.22502 2.81877 0
M  V30 2539 H 240.055 -5.10958 1.27396 0
M  V30 2540 H 242.546 -3.54814 1.30059 0
M  V30 2541 H 242.859 -7.01691 3.23805 0
M  V30 2542 H 241.204 -6.31341 2.90575 0
M  V30 2543 H 244.395 -4.36533 1.68987 0
M  V30 2544 H 244.568 -5.94721 2.57316 0
M  V30 2545 N 237.974 -0.419461 -1.51915 0
M  V30 2546 C 238.921 0.400927 -2.27291 0
M  V30 2547 C 239.891 1.03224 -1.30131 0
M  V30 2548 O 241.076 1.05455 -1.59009 0
M  V30 2549 C 238.216 1.50603 -3.10504 0
M  V30 2550 C 237.329 0.89462 -4.22635 0
M  V30 2551 C 236.464 1.97328 -4.93189 0
M  V30 2552 C 235.503 1.33935 -5.97267 0
M  V30 2553 N 234.64 2.3586 -6.61298 0
M  V30 2554 H 239.48 -0.248251 -2.96964 0
M  V30 2555 H 237.017 -0.134266 -1.46486 0
M  V30 2556 H 238.975 2.15783 -3.57062 0
M  V30 2557 H 237.605 2.12509 -2.42981 0
M  V30 2558 H 236.657 0.131583 -3.80172 0
M  V30 2559 H 237.969 0.391641 -4.9726 0
M  V30 2560 H 237.123 2.70211 -5.43204 0
M  V30 2561 H 235.862 2.50994 -4.18155 0
M  V30 2562 H 234.867 0.595896 -5.46561 0
M  V30 2563 H 236.092 0.810252 -6.74249 0
M  V30 2564 H 234.038 2.88639 -5.89087 0
M  V30 2565 H 233.955 1.90403 -7.3163 0
M  V30 2566 H 235.223 3.08282 -7.15949 0
M  V30 2567 N 239.452 1.56882 -0.150215 0
M  V30 2568 C 240.7 1.9584 0.499105 0
M  V30 2569 C 241.021 1.03623 1.65188 0
M  V30 2570 O 240.291 0.0984084 1.95653 0
M  V30 2571 H 238.871 0.723119 0.187373 0
M  V30 2572 H 241.533 1.9358 -0.226466 0
M  V30 2573 H 240.629 2.99638 0.873122 0
M  V30 2574 N 240.93 -0.123565 1.57115 0
M  V30 2575 C 242.207 -0.862196 1.75572 0
M  V30 2576 C 242.587 -1.98279 0.724475 0
M  V30 2577 O 241.935 -2.27102 -0.252407 0
M  V30 2578 C 242.145 -1.38309 3.20424 0
M  V30 2579 C 243.493 -1.83724 3.82793 0
M  V30 2580 O 244.517 -1.47999 3.23998 0
M  V30 2581 O 243.376 -2.49685 4.86127 0
M  V30 2582 H 240.47 -0.409113 0.718718 0
M  V30 2583 H 243.016 -0.107661 1.69358 0
M  V30 2584 H 241.788 -0.578889 3.86994 0
M  V30 2585 H 241.411 -2.20046 3.31158 0
M  V30 2586 N 242.408 -1.52605 -0.393616 0
M  V30 2587 C 243.656 -1.67093 -1.13685 0
M  V30 2588 C 243.977 -0.411011 -1.90619 0
M  V30 2589 O 243.247 0.574491 -1.87287 0
M  V30 2590 H 241.827 -0.615923 -0.422668 0
M  V30 2591 H 244.489 -1.89704 -0.447039 0
M  V30 2592 H 243.585 -2.51922 -1.84232 0
M  V30 2593 N 243.887 0.651787 -1.4349 0
M  V30 2594 C 244.797 1.79368 -1.5121 0
M  V30 2595 C 245.813 1.69361 -0.399093 0
M  V30 2596 O 246.989 1.90505 -0.653431 0
M  V30 2597 C 244.054 3.15653 -1.43401 0
M  V30 2598 C 243.115 3.37446 -2.65384 0
M  V30 2599 C 242.348 4.67229 -2.57939 0
M  V30 2600 O 242.571 5.46676 -1.62792 0
M  V30 2601 O 241.505 4.90773 -3.48462 0
M  V30 2602 H 245.331 1.7581 -2.47638 0
M  V30 2603 H 242.916 0.810447 -1.25507 0
M  V30 2604 H 244.798 3.96935 -1.41494 0
M  V30 2605 H 243.473 3.19798 -0.501085 0
M  V30 2606 H 242.38 2.55923 -2.72863 0
M  V30 2607 H 243.713 3.38148 -3.57654 0
M  V30 2608 N 245.365 1.30045 0.890287 0
M  V30 2609 C 246.614 1.17929 1.63633 0
M  V30 2610 C 246.927 -0.266204 1.9378 0
M  V30 2611 O 248.133 -0.508804 2.6669 0
M  V30 2612 C 246.589 2.06317 2.94892 0
M  V30 2613 C 246.197 3.55745 2.72305 0
M  V30 2614 C 247.941 2.0295 3.72843 0
M  V30 2615 C 245.848 4.36205 3.99348 0
M  V30 2616 H 244.778 0.437782 0.613892 0
M  V30 2617 H 247.429 1.54754 0.986075 0
M  V30 2618 H 245.811 1.6237 3.61182 0
M  V30 2619 H 246.985 4.07805 2.1455 0
M  V30 2620 H 245.3 3.6088 2.07737 0
M  V30 2621 H 247.897 2.60319 4.67053 0
M  V30 2622 H 248.24 1.0117 4.0382 0
M  V30 2623 H 248.773 2.4499 3.13408 0
M  V30 2624 H 245.512 5.38659 3.73533 0
M  V30 2625 H 245.032 3.8891 4.56628 0
M  V30 2626 H 246.711 4.47362 4.67415 0
M  V30 2627 N 246.843 -1.10192 1.12674 0
M  V30 2628 C 247.773 -2.18652 0.819362 0
M  V30 2629 C 248.754 -1.68698 -0.217915 0
M  V30 2630 O 249.939 -1.94041 -0.0785581 0
M  V30 2631 C 247.069 -3.46202 0.27594 0
M  V30 2632 C 246.023 -4.09444 1.24656 0
M  V30 2633 C 245.349 -5.31725 0.563258 0
M  V30 2634 C 246.649 -4.52863 2.60217 0
M  V30 2635 H 248.343 -2.44622 1.72628 0
M  V30 2636 H 245.889 -1.17571 0.831451 0
M  V30 2637 H 247.842 -4.21372 0.0486149 0
M  V30 2638 H 246.566 -3.1973 -0.666331 0
M  V30 2639 H 245.225 -3.36284 1.45974 0
M  V30 2640 H 244.873 -5.0153 -0.384235 0
M  V30 2641 H 244.573 -5.74991 1.21075 0
M  V30 2642 H 246.097 -6.09624 0.34503 0
M  V30 2643 H 247.511 -5.19294 2.42913 0
M  V30 2644 H 245.908 -5.06986 3.21068 0
M  V30 2645 H 246.978 -3.65656 3.18471 0
M  V30 2646 N 248.321 -0.919034 -1.28029 0
M  V30 2647 C 249.567 -0.555757 -1.95036 0
M  V30 2648 C 249.9 0.899198 -1.72128 0
M  V30 2649 O 249.175 1.64023 -1.04531 0
M  V30 2650 C 249.458 -0.872024 -3.49382 0
M  V30 2651 C 249.311 -2.3801 -3.81669 0
M  V30 2652 C 250.63 -0.37185 -4.38526 0
M  V30 2653 H 247.749 -0.203386 -0.708381 0
M  V30 2654 H 250.391 -1.14924 -1.51303 0
M  V30 2655 H 248.541 -0.366946 -3.86763 0
M  V30 2656 H 250.213 -2.9562 -3.54128 0
M  V30 2657 H 248.456 -2.83289 -3.28526 0
M  V30 2658 H 249.127 -2.55192 -4.8947 0
M  V30 2659 H 251.603 -0.804602 -4.08247 0
M  V30 2660 H 250.479 -0.622173 -5.45362 0
M  V30 2661 H 250.74 0.727934 -4.36066 0
M  V30 2662 N 249.799 1.42003 -0.683588 0
M  V30 2663 C 250.709 2.34597 -0.0109075 0
M  V30 2664 C 251.725 1.55576 0.779245 0
M  V30 2665 O 252.901 1.88107 0.719555 0
M  V30 2666 C 249.966 3.34199 0.922588 0
M  V30 2667 C 249.027 4.29115 0.125984 0
M  V30 2668 C 248.26 5.23959 1.01502 0
M  V30 2669 O 248.483 5.23952 2.25456 0
M  V30 2670 O 247.417 6.00053 0.47111 0
M  V30 2671 H 251.243 2.93675 -0.773853 0
M  V30 2672 H 248.828 1.42654 -0.443861 0
M  V30 2673 H 250.71 3.95365 1.45823 0
M  V30 2674 H 249.385 2.77582 1.66523 0
M  V30 2675 H 248.292 3.71335 -0.453969 0
M  V30 2676 H 249.625 4.88798 -0.577736 0
M  V30 2677 N 251.277 0.427512 1.51691 0
M  V30 2678 C 252.207 -0.3796 2.30394 0
M  V30 2679 C 253.188 -1.02982 1.35384 0
M  V30 2680 O 254.373 -1.03534 1.643 0
M  V30 2681 C 251.503 -1.48649 3.1388 0
M  V30 2682 C 250.457 -0.960294 4.17088 0
M  V30 2683 C 249.783 -2.16219 4.89033 0
M  V30 2684 C 251.083 -0.00153679 5.223 0
M  V30 2685 H 252.777 0.277164 2.98114 0
M  V30 2686 H 250.323 0.134739 1.43368 0
M  V30 2687 H 252.276 -2.05826 3.67714 0
M  V30 2688 H 251 -2.1714 2.43962 0
M  V30 2689 H 249.659 -0.410806 3.64291 0
M  V30 2690 H 249.307 -2.83307 4.15628 0
M  V30 2691 H 249.007 -1.81654 5.58816 0
M  V30 2692 H 250.531 -2.73968 5.45687 0
M  V30 2693 H 251.945 -0.482687 5.71264 0
M  V30 2694 H 250.342 0.256199 5.99553 0
M  V30 2695 H 251.412 0.938174 4.75738 0
M  V30 2696 N 252.755 -1.56801 0.158532 0
M  V30 2697 C 254.001 -1.96781 -0.490405 0
M  V30 2698 C 254.334 -1.04397 -1.63753 0
M  V30 2699 O 253.609 -0.0885805 -1.94298 0
M  V30 2700 C 253.892 -3.4635 -0.985594 0
M  V30 2701 C 253.745 -4.49512 0.160824 0
M  V30 2702 C 255.064 -3.98697 -1.86355 0
M  V30 2703 H 252.183 -0.715482 -0.176788 0
M  V30 2704 H 254.825 -1.88451 0.242088 0
M  V30 2705 H 252.975 -3.53579 -1.60978 0
M  V30 2706 H 254.647 -4.54353 0.797537 0
M  V30 2707 H 252.89 -4.26013 0.818256 0
M  V30 2708 H 253.561 -5.51531 -0.227569 0
M  V30 2709 H 256.037 -3.94019 -1.33746 0
M  V30 2710 H 254.913 -5.03792 -2.17909 0
M  V30 2711 H 255.174 -3.41744 -2.8047 0
M  V30 2712 N 254.233 0.115231 -1.57178 0
M  V30 2713 C 255.165 1.16694 -1.97269 0
M  V30 2714 C 256.178 1.37445 -0.872502 0
M  V30 2715 O 257.367 1.36454 -1.15077 0
M  V30 2716 C 254.467 2.52627 -2.25905 0
M  V30 2717 C 253.64 2.52427 -3.57211 0
M  V30 2718 C 252.699 3.70134 -3.74016 0
M  V30 2719 O 251.725 3.53546 -4.46087 0
M  V30 2720 N 252.927 4.88844 -3.13068 0
M  V30 2721 H 255.692 0.82588 -2.88096 0
M  V30 2722 H 253.253 0.304461 -1.59011 0
M  V30 2723 H 255.245 3.29937 -2.34359 0
M  V30 2724 H 253.815 2.789 -1.41186 0
M  V30 2725 H 253.035 1.60805 -3.5991 0
M  V30 2726 H 254.323 2.49353 -4.43509 0
M  V30 2727 H 253.721 5.05225 -2.54489 0
M  V30 2728 H 252.278 5.63817 -3.27037 0
M  V30 2729 N 255.711 1.52812 0.385517 0
M  V30 2730 C 256.941 1.71658 1.14966 0
M  V30 2731 C 257.349 0.436253 1.84102 0
M  V30 2732 O 256.692 -0.599313 1.73649 0
M  V30 2733 C 256.754 2.81309 2.23843 0
M  V30 2734 C 256.418 4.22313 1.74644 0
M  V30 2735 C 257.415 5.05352 1.22129 0
M  V30 2736 C 255.1 4.68648 1.80761 0
M  V30 2737 C 257.094 6.32807 0.763838 0
M  V30 2738 C 254.781 5.96086 1.34627 0
M  V30 2739 C 255.779 6.77996 0.825264 0
M  V30 2740 O 255.467 8.03045 0.370669 0
M  V30 2741 H 255.199 0.578022 0.350523 0
M  V30 2742 H 257.753 2.00263 0.456509 0
M  V30 2743 H 255.983 2.48133 2.96592 0
M  V30 2744 H 257.672 2.88524 2.85497 0
M  V30 2745 H 258.438 4.70736 1.16758 0
M  V30 2746 H 254.317 4.04979 2.20256 0
M  V30 2747 H 257.861 6.96689 0.356494 0
M  V30 2748 H 253.758 6.30205 1.39686 0
M  V30 2749 H 254.526 8.17021 0.491829 0
M  V30 2750 N 257.189 -0.644168 1.43834 0
M  V30 2751 C 258.429 -1.41565 1.47441 0
M  V30 2752 C 258.793 -1.91743 0.0992723 0
M  V30 2753 O 259.994 -2.68798 0.0100192 0
M  V30 2754 C 258.265 -2.55902 2.49498 0
M  V30 2755 S 259.824 -3.44287 2.72051 0
M  V30 2756 H 256.642 -0.483118 0.521649 0
M  V30 2757 H 259.244 -0.747008 1.80666 0
M  V30 2758 H 257.948 -2.17327 3.48134 0
M  V30 2759 H 257.479 -3.27607 2.17801 0
M  V30 2760 H 259.494 -4.52927 2.0266 0
M  V30 2761 N 258.668 -1.30515 -0.883378 0
M  V30 2762 C 259.618 -1.13641 -1.9766 0
M  V30 2763 C 260.602 -0.0511314 -1.60819 0
M  V30 2764 O 261.794 -0.274623 -1.74857 0
M  V30 2765 C 258.923 -0.831976 -3.33066 0
M  V30 2766 C 258.009 -1.95759 -3.76217 0
M  V30 2767 N 258.4 -3.20313 -3.9145 0
M  V30 2768 C 256.698 -1.85431 -4.05625 0
M  V30 2769 C 257.399 -3.93856 -4.2808 0
M  V30 2770 N 256.375 -3.21919 -4.38029 0
M  V30 2771 H 260.177 -2.08106 -2.07531 0
M  V30 2772 H 257.691 -1.21877 -1.0733 0
M  V30 2773 H 259.688 -0.692102 -4.11115 0
M  V30 2774 H 258.348 0.104588 -3.24532 0
M  V30 2775 H 259.359 -3.55583 -3.76538 0
M  V30 2776 H 256.036 -0.991531 -4.05555 0
M  V30 2777 H 257.426 -5.01125 -4.47575 0
M  V30 2778 N 260.146 1.09593 -1.13257 0
M  V30 2779 C 261.374 1.855 -0.916378 0
M  V30 2780 C 261.789 1.81069 0.534738 0
M  V30 2781 O 261.146 1.20562 1.37007 0
M  V30 2782 C 261.197 3.33546 -1.39388 0
M  V30 2783 O 260.918 3.37927 -2.78813 0
M  V30 2784 C 262.419 4.26299 -1.21588 0
M  V30 2785 H 259.639 0.585991 -0.326887 0
M  V30 2786 H 262.183 1.38488 -1.5047 0
M  V30 2787 H 260.338 3.77992 -0.848597 0
M  V30 2788 H 260.752 4.30254 -2.9997 0
M  V30 2789 H 262.226 5.28341 -1.59876 0
M  V30 2790 H 262.703 4.38918 -0.157376 0
M  V30 2791 H 263.309 3.87668 -1.7491 0
M  V30 2792 N 261.624 0.925811 1.2754 0
M  V30 2793 C 262.556 0.380753 2.26015 0
M  V30 2794 C 263.569 -0.487485 1.5533 0
M  V30 2795 O 264.758 -0.300413 1.75954 0
M  V30 2796 C 261.858 -0.473259 3.35579 0
M  V30 2797 C 261.031 0.375249 4.35787 0
M  V30 2798 C 260.09 -0.415809 5.24555 0
M  V30 2799 O 259.116 0.175834 5.68928 0
M  V30 2800 N 260.318 -1.71607 5.54555 0
M  V30 2801 H 263.083 1.22725 2.73421 0
M  V30 2802 H 260.644 0.793037 1.41147 0
M  V30 2803 H 262.636 -1.00949 3.91907 0
M  V30 2804 H 261.206 -1.2205 2.87789 0
M  V30 2805 H 260.426 1.09279 3.7875 0
M  V30 2806 H 261.714 0.955399 4.99749 0
M  V30 2807 H 261.112 -2.2191 5.20358 0
M  V30 2808 H 259.669 -2.19887 6.1359 0
M  V30 2809 N 263.102 -1.41638 0.69111 0
M  V30 2810 C 264.035 -2.28183 -0.0274913 0
M  V30 2811 C 265.013 -1.41984 -0.792424 0
M  V30 2812 O 266.197 -1.71415 -0.784169 0
M  V30 2813 C 263.324 -3.22135 -1.04628 0
M  V30 2814 C 262.37 -4.24848 -0.375037 0
M  V30 2815 S 263.203 -5.28231 0.879321 0
M  V30 2816 C 264.359 -6.25748 -0.137983 0
M  V30 2817 H 264.592 -2.88782 0.706553 0
M  V30 2818 H 262.125 -1.46709 0.481222 0
M  V30 2819 H 264.083 -3.76797 -1.62894 0
M  V30 2820 H 262.744 -2.6064 -1.75287 0
M  V30 2821 H 261.937 -4.90837 -1.14433 0
M  V30 2822 H 261.539 -3.73758 0.134434 0
M  V30 2823 H 263.831 -6.70188 -0.992659 0
M  V30 2824 H 264.774 -7.06417 0.487867 0
M  V30 2825 H 265.182 -5.62363 -0.490762 0
M  V30 2826 N 264.58 -0.43555 -1.51462 0
M  V30 2827 C 265.857 0.191364 -1.94662 0
M  V30 2828 C 266.237 1.60254 -1.37411 0
M  V30 2829 O 265.585 2.2152 -0.560458 0
M  V30 2830 C 265.795 0.17091 -3.48581 0
M  V30 2831 C 267.143 0.377357 -4.2292 0
M  V30 2832 O 268.167 0.249104 -3.55328 0
M  V30 2833 O 267.026 0.63247 -5.42828 0
M  V30 2834 H 264.12 0.130932 -0.816569 0
M  V30 2835 H 266.666 -0.4934 -1.62369 0
M  V30 2836 H 265.438 -0.815738 -3.82703 0
M  V30 2837 H 265.061 0.898659 -3.87311 0
M  V30 2838 N 266.058 1.56714 -0.166846 0
M  V30 2839 C 267.304 1.97039 0.479962 0
M  V30 2840 C 267.637 1.05264 1.63197 0
M  V30 2841 O 266.912 0.0988833 1.94248 0
M  V30 2842 C 267.195 3.46867 0.967212 0
M  V30 2843 C 267.048 4.49421 -0.18466 0
M  V30 2844 C 268.367 3.9968 1.84238 0
M  V30 2845 H 265.486 0.71641 0.172992 0
M  V30 2846 H 268.128 1.8832 -0.252079 0
M  V30 2847 H 266.278 3.54428 1.59101 0
M  V30 2848 H 267.95 4.53924 -0.821621 0
M  V30 2849 H 266.193 4.25573 -0.840837 0
M  V30 2850 H 266.864 5.51644 0.198317 0
M  V30 2851 H 269.34 3.94723 1.31655 0
M  V30 2852 H 268.216 5.04941 2.15234 0
M  V30 2853 H 268.477 3.43226 2.78654 0
M  V30 2854 N 267.536 -0.106894 1.57237 0
M  V30 2855 C 268.764 -0.826389 1.8968 0
M  V30 2856 C 269.179 -1.72856 0.759353 0
M  V30 2857 O 268.536 -1.80503 -0.269263 0
M  V30 2858 C 268.587 -1.64967 3.21665 0
M  V30 2859 O 268.308 -0.783804 4.31031 0
M  V30 2860 C 269.809 -2.47326 3.67892 0
M  V30 2861 H 267.029 -0.236927 0.627779 0
M  V30 2862 H 269.573 -0.0876593 2.04312 0
M  V30 2863 H 267.728 -2.34103 3.08666 0
M  V30 2864 H 268.142 -1.35284 5.06753 0
M  V30 2865 H 269.616 -3.00604 4.6297 0
M  V30 2866 H 270.093 -3.25247 2.95146 0
M  V30 2867 H 270.699 -1.83411 3.83719 0
M  V30 2868 N 269.014 -1.53014 -0.377408 0
M  V30 2869 C 270.291 -1.59215 -1.13622 0
M  V30 2870 C 270.671 -0.392407 -2.07421 0
M  V30 2871 O 270.019 0.618342 -2.19975 0
M  V30 2872 C 270.229 -2.93669 -1.88573 0
M  V30 2873 C 271.577 -3.47822 -2.43526 0
M  V30 2874 O 272.601 -2.9562 -1.98715 0
M  V30 2875 O 271.46 -4.39055 -3.25412 0
M  V30 2876 H 268.554 -0.642625 -0.52054 0
M  V30 2877 H 271.1 -1.65353 -0.381625 0
M  V30 2878 H 269.872 -3.7243 -1.20048 0
M  V30 2879 H 269.495 -2.90968 -2.70968 0
M  V30 2880 N 270.492 0.636531 -1.44174 0
M  V30 2881 C 271.722 1.42146 -1.49927 0
M  V30 2882 C 272.13 1.88812 -0.121063 0
M  V30 2883 O 271.473 1.61126 0.882267 0
M  V30 2884 C 271.535 2.67883 -2.39748 0
M  V30 2885 C 271.199 2.43048 -3.8701 0
M  V30 2886 C 272.196 2.05216 -4.77684 0
M  V30 2887 C 269.881 2.56856 -4.3166 0
M  V30 2888 C 271.875 1.81512 -6.11009 0
M  V30 2889 C 269.562 2.32766 -5.65034 0
M  V30 2890 C 270.56 1.95152 -6.54526 0
M  V30 2891 O 270.248 1.71326 -7.85431 0
M  V30 2892 H 269.98 0.442567 -0.51099 0
M  V30 2893 H 272.534 0.786158 -1.8976 0
M  V30 2894 H 270.764 3.34032 -1.94832 0
M  V30 2895 H 272.453 3.29874 -2.36513 0
M  V30 2896 H 273.219 1.94111 -4.44462 0
M  V30 2897 H 269.098 2.85104 -3.62266 0
M  V30 2898 H 272.642 1.52077 -6.80822 0
M  V30 2899 H 268.539 2.43479 -5.97819 0
M  V30 2900 H 269.307 1.85616 -7.97176 0
M  V30 2901 N 271.97 1.30982 0.876444 0
M  V30 2902 C 272.917 1.18085 1.98304 0
M  V30 2903 C 273.887 0.0682263 1.6596 0
M  V30 2904 O 275.072 0.239937 1.89285 0
M  V30 2905 C 272.212 0.887475 3.33493 0
M  V30 2906 C 271.325 2.08281 3.78475 0
M  V30 2907 C 270.46 1.72678 5.0235 0
M  V30 2908 C 269.499 2.88657 5.39762 0
M  V30 2909 N 268.636 2.53292 6.54819 0
M  V30 2910 H 273.476 2.1275 2.08666 0
M  V30 2911 H 271.013 1.05839 1.02159 0
M  V30 2912 H 272.971 0.697961 4.1132 0
M  V30 2913 H 271.601 -0.022315 3.22792 0
M  V30 2914 H 270.653 2.3833 2.96484 0
M  V30 2915 H 271.965 2.95108 4.02135 0
M  V30 2916 H 271.119 1.50151 5.87826 0
M  V30 2917 H 269.858 0.830327 4.8058 0
M  V30 2918 H 268.863 3.1184 4.52809 0
M  V30 2919 H 270.088 3.79002 5.63502 0
M  V30 2920 H 268.034 1.66163 6.34607 0
M  V30 2921 H 267.951 3.3365 6.7839 0
M  V30 2922 H 269.219 2.34143 7.43503 0
M  V30 2923 N 273.449 -1.08991 1.13837 0
M  V30 2924 C 274.697 -1.80899 0.901098 0
M  V30 2925 C 275.018 -1.86356 -0.574134 0
M  V30 2926 O 274.288 -1.35235 -1.41733 0
M  V30 2927 H 272.868 -0.669966 0.330386 0
M  V30 2928 H 275.53 -1.318 1.43578 0
M  V30 2929 H 274.626 -2.83929 1.29578 0
M  V30 2930 N 274.927 -0.932562 -1.27047 0
M  V30 2931 C 275.837 -0.441219 -2.30414 0
M  V30 2932 C 276.853 0.480525 -1.67233 0
M  V30 2933 O 278.029 0.362151 -1.98117 0
M  V30 2934 C 275.094 0.293651 -3.45454 0
M  V30 2935 C 274.155 -0.663601 -4.2414 0
M  V30 2936 C 273.388 0.0362932 -5.33688 0
M  V30 2937 O 273.611 1.2548 -5.56427 0
M  V30 2938 O 272.545 -0.638015 -5.98509 0
M  V30 2939 H 276.371 -1.29962 -2.74488 0
M  V30 2940 H 273.956 -0.6981 -1.32087 0
M  V30 2941 H 275.838 0.707951 -4.15411 0
M  V30 2942 H 274.513 1.12758 -3.03426 0
M  V30 2943 H 273.42 -1.12768 -3.56699 0
M  V30 2944 H 274.753 -1.46489 -4.69896 0
M  V30 2945 N 276.405 1.4127 -0.698611 0
M  V30 2946 C 277.633 2.05503 -0.239992 0
M  V30 2947 C 278.048 1.52584 1.11191 0
M  V30 2948 O 277.405 0.675323 1.69545 0
M  V30 2949 C 277.456 3.60987 -0.192429 0
M  V30 2950 O 277.177 4.1195 -1.49094 0
M  V30 2951 C 278.678 4.42371 0.28681 0
M  V30 2952 H 275.898 0.661748 -0.111045 0
M  V30 2953 H 278.442 1.80987 -0.95205 0
M  V30 2954 H 276.597 3.84533 0.470472 0
M  V30 2955 H 277.011 5.06018 -1.38007 0
M  V30 2956 H 278.485 5.51344 0.26896 0
M  V30 2957 H 278.962 4.18699 1.32619 0
M  V30 2958 H 279.568 4.23897 -0.345201 0
M  V30 2959 N 277.883 0.443576 1.51229 0
M  V30 2960 C 279.129 -0.120975 2.02439 0
M  V30 2961 C 279.462 -1.41815 1.32674 0
M  V30 2962 O 278.737 -1.89373 0.443622 0
M  V30 2963 C 279.02 -0.333291 3.58554 0
M  V30 2964 C 278.873 0.982968 4.38928 0
M  V30 2965 C 280.192 -1.10028 4.26124 0
M  V30 2966 H 277.311 -0.0424923 0.735774 0
M  V30 2967 H 279.953 0.583794 1.80809 0
M  V30 2968 H 278.103 -0.933614 3.77115 0
M  V30 2969 H 279.775 1.61775 4.32003 0
M  V30 2970 H 278.018 1.58611 4.03763 0
M  V30 2971 H 278.689 0.788379 5.46341 0
M  V30 2972 H 281.165 -0.591711 4.11871 0
M  V30 2973 H 280.041 -1.21761 5.35225 0
M  V30 2974 H 280.302 -2.12996 3.87408 0
M  V30 2975 N 279.361 -1.56624 0.175154 0
M  V30 2976 C 280.608 -1.96999 -0.468811 0
M  V30 2977 C 280.936 -1.06129 -1.62994 0
M  V30 2978 O 280.191 -0.0961771 -1.95464 0
M  V30 2979 C 280.49 -3.43419 -0.989864 0
M  V30 2980 C 280.156 -4.50866 0.0557687 0
M  V30 2981 C 278.818 -4.79975 0.343134 0
M  V30 2982 C 281.17 -5.15551 0.765308 0
M  V30 2983 C 278.498 -5.71066 1.34536 0
M  V30 2984 C 280.85 -6.07724 1.75654 0
M  V30 2985 C 279.514 -6.35199 2.05132 0
M  V30 2986 H 278.784 -0.720869 -0.17155 0
M  V30 2987 H 281.431 -1.89616 0.267924 0
M  V30 2988 H 279.736 -3.47772 -1.80449 0
M  V30 2989 H 281.433 -3.72002 -1.49719 0
M  V30 2990 H 278.023 -4.28229 -0.178381 0
M  V30 2991 H 282.207 -4.9317 0.556513 0
M  V30 2992 H 277.463 -5.90635 1.57988 0
M  V30 2993 H 281.637 -6.56912 2.31169 0
M  V30 2994 H 279.264 -7.05584 2.8294 0
M  V30 2995 N 280.839 0.0985539 -1.57292 0
M  V30 2996 C 281.789 1.1261 -1.9825 0
M  V30 2997 C 282.773 1.35961 -0.860426 0
M  V30 2998 O 283.965 1.36711 -1.12424 0
M  V30 2999 C 281.094 2.44727 -2.40757 0
M  V30 3000 C 280.18 2.24764 -3.59642 0
M  V30 3001 N 280.571 1.74661 -4.74687 0
M  V30 3002 C 278.869 2.55344 -3.65672 0
M  V30 3003 C 279.57 1.68887 -5.56644 0
M  V30 3004 N 278.546 2.13976 -4.99715 0
M  V30 3005 H 282.348 0.731604 -2.84648 0
M  V30 3006 H 279.862 0.306029 -1.59491 0
M  V30 3007 H 281.859 3.19072 -2.68326 0
M  V30 3008 H 280.519 2.84917 -1.55733 0
M  V30 3009 H 281.53 1.43908 -4.97505 0
M  V30 3010 H 278.207 2.99081 -2.91302 0
M  V30 3011 H 279.597 1.3123 -6.5896 0
M  V30 3012 N 282.317 1.53212 0.369288 0
M  V30 3013 C 283.547 1.72868 1.13139 0
M  V30 3014 C 283.955 0.455754 1.83629 0
M  V30 3015 O 283.298 -0.580861 1.74275 0
M  V30 3016 C 283.36 2.83667 2.20847 0
M  V30 3017 C 283.024 4.24142 1.70155 0
M  V30 3018 C 284.021 5.06619 1.16763 0
M  V30 3019 C 281.706 4.70539 1.7578 0
M  V30 3020 C 283.7 6.33581 0.696678 0
M  V30 3021 C 281.387 5.97481 1.28297 0
M  V30 3022 C 282.385 6.78833 0.753307 0
M  V30 3023 O 282.073 8.03393 0.285475 0
M  V30 3024 H 281.805 0.581707 0.344373 0
M  V30 3025 H 284.359 2.00736 0.435243 0
M  V30 3026 H 282.589 2.51265 2.93944 0
M  V30 3027 H 284.278 2.91536 2.82421 0
M  V30 3028 H 285.044 4.71948 1.11758 0
M  V30 3029 H 280.923 4.07293 2.15949 0
M  V30 3030 H 284.467 6.97027 0.282581 0
M  V30 3031 H 280.364 6.31651 1.32994 0
M  V30 3032 H 281.132 8.17497 0.405145 0
M  V30 3033 N 283.795 -0.628877 1.44509 0
M  V30 3034 C 284.758 -1.72263 1.51188 0
M  V30 3035 C 285.758 -1.55907 0.39367 0
M  V30 3036 O 286.948 -1.61361 0.656377 0
M  V30 3037 C 284.08 -3.11365 1.38798 0
M  V30 3038 H 285.273 -1.67714 2.4862 0
M  V30 3039 H 282.826 -0.842737 1.31634 0
M  V30 3040 H 283.561 -3.21507 0.424693 0
M  V30 3041 H 283.346 -3.24644 2.19884 0
M  V30 3042 H 284.836 -3.91075 1.46458 0
M  V30 3043 N 285.273 -1.31445 -0.869486 0
M  V30 3044 C 286.519 -1.21337 -1.62496 0
M  V30 3045 C 286.852 0.227872 -1.92858 0
M  V30 3046 O 286.127 1.16094 -1.56053 0
M  V30 3047 C 286.41 -2.05814 -2.95487 0
M  V30 3048 C 286.263 -3.5824 -2.72 0
M  V30 3049 C 287.582 -1.9079 -3.96594 0
M  V30 3050 H 284.701 -0.442135 -0.589649 0
M  V30 3051 H 287.343 -1.6124 -1.00507 0
M  V30 3052 H 285.493 -1.71913 -3.48394 0
M  V30 3053 H 287.165 -4.0228 -2.25762 0
M  V30 3054 H 285.408 -3.81647 -2.06224 0
M  V30 3055 H 286.079 -4.12657 -3.66631 0
M  V30 3056 H 288.555 -2.20459 -3.52898 0
M  V30 3057 H 287.431 -2.52199 -4.87531 0
M  V30 3058 H 287.692 -0.871341 -4.33428 0
M  V30 3059 N 286.751 1.08385 -1.14413 0
M  V30 3060 C 287.683 2.1519 -0.789036 0
M  V30 3061 C 288.696 1.61638 0.19417 0
M  V30 3062 O 289.885 1.78479 -0.0275711 0
M  V30 3063 C 286.985 3.38565 -0.15058 0
M  V30 3064 C 286.158 4.21501 -1.16857 0
M  V30 3065 C 285.217 5.23277 -0.553832 0
M  V30 3066 O 284.243 5.56041 -1.21686 0
M  V30 3067 N 285.445 5.76629 0.669296 0
M  V30 3068 H 288.21 2.46257 -1.70814 0
M  V30 3069 H 285.771 1.24198 -1.03858 0
M  V30 3070 H 287.763 4.03777 0.273181 0
M  V30 3071 H 286.333 3.05299 0.671667 0
M  V30 3072 H 285.553 3.52265 -1.76926 0
M  V30 3073 H 286.841 4.73731 -1.85624 0
M  V30 3074 H 286.239 5.52243 1.22654 0
M  V30 3075 H 284.796 6.43521 1.03556 0
M  V30 3076 N 288.23 0.939286 1.26551 0
M  V30 3077 C 289.478 0.58469 1.93457 0
M  V30 3078 C 289.799 -0.878774 1.74076 0
M  V30 3079 O 289.069 -1.62421 1.09528 0
M  V30 3080 H 287.649 0.21325 0.715914 0
M  V30 3081 H 290.311 1.1942 1.54029 0
M  V30 3082 H 289.407 0.800849 3.0165 0
M  V30 3083 N 289.708 -1.40897 0.706093 0
M  V30 3084 C 290.985 -1.94868 0.169099 0
M  V30 3085 C 291.365 -1.64485 -1.32318 0
M  V30 3086 O 290.713 -0.95744 -2.07474 0
M  V30 3087 C 290.923 -3.45798 0.471654 0
M  V30 3088 C 292.271 -4.22663 0.405127 0
M  V30 3089 O 293.295 -3.53865 0.407168 0
M  V30 3090 O 292.154 -5.45216 0.374383 0
M  V30 3091 H 289.248 -0.82673 0.0211352 0
M  V30 3092 H 291.794 -1.50558 0.782976 0
M  V30 3093 H 290.566 -3.61235 1.50416 0
M  V30 3094 H 290.189 -3.97225 -0.172666 0
M  V30 3095 N 291.186 -0.45159 -1.50991 0
M  V30 3096 C 292.134 0.366864 -2.29689 0
M  V30 3097 C 293.128 1.00809 -1.36139 0
M  V30 3098 O 294.334 0.941427 -1.53418 0
M  V30 3099 H 290.709 0.137133 -0.739391 0
M  V30 3100 H 292.68 -0.317538 -2.96706 0
M  V30 3101 C 291.429 1.44751 -3.16137 0
M  V30 3102 H 290.752 0.963473 -3.88017 0
M  V30 3103 H 292.192 1.99315 -3.74232 0
M  V30 3104 C 290.651 2.43869 -2.32442 0
M  V30 3105 O 291.181 3.4872 -1.99392 0
M  V30 3106 N 289.387 2.15105 -1.95392 0
M  V30 3107 H 288.934 1.29866 -2.22469 0
M  V30 3108 H 288.892 2.81661 -1.39693 0
M  V30 3109 N 292.664 1.56529 -0.183458 0
M  V30 3110 C 293.889 2.02064 0.467428 0
M  V30 3111 C 294.314 1.06282 1.55196 0
M  V30 3112 O 293.672 0.0443565 1.81246 0
M  V30 3113 C 293.72 3.46122 1.01153 0
M  V30 3114 O 292.824 3.53437 2.12499 0
M  V30 3115 H 292.165 0.654726 0.110588 0
M  V30 3116 H 294.695 2.02521 -0.290917 0
M  V30 3117 H 294.705 3.85676 1.33108 0
M  V30 3118 H 293.38 4.15331 0.217533 0
M  V30 3119 H 291.957 3.2575 1.81497 0
M  V30 3120 N 294.142 -0.090211 1.57342 0
M  V30 3121 C 295.074 -1.13541 1.99101 0
M  V30 3122 C 296.087 -1.3604 0.894258 0
M  V30 3123 O 297.276 -1.34606 1.17233 0
M  V30 3124 C 294.376 -2.49001 2.29895 0
M  V30 3125 C 293.549 -2.46712 3.61182 0
M  V30 3126 C 292.608 -3.64136 3.79857 0
M  V30 3127 O 291.634 -3.46405 4.51655 0
M  V30 3128 N 292.836 -4.83802 3.20806 0
M  V30 3129 H 295.601 -0.779942 2.89373 0
M  V30 3130 H 293.162 -0.279125 1.59476 0
M  V30 3131 H 295.154 -3.26166 2.39578 0
M  V30 3132 H 293.724 -2.76619 1.45605 0
M  V30 3133 H 292.944 -1.55058 3.62423 0
M  V30 3134 H 294.232 -2.42265 4.4742 0
M  V30 3135 H 293.63 -5.01112 2.62494 0
M  V30 3136 H 292.187 -5.58543 3.35966 0
M  V30 3137 N 295.62 -1.53406 -0.361157 0
M  V30 3138 C 296.866 -1.70054 -1.10496 0
M  V30 3139 C 297.199 -0.453278 -1.88836 0
M  V30 3140 O 296.474 0.5495 -1.86576 0
M  V30 3141 C 296.757 -2.95317 -2.06058 0
M  V30 3142 C 296.61 -4.3021 -1.31298 0
M  V30 3143 C 297.929 -3.16193 -3.06121 0
M  V30 3144 H 295.048 -0.618799 -0.400321 0
M  V30 3145 H 297.69 -1.86052 -0.385318 0
M  V30 3146 H 295.84 -2.81809 -2.67425 0
M  V30 3147 H 297.512 -4.55538 -0.726807 0
M  V30 3148 H 295.755 -4.29421 -0.614853 0
M  V30 3149 H 296.426 -5.14 -2.01265 0
M  V30 3150 H 298.902 -3.28916 -2.5486 0
M  V30 3151 H 297.778 -4.05266 -3.70204 0
M  V30 3152 H 298.039 -2.31676 -3.76535 0
M  V30 3153 N 297.098 0.621204 -1.44841 0
M  V30 3154 C 298.028 1.74366 -1.55303 0
M  V30 3155 C 299.009 1.65199 -0.405385 0
M  V30 3156 O 300.194 1.83807 -0.626787 0
M  V30 3157 C 297.324 3.12931 -1.50637 0
M  V30 3158 C 296.278 3.36896 -2.63979 0
M  V30 3159 C 295.604 4.75594 -2.44366 0
M  V30 3160 C 296.904 3.28483 -4.06074 0
M  V30 3161 H 298.598 1.65867 -2.49256 0
M  V30 3162 H 296.144 0.796558 -1.19962 0
M  V30 3163 H 298.097 3.9124 -1.56555 0
M  V30 3164 H 296.821 3.22237 -0.532057 0
M  V30 3165 H 295.48 2.60972 -2.57467 0
M  V30 3166 H 295.128 4.81616 -1.45105 0
M  V30 3167 H 294.828 4.92586 -3.20364 0
M  V30 3168 H 296.352 5.5612 -2.52117 0
M  V30 3169 H 297.766 3.96684 -4.13902 0
M  V30 3170 H 296.163 3.57008 -4.82354 0
M  V30 3171 H 297.233 2.26133 -4.28943 0
M  V30 3172 N 298.576 1.31904 0.862503 0
M  V30 3173 C 299.508 1.16005 1.97675 0
M  V30 3174 C 300.521 0.0971234 1.6251 0
M  V30 3175 O 301.71 0.345337 1.75128 0
M  V30 3176 C 298.81 0.751791 3.30456 0
M  V30 3177 C 297.983 1.90133 3.93914 0
M  V30 3178 C 297.042 1.4779 5.05019 0
M  V30 3179 O 296.068 2.18872 5.25437 0
M  V30 3180 N 297.27 0.369491 5.79323 0
M  V30 3181 H 300.035 2.11982 2.11857 0
M  V30 3182 H 297.596 1.24337 1.03691 0
M  V30 3183 H 299.588 0.451084 4.02178 0
M  V30 3184 H 298.158 -0.116593 3.12382 0
M  V30 3185 H 297.378 2.36896 3.15078 0
M  V30 3186 H 298.666 2.67111 4.33047 0
M  V30 3187 H 298.064 -0.222299 5.65263 0
M  V30 3188 H 296.621 0.128354 6.51674 0
M  V30 3189 N 300.054 -1.07777 1.14986 0
M  V30 3190 C 300.984 -2.16865 0.865557 0
M  V30 3191 C 301.965 -1.69123 -0.182083 0
M  V30 3192 O 303.15 -1.94164 -0.0373815 0
M  V30 3193 C 300.28 -3.45539 0.349313 0
M  V30 3194 C 299.234 -4.06708 1.33313 0
M  V30 3195 C 298.56 -5.30411 0.675918 0
M  V30 3196 C 299.86 -4.47241 2.69764 0
M  V30 3197 H 301.554 -2.40905 1.77778 0
M  V30 3198 H 299.1 -1.15781 0.856203 0
M  V30 3199 H 301.053 -4.21174 0.137983 0
M  V30 3200 H 299.777 -3.21072 -0.598362 0
M  V30 3201 H 298.436 -3.33112 1.53075 0
M  V30 3202 H 298.084 -5.02232 -0.277767 0
M  V30 3203 H 297.784 -5.72293 1.33244 0
M  V30 3204 H 299.308 -6.08755 0.474262 0
M  V30 3205 H 300.722 -5.14025 2.53873 0
M  V30 3206 H 299.119 -5.00062 3.3175 0
M  V30 3207 H 300.189 -3.58818 3.26156 0
M  V30 3208 N 301.532 -0.945985 -1.26051 0
M  V30 3209 C 302.462 -0.477172 -2.28572 0
M  V30 3210 C 303.443 0.472032 -1.63419 0
M  V30 3211 O 304.628 0.372853 -1.90587 0
M  V30 3212 C 301.758 0.253975 -3.4637 0
M  V30 3213 C 300.712 -0.609135 -4.23643 0
M  V30 3214 C 300.038 0.252252 -5.34105 0
M  V30 3215 C 301.338 -1.8829 -4.8718 0
M  V30 3216 H 303.032 -1.33402 -2.68038 0
M  V30 3217 H 300.578 -0.642904 -1.28852 0
M  V30 3218 H 302.531 0.593016 -4.17207 0
M  V30 3219 H 301.255 1.145 -3.05871 0
M  V30 3220 H 299.914 -0.931138 -3.54578 0
M  V30 3221 H 299.562 1.14278 -4.89846 0
M  V30 3222 H 299.262 -0.32188 -5.86718 0
M  V30 3223 H 300.786 0.586454 -6.07777 0
M  V30 3224 H 302.2 -1.61081 -5.50205 0
M  V30 3225 H 300.597 -2.40199 -5.49931 0
M  V30 3226 H 301.667 -2.59134 -4.09851 0
M  V30 3227 N 303.011 1.40521 -0.713556 0
M  V30 3228 C 304.259 2.00527 -0.251692 0
M  V30 3229 C 304.58 1.56857 1.15848 0
M  V30 3230 O 303.85 0.807127 1.785 0
M  V30 3231 H 302.43 0.741551 -0.0900646 0
M  V30 3232 H 305.092 1.71887 -0.918733 0
M  V30 3233 H 304.188 3.10813 -0.283192 0
M  V30 3234 N 304.489 0.459591 1.5075 0
M  V30 3235 C 305.905 0.113092 1.59199 0
M  V30 3236 C 306.105 -1.37951 1.46874 0
M  V30 3237 O 305.161 -2.15168 1.32132 0
M  V30 3238 C 306.474 0.653043 2.93523 0
M  V30 3239 C 308.022 0.615449 3.0689 0
M  V30 3240 C 308.497 1.13275 4.43771 0
M  V30 3241 N 309.988 1.09167 4.50152 0
M  V30 3242 C 310.723 1.46256 5.54434 0
M  V30 3243 N 310.219 1.90739 6.66026 0
M  V30 3244 N 312.012 1.37932 5.44914 0
M  V30 3245 H 304.163 1.43049 1.57005 0
M  V30 3246 H 306.426 0.590861 0.741341 0
M  V30 3247 H 306.132 1.69822 3.07983 0
M  V30 3248 H 306.006 0.0902132 3.77092 0
M  V30 3249 H 308.393 -0.420793 2.92084 0
M  V30 3250 H 308.474 1.21495 2.25106 0
M  V30 3251 H 308.118 2.16757 4.59324 0
M  V30 3252 H 308.048 0.509576 5.24129 0
M  V30 3253 H 310.539 0.76528 3.7007 0
M  V30 3254 H 310.852 2.17218 7.41644 0
M  V30 3255 H 309.197 1.94683 6.67176 0
M  V30 3256 H 312.388 1.0303 4.56621 0
M  V30 3257 H 312.561 1.67164 6.26067 0
M  V30 3258 N 305.967 -1.56429 0.191757 0
M  V30 3259 C 306.915 -2.20273 -0.747174 0
M  V30 3260 C 307.909 -1.17288 -1.22229 0
M  V30 3261 O 309.115 -1.35441 -1.18557 0
M  V30 3262 H 305.49 -0.705885 -0.259289 0
M  V30 3263 H 307.461 -2.97826 -0.184963 0
M  V30 3264 C 306.21 -2.87356 -1.95759 0
M  V30 3265 H 305.533 -3.66341 -1.60106 0
M  V30 3266 H 306.973 -3.3547 -2.59299 0
M  V30 3267 C 305.432 -1.88213 -2.79423 0
M  V30 3268 O 305.962 -1.38033 -3.7724 0
M  V30 3269 N 304.168 -1.56516 -2.44849 0
M  V30 3270 H 303.715 -1.97516 -1.65364 0
M  V30 3271 H 303.673 -0.904369 -3.01112 0
M  V30 3272 N 307.445 0.0818655 -1.57387 0
M  V30 3273 C 308.408 1.08265 -2.02018 0
M  V30 3274 C 309.408 1.32183 -0.915664 0
M  V30 3275 O 310.598 1.28073 -1.18081 0
M  V30 3276 C 307.73 2.42871 -2.39221 0
M  V30 3277 H 308.923 0.698204 -2.91659 0
M  V30 3278 H 306.476 0.327303 -1.52835 0
M  V30 3279 H 307.211 2.86167 -1.52575 0
M  V30 3280 H 306.996 2.26855 -3.19811 0
M  V30 3281 H 308.486 3.14826 -2.74362 0
M  V30 3282 N 308.923 1.53595 0.353017 0
M  V30 3283 C 310.169 1.70638 1.09593 0
M  V30 3284 C 310.502 0.463286 1.88593 0
M  V30 3285 O 309.777 -0.539597 1.86865 0
M  V30 3286 C 310.06 2.96406 2.04489 0
M  V30 3287 C 309.913 4.30901 1.29014 0
M  V30 3288 C 311.232 3.17812 3.0444 0
M  V30 3289 H 308.351 0.620913 0.397034 0
M  V30 3290 H 310.993 1.86254 0.375446 0
M  V30 3291 H 309.143 2.83223 2.65927 0
M  V30 3292 H 310.815 4.55917 0.702638 0
M  V30 3293 H 309.058 4.29741 0.592071 0
M  V30 3294 H 309.729 5.1506 1.98537 0
M  V30 3295 H 312.205 3.30263 2.53112 0
M  V30 3296 H 311.081 4.07223 3.6805 0
M  V30 3297 H 311.342 2.33669 3.75301 0
M  V30 3298 N 310.401 -0.613514 1.45168 0
M  V30 3299 C 311.364 -1.7065 1.53007 0
M  V30 3300 C 312.364 -1.5548 0.410184 0
M  V30 3301 O 313.554 -1.60656 0.673455 0
M  V30 3302 C 310.686 -3.09875 1.42093 0
M  V30 3303 H 311.879 -1.65068 2.50385 0
M  V30 3304 H 309.432 -0.828728 1.32521 0
M  V30 3305 H 310.167 -3.21039 0.458769 0
M  V30 3306 H 309.952 -3.22293 2.23315 0
M  V30 3307 H 311.442 -3.895 1.50598 0
M  V30 3308 N 311.879 -1.3236 -0.855495 0
M  V30 3309 C 313.127 -1.22629 -1.60644 0
M  V30 3310 C 313.448 0.212136 -1.93843 0
M  V30 3311 O 312.718 1.13666 -1.59552 0
M  V30 3312 H 311.298 -0.450882 -0.595579 0
M  V30 3313 H 313.96 -1.65871 -1.02337 0
M  V30 3314 H 313.056 -1.80832 -2.54374 0
M  V30 3315 N 313.357 1.07166 -1.15556 0
M  V30 3316 C 314.287 2.16403 -0.877046 0
M  V30 3317 C 315.268 1.69217 0.173111 0
M  V30 3318 O 316.453 1.94181 0.027084 0
M  V30 3319 C 313.583 3.45349 -0.367632 0
M  V30 3320 C 312.537 4.05995 -1.35468 0
M  V30 3321 C 311.863 5.30045 -0.704038 0
M  V30 3322 C 313.163 4.45804 -2.72132 0
M  V30 3323 H 314.857 2.39959 -1.79053 0
M  V30 3324 H 312.403 1.15325 -0.862331 0
M  V30 3325 H 314.356 4.21095 -0.160317 0
M  V30 3326 H 313.08 3.21385 0.581326 0
M  V30 3327 H 311.739 3.32296 -1.54839 0
M  V30 3328 H 311.387 5.02373 0.251128 0
M  V30 3329 H 311.087 5.71579 -1.36277 0
M  V30 3330 H 312.611 6.08495 -0.50654 0
M  V30 3331 H 314.025 5.12671 -2.56595 0
M  V30 3332 H 312.422 4.98296 -3.34397 0
M  V30 3333 H 313.492 3.57083 -3.28054 0
M  V30 3334 N 314.835 0.952656 1.25548 0
M  V30 3335 C 315.783 0.462354 2.27958 0
M  V30 3336 C 316.777 -0.46634 1.62855 0
M  V30 3337 O 317.983 -0.343287 1.76696 0
M  V30 3338 H 314.358 0.13101 0.7405 0
M  V30 3339 H 316.329 1.33839 2.66702 0
M  V30 3340 C 315.078 -0.24628 3.46827 0
M  V30 3341 H 314.401 0.459192 3.97154 0
M  V30 3342 H 315.841 -0.553393 4.20373 0
M  V30 3343 C 314.3 -1.4681 3.0323 0
M  V30 3344 O 314.83 -2.56591 3.09069 0
M  V30 3345 N 313.036 -1.32874 2.58443 0
M  V30 3346 H 312.583 -0.435536 2.53891 0
M  V30 3347 H 312.541 -2.14742 2.29637 0
M  V30 3348 N 316.313 -1.40141 0.720998 0
M  V30 3349 C 317.245 -2.29177 0.0324669 0
M  V30 3350 C 318.258 -1.46105 -0.718126 0
M  V30 3351 O 319.447 -1.69335 -0.564608 0
M  V30 3352 C 316.547 -3.24473 -0.978292 0
M  V30 3353 C 315.72 -4.36423 -0.292115 0
M  V30 3354 C 314.779 -5.12122 -1.20901 0
M  V30 3355 O 313.805 -5.64981 -0.691766 0
M  V30 3356 N 315.007 -5.21992 -2.53978 0
M  V30 3357 H 317.772 -2.88909 0.796984 0
M  V30 3358 H 315.333 -1.51569 0.569068 0
M  V30 3359 H 317.325 -3.71987 -1.59398 0
M  V30 3360 H 315.895 -2.65871 -1.64413 0
M  V30 3361 H 315.115 -3.90967 0.503847 0
M  V30 3362 H 316.403 -5.08467 0.183971 0
M  V30 3363 H 315.801 -4.8054 -2.98493 0
M  V30 3364 H 314.358 -5.72995 -3.10677 0
M  V30 3365 N 317.792 -0.46758 -1.50504 0
M  V30 3366 C 319.038 0.0887532 -2.02606 0
M  V30 3367 C 319.371 1.39686 -1.34913 0
M  V30 3368 O 318.646 1.88644 -0.473694 0
M  V30 3369 C 318.929 0.276206 -3.59039 0
M  V30 3370 C 318.782 -1.05267 -4.37309 0
M  V30 3371 C 320.101 1.03235 -4.27821 0
M  V30 3372 H 317.22 0.0307814 -0.736357 0
M  V30 3373 H 319.862 -0.612485 -1.79857 0
M  V30 3374 H 318.012 0.8735 -3.78553 0
M  V30 3375 H 319.684 -1.68628 -4.29374 0
M  V30 3376 H 317.927 -1.65015 -4.01189 0
M  V30 3377 H 318.598 -0.875197 -5.45018 0
M  V30 3378 H 321.074 0.526111 -4.12761 0
M  V30 3379 H 319.95 1.1323 -5.37094 0
M  V30 3380 H 320.211 2.06806 -3.90748 0
M  V30 3381 N 319.27 1.56325 -0.20005 0
M  V30 3382 C 320.218 2.20666 0.735482 0
M  V30 3383 C 321.212 1.17934 1.21605 0
M  V30 3384 O 322.418 1.36068 1.17837 0
M  V30 3385 H 318.793 0.70725 0.255542 0
M  V30 3386 H 320.764 2.9792 0.169166 0
M  V30 3387 C 319.513 2.88391 1.94232 0
M  V30 3388 H 318.836 3.67185 1.58161 0
M  V30 3389 H 320.276 3.3684 2.57517 0
M  V30 3390 C 318.735 1.89692 2.78421 0
M  V30 3391 O 319.265 1.40032 3.76502 0
M  V30 3392 N 317.471 1.57813 2.44015 0
M  V30 3393 H 317.018 1.9839 1.64314 0
M  V30 3394 H 316.976 0.920325 3.00628 0
M  V30 3395 N 320.748 -0.0735177 1.57428 0
M  V30 3396 C 321.696 -1.10628 2.04607 0
M  V30 3397 C 322.69 -1.40181 0.951088 0
M  V30 3398 O 323.896 -1.39608 1.1362 0
M  V30 3399 H 320.271 -0.374088 0.652351 0
M  V30 3400 H 322.242 -0.682218 2.90497 0
M  V30 3401 C 320.991 -2.41212 2.50423 0
M  V30 3402 H 320.314 -2.19322 3.34272 0
M  V30 3403 H 321.754 -3.11927 2.87189 0
M  V30 3404 C 320.213 -3.0705 1.38644 0
M  V30 3405 O 320.743 -3.95056 0.727582 0
M  V30 3406 N 318.949 -2.67645 1.132 0
M  V30 3407 H 318.496 -1.96169 1.66959 0
M  V30 3408 H 318.454 -3.1202 0.386147 0
M  V30 3409 N 322.226 -1.5378 -0.344866 0
M  V30 3410 C 323.158 -1.77988 -1.44406 0
M  V30 3411 C 324.171 -0.661138 -1.48771 0
M  V30 3412 O 325.36 -0.937842 -1.51877 0
M  V30 3413 C 322.46 -1.86345 -2.8307 0
M  V30 3414 C 321.633 -3.16256 -3.0216 0
M  V30 3415 C 320.692 -3.15588 -4.21059 0
M  V30 3416 O 319.718 -3.89314 -4.15239 0
M  V30 3417 N 320.92 -2.37864 -5.29529 0
M  V30 3418 H 323.685 -2.72839 -1.24012 0
M  V30 3419 H 321.246 -1.52814 -0.534737 0
M  V30 3420 H 323.238 -1.83351 -3.60783 0
M  V30 3421 H 321.808 -0.986858 -2.96614 0
M  V30 3422 H 321.028 -3.32385 -2.11929 0
M  V30 3423 H 322.316 -4.0207 -3.11797 0
M  V30 3424 H 321.714 -1.77514 -5.37127 0
M  V30 3425 H 320.271 -2.40668 -6.05741 0
M  V30 3426 N 323.704 0.605807 -1.45491 0
M  V30 3427 C 324.952 1.36207 -1.49305 0
M  V30 3428 C 325.273 1.94519 -0.136863 0
M  V30 3429 O 324.543 1.77261 0.833983 0
M  V30 3430 H 323.123 0.50565 -0.549843 0
M  V30 3431 H 325.785 0.711239 -1.81459 0
M  V30 3432 H 324.881 2.18058 -2.23287 0
M  V30 3433 N 325.182 1.32811 0.848464 0
M  V30 3434 C 326.112 1.24882 1.97299 0
M  V30 3435 C 327.093 0.131357 1.69592 0
M  V30 3436 O 328.278 0.319553 1.91553 0
M  V30 3437 C 325.408 0.97746 3.33261 0
M  V30 3438 C 324.362 2.05682 3.75338 0
M  V30 3439 C 323.688 1.63777 5.09 0
M  V30 3440 C 324.988 3.47254 3.90144 0
M  V30 3441 H 326.682 2.18966 2.04191 0
M  V30 3442 H 324.228 1.05413 0.981029 0
M  V30 3443 H 326.181 0.908513 4.1149 0
M  V30 3444 H 324.905 0.000980011 3.266 0
M  V30 3445 H 323.564 2.11603 2.99366 0
M  V30 3446 H 323.212 0.648569 4.98801 0
M  V30 3447 H 322.912 2.36 5.38124 0
M  V30 3448 H 324.436 1.5833 5.89715 0
M  V30 3449 H 325.85 3.43888 4.58709 0
M  V30 3450 H 324.247 4.1788 4.30693 0
M  V30 3451 H 325.317 3.86462 2.92874 0
M  V30 3452 N 326.66 -1.06551 1.16123 0
M  V30 3453 C 327.888 -1.83005 0.965237 0
M  V30 3454 C 328.303 -1.82423 -0.486542 0
M  V30 3455 O 327.66 -1.24152 -1.33763 0
M  V30 3456 C 327.711 -3.29733 1.48183 0
M  V30 3457 O 327.432 -3.30416 2.87674 0
M  V30 3458 C 328.933 -4.22926 1.32848 0
M  V30 3459 H 326.153 -0.577118 0.342309 0
M  V30 3460 H 328.697 -1.3445 1.54089 0
M  V30 3461 H 326.852 -3.75609 0.948517 0
M  V30 3462 H 327.266 -4.22149 3.11272 0
M  V30 3463 H 328.74 -5.23916 1.73827 0
M  V30 3464 H 329.217 -4.38346 0.273692 0
M  V30 3465 H 329.823 -3.82894 1.85127 0
M  V30 3466 N 328.138 -0.959301 -1.25041 0
M  V30 3467 C 329.549 -0.65667 -1.74771 0
M  V30 3468 C 329.9 0.827852 -1.77879 0
M  V30 3469 O 329.025 1.64783 -1.40269 0
M  V30 3470 C 329.62 -1.1853 -3.1739 0
M  V30 3471 C 328.179 -0.932734 -3.6466 0
M  V30 3472 C 327.326 -1.32558 -2.43564 0
M  V30 3473 H 330.277 -1.13558 -1.10862 0
M  V30 3474 H 330.298 -0.547582 -3.76539 0
M  V30 3475 H 329.81 -2.26576 -3.15095 0
M  V30 3476 H 327.911 0.13257 -3.72364 0
M  V30 3477 H 328.024 -1.57248 -4.52559 0
M  V30 3478 H 326.388 -0.743956 -2.43593 0
M  V30 3479 H 327.171 -2.41537 -2.43957 0
M  V30 3480 N 329.616 1.39756 -0.72842 0
M  V30 3481 C 330.546 2.33289 -0.0991354 0
M  V30 3482 C 331.527 1.53568 0.731489 0
M  V30 3483 O 332.712 1.81987 0.677807 0
M  V30 3484 C 329.842 3.3763 0.813834 0
M  V30 3485 C 328.796 4.2791 0.0878663 0
M  V30 3486 C 328.122 5.22894 1.11741 0
M  V30 3487 C 329.422 5.11314 -1.06563 0
M  V30 3488 H 331.116 2.86163 -0.880408 0
M  V30 3489 H 328.662 1.37591 -0.424819 0
M  V30 3490 H 330.615 4.0201 1.26355 0
M  V30 3491 H 329.339 2.83181 1.62715 0
M  V30 3492 H 327.998 3.65 -0.342159 0
M  V30 3493 H 327.646 4.64744 1.92412 0
M  V30 3494 H 327.346 5.84143 0.636477 0
M  V30 3495 H 328.87 5.90151 1.56697 0
M  V30 3496 H 330.284 5.69076 -0.694671 0
M  V30 3497 H 328.681 5.81671 -1.47577 0
M  V30 3498 H 329.751 4.46534 -1.89038 0
M  V30 3499 N 331.094 0.475555 1.50254 0
M  V30 3500 C 332.044 -0.335025 2.25525 0
M  V30 3501 C 333.028 -0.957625 1.29299 0
M  V30 3502 O 334.22 -0.869436 1.54175 0
M  V30 3503 C 331.349 -1.41385 3.12834 0
M  V30 3504 C 330.435 -0.798762 4.1651 0
M  V30 3505 N 330.826 0.0835815 5.05731 0
M  V30 3506 C 329.124 -1.06221 4.33166 0
M  V30 3507 C 329.825 0.433113 5.80085 0
M  V30 3508 N 328.801 -0.1928 5.43258 0
M  V30 3509 H 332.603 0.344612 2.91873 0
M  V30 3510 H 330.117 0.289986 1.5979 0
M  V30 3511 H 332.114 -2.00777 3.65368 0
M  V30 3512 H 330.774 -2.09543 2.48036 0
M  V30 3513 H 331.785 0.452715 5.15918 0
M  V30 3514 H 328.462 -1.73844 3.79585 0
M  V30 3515 H 329.852 1.15346 6.61925 0
M  V30 3516 N 332.573 -1.56217 0.208337 0
M  V30 3517 C 333.503 -2.22694 -0.702116 0
M  V30 3518 C 334.484 -1.19432 -1.2112 0
M  V30 3519 O 335.669 -1.47978 -1.25762 0
M  V30 3520 C 332.799 -2.8966 -1.9161 0
M  V30 3521 C 331.753 -3.9928 -1.5414 0
M  V30 3522 C 331.079 -4.53476 -2.83308 0
M  V30 3523 C 332.379 -5.17012 -0.741339 0
M  V30 3524 H 334.073 -2.99034 -0.147898 0
M  V30 3525 H 331.619 -1.43831 -0.0696951 0
M  V30 3526 H 333.572 -3.34852 -2.55836 0
M  V30 3527 H 332.296 -2.10746 -2.49507 0
M  V30 3528 H 330.955 -3.54799 -0.922668 0
M  V30 3529 H 330.603 -3.71308 -3.39322 0
M  V30 3530 H 330.303 -5.27451 -2.58976 0
M  V30 3531 H 331.827 -5.01378 -3.485 0
M  V30 3532 H 333.241 -5.58667 -1.28699 0
M  V30 3533 H 331.638 -5.97137 -0.595627 0
M  V30 3534 H 332.708 -4.8423 0.254851 0
M  V30 3535 N 334.051 0.0651679 -1.57465 0
M  V30 3536 C 335.014 1.06117 -2.03155 0
M  V30 3537 C 336.014 1.31204 -0.929632 0
M  V30 3538 O 337.204 1.26813 -1.19432 0
M  V30 3539 C 334.336 2.4032 -2.41783 0
M  V30 3540 H 335.529 0.667231 -2.92383 0
M  V30 3541 H 333.082 0.311075 -1.53173 0
M  V30 3542 H 333.817 2.84532 -1.55601 0
M  V30 3543 H 333.602 2.23451 -3.22199 0
M  V30 3544 H 335.092 3.11898 -2.77685 0
M  V30 3545 N 335.529 1.53961 0.336706 0
M  V30 3546 C 336.769 1.73254 1.08454 0
M  V30 3547 C 337.133 0.488937 1.8567 0
M  V30 3548 O 338.334 0.559001 2.62923 0
M  V30 3549 C 336.605 2.96519 1.99528 0
M  V30 3550 S 338.164 3.36655 2.81441 0
M  V30 3551 H 334.982 0.609353 0.366347 0
M  V30 3552 H 337.584 1.92117 0.362124 0
M  V30 3553 H 336.288 3.85193 1.41614 0
M  V30 3554 H 335.819 2.80142 2.76196 0
M  V30 3555 H 337.834 2.90925 4.01967 0
M  V30 3556 N 337.007 -0.598083 1.45811 0
M  V30 3557 C 337.939 -1.72231 1.51225 0
M  V30 3558 C 338.952 -1.57757 0.402059 0
M  V30 3559 O 340.141 -1.65464 0.669624 0
M  V30 3560 C 337.241 -3.10331 1.3619 0
M  V30 3561 C 336.414 -3.50955 2.61054 0
M  V30 3562 C 335.473 -4.68055 2.40439 0
M  V30 3563 O 334.499 -4.74691 3.14097 0
M  V30 3564 N 335.701 -5.61941 1.45612 0
M  V30 3565 H 338.466 -1.68046 2.48154 0
M  V30 3566 H 336.027 -0.783637 1.41671 0
M  V30 3567 H 338.019 -3.86439 1.20195 0
M  V30 3568 H 336.589 -3.0897 0.475015 0
M  V30 3569 H 335.809 -2.64711 2.92099 0
M  V30 3570 H 337.097 -3.74858 3.44034 0
M  V30 3571 H 336.495 -5.59301 0.848431 0
M  V30 3572 H 335.052 -6.37542 1.35585 0
M  V30 3573 N 338.485 -1.33259 -0.841409 0
M  V30 3574 C 339.415 -1.25926 -1.96634 0
M  V30 3575 C 340.396 -0.140349 -1.6952 0
M  V30 3576 O 341.581 -0.329707 -1.91381 0
M  V30 3577 C 338.711 -0.99512 -3.32738 0
M  V30 3578 C 337.665 -2.0767 -3.74242 0
M  V30 3579 C 336.991 -1.66474 -5.08125 0
M  V30 3580 C 338.291 -3.49318 -3.88297 0
M  V30 3581 H 339.985 -2.20046 -2.03027 0
M  V30 3582 H 337.531 -1.05931 -0.975425 0
M  V30 3583 H 339.484 -0.930323 -4.11002 0
M  V30 3584 H 338.208 -0.0183004 -3.26595 0
M  V30 3585 H 336.867 -2.13187 -2.98239 0
M  V30 3586 H 336.515 -0.675012 -4.9845 0
M  V30 3587 H 336.215 -2.3885 -5.36865 0
M  V30 3588 H 337.739 -1.61455 -5.88867 0
M  V30 3589 H 339.153 -3.46316 -4.56879 0
M  V30 3590 H 337.55 -4.20158 -4.28471 0
M  V30 3591 H 338.62 -3.8801 -2.9082 0
M  V30 3592 N 339.963 1.05934 -1.16686 0
M  V30 3593 C 341.211 1.78447 -0.948744 0
M  V30 3594 C 341.532 1.87813 0.524523 0
M  V30 3595 O 340.802 1.38945 1.38098 0
M  V30 3596 H 339.382 0.660971 -0.348033 0
M  V30 3597 H 342.044 1.27947 -1.47022 0
M  V30 3598 H 341.14 2.80394 -1.37061 0
M  V30 3599 N 341.441 0.965919 1.2453 0
M  V30 3600 C 342.388 0.49402 2.25451 0
M  V30 3601 C 343.358 -0.45948 1.59618 0
M  V30 3602 O 344.543 -0.370238 1.87173 0
M  V30 3603 C 341.683 -0.211359 3.44452 0
M  V30 3604 C 340.796 0.7807 4.24887 0
M  V30 3605 C 339.931 0.0516105 5.31175 0
M  V30 3606 C 338.97 1.03385 6.03306 0
M  V30 3607 N 338.107 0.334887 7.01301 0
M  V30 3608 H 342.947 1.35946 2.65184 0
M  V30 3609 H 340.484 0.681515 1.3036 0
M  V30 3610 H 342.442 -0.637 4.12308 0
M  V30 3611 H 341.072 -1.04077 3.05562 0
M  V30 3612 H 340.124 1.32479 3.56586 0
M  V30 3613 H 341.436 1.52978 4.74762 0
M  V30 3614 H 340.59 -0.432114 6.05159 0
M  V30 3615 H 339.329 -0.730179 4.82203 0
M  V30 3616 H 338.334 1.52847 5.28127 0
M  V30 3617 H 339.559 1.81606 6.54367 0
M  V30 3618 H 337.505 -0.427959 6.54603 0
M  V30 3619 H 337.422 1.02287 7.49048 0
M  V30 3620 H 338.69 -0.126928 7.79397 0
M  V30 3621 N 342.919 -1.39368 0.735821 0
M  V30 3622 C 343.851 -2.2913 0.0567723 0
M  V30 3623 C 344.864 -1.46859 -0.702589 0
M  V30 3624 O 346.053 -1.69925 -0.546616 0
M  V30 3625 C 343.153 -3.25492 -0.943823 0
M  V30 3626 C 342.326 -4.36709 -0.24581 0
M  V30 3627 C 341.385 -5.13376 -1.15463 0
M  V30 3628 O 340.411 -5.65683 -0.631803 0
M  V30 3629 N 341.613 -5.24656 -2.48427 0
M  V30 3630 H 344.378 -2.88047 0.827582 0
M  V30 3631 H 341.939 -1.50957 0.585112 0
M  V30 3632 H 343.931 -3.73657 -1.55443 0
M  V30 3633 H 342.501 -2.676 -1.61583 0
M  V30 3634 H 341.721 -3.9041 0.545286 0
M  V30 3635 H 343.009 -5.08244 0.237891 0
M  V30 3636 H 342.407 -4.83679 -2.93379 0
M  V30 3637 H 340.964 -5.76258 -3.04582 0
M  V30 3638 N 344.397 -0.483516 -1.5 0
M  V30 3639 C 345.307 0.309172 -2.32554 0
M  V30 3640 C 346.323 0.984159 -1.43493 0
M  V30 3641 O 347.499 0.969399 -1.76535 0
M  V30 3642 C 344.564 1.36979 -3.18493 0
M  V30 3643 C 343.625 0.710095 -4.23387 0
M  V30 3644 C 342.858 1.72018 -5.05218 0
M  V30 3645 O 343.081 2.94813 -4.88305 0
M  V30 3646 O 342.015 1.28515 -5.8802 0
M  V30 3647 H 345.841 -0.366064 -3.01486 0
M  V30 3648 H 343.426 -0.24514 -1.47375 0
M  V30 3649 H 345.308 1.98385 -3.71781 0
M  V30 3650 H 343.983 2.02828 -2.52275 0
M  V30 3651 H 342.89 0.0567539 -3.74057 0
M  V30 3652 H 344.223 0.0943557 -4.9211 0
M  V30 3653 N 345.875 1.56104 -0.216619 0
M  V30 3654 C 346.808 2.16026 0.735395 0
M  V30 3655 C 347.786 1.1032 1.1945 0
M  V30 3656 O 348.97 1.38549 1.27814 0
M  V30 3657 C 346.097 2.73656 1.99575 0
M  V30 3658 C 345.143 3.92146 1.67702 0
M  V30 3659 S 345.976 5.29397 0.806145 0
M  V30 3660 C 347.132 5.90463 2.07617 0
M  V30 3661 H 347.365 2.96439 0.226072 0
M  V30 3662 H 344.898 1.544 -0.00136639 0
M  V30 3663 H 346.856 3.075 2.71945 0
M  V30 3664 H 345.517 1.93245 2.47619 0
M  V30 3665 H 344.71 4.30954 2.61332 0
M  V30 3666 H 344.312 3.59423 1.03398 0
M  V30 3667 H 346.604 6.06136 3.02664 0
M  V30 3668 H 347.547 6.86589 1.73207 0
M  V30 3669 H 347.955 5.19252 2.21445 0
M  V30 3670 N 347.353 -0.0568162 1.57498 0
M  V30 3671 C 348.599 -0.75422 1.88253 0
M  V30 3672 C 348.932 -1.76461 0.810865 0
M  V30 3673 O 348.207 -1.93691 -0.177259 0
M  V30 3674 C 348.49 -1.44878 3.2967 0
M  V30 3675 C 348.343 -0.453789 4.47505 0
M  V30 3676 C 349.662 -2.38994 3.69554 0
M  V30 3677 H 346.781 -0.272724 0.684683 0
M  V30 3678 H 349.423 -0.0172113 1.89992 0
M  V30 3679 H 347.573 -2.077 3.28318 0
M  V30 3680 H 349.245 0.170371 4.60985 0
M  V30 3681 H 347.488 0.229552 4.33192 0
M  V30 3682 H 348.159 -0.977699 5.43273 0
M  V30 3683 H 350.635 -1.86239 3.72095 0
M  V30 3684 H 349.511 -2.84587 4.69363 0
M  V30 3685 H 349.772 -3.24461 3.00296 0
M  V30 3686 N 348.832 -1.54138 -0.328536 0
M  V30 3687 C 350.248 -1.44736 -0.672574 0
M  V30 3688 C 350.448 -0.616217 -1.91846 0
M  V30 3689 O 349.504 -0.113067 -2.52247 0
M  V30 3690 C 350.817 -2.884 -0.851217 0
M  V30 3691 C 352.365 -2.98271 -0.948877 0
M  V30 3692 C 352.84 -4.43074 -1.15973 0
M  V30 3693 N 354.331 -4.46665 -1.22658 0
M  V30 3694 C 355.066 -5.55857 -1.40751 0
M  V30 3695 N 354.562 -6.75026 -1.5592 0
M  V30 3696 N 356.355 -5.43495 -1.4342 0
M  V30 3697 H 348.506 -2.06661 0.490421 0
M  V30 3698 H 350.769 -0.934812 0.157579 0
M  V30 3699 H 350.475 -3.51699 -0.00704236 0
M  V30 3700 H 350.349 -3.34225 -1.74853 0
M  V30 3701 H 352.736 -2.35102 -1.78356 0
M  V30 3702 H 352.817 -2.55785 -0.0281435 0
M  V30 3703 H 352.461 -5.06827 -0.329915 0
M  V30 3704 H 352.391 -4.83165 -2.09426 0
M  V30 3705 H 354.882 -3.60797 -1.124 0
M  V30 3706 H 355.195 -7.54004 -1.69404 0
M  V30 3707 H 353.54 -6.77944 -1.53027 0
M  V30 3708 H 356.731 -4.49349 -1.31162 0
M  V30 3709 H 356.904 -6.28649 -1.57178 0
M  V30 3710 N 350.31 0.590341 -1.46126 0
M  V30 3711 C 351.556 1.35082 -1.51264 0
M  V30 3712 C 351.889 1.93534 -0.160711 0
M  V30 3713 O 351.164 1.76045 0.826956 0
M  V30 3714 C 351.447 2.48588 -2.6053 0
M  V30 3715 C 351.3 1.95221 -4.05227 0
M  V30 3716 C 352.619 3.50662 -2.6594 0
M  V30 3717 H 349.738 0.489803 -0.550692 0
M  V30 3718 H 352.38 0.663887 -1.78024 0
M  V30 3719 H 350.53 3.07186 -2.37843 0
M  V30 3720 H 352.202 1.41139 -4.39178 0
M  V30 3721 H 350.445 1.26101 -4.15068 0
M  V30 3722 H 351.116 2.77121 -4.77397 0
M  V30 3723 H 353.592 3.01934 -2.86313 0
M  V30 3724 H 352.468 4.27551 -3.44226 0
M  V30 3725 H 352.729 4.07399 -1.71694 0
M  V30 3726 N 351.788 1.33704 0.83433 0
M  V30 3727 C 352.718 1.26967 1.95963 0
M  V30 3728 C 353.699 0.149337 1.69443 0
M  V30 3729 O 354.884 0.339852 1.91203 0
M  V30 3730 C 352.014 1.01275 3.32206 0
M  V30 3731 C 350.968 2.09652 3.73136 0
M  V30 3732 C 350.294 1.69166 5.07235 0
M  V30 3733 C 351.594 3.51372 3.86439 0
M  V30 3734 H 353.288 2.2112 2.01857 0
M  V30 3735 H 350.834 1.06447 0.969793 0
M  V30 3736 H 352.787 0.952106 4.10503 0
M  V30 3737 H 351.511 0.0356203 3.26581 0
M  V30 3738 H 350.17 2.14766 2.97104 0
M  V30 3739 H 349.818 0.701437 4.98085 0
M  V30 3740 H 349.518 2.41694 5.35591 0
M  V30 3741 H 351.042 1.64576 5.88003 0
M  V30 3742 H 352.456 3.48734 4.55036 0
M  V30 3743 H 350.853 4.22425 4.26236 0
M  V30 3744 H 351.923 3.89546 2.88759 0
M  V30 3745 N 353.266 -1.05314 1.17247 0
M  V30 3746 C 354.196 -2.1498 0.911362 0
M  V30 3747 C 355.177 -1.69471 -0.146169 0
M  V30 3748 O 356.362 -1.942 0.003812 0
M  V30 3749 C 353.492 -3.4472 0.422528 0
M  V30 3750 C 352.446 -4.03789 1.4191 0
M  V30 3751 C 351.772 -5.28858 0.788274 0
M  V30 3752 C 353.072 -4.41418 2.7919 0
M  V30 3753 H 354.766 -2.3708 1.82848 0
M  V30 3754 H 352.312 -1.13938 0.880569 0
M  V30 3755 H 354.265 -4.20787 0.227289 0
M  V30 3756 H 352.989 -3.22269 -0.530123 0
M  V30 3757 H 351.648 -3.2979 1.60106 0
M  V30 3758 H 351.296 -5.02709 -0.171173 0
M  V30 3759 H 350.996 -5.69338 1.45353 0
M  V30 3760 H 352.52 -6.07612 0.603282 0
M  V30 3761 H 353.934 -5.08524 2.64719 0
M  V30 3762 H 352.331 -4.92913 3.42282 0
M  V30 3763 H 353.401 -3.51819 3.33693 0
M  V30 3764 N 354.744 -0.972509 -1.24016 0
M  V30 3765 C 355.674 -0.525548 -2.27509 0
M  V30 3766 C 356.655 0.437262 -1.64384 0
M  V30 3767 O 357.84 0.332343 -1.91335 0
M  V30 3768 C 354.97 0.180448 -3.46831 0
M  V30 3769 C 353.924 -0.698859 -4.22256 0
M  V30 3770 C 353.25 0.138903 -5.3452 0
M  V30 3771 C 354.55 -1.98582 -4.83076 0
M  V30 3772 H 356.244 -1.39058 -2.65148 0
M  V30 3773 H 353.79 -0.67009 -1.27459 0
M  V30 3774 H 355.743 0.504387 -4.18371 0
M  V30 3775 H 354.467 1.07987 -3.08231 0
M  V30 3776 H 353.126 -1.00614 -3.52523 0
M  V30 3777 H 352.774 1.03862 -4.9216 0
M  V30 3778 H 352.474 -0.446259 -5.85903 0
M  V30 3779 H 353.998 0.457404 -6.08884 0
M  V30 3780 H 355.412 -1.72715 -5.46665 0
M  V30 3781 H 353.809 -2.5181 -5.44713 0
M  V30 3782 H 354.879 -2.67769 -4.04262 0
M  V30 3783 N 356.222 1.38976 -0.743202 0
M  V30 3784 C 357.462 2.02193 -0.29954 0
M  V30 3785 C 357.826 1.5771 1.09506 0
M  V30 3786 O 359.027 2.13184 1.63726 0
M  V30 3787 C 357.298 3.55077 -0.406822 0
M  V30 3788 S 358.857 4.38778 -0.0442109 0
M  V30 3789 H 355.675 0.701335 -0.116836 0
M  V30 3790 H 358.277 1.69651 -0.971529 0
M  V30 3791 H 356.981 3.84942 -1.42295 0
M  V30 3792 H 356.512 3.92383 0.282707 0
M  V30 3793 H 358.527 4.82222 1.16947 0
M  V30 3794 N 357.7 0.491464 1.49741 0
M  V30 3795 C 358.648 -0.305837 2.30581 0
M  V30 3796 C 359.642 -0.971642 1.38764 0
M  V30 3797 O 360.848 -0.90042 1.5586 0
M  V30 3798 H 357.223 -0.117482 0.742767 0
M  V30 3799 H 359.194 0.396093 2.95759 0
M  V30 3800 C 357.943 -1.36319 3.19863 0
M  V30 3801 H 357.266 -0.860258 3.90435 0
M  V30 3802 H 358.706 -1.89323 3.79385 0
M  V30 3803 C 357.165 -2.37621 2.38826 0
M  V30 3804 O 357.695 -3.43311 2.08567 0
M  V30 3805 N 355.901 -2.09849 2.01026 0
M  V30 3806 H 355.448 -1.23922 2.25834 0
M  V30 3807 H 355.406 -2.77859 1.47112 0
M  V30 3808 N 359.178 -1.55987 0.224894 0
M  V30 3809 C 360.141 -2.19178 -0.670348 0
M  V30 3810 C 361.141 -1.15461 -1.11917 0
M  V30 3811 O 362.331 -1.40675 -1.02743 0
M  V30 3812 C 359.463 -2.81777 -1.9187 0
M  V30 3813 H 360.656 -2.99662 -0.119364 0
M  V30 3814 H 358.209 -1.5628 -0.0247128 0
M  V30 3815 H 358.944 -2.05172 -2.51147 0
M  V30 3816 H 358.729 -3.57732 -1.60531 0
M  V30 3817 H 360.219 -3.30205 -2.55645 0
M  V30 3818 N 360.656 0.0484629 -1.57525 0
M  V30 3819 C 362.072 0.40375 -1.54409 0
M  V30 3820 C 362.272 1.77786 -0.948384 0
M  V30 3821 O 361.328 2.46189 -0.560983 0
M  V30 3822 C 362.641 0.323394 -2.98956 0
M  V30 3823 C 364.189 0.401892 -3.10409 0
M  V30 3824 C 364.664 0.351195 -4.56652 0
M  V30 3825 N 366.155 0.410576 -4.61377 0
M  V30 3826 C 366.89 0.393933 -5.72045 0
M  V30 3827 N 366.386 0.330724 -6.9201 0
M  V30 3828 N 368.179 0.442227 -5.60358 0
M  V30 3829 H 360.33 -0.851016 -1.94606 0
M  V30 3830 H 362.593 -0.321721 -0.89174 0
M  V30 3831 H 362.299 -0.62011 -3.4619 0
M  V30 3832 H 362.173 1.12463 -3.60044 0
M  V30 3833 H 364.56 1.33582 -2.63134 0
M  V30 3834 H 364.641 -0.428342 -2.52188 0
M  V30 3835 H 364.285 -0.578987 -5.04589 0
M  V30 3836 H 364.215 1.19928 -5.12762 0
M  V30 3837 H 366.706 0.462729 -3.75056 0
M  V30 3838 H 367.019 0.322592 -7.72126 0
M  V30 3839 H 365.364 0.29706 -6.94365 0
M  V30 3840 H 368.555 0.489464 -4.65534 0
M  V30 3841 H 368.728 0.425788 -6.466 0
M  V30 3842 N 362.134 1.5431 0.320358 0
M  V30 3843 C 363.374 1.74395 1.0661 0
M  V30 3844 C 363.738 0.508602 1.85141 0
M  V30 3845 O 364.939 0.586856 2.62316 0
M  V30 3846 C 363.21 2.98619 1.96371 0
M  V30 3847 S 364.769 3.39621 2.77854 0
M  V30 3848 H 361.587 0.613204 0.359863 0
M  V30 3849 H 364.189 1.9249 0.341727 0
M  V30 3850 H 362.893 3.86673 1.3752 0
M  V30 3851 H 362.424 2.83055 2.73209 0
M  V30 3852 H 364.439 2.95172 3.98858 0
M  V30 3853 N 363.613 -0.582584 1.46437 0
M  V30 3854 C 364.561 -1.71272 1.5738 0
M  V30 3855 C 365.555 -1.63524 0.44229 0
M  V30 3856 O 366.761 -1.69016 0.619166 0
M  V30 3857 H 363.136 -0.566273 0.494813 0
M  V30 3858 H 365.107 -1.59174 2.52401 0
M  V30 3859 C 363.856 -3.09658 1.58136 0
M  V30 3860 H 363.179 -3.16291 2.44541 0
M  V30 3861 H 364.619 -3.88494 1.69847 0
M  V30 3862 C 363.078 -3.3547 0.310026 0
M  V30 3863 O 363.608 -3.97199 -0.599683 0
M  V30 3864 N 361.814 -2.89925 0.197901 0
M  V30 3865 H 361.361 -2.39873 0.93909 0
M  V30 3866 H 361.319 -3.07568 -0.65185 0
M  V30 3867 N 365.091 -1.34144 -0.827227 0
M  V30 3868 C 366.34 -1.25602 -1.5782 0
M  V30 3869 C 366.653 0.173445 -1.94829 0
M  V30 3870 O 367.859 0.380984 -2.68814 0
M  V30 3871 C 366.315 -2.20151 -2.84713 0
M  V30 3872 C 365.923 -3.68331 -2.55021 0
M  V30 3873 C 367.667 -2.20508 -3.62735 0
M  V30 3874 C 365.574 -4.54762 -3.78082 0
M  V30 3875 H 364.504 -0.466573 -0.592306 0
M  V30 3876 H 367.155 -1.59283 -0.911116 0
M  V30 3877 H 365.537 -1.79417 -3.53023 0
M  V30 3878 H 366.711 -4.17577 -1.94849 0
M  V30 3879 H 365.026 -3.7038 -1.90283 0
M  V30 3880 H 367.623 -2.82306 -4.54101 0
M  V30 3881 H 367.966 -1.20322 -3.98533 0
M  V30 3882 H 368.499 -2.59664 -3.01362 0
M  V30 3883 H 365.238 -5.55867 -3.47407 0
M  V30 3884 H 364.758 -4.10254 -4.37552 0
M  V30 3885 H 366.437 -4.69153 -4.45538 0
M  V30 3886 N 366.569 1.04691 -1.17803 0
M  V30 3887 C 367.502 2.12068 -0.842765 0
M  V30 3888 C 368.48 1.61455 0.192608 0
M  V30 3889 O 369.664 1.88359 0.072995 0
M  V30 3890 C 366.791 3.37715 -0.258063 0
M  V30 3891 C 365.837 4.07164 -1.26962 0
M  V30 3892 S 366.67 4.55047 -2.82299 0
M  V30 3893 C 367.826 5.83935 -2.25323 0
M  V30 3894 H 368.059 2.4018 -1.75217 0
M  V30 3895 H 365.592 1.17366 -1.00323 0
M  V30 3896 H 367.55 4.10435 0.0727935 0
M  V30 3897 H 366.211 3.0773 0.629357 0
M  V30 3898 H 365.404 4.9746 -0.809263 0
M  V30 3899 H 365.006 3.40533 -1.54639 0
M  V30 3900 H 367.298 6.57552 -1.63192 0
M  V30 3901 H 368.241 6.34725 -3.13894 0
M  V30 3902 H 368.649 5.3874 -1.68582 0
M  V30 3903 N 368.047 0.979072 1.23499 0
M  V30 3904 C 369.295 0.645941 1.91499 0
M  V30 3905 C 369.616 -0.822948 1.76784 0
M  V30 3906 O 368.886 -1.58854 1.14639 0
M  V30 3907 H 367.466 0.235919 0.708767 0
M  V30 3908 H 370.128 1.2426 1.50152 0
M  V30 3909 H 369.224 0.896411 2.9895 0
M  V30 3910 N 369.525 -1.3858 0.750561 0
M  V30 3911 C 370.936 -1.82927 0.373438 0
M  V30 3912 C 371.287 -1.62634 -1.09748 0
M  V30 3913 O 370.412 -1.12588 -1.84805 0
M  V30 3914 C 371.007 -3.32088 0.671029 0
M  V30 3915 C 369.566 -3.74795 0.34722 0
M  V30 3916 C 368.713 -2.61391 0.92575 0
M  V30 3917 H 371.664 -1.27351 0.946958 0
M  V30 3918 H 371.685 -3.80465 -0.0518269 0
M  V30 3919 H 371.197 -3.46826 1.74164 0
M  V30 3920 H 369.298 -3.65638 -0.716933 0
M  V30 3921 H 369.411 -4.71667 0.840656 0
M  V30 3922 H 367.775 -2.52265 0.351327 0
M  V30 3923 H 368.558 -2.78929 2.00133 0
M  V30 3924 N 371.003 -0.499398 -1.49478 0
M  V30 3925 C 371.951 0.293604 -2.3074 0
M  V30 3926 C 372.945 0.96427 -1.39277 0
M  V30 3927 O 374.151 0.892141 -1.56336 0
M  V30 3928 H 370.526 0.113541 -0.743379 0
M  V30 3929 H 372.497 -0.411772 -2.95545 0
M  V30 3930 C 371.246 1.3462 -3.20582 0
M  V30 3931 H 370.569 0.83954 -3.90886 0
M  V30 3932 H 372.009 1.87308 -3.80384 0
M  V30 3933 C 370.468 2.36351 -2.40083 0
M  V30 3934 O 370.998 3.422 -2.10385 0
M  V30 3935 N 369.204 2.0878 -2.02137 0
M  V30 3936 H 368.751 1.22723 -2.26488 0
M  V30 3937 H 368.709 2.77075 -1.48583 0
M  V30 3938 N 372.481 1.55866 -0.233164 0
M  V30 3939 C 373.729 1.9821 0.394593 0
M  V30 3940 C 374.05 1.12234 1.59463 0
M  V30 3941 O 373.32 0.201981 1.94856 0
M  V30 3942 H 371.9 0.732034 0.148778 0
M  V30 3943 H 374.562 1.92107 -0.32876 0
M  V30 3944 H 373.658 3.03845 0.713063 0
M  V30 3945 N 373.959 -0.0401083 1.57549 0
M  V30 3946 C 375.189 -0.744115 1.92734 0
M  V30 3947 C 375.597 -1.70005 0.830348 0
M  V30 3948 O 374.94 -1.82576 -0.20286 0
M  V30 3949 C 375.002 -1.56516 3.2364 0
M  V30 3950 C 374.666 -0.7752 4.50377 0
M  V30 3951 C 375.663 -0.0803326 5.19838 0
M  V30 3952 C 373.348 -0.733002 4.96923 0
M  V30 3953 C 375.342 0.646154 6.34116 0
M  V30 3954 C 373.029 -0.00276321 6.111 0
M  V30 3955 C 374.027 0.685585 6.7955 0
M  V30 3956 O 373.715 1.40399 7.91545 0
M  V30 3957 H 373.447 -0.214861 0.640945 0
M  V30 3958 H 376.001 -0.00503675 2.05399 0
M  V30 3959 H 374.231 -2.3478 3.07271 0
M  V30 3960 H 375.92 -2.15076 3.44234 0
M  V30 3961 H 376.686 -0.104035 4.84888 0
M  V30 3962 H 372.565 -1.25827 4.43496 0
M  V30 3963 H 376.109 1.18398 6.87479 0
M  V30 3964 H 372.006 0.0229012 6.45496 0
M  V30 3965 H 372.774 1.31653 8.07843 0
M  V30 3966 N 375.437 -1.54477 -0.31217 0
M  V30 3967 C 376.848 -1.64344 -0.885891 0
M  V30 3968 C 377.199 -0.54485 -1.88483 0
M  V30 3969 O 376.324 0.320387 -2.14015 0
M  V30 3970 C 376.919 -2.97908 -1.61357 0
M  V30 3971 C 375.478 -3.09933 -2.13585 0
M  V30 3972 C 374.625 -2.59971 -0.964897 0
M  V30 3973 H 377.576 -1.58448 -0.0894528 0
M  V30 3974 H 377.597 -2.88706 -2.47848 0
M  V30 3975 H 377.109 -3.77845 -0.886277 0
M  V30 3976 H 375.21 -2.34694 -2.89395 0
M  V30 3977 H 375.323 -4.15916 -2.37804 0
M  V30 3978 H 373.687 -2.16147 -1.34731 0
M  V30 3979 H 374.47 -3.42376 -0.251742 0
M  V30 3980 N 376.915 0.57481 -1.46744 0
M  V30 3981 C 378.164 1.32898 -1.51727 0
M  V30 3982 C 378.477 1.948 -0.176692 0
M  V30 3983 O 379.683 2.71299 -0.104385 0
M  V30 3984 C 378.139 2.40901 -2.67385 0
M  V30 3985 C 377.747 1.85266 -4.07898 0
M  V30 3986 C 379.491 3.17609 -2.81646 0
M  V30 3987 C 377.398 2.90945 -5.14883 0
M  V30 3988 H 376.328 0.499631 -0.564699 0
M  V30 3989 H 378.979 0.612536 -1.72975 0
M  V30 3990 H 377.361 3.15379 -2.39483 0
M  V30 3991 H 378.535 1.17278 -4.45626 0
M  V30 3992 H 376.85 1.21199 -3.98371 0
M  V30 3993 H 379.447 3.96493 -3.58744 0
M  V30 3994 H 379.79 3.70696 -1.89448 0
M  V30 3995 H 380.323 2.50239 -3.09233 0
M  V30 3996 H 377.062 2.42736 -6.089 0
M  V30 3997 H 376.582 3.57398 -4.81691 0
M  V30 3998 H 378.261 3.54755 -5.41071 0
M  V30 3999 N 378.394 1.34581 0.820102 0
M  V30 4000 C 379.344 1.22943 1.92013 0
M  V30 4001 C 380.328 0.127802 1.60392 0
M  V30 4002 O 381.52 0.357737 1.73347 0
M  V30 4003 C 378.649 0.989938 3.28717 0
M  V30 4004 C 377.735 2.13486 3.66449 0
M  V30 4005 N 378.126 3.38625 3.75722 0
M  V30 4006 C 376.424 2.04573 3.96315 0
M  V30 4007 C 377.125 4.13832 4.08801 0
M  V30 4008 N 376.101 3.42451 4.22171 0
M  V30 4009 H 379.903 2.17771 1.97365 0
M  V30 4010 H 377.417 1.2686 1.01392 0
M  V30 4011 H 379.414 0.887462 4.07345 0
M  V30 4012 H 378.074 0.0503691 3.24661 0
M  V30 4013 H 379.085 3.73143 3.59144 0
M  V30 4014 H 375.762 1.1839 4.00362 0
M  V30 4015 H 377.152 5.21909 4.23156 0
M  V30 4016 N 379.872 -1.04064 1.18357 0
M  V30 4017 C 381.097 -1.81454 1.00445 0
M  V30 4018 C 381.522 -1.82823 -0.442423 0
M  V30 4019 O 380.88 -1.24555 -1.31741 0
M  V30 4020 C 380.928 -3.24925 1.56384 0
M  V30 4021 O 380.032 -4.04856 0.785209 0
M  V30 4022 H 379.373 -0.560604 0.355835 0
M  V30 4023 H 381.903 -1.31059 1.57114 0
M  V30 4024 H 381.913 -3.75702 1.59097 0
M  V30 4025 H 380.588 -3.23244 2.61699 0
M  V30 4026 H 379.165 -3.63537 0.830399 0
M  V30 4027 N 381.35 -0.985608 -1.22978 0
M  V30 4028 C 382.313 -0.535071 -2.22867 0
M  V30 4029 C 383.313 0.378123 -1.56291 0
M  V30 4030 O 384.503 0.171092 -1.73358 0
M  V30 4031 C 381.635 0.222702 -3.40172 0
M  V30 4032 H 382.828 -1.41835 -2.6424 0
M  V30 4033 H 380.381 -0.772042 -1.35901 0
M  V30 4034 H 381.116 1.12229 -3.04262 0
M  V30 4035 H 380.901 -0.43288 -3.89703 0
M  V30 4036 H 382.391 0.526335 -4.1427 0
M  V30 4037 N 382.828 1.3818 -0.7579 0
M  V30 4038 C 383.761 2.28055 -0.0814093 0
M  V30 4039 C 384.739 1.45603 0.723779 0
M  V30 4040 O 385.923 1.74961 0.701491 0
M  V30 4041 C 383.05 3.2676 0.891394 0
M  V30 4042 C 382.096 4.26153 0.171909 0
M  V30 4043 S 382.929 5.23434 -1.13035 0
M  V30 4044 C 384.085 6.25694 -0.160727 0
M  V30 4045 H 384.318 2.85082 -0.84353 0
M  V30 4046 H 381.851 1.44246 -0.550671 0
M  V30 4047 H 383.809 3.8414 1.44731 0
M  V30 4048 H 382.47 2.68706 1.62652 0
M  V30 4049 H 381.663 4.95738 0.908843 0
M  V30 4050 H 381.265 3.72691 -0.312606 0
M  V30 4051 H 383.557 6.74161 0.671773 0
M  V30 4052 H 384.5 7.03285 -0.824353 0
M  V30 4053 H 384.908 5.64064 0.221892 0
M  V30 4054 N 384.306 0.507319 1.49211 0
M  V30 4055 C 385.253 -0.267728 2.29242 0
M  V30 4056 C 386.223 -0.954609 1.35928 0
M  V30 4057 O 387.408 -0.960046 1.64887 0
M  V30 4058 C 384.548 -1.32243 3.18756 0
M  V30 4059 C 383.661 -0.64669 4.27132 0
M  V30 4060 C 382.796 -1.68238 5.03855 0
M  V30 4061 C 381.835 -0.98885 6.0406 0
M  V30 4062 N 380.972 -1.96903 6.73924 0
M  V30 4063 H 385.812 0.420968 2.95012 0
M  V30 4064 H 383.349 0.219443 1.45454 0
M  V30 4065 H 385.307 -1.94599 3.69036 0
M  V30 4066 H 383.937 -1.97981 2.54958 0
M  V30 4067 H 382.989 0.0902926 3.80293 0
M  V30 4068 H 384.301 -0.101058 4.98698 0
M  V30 4069 H 383.455 -2.38081 5.58034 0
M  V30 4070 H 382.194 -2.26187 4.32077 0
M  V30 4071 H 381.199 -0.276222 5.49106 0
M  V30 4072 H 382.424 -0.415767 6.77826 0
M  V30 4073 H 380.37 -2.53803 6.04913 0
M  V30 4074 H 380.287 -1.47423 7.41487 0
M  V30 4075 H 381.555 -2.66015 7.32705 0
M  V30 4076 N 385.784 -1.5574 0.241426 0
M  V30 4077 C 387.031 -1.9881 -0.384836 0
M  V30 4078 C 387.359 -1.12947 -1.58346 0
M  V30 4079 O 386.614 -0.178993 -1.9488 0
M  V30 4080 C 386.913 -3.47308 -0.843317 0
M  V30 4081 C 386.579 -4.50223 0.246946 0
M  V30 4082 C 385.241 -4.78088 0.546399 0
M  V30 4083 C 387.593 -5.11841 0.983282 0
M  V30 4084 C 384.921 -5.64846 1.58636 0
M  V30 4085 C 387.273 -5.99727 2.01272 0
M  V30 4086 C 385.937 -6.25927 2.31888 0
M  V30 4087 H 385.207 -0.727496 -0.140821 0
M  V30 4088 H 387.854 -1.8831 0.348106 0
M  V30 4089 H 386.159 -3.55112 -1.65537 0
M  V30 4090 H 387.856 -3.78017 -1.33806 0
M  V30 4091 H 384.446 -4.286 0.00340639 0
M  V30 4092 H 388.63 -4.90366 0.765182 0
M  V30 4093 H 383.886 -5.83403 1.82896 0
M  V30 4094 H 388.06 -6.46517 2.58823 0
M  V30 4095 H 385.687 -6.92949 3.12611 0
M  V30 4096 N 387.262 0.0317525 -1.57568 0
M  V30 4097 C 388.487 0.738664 -1.938 0
M  V30 4098 C 388.912 1.68242 -0.841208 0
M  V30 4099 O 388.27 1.80157 0.203267 0
M  V30 4100 C 388.318 1.47417 -3.29091 0
M  V30 4101 O 387.422 2.5872 -3.2115 0
M  V30 4102 H 386.763 0.198856 -0.633524 0
M  V30 4103 H 389.293 -0.0119713 -2.04596 0
M  V30 4104 H 389.303 1.84468 -3.63917 0
M  V30 4105 H 387.978 0.781988 -4.08482 0
M  V30 4106 H 386.555 2.24231 -2.97951 0
M  V30 4107 N 388.74 1.54641 0.303973 0
M  V30 4108 C 389.672 1.81754 1.39636 0
M  V30 4109 C 390.685 0.70035 1.46966 0
M  V30 4110 O 391.874 0.97778 1.49338 0
M  V30 4111 C 388.974 1.93785 2.7803 0
M  V30 4112 C 388.147 3.24156 2.93669 0
M  V30 4113 C 387.206 3.26641 4.12544 0
M  V30 4114 O 386.232 4.00187 4.04771 0
M  V30 4115 N 387.434 2.5182 5.23036 0
M  V30 4116 H 390.199 2.76031 1.16734 0
M  V30 4117 H 387.76 1.54178 0.494033 0
M  V30 4118 H 389.752 1.92852 3.55795 0
M  V30 4119 H 388.322 1.06515 2.93893 0
M  V30 4120 H 387.542 3.37887 2.03042 0
M  V30 4121 H 388.83 4.10195 3.01027 0
M  V30 4122 H 388.228 1.91692 5.32232 0
M  V30 4123 H 386.785 2.56644 5.99147 0
M  V30 4124 N 390.218 -0.567019 1.47046 0
M  V30 4125 C 391.165 -1.67489 1.58796 0
M  V30 4126 C 392.135 -1.60399 0.43144 0
M  V30 4127 O 393.32 -1.79378 0.650233 0
M  V30 4128 C 390.46 -3.05821 1.59899 0
M  V30 4129 C 389.573 -3.2342 2.86397 0
M  V30 4130 C 388.708 -4.52093 2.789 0
M  V30 4131 C 387.747 -4.6309 4.00267 0
M  V30 4132 N 386.884 -5.83106 3.91064 0
M  V30 4133 H 391.724 -1.56785 2.53422 0
M  V30 4134 H 389.261 -0.763896 1.2571 0
M  V30 4135 H 391.219 -3.8591 1.58522 0
M  V30 4136 H 389.849 -3.15384 0.687929 0
M  V30 4137 H 388.901 -2.3683 2.97684 0
M  V30 4138 H 390.213 -3.27412 3.76301 0
M  V30 4139 H 389.367 -5.4043 2.75718 0
M  V30 4140 H 388.106 -4.50565 1.86662 0
M  V30 4141 H 387.111 -3.73168 4.03765 0
M  V30 4142 H 388.336 -4.66386 4.93621 0
M  V30 4143 H 386.282 -5.82546 3.01623 0
M  V30 4144 H 386.199 -5.88434 4.74638 0
M  V30 4145 H 387.467 -6.73831 3.91882 0
M  V30 4146 N 391.696 -1.35014 -0.812953 0
M  V30 4147 C 392.944 -1.27678 -1.56661 0
M  V30 4148 C 393.265 0.150359 -1.94419 0
M  V30 4149 O 392.535 1.08532 -1.63088 0
M  V30 4150 H 391.115 -0.469602 -0.580933 0
M  V30 4151 H 393.777 -1.69043 -0.970076 0
M  V30 4152 H 392.873 -1.88833 -2.48492 0
M  V30 4153 N 393.175 1.03435 -1.18907 0
M  V30 4154 C 394.415 1.78302 -0.999391 0
M  V30 4155 C 394.779 1.86353 0.462219 0
M  V30 4156 O 395.98 2.57489 0.771543 0
M  V30 4157 C 394.251 3.17362 -1.64365 0
M  V30 4158 S 395.81 4.08488 -1.6026 0
M  V30 4159 H 392.628 0.613861 -0.358742 0
M  V30 4160 H 395.23 1.23979 -1.51161 0
M  V30 4161 H 393.934 3.09116 -2.69955 0
M  V30 4162 H 393.465 3.76762 -1.13199 0
M  V30 4163 H 395.48 4.92274 -0.622932 0
M  V30 4164 N 394.653 0.992116 1.22453 0
M  V30 4165 C 395.616 0.546883 2.2258 0
M  V30 4166 C 396.616 -0.369829 1.56489 0
M  V30 4167 O 397.806 -0.161896 1.73446 0
M  V30 4168 C 394.938 -0.204659 3.40285 0
M  V30 4169 H 396.131 1.43234 2.63484 0
M  V30 4170 H 393.684 0.779239 1.3549 0
M  V30 4171 H 394.419 -1.10614 3.04853 0
M  V30 4172 H 394.204 0.45354 3.89468 0
M  V30 4173 H 395.694 -0.504358 4.14543 0
M  V30 4174 N 396.131 -1.37776 0.765217 0
M  V30 4175 C 397.041 -2.34135 0.147666 0
M  V30 4176 C 398.057 -1.59854 -0.687215 0
M  V30 4177 O 399.233 -1.91983 -0.608659 0
M  V30 4178 C 396.298 -3.3901 -0.72617 0
M  V30 4179 C 395.359 -4.2912 0.124417 0
M  V30 4180 C 394.592 -5.28986 -0.707807 0
M  V30 4181 O 394.815 -5.36205 -1.94525 0
M  V30 4182 O 393.749 -6.01779 -0.12046 0
M  V30 4183 H 397.575 -2.88664 0.943758 0
M  V30 4184 H 395.16 -1.39824 0.526277 0
M  V30 4185 H 397.042 -4.03195 -1.22524 0
M  V30 4186 H 395.717 -2.86819 -1.50056 0
M  V30 4187 H 394.624 -3.68057 0.669696 0
M  V30 4188 H 395.957 -4.84598 0.861736 0
M  V30 4189 N 397.609 -0.515225 -1.4894 0
M  V30 4190 C 398.542 0.302518 -2.26186 0
M  V30 4191 C 399.52 0.957895 -1.31389 0
M  V30 4192 O 400.704 0.985198 -1.60705 0
M  V30 4193 C 397.831 1.42719 -3.07163 0
M  V30 4194 C 396.877 0.884736 -4.17223 0
M  V30 4195 S 397.71 -0.235767 -5.34981 0
M  V30 4196 C 398.866 0.891731 -6.19515 0
M  V30 4197 H 399.099 -0.353076 -2.95196 0
M  V30 4198 H 396.632 -0.300753 -1.51443 0
M  V30 4199 H 398.59 2.07152 -3.54398 0
M  V30 4200 H 397.251 2.05445 -2.37595 0
M  V30 4201 H 396.444 1.72801 -4.73451 0
M  V30 4202 H 396.046 0.317362 -3.72651 0
M  V30 4203 H 398.338 1.79377 -6.53322 0
M  V30 4204 H 399.281 0.367751 -7.07144 0
M  V30 4205 H 399.689 1.16548 -5.52338 0
M  V30 4206 N 399.087 1.5561 -0.249682 0
M  V30 4207 C 400.336 1.98187 0.37479 0
M  V30 4208 C 400.649 1.14111 1.58865 0
M  V30 4209 O 401.855 1.46714 2.28445 0
M  V30 4210 C 400.311 3.52661 0.718192 0
M  V30 4211 C 399.919 4.45481 -0.474428 0
M  V30 4212 C 401.663 4.03888 1.3067 0
M  V30 4213 C 399.57 5.91303 -0.107026 0
M  V30 4214 H 398.5 0.740159 0.143808 0
M  V30 4215 H 401.151 1.80125 -0.350336 0
M  V30 4216 H 399.533 3.66429 1.50152 0
M  V30 4217 H 400.707 4.43473 -1.25172 0
M  V30 4218 H 399.022 4.04751 -0.978052 0
M  V30 4219 H 401.619 5.10358 1.59496 0
M  V30 4220 H 401.962 3.51401 2.23211 0
M  V30 4221 H 402.495 3.93457 0.586211 0
M  V30 4222 H 399.234 6.47833 -0.999642 0
M  V30 4223 H 398.754 5.9644 0.634013 0
M  V30 4224 H 400.433 6.46258 0.309807 0
M  V30 4225 N 400.565 -0.0233959 1.57583 0
M  V30 4226 C 401.814 -0.712133 1.8871 0
M  V30 4227 C 402.127 -1.76217 0.848944 0
M  V30 4228 O 403.333 -2.50389 1.04964 0
M  V30 4229 C 401.789 -1.3177 3.3491 0
M  V30 4230 C 401.397 -0.303715 4.46969 0
M  V30 4231 C 403.141 -1.98598 3.75179 0
M  V30 4232 C 401.048 -0.917945 5.84233 0
M  V30 4233 H 399.978 -0.269735 0.704101 0
M  V30 4234 H 402.629 0.0333114 1.8347 0
M  V30 4235 H 401.011 -2.11304 3.34913 0
M  V30 4236 H 402.185 0.465325 4.58445 0
M  V30 4237 H 400.5 0.2628 4.1557 0
M  V30 4238 H 403.097 -2.45416 4.75053 0
M  V30 4239 H 403.44 -2.80659 3.07468 0
M  V30 4240 H 403.973 -1.25831 3.77374 0
M  V30 4241 H 400.712 -0.136633 6.55358 0
M  V30 4242 H 400.232 -1.65669 5.76467 0
M  V30 4243 H 401.911 -1.4236 6.31144 0
M  V30 4244 N 402.043 -1.548 -0.295768 0
M  V30 4245 C 403.268 -1.78653 -1.05346 0
M  V30 4246 C 403.693 -0.546894 -1.79974 0
M  V30 4247 O 403.051 0.502763 -1.7419 0
M  V30 4248 C 403.099 -2.99679 -2.00561 0
M  V30 4249 O 402.203 -2.7317 -3.08953 0
M  V30 4250 H 401.544 -0.59116 -0.302367 0
M  V30 4251 H 404.074 -2.01895 -0.331598 0
M  V30 4252 H 404.084 -3.27793 -2.42932 0
M  V30 4253 H 402.759 -3.89562 -1.4565 0
M  V30 4254 H 401.336 -2.56089 -2.71059 0
M  V30 4255 N 403.521 0.559213 -1.47345 0
M  V30 4256 C 404.454 1.68201 -1.5422 0
M  V30 4257 C 405.432 1.57742 -0.394497 0
M  V30 4258 O 406.616 1.78628 -0.60201 0
M  V30 4259 C 403.743 3.0643 -1.44285 0
M  V30 4260 C 402.789 3.3534 -2.63532 0
M  V30 4261 S 403.622 3.24816 -4.25741 0
M  V30 4262 C 404.778 4.65542 -4.18355 0
M  V30 4263 H 405.011 1.62114 -2.49211 0
M  V30 4264 H 402.544 0.739871 -1.35519 0
M  V30 4265 H 404.502 3.86164 -1.3924 0
M  V30 4266 H 403.163 3.09984 -0.506816 0
M  V30 4267 H 402.356 4.36107 -2.52639 0
M  V30 4268 H 401.958 2.63221 -2.65689 0
M  V30 4269 H 404.25 5.56449 -3.86485 0
M  V30 4270 H 405.193 4.81493 -5.19202 0
M  V30 4271 H 405.601 4.43495 -3.49246 0
M  V30 4272 N 404.999 1.35443 0.805782 0
M  V30 4273 C 406.276 1.19325 1.54987 0
M  V30 4274 C 406.656 -0.227294 2.09873 0
M  V30 4275 O 406.004 -1.2309 1.92512 0
M  V30 4276 C 406.214 2.26196 2.65775 0
M  V30 4277 C 407.562 2.62043 3.34094 0
M  V30 4278 O 408.586 2.25115 2.76046 0
M  V30 4279 O 407.445 3.25542 4.38958 0
M  V30 4280 H 404.539 0.463623 0.684823 0
M  V30 4281 H 407.085 1.47127 0.845674 0
M  V30 4282 H 405.857 3.21471 2.23096 0
M  V30 4283 H 405.48 1.99667 3.43829 0
M  V30 4284 N 406.477 -1.02803 1.19454 0
M  V30 4285 C 407.702 -1.80378 1.02364 0
M  V30 4286 C 408.127 -1.83282 -0.423007 0
M  V30 4287 O 407.485 -1.25945 -1.30413 0
M  V30 4288 C 407.533 -3.23248 1.59821 0
M  V30 4289 O 406.637 -4.04 0.828105 0
M  V30 4290 H 405.978 -0.556799 0.361761 0
M  V30 4291 H 408.508 -1.29385 1.58495 0
M  V30 4292 H 408.518 -3.73994 1.63073 0
M  V30 4293 H 407.193 -3.2045 2.65113 0
M  V30 4294 H 405.77 -3.62635 0.86891 0
M  V30 4295 N 407.956 -0.998596 -1.21925 0
M  V30 4296 C 409.181 -0.696015 -1.95372 0
M  V30 4297 C 409.606 0.733826 -1.73195 0
M  V30 4298 O 408.964 1.50242 -1.01474 0
M  V30 4299 C 409.012 -1.01466 -3.4603 0
M  V30 4300 O 408.116 -0.116415 -4.12236 0
M  V30 4301 H 407.457 -0.259938 -0.611006 0
M  V30 4302 H 409.987 -1.33711 -1.54863 0
M  V30 4303 H 409.997 -0.958855 -3.96573 0
M  V30 4304 H 408.672 -2.05653 -3.61497 0
M  V30 4305 H 407.249 -0.228193 -3.72201 0
M  V30 4306 N 409.434 1.37368 -0.772513 0
M  V30 4307 C 410.366 2.28899 -0.117502 0
M  V30 4308 C 411.379 1.4867 0.663405 0
M  V30 4309 O 412.568 1.71314 0.501372 0
M  V30 4310 C 409.668 3.2788 0.857192 0
M  V30 4311 C 408.841 4.37207 0.129938 0
M  V30 4312 C 407.9 5.16257 1.01811 0
M  V30 4313 O 406.926 5.67159 0.481601 0
M  V30 4314 N 408.128 5.31058 2.3443 0
M  V30 4315 H 410.893 2.85752 -0.903662 0
M  V30 4316 H 408.454 1.49353 -0.62493 0
M  V30 4317 H 410.446 3.77647 1.45482 0
M  V30 4318 H 409.016 2.7179 1.54432 0
M  V30 4319 H 408.236 3.88827 -0.648605 0
M  V30 4320 H 409.524 5.07434 -0.372559 0
M  V30 4321 H 408.922 4.91287 2.80452 0
M  V30 4322 H 407.479 5.84131 2.89197 0
M  V30 4323 N 410.912 0.523116 1.48665 0
M  V30 4324 C 412.161 -0.01544 2.01694 0
M  V30 4325 C 412.474 -1.35975 1.40606 0
M  V30 4326 O 413.68 -1.98627 1.85093 0
M  V30 4327 C 412.136 -0.0779303 3.59816 0
M  V30 4328 C 411.744 1.26107 4.29885 0
M  V30 4329 C 413.488 -0.565678 4.20714 0
M  V30 4330 C 411.395 1.15954 5.79921 0
M  V30 4331 H 410.325 -0.00954163 0.75394 0
M  V30 4332 H 412.976 0.665865 1.70993 0
M  V30 4333 H 411.358 -0.824165 3.87329 0
M  V30 4334 H 412.532 2.02233 4.14051 0
M  V30 4335 H 410.847 1.68401 3.80828 0
M  V30 4336 H 413.444 -0.6595 5.30617 0
M  V30 4337 H 413.787 -1.56984 3.85567 0
M  V30 4338 H 414.32 0.12467 3.97605 0
M  V30 4339 H 411.059 2.13864 6.19631 0
M  V30 4340 H 410.579 0.439529 5.98187 0
M  V30 4341 H 412.258 0.847361 6.41427 0
M  V30 4342 N 412.39 -1.55475 0.257931 0
M  V30 4343 C 413.34 -2.18506 -0.651094 0
M  V30 4344 C 414.324 -1.14431 -1.13112 0
M  V30 4345 O 415.516 -1.40305 -1.07905 0
M  V30 4346 C 412.645 -2.89653 -1.84272 0
M  V30 4347 C 411.731 -4.00996 -1.38068 0
M  V30 4348 N 412.122 -5.01816 -0.633609 0
M  V30 4349 C 410.42 -4.13753 -1.66506 0
M  V30 4350 C 411.121 -5.80371 -0.392922 0
M  V30 4351 N 410.097 -5.3505 -0.960359 0
M  V30 4352 H 413.899 -2.93811 -0.0722883 0
M  V30 4353 H 411.413 -1.62286 0.0607256 0
M  V30 4354 H 413.41 -3.33245 -2.50506 0
M  V30 4355 H 412.07 -2.15854 -2.42564 0
M  V30 4356 H 413.081 -5.17128 -0.282626 0
M  V30 4357 H 409.758 -3.51133 -2.25858 0
M  V30 4358 H 411.148 -6.7159 0.204235 0
M  V30 4359 N 413.868 0.0150385 -1.57593 0
M  V30 4360 C 415.093 0.718067 -1.94573 0
M  V30 4361 C 415.518 1.6734 -0.859005 0
M  V30 4362 O 414.876 1.80362 0.184147 0
M  V30 4363 C 414.924 1.43918 -3.30636 0
M  V30 4364 O 414.028 2.55299 -3.23876 0
M  V30 4365 H 413.369 0.192125 -0.635597 0
M  V30 4366 H 415.899 -0.0336708 -2.04572 0
M  V30 4367 H 415.909 1.80598 -3.65853 0
M  V30 4368 H 414.584 0.738619 -4.09289 0
M  V30 4369 H 413.161 2.21058 -3.00312 0
M  V30 4370 N 415.346 1.54954 0.287554 0
M  V30 4371 C 416.293 1.86834 1.35505 0
M  V30 4372 C 417.263 0.718452 1.49758 0
M  V30 4373 O 418.448 0.968358 1.644 0
M  V30 4374 C 415.588 2.13303 2.71286 0
M  V30 4375 C 414.701 3.40883 2.65373 0
M  V30 4376 C 413.836 3.57125 3.93236 0
M  V30 4377 C 412.875 4.78449 3.81776 0
M  V30 4378 N 412.012 4.91426 5.01443 0
M  V30 4379 H 416.852 2.77889 1.07619 0
M  V30 4380 H 414.389 1.37593 0.520241 0
M  V30 4381 H 416.347 2.26646 3.50267 0
M  V30 4382 H 414.977 1.25499 2.97405 0
M  V30 4383 H 414.029 3.36088 1.78182 0
M  V30 4384 H 415.341 4.29993 2.52799 0
M  V30 4385 H 414.495 3.70207 4.80658 0
M  V30 4386 H 413.234 2.66173 4.0866 0
M  V30 4387 H 412.239 4.65386 2.92738 0
M  V30 4388 H 413.464 5.70822 3.67884 0
M  V30 4389 H 411.41 4.03401 5.17304 0
M  V30 4390 H 411.327 5.74559 4.91343 0
M  V30 4391 H 412.595 5.08879 5.90477 0
M  V30 4392 N 416.824 -0.551391 1.4764 0
M  V30 4393 C 418.101 -1.31229 1.45046 0
M  V30 4394 C 418.481 -2.10563 0.150527 0
M  V30 4395 O 417.829 -2.11374 -0.867956 0
M  V30 4396 C 418.039 -2.21189 2.69956 0
M  V30 4397 C 419.387 -2.82021 3.1741 0
M  V30 4398 O 420.411 -2.31488 2.70724 0
M  V30 4399 O 419.27 -3.73885 3.98588 0
M  V30 4400 H 416.364 -0.591193 0.578291 0
M  V30 4401 H 418.91 -0.569813 1.59847 0
M  V30 4402 H 417.682 -1.62207 3.56096 0
M  V30 4403 H 417.305 -3.02722 2.57769 0
M  V30 4404 N 418.302 -1.35869 -0.798587 0
M  V30 4405 C 419.713 -1.26498 -1.37314 0
M  V30 4406 C 420.064 0.0991899 -1.95949 0
M  V30 4407 O 419.189 1.0004 -1.91888 0
M  V30 4408 C 419.784 -2.29054 -2.49639 0
M  V30 4409 C 418.343 -2.234 -3.02935 0
M  V30 4410 C 417.49 -2.14329 -1.75949 0
M  V30 4411 H 420.441 -1.46881 -0.600971 0
M  V30 4412 H 420.462 -1.92166 -3.28409 0
M  V30 4413 H 419.974 -3.2833 -2.06933 0
M  V30 4414 H 418.075 -1.27562 -3.50084 0
M  V30 4415 H 418.188 -3.15703 -3.60372 0
M  V30 4416 H 416.552 -1.60435 -1.9782 0
M  V30 4417 H 417.335 -3.15477 -1.35384 0
M  V30 4418 N 419.78 1.02168 -1.19998 0
M  V30 4419 C 421.196 1.27969 -0.953737 0
M  V30 4420 C 421.396 1.98079 0.369703 0
M  V30 4421 O 420.452 2.27306 1.09947 0
M  V30 4422 C 421.765 2.11971 -2.13281 0
M  V30 4423 C 423.313 2.25255 -2.17323 0
M  V30 4424 C 423.788 3.12632 -3.34702 0
M  V30 4425 N 425.279 3.2022 -3.34684 0
M  V30 4426 C 426.014 3.88039 -4.22153 0
M  V30 4427 N 425.51 4.58027 -5.19791 0
M  V30 4428 N 427.303 3.84511 -4.10009 0
M  V30 4429 H 419.454 0.550794 -2.05134 0
M  V30 4430 H 421.717 0.305683 -0.897364 0
M  V30 4431 H 421.423 1.67785 -3.09097 0
M  V30 4432 H 421.297 3.12699 -2.10949 0
M  V30 4433 H 423.684 2.68667 -1.22073 0
M  V30 4434 H 423.765 1.24053 -2.23706 0
M  V30 4435 H 423.409 2.69926 -4.30235 0
M  V30 4436 H 423.339 4.13909 -3.25556 0
M  V30 4437 H 425.83 2.70382 -2.64012 0
M  V30 4438 H 426.143 5.07429 -5.82868 0
M  V30 4439 H 424.488 4.56869 -5.23733 0
M  V30 4440 H 427.679 3.28978 -3.33003 0
M  V30 4441 H 427.852 4.3709 -4.78389 0
M  V30 4442 N 421.258 1.00505 1.21394 0
M  V30 4443 C 422.488 0.705584 1.94178 0
M  V30 4444 C 422.896 -0.735846 1.74304 0
M  V30 4445 O 422.239 -1.50954 1.04683 0
M  V30 4446 C 422.301 0.94689 3.46806 0
M  V30 4447 C 421.965 2.37517 3.90429 0
M  V30 4448 C 422.962 3.35539 3.97127 0
M  V30 4449 C 420.647 2.71284 4.22742 0
M  V30 4450 C 422.641 4.65395 4.3553 0
M  V30 4451 C 420.328 4.01356 4.60822 0
M  V30 4452 C 421.326 4.98223 4.67186 0
M  V30 4453 O 421.014 6.25969 5.04399 0
M  V30 4454 H 420.746 0.259216 0.624326 0
M  V30 4455 H 423.3 1.34592 1.55159 0
M  V30 4456 H 421.53 0.249386 3.85895 0
M  V30 4457 H 423.219 0.640804 4.0081 0
M  V30 4458 H 423.985 3.10786 3.7234 0
M  V30 4459 H 419.864 1.96581 4.16985 0
M  V30 4460 H 423.408 5.41002 4.40412 0
M  V30 4461 H 419.305 4.25893 4.85063 0
M  V30 4462 H 420.073 6.30085 5.22431 0
M  V30 4463 N 422.737 -1.36956 0.779787 0
M  V30 4464 C 423.985 -1.99097 0.347079 0
M  V30 4465 C 424.306 -1.62206 -1.08232 0
M  V30 4466 O 423.576 -0.891373 -1.74446 0
M  V30 4467 H 422.156 -0.736409 0.125342 0
M  V30 4468 H 424.818 -1.67308 0.999696 0
M  V30 4469 H 423.914 -3.09107 0.431162 0
M  V30 4470 N 424.215 -0.530993 -1.48385 0
M  V30 4471 C 425.178 0.220497 -2.28137 0
M  V30 4472 C 426.178 0.866851 -1.35434 0
M  V30 4473 O 427.368 0.726746 -1.58316 0
M  V30 4474 C 424.5 1.31921 -3.1434 0
M  V30 4475 H 425.693 -0.479714 -2.96038 0
M  V30 4476 H 423.246 -0.286968 -1.53643 0
M  V30 4477 H 423.981 2.05264 -2.51072 0
M  V30 4478 H 423.766 0.86085 -3.82533 0
M  V30 4479 H 425.256 1.84776 -3.74497 0
M  V30 4480 N 425.693 1.55336 -0.266172 0
M  V30 4481 C 426.918 2.04258 0.359661 0
M  V30 4482 C 427.343 1.14359 1.49344 0
M  V30 4483 O 426.701 0.140369 1.80756 0
M  V30 4484 C 426.749 3.50997 0.826635 0
M  V30 4485 O 425.853 3.64204 1.93466 0
M  V30 4486 H 425.194 0.659668 0.075727 0
M  V30 4487 H 427.724 2.00694 -0.39786 0
M  V30 4488 H 427.734 3.9219 1.12477 0
M  V30 4489 H 426.409 4.159 -0.00293032 0
M  V30 4490 H 424.986 3.34913 1.63974 0
M  V30 4491 N 427.171 -0.0066808 1.57599 0
M  V30 4492 C 428.582 -0.550379 1.78403 0
M  V30 4493 C 428.933 -1.74339 0.900014 0
M  V30 4494 O 428.058 -2.16166 0.100713 0
M  V30 4495 C 428.653 -1.00523 3.23544 0
M  V30 4496 C 427.212 -1.49428 3.45468 0
M  V30 4497 C 426.359 -0.442444 2.73748 0
M  V30 4498 H 429.31 0.219508 1.57175 0
M  V30 4499 H 429.331 -1.87157 3.31289 0
M  V30 4500 H 428.843 -0.136735 3.87859 0
M  V30 4501 H 426.944 -2.3839 2.86358 0
M  V30 4502 H 427.057 -1.52635 4.54136 0
M  V30 4503 H 425.421 -0.902578 2.38171 0
M  V30 4504 H 426.204 0.416973 3.40758 0
M  V30 4505 N 428.649 -1.55105 -0.279332 0
M  V30 4506 C 429.579 -1.90557 -1.34945 0
M  V30 4507 C 430.56 -0.766738 -1.51839 0
M  V30 4508 O 431.745 -1.02434 -1.64988 0
M  V30 4509 C 428.875 -2.17193 -2.71006 0
M  V30 4510 C 427.829 -3.33021 -2.68851 0
M  V30 4511 C 427.155 -3.45123 -4.08405 0
M  V30 4512 C 428.455 -4.69578 -2.28678 0
M  V30 4513 H 430.149 -2.80188 -1.05522 0
M  V30 4514 H 427.695 -1.34811 -0.506173 0
M  V30 4515 H 429.648 -2.40581 -3.45975 0
M  V30 4516 H 428.372 -1.24355 -3.01999 0
M  V30 4517 H 427.031 -3.0959 -1.9634 0
M  V30 4518 H 426.679 -2.49762 -4.3661 0
M  V30 4519 H 426.379 -4.22995 -4.07859 0
M  V30 4520 H 427.903 -3.70796 -4.85121 0
M  V30 4521 H 429.317 -4.92553 -2.93368 0
M  V30 4522 H 427.714 -5.5032 -2.39306 0
M  V30 4523 H 428.784 -4.68828 -1.23807 0
M  V30 4524 N 430.127 0.543554 -1.4793 0
M  V30 4525 C 431.077 1.64527 -1.57844 0
M  V30 4526 C 432.061 1.54869 -0.436408 0
M  V30 4527 O 433.253 1.63119 -0.687101 0
M  V30 4528 C 430.382 3.03281 -1.6086 0
M  V30 4529 C 429.468 3.18093 -2.80495 0
M  V30 4530 N 429.859 3.02923 -4.05057 0
M  V30 4531 C 428.157 3.49121 -2.77543 0
M  V30 4532 C 428.858 3.20791 -4.85251 0
M  V30 4533 N 427.834 3.47749 -4.17818 0
M  V30 4534 H 431.636 1.51388 -2.5191 0
M  V30 4535 H 429.15 0.748671 -1.44113 0
M  V30 4536 H 431.147 3.82403 -1.66054 0
M  V30 4537 H 429.807 3.17521 -0.678996 0
M  V30 4538 H 430.818 2.79966 -4.35705 0
M  V30 4539 H 427.495 3.69804 -1.93781 0
M  V30 4540 H 428.885 3.13915 -5.9406 0
M  V30 4541 N 431.605 1.3629 0.791371 0
M  V30 4542 C 432.851 1.31613 1.5508 0
M  V30 4543 C 433.206 -0.104372 1.92117 0
M  V30 4544 O 432.499 -1.05845 1.5971 0
M  V30 4545 C 432.693 2.17068 2.8393 0
M  V30 4546 C 432.522 3.67285 2.59484 0
M  V30 4547 C 431.292 4.36469 2.54604 0
M  V30 4548 C 433.49 4.60595 2.28816 0
M  V30 4549 N 431.472 5.7234 2.22036 0
M  V30 4550 C 432.843 5.847 2.06218 0
M  V30 4551 C 434.898 4.4918 2.14806 0
M  V30 4552 C 433.601 6.98671 1.71028 0
M  V30 4553 C 435.627 5.63017 1.81014 0
M  V30 4554 C 434.989 6.86159 1.59263 0
M  V30 4555 H 431.088 0.536878 0.568582 0
M  V30 4556 H 433.672 1.71323 0.925007 0
M  V30 4557 H 431.843 1.79605 3.44378 0
M  V30 4558 H 433.575 2.03795 3.49642 0
M  V30 4559 H 430.33 3.89249 2.69782 0
M  V30 4560 H 430.754 6.44093 2.08503 0
M  V30 4561 H 435.396 3.54564 2.30313 0
M  V30 4562 H 433.114 7.9324 1.54259 0
M  V30 4563 H 436.7 5.56146 1.70861 0
M  V30 4564 H 435.58 7.72753 1.335 0
M  V30 4565 N 433.083 -1.0153 1.20538 0
M  V30 4566 C 434.046 -2.0826 0.957098 0
M  V30 4567 C 435.046 -1.60657 -0.0678655 0
M  V30 4568 O 436.236 -1.73385 0.168332 0
M  V30 4569 C 433.368 -3.38033 0.441188 0
M  V30 4570 H 434.561 -2.31719 1.90384 0
M  V30 4571 H 432.114 -1.1835 1.02093 0
M  V30 4572 H 432.849 -3.20249 -0.510961 0
M  V30 4573 H 432.634 -3.73911 1.18038 0
M  V30 4574 H 434.124 -4.16613 0.287009 0
M  V30 4575 N 434.561 -1.01147 -1.20859 0
M  V30 4576 C 435.508 -0.577354 -2.23462 0
M  V30 4577 C 436.478 0.399922 -1.61214 0
M  V30 4578 O 437.663 0.300515 -1.88419 0
M  V30 4579 C 434.803 0.083372 -3.44999 0
M  V30 4580 C 433.916 -0.937856 -4.21697 0
M  V30 4581 C 433.051 -0.248717 -5.30617 0
M  V30 4582 C 432.09 -1.25705 -5.99053 0
M  V30 4583 N 431.227 -0.594939 -6.99575 0
M  V30 4584 H 436.067 -1.45695 -2.59956 0
M  V30 4585 H 433.604 -0.729428 -1.27741 0
M  V30 4586 H 435.562 0.483535 -4.14388 0
M  V30 4587 H 434.192 0.926645 -3.09214 0
M  V30 4588 H 433.244 -1.45622 -3.51423 0
M  V30 4589 H 434.556 -1.70493 -4.68757 0
M  V30 4590 H 433.71 0.207215 -6.06346 0
M  V30 4591 H 432.449 0.55071 -4.84581 0
M  V30 4592 H 431.454 -1.72343 -5.2209 0
M  V30 4593 H 432.679 -2.05767 -6.47176 0
M  V30 4594 H 430.625 0.184713 -6.5574 0
M  V30 4595 H 430.542 -1.30017 -7.44736 0
M  V30 4596 H 431.81 -0.162427 -7.79331 0
M  V30 4597 N 436.039 1.36541 -0.78704 0
M  V30 4598 C 436.987 2.31965 -0.171724 0
M  V30 4599 C 437.981 1.55689 0.667631 0
M  V30 4600 O 439.187 1.70969 0.562981 0
M  V30 4601 H 435.562 0.751101 -0.0367545 0
M  V30 4602 H 437.533 2.81428 -0.992017 0
M  V30 4603 C 436.282 3.40968 0.680904 0
M  V30 4604 H 435.605 3.99775 0.0443961 0
M  V30 4605 H 437.045 4.10063 1.07815 0
M  V30 4606 C 435.504 2.82338 1.83813 0
M  V30 4607 O 436.034 2.74311 2.93456 0
M  V30 4608 N 434.24 2.39661 1.6435 0
M  V30 4609 H 433.787 2.46389 0.751668 0
M  V30 4610 H 433.745 2.00779 2.4194 0
M  V30 4611 N 437.518 0.538854 1.48102 0
M  V30 4612 C 438.481 -0.208395 2.28251 0
M  V30 4613 C 439.481 -0.859656 1.35892 0
M  V30 4614 O 440.671 -0.71834 1.58699 0
M  V30 4615 C 437.803 -1.30252 3.15035 0
M  V30 4616 H 438.996 0.495407 2.9578 0
M  V30 4617 H 436.549 0.295112 1.53489 0
M  V30 4618 H 437.284 -2.0393 2.52157 0
M  V30 4619 H 437.069 -0.840551 3.82985 0
M  V30 4620 H 438.559 -1.82787 3.75471 0
M  V30 4621 N 438.996 -1.55193 0.274407 0
M  V30 4622 C 439.906 -2.26164 -0.623473 0
M  V30 4623 C 440.922 -1.28729 -1.17068 0
M  V30 4624 O 442.098 -1.61663 -1.20112 0
M  V30 4625 C 439.163 -2.96833 -1.7914 0
M  V30 4626 C 438.224 -4.09745 -1.28093 0
M  V30 4627 C 437.457 -4.77034 -2.3932 0
M  V30 4628 O 437.68 -4.4353 -3.5866 0
M  V30 4629 O 436.614 -5.64996 -2.07516 0
M  V30 4630 H 440.44 -3.03661 -0.0485661 0
M  V30 4631 H 438.025 -1.49341 0.0418382 0
M  V30 4632 H 439.907 -3.41248 -2.4724 0
M  V30 4633 H 438.582 -2.22253 -2.35341 0
M  V30 4634 H 437.489 -3.69787 -0.566416 0
M  V30 4635 H 438.822 -4.86224 -0.764683 0
M  V30 4636 N 440.474 -0.00167713 -1.576 0
M  V30 4637 C 441.407 1.02317 -2.03977 0
M  V30 4638 C 442.385 1.33381 -0.929963 0
M  V30 4639 O 443.569 1.45517 -1.19822 0
M  V30 4640 C 440.696 2.35035 -2.43878 0
M  V30 4641 C 439.742 2.19621 -3.65607 0
M  V30 4642 S 440.575 1.52068 -5.13455 0
M  V30 4643 C 441.731 2.86212 -5.56627 0
M  V30 4644 H 441.964 0.628285 -2.90585 0
M  V30 4645 H 439.497 0.209239 -1.52976 0
M  V30 4646 H 441.455 3.11345 -2.67534 0
M  V30 4647 H 440.116 2.71663 -1.57665 0
M  V30 4648 H 439.309 3.1767 -3.91282 0
M  V30 4649 H 438.911 1.51455 -3.41961 0
M  V30 4650 H 441.203 3.82509 -5.59189 0
M  V30 4651 H 442.146 2.65235 -6.56549 0
M  V30 4652 H 442.554 2.90199 -4.84195 0
M  V30 4653 N 441.952 1.55251 0.271103 0
M  V30 4654 C 442.915 1.87484 1.31842 0
M  V30 4655 C 443.915 0.749545 1.42262 0
M  V30 4656 O 445.105 1.01771 1.4138 0
M  V30 4657 C 442.237 2.0818 2.69951 0
M  V30 4658 H 443.43 2.81108 1.0449 0
M  V30 4659 H 440.983 1.47771 0.509258 0
M  V30 4660 H 441.718 1.16944 3.02481 0
M  V30 4661 H 441.503 2.90114 2.63774 0
M  V30 4662 H 442.993 2.34385 3.4562 0
M  V30 4663 N 443.43 -0.535701 1.48216 0
M  V30 4664 C 444.846 -0.863701 1.3421 0
M  V30 4665 C 445.046 -1.98458 0.34879 0
M  V30 4666 O 444.102 -2.51432 -0.23204 0
M  V30 4667 C 445.415 -1.23662 2.74095 0
M  V30 4668 C 446.963 -1.34683 2.82541 0
M  V30 4669 C 447.438 -1.75322 4.23115 0
M  V30 4670 N 448.929 -1.82434 4.2576 0
M  V30 4671 C 449.664 -2.15252 5.31464 0
M  V30 4672 N 449.16 -2.46533 6.47452 0
M  V30 4673 N 450.953 -2.16209 5.18855 0
M  V30 4674 H 443.104 0.203965 2.11418 0
M  V30 4675 H 445.367 0.0286033 0.947568 0
M  V30 4676 H 445.073 -0.486674 3.48316 0
M  V30 4677 H 444.947 -2.18805 3.07253 0
M  V30 4678 H 447.334 -2.08756 2.08579 0
M  V30 4679 H 447.415 -0.376756 2.5301 0
M  V30 4680 H 447.059 -1.01812 4.97591 0
M  V30 4681 H 446.989 -2.7337 4.50085 0
M  V30 4682 H 449.48 -1.6056 3.42095 0
M  V30 4683 H 449.793 -2.70662 7.23852 0
M  V30 4684 H 448.138 -2.44065 6.50736 0
M  V30 4685 H 451.329 -1.91224 4.2726 0
M  V30 4686 H 451.502 -2.41453 6.01335 0
M  V30 4687 N 444.908 -1.36708 -0.784132 0
M  V30 4688 C 445.841 -1.25827 -1.90375 0
M  V30 4689 C 446.819 -0.141331 -1.61985 0
M  V30 4690 O 448.003 -0.313389 -1.85877 0
M  V30 4691 C 445.13 -0.942621 -3.25319 0
M  V30 4692 C 444.176 -2.07474 -3.72635 0
M  V30 4693 S 445.009 -3.69317 -3.8777 0
M  V30 4694 C 446.165 -3.39876 -5.25581 0
M  V30 4695 H 446.398 -2.20593 -1.99314 0
M  V30 4696 H 443.931 -1.22186 -0.943926 0
M  V30 4697 H 445.889 -0.767321 -4.03265 0
M  V30 4698 H 444.55 -0.0126566 -3.14097 0
M  V30 4699 H 443.743 -1.80858 -4.70432 0
M  V30 4700 H 443.345 -2.20953 -3.01754 0
M  V30 4701 H 445.637 -2.94097 -6.10339 0
M  V30 4702 H 446.58 -4.36956 -5.57203 0
M  V30 4703 H 446.988 -2.75098 -4.92931 0
M  V30 4704 N 446.386 1.0089 -1.21074 0
M  V30 4705 C 447.316 2.1145 -0.990523 0
M  V30 4706 C 448.297 1.69897 0.0831699 0
M  V30 4707 O 449.482 1.94052 -0.0758853 0
M  V30 4708 C 446.612 3.42914 -0.550177 0
M  V30 4709 C 445.566 3.98244 -1.56799 0
M  V30 4710 C 444.892 5.25568 -0.984013 0
M  V30 4711 C 446.192 4.30752 -2.95381 0
M  V30 4712 H 447.886 2.3013 -1.91521 0
M  V30 4713 H 445.432 1.10592 -0.92225 0
M  V30 4714 H 447.385 4.19653 -0.383305 0
M  V30 4715 H 446.109 3.24014 0.41015 0
M  V30 4716 H 444.768 3.23621 -1.72236 0
M  V30 4717 H 444.416 5.02998 -0.0155216 0
M  V30 4718 H 444.116 5.63551 -1.66384 0
M  V30 4719 H 445.64 6.04955 -0.828378 0
M  V30 4720 H 447.054 4.98349 -2.8341 0
M  V30 4721 H 445.451 4.79869 -3.60341 0
M  V30 4722 H 446.521 3.39192 -3.46521 0
M  V30 4723 N 447.864 1.01787 1.20321 0
M  V30 4724 C 448.794 0.609625 2.25401 0
M  V30 4725 C 449.775 -0.375951 1.65893 0
M  V30 4726 O 450.96 -0.261101 1.92437 0
M  V30 4727 C 448.09 -0.0515995 3.47262 0
M  V30 4728 C 447.044 0.855095 4.19371 0
M  V30 4729 C 446.37 0.0595757 5.34667 0
M  V30 4730 C 447.67 2.16374 4.75373 0
M  V30 4731 H 449.364 1.48803 2.59804 0
M  V30 4732 H 446.91 0.716934 1.24884 0
M  V30 4733 H 448.863 -0.348764 4.19954 0
M  V30 4734 H 447.587 -0.964726 3.12027 0
M  V30 4735 H 446.246 1.13628 3.48546 0
M  V30 4736 H 445.894 -0.85524 4.95676 0
M  V30 4737 H 445.594 0.663406 5.83843 0
M  V30 4738 H 447.118 -0.231105 6.10162 0
M  V30 4739 H 448.532 1.92885 5.39878 0
M  V30 4740 H 446.929 2.71853 5.34991 0
M  V30 4741 H 447.999 2.82589 3.94045 0
M  V30 4742 N 449.342 -1.36122 0.79427 0
M  V30 4743 C 450.289 -2.29982 0.194101 0
M  V30 4744 C 451.259 -1.52214 -0.664833 0
M  V30 4745 O 452.444 -1.80702 -0.612498 0
M  V30 4746 C 449.584 -3.38706 -0.661244 0
M  V30 4747 C 448.697 -4.31456 0.216766 0
M  V30 4748 C 447.832 -5.27265 -0.645411 0
M  V30 4749 C 446.871 -6.11653 0.233756 0
M  V30 4750 N 446.008 -6.99636 -0.587682 0
M  V30 4751 H 450.848 -2.80722 0.999965 0
M  V30 4752 H 448.385 -1.38172 0.504677 0
M  V30 4753 H 450.343 -4.00394 -1.17219 0
M  V30 4754 H 448.973 -2.89274 -1.43249 0
M  V30 4755 H 448.025 -3.7088 0.845724 0
M  V30 4756 H 449.337 -4.90724 0.893973 0
M  V30 4757 H 448.491 -5.94266 -1.22198 0
M  V30 4758 H 447.23 -4.68463 -1.35623 0
M  V30 4759 H 446.235 -5.4361 0.82269 0
M  V30 4760 H 447.46 -6.72531 0.942247 0
M  V30 4761 H 445.406 -6.43337 -1.2827 0
M  V30 4762 H 445.323 -7.55993 0.0317402 0
M  V30 4763 H 446.591 -7.71001 -1.14792 0
M  V30 4764 N 450.82 -0.546701 -1.47814 0
M  V30 4765 C 452.236 -0.205717 -1.58269 0
M  V30 4766 C 452.436 1.29153 -1.54667 0
M  V30 4767 O 451.492 2.07098 -1.44453 0
M  V30 4768 C 452.805 -0.823065 -2.89216 0
M  V30 4769 C 454.353 -0.793328 -3.02779 0
M  V30 4770 C 454.828 -1.38955 -4.36412 0
M  V30 4771 N 456.319 -1.35227 -4.43021 0
M  V30 4772 C 457.054 -1.78333 -5.44963 0
M  V30 4773 N 456.55 -2.29246 -6.53772 0
M  V30 4774 N 458.343 -1.69467 -5.35945 0
M  V30 4775 H 450.494 -1.5196 -1.48398 0
M  V30 4776 H 452.757 -0.633078 -0.705632 0
M  V30 4777 H 452.463 -1.8749 -2.97558 0
M  V30 4778 H 452.337 -0.309915 -3.75925 0
M  V30 4779 H 454.724 0.249784 -2.94041 0
M  V30 4780 H 454.805 -1.34412 -2.17639 0
M  V30 4781 H 454.449 -2.43168 -4.45906 0
M  V30 4782 H 454.379 -0.814291 -5.20266 0
M  V30 4783 H 456.87 -0.979739 -3.64979 0
M  V30 4784 H 457.183 -2.60089 -7.27718 0
M  V30 4785 H 455.528 -2.3325 -6.5469 0
M  V30 4786 H 458.719 -1.29477 -4.49837 0
M  V30 4787 H 458.892 -2.03381 -6.15256 0
M  V30 4788 N 452.299 1.55045 -0.282633 0
M  V30 4789 C 453.547 1.99365 0.331334 0
M  V30 4790 C 453.868 1.1725 1.55812 0
M  V30 4791 O 453.138 0.263871 1.94115 0
M  V30 4792 H 451.718 0.736397 0.125414 0
M  V30 4793 H 454.38 1.90964 -0.389711 0
M  V30 4794 H 453.476 3.0596 0.616036 0
M  V30 4795 N 453.777 0.010035 1.57597 0
M  V30 4796 C 455.017 -0.677084 1.9286 0
M  V30 4797 C 455.381 -1.70377 0.885192 0
M  V30 4798 O 456.582 -2.44199 1.12339 0
M  V30 4799 C 454.853 -1.29452 3.33132 0
M  V30 4800 S 456.412 -2.00537 3.90295 0
M  V30 4801 H 453.23 -0.223409 0.674989 0
M  V30 4802 H 455.832 0.0691289 1.95378 0
M  V30 4803 H 454.536 -0.534593 4.06903 0
M  V30 4804 H 454.067 -2.07845 3.34012 0
M  V30 4805 H 456.082 -3.28168 3.72183 0
M  V30 4806 N 455.255 -1.55392 -0.262866 0
M  V30 4807 C 456.203 -1.8977 -1.345 0
M  V30 4808 C 457.197 -0.775063 -1.50629 0
M  V30 4809 O 458.403 -0.959519 -1.52293 0
M  V30 4810 H 454.778 -0.602467 -0.450041 0
M  V30 4811 H 456.749 -2.80147 -1.02762 0
M  V30 4812 C 455.498 -2.19501 -2.69657 0
M  V30 4813 H 454.821 -3.05378 -2.5804 0
M  V30 4814 H 456.261 -2.47469 -3.44289 0
M  V30 4815 C 454.72 -1.00597 -3.21531 0
M  V30 4816 O 455.25 -0.245768 -4.00947 0
M  V30 4817 N 453.456 -0.800911 -2.79345 0
M  V30 4818 H 453.003 -1.42079 -2.14875 0
M  V30 4819 H 452.961 -0.00697996 -3.14399 0
M  V30 4820 N 456.733 0.527833 -1.48498 0
M  V30 4821 C 457.979 1.28545 -1.56857 0
M  V30 4822 C 458.312 1.92678 -0.242651 0
M  V30 4823 O 457.587 1.79394 0.751545 0
M  V30 4824 C 457.87 2.37314 -2.70839 0
M  V30 4825 C 457.723 1.77858 -4.13142 0
M  V30 4826 C 459.042 3.39068 -2.80573 0
M  V30 4827 H 456.161 0.466006 -0.570971 0
M  V30 4828 H 458.803 0.587784 -1.8068 0
M  V30 4829 H 456.953 2.96821 -2.50658 0
M  V30 4830 H 458.625 1.22385 -4.44769 0
M  V30 4831 H 456.868 1.08383 -4.20042 0
M  V30 4832 H 457.539 2.56624 -4.88721 0
M  V30 4833 H 460.015 2.89518 -2.98862 0
M  V30 4834 H 458.891 4.12566 -3.6205 0
M  V30 4835 H 459.152 3.9975 -1.88818 0
M  V30 4836 N 458.211 1.37122 0.776871 0
M  V30 4837 C 459.159 1.32549 1.91138 0
M  V30 4838 C 460.153 0.215119 1.68029 0
M  V30 4839 O 461.359 0.382852 1.75881 0
M  V30 4840 H 457.734 0.412952 0.62847 0
M  V30 4841 H 459.705 2.28332 1.92112 0
M  V30 4842 C 458.454 1.14422 3.28333 0
M  V30 4843 H 457.777 1.99115 3.46689 0
M  V30 4844 H 459.217 1.15272 4.0803 0
M  V30 4845 C 457.676 -0.150434 3.36564 0
M  V30 4846 O 458.206 -1.13584 3.85307 0
M  V30 4847 N 456.412 -0.19939 2.89915 0
M  V30 4848 H 455.959 0.603142 2.5044 0
M  V30 4849 H 455.917 -1.06526 2.95803 0
M  V30 4850 N 459.689 -1.00246 1.21608 0
M  V30 4851 C 460.914 -1.78167 1.06167 0
M  V30 4852 C 461.339 -1.84138 -0.384035 0
M  V30 4853 O 460.697 -1.28683 -1.27712 0
M  V30 4854 C 460.745 -3.19786 1.66642 0
M  V30 4855 O 459.849 -4.02153 0.913613 0
M  V30 4856 H 459.19 -0.549 0.37349 0
M  V30 4857 H 461.72 -1.25994 1.61204 0
M  V30 4858 H 461.73 -3.70451 1.70969 0
M  V30 4859 H 460.405 -3.14754 2.7185 0
M  V30 4860 H 458.982 -3.60711 0.945635 0
M  V30 4861 N 461.167 -1.02423 -1.1978 0
M  V30 4862 C 462.395 -0.737456 -1.93311 0
M  V30 4863 C 462.81 0.703023 -1.75223 0
M  V30 4864 O 462.167 1.47761 -1.07112 0
M  V30 4865 C 462.218 -1.0733 -3.45199 0
M  V30 4866 O 461.939 -2.4572 -3.62702 0
M  V30 4867 C 463.44 -0.80866 -4.35862 0
M  V30 4868 H 460.66 -0.2702 -0.614193 0
M  V30 4869 H 463.204 -1.36747 -1.52054 0
M  V30 4870 H 461.359 -0.488545 -3.84307 0
M  V30 4871 H 461.773 -2.58081 -4.56612 0
M  V30 4872 H 463.247 -1.09365 -5.41057 0
M  V30 4873 H 463.724 0.257025 -4.38447 0
M  V30 4874 H 464.33 -1.37592 -4.02428 0
M  V30 4875 N 462.645 1.35699 -0.801477 0
M  V30 4876 C 463.87 2.03687 -0.390678 0
M  V30 4877 C 464.295 1.60015 0.988778 0
M  V30 4878 O 463.653 0.774357 1.63931 0
M  V30 4879 C 463.701 3.57439 -0.476404 0
M  V30 4880 O 462.805 4.09208 0.512106 0
M  V30 4881 H 462.146 0.64344 -0.163956 0
M  V30 4882 H 464.676 1.73403 -1.08594 0
M  V30 4883 H 464.686 4.06544 -0.344357 0
M  V30 4884 H 463.361 3.88576 -1.48262 0
M  V30 4885 H 461.938 3.7134 0.340721 0
M  V30 4886 N 464.123 0.554532 1.47522 0
M  V30 4887 C 465.348 0.0322661 2.07375 0
M  V30 4888 C 465.773 -1.25079 1.40488 0
M  V30 4889 O 465.131 -1.74859 0.47896 0
M  V30 4890 C 465.179 -0.149397 3.6029 0
M  V30 4891 O 464.283 -1.21259 3.9417 0
M  V30 4892 H 463.624 0.0501228 0.662106 0
M  V30 4893 H 466.154 0.769452 1.8958 0
M  V30 4894 H 466.164 -0.364437 4.06369 0
M  V30 4895 H 464.839 0.787743 4.08372 0
M  V30 4896 H 463.416 -0.97825 3.5984 0
M  V30 4897 N 465.601 -1.54893 0.290851 0
M  V30 4898 C 466.564 -2.21824 -0.576784 0
M  V30 4899 C 467.564 -1.20104 -1.06919 0
M  V30 4900 O 468.754 -1.44906 -0.966843 0
M  V30 4901 C 465.886 -2.89662 -1.79747 0
M  V30 4902 H 467.079 -2.99899 0.00784051 0
M  V30 4903 H 464.632 -1.56245 0.0415934 0
M  V30 4904 H 465.367 -2.15639 -2.42219 0
M  V30 4905 H 465.152 -3.64219 -1.45214 0
M  V30 4906 H 466.642 -3.4075 -2.4141 0
M  V30 4907 N 467.08 -0.0183926 -1.57589 0
M  V30 4908 C 468.328 0.661253 -1.90976 0
M  V30 4909 C 468.649 1.73281 -0.894353 0
M  V30 4910 O 467.919 1.9579 0.0656788 0
M  V30 4911 H 466.499 0.247233 -0.704901 0
M  V30 4912 H 469.161 -0.0636639 -1.94796 0
M  V30 4913 H 468.257 1.12083 -2.9128 0
M  V30 4914 N 468.558 1.5553 0.254621 0
M  V30 4915 C 469.506 1.9048 1.33492 0
M  V30 4916 C 470.5 0.78304 1.50216 0
M  V30 4917 O 471.706 0.967582 1.51782 0
M  V30 4918 H 468.081 0.604846 0.44684 0
M  V30 4919 H 470.052 2.80688 1.01275 0
M  V30 4920 C 468.801 2.20928 2.68489 0
M  V30 4921 H 468.124 3.06742 2.56417 0
M  V30 4922 H 469.564 2.49291 3.42972 0
M  V30 4923 C 468.023 1.023 3.20993 0
M  V30 4924 O 468.553 0.267027 4.00811 0
M  V30 4925 N 466.759 0.815714 2.78917 0
M  V30 4926 H 466.306 1.43217 2.14119 0
M  V30 4927 H 466.264 0.0236532 3.14391 0
M  V30 4928 N 470.036 -0.519951 1.48776 0
M  V30 4929 C 471.264 -1.29971 1.60982 0
M  V30 4930 C 471.679 -1.86803 0.273885 0
M  V30 4931 O 471.036 -1.66904 -0.738193 0
M  V30 4932 C 471.087 -2.44346 2.66415 0
M  V30 4933 O 470.808 -1.89855 3.94825 0
M  V30 4934 C 472.309 -3.36014 2.89153 0
M  V30 4935 H 469.529 -0.394891 0.542496 0
M  V30 4936 H 472.073 -0.626214 1.94676 0
M  V30 4937 H 470.228 -3.07562 2.35552 0
M  V30 4938 H 470.642 -2.64798 4.5275 0
M  V30 4939 H 472.116 -4.12593 3.66703 0
M  V30 4940 H 472.593 -3.91859 1.98351 0
M  V30 4941 H 473.199 -2.78582 3.21359 0
M  V30 4942 N 471.514 -1.37532 -0.769588 0
M  V30 4943 C 472.477 -1.33292 -1.86456 0
M  V30 4944 C 473.477 -0.236537 -1.59051 0
M  V30 4945 O 474.667 -0.492511 -1.67093 0
M  V30 4946 C 471.799 -1.07118 -3.23633 0
M  V30 4947 H 472.992 -2.30692 -1.91628 0
M  V30 4948 H 470.545 -1.22593 -0.969572 0
M  V30 4949 H 471.28 -0.102578 -3.24138 0
M  V30 4950 H 471.065 -1.86479 -3.44917 0
M  V30 4951 H 472.555 -1.06806 -4.03711 0
M  V30 4952 N 472.992 0.995999 -1.22138 0
M  V30 4953 C 473.922 2.10387 -1.01289 0
M  V30 4954 C 474.903 1.69975 0.0651454 0
M  V30 4955 O 476.088 1.9396 -0.0964628 0
M  V30 4956 C 473.218 3.42312 -0.586517 0
M  V30 4957 C 472.172 3.96558 -1.61014 0
M  V30 4958 C 471.498 5.24494 -1.0397 0
M  V30 4959 C 472.798 4.27595 -2.99933 0
M  V30 4960 H 474.492 2.28086 -1.93951 0
M  V30 4961 H 472.038 1.09607 -0.933928 0
M  V30 4962 H 473.991 4.19223 -0.427793 0
M  V30 4963 H 472.715 3.24431 0.375761 0
M  V30 4964 H 471.374 3.21776 -1.75658 0
M  V30 4965 H 471.022 5.02953 -0.0688703 0
M  V30 4966 H 470.722 5.61755 -1.72352 0
M  V30 4967 H 472.246 6.04042 -0.892494 0
M  V30 4968 H 473.66 4.95315 -2.8868 0
M  V30 4969 H 472.057 4.76021 -3.6541 0
M  V30 4970 H 473.127 3.35498 -3.50099 0
M  V30 4971 N 474.47 1.03057 1.19235 0
M  V30 4972 C 475.42 0.583386 2.2041 0
M  V30 4973 C 476.404 -0.368776 1.56617 0
M  V30 4974 O 477.596 -0.189471 1.75983 0
M  V30 4975 C 474.725 -0.0626534 3.43243 0
M  V30 4976 C 473.811 0.91205 4.14177 0
M  V30 4977 N 474.202 2.07514 4.61272 0
M  V30 4978 C 472.5 0.735859 4.39888 0
M  V30 4979 C 473.201 2.69003 5.15764 0
M  V30 4980 N 472.177 1.96954 5.06666 0
M  V30 4981 H 475.979 1.46988 2.54503 0
M  V30 4982 H 473.493 0.897785 1.35328 0
M  V30 4983 H 475.49 -0.400653 4.1497 0
M  V30 4984 H 474.15 -0.944813 3.1065 0
M  V30 4985 H 475.161 2.45448 4.56043 0
M  V30 4986 H 471.838 -0.0970656 4.17387 0
M  V30 4987 H 473.228 3.67514 5.6248 0
M  V30 4988 N 475.948 -1.35272 0.808662 0
M  V30 4989 C 477.194 -1.99003 0.390581 0
M  V30 4990 C 477.527 -1.63999 -1.0401 0
M  V30 4991 O 476.802 -0.904368 -1.72196 0
M  V30 4992 C 477.085 -3.55454 0.576566 0
M  V30 4993 C 476.938 -4.00249 2.05233 0
M  V30 4994 C 478.257 -4.401 0.00354277 0
M  V30 4995 H 475.376 -0.722917 0.143388 0
M  V30 4996 H 478.018 -1.6039 1.01858 0
M  V30 4997 H 476.168 -3.88477 0.0419766 0
M  V30 4998 H 477.84 -3.77626 2.64946 0
M  V30 4999 H 476.083 -3.51082 2.54801 0
M  V30 5000 H 476.754 -5.0911 2.13333 0
M  V30 5001 H 479.23 -4.13548 0.460117 0
M  V30 5002 H 478.106 -5.48656 0.163575 0
M  V30 5003 H 478.367 -4.28444 -1.09032 0
M  V30 5004 N 477.426 -0.562348 -1.47226 0
M  V30 5005 C 478.389 0.172056 -2.28553 0
M  V30 5006 C 479.389 0.837928 -1.37242 0
M  V30 5007 O 480.579 0.693001 -1.59822 0
M  V30 5008 C 477.711 1.25223 -3.17068 0
M  V30 5009 H 478.904 -0.542401 -2.94954 0
M  V30 5010 H 476.457 -0.319493 -1.53 0
M  V30 5011 H 477.192 1.99892 -2.55369 0
M  V30 5012 H 476.977 0.779515 -3.84273 0
M  V30 5013 H 478.467 1.76791 -3.78332 0
M  V30 5014 N 478.904 1.54736 -0.299062 0
M  V30 5015 C 480.15 2.00397 0.311244 0
M  V30 5016 C 480.483 1.18716 1.53688 0
M  V30 5017 O 479.758 0.263154 1.92712 0
M  V30 5018 C 480.041 3.53817 0.669761 0
M  V30 5019 C 479.894 4.46239 -0.564882 0
M  V30 5020 C 481.213 4.13856 1.49702 0
M  V30 5021 H 478.332 0.728493 0.111653 0
M  V30 5022 H 480.974 1.85506 -0.410774 0
M  V30 5023 H 479.124 3.66637 1.28491 0
M  V30 5024 H 480.796 4.45328 -1.20337 0
M  V30 5025 H 479.039 4.16916 -1.19849 0
M  V30 5026 H 479.71 5.5134 -0.269918 0
M  V30 5027 H 482.186 4.04461 0.977284 0
M  V30 5028 H 481.062 5.21365 1.71666 0
M  V30 5029 H 481.323 3.65608 2.48563 0
M  V30 5030 N 480.382 0.0267497 1.57577 0
M  V30 5031 C 481.315 -0.99059 2.05579 0
M  V30 5032 C 482.293 -1.31884 0.951065 0
M  V30 5033 O 483.477 -1.43592 1.22121 0
M  V30 5034 C 480.604 -2.31125 2.47586 0
M  V30 5035 C 479.65 -2.13777 3.69055 0
M  V30 5036 S 480.483 -1.4388 5.15809 0
M  V30 5037 C 481.639 -2.77321 5.6111 0
M  V30 5038 H 481.872 -0.581976 2.91548 0
M  V30 5039 H 479.405 -0.184876 1.53289 0
M  V30 5040 H 481.363 -3.07049 2.72454 0
M  V30 5041 H 480.024 -2.6912 1.61967 0
M  V30 5042 H 479.217 -3.11405 3.96287 0
M  V30 5043 H 478.819 -1.45996 3.44327 0
M  V30 5044 H 481.111 -3.73565 5.65204 0
M  V30 5045 H 482.054 -2.54756 6.60685 0
M  V30 5046 H 482.462 -2.82459 4.88751 0
M  V30 5047 N 481.861 -1.55662 -0.24637 0
M  V30 5048 C 483.277 -1.48098 -0.594907 0
M  V30 5049 C 483.477 -0.717044 -1.8831 0
M  V30 5050 O 482.533 -0.246618 -2.51293 0
M  V30 5051 C 483.846 -2.92507 -0.697146 0
M  V30 5052 C 485.394 -3.02881 -0.789436 0
M  V30 5053 C 485.869 -4.48598 -0.923232 0
M  V30 5054 N 487.36 -4.52538 -0.988088 0
M  V30 5055 C 488.095 -5.62536 -1.11089 0
M  V30 5056 N 487.591 -6.82342 -1.19919 0
M  V30 5057 N 489.384 -5.50334 -1.14408 0
M  V30 5058 H 481.535 -2.0377 0.599278 0
M  V30 5059 H 483.798 -0.925145 0.20691 0
M  V30 5060 H 483.504 -3.51242 0.179396 0
M  V30 5061 H 483.378 -3.43024 -1.5689 0
M  V30 5062 H 485.765 -2.44226 -1.65643 0
M  V30 5063 H 485.846 -2.55574 0.107482 0
M  V30 5064 H 485.49 -5.07864 -0.0607927 0
M  V30 5065 H 485.42 -4.93587 -1.8352 0
M  V30 5066 H 487.911 -3.66248 -0.931167 0
M  V30 5067 H 488.224 -7.61924 -1.29197 0
M  V30 5068 H 486.569 -6.85102 -1.16876 0
M  V30 5069 H 489.76 -4.5567 -1.07158 0
M  V30 5070 H 489.933 -6.36096 -1.23634 0
M  V30 5071 N 483.339 0.512053 -1.4905 0
M  V30 5072 C 484.287 1.63568 -1.65373 0
M  V30 5073 C 485.281 1.61228 -0.519806 0
M  V30 5074 O 486.487 1.65869 -0.699101 0
M  V30 5075 H 482.862 0.542019 -0.521267 0
M  V30 5076 H 484.833 1.4695 -2.59708 0
M  V30 5077 C 483.582 3.01761 -1.7273 0
M  V30 5078 H 482.905 3.04263 -2.59353 0
M  V30 5079 H 484.345 3.79948 -1.8819 0
M  V30 5080 C 482.804 3.33609 -0.46973 0
M  V30 5081 O 483.334 3.99607 0.409492 0
M  V30 5082 N 481.54 2.88651 -0.336003 0
M  V30 5083 H 481.087 2.35119 -1.05247 0
M  V30 5084 H 481.045 3.10328 0.504363 0
M  V30 5085 N 484.817 1.37938 0.762283 0
M  V30 5086 C 486.233 1.18945 1.06415 0
M  V30 5087 C 486.433 0.0321163 2.01474 0
M  V30 5088 O 485.489 -0.624844 2.44647 0
M  V30 5089 C 486.802 2.51218 1.65258 0
M  V30 5090 C 488.35 2.57824 1.7747 0
M  V30 5091 C 488.825 3.90251 2.39725 0
M  V30 5092 N 490.316 3.91744 2.47166 0
M  V30 5093 C 491.051 4.90966 2.96209 0
M  V30 5094 N 490.547 6.00585 3.45354 0
M  V30 5095 N 492.34 4.78363 2.9517 0
M  V30 5096 H 484.491 2.11994 0.131301 0
M  V30 5097 H 486.754 0.940262 0.120879 0
M  V30 5098 H 486.46 3.36317 1.02878 0
M  V30 5099 H 486.334 2.68989 2.64433 0
M  V30 5100 H 488.721 1.73126 2.3898 0
M  V30 5101 H 488.802 2.43928 0.770241 0
M  V30 5102 H 488.446 4.75368 1.78852 0
M  V30 5103 H 488.376 4.01454 3.40796 0
M  V30 5104 H 490.867 3.12563 2.12397 0
M  V30 5105 H 491.18 6.72236 3.81207 0
M  V30 5106 H 489.525 6.04217 3.43434 0
M  V30 5107 H 492.716 3.91841 2.56082 0
M  V30 5108 H 492.889 5.55843 3.33081 0
M  V30 5109 N 486.295 -0.989507 1.22664 0
M  V30 5110 C 487.542 -1.72953 1.05325 0
M  V30 5111 C 487.87 -1.90104 -0.411168 0
M  V30 5112 O 487.125 -1.44386 -1.32103 0
M  V30 5113 C 487.424 -3.13649 1.71345 0
M  V30 5114 C 487.09 -3.16403 3.21248 0
M  V30 5115 C 485.752 -3.16862 3.62149 0
M  V30 5116 C 488.104 -3.12428 4.17179 0
M  V30 5117 C 485.432 -3.11051 4.97458 0
M  V30 5118 C 487.784 -3.08159 5.52468 0
M  V30 5119 C 486.448 -3.06935 5.92746 0
M  V30 5120 H 485.718 -0.632881 0.385412 0
M  V30 5121 H 488.365 -1.15863 1.52473 0
M  V30 5122 H 486.67 -3.74069 1.16532 0
M  V30 5123 H 488.367 -3.69658 1.55416 0
M  V30 5124 H 484.957 -3.16798 2.88682 0
M  V30 5125 H 489.141 -3.11221 3.86595 0
M  V30 5126 H 484.397 -3.0845 5.27891 0
M  V30 5127 H 488.571 -3.04039 6.26525 0
M  V30 5128 H 486.198 -3.02186 6.97558 0
M  V30 5129 N 487.773 -1.03688 -1.18687 0
M  V30 5130 C 489.05 -0.652397 -1.84399 0
M  V30 5131 C 489.43 0.868386 -1.92412 0
M  V30 5132 O 488.778 1.76832 -1.44716 0
M  V30 5133 C 488.988 -1.3238 -3.22919 0
M  V30 5134 C 490.336 -1.45216 -3.98996 0
M  V30 5135 O 491.36 -1.2816 -3.32345 0
M  V30 5136 O 490.219 -1.72975 -5.18403 0
M  V30 5137 H 487.313 -0.227793 -0.795009 0
M  V30 5138 H 489.859 -1.13553 -1.2611 0
M  V30 5139 H 488.631 -2.36202 -3.11968 0
M  V30 5140 H 488.254 -0.829039 -3.88861 0
M  V30 5141 N 489.251 1.34841 -0.815825 0
M  V30 5142 C 490.491 2.00321 -0.406297 0
M  V30 5143 C 490.855 1.63293 1.00992 0
M  V30 5144 O 492.056 2.21563 1.52195 0
M  V30 5145 C 490.327 3.52421 -0.594469 0
M  V30 5146 S 491.886 4.37926 -0.276735 0
M  V30 5147 H 488.704 0.694155 -0.153848 0
M  V30 5148 H 491.306 1.64263 -1.06009 0
M  V30 5149 H 490.01 3.76858 -1.625 0
M  V30 5150 H 489.541 3.9333 0.0743157 0
M  V30 5151 H 491.556 4.87743 0.912215 0
M  V30 5152 N 490.729 0.570148 1.46925 0
M  V30 5153 C 491.692 -0.159933 2.28641 0
M  V30 5154 C 492.692 -0.830638 1.37685 0
M  V30 5155 O 493.882 -0.684516 1.60187 0
M  V30 5156 C 491.014 -1.2354 3.17727 0
M  V30 5157 H 492.207 0.558035 2.94662 0
M  V30 5158 H 489.76 0.327603 1.52828 0
M  V30 5159 H 490.495 -1.98535 2.56426 0
M  V30 5160 H 490.28 -0.759125 3.84681 0
M  V30 5161 H 491.77 -1.74782 3.79264 0
M  V30 5162 N 492.207 -1.54576 0.307264 0
M  V30 5163 C 493.456 -1.99442 -0.300976 0
M  V30 5164 C 493.769 -1.19928 -1.5452 0
M  V30 5165 O 494.975 -1.55092 -2.22842 0
M  V30 5166 C 493.431 -3.55084 -0.586809 0
M  V30 5167 C 493.039 -4.43413 0.639438 0
M  V30 5168 C 494.783 -4.0846 -1.1559 0
M  V30 5169 C 492.69 -5.90499 0.326411 0
M  V30 5170 H 491.62 -0.744986 -0.116238 0
M  V30 5171 H 494.271 -1.787 0.416947 0
M  V30 5172 H 492.653 -3.71749 -1.36449 0
M  V30 5173 H 493.827 -4.38522 1.41545 0
M  V30 5174 H 492.142 -4.00842 1.1276 0
M  V30 5175 H 494.739 -5.15926 -1.40445 0
M  V30 5176 H 495.082 -3.59443 -2.10015 0
M  V30 5177 H 495.615 -3.95362 -0.439778 0
M  V30 5178 H 492.354 -6.43676 1.23939 0
M  V30 5179 H 491.874 -5.98382 -0.412212 0
M  V30 5180 H 493.553 -6.46962 -0.0697393 0
M  V30 5181 N 493.685 -0.035106 -1.57561 0
M  V30 5182 C 494.931 0.64318 -1.92331 0
M  V30 5183 C 495.264 1.71434 -0.912368 0
M  V30 5184 O 494.539 1.94395 0.0640303 0
M  V30 5185 C 494.822 1.25411 -3.37556 0
M  V30 5186 C 494.675 0.192109 -4.4939 0
M  V30 5187 C 495.994 2.17041 -3.82859 0
M  V30 5188 H 493.113 0.232341 -0.699419 0
M  V30 5189 H 495.755 -0.0935889 -1.89769 0
M  V30 5190 H 493.905 1.88205 -3.39869 0
M  V30 5191 H 495.577 -0.438849 -4.59208 0
M  V30 5192 H 493.82 -0.481725 -4.31117 0
M  V30 5193 H 494.491 0.659292 -5.48049 0
M  V30 5194 H 496.967 1.64228 -3.8232 0
M  V30 5195 H 495.843 2.56738 -4.85157 0
M  V30 5196 H 496.104 3.06401 -3.18702 0
M  V30 5197 N 495.163 1.55791 0.238111 0
M  V30 5198 C 496.093 1.94068 1.29846 0
M  V30 5199 C 497.074 0.806726 1.49753 0
M  V30 5200 O 498.259 1.06772 1.62214 0
M  V30 5201 C 495.389 2.24302 2.65153 0
M  V30 5202 C 494.343 3.40032 2.59927 0
M  V30 5203 C 493.669 3.55829 3.99111 0
M  V30 5204 C 494.969 4.75476 2.16148 0
M  V30 5205 H 496.663 2.82887 0.980563 0
M  V30 5206 H 494.209 1.36105 0.470253 0
M  V30 5207 H 496.162 2.4967 3.39475 0
M  V30 5208 H 494.886 1.32318 2.98596 0
M  V30 5209 H 493.545 3.14687 1.88063 0
M  V30 5210 H 493.193 2.6125 4.29834 0
M  V30 5211 H 492.893 4.3366 3.96501 0
M  V30 5212 H 494.417 3.83528 4.7512 0
M  V30 5213 H 495.831 5.00158 2.80205 0
M  V30 5214 H 494.228 5.56472 2.24631 0
M  V30 5215 H 495.298 4.71946 1.11333 0
M  V30 5216 N 496.642 -0.504142 1.49319 0
M  V30 5217 C 497.572 -1.61473 1.68667 0
M  V30 5218 C 498.553 -1.61455 0.535378 0
M  V30 5219 O 499.738 -1.78245 0.770868 0
M  V30 5220 C 496.868 -2.99971 1.75028 0
M  V30 5221 C 495.822 -3.14854 2.89916 0
M  V30 5222 C 495.148 -4.54671 2.81387 0
M  V30 5223 C 496.448 -2.95176 4.30893 0
M  V30 5224 H 498.142 -1.45535 2.61648 0
M  V30 5225 H 495.688 -0.698711 1.25913 0
M  V30 5226 H 497.641 -3.77562 1.8715 0
M  V30 5227 H 496.365 -3.1699 0.786441 0
M  V30 5228 H 495.024 -2.39687 2.77391 0
M  V30 5229 H 494.672 -4.68562 1.82917 0
M  V30 5230 H 494.372 -4.6557 3.58494 0
M  V30 5231 H 495.896 -5.34327 2.95512 0
M  V30 5232 H 497.31 -3.62538 4.44116 0
M  V30 5233 H 495.707 -3.17549 5.09198 0
M  V30 5234 H 496.777 -1.91332 4.45556 0
M  V30 5235 N 498.12 -1.38341 -0.754957 0
M  V30 5236 C 499.348 -1.37704 -1.54419 0
M  V30 5237 C 499.763 0.0335243 -1.8877 0
M  V30 5238 O 499.12 0.999773 -1.52679 0
M  V30 5239 C 499.171 -2.23136 -2.84416 0
M  V30 5240 O 498.892 -3.58697 -2.51531 0
M  V30 5241 C 500.393 -2.30664 -3.78562 0
M  V30 5242 H 497.613 -0.471061 -0.477852 0
M  V30 5243 H 500.157 -1.81902 -0.934446 0
M  V30 5244 H 498.312 -1.82403 -3.41772 0
M  V30 5245 H 498.726 -4.03665 -3.34896 0
M  V30 5246 H 500.2 -2.9473 -4.66732 0
M  V30 5247 H 500.677 -1.3199 -4.18898 0
M  V30 5248 H 501.283 -2.71781 -3.27131 0
M  V30 5249 N 499.598 0.982988 -1.23187 0
M  V30 5250 C 500.548 2.05962 -0.977942 0
M  V30 5251 C 501.532 1.60725 0.0751148 0
M  V30 5252 O 502.724 1.76471 -0.136683 0
M  V30 5253 C 499.853 3.38564 -0.568276 0
M  V30 5254 C 498.939 3.90407 -1.6566 0
M  V30 5255 N 499.33 4.15359 -2.88635 0
M  V30 5256 C 497.628 4.18915 -1.53058 0
M  V30 5257 C 498.329 4.57642 -3.5908 0
M  V30 5258 N 497.305 4.6192 -2.86584 0
M  V30 5259 H 501.107 2.23208 -1.91195 0
M  V30 5260 H 498.621 1.16555 -1.13087 0
M  V30 5261 H 500.618 4.15276 -0.36764 0
M  V30 5262 H 499.278 3.22712 0.358713 0
M  V30 5263 H 500.289 4.03258 -3.24966 0
M  V30 5264 H 496.966 4.12081 -0.670506 0
M  V30 5265 H 498.356 4.85488 -4.6449 0
M  V30 5266 N 501.076 1.04316 1.18135 0
M  V30 5267 C 502.324 0.746542 1.87806 0
M  V30 5268 C 502.645 -0.728082 1.80898 0
M  V30 5269 O 501.915 -1.52554 1.22899 0
M  V30 5270 H 500.495 0.273157 0.695265 0
M  V30 5271 H 503.157 1.32044 1.43354 0
M  V30 5272 H 502.253 1.05362 2.93778 0
M  V30 5273 N 502.554 -1.34406 0.822964 0
M  V30 5274 C 503.517 -2.2783 0.250271 0
M  V30 5275 C 504.517 -1.50288 -0.571854 0
M  V30 5276 O 505.707 -1.69825 -0.387952 0
M  V30 5277 C 502.839 -3.34663 -0.649137 0
M  V30 5278 H 504.032 -2.79992 1.07444 0
M  V30 5279 H 501.585 -1.44539 0.594829 0
M  V30 5280 H 502.32 -2.87714 -1.49637 0
M  V30 5281 H 502.105 -3.92052 -0.0611199 0
M  V30 5282 H 503.595 -4.04349 -1.04363 0
M  V30 5283 N 504.032 -0.577932 -1.46621 0
M  V30 5284 C 504.98 0.170882 -2.31971 0
M  V30 5285 C 505.974 0.889086 -1.44193 0
M  V30 5286 O 507.18 0.808017 -1.60845 0
M  V30 5287 H 503.555 0.0739763 -0.748353 0
M  V30 5288 H 505.526 -0.567856 -2.92947 0
M  V30 5289 C 504.275 1.17438 -3.27267 0
M  V30 5290 H 503.598 0.63116 -3.94787 0
M  V30 5291 H 505.038 1.66882 -3.89778 0
M  V30 5292 C 503.497 2.23292 -2.52274 0
M  V30 5293 O 504.027 3.30567 -2.28229 0
M  V30 5294 N 502.233 1.97772 -2.12919 0
M  V30 5295 H 501.78 1.10545 -2.32675 0
M  V30 5296 H 501.738 2.68809 -1.63062 0
M  V30 5297 N 505.51 1.54411 -0.315457 0
M  V30 5298 C 506.473 2.22713 0.54142 0
M  V30 5299 C 507.473 1.2179 1.04995 0
M  V30 5300 O 508.663 1.46426 0.943667 0
M  V30 5301 C 505.795 2.92485 1.75116 0
M  V30 5302 H 506.988 2.99849 -0.0555508 0
M  V30 5303 H 504.541 1.56159 -0.0664453 0
M  V30 5304 H 505.276 2.19466 2.38758 0
M  V30 5305 H 505.061 3.66483 1.39401 0
M  V30 5306 H 506.551 3.44548 2.35959 0
M  V30 5307 N 506.988 0.0434614 1.5754 0
M  V30 5308 C 508.265 -0.671479 1.83713 0
M  V30 5309 C 508.645 -1.89495 0.930315 0
M  V30 5310 O 507.993 -2.28498 -0.0105639 0
M  V30 5311 C 508.203 -1.0361 3.33266 0
M  V30 5312 C 509.551 -1.42167 4.00092 0
M  V30 5313 O 510.575 -1.12866 3.37846 0
M  V30 5314 O 509.434 -1.96817 5.09829 0
M  V30 5315 H 506.528 -0.330726 0.75799 0
M  V30 5316 H 509.074 0.0722373 1.69546 0
M  V30 5317 H 507.846 -0.165938 3.90948 0
M  V30 5318 H 507.469 -1.83751 3.52592 0
M  V30 5319 N 508.466 -1.55915 -0.229846 0
M  V30 5320 C 509.429 -1.90914 -1.26824 0
M  V30 5321 C 510.429 -0.786999 -1.40225 0
M  V30 5322 O 511.619 -1.05484 -1.38632 0
M  V30 5323 C 508.751 -2.15264 -2.64337 0
M  V30 5324 H 509.944 -2.8378 -0.969998 0
M  V30 5325 H 507.497 -1.49069 -0.4699 0
M  V30 5326 H 508.232 -1.24923 -2.99274 0
M  V30 5327 H 508.017 -2.97005 -2.55989 0
M  V30 5328 H 509.507 -2.43467 -3.39284 0
M  V30 5329 N 509.944 0.496216 -1.49584 0
M  V30 5330 C 511.36 0.827814 -1.36453 0
M  V30 5331 C 511.56 1.97464 -0.401285 0
M  V30 5332 O 510.616 2.51958 0.165296 0
M  V30 5333 C 511.929 1.16352 -2.77277 0
M  V30 5334 C 513.477 1.27145 -2.86013 0
M  V30 5335 C 513.952 1.64042 -4.27615 0
M  V30 5336 N 515.443 1.71082 -4.30448 0
M  V30 5337 C 516.178 2.01085 -5.36984 0
M  V30 5338 N 515.674 2.2928 -6.5376 0
M  V30 5339 N 517.467 2.02376 -5.24405 0
M  V30 5340 H 509.618 -0.259947 -2.10803 0
M  V30 5341 H 511.881 -0.0537163 -0.946477 0
M  V30 5342 H 511.587 0.394153 -3.49484 0
M  V30 5343 H 511.461 2.10582 -3.12946 0
M  V30 5344 H 513.848 2.03152 -2.1404 0
M  V30 5345 H 513.929 0.309542 -2.5392 0
M  V30 5346 H 513.573 0.88583 -5.00115 0
M  V30 5347 H 513.503 2.6134 -4.57175 0
M  V30 5348 H 515.994 1.51434 -3.46232 0
M  V30 5349 H 516.307 2.51376 -7.30774 0
M  V30 5350 H 514.652 2.26726 -6.56978 0
M  V30 5351 H 517.843 1.79829 -4.32179 0
M  V30 5352 H 518.016 2.25425 -6.07526 0
M  V30 5353 N 511.423 1.38739 0.74761 0
M  V30 5354 C 512.671 1.35007 1.50391 0
M  V30 5355 C 512.992 -0.0574274 1.94915 0
M  V30 5356 O 512.262 -1.00628 1.6808 0
M  V30 5357 H 510.842 0.496784 0.557866 0
M  V30 5358 H 513.504 1.73479 0.888319 0
M  V30 5359 H 512.6 2.00474 2.392 0
M  V30 5360 N 512.901 -0.976442 1.23707 0
M  V30 5361 C 513.811 -2.10359 1.03856 0
M  V30 5362 C 514.827 -1.73991 -0.0180919 0
M  V30 5363 O 516.003 -2.0061 0.178211 0
M  V30 5364 C 513.068 -3.40809 0.636387 0
M  V30 5365 C 512.129 -3.91179 1.76854 0
M  V30 5366 C 511.362 -5.15404 1.38546 0
M  V30 5367 O 511.585 -5.69754 0.27142 0
M  V30 5368 O 510.519 -5.5994 2.20797 0
M  V30 5369 H 514.345 -2.29997 1.98331 0
M  V30 5370 H 511.93 -1.08742 1.02448 0
M  V30 5371 H 513.812 -4.19269 0.423223 0
M  V30 5372 H 512.487 -3.22493 -0.279322 0
M  V30 5373 H 511.394 -3.13819 2.03638 0
M  V30 5374 H 512.727 -4.13958 2.6627 0
M  V30 5375 N 514.379 -1.04941 -1.1758 0
M  V30 5376 C 515.329 -0.618378 -2.19454 0
M  V30 5377 C 516.313 0.343813 -1.57184 0
M  V30 5378 O 517.505 0.16145 -1.76262 0
M  V30 5379 C 514.634 0.00803847 -3.43299 0
M  V30 5380 C 513.72 -0.977827 -4.12673 0
M  V30 5381 N 514.111 -2.14826 -4.57912 0
M  V30 5382 C 512.409 -0.805748 -4.38661 0
M  V30 5383 C 513.11 -2.77174 -5.11419 0
M  V30 5384 N 512.086 -2.04989 -5.03468 0
M  V30 5385 H 515.888 -1.51018 -2.52132 0
M  V30 5386 H 513.402 -0.919201 -1.33882 0
M  V30 5387 H 515.399 0.334584 -4.15555 0
M  V30 5388 H 514.059 0.895272 -3.12114 0
M  V30 5389 H 515.07 -2.52673 -4.52081 0
M  V30 5390 H 511.747 0.0306506 -4.17489 0
M  V30 5391 H 513.137 -3.76416 -5.56562 0
M  V30 5392 N 515.857 1.33968 -0.830081 0
M  V30 5393 C 517.105 1.97672 -0.420734 0
M  V30 5394 C 517.426 1.66111 1.02138 0
M  V30 5395 O 516.696 0.955503 1.71017 0
M  V30 5396 H 515.276 0.73125 -0.152587 0
M  V30 5397 H 517.938 1.63483 -1.0611 0
M  V30 5398 H 517.034 3.07294 -0.545588 0
M  V30 5399 N 517.335 0.585699 1.46312 0
M  V30 5400 C 518.283 -0.158577 2.32059 0
M  V30 5401 C 519.277 -0.881427 1.44662 0
M  V30 5402 O 520.483 -0.799476 1.61271 0
M  V30 5403 H 516.858 -0.0700066 0.748734 0
M  V30 5404 H 518.829 0.583383 2.92642 0
M  V30 5405 C 517.578 -1.15701 3.27885 0
M  V30 5406 H 516.901 -0.610215 3.95116 0
M  V30 5407 H 518.341 -1.64812 3.90657 0
M  V30 5408 C 516.8 -2.21951 2.53455 0
M  V30 5409 O 517.33 -3.29352 2.29978 0
M  V30 5410 N 515.536 -1.9664 2.13965 0
M  V30 5411 H 515.083 -1.09309 2.33258 0
M  V30 5412 H 515.041 -2.6794 1.64485 0
M  V30 5413 N 518.813 -1.54241 0.323641 0
M  V30 5414 C 520.041 -2.04985 -0.280871 0
M  V30 5415 C 520.456 -1.19978 -1.45777 0
M  V30 5416 O 519.813 -0.230471 -1.81039 0
M  V30 5417 C 519.864 -3.54353 -0.715258 0
M  V30 5418 O 519.585 -4.36132 0.414817 0
M  V30 5419 C 521.086 -4.21189 -1.38257 0
M  V30 5420 H 518.306 -0.66851 -0.0577502 0
M  V30 5421 H 520.85 -1.99029 0.469852 0
M  V30 5422 H 519.005 -3.60596 -1.41596 0
M  V30 5423 H 519.419 -5.2445 0.0725227 0
M  V30 5424 H 520.893 -5.27154 -1.63745 0
M  V30 5425 H 521.37 -3.72307 -2.32989 0
M  V30 5426 H 521.976 -4.19085 -0.724447 0
M  V30 5427 N 520.291 -0.0518155 -1.57515 0
M  V30 5428 C 521.702 0.483787 -1.80323 0
M  V30 5429 C 522.053 1.70879 -0.964099 0
M  V30 5430 O 521.178 2.15643 -0.180872 0
M  V30 5431 C 521.773 0.884459 -3.27052 0
M  V30 5432 C 520.332 1.36504 -3.50776 0
M  V30 5433 C 519.479 0.340539 -2.75201 0
M  V30 5434 H 522.43 -0.277691 -1.56252 0
M  V30 5435 H 522.451 1.74733 -3.38007 0
M  V30 5436 H 521.963 -0.00731093 -3.88099 0
M  V30 5437 H 520.064 2.27598 -2.95009 0
M  V30 5438 H 520.177 1.35675 -4.59488 0
M  V30 5439 H 518.541 0.81356 -2.41357 0
M  V30 5440 H 519.324 -0.543156 -3.38976 0
M  V30 5441 N 521.769 1.56035 0.221574 0
M  V30 5442 C 522.699 1.95434 1.2778 0
M  V30 5443 C 523.68 0.822564 1.48889 0
M  V30 5444 O 524.865 1.08486 1.61072 0
M  V30 5445 C 521.995 2.27102 2.62759 0
M  V30 5446 C 520.949 3.4277 2.56306 0
M  V30 5447 C 520.275 3.60043 3.95314 0
M  V30 5448 C 521.575 4.77742 2.11093 0
M  V30 5449 H 523.269 2.83912 0.950504 0
M  V30 5450 H 520.815 1.36596 0.455791 0
M  V30 5451 H 522.768 2.53256 3.36807 0
M  V30 5452 H 521.492 1.35478 2.97176 0
M  V30 5453 H 520.151 3.16664 1.84715 0
M  V30 5454 H 519.799 2.65794 4.27039 0
M  V30 5455 H 519.499 4.37841 3.91879 0
M  V30 5456 H 521.023 3.88545 4.71025 0
M  V30 5457 H 522.437 5.03102 2.74885 0
M  V30 5458 H 520.834 5.58823 2.18716 0
M  V30 5459 H 521.904 4.731 1.06321 0
M  V30 5460 N 523.247 -0.488276 1.49845 0
M  V30 5461 C 524.197 -1.58556 1.63842 0
M  V30 5462 C 525.181 -1.53142 0.493586 0
M  V30 5463 O 526.373 -1.60457 0.747169 0
M  V30 5464 C 523.502 -2.97101 1.72005 0
M  V30 5465 C 522.588 -3.07463 2.92108 0
M  V30 5466 N 522.979 -2.87681 4.16021 0
M  V30 5467 C 521.277 -3.3858 2.90309 0
M  V30 5468 C 521.978 -3.0256 4.96822 0
M  V30 5469 N 520.954 -3.32002 4.30437 0
M  V30 5470 H 524.756 -1.41935 2.57355 0
M  V30 5471 H 522.27 -0.694668 1.46793 0
M  V30 5472 H 524.267 -3.75976 1.80132 0
M  V30 5473 H 522.927 -3.14782 0.796375 0
M  V30 5474 H 523.938 -2.63603 4.45796 0
M  V30 5475 H 520.615 -3.62357 2.07372 0
M  V30 5476 H 522.005 -2.9165 6.05301 0
M  V30 5477 N 524.725 -1.39134 -0.740242 0
M  V30 5478 C 525.655 -1.40165 -1.86751 0
M  V30 5479 C 526.636 -0.265708 -1.68012 0
M  V30 5480 O 527.821 -0.47076 -1.88408 0
M  V30 5481 C 524.951 -1.2392 -3.2444 0
M  V30 5482 C 523.905 -2.34858 -3.57807 0
M  V30 5483 C 523.231 -2.03707 -4.94376 0
M  V30 5484 C 524.531 -3.77159 -3.61315 0
M  V30 5485 H 526.225 -2.345 -1.86145 0
M  V30 5486 H 523.771 -1.12875 -0.89416 0
M  V30 5487 H 525.724 -1.23263 -4.02969 0
M  V30 5488 H 524.448 -0.26051 -3.25559 0
M  V30 5489 H 523.107 -2.34723 -2.81604 0
M  V30 5490 H 522.755 -1.04289 -4.9207 0
M  V30 5491 H 522.455 -2.78016 -5.17669 0
M  V30 5492 H 523.979 -2.04691 -5.75268 0
M  V30 5493 H 525.393 -3.79252 -4.29931 0
M  V30 5494 H 523.79 -4.50784 -3.96124 0
M  V30 5495 H 524.86 -4.08513 -2.61238 0
M  V30 5496 N 526.204 0.969867 -1.24223 0
M  V30 5497 C 527.167 2.04564 -1.03373 0
M  V30 5498 C 528.167 1.60798 0.00819206 0
M  V30 5499 O 529.357 1.72641 -0.232567 0
M  V30 5500 C 526.489 3.36163 -0.566343 0
M  V30 5501 H 527.682 2.24494 -1.98853 0
M  V30 5502 H 525.235 1.1448 -1.06415 0
M  V30 5503 H 525.97 3.21925 0.391751 0
M  V30 5504 H 525.755 3.69273 -1.31834 0
M  V30 5505 H 527.245 4.1526 -0.441435 0
M  V30 5506 N 527.682 1.05563 1.17022 0
M  V30 5507 C 528.615 0.604197 2.20056 0
M  V30 5508 C 529.593 -0.369169 1.58354 0
M  V30 5509 O 530.777 -0.279898 1.8641 0
M  V30 5510 C 527.904 -0.115265 3.38504 0
M  V30 5511 C 526.95 0.813698 4.18666 0
M  V30 5512 S 527.783 2.30492 4.83357 0
M  V30 5513 C 528.939 1.59674 6.0519 0
M  V30 5514 H 529.172 1.47713 2.58008 0
M  V30 5515 H 526.705 0.867932 1.27696 0
M  V30 5516 H 528.663 -0.524162 4.0714 0
M  V30 5517 H 527.324 -0.964284 2.98932 0
M  V30 5518 H 526.517 0.256736 5.03346 0
M  V30 5519 H 526.119 1.16213 3.55486 0
M  V30 5520 H 528.411 0.898164 6.7152 0
M  V30 5521 H 529.354 2.42115 6.65422 0
M  V30 5522 H 529.762 1.08252 5.54023 0
M  V30 5523 N 529.16 -1.33526 0.837174 0
M  V30 5524 C 530.385 -2.0258 0.444545 0
M  V30 5525 C 530.81 -1.6258 -0.946006 0
M  V30 5526 O 530.168 -0.817548 -1.6182 0
M  V30 5527 C 530.216 -3.5605 0.571006 0
M  V30 5528 O 529.32 -4.10422 -0.403431 0
M  V30 5529 H 528.661 -0.638866 0.180958 0
M  V30 5530 H 531.191 -1.70462 1.13154 0
M  V30 5531 H 531.201 -4.05488 0.452024 0
M  V30 5532 H 529.876 -3.84509 1.58512 0
M  V30 5533 H 528.453 -3.72113 -0.242147 0
M  V30 5534 N 530.638 -0.59345 -1.46 0
M  V30 5535 C 531.585 0.133618 -2.30413 0
M  V30 5536 C 532.555 0.873736 -1.41262 0
M  V30 5537 O 533.74 0.862279 -1.70204 0
M  V30 5538 C 530.88 1.13434 -3.25924 0
M  V30 5539 C 529.993 0.39656 -4.30176 0
M  V30 5540 C 529.128 1.38575 -5.12806 0
M  V30 5541 C 528.167 0.634984 -6.08797 0
M  V30 5542 N 527.304 1.57276 -6.84258 0
M  V30 5543 H 532.144 -0.592252 -2.92055 0
M  V30 5544 H 529.681 -0.303874 -1.43927 0
M  V30 5545 H 531.639 1.72752 -3.79753 0
M  V30 5546 H 530.269 1.82779 -2.66067 0
M  V30 5547 H 529.321 -0.311861 -3.79119 0
M  V30 5548 H 530.633 -0.189869 -4.98438 0
M  V30 5549 H 529.787 2.05141 -5.70966 0
M  V30 5550 H 528.526 2.00611 -4.44529 0
M  V30 5551 H 527.531 -0.0443925 -5.49782 0
M  V30 5552 H 528.756 0.0198678 -6.79097 0
M  V30 5553 H 526.702 2.18103 -6.18682 0
M  V30 5554 H 526.619 1.03941 -7.48821 0
M  V30 5555 H 527.887 2.22844 -7.46968 0
M  V30 5556 N 532.116 1.54067 -0.331816 0
M  V30 5557 C 533.393 1.92915 0.322955 0
M  V30 5558 C 533.773 1.26225 1.69205 0
M  V30 5559 O 533.121 0.408919 2.24811 0
M  V30 5560 C 533.331 3.46619 0.406946 0
M  V30 5561 C 534.679 4.19386 0.663339 0
M  V30 5562 O 535.703 3.5282 0.489536 0
M  V30 5563 O 534.562 5.37288 0.999193 0
M  V30 5564 H 531.656 0.805808 0.186016 0
M  V30 5565 H 534.202 1.65342 -0.382135 0
M  V30 5566 H 532.974 3.87354 -0.554287 0
M  V30 5567 H 532.597 3.80324 1.15929 0
M  V30 5568 N 533.594 0.0601682 1.57485 0
M  V30 5569 C 534.542 -0.928899 2.13247 0
M  V30 5570 C 535.536 -1.31616 1.06647 0
M  V30 5571 O 536.742 -1.29476 1.25043 0
M  V30 5572 H 533.117 -0.317455 0.681708 0
M  V30 5573 H 535.088 -0.433566 2.95233 0
M  V30 5574 C 533.837 -2.19121 2.69965 0
M  V30 5575 H 533.16 -1.90204 3.51657 0
M  V30 5576 H 534.6 -2.86465 3.12592 0
M  V30 5577 C 533.059 -2.94195 1.64168 0
M  V30 5578 O 533.589 -3.87468 1.05978 0
M  V30 5579 N 531.795 -2.57089 1.35476 0
M  V30 5580 H 531.342 -1.81314 1.82984 0
M  V30 5581 H 531.3 -3.07624 0.649196 0
M  V30 5582 N 535.072 -1.5615 -0.213296 0
M  V30 5583 C 536.318 -1.79812 -0.937849 0
M  V30 5584 C 536.651 -0.631201 -1.83656 0
M  V30 5585 O 535.926 0.369165 -1.90964 0
M  V30 5586 C 536.209 -3.13613 -1.76972 0
M  V30 5587 C 536.062 -4.40766 -0.89695 0
M  V30 5588 C 537.381 -3.43931 -2.7459 0
M  V30 5589 H 534.5 -0.654138 -0.339518 0
M  V30 5590 H 537.142 -1.88877 -0.20623 0
M  V30 5591 H 535.292 -3.06015 -2.39347 0
M  V30 5592 H 536.964 -4.60392 -0.289306 0
M  V30 5593 H 535.207 -4.33326 -0.202756 0
M  V30 5594 H 535.878 -5.30843 -1.51358 0
M  V30 5595 H 538.354 -3.5171 -2.22349 0
M  V30 5596 H 537.23 -4.38706 -3.29891 0
M  V30 5597 H 537.491 -2.6651 -3.52739 0
M  V30 5598 N 536.55 0.480323 -1.50102 0
M  V30 5599 C 537.46 1.60547 -1.71061 0
M  V30 5600 C 538.476 1.63564 -0.593529 0
M  V30 5601 O 539.652 1.81604 -0.870751 0
M  V30 5602 C 536.717 2.96814 -1.79171 0
M  V30 5603 C 535.778 3.04259 -3.02861 0
M  V30 5604 C 535.011 4.34027 -3.10574 0
M  V30 5605 O 535.234 5.24009 -2.25323 0
M  V30 5606 O 534.168 4.46873 -4.03223 0
M  V30 5607 H 537.994 1.45788 -2.6642 0
M  V30 5608 H 535.579 0.658838 -1.34088 0
M  V30 5609 H 537.461 3.77765 -1.86738 0
M  V30 5610 H 536.136 3.11791 -0.869947 0
M  V30 5611 H 535.043 2.22419 -3.008 0
M  V30 5612 H 536.376 2.94216 -3.94586 0
M  V30 5613 N 538.028 1.39524 0.732853 0
M  V30 5614 C 538.961 1.32806 1.85574 0
M  V30 5615 C 539.939 0.201354 1.61348 0
M  V30 5616 O 541.123 0.38216 1.84585 0
M  V30 5617 C 538.25 1.06271 3.21596 0
M  V30 5618 C 537.296 2.21161 3.64678 0
M  V30 5619 S 538.129 3.83454 3.73796 0
M  V30 5620 C 539.285 3.59149 5.12604 0
M  V30 5621 H 539.518 2.27838 1.9099 0
M  V30 5622 H 537.051 1.25605 0.897927 0
M  V30 5623 H 539.009 0.916461 4.00139 0
M  V30 5624 H 537.67 0.129223 3.13834 0
M  V30 5625 H 536.863 1.98193 4.63396 0
M  V30 5626 H 536.465 2.32 2.93346 0
M  V30 5627 H 538.757 3.16547 5.99003 0
M  V30 5628 H 539.7 4.57335 5.40602 0
M  V30 5629 H 540.108 2.93203 4.82382 0
M  V30 5630 N 539.506 -0.963266 1.24736 0
M  V30 5631 C 540.755 -1.70115 1.08369 0
M  V30 5632 C 541.068 -1.91939 -0.376688 0
M  V30 5633 O 542.274 -2.6334 -0.660624 0
M  V30 5634 C 540.73 -3.06218 1.89099 0
M  V30 5635 C 540.338 -2.92221 3.39574 0
M  V30 5636 C 542.082 -3.83848 1.81275 0
M  V30 5637 C 539.989 -4.23662 4.12631 0
M  V30 5638 H 538.919 -0.637944 0.401924 0
M  V30 5639 H 541.57 -1.07304 1.48856 0
M  V30 5640 H 539.952 -3.69884 1.41429 0
M  V30 5641 H 541.126 -2.37541 3.94856 0
M  V30 5642 H 539.441 -2.28054 3.48397 0
M  V30 5643 H 542.038 -4.81188 2.33158 0
M  V30 5644 H 542.381 -4.08949 0.778895 0
M  V30 5645 H 542.914 -3.26918 2.26649 0
M  V30 5646 H 539.653 -4.03753 5.16395 0
M  V30 5647 H 539.173 -4.78141 3.62135 0
M  V30 5648 H 540.852 -4.92256 4.19873 0
M  V30 5649 N 540.985 -1.06182 -1.16461 0
M  V30 5650 C 541.932 -0.671613 -2.20812 0
M  V30 5651 C 542.902 0.331186 -1.62765 0
M  V30 5652 O 544.087 0.22033 -1.89524 0
M  V30 5653 C 541.227 -0.063029 -3.45042 0
M  V30 5654 C 540.34 -1.11587 -4.1734 0
M  V30 5655 C 539.475 -0.473546 -5.29085 0
M  V30 5656 C 538.514 -1.51 -5.93182 0
M  V30 5657 N 537.651 -0.891118 -6.96422 0
M  V30 5658 H 542.491 -1.56589 -2.53542 0
M  V30 5659 H 540.028 -0.782951 -1.24532 0
M  V30 5660 H 541.986 0.307344 -4.16066 0
M  V30 5661 H 540.616 0.794663 -3.12866 0
M  V30 5662 H 539.668 -1.60396 -3.44931 0
M  V30 5663 H 540.98 -1.90221 -4.61104 0
M  V30 5664 H 540.134 -0.0501432 -6.06679 0
M  V30 5665 H 538.873 0.344687 -4.8648 0
M  V30 5666 H 537.878 -1.94331 -5.14311 0
M  V30 5667 H 539.103 -2.33031 -6.37866 0
M  V30 5668 H 537.049 -0.0935753 -6.55933 0
M  V30 5669 H 536.966 -1.61486 -7.38551 0
M  V30 5670 H 538.234 -0.492822 -7.77941 0
M  V30 5671 N 542.463 1.3308 -0.844243 0
M  V30 5672 C 543.426 2.27403 -0.286485 0
M  V30 5673 C 544.426 1.51179 0.547872 0
M  V30 5674 O 545.616 1.70421 0.360886 0
M  V30 5675 C 542.748 3.35653 0.595813 0
M  V30 5676 H 543.941 2.78248 -1.11885 0
M  V30 5677 H 541.494 1.43574 -0.617749 0
M  V30 5678 H 542.229 2.90058 1.4504 0
M  V30 5679 H 542.014 3.921 -0.00125994 0
M  V30 5680 H 543.504 4.05958 0.979168 0
M  V30 5681 N 543.941 0.601185 1.45683 0
M  V30 5682 C 544.871 -0.108824 2.33246 0
M  V30 5683 C 545.852 -0.865223 1.46451 0
M  V30 5684 O 547.037 -0.83704 1.75235 0
M  V30 5685 C 544.167 -1.11101 3.2905 0
M  V30 5686 C 543.121 -0.468244 4.25431 0
M  V30 5687 C 542.447 -1.57822 5.10878 0
M  V30 5688 C 543.747 0.606469 5.18767 0
M  V30 5689 H 545.441 0.622306 2.92861 0
M  V30 5690 H 542.987 0.300714 1.40825 0
M  V30 5691 H 544.94 -1.61622 3.89174 0
M  V30 5692 H 543.664 -1.87265 2.67581 0
M  V30 5693 H 542.323 0.0160484 3.66596 0
M  V30 5694 H 541.971 -2.32998 4.45781 0
M  V30 5695 H 541.671 -1.15369 5.76163 0
M  V30 5696 H 543.195 -2.08583 5.73869 0
M  V30 5697 H 544.609 0.185589 5.73 0
M  V30 5698 H 543.006 0.952381 5.92494 0
M  V30 5699 H 544.076 1.48559 4.61582 0
M  V30 5700 N 545.419 -1.53889 0.339982 0
M  V30 5701 C 546.668 -2.00035 -0.258604 0
M  V30 5702 C 546.981 -1.23179 -1.51942 0
M  V30 5703 O 548.187 -1.59784 -2.19503 0
M  V30 5704 C 546.643 -3.56249 -0.511359 0
M  V30 5705 C 546.251 -4.41957 0.733349 0
M  V30 5706 C 547.995 -4.1082 -1.069 0
M  V30 5707 C 545.902 -5.89673 0.451591 0
M  V30 5708 H 544.832 -0.747284 -0.10041 0
M  V30 5709 H 547.483 -1.77776 0.454758 0
M  V30 5710 H 545.865 -3.7456 -1.28533 0
M  V30 5711 H 547.039 -4.35421 1.50815 0
M  V30 5712 H 545.354 -3.9836 1.21237 0
M  V30 5713 H 547.951 -5.18789 -1.2947 0
M  V30 5714 H 548.294 -3.63817 -2.02343 0
M  V30 5715 H 548.827 -3.96205 -0.355817 0
M  V30 5716 H 545.566 -6.40903 1.37565 0
M  V30 5717 H 545.086 -5.99122 -0.285193 0
M  V30 5718 H 546.765 -6.46965 0.0675067 0
M  V30 5719 N 546.897 -0.0685191 -1.57451 0
M  V30 5720 C 548.143 0.602239 -1.93652 0
M  V30 5721 C 548.476 1.6946 -0.948526 0
M  V30 5722 O 547.751 1.94487 0.022782 0
M  V30 5723 C 548.034 1.18223 -3.4014 0
M  V30 5724 C 547.887 0.0967431 -4.49696 0
M  V30 5725 C 549.206 2.08872 -3.87377 0
M  V30 5726 H 546.325 0.217453 -0.70419 0
M  V30 5727 H 548.967 -0.133821 -1.89528 0
M  V30 5728 H 547.117 1.80953 -3.43785 0
M  V30 5729 H 548.789 -0.536155 -4.58174 0
M  V30 5730 H 547.032 -0.573063 -4.29998 0
M  V30 5731 H 547.703 0.542894 -5.49324 0
M  V30 5732 H 550.179 1.56081 -3.85717 0
M  V30 5733 H 549.055 2.46389 -4.90493 0
M  V30 5734 H 549.316 2.99572 -3.25129 0
M  V30 5735 N 548.375 1.56261 0.205012 0
M  V30 5736 C 549.622 1.8004 0.926927 0
M  V30 5737 C 549.95 0.640086 1.83666 0
M  V30 5738 O 549.205 -0.374702 1.92079 0
M  V30 5739 C 549.504 3.09722 1.78345 0
M  V30 5740 C 549.17 4.39082 1.02555 0
M  V30 5741 C 547.832 4.74226 0.816256 0
M  V30 5742 C 550.184 5.18877 0.491559 0
M  V30 5743 C 547.512 5.86668 0.0613287 0
M  V30 5744 C 549.864 6.32105 -0.250107 0
M  V30 5745 C 548.528 6.6584 -0.470508 0
M  V30 5746 H 547.798 0.658812 0.339187 0
M  V30 5747 H 550.445 1.90515 0.19395 0
M  V30 5748 H 548.75 2.9444 2.5848 0
M  V30 5749 H 550.447 3.25324 2.34446 0
M  V30 5750 H 547.037 4.11497 1.19868 0
M  V30 5751 H 551.221 4.92147 0.640684 0
M  V30 5752 H 546.477 6.11283 -0.119501 0
M  V30 5753 H 550.651 6.93157 -0.671307 0
M  V30 5754 H 548.278 7.5281 -1.05739 0
M  V30 5755 N 549.853 -0.472356 1.50355 0
M  V30 5756 C 551.101 -1.22211 1.60962 0
M  V30 5757 C 551.422 -1.92497 0.311439 0
M  V30 5758 O 550.692 -1.8405 -0.671002 0
M  V30 5759 H 549.272 -0.454092 0.593135 0
M  V30 5760 H 551.934 -0.544977 1.87126 0
M  V30 5761 H 551.03 -1.9707 2.42012 0
M  V30 5762 N 551.331 -1.39911 -0.725443 0
M  V30 5763 C 552.294 -1.39156 -1.82121 0
M  V30 5764 C 553.294 -0.287018 -1.58218 0
M  V30 5765 O 554.484 -0.545421 -1.65441 0
M  V30 5766 C 551.616 -1.1736 -3.20062 0
M  V30 5767 H 552.809 -2.36672 -1.84191 0
M  V30 5768 H 550.362 -1.25615 -0.930079 0
M  V30 5769 H 551.097 -0.205648 -3.23647 0
M  V30 5770 H 550.882 -1.97358 -3.3881 0
M  V30 5771 H 552.372 -1.19596 -4.00108 0
M  V30 5772 N 552.809 0.956637 -1.25245 0
M  V30 5773 C 553.719 2.0868 -1.0719 0
M  V30 5774 C 554.735 1.73997 -0.00959074 0
M  V30 5775 O 555.911 2.00301 -0.210104 0
M  V30 5776 C 552.976 3.39754 -0.690526 0
M  V30 5777 C 552.037 3.88316 -1.83055 0
M  V30 5778 C 551.27 5.13134 -1.46728 0
M  V30 5779 O 551.493 5.6925 -0.362029 0
M  V30 5780 O 550.427 5.56356 -2.29677 0
M  V30 5781 H 554.253 2.26813 -2.01965 0
M  V30 5782 H 551.838 1.07098 -1.04165 0
M  V30 5783 H 553.72 4.18543 -0.489871 0
M  V30 5784 H 552.395 3.22896 0.227981 0
M  V30 5785 H 551.302 3.1054 -2.08604 0
M  V30 5786 H 552.635 4.09669 -2.72822 0
M  V30 5787 N 554.287 1.06798 1.15896 0
M  V30 5788 C 555.533 0.788934 1.86825 0
M  V30 5789 C 555.866 -0.683084 1.8179 0
M  V30 5790 O 555.141 -1.50086 1.23711 0
M  V30 5791 C 555.424 1.29065 3.36176 0
M  V30 5792 C 555.277 2.8268 3.49874 0
M  V30 5793 C 556.596 0.902655 4.30744 0
M  V30 5794 H 553.715 0.288066 0.678371 0
M  V30 5795 H 556.357 1.32479 1.36195 0
M  V30 5796 H 554.507 0.834806 3.79425 0
M  V30 5797 H 556.179 3.36511 3.15528 0
M  V30 5798 H 554.422 3.21157 2.91617 0
M  V30 5799 H 555.093 3.12852 4.54783 0
M  V30 5800 H 557.569 1.29535 3.95424 0
M  V30 5801 H 556.445 1.28111 5.3374 0
M  V30 5802 H 556.706 -0.191951 4.41683 0
M  V30 5803 N 555.766 -1.3263 0.851289 0
M  V30 5804 C 557.043 -1.91982 0.374448 0
M  V30 5805 C 557.423 -1.77568 -1.14161 0
M  V30 5806 O 556.771 -1.1717 -1.96172 0
M  V30 5807 C 556.981 -3.38862 0.835088 0
M  V30 5808 C 558.329 -4.15999 0.850309 0
M  V30 5809 O 559.353 -3.47566 0.779505 0
M  V30 5810 O 558.212 -5.38189 0.949481 0
M  V30 5811 H 555.306 -0.819846 0.10854 0
M  V30 5812 H 557.852 -1.41422 0.937966 0
M  V30 5813 H 556.624 -3.43281 1.87814 0
M  V30 5814 H 556.247 -3.96821 0.248833 0
M  V30 5815 N 557.244 -0.608902 -1.45362 0
M  V30 5816 C 558.472 -0.111013 -2.06602 0
M  V30 5817 C 558.887 1.20516 -1.45332 0
M  V30 5818 O 558.244 1.73437 -0.567978 0
M  V30 5819 C 558.295 0.033688 -3.61484 0
M  V30 5820 O 558.016 -1.23041 -4.20467 0
M  V30 5821 C 559.517 0.562882 -4.39712 0
M  V30 5822 H 556.737 -0.0694453 -0.667397 0
M  V30 5823 H 559.281 -0.837008 -1.86586 0
M  V30 5824 H 557.436 0.710016 -3.80838 0
M  V30 5825 H 557.85 -1.06094 -5.13658 0
M  V30 5826 H 559.324 0.613213 -5.48583 0
M  V30 5827 H 559.801 1.58543 -4.09586 0
M  V30 5828 H 560.407 -0.0794454 -4.25226 0
M  V30 5829 N 558.722 1.53707 -0.348139 0
M  V30 5830 C 560.133 1.86213 0.134797 0
M  V30 5831 C 560.484 1.26925 1.49614 0
M  V30 5832 O 559.609 0.584573 2.08355 0
M  V30 5833 C 560.204 3.37866 0.251371 0
M  V30 5834 C 558.763 3.70233 0.678543 0
M  V30 5835 C 557.91 2.76683 -0.184925 0
M  V30 5836 H 560.861 1.48204 -0.567571 0
M  V30 5837 H 560.882 3.64908 1.07806 0
M  V30 5838 H 560.394 3.80988 -0.739581 0
M  V30 5839 H 558.495 3.32659 1.67835 0
M  V30 5840 H 558.608 4.76836 0.465251 0
M  V30 5841 H 556.972 2.52374 0.343465 0
M  V30 5842 H 557.755 3.22635 -1.1731 0
M  V30 5843 N 560.2 0.0768682 1.57412 0
M  V30 5844 C 561.148 -0.906229 2.1422 0
M  V30 5845 C 562.142 -1.30477 1.08037 0
M  V30 5846 O 563.348 -1.28143 1.2641 0
M  V30 5847 H 559.723 -0.310207 0.685037 0
M  V30 5848 H 561.694 -0.402228 2.95677 0
M  V30 5849 C 560.443 -2.16245 2.72274 0
M  V30 5850 H 559.766 -1.86463 3.53655 0
M  V30 5851 H 561.206 -2.83134 3.15613 0
M  V30 5852 C 559.665 -2.92437 1.67279 0
M  V30 5853 O 560.195 -3.86322 1.10081 0
M  V30 5854 N 558.401 -2.55637 1.38195 0
M  V30 5855 H 557.948 -1.79363 1.84897 0
M  V30 5856 H 557.906 -3.06919 0.681787 0
M  V30 5857 N 561.678 -1.56367 -0.196722 0
M  V30 5858 C 562.955 -1.71359 -0.943159 0
M  V30 5859 C 563.335 -0.631192 -2.01443 0
M  V30 5860 O 562.683 0.358071 -2.25677 0
M  V30 5861 C 562.893 -3.13623 -1.53106 0
M  V30 5862 C 564.241 -3.73806 -2.01381 0
M  V30 5863 O 565.265 -3.16742 -1.62951 0
M  V30 5864 O 564.124 -4.73951 -2.7209 0
M  V30 5865 H 561.218 -0.698851 -0.442195 0
M  V30 5866 H 563.764 -1.68672 -0.186547 0
M  V30 5867 H 562.536 -3.83873 -0.758785 0
M  V30 5868 H 562.159 -3.20532 -2.35255 0
M  V30 5869 N 563.156 0.464375 -1.50603 0
M  V30 5870 C 564.403 1.21596 -1.61928 0
M  V30 5871 C 564.731 1.91804 -0.322737 0
M  V30 5872 O 563.986 1.83065 0.691776 0
M  V30 5873 C 564.285 2.278 -2.75394 0
M  V30 5874 C 563.951 1.74797 -4.1564 0
M  V30 5875 C 562.613 1.60063 -4.53799 0
M  V30 5876 C 564.965 1.35548 -5.03266 0
M  V30 5877 C 562.293 1.04514 -5.77316 0
M  V30 5878 C 564.645 0.814381 -6.27336 0
M  V30 5879 C 563.309 0.653726 -6.64291 0
M  V30 5880 H 562.579 0.444951 -0.592536 0
M  V30 5881 H 565.226 0.510964 -1.84557 0
M  V30 5882 H 563.531 3.04233 -2.46879 0
M  V30 5883 H 565.228 2.85723 -2.81359 0
M  V30 5884 H 561.818 1.87234 -3.8554 0
M  V30 5885 H 566.002 1.45763 -4.74412 0
M  V30 5886 H 561.258 0.908186 -6.04617 0
M  V30 5887 H 565.432 0.501626 -6.94591 0
M  V30 5888 H 563.059 0.22114 -7.59878 0
M  V30 5889 N 564.634 1.40294 0.718013 0
M  V30 5890 C 565.882 1.38167 1.47494 0
M  V30 5891 C 566.203 -0.01607 1.94993 0
M  V30 5892 O 565.473 -0.970396 1.70177 0
M  V30 5893 H 564.053 0.508505 0.547203 0
M  V30 5894 H 566.715 1.75324 0.851322 0
M  V30 5895 H 565.811 2.05503 2.34894 0
M  V30 5896 N 566.112 -0.949982 1.2575 0
M  V30 5897 C 567.022 -2.08109 1.08295 0
M  V30 5898 C 568.038 -1.7399 0.0188181 0
M  V30 5899 O 569.214 -2.00187 0.220724 0
M  V30 5900 C 566.279 -3.39383 0.708534 0
M  V30 5901 C 565.34 -3.8734 1.85111 0
M  V30 5902 C 564.573 -5.12349 1.49447 0
M  V30 5903 O 564.796 -5.6905 0.392212 0
M  V30 5904 O 563.73 -5.5513 2.32624 0
M  V30 5905 H 567.556 -2.25738 2.03165 0
M  V30 5906 H 565.141 -1.06545 1.04731 0
M  V30 5907 H 567.023 -4.18277 0.512061 0
M  V30 5908 H 565.698 -3.23013 -0.210854 0
M  V30 5909 H 564.605 -3.09429 2.10248 0
M  V30 5910 H 565.938 -4.08216 2.74991 0
M  V30 5911 N 567.59 -1.07411 -1.15328 0
M  V30 5912 C 568.818 -0.818782 -1.90009 0
M  V30 5913 C 569.233 0.628072 -1.78047 0
M  V30 5914 O 568.59 1.43085 -1.13282 0
M  V30 5915 C 568.641 -1.21874 -3.40337 0
M  V30 5916 O 568.362 -2.60883 -3.51954 0
M  V30 5917 C 569.863 -0.992796 -4.3204 0
M  V30 5918 H 567.083 -0.296007 -0.60218 0
M  V30 5919 H 569.627 -1.43073 -1.46117 0
M  V30 5920 H 567.782 -0.651103 -3.81889 0
M  V30 5921 H 568.196 -2.77216 -4.45255 0
M  V30 5922 H 569.67 -1.32215 -5.35932 0
M  V30 5923 H 570.147 0.0708331 -4.39143 0
M  V30 5924 H 570.753 -1.54537 -3.9623 0
M  V30 5925 N 569.068 1.32177 -0.85831 0
M  V30 5926 C 570.479 1.79381 -0.517621 0
M  V30 5927 C 570.83 1.70841 0.964769 0
M  V30 5928 O 569.955 1.26917 1.75274 0
M  V30 5929 C 570.55 3.25706 -0.932801 0
M  V30 5930 C 569.109 3.70851 -0.643953 0
M  V30 5931 C 568.256 2.53208 -1.13054 0
M  V30 5932 H 571.207 1.19424 -1.04516 0
M  V30 5933 H 571.228 3.79673 -0.250674 0
M  V30 5934 H 570.74 3.31889 -2.01174 0
M  V30 5935 H 568.841 3.70178 0.424112 0
M  V30 5936 H 568.954 4.63495 -1.21281 0
M  V30 5937 H 567.318 2.48676 -0.550679 0
M  V30 5938 H 568.101 2.62143 -2.21666 0
M  V30 5939 N 570.547 0.616602 1.45037 0
M  V30 5940 C 571.775 0.121968 2.0654 0
M  V30 5941 C 572.19 -1.19743 1.45969 0
M  V30 5942 O 571.547 -1.73133 0.577168 0
M  V30 5943 C 571.598 -0.0145171 3.61497 0
M  V30 5944 O 571.319 1.25269 4.19809 0
M  V30 5945 C 572.82 -0.539555 4.40004 0
M  V30 5946 H 570.04 0.0729837 0.667019 0
M  V30 5947 H 572.584 0.846891 1.8614 0
M  V30 5948 H 570.739 -0.689809 3.81209 0
M  V30 5949 H 571.153 1.08816 5.13088 0
M  V30 5950 H 572.627 -0.584112 5.48901 0
M  V30 5951 H 573.104 -1.56368 4.10421 0
M  V30 5952 H 573.71 0.101995 4.25178 0
M  V30 5953 N 572.025 -1.5352 0.356285 0
M  V30 5954 C 573.272 -2.01117 -0.236303 0
M  V30 5955 C 573.6 -1.24381 -1.49531 0
M  V30 5956 O 572.855 -0.323057 -1.93015 0
M  V30 5957 C 573.154 -3.52607 -0.583369 0
M  V30 5958 C 572.82 -4.47151 0.58023 0
M  V30 5959 C 571.482 -4.72718 0.899528 0
M  V30 5960 C 573.834 -5.03137 1.36024 0
M  V30 5961 C 571.162 -5.51523 2.00098 0
M  V30 5962 C 573.514 -5.83145 2.45204 0
M  V30 5963 C 572.178 -6.07001 2.77679 0
M  V30 5964 H 571.448 -0.735938 -0.0864695 0
M  V30 5965 H 574.095 -1.85209 0.48683 0
M  V30 5966 H 572.4 -3.66413 -1.38739 0
M  V30 5967 H 574.097 -3.86901 -1.05397 0
M  V30 5968 H 570.687 -4.27394 0.321322 0
M  V30 5969 H 574.871 -4.83339 1.12682 0
M  V30 5970 H 570.127 -5.68229 2.25668 0
M  V30 5971 H 574.301 -6.25537 3.06067 0
M  V30 5972 H 571.928 -6.67851 3.63151 0
M  V30 5973 N 573.503 -0.0852151 -1.57369 0
M  V30 5974 C 574.433 0.874556 -2.16503 0
M  V30 5975 C 575.414 1.30111 -1.09568 0
M  V30 5976 O 576.599 1.36977 -1.37662 0
M  V30 5977 C 573.729 2.13731 -2.73745 0
M  V30 5978 C 572.683 1.84971 -3.85966 0
M  V30 5979 C 572.009 3.17991 -4.29867 0
M  V30 5980 C 573.309 1.14442 -5.09608 0
M  V30 5981 H 575.003 0.381899 -2.96954 0
M  V30 5982 H 572.549 0.18225 -1.42842 0
M  V30 5983 H 574.502 2.81302 -3.13763 0
M  V30 5984 H 573.226 2.65263 -1.90534 0
M  V30 5985 H 571.885 1.19801 -3.46473 0
M  V30 5986 H 571.533 3.6739 -3.4356 0
M  V30 5987 H 571.233 2.99534 -5.05523 0
M  V30 5988 H 572.757 3.86737 -4.72511 0
M  V30 5989 H 574.171 1.72105 -5.46857 0
M  V30 5990 H 572.568 1.06197 -5.90629 0
M  V30 5991 H 573.638 0.12559 -4.84737 0
M  V30 5992 N 574.981 1.5647 0.188427 0
M  V30 5993 C 575.944 1.9421 1.21718 0
M  V30 5994 C 576.944 0.823901 1.38089 0
M  V30 5995 O 578.134 1.09122 1.35787 0
M  V30 5996 C 575.266 2.22197 2.58537 0
M  V30 5997 H 576.459 2.86252 0.894418 0
M  V30 5998 H 574.012 1.50263 0.430211 0
M  V30 5999 H 574.747 1.32814 2.95856 0
M  V30 6000 H 574.532 3.03688 2.48025 0
M  V30 6001 H 576.022 2.52376 3.3271 0
M  V30 6002 N 576.459 -0.456382 1.50847 0
M  V30 6003 C 577.684 -1.2349 1.66628 0
M  V30 6004 C 578.109 -1.84715 0.355254 0
M  V30 6005 O 577.467 -1.67961 -0.682559 0
M  V30 6006 C 577.515 -2.30865 2.77009 0
M  V30 6007 O 576.619 -3.35882 2.39285 0
M  V30 6008 H 575.96 -0.36266 0.556214 0
M  V30 6009 H 578.49 -0.541374 1.97308 0
M  V30 6010 H 578.5 -2.75949 3.00526 0
M  V30 6011 H 577.175 -1.85677 3.72152 0
M  V30 6012 H 575.752 -2.96406 2.26269 0
M  V30 6013 N 577.937 -1.40673 -0.710563 0
M  V30 6014 C 578.884 -1.41336 -1.82463 0
M  V30 6015 C 579.854 -0.269648 -1.63897 0
M  V30 6016 O 581.039 -0.468463 -1.8496 0
M  V30 6017 C 578.179 -1.28665 -3.20218 0
M  V30 6018 C 577.292 -2.52784 -3.5032 0
M  V30 6019 C 576.427 -2.32517 -4.77608 0
M  V30 6020 C 575.466 -3.52187 -5.0063 0
M  V30 6021 N 574.603 -3.31084 -6.19135 0
M  V30 6022 H 579.443 -2.36558 -1.8123 0
M  V30 6023 H 576.98 -1.17483 -0.885226 0
M  V30 6024 H 578.938 -1.19324 -3.99772 0
M  V30 6025 H 577.568 -0.370602 -3.20666 0
M  V30 6026 H 576.62 -2.72634 -2.65283 0
M  V30 6027 H 577.932 -3.41845 -3.63241 0
M  V30 6028 H 577.086 -2.20558 -5.65189 0
M  V30 6029 H 575.825 -1.40889 -4.66906 0
M  V30 6030 H 574.83 -3.64617 -4.11502 0
M  V30 6031 H 576.055 -4.44749 -5.13201 0
M  V30 6032 H 574.001 -2.42143 -6.09674 0
M  V30 6033 H 573.918 -4.13713 -6.32754 0
M  V30 6034 H 575.186 -3.22868 -7.0949 0
M  V30 6035 N 579.415 0.9433 -1.26252 0
M  V30 6036 C 580.664 1.68369 -1.11062 0
M  V30 6037 C 580.977 1.92514 0.346104 0
M  V30 6038 O 582.183 2.64358 0.618646 0
M  V30 6039 C 580.639 3.03171 -1.93946 0
M  V30 6040 C 580.247 2.86782 -3.4418 0
M  V30 6041 C 581.991 3.80916 -1.87359 0
M  V30 6042 C 579.898 4.17044 -4.19319 0
M  V30 6043 H 578.828 0.631469 -0.412023 0
M  V30 6044 H 581.479 1.04922 -1.50544 0
M  V30 6045 H 579.861 3.67587 -1.47296 0
M  V30 6046 H 581.035 2.31229 -3.98585 0
M  V30 6047 H 579.35 2.22482 -3.51981 0
M  V30 6048 H 581.947 4.77417 -2.40784 0
M  V30 6049 H 582.29 4.07658 -0.843857 0
M  V30 6050 H 582.823 3.2327 -2.31821 0
M  V30 6051 H 579.562 3.95487 -5.22753 0
M  V30 6052 H 579.082 4.72319 -3.69696 0
M  V30 6053 H 580.761 4.85513 -4.27651 0
M  V30 6054 N 580.893 1.08022 1.14757 0
M  V30 6055 C 582.141 0.805913 1.85336 0
M  V30 6056 C 582.462 -0.670162 1.83122 0
M  V30 6057 O 581.732 -1.48567 1.2769 0
M  V30 6058 H 580.312 0.295138 0.686223 0
M  V30 6059 H 582.974 1.36538 1.3908 0
M  V30 6060 H 582.07 1.14655 2.90277 0
M  V30 6061 N 582.371 -1.3172 0.865308 0
M  V30 6062 C 583.787 -1.4958 0.556596 0
M  V30 6063 C 583.987 -1.79763 -0.910353 0
M  V30 6064 O 583.043 -1.87351 -1.6928 0
M  V30 6065 C 584.356 -2.63277 1.45279 0
M  V30 6066 C 585.904 -2.77161 1.45433 0
M  V30 6067 C 586.379 -3.93949 2.33598 0
M  V30 6068 N 587.87 -4.01228 2.31453 0
M  V30 6069 C 588.605 -4.90855 2.96393 0
M  V30 6070 N 588.101 -5.85416 3.70486 0
M  V30 6071 N 589.894 -4.84063 2.85726 0
M  V30 6072 H 582.045 -1.10396 1.81456 0
M  V30 6073 H 584.308 -0.54507 0.775631 0
M  V30 6074 H 584.014 -2.47734 2.49641 0
M  V30 6075 H 583.888 -3.59309 1.14792 0
M  V30 6076 H 586.275 -2.9212 0.41831 0
M  V30 6077 H 586.356 -1.8181 1.79941 0
M  V30 6078 H 586 -3.79748 3.37274 0
M  V30 6079 H 585.93 -4.88598 1.96417 0
M  V30 6080 H 588.421 -3.3357 1.77593 0
M  V30 6081 H 588.734 -6.50525 4.17178 0
M  V30 6082 H 587.079 -5.85409 3.74594 0
M  V30 6083 H 590.27 -4.09163 2.27384 0
M  V30 6084 H 590.443 -5.53708 3.36617 0
M  V30 6085 N 583.85 -0.624285 -1.44708 0
M  V30 6086 C 584.779 0.0717025 -2.3339 0
M  V30 6087 C 585.76 0.841814 -1.47809 0
M  V30 6088 O 586.946 0.809056 -1.76544 0
M  V30 6089 C 584.076 1.05852 -3.30776 0
M  V30 6090 C 583.029 0.400503 -4.26122 0
M  V30 6091 C 582.356 1.49674 -5.13324 0
M  V30 6092 C 583.656 -0.688924 -5.17737 0
M  V30 6093 H 585.35 -0.668819 -2.91834 0
M  V30 6094 H 582.896 -0.32308 -1.40329 0
M  V30 6095 H 584.849 1.5541 -3.91696 0
M  V30 6096 H 583.572 1.82984 -2.70526 0
M  V30 6097 H 582.231 -0.0743687 -3.66525 0
M  V30 6098 H 581.88 2.25877 -4.49431 0
M  V30 6099 H 581.58 1.06188 -5.77926 0
M  V30 6100 H 583.104 1.99427 -5.77115 0
M  V30 6101 H 584.518 -0.276724 -5.72632 0
M  V30 6102 H 582.915 -1.04652 -5.90904 0
M  V30 6103 H 583.985 -1.55884 -4.5916 0
M  V30 6104 N 585.328 1.53329 -0.364422 0
M  V30 6105 C 586.574 2.01537 0.225969 0
M  V30 6106 C 586.907 1.25128 1.48515 0
M  V30 6107 O 586.182 0.344653 1.91422 0
M  V30 6108 C 586.465 3.56339 0.519092 0
M  V30 6109 C 586.318 4.43441 -0.753639 0
M  V30 6110 C 587.637 4.19833 1.32015 0
M  V30 6111 H 584.756 0.732573 0.0806548 0
M  V30 6112 H 587.398 1.83597 -0.489084 0
M  V30 6113 H 585.548 3.71756 1.12825 0
M  V30 6114 H 587.22 4.39823 -1.39116 0
M  V30 6115 H 585.463 4.11457 -1.37424 0
M  V30 6116 H 586.134 5.49699 -0.503517 0
M  V30 6117 H 588.61 4.08242 0.804859 0
M  V30 6118 H 587.486 5.28177 1.49399 0
M  V30 6119 H 587.747 3.75821 2.32832 0
M  V30 6120 N 586.806 0.0935595 1.57322 0
M  V30 6121 C 588.034 -0.578934 1.98635 0
M  V30 6122 C 588.449 -1.61819 0.972626 0
M  V30 6123 O 587.806 -1.82461 -0.0379638 0
M  V30 6124 C 587.857 -1.22802 3.40003 0
M  V30 6125 O 587.578 -0.230334 4.37494 0
M  V30 6126 C 589.079 -1.98627 3.96311 0
M  V30 6127 H 586.299 -0.155324 0.652775 0
M  V30 6128 H 588.843 0.172393 2.03772 0
M  V30 6129 H 586.998 -1.93029 3.35885 0
M  V30 6130 H 587.412 -0.698649 5.19826 0
M  V30 6131 H 588.886 -2.39405 4.97382 0
M  V30 6132 H 589.363 -2.85151 3.34044 0
M  V30 6133 H 589.969 -1.3322 4.03897 0
M  V30 6134 N 588.284 -1.56567 -0.180126 0
M  V30 6135 C 589.7 -1.50488 -0.531559 0
M  V30 6136 C 589.9 -0.796267 -1.851 0
M  V30 6137 O 588.956 -0.352978 -2.50021 0
M  V30 6138 C 590.269 -2.95201 -0.572456 0
M  V30 6139 C 591.817 -3.05957 -0.660264 0
M  V30 6140 C 592.292 -4.5211 -0.732135 0
M  V30 6141 N 593.783 -4.56322 -0.795262 0
M  V30 6142 C 594.518 -5.66742 -0.871296 0
M  V30 6143 N 594.014 -6.86815 -0.908708 0
M  V30 6144 N 595.807 -5.54691 -0.909639 0
M  V30 6145 H 587.958 -2.01045 0.685165 0
M  V30 6146 H 590.221 -0.915536 0.245962 0
M  V30 6147 H 589.927 -3.50165 0.328208 0
M  V30 6148 H 589.801 -3.49369 -1.422 0
M  V30 6149 H 592.188 -2.51032 -1.55136 0
M  V30 6150 H 592.269 -2.54888 0.215783 0
M  V30 6151 H 591.913 -5.07664 0.154664 0
M  V30 6152 H 591.843 -5.00926 -1.6242 0
M  V30 6153 H 594.334 -3.69868 -0.77499 0
M  V30 6154 H 594.647 -7.66718 -0.967654 0
M  V30 6155 H 592.992 -6.89443 -0.877132 0
M  V30 6156 H 596.183 -4.59804 -0.877353 0
M  V30 6157 H 596.356 -6.40768 -0.965434 0
M  V30 6158 N 589.762 0.448376 -1.51087 0
M  V30 6159 C 590.709 1.54341 -1.71603 0
M  V30 6160 C 591.679 1.56463 -0.557536 0
M  V30 6161 O 592.864 1.73644 -0.79072 0
M  V30 6162 C 590.004 2.92148 -1.83695 0
M  V30 6163 C 589.117 2.99639 -3.11192 0
M  V30 6164 C 588.252 4.285 -3.13944 0
M  V30 6165 C 587.291 4.29819 -4.35801 0
M  V30 6166 N 586.428 5.50186 -4.36164 0
M  V30 6167 H 591.268 1.36151 -2.65079 0
M  V30 6168 H 588.805 0.661585 -1.31383 0
M  V30 6169 H 590.763 3.72093 -1.88687 0
M  V30 6170 H 589.393 3.0892 -0.936374 0
M  V30 6171 H 588.445 2.12425 -3.15562 0
M  V30 6172 H 589.757 2.96474 -4.01129 0
M  V30 6173 H 588.911 5.16811 -3.17791 0
M  V30 6174 H 587.65 4.34307 -2.21876 0
M  V30 6175 H 586.655 3.39902 -4.32142 0
M  V30 6176 H 587.88 4.25685 -5.29121 0
M  V30 6177 H 585.826 5.56735 -3.46961 0
M  V30 6178 H 585.743 5.48856 -5.19897 0
M  V30 6179 H 587.011 6.40559 -4.44189 0
M  V30 6180 N 591.24 1.41047 0.703093 0
M  V30 6181 C 592.203 1.42036 1.79884 0
M  V30 6182 C 593.203 0.312153 1.57741 0
M  V30 6183 O 594.393 0.571672 1.64553 0
M  V30 6184 C 591.525 1.22437 3.18154 0
M  V30 6185 H 592.718 2.39572 1.80403 0
M  V30 6186 H 590.271 1.27079 0.909977 0
M  V30 6187 H 591.006 0.257112 3.23279 0
M  V30 6188 H 590.791 2.02723 3.35627 0
M  V30 6189 H 592.281 1.25946 3.98155 0
M  V30 6190 N 592.718 -0.936591 1.26751 0
M  V30 6191 C 593.967 -1.67778 1.11953 0
M  V30 6192 C 594.28 -1.92694 -0.33589 0
M  V30 6193 O 595.486 -2.64682 -0.604618 0
M  V30 6194 C 593.942 -3.02138 1.95551 0
M  V30 6195 C 593.55 -2.84953 3.45696 0
M  V30 6196 C 595.294 -3.79917 1.89377 0
M  V30 6197 C 593.201 -4.14814 4.21525 0
M  V30 6198 H 592.131 -0.629275 0.415366 0
M  V30 6199 H 594.782 -1.04122 1.51099 0
M  V30 6200 H 593.164 -3.668 1.49243 0
M  V30 6201 H 594.338 -2.29112 3.99805 0
M  V30 6202 H 592.653 -2.20612 3.53156 0
M  V30 6203 H 595.25 -4.76134 2.43312 0
M  V30 6204 H 595.593 -4.07204 0.865464 0
M  V30 6205 H 596.126 -3.22037 2.33532 0
M  V30 6206 H 592.865 -3.92709 5.24843 0
M  V30 6207 H 592.385 -4.70352 3.72195 0
M  V30 6208 H 594.064 -4.83239 4.3022 0
M  V30 6209 N 594.196 -1.08629 -1.14182 0
M  V30 6210 C 595.126 -0.740003 -2.21464 0
M  V30 6211 C 596.107 0.278591 -1.67803 0
M  V30 6212 O 597.292 0.148461 -1.93632 0
M  V30 6213 C 594.422 -0.150952 -3.46972 0
M  V30 6214 C 593.376 -1.09815 -4.13672 0
M  V30 6215 C 592.702 -0.3712 -5.3341 0
M  V30 6216 C 594.002 -2.43722 -4.61949 0
M  V30 6217 H 595.696 -1.63697 -2.50686 0
M  V30 6218 H 593.242 -0.788526 -1.20492 0
M  V30 6219 H 595.195 0.103325 -4.21273 0
M  V30 6220 H 593.919 0.781164 -3.1712 0
M  V30 6221 H 592.578 -1.33756 -3.41328 0
M  V30 6222 H 592.226 0.564792 -4.99819 0
M  V30 6223 H 591.926 -1.00267 -5.78982 0
M  V30 6224 H 593.45 -0.12503 -6.10472 0
M  V30 6225 H 594.864 -2.24034 -5.27714 0
M  V30 6226 H 593.261 -3.02582 -5.18232 0
M  V30 6227 H 594.331 -3.05082 -3.76899 0
M  V30 6228 N 595.674 1.31259 -0.872281 0
M  V30 6229 C 596.902 2.00795 -0.498907 0
M  V30 6230 C 597.317 1.65464 0.909238 0
M  V30 6231 O 596.674 0.885073 1.59602 0
M  V30 6232 C 596.725 3.55625 -0.649092 0
M  V30 6233 O 596.446 3.89692 -2.00179 0
M  V30 6234 C 597.947 4.42434 -0.277034 0
M  V30 6235 H 595.167 0.642299 -0.194145 0
M  V30 6236 H 597.711 1.67438 -1.17408 0
M  V30 6237 H 595.866 3.87394 -0.0214402 0
M  V30 6238 H 596.28 4.84407 -2.01122 0
M  V30 6239 H 597.754 5.50299 -0.433064 0
M  V30 6240 H 598.231 4.32146 0.783989 0
M  V30 6241 H 598.837 4.16086 -0.880483 0
M  V30 6242 N 597.152 0.631951 1.44375 0
M  V30 6243 C 598.082 -0.0593243 2.33425 0
M  V30 6244 C 599.063 -0.833964 1.48253 0
M  V30 6245 O 600.248 -0.799682 1.76971 0
M  V30 6246 C 597.378 -1.04096 3.31333 0
M  V30 6247 C 596.332 -0.377899 4.26328 0
M  V30 6248 C 595.658 -1.4695 5.14111 0
M  V30 6249 C 596.958 0.716371 5.17364 0
M  V30 6250 H 598.652 0.684287 2.91475 0
M  V30 6251 H 596.198 0.330518 1.40156 0
M  V30 6252 H 598.151 -1.53331 3.92514 0
M  V30 6253 H 596.875 -1.81547 2.71493 0
M  V30 6254 H 595.534 0.0938054 3.6648 0
M  V30 6255 H 595.182 -2.2349 4.50623 0
M  V30 6256 H 594.882 -1.03121 5.78481 0
M  V30 6257 H 596.406 -1.96363 5.78164 0
M  V30 6258 H 597.82 0.307089 5.72477 0
M  V30 6259 H 596.217 1.07784 5.90341 0
M  V30 6260 H 597.287 1.58316 4.58327 0
M  V30 6261 N 598.631 -1.53133 0.372548 0
M  V30 6262 C 599.561 -2.28876 -0.462412 0
M  V30 6263 C 600.542 -1.31583 -1.07796 0
M  V30 6264 O 601.727 -1.60461 -1.09389 0
M  V30 6265 C 598.857 -3.08317 -1.59868 0
M  V30 6266 C 597.811 -4.13355 -1.11003 0
M  V30 6267 C 597.137 -4.8092 -2.33708 0
M  V30 6268 C 598.437 -5.21955 -0.18983 0
M  V30 6269 H 600.131 -2.9892 0.169511 0
M  V30 6270 H 597.677 -1.43761 0.0829658 0
M  V30 6271 H 599.63 -3.60055 -2.18949 0
M  V30 6272 H 598.354 -2.35976 -2.25794 0
M  V30 6273 H 597.013 -3.62573 -0.541869 0
M  V30 6274 H 596.661 -4.05144 -2.98106 0
M  V30 6275 H 596.361 -5.51904 -2.01682 0
M  V30 6276 H 597.885 -5.35455 -2.93462 0
M  V30 6277 H 599.299 -5.69153 -0.688319 0
M  V30 6278 H 597.696 -6.00087 0.0398887 0
M  V30 6279 H 598.766 -4.78811 0.766057 0
M  V30 6280 N 600.109 -0.101901 -1.5727 0
M  V30 6281 C 601.525 0.254739 -1.57554 0
M  V30 6282 C 601.725 1.67937 -1.11352 0
M  V30 6283 O 600.781 2.39722 -0.793081 0
M  V30 6284 C 602.094 0.036975 -3.00677 0
M  V30 6285 C 603.642 0.104199 -3.12827 0
M  V30 6286 C 604.117 -0.0856565 -4.5792 0
M  V30 6287 N 605.608 -0.0310498 -4.6319 0
M  V30 6288 C 606.343 -0.153099 -5.73196 0
M  V30 6289 N 605.839 -0.330364 -6.92012 0
M  V30 6290 N 607.632 -0.0938854 -5.62022 0
M  V30 6291 H 599.783 -1.03263 -1.85609 0
M  V30 6292 H 602.046 -0.405251 -0.857016 0
M  V30 6293 H 601.752 -0.947254 -3.38703 0
M  V30 6294 H 601.626 0.776335 -3.69124 0
M  V30 6295 H 604.013 1.07894 -2.74669 0
M  V30 6296 H 604.094 -0.666762 -2.46957 0
M  V30 6297 H 603.738 -1.05729 -4.96773 0
M  V30 6298 H 603.668 0.705082 -5.21858 0
M  V30 6299 H 606.159 0.103141 -3.77759 0
M  V30 6300 H 606.472 -0.41482 -7.71686 0
M  V30 6301 H 604.817 -0.366119 -6.94035 0
M  V30 6302 H 608.008 0.0435168 -4.6808 0
M  V30 6303 H 608.181 -0.19245 -6.47714 0
M  V30 6304 N 601.587 1.56661 0.17182 0
M  V30 6305 C 602.815 1.861 0.904115 0
M  V30 6306 C 603.23 0.687227 1.75848 0
M  V30 6307 O 602.587 -0.343671 1.79235 0
M  V30 6308 C 602.638 3.14568 1.78127 0
M  V30 6309 O 602.359 4.27422 0.961366 0
M  V30 6310 C 603.86 3.5735 2.62327 0
M  V30 6311 H 601.08 0.617445 0.262684 0
M  V30 6312 H 603.624 2.03775 0.172068 0
M  V30 6313 H 601.779 2.98721 2.46666 0
M  V30 6314 H 602.193 5.00725 1.56123 0
M  V30 6315 H 603.667 4.50144 3.1949 0
M  V30 6316 H 604.144 2.81445 3.37173 0
M  V30 6317 H 604.75 3.75807 1.99121 0
M  V30 6318 N 603.065 -0.440357 1.51323 0
M  V30 6319 C 604.311 -1.19181 1.64085 0
M  V30 6320 C 604.644 -1.90936 0.354575 0
M  V30 6321 O 603.919 -1.8347 -0.645675 0
M  V30 6322 C 604.202 -2.2112 2.84215 0
M  V30 6323 C 604.055 -1.53468 4.22809 0
M  V30 6324 C 605.374 -3.22133 2.99864 0
M  V30 6325 H 602.493 -0.431924 0.597169 0
M  V30 6326 H 605.135 -0.481443 1.83799 0
M  V30 6327 H 603.285 -2.81703 2.67537 0
M  V30 6328 H 604.957 -0.962455 4.51148 0
M  V30 6329 H 603.2 -0.837086 4.25647 0
M  V30 6330 H 603.871 -2.27694 5.02852 0
M  V30 6331 H 606.347 -2.71601 3.15233 0
M  V30 6332 H 605.223 -3.90756 3.85488 0
M  V30 6333 H 605.484 -3.88061 2.11804 0
M  V30 6334 N 604.543 -1.41418 -0.695603 0
M  V30 6335 C 605.791 -1.40496 -1.45277 0
M  V30 6336 C 606.112 -0.0149538 -1.94994 0
M  V30 6337 O 605.382 0.9432 -1.71699 0
M  V30 6338 H 603.962 -0.517147 -0.539044 0
M  V30 6339 H 606.624 -1.76656 -0.823321 0
M  V30 6340 H 605.72 -2.09214 -2.31595 0
M  V30 6341 N 606.021 0.929856 -1.27246 0
M  V30 6342 C 606.984 2.01172 -1.09829 0
M  V30 6343 C 607.984 1.60743 -0.0429687 0
M  V30 6344 O 609.174 1.71813 -0.287373 0
M  V30 6345 C 606.306 3.34191 -0.673003 0
M  V30 6346 H 607.499 2.18054 -2.05895 0
M  V30 6347 H 605.052 1.11036 -1.10003 0
M  V30 6348 H 605.787 3.23009 0.289134 0
M  V30 6349 H 605.572 3.64892 -1.43515 0
M  V30 6350 H 607.062 4.13646 -0.573323 0
M  V30 6351 N 607.499 1.09233 1.13605 0
M  V30 6352 C 608.409 0.741939 2.22559 0
M  V30 6353 C 609.425 -0.255236 1.72118 0
M  V30 6354 O 610.601 -0.0970747 2.01166 0
M  V30 6355 C 607.666 0.165595 3.46304 0
M  V30 6356 C 606.727 1.21846 4.11645 0
M  V30 6357 C 605.96 0.669526 5.29484 0
M  V30 6358 O 606.183 -0.508228 5.68131 0
M  V30 6359 O 605.117 1.42361 5.84822 0
M  V30 6360 H 608.943 1.65107 2.54899 0
M  V30 6361 H 606.528 0.866584 1.21699 0
M  V30 6362 H 608.41 -0.152592 4.21124 0
M  V30 6363 H 607.085 -0.716573 3.15669 0
M  V30 6364 H 605.992 1.58931 3.38662 0
M  V30 6365 H 607.325 2.07321 4.46407 0
M  V30 6366 N 608.977 -1.30795 0.87923 0
M  V30 6367 C 610.207 -2.00237 0.50881 0
M  V30 6368 C 610.615 -1.66115 -0.905682 0
M  V30 6369 O 609.958 -0.89138 -1.60624 0
M  V30 6370 C 610.02 -3.54508 0.597003 0
M  V30 6371 C 609.684 -4.12131 1.97477 0
M  V30 6372 C 610.681 -4.28552 2.94346 0
M  V30 6373 C 608.366 -4.47644 2.2786 0
M  V30 6374 C 610.36 -4.79689 4.19735 0
M  V30 6375 C 608.047 -4.98481 3.53496 0
M  V30 6376 C 609.045 -5.14456 4.49248 0
M  V30 6377 O 608.733 -5.64199 5.72656 0
M  V30 6378 H 608.465 -0.647026 0.195788 0
M  V30 6379 H 611.019 -1.67785 1.1848 0
M  V30 6380 H 609.249 -3.86461 -0.135945 0
M  V30 6381 H 610.938 -4.05198 0.238684 0
M  V30 6382 H 611.704 -4.01424 2.72183 0
M  V30 6383 H 607.583 -4.34481 1.54102 0
M  V30 6384 H 611.127 -4.92073 4.9448 0
M  V30 6385 H 607.024 -5.25044 3.75498 0
M  V30 6386 H 607.792 -5.82551 5.74957 0
M  V30 6387 N 610.455 -0.639598 -1.44038 0
M  V30 6388 C 611.695 -0.150902 -2.03842 0
M  V30 6389 C 612.059 1.20744 -1.49281 0
M  V30 6390 O 613.26 1.78875 -2.00642 0
M  V30 6391 C 611.531 -0.146114 -3.57101 0
M  V30 6392 S 613.09 0.276725 -4.37927 0
M  V30 6393 H 609.908 -0.0652447 -0.708 0
M  V30 6394 H 612.51 -0.844886 -1.76301 0
M  V30 6395 H 611.214 -1.13769 -3.94316 0
M  V30 6396 H 610.745 0.568846 -3.89266 0
M  V30 6397 H 612.76 1.51893 -4.7238 0
M  V30 6398 N 611.933 1.52934 -0.380664 0
M  V30 6399 C 613.18 2.01467 0.204278 0
M  V30 6400 C 613.508 1.26744 1.47533 0
M  V30 6401 O 612.763 0.353723 1.92477 0
M  V30 6402 C 613.062 3.5349 0.527199 0
M  V30 6403 C 612.728 4.46171 -0.651295 0
M  V30 6404 C 611.39 4.71227 -0.974619 0
M  V30 6405 C 613.742 5.00909 -1.44012 0
M  V30 6406 C 611.07 5.4827 -2.08847 0
M  V30 6407 C 613.422 5.7917 -2.5445 0
M  V30 6408 C 612.086 6.02507 -2.87301 0
M  V30 6409 H 611.356 0.73722 0.0747504 0
M  V30 6410 H 614.003 1.84411 -0.516234 0
M  V30 6411 H 612.308 3.68574 1.32892 0
M  V30 6412 H 614.005 3.88529 0.992283 0
M  V30 6413 H 610.595 4.26829 -0.389276 0
M  V30 6414 H 614.779 4.81485 -1.20357 0
M  V30 6415 H 610.035 5.64567 -2.34679 0
M  V30 6416 H 614.209 6.20588 -3.1598 0
M  V30 6417 H 611.836 6.61989 -3.7373 0
M  V30 6418 N 613.412 0.11024 1.57214 0
M  V30 6419 C 614.823 -0.416527 1.81994 0
M  V30 6420 C 615.174 -1.67183 1.02686 0
M  V30 6421 O 614.299 -2.14823 0.260782 0
M  V30 6422 C 614.894 -0.762466 3.30109 0
M  V30 6423 C 613.453 -1.23391 3.556 0
M  V30 6424 C 612.6 -0.238166 2.76275 0
M  V30 6425 H 615.551 0.335491 1.55113 0
M  V30 6426 H 615.572 -1.62068 3.44259 0
M  V30 6427 H 615.084 0.151346 3.87805 0
M  V30 6428 H 613.185 -2.16492 3.03253 0
M  V30 6429 H 613.298 -1.18528 4.64207 0
M  V30 6430 H 611.662 -0.723421 2.4421 0
M  V30 6431 H 612.445 0.668591 3.36727 0
M  V30 6432 N 614.89 -1.56749 -0.16351 0
M  V30 6433 C 616.301 -1.72039 -0.725216 0
M  V30 6434 C 616.652 -0.72202 -1.82432 0
M  V30 6435 O 615.777 0.114942 -2.16095 0
M  V30 6436 C 616.372 -3.11932 -1.32227 0
M  V30 6437 C 614.931 -3.28879 -1.83072 0
M  V30 6438 C 614.078 -2.67984 -0.712716 0
M  V30 6439 H 617.029 -1.58579 0.0619772 0
M  V30 6440 H 617.05 -3.11015 -2.19202 0
M  V30 6441 H 616.562 -3.84572 -0.522103 0
M  V30 6442 H 614.663 -2.61209 -2.65708 0
M  V30 6443 H 614.776 -4.36688 -1.97079 0
M  V30 6444 H 613.14 -2.28005 -1.13515 0
M  V30 6445 H 613.923 -3.43216 0.0757361 0
M  V30 6446 N 616.368 0.432326 -1.51554 0
M  V30 6447 C 617.617 1.17831 -1.63703 0
M  V30 6448 C 617.93 1.92229 -0.36156 0
M  V30 6449 O 619.136 2.69069 -0.362495 0
M  V30 6450 C 617.592 2.14318 -2.89129 0
M  V30 6451 C 617.2 1.45544 -4.23699 0
M  V30 6452 C 618.944 2.89319 -3.10636 0
M  V30 6453 C 616.851 2.40545 -5.4027 0
M  V30 6454 H 615.781 0.443533 -0.60975 0
M  V30 6455 H 618.432 0.444878 -1.78026 0
M  V30 6456 H 616.814 2.91117 -2.68452 0
M  V30 6457 H 617.988 0.742693 -4.54775 0
M  V30 6458 H 616.303 0.826772 -4.0811 0
M  V30 6459 H 618.9 3.60495 -3.94902 0
M  V30 6460 H 619.243 3.50951 -2.23918 0
M  V30 6461 H 619.776 2.19625 -3.31677 0
M  V30 6462 H 616.515 1.83594 -6.29264 0
M  V30 6463 H 616.035 3.09859 -5.13563 0
M  V30 6464 H 617.714 3.01569 -5.72421 0
M  V30 6465 N 617.846 1.41785 0.688094 0
M  V30 6466 C 618.796 1.40684 1.79421 0
M  V30 6467 C 619.78 0.280096 1.58443 0
M  V30 6468 O 620.972 0.521332 1.69148 0
M  V30 6469 C 618.101 1.29874 3.17785 0
M  V30 6470 C 617.187 2.47442 3.44432 0
M  V30 6471 N 617.578 3.72895 3.41736 0
M  V30 6472 C 615.876 2.41416 3.75013 0
M  V30 6473 C 616.577 4.50912 3.67496 0
M  V30 6474 N 615.553 3.81131 3.87608 0
M  V30 6475 H 619.355 2.35591 1.7571 0
M  V30 6476 H 616.869 1.35946 0.888393 0
M  V30 6477 H 618.866 1.27168 3.97031 0
M  V30 6478 H 617.526 0.359587 3.22703 0
M  V30 6479 H 618.537 4.05676 3.21943 0
M  V30 6480 H 615.214 1.56011 3.87256 0
M  V30 6481 H 616.604 5.59865 3.71484 0
M  V30 6482 N 619.324 -0.923095 1.27737 0
M  V30 6483 C 620.572 -1.66797 1.14119 0
M  V30 6484 C 620.893 -1.92479 -0.312541 0
M  V30 6485 O 620.163 -1.53432 -1.218 0
M  V30 6486 H 618.743 -0.618196 0.419336 0
M  V30 6487 H 621.405 -1.10815 1.60331 0
M  V30 6488 H 620.501 -2.63424 1.67374 0
M  V30 6489 N 620.802 -1.09834 -1.13024 0
M  V30 6490 C 622.048 -0.83819 -1.84668 0
M  V30 6491 C 622.381 0.634645 -1.83537 0
M  V30 6492 O 621.656 1.46753 -1.27647 0
M  V30 6493 C 621.939 -1.37933 -3.32636 0
M  V30 6494 C 621.792 -2.91857 -3.42257 0
M  V30 6495 C 623.111 -1.01654 -4.28199 0
M  V30 6496 H 620.23 -0.30595 -0.670495 0
M  V30 6497 H 622.872 -1.36044 -1.32635 0
M  V30 6498 H 621.022 -0.935111 -3.77078 0
M  V30 6499 H 622.694 -3.44759 -3.06495 0
M  V30 6500 H 620.937 -3.28776 -2.83 0
M  V30 6501 H 621.608 -3.24799 -4.46329 0
M  V30 6502 H 624.084 -1.39973 -3.9185 0
M  V30 6503 H 622.96 -1.42217 -5.30156 0
M  V30 6504 H 623.221 0.0747794 -4.42037 0
M  V30 6505 N 622.28 1.30327 -0.886154 0
M  V30 6506 C 623.691 1.78243 -0.555554 0
M  V30 6507 C 624.042 1.72849 0.928314 0
M  V30 6508 O 623.167 1.30607 1.72542 0
M  V30 6509 C 623.762 3.23654 -1.00168 0
M  V30 6510 C 622.321 3.69401 -0.722471 0
M  V30 6511 C 621.468 2.50753 -1.18399 0
M  V30 6512 H 624.419 1.1718 -1.07026 0
M  V30 6513 H 624.44 3.79056 -0.331152 0
M  V30 6514 H 623.952 3.27548 -2.08169 0
M  V30 6515 H 622.053 3.70995 0.345496 0
M  V30 6516 H 622.166 4.60818 -1.31085 0
M  V30 6517 H 620.53 2.47452 -0.603303 0
M  V30 6518 H 621.313 2.57383 -2.27176 0
M  V30 6519 N 623.758 0.647228 1.43697 0
M  V30 6520 C 624.721 -0.0385101 2.29168 0
M  V30 6521 C 625.721 -0.756487 1.41894 0
M  V30 6522 O 626.911 -0.598641 1.63591 0
M  V30 6523 C 624.043 -1.06524 3.23829 0
M  V30 6524 H 625.236 0.713445 2.9129 0
M  V30 6525 H 622.789 0.408153 1.50877 0
M  V30 6526 H 623.524 -1.84664 2.66589 0
M  V30 6527 H 623.309 -0.554147 3.88164 0
M  V30 6528 H 624.799 -1.54432 3.87996 0
M  V30 6529 N 625.236 -1.5273 0.388769 0
M  V30 6530 C 626.146 -2.30165 -0.453993 0
M  V30 6531 C 627.162 -1.37058 -1.07197 0
M  V30 6532 O 628.338 -1.70127 -1.0779 0
M  V30 6533 C 625.403 -3.09303 -1.56628 0
M  V30 6534 C 624.464 -4.18117 -0.973467 0
M  V30 6535 C 623.697 -4.93472 -2.03275 0
M  V30 6536 O 623.92 -4.68913 -3.24772 0
M  V30 6537 O 622.854 -5.78833 -1.65034 0
M  V30 6538 H 626.68 -3.03185 0.176816 0
M  V30 6539 H 624.265 -1.4862 0.152501 0
M  V30 6540 H 626.147 -3.58648 -2.21246 0
M  V30 6541 H 624.822 -2.39098 -2.18206 0
M  V30 6542 H 623.729 -3.7297 -0.290556 0
M  V30 6543 H 625.062 -4.90556 -0.401908 0
M  V30 6544 N 626.714 -0.118576 -1.57153 0
M  V30 6545 C 627.646 0.862247 -2.12363 0
M  V30 6546 C 628.659 1.23025 -1.06625 0
M  V30 6547 O 629.848 1.17927 -1.33998 0
M  V30 6548 C 626.948 2.16425 -2.60794 0
M  V30 6549 C 626.121 1.96801 -3.90626 0
M  V30 6550 C 625.18 3.10726 -4.2466 0
M  V30 6551 O 624.206 2.83659 -4.93484 0
M  V30 6552 N 625.408 4.37147 -3.81946 0
M  V30 6553 H 628.173 0.390564 -2.97144 0
M  V30 6554 H 625.734 0.0658591 -1.61766 0
M  V30 6555 H 627.726 2.91633 -2.80593 0
M  V30 6556 H 626.296 2.54943 -1.80895 0
M  V30 6557 H 625.516 1.05787 -3.7974 0
M  V30 6558 H 626.804 1.80993 -4.7552 0
M  V30 6559 H 626.202 4.62014 -3.26435 0
M  V30 6560 H 624.759 5.09229 -4.06853 0
M  V30 6561 N 628.193 1.56834 0.155195 0
M  V30 6562 C 629.441 1.82536 0.867462 0
M  V30 6563 C 629.762 0.698168 1.82073 0
M  V30 6564 O 629.032 -0.280807 1.93877 0
M  V30 6565 H 627.612 0.673401 0.323327 0
M  V30 6566 H 630.274 1.94313 0.151156 0
M  V30 6567 H 629.37 2.77171 1.43466 0
M  V30 6568 N 629.671 -0.424282 1.51781 0
M  V30 6569 C 630.896 -1.19928 1.6921 0
M  V30 6570 C 631.321 -1.8392 0.394355 0
M  V30 6571 O 630.679 -1.69371 -0.646778 0
M  V30 6572 C 630.727 -2.24937 2.81843 0
M  V30 6573 O 629.831 -3.3073 2.46356 0
M  V30 6574 H 629.172 -0.35078 0.563781 0
M  V30 6575 H 631.702 -0.499401 1.98412 0
M  V30 6576 H 631.712 -2.69512 3.06312 0
M  V30 6577 H 630.387 -1.77742 3.76006 0
M  V30 6578 H 628.964 -2.9154 2.32505 0
M  V30 6579 N 631.149 -1.42148 -0.680565 0
M  V30 6580 C 632.112 -1.4488 -1.77602 0
M  V30 6581 C 633.112 -0.337209 -1.57224 0
M  V30 6582 O 634.302 -0.597778 -1.63622 0
M  V30 6583 C 631.434 -1.27483 -3.16166 0
M  V30 6584 H 632.627 -2.42412 -1.76568 0
M  V30 6585 H 630.18 -1.28511 -0.889645 0
M  V30 6586 H 630.915 -0.30851 -3.22829 0
M  V30 6587 H 630.7 -2.08037 -3.3236 0
M  V30 6588 H 632.19 -1.32265 -3.96101 0
M  V30 6589 N 632.627 0.916307 -1.28225 0
M  V30 6590 C 633.59 1.99996 -1.11957 0
M  V30 6591 C 634.59 1.60688 -0.0600152 0
M  V30 6592 O 635.78 1.71499 -0.30558 0
M  V30 6593 C 632.912 3.33458 -0.708411 0
M  V30 6594 H 634.105 2.15858 -2.08196 0
M  V30 6595 H 631.658 1.09863 -1.11175 0
M  V30 6596 H 632.393 3.23297 0.254859 0
M  V30 6597 H 632.178 3.63349 -1.47377 0
M  V30 6598 H 633.668 4.13014 -0.617164 0
M  V30 6599 N 634.105 1.10431 1.1244 0
M  V30 6600 C 635.516 0.864439 1.65482 0
M  V30 6601 C 635.867 -0.60527 1.8663 0
M  V30 6602 O 634.992 -1.46492 1.59276 0
M  V30 6603 C 635.587 1.56267 3.0061 0
M  V30 6604 C 634.146 1.3695 3.50602 0
M  V30 6605 C 633.293 1.61209 2.25626 0
M  V30 6606 H 636.244 1.26203 0.962209 0
M  V30 6607 H 636.265 1.00166 3.67079 0
M  V30 6608 H 635.777 2.63231 2.85186 0
M  V30 6609 H 633.878 0.321481 3.71211 0
M  V30 6610 H 633.991 2.11143 4.30064 0
M  V30 6611 H 632.355 1.03482 2.32731 0
M  V30 6612 H 633.138 2.69425 2.12756 0
M  V30 6613 N 635.583 -1.29855 0.893053 0
M  V30 6614 C 636.533 -2.25493 0.337211 0
M  V30 6615 C 637.517 -1.51606 -0.53894 0
M  V30 6616 O 638.709 -1.72828 -0.382043 0
M  V30 6617 C 635.838 -3.40467 -0.440117 0
M  V30 6618 C 634.924 -4.217 0.450578 0
M  V30 6619 N 635.315 -4.81312 1.55476 0
M  V30 6620 C 633.613 -4.45315 0.247154 0
M  V30 6621 C 634.314 -5.42241 2.10593 0
M  V30 6622 N 633.29 -5.25267 1.39982 0
M  V30 6623 H 637.092 -2.69137 1.18079 0
M  V30 6624 H 634.606 -1.44388 0.743359 0
M  V30 6625 H 636.603 -4.08038 -0.855021 0
M  V30 6626 H 635.263 -2.98361 -1.28104 0
M  V30 6627 H 636.274 -4.80291 1.93755 0
M  V30 6628 H 632.951 -4.13782 -0.555939 0
M  V30 6629 H 634.341 -5.99517 3.03362 0
M  V30 6630 N 637.061 -0.65484 -1.43351 0
M  V30 6631 C 638.011 0.0581325 -2.27926 0
M  V30 6632 C 638.995 0.793188 -1.3999 0
M  V30 6633 O 640.187 0.675387 -1.63608 0
M  V30 6634 C 637.316 1.02272 -3.27712 0
M  V30 6635 C 636.402 0.286048 -4.23134 0
M  V30 6636 N 636.793 -0.698298 -5.00957 0
M  V30 6637 C 635.091 0.527272 -4.42872 0
M  V30 6638 C 635.792 -1.1357 -5.70506 0
M  V30 6639 N 634.768 -0.469631 -5.41568 0
M  V30 6640 H 638.57 -0.697182 -2.85511 0
M  V30 6641 H 636.084 -0.482252 -1.55074 0
M  V30 6642 H 638.081 1.5483 -3.87083 0
M  V30 6643 H 636.741 1.77807 -2.71688 0
M  V30 6644 H 637.752 -1.07708 -5.06576 0
M  V30 6645 H 634.429 1.26367 -3.97916 0
M  V30 6646 H 635.819 -1.95027 -6.42973 0
M  V30 6647 N 638.539 1.52521 -0.396863 0
M  V30 6648 C 639.95 1.86547 0.0754868 0
M  V30 6649 C 640.301 1.31621 1.45501 0
M  V30 6650 O 639.426 0.650563 2.0639 0
M  V30 6651 C 640.021 3.38495 0.143754 0
M  V30 6652 C 638.58 3.72205 0.560413 0
M  V30 6653 C 637.727 2.75954 -0.272856 0
M  V30 6654 H 640.678 1.46323 -0.614434 0
M  V30 6655 H 640.699 3.68153 0.961425 0
M  V30 6656 H 640.211 3.78442 -0.860415 0
M  V30 6657 H 638.312 3.3783 1.57167 0
M  V30 6658 H 638.425 4.78074 0.313314 0
M  V30 6659 H 636.789 2.53339 0.263 0
M  V30 6660 H 637.572 3.1874 -1.27515 0
M  V30 6661 N 640.017 0.126909 1.57088 0
M  V30 6662 C 641.264 -0.529168 1.95464 0
M  V30 6663 C 641.592 -1.6618 1.01067 0
M  V30 6664 O 640.847 -1.95667 0.0360254 0
M  V30 6665 C 641.146 -1.095 3.40212 0
M  V30 6666 C 640.812 -0.0829015 4.50824 0
M  V30 6667 C 639.474 0.195377 4.80803 0
M  V30 6668 C 641.826 0.606411 5.1766 0
M  V30 6669 C 639.154 1.16912 5.74933 0
M  V30 6670 C 641.506 1.56884 6.12838 0
M  V30 6671 C 640.17 1.85502 6.41206 0
M  V30 6672 H 639.44 -0.193636 0.715252 0
M  V30 6673 H 642.087 0.209489 1.90351 0
M  V30 6674 H 640.392 -1.91058 3.42059 0
M  V30 6675 H 642.089 -1.61087 3.67222 0
M  V30 6676 H 638.679 -0.309979 4.27478 0
M  V30 6677 H 642.863 0.404597 4.94648 0
M  V30 6678 H 638.119 1.3975 5.95214 0
M  V30 6679 H 642.293 2.10859 6.6371 0
M  V30 6680 H 639.92 2.61109 7.13951 0
M  V30 6681 N 641.495 -1.56914 -0.146875 0
M  V30 6682 C 642.72 -1.87881 -0.878386 0
M  V30 6683 C 643.145 -0.715945 -1.73942 0
M  V30 6684 O 642.503 0.334447 -1.78189 0
M  V30 6685 C 642.551 -3.17431 -1.71084 0
M  V30 6686 O 641.655 -3.01374 -2.81509 0
M  V30 6687 H 640.996 -0.617289 -0.244644 0
M  V30 6688 H 643.526 -2.04136 -0.137654 0
M  V30 6689 H 643.536 -3.49455 -2.10582 0
M  V30 6690 H 642.211 -4.01671 -1.07856 0
M  V30 6691 H 640.788 -2.80758 -2.45416 0
M  V30 6692 N 642.974 0.416227 -1.52004 0
M  V30 6693 C 643.904 1.51365 -1.77795 0
M  V30 6694 C 644.885 1.58059 -0.628601 0
M  V30 6695 O 646.07 1.73447 -0.873478 0
M  V30 6696 C 643.2 2.89256 -1.92219 0
M  V30 6697 C 642.154 2.97415 -3.0778 0
M  V30 6698 C 641.48 4.37492 -3.07417 0
M  V30 6699 C 642.78 2.69551 -4.47369 0
M  V30 6700 H 644.474 1.30033 -2.69688 0
M  V30 6701 H 642.02 0.624112 -1.29772 0
M  V30 6702 H 643.973 3.66008 -2.08845 0
M  V30 6703 H 642.697 3.11866 -0.969917 0
M  V30 6704 H 641.356 2.23107 -2.90893 0
M  V30 6705 H 641.004 4.571 -2.09925 0
M  V30 6706 H 640.704 4.43877 -3.85029 0
M  V30 6707 H 642.228 5.16188 -3.26162 0
M  V30 6708 H 643.642 3.36028 -4.64497 0
M  V30 6709 H 642.039 2.87321 -5.26846 0
M  V30 6710 H 643.109 1.65029 -4.55953 0
M  V30 6711 N 644.452 1.42507 0.673017 0
M  V30 6712 C 645.362 1.4853 1.81593 0
M  V30 6713 C 646.378 0.373907 1.69935 0
M  V30 6714 O 647.554 0.625078 1.91454 0
M  V30 6715 C 644.619 1.387 3.17747 0
M  V30 6716 C 643.68 2.60346 3.41348 0
M  V30 6717 C 642.913 2.50975 4.71007 0
M  V30 6718 O 643.136 1.54659 5.49033 0
M  V30 6719 O 642.07 3.41138 4.95892 0
M  V30 6720 H 645.896 2.45001 1.79467 0
M  V30 6721 H 643.481 1.2429 0.82899 0
M  V30 6722 H 645.363 1.35586 3.98992 0
M  V30 6723 H 644.038 0.453555 3.20507 0
M  V30 6724 H 642.945 2.69034 2.59945 0
M  V30 6725 H 644.278 3.52595 3.43421 0
M  V30 6726 N 645.93 -0.909495 1.28709 0
M  V30 6727 C 647.346 -1.18862 1.06508 0
M  V30 6728 C 647.546 -2.00604 -0.189864 0
M  V30 6729 O 646.602 -2.36281 -0.890355 0
M  V30 6730 C 647.915 -1.91908 2.31499 0
M  V30 6731 C 649.463 -2.04773 2.36721 0
M  V30 6732 C 649.938 -2.81228 3.6149 0
M  V30 6733 N 651.429 -2.88787 3.62155 0
M  V30 6734 C 652.164 -3.48455 4.55375 0
M  V30 6735 N 651.66 -4.09369 5.58918 0
M  V30 6736 N 653.453 -3.46035 4.42963 0
M  V30 6737 H 645.604 -0.363867 2.0926 0
M  V30 6738 H 647.867 -0.223649 0.921241 0
M  V30 6739 H 647.573 -1.39275 3.22948 0
M  V30 6740 H 647.447 -2.92436 2.38245 0
M  V30 6741 H 649.834 -2.56585 1.45767 0
M  V30 6742 H 649.915 -1.03408 2.33967 0
M  V30 6743 H 649.559 -2.30094 4.5279 0
M  V30 6744 H 649.489 -3.82917 3.61499 0
M  V30 6745 H 651.98 -2.45514 2.87283 0
M  V30 6746 H 652.293 -4.52891 6.26187 0
M  V30 6747 H 650.638 -4.0786 5.62739 0
M  V30 6748 H 653.829 -2.9766 3.6127 0
M  V30 6749 H 654.002 -3.92244 5.15799 0
M  V30 6750 N 647.408 -1.11026 -1.11852 0
M  V30 6751 C 648.371 -0.768006 -2.1595 0
M  V30 6752 C 649.371 0.210538 -1.59416 0
M  V30 6753 O 650.561 -0.0133978 -1.74195 0
M  V30 6754 C 647.693 -0.138678 -3.40618 0
M  V30 6755 H 648.886 -1.69012 -2.4774 0
M  V30 6756 H 646.439 -0.911578 -1.26964 0
M  V30 6757 H 647.174 0.793872 -3.14433 0
M  V30 6758 H 646.959 -0.843012 -3.8293 0
M  V30 6759 H 648.449 0.0848039 -4.17514 0
M  V30 6760 N 648.886 1.2938 -0.899927 0
M  V30 6761 C 649.818 2.26737 -0.335139 0
M  V30 6762 C 650.831 1.54316 0.518681 0
M  V30 6763 O 652.02 1.75313 0.335803 0
M  V30 6764 C 649.12 3.34558 0.540774 0
M  V30 6765 C 648.293 4.36455 -0.287372 0
M  V30 6766 C 647.352 5.2361 0.52141 0
M  V30 6767 O 646.378 5.69167 -0.0611735 0
M  V30 6768 N 647.58 5.50985 1.82745 0
M  V30 6769 H 650.345 2.75838 -1.17191 0
M  V30 6770 H 647.906 1.42716 -0.764438 0
M  V30 6771 H 649.898 3.89794 1.08825 0
M  V30 6772 H 648.468 2.85272 1.27823 0
M  V30 6773 H 647.688 3.80875 -1.01626 0
M  V30 6774 H 648.976 5.01573 -0.854518 0
M  V30 6775 H 648.374 5.15781 2.32349 0
M  V30 6776 H 646.931 6.09036 2.32204 0
M  V30 6777 N 650.364 0.662433 1.43002 0
M  V30 6778 C 651.775 0.258315 1.84904 0
M  V30 6779 C 652.126 -1.19703 1.55453 0
M  V30 6780 O 651.251 -1.91484 1.00811 0
M  V30 6781 C 651.846 0.462047 3.35635 0
M  V30 6782 C 650.405 0.112165 3.76233 0
M  V30 6783 C 649.552 0.760479 2.66668 0
M  V30 6784 H 652.503 0.865467 1.33024 0
M  V30 6785 H 652.524 -0.289646 3.79396 0
M  V30 6786 H 652.036 1.52135 3.57039 0
M  V30 6787 H 650.137 -0.944179 3.60439 0
M  V30 6788 H 650.25 0.544058 4.76001 0
M  V30 6789 H 648.614 0.192887 2.53969 0
M  V30 6790 H 649.397 1.82299 2.90898 0
M  V30 6791 N 651.842 -1.52309 0.404946 0
M  V30 6792 C 653.253 -1.86585 -0.0655926 0
M  V30 6793 C 653.604 -1.3239 -1.44801 0
M  V30 6794 O 652.729 -0.6615 -2.06042 0
M  V30 6795 C 653.324 -3.38566 -0.125801 0
M  V30 6796 C 651.883 -3.72497 -0.540666 0
M  V30 6797 C 651.03 -2.75806 0.287487 0
M  V30 6798 H 653.981 -1.45995 0.622185 0
M  V30 6799 H 654.002 -3.68658 -0.941888 0
M  V30 6800 H 653.514 -3.77981 0.880473 0
M  V30 6801 H 651.615 -3.38659 -1.55373 0
M  V30 6802 H 651.728 -4.78234 -0.287956 0
M  V30 6803 H 650.092 -2.53474 -0.249561 0
M  V30 6804 H 650.875 -3.18059 1.29203 0
M  V30 6805 N 653.32 -0.135238 -1.57019 0
M  V30 6806 C 654.731 0.387521 -1.82634 0
M  V30 6807 C 655.082 1.65528 -1.05332 0
M  V30 6808 O 654.207 2.14381 -0.294926 0
M  V30 6809 C 654.802 0.709852 -3.3128 0
M  V30 6810 C 653.361 1.17718 -3.57518 0
M  V30 6811 C 652.508 0.194183 -2.76619 0
M  V30 6812 H 655.459 -0.360126 -1.5456 0
M  V30 6813 H 655.48 1.5657 -3.46794 0
M  V30 6814 H 654.992 -0.213024 -3.87515 0
M  V30 6815 H 653.093 2.1164 -3.06658 0
M  V30 6816 H 653.206 1.11128 -4.66034 0
M  V30 6817 H 651.57 0.684478 -2.4533 0
M  V30 6818 H 652.353 -0.722076 -3.3562 0
M  V30 6819 N 654.798 1.5699 0.138552 0
M  V30 6820 C 656.047 1.82998 0.848205 0
M  V30 6821 C 656.36 0.717829 1.81952 0
M  V30 6822 O 657.566 0.863756 2.57394 0
M  V30 6823 C 656.022 3.24379 1.55904 0
M  V30 6824 C 655.63 4.43552 0.62971 0
M  V30 6825 C 657.374 3.59654 2.25498 0
M  V30 6826 C 655.281 5.75957 1.34266 0
M  V30 6827 H 654.211 0.682495 0.320495 0
M  V30 6828 H 656.862 1.83222 0.100924 0
M  V30 6829 H 655.244 3.18567 2.35226 0
M  V30 6830 H 656.418 4.6062 -0.128882 0
M  V30 6831 H 654.733 4.16379 0.0417526 0
M  V30 6832 H 657.33 4.55837 2.79493 0
M  V30 6833 H 657.673 2.86124 3.02388 0
M  V30 6834 H 658.206 3.67164 1.53087 0
M  V30 6835 H 654.945 6.52604 0.615441 0
M  V30 6836 H 654.465 5.62811 2.07375 0
M  V30 6837 H 656.144 6.19046 1.88126 0
M  V30 6838 N 656.276 -0.40816 1.52223 0
M  V30 6839 C 657.501 -1.18127 1.70472 0
M  V30 6840 C 657.926 -1.83491 0.41384 0
M  V30 6841 O 657.284 -1.70047 -0.628778 0
M  V30 6842 C 657.332 -2.21935 2.84213 0
M  V30 6843 O 656.436 -3.28099 2.4985 0
M  V30 6844 H 655.777 -0.344781 0.56747 0
M  V30 6845 H 658.307 -0.478328 1.9893 0
M  V30 6846 H 658.317 -2.66248 3.09153 0
M  V30 6847 H 656.992 -1.73744 3.7787 0
M  V30 6848 H 655.569 -2.89058 2.35584 0
M  V30 6849 N 657.755 -1.42862 -0.66545 0
M  V30 6850 C 658.685 -1.49867 -1.79059 0
M  V30 6851 C 659.666 -0.354394 -1.66367 0
M  V30 6852 O 660.851 -0.569969 -1.85647 0
M  V30 6853 C 657.981 -1.40943 -3.17415 0
M  V30 6854 C 656.935 -2.53495 -3.44854 0
M  V30 6855 C 656.261 -2.29626 -4.82883 0
M  V30 6856 C 657.561 -3.95781 -3.40815 0
M  V30 6857 H 659.255 -2.44037 -1.73453 0
M  V30 6858 H 656.801 -1.17456 -0.833071 0
M  V30 6859 H 658.754 -1.4445 -3.95869 0
M  V30 6860 H 657.478 -0.432716 -3.23721 0
M  V30 6861 H 656.137 -2.4932 -2.68766 0
M  V30 6862 H 655.785 -1.30226 -4.8585 0
M  V30 6863 H 655.485 -3.05065 -5.02204 0
M  V30 6864 H 657.009 -2.34897 -5.63609 0
M  V30 6865 H 658.423 -4.01508 -4.09224 0
M  V30 6866 H 656.82 -4.71148 -3.71672 0
M  V30 6867 H 657.89 -4.21786 -2.39216 0
M  V30 6868 N 659.233 0.902656 -1.29189 0
M  V30 6869 C 660.181 2.0278 -1.13943 0
M  V30 6870 C 661.175 1.69308 -0.055787 0
M  V30 6871 O 662.381 1.78707 -0.215371 0
M  V30 6872 H 658.756 0.664595 -0.351877 0
M  V30 6873 H 660.727 2.12778 -2.09208 0
M  V30 6874 C 659.476 3.37657 -0.82966 0
M  V30 6875 H 658.799 3.63913 -1.65551 0
M  V30 6876 H 660.239 4.17078 -0.762998 0
M  V30 6877 C 658.698 3.33648 0.466991 0
M  V30 6878 O 659.228 3.72886 1.49395 0
M  V30 6879 N 657.434 2.86745 0.471761 0
M  V30 6880 H 656.981 2.55009 -0.364406 0
M  V30 6881 H 656.939 2.84446 1.33933 0
M  V30 6882 N 660.711 1.11618 1.11262 0
M  V30 6883 C 661.659 0.771291 2.1944 0
M  V30 6884 C 662.653 -0.238073 1.67719 0
M  V30 6885 O 663.859 -0.0971628 1.79738 0
M  V30 6886 H 660.234 0.231548 0.715465 0
M  V30 6887 H 662.205 1.69226 2.45775 0
M  V30 6888 C 660.954 0.232765 3.4692 0
M  V30 6889 H 660.277 1.00072 3.87073 0
M  V30 6890 H 661.717 0.0296561 4.2399 0
M  V30 6891 C 660.176 -1.03738 3.20531 0
M  V30 6892 O 660.706 -2.11675 3.41404 0
M  V30 6893 N 658.912 -0.960906 2.74253 0
M  V30 6894 H 658.459 -0.0824323 2.57468 0
M  V30 6895 H 658.417 -1.8114 2.56974 0
M  V30 6896 N 662.189 -1.289 0.906776 0
M  V30 6897 C 663.119 -2.29932 0.406659 0
M  V30 6898 C 664.1 -1.6189 -0.522061 0
M  V30 6899 O 665.285 -1.8935 -0.431283 0
M  V30 6900 C 662.415 -3.45425 -0.360366 0
M  V30 6901 C 661.369 -4.25316 0.478574 0
M  V30 6902 C 660.695 -5.33076 -0.416373 0
M  V30 6903 C 661.995 -4.92739 1.7322 0
M  V30 6904 H 663.689 -2.72013 1.25097 0
M  V30 6905 H 661.235 -1.30768 0.602977 0
M  V30 6906 H 663.188 -4.15186 -0.721029 0
M  V30 6907 H 661.912 -3.02206 -1.23852 0
M  V30 6908 H 660.571 -3.57273 0.821662 0
M  V30 6909 H 660.219 -4.86101 -1.29287 0
M  V30 6910 H 659.919 -5.8743 0.141309 0
M  V30 6911 H 661.443 -6.05686 -0.773072 0
M  V30 6912 H 662.857 -5.54898 1.44086 0
M  V30 6913 H 661.254 -5.57057 2.23175 0
M  V30 6914 H 662.324 -4.17625 2.46408 0
M  V30 6915 N 663.667 -0.670007 -1.42649 0
M  V30 6916 C 664.577 0.0114788 -2.34597 0
M  V30 6917 C 665.593 0.794055 -1.54825 0
M  V30 6918 O 666.769 0.737472 -1.87412 0
M  V30 6919 C 663.834 0.954436 -3.33304 0
M  V30 6920 C 662.895 0.166925 -4.28975 0
M  V30 6921 C 662.128 1.06497 -5.22967 0
M  V30 6922 O 662.351 2.30446 -5.21777 0
M  V30 6923 O 661.285 0.528347 -5.99577 0
M  V30 6924 H 665.111 -0.745794 -2.944 0
M  V30 6925 H 662.696 -0.430228 -1.43071 0
M  V30 6926 H 664.578 1.49589 -3.93956 0
M  V30 6927 H 663.253 1.69164 -2.7598 0
M  V30 6928 H 662.16 -0.418515 -3.71752 0
M  V30 6929 H 663.493 -0.531067 -4.89327 0
M  V30 6930 N 665.145 1.52092 -0.413018 0
M  V30 6931 C 666.075 2.30021 0.401567 0
M  V30 6932 C 667.056 1.34395 1.04269 0
M  V30 6933 O 668.241 1.63304 1.05097 0
M  V30 6934 C 665.371 3.12447 1.51638 0
M  V30 6935 C 664.325 4.16153 1.00005 0
M  V30 6936 C 663.651 4.86948 2.20875 0
M  V30 6937 C 664.951 5.22275 0.0513757 0
M  V30 6938 H 666.645 2.98365 -0.248704 0
M  V30 6939 H 664.191 1.4349 -0.121052 0
M  V30 6940 H 666.144 3.65733 2.09326 0
M  V30 6941 H 664.868 2.41879 2.19458 0
M  V30 6942 H 663.527 3.63882 0.445549 0
M  V30 6943 H 663.175 4.12905 2.8726 0
M  V30 6944 H 662.875 5.57057 1.86978 0
M  V30 6945 H 664.399 5.43048 2.79162 0
M  V30 6946 H 665.813 5.70778 0.537176 0
M  V30 6947 H 664.21 5.9977 -0.198977 0
M  V30 6948 H 665.28 4.76611 -0.892736 0
M  V30 6949 N 666.623 0.143563 1.56945 0
M  V30 6950 C 667.555 -0.828353 2.13708 0
M  V30 6951 C 668.568 -1.21313 1.08568 0
M  V30 6952 O 669.757 -1.1578 1.35857 0
M  V30 6953 C 666.857 -2.12248 2.64204 0
M  V30 6954 C 666.03 -1.90561 3.93707 0
M  V30 6955 C 665.089 -3.03931 4.29549 0
M  V30 6956 O 664.115 -2.75772 4.97934 0
M  V30 6957 N 665.317 -4.31016 3.88852 0
M  V30 6958 H 668.082 -0.343242 2.97728 0
M  V30 6959 H 665.643 -0.0401152 1.6185 0
M  V30 6960 H 667.635 -2.87132 2.85197 0
M  V30 6961 H 666.205 -2.52033 1.84928 0
M  V30 6962 H 665.425 -0.997327 3.81375 0
M  V30 6963 H 666.713 -1.73405 4.78339 0
M  V30 6964 H 666.111 -4.56762 3.33743 0
M  V30 6965 H 664.668 -5.02691 4.14903 0
M  V30 6966 N 668.101 -1.57061 -0.130224 0
M  V30 6967 C 669.378 -1.75205 -0.869631 0
M  V30 6968 C 669.758 -0.716063 -1.98584 0
M  V30 6969 O 669.106 0.262032 -2.26993 0
M  V30 6970 C 669.316 -3.19835 -1.39666 0
M  V30 6971 C 670.664 -3.82011 -1.85345 0
M  V30 6972 O 671.688 -3.23368 -1.49371 0
M  V30 6973 O 670.547 -4.85064 -2.51744 0
M  V30 6974 H 667.641 -0.716977 -0.412157 0
M  V30 6975 H 670.187 -1.69311 -0.11484 0
M  V30 6976 H 668.959 -3.86745 -0.595288 0
M  V30 6977 H 668.582 -3.30222 -2.21448 0
M  V30 6978 N 669.579 0.400081 -1.52437 0
M  V30 6979 C 670.509 1.4947 -1.7939 0
M  V30 6980 C 671.49 1.57383 -0.645329 0
M  V30 6981 O 672.675 1.72511 -0.891826 0
M  V30 6982 C 669.805 2.87201 -1.95276 0
M  V30 6983 C 668.759 2.94134 -3.10917 0
M  V30 6984 C 668.085 4.34207 -3.1204 0
M  V30 6985 C 669.385 2.64791 -4.50203 0
M  V30 6986 H 671.079 1.27165 -2.71052 0
M  V30 6987 H 668.625 0.610312 -1.30427 0
M  V30 6988 H 670.578 3.63772 -2.12715 0
M  V30 6989 H 669.302 3.10819 -1.00294 0
M  V30 6990 H 667.961 2.20009 -2.93243 0
M  V30 6991 H 667.609 4.54848 -2.14761 0
M  V30 6992 H 667.309 4.39768 -3.89715 0
M  V30 6993 H 668.833 5.127 -3.31619 0
M  V30 6994 H 670.247 3.31083 -4.68035 0
M  V30 6995 H 668.644 2.81717 -5.29864 0
M  V30 6996 H 669.714 1.60184 -4.57678 0
M  V30 6997 N 671.057 1.43213 0.657864 0
M  V30 6998 C 671.99 1.42456 1.78273 0
M  V30 6999 C 672.968 0.286598 1.60054 0
M  V30 7000 O 674.152 0.479467 1.823 0
M  V30 7001 C 671.279 1.23169 3.15511 0
M  V30 7002 C 670.325 2.40181 3.52442 0
M  V30 7003 S 671.158 4.02729 3.52944 0
M  V30 7004 C 672.314 3.85816 4.92846 0
M  V30 7005 H 672.547 2.37642 1.78644 0
M  V30 7006 H 670.08 1.30188 0.830084 0
M  V30 7007 H 672.038 1.12728 3.94719 0
M  V30 7008 H 670.699 0.295398 3.12708 0
M  V30 7009 H 669.892 2.22478 4.52239 0
M  V30 7010 H 669.494 2.47224 2.80636 0
M  V30 7011 H 671.786 3.47853 5.81381 0
M  V30 7012 H 672.729 4.85348 5.15599 0
M  V30 7013 H 673.137 3.18361 4.66162 0
M  V30 7014 N 672.536 -0.895792 1.29666 0
M  V30 7015 C 673.486 -1.98736 1.1175 0
M  V30 7016 C 674.47 -1.6086 0.0357834 0
M  V30 7017 O 675.662 -1.75111 0.257926 0
M  V30 7018 C 672.791 -3.33845 0.800156 0
M  V30 7019 C 671.877 -3.78068 1.9216 0
M  V30 7020 N 672.268 -3.94489 3.16563 0
M  V30 7021 C 670.566 -4.07376 1.81552 0
M  V30 7022 C 671.267 -4.31819 3.89753 0
M  V30 7023 N 670.243 -4.41081 3.17724 0
M  V30 7024 H 674.045 -2.09507 2.06117 0
M  V30 7025 H 671.559 -1.08488 1.20848 0
M  V30 7026 H 673.556 -4.11757 0.652841 0
M  V30 7027 H 672.216 -3.24417 -0.135551 0
M  V30 7028 H 673.227 -3.79914 3.51974 0
M  V30 7029 H 669.904 -4.06483 0.952787 0
M  V30 7030 H 671.294 -4.52337 4.96831 0
M  V30 7031 N 674.014 -1.12206 -1.10668 0
M  V30 7032 C 675.263 -0.870595 -1.81944 0
M  V30 7033 C 675.576 0.605447 -1.85994 0
M  V30 7034 O 676.782 0.973433 -2.53449 0
M  V30 7035 C 675.238 -1.50783 -3.26791 0
M  V30 7036 C 674.846 -3.01849 -3.31046 0
M  V30 7037 C 676.59 -1.33653 -4.02911 0
M  V30 7038 C 674.497 -3.58518 -4.70339 0
M  V30 7039 H 673.427 -0.322043 -0.681765 0
M  V30 7040 H 676.078 -1.34827 -1.24475 0
M  V30 7041 H 674.46 -0.957825 -3.84242 0
M  V30 7042 H 675.634 -3.63321 -2.83433 0
M  V30 7043 H 673.949 -3.18346 -2.68411 0
M  V30 7044 H 676.546 -1.73416 -5.05797 0
M  V30 7045 H 676.889 -0.279949 -4.15358 0
M  V30 7046 H 677.422 -1.85562 -3.51868 0
M  V30 7047 H 674.161 -4.63925 -4.63091 0
M  V30 7048 H 673.681 -3.01819 -5.18329 0
M  V30 7049 H 675.36 -3.57434 -5.39305 0
M  V30 7050 N 675.492 1.28418 -0.913599 0
M  V30 7051 C 676.717 1.99643 -0.561899 0
M  V30 7052 C 677.142 1.67819 0.849608 0
M  V30 7053 O 676.5 0.910503 1.56779 0
M  V30 7054 C 676.548 3.52116 -0.777622 0
M  V30 7055 O 675.652 4.12076 0.163457 0
M  V30 7056 H 674.993 0.627229 -0.217898 0
M  V30 7057 H 677.523 1.63575 -1.229 0
M  V30 7058 H 677.533 4.02163 -0.687666 0
M  V30 7059 H 676.208 3.74613 -1.8066 0
M  V30 7060 H 674.785 3.72892 0.0247827 0
M  V30 7061 N 676.97 0.677563 1.42291 0
M  V30 7062 C 678.386 0.347376 1.55774 0
M  V30 7063 C 678.586 -1.14703 1.65667 0
M  V30 7064 O 677.642 -1.93252 1.62512 0
M  V30 7065 C 678.955 1.08011 2.80631 0
M  V30 7066 C 680.503 1.06271 2.94407 0
M  V30 7067 C 680.978 1.77683 4.22129 0
M  V30 7068 N 682.469 1.74564 4.29047 0
M  V30 7069 C 683.204 2.26673 5.26694 0
M  V30 7070 N 682.7 2.87176 6.30477 0
M  V30 7071 N 684.493 2.17032 5.18511 0
M  V30 7072 H 676.644 1.64703 1.34114 0
M  V30 7073 H 678.907 0.694038 0.645768 0
M  V30 7074 H 678.613 2.13518 2.79469 0
M  V30 7075 H 678.487 0.647115 3.71608 0
M  V30 7076 H 680.874 0.0159658 2.95096 0
M  V30 7077 H 680.955 1.53461 2.04654 0
M  V30 7078 H 680.599 2.82327 4.22201 0
M  V30 7079 H 680.529 1.2794 5.10822 0
M  V30 7080 H 683.02 1.30436 3.54676 0
M  V30 7081 H 683.333 3.24551 7.01346 0
M  V30 7082 H 681.678 2.91247 6.31031 0
M  V30 7083 H 684.869 1.69451 4.36353 0
M  V30 7084 H 685.042 2.57948 5.94446 0
M  V30 7085 N 678.448 -1.51871 0.421078 0
M  V30 7086 C 679.411 -2.25914 -0.386712 0
M  V30 7087 C 680.411 -1.28733 -0.963555 0
M  V30 7088 O 681.601 -1.52579 -0.840556 0
M  V30 7089 C 678.733 -3.03853 -1.54551 0
M  V30 7090 H 679.926 -2.98754 0.261978 0
M  V30 7091 H 677.479 -1.5533 0.173862 0
M  V30 7092 H 678.214 -2.35392 -2.23072 0
M  V30 7093 H 677.999 -3.75215 -1.13824 0
M  V30 7094 H 679.489 -3.59984 -2.11663 0
M  V30 7095 N 679.926 -0.151884 -1.56866 0
M  V30 7096 C 681.342 0.204486 -1.58285 0
M  V30 7097 C 681.542 1.6431 -1.16639 0
M  V30 7098 O 680.598 2.37077 -0.868946 0
M  V30 7099 C 681.911 -0.0587019 -3.00643 0
M  V30 7100 C 683.459 0.00462303 -3.13 0
M  V30 7101 C 683.934 -0.231297 -4.57416 0
M  V30 7102 N 685.425 -0.178394 -4.62856 0
M  V30 7103 C 686.16 -0.335379 -5.72418 0
M  V30 7104 N 685.656 -0.550355 -6.90611 0
M  V30 7105 N 687.449 -0.272641 -5.61438 0
M  V30 7106 H 679.6 -1.09116 -1.82229 0
M  V30 7107 H 681.863 -0.432311 -0.843689 0
M  V30 7108 H 681.569 -1.05453 -3.35518 0
M  V30 7109 H 681.443 0.658508 -3.71407 0
M  V30 7110 H 683.83 0.991009 -2.77962 0
M  V30 7111 H 683.911 -0.744992 -2.44711 0
M  V30 7112 H 683.555 -1.2148 -4.93158 0
M  V30 7113 H 683.485 0.5387 -5.23837 0
M  V30 7114 H 685.976 -0.0170923 -3.77896 0
M  V30 7115 H 686.289 -0.660116 -7.69976 0
M  V30 7116 H 684.634 -0.586736 -6.92519 0
M  V30 7117 H 687.825 -0.105421 -4.67981 0
M  V30 7118 H 687.998 -0.398418 -6.46774 0
M  V30 7119 N 681.404 1.57128 0.121893 0
M  V30 7120 C 682.351 2.0013 1.14964 0
M  V30 7121 C 683.321 0.872959 1.4131 0
M  V30 7122 O 684.506 1.13696 1.53225 0
M  V30 7123 C 681.646 2.40824 2.4718 0
M  V30 7124 C 680.759 3.67061 2.27794 0
M  V30 7125 C 679.894 3.96749 3.53219 0
M  V30 7126 C 678.933 5.16178 3.28978 0
M  V30 7127 N 678.07 5.41751 4.46599 0
M  V30 7128 H 682.91 2.8772 0.775947 0
M  V30 7129 H 680.447 1.42328 0.371652 0
M  V30 7130 H 682.405 2.62454 3.24305 0
M  V30 7131 H 681.035 1.56279 2.82448 0
M  V30 7132 H 680.087 3.53063 1.416 0
M  V30 7133 H 681.399 4.5434 2.05857 0
M  V30 7134 H 680.553 4.19012 4.38764 0
M  V30 7135 H 679.292 3.07941 3.78185 0
M  V30 7136 H 678.297 4.93762 2.41824 0
M  V30 7137 H 679.522 6.06561 3.05386 0
M  V30 7138 H 677.468 4.55899 4.71691 0
M  V30 7139 H 677.385 6.23347 4.27756 0
M  V30 7140 H 678.653 5.68531 5.33285 0
M  V30 7141 N 682.882 -0.391992 1.52647 0
M  V30 7142 C 684.293 -0.970064 1.5952 0
M  V30 7143 C 684.644 -1.91059 0.446207 0
M  V30 7144 O 683.769 -2.12062 -0.431125 0
M  V30 7145 C 684.364 -1.76614 2.89125 0
M  V30 7146 C 682.923 -2.29396 2.9842 0
M  V30 7147 C 682.07 -1.09864 2.54608 0
M  V30 7148 H 685.021 -0.171638 1.57769 0
M  V30 7149 H 685.042 -2.62511 2.75442 0
M  V30 7150 H 684.554 -1.08135 3.72731 0
M  V30 7151 H 682.655 -3.01196 2.19344 0
M  V30 7152 H 682.768 -2.59088 4.03002 0
M  V30 7153 H 681.132 -1.45777 2.08857 0
M  V30 7154 H 681.915 -0.429249 3.40606 0
M  V30 7155 N 684.36 -1.4356 -0.65026 0
M  V30 7156 C 685.323 -1.48615 -1.74489 0
M  V30 7157 C 686.323 -0.370483 -1.56474 0
M  V30 7158 O 687.513 -0.632351 -1.62317 0
M  V30 7159 C 684.645 -1.34161 -3.13391 0
M  V30 7160 H 685.838 -2.46103 -1.71387 0
M  V30 7161 H 683.391 -1.30369 -0.862186 0
M  V30 7162 H 684.126 -0.376918 -3.22102 0
M  V30 7163 H 683.911 -2.1504 -3.27872 0
M  V30 7164 H 685.401 -1.40637 -3.93206 0
M  V30 7165 N 685.838 0.888903 -1.30139 0
M  V30 7166 C 687.085 1.64037 -1.18736 0
M  V30 7167 C 687.413 1.92771 0.258801 0
M  V30 7168 O 686.668 1.54427 1.20212 0
M  V30 7169 C 686.967 2.99041 -1.95728 0
M  V30 7170 C 686.633 2.89874 -3.45375 0
M  V30 7171 C 685.295 2.87082 -3.86183 0
M  V30 7172 C 687.647 2.78289 -4.40687 0
M  V30 7173 C 684.975 2.70536 -5.20603 0
M  V30 7174 C 687.327 2.63282 -5.75209 0
M  V30 7175 C 685.991 2.58861 -6.15262 0
M  V30 7176 H 685.261 0.600253 -0.434485 0
M  V30 7177 H 687.908 1.0338 -1.61198 0
M  V30 7178 H 686.213 3.63626 -1.45888 0
M  V30 7179 H 687.91 3.56139 -1.843 0
M  V30 7180 H 684.5 2.92856 -3.12943 0
M  V30 7181 H 688.684 2.79516 -4.10103 0
M  V30 7182 H 683.94 2.65526 -5.50732 0
M  V30 7183 H 688.114 2.5329 -6.48704 0
M  V30 7184 H 685.741 2.45799 -7.19366 0
M  V30 7185 N 687.317 1.12792 1.10072 0
M  V30 7186 C 688.566 0.880232 1.81479 0
M  V30 7187 C 688.879 -0.595575 1.86312 0
M  V30 7188 O 690.085 -0.959979 2.53962 0
M  V30 7189 C 688.541 1.52514 3.25987 0
M  V30 7190 C 688.149 3.036 3.29441 0
M  V30 7191 C 689.893 1.35788 4.02196 0
M  V30 7192 C 687.8 3.61007 4.68431 0
M  V30 7193 H 686.73 0.325654 0.680048 0
M  V30 7194 H 689.381 1.35485 1.23758 0
M  V30 7195 H 687.763 0.978188 3.83728 0
M  V30 7196 H 688.937 3.64819 2.81502 0
M  V30 7197 H 687.252 3.19765 2.66719 0
M  V30 7198 H 689.849 1.76096 5.0487 0
M  V30 7199 H 690.192 0.301972 4.15203 0
M  V30 7200 H 690.725 1.87426 3.50879 0
M  V30 7201 H 687.464 4.66375 4.60625 0
M  V30 7202 H 686.984 3.04564 5.16721 0
M  V30 7203 H 688.663 3.60289 5.37402 0
M  V30 7204 N 688.795 -1.27931 0.920396 0
M  V30 7205 C 689.725 -2.29487 0.431024 0
M  V30 7206 C 690.706 -1.62435 -0.504861 0
M  V30 7207 O 691.891 -1.89797 -0.411176 0
M  V30 7208 C 689.021 -3.45788 -0.323709 0
M  V30 7209 C 687.975 -4.24784 0.523658 0
M  V30 7210 C 687.301 -5.33488 -0.359809 0
M  V30 7211 C 688.601 -4.90874 1.78437 0
M  V30 7212 H 690.295 -2.70671 1.27975 0
M  V30 7213 H 687.841 -1.30121 0.616813 0
M  V30 7214 H 689.794 -4.15927 -0.676952 0
M  V30 7215 H 688.518 -3.03502 -1.2064 0
M  V30 7216 H 687.177 -3.56382 0.85951 0
M  V30 7217 H 686.825 -4.87445 -1.24124 0
M  V30 7218 H 686.525 -5.87247 0.203605 0
M  V30 7219 H 688.049 -6.06472 -0.708787 0
M  V30 7220 H 689.463 -5.53339 1.49963 0
M  V30 7221 H 687.86 -5.54659 2.29071 0
M  V30 7222 H 688.93 -4.14988 2.50824 0
M  V30 7223 N 690.273 -0.685099 -1.4193 0
M  V30 7224 C 691.521 -0.21124 -2.00993 0
M  V30 7225 C 691.842 1.18985 -1.54491 0
M  V30 7226 O 691.112 1.8009 -0.771 0
M  V30 7227 H 689.692 -0.0751059 -0.743215 0
M  V30 7228 H 692.354 -0.883915 -1.73704 0
M  V30 7229 H 691.45 -0.220513 -3.1132 0
M  V30 7230 N 691.751 1.51645 -0.429126 0
M  V30 7231 C 692.976 2.06917 0.141399 0
M  V30 7232 C 693.401 1.29527 1.36398 0
M  V30 7233 O 692.759 0.33094 1.78254 0
M  V30 7234 C 692.807 3.57776 0.4504 0
M  V30 7235 O 691.911 3.82639 1.53821 0
M  V30 7236 H 691.252 0.663978 0.0054647 0
M  V30 7237 H 693.782 1.95355 -0.608093 0
M  V30 7238 H 693.792 4.01894 0.703249 0
M  V30 7239 H 692.467 4.13532 -0.443213 0
M  V30 7240 H 691.044 3.5039 1.27597 0
M  V30 7241 N 693.229 0.160201 1.56784 0
M  V30 7242 C 694.162 -0.812797 2.13234 0
M  V30 7243 C 695.14 -1.2335 1.05942 0
M  V30 7244 O 696.324 -1.32725 1.33852 0
M  V30 7245 C 693.451 -2.09311 2.66283 0
M  V30 7246 C 692.497 -1.8173 3.85845 0
M  V30 7247 S 693.33 -0.996473 5.26147 0
M  V30 7248 C 694.486 -2.28769 5.82594 0
M  V30 7249 H 694.719 -0.332794 2.95432 0
M  V30 7250 H 692.252 -0.0542971 1.54304 0
M  V30 7251 H 694.21 -2.82854 2.97496 0
M  V30 7252 H 692.871 -2.54425 1.84192 0
M  V30 7253 H 692.064 -2.76699 4.21253 0
M  V30 7254 H 691.666 -1.16289 3.55462 0
M  V30 7255 H 693.958 -3.24319 5.9483 0
M  V30 7256 H 694.901 -1.97846 6.79899 0
M  V30 7257 H 695.309 -2.40021 5.10931 0
M  V30 7258 N 694.707 -1.5719 -0.113559 0
M  V30 7259 C 696.123 -1.52607 -0.467253 0
M  V30 7260 C 696.323 -0.874058 -1.81556 0
M  V30 7261 O 695.379 -0.458703 -2.48299 0
M  V30 7262 C 696.692 -2.97363 -0.446736 0
M  V30 7263 C 698.24 -3.08482 -0.529903 0
M  V30 7264 C 698.715 -4.54809 -0.539721 0
M  V30 7265 N 700.206 -4.59284 -0.601005 0
M  V30 7266 C 700.941 -5.69927 -0.630138 0
M  V30 7267 N 700.437 -6.90051 -0.616589 0
M  V30 7268 N 702.23 -5.5805 -0.673558 0
M  V30 7269 H 694.381 -1.97958 0.769819 0
M  V30 7270 H 696.644 -0.90428 0.284572 0
M  V30 7271 H 696.35 -3.48458 0.47643 0
M  V30 7272 H 696.224 -3.55086 -1.27254 0
M  V30 7273 H 698.611 -2.57386 -1.44349 0
M  V30 7274 H 698.692 -2.53744 0.323695 0
M  V30 7275 H 698.336 -5.06552 0.369843 0
M  V30 7276 H 698.266 -5.07364 -1.41028 0
M  V30 7277 H 700.757 -3.72822 -0.617419 0
M  V30 7278 H 701.07 -7.70132 -0.641592 0
M  V30 7279 H 699.415 -6.92543 -0.583927 0
M  V30 7280 H 702.606 -4.63112 -0.681544 0
M  V30 7281 H 702.779 -6.44286 -0.692794 0
M  V30 7282 N 696.185 0.383891 -1.52853 0
M  V30 7283 C 697.462 1.14296 -1.58732 0
M  V30 7284 C 697.842 2.07585 -0.383611 0
M  V30 7285 O 697.19 2.1971 0.627661 0
M  V30 7286 C 697.4 1.89816 -2.92867 0
M  V30 7287 C 698.748 2.44998 -3.46787 0
M  V30 7288 O 699.772 1.99966 -2.94774 0
M  V30 7289 O 698.631 3.2727 -4.37672 0
M  V30 7290 H 695.725 0.52326 -0.640413 0
M  V30 7291 H 698.271 0.388631 -1.6519 0
M  V30 7292 H 697.043 1.21626 -3.71918 0
M  V30 7293 H 696.666 2.72199 -2.89816 0
M  V30 7294 N 697.663 1.43903 0.642637 0
M  V30 7295 C 698.573 1.52349 1.78401 0
M  V30 7296 C 699.589 0.409869 1.69104 0
M  V30 7297 O 700.765 0.665548 1.90085 0
M  V30 7298 C 697.83 1.45408 3.14734 0
M  V30 7299 C 696.891 2.67528 3.35749 0
M  V30 7300 C 696.124 2.60909 4.65577 0
M  V30 7301 O 696.347 1.6627 5.45628 0
M  V30 7302 O 695.281 3.5158 4.88544 0
M  V30 7303 H 699.107 2.48752 1.7423 0
M  V30 7304 H 696.692 1.26021 0.802439 0
M  V30 7305 H 698.574 1.44019 3.96026 0
M  V30 7306 H 697.249 0.521437 3.19473 0
M  V30 7307 H 696.156 2.74487 2.5418 0
M  V30 7308 H 697.489 3.598 3.35864 0
M  V30 7309 N 699.141 -0.881989 1.30609 0
M  V30 7310 C 700.088 -1.98803 1.17244 0
M  V30 7311 C 701.058 -1.65987 0.0611905 0
M  V30 7312 O 702.243 -1.89385 0.231911 0
M  V30 7313 C 699.383 -3.33867 0.87333 0
M  V30 7314 C 698.496 -3.79354 2.06675 0
M  V30 7315 C 697.631 -5.03078 1.70547 0
M  V30 7316 C 696.67 -5.40981 2.86366 0
M  V30 7317 N 695.807 -6.55886 2.50514 0
M  V30 7318 H 700.647 -2.09566 2.11863 0
M  V30 7319 H 698.184 -1.02607 1.05405 0
M  V30 7320 H 700.142 -4.11612 0.680519 0
M  V30 7321 H 698.772 -3.2278 -0.0359983 0
M  V30 7322 H 697.824 -2.97492 2.37071 0
M  V30 7323 H 699.136 -4.03382 2.93401 0
M  V30 7324 H 698.29 -5.88457 1.47658 0
M  V30 7325 H 697.029 -4.80927 0.809947 0
M  V30 7326 H 696.034 -4.54127 3.09917 0
M  V30 7327 H 697.259 -5.65104 3.76609 0
M  V30 7328 H 695.205 -6.35306 1.63471 0
M  V30 7329 H 695.122 -6.79799 3.30771 0
M  V30 7330 H 696.39 -7.44489 2.30989 0
M  V30 7331 N 700.619 -1.13374 -1.09472 0
M  V30 7332 C 702.035 -0.871846 -1.33682 0
M  V30 7333 C 702.235 0.492847 -1.9538 0
M  V30 7334 O 701.291 1.23946 -2.19985 0
M  V30 7335 C 702.604 -1.99608 -2.24893 0
M  V30 7336 C 704.152 -2.02812 -2.38404 0
M  V30 7337 C 704.627 -3.14497 -3.3295 0
M  V30 7338 N 706.118 -3.14004 -3.40523 0
M  V30 7339 C 706.853 -3.97061 -4.13679 0
M  V30 7340 N 706.349 -4.90131 -4.89636 0
M  V30 7341 N 708.142 -3.85162 -4.09398 0
M  V30 7342 H 700.293 -2.01288 -0.677995 0
M  V30 7343 H 702.556 -0.876492 -0.361201 0
M  V30 7344 H 702.262 -2.98 -1.86786 0
M  V30 7345 H 702.136 -1.90981 -3.25278 0
M  V30 7346 H 704.523 -1.05034 -2.75775 0
M  V30 7347 H 704.604 -2.15511 -1.37799 0
M  V30 7348 H 704.248 -4.12514 -2.96302 0
M  V30 7349 H 704.178 -2.99035 -4.33458 0
M  V30 7350 H 706.669 -2.46587 -2.86362 0
M  V30 7351 H 706.982 -5.49996 -5.42885 0
M  V30 7352 H 705.327 -4.94138 -4.88726 0
M  V30 7353 H 708.518 -3.11779 -3.49158 0
M  V30 7354 H 708.691 -4.5012 -4.6615 0
M  V30 7355 N 702.098 1.27442 -0.927168 0
M  V30 7356 C 703.326 1.98498 -0.583622 0
M  V30 7357 C 703.741 1.69171 0.838241 0
M  V30 7358 O 703.098 0.951969 1.55704 0
M  V30 7359 C 703.149 3.52552 -0.799341 0
M  V30 7360 O 702.87 3.80851 -2.16527 0
M  V30 7361 C 704.371 4.4086 -0.464436 0
M  V30 7362 H 701.591 0.633487 -0.221213 0
M  V30 7363 H 704.135 1.62308 -1.24404 0
M  V30 7364 H 702.29 3.86955 -0.185728 0
M  V30 7365 H 702.704 4.75441 -2.21487 0
M  V30 7366 H 704.178 5.47967 -0.666075 0
M  V30 7367 H 704.655 4.35082 0.599995 0
M  V30 7368 H 705.261 4.11977 -1.05617 0
M  V30 7369 N 703.576 0.692616 1.41565 0
M  V30 7370 C 704.526 0.00231847 2.28 0
M  V30 7371 C 705.51 -0.755793 1.42044 0
M  V30 7372 O 706.702 -0.631772 1.65341 0
M  V30 7373 C 703.831 -0.935468 3.30309 0
M  V30 7374 C 702.917 -0.173761 4.23744 0
M  V30 7375 N 703.308 0.830872 4.98929 0
M  V30 7376 C 701.606 -0.409666 4.44115 0
M  V30 7377 C 702.307 1.28656 5.67294 0
M  V30 7378 N 701.283 0.613053 5.40132 0
M  V30 7379 H 705.085 0.772635 2.83562 0
M  V30 7380 H 702.599 0.523198 1.53741 0
M  V30 7381 H 704.596 -1.44513 3.91052 0
M  V30 7382 H 703.256 -1.70542 2.76307 0
M  V30 7383 H 704.267 1.21101 5.03542 0
M  V30 7384 H 700.944 -1.15773 4.01127 0
M  V30 7385 H 702.334 2.12006 6.37576 0
M  V30 7386 N 705.054 -1.51416 0.437162 0
M  V30 7387 C 706.331 -1.94682 -0.189292 0
M  V30 7388 C 706.711 -1.37581 -1.60108 0
M  V30 7389 O 706.059 -0.562815 -2.2146 0
M  V30 7390 C 706.269 -3.48599 -0.167201 0
M  V30 7391 C 707.617 -4.2296 -0.372856 0
M  V30 7392 O 708.641 -3.55354 -0.245323 0
M  V30 7393 O 707.5 -5.42895 -0.626693 0
M  V30 7394 H 704.594 -0.816708 -0.130063 0
M  V30 7395 H 707.14 -1.62316 0.495128 0
M  V30 7396 H 705.912 -3.82616 0.81981 0
M  V30 7397 H 705.535 -3.87406 -0.894537 0
M  V30 7398 N 706.532 -0.168513 -1.56696 0
M  V30 7399 C 707.482 0.7751 -2.14421 0
M  V30 7400 C 708.466 1.19476 -1.07769 0
M  V30 7401 O 709.658 1.15759 -1.33898 0
M  V30 7402 C 706.787 2.00549 -2.7863 0
M  V30 7403 C 705.873 1.60795 -3.92436 0
M  V30 7404 N 706.264 0.919812 -4.97366 0
M  V30 7405 C 704.562 1.89917 -4.03544 0
M  V30 7406 C 705.263 0.724485 -5.77171 0
M  V30 7407 N 704.239 1.26505 -5.28675 0
M  V30 7408 H 708.041 0.240349 -2.92916 0
M  V30 7409 H 705.555 0.0322675 -1.62368 0
M  V30 7410 H 707.552 2.6917 -3.1836 0
M  V30 7411 H 706.212 2.54522 -2.01615 0
M  V30 7412 H 707.223 0.578169 -5.14663 0
M  V30 7413 H 703.9 2.45587 -3.37629 0
M  V30 7414 H 705.29 0.180521 -6.71657 0
M  V30 7415 N 708.01 1.57248 0.105221 0
M  V30 7416 C 708.94 2.04374 1.12931 0
M  V30 7417 C 709.921 0.93074 1.42377 0
M  V30 7418 O 711.106 1.20136 1.52581 0
M  V30 7419 C 708.236 2.45967 2.45189 0
M  V30 7420 C 707.19 3.60838 2.30174 0
M  V30 7421 C 706.516 3.88374 3.67518 0
M  V30 7422 C 707.816 4.92084 1.75073 0
M  V30 7423 H 709.51 2.9018 0.737287 0
M  V30 7424 H 707.056 1.39601 0.353211 0
M  V30 7425 H 709.009 2.77542 3.17094 0
M  V30 7426 H 707.733 1.57148 2.86308 0
M  V30 7427 H 706.392 3.29493 1.60716 0
M  V30 7428 H 706.04 2.96739 4.06147 0
M  V30 7429 H 705.74 4.65703 3.58321 0
M  V30 7430 H 707.264 4.22415 4.40906 0
M  V30 7431 H 708.678 5.22106 2.36809 0
M  V30 7432 H 707.075 5.73507 1.76662 0
M  V30 7433 H 708.145 4.79684 0.709347 0
M  V30 7434 N 709.488 -0.375779 1.53054 0
M  V30 7435 C 710.418 -1.46598 1.81745 0
M  V30 7436 C 711.399 -1.56337 0.670286 0
M  V30 7437 O 712.584 -1.71071 0.919158 0
M  V30 7438 C 709.714 -2.84058 1.99821 0
M  V30 7439 C 708.668 -2.8915 3.15557 0
M  V30 7440 C 707.994 -4.29187 3.18908 0
M  V30 7441 C 709.294 -2.57595 4.54359 0
M  V30 7442 H 710.988 -1.22837 2.73041 0
M  V30 7443 H 708.534 -0.589485 1.31381 0
M  V30 7444 H 710.487 -3.60342 2.18475 0
M  V30 7445 H 709.211 -3.09184 1.05226 0
M  V30 7446 H 707.87 -2.15316 2.96706 0
M  V30 7447 H 707.518 -4.51374 2.2197 0
M  V30 7448 H 707.218 -4.33512 3.96662 0
M  V30 7449 H 708.742 -5.07359 3.39734 0
M  V30 7450 H 710.156 -3.23595 4.73243 0
M  V30 7451 H 708.553 -2.73252 5.34279 0
M  V30 7452 H 709.623 -1.52882 4.60169 0
M  V30 7453 N 710.966 -1.44241 -0.634997 0
M  V30 7454 C 712.206 -1.48339 -1.40623 0
M  V30 7455 C 712.57 -0.111479 -1.91676 0
M  V30 7456 O 713.771 -0.0271345 -2.68786 0
M  V30 7457 C 712.042 -2.51122 -2.54308 0
M  V30 7458 S 713.601 -2.74237 -3.42548 0
M  V30 7459 H 710.419 -0.524715 -0.479787 0
M  V30 7460 H 713.021 -1.81138 -0.735489 0
M  V30 7461 H 711.725 -3.49511 -2.15106 0
M  V30 7462 H 711.256 -2.19883 -3.26213 0
M  V30 7463 H 713.271 -2.0554 -4.51628 0
M  V30 7464 N 712.444 0.87505 -1.31075 0
M  V30 7465 C 713.374 1.99775 -1.20881 0
M  V30 7466 C 714.355 1.69822 -0.0971612 0
M  V30 7467 O 715.54 1.92158 -0.280895 0
M  V30 7468 C 712.67 3.35163 -0.910118 0
M  V30 7469 C 711.624 3.79406 -1.98078 0
M  V30 7470 C 710.95 5.12197 -1.53488 0
M  V30 7471 C 712.25 3.97061 -3.39323 0
M  V30 7472 H 713.944 2.08562 -2.14808 0
M  V30 7473 H 711.49 1.00207 -1.03415 0
M  V30 7474 H 713.443 4.13237 -0.825423 0
M  V30 7475 H 712.167 3.26536 0.064822 0
M  V30 7476 H 710.826 3.03568 -2.05528 0
M  V30 7477 H 710.474 5.00007 -0.547941 0
M  V30 7478 H 710.174 5.4277 -2.2511 0
M  V30 7479 H 711.698 5.92785 -1.46417 0
M  V30 7480 H 713.112 4.65545 -3.34576 0
M  V30 7481 H 711.509 4.39025 -4.09118 0
M  V30 7482 H 712.579 3.00601 -3.80483 0
M  V30 7483 N 713.922 1.13953 1.08869 0
M  V30 7484 C 715.199 0.815768 1.77777 0
M  V30 7485 C 715.579 -0.691624 1.99449 0
M  V30 7486 O 714.927 -1.63085 1.60049 0
M  V30 7487 C 715.137 1.60916 3.09689 0
M  V30 7488 C 716.485 1.80549 3.84301 0
M  V30 7489 O 717.509 1.57562 3.19457 0
M  V30 7490 O 716.368 2.18946 5.00724 0
M  V30 7491 H 713.462 0.298445 0.771271 0
M  V30 7492 H 716.008 1.24446 1.15374 0
M  V30 7493 H 714.78 2.6333 2.89435 0
M  V30 7494 H 714.403 1.17578 3.79817 0
M  V30 7495 N 715.4 -1.26948 0.933913 0
M  V30 7496 C 716.648 -1.93704 0.576484 0
M  V30 7497 C 716.969 -1.73702 -0.886145 0
M  V30 7498 O 716.239 -1.08838 -1.62884 0
M  V30 7499 H 714.819 -0.716812 0.210214 0
M  V30 7500 H 717.481 -1.54534 1.18766 0
M  V30 7501 H 716.577 -3.01987 0.788055 0
M  V30 7502 N 716.879 -0.700114 -1.41195 0
M  V30 7503 C 718.127 -0.232546 -2.00758 0
M  V30 7504 C 718.448 1.1734 -1.55745 0
M  V30 7505 O 717.718 1.79262 -0.790058 0
M  V30 7506 H 716.298 -0.0829845 -0.742376 0
M  V30 7507 H 718.96 -0.902289 -1.72756 0
M  V30 7508 H 718.056 -0.253521 -3.11069 0
M  V30 7509 N 718.357 1.51182 -0.445186 0
M  V30 7510 C 719.605 2.01753 0.11841 0
M  V30 7511 C 719.926 1.33087 1.42523 0
M  V30 7512 O 719.196 0.467891 1.9023 0
M  V30 7513 H 717.776 0.745536 0.0467492 0
M  V30 7514 H 720.438 1.85765 -0.589688 0
M  V30 7515 H 719.534 3.10762 0.288665 0
M  V30 7516 N 719.835 0.176821 1.56605 0
M  V30 7517 C 721.081 -0.467406 1.9734 0
M  V30 7518 C 721.414 -1.62523 1.06301 0
M  V30 7519 O 720.689 -1.94182 0.11125 0
M  V30 7520 C 720.972 -0.945106 3.47476 0
M  V30 7521 C 720.825 0.213273 4.49294 0
M  V30 7522 C 722.144 -1.8169 4.00845 0
M  V30 7523 H 719.263 -0.168426 0.717497 0
M  V30 7524 H 721.905 0.264065 1.88156 0
M  V30 7525 H 720.055 -1.56841 3.55434 0
M  V30 7526 H 721.727 0.850508 4.53392 0
M  V30 7527 H 719.97 0.867918 4.25029 0
M  V30 7528 H 720.641 -0.163187 5.51759 0
M  V30 7529 H 723.117 -1.29139 3.95553 0
M  V30 7530 H 721.993 -2.12015 5.06301 0
M  V30 7531 H 722.254 -2.76463 3.44994 0
M  V30 7532 N 721.313 -1.57302 -0.09688 0
M  V30 7533 C 722.26 -2.01933 -1.11766 0
M  V30 7534 C 723.23 -0.895329 -1.39904 0
M  V30 7535 O 724.415 -1.16119 -1.51397 0
M  V30 7536 C 721.555 -2.44726 -2.43317 0
M  V30 7537 C 720.668 -3.70639 -2.21925 0
M  V30 7538 C 719.803 -4.02318 -3.46862 0
M  V30 7539 C 718.842 -5.21346 -3.20725 0
M  V30 7540 N 717.979 -5.48787 -4.37924 0
M  V30 7541 H 722.819 -2.88919 -0.730075 0
M  V30 7542 H 720.356 -1.42901 -0.348962 0
M  V30 7543 H 722.314 -2.6758 -3.20088 0
M  V30 7544 H 720.944 -1.60753 -2.79926 0
M  V30 7545 H 719.996 -3.55271 -1.35965 0
M  V30 7546 H 721.308 -4.57557 -1.98603 0
M  V30 7547 H 720.462 -4.25939 -4.32042 0
M  V30 7548 H 719.201 -3.13918 -3.73238 0
M  V30 7549 H 718.206 -4.97547 -2.33938 0
M  V30 7550 H 719.431 -6.11343 -2.95697 0
M  V30 7551 H 717.377 -4.63346 -4.64378 0
M  V30 7552 H 717.294 -6.30073 -4.17785 0
M  V30 7553 H 718.562 -5.76943 -5.24173 0
M  V30 7554 N 722.791 0.367657 -1.53252 0
M  V30 7555 C 724.039 1.10832 -1.68999 0
M  V30 7556 C 724.36 1.89894 -0.443306 0
M  V30 7557 O 723.63 1.88235 0.54262 0
M  V30 7558 H 722.21 0.412153 -0.623008 0
M  V30 7559 H 724.872 0.414775 -1.90435 0
M  V30 7560 H 723.968 1.7993 -2.55013 0
M  V30 7561 N 724.269 1.44576 0.627338 0
M  V30 7562 C 725.199 1.54562 1.75022 0
M  V30 7563 C 726.18 0.398378 1.65369 0
M  V30 7564 O 727.365 0.61899 1.84071 0
M  V30 7565 C 724.495 1.49309 3.13567 0
M  V30 7566 C 723.449 2.62549 3.38012 0
M  V30 7567 C 722.775 2.42348 4.76625 0
M  V30 7568 C 724.075 4.04678 3.30202 0
M  V30 7569 H 725.769 2.4855 1.66922 0
M  V30 7570 H 723.315 1.19624 0.801636 0
M  V30 7571 H 725.268 1.54895 3.919 0
M  V30 7572 H 723.992 0.518392 3.2246 0
M  V30 7573 H 722.651 2.56358 2.62061 0
M  V30 7574 H 722.299 1.43062 4.82226 0
M  V30 7575 H 721.999 3.18273 4.93939 0
M  V30 7576 H 723.523 2.49758 5.57183 0
M  V30 7577 H 724.937 4.12217 3.98435 0
M  V30 7578 H 723.334 4.80836 3.5905 0
M  V30 7579 H 724.404 4.2798 2.27949 0
M  V30 7580 N 725.747 -0.868086 1.31537 0
M  V30 7581 C 726.996 -1.61607 1.20689 0
M  V30 7582 C 727.309 -1.94204 -0.233275 0
M  V30 7583 O 728.515 -2.67515 -0.463465 0
M  V30 7584 C 726.971 -2.91348 2.11292 0
M  V30 7585 C 726.579 -2.66227 3.60315 0
M  V30 7586 C 728.323 -3.69344 2.09249 0
M  V30 7587 C 726.23 -3.91887 4.42921 0
M  V30 7588 H 725.16 -0.606373 0.448138 0
M  V30 7589 H 727.811 -0.959666 1.56405 0
M  V30 7590 H 726.193 -3.58374 1.68477 0
M  V30 7591 H 727.367 -2.07597 4.11388 0
M  V30 7592 H 725.682 -2.01582 3.64354 0
M  V30 7593 H 728.279 -4.62567 2.68209 0
M  V30 7594 H 728.622 -4.02044 1.0801 0
M  V30 7595 H 729.155 -3.09205 2.50274 0
M  V30 7596 H 725.894 -3.64336 5.44922 0
M  V30 7597 H 725.414 -4.49961 3.96605 0
M  V30 7598 H 727.093 -4.59754 4.55231 0
M  V30 7599 N 727.225 -1.14528 -1.08264 0
M  V30 7600 C 728.474 -0.908992 -1.80056 0
M  V30 7601 C 728.787 0.565859 -1.87236 0
M  V30 7602 O 729.993 0.919454 -2.55457 0
M  V30 7603 C 728.449 -1.57681 -3.23519 0
M  V30 7604 C 728.057 -3.08803 -3.24569 0
M  V30 7605 C 729.801 -1.4217 -3.99985 0
M  V30 7606 C 727.708 -3.68414 -4.62629 0
M  V30 7607 H 726.638 -0.336432 -0.674781 0
M  V30 7608 H 729.289 -1.37437 -1.21587 0
M  V30 7609 H 727.671 -1.03911 -3.82124 0
M  V30 7610 H 728.845 -3.69252 -2.75663 0
M  V30 7611 H 727.16 -3.23968 -2.61598 0
M  V30 7612 H 729.757 -1.84106 -5.02005 0
M  V30 7613 H 730.1 -0.367989 -4.1467 0
M  V30 7614 H 730.633 -1.92984 -3.47853 0
M  V30 7615 H 727.372 -4.73644 -4.53147 0
M  V30 7616 H 726.892 -3.12746 -5.11811 0
M  V30 7617 H 728.571 -3.68793 -5.31602 0
M  V30 7618 N 728.703 1.26451 -0.940633 0
M  V30 7619 C 729.952 1.93071 -0.583656 0
M  V30 7620 C 730.265 1.74618 0.881366 0
M  V30 7621 O 731.471 2.35689 1.34769 0
M  V30 7622 C 729.927 3.45927 -0.993106 0
M  V30 7623 C 729.535 3.73115 -2.4797 0
M  V30 7624 C 731.279 4.18554 -0.707998 0
M  V30 7625 C 729.186 5.19408 -2.82788 0
M  V30 7626 H 728.116 0.722824 -0.214572 0
M  V30 7627 H 730.767 1.43538 -1.1432 0
M  V30 7628 H 729.149 3.94341 -0.362099 0
M  V30 7629 H 730.323 3.35408 -3.15971 0
M  V30 7630 H 728.638 3.13719 -2.73805 0
M  V30 7631 H 731.235 5.26293 -0.94447 0
M  V30 7632 H 731.578 4.14782 0.355225 0
M  V30 7633 H 732.111 3.76003 -1.2987 0
M  V30 7634 H 728.85 5.28281 -3.88071 0
M  V30 7635 H 728.37 5.58214 -2.19449 0
M  V30 7636 H 730.049 5.87407 -2.71224 0
M  V30 7637 N 730.181 0.707592 1.40822 0
M  V30 7638 C 731.113 0.0105968 2.29198 0
M  V30 7639 C 732.126 -0.732035 1.45414 0
M  V30 7640 O 733.315 -0.580741 1.68789 0
M  V30 7641 C 730.415 -1.00921 3.23525 0
M  V30 7642 C 729.588 -0.333747 4.36125 0
M  V30 7643 C 728.647 -1.25783 5.10945 0
M  V30 7644 O 727.673 -0.745646 5.64295 0
M  V30 7645 N 728.875 -2.58947 5.19545 0
M  V30 7646 H 731.64 0.76938 2.89656 0
M  V30 7647 H 729.201 0.554579 1.52105 0
M  V30 7648 H 731.193 -1.6294 3.70449 0
M  V30 7649 H 729.763 -1.66942 2.6429 0
M  V30 7650 H 728.983 0.466518 3.9143 0
M  V30 7651 H 730.271 0.135444 5.0862 0
M  V30 7652 H 729.669 -3.03065 4.7767 0
M  V30 7653 H 728.226 -3.16131 5.70004 0
M  V30 7654 N 731.66 -1.50943 0.453197 0
M  V30 7655 C 732.59 -2.31005 -0.34044 0
M  V30 7656 C 733.571 -1.37112 -1.00669 0
M  V30 7657 O 734.756 -1.66033 -1.0073 0
M  V30 7658 C 731.886 -3.16358 -1.433 0
M  V30 7659 C 730.84 -4.18658 -0.889363 0
M  V30 7660 C 730.166 -4.92633 -2.07887 0
M  V30 7661 C 731.466 -5.22227 0.0871142 0
M  V30 7662 H 733.16 -2.97601 0.327723 0
M  V30 7663 H 730.706 -1.43119 0.159054 0
M  V30 7664 H 732.659 -3.71155 -1.99555 0
M  V30 7665 H 731.383 -2.47613 -2.12968 0
M  V30 7666 H 730.042 -3.64936 -0.348915 0
M  V30 7667 H 729.69 -4.20376 -2.76211 0
M  V30 7668 H 729.39 -5.61819 -1.72143 0
M  V30 7669 H 730.914 -5.50258 -2.64666 0
M  V30 7670 H 732.328 -5.72001 -0.385656 0
M  V30 7671 H 730.725 -5.99032 0.357926 0
M  V30 7672 H 731.795 -4.74077 1.01879 0
M  V30 7673 N 733.138 -0.185124 -1.56509 0
M  V30 7674 C 734.068 0.735098 -2.21627 0
M  V30 7675 C 735.049 1.2288 -1.1762 0
M  V30 7676 O 736.234 1.27945 -1.46095 0
M  V30 7677 C 733.364 1.95889 -2.86783 0
M  V30 7678 C 732.318 1.6005 -3.96948 0
M  V30 7679 C 731.644 2.90009 -4.4922 0
M  V30 7680 C 732.944 0.818008 -5.15855 0
M  V30 7681 H 734.638 0.192274 -2.98782 0
M  V30 7682 H 732.184 0.0910393 -1.43712 0
M  V30 7683 H 734.137 2.60779 -3.31017 0
M  V30 7684 H 732.861 2.52608 -2.07018 0
M  V30 7685 H 731.52 0.975237 -3.5339 0
M  V30 7686 H 731.168 3.44797 -3.6623 0
M  V30 7687 H 730.868 2.66778 -5.23549 0
M  V30 7688 H 732.392 3.55904 -4.9615 0
M  V30 7689 H 733.806 1.36979 -5.56695 0
M  V30 7690 H 732.203 0.684207 -5.96187 0
M  V30 7691 H 733.273 -0.182939 -4.84555 0
M  V30 7692 N 734.616 1.57351 0.0885366 0
M  V30 7693 C 735.865 1.85604 0.789556 0
M  V30 7694 C 736.178 0.775352 1.79576 0
M  V30 7695 O 737.384 0.945206 2.54515 0
M  V30 7696 C 735.84 3.29175 1.45506 0
M  V30 7697 C 735.448 4.45331 0.488278 0
M  V30 7698 C 737.192 3.66646 2.13942 0
M  V30 7699 C 735.099 5.79937 1.15874 0
M  V30 7700 H 734.029 0.692346 0.298619 0
M  V30 7701 H 736.68 1.83451 0.0425821 0
M  V30 7702 H 735.062 3.25889 2.24972 0
M  V30 7703 H 736.236 4.59977 -0.275359 0
M  V30 7704 H 734.551 4.16301 -0.0907363 0
M  V30 7705 H 737.148 4.64498 2.6485 0
M  V30 7706 H 737.491 2.956 2.93132 0
M  V30 7707 H 738.024 3.71848 1.41328 0
M  V30 7708 H 734.763 6.54232 0.407508 0
M  V30 7709 H 734.283 5.69123 1.89364 0
M  V30 7710 H 735.962 6.24718 1.68336 0
M  V30 7711 N 736.094 -0.359525 1.53444 0
M  V30 7712 C 737.057 -1.42357 1.7963 0
M  V30 7713 C 738.057 -1.46319 0.666884 0
M  V30 7714 O 739.247 -1.46974 0.935113 0
M  V30 7715 C 736.379 -2.81425 1.92387 0
M  V30 7716 H 737.572 -1.20409 2.74666 0
M  V30 7717 H 735.125 -0.593007 1.44614 0
M  V30 7718 H 735.86 -3.08679 0.994384 0
M  V30 7719 H 735.645 -2.79947 2.74539 0
M  V30 7720 H 737.135 -3.5847 2.14218 0
M  V30 7721 N 737.572 -1.44907 -0.619662 0
M  V30 7722 C 738.821 -1.47569 -1.37501 0
M  V30 7723 C 739.134 -0.116707 -1.95252 0
M  V30 7724 O 740.34 -0.020909 -2.71492 0
M  V30 7725 C 738.796 -2.59851 -2.49009 0
M  V30 7726 C 738.404 -4.02008 -1.97722 0
M  V30 7727 C 740.148 -2.71746 -3.2612 0
M  V30 7728 C 738.055 -5.05693 -3.0664 0
M  V30 7729 H 736.985 -0.549068 -0.51676 0
M  V30 7730 H 739.636 -1.71009 -0.665437 0
M  V30 7731 H 738.018 -2.29671 -3.22594 0
M  V30 7732 H 739.192 -4.41809 -1.30925 0
M  V30 7733 H 737.507 -3.94456 -1.33392 0
M  V30 7734 H 740.104 -3.46382 -4.07337 0
M  V30 7735 H 740.447 -1.77959 -3.76346 0
M  V30 7736 H 740.98 -3.01392 -2.5963 0
M  V30 7737 H 737.719 -6.01148 -2.61345 0
M  V30 7738 H 737.239 -4.70473 -3.72042 0
M  V30 7739 H 738.918 -5.29906 -3.71226 0
M  V30 7740 N 739.05 0.861098 -1.31996 0
M  V30 7741 C 739.96 2.00154 -1.22374 0
M  V30 7742 C 740.976 1.73447 -0.138631 0
M  V30 7743 O 742.152 1.98191 -0.358104 0
M  V30 7744 C 739.217 3.33696 -0.940645 0
M  V30 7745 C 738.278 3.73668 -2.11355 0
M  V30 7746 C 737.511 5.00837 -1.84386 0
M  V30 7747 O 737.734 5.64996 -0.783287 0
M  V30 7748 O 736.668 5.37787 -2.70313 0
M  V30 7749 H 740.494 2.11207 -2.18233 0
M  V30 7750 H 738.079 0.990768 -1.11822 0
M  V30 7751 H 739.961 4.13756 -0.798987 0
M  V30 7752 H 738.636 3.23698 -0.0121636 0
M  V30 7753 H 737.543 2.94211 -2.31065 0
M  V30 7754 H 738.876 3.88303 -3.02459 0
M  V30 7755 N 740.528 1.15101 1.07655 0
M  V30 7756 C 741.475 0.844958 2.14777 0
M  V30 7757 C 742.445 -0.200798 1.64882 0
M  V30 7758 O 743.63 -0.0690278 1.90675 0
M  V30 7759 C 740.77 0.337018 3.4345 0
M  V30 7760 C 739.883 1.44398 4.07153 0
M  V30 7761 C 739.018 0.892487 5.23649 0
M  V30 7762 C 738.057 1.9766 5.79307 0
M  V30 7763 N 737.194 1.44171 6.87138 0
M  V30 7764 H 742.034 1.76242 2.40297 0
M  V30 7765 H 739.571 0.879435 1.17917 0
M  V30 7766 H 741.529 0.024256 4.17193 0
M  V30 7767 H 740.159 -0.543531 3.18191 0
M  V30 7768 H 739.211 1.87299 3.31094 0
M  V30 7769 H 740.523 2.26262 4.4453 0
M  V30 7770 H 739.677 0.532083 6.04362 0
M  V30 7771 H 738.416 0.0429854 4.87681 0
M  V30 7772 H 737.421 2.34586 4.97242 0
M  V30 7773 H 738.646 2.82982 6.17331 0
M  V30 7774 H 736.592 0.614518 6.53115 0
M  V30 7775 H 736.509 2.19665 7.23383 0
M  V30 7776 H 737.777 1.10945 7.71564 0
M  V30 7777 N 742.006 -1.2595 0.947325 0
M  V30 7778 C 742.969 -2.24407 0.466285 0
M  V30 7779 C 743.969 -1.55054 -0.426005 0
M  V30 7780 O 745.159 -1.7275 -0.224319 0
M  V30 7781 C 742.291 -3.39326 -0.327201 0
M  V30 7782 H 743.484 -2.68477 1.33642 0
M  V30 7783 H 741.037 -1.38211 0.729887 0
M  V30 7784 H 741.772 -3.00667 -1.21532 0
M  V30 7785 H 741.557 -3.9085 0.312839 0
M  V30 7786 H 743.047 -4.12455 -0.653477 0
M  V30 7787 N 743.484 -0.715051 -1.40445 0
M  V30 7788 C 744.709 -0.26254 -2.05732 0
M  V30 7789 C 745.134 1.08691 -1.53519 0
M  V30 7790 O 744.492 1.68453 -0.670328 0
M  V30 7791 C 744.54 -0.25195 -3.59719 0
M  V30 7792 O 743.644 0.766998 -4.05205 0
M  V30 7793 H 742.985 -0.123398 -0.652433 0
M  V30 7794 H 745.515 -0.975382 -1.79854 0
M  V30 7795 H 745.525 -0.0894537 -4.07902 0
M  V30 7796 H 744.2 -1.23672 -3.97087 0
M  V30 7797 H 742.777 0.572269 -3.68483 0
M  V30 7798 N 744.962 1.50701 -0.461195 0
M  V30 7799 C 746.21 2.01867 0.0970051 0
M  V30 7800 C 746.531 1.34591 1.41104 0
M  V30 7801 O 745.801 0.488041 1.89723 0
M  V30 7802 H 744.381 0.74599 0.0388392 0
M  V30 7803 H 747.043 1.85129 -0.609357 0
M  V30 7804 H 746.139 3.11051 0.255688 0
M  V30 7805 N 746.441 0.193421 1.56409 0
M  V30 7806 C 747.687 -0.446449 1.97825 0
M  V30 7807 C 748.02 -1.61386 1.08019 0
M  V30 7808 O 747.295 -1.94053 0.131839 0
M  V30 7809 C 747.578 -0.908199 3.48459 0
M  V30 7810 C 747.431 0.260914 4.49043 0
M  V30 7811 C 748.75 -1.77428 4.0275 0
M  V30 7812 H 745.869 -0.160807 0.719243 0
M  V30 7813 H 748.511 0.284006 1.87865 0
M  V30 7814 H 746.661 -1.53062 3.57077 0
M  V30 7815 H 748.333 0.898548 4.52464 0
M  V30 7816 H 746.576 0.912949 4.24085 0
M  V30 7817 H 747.247 -0.104657 5.51901 0
M  V30 7818 H 749.723 -1.24936 3.96901 0
M  V30 7819 H 748.599 -2.06633 5.08521 0
M  V30 7820 H 748.86 -2.72788 3.47907 0
M  V30 7821 N 747.919 -1.57396 -0.0801906 0
M  V30 7822 C 748.882 -2.02133 -1.0805 0
M  V30 7823 C 749.882 -0.91707 -1.32085 0
M  V30 7824 O 751.072 -1.18217 -1.27947 0
M  V30 7825 C 748.204 -2.39479 -2.42616 0
M  V30 7826 H 749.397 -2.91733 -0.6951 0
M  V30 7827 H 746.95 -1.52869 -0.325677 0
M  V30 7828 H 747.685 -1.52879 -2.86004 0
M  V30 7829 H 747.47 -3.20052 -2.26515 0
M  V30 7830 H 748.96 -2.74697 -3.14534 0
M  V30 7831 N 749.397 0.351382 -1.53633 0
M  V30 7832 C 750.625 1.11275 -1.74429 0
M  V30 7833 C 751.04 1.82602 -0.479798 0
M  V30 7834 O 750.397 1.74074 0.548125 0
M  V30 7835 C 750.448 2.13223 -2.91921 0
M  V30 7836 O 750.169 1.44798 -4.13479 0
M  V30 7837 C 751.67 3.01797 -3.24706 0
M  V30 7838 H 748.89 0.332153 -0.583023 0
M  V30 7839 H 751.434 0.405974 -2.0043 0
M  V30 7840 H 749.589 2.79477 -2.68274 0
M  V30 7841 H 750.003 2.12839 -4.79374 0
M  V30 7842 H 751.477 3.69282 -4.10286 0
M  V30 7843 H 751.954 3.67387 -2.40673 0
M  V30 7844 H 752.56 2.41141 -3.5033 0
M  V30 7845 N 750.875 1.45233 0.611969 0
M  V30 7846 C 751.822 1.5357 1.72293 0
M  V30 7847 C 752.792 0.381912 1.6165 0
M  V30 7848 O 753.977 0.594765 1.81293 0
M  V30 7849 C 751.117 1.50419 3.10593 0
M  V30 7850 C 750.23 2.76316 3.32074 0
M  V30 7851 C 749.365 2.64866 4.60456 0
M  V30 7852 C 748.404 3.85838 4.7518 0
M  V30 7853 N 747.541 3.72949 5.94856 0
M  V30 7854 H 752.381 2.4848 1.64504 0
M  V30 7855 H 749.918 1.23302 0.802191 0
M  V30 7856 H 751.876 1.4658 3.90602 0
M  V30 7857 H 750.506 0.590621 3.17351 0
M  V30 7858 H 749.558 2.90261 2.45872 0
M  V30 7859 H 750.87 3.66055 3.38829 0
M  V30 7860 H 750.024 2.58969 5.48653 0
M  V30 7861 H 748.763 1.72719 4.56092 0
M  V30 7862 H 747.768 3.92099 3.85407 0
M  V30 7863 H 748.993 4.79045 4.81344 0
M  V30 7864 H 746.939 2.83567 5.91545 0
M  V30 7865 H 746.856 4.56319 6.02751 0
M  V30 7866 H 748.124 3.70976 6.85563 0
M  V30 7867 N 752.353 -0.854086 1.3245 0
M  V30 7868 C 753.63 -1.59188 1.1366 0
M  V30 7869 C 754.01 -2.08917 -0.302807 0
M  V30 7870 O 753.358 -1.8795 -1.29951 0
M  V30 7871 C 753.568 -2.73757 2.16467 0
M  V30 7872 C 754.916 -3.43323 2.49829 0
M  V30 7873 O 755.94 -2.83983 2.15017 0
M  V30 7874 O 754.799 -4.50409 3.09506 0
M  V30 7875 H 751.893 -0.701092 0.438633 0
M  V30 7876 H 754.439 -0.898165 1.43983 0
M  V30 7877 H 753.211 -2.3454 3.1322 0
M  V30 7878 H 752.834 -3.50804 1.87142 0
M  V30 7879 N 753.831 -1.1567 -1.07043 0
M  V30 7880 C 754.761 -0.879348 -2.16309 0
M  V30 7881 C 755.742 0.171311 -1.69235 0
M  V30 7882 O 756.927 0.0250175 -1.94184 0
M  V30 7883 C 754.057 -0.371307 -3.45309 0
M  V30 7884 C 753.011 -1.359 -4.05851 0
M  V30 7885 C 752.337 -0.709678 -5.29969 0
M  V30 7886 C 753.637 -2.72606 -4.45514 0
M  V30 7887 H 755.331 -1.79308 -2.39768 0
M  V30 7888 H 752.877 -0.863558 -1.15233 0
M  V30 7889 H 754.83 -0.164798 -4.21078 0
M  V30 7890 H 753.554 0.577906 -3.21446 0
M  V30 7891 H 752.213 -1.55193 -3.32131 0
M  V30 7892 H 751.861 0.245782 -5.02399 0
M  V30 7893 H 751.561 -1.36886 -5.71433 0
M  V30 7894 H 753.085 -0.513015 -6.08441 0
M  V30 7895 H 754.499 -2.57141 -5.12398 0
M  V30 7896 H 752.896 -3.34927 -4.97939 0
M  V30 7897 H 753.966 -3.28434 -3.56734 0
M  V30 7898 N 755.309 1.25446 -0.953992 0
M  V30 7899 C 756.556 1.93143 -0.608429 0
M  V30 7900 C 756.884 1.74727 0.854451 0
M  V30 7901 O 756.139 1.0855 1.62836 0
M  V30 7902 C 756.438 3.45555 -0.912496 0
M  V30 7903 C 756.104 3.84126 -2.36131 0
M  V30 7904 C 754.766 3.94367 -2.75732 0
M  V30 7905 C 757.118 4.0324 -3.30223 0
M  V30 7906 C 754.446 4.21127 -4.08496 0
M  V30 7907 C 756.798 4.31493 -4.62598 0
M  V30 7908 C 755.462 4.3995 -5.01996 0
M  V30 7909 H 754.732 0.706762 -0.22264 0
M  V30 7910 H 757.379 1.49005 -1.20291 0
M  V30 7911 H 755.684 3.91091 -0.235618 0
M  V30 7912 H 757.381 3.9612 -0.623714 0
M  V30 7913 H 753.971 3.76711 -2.04418 0
M  V30 7914 H 758.155 3.94744 -3.00817 0
M  V30 7915 H 753.411 4.2589 -4.38665 0
M  V30 7916 H 757.585 4.45227 -5.35486 0
M  V30 7917 H 755.212 4.60439 -6.04896 0
M  V30 7918 N 756.787 0.722489 1.40064 0
M  V30 7919 C 758.064 0.191829 1.94657 0
M  V30 7920 C 758.444 -1.30389 1.66018 0
M  V30 7921 O 757.792 -2.06342 0.981588 0
M  V30 7922 C 758.002 0.511978 3.45224 0
M  V30 7923 C 759.35 0.454426 4.22161 0
M  V30 7924 O 760.374 0.448438 3.53366 0
M  V30 7925 O 759.233 0.437986 5.44742 0
M  V30 7926 H 756.327 0.0307821 0.826427 0
M  V30 7927 H 758.873 0.800493 1.49634 0
M  V30 7928 H 757.645 1.54622 3.59455 0
M  V30 7929 H 757.268 -0.126296 3.97399 0
M  V30 7930 N 758.265 -1.50454 0.469181 0
M  V30 7931 C 759.511 -2.03248 -0.0787241 0
M  V30 7932 C 759.866 -1.34499 -1.37578 0
M  V30 7933 O 759.159 -0.461173 -1.85967 0
M  V30 7934 C 759.353 -3.55963 -0.320207 0
M  V30 7935 C 759.182 -4.3951 0.951893 0
M  V30 7936 C 757.952 -4.82689 1.49465 0
M  V30 7937 C 760.15 -4.79999 1.84677 0
M  V30 7938 N 758.132 -5.50553 2.71597 0
M  V30 7939 C 759.503 -5.47254 2.91398 0
M  V30 7940 C 761.558 -4.61959 1.85738 0
M  V30 7941 C 760.261 -5.98381 3.99166 0
M  V30 7942 C 762.287 -5.14024 2.92461 0
M  V30 7943 C 761.649 -5.81253 3.97901 0
M  V30 7944 H 757.748 -0.78192 0.0111715 0
M  V30 7945 H 760.332 -1.83986 0.636961 0
M  V30 7946 H 758.503 -3.75174 -1.00493 0
M  V30 7947 H 760.235 -3.95407 -0.862285 0
M  V30 7948 H 756.99 -4.61948 1.0441 0
M  V30 7949 H 757.414 -5.89093 3.33615 0
M  V30 7950 H 762.056 -4.09416 1.05539 0
M  V30 7951 H 759.774 -6.49961 4.80183 0
M  V30 7952 H 763.36 -5.01897 2.94263 0
M  V30 7953 H 762.24 -6.20814 4.79123 0
M  V30 7954 N 759.743 -0.201713 -1.56304 0
M  V30 7955 C 760.989 0.435952 -1.98059 0
M  V30 7956 C 761.322 1.60811 -1.08873 0
M  V30 7957 O 760.597 1.9398 -0.142128 0
M  V30 7958 C 760.88 0.889706 -3.48936 0
M  V30 7959 C 760.733 -0.284725 -4.48898 0
M  V30 7960 C 762.052 1.7529 -4.03685 0
M  V30 7961 H 759.171 0.15699 -0.720085 0
M  V30 7962 H 761.813 -0.293965 -1.87712 0
M  V30 7963 H 759.963 1.51166 -3.57884 0
M  V30 7964 H 761.635 -0.922531 -4.51981 0
M  V30 7965 H 759.878 -0.935427 -4.23594 0
M  V30 7966 H 760.549 0.0753865 -5.51949 0
M  V30 7967 H 763.025 1.2283 -3.97558 0
M  V30 7968 H 761.901 2.03933 -5.0961 0
M  V30 7969 H 762.162 2.70939 -3.49348 0
M  V30 7970 N 761.222 1.57436 0.0718424 0
M  V30 7971 C 762.185 2.02703 1.06977 0
M  V30 7972 C 763.185 0.924062 1.31597 0
M  V30 7973 O 764.375 1.18894 1.27318 0
M  V30 7974 C 761.507 2.40763 2.41342 0
M  V30 7975 H 762.7 2.92098 0.679619 0
M  V30 7976 H 760.253 1.5304 0.317565 0
M  V30 7977 H 760.988 1.54394 2.8519 0
M  V30 7978 H 760.773 3.21249 2.24814 0
M  V30 7979 H 762.263 2.76361 3.13073 0
M  V30 7980 N 762.7 -0.34323 1.53817 0
M  V30 7981 C 763.948 -1.0813 1.70741 0
M  V30 7982 C 764.269 -1.89165 0.473461 0
M  V30 7983 O 763.539 -1.89075 -0.512605 0
M  V30 7984 H 762.119 -0.40219 0.629486 0
M  V30 7985 H 764.781 -0.384426 1.91071 0
M  V30 7986 H 763.877 -1.7585 2.57843 0
M  V30 7987 N 764.178 -1.45556 -0.604258 0
M  V30 7988 C 765.406 -1.53278 -1.38973 0
M  V30 7989 C 765.821 -0.166509 -1.88064 0
M  V30 7990 O 765.178 0.832519 -1.62405 0
M  V30 7991 C 765.229 -2.51992 -2.59195 0
M  V30 7992 O 764.95 -3.8331 -2.12143 0
M  V30 7993 C 766.451 -2.69445 -3.52015 0
M  V30 7994 H 763.671 -0.519003 -0.425297 0
M  V30 7995 H 766.215 -1.90773 -0.736621 0
M  V30 7996 H 764.37 -2.17561 -3.2054 0
M  V30 7997 H 764.784 -4.3685 -2.90279 0
M  V30 7998 H 766.258 -3.42485 -4.32907 0
M  V30 7999 H 766.735 -1.75596 -4.0257 0
M  V30 8000 H 767.341 -3.04886 -2.9652 0
M  V30 8001 N 765.656 0.84705 -1.32902 0
M  V30 8002 C 766.881 1.63925 -1.27056 0
M  V30 8003 C 767.306 1.87443 0.157136 0
M  V30 8004 O 766.664 1.43266 1.11106 0
M  V30 8005 C 766.712 2.97134 -2.04313 0
M  V30 8006 O 765.816 3.88049 -1.39614 0
M  V30 8007 H 765.157 0.499477 -0.437514 0
M  V30 8008 H 767.687 1.05443 -1.75336 0
M  V30 8009 H 767.697 3.46896 -2.14772 0
M  V30 8010 H 766.372 2.79339 -3.08128 0
M  V30 8011 H 764.949 3.46525 -1.3775 0
M  V30 8012 N 767.134 1.16236 1.06428 0
M  V30 8013 C 768.362 0.967184 1.82902 0
M  V30 8014 C 768.777 -0.484601 1.82475 0
M  V30 8015 O 768.134 -1.33631 1.24294 0
M  V30 8016 C 768.185 1.48534 3.29576 0
M  V30 8017 O 767.906 2.88026 3.3011 0
M  V30 8018 C 769.407 1.33298 4.22784 0
M  V30 8019 H 766.627 0.342923 0.576754 0
M  V30 8020 H 769.171 1.54232 1.34286 0
M  V30 8021 H 767.326 0.952513 3.75508 0
M  V30 8022 H 767.74 3.11721 4.21818 0
M  V30 8023 H 769.214 1.74385 5.23731 0
M  V30 8024 H 769.691 0.278356 4.38317 0
M  V30 8025 H 770.297 1.85535 3.82697 0
M  V30 8026 N 768.612 -1.24939 0.960631 0
M  V30 8027 C 769.86 -1.92437 0.617441 0
M  V30 8028 C 770.181 -1.75543 -0.849101 0
M  V30 8029 O 769.451 -1.12269 -1.60538 0
M  V30 8030 H 768.031 -0.712192 0.225371 0
M  V30 8031 H 770.693 -1.5198 1.22017 0
M  V30 8032 H 769.789 -3.00247 0.851933 0
M  V30 8033 N 770.09 -0.729906 -1.39679 0
M  V30 8034 C 771.338 -0.275077 -2.00219 0
M  V30 8035 C 771.659 1.1401 -1.58199 0
M  V30 8036 O 770.929 1.77546 -0.827904 0
M  V30 8037 H 769.509 -0.0987127 -0.740449 0
M  V30 8038 H 772.171 -0.93873 -1.70804 0
M  V30 8039 H 771.267 -0.319446 -3.10461 0
M  V30 8040 N 771.568 1.50203 -0.477153 0
M  V30 8041 C 772.817 2.01551 0.0774548 0
M  V30 8042 C 773.13 1.36359 1.40234 0
M  V30 8043 O 774.336 1.78898 2.04225 0
M  V30 8044 C 772.792 3.59406 0.188539 0
M  V30 8045 C 772.4 4.3356 -1.12828 0
M  V30 8046 C 774.144 4.18776 0.694782 0
M  V30 8047 C 772.051 5.83213 -0.98066 0
M  V30 8048 H 770.981 0.75329 0.0327212 0
M  V30 8049 H 773.632 1.72959 -0.612969 0
M  V30 8050 H 772.014 3.84611 0.942881 0
M  V30 8051 H 773.188 4.20074 -1.89405 0
M  V30 8052 H 771.503 3.85827 -1.5661 0
M  V30 8053 H 774.1 5.28338 0.822356 0
M  V30 8054 H 774.443 3.80557 1.68766 0
M  V30 8055 H 774.976 3.978 -0.00234519 0
M  V30 8056 H 771.715 6.25914 -1.94709 0
M  V30 8057 H 771.235 5.99256 -0.255375 0
M  V30 8058 H 772.914 6.4373 -0.649717 0
M  V30 8059 N 773.046 0.209999 1.56195 0
M  V30 8060 C 773.976 -0.699746 2.22769 0
M  V30 8061 C 774.957 -1.20993 1.1956 0
M  V30 8062 O 776.142 -1.25605 1.48112 0
M  V30 8063 C 773.272 -1.91302 2.89863 0
M  V30 8064 C 772.226 -1.53715 3.99444 0
M  V30 8065 C 771.552 -2.82826 4.53777 0
M  V30 8066 C 772.852 -0.735836 5.17091 0
M  V30 8067 H 774.546 -0.144716 2.9905 0
M  V30 8068 H 772.092 -0.0681645 1.43839 0
M  V30 8069 H 774.045 -2.5548 3.35124 0
M  V30 8070 H 772.769 -2.49283 2.11011 0
M  V30 8071 H 771.428 -0.918892 3.54897 0
M  V30 8072 H 771.076 -3.38927 3.71669 0
M  V30 8073 H 770.776 -2.58415 5.27727 0
M  V30 8074 H 772.3 -3.47966 5.01749 0
M  V30 8075 H 773.714 -1.28105 5.58804 0
M  V30 8076 H 772.111 -0.589272 5.972 0
M  V30 8077 H 773.181 0.260004 4.84202 0
M  V30 8078 N 774.524 -1.57472 -0.0634922 0
M  V30 8079 C 775.487 -2.03268 -1.059 0
M  V30 8080 C 776.487 -0.931028 -1.31105 0
M  V30 8081 O 777.677 -1.19567 -1.26686 0
M  V30 8082 C 774.809 -2.42039 -2.40062 0
M  V30 8083 H 776.002 -2.92454 -0.664119 0
M  V30 8084 H 773.555 -1.53206 -0.309444 0
M  V30 8085 H 774.29 -1.55904 -2.84367 0
M  V30 8086 H 774.075 -3.22437 -2.23108 0
M  V30 8087 H 775.565 -2.78017 -3.11603 0
M  V30 8088 N 776.003 0.335068 -1.53997 0
M  V30 8089 C 776.933 1.41727 -1.85568 0
M  V30 8090 C 777.914 1.54505 -0.7115 0
M  V30 8091 O 779.099 1.68573 -0.964191 0
M  V30 8092 C 776.229 2.7866 -2.07282 0
M  V30 8093 C 775.183 2.80682 -3.23112 0
M  V30 8094 C 774.509 4.20581 -3.30175 0
M  V30 8095 C 775.809 2.45458 -4.61029 0
M  V30 8096 H 777.503 1.15555 -2.76202 0
M  V30 8097 H 775.049 0.554445 -1.32898 0
M  V30 8098 H 777.002 3.54423 -2.27952 0
M  V30 8099 H 775.726 3.06286 -1.13387 0
M  V30 8100 H 774.385 2.07373 -3.02311 0
M  V30 8101 H 774.033 4.4533 -2.33859 0
M  V30 8102 H 773.733 4.22843 -4.08016 0
M  V30 8103 H 775.257 4.98174 -3.53066 0
M  V30 8104 H 776.671 3.10934 -4.81656 0
M  V30 8105 H 775.068 2.5899 -5.41336 0
M  V30 8106 H 776.138 1.40628 -4.6406 0
M  V30 8107 N 777.481 1.45874 0.596531 0
M  V30 8108 C 778.444 1.54988 1.68853 0
M  V30 8109 C 779.444 0.428302 1.54991 0
M  V30 8110 O 780.634 0.692158 1.59859 0
M  V30 8111 C 777.766 1.457 3.08195 0
M  V30 8112 H 778.959 2.52294 1.62135 0
M  V30 8113 H 776.512 1.33479 0.813206 0
M  V30 8114 H 777.247 0.496204 3.20481 0
M  V30 8115 H 777.032 2.27061 3.19665 0
M  V30 8116 H 778.522 1.55133 3.87716 0
M  V30 8117 N 778.959 -0.83999 1.33349 0
M  V30 8118 C 780.208 -1.59011 1.2409 0
M  V30 8119 C 780.521 -1.94655 -0.192029 0
M  V30 8120 O 781.727 -2.68438 -0.406617 0
M  V30 8121 C 780.183 -2.86801 2.17425 0
M  V30 8122 C 779.791 -2.58525 3.65881 0
M  V30 8123 C 781.535 -3.64823 2.17036 0
M  V30 8124 C 779.442 -3.82404 4.51133 0
M  V30 8125 H 778.372 -0.596731 0.460899 0
M  V30 8126 H 781.023 -0.926274 1.58406 0
M  V30 8127 H 779.405 -3.54719 1.7604 0
M  V30 8128 H 780.579 -1.98824 4.15699 0
M  V30 8129 H 778.894 -1.93808 3.68548 0
M  V30 8130 H 781.491 -4.56774 2.7796 0
M  V30 8131 H 781.834 -3.99663 1.16513 0
M  V30 8132 H 782.367 -3.03826 2.56777 0
M  V30 8133 H 779.106 -3.52696 5.52527 0
M  V30 8134 H 778.626 -4.41447 4.0606 0
M  V30 8135 H 780.305 -4.49995 4.6488 0
M  V30 8136 N 780.437 -1.16799 -1.0581 0
M  V30 8137 C 781.367 -0.902241 -2.15364 0
M  V30 8138 C 782.348 0.153351 -1.69407 0
M  V30 8139 O 783.533 0.00442032 -1.94199 0
M  V30 8140 C 780.663 -0.407911 -3.44896 0
M  V30 8141 C 779.617 -1.40197 -4.04387 0
M  V30 8142 C 778.943 -0.765848 -5.29187 0
M  V30 8143 C 780.243 -2.77316 -4.42598 0
M  V30 8144 H 781.937 -1.81841 -2.37853 0
M  V30 8145 H 779.483 -0.875731 -1.14311 0
M  V30 8146 H 781.436 -0.20945 -4.20879 0
M  V30 8147 H 780.16 0.54378 -3.22041 0
M  V30 8148 H 778.819 -1.58707 -3.30466 0
M  V30 8149 H 778.467 0.192482 -5.02632 0
M  V30 8150 H 778.167 -1.42939 -5.69949 0
M  V30 8151 H 779.691 -0.577519 -6.07863 0
M  V30 8152 H 781.105 -2.62561 -5.09642 0
M  V30 8153 H 779.502 -3.4019 -4.94359 0
M  V30 8154 H 780.572 -3.32199 -3.53231 0
M  V30 8155 N 781.915 1.24427 -0.967243 0
M  V30 8156 C 782.865 2.23143 -0.468106 0
M  V30 8157 C 783.849 1.5449 0.449633 0
M  V30 8158 O 785.041 1.74761 0.28063 0
M  V30 8159 C 782.17 3.42454 0.240867 0
M  V30 8160 C 781.256 4.18355 -0.695674 0
M  V30 8161 N 781.647 4.71428 -1.83273 0
M  V30 8162 C 779.945 4.43116 -0.506365 0
M  V30 8163 C 780.646 5.29041 -2.41849 0
M  V30 8164 N 779.622 5.16213 -1.70369 0
M  V30 8165 H 783.424 2.61795 -1.3357 0
M  V30 8166 H 780.938 1.39809 -0.826277 0
M  V30 8167 H 782.935 4.12329 0.615668 0
M  V30 8168 H 781.595 3.05323 1.10491 0
M  V30 8169 H 782.606 4.68177 -2.21428 0
M  V30 8170 H 779.283 4.16319 0.313747 0
M  V30 8171 H 780.673 5.80811 -3.37799 0
M  V30 8172 N 783.393 0.737304 1.3929 0
M  V30 8173 C 784.618 0.295237 2.05288 0
M  V30 8174 C 785.043 -1.06235 1.55228 0
M  V30 8175 O 784.401 -1.67365 0.697043 0
M  V30 8176 C 784.449 0.309146 3.59272 0
M  V30 8177 O 783.553 -0.702437 4.06374 0
M  V30 8178 H 782.894 0.133762 0.650387 0
M  V30 8179 H 785.424 1.00387 1.78279 0
M  V30 8180 H 785.434 0.154336 4.07708 0
M  V30 8181 H 784.109 1.29974 3.95069 0
M  V30 8182 H 782.686 -0.513574 3.69346 0
M  V30 8183 N 784.871 -1.49948 0.485112 0
M  V30 8184 C 785.818 -2.28819 -0.301729 0
M  V30 8185 C 786.788 -1.34496 -0.974683 0
M  V30 8186 O 787.973 -1.63444 -0.984418 0
M  V30 8187 C 785.113 -3.16758 -1.36961 0
M  V30 8188 C 784.226 -4.26125 -0.710027 0
M  V30 8189 C 783.361 -5.01302 -1.75699 0
M  V30 8190 C 782.4 -6.02525 -1.07841 0
M  V30 8191 N 781.537 -6.70927 -2.06886 0
M  V30 8192 H 786.377 -2.95604 0.377127 0
M  V30 8193 H 783.914 -1.45764 0.197826 0
M  V30 8194 H 785.872 -3.66106 -2.00056 0
M  V30 8195 H 784.502 -2.51991 -2.01744 0
M  V30 8196 H 783.554 -3.80385 0.0338278 0
M  V30 8197 H 784.866 -4.98493 -0.175079 0
M  V30 8198 H 784.02 -5.54438 -2.46339 0
M  V30 8199 H 782.759 -4.28672 -2.32577 0
M  V30 8200 H 781.764 -5.48635 -0.357706 0
M  V30 8201 H 782.989 -6.77134 -0.516345 0
M  V30 8202 H 780.935 -6.01079 -2.62755 0
M  V30 8203 H 780.852 -7.39216 -1.58414 0
M  V30 8204 H 782.12 -7.28675 -2.76863 0
M  V30 8205 N 786.349 -0.21828 -1.56081 0
M  V30 8206 C 787.574 0.422302 -2.03055 0
M  V30 8207 C 787.999 1.5279 -1.09713 0
M  V30 8208 O 787.357 1.81102 -0.0847187 0
M  V30 8209 C 787.405 0.934177 -3.48289 0
M  V30 8210 O 786.509 2.04574 -3.58083 0
M  V30 8211 H 785.85 0.0959764 -0.657027 0
M  V30 8212 H 788.38 -0.335958 -2.01823 0
M  V30 8213 H 788.39 1.24484 -3.88546 0
M  V30 8214 H 787.065 0.124963 -4.15712 0
M  V30 8215 H 785.642 1.74196 -3.29712 0
M  V30 8216 N 787.827 1.57504 0.0551401 0
M  V30 8217 C 788.76 2.00155 1.09604 0
M  V30 8218 C 789.738 0.881274 1.36647 0
M  V30 8219 O 790.922 1.14498 1.49742 0
M  V30 8220 C 788.049 2.35246 2.43674 0
M  V30 8221 C 787.095 3.57452 2.32659 0
M  V30 8222 S 787.928 5.07639 1.7048 0
M  V30 8223 C 789.084 5.45947 3.06093 0
M  V30 8224 H 789.317 2.88131 0.732635 0
M  V30 8225 H 786.85 1.52122 0.264252 0
M  V30 8226 H 788.808 2.56136 3.20787 0
M  V30 8227 H 787.469 1.47769 2.7717 0
M  V30 8228 H 786.662 3.79576 3.31569 0
M  V30 8229 H 786.264 3.36279 1.63685 0
M  V30 8230 H 788.556 5.45036 4.0242 0
M  V30 8231 H 789.499 6.4656 2.88732 0
M  V30 8232 H 789.907 4.73419 3.07466 0
M  V30 8233 N 789.305 -0.326896 1.54172 0
M  V30 8234 C 790.268 -1.38515 1.8261 0
M  V30 8235 C 791.268 -1.44872 0.697771 0
M  V30 8236 O 792.458 -1.44957 0.966078 0
M  V30 8237 C 789.59 -2.77281 1.98313 0
M  V30 8238 H 790.783 -1.14556 2.77159 0
M  V30 8239 H 788.336 -0.562199 1.45839 0
M  V30 8240 H 789.071 -3.065 1.05964 0
M  V30 8241 H 788.856 -2.74061 2.80416 0
M  V30 8242 H 790.346 -3.53845 2.21773 0
M  V30 8243 N 790.784 -1.46188 -0.588786 0
M  V30 8244 C 792.014 -1.54519 -1.3714 0
M  V30 8245 C 792.422 -0.183075 -1.88312 0
M  V30 8246 O 791.765 0.828815 -1.6394 0
M  V30 8247 C 791.827 -2.48426 -2.59856 0
M  V30 8248 C 791.491 -3.94791 -2.30193 0
M  V30 8249 C 792.488 -4.84173 -1.894 0
M  V30 8250 C 790.173 -4.39872 -2.42525 0
M  V30 8251 C 792.167 -6.16647 -1.61325 0
M  V30 8252 C 789.854 -5.72381 -2.14063 0
M  V30 8253 C 790.852 -6.60589 -1.73527 0
M  V30 8254 O 790.54 -7.9064 -1.4541 0
M  V30 8255 H 790.272 -0.525264 -0.425527 0
M  V30 8256 H 792.826 -1.92242 -0.723344 0
M  V30 8257 H 791.056 -2.05709 -3.27446 0
M  V30 8258 H 792.745 -2.4723 -3.21919 0
M  V30 8259 H 793.511 -4.50603 -1.79393 0
M  V30 8260 H 789.39 -3.71444 -2.7304 0
M  V30 8261 H 792.934 -6.85454 -1.29611 0
M  V30 8262 H 788.831 -6.05501 -2.23693 0
M  V30 8263 H 789.599 -8.02847 -1.59306 0
M  V30 8264 N 792.262 0.832906 -1.33792 0
M  V30 8265 C 793.195 1.94788 -1.18882 0
M  V30 8266 C 794.173 1.62389 -0.0828426 0
M  V30 8267 O 795.357 1.86886 -0.246175 0
M  V30 8268 C 792.484 3.28506 -0.824728 0
M  V30 8269 C 791.53 3.79872 -1.93905 0
M  V30 8270 S 792.363 4.00832 -3.55097 0
M  V30 8271 C 793.519 5.37492 -3.20708 0
M  V30 8272 H 793.752 2.07137 -2.13264 0
M  V30 8273 H 791.285 0.987362 -1.18704 0
M  V30 8274 H 793.243 4.05769 -0.621442 0
M  V30 8275 H 791.904 3.13939 0.100587 0
M  V30 8276 H 791.097 4.76647 -1.6378 0
M  V30 8277 H 790.699 3.09524 -2.09931 0
M  V30 8278 H 792.991 6.20544 -2.71903 0
M  V30 8279 H 793.934 5.72593 -4.16584 0
M  V30 8280 H 794.342 5.02529 -2.57148 0
M  V30 8281 N 793.74 1.17359 1.05189 0
M  V30 8282 C 795.156 0.920861 1.30355 0
M  V30 8283 C 795.356 -0.419993 1.97074 0
M  V30 8284 O 794.412 -1.15696 2.24434 0
M  V30 8285 C 795.725 2.07818 2.1733 0
M  V30 8286 C 797.273 2.1152 2.30712 0
M  V30 8287 C 797.748 3.26637 3.21048 0
M  V30 8288 N 799.239 3.26426 3.28634 0
M  V30 8289 C 799.974 4.12141 3.98657 0
M  V30 8290 N 799.47 5.07966 4.71107 0
M  V30 8291 N 801.263 4.00091 3.94821 0
M  V30 8292 H 793.414 2.03666 0.602821 0
M  V30 8293 H 795.677 0.889294 0.328421 0
M  V30 8294 H 795.383 3.04727 1.75597 0
M  V30 8295 H 795.257 2.02922 3.17966 0
M  V30 8296 H 797.644 1.15196 2.71687 0
M  V30 8297 H 797.725 2.20477 1.29706 0
M  V30 8298 H 797.369 4.23227 2.80788 0
M  V30 8299 H 797.299 3.14917 4.2206 0
M  V30 8300 H 799.79 2.57045 2.77013 0
M  V30 8301 H 800.103 5.69766 5.22099 0
M  V30 8302 H 798.448 5.11936 4.7005 0
M  V30 8303 H 801.639 3.24523 3.37346 0
M  V30 8304 H 801.812 4.6711 4.49123 0
M  V30 8305 N 795.218 -1.23913 0.973828 0
M  V30 8306 C 796.466 -1.91771 0.637817 0
M  V30 8307 C 796.787 -1.76434 -0.830435 0
M  V30 8308 O 796.057 -1.13965 -1.59339 0
M  V30 8309 H 794.637 -0.709761 0.232912 0
M  V30 8310 H 797.299 -1.50677 1.23622 0
M  V30 8311 H 796.395 -2.99327 0.883731 0
M  V30 8312 N 796.696 -0.74468 -1.38897 0
M  V30 8313 C 797.629 -0.0596441 -2.28122 0
M  V30 8314 C 798.607 0.73764 -1.44906 0
M  V30 8315 O 799.791 0.718155 -1.74284 0
M  V30 8316 C 796.918 0.922533 -3.25894 0
M  V30 8317 C 795.964 0.212566 -4.2597 0
M  V30 8318 S 796.797 -1.08035 -5.24489 0
M  V30 8319 C 797.953 -0.101014 -6.25818 0
M  V30 8320 H 798.186 -0.816289 -2.85874 0
M  V30 8321 H 795.719 -0.536882 -1.44765 0
M  V30 8322 H 797.677 1.4839 -3.82741 0
M  V30 8323 H 796.338 1.65209 -2.67142 0
M  V30 8324 H 795.531 0.956106 -4.94848 0
M  V30 8325 H 795.133 -0.277029 -3.72973 0
M  V30 8326 H 797.425 0.736072 -6.7349 0
M  V30 8327 H 798.368 -0.757206 -7.0404 0
M  V30 8328 H 798.776 0.275706 -5.63826 0
M  V30 8329 N 798.174 1.49689 -0.493057 0
M  V30 8330 C 799.404 2.06536 0.0512397 0
M  V30 8331 C 799.812 1.35459 1.32089 0
M  V30 8332 O 799.155 0.424145 1.78736 0
M  V30 8333 C 799.217 3.57452 0.383231 0
M  V30 8334 C 798.881 4.50163 -0.787555 0
M  V30 8335 C 799.878 4.92151 -1.67582 0
M  V30 8336 C 797.563 4.92565 -0.984109 0
M  V30 8337 C 799.557 5.7527 -2.74487 0
M  V30 8338 C 797.244 5.75463 -2.05634 0
M  V30 8339 C 798.242 6.16719 -2.93507 0
M  V30 8340 O 797.93 6.97961 -3.98881 0
M  V30 8341 H 797.662 0.675862 -0.0136516 0
M  V30 8342 H 800.216 1.9356 -0.687298 0
M  V30 8343 H 798.446 3.68408 1.17526 0
M  V30 8344 H 800.135 3.96572 0.8652 0
M  V30 8345 H 800.901 4.60043 -1.53575 0
M  V30 8346 H 796.78 4.5996 -0.309541 0
M  V30 8347 H 800.324 6.07392 -3.43104 0
M  V30 8348 H 796.221 6.06983 -2.19639 0
M  V30 8349 H 796.989 7.16253 -3.96137 0
M  V30 8350 N 799.652 0.226554 1.55963 0
M  V30 8351 C 800.899 -0.403789 1.98433 0
M  V30 8352 C 801.227 -1.59416 1.1143 0
M  V30 8353 O 800.482 -1.95042 0.160389 0
M  V30 8354 C 800.781 -0.87642 3.46488 0
M  V30 8355 C 800.447 0.203973 4.50438 0
M  V30 8356 C 799.109 0.500754 4.78587 0
M  V30 8357 C 801.461 0.934396 5.12756 0
M  V30 8358 C 798.789 1.53239 5.66334 0
M  V30 8359 C 801.141 1.9554 6.0162 0
M  V30 8360 C 799.805 2.25905 6.28111 0
M  V30 8361 H 799.075 -0.147757 0.726119 0
M  V30 8362 H 801.722 0.330121 1.88633 0
M  V30 8363 H 800.027 -1.68918 3.53517 0
M  V30 8364 H 801.724 -1.37407 3.76723 0
M  V30 8365 H 798.314 -0.0374917 4.28584 0
M  V30 8366 H 802.498 0.718355 4.91074 0
M  V30 8367 H 797.754 1.77321 5.85122 0
M  V30 8368 H 801.928 2.52642 6.48957 0
M  V30 8369 H 799.555 3.05985 6.959 0
M  V30 8370 N 801.13 -1.57531 -0.0467866 0
M  V30 8371 C 802.546 -1.54451 -0.402107 0
M  V30 8372 C 802.746 -0.950275 -1.77685 0
M  V30 8373 O 801.802 -0.563602 -2.4613 0
M  V30 8374 C 803.115 -2.9899 -0.320212 0
M  V30 8375 C 804.663 -3.10452 -0.398588 0
M  V30 8376 C 805.138 -4.56689 -0.346335 0
M  V30 8377 N 806.629 -4.6142 -0.405666 0
M  V30 8378 C 807.364 -5.72087 -0.387845 0
M  V30 8379 N 806.86 -6.92045 -0.32336 0
M  V30 8380 N 808.653 -5.60404 -0.436263 0
M  V30 8381 H 800.804 -1.94515 0.853087 0
M  V30 8382 H 803.067 -0.891397 0.322669 0
M  V30 8383 H 802.773 -3.46124 0.623794 0
M  V30 8384 H 802.647 -3.60164 -1.1208 0
M  V30 8385 H 805.034 -2.63276 -1.33302 0
M  V30 8386 H 805.115 -2.52142 0.431026 0
M  V30 8387 H 804.759 -5.04527 0.584356 0
M  V30 8388 H 804.689 -5.12889 -1.19382 0
M  V30 8389 H 807.18 -3.75105 -0.458737 0
M  V30 8390 H 807.493 -7.7216 -0.314375 0
M  V30 8391 H 805.838 -6.94396 -0.28967 0
M  V30 8392 H 809.029 -4.65586 -0.48451 0
M  V30 8393 H 809.202 -6.46645 -0.418907 0
M  V30 8394 N 802.608 0.318715 -1.54344 0
M  V30 8395 C 803.541 1.41644 -1.7892 0
M  V30 8396 C 804.519 1.495 -0.639421 0
M  V30 8397 O 805.703 1.66835 -0.877404 0
M  V30 8398 C 802.83 2.79701 -1.9101 0
M  V30 8399 C 801.876 2.89354 -3.13331 0
M  V30 8400 S 802.709 2.53264 -4.71824 0
M  V30 8401 C 803.865 3.93384 -4.86826 0
M  V30 8402 H 804.098 1.20585 -2.71747 0
M  V30 8403 H 801.631 0.515828 -1.45529 0
M  V30 8404 H 803.589 3.59227 -1.98661 0
M  V30 8405 H 802.25 2.9804 -0.991516 0
M  V30 8406 H 801.443 3.90574 -3.1854 0
M  V30 8407 H 801.045 2.17805 -3.04035 0
M  V30 8408 H 803.337 4.88191 -4.69761 0
M  V30 8409 H 804.28 3.93156 -5.88926 0
M  V30 8410 H 804.688 3.82564 -4.15097 0
M  V30 8411 N 804.086 1.46499 0.581025 0
M  V30 8412 C 805.033 1.5719 1.68997 0
M  V30 8413 C 806.003 0.416114 1.60803 0
M  V30 8414 O 807.188 0.633086 1.79991 0
M  V30 8415 C 804.328 1.56973 3.07333 0
M  V30 8416 C 803.441 2.83298 3.26139 0
M  V30 8417 C 802.576 2.74574 4.54734 0
M  V30 8418 C 801.615 3.9583 4.66889 0
M  V30 8419 N 800.752 3.85482 5.86811 0
M  V30 8420 H 805.592 2.51914 1.59196 0
M  V30 8421 H 803.129 1.24975 0.775857 0
M  V30 8422 H 805.087 1.54832 3.87405 0
M  V30 8423 H 803.717 0.657803 3.16027 0
M  V30 8424 H 802.769 2.95411 2.3966 0
M  V30 8425 H 804.081 3.7316 3.30988 0
M  V30 8426 H 803.235 2.70548 5.43036 0
M  V30 8427 H 801.974 1.82354 4.52325 0
M  V30 8428 H 800.979 4.00186 3.77003 0
M  V30 8429 H 802.204 4.89148 4.71075 0
M  V30 8430 H 800.15 2.96051 5.85397 0
M  V30 8431 H 800.067 4.69002 5.92936 0
M  V30 8432 H 801.335 3.85434 6.7754 0
M  V30 8433 N 805.565 -0.825799 1.34232 0
M  V30 8434 C 806.842 -1.56741 1.17011 0
M  V30 8435 C 807.222 -2.09512 -0.258425 0
M  V30 8436 O 806.57 -1.90664 -1.25935 0
M  V30 8437 C 806.78 -2.69104 2.22225 0
M  V30 8438 C 808.128 -3.37947 2.57055 0
M  V30 8439 O 809.152 -2.79358 2.20992 0
M  V30 8440 O 808.011 -4.43743 3.1899 0
M  V30 8441 H 805.105 -0.69163 0.453405 0
M  V30 8442 H 807.651 -0.867422 1.45856 0
M  V30 8443 H 806.423 -2.27844 3.18124 0
M  V30 8444 H 806.046 -3.46756 1.94541 0
M  V30 8445 N 807.043 -1.17915 -1.04565 0
M  V30 8446 C 807.953 -0.916449 -2.15959 0
M  V30 8447 C 808.969 0.117655 -1.73602 0
M  V30 8448 O 810.145 -0.063089 -2.01301 0
M  V30 8449 C 807.21 -0.440262 -3.43893 0
M  V30 8450 C 806.271 -1.54172 -4.00661 0
M  V30 8451 C 805.504 -1.08816 -5.22489 0
M  V30 8452 O 805.727 0.0551547 -5.70373 0
M  V30 8453 O 804.661 -1.88383 -5.7166 0
M  V30 8454 H 808.487 -1.8484 -2.40972 0
M  V30 8455 H 806.072 -0.960552 -1.14428 0
M  V30 8456 H 807.954 -0.182537 -4.21004 0
M  V30 8457 H 806.629 0.46346 -3.20365 0
M  V30 8458 H 805.536 -1.85341 -3.24961 0
M  V30 8459 H 806.869 -2.42139 -4.2852 0
M  V30 8460 N 808.521 1.23394 -0.980386 0
M  V30 8461 C 809.767 1.92094 -0.650223 0
M  V30 8462 C 810.1 1.76309 0.814173 0
M  V30 8463 O 809.375 1.12406 1.5873 0
M  V30 8464 C 809.658 3.44713 -1.04139 0
M  V30 8465 C 809.511 3.69606 -2.56342 0
M  V30 8466 C 810.83 4.36191 -0.585296 0
M  V30 8467 H 807.949 0.697618 -0.237695 0
M  V30 8468 H 810.591 1.45517 -1.22167 0
M  V30 8469 H 808.741 3.84513 -0.55515 0
M  V30 8470 H 810.413 3.39288 -3.1254 0
M  V30 8471 H 808.656 3.14318 -2.98976 0
M  V30 8472 H 809.327 4.76441 -2.78762 0
M  V30 8473 H 811.803 4.03836 -1.00276 0
M  V30 8474 H 810.679 5.41679 -0.887428 0
M  V30 8475 H 810.94 4.39097 0.51438 0
M  V30 8476 N 809.999 0.752036 1.385 0
M  V30 8477 C 811.246 0.307503 2.00152 0
M  V30 8478 C 811.574 -1.11033 1.59693 0
M  V30 8479 O 810.829 -1.77455 0.825125 0
M  V30 8480 C 811.128 0.376155 3.55415 0
M  V30 8481 C 810.794 1.74942 4.15579 0
M  V30 8482 C 809.456 2.12525 4.31725 0
M  V30 8483 C 811.808 2.65031 4.48785 0
M  V30 8484 C 809.136 3.39671 4.78373 0
M  V30 8485 C 811.488 3.91567 4.96848 0
M  V30 8486 C 810.152 4.2922 5.11201 0
M  V30 8487 H 809.422 0.112523 0.732407 0
M  V30 8488 H 812.069 0.962213 1.65571 0
M  V30 8489 H 810.374 -0.362121 3.90123 0
M  V30 8490 H 812.071 0.0138065 4.00998 0
M  V30 8491 H 808.661 1.44726 4.03426 0
M  V30 8492 H 812.845 2.3726 4.35914 0
M  V30 8493 H 808.101 3.68765 4.8767 0
M  V30 8494 H 812.275 4.61517 5.21512 0
M  V30 8495 H 809.902 5.27805 5.47107 0
M  V30 8496 N 811.477 -1.49425 0.500989 0
M  V30 8497 C 812.893 -1.58826 0.156951 0
M  V30 8498 C 813.093 -1.50622 -1.33848 0
M  V30 8499 O 812.149 -1.38016 -2.11442 0
M  V30 8500 C 813.462 -2.91611 0.73374 0
M  V30 8501 C 815.01 -3.05076 0.699846 0
M  V30 8502 C 815.485 -4.40479 1.2547 0
M  V30 8503 N 816.976 -4.4697 1.2154 0
M  V30 8504 C 817.711 -5.50189 1.6149 0
M  V30 8505 N 817.207 -6.60512 2.09034 0
M  V30 8506 N 819 -5.40903 1.52907 0
M  V30 8507 H 811.151 -1.53001 1.47324 0
M  V30 8508 H 813.414 -0.724765 0.61108 0
M  V30 8509 H 813.12 -3.03182 1.78251 0
M  V30 8510 H 812.994 -3.767 0.19417 0
M  V30 8511 H 815.381 -2.93134 -0.340085 0
M  V30 8512 H 815.462 -2.2167 1.27656 0
M  V30 8513 H 815.106 -4.53172 2.29341 0
M  V30 8514 H 815.036 -5.22524 0.653921 0
M  V30 8515 H 817.527 -3.67819 0.867043 0
M  V30 8516 H 817.84 -7.35372 2.37588 0
M  V30 8517 H 816.185 -6.61553 2.13008 0
M  V30 8518 H 819.376 -4.53606 1.15583 0
M  V30 8519 H 819.549 -6.21219 1.84365 0
M  V30 8520 N 812.955 -0.234822 -1.55841 0
M  V30 8521 C 814.203 0.392483 -1.98252 0
M  V30 8522 C 814.524 1.59344 -1.12404 0
M  V30 8523 O 813.794 1.94834 -0.204055 0
M  V30 8524 H 812.374 0.147999 -0.732192 0
M  V30 8525 H 815.036 -0.330804 -1.92072 0
M  V30 8526 H 814.132 0.709829 -3.03921 0
M  V30 8527 N 814.433 1.57553 0.0384317 0
M  V30 8528 C 815.658 1.93485 0.746872 0
M  V30 8529 C 816.083 0.834069 1.68597 0
M  V30 8530 O 815.441 -0.210902 1.80069 0
M  V30 8531 C 815.489 3.28463 1.4881 0
M  V30 8532 O 814.593 3.20051 2.60079 0
M  V30 8533 H 813.934 0.632675 0.201539 0
M  V30 8534 H 816.464 2.046 -0.00329815 0
M  V30 8535 H 816.474 3.63132 1.86009 0
M  V30 8536 H 815.149 4.08147 0.799297 0
M  V30 8537 H 813.726 2.96998 2.25492 0
M  V30 8538 N 815.911 -0.310526 1.54511 0
M  V30 8539 C 817.327 -0.655637 1.45511 0
M  V30 8540 C 817.527 -1.91114 0.638564 0
M  V30 8541 O 816.583 -2.52098 0.142497 0
M  V30 8542 C 817.896 -0.817501 2.89374 0
M  V30 8543 C 819.444 -0.914003 2.99358 0
M  V30 8544 C 819.919 -1.10794 4.44397 0
M  V30 8545 N 821.41 -1.17437 4.48066 0
M  V30 8546 C 822.145 -1.34255 5.57461 0
M  V30 8547 N 821.641 -1.48032 6.768 0
M  V30 8548 N 823.434 -1.37067 5.45132 0
M  V30 8549 H 815.585 0.514506 2.06074 0
M  V30 8550 H 817.848 0.168478 0.932909 0
M  V30 8551 H 817.554 0.034003 3.51684 0
M  V30 8552 H 817.428 -1.7094 3.36243 0
M  V30 8553 H 819.815 -1.756 2.37168 0
M  V30 8554 H 819.896 0.00170958 2.558 0
M  V30 8555 H 819.54 -0.270743 5.07178 0
M  V30 8556 H 819.47 -2.03773 4.85576 0
M  V30 8557 H 821.961 -1.08181 3.62084 0
M  V30 8558 H 822.274 -1.60593 7.5593 0
M  V30 8559 H 820.619 -1.45105 6.79683 0
M  V30 8560 H 823.81 -1.25909 4.50849 0
M  V30 8561 H 823.983 -1.49831 6.3044 0
M  V30 8562 N 817.389 -1.46805 -0.573248 0
M  V30 8563 C 818.8 -1.46655 -1.15539 0
M  V30 8564 C 819.151 -0.2125 -1.95046 0
M  V30 8565 O 818.276 0.683759 -2.05314 0
M  V30 8566 C 818.871 -2.65711 -2.10198 0
M  V30 8567 C 817.43 -2.68572 -2.63716 0
M  V30 8568 C 816.577 -2.39498 -1.39772 0
M  V30 8569 H 819.528 -1.54547 -0.36068 0
M  V30 8570 H 819.549 -2.41768 -2.93817 0
M  V30 8571 H 819.061 -3.56967 -1.52303 0
M  V30 8572 H 817.162 -1.81414 -3.25453 0
M  V30 8573 H 817.275 -3.68809 -3.05805 0
M  V30 8574 H 815.639 -1.89749 -1.69904 0
M  V30 8575 H 816.422 -3.32942 -0.836943 0
M  V30 8576 N 818.867 0.818669 -1.34668 0
M  V30 8577 C 820.097 1.60441 -1.30162 0
M  V30 8578 C 820.505 1.88783 0.125579 0
M  V30 8579 O 819.848 1.48281 1.08437 0
M  V30 8580 C 819.91 2.96794 -2.02864 0
M  V30 8581 C 819.574 2.91327 -3.52105 0
M  V30 8582 C 820.571 2.65611 -4.4693 0
M  V30 8583 C 818.256 3.10825 -3.9458 0
M  V30 8584 C 820.25 2.59452 -5.82206 0
M  V30 8585 C 817.937 3.0429 -5.29954 0
M  V30 8586 C 818.935 2.78637 -6.23579 0
M  V30 8587 O 818.623 2.72042 -7.56471 0
M  V30 8588 H 818.355 0.505278 -0.449077 0
M  V30 8589 H 820.909 1.02632 -1.77921 0
M  V30 8590 H 819.139 3.56538 -1.49725 0
M  V30 8591 H 820.828 3.57837 -1.91592 0
M  V30 8592 H 821.594 2.50278 -4.15434 0
M  V30 8593 H 817.473 3.29807 -3.221 0
M  V30 8594 H 821.017 2.39349 -6.55254 0
M  V30 8595 H 816.914 3.19177 -5.61067 0
M  V30 8596 H 817.682 2.87738 -7.66257 0
M  V30 8597 N 820.346 1.18468 1.03938 0
M  V30 8598 C 821.256 0.927889 2.1547 0
M  V30 8599 C 822.272 -0.108447 1.73662 0
M  V30 8600 O 823.448 0.0737636 2.01265 0
M  V30 8601 C 820.513 0.458494 3.43655 0
M  V30 8602 C 819.574 1.56295 3.99838 0
M  V30 8603 C 818.807 1.11586 5.21904 0
M  V30 8604 O 819.03 -0.0249057 5.70395 0
M  V30 8605 O 817.964 1.91412 5.70653 0
M  V30 8606 H 821.79 1.86116 2.39989 0
M  V30 8607 H 819.375 0.966607 1.13917 0
M  V30 8608 H 821.257 0.204861 4.20902 0
M  V30 8609 H 819.932 -0.446464 3.20606 0
M  V30 8610 H 818.839 1.87061 3.23974 0
M  V30 8611 H 820.172 2.44408 4.2723 0
M  V30 8612 N 821.824 -1.22873 0.986916 0
M  V30 8613 C 823.049 -1.96028 0.677341 0
M  V30 8614 C 823.474 -1.72487 -0.750319 0
M  V30 8615 O 822.832 -1.00036 -1.51203 0
M  V30 8616 C 822.88 -3.46983 0.981593 0
M  V30 8617 O 821.984 -4.12328 0.0770729 0
M  V30 8618 H 821.325 -0.613458 0.254096 0
M  V30 8619 H 823.855 -1.56132 1.32227 0
M  V30 8620 H 823.865 -3.9747 0.920969 0
M  V30 8621 H 822.54 -3.63442 2.02194 0
M  V30 8622 H 821.117 -3.72402 0.192666 0
M  V30 8623 N 823.302 -0.75937 -1.38099 0
M  V30 8624 C 824.55 -0.317485 -1.99591 0
M  V30 8625 C 824.871 1.10628 -1.60581 0
M  V30 8626 O 824.141 1.7575 -0.865378 0
M  V30 8627 H 822.721 -0.114397 -0.738189 0
M  V30 8628 H 825.383 -0.974749 -1.68774 0
M  V30 8629 H 824.479 -0.385227 -3.09713 0
M  V30 8630 N 824.78 1.49157 -0.508906 0
M  V30 8631 C 826.191 1.86593 -0.0630975 0
M  V30 8632 C 826.542 1.42051 1.35337 0
M  V30 8633 O 825.667 0.801866 2.00995 0
M  V30 8634 C 826.262 3.38629 -0.107729 0
M  V30 8635 C 824.821 3.75336 0.282776 0
M  V30 8636 C 823.968 2.7317 -0.4768 0
M  V30 8637 H 826.919 1.41362 -0.72128 0
M  V30 8638 H 826.94 3.74271 0.685689 0
M  V30 8639 H 826.452 3.71017 -1.13876 0
M  V30 8640 H 824.553 3.48558 1.31675 0
M  V30 8641 H 824.666 4.79081 -0.0421728 0
M  V30 8642 H 823.03 2.54591 0.0743552 0
M  V30 8643 H 823.813 3.08403 -1.50807 0
M  V30 8644 N 826.258 0.243083 1.55714 0
M  V30 8645 C 827.188 -0.652336 2.24203 0
M  V30 8646 C 828.169 -1.1843 1.221 0
M  V30 8647 O 829.354 -1.22435 1.50743 0
M  V30 8648 C 826.484 -1.85111 2.93856 0
M  V30 8649 C 825.438 -1.45208 4.02615 0
M  V30 8650 C 824.764 -2.73137 4.59674 0
M  V30 8651 C 826.064 -0.625988 5.18535 0
M  V30 8652 H 827.758 -0.0812504 2.9929 0
M  V30 8653 H 825.304 -0.0376388 1.43951 0
M  V30 8654 H 827.257 -2.48314 3.40468 0
M  V30 8655 H 825.981 -2.44751 2.16251 0
M  V30 8656 H 824.64 -0.843406 3.56766 0
M  V30 8657 H 824.288 -3.30967 3.78774 0
M  V30 8658 H 823.988 -2.47163 5.33089 0
M  V30 8659 H 825.512 -3.37245 5.09017 0
M  V30 8660 H 826.926 -1.16223 5.61396 0
M  V30 8661 H 825.323 -0.462465 5.98315 0
M  V30 8662 H 826.393 0.362652 4.83542 0
M  V30 8663 N 827.736 -1.57571 -0.0300757 0
M  V30 8664 C 828.646 -2.09892 -1.04798 0
M  V30 8665 C 829.662 -1.03732 -1.39698 0
M  V30 8666 O 830.838 -1.35461 -1.49038 0
M  V30 8667 C 827.903 -2.56707 -2.33028 0
M  V30 8668 C 826.964 -3.77345 -2.04718 0
M  V30 8669 C 826.197 -4.21918 -3.26834 0
M  V30 8670 O 826.42 -3.66025 -4.37472 0
M  V30 8671 O 825.354 -5.14362 -3.12594 0
M  V30 8672 H 829.18 -2.97023 -0.633344 0
M  V30 8673 H 826.765 -1.47344 -0.246991 0
M  V30 8674 H 828.647 -2.87154 -3.08417 0
M  V30 8675 H 827.322 -1.72688 -2.73789 0
M  V30 8676 H 826.229 -3.51919 -1.26901 0
M  V30 8677 H 827.562 -4.62345 -1.68813 0
M  V30 8678 N 829.214 0.302327 -1.54673 0
M  V30 8679 C 830.124 1.39542 -1.88587 0
M  V30 8680 C 831.14 1.55543 -0.779895 0
M  V30 8681 O 832.316 1.70233 -1.07623 0
M  V30 8682 C 829.381 2.7394 -2.12504 0
M  V30 8683 C 828.442 2.66935 -3.3622 0
M  V30 8684 C 827.675 3.94923 -3.58987 0
M  V30 8685 O 827.898 4.94218 -2.84789 0
M  V30 8686 O 826.832 3.96896 -4.52501 0
M  V30 8687 H 830.658 1.13784 -2.81579 0
M  V30 8688 H 828.243 0.49827 -1.40846 0
M  V30 8689 H 830.125 3.5346 -2.29443 0
M  V30 8690 H 828.8 2.99544 -1.22698 0
M  V30 8691 H 827.707 1.85892 -3.24646 0
M  V30 8692 H 829.04 2.46283 -4.26152 0
M  V30 8693 N 830.692 1.47107 0.565454 0
M  V30 8694 C 831.939 1.53308 1.32299 0
M  V30 8695 C 832.267 0.1919 1.93551 0
M  V30 8696 O 831.522 -0.81435 1.77952 0
M  V30 8697 C 831.821 2.59309 2.45954 0
M  V30 8698 C 831.487 4.02827 2.02586 0
M  V30 8699 C 830.149 4.41897 1.90474 0
M  V30 8700 C 832.501 4.92913 1.6937 0
M  V30 8701 C 829.829 5.68898 1.4343 0
M  V30 8702 C 832.181 6.20368 1.238 0
M  V30 8703 C 830.845 6.58327 1.10278 0
M  V30 8704 H 830.115 0.560993 0.484116 0
M  V30 8705 H 832.762 1.80667 0.634965 0
M  V30 8706 H 831.067 2.25676 3.20277 0
M  V30 8707 H 832.764 2.61332 3.04149 0
M  V30 8708 H 829.354 3.71953 2.12952 0
M  V30 8709 H 833.538 4.63433 1.77605 0
M  V30 8710 H 828.794 5.97065 1.31618 0
M  V30 8711 H 832.968 6.89589 0.971586 0
M  V30 8712 H 830.595 7.56628 0.736027 0
M  V30 8713 N 832.17 -0.811516 1.35101 0
M  V30 8714 C 833.1 -1.9378 1.30275 0
M  V30 8715 C 834.081 -1.69165 0.178075 0
M  V30 8716 O 835.266 -1.90599 0.372256 0
M  V30 8717 C 832.396 -3.30439 1.06899 0
M  V30 8718 C 831.35 -3.69523 2.15955 0
M  V30 8719 C 830.676 -5.0429 1.77751 0
M  V30 8720 C 831.976 -3.80419 3.57881 0
M  V30 8721 H 833.67 -1.98075 2.24514 0
M  V30 8722 H 831.216 -0.951586 1.08078 0
M  V30 8723 H 833.169 -4.08828 1.02164 0
M  V30 8724 H 831.893 -3.26473 0.0910462 0
M  V30 8725 H 830.552 -2.93416 2.19778 0
M  V30 8726 H 830.2 -4.96823 0.785876 0
M  V30 8727 H 829.9 -5.31411 2.5075 0
M  V30 8728 H 831.424 -5.85125 1.74533 0
M  V30 8729 H 832.838 -4.49051 3.56407 0
M  V30 8730 H 831.235 -4.19005 4.29598 0
M  V30 8731 H 832.305 -2.82105 3.94391 0
M  V30 8732 N 833.648 -1.19017 -1.03309 0
M  V30 8733 C 834.595 -0.924088 -2.11493 0
M  V30 8734 C 835.565 0.139464 -1.65513 0
M  V30 8735 O 836.75 -0.00178761 -1.908 0
M  V30 8736 C 833.89 -0.464255 -3.41963 0
M  V30 8737 C 833.003 -1.5941 -4.01513 0
M  V30 8738 C 832.138 -1.08622 -5.19976 0
M  V30 8739 C 831.177 -2.19024 -5.71572 0
M  V30 8740 N 830.314 -1.69575 -6.81314 0
M  V30 8741 H 835.154 -1.85039 -2.33591 0
M  V30 8742 H 832.691 -0.922593 -1.14572 0
M  V30 8743 H 834.649 -0.179078 -4.16815 0
M  V30 8744 H 833.279 0.425062 -3.19989 0
M  V30 8745 H 832.331 -1.99458 -3.23915 0
M  V30 8746 H 833.643 -2.42604 -4.35826 0
M  V30 8747 H 832.797 -0.756022 -6.01971 0
M  V30 8748 H 831.536 -0.223955 -4.87186 0
M  V30 8749 H 830.541 -2.5288 -4.88193 0
M  V30 8750 H 831.766 -3.05699 -6.06403 0
M  V30 8751 H 829.712 -0.856494 -6.50385 0
M  V30 8752 H 829.629 -2.46361 -7.14732 0
M  V30 8753 H 830.897 -1.39505 -7.66915 0
M  V30 8754 N 835.127 1.22348 -0.993418 0
M  V30 8755 C 836.543 1.43222 -0.704238 0
M  V30 8756 C 836.743 1.88009 0.724909 0
M  V30 8757 O 835.799 2.03429 1.49575 0
M  V30 8758 C 837.112 2.47328 -1.71025 0
M  V30 8759 C 838.66 2.61126 -1.72576 0
M  V30 8760 C 839.135 3.68453 -2.72041 0
M  V30 8761 N 840.626 3.75911 -2.70639 0
M  V30 8762 C 841.361 4.58551 -3.44266 0
M  V30 8763 N 840.857 5.45179 -4.27495 0
M  V30 8764 N 842.65 4.52866 -3.32969 0
M  V30 8765 H 834.801 0.915832 -1.91641 0
M  V30 8766 H 837.064 0.464283 -0.826526 0
M  V30 8767 H 836.77 2.21366 -2.73295 0
M  V30 8768 H 836.644 3.45939 -1.50353 0
M  V30 8769 H 839.031 2.86431 -0.710037 0
M  V30 8770 H 839.112 1.62787 -1.97317 0
M  V30 8771 H 838.756 3.43895 -3.73763 0
M  V30 8772 H 838.686 4.66362 -2.4457 0
M  V30 8773 H 841.177 3.14014 -2.10247 0
M  V30 8774 H 841.49 6.0526 -4.80499 0
M  V30 8775 H 839.835 5.44759 -4.31582 0
M  V30 8776 H 843.026 3.84215 -2.67389 0
M  V30 8777 H 843.199 5.17039 -3.90608 0
M  V30 8778 N 836.605 0.766683 1.37694 0
M  V30 8779 C 837.515 0.150158 2.34119 0
M  V30 8780 C 838.531 -0.685513 1.59927 0
M  V30 8781 O 839.707 -0.606616 1.92047 0
M  V30 8782 C 836.772 -0.722562 3.39087 0
M  V30 8783 C 835.833 0.128983 4.29106 0
M  V30 8784 C 835.066 -0.702178 5.29061 0
M  V30 8785 O 835.289 -1.93954 5.36412 0
M  V30 8786 O 834.223 -0.114056 6.01792 0
M  V30 8787 H 838.049 0.946829 2.88563 0
M  V30 8788 H 835.634 0.527765 1.39768 0
M  V30 8789 H 837.516 -1.22095 4.03325 0
M  V30 8790 H 836.191 -1.49751 2.86978 0
M  V30 8791 H 835.098 0.673612 3.67985 0
M  V30 8792 H 836.431 0.866892 4.84506 0
M  V30 8793 N 838.083 -1.48885 0.516809 0
M  V30 8794 C 839.33 -2.02488 -0.0220602 0
M  V30 8795 C 839.658 -1.39513 -1.35523 0
M  V30 8796 O 838.913 -0.52558 -1.8851 0
M  V30 8797 C 839.212 -3.56801 -0.206798 0
M  V30 8798 C 838.878 -4.38496 1.05035 0
M  V30 8799 C 837.54 -4.60538 1.39492 0
M  V30 8800 C 839.892 -4.85909 1.88525 0
M  V30 8801 C 837.22 -5.2724 2.57361 0
M  V30 8802 C 839.572 -5.53909 3.05561 0
M  V30 8803 C 838.236 -5.74193 3.4038 0
M  V30 8804 H 837.506 -0.740956 -0.00807238 0
M  V30 8805 H 840.153 -1.79014 0.680168 0
M  V30 8806 H 838.458 -3.79042 -0.991687 0
M  V30 8807 H 840.155 -3.95885 -0.638447 0
M  V30 8808 H 836.745 -4.2159 0.771984 0
M  V30 8809 H 840.929 -4.68694 1.63218 0
M  V30 8810 H 836.185 -5.41145 2.84556 0
M  V30 8811 H 840.359 -5.89619 3.7057 0
M  V30 8812 H 837.986 -6.25652 4.31814 0
M  V30 8813 N 839.561 -0.251338 -1.55583 0
M  V30 8814 C 840.809 0.371434 -1.98657 0
M  V30 8815 C 841.13 1.58143 -1.14087 0
M  V30 8816 O 840.4 1.94607 -0.224708 0
M  V30 8817 H 838.98 0.140225 -0.733721 0
M  V30 8818 H 841.642 -0.351157 -1.9171 0
M  V30 8819 H 840.738 0.677554 -3.04657 0
M  V30 8820 N 841.039 1.57585 0.0217189 0
M  V30 8821 C 841.949 2.10444 1.03684 0
M  V30 8822 C 842.965 1.04472 1.39146 0
M  V30 8823 O 844.141 1.36249 1.48317 0
M  V30 8824 C 841.206 2.5794 2.31664 0
M  V30 8825 C 840.267 3.78425 2.02714 0
M  V30 8826 C 839.5 4.23646 3.24592 0
M  V30 8827 O 839.723 3.6834 4.35525 0
M  V30 8828 O 838.657 5.16013 3.09862 0
M  V30 8829 H 842.483 2.97354 0.617584 0
M  V30 8830 H 840.068 1.47473 0.239174 0
M  V30 8831 H 841.95 2.88785 3.06889 0
M  V30 8832 H 840.625 1.74138 2.7287 0
M  V30 8833 H 839.532 3.52587 1.25033 0
M  V30 8834 H 840.865 4.63234 1.66359 0
M  V30 8835 N 842.517 -0.29412 1.54831 0
M  V30 8836 C 843.467 -1.36476 1.82643 0
M  V30 8837 C 844.451 -1.45638 0.683984 0
M  V30 8838 O 845.643 -1.49675 0.944801 0
M  V30 8839 C 842.772 -2.72865 2.08326 0
M  V30 8840 C 841.858 -2.67898 3.28773 0
M  V30 8841 N 842.249 -2.32547 4.49172 0
M  V30 8842 C 840.547 -2.98991 3.30939 0
M  V30 8843 C 841.248 -2.37048 5.31209 0
M  V30 8844 N 840.224 -2.74679 4.69097 0
M  V30 8845 H 844.026 -1.08119 2.7329 0
M  V30 8846 H 841.54 -0.502718 1.54423 0
M  V30 8847 H 843.537 -3.5007 2.264 0
M  V30 8848 H 842.197 -3.02127 1.1895 0
M  V30 8849 H 843.208 -2.04883 4.7565 0
M  V30 8850 H 839.885 -3.33104 2.51691 0
M  V30 8851 H 841.275 -2.12457 6.37426 0
M  V30 8852 N 843.995 -1.47404 -0.557645 0
M  V30 8853 C 845.223 -1.57622 -1.34026 0
M  V30 8854 C 845.638 -0.226256 -1.87439 0
M  V30 8855 O 844.995 0.78043 -1.64971 0
M  V30 8856 C 845.046 -2.60111 -2.51047 0
M  V30 8857 O 844.767 -3.89866 -1.99841 0
M  V30 8858 C 846.268 -2.80508 -3.43264 0
M  V30 8859 H 843.488 -0.532271 -0.40857 0
M  V30 8860 H 846.032 -1.93019 -0.675555 0
M  V30 8861 H 844.187 -2.27648 -3.13457 0
M  V30 8862 H 844.601 -4.45864 -2.76234 0
M  V30 8863 H 846.075 -3.56084 -4.21792 0
M  V30 8864 H 846.552 -1.88314 -3.9678 0
M  V30 8865 H 847.158 -3.14166 -2.86671 0
M  V30 8866 N 845.473 0.80434 -1.35529 0
M  V30 8867 C 846.42 1.91629 -1.28635 0
M  V30 8868 C 847.39 1.65348 -0.157862 0
M  V30 8869 O 848.575 1.87711 -0.341934 0
M  V30 8870 C 845.715 3.28207 -1.0665 0
M  V30 8871 C 844.828 3.66659 -2.28441 0
M  V30 8872 C 843.963 4.92279 -1.99588 0
M  V30 8873 C 843.002 5.23365 -3.1742 0
M  V30 8874 N 842.139 6.40165 -2.88328 0
M  V30 8875 H 846.979 1.96858 -2.23721 0
M  V30 8876 H 844.516 0.962871 -1.11208 0
M  V30 8877 H 846.474 4.06945 -0.919343 0
M  V30 8878 H 845.104 3.22441 -0.152253 0
M  V30 8879 H 844.156 2.83164 -2.54013 0
M  V30 8880 H 845.468 3.8559 -3.1642 0
M  V30 8881 H 844.622 5.78847 -1.81715 0
M  V30 8882 H 843.361 4.75387 -1.08896 0
M  V30 8883 H 842.366 4.35285 -3.35867 0
M  V30 8884 H 843.591 5.42185 -4.08916 0
M  V30 8885 H 841.537 6.24694 -2.00233 0
M  V30 8886 H 841.454 6.59357 -3.69843 0
M  V30 8887 H 842.722 7.29755 -2.74002 0
M  V30 8888 N 846.951 1.19563 1.02676 0
M  V30 8889 C 847.884 0.878638 2.10607 0
M  V30 8890 C 848.862 -0.165176 1.61759 0
M  V30 8891 O 850.046 -0.041014 1.88455 0
M  V30 8892 C 847.173 0.315347 3.37229 0
M  V30 8893 C 846.219 1.33855 4.04951 0
M  V30 8894 S 847.052 2.89982 4.50189 0
M  V30 8895 C 848.208 2.35202 5.80027 0
M  V30 8896 H 848.441 1.79268 2.37171 0
M  V30 8897 H 845.974 1.023 1.15646 0
M  V30 8898 H 847.932 -0.00311911 4.105 0
M  V30 8899 H 846.593 -0.577035 3.08754 0
M  V30 8900 H 845.786 0.893581 4.96015 0
M  V30 8901 H 845.388 1.60397 3.37859 0
M  V30 8902 H 847.68 1.74329 6.54687 0
M  V30 8903 H 848.623 3.24622 6.29306 0
M  V30 8904 H 849.031 1.77702 5.35801 0
M  V30 8905 N 848.429 -1.21819 0.999893 0
M  V30 8906 C 849.657 -1.94758 0.698359 0
M  V30 8907 C 850.072 -1.73771 -0.738183 0
M  V30 8908 O 849.429 -1.04113 -1.49889 0
M  V30 8909 C 849.48 -3.47292 1.00353 0
M  V30 8910 O 849.201 -3.67579 2.38363 0
M  V30 8911 C 850.702 -4.37403 0.72068 0
M  V30 8912 H 847.922 -0.619512 0.257771 0
M  V30 8913 H 850.466 -1.54778 1.33656 0
M  V30 8914 H 848.621 -3.85213 0.411018 0
M  V30 8915 H 849.035 -4.61719 2.48829 0
M  V30 8916 H 850.509 -5.43151 0.984422 0
M  V30 8917 H 850.986 -4.3784 -0.345309 0
M  V30 8918 H 851.592 -4.05119 1.29456 0
M  V30 8919 N 849.908 -0.773975 -1.37286 0
M  V30 8920 C 851.185 -0.263942 -1.93811 0
M  V30 8921 C 851.565 1.24138 -1.70743 0
M  V30 8922 O 850.913 2.02557 -1.05749 0
M  V30 8923 C 851.123 -0.639753 -3.43086 0
M  V30 8924 C 852.471 -0.610796 -4.20184 0
M  V30 8925 O 853.495 -0.579278 -3.51458 0
M  V30 8926 O 852.354 -0.639862 -5.42741 0
M  V30 8927 H 849.448 -0.0614331 -0.824715 0
M  V30 8928 H 851.994 -0.855477 -1.46559 0
M  V30 8929 H 850.766 -1.67856 -3.53469 0
M  V30 8930 H 850.389 -0.0212827 -3.97594 0
M  V30 8931 N 851.386 1.48609 -0.524698 0
M  V30 8932 C 852.632 2.02797 0.0113382 0
M  V30 8933 C 852.965 1.40147 1.34433 0
M  V30 8934 O 852.24 0.545368 1.86698 0
M  V30 8935 C 852.523 3.59832 0.138931 0
M  V30 8936 C 852.376 4.32971 -1.21886 0
M  V30 8937 C 853.695 4.3145 0.868265 0
M  V30 8938 H 850.814 0.736995 0.00264645 0
M  V30 8939 H 853.456 1.77388 -0.680704 0
M  V30 8940 H 851.606 3.81612 0.72834 0
M  V30 8941 H 853.278 4.22624 -1.84897 0
M  V30 8942 H 851.521 3.94597 -1.80211 0
M  V30 8943 H 852.192 5.41279 -1.08263 0
M  V30 8944 H 854.668 4.14468 0.368145 0
M  V30 8945 H 853.544 5.41025 0.926428 0
M  V30 8946 H 853.805 3.98358 1.91737 0
M  V30 8947 N 852.864 0.259585 1.55447 0
M  V30 8948 C 854.28 -0.094961 1.59317 0
M  V30 8949 C 854.48 -1.55884 1.2768 0
M  V30 8950 O 853.536 -2.30528 1.0302 0
M  V30 8951 C 854.849 0.265669 2.99524 0
M  V30 8952 C 856.397 0.211007 3.12288 0
M  V30 8953 C 856.872 0.545851 4.54736 0
M  V30 8954 N 858.363 0.496823 4.60528 0
M  V30 8955 C 859.098 0.728909 5.68748 0
M  V30 8956 N 858.594 1.02479 6.85179 0
M  V30 8957 N 860.387 0.658756 5.58226 0
M  V30 8958 H 852.538 1.2141 1.7428 0
M  V30 8959 H 854.801 0.489404 0.811904 0
M  V30 8960 H 854.507 1.28316 3.27457 0
M  V30 8961 H 854.381 -0.401089 3.75061 0
M  V30 8962 H 856.768 -0.797172 2.84129 0
M  V30 8963 H 856.849 0.911799 2.38998 0
M  V30 8964 H 856.493 1.55164 4.83618 0
M  V30 8965 H 856.423 -0.17656 5.26304 0
M  V30 8966 H 858.914 0.277376 3.76881 0
M  V30 8967 H 859.227 1.18897 7.63599 0
M  V30 8968 H 857.572 1.0624 6.86832 0
M  V30 8969 H 860.763 0.427553 4.66143 0
M  V30 8970 H 860.936 0.84302 6.42493 0
M  V30 8971 N 854.342 -1.57594 -0.0133615 0
M  V30 8972 C 855.289 -2.07574 -1.00905 0
M  V30 8973 C 856.259 -0.968231 -1.34961 0
M  V30 8974 O 857.444 -1.23981 -1.45028 0
M  V30 8975 C 854.584 -2.5728 -2.30002 0
M  V30 8976 C 853.697 -3.81881 -2.01967 0
M  V30 8977 C 852.832 -4.20139 -3.25049 0
M  V30 8978 C 851.871 -5.37614 -2.92639 0
M  V30 8979 N 851.008 -5.71229 -4.08218 0
M  V30 8980 H 855.848 -2.92382 -0.575899 0
M  V30 8981 H 853.385 -1.4455 -0.272722 0
M  V30 8982 H 855.343 -2.84171 -3.05454 0
M  V30 8983 H 853.973 -1.75365 -2.71011 0
M  V30 8984 H 853.025 -3.61979 -1.16942 0
M  V30 8985 H 854.337 -4.67441 -1.74069 0
M  V30 8986 H 853.491 -4.48242 -4.08857 0
M  V30 8987 H 852.23 -3.33262 -3.56073 0
M  V30 8988 H 851.235 -5.09248 -2.07235 0
M  V30 8989 H 852.46 -6.26157 -2.62876 0
M  V30 8990 H 850.406 -4.8731 -4.39164 0
M  V30 8991 H 850.323 -6.51333 -3.83799 0
M  V30 8992 H 851.591 -6.03917 -4.92854 0
M  V30 8993 N 855.82 0.285905 -1.54985 0
M  V30 8994 C 857.231 0.857869 -1.65824 0
M  V30 8995 C 857.582 1.87531 -0.576763 0
M  V30 8996 O 856.707 2.14528 0.284016 0
M  V30 8997 C 857.302 1.56277 -3.00604 0
M  V30 8998 C 855.861 2.08294 -3.13513 0
M  V30 8999 C 855.008 0.920633 -2.61571 0
M  V30 9000 H 857.959 0.0625463 -1.58577 0
M  V30 9001 H 857.98 2.42912 -2.92872 0
M  V30 9002 H 857.492 0.822017 -3.79295 0
M  V30 9003 H 855.593 2.8537 -2.39572 0
M  V30 9004 H 855.706 2.3071 -4.19892 0
M  V30 9005 H 854.07 1.31043 -2.18403 0
M  V30 9006 H 854.853 0.193594 -3.42754 0
M  V30 9007 N 857.298 1.47698 0.54982 0
M  V30 9008 C 858.245 1.60739 1.65625 0
M  V30 9009 C 859.215 0.450129 1.59884 0
M  V30 9010 O 860.4 0.671123 1.78607 0
M  V30 9011 C 857.54 1.63457 3.03934 0
M  V30 9012 C 856.653 2.90152 3.20056 0
M  V30 9013 C 855.788 2.84157 4.48807 0
M  V30 9014 C 854.827 4.05644 4.58387 0
M  V30 9015 N 853.964 3.97843 5.78503 0
M  V30 9016 H 858.804 2.55234 1.53817 0
M  V30 9017 H 856.341 1.26593 0.749173 0
M  V30 9018 H 858.299 1.63015 3.84034 0
M  V30 9019 H 856.929 0.724689 3.1456 0
M  V30 9020 H 855.981 3.00428 2.33339 0
M  V30 9021 H 857.293 3.80097 3.22998 0
M  V30 9022 H 856.447 2.82006 5.37175 0
M  V30 9023 H 855.186 1.91908 4.48356 0
M  V30 9024 H 854.191 4.08092 3.6843 0
M  V30 9025 H 855.416 4.9903 4.60593 0
M  V30 9026 H 853.362 3.08401 5.78986 0
M  V30 9027 H 853.279 4.81473 5.82855 0
M  V30 9028 H 854.547 3.99719 6.69212 0
M  V30 9029 N 858.776 -0.797141 1.35954 0
M  V30 9030 C 860.022 -1.55698 1.29946 0
M  V30 9031 C 860.355 -1.93808 -0.123259 0
M  V30 9032 O 859.63 -1.62102 -1.07486 0
M  V30 9033 C 859.913 -2.83926 2.2149 0
M  V30 9034 C 859.766 -2.52232 3.72423 0
M  V30 9035 C 861.085 -3.85698 2.11955 0
M  V30 9036 H 858.204 -0.56488 0.47337 0
M  V30 9037 H 860.846 -0.916421 1.66438 0
M  V30 9038 H 858.996 -3.38588 1.905 0
M  V30 9039 H 860.668 -2.0368 4.13899 0
M  V30 9040 H 858.911 -1.85286 3.92239 0
M  V30 9041 H 859.582 -3.43782 4.31877 0
M  V30 9042 H 862.058 -3.40462 2.39218 0
M  V30 9043 H 860.934 -4.73182 2.78191 0
M  V30 9044 H 861.195 -4.28083 1.10442 0
M  V30 9045 N 860.254 -1.20106 -1.0204 0
M  V30 9046 C 861.187 -0.889795 -2.10138 0
M  V30 9047 C 862.165 0.156595 -1.61844 0
M  V30 9048 O 863.349 0.0310192 -1.88474 0
M  V30 9049 C 860.476 -0.333227 -3.37057 0
M  V30 9050 C 859.522 -1.36001 -4.04235 0
M  V30 9051 S 860.355 -2.92366 -4.48645 0
M  V30 9052 C 861.511 -2.38274 -5.78771 0
M  V30 9053 H 861.744 -1.80523 -2.36217 0
M  V30 9054 H 859.277 -1.02912 -1.15102 0
M  V30 9055 H 861.235 -0.0186507 -4.10496 0
M  V30 9056 H 859.896 0.560652 -3.09056 0
M  V30 9057 H 859.089 -0.919874 -4.95534 0
M  V30 9058 H 858.691 -1.62186 -3.37004 0
M  V30 9059 H 860.983 -1.77799 -6.53754 0
M  V30 9060 H 861.926 -3.27955 -6.27576 0
M  V30 9061 H 862.334 -1.8054 -5.34851 0
M  V30 9062 N 861.732 1.21287 -1.00634 0
M  V30 9063 C 862.662 2.25973 -0.588089 0
M  V30 9064 C 863.643 1.65527 0.391764 0
M  V30 9065 O 864.828 1.92179 0.279452 0
M  V30 9066 C 861.958 3.47197 0.0847336 0
M  V30 9067 C 860.912 4.20168 -0.815039 0
M  V30 9068 C 860.238 5.34699 -0.00855393 0
M  V30 9069 C 861.538 4.77416 -2.11828 0
M  V30 9070 H 863.232 2.61212 -1.46317 0
M  V30 9071 H 860.778 1.25563 -0.704985 0
M  V30 9072 H 862.731 4.19602 0.388821 0
M  V30 9073 H 861.455 3.11092 0.994456 0
M  V30 9074 H 860.114 3.49614 -1.10297 0
M  V30 9075 H 859.762 4.94837 0.902499 0
M  V30 9076 H 859.462 5.84449 -0.607664 0
M  V30 9077 H 860.986 6.09914 0.289317 0
M  V30 9078 H 862.4 5.41694 -1.87725 0
M  V30 9079 H 860.797 5.37561 -2.66736 0
M  V30 9080 H 861.867 3.96724 -2.78816 0
M  V30 9081 N 863.21 0.781244 1.36873 0
M  V30 9082 C 864.438 0.361566 2.03716 0
M  V30 9083 C 864.853 -1.01937 1.58916 0
M  V30 9084 O 864.21 -1.65237 0.774783 0
M  V30 9085 C 864.261 0.406391 3.59208 0
M  V30 9086 O 863.982 1.73286 4.02372 0
M  V30 9087 C 865.483 -0.0236894 4.43294 0
M  V30 9088 H 862.703 0.150133 0.653988 0
M  V30 9089 H 865.247 1.05781 1.75016 0
M  V30 9090 H 863.402 -0.241364 3.86647 0
M  V30 9091 H 863.816 1.67804 4.96933 0
M  V30 9092 H 865.29 0.0588205 5.51969 0
M  V30 9093 H 865.767 -1.07529 4.25833 0
M  V30 9094 H 866.373 0.59624 4.211 0
M  V30 9095 N 864.689 -1.48329 0.532571 0
M  V30 9096 C 865.937 -2.021 -0.000581206 0
M  V30 9097 C 866.258 -1.4117 -1.34522 0
M  V30 9098 O 865.528 -0.578005 -1.87179 0
M  V30 9099 H 864.108 -0.746993 -0.00320281 0
M  V30 9100 H 866.77 -1.82011 0.696991 0
M  V30 9101 H 865.866 -3.11917 -0.106991 0
M  V30 9102 N 866.167 -0.267825 -1.55308 0
M  V30 9103 C 867.395 0.354587 -2.03839 0
M  V30 9104 C 867.81 1.50007 -1.14644 0
M  V30 9105 O 867.167 1.81752 -0.165055 0
M  V30 9106 C 867.218 0.84254 -3.51544 0
M  V30 9107 O 866.939 -0.257318 -4.37344 0
M  V30 9108 C 868.44 1.53351 -4.15931 0
M  V30 9109 H 865.66 0.0818131 -0.665994 0
M  V30 9110 H 868.204 -0.397795 -2.00594 0
M  V30 9111 H 866.359 1.54503 -3.55257 0
M  V30 9112 H 866.773 0.116593 -5.2437 0
M  V30 9113 H 868.247 1.82643 -5.20908 0
M  V30 9114 H 868.724 2.4626 -3.63666 0
M  V30 9115 H 869.33 0.87506 -4.162 0
M  V30 9116 N 867.645 1.57599 0.00500368 0
M  V30 9117 C 868.575 2.11143 0.99705 0
M  V30 9118 C 869.556 1.0194 1.3617 0
M  V30 9119 O 870.741 1.29596 1.44632 0
M  V30 9120 C 867.871 2.61062 2.2905 0
M  V30 9121 C 866.825 3.74745 2.0676 0
M  V30 9122 C 866.151 4.10961 3.42075 0
M  V30 9123 C 867.451 5.02222 1.43424 0
M  V30 9124 H 869.145 2.94281 0.551251 0
M  V30 9125 H 866.691 1.41565 0.263715 0
M  V30 9126 H 868.644 2.97146 2.98801 0
M  V30 9127 H 867.368 1.75038 2.75734 0
M  V30 9128 H 866.027 3.39047 1.39436 0
M  V30 9129 H 865.675 3.21968 3.86453 0
M  V30 9130 H 865.375 4.87549 3.27979 0
M  V30 9131 H 866.899 4.49599 4.1315 0
M  V30 9132 H 868.313 5.36109 2.03125 0
M  V30 9133 H 866.71 5.83581 1.39831 0
M  V30 9134 H 867.78 4.83224 0.40285 0
M  V30 9135 N 869.123 -0.277682 1.55134 0
M  V30 9136 C 870.348 -1.03254 1.7987 0
M  V30 9137 C 870.773 -1.79324 0.567861 0
M  V30 9138 O 870.131 -1.74764 -0.4824 0
M  V30 9139 C 870.179 -1.9705 3.02 0
M  V30 9140 O 869.283 -3.05744 2.76757 0
M  V30 9141 H 868.624 -0.295447 0.594649 0
M  V30 9142 H 871.154 -0.308013 2.02268 0
M  V30 9143 H 871.164 -2.3909 3.30606 0
M  V30 9144 H 869.839 -1.41094 3.91236 0
M  V30 9145 H 868.416 -2.68052 2.59235 0
M  V30 9146 N 870.601 -1.47988 -0.541979 0
M  V30 9147 C 871.878 -1.45878 -1.30303 0
M  V30 9148 C 872.258 -0.163931 -2.10463 0
M  V30 9149 O 871.606 0.854479 -2.11922 0
M  V30 9150 C 871.816 -2.71359 -2.19466 0
M  V30 9151 C 873.164 -3.19199 -2.79995 0
M  V30 9152 O 874.188 -2.72193 -2.2976 0
M  V30 9153 O 873.047 -4.00961 -3.71339 0
M  V30 9154 H 870.141 -0.582043 -0.587498 0
M  V30 9155 H 872.687 -1.60207 -0.559623 0
M  V30 9156 H 871.459 -3.57122 -1.59936 0
M  V30 9157 H 871.082 -2.59692 -3.01075 0
M  V30 9158 N 872.079 0.78992 -1.36375 0
M  V30 9159 C 873.495 1.0879 -1.16777 0
M  V30 9160 C 873.695 2.01498 0.00848236 0
M  V30 9161 O 872.751 2.43338 0.674007 0
M  V30 9162 C 874.064 1.70285 -2.47837 0
M  V30 9163 C 875.612 1.82629 -2.54196 0
M  V30 9164 C 876.087 2.47539 -3.85342 0
M  V30 9165 N 877.578 2.55008 -3.86685 0
M  V30 9166 C 878.313 3.06041 -4.84898 0
M  V30 9167 N 877.809 3.57385 -5.93505 0
M  V30 9168 N 879.602 3.04748 -4.72319 0
M  V30 9169 H 871.753 0.173985 -2.11686 0
M  V30 9170 H 874.016 0.139798 -0.937636 0
M  V30 9171 H 873.722 1.09633 -3.34176 0
M  V30 9172 H 873.596 2.69799 -2.63607 0
M  V30 9173 H 875.983 2.42419 -1.68276 0
M  V30 9174 H 876.064 0.81923 -2.42327 0
M  V30 9175 H 875.708 1.88393 -4.71668 0
M  V30 9176 H 875.638 3.48815 -3.94507 0
M  V30 9177 H 878.129 2.18651 -3.08221 0
M  V30 9178 H 878.442 3.94674 -6.64419 0
M  V30 9179 H 876.787 3.55538 -5.97175 0
M  V30 9180 H 879.978 2.63925 -3.86602 0
M  V30 9181 H 880.151 3.44212 -5.49019 0
M  V30 9182 N 873.557 1.20646 1.01402 0
M  V30 9183 C 874.489 0.915392 2.10127 0
M  V30 9184 C 875.502 -0.0978705 1.62506 0
M  V30 9185 O 876.691 0.133477 1.78 0
M  V30 9186 C 873.791 0.351304 3.37074 0
M  V30 9187 C 872.964 1.41673 4.13821 0
M  V30 9188 C 872.023 0.8635 5.19067 0
M  V30 9189 O 871.049 1.54481 5.47836 0
M  V30 9190 N 872.251 -0.325799 5.79585 0
M  V30 9191 H 875.016 1.85132 2.35682 0
M  V30 9192 H 872.577 1.11048 1.17813 0
M  V30 9193 H 874.569 -0.032996 4.04687 0
M  V30 9194 H 873.139 -0.489242 3.08748 0
M  V30 9195 H 872.359 1.97526 3.41141 0
M  V30 9196 H 873.647 2.1342 4.61876 0
M  V30 9197 H 873.045 -0.896534 5.58551 0
M  V30 9198 H 871.602 -0.651708 6.48534 0
M  V30 9199 N 875.035 -1.20752 1.01276 0
M  V30 9200 C 876.446 -1.7175 0.732033 0
M  V30 9201 C 876.797 -1.8131 -0.749733 0
M  V30 9202 O 875.922 -1.47301 -1.58529 0
M  V30 9203 C 876.517 -3.11936 1.32217 0
M  V30 9204 C 875.076 -3.6026 1.09039 0
M  V30 9205 C 874.223 -2.37571 1.43022 0
M  V30 9206 H 877.174 -1.0582 1.1827 0
M  V30 9207 H 877.195 -3.73802 0.710771 0
M  V30 9208 H 876.707 -3.04946 2.40061 0
M  V30 9209 H 874.808 -3.72588 0.0294464 0
M  V30 9210 H 874.921 -4.45295 1.76775 0
M  V30 9211 H 873.285 -2.40128 0.849159 0
M  V30 9212 H 874.068 -2.33225 2.51915 0
M  V30 9213 N 876.513 -0.788492 -1.36457 0
M  V30 9214 C 877.476 -0.192209 -2.28393 0
M  V30 9215 C 878.476 0.609916 -1.48784 0
M  V30 9216 O 879.666 0.431046 -1.68783 0
M  V30 9217 C 876.798 0.734096 -3.32902 0
M  V30 9218 H 877.991 -1.00284 -2.82636 0
M  V30 9219 H 875.544 -0.557852 -1.46006 0
M  V30 9220 H 876.279 1.5691 -2.83813 0
M  V30 9221 H 876.064 0.160875 -3.9177 0
M  V30 9222 H 877.554 1.1462 -4.01562 0
M  V30 9223 N 877.991 1.48044 -0.54043 0
M  V30 9224 C 878.901 2.33565 0.220163 0
M  V30 9225 C 879.917 1.47146 0.928659 0
M  V30 9226 O 881.093 1.80107 0.901295 0
M  V30 9227 C 878.158 3.2349 1.2472 0
M  V30 9228 C 877.219 4.25789 0.547938 0
M  V30 9229 C 876.452 5.11417 1.52605 0
M  V30 9230 O 876.675 4.99204 2.75956 0
M  V30 9231 O 875.609 5.92498 1.05972 0
M  V30 9232 H 879.435 2.99868 -0.480898 0
M  V30 9233 H 877.02 1.46332 -0.301226 0
M  V30 9234 H 878.902 3.79084 1.84047 0
M  V30 9235 H 877.577 2.59835 1.93048 0
M  V30 9236 H 876.484 3.74001 -0.0860941 0
M  V30 9237 H 877.817 4.92111 -0.0935896 0
M  V30 9238 N 879.47 0.276058 1.55163 0
M  V30 9239 C 880.4 -0.604633 2.25536 0
M  V30 9240 C 881.381 -1.15813 1.24585 0
M  V30 9241 O 882.566 -1.1921 1.53306 0
M  V30 9242 C 879.696 -1.78836 2.97716 0
M  V30 9243 C 878.65 -1.36635 4.05604 0
M  V30 9244 C 877.976 -2.63325 4.65364 0
M  V30 9245 C 879.276 -0.515858 5.19746 0
M  V30 9246 H 880.97 -0.0177483 2.99395 0
M  V30 9247 H 878.516 -0.00709627 1.43998 0
M  V30 9248 H 880.469 -2.41036 3.45658 0
M  V30 9249 H 879.193 -2.40109 2.21394 0
M  V30 9250 H 877.852 -0.767541 3.58475 0
M  V30 9251 H 877.5 -3.22858 3.85709 0
M  V30 9252 H 877.2 -2.358 5.38212 0
M  V30 9253 H 878.724 -3.26372 5.16056 0
M  V30 9254 H 880.138 -1.04289 5.63735 0
M  V30 9255 H 878.535 -0.335449 5.99162 0
M  V30 9256 H 879.605 0.465137 4.82664 0
M  V30 9257 N 880.948 -1.576 0.00335426 0
M  V30 9258 C 881.898 -2.05116 -0.995562 0
M  V30 9259 C 882.882 -0.946535 -1.30113 0
M  V30 9260 O 884.074 -1.21028 -1.29156 0
M  V30 9261 C 881.203 -2.56077 -2.28648 0
M  V30 9262 C 880.289 -3.73422 -2.0104 0
M  V30 9263 N 880.68 -4.84986 -1.43603 0
M  V30 9264 C 878.978 -3.81416 -2.31166 0
M  V30 9265 C 879.679 -5.66399 -1.32542 0
M  V30 9266 N 878.655 -5.12505 -1.81218 0
M  V30 9267 H 882.457 -2.88783 -0.546025 0
M  V30 9268 H 879.971 -1.61135 -0.202265 0
M  V30 9269 H 881.968 -2.88395 -3.01055 0
M  V30 9270 H 880.628 -1.73829 -2.74251 0
M  V30 9271 H 881.639 -5.05768 -1.11439 0
M  V30 9272 H 878.316 -3.1003 -2.7962 0
M  V30 9273 H 879.706 -6.66066 -0.88348 0
M  V30 9274 N 882.426 0.269451 -1.5528 0
M  V30 9275 C 883.356 1.33729 -1.91413 0
M  V30 9276 C 884.337 1.51348 -0.776391 0
M  V30 9277 O 885.522 1.64332 -1.03482 0
M  V30 9278 C 882.652 2.69618 -2.18914 0
M  V30 9279 C 881.606 2.66725 -3.34726 0
M  V30 9280 C 880.932 4.06199 -3.47716 0
M  V30 9281 C 882.232 2.25684 -4.71025 0
M  V30 9282 H 883.926 1.03736 -2.80854 0
M  V30 9283 H 881.472 0.497579 -1.3513 0
M  V30 9284 H 883.425 3.44436 -2.42779 0
M  V30 9285 H 882.149 3.01201 -1.26275 0
M  V30 9286 H 880.808 1.94365 -3.10834 0
M  V30 9287 H 880.456 4.3501 -2.52537 0
M  V30 9288 H 880.156 4.05157 -4.25583 0
M  V30 9289 H 881.68 4.8275 -3.73877 0
M  V30 9290 H 883.094 2.90225 -4.94411 0
M  V30 9291 H 881.491 2.35797 -5.51833 0
M  V30 9292 H 882.561 1.20819 -4.69607 0
M  V30 9293 N 883.904 1.48273 0.534124 0
M  V30 9294 C 885.151 1.56079 1.29017 0
M  V30 9295 C 885.479 0.232912 1.931 0
M  V30 9296 O 884.734 -0.77642 1.79639 0
M  V30 9297 C 885.033 2.64468 2.40398 0
M  V30 9298 C 884.699 4.07034 1.93995 0
M  V30 9299 C 883.361 4.45838 1.81058 0
M  V30 9300 C 885.713 4.96395 1.58877 0
M  V30 9301 C 883.041 5.71812 1.31331 0
M  V30 9302 C 885.393 6.22854 1.10614 0
M  V30 9303 C 884.057 6.60518 0.962895 0
M  V30 9304 H 883.327 0.571135 0.472108 0
M  V30 9305 H 885.974 1.81973 0.5965 0
M  V30 9306 H 884.279 2.32419 3.15418 0
M  V30 9307 H 885.976 2.67725 2.98537 0
M  V30 9308 H 882.566 3.76387 2.05015 0
M  V30 9309 H 886.75 4.67096 1.67734 0
M  V30 9310 H 882.006 5.99722 1.18924 0
M  V30 9311 H 886.18 6.91495 0.825095 0
M  V30 9312 H 883.807 7.58019 0.575369 0
M  V30 9313 N 885.382 -0.782676 1.36792 0
M  V30 9314 C 886.798 -1.08169 1.17352 0
M  V30 9315 C 886.998 -2.015 0.0022037 0
M  V30 9316 O 886.054 -2.43692 -0.661093 0
M  V30 9317 C 887.367 -1.68969 2.48737 0
M  V30 9318 C 888.915 -1.81278 2.55161 0
M  V30 9319 C 889.39 -2.45492 3.86649 0
M  V30 9320 N 890.881 -2.52954 3.88032 0
M  V30 9321 C 891.616 -3.03465 4.86515 0
M  V30 9322 N 891.112 -3.54232 5.95392 0
M  V30 9323 N 892.905 -3.02239 4.73928 0
M  V30 9324 H 885.056 -0.162757 2.11775 0
M  V30 9325 H 887.319 -0.134823 0.938364 0
M  V30 9326 H 887.025 -1.07859 3.34753 0
M  V30 9327 H 886.899 -2.68397 2.65034 0
M  V30 9328 H 889.286 -2.41524 1.69559 0
M  V30 9329 H 889.367 -0.806367 2.42758 0
M  V30 9330 H 889.011 -1.85889 4.7266 0
M  V30 9331 H 888.941 -3.46718 3.96351 0
M  V30 9332 H 891.432 -2.17014 3.09376 0
M  V30 9333 H 891.745 -3.91145 6.66503 0
M  V30 9334 H 890.09 -3.52366 5.99052 0
M  V30 9335 H 893.281 -2.61871 3.87996 0
M  V30 9336 H 893.454 -3.41295 5.50837 0
M  V30 9337 N 886.86 -1.21182 -1.00761 0
M  V30 9338 C 887.808 -0.965728 -2.11604 0
M  V30 9339 C 888.802 0.0861028 -1.69181 0
M  V30 9340 O 890.008 -0.0650558 -1.79882 0
M  V30 9341 H 886.383 -0.295023 -0.691712 0
M  V30 9342 H 888.354 -1.90667 -2.2954 0
M  V30 9343 C 887.103 -0.544164 -3.43415 0
M  V30 9344 H 886.426 -1.34515 -3.76491 0
M  V30 9345 H 887.866 -0.411268 -4.22001 0
M  V30 9346 C 886.325 0.744583 -3.28569 0
M  V30 9347 O 886.855 1.80078 -3.59075 0
M  V30 9348 N 885.061 0.710083 -2.81791 0
M  V30 9349 H 884.608 -0.14971 -2.57165 0
M  V30 9350 H 884.566 1.57268 -2.72239 0
M  V30 9351 N 888.338 1.20213 -1.01915 0
M  V30 9352 C 889.568 1.93341 -0.728197 0
M  V30 9353 C 889.976 1.75151 0.715454 0
M  V30 9354 O 889.319 1.06437 1.49722 0
M  V30 9355 C 889.381 3.45677 -0.9873 0
M  V30 9356 C 889.045 3.8763 -2.42057 0
M  V30 9357 C 890.042 3.93184 -3.40151 0
M  V30 9358 C 887.727 4.19547 -2.76199 0
M  V30 9359 C 889.721 4.30069 -4.70446 0
M  V30 9360 C 887.408 4.56106 -4.06707 0
M  V30 9361 C 888.406 4.6134 -5.03641 0
M  V30 9362 O 888.094 4.97059 -6.31813 0
M  V30 9363 H 887.826 0.621258 -0.266485 0
M  V30 9364 H 890.38 1.53577 -1.36393 0
M  V30 9365 H 888.61 3.85578 -0.294405 0
M  V30 9366 H 890.299 4.00035 -0.687536 0
M  V30 9367 H 891.065 3.68687 -3.15111 0
M  V30 9368 H 886.944 4.14663 -2.01434 0
M  V30 9369 H 890.488 4.34069 -5.46105 0
M  V30 9370 H 886.385 4.80059 -4.31525 0
M  V30 9371 H 887.153 5.15043 -6.36139 0
M  V30 9372 N 889.816 0.795718 1.36037 0
M  V30 9373 C 891.093 0.294743 1.93367 0
M  V30 9374 C 891.473 -1.21406 1.72696 0
M  V30 9375 O 890.821 -2.00849 1.08959 0
M  V30 9376 C 891.031 0.694254 3.42025 0
M  V30 9377 C 892.379 0.677566 4.19159 0
M  V30 9378 O 893.403 0.635119 3.50492 0
M  V30 9379 O 892.262 0.726127 5.41655 0
M  V30 9380 H 889.356 0.0745459 0.823633 0
M  V30 9381 H 891.902 0.878685 1.4518 0
M  V30 9382 H 890.674 1.73458 3.50753 0
M  V30 9383 H 890.297 0.0845338 3.9751 0
M  V30 9384 N 891.294 -1.47756 0.548274 0
M  V30 9385 C 892.257 -2.28379 -0.193857 0
M  V30 9386 C 893.257 -1.36436 -0.850986 0
M  V30 9387 O 894.447 -1.59154 -0.70822 0
M  V30 9388 C 891.579 -3.15858 -1.28243 0
M  V30 9389 H 892.772 -2.95458 0.514231 0
M  V30 9390 H 890.325 -1.53298 0.304879 0
M  V30 9391 H 891.06 -2.5345 -2.0232 0
M  V30 9392 H 890.845 -3.83512 -0.816148 0
M  V30 9393 H 892.335 -3.76627 -1.80393 0
M  V30 9394 N 892.772 -0.284283 -1.55015 0
M  V30 9395 C 894.183 0.211681 -1.85496 0
M  V30 9396 C 894.534 1.54735 -1.2063 0
M  V30 9397 O 893.659 2.10594 -0.497918 0
M  V30 9398 C 894.254 0.390864 -3.36538 0
M  V30 9399 C 892.813 0.831055 -3.67111 0
M  V30 9400 C 891.96 -0.0703581 -2.77211 0
M  V30 9401 H 894.911 -0.505803 -1.50424 0
M  V30 9402 H 894.932 1.22803 -3.60138 0
M  V30 9403 H 894.444 -0.581409 -3.8372 0
M  V30 9404 H 892.545 1.81447 -3.25434 0
M  V30 9405 H 892.658 0.662026 -4.74504 0
M  V30 9406 H 891.022 0.447528 -2.50737 0
M  V30 9407 H 891.805 -1.03868 -3.2721 0
M  V30 9408 N 894.251 1.57596 -0.0117121 0
M  V30 9409 C 895.161 2.12596 0.991964 0
M  V30 9410 C 896.177 1.07399 1.36899 0
M  V30 9411 O 897.353 1.39365 1.45394 0
M  V30 9412 C 894.418 2.62796 2.2614 0
M  V30 9413 C 893.479 3.8264 1.94642 0
M  V30 9414 C 892.712 4.30435 3.15533 0
M  V30 9415 O 892.935 3.77495 4.27614 0
M  V30 9416 O 891.869 5.22469 2.98847 0
M  V30 9417 H 895.695 2.98597 0.554371 0
M  V30 9418 H 893.28 1.47947 0.207839 0
M  V30 9419 H 895.162 2.9523 3.00695 0
M  V30 9420 H 893.837 1.79886 2.69114 0
M  V30 9421 H 892.744 3.5516 1.17526 0
M  V30 9422 H 894.077 4.66658 1.56496 0
M  V30 9423 N 895.729 -0.261212 1.5542 0
M  V30 9424 C 896.957 -1.00916 1.8062 0
M  V30 9425 C 897.372 -1.79494 0.585444 0
M  V30 9426 O 896.729 -1.76974 -0.445702 0
M  V30 9427 C 896.78 -1.95841 3.03856 0
M  V30 9428 O 896.501 -1.20445 4.21218 0
M  V30 9429 C 898.002 -2.82352 3.41749 0
M  V30 9430 H 895.222 -0.297596 0.601397 0
M  V30 9431 H 897.766 -0.288427 2.02456 0
M  V30 9432 H 895.921 -2.63361 2.84112 0
M  V30 9433 H 896.335 -1.84528 4.90968 0
M  V30 9434 H 897.809 -3.44733 4.31118 0
M  V30 9435 H 898.286 -3.5273 2.61683 0
M  V30 9436 H 898.892 -2.20306 3.63793 0
M  V30 9437 N 897.207 -1.48554 -0.526253 0
M  V30 9438 C 898.453 -1.56994 -1.28378 0
M  V30 9439 C 898.786 -0.244701 -1.92652 0
M  V30 9440 O 898.061 0.749636 -1.79473 0
M  V30 9441 C 898.344 -2.71092 -2.37026 0
M  V30 9442 C 898.197 -4.13331 -1.77418 0
M  V30 9443 C 899.516 -2.80934 -3.38769 0
M  V30 9444 H 896.635 -0.571466 -0.465398 0
M  V30 9445 H 899.277 -1.80742 -0.585861 0
M  V30 9446 H 897.427 -2.50973 -2.96555 0
M  V30 9447 H 899.099 -4.44899 -1.21912 0
M  V30 9448 H 897.342 -4.20158 -1.07936 0
M  V30 9449 H 898.013 -4.88994 -2.56104 0
M  V30 9450 H 900.489 -2.9917 -2.892 0
M  V30 9451 H 899.365 -3.62489 -4.12181 0
M  V30 9452 H 899.626 -1.89244 -3.99549 0
M  V30 9453 N 898.685 0.775411 -1.37205 0
M  V30 9454 C 900.101 1.07546 -1.17924 0
M  V30 9455 C 900.301 2.01496 -0.0128897 0
M  V30 9456 O 899.357 2.44039 0.64816 0
M  V30 9457 C 900.67 1.67647 -2.49629 0
M  V30 9458 C 902.218 1.79923 -2.56119 0
M  V30 9459 C 902.693 2.43438 -3.87946 0
M  V30 9460 N 904.184 2.50893 -3.89368 0
M  V30 9461 C 904.919 3.00881 -4.88117 0
M  V30 9462 N 904.415 3.5107 -5.97262 0
M  V30 9463 N 906.208 2.99722 -4.75524 0
M  V30 9464 H 898.359 0.151524 -2.11859 0
M  V30 9465 H 900.622 0.129845 -0.939066 0
M  V30 9466 H 900.328 1.06082 -3.3532 0
M  V30 9467 H 900.202 2.66988 -2.66453 0
M  V30 9468 H 902.589 2.40621 -1.70838 0
M  V30 9469 H 902.67 0.793482 -2.43182 0
M  V30 9470 H 902.314 1.8338 -4.73639 0
M  V30 9471 H 902.244 3.44611 -3.98184 0
M  V30 9472 H 904.735 2.1537 -3.10522 0
M  V30 9473 H 905.048 3.87604 -6.68568 0
M  V30 9474 H 903.393 3.49184 -6.00912 0
M  V30 9475 H 906.584 2.5981 -3.8938 0
M  V30 9476 H 906.757 3.38369 -5.52639 0
M  V30 9477 N 900.163 1.21714 1.00117 0
M  V30 9478 C 901.073 0.99597 2.12409 0
M  V30 9479 C 902.089 -0.0531431 1.73919 0
M  V30 9480 O 903.265 0.137757 2.00928 0
M  V30 9481 C 900.33 0.567593 3.42022 0
M  V30 9482 C 899.391 1.68936 3.94663 0
M  V30 9483 C 898.624 1.28133 5.1809 0
M  V30 9484 O 898.847 0.156574 5.70185 0
M  V30 9485 O 897.781 2.0947 5.64275 0
M  V30 9486 H 901.607 1.93657 2.33946 0
M  V30 9487 H 899.192 1.00236 1.10784 0
M  V30 9488 H 901.074 0.338664 4.20037 0
M  V30 9489 H 899.749 -0.34424 3.21864 0
M  V30 9490 H 898.656 1.97274 3.17858 0
M  V30 9491 H 899.989 2.57876 4.19238 0
M  V30 9492 N 901.641 -1.19671 1.02551 0
M  V30 9493 C 903.052 -1.70964 0.750208 0
M  V30 9494 C 903.403 -1.82095 -0.730461 0
M  V30 9495 O 902.528 -1.48974 -1.56958 0
M  V30 9496 C 903.123 -3.10516 1.35518 0
M  V30 9497 C 901.682 -3.59083 1.12854 0
M  V30 9498 C 900.829 -2.36041 1.45534 0
M  V30 9499 H 903.78 -1.04559 1.19386 0
M  V30 9500 H 903.801 -3.73028 0.750378 0
M  V30 9501 H 903.313 -3.02383 2.43282 0
M  V30 9502 H 901.414 -3.72536 0.0689627 0
M  V30 9503 H 901.527 -4.43395 1.81488 0
M  V30 9504 H 899.891 -2.39214 0.87458 0
M  V30 9505 H 900.674 -2.3054 2.54374 0
M  V30 9506 N 903.119 -0.802921 -1.35613 0
M  V30 9507 C 904.535 -0.486214 -1.52014 0
M  V30 9508 C 904.735 0.993219 -1.75321 0
M  V30 9509 O 903.791 1.77835 -1.79251 0
M  V30 9510 C 905.104 -1.32839 -2.69767 0
M  V30 9511 C 906.652 -1.32346 -2.83643 0
M  V30 9512 C 907.127 -2.14967 -4.04417 0
M  V30 9513 N 908.618 -2.12484 -4.11588 0
M  V30 9514 C 909.353 -2.73173 -5.04147 0
M  V30 9515 N 908.849 -3.42774 -6.02061 0
M  V30 9516 N 910.642 -2.62834 -4.96865 0
M  V30 9517 H 902.793 -1.76109 -1.18741 0
M  V30 9518 H 905.056 -0.74936 -0.580658 0
M  V30 9519 H 904.762 -2.37813 -2.5911 0
M  V30 9520 H 904.636 -0.979058 -3.64272 0
M  V30 9521 H 907.023 -0.281586 -2.93753 0
M  V30 9522 H 907.104 -1.71264 -1.90006 0
M  V30 9523 H 906.748 -3.19193 -3.95068 0
M  V30 9524 H 906.678 -1.73411 -4.97228 0
M  V30 9525 H 909.169 -1.61839 -3.41492 0
M  V30 9526 H 909.482 -3.86378 -6.69277 0
M  V30 9527 H 907.827 -3.46878 -6.02246 0
M  V30 9528 H 911.018 -2.08049 -4.19325 0
M  V30 9529 H 911.191 -3.10421 -5.68808 0
M  V30 9530 N 904.597 1.47463 -0.556102 0
M  V30 9531 C 905.844 2.02475 -0.0316337 0
M  V30 9532 C 906.172 1.43057 1.31777 0
M  V30 9533 O 905.427 0.575376 1.87051 0
M  V30 9534 C 905.726 3.57224 0.112126 0
M  V30 9535 C 905.392 4.35557 -1.16624 0
M  V30 9536 C 904.054 4.56678 -1.51654 0
M  V30 9537 C 906.406 4.8074 -2.01342 0
M  V30 9538 C 903.734 5.20231 -2.7125 0
M  V30 9539 C 906.086 5.45613 -3.2014 0
M  V30 9540 C 904.75 5.64967 -3.55484 0
M  V30 9541 H 904.02 0.74091 -0.0115756 0
M  V30 9542 H 906.667 1.77148 -0.727392 0
M  V30 9543 H 904.972 3.81538 0.890842 0
M  V30 9544 H 906.669 3.97438 0.533261 0
M  V30 9545 H 903.259 4.19395 -0.883489 0
M  V30 9546 H 907.443 4.64201 -1.75587 0
M  V30 9547 H 902.699 5.3341 -2.98804 0
M  V30 9548 H 906.873 5.79587 -3.86073 0
M  V30 9549 H 904.5 6.13984 -4.4825 0
M  V30 9550 N 906.075 0.2925 1.54862 0
M  V30 9551 C 907.023 -0.603186 2.24643 0
M  V30 9552 C 908.017 -1.1439 1.24946 0
M  V30 9553 O 909.223 -1.09552 1.42823 0
M  V30 9554 H 905.598 -0.213105 0.721173 0
M  V30 9555 H 907.569 0.00799278 2.98399 0
M  V30 9556 C 906.318 -1.76769 2.99413 0
M  V30 9557 H 905.641 -1.36084 3.75927 0
M  V30 9558 H 907.081 -2.37066 3.51533 0
M  V30 9559 C 905.54 -2.66669 2.05886 0
M  V30 9560 O 906.07 -3.67525 1.62136 0
M  V30 9561 N 904.276 -2.34216 1.7202 0
M  V30 9562 H 903.823 -1.52246 2.07795 0
M  V30 9563 H 903.781 -2.94635 1.09717 0
M  V30 9564 N 907.553 -1.57587 0.0200696 0
M  V30 9565 C 908.485 -2.06555 -0.993359 0
M  V30 9566 C 909.498 -0.987227 -1.29451 0
M  V30 9567 O 910.687 -1.26361 -1.26075 0
M  V30 9568 C 907.787 -2.4675 -2.3231 0
M  V30 9569 C 906.96 -3.77554 -2.20843 0
M  V30 9570 C 906.019 -4.04397 -3.36674 0
M  V30 9571 O 905.045 -4.7478 -3.13963 0
M  V30 9572 N 906.247 -3.53861 -4.60176 0
M  V30 9573 H 909.012 -2.9412 -0.575617 0
M  V30 9574 H 906.573 -1.61038 -0.166889 0
M  V30 9575 H 908.565 -2.61806 -3.08609 0
M  V30 9576 H 907.135 -1.64598 -2.65756 0
M  V30 9577 H 906.355 -3.72382 -1.29327 0
M  V30 9578 H 907.643 -4.63271 -2.10375 0
M  V30 9579 H 907.041 -2.96904 -4.81523 0
M  V30 9580 H 905.598 -3.74213 -5.33674 0
M  V30 9581 N 909.032 0.252966 -1.55557 0
M  V30 9582 C 909.98 1.33289 -1.90622 0
M  V30 9583 C 910.974 1.50133 -0.784638 0
M  V30 9584 O 912.18 1.51679 -0.969196 0
M  V30 9585 H 908.555 0.446196 -0.605321 0
M  V30 9586 H 910.526 1.00977 -2.80796 0
M  V30 9587 C 909.275 2.68254 -2.21213 0
M  V30 9588 H 908.598 2.5609 -3.07014 0
M  V30 9589 H 910.038 3.42707 -2.49656 0
M  V30 9590 C 908.497 3.20884 -1.02642 0
M  V30 9591 O 909.027 4.00783 -0.271292 0
M  V30 9592 N 907.233 2.7883 -0.818682 0
M  V30 9593 H 906.78 2.13966 -1.43444 0
M  V30 9594 H 906.738 3.14388 -0.0269989 0
M  V30 9595 N 910.51 1.48831 0.518367 0
M  V30 9596 C 911.756 1.57672 1.27543 0
M  V30 9597 C 912.089 0.254915 1.9252 0
M  V30 9598 O 911.364 -0.740107 1.79868 0
M  V30 9599 C 911.647 2.72345 2.35585 0
M  V30 9600 C 911.5 4.14267 1.75224 0
M  V30 9601 C 912.819 2.82726 3.37274 0
M  V30 9602 H 909.938 0.573926 0.462361 0
M  V30 9603 H 912.58 1.8105 0.576267 0
M  V30 9604 H 910.73 2.52543 2.95219 0
M  V30 9605 H 912.402 4.45539 1.19551 0
M  V30 9606 H 910.645 4.20724 1.05706 0
M  V30 9607 H 911.316 4.90345 2.53507 0
M  V30 9608 H 913.792 3.00699 2.8761 0
M  V30 9609 H 912.668 3.6467 4.10252 0
M  V30 9610 H 912.929 1.9136 3.9854 0
M  V30 9611 N 911.988 -0.768124 1.37614 0
M  V30 9612 C 912.936 -1.9029 1.33763 0
M  V30 9613 C 913.93 -1.67888 0.225814 0
M  V30 9614 O 915.136 -1.75634 0.394043 0
M  V30 9615 H 911.511 -0.625828 0.416945 0
M  V30 9616 H 913.482 -1.90654 2.29551 0
M  V30 9617 C 912.231 -3.27598 1.16511 0
M  V30 9618 H 911.554 -3.45414 2.01318 0
M  V30 9619 H 912.994 -4.07288 1.17867 0
M  V30 9620 C 911.453 -3.36653 -0.129001 0
M  V30 9621 O 911.983 -3.86023 -1.11128 0
M  V30 9622 N 910.189 -2.90036 -0.180926 0
M  V30 9623 H 909.736 -2.5005 0.619076 0
M  V30 9624 H 909.694 -2.96475 -1.04641 0
M  V30 9625 N 913.466 -1.22244 -0.994698 0
M  V30 9626 C 914.396 -1.01513 -2.10279 0
M  V30 9627 C 915.377 0.0633365 -1.69982 0
M  V30 9628 O 916.562 -0.0985268 -1.9395 0
M  V30 9629 C 913.692 -0.59016 -3.42249 0
M  V30 9630 C 912.646 -1.61436 -3.96387 0
M  V30 9631 C 911.972 -1.04528 -5.24383 0
M  V30 9632 C 913.272 -3.00388 -4.27276 0
M  V30 9633 H 914.966 -1.94194 -2.2788 0
M  V30 9634 H 912.512 -0.935094 -1.09508 0
M  V30 9635 H 914.465 -0.432254 -4.19177 0
M  V30 9636 H 913.189 0.372308 -3.24471 0
M  V30 9637 H 911.848 -1.76001 -3.21589 0
M  V30 9638 H 911.496 -0.0742225 -5.02945 0
M  V30 9639 H 911.196 -1.72949 -5.61571 0
M  V30 9640 H 912.72 -0.898922 -6.03947 0
M  V30 9641 H 914.134 -2.89207 -4.95007 0
M  V30 9642 H 912.531 -3.65916 -4.75631 0
M  V30 9643 H 913.601 -3.50456 -3.35125 0
M  V30 9644 N 914.944 1.19125 -1.03184 0
M  V30 9645 C 916.36 1.40909 -0.749447 0
M  V30 9646 C 916.56 1.9022 0.664729 0
M  V30 9647 O 915.616 2.08085 1.43028 0
M  V30 9648 C 916.929 2.41761 -1.78807 0
M  V30 9649 C 918.477 2.55503 -1.80796 0
M  V30 9650 C 918.952 3.59612 -2.83626 0
M  V30 9651 N 920.443 3.6711 -2.82461 0
M  V30 9652 C 921.178 4.47366 -3.5868 0
M  V30 9653 N 920.674 5.31302 -4.44623 0
M  V30 9654 N 922.467 4.42044 -3.47208 0
M  V30 9655 H 914.618 0.854399 -1.94458 0
M  V30 9656 H 916.881 0.437753 -0.840878 0
M  V30 9657 H 916.587 2.12559 -2.80199 0
M  V30 9658 H 916.461 3.40981 -1.61283 0
M  V30 9659 H 918.848 2.84027 -0.800803 0
M  V30 9660 H 918.929 1.56427 -2.02396 0
M  V30 9661 H 918.573 3.3183 -3.84515 0
M  V30 9662 H 918.503 4.58345 -2.59283 0
M  V30 9663 H 920.994 3.07166 -2.2013 0
M  V30 9664 H 921.307 5.89667 -4.99512 0
M  V30 9665 H 919.652 5.30753 -4.48694 0
M  V30 9666 H 922.843 3.75513 -2.79477 0
M  V30 9667 H 923.016 5.0435 -4.06859 0
M  V30 9668 N 916.422 0.810101 1.35185 0
M  V30 9669 C 917.833 0.452616 1.81131 0
M  V30 9670 C 918.184 -1.02573 1.67252 0
M  V30 9671 O 917.309 -1.79735 1.20516 0
M  V30 9672 C 917.904 0.814775 3.28857 0
M  V30 9673 C 916.463 0.509839 3.72931 0
M  V30 9674 C 915.61 1.03852 2.57119 0
M  V30 9675 H 918.561 1.00143 1.23114 0
M  V30 9676 H 918.582 0.113635 3.8033 0
M  V30 9677 H 918.094 1.89078 3.38926 0
M  V30 9678 H 916.195 -0.557289 3.68409 0
M  V30 9679 H 916.308 1.04493 4.67566 0
M  V30 9680 H 914.672 0.460671 2.50499 0
M  V30 9681 H 915.455 2.12071 2.69964 0
M  V30 9682 N 917.9 -1.47166 0.563914 0
M  V30 9683 C 919.311 -1.86231 0.132307 0
M  V30 9684 C 919.662 -1.46976 -1.29971 0
M  V30 9685 O 918.787 -0.875911 -1.97881 0
M  V30 9686 C 919.382 -3.37996 0.233335 0
M  V30 9687 C 917.941 -3.76127 -0.143278 0
M  V30 9688 C 917.088 -2.71212 0.577857 0
M  V30 9689 H 920.039 -1.38588 0.773249 0
M  V30 9690 H 920.06 -3.76558 -0.546309 0
M  V30 9691 H 919.572 -3.66535 1.27568 0
M  V30 9692 H 917.673 -3.53205 -1.18648 0
M  V30 9693 H 917.786 -4.78595 0.219952 0
M  V30 9694 H 916.15 -2.54692 0.020186 0
M  V30 9695 H 916.933 -3.02593 1.62149 0
M  V30 9696 N 919.378 -0.300708 -1.54705 0
M  V30 9697 C 920.341 0.562648 -2.22187 0
M  V30 9698 C 921.341 1.06152 -1.20782 0
M  V30 9699 O 922.531 0.957596 -1.45519 0
M  V30 9700 C 919.663 1.77899 -2.908 0
M  V30 9701 H 920.856 -0.0269361 -2.99888 0
M  V30 9702 H 918.409 -0.0515412 -1.56215 0
M  V30 9703 H 919.144 2.40841 -2.17177 0
M  V30 9704 H 918.929 1.42892 -3.65136 0
M  V30 9705 H 920.419 2.39236 -3.42281 0
M  V30 9706 N 920.856 1.57574 -0.0284266 0
M  V30 9707 C 921.788 2.07079 0.982391 0
M  V30 9708 C 922.801 0.994078 1.28926 0
M  V30 9709 O 923.99 1.27028 1.25404 0
M  V30 9710 C 921.09 2.47978 2.30998 0
M  V30 9711 C 920.263 3.7872 2.18838 0
M  V30 9712 C 919.322 4.06177 3.34524 0
M  V30 9713 O 918.348 4.76438 3.11441 0
M  V30 9714 N 919.55 3.56297 4.58293 0
M  V30 9715 H 922.315 2.94421 0.560011 0
M  V30 9716 H 919.876 1.61124 0.158347 0
M  V30 9717 H 921.868 2.63439 3.07216 0
M  V30 9718 H 920.438 1.66005 2.64879 0
M  V30 9719 H 919.658 3.73062 1.27351 0
M  V30 9720 H 920.946 4.6438 2.07915 0
M  V30 9721 H 920.344 2.99453 4.79942 0
M  V30 9722 H 918.901 3.77038 5.31682 0
M  V30 9723 N 922.334 -0.244713 1.55689 0
M  V30 9724 C 923.745 -0.813603 1.6804 0
M  V30 9725 C 924.096 -1.85936 0.626281 0
M  V30 9726 O 923.221 -2.15206 -0.227038 0
M  V30 9727 C 923.816 -1.48252 3.04642 0
M  V30 9728 C 922.375 -1.99908 3.18926 0
M  V30 9729 C 921.522 -0.850958 2.6392 0
M  V30 9730 H 924.473 -0.0204805 1.58687 0
M  V30 9731 H 924.494 -2.35062 2.99209 0
M  V30 9732 H 924.006 -0.721164 3.81341 0
M  V30 9733 H 922.107 -2.78918 2.47054 0
M  V30 9734 H 922.22 -2.19497 4.25862 0
M  V30 9735 H 920.584 -1.25206 2.21801 0
M  V30 9736 H 921.367 -0.10265 3.43146 0
M  V30 9737 N 923.813 -1.49104 -0.510467 0
M  V30 9738 C 925.038 -1.62068 -1.29417 0
M  V30 9739 C 925.463 -0.288432 -1.85875 0
M  V30 9740 O 924.821 0.742667 -1.65391 0
M  V30 9741 C 924.869 -2.68506 -2.40701 0
M  V30 9742 O 923.973 -2.27021 -3.4429 0
M  V30 9743 H 923.314 -0.542778 -0.382476 0
M  V30 9744 H 925.844 -1.95228 -0.612154 0
M  V30 9745 H 925.854 -2.90383 -2.86604 0
M  V30 9746 H 924.529 -3.65216 -1.98973 0
M  V30 9747 H 923.106 -2.15436 -3.04371 0
M  V30 9748 N 925.291 0.760815 -1.38019 0
M  V30 9749 C 926.568 1.5098 -1.24356 0
M  V30 9750 C 926.948 2.10507 0.158169 0
M  V30 9751 O 926.296 1.96455 1.16695 0
M  V30 9752 C 926.506 2.58195 -2.34811 0
M  V30 9753 C 927.854 3.25297 -2.72886 0
M  V30 9754 O 928.878 2.68496 -2.34069 0
M  V30 9755 O 927.737 4.28018 -3.39799 0
M  V30 9756 H 924.831 0.66921 -0.485888 0
M  V30 9757 H 927.377 0.796844 -1.49828 0
M  V30 9758 H 926.149 2.12406 -3.28633 0
M  V30 9759 H 925.772 3.37079 -2.10864 0
M  V30 9760 N 926.769 1.22769 0.988202 0
M  V30 9761 C 927.701 0.959757 2.08138 0
M  V30 9762 C 928.714 -0.0633787 1.62677 0
M  V30 9763 O 929.903 0.171203 1.77677 0
M  V30 9764 C 927.003 0.422724 3.36253 0
M  V30 9765 C 926.176 1.50419 4.10722 0
M  V30 9766 C 925.235 0.973407 5.17118 0
M  V30 9767 O 924.261 1.66066 5.44436 0
M  V30 9768 N 925.463 -0.202787 5.80146 0
M  V30 9769 H 928.228 1.9009 2.31702 0
M  V30 9770 H 925.789 1.13522 1.15431 0
M  V30 9771 H 927.781 0.0528514 4.04665 0
M  V30 9772 H 926.351 -0.423642 3.09716 0
M  V30 9773 H 925.571 2.04718 3.36874 0
M  V30 9774 H 926.859 2.23169 4.57245 0
M  V30 9775 H 926.257 -0.777856 5.60327 0
M  V30 9776 H 924.814 -0.513998 6.4977 0
M  V30 9777 N 928.247 -1.18576 1.03814 0
M  V30 9778 C 929.177 -2.24334 0.647795 0
M  V30 9779 C 930.158 -1.66508 -0.34774 0
M  V30 9780 O 931.343 -1.92852 -0.228401 0
M  V30 9781 C 928.473 -3.47299 0.00734922 0
M  V30 9782 C 927.427 -4.17859 0.926152 0
M  V30 9783 C 926.753 -5.34489 0.150317 0
M  V30 9784 C 928.053 -4.71632 2.24411 0
M  V30 9785 H 929.747 -2.57241 1.53191 0
M  V30 9786 H 927.293 -1.23649 0.738028 0
M  V30 9787 H 929.246 -4.20486 -0.277434 0
M  V30 9788 H 927.97 -3.13619 -0.911626 0
M  V30 9789 H 926.629 -3.46567 1.19528 0
M  V30 9790 H 926.277 -4.97056 -0.770985 0
M  V30 9791 H 925.977 -5.82633 0.762407 0
M  V30 9792 H 927.501 -6.10467 -0.127508 0
M  V30 9793 H 928.915 -5.36526 2.02021 0
M  V30 9794 H 927.312 -5.303 2.80894 0
M  V30 9795 H 928.382 -3.89192 2.89236 0
M  V30 9796 N 929.725 -0.817259 -1.34754 0
M  V30 9797 C 930.971 -0.403244 -1.98751 0
M  V30 9798 C 931.304 1.02963 -1.64658 0
M  V30 9799 O 930.579 1.71617 -0.915314 0
M  V30 9800 C 930.862 -0.599188 -3.5508 0
M  V30 9801 C 930.715 -2.07777 -3.98934 0
M  V30 9802 C 932.034 -0.0315656 -4.40089 0
M  V30 9803 H 929.153 -0.147988 -0.721989 0
M  V30 9804 H 931.795 -1.02877 -1.59738 0
M  V30 9805 H 929.945 -0.0667116 -3.88443 0
M  V30 9806 H 931.617 -2.67345 -3.75931 0
M  V30 9807 H 929.86 -2.57031 -3.49453 0
M  V30 9808 H 930.531 -2.16571 -5.07741 0
M  V30 9809 H 933.007 -0.48644 -4.13247 0
M  V30 9810 H 931.883 -0.198507 -5.48541 0
M  V30 9811 H 932.144 1.06302 -4.2913 0
M  V30 9812 N 931.203 1.46865 -0.571711 0
M  V30 9813 C 932.449 2.03307 -0.0614759 0
M  V30 9814 C 932.804 1.43657 1.27986 0
M  V30 9815 O 932.097 0.588186 1.82348 0
M  V30 9816 C 932.291 3.57323 0.0742311 0
M  V30 9817 C 932.12 4.31909 -1.2524 0
M  V30 9818 C 930.89 4.71246 -1.82361 0
M  V30 9819 C 933.088 4.66137 -2.17304 0
M  V30 9820 N 931.07 5.30535 -3.08878 0
M  V30 9821 C 932.441 5.25881 -3.28404 0
M  V30 9822 C 934.496 4.48066 -2.1712 0
M  V30 9823 C 933.199 5.69461 -4.39439 0
M  V30 9824 C 935.225 4.92656 -3.27176 0
M  V30 9825 C 934.587 5.52461 -4.36997 0
M  V30 9826 H 930.686 0.779293 -0.0650098 0
M  V30 9827 H 933.27 1.79161 -0.762192 0
M  V30 9828 H 931.441 3.81206 0.744095 0
M  V30 9829 H 933.173 4.00408 0.587849 0
M  V30 9830 H 929.928 4.53658 -1.35985 0
M  V30 9831 H 930.352 5.64711 -3.73404 0
M  V30 9832 H 934.994 4.01173 -1.33492 0
M  V30 9833 H 932.712 6.15338 -5.23817 0
M  V30 9834 H 936.298 4.80433 -3.28139 0
M  V30 9835 H 935.178 5.86334 -5.20752 0
M  V30 9836 N 932.681 0.308908 1.54543 0
M  V30 9837 C 934.097 -0.0442273 1.59539 0
M  V30 9838 C 934.297 -1.51743 1.32575 0
M  V30 9839 O 933.353 -2.27134 1.10302 0
M  V30 9840 C 934.666 0.360826 2.98527 0
M  V30 9841 C 936.214 0.310252 3.11459 0
M  V30 9842 C 936.689 0.690246 4.52769 0
M  V30 9843 N 938.18 0.643084 4.58714 0
M  V30 9844 C 938.915 0.909483 5.66141 0
M  V30 9845 N 938.411 1.24226 6.81572 0
M  V30 9846 N 940.204 0.836018 5.55848 0
M  V30 9847 H 932.355 1.26893 1.70329 0
M  V30 9848 H 934.618 0.514986 0.795923 0
M  V30 9849 H 934.324 1.38669 3.23209 0
M  V30 9850 H 934.198 -0.281563 3.76148 0
M  V30 9851 H 936.585 -0.706375 2.86521 0
M  V30 9852 H 936.666 0.987373 2.35976 0
M  V30 9853 H 936.31 1.70472 4.78437 0
M  V30 9854 H 936.24 -0.00903075 5.26599 0
M  V30 9855 H 938.731 0.397138 3.75807 0
M  V30 9856 H 939.044 1.4313 7.5943 0
M  V30 9857 H 937.389 1.28038 6.83104 0
M  V30 9858 H 940.58 0.575637 4.64547 0
M  V30 9859 H 940.753 1.047 6.39486 0
M  V30 9860 N 934.159 -1.57557 0.0367827 0
M  V30 9861 C 935.122 -2.09591 -0.927589 0
M  V30 9862 C 936.122 -1.01252 -1.24919 0
M  V30 9863 O 937.312 -1.27382 -1.18825 0
M  V30 9864 C 934.444 -2.56816 -2.24184 0
M  V30 9865 H 935.637 -2.96086 -0.476784 0
M  V30 9866 H 933.19 -1.54864 -0.211385 0
M  V30 9867 H 933.925 -1.73673 -2.73876 0
M  V30 9868 H 933.71 -3.35973 -2.0215 0
M  V30 9869 H 935.2 -2.97271 -2.93291 0
M  V30 9870 N 935.637 0.236453 -1.55816 0
M  V30 9871 C 936.6 1.27633 -1.90375 0
M  V30 9872 C 937.6 1.40557 -0.781048 0
M  V30 9873 O 938.79 1.39078 -1.04895 0
M  V30 9874 C 935.922 2.65247 -2.14142 0
M  V30 9875 H 937.115 0.982019 -2.83366 0
M  V30 9876 H 934.668 0.476215 -1.48869 0
M  V30 9877 H 935.403 2.99801 -1.23653 0
M  V30 9878 H 935.188 2.57246 -2.95917 0
M  V30 9879 H 936.678 3.40313 -2.42026 0
M  V30 9880 N 937.115 1.49373 0.502552 0
M  V30 9881 C 938.531 1.36101 0.833591 0
M  V30 9882 C 938.731 0.392911 1.97632 0
M  V30 9883 O 937.787 -0.175975 2.51886 0
M  V30 9884 C 939.1 2.76782 1.17526 0
M  V30 9885 C 940.648 2.85471 1.28356 0
M  V30 9886 C 941.123 4.26915 1.65853 0
M  V30 9887 N 942.614 4.29719 1.72905 0
M  V30 9888 C 943.349 5.36127 2.0336 0
M  V30 9889 N 942.845 6.52782 2.32049 0
M  V30 9890 N 944.638 5.23542 2.04598 0
M  V30 9891 H 936.789 2.10912 -0.251008 0
M  V30 9892 H 939.052 0.946696 -0.0497037 0
M  V30 9893 H 938.758 3.49314 0.408965 0
M  V30 9894 H 938.632 3.1205 2.11907 0
M  V30 9895 H 941.019 2.13177 2.04058 0
M  V30 9896 H 941.1 2.53787 0.320304 0
M  V30 9897 H 940.744 4.99735 0.907022 0
M  V30 9898 H 940.674 4.56063 2.63276 0
M  V30 9899 H 943.165 3.45586 1.529 0
M  V30 9900 H 943.478 7.29701 2.54471 0
M  V30 9901 H 941.823 6.56011 2.29509 0
M  V30 9902 H 945.014 4.31413 1.8166 0
M  V30 9903 H 945.187 6.06565 2.27998 0
M  V30 9904 N 938.594 -0.753485 1.38421 0
M  V30 9905 C 939.819 -1.54783 1.38047 0
M  V30 9906 C 940.244 -1.8808 -0.0276371 0
M  V30 9907 O 939.602 -1.5058 -1.00973 0
M  V30 9908 C 939.65 -2.82353 2.24297 0
M  V30 9909 O 938.754 -3.77509 1.66014 0
M  V30 9910 H 938.095 -0.468151 0.470883 0
M  V30 9911 H 940.625 -0.931144 1.82184 0
M  V30 9912 H 940.635 -3.31277 2.38159 0
M  V30 9913 H 939.31 -2.57449 3.26639 0
M  V30 9914 H 937.887 -3.36212 1.61294 0
M  V30 9915 N 940.072 -1.23292 -0.981677 0
M  V30 9916 C 941.297 -1.09176 -1.76339 0
M  V30 9917 C 941.722 0.352726 -1.84763 0
M  V30 9918 O 941.08 1.25509 -1.30832 0
M  V30 9919 C 941.128 -1.72046 -3.16911 0
M  V30 9920 O 940.232 -0.98174 -4.00544 0
M  V30 9921 H 939.573 -0.382755 -0.542581 0
M  V30 9922 H 942.103 -1.63319 -1.23239 0
M  V30 9923 H 942.113 -1.77232 -3.67495 0
M  V30 9924 H 940.788 -2.77154 -3.10095 0
M  V30 9925 H 939.365 -1.00672 -3.59054 0
M  V30 9926 N 941.55 1.18024 -1.04442 0
M  V30 9927 C 942.798 1.87727 -0.74854 0
M  V30 9928 C 943.119 1.80975 0.726156 0
M  V30 9929 O 942.389 1.23061 1.52423 0
M  V30 9930 H 940.969 0.694974 -0.273897 0
M  V30 9931 H 943.631 1.43213 -1.32197 0
M  V30 9932 H 942.727 2.93665 -1.05674 0
M  V30 9933 N 943.028 0.824394 1.34319 0
M  V30 9934 C 943.991 0.252696 2.27803 0
M  V30 9935 C 944.991 -0.570254 1.50349 0
M  V30 9936 O 946.181 -0.386145 1.69866 0
M  V30 9937 C 943.313 -0.645575 3.34731 0
M  V30 9938 H 944.506 1.07742 2.79878 0
M  V30 9939 H 942.059 0.596367 1.44475 0
M  V30 9940 H 942.794 -1.4933 2.87873 0
M  V30 9941 H 942.579 -0.0569478 3.92059 0
M  V30 9942 H 944.069 -1.03933 4.0446 0
M  V30 9943 N 944.506 -1.46559 0.579492 0
M  V30 9944 C 945.469 -2.28739 -0.145371 0
M  V30 9945 C 946.469 -1.38211 -0.821854 0
M  V30 9946 O 947.659 -1.6062 -0.674302 0
M  V30 9947 C 944.791 -3.18507 -1.21515 0
M  V30 9948 H 945.984 -2.94301 0.576786 0
M  V30 9949 H 943.537 -1.52616 0.337327 0
M  V30 9950 H 944.272 -2.57685 -1.96899 0
M  V30 9951 H 944.057 -3.85157 -0.734616 0
M  V30 9952 H 945.547 -3.80369 -1.72363 0
M  V30 9953 N 945.984 -0.3171 -1.54377 0
M  V30 9954 C 947.395 0.172287 -1.85903 0
M  V30 9955 C 947.746 1.52141 -1.23885 0
M  V30 9956 O 946.871 2.0949 -0.542476 0
M  V30 9957 C 947.466 0.319392 -3.37291 0
M  V30 9958 C 946.025 0.752998 -3.68791 0
M  V30 9959 C 945.172 -0.129143 -2.76999 0
M  V30 9960 H 948.123 -0.537597 -1.49317 0
M  V30 9961 H 948.144 1.15137 -3.62662 0
M  V30 9962 H 947.656 -0.662671 -3.82401 0
M  V30 9963 H 945.757 1.74504 -3.2921 0
M  V30 9964 H 945.87 0.561228 -4.75801 0
M  V30 9965 H 944.234 0.394242 -2.5163 0
M  V30 9966 H 945.017 -1.10785 -3.24933 0
M  V30 9967 N 947.462 1.57535 -0.0451378 0
M  V30 9968 C 948.69 1.96761 0.639742 0
M  V30 9969 C 949.105 0.922405 1.64734 0
M  V30 9970 O 948.462 -0.0940535 1.82257 0
M  V30 9971 C 948.513 3.36066 1.33199 0
M  V30 9972 O 948.234 4.36579 0.364757 0
M  V30 9973 C 949.735 3.90015 2.1072 0
M  V30 9974 H 946.955 0.64769 0.175324 0
M  V30 9975 H 949.499 2.04206 -0.109651 0
M  V30 9976 H 947.654 3.2979 2.03266 0
M  V30 9977 H 948.068 5.17432 0.858168 0
M  V30 9978 H 949.542 4.89785 2.54586 0
M  V30 9979 H 950.019 3.25117 2.95288 0
M  V30 9980 H 950.625 3.99609 1.45577 0
M  V30 9981 N 948.94 -0.228186 1.55939 0
M  V30 9982 C 950.17 -0.969211 1.82455 0
M  V30 9983 C 950.578 -1.78714 0.621133 0
M  V30 9984 O 949.921 -1.78841 -0.419694 0
M  V30 9985 C 949.983 -1.94088 3.02605 0
M  V30 9986 C 949.647 -1.30811 4.37878 0
M  V30 9987 C 950.644 -0.701275 5.15149 0
M  V30 9988 C 948.329 -1.32187 4.84595 0
M  V30 9989 C 950.323 -0.116631 6.37293 0
M  V30 9990 C 948.01 -0.733375 6.06683 0
M  V30 9991 C 949.008 -0.131804 6.82873 0
M  V30 9992 O 948.696 0.447549 8.02653 0
M  V30 9993 H 948.428 -0.289951 0.610659 0
M  V30 9994 H 950.982 -0.250576 2.03866 0
M  V30 9995 H 949.212 -2.69833 2.76996 0
M  V30 9996 H 950.901 -2.5469 3.1605 0
M  V30 9997 H 951.667 -0.683022 4.80166 0
M  V30 9998 H 947.546 -1.77949 4.25271 0
M  V30 9999 H 951.09 0.353539 6.96704 0
M  V30 10000 H 946.987 -0.749019 6.4114 0
M  V30 10001 H 947.755 0.341224 8.17788 0
M  V30 10002 N 950.418 -1.49637 -0.494624 0
M  V30 10003 C 951.665 -1.59445 -1.24834 0
M  V30 10004 C 951.993 -0.284028 -1.92415 0
M  V30 10005 O 951.248 0.728519 -1.81634 0
M  V30 10006 C 951.547 -2.70749 -2.33302 0
M  V30 10007 C 951.213 -4.12034 -1.83135 0
M  V30 10008 C 949.875 -4.50482 -1.69173 0
M  V30 10009 C 952.227 -5.00432 -1.4566 0
M  V30 10010 C 949.555 -5.75093 -1.16124 0
M  V30 10011 C 951.907 -6.25568 -0.940608 0
M  V30 10012 C 950.571 -6.62839 -0.787432 0
M  V30 10013 H 949.841 -0.583451 -0.456799 0
M  V30 10014 H 952.488 -1.8349 -0.548044 0
M  V30 10015 H 950.793 -2.407 -3.09145 0
M  V30 10016 H 952.49 -2.75546 -2.91334 0
M  V30 10017 H 949.08 -3.8169 -1.94964 0
M  V30 10018 H 953.264 -4.71379 -1.55291 0
M  V30 10019 H 948.52 -6.02665 -1.02982 0
M  V30 10020 H 952.694 -6.93439 -0.641467 0
M  V30 10021 H 950.321 -7.59279 -0.374191 0
M  V30 10022 N 951.896 0.746133 -1.38819 0
M  V30 10023 C 953.312 1.0502 -1.20179 0
M  V30 10024 C 953.512 2.01423 -0.0556271 0
M  V30 10025 O 952.568 2.45359 0.59625 0
M  V30 10026 C 953.881 1.62315 -2.53129 0
M  V30 10027 C 955.429 1.74449 -2.59878 0
M  V30 10028 C 955.904 2.35155 -3.93022 0
M  V30 10029 N 957.395 2.42577 -3.94602 0
M  V30 10030 C 958.13 2.9046 -4.94389 0
M  V30 10031 N 957.626 3.38322 -6.04574 0
M  V30 10032 N 959.419 2.89568 -4.81775 0
M  V30 10033 H 951.57 0.106551 -2.12133 0
M  V30 10034 H 953.833 0.109897 -0.941609 0
M  V30 10035 H 953.539 0.98946 -3.37495 0
M  V30 10036 H 953.413 2.61276 -2.72057 0
M  V30 10037 H 955.8 2.36943 -1.75903 0
M  V30 10038 H 955.881 0.741721 -2.4481 0
M  V30 10039 H 955.525 1.73292 -4.77422 0
M  V30 10040 H 955.455 3.36088 -4.05404 0
M  V30 10041 H 957.946 2.08735 -3.15021 0
M  V30 10042 H 958.259 3.73336 -6.76639 0
M  V30 10043 H 956.604 3.3636 -6.08184 0
M  V30 10044 H 959.795 2.51492 -3.94803 0
M  V30 10045 H 959.968 3.26571 -5.59692 0
M  V30 10046 N 953.375 1.23811 0.975125 0
M  V30 10047 C 954.786 1.0675 1.53171 0
M  V30 10048 C 955.137 -0.363475 1.92804 0
M  V30 10049 O 954.262 -1.25089 1.76583 0
M  V30 10050 C 954.857 1.93161 2.78342 0
M  V30 10051 C 953.416 1.80346 3.30382 0
M  V30 10052 C 952.563 1.88544 2.03338 0
M  V30 10053 H 955.514 1.37396 0.79423 0
M  V30 10054 H 955.535 1.45951 3.51395 0
M  V30 10055 H 955.047 2.97302 2.49465 0
M  V30 10056 H 953.148 0.790077 3.64127 0
M  V30 10057 H 953.261 2.64026 3.99784 0
M  V30 10058 H 951.625 1.32186 2.17713 0
M  V30 10059 H 952.408 2.94252 1.76836 0
M  V30 10060 N 954.853 -1.17469 1.05066 0
M  V30 10061 C 955.801 -2.23495 0.644418 0
M  V30 10062 C 956.795 -1.66081 -0.333685 0
M  V30 10063 O 958.001 -1.78887 -0.199886 0
M  V30 10064 H 954.376 -0.727546 0.190214 0
M  V30 10065 H 956.347 -2.55058 1.5488 0
M  V30 10066 C 955.096 -3.47684 0.0338051 0
M  V30 10067 H 954.419 -3.92167 0.777513 0
M  V30 10068 H 955.859 -4.23464 -0.213086 0
M  V30 10069 C 954.318 -3.14067 -1.21915 0
M  V30 10070 O 954.848 -3.28728 -2.3087 0
M  V30 10071 N 953.054 -2.68304 -1.11631 0
M  V30 10072 H 952.601 -2.56574 -0.229673 0
M  V30 10073 H 952.559 -2.46184 -1.95553 0
M  V30 10074 N 956.331 -0.831506 -1.3388 0
M  V30 10075 C 957.579 -0.422837 -1.97627 0
M  V30 10076 C 957.9 1.01961 -1.6622 0
M  V30 10077 O 957.17 1.70916 -0.957323 0
M  V30 10078 H 955.75 -0.153365 -0.731087 0
M  V30 10079 H 958.412 -1.06284 -1.6337 0
M  V30 10080 H 957.508 -0.548858 -3.07236 0
M  V30 10081 N 957.809 1.4625 -0.587256 0
M  V30 10082 C 959.225 1.57641 -0.249284 0
M  V30 10083 C 959.425 1.58169 1.24839 0
M  V30 10084 O 958.481 1.50109 2.03036 0
M  V30 10085 C 959.794 2.86837 -0.902509 0
M  V30 10086 C 961.342 3.00476 -0.876524 0
M  V30 10087 C 961.817 4.32414 -1.50938 0
M  V30 10088 N 963.308 4.39124 -1.47392 0
M  V30 10089 C 964.043 5.39838 -1.93293 0
M  V30 10090 N 963.539 6.47202 -2.47188 0
M  V30 10091 N 965.332 5.31068 -1.84183 0
M  V30 10092 H 957.483 1.44151 -1.55994 0
M  V30 10093 H 959.746 0.687905 -0.652297 0
M  V30 10094 H 959.452 2.92274 -1.95624 0
M  V30 10095 H 959.326 3.74927 -0.413466 0
M  V30 10096 H 961.713 2.94618 0.168601 0
M  V30 10097 H 961.794 2.1385 -1.40363 0
M  V30 10098 H 961.438 4.3903 -2.55372 0
M  V30 10099 H 961.368 5.17823 -0.957455 0
M  V30 10100 H 963.859 3.62138 -1.08002 0
M  V30 10101 H 964.172 7.20269 -2.80058 0
M  V30 10102 H 962.517 6.48009 -2.51216 0
M  V30 10103 H 965.708 4.46095 -1.41833 0
M  V30 10104 H 965.881 6.09414 -2.2027 0
M  V30 10105 N 959.287 0.325282 1.54207 0
M  V30 10106 C 960.534 -0.276775 2.006 0
M  V30 10107 C 960.862 -1.52007 1.21343 0
M  V30 10108 O 960.117 -1.93627 0.284104 0
M  V30 10109 C 960.416 -0.654292 3.5136 0
M  V30 10110 C 960.082 0.490023 4.48229 0
M  V30 10111 C 958.744 0.804104 4.74434 0
M  V30 10112 C 961.096 1.2586 5.05775 0
M  V30 10113 C 958.424 1.88945 5.55443 0
M  V30 10114 C 960.776 2.33405 5.87967 0
M  V30 10115 C 959.44 2.65393 6.12473 0
M  V30 10116 H 958.71 -0.101279 0.734046 0
M  V30 10117 H 961.357 0.449416 1.86152 0
M  V30 10118 H 959.662 -1.46093 3.63544 0
M  V30 10119 H 961.359 -1.13171 3.84699 0
M  V30 10120 H 957.949 0.235147 4.27954 0
M  V30 10121 H 962.133 1.02921 4.85511 0
M  V30 10122 H 957.389 2.14174 5.7266 0
M  V30 10123 H 961.563 2.93402 6.31576 0
M  V30 10124 H 959.19 3.49622 6.75032 0
M  V30 10125 N 960.765 -1.57509 0.0534917 0
M  V30 10126 C 961.695 -2.14698 -0.917999 0
M  V30 10127 C 962.676 -1.06924 -1.32292 0
M  V30 10128 O 963.861 -1.34875 -1.39723 0
M  V30 10129 C 960.991 -2.69383 -2.19203 0
M  V30 10130 C 959.945 -3.82161 -1.9271 0
M  V30 10131 C 959.271 -4.23373 -3.26587 0
M  V30 10132 C 960.571 -5.07199 -1.24686 0
M  V30 10133 H 962.265 -2.96125 -0.44165 0
M  V30 10134 H 959.811 -1.42446 -0.210993 0
M  V30 10135 H 961.764 -3.08031 -2.87567 0
M  V30 10136 H 960.488 -1.85151 -2.69048 0
M  V30 10137 H 959.147 -3.43989 -1.26757 0
M  V30 10138 H 958.795 -3.36089 -3.74237 0
M  V30 10139 H 958.495 -4.99385 -3.09658 0
M  V30 10140 H 960.019 -4.64623 -3.96178 0
M  V30 10141 H 961.433 -5.43279 -1.83088 0
M  V30 10142 H 959.83 -5.88369 -1.18076 0
M  V30 10143 H 960.9 -4.84386 -0.223227 0
M  V30 10144 N 962.243 0.219913 -1.56058 0
M  V30 10145 C 963.52 0.968493 -1.6994 0
M  V30 10146 C 963.9 2.02358 -0.601219 0
M  V30 10147 O 963.248 2.25121 0.391534 0
M  V30 10148 C 963.458 1.57745 -3.11316 0
M  V30 10149 C 964.806 2.06908 -3.70775 0
M  V30 10150 O 965.83 1.67636 -3.14288 0
M  V30 10151 O 964.689 2.79096 -4.69859 0
M  V30 10152 H 961.783 0.452521 -0.692209 0
M  V30 10153 H 964.329 0.211566 -1.68376 0
M  V30 10154 H 963.101 0.815687 -3.82704 0
M  V30 10155 H 962.724 2.39987 -3.17005 0
M  V30 10156 N 963.721 1.49897 0.486681 0
M  V30 10157 C 964.969 1.59789 1.23742 0
M  V30 10158 C 965.29 0.293056 1.92785 0
M  V30 10159 O 964.56 -0.688534 1.83401 0
M  V30 10160 H 963.14 0.588775 0.459731 0
M  V30 10161 H 965.802 1.86597 0.562808 0
M  V30 10162 H 964.898 2.40121 1.9937 0
M  V30 10163 N 965.199 -0.738761 1.39212 0
M  V30 10164 C 966.447 -1.49529 1.35962 0
M  V30 10165 C 966.768 -1.94948 -0.0450152 0
M  V30 10166 O 966.038 -1.68717 -0.995552 0
M  V30 10167 H 964.618 -0.554692 0.500326 0
M  V30 10168 H 967.28 -0.877255 1.74041 0
M  V30 10169 H 966.376 -2.37919 2.01993 0
M  V30 10170 N 966.677 -1.24326 -0.968545 0
M  V30 10171 C 967.607 -1.05951 -2.08079 0
M  V30 10172 C 968.588 0.0272666 -1.70078 0
M  V30 10173 O 969.773 -0.139644 -1.93697 0
M  V30 10174 C 966.903 -0.662623 -3.4092 0
M  V30 10175 C 965.857 -1.69807 -3.92873 0
M  V30 10176 C 965.183 -1.15628 -5.22048 0
M  V30 10177 C 966.483 -3.09383 -4.20808 0
M  V30 10178 H 968.177 -1.98984 -2.23709 0
M  V30 10179 H 965.723 -0.958112 -1.075 0
M  V30 10180 H 967.676 -0.521071 -4.18166 0
M  V30 10181 H 966.4 0.303399 -3.25188 0
M  V30 10182 H 965.059 -1.82783 -3.17783 0
M  V30 10183 H 964.707 -0.180888 -5.02675 0
M  V30 10184 H 964.407 -1.84822 -5.57776 0
M  V30 10185 H 965.931 -1.02683 -6.01904 0
M  V30 10186 H 967.345 -2.99642 -4.88761 0
M  V30 10187 H 965.742 -3.75923 -4.67763 0
M  V30 10188 H 966.812 -3.57486 -3.27616 0
M  V30 10189 N 968.156 1.1691 -1.05688 0
M  V30 10190 C 969.086 2.23275 -0.683402 0
M  V30 10191 C 970.067 1.6704 0.321206 0
M  V30 10192 O 971.252 1.93191 0.197691 0
M  V30 10193 C 968.382 3.47244 -0.0626006 0
M  V30 10194 C 967.336 4.16333 -0.992513 0
M  V30 10195 C 966.662 5.34182 -0.23533 0
M  V30 10196 C 967.962 4.68002 -2.31886 0
M  V30 10197 H 969.656 2.54771 -1.57264 0
M  V30 10198 H 967.202 1.2246 -0.757606 0
M  V30 10199 H 969.155 4.20874 0.210503 0
M  V30 10200 H 967.879 3.1503 0.861616 0
M  V30 10201 H 966.538 3.44622 -1.25026 0
M  V30 10202 H 966.186 4.9822 0.69181 0
M  V30 10203 H 965.886 5.81346 -0.855002 0
M  V30 10204 H 967.41 6.10592 0.0303717 0
M  V30 10205 H 968.824 5.33244 -2.10531 0
M  V30 10206 H 967.221 5.25764 -2.89296 0
M  V30 10207 H 968.291 3.84541 -2.95391 0
M  V30 10208 N 969.634 0.838594 1.33437 0
M  V30 10209 C 970.597 0.276843 2.27522 0
M  V30 10210 C 971.597 -0.554275 1.50945 0
M  V30 10211 O 972.787 -0.368107 1.70266 0
M  V30 10212 C 969.919 -0.610036 3.35397 0
M  V30 10213 H 971.112 1.10705 2.78719 0
M  V30 10214 H 968.665 0.611657 1.43835 0
M  V30 10215 H 969.4 -1.46269 2.89441 0
M  V30 10216 H 969.185 -0.0153615 3.92097 0
M  V30 10217 H 970.675 -0.996368 4.05539 0
M  V30 10218 N 971.112 -1.45937 0.595003 0
M  V30 10219 C 972.06 -2.32155 -0.143798 0
M  V30 10220 C 973.054 -1.45221 -0.872198 0
M  V30 10221 O 974.26 -1.61777 -0.789191 0
M  V30 10222 H 970.635 -0.749165 -0.0652377 0
M  V30 10223 H 972.606 -2.92264 0.602005 0
M  V30 10224 C 971.355 -3.28615 -1.13611 0
M  V30 10225 H 970.678 -3.95496 -0.585044 0
M  V30 10226 H 972.118 -3.91699 -1.62321 0
M  V30 10227 C 970.577 -2.54863 -2.20333 0
M  V30 10228 O 971.107 -2.32071 -3.27881 0
M  V30 10229 N 969.313 -2.15213 -1.95274 0
M  V30 10230 H 968.86 -2.33949 -1.07822 0
M  V30 10231 H 968.818 -1.66188 -2.66888 0
M  V30 10232 N 972.59 -0.333456 -1.54032 0
M  V30 10233 C 973.538 0.543414 -2.26163 0
M  V30 10234 C 974.532 1.11037 -1.27934 0
M  V30 10235 O 975.738 1.05727 -1.45677 0
M  V30 10236 H 972.113 0.19391 -0.726569 0
M  V30 10237 H 974.084 -0.0871052 -2.98273 0
M  V30 10238 C 972.833 1.68769 -3.03994 0
M  V30 10239 H 972.156 1.26069 -3.79403 0
M  V30 10240 H 973.596 2.27662 -3.57695 0
M  V30 10241 C 972.055 2.61117 -2.12884 0
M  V30 10242 O 972.585 3.63097 -1.71823 0
M  V30 10243 N 970.791 2.29573 -1.7817 0
M  V30 10244 H 970.338 1.46684 -2.11759 0
M  V30 10245 H 970.296 2.91622 -1.1749 0
M  V30 10246 N 974.068 1.57479 -0.061844 0
M  V30 10247 C 975.479 1.80627 0.472295 0
M  V30 10248 C 975.83 0.97496 1.70261 0
M  V30 10249 O 974.955 0.1946 2.15523 0
M  V30 10250 C 975.55 3.27608 0.863616 0
M  V30 10251 C 974.109 3.51638 1.34267 0
M  V30 10252 C 973.256 2.75412 0.323009 0
M  V30 10253 H 976.207 1.56072 -0.287634 0
M  V30 10254 H 976.228 3.39113 1.72577 0
M  V30 10255 H 975.74 3.88087 -0.0320226 0
M  V30 10256 H 973.841 2.96452 2.25714 0
M  V30 10257 H 973.954 4.60342 1.32747 0
M  V30 10258 H 972.318 2.4187 0.798175 0
M  V30 10259 H 973.101 3.38623 -0.564729 0
M  V30 10260 N 975.546 -0.211634 1.56173 0
M  V30 10261 C 976.774 -0.951184 1.83739 0
M  V30 10262 C 977.189 -1.7754 0.642252 0
M  V30 10263 O 976.546 -1.78302 -0.389174 0
M  V30 10264 C 976.597 -1.86075 3.09933 0
M  V30 10265 O 976.318 -1.06983 4.24837 0
M  V30 10266 C 977.819 -2.71337 3.50559 0
M  V30 10267 H 975.039 -0.278312 0.61056 0
M  V30 10268 H 977.583 -0.223871 2.03271 0
M  V30 10269 H 975.738 -2.54189 2.92347 0
M  V30 10270 H 976.152 -1.68815 4.9659 0
M  V30 10271 H 977.626 -3.30843 4.41868 0
M  V30 10272 H 978.103 -3.44226 2.72773 0
M  V30 10273 H 978.709 -2.0862 3.70618 0
M  V30 10274 N 977.024 -1.50153 -0.478725 0
M  V30 10275 C 977.954 -1.71384 -1.58587 0
M  V30 10276 C 978.935 -0.562705 -1.60523 0
M  V30 10277 O 980.12 -0.80101 -1.76911 0
M  V30 10278 C 977.25 -1.80094 -2.96957 0
M  V30 10279 C 976.204 -2.95218 -3.09888 0
M  V30 10280 C 975.53 -2.89063 -4.49829 0
M  V30 10281 C 976.83 -4.35841 -2.8782 0
M  V30 10282 H 978.524 -2.64081 -1.41073 0
M  V30 10283 H 976.07 -1.27081 -0.677239 0
M  V30 10284 H 978.023 -1.93531 -3.74331 0
M  V30 10285 H 976.747 -0.840131 -3.1561 0
M  V30 10286 H 975.406 -2.81419 -2.34944 0
M  V30 10287 H 975.054 -1.90844 -4.6539 0
M  V30 10288 H 974.754 -3.66345 -4.59418 0
M  V30 10289 H 976.278 -3.04539 -5.29234 0
M  V30 10290 H 977.692 -4.50205 -3.54948 0
M  V30 10291 H 976.089 -5.14515 -3.0886 0
M  V30 10292 H 977.159 -4.48739 -1.83742 0
M  V30 10293 N 978.502 0.731368 -1.39602 0
M  V30 10294 C 979.779 1.48308 -1.27531 0
M  V30 10295 C 980.159 2.10795 0.113482 0
M  V30 10296 O 979.507 1.98886 1.12501 0
M  V30 10297 C 979.717 2.53156 -2.40235 0
M  V30 10298 C 981.065 3.19436 -2.79725 0
M  V30 10299 O 982.089 2.6347 -2.39712 0
M  V30 10300 O 980.948 4.20714 -3.48801 0
M  V30 10301 H 978.042 0.658753 -0.499973 0
M  V30 10302 H 980.588 0.764884 -1.51485 0
M  V30 10303 H 979.36 2.05387 -3.33064 0
M  V30 10304 H 978.983 3.3253 -2.17966 0
M  V30 10305 N 979.98 1.24838 0.961938 0
M  V30 10306 C 980.943 1.04674 2.03902 0
M  V30 10307 C 981.943 0.00204674 1.608 0
M  V30 10308 O 983.133 0.243555 1.72489 0
M  V30 10309 C 980.265 0.587736 3.35795 0
M  V30 10310 H 981.458 2.00278 2.23223 0
M  V30 10311 H 979.011 1.07142 1.138 0
M  V30 10312 H 979.746 -0.371244 3.22168 0
M  V30 10313 H 979.531 1.34182 3.68426 0
M  V30 10314 H 981.021 0.467867 4.14971 0
M  V30 10315 N 981.458 -1.16348 1.06306 0
M  V30 10316 C 982.391 -2.19667 0.618197 0
M  V30 10317 C 983.369 -1.58586 -0.359078 0
M  V30 10318 O 984.553 -1.86585 -0.268023 0
M  V30 10319 C 981.68 -3.3857 -0.0937091 0
M  V30 10320 C 980.726 -4.18139 0.840339 0
M  V30 10321 S 981.559 -4.81879 2.33565 0
M  V30 10322 C 982.715 -6.04161 1.63524 0
M  V30 10323 H 982.948 -2.57063 1.49352 0
M  V30 10324 H 980.481 -1.27141 0.876046 0
M  V30 10325 H 982.439 -4.07465 -0.498227 0
M  V30 10326 H 981.1 -2.9954 -0.94523 0
M  V30 10327 H 980.293 -5.03172 0.288781 0
M  V30 10328 H 979.895 -3.54739 1.18474 0
M  V30 10329 H 982.187 -6.70935 0.940904 0
M  V30 10330 H 983.13 -6.63866 2.46347 0
M  V30 10331 H 983.538 -5.53323 1.11778 0
M  V30 10332 N 982.937 -0.845659 -1.3299 0
M  V30 10333 C 984.165 -0.45835 -2.01759 0
M  V30 10334 C 984.58 0.94239 -1.63598 0
M  V30 10335 O 983.937 1.61353 -0.852738 0
M  V30 10336 C 983.988 -0.577311 -3.5686 0
M  V30 10337 O 983.709 -1.92287 -3.93646 0
M  V30 10338 C 985.21 -0.187839 -4.42902 0
M  V30 10339 H 982.43 -0.181165 -0.646081 0
M  V30 10340 H 984.974 -1.14011 -1.6977 0
M  V30 10341 H 983.129 0.0566146 -3.87359 0
M  V30 10342 H 983.543 -1.91322 -4.88361 0
M  V30 10343 H 985.017 -0.322105 -5.51059 0
M  V30 10344 H 985.494 0.870896 -4.30479 0
M  V30 10345 H 986.1 -0.796473 -4.17776 0
M  V30 10346 N 984.415 1.45619 -0.602734 0
M  V30 10347 C 985.325 2.34288 0.120902 0
M  V30 10348 C 986.341 1.50952 0.865414 0
M  V30 10349 O 987.517 1.83768 0.824094 0
M  V30 10350 C 984.582 3.28489 1.10888 0
M  V30 10351 C 983.643 4.2773 0.366853 0
M  V30 10352 C 982.876 5.17429 1.30776 0
M  V30 10353 O 983.099 5.10459 2.54535 0
M  V30 10354 O 982.033 5.96459 0.807464 0
M  V30 10355 H 985.859 2.97559 -0.60765 0
M  V30 10356 H 983.444 1.44922 -0.363019 0
M  V30 10357 H 985.326 3.86549 1.67803 0
M  V30 10358 H 984.001 2.67789 1.81854 0
M  V30 10359 H 982.908 3.73299 -0.244643 0
M  V30 10360 H 984.241 4.91271 -0.302226 0
M  V30 10361 N 985.893 0.34162 1.53853 0
M  V30 10362 C 987.142 -0.256475 2.00063 0
M  V30 10363 C 987.455 -1.51811 1.23341 0
M  V30 10364 O 988.661 -2.19332 1.60017 0
M  V30 10365 C 987.117 -0.507567 3.56303 0
M  V30 10366 C 986.725 0.738052 4.41879 0
M  V30 10367 C 988.469 -1.06463 4.10933 0
M  V30 10368 C 986.376 0.457865 5.89625 0
M  V30 10369 H 985.306 -0.0996143 0.747391 0
M  V30 10370 H 987.957 0.456649 1.77727 0
M  V30 10371 H 986.339 -1.28134 3.74697 0
M  V30 10372 H 987.513 1.51278 4.3526 0
M  V30 10373 H 985.828 1.21661 3.98231 0
M  V30 10374 H 988.425 -1.28918 5.18926 0
M  V30 10375 H 988.768 -2.01956 3.64032 0
M  V30 10376 H 989.301 -0.351601 3.96243 0
M  V30 10377 H 986.04 1.38247 6.40756 0
M  V30 10378 H 985.56 -0.278818 5.99152 0
M  V30 10379 H 987.239 0.0743914 6.46957 0
M  V30 10380 N 987.371 -1.57444 0.0701946 0
M  V30 10381 C 988.321 -2.09154 -0.90767 0
M  V30 10382 C 989.305 -1.00087 -1.25982 0
M  V30 10383 O 990.497 -1.26397 -1.23906 0
M  V30 10384 C 987.626 -2.65544 -2.17581 0
M  V30 10385 C 986.712 -3.81613 -1.85021 0
M  V30 10386 N 987.103 -4.90641 -1.22904 0
M  V30 10387 C 985.401 -3.90878 -2.1478 0
M  V30 10388 C 986.102 -5.71511 -1.084 0
M  V30 10389 N 985.078 -5.1973 -1.59318 0
M  V30 10390 H 988.88 -2.90839 -0.423051 0
M  V30 10391 H 986.394 -1.61848 -0.13374 0
M  V30 10392 H 988.391 -3.00904 -2.88552 0
M  V30 10393 H 987.051 -1.85304 -2.66632 0
M  V30 10394 H 988.062 -5.1004 -0.898878 0
M  V30 10395 H 984.739 -3.21611 -2.66219 0
M  V30 10396 H 986.129 -6.69214 -0.600183 0
M  V30 10397 N 988.849 0.203349 -1.56283 0
M  V30 10398 C 989.759 1.27266 -1.9708 0
M  V30 10399 C 990.775 1.50268 -0.877236 0
M  V30 10400 O 991.951 1.63044 -1.18231 0
M  V30 10401 C 989.016 2.59871 -2.29495 0
M  V30 10402 C 988.077 2.45012 -3.52516 0
M  V30 10403 C 987.31 3.71293 -3.83376 0
M  V30 10404 O 987.533 4.75106 -3.15643 0
M  V30 10405 O 986.467 3.67316 -4.76826 0
M  V30 10406 H 990.293 0.956461 -2.88246 0
M  V30 10407 H 987.878 0.407688 -1.4373 0
M  V30 10408 H 989.76 3.38152 -2.51458 0
M  V30 10409 H 988.435 2.91135 -1.415 0
M  V30 10410 H 987.342 1.6487 -3.35811 0
M  V30 10411 H 988.675 2.18683 -4.40952 0
M  V30 10412 N 990.327 1.50405 0.470755 0
M  V30 10413 C 991.557 1.64928 1.24428 0
M  V30 10414 C 991.965 0.332139 1.86262 0
M  V30 10415 O 991.308 -0.695919 1.70008 0
M  V30 10416 C 991.37 2.6829 2.39293 0
M  V30 10417 C 991.034 4.11835 1.98093 0
M  V30 10418 C 992.031 4.97693 1.50326 0
M  V30 10419 C 989.716 4.57753 2.06803 0
M  V30 10420 C 991.71 6.27516 1.11813 0
M  V30 10421 C 989.397 5.87582 1.67902 0
M  V30 10422 C 990.395 6.72289 1.20485 0
M  V30 10423 O 990.083 7.99694 0.821219 0
M  V30 10424 H 989.815 0.557418 0.382442 0
M  V30 10425 H 992.369 1.97382 0.568292 0
M  V30 10426 H 990.599 2.31079 3.10063 0
M  V30 10427 H 992.288 2.7203 3.01255 0
M  V30 10428 H 993.054 4.63434 1.43018 0
M  V30 10429 H 988.933 3.91966 2.42659 0
M  V30 10430 H 992.477 6.93586 0.747317 0
M  V30 10431 H 988.374 6.21362 1.74869 0
M  V30 10432 H 989.142 8.12968 0.950038 0
M  V30 10433 N 991.805 -0.723954 1.39988 0
M  V30 10434 C 992.753 -1.85938 1.39749 0
M  V30 10435 C 993.747 -1.67085 0.279112 0
M  V30 10436 O 994.953 -1.74291 0.44972 0
M  V30 10437 H 991.328 -0.612246 0.436644 0
M  V30 10438 H 993.299 -1.83255 2.355 0
M  V30 10439 C 992.048 -3.23726 1.26874 0
M  V30 10440 H 991.371 -3.38835 2.12206 0
M  V30 10441 H 992.811 -4.03332 1.30765 0
M  V30 10442 C 991.27 -3.36893 -0.0218317 0
M  V30 10443 O 991.8 -3.89363 -0.987905 0
M  V30 10444 N 990.006 -2.90465 -0.0885618 0
M  V30 10445 H 989.553 -2.47954 0.698314 0
M  V30 10446 H 989.511 -2.99654 -0.951557 0
M  V30 10447 N 993.283 -1.25346 -0.955304 0
M  V30 10448 C 994.215 -1.0146 -2.0552 0
M  V30 10449 C 995.228 0.0202256 -1.62787 0
M  V30 10450 O 996.417 -0.218251 -1.77161 0
M  V30 10451 C 993.517 -0.511727 -3.35014 0
M  V30 10452 C 992.69 -1.61256 -4.0659 0
M  V30 10453 C 991.749 -1.11017 -5.14356 0
M  V30 10454 O 990.775 -1.80443 -5.39842 0
M  V30 10455 N 991.977 0.0489001 -5.80479 0
M  V30 10456 H 994.742 -1.96166 -2.26581 0
M  V30 10457 H 992.303 -1.16543 -1.12381 0
M  V30 10458 H 994.295 -0.160123 -4.04383 0
M  V30 10459 H 992.865 0.341377 -3.1073 0
M  V30 10460 H 992.085 -2.13577 -3.31328 0
M  V30 10461 H 993.373 -2.35213 -4.51168 0
M  V30 10462 H 992.771 0.629021 -5.62192 0
M  V30 10463 H 991.328 0.341542 -6.50905 0
M  V30 10464 N 994.761 1.15782 -1.06922 0
M  V30 10465 C 996.038 1.8253 -0.703 0
M  V30 10466 C 996.418 1.94733 0.814994 0
M  V30 10467 O 995.766 1.49537 1.72774 0
M  V30 10468 C 995.976 3.19145 -1.41234 0
M  V30 10469 C 997.324 3.94839 -1.56164 0
M  V30 10470 O 998.348 3.28685 -1.37277 0
M  V30 10471 O 997.207 5.13436 -1.87205 0
M  V30 10472 H 994.301 0.788425 -0.24963 0
M  V30 10473 H 996.847 1.22931 -1.16988 0
M  V30 10474 H 995.619 3.05336 -2.44715 0
M  V30 10475 H 995.242 3.86427 -0.935959 0
M  V30 10476 N 996.239 0.8527 1.3254 0
M  V30 10477 C 997.169 0.311234 2.31416 0
M  V30 10478 C 998.15 -0.588557 1.59593 0
M  V30 10479 O 999.335 -0.509211 1.87405 0
M  V30 10480 C 996.465 -0.502892 3.4364 0
M  V30 10481 C 995.419 0.302296 4.26931 0
M  V30 10482 C 994.745 -0.636445 5.30899 0
M  V30 10483 C 996.045 1.52697 4.99481 0
M  V30 10484 H 997.739 1.13742 2.76953 0
M  V30 10485 H 995.285 0.548389 1.33149 0
M  V30 10486 H 997.238 -0.892092 4.11849 0
M  V30 10487 H 995.962 -1.36242 2.96826 0
M  V30 10488 H 994.621 0.673226 3.60365 0
M  V30 10489 H 994.269 -1.49277 4.80339 0
M  V30 10490 H 993.969 -0.101716 5.87512 0
M  V30 10491 H 995.493 -1.02286 6.01972 0
M  V30 10492 H 996.907 1.21017 5.60382 0
M  V30 10493 H 995.304 1.9995 5.65809 0
M  V30 10494 H 996.374 2.28929 4.27457 0
M  V30 10495 N 997.718 -1.45297 0.610449 0
M  V30 10496 C 998.967 -2.0143 0.104323 0
M  V30 10497 C 999.28 -1.48431 -1.27388 0
M  V30 10498 O 1000.49 -1.96558 -1.87289 0
M  V30 10499 C 998.942 -3.59644 0.135812 0
M  V30 10500 C 998.55 -4.2164 1.51405 0
M  V30 10501 C 1000.29 -4.2333 -0.314922 0
M  V30 10502 C 998.201 -5.72015 1.50176 0
M  V30 10503 H 997.131 -0.753176 0.035233 0
M  V30 10504 H 999.782 -1.66738 0.7662 0
M  V30 10505 H 998.164 -3.91538 -0.592773 0
M  V30 10506 H 999.338 -4.01315 2.26457 0
M  V30 10507 H 997.653 -3.70159 1.90712 0
M  V30 10508 H 1000.25 -5.33597 -0.343335 0
M  V30 10509 H 1000.59 -3.94206 -1.33817 0
M  V30 10510 H 1001.13 -3.96163 0.360489 0
M  V30 10511 H 997.865 -6.05842 2.50271 0
M  V30 10512 H 997.385 -5.94523 0.793869 0
M  V30 10513 H 999.064 -6.35266 1.22665 0
M  V30 10514 N 999.196 -0.349774 -1.5367 0
M  V30 10515 C 1000.61 0.00191293 -1.596 0
M  V30 10516 C 1000.81 1.48175 -1.36552 0
M  V30 10517 O 999.868 2.24129 -1.16285 0
M  V30 10518 C 1001.18 -0.439848 -2.97466 0
M  V30 10519 C 1002.73 -0.392721 -3.10526 0
M  V30 10520 C 1003.2 -0.810047 -4.5078 0
M  V30 10521 N 1004.69 -0.764478 -4.56848 0
M  V30 10522 C 1005.43 -1.05927 -5.63531 0
M  V30 10523 N 1004.93 -1.42253 -6.78038 0
M  V30 10524 N 1006.72 -0.983098 -5.53436 0
M  V30 10525 H 998.87 -1.31364 -1.66905 0
M  V30 10526 H 1001.13 -0.535908 -0.781989 0
M  V30 10527 H 1000.84 -1.47189 -3.19419 0
M  V30 10528 H 1000.71 0.181735 -3.76762 0
M  V30 10529 H 1003.1 0.630161 -2.88293 0
M  V30 10530 H 1003.18 -1.04959 -2.33275 0
M  V30 10531 H 1002.82 -1.83097 -4.73749 0
M  V30 10532 H 1002.75 -0.130591 -5.26438 0
M  V30 10533 H 1005.25 -0.496637 -3.74622 0
M  V30 10534 H 1005.56 -1.63215 -7.55368 0
M  V30 10535 H 1003.9 -1.46104 -6.79469 0
M  V30 10536 H 1007.09 -0.698601 -4.62858 0
M  V30 10537 H 1007.27 -1.21618 -6.36485 0
M  V30 10538 N 1000.67 1.57404 -0.0785433 0
M  V30 10539 C 1001.62 2.13104 0.88631 0
M  V30 10540 C 1002.59 1.04527 1.29086 0
M  V30 10541 O 1003.78 1.32226 1.37553 0
M  V30 10542 C 1000.92 2.70252 2.14611 0
M  V30 10543 C 1000.03 3.93007 1.79358 0
M  V30 10544 C 999.164 4.38376 3 0
M  V30 10545 C 998.203 5.53761 2.60796 0
M  V30 10546 N 997.34 5.94058 3.74219 0
M  V30 10547 H 1002.18 2.95243 0.404452 0
M  V30 10548 H 999.717 1.45894 0.187982 0
M  V30 10549 H 1001.67 3.01497 2.88367 0
M  V30 10550 H 1000.3 1.90868 2.60326 0
M  V30 10551 H 999.357 3.68181 0.956384 0
M  V30 10552 H 1000.67 4.76795 1.4652 0
M  V30 10553 H 999.823 4.71317 3.82027 0
M  V30 10554 H 998.562 3.53455 3.36037 0
M  V30 10555 H 997.567 5.20464 1.77192 0
M  V30 10556 H 998.792 6.40419 2.25922 0
M  V30 10557 H 996.738 5.12085 4.10005 0
M  V30 10558 H 996.655 6.72602 3.45171 0
M  V30 10559 H 997.923 6.31624 4.56805 0
M  V30 10560 N 1002.15 -0.195058 1.56388 0
M  V30 10561 C 1003.4 -0.913636 1.8027 0
M  V30 10562 C 1003.72 -1.83791 0.651606 0
M  V30 10563 O 1002.99 -1.931 -0.330057 0
M  V30 10564 H 1001.57 -0.34036 0.664954 0
M  V30 10565 H 1004.23 -0.200559 1.93865 0
M  V30 10566 H 1003.33 -1.50473 2.7343 0
M  V30 10567 N 1003.63 -1.50653 -0.462772 0
M  V30 10568 C 1004.56 -1.66286 -1.5774 0
M  V30 10569 C 1005.57 -0.544094 -1.53439 0
M  V30 10570 O 1006.76 -0.817566 -1.58676 0
M  V30 10571 C 1003.86 -1.63893 -2.96635 0
M  V30 10572 C 1003.04 -2.91939 -3.25716 0
M  V30 10573 C 1002.1 -2.82076 -4.44206 0
M  V30 10574 O 1001.12 -3.56032 -4.44106 0
M  V30 10575 N 1002.32 -1.96196 -5.4634 0
M  V30 10576 H 1005.09 -2.6243 -1.44742 0
M  V30 10577 H 1002.65 -1.48221 -0.651326 0
M  V30 10578 H 1004.64 -1.54897 -3.73884 0
M  V30 10579 H 1003.21 -0.75449 -3.03358 0
M  V30 10580 H 1002.43 -3.14998 -2.37002 0
M  V30 10581 H 1003.72 -3.7675 -3.4196 0
M  V30 10582 H 1003.12 -1.35439 -5.49247 0
M  V30 10583 H 1001.67 -1.93097 -6.2254 0
M  V30 10584 N 1005.11 0.71652 -1.4037 0
M  V30 10585 C 1006.07 1.81231 -1.40313 0
M  V30 10586 C 1007.07 1.58032 -0.297087 0
M  V30 10587 O 1008.26 1.65091 -0.555944 0
M  V30 10588 C 1005.39 3.19308 -1.19395 0
M  V30 10589 H 1006.59 1.8268 -2.3784 0
M  V30 10590 H 1004.14 0.922062 -1.26205 0
M  V30 10591 H 1004.87 3.2351 -0.226252 0
M  V30 10592 H 1004.66 3.37546 -1.99512 0
M  V30 10593 H 1006.15 3.99339 -1.22141 0
M  V30 10594 N 1006.59 1.25851 0.948643 0
M  V30 10595 C 1007.53 1.06559 2.06756 0
M  V30 10596 C 1008.53 -0.00528632 1.69399 0
M  V30 10597 O 1009.73 0.150806 1.79367 0
M  V30 10598 H 1006.11 0.327689 0.676848 0
M  V30 10599 H 1008.08 2.01401 2.20182 0
M  V30 10600 C 1006.83 0.707392 3.40428 0
M  V30 10601 H 1006.15 1.52324 3.69645 0
M  V30 10602 H 1007.59 0.612142 4.19558 0
M  V30 10603 C 1006.05 -0.58697 3.31747 0
M  V30 10604 O 1006.58 -1.62741 3.67258 0
M  V30 10605 N 1004.79 -0.574828 2.84858 0
M  V30 10606 H 1004.33 0.272236 2.56157 0
M  V30 10607 H 1004.29 -1.441 2.79432 0
M  V30 10608 N 1008.06 -1.15214 1.07534 0
M  V30 10609 C 1009.01 -2.20013 0.697337 0
M  V30 10610 C 1009.98 -1.6314 -0.312168 0
M  V30 10611 O 1011.17 -1.89768 -0.198196 0
M  V30 10612 C 1008.31 -3.44945 0.103293 0
M  V30 10613 C 1007.42 -4.16009 1.1645 0
M  V30 10614 C 1006.55 -5.28496 0.535261 0
M  V30 10615 C 1005.59 -5.9138 1.57912 0
M  V30 10616 N 1004.73 -6.95335 0.972332 0
M  V30 10617 H 1009.57 -2.51698 1.59538 0
M  V30 10618 H 1007.11 -1.2361 0.797431 0
M  V30 10619 H 1009.07 -4.16397 -0.258766 0
M  V30 10620 H 1007.7 -3.13772 -0.758096 0
M  V30 10621 H 1006.75 -3.43035 1.64411 0
M  V30 10622 H 1008.06 -4.58853 1.9559 0
M  V30 10623 H 1007.21 -6.06579 0.120942 0
M  V30 10624 H 1005.95 -4.8685 -0.287889 0
M  V30 10625 H 1004.96 -5.12008 2.0032 0
M  V30 10626 H 1006.18 -6.35103 2.40459 0
M  V30 10627 H 1004.13 -6.55779 0.170119 0
M  V30 10628 H 1004.05 -7.36616 1.70095 0
M  V30 10629 H 1005.31 -7.77312 0.583577 0
M  V30 10630 N 1009.54 -0.859717 -1.32086 0
M  V30 10631 C 1010.79 -0.466271 -1.97367 0
M  V30 10632 C 1011.12 0.976728 -1.6785 0
M  V30 10633 O 1010.4 1.68618 -0.969449 0
M  V30 10634 C 1010.68 -0.711851 -3.52994 0
M  V30 10635 C 1010.53 -2.20364 -3.92122 0
M  V30 10636 C 1011.85 -0.17156 -4.39765 0
M  V30 10637 H 1008.97 -0.170883 -0.716916 0
M  V30 10638 H 1011.61 -1.07907 -1.56384 0
M  V30 10639 H 1009.76 -0.190258 -3.88034 0
M  V30 10640 H 1011.43 -2.7917 -3.67236 0
M  V30 10641 H 1009.68 -2.68019 -3.41099 0
M  V30 10642 H 1010.35 -2.32615 -5.00594 0
M  V30 10643 H 1012.82 -0.617665 -4.1149 0
M  V30 10644 H 1011.7 -0.372921 -5.47632 0
M  V30 10645 H 1011.96 0.925959 -4.32294 0
M  V30 10646 N 1011.02 1.44971 -0.618145 0
M  V30 10647 C 1011.97 2.30606 0.09449 0
M  V30 10648 C 1012.94 1.42725 0.849633 0
M  V30 10649 O 1014.12 1.71643 0.833266 0
M  V30 10650 C 1011.26 3.27803 1.07886 0
M  V30 10651 C 1010.38 4.30787 0.323488 0
M  V30 10652 C 1009.51 5.15085 1.29851 0
M  V30 10653 C 1008.55 6.09788 0.531561 0
M  V30 10654 N 1007.69 6.86829 1.4564 0
M  V30 10655 H 1012.53 2.91008 -0.641738 0
M  V30 10656 H 1010.06 1.43391 -0.328259 0
M  V30 10657 H 1012.02 3.82631 1.66281 0
M  V30 10658 H 1010.65 2.69131 1.78237 0
M  V30 10659 H 1009.7 3.78536 -0.376164 0
M  V30 10660 H 1011.02 4.98044 -0.274443 0
M  V30 10661 H 1010.17 5.74365 1.95421 0
M  V30 10662 H 1008.91 4.4787 1.93037 0
M  V30 10663 H 1007.91 5.49628 -0.137702 0
M  V30 10664 H 1009.14 6.79033 -0.0953993 0
M  V30 10665 H 1007.08 6.22295 2.07571 0
M  V30 10666 H 1007 7.50477 0.912167 0
M  V30 10667 H 1008.27 7.50642 2.10134 0
M  V30 10668 N 1012.5 0.357919 1.53482 0
M  V30 10669 C 1013.45 -0.49217 2.25491 0
M  V30 10670 C 1014.42 -1.08382 1.25867 0
M  V30 10671 O 1015.6 -1.11775 1.54632 0
M  V30 10672 C 1012.74 -1.6299 3.04185 0
M  V30 10673 C 1011.85 -1.06416 4.18688 0
M  V30 10674 C 1010.99 -2.17037 4.84839 0
M  V30 10675 C 1010.03 -1.57889 5.91386 0
M  V30 10676 N 1009.16 -2.6231 6.51259 0
M  V30 10677 H 1014 0.128412 2.97723 0
M  V30 10678 H 1011.54 0.0751423 1.46908 0
M  V30 10679 H 1013.5 -2.29993 3.48079 0
M  V30 10680 H 1012.13 -2.22125 2.34223 0
M  V30 10681 H 1011.18 -0.284635 3.79334 0
M  V30 10682 H 1012.49 -0.591654 4.95279 0
M  V30 10683 H 1011.65 -2.91876 5.31877 0
M  V30 10684 H 1010.39 -2.67636 4.07703 0
M  V30 10685 H 1009.39 -0.815605 5.43717 0
M  V30 10686 H 1010.62 -1.08123 6.70437 0
M  V30 10687 H 1008.56 -3.12137 5.7698 0
M  V30 10688 H 1008.48 -2.19724 7.23365 0
M  V30 10689 H 1009.75 -3.36875 7.02948 0
M  V30 10690 N 1013.98 -1.5736 0.0868897 0
M  V30 10691 C 1014.91 -2.16596 -0.872252 0
M  V30 10692 C 1015.89 -1.09706 -1.29995 0
M  V30 10693 O 1017.07 -1.37808 -1.36831 0
M  V30 10694 C 1014.2 -2.73972 -2.1344 0
M  V30 10695 C 1013.16 -3.86163 -1.8456 0
M  V30 10696 C 1012.48 -4.30206 -3.17533 0
M  V30 10697 C 1013.78 -5.0973 -1.13899 0
M  V30 10698 H 1015.48 -2.96995 -0.378738 0
M  V30 10699 H 1013.02 -1.42861 -0.18073 0
M  V30 10700 H 1014.98 -3.14062 -2.80968 0
M  V30 10701 H 1013.7 -1.90817 -2.6506 0
M  V30 10702 H 1012.36 -3.466 -1.19432 0
M  V30 10703 H 1012.01 -3.43951 -3.67024 0
M  V30 10704 H 1011.71 -5.05841 -2.98996 0
M  V30 10705 H 1013.23 -4.72922 -3.86234 0
M  V30 10706 H 1014.64 -5.4704 -1.71523 0
M  V30 10707 H 1013.04 -5.90741 -1.05569 0
M  V30 10708 H 1014.11 -4.8475 -0.120432 0
M  V30 10709 N 1015.45 0.186762 -1.56489 0
M  V30 10710 C 1016.68 0.925916 -1.85584 0
M  V30 10711 C 1017.1 1.75708 -0.671446 0
M  V30 10712 O 1016.46 1.7728 0.379687 0
M  V30 10713 C 1016.51 1.79107 -3.12975 0
M  V30 10714 O 1015.61 2.89088 -2.94112 0
M  V30 10715 H 1014.96 0.260275 -0.610863 0
M  V30 10716 H 1017.49 0.189561 -2.0372 0
M  V30 10717 H 1017.5 2.19408 -3.43983 0
M  V30 10718 H 1016.17 1.18044 -3.98796 0
M  V30 10719 H 1014.75 2.52482 -2.74422 0
M  V30 10720 N 1016.93 1.50896 0.454776 0
M  V30 10721 C 1018.18 1.61936 1.20248 0
M  V30 10722 C 1018.49 0.332983 1.92745 0
M  V30 10723 O 1019.7 0.322512 2.69578 0
M  V30 10724 C 1018.16 2.85916 2.18587 0
M  V30 10725 C 1017.76 4.21492 1.51818 0
M  V30 10726 C 1019.51 3.06307 2.93898 0
M  V30 10727 C 1017.42 5.3664 2.48539 0
M  V30 10728 H 1016.35 0.603098 0.452536 0
M  V30 10729 H 1019 1.77345 0.471257 0
M  V30 10730 H 1017.38 2.64101 2.95071 0
M  V30 10731 H 1018.55 4.53623 0.810123 0
M  V30 10732 H 1016.87 4.06837 0.887265 0
M  V30 10733 H 1019.46 3.89507 3.66317 0
M  V30 10734 H 1019.81 2.18683 3.54236 0
M  V30 10735 H 1020.34 3.2838 2.24525 0
M  V30 10736 H 1017.08 6.26469 1.92916 0
M  V30 10737 H 1016.6 5.08907 3.17449 0
M  V30 10738 H 1018.28 5.67881 3.10033 0
M  V30 10739 N 1018.41 -0.709066 1.40748 0
M  V30 10740 C 1019.66 -1.47119 1.39585 0
M  V30 10741 C 1019.99 -1.942 0.000245323 0
M  V30 10742 O 1019.26 -1.68609 -0.969593 0
M  V30 10743 C 1019.55 -2.69266 2.39099 0
M  V30 10744 C 1019.4 -2.28037 3.8771 0
M  V30 10745 C 1020.72 -3.71438 2.36055 0
M  V30 10746 H 1017.84 -0.533632 0.508336 0
M  V30 10747 H 1020.48 -0.808718 1.7193 0
M  V30 10748 H 1018.63 -3.25788 2.11647 0
M  V30 10749 H 1020.3 -1.76946 4.26014 0
M  V30 10750 H 1018.55 -1.59966 4.03229 0
M  V30 10751 H 1019.22 -3.15621 4.52866 0
M  V30 10752 H 1021.69 -3.24559 2.60385 0
M  V30 10753 H 1020.57 -4.54532 3.07721 0
M  V30 10754 H 1020.83 -4.20193 1.37443 0
M  V30 10755 N 1019.89 -1.26353 -0.941956 0
M  V30 10756 C 1021.14 -1.12017 -1.69056 0
M  V30 10757 C 1021.47 0.335856 -1.91274 0
M  V30 10758 O 1020.74 1.24677 -1.49285 0
M  V30 10759 C 1021.03 -1.88889 -3.06583 0
M  V30 10760 C 1020.88 -3.42394 -2.91696 0
M  V30 10761 C 1022.2 -1.68209 -4.06686 0
M  V30 10762 H 1019.32 -0.408311 -0.613556 0
M  V30 10763 H 1021.96 -1.55339 -1.09407 0
M  V30 10764 H 1020.11 -1.5207 -3.57501 0
M  V30 10765 H 1021.78 -3.88962 -2.48005 0
M  V30 10766 H 1020.02 -3.69459 -2.27338 0
M  V30 10767 H 1020.7 -3.91408 -3.89235 0
M  V30 10768 H 1023.17 -2.00286 -3.64726 0
M  V30 10769 H 1022.05 -2.24412 -5.00929 0
M  V30 10770 H 1022.31 -0.626474 -4.37639 0
M  V30 10771 N 1021.37 1.14642 -1.08144 0
M  V30 10772 C 1022.59 1.90025 -0.830972 0
M  V30 10773 C 1023.02 1.77904 0.610879 0
M  V30 10774 O 1022.38 1.11735 1.42776 0
M  V30 10775 C 1022.42 3.38085 -1.25422 0
M  V30 10776 O 1021.53 4.10412 -0.404486 0
M  V30 10777 H 1020.87 0.591327 -0.302041 0
M  V30 10778 H 1023.4 1.4513 -1.44216 0
M  V30 10779 H 1023.41 3.88894 -1.23391 0
M  V30 10780 H 1022.08 3.46226 -2.30435 0
M  V30 10781 H 1020.66 3.69693 -0.487987 0
M  V30 10782 N 1022.85 0.866709 1.31628 0
M  V30 10783 C 1023.78 0.335762 2.31073 0
M  V30 10784 C 1024.76 -0.571597 1.60209 0
M  V30 10785 O 1025.94 -0.489306 1.87935 0
M  V30 10786 C 1023.07 -0.466416 3.44154 0
M  V30 10787 C 1022.03 0.347561 4.26586 0
M  V30 10788 C 1021.35 -0.5801 5.31544 0
M  V30 10789 C 1022.65 1.57986 4.97833 0
M  V30 10790 H 1024.35 1.16673 2.75731 0
M  V30 10791 H 1021.89 0.56248 1.3256 0
M  V30 10792 H 1023.84 -0.84836 4.12772 0
M  V30 10793 H 1022.57 -1.33086 2.98254 0
M  V30 10794 H 1021.23 0.71141 3.59631 0
M  V30 10795 H 1020.88 -1.44174 4.81895 0
M  V30 10796 H 1020.58 -0.0393965 5.87587 0
M  V30 10797 H 1022.1 -0.958958 6.03023 0
M  V30 10798 H 1023.51 1.26954 5.59067 0
M  V30 10799 H 1021.91 2.05939 5.63657 0
M  V30 10800 H 1022.98 2.3345 4.25005 0
M  V30 10801 N 1024.32 -1.44642 0.625825 0
M  V30 10802 C 1025.57 -2.01695 0.127948 0
M  V30 10803 C 1025.89 -1.49439 -1.25271 0
M  V30 10804 O 1025.16 -0.695873 -1.83124 0
M  V30 10805 H 1023.74 -0.745685 0.0443096 0
M  V30 10806 H 1026.4 -1.7721 0.811332 0
M  V30 10807 H 1025.5 -3.11966 0.0915933 0
M  V30 10808 N 1025.8 -0.366053 -1.5329 0
M  V30 10809 C 1027.03 0.224236 -2.05681 0
M  V30 10810 C 1027.44 1.42412 -1.23952 0
M  V30 10811 O 1026.8 1.80334 -0.280309 0
M  V30 10812 C 1026.85 0.617266 -3.56191 0
M  V30 10813 O 1026.57 -0.534931 -4.34822 0
M  V30 10814 C 1028.07 1.26589 -4.24841 0
M  V30 10815 H 1025.29 0.0392928 -0.669849 0
M  V30 10816 H 1027.84 -0.52456 -1.97658 0
M  V30 10817 H 1025.99 1.31598 -3.64364 0
M  V30 10818 H 1026.41 -0.217123 -5.2405 0
M  V30 10819 H 1027.88 1.49146 -5.31469 0
M  V30 10820 H 1028.36 2.22633 -3.78591 0
M  V30 10821 H 1028.96 0.6086 -4.20923 0
M  V30 10822 N 1027.28 1.57312 -0.0952337 0
M  V30 10823 C 1028.53 1.93974 0.567319 0
M  V30 10824 C 1028.85 0.977805 1.68713 0
M  V30 10825 O 1028.12 0.0298944 1.95877 0
M  V30 10826 H 1026.7 0.71612 0.212558 0
M  V30 10827 H 1029.36 1.94254 -0.158598 0
M  V30 10828 H 1028.46 2.964 0.977423 0
M  V30 10829 N 1028.76 -0.17846 1.56586 0
M  V30 10830 C 1030.17 -0.529957 1.50544 0
M  V30 10831 C 1030.37 -1.85015 0.798237 0
M  V30 10832 O 1029.43 -2.49983 0.355639 0
M  V30 10833 C 1030.74 -0.569314 2.95261 0
M  V30 10834 C 1032.29 -0.657008 3.06027 0
M  V30 10835 C 1032.77 -0.727323 4.52188 0
M  V30 10836 N 1034.26 -0.790406 4.56406 0
M  V30 10837 C 1034.99 -0.865265 5.66834 0
M  V30 10838 N 1034.49 -0.901398 6.86911 0
M  V30 10839 N 1036.28 -0.903736 5.54787 0
M  V30 10840 H 1028.43 0.687304 2.00972 0
M  V30 10841 H 1030.69 0.246936 0.915274 0
M  V30 10842 H 1030.4 0.331934 3.5013 0
M  V30 10843 H 1030.27 -1.41828 3.4952 0
M  V30 10844 H 1032.66 -1.54868 2.51197 0
M  V30 10845 H 1032.74 0.218495 2.54865 0
M  V30 10846 H 1032.39 0.160067 5.07648 0
M  V30 10847 H 1032.32 -1.61887 5.01099 0
M  V30 10848 H 1034.81 -0.771054 3.6995 0
M  V30 10849 H 1035.12 -0.959494 7.6682 0
M  V30 10850 H 1033.47 -0.869795 6.89536 0
M  V30 10851 H 1036.66 -0.872459 4.59898 0
M  V30 10852 H 1036.83 -0.958615 6.4087 0
M  V30 10853 N 1030.24 -1.51135 -0.446768 0
M  V30 10854 C 1031.46 -1.67411 -1.22427 0
M  V30 10855 C 1031.89 -0.367009 -1.84485 0
M  V30 10856 O 1031.24 0.67185 -1.68392 0
M  V30 10857 C 1031.29 -2.78473 -2.29096 0
M  V30 10858 O 1030.4 -2.41419 -3.34351 0
M  V30 10859 H 1029.74 -0.558512 -0.359111 0
M  V30 10860 H 1032.27 -1.97648 -0.5288 0
M  V30 10861 H 1032.28 -3.02277 -2.7403 0
M  V30 10862 H 1030.95 -3.73326 -1.83304 0
M  V30 10863 H 1029.53 -2.28152 -2.9496 0
M  V30 10864 N 1031.71 0.701592 -1.41122 0
M  V30 10865 C 1033.12 1.28129 -1.35793 0
M  V30 10866 C 1033.48 1.96163 -0.0381185 0
M  V30 10867 O 1032.6 1.98416 0.863723 0
M  V30 10868 C 1033.2 2.33005 -2.45955 0
M  V30 10869 C 1031.75 2.86566 -2.44043 0
M  V30 10870 C 1030.9 1.60526 -2.26112 0
M  V30 10871 H 1033.85 0.496756 -1.50725 0
M  V30 10872 H 1033.87 3.14163 -2.14667 0
M  V30 10873 H 1033.39 1.8346 -3.42 0
M  V30 10874 H 1031.49 3.40304 -1.51737 0
M  V30 10875 H 1031.6 3.37406 -3.40138 0
M  V30 10876 H 1029.96 1.86113 -1.7388 0
M  V30 10877 H 1030.75 1.12985 -3.24175 0
M  V30 10878 N 1033.19 1.2685 0.935242 0
M  V30 10879 C 1034.12 1.04717 2.0388 0
M  V30 10880 C 1035.14 0.00567507 1.62799 0
M  V30 10881 O 1036.33 0.246408 1.76791 0
M  V30 10882 C 1033.43 0.56496 3.34158 0
M  V30 10883 C 1032.6 1.67704 4.03973 0
M  V30 10884 C 1031.66 1.19186 5.12524 0
M  V30 10885 O 1030.68 1.89008 5.36903 0
M  V30 10886 N 1031.89 0.0434554 5.80484 0
M  V30 10887 H 1034.65 1.99746 2.23431 0
M  V30 10888 H 1032.21 1.18316 1.10512 0
M  V30 10889 H 1034.2 0.224436 4.04077 0
M  V30 10890 H 1032.77 -0.291899 3.11234 0
M  V30 10891 H 1031.99 2.18821 3.27889 0
M  V30 10892 H 1033.28 2.42361 4.47368 0
M  V30 10893 H 1032.68 -0.539502 5.63122 0
M  V30 10894 H 1031.24 -0.237946 6.51366 0
M  V30 10895 N 1034.67 -1.14067 1.0875 0
M  V30 10896 C 1035.92 -1.85459 0.82053 0
M  V30 10897 C 1036.25 -1.82923 -0.65213 0
M  V30 10898 O 1035.52 -1.26241 -1.47965 0
M  V30 10899 C 1035.81 -3.33937 1.34752 0
M  V30 10900 C 1035.66 -3.45026 2.88578 0
M  V30 10901 C 1036.98 -4.2915 0.975636 0
M  V30 10902 H 1034.1 -0.673384 0.299538 0
M  V30 10903 H 1036.74 -1.33927 1.34772 0
M  V30 10904 H 1034.89 -3.77953 0.899086 0
M  V30 10905 H 1036.56 -3.09771 3.41818 0
M  V30 10906 H 1034.81 -2.86124 3.26061 0
M  V30 10907 H 1035.48 -4.49408 3.20526 0
M  V30 10908 H 1037.95 -3.93168 1.36228 0
M  V30 10909 H 1036.83 -5.31489 1.37152 0
M  V30 10910 H 1037.09 -4.41945 -0.116956 0
M  V30 10911 N 1036.15 -0.873678 -1.31166 0
M  V30 10912 C 1037.56 -0.53852 -1.78765 0
M  V30 10913 C 1037.91 0.944765 -1.71955 0
M  V30 10914 O 1037.04 1.73781 -1.28954 0
M  V30 10915 C 1037.63 -0.970749 -3.24595 0
M  V30 10916 C 1036.19 -0.687189 -3.70074 0
M  V30 10917 C 1035.34 -1.16001 -2.51871 0
M  V30 10918 H 1038.29 -1.05903 -1.18196 0
M  V30 10919 H 1038.31 -0.294966 -3.79355 0
M  V30 10920 H 1037.82 -2.05034 -3.29519 0
M  V30 10921 H 1035.92 0.380881 -3.70648 0
M  V30 10922 H 1036.03 -1.26682 -4.62048 0
M  V30 10923 H 1034.4 -0.579663 -2.48016 0
M  V30 10924 H 1035.18 -2.2471 -2.59539 0
M  V30 10925 N 1037.63 1.44308 -0.633487 0
M  V30 10926 C 1038.87 2.02322 -0.139123 0
M  V30 10927 C 1039.21 1.49733 1.23667 0
M  V30 10928 O 1038.48 0.682353 1.82138 0
M  V30 10929 C 1038.76 3.59871 -0.128366 0
M  V30 10930 C 1038.62 4.22737 -1.53667 0
M  V30 10931 C 1039.94 4.36702 0.545834 0
M  V30 10932 H 1037.05 0.735161 -0.0520293 0
M  V30 10933 H 1039.7 1.7185 -0.810411 0
M  V30 10934 H 1037.85 3.85963 0.443263 0
M  V30 10935 H 1039.52 4.07744 -2.15737 0
M  V30 10936 H 1037.76 3.80142 -2.08985 0
M  V30 10937 H 1038.43 5.31757 -1.48116 0
M  V30 10938 H 1040.91 4.16057 0.0596879 0
M  V30 10939 H 1039.78 5.46407 0.522557 0
M  V30 10940 H 1040.05 4.11483 1.6166 0
M  V30 10941 N 1039.1 0.374177 1.53094 0
M  V30 10942 C 1040.33 -0.213325 2.05797 0
M  V30 10943 C 1040.75 -1.41753 1.24706 0
M  V30 10944 O 1040.1 -1.80183 0.289868 0
M  V30 10945 C 1040.16 -0.598367 3.56513 0
M  V30 10946 O 1039.88 0.557983 4.34532 0
M  V30 10947 C 1041.38 -1.24334 4.25507 0
M  V30 10948 H 1038.6 -0.0357398 0.670048 0
M  V30 10949 H 1041.14 0.535035 1.97377 0
M  V30 10950 H 1039.3 -1.29663 3.65056 0
M  V30 10951 H 1039.71 0.244911 5.23928 0
M  V30 10952 H 1041.18 -1.46325 5.32253 0
M  V30 10953 H 1041.66 -2.20622 3.79766 0
M  V30 10954 H 1042.27 -0.586269 4.2124 0
M  V30 10955 N 1040.58 -1.57259 0.103575 0
M  V30 10956 C 1041.82 -1.96539 -0.561398 0
M  V30 10957 C 1042.19 -0.984775 -1.64822 0
M  V30 10958 O 1043.39 -1.26638 -2.371 0
M  V30 10959 C 1041.66 -3.40229 -1.09447 0
M  V30 10960 S 1043.22 -4.01512 -1.77013 0
M  V30 10961 H 1040.04 -0.687061 -0.182944 0
M  V30 10962 H 1042.64 -1.94623 0.184993 0
M  V30 10963 H 1041.34 -4.09359 -0.292091 0
M  V30 10964 H 1040.87 -3.45762 -1.8765 0
M  V30 10965 H 1042.89 -3.91009 -3.05494 0
M  V30 10966 N 1042.06 0.170153 -1.56679 0
M  V30 10967 C 1043.31 0.887906 -1.8233 0
M  V30 10968 C 1043.64 1.81845 -0.681608 0
M  V30 10969 O 1042.91 1.9191 0.316362 0
M  V30 10970 C 1043.2 1.68256 -3.18374 0
M  V30 10971 C 1043.05 0.775059 -4.43072 0
M  V30 10972 C 1044.37 2.65001 -3.51372 0
M  V30 10973 H 1041.49 0.32135 -0.663252 0
M  V30 10974 H 1044.13 0.154065 -1.89374 0
M  V30 10975 H 1042.28 2.30817 -3.12499 0
M  V30 10976 H 1043.95 0.162234 -4.61015 0
M  V30 10977 H 1042.2 0.0831809 -4.3372 0
M  V30 10978 H 1042.87 1.36661 -5.34816 0
M  V30 10979 H 1045.34 2.12566 -3.57708 0
M  V30 10980 H 1044.22 3.17667 -4.47637 0
M  V30 10981 H 1044.48 3.45255 -2.76136 0
M  V30 10982 N 1043.54 1.5137 0.438746 0
M  V30 10983 C 1044.82 1.54508 1.19944 0
M  V30 10984 C 1045.2 0.308525 2.08833 0
M  V30 10985 O 1044.54 -0.706461 2.17305 0
M  V30 10986 C 1044.75 2.85833 2.00251 0
M  V30 10987 C 1046.1 3.37729 2.5734 0
M  V30 10988 O 1047.13 2.87374 2.10463 0
M  V30 10989 O 1045.98 4.25589 3.42836 0
M  V30 10990 H 1043.08 0.621132 0.546007 0
M  V30 10991 H 1045.62 1.63682 0.447931 0
M  V30 10992 H 1044.4 3.67291 1.34955 0
M  V30 10993 H 1044.02 2.79815 2.8247 0
M  V30 10994 N 1045.02 -0.694098 1.41492 0
M  V30 10995 C 1046.26 -1.4563 1.41137 0
M  V30 10996 C 1046.6 -1.94189 0.0208428 0
M  V30 10997 O 1045.87 -1.69628 -0.951655 0
M  V30 10998 C 1046.15 -2.66714 2.41941 0
M  V30 10999 C 1046.01 -2.23912 3.90107 0
M  V30 11000 C 1047.33 -3.68913 2.39981 0
M  V30 11001 H 1044.44 -0.52821 0.513968 0
M  V30 11002 H 1047.09 -0.790437 1.72778 0
M  V30 11003 H 1045.24 -3.23525 2.1509 0
M  V30 11004 H 1046.91 -1.72417 4.27867 0
M  V30 11005 H 1045.15 -1.5568 4.04903 0
M  V30 11006 H 1045.82 -3.108 4.56188 0
M  V30 11007 H 1048.3 -3.21779 2.63813 0
M  V30 11008 H 1047.17 -4.51242 3.12524 0
M  V30 11009 H 1047.44 -4.18711 1.41892 0
M  V30 11010 N 1046.49 -1.27344 -0.928501 0
M  V30 11011 C 1047.74 -1.13635 -1.6761 0
M  V30 11012 C 1048.07 0.317957 -1.91884 0
M  V30 11013 O 1047.32 1.24904 -1.50657 0
M  V30 11014 C 1047.62 -1.86439 -3.04918 0
M  V30 11015 C 1047.29 -3.36298 -3.00358 0
M  V30 11016 C 1045.95 -3.77173 -2.98821 0
M  V30 11017 C 1048.3 -4.31921 -2.91708 0
M  V30 11018 C 1045.63 -5.12037 -2.86417 0
M  V30 11019 C 1047.98 -5.66841 -2.80846 0
M  V30 11020 C 1046.65 -6.07011 -2.77659 0
M  V30 11021 H 1045.92 -0.415821 -0.61333 0
M  V30 11022 H 1048.56 -1.57943 -1.08288 0
M  V30 11023 H 1046.87 -1.34638 -3.6794 0
M  V30 11024 H 1048.57 -1.73261 -3.61637 0
M  V30 11025 H 1045.16 -3.0379 -3.0234 0
M  V30 11026 H 1049.34 -4.01314 -2.91994 0
M  V30 11027 H 1044.6 -5.42307 -2.82336 0
M  V30 11028 H 1048.77 -6.40608 -2.73119 0
M  V30 11029 H 1046.4 -7.11467 -2.67804 0
M  V30 11030 N 1047.97 1.13488 -1.09353 0
M  V30 11031 C 1049.39 1.36739 -0.823086 0
M  V30 11032 C 1049.59 1.93476 0.562963 0
M  V30 11033 O 1048.64 2.15374 1.31796 0
M  V30 11034 C 1049.96 2.31943 -1.91371 0
M  V30 11035 C 1051.51 2.4556 -1.94085 0
M  V30 11036 C 1051.98 3.44072 -3.02289 0
M  V30 11037 N 1053.47 3.51622 -3.01524 0
M  V30 11038 C 1054.21 4.27724 -3.8189 0
M  V30 11039 N 1053.7 5.06987 -4.72161 0
M  V30 11040 N 1055.5 4.23018 -3.70152 0
M  V30 11041 H 1047.65 0.75012 -1.98713 0
M  V30 11042 H 1049.91 0.392564 -0.862901 0
M  V30 11043 H 1049.62 1.97408 -2.91072 0
M  V30 11044 H 1049.49 3.31952 -1.79131 0
M  V30 11045 H 1051.88 2.79382 -0.950234 0
M  V30 11046 H 1051.96 1.45479 -2.10403 0
M  V30 11047 H 1051.6 3.10981 -4.01564 0
M  V30 11048 H 1051.53 4.43956 -2.83214 0
M  V30 11049 H 1054.02 2.95066 -2.36103 0
M  V30 11050 H 1054.34 5.6236 -5.30067 0
M  V30 11051 H 1052.68 5.06222 -4.76197 0
M  V30 11052 H 1055.87 3.60171 -2.98989 0
M  V30 11053 H 1056.04 4.82075 -4.33022 0
M  V30 11054 N 1049.45 0.880621 1.30701 0
M  V30 11055 C 1050.86 0.547993 1.78477 0
M  V30 11056 C 1051.21 -0.935633 1.72454 0
M  V30 11057 O 1050.34 -1.73094 1.29874 0
M  V30 11058 C 1050.93 0.98795 3.24076 0
M  V30 11059 C 1049.49 0.706805 3.69704 0
M  V30 11060 C 1048.64 1.17335 2.51252 0
M  V30 11061 H 1051.59 1.06528 1.17633 0
M  V30 11062 H 1051.61 0.31508 3.79193 0
M  V30 11063 H 1051.12 2.06778 3.28427 0
M  V30 11064 H 1049.22 -0.36122 3.70845 0
M  V30 11065 H 1049.34 1.2913 4.6137 0
M  V30 11066 H 1047.7 0.592808 2.47705 0
M  V30 11067 H 1048.48 2.26083 2.58343 0
M  V30 11068 N 1050.93 -1.4397 0.641131 0
M  V30 11069 C 1052.15 -2.06818 0.155318 0
M  V30 11070 C 1052.58 -1.47665 -1.16519 0
M  V30 11071 O 1051.94 -0.58192 -1.71707 0
M  V30 11072 C 1051.99 -3.60542 0.0647537 0
M  V30 11073 O 1051.09 -4.00674 -0.976447 0
M  V30 11074 H 1050.43 -0.657962 0.0893404 0
M  V30 11075 H 1052.96 -1.84678 0.88064 0
M  V30 11076 H 1052.97 -4.07816 -0.122552 0
M  V30 11077 H 1051.65 -4.02975 1.02878 0
M  V30 11078 H 1050.22 -3.65013 -0.762905 0
M  V30 11079 N 1052.41 -0.382291 -1.52893 0
M  V30 11080 C 1053.36 0.471187 -2.27778 0
M  V30 11081 C 1054.35 1.0691 -1.31402 0
M  V30 11082 O 1055.56 1.01038 -1.48967 0
M  V30 11083 H 1051.93 0.170696 -0.732371 0
M  V30 11084 H 1053.9 -0.181954 -2.97845 0
M  V30 11085 C 1052.65 1.59012 -3.09209 0
M  V30 11086 H 1051.97 1.13935 -3.83222 0
M  V30 11087 H 1053.41 2.16167 -3.64757 0
M  V30 11088 C 1051.87 2.54212 -2.21084 0
M  V30 11089 O 1052.4 3.57447 -1.83288 0
M  V30 11090 N 1050.61 2.23789 -1.85383 0
M  V30 11091 H 1050.16 1.39872 -2.16318 0
M  V30 11092 H 1050.11 2.87737 -1.26708 0
M  V30 11093 N 1053.89 1.57202 -0.111913 0
M  V30 11094 C 1055.3 1.82039 0.414591 0
M  V30 11095 C 1055.65 1.02863 1.67074 0
M  V30 11096 O 1054.77 0.263068 2.14795 0
M  V30 11097 C 1055.37 3.3019 0.758953 0
M  V30 11098 C 1053.93 3.55732 1.23012 0
M  V30 11099 C 1053.07 2.76301 0.235226 0
M  V30 11100 H 1056.02 1.55078 -0.337142 0
M  V30 11101 H 1056.05 3.44431 1.61701 0
M  V30 11102 H 1055.56 3.87788 -0.155473 0
M  V30 11103 H 1053.66 3.03483 2.16169 0
M  V30 11104 H 1053.77 4.64333 1.18034 0
M  V30 11105 H 1052.14 2.44287 0.720822 0
M  V30 11106 H 1052.92 3.36655 -0.672173 0
M  V30 11107 N 1055.36 -0.161842 1.56767 0
M  V30 11108 C 1056.61 -0.873481 1.8369 0
M  V30 11109 C 1056.96 -1.79455 0.693817 0
M  V30 11110 O 1056.26 -1.89089 -0.309181 0
M  V30 11111 C 1056.45 -1.69736 3.14522 0
M  V30 11112 C 1056.28 -0.857568 4.41447 0
M  V30 11113 C 1055.05 -0.528952 5.02524 0
M  V30 11114 C 1057.25 -0.194734 5.13931 0
M  V30 11115 N 1055.23 0.325994 6.13034 0
M  V30 11116 C 1056.6 0.520973 6.17807 0
M  V30 11117 C 1058.66 -0.113874 4.9777 0
M  V30 11118 C 1057.36 1.30988 7.07273 0
M  V30 11119 C 1059.39 0.661731 5.87686 0
M  V30 11120 C 1058.75 1.36577 6.91033 0
M  V30 11121 H 1054.85 -0.297939 0.723019 0
M  V30 11122 H 1057.43 -0.139816 1.94197 0
M  V30 11123 H 1055.6 -2.40238 3.05189 0
M  V30 11124 H 1057.33 -2.35103 3.29407 0
M  V30 11125 H 1054.09 -0.861267 4.65703 0
M  V30 11126 H 1054.51 0.744055 6.72899 0
M  V30 11127 H 1059.15 -0.643832 4.17869 0
M  V30 11128 H 1056.87 1.85115 7.86612 0
M  V30 11129 H 1060.46 0.726092 5.77251 0
M  V30 11130 H 1059.34 1.9563 7.59407 0
M  V30 11131 N 1056.84 -1.516 -0.430713 0
M  V30 11132 C 1057.75 -1.76247 -1.54836 0
M  V30 11133 C 1058.77 -0.646985 -1.61524 0
M  V30 11134 O 1059.94 -0.929987 -1.78643 0
M  V30 11135 C 1057.01 -1.88833 -2.90763 0
M  V30 11136 C 1056.07 -3.12701 -2.94137 0
M  V30 11137 C 1055.3 -3.24676 -4.23581 0
M  V30 11138 O 1055.53 -2.42429 -5.16318 0
M  V30 11139 O 1054.46 -4.17697 -4.33374 0
M  V30 11140 H 1058.29 -2.71069 -1.3695 0
M  V30 11141 H 1055.87 -1.36182 -0.614396 0
M  V30 11142 H 1057.75 -1.99057 -3.71422 0
M  V30 11143 H 1056.43 -0.971987 -3.08762 0
M  V30 11144 H 1055.33 -3.0795 -2.1241 0
M  V30 11145 H 1056.67 -4.04045 -2.81084 0
M  V30 11146 N 1058.32 0.686584 -1.41858 0
M  V30 11147 C 1059.25 1.81264 -1.47193 0
M  V30 11148 C 1060.23 1.66875 -0.329657 0
M  V30 11149 O 1061.42 1.86473 -0.542347 0
M  V30 11150 C 1058.55 3.19472 -1.36216 0
M  V30 11151 C 1057.5 3.4858 -2.48347 0
M  V30 11152 C 1056.83 4.86239 -2.22432 0
M  V30 11153 C 1058.13 3.46653 -3.90678 0
M  V30 11154 H 1059.82 1.77057 -2.41436 0
M  V30 11155 H 1057.37 0.850415 -1.16206 0
M  V30 11156 H 1059.32 3.97969 -1.38558 0
M  V30 11157 H 1058.04 3.24327 -0.384611 0
M  V30 11158 H 1056.7 2.72437 -2.45303 0
M  V30 11159 H 1056.35 4.8773 -1.22999 0
M  V30 11160 H 1056.05 5.06677 -2.97577 0
M  V30 11161 H 1057.57 5.67034 -2.26505 0
M  V30 11162 H 1058.99 4.15139 -3.95389 0
M  V30 11163 H 1057.38 3.78625 -4.65578 0
M  V30 11164 H 1058.45 2.45451 -4.18189 0
M  V30 11165 N 1059.8 1.27835 0.921735 0
M  V30 11166 C 1060.76 1.11108 2.00469 0
M  V30 11167 C 1061.76 0.053203 1.60712 0
M  V30 11168 O 1062.95 0.298308 1.71627 0
M  V30 11169 C 1060.08 0.694269 3.33755 0
M  V30 11170 H 1061.28 2.07279 2.16738 0
M  V30 11171 H 1058.83 1.10708 1.10333 0
M  V30 11172 H 1059.56 -0.268561 3.23186 0
M  V30 11173 H 1059.35 1.45836 3.6397 0
M  V30 11174 H 1060.84 0.59965 4.13272 0
M  V30 11175 N 1061.28 -1.12907 1.09954 0
M  V30 11176 C 1062.22 -2.18485 0.743848 0
M  V30 11177 C 1063.19 -1.63766 -0.277494 0
M  V30 11178 O 1064.38 -1.90146 -0.157899 0
M  V30 11179 C 1061.52 -3.44649 0.176437 0
M  V30 11180 C 1060.63 -4.13445 1.25248 0
M  V30 11181 C 1059.77 -5.27242 0.647242 0
M  V30 11182 C 1058.8 -5.87897 1.70421 0
M  V30 11183 N 1057.94 -6.93116 1.1196 0
M  V30 11184 H 1062.78 -2.48257 1.64841 0
M  V30 11185 H 1060.32 -1.21891 0.823471 0
M  V30 11186 H 1062.28 -4.16852 -0.170384 0
M  V30 11187 H 1060.91 -3.15309 -0.69137 0
M  V30 11188 H 1059.96 -3.39471 1.7165 0
M  V30 11189 H 1061.27 -4.54601 2.05279 0
M  V30 11190 H 1060.42 -6.06186 0.249579 0
M  V30 11191 H 1059.16 -4.87351 -0.184556 0
M  V30 11192 H 1058.17 -5.07643 2.11136 0
M  V30 11193 H 1059.39 -6.2986 2.53877 0
M  V30 11194 H 1057.34 -6.55271 0.309181 0
M  V30 11195 H 1057.26 -7.32843 1.85681 0
M  V30 11196 H 1058.52 -7.759 0.748326 0
M  V30 11197 N 1062.75 -0.88754 -1.30232 0
M  V30 11198 C 1063.98 -0.522306 -2.00199 0
M  V30 11199 C 1064.4 0.889866 -1.66514 0
M  V30 11200 O 1063.75 1.58558 -0.903639 0
M  V30 11201 C 1063.8 -0.690551 -3.54843 0
M  V30 11202 O 1063.53 -2.04713 -3.8733 0
M  V30 11203 C 1065.03 -0.328649 -4.4208 0
M  V30 11204 H 1062.25 -0.201628 -0.63999 0
M  V30 11205 H 1064.79 -1.19355 -1.66056 0
M  V30 11206 H 1062.95 -0.0666493 -3.87343 0
M  V30 11207 H 1063.36 -2.06762 -4.82027 0
M  V30 11208 H 1064.83 -0.497257 -5.49756 0
M  V30 11209 H 1065.31 0.733502 -4.33032 0
M  V30 11210 H 1065.92 -0.928982 -4.1503 0
M  V30 11211 N 1064.23 1.43628 -0.648757 0
M  V30 11212 C 1065.48 2.02163 -0.160574 0
M  V30 11213 C 1065.81 1.51037 1.22072 0
M  V30 11214 O 1065.09 0.701633 1.81404 0
M  V30 11215 C 1065.37 3.59715 -0.166528 0
M  V30 11216 C 1065.22 4.21083 -1.58142 0
M  V30 11217 C 1066.54 4.37256 0.499485 0
M  V30 11218 H 1063.66 0.734568 -0.0598238 0
M  V30 11219 H 1066.3 1.70981 -0.828592 0
M  V30 11220 H 1064.45 3.86411 0.402302 0
M  V30 11221 H 1066.12 4.05433 -2.2005 0
M  V30 11222 H 1064.37 3.77904 -2.13005 0
M  V30 11223 H 1065.04 5.30156 -1.53748 0
M  V30 11224 H 1067.51 4.16097 0.0155561 0
M  V30 11225 H 1066.39 5.4693 0.464574 0
M  V30 11226 H 1066.65 4.13175 1.57286 0
M  V30 11227 N 1065.71 0.390394 1.52688 0
M  V30 11228 C 1066.96 -0.191445 2.01593 0
M  V30 11229 C 1067.29 -1.46723 1.27681 0
M  V30 11230 O 1066.54 -1.92248 0.365972 0
M  V30 11231 C 1066.84 -0.50468 3.53819 0
M  V30 11232 C 1066.51 0.679691 4.45748 0
M  V30 11233 C 1065.17 1.0046 4.70597 0
M  V30 11234 C 1067.52 1.47198 4.99982 0
M  V30 11235 C 1064.85 2.12334 5.46929 0
M  V30 11236 C 1067.2 2.58133 5.77538 0
M  V30 11237 C 1065.86 2.91131 6.00665 0
M  V30 11238 H 1065.13 -0.0700548 0.737681 0
M  V30 11239 H 1067.78 0.527965 1.84078 0
M  V30 11240 H 1066.09 -1.30543 3.69413 0
M  V30 11241 H 1067.78 -0.967524 3.89153 0
M  V30 11242 H 1064.37 0.416446 4.26572 0
M  V30 11243 H 1068.56 1.2342 4.80709 0
M  V30 11244 H 1063.81 2.38269 5.63061 0
M  V30 11245 H 1067.99 3.19925 6.18564 0
M  V30 11246 H 1065.61 3.77938 6.59596 0
M  V30 11247 N 1067.19 -1.57141 0.120249 0
M  V30 11248 C 1068.44 -1.94852 -0.536387 0
M  V30 11249 C 1068.76 -1.00452 -1.67136 0
M  V30 11250 O 1068.03 -0.061053 -1.95805 0
M  V30 11251 H 1066.61 -0.719411 -0.201138 0
M  V30 11252 H 1069.27 -1.93977 0.189482 0
M  V30 11253 H 1068.37 -2.97917 -0.930145 0
M  V30 11254 N 1068.67 0.153526 -1.5685 0
M  V30 11255 C 1069.63 1.17362 -1.96873 0
M  V30 11256 C 1070.63 1.36219 -0.854456 0
M  V30 11257 O 1071.82 1.33322 -1.1212 0
M  V30 11258 C 1068.95 2.53523 -2.27901 0
M  V30 11259 H 1070.14 0.830432 -2.88173 0
M  V30 11260 H 1067.7 0.396633 -1.51184 0
M  V30 11261 H 1068.43 2.92824 -1.39371 0
M  V30 11262 H 1068.22 2.41198 -3.09137 0
M  V30 11263 H 1069.71 3.27006 -2.59725 0
M  V30 11264 N 1070.14 1.51827 0.422667 0
M  V30 11265 C 1071.09 1.74198 1.51406 0
M  V30 11266 C 1072.06 0.584013 1.55494 0
M  V30 11267 O 1073.25 0.820079 1.72277 0
M  V30 11268 C 1070.39 1.88627 2.88988 0
M  V30 11269 C 1069.5 3.16233 2.94314 0
M  V30 11270 C 1068.63 3.21172 4.2311 0
M  V30 11271 C 1067.67 4.43033 4.2236 0
M  V30 11272 N 1066.81 4.4544 5.42704 0
M  V30 11273 H 1071.65 2.67352 1.31632 0
M  V30 11274 H 1069.19 1.32487 0.63919 0
M  V30 11275 H 1071.15 1.94976 3.68837 0
M  V30 11276 H 1069.78 0.988673 3.07287 0
M  V30 11277 H 1068.83 3.19123 2.07039 0
M  V30 11278 H 1070.14 4.06104 2.89623 0
M  V30 11279 H 1069.29 3.26517 5.11343 0
M  V30 11280 H 1068.03 2.29216 4.30478 0
M  V30 11281 H 1067.04 4.37849 3.32518 0
M  V30 11282 H 1068.26 5.3627 4.16643 0
M  V30 11283 H 1066.21 3.56361 5.50766 0
M  V30 11284 H 1066.13 5.29138 5.39953 0
M  V30 11285 H 1067.39 4.54997 6.32928 0
M  V30 11286 N 1071.62 -0.679052 1.4222 0
M  V30 11287 C 1072.53 -1.82221 1.47759 0
M  V30 11288 C 1073.55 -1.70092 0.3667 0
M  V30 11289 O 1074.72 -1.91718 0.616957 0
M  V30 11290 C 1071.79 -3.18332 1.37351 0
M  V30 11291 C 1070.85 -3.42449 2.58896 0
M  V30 11292 C 1070.08 -4.72067 2.48976 0
M  V30 11293 O 1070.31 -5.49683 1.5233 0
M  V30 11294 O 1069.24 -4.97333 3.39033 0
M  V30 11295 H 1073.07 -1.80504 2.44238 0
M  V30 11296 H 1070.65 -0.834251 1.23938 0
M  V30 11297 H 1072.53 -3.99563 1.33893 0
M  V30 11298 H 1071.21 -3.20696 0.439965 0
M  V30 11299 H 1070.12 -2.61083 2.6793 0
M  V30 11300 H 1071.45 -3.44912 3.51136 0
M  V30 11301 N 1073.1 -1.28322 -0.914942 0
M  V30 11302 C 1074.03 -1.14681 -2.03398 0
M  V30 11303 C 1075.01 -0.0448939 -1.70041 0
M  V30 11304 O 1076.2 -0.221672 -1.92931 0
M  V30 11305 C 1073.33 -0.806623 -3.37803 0
M  V30 11306 C 1072.28 -1.86318 -3.85318 0
M  V30 11307 C 1071.61 -1.37665 -5.16674 0
M  V30 11308 C 1072.91 -3.26953 -4.07307 0
M  V30 11309 H 1074.6 -2.08293 -2.15068 0
M  V30 11310 H 1072.15 -1.00284 -1.03339 0
M  V30 11311 H 1074.1 -0.69796 -4.1558 0
M  V30 11312 H 1072.82 0.165203 -3.26182 0
M  V30 11313 H 1071.48 -1.96096 -3.09745 0
M  V30 11314 H 1071.13 -0.393927 -5.01455 0
M  V30 11315 H 1070.83 -2.08313 -5.49435 0
M  V30 11316 H 1072.35 -1.28119 -5.97007 0
M  V30 11317 H 1073.77 -3.20102 -4.75613 0
M  V30 11318 H 1072.17 -3.95424 -4.51398 0
M  V30 11319 H 1073.24 -3.71059 -3.12159 0
M  V30 11320 N 1074.58 1.12322 -1.10551 0
M  V30 11321 C 1075.83 1.83495 -0.846998 0
M  V30 11322 C 1076.15 1.8457 0.629205 0
M  V30 11323 O 1075.42 1.30968 1.45686 0
M  V30 11324 H 1074 0.679479 -0.310351 0
M  V30 11325 H 1076.66 1.36004 -1.39602 0
M  V30 11326 H 1075.76 2.87651 -1.21092 0
M  V30 11327 N 1076.06 0.894434 1.2976 0
M  V30 11328 C 1077 0.366586 2.2787 0
M  V30 11329 C 1077.97 -0.548425 1.56785 0
M  V30 11330 O 1079.16 -0.474804 1.84798 0
M  V30 11331 C 1076.3 -0.404531 3.42721 0
M  V30 11332 C 1075.41 0.540774 4.28602 0
M  V30 11333 C 1074.55 -0.246875 5.30626 0
M  V30 11334 C 1073.59 0.693294 6.08161 0
M  V30 11335 N 1072.72 -0.059619 7.02075 0
M  V30 11336 H 1077.56 1.20834 2.72402 0
M  V30 11337 H 1075.1 0.607205 1.33983 0
M  V30 11338 H 1077.06 -0.86762 4.08079 0
M  V30 11339 H 1075.69 -1.21078 2.99232 0
M  V30 11340 H 1074.74 1.12237 3.63465 0
M  V30 11341 H 1076.05 1.26065 4.82606 0
M  V30 11342 H 1075.21 -0.771398 6.01776 0
M  V30 11343 H 1073.94 -0.999918 4.77339 0
M  V30 11344 H 1072.95 1.22936 5.35879 0
M  V30 11345 H 1074.17 1.44558 6.63536 0
M  V30 11346 H 1072.12 -0.795026 6.51165 0
M  V30 11347 H 1072.04 0.60045 7.53612 0
M  V30 11348 H 1073.31 -0.564577 7.77453 0
M  V30 11349 N 1077.53 -1.43282 0.656365 0
M  V30 11350 C 1078.47 -2.28049 -0.083127 0
M  V30 11351 C 1079.45 -1.40009 -0.826812 0
M  V30 11352 O 1080.63 -1.69452 -0.825736 0
M  V30 11353 C 1077.76 -3.19487 -1.12452 0
M  V30 11354 C 1076.8 -4.23807 -0.478527 0
M  V30 11355 S 1077.64 -5.30218 0.750248 0
M  V30 11356 C 1078.79 -6.25225 -0.290534 0
M  V30 11357 H 1079.02 -2.90419 0.635922 0
M  V30 11358 H 1076.56 -1.47839 0.445303 0
M  V30 11359 H 1078.52 -3.72713 -1.72034 0
M  V30 11360 H 1077.18 -2.56288 -1.81591 0
M  V30 11361 H 1076.37 -4.87901 -1.26368 0
M  V30 11362 H 1075.97 -3.73975 0.043251 0
M  V30 11363 H 1078.26 -6.67568 -1.15579 0
M  V30 11364 H 1079.21 -7.07397 0.315458 0
M  V30 11365 H 1079.61 -5.60999 -0.627751 0
M  V30 11366 N 1079.01 -0.398486 -1.52479 0
M  V30 11367 C 1080.26 0.181019 -2.0199 0
M  V30 11368 C 1080.59 1.45691 -1.28405 0
M  V30 11369 O 1079.87 1.90607 -0.387207 0
M  V30 11370 C 1080.15 0.439587 -3.57407 0
M  V30 11371 C 1080 -0.85223 -4.41653 0
M  V30 11372 C 1081.32 1.2263 -4.2267 0
M  V30 11373 H 1078.44 0.0643164 -0.734188 0
M  V30 11374 H 1081.08 -0.52986 -1.82462 0
M  V30 11375 H 1079.23 1.04516 -3.74177 0
M  V30 11376 H 1080.91 -1.48879 -4.36615 0
M  V30 11377 H 1079.15 -1.46555 -4.08294 0
M  V30 11378 H 1079.82 -0.625839 -5.48441 0
M  V30 11379 H 1082.3 0.713722 -4.09933 0
M  V30 11380 H 1081.17 1.37596 -5.31374 0
M  V30 11381 H 1081.43 2.24403 -3.80914 0
M  V30 11382 N 1080.49 1.57075 -0.12858 0
M  V30 11383 C 1081.74 1.9581 0.527868 0
M  V30 11384 C 1082.07 1.01253 1.65715 0
M  V30 11385 O 1081.35 0.0514853 1.94432 0
M  V30 11386 C 1081.63 3.44406 1.05151 0
M  V30 11387 C 1081.48 4.49737 -0.0750113 0
M  V30 11388 C 1082.8 3.95069 1.9393 0
M  V30 11389 H 1079.92 0.711978 0.19041 0
M  V30 11390 H 1082.56 1.88879 -0.206081 0
M  V30 11391 H 1080.71 3.50443 1.67697 0
M  V30 11392 H 1082.38 4.55793 -0.710685 0
M  V30 11393 H 1080.63 4.27497 -0.736809 0
M  V30 11394 H 1081.3 5.50996 0.332779 0
M  V30 11395 H 1083.77 3.91395 1.41241 0
M  V30 11396 H 1082.65 4.99542 2.27484 0
M  V30 11397 H 1082.91 3.36329 2.86941 0
M  V30 11398 N 1081.97 -0.145205 1.5693 0
M  V30 11399 C 1083.25 -0.88631 1.74367 0
M  V30 11400 C 1083.63 -1.99259 0.697081 0
M  V30 11401 O 1082.97 -2.26732 -0.28368 0
M  V30 11402 C 1083.18 -1.42712 3.18488 0
M  V30 11403 C 1084.53 -1.88982 3.80225 0
M  V30 11404 O 1085.56 -1.5245 3.21928 0
M  V30 11405 O 1084.42 -2.56361 4.8264 0
M  V30 11406 H 1081.51 -0.418979 0.713011 0
M  V30 11407 H 1084.06 -0.130991 1.69194 0
M  V30 11408 H 1082.83 -0.632165 3.8616 0
M  V30 11409 H 1082.45 -2.24589 3.28094 0
M  V30 11410 N 1083.45 -1.52049 -0.414609 0
M  V30 11411 C 1084.69 -1.67511 -1.17129 0
M  V30 11412 C 1085.05 -0.39383 -1.87917 0
M  V30 11413 O 1086.25 -0.424496 -2.65427 0
M  V30 11414 C 1084.52 -2.85982 -2.14357 0
M  V30 11415 S 1086.08 -3.21898 -2.98206 0
M  V30 11416 H 1082.9 -0.589923 -0.396877 0
M  V30 11417 H 1085.5 -1.90025 -0.459409 0
M  V30 11418 H 1084.21 -3.77488 -1.6103 0
M  V30 11419 H 1083.74 -2.65725 -2.90092 0
M  V30 11420 H 1085.75 -2.70095 -4.16249 0
M  V30 11421 N 1084.93 0.6715 -1.42579 0
M  V30 11422 C 1086.17 1.44353 -1.44712 0
M  V30 11423 C 1086.53 1.91898 -0.0626628 0
M  V30 11424 O 1087.73 2.68768 0.0412789 0
M  V30 11425 C 1086 2.60616 -2.44569 0
M  V30 11426 S 1087.56 3.49416 -2.65431 0
M  V30 11427 H 1084.38 0.492985 -0.512334 0
M  V30 11428 H 1086.98 0.781349 -1.79207 0
M  V30 11429 H 1085.68 2.23931 -3.43923 0
M  V30 11430 H 1085.22 3.31703 -2.1151 0
M  V30 11431 H 1087.23 4.56712 -1.9398 0
M  V30 11432 N 1086.4 1.28806 0.908124 0
M  V30 11433 C 1087.63 1.19153 1.69146 0
M  V30 11434 C 1088.05 -0.249056 1.8715 0
M  V30 11435 O 1087.4 -1.16772 1.40251 0
M  V30 11436 C 1087.45 1.89167 3.08055 0
M  V30 11437 O 1087.18 3.27599 2.90879 0
M  V30 11438 C 1088.68 1.85886 4.02444 0
M  V30 11439 H 1085.9 0.413359 0.528559 0
M  V30 11440 H 1088.44 1.7003 1.13622 0
M  V30 11441 H 1086.6 1.42146 3.60379 0
M  V30 11442 H 1087.01 3.62743 3.78837 0
M  V30 11443 H 1088.48 2.39454 4.97359 0
M  V30 11444 H 1088.96 0.832483 4.31238 0
M  V30 11445 H 1089.57 2.32612 3.5605 0
M  V30 11446 N 1087.88 -1.11734 1.11145 0
M  V30 11447 C 1089.16 -1.79795 0.770261 0
M  V30 11448 C 1089.54 -1.97624 -0.742158 0
M  V30 11449 O 1088.89 -1.55847 -1.67105 0
M  V30 11450 C 1089.1 -3.13684 1.52982 0
M  V30 11451 C 1090.44 -3.88771 1.70711 0
M  V30 11452 O 1091.47 -3.23363 1.49381 0
M  V30 11453 O 1090.33 -5.06134 2.06132 0
M  V30 11454 H 1087.42 -0.778617 0.27872 0
M  V30 11455 H 1089.97 -1.18504 1.2147 0
M  V30 11456 H 1088.74 -2.96043 2.55879 0
M  V30 11457 H 1088.36 -3.82687 1.07873 0
M  V30 11458 N 1089.36 -0.901303 -1.29284 0
M  V30 11459 C 1090.77 -0.576317 -1.77582 0
M  V30 11460 C 1091.12 0.908078 -1.73921 0
M  V30 11461 O 1090.25 1.71006 -1.32611 0
M  V30 11462 C 1090.84 -1.03938 -3.22463 0
M  V30 11463 C 1089.4 -0.765533 -3.68533 0
M  V30 11464 C 1088.55 -1.21318 -2.49354 0
M  V30 11465 H 1091.5 -1.08386 -1.15923 0
M  V30 11466 H 1091.52 -0.375367 -3.78644 0
M  V30 11467 H 1091.03 -2.11977 -3.25096 0
M  V30 11468 H 1089.13 0.302176 -3.71373 0
M  V30 11469 H 1089.25 -1.36454 -4.59257 0
M  V30 11470 H 1087.61 -0.632141 -2.46731 0
M  V30 11471 H 1088.39 -2.30165 -2.54714 0
M  V30 11472 N 1090.84 1.42931 -0.663954 0
M  V30 11473 C 1092.11 1.95284 -0.111174 0
M  V30 11474 C 1092.49 1.60484 1.37142 0
M  V30 11475 O 1091.84 0.895425 2.10225 0
M  V30 11476 C 1092.05 3.47046 -0.368789 0
M  V30 11477 C 1093.4 4.23679 -0.279473 0
M  V30 11478 O 1094.42 3.54918 -0.301937 0
M  V30 11479 O 1093.28 5.46087 -0.21236 0
M  V30 11480 H 1090.38 0.826993 0.00341718 0
M  V30 11481 H 1092.92 1.52816 -0.737935 0
M  V30 11482 H 1091.7 3.65541 -1.39626 0
M  V30 11483 H 1091.32 3.96537 0.290514 0
M  V30 11484 N 1092.32 0.406567 1.52266 0
M  V30 11485 C 1093.56 -0.169717 2.01386 0
M  V30 11486 C 1093.88 -1.45864 1.29417 0
M  V30 11487 O 1093.15 -1.9136 0.419327 0
M  V30 11488 H 1091.73 -0.0657075 0.744105 0
M  V30 11489 H 1094.4 0.542221 1.87206 0
M  V30 11490 H 1093.49 -0.367659 3.09927 0
M  V30 11491 N 1093.79 -1.57004 0.136909 0
M  V30 11492 C 1095.21 -1.58082 -0.21958 0
M  V30 11493 C 1095.41 -1.15065 -1.65415 0
M  V30 11494 O 1094.47 -0.846284 -2.37896 0
M  V30 11495 C 1095.78 -3.00685 0.0300112 0
M  V30 11496 C 1097.33 -3.12981 -0.0344899 0
M  V30 11497 C 1097.8 -4.57615 0.187639 0
M  V30 11498 N 1099.29 -4.63005 0.134219 0
M  V30 11499 C 1100.03 -5.72712 0.280743 0
M  V30 11500 N 1099.52 -6.91104 0.48443 0
M  V30 11501 N 1101.32 -5.61673 0.219055 0
M  V30 11502 H 1093.47 -1.83262 1.07372 0
M  V30 11503 H 1095.73 -0.847776 0.424241 0
M  V30 11504 H 1095.44 -3.36509 1.02247 0
M  V30 11505 H 1095.31 -3.70762 -0.693918 0
M  V30 11506 H 1097.7 -2.77004 -1.01749 0
M  V30 11507 H 1097.78 -2.45411 0.721608 0
M  V30 11508 H 1097.42 -4.94295 1.16769 0
M  V30 11509 H 1097.35 -5.23299 -0.588661 0
M  V30 11510 H 1099.84 -3.77895 -0.0189681 0
M  V30 11511 H 1100.16 -7.7057 0.586613 0
M  V30 11512 H 1098.5 -6.93047 0.520627 0
M  V30 11513 H 1101.69 -4.68061 0.0607606 0
M  V30 11514 H 1101.87 -6.47125 0.336683 0
M  V30 11515 N 1095.27 0.136881 -1.57004 0
M  V30 11516 C 1096.24 1.15267 -1.98106 0
M  V30 11517 C 1097.24 1.35305 -0.868856 0
M  V30 11518 O 1098.43 1.32126 -1.13527 0
M  V30 11519 C 1095.56 2.51092 -2.30577 0
M  V30 11520 H 1096.75 0.799821 -2.89038 0
M  V30 11521 H 1094.3 0.380576 -1.51596 0
M  V30 11522 H 1095.04 2.9133 -1.42469 0
M  V30 11523 H 1094.82 2.37906 -3.11678 0
M  V30 11524 H 1096.31 3.24232 -2.63179 0
M  V30 11525 N 1096.75 1.52266 0.40654 0
M  V30 11526 C 1098 1.66699 1.15496 0
M  V30 11527 C 1098.33 0.397019 1.90098 0
M  V30 11528 O 1097.6 -0.604646 1.84863 0
M  V30 11529 C 1097.89 2.8907 2.14734 0
M  V30 11530 C 1097.74 4.26123 1.44012 0
M  V30 11531 C 1099.06 3.06966 3.15373 0
M  V30 11532 H 1096.18 0.606642 0.418515 0
M  V30 11533 H 1098.82 1.84826 0.440381 0
M  V30 11534 H 1096.97 2.73745 2.75673 0
M  V30 11535 H 1098.64 4.5318 0.861722 0
M  V30 11536 H 1096.89 4.27406 0.742064 0
M  V30 11537 H 1097.56 5.07799 2.16436 0
M  V30 11538 H 1100.03 3.21205 2.64512 0
M  V30 11539 H 1098.91 3.94097 3.82072 0
M  V30 11540 H 1099.17 2.20395 3.83247 0
M  V30 11541 N 1098.23 -0.663929 1.42933 0
M  V30 11542 C 1099.51 -1.42054 1.34462 0
M  V30 11543 C 1099.89 -2.11096 -0.0127801 0
M  V30 11544 O 1099.23 -2.04027 -1.02884 0
M  V30 11545 C 1099.44 -2.41406 2.5204 0
M  V30 11546 C 1100.79 -3.05726 2.94647 0
M  V30 11547 O 1101.82 -2.51733 2.52009 0
M  V30 11548 O 1100.67 -4.03593 3.68477 0
M  V30 11549 H 1097.77 -0.634149 0.530834 0
M  V30 11550 H 1100.31 -0.691738 1.54962 0
M  V30 11551 H 1099.09 -1.89263 3.42484 0
M  V30 11552 H 1098.71 -3.21752 2.33584 0
M  V30 11553 N 1099.71 -1.29285 -0.901281 0
M  V30 11554 C 1101.12 -1.07263 -1.18182 0
M  V30 11555 C 1101.32 0.177087 -2.0072 0
M  V30 11556 O 1100.38 0.875292 -2.36844 0
M  V30 11557 C 1101.69 -2.32717 -1.9043 0
M  V30 11558 C 1103.24 -2.3802 -2.03262 0
M  V30 11559 C 1103.71 -3.63273 -2.7892 0
M  V30 11560 N 1105.21 -3.63986 -2.86475 0
M  V30 11561 C 1105.94 -4.57585 -3.45549 0
M  V30 11562 N 1105.44 -5.61513 -4.05801 0
M  V30 11563 N 1107.23 -4.45157 -3.43208 0
M  V30 11564 H 1099.38 -2.09487 -0.350536 0
M  V30 11565 H 1101.64 -0.922647 -0.217778 0
M  V30 11566 H 1101.35 -3.23828 -1.37216 0
M  V30 11567 H 1101.22 -2.40102 -2.90913 0
M  V30 11568 H 1103.61 -1.47398 -2.55652 0
M  V30 11569 H 1103.69 -2.3462 -1.01916 0
M  V30 11570 H 1103.34 -4.54246 -2.27206 0
M  V30 11571 H 1103.27 -3.6393 -3.80608 0
M  V30 11572 H 1105.76 -2.8884 -2.43679 0
M  V30 11573 H 1106.07 -6.29058 -4.48894 0
M  V30 11574 H 1104.41 -5.65325 -4.04268 0
M  V30 11575 H 1107.61 -3.63158 -2.95354 0
M  V30 11576 H 1107.78 -5.18286 -3.88952 0
M  V30 11577 N 1101.18 1.11143 -1.11736 0
M  V30 11578 C 1102.15 2.15456 -0.78174 0
M  V30 11579 C 1103.15 1.59547 0.200383 0
M  V30 11580 O 1104.34 1.74183 -0.0244893 0
M  V30 11581 C 1101.47 3.40523 -0.160364 0
M  V30 11582 H 1102.66 2.46658 -1.70586 0
M  V30 11583 H 1100.22 1.26381 -0.919644 0
M  V30 11584 H 1100.95 3.14932 0.773835 0
M  V30 11585 H 1100.74 3.82386 -0.867378 0
M  V30 11586 H 1102.23 4.17559 0.0582175 0
M  V30 11587 N 1102.66 0.908147 1.28804 0
M  V30 11588 C 1104.08 0.605474 1.47669 0
M  V30 11589 C 1104.28 -0.850759 1.82659 0
M  V30 11590 O 1103.33 -1.63029 1.92816 0
M  V30 11591 C 1104.65 1.53856 2.58358 0
M  V30 11592 C 1106.2 1.54467 2.7223 0
M  V30 11593 C 1106.67 2.46424 3.86056 0
M  V30 11594 N 1108.16 2.44519 3.93402 0
M  V30 11595 C 1108.9 3.12371 4.80845 0
M  V30 11596 N 1108.39 3.89533 5.72919 0
M  V30 11597 N 1110.19 3.01486 4.74407 0
M  V30 11598 H 1102.34 1.84988 1.04371 0
M  V30 11599 H 1104.6 0.793132 0.519274 0
M  V30 11600 H 1104.31 2.57651 2.39393 0
M  V30 11601 H 1104.18 1.26543 3.5534 0
M  V30 11602 H 1106.57 0.514127 2.90587 0
M  V30 11603 H 1106.65 1.85821 1.75796 0
M  V30 11604 H 1106.29 3.49577 3.68454 0
M  V30 11605 H 1106.22 2.12375 4.81876 0
M  V30 11606 H 1108.71 1.88464 3.27551 0
M  V30 11607 H 1109.03 4.3834 6.36457 0
M  V30 11608 H 1107.37 3.93639 5.72777 0
M  V30 11609 H 1110.56 2.40713 4.01466 0
M  V30 11610 H 1110.73 3.5464 5.42342 0
M  V30 11611 N 1104.14 -1.42577 0.671525 0
M  V30 11612 C 1105.1 -2.292 0.000392482 0
M  V30 11613 C 1106.1 -1.43158 -0.732294 0
M  V30 11614 O 1107.29 -1.64583 -0.570789 0
M  V30 11615 C 1104.43 -3.25591 -1.01013 0
M  V30 11616 H 1105.62 -2.90037 0.762783 0
M  V30 11617 H 1103.17 -1.50162 0.433703 0
M  V30 11618 H 1103.91 -2.69685 -1.80112 0
M  V30 11619 H 1103.69 -3.89049 -0.488183 0
M  V30 11620 H 1105.18 -3.90561 -1.47824 0
M  V30 11621 N 1105.62 -0.414636 -1.52048 0
M  V30 11622 C 1106.86 0.151945 -2.02832 0
M  V30 11623 C 1107.22 1.42337 -1.29452 0
M  V30 11624 O 1106.51 1.87509 -0.39383 0
M  V30 11625 C 1106.71 0.448327 -3.54577 0
M  V30 11626 C 1106.54 -0.792827 -4.42656 0
M  V30 11627 C 1105.31 -1.31966 -4.87763 0
M  V30 11628 C 1107.5 -1.67252 -4.86345 0
M  V30 11629 N 1105.49 -2.51572 -5.59986 0
M  V30 11630 C 1106.86 -2.71479 -5.57404 0
M  V30 11631 C 1108.91 -1.68963 -4.68354 0
M  V30 11632 C 1107.61 -3.77334 -6.12382 0
M  V30 11633 C 1109.64 -2.7374 -5.24233 0
M  V30 11634 C 1109 -3.76687 -5.95219 0
M  V30 11635 H 1105.1 0.0170247 -0.781815 0
M  V30 11636 H 1107.69 -0.570219 -1.86163 0
M  V30 11637 H 1105.86 1.13953 -3.71307 0
M  V30 11638 H 1107.59 1.00427 -3.92041 0
M  V30 11639 H 1104.34 -0.876885 -4.65411 0
M  V30 11640 H 1104.77 -3.12161 -6.00737 0
M  V30 11641 H 1109.41 -0.907103 -4.12955 0
M  V30 11642 H 1107.13 -4.56439 -6.6685 0
M  V30 11643 H 1110.71 -2.75978 -5.12179 0
M  V30 11644 H 1109.59 -4.56431 -6.37684 0
M  V30 11645 N 1107.1 1.56929 -0.145233 0
M  V30 11646 C 1108.34 1.97959 0.509092 0
M  V30 11647 C 1108.7 1.02813 1.62153 0
M  V30 11648 O 1109.9 1.3288 2.33659 0
M  V30 11649 C 1108.17 3.43012 1.00388 0
M  V30 11650 S 1109.73 4.06064 1.66305 0
M  V30 11651 H 1106.55 0.69167 0.164663 0
M  V30 11652 H 1109.15 1.94064 -0.236529 0
M  V30 11653 H 1107.86 4.0999 0.183454 0
M  V30 11654 H 1107.39 3.50615 1.78417 0
M  V30 11655 H 1109.4 3.98971 2.9502 0
M  V30 11656 N 1108.58 -0.128553 1.57075 0
M  V30 11657 C 1109.49 -1.17718 2.02927 0
M  V30 11658 C 1110.5 -1.45912 0.947932 0
M  V30 11659 O 1111.68 -1.57217 1.25876 0
M  V30 11660 C 1108.74 -2.48625 2.41633 0
M  V30 11661 C 1107.8 -2.27914 3.63804 0
M  V30 11662 C 1107.04 -3.52579 4.00654 0
M  V30 11663 O 1107.26 -4.59505 3.37952 0
M  V30 11664 O 1106.19 -3.44147 4.93808 0
M  V30 11665 H 1110.02 -0.817846 2.92481 0
M  V30 11666 H 1107.6 -0.338649 1.45511 0
M  V30 11667 H 1109.49 -3.2577 2.67305 0
M  V30 11668 H 1108.16 -2.84052 1.55229 0
M  V30 11669 H 1107.07 -1.4866 3.43294 0
M  V30 11670 H 1108.4 -1.97395 4.50883 0
M  V30 11671 N 1110.05 -1.5248 -0.398459 0
M  V30 11672 C 1110.99 -1.71321 -1.50746 0
M  V30 11673 C 1111.96 -0.5609 -1.52619 0
M  V30 11674 O 1113.15 -0.789557 -1.71167 0
M  V30 11675 C 1110.28 -1.76223 -2.89246 0
M  V30 11676 C 1109.32 -2.97878 -3.05239 0
M  V30 11677 S 1110.15 -4.58031 -2.77431 0
M  V30 11678 C 1111.31 -4.65735 -4.18141 0
M  V30 11679 H 1111.54 -2.65117 -1.34538 0
M  V30 11680 H 1109.08 -1.42653 -0.590727 0
M  V30 11681 H 1111.03 -1.79733 -3.69062 0
M  V30 11682 H 1109.7 -0.83536 -3.02788 0
M  V30 11683 H 1108.89 -2.97821 -4.06594 0
M  V30 11684 H 1108.49 -2.92311 -2.33304 0
M  V30 11685 H 1110.78 -4.43768 -5.11934 0
M  V30 11686 H 1111.73 -5.67709 -4.23217 0
M  V30 11687 H 1112.13 -3.94664 -4.03609 0
M  V30 11688 N 1111.53 0.65634 -1.43283 0
M  V30 11689 C 1112.78 1.41837 -1.44949 0
M  V30 11690 C 1113.11 1.94065 -0.0723212 0
M  V30 11691 O 1112.39 1.72092 0.906346 0
M  V30 11692 C 1112.67 2.60206 -2.48927 0
M  V30 11693 C 1112.52 2.1349 -3.95907 0
M  V30 11694 C 1113.84 3.62421 -2.49678 0
M  V30 11695 H 1110.96 0.514398 -0.527792 0
M  V30 11696 H 1113.6 0.74435 -1.74813 0
M  V30 11697 H 1111.75 3.17708 -2.23592 0
M  V30 11698 H 1113.42 1.61012 -4.32288 0
M  V30 11699 H 1111.67 1.4489 -4.08888 0
M  V30 11700 H 1112.34 2.98596 -4.64268 0
M  V30 11701 H 1114.81 3.14671 -2.72252 0
M  V30 11702 H 1113.69 4.42798 -3.24378 0
M  V30 11703 H 1113.95 4.14802 -1.52944 0
M  V30 11704 N 1113.01 1.29761 0.894412 0
M  V30 11705 C 1114.26 1.17806 1.64214 0
M  V30 11706 C 1114.58 -0.269588 1.93127 0
M  V30 11707 O 1113.85 -1.18352 1.56107 0
M  V30 11708 H 1112.43 0.433002 0.608702 0
M  V30 11709 H 1115.09 1.6276 1.07216 0
M  V30 11710 H 1114.19 1.73201 2.5963 0
M  V30 11711 N 1114.49 -1.10549 1.12324 0
M  V30 11712 C 1115.74 -1.81851 0.872531 0
M  V30 11713 C 1116.05 -1.86058 -0.603468 0
M  V30 11714 O 1117.26 -2.53553 -0.970736 0
M  V30 11715 C 1115.71 -3.26631 1.51131 0
M  V30 11716 C 1115.32 -3.30725 3.02201 0
M  V30 11717 C 1117.06 -4.02768 1.34082 0
M  V30 11718 C 1114.97 -4.69957 3.59018 0
M  V30 11719 H 1113.9 -0.681422 0.322769 0
M  V30 11720 H 1116.55 -1.24332 1.34959 0
M  V30 11721 H 1114.93 -3.8414 0.961913 0
M  V30 11722 H 1116.11 -2.83046 3.63623 0
M  V30 11723 H 1114.42 -2.68072 3.18632 0
M  V30 11724 H 1117.02 -5.05612 1.73955 0
M  V30 11725 H 1117.36 -4.15328 0.284369 0
M  V30 11726 H 1117.9 -3.51671 1.85937 0
M  V30 11727 H 1114.63 -4.62597 4.64418 0
M  V30 11728 H 1114.15 -5.18008 3.02371 0
M  V30 11729 H 1115.83 -5.38925 3.58007 0
M  V30 11730 N 1115.97 -0.914965 -1.28321 0
M  V30 11731 C 1116.9 -0.361578 -2.2633 0
M  V30 11732 C 1117.91 0.500637 -1.54911 0
M  V30 11733 O 1119.1 0.31532 -1.75693 0
M  V30 11734 C 1116.2 0.501693 -3.35166 0
M  V30 11735 C 1115.37 -0.338289 -4.3609 0
M  V30 11736 C 1114.43 0.460267 -5.24183 0
M  V30 11737 O 1113.46 -0.127594 -5.69057 0
M  V30 11738 N 1114.66 1.76302 -5.5308 0
M  V30 11739 H 1117.42 -1.20402 -2.74451 0
M  V30 11740 H 1114.99 -0.781042 -1.41814 0
M  V30 11741 H 1116.98 1.04268 -3.91037 0
M  V30 11742 H 1115.55 1.24485 -2.86744 0
M  V30 11743 H 1114.77 -1.06064 -3.79663 0
M  V30 11744 H 1116.06 -0.912996 -5.00542 0
M  V30 11745 H 1115.45 2.26314 -5.18458 0
M  V30 11746 H 1114.01 2.25081 -6.11704 0
M  V30 11747 N 1117.44 1.42219 -0.679077 0
M  V30 11748 C 1118.67 2.05516 -0.211342 0
M  V30 11749 C 1119.08 1.5113 1.13826 0
M  V30 11750 O 1118.42 0.647593 1.71907 0
M  V30 11751 C 1118.49 3.59425 -0.0736007 0
M  V30 11752 C 1118.15 4.36525 -1.3526 0
M  V30 11753 C 1119.15 4.66897 -2.28698 0
M  V30 11754 C 1116.83 4.76089 -1.60139 0
M  V30 11755 C 1118.83 5.35775 -3.45288 0
M  V30 11756 C 1116.51 5.44706 -2.77017 0
M  V30 11757 C 1117.51 5.74474 -3.69416 0
M  V30 11758 O 1117.2 6.41683 -4.8425 0
M  V30 11759 H 1116.93 0.668662 -0.0993318 0
M  V30 11760 H 1119.49 1.8327 -0.927434 0
M  V30 11761 H 1117.72 3.80346 0.69811 0
M  V30 11762 H 1119.4 4.04346 0.354813 0
M  V30 11763 H 1120.17 4.36828 -2.10729 0
M  V30 11764 H 1116.05 4.5231 -0.890887 0
M  V30 11765 H 1119.59 5.58927 -4.17428 0
M  V30 11766 H 1115.49 5.74194 -2.9491 0
M  V30 11767 H 1116.26 6.60175 -4.8385 0
M  V30 11768 N 1118.92 0.422693 1.51826 0
M  V30 11769 C 1120.17 -0.148641 2.01954 0
M  V30 11770 C 1120.5 -1.43982 1.30765 0
M  V30 11771 O 1119.75 -1.91428 0.406668 0
M  V30 11772 C 1120.05 -0.429516 3.5481 0
M  V30 11773 C 1119.72 0.774088 4.44206 0
M  V30 11774 C 1118.38 1.1042 4.6836 0
M  V30 11775 C 1120.73 1.5777 4.96747 0
M  V30 11776 C 1118.06 2.23887 5.42302 0
M  V30 11777 C 1120.41 2.70325 5.71933 0
M  V30 11778 C 1119.07 3.03807 5.94355 0
M  V30 11779 H 1118.34 -0.0543917 0.739001 0
M  V30 11780 H 1120.99 0.566892 1.82917 0
M  V30 11781 H 1119.3 -1.22678 3.72099 0
M  V30 11782 H 1120.99 -0.884761 3.91118 0
M  V30 11783 H 1117.58 0.506834 4.25593 0
M  V30 11784 H 1121.77 1.33589 4.77983 0
M  V30 11785 H 1117.02 2.50159 5.5788 0
M  V30 11786 H 1121.2 3.32974 6.11638 0
M  V30 11787 H 1118.82 3.91844 6.51431 0
M  V30 11788 N 1120.4 -1.5685 0.153553 0
M  V30 11789 C 1121.82 -1.58306 -0.202801 0
M  V30 11790 C 1122.02 -1.16813 -1.64186 0
M  V30 11791 O 1121.07 -0.871468 -2.36985 0
M  V30 11792 C 1122.38 -3.00636 0.0619012 0
M  V30 11793 C 1123.93 -3.13 -0.00129219 0
M  V30 11794 C 1124.41 -4.57391 0.236164 0
M  V30 11795 N 1125.9 -4.62837 0.18332 0
M  V30 11796 C 1126.63 -5.72382 0.341471 0
M  V30 11797 N 1126.13 -6.90552 0.557704 0
M  V30 11798 N 1127.92 -5.61409 0.278615 0
M  V30 11799 H 1120.07 -1.82113 1.09309 0
M  V30 11800 H 1122.34 -0.843228 0.433209 0
M  V30 11801 H 1122.04 -3.35406 1.0581 0
M  V30 11802 H 1121.92 -3.71477 -0.654555 0
M  V30 11803 H 1124.3 -2.78068 -0.98805 0
M  V30 11804 H 1124.38 -2.44632 0.747596 0
M  V30 11805 H 1124.03 -4.93029 1.22005 0
M  V30 11806 H 1123.96 -5.23894 -0.533125 0
M  V30 11807 H 1126.45 -3.77894 0.0211138 0
M  V30 11808 H 1126.76 -7.69905 0.66831 0
M  V30 11809 H 1125.11 -6.92456 0.594105 0
M  V30 11810 H 1128.3 -4.6797 0.110401 0
M  V30 11811 H 1128.47 -6.46731 0.4053 0
M  V30 11812 N 1121.88 0.120221 -1.57141 0
M  V30 11813 C 1122.81 1.14876 -2.03287 0
M  V30 11814 C 1123.79 1.43259 -0.917112 0
M  V30 11815 O 1124.97 1.53721 -1.18674 0
M  V30 11816 C 1122.1 2.47525 -2.43616 0
M  V30 11817 C 1121.06 2.33607 -3.58625 0
M  V30 11818 C 1120.38 3.71207 -3.84849 0
M  V30 11819 C 1121.68 1.79761 -4.90391 0
M  V30 11820 H 1123.38 0.764943 -2.89463 0
M  V30 11821 H 1120.92 0.366516 -1.39258 0
M  V30 11822 H 1122.88 3.19728 -2.74504 0
M  V30 11823 H 1121.6 2.87794 -1.54409 0
M  V30 11824 H 1120.26 1.63853 -3.27945 0
M  V30 11825 H 1119.91 4.0896 -2.9285 0
M  V30 11826 H 1119.61 3.62749 -4.62263 0
M  V30 11827 H 1121.13 4.44917 -4.18188 0
M  V30 11828 H 1122.55 2.4178 -5.19822 0
M  V30 11829 H 1120.94 1.82126 -5.71795 0
M  V30 11830 H 1122.01 0.755087 -4.78985 0
M  V30 11831 N 1123.36 1.52689 0.390367 0
M  V30 11832 C 1124.3 1.78007 1.4972 0
M  V30 11833 C 1125.3 0.647948 1.56518 0
M  V30 11834 O 1126.5 0.830398 1.59701 0
M  V30 11835 H 1122.88 0.56322 0.498284 0
M  V30 11836 H 1124.85 2.70698 1.25559 0
M  V30 11837 C 1123.6 1.96469 2.86872 0
M  V30 11838 H 1122.92 2.83012 2.82391 0
M  V30 11839 H 1124.36 2.18174 3.6356 0
M  V30 11840 C 1122.82 0.736847 3.28743 0
M  V30 11841 O 1123.35 -0.0863743 4.01607 0
M  V30 11842 N 1121.56 0.56735 2.85008 0
M  V30 11843 H 1121.1 1.23838 2.2588 0
M  V30 11844 H 1121.06 -0.252831 3.13382 0
M  V30 11845 N 1124.83 -0.648732 1.43629 0
M  V30 11846 C 1126.25 -1.23001 1.40455 0
M  V30 11847 C 1126.6 -1.95886 0.110897 0
M  V30 11848 O 1125.72 -2.01485 -0.789487 0
M  V30 11849 C 1126.32 -2.23716 2.54434 0
M  V30 11850 C 1124.88 -2.77311 2.54511 0
M  V30 11851 C 1124.02 -1.52024 2.31914 0
M  V30 11852 H 1126.97 -0.440473 1.52465 0
M  V30 11853 H 1126.99 -3.05979 2.26179 0
M  V30 11854 H 1126.51 -1.7064 3.48574 0
M  V30 11855 H 1124.61 -3.34437 1.64263 0
M  V30 11856 H 1124.72 -3.2455 3.52426 0
M  V30 11857 H 1123.08 -1.79531 1.80667 0
M  V30 11858 H 1123.87 -1.00876 3.28145 0
M  V30 11859 N 1126.31 -1.30234 -0.887518 0
M  V30 11860 C 1127.24 -1.12212 -1.99853 0
M  V30 11861 C 1128.26 -0.0660929 -1.62666 0
M  V30 11862 O 1129.45 -0.311853 -1.75755 0
M  V30 11863 C 1126.55 -0.688591 -3.31831 0
M  V30 11864 C 1125.72 -1.82581 -3.97471 0
M  V30 11865 C 1124.78 -1.38126 -5.07748 0
M  V30 11866 O 1123.8 -2.08805 -5.29518 0
M  V30 11867 N 1125.01 -0.258868 -5.79923 0
M  V30 11868 H 1127.77 -2.07901 -2.15864 0
M  V30 11869 H 1125.33 -1.22336 -1.06045 0
M  V30 11870 H 1127.32 -0.374252 -4.02966 0
M  V30 11871 H 1125.89 0.176185 -3.12103 0
M  V30 11872 H 1125.11 -2.3084 -3.19541 0
M  V30 11873 H 1126.4 -2.58798 -4.38065 0
M  V30 11874 H 1125.8 0.330131 -5.64736 0
M  V30 11875 H 1124.36 -0.00396813 -6.518 0
M  V30 11876 N 1127.79 1.09952 -1.12909 0
M  V30 11877 C 1128.72 2.18477 -0.824014 0
M  V30 11878 C 1129.7 1.68744 0.214324 0
M  V30 11879 O 1130.89 1.94057 0.0744281 0
M  V30 11880 C 1128.02 3.46143 -0.283308 0
M  V30 11881 C 1126.97 4.09178 -1.25528 0
M  V30 11882 C 1126.3 5.31604 -0.574574 0
M  V30 11883 C 1127.6 4.52308 -2.6118 0
M  V30 11884 H 1129.29 2.44254 -1.73148 0
M  V30 11885 H 1126.84 1.17394 -0.833952 0
M  V30 11886 H 1128.79 4.21361 -0.057583 0
M  V30 11887 H 1127.51 3.19872 0.659525 0
M  V30 11888 H 1126.17 3.35973 -1.4669 0
M  V30 11889 H 1125.82 5.01611 0.37356 0
M  V30 11890 H 1125.52 5.74732 -1.22299 0
M  V30 11891 H 1127.04 6.0955 -0.358004 0
M  V30 11892 H 1128.46 5.18776 -2.44017 0
M  V30 11893 H 1126.86 5.06302 -3.22147 0
M  V30 11894 H 1127.93 3.64977 -3.19249 0
M  V30 11895 N 1129.27 0.921757 1.27833 0
M  V30 11896 C 1130.52 0.557974 1.94245 0
M  V30 11897 C 1130.84 -0.90268 1.72849 0
M  V30 11898 O 1130.11 -1.63915 1.07279 0
M  V30 11899 H 1128.69 0.203364 0.718785 0
M  V30 11900 H 1131.35 1.17286 1.5566 0
M  V30 11901 H 1130.45 0.759202 3.02725 0
M  V30 11902 N 1130.75 -1.41857 0.686609 0
M  V30 11903 C 1131.97 -2.05699 0.222561 0
M  V30 11904 C 1132.39 -1.51636 -1.12481 0
M  V30 11905 O 1131.75 -0.660925 -1.70112 0
M  V30 11906 C 1131.8 -3.61138 0.161818 0
M  V30 11907 O 1131.52 -4.13199 1.45596 0
M  V30 11908 C 1133.02 -4.42112 -0.324304 0
M  V30 11909 H 1130.24 -0.662665 0.10543 0
M  V30 11910 H 1132.78 -1.81788 0.936671 0
M  V30 11911 H 1130.94 -3.8412 -0.503056 0
M  V30 11912 H 1131.35 -5.0717 1.33712 0
M  V30 11913 H 1132.83 -5.51097 -0.315694 0
M  V30 11914 H 1133.3 -4.1756 -1.36164 0
M  V30 11915 H 1133.91 -4.24174 0.309251 0
M  V30 11916 N 1132.22 -0.430739 -1.51599 0
M  V30 11917 C 1133.5 0.197543 -1.946 0
M  V30 11918 C 1133.88 1.6069 -1.36901 0
M  V30 11919 O 1133.23 2.21697 -0.553422 0
M  V30 11920 C 1133.44 0.181976 -3.48525 0
M  V30 11921 C 1134.79 0.390783 -4.22798 0
M  V30 11922 O 1135.81 0.260384 -3.55247 0
M  V30 11923 O 1134.67 0.649701 -5.42624 0
M  V30 11924 H 1131.76 0.133524 -0.81615 0
M  V30 11925 H 1134.31 -0.488243 -1.62525 0
M  V30 11926 H 1133.08 -0.803584 -3.8296 0
M  V30 11927 H 1132.71 0.910952 -3.87024 0
M  V30 11928 N 1133.7 1.56767 -0.161869 0
M  V30 11929 C 1134.95 1.95769 0.485536 0
M  V30 11930 C 1135.26 1.05006 1.65025 0
M  V30 11931 O 1136.47 1.33649 2.36326 0
M  V30 11932 C 1134.93 3.4807 0.915176 0
M  V30 11933 C 1134.53 4.47443 -0.223416 0
M  V30 11934 C 1136.28 3.95909 1.53153 0
M  V30 11935 C 1134.19 5.90971 0.225325 0
M  V30 11936 H 1133.12 0.730911 0.185161 0
M  V30 11937 H 1135.77 1.81808 -0.248592 0
M  V30 11938 H 1134.15 3.57415 1.705 0
M  V30 11939 H 1135.32 4.49805 -1.00061 0
M  V30 11940 H 1133.64 4.09606 -0.749127 0
M  V30 11941 H 1136.23 5.00592 1.87915 0
M  V30 11942 H 1136.58 3.38307 2.42599 0
M  V30 11943 H 1137.11 3.89542 0.806322 0
M  V30 11944 H 1133.85 6.52426 -0.634124 0
M  V30 11945 H 1133.37 5.91936 0.96808 0
M  V30 11946 H 1135.05 6.43497 0.672373 0
M  V30 11947 N 1135.18 -0.111886 1.57202 0
M  V30 11948 C 1136.11 -1.16749 1.96074 0
M  V30 11949 C 1137.09 -1.39735 0.831438 0
M  V30 11950 O 1138.28 -1.53772 1.09025 0
M  V30 11951 C 1135.4 -2.51996 2.26308 0
M  V30 11952 C 1134.45 -2.45394 3.48832 0
M  V30 11953 S 1135.28 -1.8867 5.01163 0
M  V30 11954 C 1136.44 -3.25576 5.34557 0
M  V30 11955 H 1136.67 -0.836033 2.85303 0
M  V30 11956 H 1134.2 -0.318922 1.5107 0
M  V30 11957 H 1136.16 -3.29813 2.44405 0
M  V30 11958 H 1134.82 -2.82317 1.3768 0
M  V30 11959 H 1134.02 -3.45038 3.67376 0
M  V30 11960 H 1133.62 -1.75702 3.30159 0
M  V30 11961 H 1135.91 -4.21807 5.30174 0
M  V30 11962 H 1136.85 -3.11853 6.35731 0
M  V30 11963 H 1137.26 -3.24333 4.62026 0
M  V30 11964 N 1136.66 -1.52894 -0.382264 0
M  V30 11965 C 1137.59 -1.81122 -1.47367 0
M  V30 11966 C 1138.57 -0.663653 -1.56619 0
M  V30 11967 O 1139.75 -0.911898 -1.71459 0
M  V30 11968 C 1136.88 -1.98615 -2.84902 0
M  V30 11969 C 1135.84 -3.14328 -2.90485 0
M  V30 11970 C 1135.16 -3.17086 -4.30535 0
M  V30 11971 C 1136.46 -4.53263 -2.59519 0
M  V30 11972 H 1138.16 -2.72518 -1.23993 0
M  V30 11973 H 1135.7 -1.3113 -0.595049 0
M  V30 11974 H 1137.66 -2.16946 -3.61265 0
M  V30 11975 H 1136.38 -1.03915 -3.09628 0
M  V30 11976 H 1135.04 -2.95791 -2.16572 0
M  V30 11977 H 1134.69 -2.20055 -4.52311 0
M  V30 11978 H 1134.39 -3.94821 -4.3519 0
M  V30 11979 H 1135.91 -3.3758 -5.08795 0
M  V30 11980 H 1137.33 -4.71867 -3.25598 0
M  V30 11981 H 1135.72 -5.33115 -2.75514 0
M  V30 11982 H 1136.79 -4.59516 -1.54831 0
M  V30 11983 N 1138.14 0.641106 -1.43971 0
M  V30 11984 C 1139.41 1.39897 -1.36704 0
M  V30 11985 C 1139.79 2.1109 -0.0208051 0
M  V30 11986 O 1139.14 2.05638 0.99625 0
M  V30 11987 C 1139.35 2.37366 -2.55849 0
M  V30 11988 C 1140.7 3.01 -2.99473 0
M  V30 11989 O 1141.72 2.47692 -2.55982 0
M  V30 11990 O 1140.58 3.9768 -3.74851 0
M  V30 11991 H 1137.68 0.625623 -0.540855 0
M  V30 11992 H 1140.22 0.666997 -1.56042 0
M  V30 11993 H 1139 1.8379 -3.45452 0
M  V30 11994 H 1138.62 3.17995 -2.38673 0
M  V30 11995 N 1139.62 1.30703 0.880598 0
M  V30 11996 C 1140.53 1.19389 2.01949 0
M  V30 11997 C 1141.54 0.112868 1.73634 0
M  V30 11998 O 1142.72 0.328643 1.98701 0
M  V30 11999 C 1139.78 0.891004 3.35055 0
M  V30 12000 C 1138.84 2.05784 3.76764 0
M  V30 12001 C 1138.08 1.76931 5.03519 0
M  V30 12002 O 1138.3 0.699326 5.66097 0
M  V30 12003 O 1137.23 2.623 5.4174 0
M  V30 12004 H 1141.06 2.15073 2.14423 0
M  V30 12005 H 1138.64 1.10339 1.00726 0
M  V30 12006 H 1140.53 0.737476 4.14897 0
M  V30 12007 H 1139.2 -0.0358909 3.2368 0
M  V30 12008 H 1138.11 2.26672 2.97608 0
M  V30 12009 H 1139.44 2.96661 3.9275 0
M  V30 12010 N 1141.09 -1.09351 1.1349 0
M  V30 12011 C 1142.34 -1.81812 0.898452 0
M  V30 12012 C 1142.67 -1.85525 -0.573959 0
M  V30 12013 O 1141.95 -1.32403 -1.42477 0
M  V30 12014 C 1142.23 -3.27921 1.48794 0
M  V30 12015 C 1142.08 -3.32476 3.02952 0
M  V30 12016 C 1143.4 -4.24625 1.15678 0
M  V30 12017 H 1140.52 -0.660074 0.327829 0
M  V30 12018 H 1143.16 -1.28091 1.40331 0
M  V30 12019 H 1141.31 -3.738 1.05858 0
M  V30 12020 H 1142.99 -2.94994 3.54649 0
M  V30 12021 H 1141.23 -2.72037 3.37903 0
M  V30 12022 H 1141.9 -4.35409 3.39298 0
M  V30 12023 H 1144.38 -3.87036 1.52781 0
M  V30 12024 H 1143.25 -5.25194 1.59571 0
M  V30 12025 H 1143.51 -4.42044 0.0705933 0
M  V30 12026 N 1142.57 -0.928524 -1.27343 0
M  V30 12027 C 1143.8 -0.58516 -1.98974 0
M  V30 12028 C 1144.22 0.829964 -1.68799 0
M  V30 12029 O 1143.58 1.55705 -0.928738 0
M  V30 12030 C 1143.63 -0.818662 -3.51184 0
M  V30 12031 O 1142.73 0.115355 -4.12239 0
M  V30 12032 H 1142.07 -0.225203 -0.624644 0
M  V30 12033 H 1144.6 -1.248 -1.6213 0
M  V30 12034 H 1144.61 -0.734554 -4.01333 0
M  V30 12035 H 1143.29 -1.8502 -3.72479 0
M  V30 12036 H 1141.86 -0.0187371 -3.72895 0
M  V30 12037 N 1144.05 1.41491 -0.694123 0
M  V30 12038 C 1145.33 1.95004 -0.152571 0
M  V30 12039 C 1145.71 1.63357 1.33707 0
M  V30 12040 O 1145.05 0.939815 2.08278 0
M  V30 12041 C 1145.26 3.46186 -0.44232 0
M  V30 12042 C 1146.61 4.22991 -0.369279 0
M  V30 12043 O 1147.64 3.54198 -0.377152 0
M  V30 12044 O 1146.5 5.45514 -0.328145 0
M  V30 12045 H 1143.59 0.826879 -0.0141253 0
M  V30 12046 H 1146.14 1.51216 -0.770183 0
M  V30 12047 H 1144.91 3.62497 -1.47348 0
M  V30 12048 H 1144.53 3.97064 0.206337 0
M  V30 12049 N 1145.53 0.438773 1.51369 0
M  V30 12050 C 1146.76 -0.125847 2.06517 0
M  V30 12051 C 1147.17 -1.36336 1.30606 0
M  V30 12052 O 1146.53 -1.78792 0.36603 0
M  V30 12053 C 1146.58 -0.446619 3.5873 0
M  V30 12054 O 1146.3 0.741781 4.31775 0
M  V30 12055 C 1147.8 -1.06175 4.30397 0
M  V30 12056 H 1145.02 -0.00728868 0.67096 0
M  V30 12057 H 1147.56 0.618267 1.9493 0
M  V30 12058 H 1145.72 -1.14064 3.70227 0
M  V30 12059 H 1146.13 0.466907 5.22418 0
M  V30 12060 H 1147.61 -1.23619 5.3798 0
M  V30 12061 H 1148.08 -2.04317 3.88782 0
M  V30 12062 H 1148.69 -0.40708 4.23347 0
M  V30 12063 N 1147.01 -1.56678 0.170181 0
M  V30 12064 C 1148.25 -1.9714 -0.475767 0
M  V30 12065 C 1148.58 -1.05611 -1.62972 0
M  V30 12066 O 1147.86 -0.103017 -1.94227 0
M  V30 12067 C 1148.14 -3.47072 -0.959828 0
M  V30 12068 C 1148 -4.4938 0.194225 0
M  V30 12069 C 1149.31 -4.00071 -1.83387 0
M  V30 12070 H 1146.43 -0.716776 -0.171466 0
M  V30 12071 H 1149.08 -1.88266 0.256086 0
M  V30 12072 H 1147.23 -3.54766 -1.58346 0
M  V30 12073 H 1148.9 -4.53748 0.83128 0
M  V30 12074 H 1147.14 -4.25393 0.849893 0
M  V30 12075 H 1147.81 -5.51685 -0.186575 0
M  V30 12076 H 1150.29 -3.95002 -1.30815 0
M  V30 12077 H 1149.16 -5.05398 -2.14159 0
M  V30 12078 H 1149.42 -3.43819 -2.77923 0
M  V30 12079 N 1148.48 0.103547 -1.57259 0
M  V30 12080 C 1149.41 1.12714 -2.04494 0
M  V30 12081 C 1150.39 1.42278 -0.932255 0
M  V30 12082 O 1151.58 1.52453 -1.20298 0
M  V30 12083 C 1148.71 2.44927 -2.46228 0
M  V30 12084 C 1147.66 2.2979 -3.61082 0
M  V30 12085 C 1146.99 3.67105 -3.88765 0
M  V30 12086 C 1148.29 1.7455 -4.9227 0
M  V30 12087 H 1149.98 0.734198 -2.90258 0
M  V30 12088 H 1147.53 0.351725 -1.39638 0
M  V30 12089 H 1149.48 3.16798 -2.77879 0
M  V30 12090 H 1148.21 2.8614 -1.57453 0
M  V30 12091 H 1146.87 1.60366 -3.29664 0
M  V30 12092 H 1146.51 4.05831 -2.97171 0
M  V30 12093 H 1146.21 3.57825 -4.66084 0
M  V30 12094 H 1147.74 4.40456 -4.22884 0
M  V30 12095 H 1149.15 2.36253 -5.22358 0
M  V30 12096 H 1147.55 1.76051 -5.73695 0
M  V30 12097 H 1148.62 0.704242 -4.79759 0
M  V30 12098 N 1149.96 1.53094 0.37415 0
M  V30 12099 C 1151.21 1.69111 1.11934 0
M  V30 12100 C 1151.54 0.437252 1.89213 0
M  V30 12101 O 1150.82 -0.565298 1.86104 0
M  V30 12102 C 1151.1 2.93559 2.08554 0
M  V30 12103 C 1150.95 4.29082 1.3494 0
M  V30 12104 C 1152.27 3.13586 3.08791 0
M  V30 12105 H 1149.39 0.615383 0.405553 0
M  V30 12106 H 1152.03 1.85719 0.401078 0
M  V30 12107 H 1150.18 2.79531 2.69805 0
M  V30 12108 H 1151.85 4.54906 0.765402 0
M  V30 12109 H 1150.1 4.28884 0.651238 0
M  V30 12110 H 1150.77 5.12275 2.05616 0
M  V30 12111 H 1153.24 3.26743 2.57639 0
M  V30 12112 H 1152.12 4.02112 3.73627 0
M  V30 12113 H 1152.38 2.28475 3.78486 0
M  V30 12114 N 1151.44 -0.633461 1.44309 0
M  V30 12115 C 1152.39 -1.76674 1.51292 0
M  V30 12116 C 1153.38 -1.64972 0.384807 0
M  V30 12117 O 1154.59 -1.71079 0.559653 0
M  V30 12118 H 1150.96 -0.583238 0.474697 0
M  V30 12119 H 1152.93 -1.67907 2.46678 0
M  V30 12120 C 1151.68 -3.15002 1.47205 0
M  V30 12121 H 1151.01 -3.24653 2.33325 0
M  V30 12122 H 1152.45 -3.94199 1.56151 0
M  V30 12123 C 1150.9 -3.3635 0.192464 0
M  V30 12124 O 1151.43 -3.94857 -0.738285 0
M  V30 12125 N 1149.64 -2.9044 0.0963424 0
M  V30 12126 H 1149.19 -2.43011 0.85459 0
M  V30 12127 H 1149.15 -3.05099 -0.759061 0
M  V30 12128 N 1152.92 -1.31168 -0.873655 0
M  V30 12129 C 1153.88 -1.18471 -1.96207 0
M  V30 12130 C 1154.88 -0.112814 -1.60404 0
M  V30 12131 O 1156.07 -0.3618 -1.70401 0
M  V30 12132 C 1153.2 -0.817662 -3.30949 0
M  V30 12133 H 1154.4 -2.1518 -2.08896 0
M  V30 12134 H 1151.95 -1.14727 -1.06149 0
M  V30 12135 H 1152.68 0.148428 -3.2396 0
M  V30 12136 H 1152.47 -1.59244 -3.58307 0
M  V30 12137 H 1153.96 -0.75262 -4.10762 0
M  V30 12138 N 1154.4 1.08748 -1.14068 0
M  V30 12139 C 1155.33 2.17591 -0.84714 0
M  V30 12140 C 1156.31 1.68962 0.196415 0
M  V30 12141 O 1157.49 1.94125 0.0538415 0
M  V30 12142 C 1154.62 3.45823 -0.320005 0
M  V30 12143 C 1153.58 4.07824 -1.2986 0
M  V30 12144 C 1152.9 5.30965 -0.630925 0
M  V30 12145 C 1154.2 4.49512 -2.65963 0
M  V30 12146 H 1155.9 2.42404 -1.75729 0
M  V30 12147 H 1153.44 1.16502 -0.846356 0
M  V30 12148 H 1155.4 4.21276 -0.102271 0
M  V30 12149 H 1154.12 3.20553 0.625561 0
M  V30 12150 H 1152.78 3.34398 -1.50245 0
M  V30 12151 H 1152.43 5.01979 0.320337 0
M  V30 12152 H 1152.13 5.73402 -1.28388 0
M  V30 12153 H 1153.65 6.09136 -0.422635 0
M  V30 12154 H 1155.06 5.16159 -2.49506 0
M  V30 12155 H 1153.46 5.02857 -3.27498 0
M  V30 12156 H 1154.53 3.6157 -3.23102 0
M  V30 12157 N 1155.87 0.935264 1.26849 0
M  V30 12158 C 1157.12 0.590057 1.94653 0
M  V30 12159 C 1157.48 -0.860481 1.72086 0
M  V30 12160 O 1156.77 -1.60672 1.04379 0
M  V30 12161 C 1156.96 0.861098 3.46872 0
M  V30 12162 C 1156.79 2.33643 3.84241 0
M  V30 12163 C 1155.56 2.99052 4.07303 0
M  V30 12164 C 1157.76 3.3145 3.9325 0
M  V30 12165 N 1155.74 4.36659 4.31511 0
M  V30 12166 C 1157.11 4.54294 4.21921 0
M  V30 12167 C 1159.17 3.26555 3.75854 0
M  V30 12168 C 1157.87 5.72854 4.35006 0
M  V30 12169 C 1159.9 4.44435 3.90168 0
M  V30 12170 C 1159.26 5.66059 4.19233 0
M  V30 12171 H 1155.36 0.266182 0.735303 0
M  V30 12172 H 1157.94 1.20345 1.53053 0
M  V30 12173 H 1156.11 0.276803 3.87412 0
M  V30 12174 H 1157.84 0.477757 4.0187 0
M  V30 12175 H 1154.6 2.49692 4.02431 0
M  V30 12176 H 1155.02 5.07869 4.47658 0
M  V30 12177 H 1159.67 2.33585 3.52417 0
M  V30 12178 H 1157.38 6.66283 4.57266 0
M  V30 12179 H 1160.97 4.42174 3.78119 0
M  V30 12180 H 1159.85 6.55753 4.30068 0
M  V30 12181 N 1157.35 -1.41121 0.701616 0
M  V30 12182 C 1158.26 -2.34565 0.0407815 0
M  V30 12183 C 1159.28 -1.56555 -0.75937 0
M  V30 12184 O 1160.45 -1.89008 -0.695542 0
M  V30 12185 C 1157.52 -3.35347 -0.879954 0
M  V30 12186 C 1156.58 -4.29241 -0.0713279 0
M  V30 12187 C 1155.81 -5.25209 -0.948211 0
M  V30 12188 O 1156.04 -5.26781 -2.18766 0
M  V30 12189 O 1154.97 -6.00605 -0.394657 0
M  V30 12190 H 1158.8 -2.92666 0.811188 0
M  V30 12191 H 1156.38 -1.42077 0.461991 0
M  V30 12192 H 1158.26 -3.9719 -1.40776 0
M  V30 12193 H 1156.94 -2.7968 -1.62975 0
M  V30 12194 H 1155.85 -3.70727 0.50122 0
M  V30 12195 H 1157.18 -4.88022 0.639935 0
M  V30 12196 N 1158.83 -0.446794 -1.51134 0
M  V30 12197 C 1160.06 0.114893 -2.06581 0
M  V30 12198 C 1160.47 1.35642 -1.31327 0
M  V30 12199 O 1159.83 1.78595 -0.375506 0
M  V30 12200 C 1159.88 0.427589 -3.58962 0
M  V30 12201 O 1159.6 -0.764669 -4.31375 0
M  V30 12202 C 1161.1 1.03891 -4.30954 0
M  V30 12203 H 1158.32 0.00373031 -0.67099 0
M  V30 12204 H 1160.87 -0.628596 -1.94599 0
M  V30 12205 H 1159.02 1.12099 -3.70827 0
M  V30 12206 H 1159.44 -0.494605 -5.22163 0
M  V30 12207 H 1160.91 1.20764 -5.38628 0
M  V30 12208 H 1161.39 2.02252 -3.8986 0
M  V30 12209 H 1161.99 0.384623 -4.23557 0
M  V30 12210 N 1160.31 1.56586 -0.178487 0
M  V30 12211 C 1161.22 2.21903 0.761321 0
M  V30 12212 C 1162.23 1.21289 1.2476 0
M  V30 12213 O 1163.41 1.53974 1.29823 0
M  V30 12214 C 1160.48 2.85259 1.97048 0
M  V30 12215 C 1159.54 4.01095 1.53039 0
M  V30 12216 C 1158.77 4.61421 2.68191 0
M  V30 12217 O 1158.99 4.20644 3.85247 0
M  V30 12218 O 1157.93 5.51171 2.41855 0
M  V30 12219 H 1161.75 3.02788 0.235141 0
M  V30 12220 H 1159.34 1.49316 0.0500442 0
M  V30 12221 H 1161.22 3.25404 2.6775 0
M  V30 12222 H 1159.89 2.07366 2.48558 0
M  V30 12223 H 1158.8 3.65606 0.792661 0
M  V30 12224 H 1160.13 4.80603 1.06213 0
M  V30 12225 N 1161.79 -0.095206 1.57312 0
M  V30 12226 C 1163.03 -0.799903 1.86358 0
M  V30 12227 C 1163.37 -1.78386 0.767593 0
M  V30 12228 O 1162.64 -1.93201 -0.224439 0
M  V30 12229 C 1162.92 -1.52875 3.26039 0
M  V30 12230 C 1162.78 -0.562781 4.46265 0
M  V30 12231 C 1164.1 -2.47935 3.63616 0
M  V30 12232 H 1161.21 -0.289339 0.677829 0
M  V30 12233 H 1163.86 -0.0635369 1.89894 0
M  V30 12234 H 1162.01 -2.15645 3.23156 0
M  V30 12235 H 1163.68 0.0579068 4.61264 0
M  V30 12236 H 1161.92 0.123847 4.33623 0
M  V30 12237 H 1162.59 -1.10989 5.40727 0
M  V30 12238 H 1165.07 -1.95257 3.67442 0
M  V30 12239 H 1163.94 -2.95948 4.62283 0
M  V30 12240 H 1164.21 -3.31687 2.92294 0
M  V30 12241 N 1163.26 -1.53291 -0.366026 0
M  V30 12242 C 1164.49 -1.73108 -1.1277 0
M  V30 12243 C 1164.9 -0.459662 -1.83531 0
M  V30 12244 O 1164.25 0.577151 -1.74398 0
M  V30 12245 C 1164.31 -2.84137 -2.20242 0
M  V30 12246 C 1163.97 -4.24503 -1.69252 0
M  V30 12247 C 1164.97 -5.06866 -1.15684 0
M  V30 12248 C 1162.65 -4.70912 -1.74778 0
M  V30 12249 C 1164.65 -6.33728 -0.683191 0
M  V30 12250 C 1162.33 -5.97752 -1.27025 0
M  V30 12251 C 1163.33 -6.78992 -0.738858 0
M  V30 12252 O 1163.02 -8.03452 -0.268375 0
M  V30 12253 H 1162.75 -0.582439 -0.343134 0
M  V30 12254 H 1165.31 -2.00828 -0.430969 0
M  V30 12255 H 1163.54 -2.5189 -2.93408 0
M  V30 12256 H 1165.23 -2.92136 -2.818 0
M  V30 12257 H 1165.99 -4.72185 -1.10753 0
M  V30 12258 H 1161.87 -4.07751 -2.15081 0
M  V30 12259 H 1165.41 -6.97086 -0.267746 0
M  V30 12260 H 1161.31 -6.31933 -1.31649 0
M  V30 12261 H 1162.08 -8.17581 -0.387745 0
M  V30 12262 N 1164.74 0.6258 -1.44643 0
M  V30 12263 C 1165.99 1.38125 -1.46984 0
M  V30 12264 C 1166.3 1.95299 -0.108429 0
M  V30 12265 O 1167.51 2.71498 -0.00940005 0
M  V30 12266 C 1165.97 2.50108 -2.58793 0
M  V30 12267 C 1165.57 1.99424 -4.01166 0
M  V30 12268 C 1167.32 3.27269 -2.70361 0
M  V30 12269 C 1165.23 3.08781 -5.04389 0
M  V30 12270 H 1164.16 0.519083 -0.546872 0
M  V30 12271 H 1166.81 0.67268 -1.70726 0
M  V30 12272 H 1165.19 3.23565 -2.28302 0
M  V30 12273 H 1166.36 1.32797 -4.4125 0
M  V30 12274 H 1164.68 1.35063 -3.93887 0
M  V30 12275 H 1167.27 4.08802 -3.44652 0
M  V30 12276 H 1167.62 3.77097 -1.76362 0
M  V30 12277 H 1168.15 2.60905 -3.00289 0
M  V30 12278 H 1164.89 2.63891 -6.00035 0
M  V30 12279 H 1164.41 3.74033 -4.68892 0
M  V30 12280 H 1166.09 3.73469 -5.28328 0
M  V30 12281 N 1166.22 1.31629 0.866686 0
M  V30 12282 C 1167.45 1.24293 1.6503 0
M  V30 12283 C 1167.86 -0.193556 1.88207 0
M  V30 12284 O 1167.2 -1.13712 1.44275 0
M  V30 12285 C 1167.26 1.92032 3.03914 0
M  V30 12286 C 1166.93 3.41373 3.03831 0
M  V30 12287 C 1167.92 4.37064 2.81551 0
M  V30 12288 C 1165.61 3.83118 3.24848 0
M  V30 12289 C 1167.6 5.72474 2.80272 0
M  V30 12290 C 1165.29 5.18639 3.23197 0
M  V30 12291 C 1166.29 6.13128 3.00936 0
M  V30 12292 O 1165.98 7.46172 2.99137 0
M  V30 12293 H 1165.71 0.430569 0.521139 0
M  V30 12294 H 1168.26 1.74105 1.0898 0
M  V30 12295 H 1166.49 1.36774 3.61704 0
M  V30 12296 H 1168.18 1.78567 3.64512 0
M  V30 12297 H 1168.95 4.06142 2.65093 0
M  V30 12298 H 1164.83 3.10001 3.41204 0
M  V30 12299 H 1168.37 6.46199 2.62816 0
M  V30 12300 H 1164.27 5.49196 3.39197 0
M  V30 12301 H 1165.04 7.55385 3.15175 0
M  V30 12302 N 1167.7 -1.08142 1.14644 0
M  V30 12303 C 1168.61 -2.18675 0.849607 0
M  V30 12304 C 1169.63 -1.73158 -0.170983 0
M  V30 12305 O 1170.8 -2.014 0.0011579 0
M  V30 12306 C 1167.87 -3.45084 0.334305 0
M  V30 12307 C 1166.93 -4.05213 1.41779 0
M  V30 12308 C 1166.16 -5.25588 0.926981 0
M  V30 12309 O 1166.38 -5.69934 -0.230522 0
M  V30 12310 O 1165.32 -5.77183 1.70715 0
M  V30 12311 H 1169.14 -2.46542 1.77343 0
M  V30 12312 H 1166.73 -1.17328 0.924911 0
M  V30 12313 H 1168.61 -4.21367 0.0529893 0
M  V30 12314 H 1167.29 -3.18788 -0.561755 0
M  V30 12315 H 1166.19 -3.30507 1.7526 0
M  V30 12316 H 1167.53 -4.35764 2.28847 0
M  V30 12317 N 1169.18 -0.941978 -1.26351 0
M  V30 12318 C 1170.13 -0.423053 -2.24041 0
M  V30 12319 C 1171.11 0.480668 -1.53553 0
M  V30 12320 O 1172.3 0.315783 -1.7416 0
M  V30 12321 C 1169.43 0.309814 -3.41899 0
M  V30 12322 C 1168.52 -0.611245 -4.19672 0
M  V30 12323 N 1168.91 -1.73738 -4.75025 0
M  V30 12324 C 1167.21 -0.416985 -4.44046 0
M  V30 12325 C 1167.91 -2.31141 -5.33806 0
M  V30 12326 N 1166.88 -1.59934 -5.1954 0
M  V30 12327 H 1170.69 -1.28268 -2.64433 0
M  V30 12328 H 1168.2 -0.797941 -1.41445 0
M  V30 12329 H 1170.2 0.698618 -4.11005 0
M  V30 12330 H 1168.86 1.1662 -3.03035 0
M  V30 12331 H 1169.87 -2.1195 -4.72544 0
M  V30 12332 H 1166.55 0.397561 -4.15603 0
M  V30 12333 H 1167.94 -3.26029 -5.87499 0
M  V30 12334 N 1170.66 1.40747 -0.709091 0
M  V30 12335 C 1172.07 1.54961 -0.381989 0
M  V30 12336 C 1172.27 1.68181 1.10985 0
M  V30 12337 O 1171.33 1.66776 1.89584 0
M  V30 12338 C 1172.64 2.78156 -1.14236 0
M  V30 12339 C 1174.19 2.91967 -1.12803 0
M  V30 12340 C 1174.66 4.18066 -1.87042 0
M  V30 12341 N 1176.15 4.25052 -1.84078 0
M  V30 12342 C 1176.89 5.21514 -2.38349 0
M  V30 12343 N 1176.39 6.23924 -3.01149 0
M  V30 12344 N 1178.18 5.13548 -2.28528 0
M  V30 12345 H 1170.33 1.30412 -1.6765 0
M  V30 12346 H 1172.59 0.630147 -0.70825 0
M  V30 12347 H 1172.3 2.74643 -2.19691 0
M  V30 12348 H 1172.17 3.70074 -0.729731 0
M  V30 12349 H 1174.56 2.94987 -0.0816956 0
M  V30 12350 H 1174.64 2.01185 -1.57982 0
M  V30 12351 H 1174.28 4.15808 -2.91662 0
M  V30 12352 H 1174.21 5.07845 -1.39287 0
M  V30 12353 H 1176.71 3.51682 -1.38305 0
M  V30 12354 H 1177.02 6.93942 -3.40094 0
M  V30 12355 H 1175.36 6.24387 -3.05231 0
M  V30 12356 H 1178.55 4.3247 -1.79129 0
M  V30 12357 H 1178.73 5.88553 -2.71126 0
M  V30 12358 N 1172.13 0.454803 1.50895 0
M  V30 12359 C 1173.04 -0.353495 2.31921 0
M  V30 12360 C 1174.06 -1.01136 1.41589 0
M  V30 12361 O 1175.24 -1.00291 1.74653 0
M  V30 12362 C 1172.3 -1.43032 3.15821 0
M  V30 12363 C 1171.36 -0.790763 4.21954 0
M  V30 12364 C 1170.59 -1.81628 5.01843 0
M  V30 12365 O 1170.82 -3.04078 4.8259 0
M  V30 12366 O 1169.75 -1.39713 5.8546 0
M  V30 12367 H 1173.58 0.308463 3.02129 0
M  V30 12368 H 1171.16 0.216971 1.47816 0
M  V30 12369 H 1173.04 -2.05444 3.67927 0
M  V30 12370 H 1171.72 -2.07605 2.48358 0
M  V30 12371 H 1170.63 -0.128127 3.73881 0
M  V30 12372 H 1171.96 -0.188251 4.9184 0
M  V30 12373 N 1173.61 -1.56489 0.186789 0
M  V30 12374 C 1174.52 -2.22304 -0.749543 0
M  V30 12375 C 1175.54 -1.21949 -1.24115 0
M  V30 12376 O 1176.71 -1.5466 -1.29005 0
M  V30 12377 C 1173.78 -2.863 -1.95533 0
M  V30 12378 C 1172.84 -4.01901 -1.5091 0
M  V30 12379 C 1172.07 -4.62837 -2.6574 0
M  V30 12380 O 1172.3 -4.22681 -3.8301 0
M  V30 12381 O 1171.23 -5.52446 -2.38929 0
M  V30 12382 H 1175.06 -3.02909 -0.21908 0
M  V30 12383 H 1172.64 -1.49341 -0.0421249 0
M  V30 12384 H 1174.52 -3.2682 -2.6602 0
M  V30 12385 H 1173.2 -2.08681 -2.47455 0
M  V30 12386 H 1172.1 -3.66021 -0.773261 0
M  V30 12387 H 1173.44 -4.8116 -1.03663 0
M  V30 12388 N 1175.09 0.086862 -1.5736 0
M  V30 12389 C 1176.34 0.78884 -1.86504 0
M  V30 12390 C 1176.66 1.78329 -0.77646 0
M  V30 12391 O 1175.92 1.94354 0.229122 0
M  V30 12392 C 1176.22 1.54537 -3.22263 0
M  V30 12393 C 1175.88 0.692284 -4.45554 0
M  V30 12394 C 1174.55 0.45714 -4.79024 0
M  V30 12395 C 1176.9 0.0997695 -5.21105 0
M  V30 12396 C 1174.23 -0.380247 -5.85466 0
M  V30 12397 C 1176.58 -0.724986 -6.28432 0
M  V30 12398 C 1175.24 -0.970144 -6.60412 0
M  V30 12399 H 1174.51 0.288657 -0.682465 0
M  V30 12400 H 1177.16 0.050059 -1.91435 0
M  V30 12401 H 1175.46 2.35594 -3.13053 0
M  V30 12402 H 1177.16 2.09305 -3.42042 0
M  V30 12403 H 1173.75 0.885675 -4.19349 0
M  V30 12404 H 1177.94 0.268583 -4.95573 0
M  V30 12405 H 1173.19 -0.579084 -6.08651 0
M  V30 12406 H 1177.37 -1.19093 -6.86141 0
M  V30 12407 H 1174.99 -1.6208 -7.42721 0
M  V30 12408 N 1176.57 1.53483 0.357892 0
M  V30 12409 C 1177.5 1.76757 1.4591 0
M  V30 12410 C 1178.51 0.648502 1.49326 0
M  V30 12411 O 1179.7 0.924932 1.52667 0
M  V30 12412 C 1176.8 1.83938 2.8464 0
M  V30 12413 C 1175.97 3.13683 3.04831 0
M  V30 12414 C 1175.03 3.12007 4.23719 0
M  V30 12415 O 1174.06 3.8578 4.18524 0
M  V30 12416 N 1175.26 2.33366 5.31527 0
M  V30 12417 H 1178.03 2.71778 1.2632 0
M  V30 12418 H 1175.59 1.52355 0.547673 0
M  V30 12419 H 1177.58 1.80285 3.62325 0
M  V30 12420 H 1176.15 0.961675 2.9744 0
M  V30 12421 H 1175.37 3.30576 2.14739 0
M  V30 12422 H 1176.66 3.99412 3.15194 0
M  V30 12423 H 1176.06 1.72954 5.38613 0
M  V30 12424 H 1174.61 2.35524 6.07759 0
M  V30 12425 N 1178.05 -0.61812 1.44973 0
M  V30 12426 C 1178.99 -1.72942 1.52838 0
M  V30 12427 C 1179.96 -1.6181 0.375056 0
M  V30 12428 O 1181.15 -1.81544 0.587075 0
M  V30 12429 C 1178.29 -3.11228 1.49101 0
M  V30 12430 C 1177.4 -3.33243 2.74906 0
M  V30 12431 C 1176.54 -4.61574 2.62912 0
M  V30 12432 C 1175.57 -4.76811 3.8382 0
M  V30 12433 N 1174.71 -5.96432 3.70424 0
M  V30 12434 H 1179.55 -1.65556 2.47781 0
M  V30 12435 H 1177.09 -0.807411 1.2296 0
M  V30 12436 H 1179.05 -3.9122 1.44923 0
M  V30 12437 H 1177.68 -3.17598 0.577163 0
M  V30 12438 H 1176.73 -2.471 2.89216 0
M  V30 12439 H 1178.04 -3.40377 3.64616 0
M  V30 12440 H 1177.19 -5.49746 2.56641 0
M  V30 12441 H 1175.93 -4.5682 1.70784 0
M  V30 12442 H 1174.94 -3.87066 3.90461 0
M  V30 12443 H 1176.16 -4.83371 4.77001 0
M  V30 12444 H 1174.11 -5.92742 2.81057 0
M  V30 12445 H 1174.03 -6.0468 4.5376 0
M  V30 12446 H 1175.29 -6.8713 3.68067 0
M  V30 12447 N 1179.52 -1.32087 -0.859693 0
M  V30 12448 C 1180.45 -1.23204 -1.98351 0
M  V30 12449 C 1181.43 -0.116974 -1.69697 0
M  V30 12450 O 1182.62 -0.303301 -1.91817 0
M  V30 12451 C 1179.75 -0.949171 -3.34078 0
M  V30 12452 C 1178.7 -2.02493 -3.77069 0
M  V30 12453 C 1178.03 -1.59455 -5.1037 0
M  V30 12454 C 1179.33 -3.43934 -3.93074 0
M  V30 12455 H 1181.02 -2.17227 -2.0604 0
M  V30 12456 H 1178.57 -1.04577 -0.989931 0
M  V30 12457 H 1180.52 -0.873594 -4.12245 0
M  V30 12458 H 1179.25 0.0267095 -3.26589 0
M  V30 12459 H 1177.91 -2.09057 -3.01149 0
M  V30 12460 H 1177.55 -0.606256 -4.99333 0
M  V30 12461 H 1177.25 -2.31429 -5.40106 0
M  V30 12462 H 1178.78 -1.53325 -5.91036 0
M  V30 12463 H 1180.19 -3.39986 -4.61608 0
M  V30 12464 H 1178.59 -4.14214 -4.3422 0
M  V30 12465 H 1179.66 -3.83965 -2.9614 0
M  V30 12466 N 1181 1.07532 -1.15215 0
M  V30 12467 C 1182.25 1.79474 -0.920439 0
M  V30 12468 C 1182.56 1.87593 0.553926 0
M  V30 12469 O 1183.77 2.56037 0.903169 0
M  V30 12470 C 1182.23 3.22509 -1.59738 0
M  V30 12471 C 1181.83 3.22596 -3.10863 0
M  V30 12472 C 1183.58 3.99072 -1.44714 0
M  V30 12473 C 1181.48 4.60273 -3.71352 0
M  V30 12474 H 1180.41 0.672625 -0.340722 0
M  V30 12475 H 1183.07 1.2071 -1.38208 0
M  V30 12476 H 1181.45 3.81454 -1.06342 0
M  V30 12477 H 1182.62 2.73306 -3.70999 0
M  V30 12478 H 1180.94 2.5953 -3.25627 0
M  V30 12479 H 1183.53 5.00823 -1.87299 0
M  V30 12480 H 1183.88 4.14428 -0.394386 0
M  V30 12481 H 1184.41 3.46617 -1.95195 0
M  V30 12482 H 1181.15 4.50122 -4.76519 0
M  V30 12483 H 1180.67 5.09809 -3.15998 0
M  V30 12484 H 1182.35 5.29243 -3.7217 0
M  V30 12485 N 1182.48 0.948665 1.2585 0
M  V30 12486 C 1183.41 0.421458 2.25292 0
M  V30 12487 C 1184.43 -0.459389 1.56184 0
M  V30 12488 O 1185.61 -0.268627 1.76467 0
M  V30 12489 C 1182.71 -0.412653 3.36378 0
M  V30 12490 C 1181.89 0.453792 4.3504 0
M  V30 12491 C 1180.95 -0.321127 5.25219 0
M  V30 12492 O 1179.97 0.278424 5.68519 0
M  V30 12493 N 1181.17 -1.61576 5.5756 0
M  V30 12494 H 1183.94 1.27636 2.71162 0
M  V30 12495 H 1181.5 0.818367 1.39694 0
M  V30 12496 H 1183.49 -0.938637 3.93664 0
M  V30 12497 H 1182.06 -1.16839 2.89944 0
M  V30 12498 H 1181.28 1.16093 3.76718 0
M  V30 12499 H 1182.57 1.04538 4.97945 0
M  V30 12500 H 1181.97 -2.12488 5.24276 0
M  V30 12501 H 1180.53 -2.08783 6.17457 0
M  V30 12502 N 1183.96 -1.40369 0.716545 0
M  V30 12503 C 1184.89 -2.33365 0.0793533 0
M  V30 12504 C 1185.87 -1.52943 -0.744482 0
M  V30 12505 O 1187.05 -1.81406 -0.693212 0
M  V30 12506 C 1184.18 -3.36928 -0.842429 0
M  V30 12507 C 1183.14 -4.2782 -0.124142 0
M  V30 12508 C 1182.46 -5.21928 -1.1617 0
M  V30 12509 C 1183.76 -5.12199 1.02224 0
M  V30 12510 H 1185.46 -2.86899 0.856115 0
M  V30 12511 H 1183 -1.37946 0.413138 0
M  V30 12512 H 1184.96 -4.00925 -1.29759 0
M  V30 12513 H 1183.68 -2.81791 -1.6511 0
M  V30 12514 H 1182.34 -3.65277 0.311201 0
M  V30 12515 H 1181.99 -4.63096 -1.96345 0
M  V30 12516 H 1181.69 -5.83582 -0.685978 0
M  V30 12517 H 1183.21 -5.88802 -1.61694 0
M  V30 12518 H 1184.63 -5.69644 0.646399 0
M  V30 12519 H 1183.02 -5.82901 1.4264 0
M  V30 12520 H 1184.09 -4.4812 1.85246 0
M  V30 12521 N 1185.44 -0.462799 -1.50652 0
M  V30 12522 C 1186.37 0.325724 -2.31217 0
M  V30 12523 C 1187.35 0.997942 -1.3775 0
M  V30 12524 O 1188.53 0.996707 -1.66671 0
M  V30 12525 C 1185.66 1.41283 -3.17264 0
M  V30 12526 C 1184.62 0.862687 -4.19216 0
M  V30 12527 C 1183.94 2.04746 -4.93946 0
M  V30 12528 C 1185.24 -0.120365 -5.22161 0
M  V30 12529 H 1186.94 -0.346666 -2.97386 0
M  V30 12530 H 1184.48 -0.168163 -1.43015 0
M  V30 12531 H 1186.44 1.97188 -3.72418 0
M  V30 12532 H 1185.16 2.11387 -2.48964 0
M  V30 12533 H 1183.82 0.325671 -3.65151 0
M  V30 12534 H 1183.47 2.73529 -4.22127 0
M  V30 12535 H 1183.17 1.68562 -5.62904 0
M  V30 12536 H 1184.69 2.61157 -5.51932 0
M  V30 12537 H 1186.1 0.349226 -5.72235 0
M  V30 12538 H 1184.5 -0.396061 -5.98792 0
M  V30 12539 H 1185.57 -1.04895 -4.73418 0
M  V30 12540 N 1186.91 1.56388 -0.195085 0
M  V30 12541 C 1187.84 2.22091 0.720971 0
M  V30 12542 C 1188.83 1.184 1.22128 0
M  V30 12543 O 1190.01 1.46907 1.27012 0
M  V30 12544 C 1187.14 2.88025 1.94059 0
M  V30 12545 C 1186.09 3.97959 1.5752 0
M  V30 12546 C 1185.42 4.51058 2.87143 0
M  V30 12547 C 1186.72 5.16365 0.785145 0
M  V30 12548 H 1188.41 2.98898 0.173245 0
M  V30 12549 H 1185.96 1.43767 0.0818868 0
M  V30 12550 H 1187.91 3.32671 2.58666 0
M  V30 12551 H 1186.64 2.08623 2.51285 0
M  V30 12552 H 1185.3 3.54004 0.952715 0
M  V30 12553 H 1184.94 3.68418 3.42458 0
M  V30 12554 H 1184.64 5.25237 2.63439 0
M  V30 12555 H 1186.17 4.98406 3.52738 0
M  V30 12556 H 1187.58 5.57556 1.33431 0
M  V30 12557 H 1185.98 5.9661 0.646231 0
M  V30 12558 H 1187.05 4.84428 -0.213789 0
M  V30 12559 N 1188.39 -0.0785156 1.57404 0
M  V30 12560 C 1189.62 -0.795871 1.91522 0
M  V30 12561 C 1190.04 -1.70665 0.790892 0
M  V30 12562 O 1189.4 -1.79474 -0.25666 0
M  V30 12563 C 1189.45 -1.57121 3.24569 0
M  V30 12564 O 1188.55 -2.6814 3.13328 0
M  V30 12565 H 1187.89 -0.217575 0.627341 0
M  V30 12566 H 1190.42 -0.0487724 2.04542 0
M  V30 12567 H 1190.43 -1.9519 3.5828 0
M  V30 12568 H 1189.11 -0.902909 4.05981 0
M  V30 12569 H 1187.69 -2.32978 2.91163 0
M  V30 12570 N 1189.87 -1.5367 -0.349747 0
M  V30 12571 C 1191.28 -1.62135 -0.925704 0
M  V30 12572 C 1191.63 -0.498725 -1.89756 0
M  V30 12573 O 1190.76 0.372481 -2.1317 0
M  V30 12574 C 1191.35 -2.93885 -1.68573 0
M  V30 12575 C 1189.91 -3.04632 -2.2108 0
M  V30 12576 C 1189.06 -2.57541 -1.02801 0
M  V30 12577 H 1192.01 -1.58182 -0.128065 0
M  V30 12578 H 1192.03 -2.82577 -2.54815 0
M  V30 12579 H 1191.54 -3.75571 -0.978153 0
M  V30 12580 H 1189.64 -2.27567 -2.95032 0
M  V30 12581 H 1189.76 -4.09993 -2.47876 0
M  V30 12582 H 1188.12 -2.12798 -1.39962 0
M  V30 12583 H 1188.9 -3.4166 -0.335157 0
M  V30 12584 O 1191.39 0.495726 -1.53704 0
M  V30 12585 H 1192.08 1.15052 -1.55829 0
M  V30 END ATOM
M  V30 BEGIN BOND
M  V30 END BOND
M  V30 END CTAB
M  END
$$$$
