drugbank_target|O60858 E3 ubiquitin-protein ligase TRIM13 (DB01497; DB01548; DB01565)
 OpenBabel12092119473D

  0  0  0     0  0            999 V3000
M  V30 BEGIN CTAB
M  V30 COUNTS 6624 6700 0 0 0
M  V30 BEGIN ATOM
M  V30 1 H -0.908 1.98254 -0.117106 0
M  V30 2 N 0 1.576 0 0
M  V30 3 C 0.933 2.03868 1.02534 0
M  V30 4 C 1.911 0.928543 1.3348 0
M  V30 5 O 3.095 1.19667 1.45644 0
M  V30 6 C 0.222 2.43627 2.35294 0
M  V30 7 C -0.732 3.65373 2.2001 0
M  V30 8 S 0.101 5.13292 1.52614 0
M  V30 9 C 1.257 5.56322 2.86805 0
M  V30 10 H 1.49 2.90518 0.631377 0
M  V30 11 H -0.977 1.52953 0.210867 0
M  V30 12 H 0.981 2.67203 3.11629 0
M  V30 13 H -0.358 1.57376 2.7183 0
M  V30 14 H -1.165 3.90944 3.18086 0
M  V30 15 H -1.563 3.418 1.51819 0
M  V30 16 H 0.729 5.58782 3.83104 0
M  V30 17 H 1.672 6.56266 2.65933 0
M  V30 18 H 2.08 4.83886 2.90714 0
M  V30 19 N 1.4781 -0.272755 1.55222 0
M  V30 20 C 2.3881 -1.35918 1.91216 0
M  V30 21 C 3.4041 -1.54026 0.809436 0
M  V30 22 O 4.5801 -1.68148 1.10852 0
M  V30 23 C 1.6451 -2.69834 2.17693 0
M  V30 24 C 0.7061 -2.6047 3.41253 0
M  V30 25 C -0.0609 -3.88 3.66458 0
M  V30 26 O 0.1621 -4.88693 2.94169 0
M  V30 27 O -0.9039 -3.88189 4.59992 0
M  V30 28 H 2.9221 -1.0839 2.83699 0
M  V30 29 H 0.5071 -0.471301 1.41771 0
M  V30 30 H 2.3891 -3.49017 2.36147 0
M  V30 31 H 1.0641 -2.97148 1.28392 0
M  V30 32 H -0.0289 -1.79663 3.28134 0
M  V30 33 H 1.3041 -2.38106 4.30774 0
M  V30 34 N 2.9562 -1.48159 -0.537278 0
M  V30 35 C 3.8862 -1.65029 -1.6519 0
M  V30 36 C 4.8672 -0.499281 -1.62607 0
M  V30 37 O 6.0522 -0.730972 -1.79918 0
M  V30 38 C 3.1822 -1.68303 -3.03795 0
M  V30 39 C 2.1362 -2.8283 -3.21234 0
M  V30 40 C 1.4622 -2.71189 -4.60826 0
M  V30 41 C 2.7622 -4.24211 -3.04701 0
M  V30 42 H 4.4562 -2.58341 -1.51328 0
M  V30 43 H 2.0022 -1.24325 -0.726585 0
M  V30 44 H 3.9552 -1.78693 -3.81637 0
M  V30 45 H 2.6792 -0.715635 -3.18663 0
M  V30 46 H 1.3382 -2.71983 -2.45807 0
M  V30 47 H 0.9862 -1.72435 -4.7252 0
M  V30 48 H 0.6862 -3.48035 -4.7344 0
M  V30 49 H 2.2102 -2.83537 -5.40777 0
M  V30 50 H 3.6242 -4.3593 -3.72341 0
M  V30 51 H 2.0212 -5.01998 -3.28813 0
M  V30 52 H 3.0912 -4.41184 -2.01209 0
M  V30 53 N 4.4343 0.785586 -1.36625 0
M  V30 54 C 5.3643 1.91259 -1.33949 0
M  V30 55 C 6.3453 1.68795 -0.210325 0
M  V30 56 O 7.5303 1.89854 -0.408561 0
M  V30 57 C 4.6603 3.28339 -1.13186 0
M  V30 58 C 3.6143 3.65335 -2.22967 0
M  V30 59 C 2.9403 5.00806 -1.87342 0
M  V30 60 C 4.2403 3.7352 -3.65075 0
M  V30 61 H 5.9343 1.93755 -2.28253 0
M  V30 62 H 3.4803 0.930788 -1.09874 0
M  V30 63 H 5.4333 4.06804 -1.09948 0
M  V30 64 H 4.1573 3.2624 -0.153332 0
M  V30 65 H 2.8163 2.89169 -2.25337 0
M  V30 66 H 2.4643 4.95233 -0.880545 0
M  V30 67 H 2.1643 5.26529 -2.60846 0
M  V30 68 H 3.6883 5.81687 -1.85667 0
M  V30 69 H 5.1023 4.42168 -3.64911 0
M  V30 70 H 3.4993 4.10731 -4.37516 0
M  V30 71 H 4.5693 2.74527 -3.99703 0
M  V30 72 N 5.9124 1.20967 1.01018 0
M  V30 73 C 6.8224 0.980157 2.13143 0
M  V30 74 C 7.8384 -0.0660665 1.73875 0
M  V30 75 O 9.0144 0.122821 2.01025 0
M  V30 76 C 6.0794 0.54216 3.42435 0
M  V30 77 C 5.1404 1.65999 3.95908 0
M  V30 78 C 4.3734 1.2428 5.19028 0
M  V30 79 O 4.5964 0.114196 5.70286 0
M  V30 80 O 3.5304 2.05271 5.65816 0
M  V30 81 H 7.3564 1.91913 2.35379 0
M  V30 82 H 4.9414 0.994099 1.11526 0
M  V30 83 H 6.8234 0.30744 4.20277 0
M  V30 84 H 5.4984 -0.36815 3.216 0
M  V30 85 H 4.4054 1.94906 3.19316 0
M  V30 86 H 5.7384 2.54753 4.21143 0
M  V30 87 N 7.3905 -1.2043 1.01659 0
M  V30 88 C 8.3005 -2.2689 0.596484 0
M  V30 89 C 9.3165 -1.70107 -0.36599 0
M  V30 90 O 10.4925 -2.00117 -0.226942 0
M  V30 91 C 7.5575 -3.4665 -0.0586659 0
M  V30 92 C 6.6185 -4.18662 0.949751 0
M  V30 93 C 5.8515 -5.32705 0.32577 0
M  V30 94 O 6.0745 -5.63656 -0.874509 0
M  V30 95 O 5.0085 -5.92803 1.04249 0
M  V30 96 H 8.8345 -2.65041 1.4828 0
M  V30 97 H 6.4195 -1.27048 0.786082 0
M  V30 98 H 8.3015 -4.19256 -0.424564 0
M  V30 99 H 6.9765 -3.10375 -0.91918 0
M  V30 100 H 5.8835 -3.48229 1.36702 0
M  V30 101 H 7.2165 -4.58878 1.78023 0
M  V30 102 N 8.8686 -0.792821 -1.36206 0
M  V30 103 C 10.1456 -0.290627 -1.93429 0
M  V30 104 C 10.5256 1.21773 -1.72437 0
M  V30 105 O 9.8736 2.0108 -1.08531 0
M  V30 106 C 10.0836 -0.686973 -3.42172 0
M  V30 107 C 11.4316 -0.668643 -4.19302 0
M  V30 108 O 12.4556 -0.627658 -3.50626 0
M  V30 109 O 11.3146 -0.714597 -5.41808 0
M  V30 110 H 8.4086 -0.0727927 -0.82379 0
M  V30 111 H 10.9546 -0.875593 -1.45367 0
M  V30 112 H 9.7266 -1.72711 -3.51122 0
M  V30 113 H 9.3496 -0.0760733 -3.97527 0
M  V30 114 N 10.3467 1.47872 -0.545128 0
M  V30 115 C 11.2767 2.32661 0.197793 0
M  V30 116 C 12.2577 1.43041 0.920504 0
M  V30 117 O 13.4427 1.71912 0.90333 0
M  V30 118 C 10.5727 3.24569 1.23582 0
M  V30 119 C 9.5267 4.23333 0.630323 0
M  V30 120 C 8.8527 5.0448 1.77211 0
M  V30 121 C 10.1527 5.20704 -0.407974 0
M  V30 122 H 11.8467 2.95024 -0.510045 0
M  V30 123 H 9.3927 1.4187 -0.246731 0
M  V30 124 H 11.3457 3.8272 1.76362 0
M  V30 125 H 10.0697 2.60236 1.97344 0
M  V30 126 H 8.7287 3.6639 0.123922 0
M  V30 127 H 8.3767 4.36561 2.49847 0
M  V30 128 H 8.0767 5.71339 1.37281 0
M  V30 129 H 9.6007 5.65487 2.3034 0
M  V30 130 H 11.0147 5.7329 0.033305 0
M  V30 131 H 9.4117 5.95699 -0.725486 0
M  V30 132 H 10.4817 4.66917 -1.30828 0
M  V30 133 N 11.8248 0.280983 1.55075 0
M  V30 134 C 13.0528 -0.337293 2.04132 0
M  V30 135 C 13.4678 -1.4903 1.15912 0
M  V30 136 O 12.8248 -1.81606 0.180459 0
M  V30 137 C 12.8758 -0.812706 3.52246 0
M  V30 138 O 12.5968 0.294387 4.3711 0
M  V30 139 C 14.0978 -1.4982 4.17216 0
M  V30 140 H 11.3178 -0.0761638 0.666663 0
M  V30 141 H 13.8618 0.414787 2.00249 0
M  V30 142 H 12.0168 -1.51486 3.56554 0
M  V30 143 H 12.4308 -0.0721325 5.2445 0
M  V30 144 H 13.9048 -1.7822 5.22438 0
M  V30 145 H 14.3818 -2.43168 3.65741 0
M  V30 146 H 14.9878 -0.839742 4.16927 0
M  V30 147 N 13.3029 -1.57598 0.00835791 0
M  V30 148 C 14.5429 -1.92788 -0.679136 0
M  V30 149 C 14.9069 -0.883378 -1.70471 0
M  V30 150 O 16.1079 -1.12079 -2.44319 0
M  V30 151 C 14.3789 -3.32994 -1.29807 0
M  V30 152 S 15.9379 -3.90082 -2.00952 0
M  V30 153 H 12.7559 -0.67475 -0.224127 0
M  V30 154 H 15.3579 -1.95385 0.0670497 0
M  V30 155 H 14.0619 -4.06846 -0.538922 0
M  V30 156 H 13.5929 -3.33791 -2.082 0
M  V30 157 H 15.6079 -3.71834 -3.28563 0
M  V30 158 N 14.781 0.264519 -1.55364 0
M  V30 159 C 16.192 0.834936 -1.6699 0
M  V30 160 C 16.543 1.86718 -0.602552 0
M  V30 161 O 15.668 2.14899 0.254425 0
M  V30 162 C 16.263 1.5212 -3.02729 0
M  V30 163 C 14.822 2.03954 -3.16354 0
M  V30 164 C 13.969 0.884498 -2.62815 0
M  V30 165 H 16.92 0.0406869 -1.58648 0
M  V30 166 H 16.941 2.38853 -2.96191 0
M  V30 167 H 16.453 0.769668 -3.80392 0
M  V30 168 H 14.554 2.82041 -2.43482 0
M  V30 169 H 14.667 2.24902 -4.23032 0
M  V30 170 H 13.031 1.2802 -2.20188 0
M  V30 171 H 13.814 0.14634 -3.42988 0
M  V30 172 N 16.2591 1.48442 0.529413 0
M  V30 173 C 17.5081 1.55742 1.28169 0
M  V30 174 C 17.8211 0.236511 1.94165 0
M  V30 175 O 19.0271 0.187761 2.7085 0
M  V30 176 C 17.4831 2.74667 2.32564 0
M  V30 177 C 17.0911 4.13402 1.72636 0
M  V30 178 C 18.8351 2.9128 3.08798 0
M  V30 179 C 16.7421 5.23587 2.74975 0
M  V30 180 H 15.6721 0.579796 0.48203 0
M  V30 181 H 18.3231 1.74776 0.559056 0
M  V30 182 H 16.7051 2.49067 3.07866 0
M  V30 183 H 17.8791 4.49022 1.03519 0
M  V30 184 H 16.1941 4.0191 1.08892 0
M  V30 185 H 18.7911 3.70767 3.85274 0
M  V30 186 H 19.1341 2.00757 3.64695 0
M  V30 187 H 19.6671 3.16782 2.40611 0
M  V30 188 H 16.4061 6.16076 2.23897 0
M  V30 189 H 15.9261 4.92454 3.42417 0
M  V30 190 H 17.6051 5.51724 3.37949 0
M  V30 191 N 17.7372 -0.778329 1.37039 0
M  V30 192 C 18.9772 -1.54973 1.33276 0
M  V30 193 C 19.3412 -1.91816 -0.0839376 0
M  V30 194 O 20.5422 -2.6767 -0.246228 0
M  V30 195 C 18.8132 -2.78517 2.23971 0
M  V30 196 S 20.3722 -3.6865 2.37997 0
M  V30 197 H 17.1902 -0.530639 0.473226 0
M  V30 198 H 19.7922 -0.915806 1.72723 0
M  V30 199 H 18.4962 -2.4952 3.25835 0
M  V30 200 H 18.0272 -3.46875 1.85584 0
M  V30 201 H 20.0422 -4.70182 1.58567 0
M  V30 202 N 19.2153 -1.21501 -1.00376 0
M  V30 203 C 20.4553 -1.04444 -1.75701 0
M  V30 204 C 20.8193 0.414644 -1.87469 0
M  V30 205 O 22.0203 0.705763 -2.59369 0
M  V30 206 C 20.2913 -1.72389 -3.13077 0
M  V30 207 S 21.8503 -1.70604 -4.04277 0
M  V30 208 H 18.6683 -0.374249 -0.604532 0
M  V30 209 H 21.2703 -1.54267 -1.20091 0
M  V30 210 H 19.9743 -2.77734 -3.02146 0
M  V30 211 H 19.5053 -1.22751 -3.73759 0
M  V30 212 H 21.5203 -0.748012 -4.9053 0
M  V30 213 N 20.6934 1.19889 -1.02296 0
M  V30 214 C 21.9184 1.9393 -0.735237 0
M  V30 215 C 22.3434 1.74639 0.698782 0
M  V30 216 O 21.7014 1.04481 1.48167 0
M  V30 217 C 21.7494 3.43916 -1.08417 0
M  V30 218 O 20.8534 4.11917 -0.199446 0
M  V30 219 H 20.1944 0.605645 -0.272196 0
M  V30 220 H 22.7244 1.52137 -1.36804 0
M  V30 221 H 22.7344 3.9456 -1.03856 0
M  V30 222 H 21.4094 3.5728 -2.12894 0
M  V30 223 H 19.9864 3.71666 -0.303136 0
M  V30 224 N 22.1715 0.800033 1.35784 0
M  V30 225 C 23.1015 0.220184 2.3246 0
M  V30 226 C 24.0825 -0.65073 1.57161 0
M  V30 227 O 25.2675 -0.582359 1.85263 0
M  V30 228 C 22.3975 -0.637353 3.41402 0
M  V30 229 C 21.3515 0.134531 4.27789 0
M  V30 230 C 20.6775 -0.844285 5.27992 0
M  V30 231 C 21.9775 1.32979 5.05088 0
M  V30 232 H 23.6715 1.02787 2.81203 0
M  V30 233 H 21.2175 0.495717 1.35199 0
M  V30 234 H 23.1705 -1.05302 4.08031 0
M  V30 235 H 21.8945 -1.47785 2.91251 0
M  V30 236 H 20.5535 0.531296 3.6273 0
M  V30 237 H 20.2015 -1.68011 4.74111 0
M  V30 238 H 19.9015 -0.332184 5.8666 0
M  V30 239 H 21.4255 -1.2583 5.97494 0
M  V30 240 H 22.8395 0.98934 5.64699 0
M  V30 241 H 21.2365 1.77593 5.7322 0
M  V30 242 H 22.3065 2.11978 4.36111 0
M  V30 243 N 23.6496 -1.47581 0.552962 0
M  V30 244 C 24.8966 -2.02482 0.0273243 0
M  V30 245 C 25.2246 -1.42776 -1.32081 0
M  V30 246 O 24.4796 -0.571393 -1.87173 0
M  V30 247 C 24.7786 -3.57199 -0.119728 0
M  V30 248 C 24.4446 -4.35804 1.15697 0
M  V30 249 C 23.1066 -4.57 1.50681 0
M  V30 250 C 25.4586 -4.81167 2.00319 0
M  V30 251 C 22.7866 -5.20807 2.70142 0
M  V30 252 C 25.1386 -5.46293 3.18978 0
M  V30 253 C 23.8026 -5.65722 3.54281 0
M  V30 254 H 23.0726 -0.740933 0.00999866 0
M  V30 255 H 25.7196 -1.77302 0.72362 0
M  V30 256 H 24.0246 -3.81348 -0.89896 0
M  V30 257 H 25.7216 -3.97324 -0.541718 0
M  V30 258 H 22.3116 -4.19582 0.874561 0
M  V30 259 H 26.4956 -4.64574 1.74599 0
M  V30 260 H 21.7516 -5.34045 2.97668 0
M  V30 261 H 25.9256 -5.80407 3.84838 0
M  V30 262 H 23.5526 -6.14936 4.46942 0
M  V30 263 N 25.1277 -0.289203 -1.54924 0
M  V30 264 C 26.4047 0.376032 -1.91951 0
M  V30 265 C 26.7847 1.72622 -1.21511 0
M  V30 266 O 26.1327 2.25853 -0.346767 0
M  V30 267 C 26.3427 0.502378 -3.45365 0
M  V30 268 C 27.6907 0.778741 -4.17398 0
M  V30 269 O 28.7147 0.586647 -3.51336 0
M  V30 270 O 27.5737 1.14698 -5.34328 0
M  V30 271 H 24.6677 0.208167 -0.800372 0
M  V30 272 H 27.2137 -0.336394 -1.66332 0
M  V30 273 H 25.9857 -0.447255 -3.88736 0
M  V30 274 H 25.6087 1.26373 -3.76982 0
M  V30 275 N 26.6058 1.57591 -0.0167156 0
M  V30 276 C 27.8828 1.82547 0.702564 0
M  V30 277 C 28.2628 0.898018 1.91047 0
M  V30 278 O 27.6108 -0.0493456 2.28447 0
M  V30 279 C 27.8208 3.31459 1.09251 0
M  V30 280 C 29.1688 3.97622 1.48937 0
M  V30 281 O 30.1928 3.35881 1.18584 0
M  V30 282 O 29.0518 5.06415 2.05442 0
M  V30 283 H 26.1458 0.752268 0.343544 0
M  V30 284 H 28.6918 1.69644 -0.0434495 0
M  V30 285 H 27.4638 3.9061 0.23227 0
M  V30 286 H 27.0868 3.49422 1.89709 0
M  V30 287 N 28.0839 -0.256276 1.55502 0
M  V30 288 C 29.4949 -0.826068 1.67431 0
M  V30 289 C 29.8459 -1.86396 0.612446 0
M  V30 290 O 28.9709 -2.15031 -0.243025 0
M  V30 291 C 29.5659 -1.50512 3.03532 0
M  V30 292 C 28.1249 -2.02273 3.17431 0
M  V30 293 C 27.2719 -0.870548 2.63281 0
M  V30 294 H 30.2229 -0.0322728 1.58667 0
M  V30 295 H 30.2439 -2.37279 2.97454 0
M  V30 296 H 29.7559 -0.749484 3.80794 0
M  V30 297 H 27.8569 -2.80746 2.44974 0
M  V30 298 H 27.9699 -2.22655 4.24219 0
M  V30 299 H 26.3339 -1.26851 2.20864 0
M  V30 300 H 27.1169 -0.128149 3.43061 0
M  V30 301 N 29.562 -1.4872 -0.521534 0
M  V30 302 C 30.978 -1.35028 -0.850855 0
M  V30 303 C 31.178 -0.367712 -1.98116 0
M  V30 304 O 30.234 0.208037 -2.51642 0
M  V30 305 C 31.547 -2.75263 -1.21041 0
M  V30 306 C 33.095 -2.83813 -1.31981 0
M  V30 307 C 33.57 -4.24769 -1.71276 0
M  V30 308 N 35.061 -4.27482 -1.78363 0
M  V30 309 C 35.796 -5.33494 -2.1017 0
M  V30 310 N 35.292 -6.49775 -2.40343 0
M  V30 311 N 37.085 -5.20894 -2.11248 0
M  V30 312 H 29.236 -2.11214 0.22413 0
M  V30 313 H 31.499 -0.947252 0.0376439 0
M  V30 314 H 31.205 -3.48765 -0.453415 0
M  V30 315 H 31.079 -3.09327 -2.15863 0
M  V30 316 H 33.466 -2.10561 -2.06756 0
M  V30 317 H 33.547 -2.53358 -0.352596 0
M  V30 318 H 33.191 -4.9854 -0.970588 0
M  V30 319 H 33.121 -4.52673 -2.69062 0
M  V30 320 H 35.612 -3.43611 -1.57288 0
M  V30 321 H 35.925 -7.26402 -2.63743 0
M  V30 322 H 34.27 -6.53035 -2.37844 0
M  V30 323 H 37.461 -4.29065 -1.87139 0
M  V30 324 H 37.634 -6.03612 -2.35704 0
M  V30 325 N 31.0401 0.771051 -1.3745 0
M  V30 326 C 32.2861 1.5319 -1.32894 0
M  V30 327 C 32.6191 1.94008 0.0862511 0
M  V30 328 O 31.8941 1.64124 1.04373 0
M  V30 329 C 32.1771 2.79648 -2.26868 0
M  V30 330 C 32.0301 2.45079 -3.77169 0
M  V30 331 C 33.3491 3.81583 -2.19277 0
M  V30 332 H 30.4681 0.555744 -0.484064 0
M  V30 333 H 33.1101 0.884492 -1.68157 0
M  V30 334 H 31.2601 3.34891 -1.96926 0
M  V30 335 H 32.9321 1.95745 -4.1771 0
M  V30 336 H 31.1751 1.77767 -3.95704 0
M  V30 337 H 31.8461 3.35478 -4.38359 0
M  V30 338 H 34.3221 3.35835 -2.45671 0
M  V30 339 H 33.1981 4.67787 -2.87171 0
M  V30 340 H 33.4591 4.25897 -1.18592 0
M  V30 341 N 32.5182 1.22032 0.997298 0
M  V30 342 C 33.4482 1.01065 2.10495 0
M  V30 343 C 34.4292 -0.0669542 1.69968 0
M  V30 344 O 35.6142 0.0943987 1.9397 0
M  V30 345 C 32.7442 0.582874 3.42374 0
M  V30 346 C 31.6982 1.60592 3.96729 0
M  V30 347 C 31.0242 1.03412 5.24605 0
M  V30 348 C 32.3242 2.99478 4.27914 0
M  V30 349 H 34.0182 1.93708 2.28292 0
M  V30 350 H 31.5642 0.932761 1.09707 0
M  V30 351 H 33.5172 0.423332 4.19268 0
M  V30 352 H 32.2412 -0.379213 3.24391 0
M  V30 353 H 30.9002 1.75316 3.21963 0
M  V30 354 H 30.5482 0.063518 5.0296 0
M  V30 355 H 30.2482 1.71754 5.61938 0
M  V30 356 H 31.7722 0.886066 6.04137 0
M  V30 357 H 33.1862 2.88153 4.95622 0
M  V30 358 H 31.5832 3.64903 4.76409 0
M  V30 359 H 32.6532 3.49742 3.3587 0
M  V30 360 N 33.9963 -1.19345 1.0293 0
M  V30 361 C 35.4073 -1.70725 0.755633 0
M  V30 362 C 35.7583 -1.82326 -0.724676 0
M  V30 363 O 34.8833 -1.49471 -1.56484 0
M  V30 364 C 35.4783 -3.10084 1.36503 0
M  V30 365 C 34.0373 -3.58723 1.13994 0
M  V30 366 C 33.1843 -2.35577 1.46283 0
M  V30 367 H 36.1353 -1.0418 1.19718 0
M  V30 368 H 36.1563 -3.72787 0.762217 0
M  V30 369 H 35.6683 -3.01609 2.44241 0
M  V30 370 H 33.7693 -3.72512 0.0807901 0
M  V30 371 H 33.8823 -4.42816 1.82894 0
M  V30 372 H 32.2463 -2.38935 0.88217 0
M  V30 373 H 33.0293 -2.29731 2.55105 0
M  V30 374 N 35.4744 -0.807222 -1.35358 0
M  V30 375 C 36.7144 -0.393534 -2.00576 0
M  V30 376 C 37.0784 1.0203 -1.62647 0
M  V30 377 O 38.2794 1.53603 -2.20589 0
M  V30 378 C 36.5504 -0.572017 -3.52793 0
M  V30 379 S 38.1094 -0.248845 -4.38094 0
M  V30 380 H 34.9274 -0.149425 -0.695121 0
M  V30 381 H 37.5294 -1.04961 -1.64935 0
M  V30 382 H 36.2334 -1.60097 -3.77885 0
M  V30 383 H 35.7644 0.099359 -3.93275 0
M  V30 384 H 37.7794 0.943253 -4.87152 0
M  V30 385 N 36.9525 1.47285 -0.560781 0
M  V30 386 C 38.1775 2.07359 -0.0410566 0
M  V30 387 C 38.6025 1.41017 1.24483 0
M  V30 388 O 37.9605 0.486368 1.74654 0
M  V30 389 C 38.0085 3.6035 0.134123 0
M  V30 390 O 37.1125 3.94681 1.19587 0
M  V30 391 H 36.4535 0.661887 -0.0529291 0
M  V30 392 H 38.9835 1.89252 -0.777482 0
M  V30 393 H 38.9935 4.0652 0.347207 0
M  V30 394 H 37.6685 4.08034 -0.805047 0
M  V30 395 H 36.2455 3.60251 0.962987 0
M  V30 396 N 38.4306 0.297415 1.54768 0
M  V30 397 C 39.3806 -0.595275 2.20092 0
M  V30 398 C 40.3646 -1.10163 1.17273 0
M  V30 399 O 41.5566 -1.043 1.43006 0
M  V30 400 C 38.6856 -1.7684 2.94249 0
M  V30 401 C 37.7716 -1.27818 4.0438 0
M  V30 402 N 38.1626 -0.505695 5.03266 0
M  V30 403 C 36.4606 -1.55923 4.17857 0
M  V30 404 C 37.1616 -0.245094 5.81183 0
M  V30 405 N 36.1376 -0.823881 5.3732 0
M  V30 406 H 39.9396 0.00250837 2.939 0
M  V30 407 H 37.4536 0.102007 1.62079 0
M  V30 408 H 39.4506 -2.41944 3.39513 0
M  V30 409 H 38.1106 -2.36992 2.21957 0
M  V30 410 H 39.1216 -0.150928 5.1768 0
M  V30 411 H 35.7986 -2.16849 3.56767 0
M  V30 412 H 37.1886 0.375084 6.70852 0
M  V30 413 N 39.9087 -1.5758 0.0250728 0
M  V30 414 C 40.8567 -2.11125 -0.97617 0
M  V30 415 C 41.8507 -1.03689 -1.33959 0
M  V30 416 O 43.0567 -1.22128 -1.3223 0
M  V30 417 H 39.4317 -0.674468 -0.332561 0
M  V30 418 H 41.4027 -2.94194 -0.499223 0
M  V30 419 C 40.1517 -2.65017 -2.2508 0
M  V30 420 H 39.4747 -3.47333 -1.9799 0
M  V30 421 H 40.9147 -3.06133 -2.93357 0
M  V30 422 C 39.3737 -1.57574 -2.97779 0
M  V30 423 O 39.9037 -0.973203 -3.89733 0
M  V30 424 N 38.1097 -1.29716 -2.60043 0
M  V30 425 H 37.6567 -1.789 -1.85345 0
M  V30 426 H 37.6147 -0.58051 -3.08994 0
M  V30 427 N 41.3868 0.248026 -1.55636 0
M  V30 428 C 42.6338 0.976224 -1.77415 0
M  V30 429 C 42.9618 1.85361 -0.589193 0
M  V30 430 O 42.2168 1.90973 0.427529 0
M  V30 431 C 42.5158 1.86819 -3.04686 0
M  V30 432 C 42.1818 1.14625 -4.36087 0
M  V30 433 C 40.8438 0.946723 -4.71795 0
M  V30 434 C 43.1958 0.634463 -5.17324 0
M  V30 435 C 40.5238 0.223091 -5.86276 0
M  V30 436 C 42.8758 -0.0756959 -6.32555 0
M  V30 437 C 41.5398 -0.286711 -6.66884 0
M  V30 438 H 40.8098 0.357226 -0.649208 0
M  V30 439 H 43.4568 0.246415 -1.89908 0
M  V30 440 H 41.7618 2.66502 -2.872 0
M  V30 441 H 43.4588 2.43329 -3.18735 0
M  V30 442 H 40.0488 1.3117 -4.08035 0
M  V30 443 H 44.2328 0.77616 -4.90193 0
M  V30 444 H 39.4888 0.0491185 -6.1138 0
M  V30 445 H 43.6628 -0.479899 -6.94745 0
M  V30 446 H 41.2898 -0.849389 -7.5544 0
M  V30 447 N 42.8649 1.48995 0.513639 0
M  V30 448 C 44.1049 1.59452 1.27885 0
M  V30 449 C 44.4689 0.269479 1.90099 0
M  V30 450 O 45.6699 0.249139 2.67643 0
M  V30 451 C 43.9409 2.71277 2.32688 0
M  V30 452 S 45.4999 3.01604 3.18717 0
M  V30 453 H 42.3179 0.562565 0.434789 0
M  V30 454 H 44.9199 1.86595 0.583301 0
M  V30 455 H 43.6239 3.66089 1.8549 0
M  V30 456 H 43.1549 2.46086 3.06929 0
M  V30 457 H 45.1699 2.42155 4.331 0
M  V30 458 N 44.343 -0.763751 1.37857 0
M  V30 459 C 45.29 -1.87726 1.34267 0
M  V30 460 C 46.26 -1.64807 0.206879 0
M  V30 461 O 47.445 -1.86613 0.397508 0
M  V30 462 C 44.585 -3.24896 1.16346 0
M  V30 463 C 43.698 -3.59716 2.39225 0
M  V30 464 C 42.833 -4.86137 2.14114 0
M  V30 465 C 41.872 -5.13711 3.32817 0
M  V30 466 N 41.009 -6.31323 3.07206 0
M  V30 467 H 45.849 -1.90129 2.29466 0
M  V30 468 H 43.386 -0.929433 1.14017 0
M  V30 469 H 45.344 -4.04036 1.03975 0
M  V30 470 H 43.974 -3.21847 0.247909 0
M  V30 471 H 43.026 -2.75498 2.62307 0
M  V30 472 H 44.338 -3.76027 3.27728 0
M  V30 473 H 43.492 -5.73198 1.9882 0
M  V30 474 H 42.231 -4.71945 1.22961 0
M  V30 475 H 41.236 -4.25123 3.48641 0
M  V30 476 H 42.461 -5.29807 4.24832 0
M  V30 477 H 40.407 -6.18474 2.1869 0
M  V30 478 H 40.324 -6.48087 3.89254 0
M  V30 479 H 41.592 -7.213 2.95546 0
M  V30 480 N 45.8211 -1.22559 -0.990812 0
M  V30 481 C 46.7681 -0.997519 -2.0813 0
M  V30 482 C 47.7381 0.0814702 -1.659 0
M  V30 483 O 48.9231 -0.0685424 -1.90677 0
M  V30 484 C 46.0631 -0.583615 -3.40129 0
M  V30 485 C 45.1761 -1.7336 -3.9569 0
M  V30 486 C 44.3111 -1.26748 -5.15857 0
M  V30 487 C 43.3501 -2.38888 -5.63559 0
M  V30 488 N 42.4871 -1.93308 -6.74964 0
M  V30 489 H 47.3271 -1.93099 -2.26973 0
M  V30 490 H 44.8641 -0.962114 -1.11273 0
M  V30 491 H 46.8221 -0.324801 -4.15934 0
M  V30 492 H 45.4521 0.312845 -3.2128 0
M  V30 493 H 44.5041 -2.10669 -3.16738 0
M  V30 494 H 45.8161 -2.57704 -4.27071 0
M  V30 495 H 44.9701 -0.966173 -5.98957 0
M  V30 496 H 43.7091 -0.394272 -4.86104 0
M  V30 497 H 42.7141 -2.69805 -4.79046 0
M  V30 498 H 43.9391 -3.26728 -5.95336 0
M  V30 499 H 41.8851 -1.08352 -6.4699 0
M  V30 500 H 41.8021 -2.71217 -7.05675 0
M  V30 501 H 43.0701 -1.66252 -7.61564 0
M  V30 502 N 47.2992 1.18797 -1.03562 0
M  V30 503 C 48.5392 1.90346 -0.744832 0
M  V30 504 C 48.9032 1.78231 0.713972 0
M  V30 505 O 50.1042 2.44441 1.11813 0
M  V30 506 C 48.3752 3.36942 -1.19184 0
M  V30 507 S 49.9342 4.26638 -1.02593 0
M  V30 508 H 46.7522 0.657343 -0.270963 0
M  V30 509 H 49.3542 1.43579 -1.32685 0
M  V30 510 H 48.0582 3.43287 -2.24905 0
M  V30 511 H 47.5892 3.88745 -0.603397 0
M  V30 512 H 49.6042 4.96164 0.0596033 0
M  V30 513 N 48.7773 0.814389 1.34928 0
M  V30 514 C 49.7073 0.244827 2.32213 0
M  V30 515 C 50.6883 -0.634024 1.57842 0
M  V30 516 O 51.8733 -0.562676 1.8587 0
M  V30 517 C 49.0033 -0.601106 3.42058 0
M  V30 518 C 47.9573 0.179896 4.27622 0
M  V30 519 C 47.2833 -0.788237 5.28858 0
M  V30 520 C 48.5833 1.38329 5.03649 0
M  V30 521 H 50.2773 1.05763 2.80097 0
M  V30 522 H 47.8233 0.510029 1.34665 0
M  V30 523 H 49.7763 -1.00968 4.09125 0
M  V30 524 H 48.5003 -1.44688 2.92802 0
M  V30 525 H 47.1593 0.569739 3.62146 0
M  V30 526 H 46.8073 -1.62973 4.75866 0
M  V30 527 H 46.5073 -0.269942 5.8698 0
M  V30 528 H 48.0313 -1.19485 5.98795 0
M  V30 529 H 49.4453 1.04918 5.63618 0
M  V30 530 H 47.8423 1.83662 5.71304 0
M  V30 531 H 48.9123 2.16592 4.33839 0
M  V30 532 N 50.2554 -1.46986 0.568584 0
M  V30 533 C 51.1654 -2.33942 -0.17555 0
M  V30 534 C 52.1814 -1.48891 -0.90041 0
M  V30 535 O 53.3574 -1.81794 -0.86676 0
M  V30 536 C 50.4224 -3.25811 -1.18524 0
M  V30 537 C 49.4834 -4.26757 -0.466582 0
M  V30 538 C 48.7164 -5.14236 -1.42817 0
M  V30 539 O 48.9394 -5.04379 -2.66379 0
M  V30 540 O 47.8734 -5.94412 -0.946453 0
M  V30 541 H 51.6994 -2.98896 0.538036 0
M  V30 542 H 49.2844 -1.4573 0.329097 0
M  V30 543 H 51.1664 -3.82527 -1.76779 0
M  V30 544 H 49.8414 -2.63471 -1.88055 0
M  V30 545 H 48.7484 -3.73769 0.157451 0
M  V30 546 H 50.0814 -4.91843 0.187485 0
M  V30 547 N 51.7335 -0.305618 -1.54608 0
M  V30 548 C 52.9815 0.301701 -1.99835 0
M  V30 549 C 53.3025 1.54054 -1.19551 0
M  V30 550 O 52.5725 1.93702 -0.292658 0
M  V30 551 H 51.1525 0.114468 -0.738178 0
M  V30 552 H 53.8145 -0.418016 -1.90364 0
M  V30 553 H 52.9105 0.570548 -3.06841 0
M  V30 554 N 53.2116 1.57565 -0.0334293 0
M  V30 555 C 54.4606 1.91155 0.643639 0
M  V30 556 C 54.7736 0.91192 1.73042 0
M  V30 557 O 55.9796 1.13923 2.46442 0
M  V30 558 C 54.4356 3.39443 1.1961 0
M  V30 559 C 54.0436 4.47774 0.142381 0
M  V30 560 C 55.7876 3.82094 1.84944 0
M  V30 561 C 53.6946 5.87162 0.706727 0
M  V30 562 H 52.6246 0.713368 0.244176 0
M  V30 563 H 55.2756 1.8323 -0.0994323 0
M  V30 564 H 53.6576 3.42313 1.99092 0
M  V30 565 H 54.8316 4.56469 -0.630296 0
M  V30 566 H 53.1466 4.14352 -0.412446 0
M  V30 567 H 55.7436 4.83591 2.2813 0
M  V30 568 H 56.0866 3.17386 2.69392 0
M  V30 569 H 56.6196 3.81665 1.12145 0
M  V30 570 H 53.3586 6.55424 -0.0997178 0
M  V30 571 H 52.8786 5.82064 1.44779 0
M  V30 572 H 54.5576 6.35866 1.19514 0
M  V30 573 N 54.6897 -0.239769 1.55765 0
M  V30 574 C 55.6197 -1.30052 1.9393 0
M  V30 575 C 56.6007 -1.49839 0.805132 0
M  V30 576 O 57.7857 -1.62328 1.06599 0
M  V30 577 C 54.9157 -2.65391 2.2402 0
M  V30 578 C 53.8697 -2.60289 3.39755 0
M  V30 579 C 53.1957 -3.99489 3.55405 0
M  V30 580 C 54.4957 -2.16654 4.75246 0
M  V30 581 H 56.1897 -0.983573 2.82783 0
M  V30 582 H 53.7357 -0.471701 1.36055 0
M  V30 583 H 55.6887 -3.3974 2.49308 0
M  V30 584 H 54.4127 -2.98736 1.32 0
M  V30 585 H 53.0717 -1.88398 3.14487 0
M  V30 586 H 52.7197 -4.30112 2.60793 0
M  V30 587 H 52.4197 -3.96962 4.33238 0
M  V30 588 H 53.9437 -4.75528 3.83022 0
M  V30 589 H 55.3577 -2.80737 4.99859 0
M  V30 590 H 53.7547 -2.25223 5.56232 0
M  V30 591 H 54.8247 -1.11835 4.71827 0
M  V30 592 N 56.1678 -1.49265 -0.50573 0
M  V30 593 C 57.0778 -1.68312 -1.63427 0
M  V30 594 C 58.0938 -0.565682 -1.64548 0
M  V30 595 O 59.2698 -0.839801 -1.83055 0
M  V30 596 C 56.3348 -1.74107 -2.99813 0
M  V30 597 C 55.3958 -2.97653 -3.09356 0
M  V30 598 C 54.6288 -3.03163 -4.39236 0
M  V30 599 O 54.8518 -2.16396 -5.27758 0
M  V30 600 O 53.7858 -3.9558 -4.53652 0
M  V30 601 H 57.6118 -2.63907 -1.50289 0
M  V30 602 H 55.1968 -1.32951 -0.681502 0
M  V30 603 H 57.0788 -1.803 -3.80881 0
M  V30 604 H 55.7538 -0.816901 -3.13223 0
M  V30 605 H 54.6608 -2.96981 -2.27493 0
M  V30 606 H 55.9938 -3.89535 -3.00871 0
M  V30 607 N 57.6459 0.756429 -1.3826 0
M  V30 608 C 58.8939 1.51248 -1.34047 0
M  V30 609 C 59.2149 1.94875 0.0698372 0
M  V30 610 O 58.4849 1.67436 1.01696 0
M  V30 611 H 57.0649 0.561018 -0.493222 0
M  V30 612 H 59.7269 0.899347 -1.7291 0
M  V30 613 H 58.8229 2.40472 -1.98947 0
M  V30 614 N 59.124 1.23083 0.984299 0
M  V30 615 C 60.349 1.088 1.76571 0
M  V30 616 C 60.774 -0.356657 1.84688 0
M  V30 617 O 60.132 -1.25788 1.30565 0
M  V30 618 C 60.18 1.71371 3.17277 0
M  V30 619 O 59.284 0.973213 4.00752 0
M  V30 620 H 58.625 0.381599 0.543395 0
M  V30 621 H 61.155 1.63057 1.23587 0
M  V30 622 H 61.165 1.76449 3.67872 0
M  V30 623 H 59.84 2.76493 3.10684 0
M  V30 624 H 58.417 0.999078 3.59267 0
M  V30 625 N 60.6021 -1.18246 1.0419 0
M  V30 626 C 61.8481 -1.88536 0.747122 0
M  V30 627 C 62.1811 -1.80223 -0.723409 0
M  V30 628 O 61.4561 -1.20337 -1.52804 0
M  V30 629 C 61.7391 -3.38968 1.21544 0
M  V30 630 C 61.5921 -3.56084 2.74816 0
M  V30 631 C 62.9111 -4.32648 0.806482 0
M  V30 632 H 60.0301 -0.684619 0.272883 0
M  V30 633 H 62.6721 -1.39113 1.29413 0
M  V30 634 H 60.8221 -3.8119 0.750081 0
M  V30 635 H 62.4941 -3.22946 3.29399 0
M  V30 636 H 60.7371 -2.98699 3.14582 0
M  V30 637 H 61.4081 -4.61639 3.02644 0
M  V30 638 H 63.8841 -3.98211 1.20695 0
M  V30 639 H 62.7601 -5.36462 1.1619 0
M  V30 640 H 63.0211 -4.41146 -0.29029 0
M  V30 641 N 62.0802 -0.821533 -1.34494 0
M  V30 642 C 63.4962 -0.507117 -1.51329 0
M  V30 643 C 63.6962 0.968964 -1.76673 0
M  V30 644 O 62.7522 1.75348 -1.81685 0
M  V30 645 C 64.0652 -1.36544 -2.67911 0
M  V30 646 C 65.6132 -1.36242 -2.81793 0
M  V30 647 C 66.0882 -2.2052 -4.01416 0
M  V30 648 N 67.5792 -2.18136 -4.08621 0
M  V30 649 C 68.3142 -2.80095 -5.00334 0
M  V30 650 N 67.8102 -3.51039 -5.9728 0
M  V30 651 N 69.6032 -2.69656 -4.93196 0
M  V30 652 H 61.7542 -1.77729 -1.16302 0
M  V30 653 H 64.0172 -0.757291 -0.570276 0
M  V30 654 H 63.7232 -2.41361 -2.55808 0
M  V30 655 H 63.5972 -1.02917 -3.62888 0
M  V30 656 H 65.9842 -0.322041 -2.93338 0
M  V30 657 H 66.0652 -1.73866 -1.87628 0
M  V30 658 H 65.7092 -3.24607 -3.90631 0
M  V30 659 H 65.6392 -1.80247 -4.94791 0
M  V30 660 H 68.1302 -1.6653 -3.39229 0
M  V30 661 H 68.4432 -3.95565 -6.63889 0
M  V30 662 H 66.7882 -3.55145 -5.97409 0
M  V30 663 H 69.9792 -2.13808 -4.16418 0
M  V30 664 H 70.1522 -3.1823 -5.64476 0
M  V30 665 N 63.5583 1.46682 -0.576371 0
M  V30 666 C 64.5063 2.31953 0.17335 0
M  V30 667 C 65.5003 1.44098 0.89062 0
M  V30 668 O 66.7063 1.60759 0.809728 0
M  V30 669 H 63.0813 0.748273 0.0747727 0
M  V30 670 H 65.0523 2.93007 -0.564738 0
M  V30 671 C 63.8013 3.27142 1.17786 0
M  V30 672 H 63.1243 3.94719 0.635361 0
M  V30 673 H 64.5643 3.896 1.67296 0
M  V30 674 C 63.0233 2.52036 2.23561 0
M  V30 675 O 63.5533 2.27877 3.3081 0
M  V30 676 N 61.7593 2.12709 1.97998 0
M  V30 677 H 61.3063 2.32557 1.10792 0
M  V30 678 H 61.2643 1.62776 2.68982 0
M  V30 679 N 65.0364 0.313813 1.54444 0
M  V30 680 C 66.2614 -0.296681 2.05267 0
M  V30 681 C 66.6864 -1.45757 1.18897 0
M  V30 682 O 66.0444 -1.80239 0.195886 0
M  V30 683 C 66.0924 -0.71831 3.53373 0
M  V30 684 O 65.1964 -1.82175 3.69981 0
M  V30 685 H 64.5374 -0.0554061 0.661684 0
M  V30 686 H 67.0674 0.459387 1.99376 0
M  V30 687 H 67.0774 -1.00364 3.95463 0
M  V30 688 H 65.7524 0.130821 4.15694 0
M  V30 689 H 64.3294 -1.53598 3.39797 0
M  V30 690 N 66.5145 -1.57545 0.0417849 0
M  V30 691 C 67.4445 -2.14009 -0.933929 0
M  V30 692 C 68.4255 -1.05938 -1.33083 0
M  V30 693 O 69.6105 -1.33833 -1.40721 0
M  V30 694 C 66.7405 -2.67747 -2.21199 0
M  V30 695 C 65.6945 -3.80718 -1.95544 0
M  V30 696 C 65.0205 -4.20935 -3.29724 0
M  V30 697 C 66.3205 -5.06258 -1.28452 0
M  V30 698 H 68.0145 -2.95788 -0.463645 0
M  V30 699 H 65.5605 -1.42285 -0.221573 0
M  V30 700 H 67.5135 -3.05886 -2.89848 0
M  V30 701 H 66.2375 -1.83147 -2.70416 0
M  V30 702 H 64.8965 -3.43037 -1.2931 0
M  V30 703 H 64.5445 -3.33298 -3.76724 0
M  V30 704 H 64.2445 -4.9707 -3.13361 0
M  V30 705 H 65.7685 -4.61666 -3.9962 0
M  V30 706 H 67.1825 -5.41903 -1.8712 0
M  V30 707 H 65.5795 -5.87475 -1.22445 0
M  V30 708 H 66.6495 -4.84207 -0.259219 0
M  V30 709 N 67.9926 0.231505 -1.5589 0
M  V30 710 C 69.2386 0.954429 -1.79617 0
M  V30 711 C 69.5936 1.82367 -0.613199 0
M  V30 712 O 68.8866 1.87524 0.393094 0
M  V30 713 C 69.0806 1.83577 -3.0665 0
M  V30 714 C 68.9096 1.05334 -4.3719 0
M  V30 715 C 67.6796 0.75225 -4.99669 0
M  V30 716 C 69.8776 0.423444 -5.12554 0
M  V30 717 N 67.8596 -0.052627 -6.13877 0
M  V30 718 C 69.2306 -0.245287 -6.19515 0
M  V30 719 C 71.2856 0.335466 -4.96769 0
M  V30 720 C 69.9886 -0.993566 -7.12405 0
M  V30 721 C 72.0146 -0.399321 -5.9005 0
M  V30 722 C 71.3766 -1.05663 -6.9643 0
M  V30 723 H 67.4756 0.329846 -0.709031 0
M  V30 724 H 70.0596 0.226172 -1.93382 0
M  V30 725 H 68.2306 2.53592 -2.94186 0
M  V30 726 H 69.9626 2.49541 -3.18608 0
M  V30 727 H 66.7176 1.06783 -4.61405 0
M  V30 728 H 67.1416 -0.443609 -6.75545 0
M  V30 729 H 71.7836 0.829311 -4.14587 0
M  V30 730 H 69.5016 -1.49896 -7.94076 0
M  V30 731 H 73.0876 -0.468265 -5.79913 0
M  V30 732 H 71.9676 -1.61612 -7.67366 0
M  V30 733 N 69.4707 1.49531 0.497807 0
M  V30 734 C 70.8867 1.36365 0.829266 0
M  V30 735 C 71.0867 0.399184 1.97506 0
M  V30 736 O 70.1427 -0.167977 2.51941 0
M  V30 737 C 71.4557 2.77153 1.16647 0
M  V30 738 C 73.0037 2.85877 1.27449 0
M  V30 739 C 73.4787 4.2744 1.64497 0
M  V30 740 N 74.9697 4.30265 1.7154 0
M  V30 741 C 75.7047 5.3677 2.01656 0
M  V30 742 N 75.2007 6.53516 2.29976 0
M  V30 743 N 76.9937 5.24189 2.02934 0
M  V30 744 H 69.1447 2.10831 -0.257703 0
M  V30 745 H 71.4077 0.946534 -0.0527091 0
M  V30 746 H 71.1137 3.49442 0.397872 0
M  V30 747 H 70.9877 3.12722 2.10915 0
M  V30 748 H 73.3747 2.13824 2.0338 0
M  V30 749 H 73.4557 2.53887 0.312244 0
M  V30 750 H 73.0997 5.00021 0.891151 0
M  V30 751 H 73.0297 4.56896 2.61827 0
M  V30 752 H 75.5207 3.4607 1.51802 0
M  V30 753 H 75.8337 7.30506 2.52153 0
M  V30 754 H 74.1787 6.56737 2.27425 0
M  V30 755 H 77.3697 4.31988 1.80289 0
M  V30 756 H 77.5427 6.07286 2.26071 0
M  V30 757 N 70.9488 -0.749086 1.3866 0
M  V30 758 C 72.3598 -1.32664 1.31366 0
M  V30 759 C 72.7108 -1.96179 -0.028484 0
M  V30 760 O 71.8358 -1.9537 -0.93057 0
M  V30 761 C 72.4308 -2.41219 2.37905 0
M  V30 762 C 70.9898 -2.94684 2.34176 0
M  V30 763 C 70.1368 -1.68108 2.20533 0
M  V30 764 H 73.0878 -0.547628 1.48952 0
M  V30 765 H 73.1088 -3.21268 2.0388 0
M  V30 766 H 72.6208 -1.94962 3.35576 0
M  V30 767 H 70.7218 -3.45258 1.401 0
M  V30 768 H 70.8348 -3.48757 3.2849 0
M  V30 769 H 69.1988 -1.91907 1.67463 0
M  V30 770 H 69.9818 -1.23923 3.20153 0
M  V30 771 N 72.4269 -1.23603 -0.977757 0
M  V30 772 C 73.3899 -1.02069 -2.05218 0
M  V30 773 C 74.3899 0.0184305 -1.60789 0
M  V30 774 O 75.5799 -0.221569 -1.72785 0
M  V30 775 C 72.7119 -0.544926 -3.36517 0
M  V30 776 H 73.9049 -1.9742 -2.25755 0
M  V30 777 H 71.4579 -1.05684 -1.15155 0
M  V30 778 H 72.1929 0.412241 -3.21669 0
M  V30 779 H 71.9779 -1.2948 -3.70105 0
M  V30 780 H 73.4679 -0.414985 -4.15533 0
M  V30 781 N 73.905 1.17692 -1.04816 0
M  V30 782 C 75.316 1.69501 -0.782698 0
M  V30 783 C 75.667 1.83456 0.695577 0
M  V30 784 O 74.792 1.51942 1.54086 0
M  V30 785 C 75.387 3.07874 -1.41419 0
M  V30 786 C 73.946 3.56864 -1.19686 0
M  V30 787 C 73.093 2.3322 -1.50012 0
M  V30 788 H 76.044 1.02262 -1.2136 0
M  V30 789 H 76.065 3.71528 -0.821428 0
M  V30 790 H 75.577 2.97685 -2.49009 0
M  V30 791 H 73.678 3.72337 -0.140043 0
M  V30 792 H 73.791 4.39851 -1.89916 0
M  V30 793 H 72.155 2.37501 -0.920071 0
M  V30 794 H 72.938 2.25644 -2.58727 0
M  V30 795 N 75.3831 0.828654 1.34056 0
M  V30 796 C 76.6301 0.419458 1.98108 0
M  V30 797 C 76.9581 -1.01886 1.65679 0
M  V30 798 O 76.2131 -1.72539 0.923512 0
M  V30 799 C 76.5121 0.575226 3.52741 0
M  V30 800 C 76.1781 1.98012 4.05095 0
M  V30 801 C 74.8401 2.36442 4.19104 0
M  V30 802 C 77.1921 2.89824 4.33188 0
M  V30 803 C 74.5201 3.66009 4.58535 0
M  V30 804 C 76.8721 4.1886 4.74066 0
M  V30 805 C 75.5361 4.5726 4.86281 0
M  V30 806 H 74.8061 0.153491 0.724929 0
M  V30 807 H 77.4531 1.05371 1.59904 0
M  V30 808 H 75.7581 -0.142385 3.91541 0
M  V30 809 H 77.4551 0.239057 4.00287 0
M  V30 810 H 74.0451 1.67162 3.94658 0
M  V30 811 H 78.2291 2.61375 4.21897 0
M  V30 812 H 73.4851 3.95579 4.66184 0
M  V30 813 H 77.6591 4.90086 4.94761 0
M  V30 814 H 75.2861 5.57707 5.16592 0
M  V30 815 N 76.8612 -1.46375 0.584142 0
M  V30 816 C 77.8082 -2.30323 -0.148286 0
M  V30 817 C 78.7782 -1.40703 -0.882713 0
M  V30 818 O 79.9632 -1.69651 -0.873099 0
M  V30 819 C 77.1032 -3.25196 -1.15507 0
M  V30 820 C 76.2162 -4.29915 -0.423943 0
M  V30 821 C 75.3512 -5.11914 -1.41838 0
M  V30 822 C 74.3902 -6.08381 -0.673736 0
M  V30 823 N 73.5272 -6.83242 -1.6163 0
M  V30 824 H 78.3672 -2.92427 0.573644 0
M  V30 825 H 75.9042 -1.44118 0.294703 0
M  V30 826 H 77.8622 -3.78646 -1.75166 0
M  V30 827 H 76.4922 -2.64898 -1.8447 0
M  V30 828 H 75.5442 -3.7931 0.287714 0
M  V30 829 H 76.8562 -4.98549 0.158128 0
M  V30 830 H 76.0102 -5.69648 -2.08773 0
M  V30 831 H 74.7492 -4.43243 -2.03438 0
M  V30 832 H 73.7542 -5.49799 0.00938483 0
M  V30 833 H 74.9792 -6.79071 -0.0631082 0
M  V30 834 H 72.9252 -6.1728 -2.22038 0
M  V30 835 H 72.8422 -7.48144 -1.08707 0
M  V30 836 H 74.1102 -7.45534 -2.27596 0
M  V30 837 N 78.3393 -0.321999 -1.54275 0
M  V30 838 C 79.5793 0.281657 -2.0245 0
M  V30 839 C 79.9433 1.49468 -1.20513 0
M  V30 840 O 81.1443 2.17109 -1.58484 0
M  V30 841 C 79.4153 0.609014 -3.52173 0
M  V30 842 S 80.9743 1.19255 -4.22284 0
M  V30 843 H 77.7923 0.0852825 -0.705867 0
M  V30 844 H 80.3943 -0.454758 -1.90137 0
M  V30 845 H 79.0983 -0.281982 -4.0943 0
M  V30 846 H 78.6293 1.37567 -3.68563 0
M  V30 847 H 80.6443 2.47944 -4.29812 0
M  V30 848 N 79.8174 1.5752 -0.0501392 0
M  V30 849 C 81.2284 1.80271 0.485705 0
M  V30 850 C 81.5794 0.96228 1.70981 0
M  V30 851 O 80.7044 0.178578 2.15662 0
M  V30 852 C 81.2994 3.26957 0.887938 0
M  V30 853 C 79.8584 3.5063 1.36877 0
M  V30 854 C 79.0054 2.75165 0.343468 0
M  V30 855 H 81.9564 1.56281 -0.276028 0
M  V30 856 H 81.9774 3.37821 1.75093 0
M  V30 857 H 81.4894 3.881 -0.0031809 0
M  V30 858 H 79.5904 2.94766 2.27911 0
M  V30 859 H 79.7034 4.59343 1.36164 0
M  V30 860 H 78.0674 2.4127 0.816128 0
M  V30 861 H 78.8504 3.39034 -0.539548 0
M  V30 862 N 81.2955 -0.223234 1.56011 0
M  V30 863 C 82.5235 -0.964812 1.83027 0
M  V30 864 C 82.9385 -1.78013 0.62904 0
M  V30 865 O 82.2955 -1.78008 -0.402414 0
M  V30 866 C 82.3465 -1.88373 3.08542 0
M  V30 867 O 82.0675 -1.10137 4.2403 0
M  V30 868 C 83.5685 -2.73934 3.48533 0
M  V30 869 H 80.7885 -0.282842 0.608475 0
M  V30 870 H 83.3325 -0.238971 2.03099 0
M  V30 871 H 81.4875 -2.56354 2.9045 0
M  V30 872 H 81.9015 -1.72501 4.95322 0
M  V30 873 H 83.3755 -3.34117 4.39397 0
M  V30 874 H 83.8525 -3.46244 2.70207 0
M  V30 875 H 84.4585 -2.11369 3.69057 0
M  V30 876 N 82.7736 -1.49793 -0.48987 0
M  V30 877 C 84.0136 -1.61466 -1.25332 0
M  V30 878 C 84.3776 -0.299688 -1.89647 0
M  V30 879 O 85.5786 -0.291687 -2.67213 0
M  V30 880 C 83.8496 -2.74944 -2.28343 0
M  V30 881 S 85.4086 -3.06637 -3.13878 0
M  V30 882 H 82.2266 -0.569411 -0.425784 0
M  V30 883 H 84.8286 -1.875 -0.553541 0
M  V30 884 H 83.5326 -3.68994 -1.79643 0
M  V30 885 H 83.0636 -2.50938 -3.02975 0
M  V30 886 H 85.0786 -2.49015 -4.29192 0
M  V30 887 N 84.2517 0.741722 -1.39055 0
M  V30 888 C 85.6677 1.04638 -1.20512 0
M  V30 889 C 85.8677 2.01405 -0.0620218 0
M  V30 890 O 84.9237 2.45547 0.588457 0
M  V30 891 C 86.2367 1.6151 -2.53643 0
M  V30 892 C 87.7847 1.73623 -2.6043 0
M  V30 893 C 88.2597 2.33906 -3.93767 0
M  V30 894 N 89.7507 2.41323 -3.9537 0
M  V30 895 C 90.4857 2.88888 -4.95309 0
M  V30 896 N 89.9817 3.36401 -6.05645 0
M  V30 897 N 91.7747 2.88037 -4.82692 0
M  V30 898 H 83.9257 0.0998155 -2.12165 0
M  V30 899 H 86.1887 0.106907 -0.941953 0
M  V30 900 H 85.8947 0.978739 -3.37807 0
M  V30 901 H 85.7687 2.60411 -2.72885 0
M  V30 902 H 88.1557 2.36384 -1.76655 0
M  V30 903 H 88.2367 0.733945 -2.45045 0
M  V30 904 H 87.8807 1.71776 -4.7797 0
M  V30 905 H 87.8107 3.34799 -4.06469 0
M  V30 906 H 90.3017 2.07734 -3.15682 0
M  V30 907 H 90.6147 3.71186 -6.77821 0
M  V30 908 H 88.9597 3.34427 -6.09248 0
M  V30 909 H 92.1507 2.50237 -3.95599 0
M  V30 910 H 92.3237 3.24792 -5.60726 0
M  V30 911 N 85.7298 1.2412 0.971189 0
M  V30 912 C 86.6768 1.0305 2.06517 0
M  V30 913 C 87.6468 -0.0550666 1.66009 0
M  V30 914 O 88.8318 0.0988688 1.90544 0
M  V30 915 C 85.9718 0.637653 3.39158 0
M  V30 916 C 85.0848 1.79633 3.92882 0
M  V30 917 C 84.2198 1.34939 5.13775 0
M  V30 918 C 83.2588 2.47823 5.59687 0
M  V30 919 N 82.3958 2.04022 6.71803 0
M  V30 920 H 87.2358 1.96685 2.23873 0
M  V30 921 H 84.7728 0.979694 1.09729 0
M  V30 922 H 86.7308 0.390931 4.15364 0
M  V30 923 H 85.3608 -0.261693 3.21737 0
M  V30 924 H 84.4128 2.15681 3.13346 0
M  V30 925 H 85.7248 2.64466 4.22918 0
M  V30 926 H 84.8788 1.06134 5.97345 0
M  V30 927 H 83.6178 0.471557 4.85415 0
M  V30 928 H 82.6228 2.77392 4.74693 0
M  V30 929 H 83.8478 3.36158 5.90063 0
M  V30 930 H 81.7938 1.18632 6.45184 0
M  V30 931 H 81.7108 2.82409 7.01271 0
M  V30 932 H 82.9788 1.78347 7.58823 0
M  V30 933 N 87.2079 -1.17134 1.05439 0
M  V30 934 C 88.1179 -2.24878 0.668365 0
M  V30 935 C 89.1339 -1.71186 -0.311687 0
M  V30 936 O 90.3099 -2.00738 -0.163161 0
M  V30 937 C 87.3749 -3.46662 0.051648 0
M  V30 938 C 86.4359 -4.15429 1.08246 0
M  V30 939 C 85.6689 -5.31399 0.495082 0
M  V30 940 O 85.8919 -5.66153 -0.694743 0
M  V30 941 O 84.8259 -5.89187 1.23056 0
M  V30 942 H 88.6519 -2.60189 1.56637 0
M  V30 943 H 86.2369 -1.24482 0.826104 0
M  V30 944 H 88.1189 -4.20394 -0.290966 0
M  V30 945 H 86.7939 -3.13142 -0.819971 0
M  V30 946 H 85.7009 -3.43704 1.47711 0
M  V30 947 H 87.0339 -4.52982 1.92532 0
M  V30 948 N 88.686 -0.835752 -1.33615 0
M  V30 949 C 89.914 -0.443344 -2.02094 0
M  V30 950 C 90.329 0.954522 -1.62894 0
M  V30 951 O 89.686 1.61982 -0.840723 0
M  V30 952 C 89.737 -0.550775 -3.5728 0
M  V30 953 O 89.458 -1.89356 -3.95065 0
M  V30 954 C 90.959 -0.154919 -4.43029 0
M  V30 955 H 88.179 -0.176359 -0.647409 0
M  V30 956 H 90.723 -1.12746 -1.70612 0
M  V30 957 H 88.878 0.0853997 -3.87306 0
M  V30 958 H 89.292 -1.87687 -4.89769 0
M  V30 959 H 90.766 -0.281144 -5.51284 0
M  V30 960 H 91.243 0.902863 -4.2982 0
M  V30 961 H 91.849 -0.765404 -4.18356 0
M  V30 962 N 90.1641 1.46063 -0.591896 0
M  V30 963 C 91.3891 2.07226 -0.0850314 0
M  V30 964 C 91.8141 1.43625 1.21463 0
M  V30 965 O 91.1721 0.523305 1.73583 0
M  V30 966 C 91.2201 3.60554 0.0576567 0
M  V30 967 O 90.3241 3.97128 1.11188 0
M  V30 968 H 89.6651 0.660615 -0.0669568 0
M  V30 969 H 92.1951 1.8756 -0.81745 0
M  V30 970 H 92.2051 4.07165 0.2609 0
M  V30 971 H 90.8801 4.06235 -0.891416 0
M  V30 972 H 89.4571 3.62213 0.886356 0
M  V30 973 N 91.6422 0.330177 1.54103 0
M  V30 974 C 92.6052 -0.520144 2.2322 0
M  V30 975 C 93.6052 -1.03828 1.22786 0
M  V30 976 O 94.7952 -0.929652 1.4732 0
M  V30 977 C 91.9272 -1.72317 2.94142 0
M  V30 978 H 93.1202 0.0841605 2.99782 0
M  V30 979 H 90.6732 0.0813433 1.56088 0
M  V30 980 H 91.4082 -2.36653 2.21734 0
M  V30 981 H 91.1932 -1.35898 3.67796 0
M  V30 982 H 92.6832 -2.3266 3.46784 0
M  V30 983 N 93.1203 -1.57491 0.0584922 0
M  V30 984 C 94.3483 -1.97296 -0.623037 0
M  V30 985 C 94.7633 -0.936338 -1.63946 0
M  V30 986 O 94.1203 0.0785981 -1.82331 0
M  V30 987 C 94.1713 -3.37183 -1.30345 0
M  V30 988 O 93.8923 -4.36872 -0.32773 0
M  V30 989 C 95.3933 -3.91788 -2.07406 0
M  V30 990 H 92.6133 -0.649153 -0.169826 0
M  V30 991 H 95.1573 -2.04106 0.12696 0
M  V30 992 H 93.3123 -3.31502 -2.00463 0
M  V30 993 H 93.7263 -5.18141 -0.814269 0
M  V30 994 H 95.2003 -4.91926 -2.50425 0
M  V30 995 H 95.6773 -3.27609 -2.92521 0
M  V30 996 H 96.2833 -4.00829 -1.42184 0
M  V30 997 N 94.5984 0.214957 -1.56127 0
M  V30 998 C 95.8464 0.936518 -1.79091 0
M  V30 999 C 96.1674 1.84606 -0.628148 0
M  V30 1000 O 95.4374 1.92664 0.35462 0
M  V30 1001 H 94.0174 0.3488 -0.660566 0
M  V30 1002 H 96.6794 0.22523 -1.93594 0
M  V30 1003 H 95.7754 1.53943 -2.71492 0
M  V30 1004 N 96.0765 1.50051 0.48192 0
M  V30 1005 C 97.3255 1.59741 1.23149 0
M  V30 1006 C 97.6385 0.298163 1.93314 0
M  V30 1007 O 98.8445 0.273835 2.70116 0
M  V30 1008 C 97.3005 2.81926 2.23708 0
M  V30 1009 C 96.9085 4.18685 1.59396 0
M  V30 1010 C 98.6525 3.00956 2.99375 0
M  V30 1011 C 96.5595 5.3207 2.58178 0
M  V30 1012 H 95.4895 0.594838 0.46334 0
M  V30 1013 H 98.1405 1.76467 0.503169 0
M  V30 1014 H 96.5225 2.58736 2.99786 0
M  V30 1015 H 97.6965 4.52088 0.891811 0
M  V30 1016 H 96.0115 4.05171 0.960503 0
M  V30 1017 H 98.6085 3.82836 3.73283 0
M  V30 1018 H 98.9515 2.12258 3.58123 0
M  V30 1019 H 99.4845 3.24277 2.30411 0
M  V30 1020 H 96.2235 6.22888 2.04184 0
M  V30 1021 H 95.7435 5.03098 3.26577 0
M  V30 1022 H 97.4225 5.62196 3.20225 0
M  V30 1023 N 97.5546 -0.734337 1.39446 0
M  V30 1024 C 98.5026 -1.86971 1.38364 0
M  V30 1025 C 99.4966 -1.67288 0.266687 0
M  V30 1026 O 100.703 -1.74621 0.436755 0
M  V30 1027 H 97.0776 -0.615474 0.432082 0
M  V30 1028 H 99.0486 -1.85 2.34132 0
M  V30 1029 C 97.7976 -3.2466 1.24465 0
M  V30 1030 H 97.1206 -3.40402 2.09682 0
M  V30 1031 H 98.5606 -4.04292 1.27764 0
M  V30 1032 C 97.0196 -3.36867 -0.0468674 0
M  V30 1033 O 97.5496 -3.88618 -1.01681 0
M  V30 1034 N 95.7556 -2.90391 -0.110145 0
M  V30 1035 H 95.3026 -2.48466 0.679868 0
M  V30 1036 H 95.2606 -2.98939 -0.973799 0
M  V30 1037 N 99.0327 -1.24633 -0.964593 0
M  V30 1038 C 100.258 -1.11596 -1.74818 0
M  V30 1039 C 100.683 0.32723 -1.85232 0
M  V30 1040 O 100.041 1.23695 -1.32549 0
M  V30 1041 C 100.089 -1.76397 -3.1451 0
M  V30 1042 O 99.1927 -1.03685 -3.99153 0
M  V30 1043 H 98.5337 -0.390196 -0.537255 0
M  V30 1044 H 101.064 -1.65002 -1.20977 0
M  V30 1045 H 101.074 -1.8228 -3.65018 0
M  V30 1046 H 99.7487 -2.81401 -3.06246 0
M  V30 1047 H 98.3257 -1.05611 -3.57632 0
M  V30 1048 N 100.511 1.16574 -1.06058 0
M  V30 1049 C 101.441 2.23057 -0.690488 0
M  V30 1050 C 102.422 1.67141 0.315901 0
M  V30 1051 O 103.607 1.93253 0.191556 0
M  V30 1052 C 100.737 3.47222 -0.073625 0
M  V30 1053 C 99.6908 4.16016 -1.00573 0
M  V30 1054 C 99.0168 5.34104 -0.252289 0
M  V30 1055 C 100.317 4.67264 -2.33371 0
M  V30 1056 H 102.011 2.54271 -1.58072 0
M  V30 1057 H 99.5568 1.22218 -0.76149 0
M  V30 1058 H 101.51 4.20939 0.19714 0
M  V30 1059 H 100.234 3.15302 0.85161 0
M  V30 1060 H 98.8928 3.44223 -1.2612 0
M  V30 1061 H 98.5408 4.98437 0.675988 0
M  V30 1062 H 98.2408 5.81072 -0.873455 0
M  V30 1063 H 99.7648 6.10599 0.0109857 0
M  V30 1064 H 101.179 5.32573 -2.12223 0
M  V30 1065 H 99.5758 5.24843 -2.90963 0
M  V30 1066 H 100.646 3.83602 -2.96611 0
M  V30 1067 N 101.989 0.842826 1.3317 0
M  V30 1068 C 102.921 0.236245 2.27979 0
M  V30 1069 C 103.934 -0.585282 1.51915 0
M  V30 1070 O 105.123 -0.411705 1.73687 0
M  V30 1071 C 102.223 -0.685717 3.3189 0
M  V30 1072 C 101.396 0.0973448 4.37292 0
M  V30 1073 C 100.455 -0.748565 5.20848 0
M  V30 1074 O 99.4809 -0.186339 5.68895 0
M  V30 1075 N 100.683 -2.06527 5.42519 0
M  V30 1076 H 103.448 1.05088 2.80672 0
M  V30 1077 H 101.009 0.701667 1.45905 0
M  V30 1078 H 103.001 -1.25669 3.84694 0
M  V30 1079 H 101.571 -1.40105 2.79445 0
M  V30 1080 H 100.791 0.849706 3.84933 0
M  V30 1081 H 102.079 0.635643 5.04814 0
M  V30 1082 H 101.477 -2.54554 5.05192 0
M  V30 1083 H 100.034 -2.58464 5.98364 0
M  V30 1084 N 103.467 -1.45747 0.599634 0
M  V30 1085 C 104.713 -2.02592 0.0918643 0
M  V30 1086 C 105.046 -1.46806 -1.27128 0
M  V30 1087 O 104.321 -0.639658 -1.83681 0
M  V30 1088 C 104.604 -3.60073 0.0443398 0
M  V30 1089 C 104.457 -4.26208 1.43759 0
M  V30 1090 C 105.776 -4.35309 -0.647608 0
M  V30 1091 H 102.895 -0.736175 0.034857 0
M  V30 1092 H 105.537 -1.73694 0.770081 0
M  V30 1093 H 103.687 -3.84823 -0.533224 0
M  V30 1094 H 105.359 -4.12668 2.06162 0
M  V30 1095 H 103.602 -3.84916 2.00056 0
M  V30 1096 H 104.273 -5.35069 1.35665 0
M  V30 1097 H 106.749 -4.15805 -0.156776 0
M  V30 1098 H 105.625 -5.45038 -0.649942 0
M  V30 1099 H 105.886 -4.07598 -1.71219 0
M  V30 1100 N 104.945 -0.338344 -1.53925 0
M  V30 1101 C 105.893 0.536231 -2.26335 0
M  V30 1102 C 106.887 1.1063 -1.28286 0
M  V30 1103 O 108.093 1.05264 -1.46012 0
M  V30 1104 H 104.468 0.191602 -0.727181 0
M  V30 1105 H 106.439 -0.0965747 -2.98244 0
M  V30 1106 C 105.188 1.67803 -3.04528 0
M  V30 1107 H 104.511 1.24864 -3.79801 0
M  V30 1108 H 105.951 2.26526 -3.58416 0
M  V30 1109 C 104.41 2.60439 -2.13712 0
M  V30 1110 O 104.94 3.6255 -1.72975 0
M  V30 1111 N 103.146 2.29006 -1.78898 0
M  V30 1112 H 102.693 1.46011 -2.12223 0
M  V30 1113 H 102.651 2.91248 -1.18416 0
M  V30 1114 N 106.423 1.57458 -0.0668435 0
M  V30 1115 C 107.653 1.97337 0.611677 0
M  V30 1116 C 108.061 0.943744 1.63982 0
M  V30 1117 O 107.404 -0.0785584 1.83532 0
M  V30 1118 C 107.466 3.33511 1.34205 0
M  V30 1119 C 107.13 4.54598 0.467941 0
M  V30 1120 C 108.127 5.19186 -0.272439 0
M  V30 1121 C 105.812 5.0075 0.39427 0
M  V30 1122 C 107.806 6.28274 -1.07476 0
M  V30 1123 C 105.493 6.09711 -0.411729 0
M  V30 1124 C 106.491 6.73335 -1.14492 0
M  V30 1125 O 106.179 7.80199 -1.93763 0
M  V30 1126 H 105.911 0.654042 0.170893 0
M  V30 1127 H 108.465 2.04961 -0.134289 0
M  V30 1128 H 106.695 3.22487 2.13398 0
M  V30 1129 H 108.384 3.58029 1.91233 0
M  V30 1130 H 109.15 4.84477 -0.225086 0
M  V30 1131 H 105.029 4.51009 0.954569 0
M  V30 1132 H 108.573 6.77866 -1.64755 0
M  V30 1133 H 104.47 6.43854 -0.460664 0
M  V30 1134 H 105.238 7.97053 -1.86142 0
M  V30 1135 N 107.901 -0.206675 1.56239 0
M  V30 1136 C 109.126 -0.949474 1.8439 0
M  V30 1137 C 109.551 -1.76549 0.649016 0
M  V30 1138 O 108.909 -1.76782 -0.402231 0
M  V30 1139 C 108.957 -1.83078 3.10668 0
M  V30 1140 O 108.061 -2.9281 2.90407 0
M  V30 1141 H 107.402 -0.268033 0.607499 0
M  V30 1142 H 109.932 -0.215488 2.03462 0
M  V30 1143 H 109.942 -2.2377 3.41161 0
M  V30 1144 H 108.617 -1.23112 3.97261 0
M  V30 1145 H 107.194 -2.55956 2.71184 0
M  V30 1146 N 109.379 -1.50304 -0.473955 0
M  V30 1147 C 110.309 -1.71886 -1.58042 0
M  V30 1148 C 111.29 -0.567799 -1.60344 0
M  V30 1149 O 112.475 -0.806623 -1.76656 0
M  V30 1150 C 109.605 -1.81036 -2.96384 0
M  V30 1151 C 108.559 -2.962 -3.08949 0
M  V30 1152 C 107.885 -2.9049 -4.48909 0
M  V30 1153 C 109.185 -4.36752 -2.86434 0
M  V30 1154 H 110.879 -2.64527 -1.40234 0
M  V30 1155 H 108.425 -1.27295 -0.673201 0
M  V30 1156 H 110.378 -1.94719 -3.73714 0
M  V30 1157 H 109.102 -0.850147 -3.15341 0
M  V30 1158 H 107.761 -2.82164 -2.3405 0
M  V30 1159 H 107.409 -1.92321 -4.64781 0
M  V30 1160 H 107.109 -3.67802 -4.58253 0
M  V30 1161 H 108.633 -3.06218 -5.28264 0
M  V30 1162 H 110.047 -4.5133 -3.53517 0
M  V30 1163 H 108.444 -5.15493 -3.07225 0
M  V30 1164 H 109.514 -4.49321 -1.82316 0
M  V30 1165 N 110.857 0.726932 -1.39834 0
M  V30 1166 C 111.804 1.841 -1.39197 0
M  V30 1167 C 112.774 1.642 -0.250502 0
M  V30 1168 O 113.959 1.85494 -0.446846 0
M  V30 1169 C 111.099 3.21697 -1.24919 0
M  V30 1170 C 110.212 3.53247 -2.48678 0
M  V30 1171 C 109.347 4.80289 -2.26928 0
M  V30 1172 C 108.386 5.04707 -3.4632 0
M  V30 1173 N 107.523 6.22956 -3.23836 0
M  V30 1174 H 112.363 1.83979 -2.34427 0
M  V30 1175 H 109.9 0.898876 -1.16442 0
M  V30 1176 H 111.858 4.01137 -1.1465 0
M  V30 1177 H 110.488 3.21076 -0.333153 0
M  V30 1178 H 109.54 2.68447 -2.69519 0
M  V30 1179 H 110.852 3.67205 -3.37582 0
M  V30 1180 H 110.006 5.67725 -2.13947 0
M  V30 1181 H 108.745 4.68519 -1.35431 0
M  V30 1182 H 107.75 4.1573 -3.5979 0
M  V30 1183 H 108.975 5.18357 -4.38729 0
M  V30 1184 H 106.921 6.12459 -2.35011 0
M  V30 1185 H 106.838 6.37539 -4.063 0
M  V30 1186 H 108.106 7.1321 -3.14566 0
M  V30 1187 N 112.336 1.25143 0.95797 0
M  V30 1188 C 113.584 1.09476 1.69881 0
M  V30 1189 C 113.905 -0.365502 1.91544 0
M  V30 1190 O 113.175 -1.25985 1.50015 0
M  V30 1191 H 111.755 0.402128 0.629525 0
M  V30 1192 H 114.417 1.57214 1.15194 0
M  V30 1193 H 113.513 1.60046 2.6794 0
M  V30 1194 N 113.814 -1.1601 1.06675 0
M  V30 1195 C 115.063 -1.85973 0.780818 0
M  V30 1196 C 115.376 -1.82819 -0.695444 0
M  V30 1197 O 116.582 -2.484 -1.09589 0
M  V30 1198 C 115.038 -3.33757 1.34665 0
M  V30 1199 C 114.646 -3.45374 2.85343 0
M  V30 1200 C 116.39 -4.0895 1.13843 0
M  V30 1201 C 114.297 -4.87266 3.35151 0
M  V30 1202 H 113.227 -0.696661 0.288407 0
M  V30 1203 H 115.878 -1.30903 1.28595 0
M  V30 1204 H 114.26 -3.88456 0.769274 0
M  V30 1205 H 115.434 -3.00816 3.49065 0
M  V30 1206 H 113.749 -2.83619 3.04876 0
M  V30 1207 H 116.346 -5.13654 1.4854 0
M  V30 1208 H 116.689 -4.16229 0.0770282 0
M  V30 1209 H 117.222 -3.605 1.68179 0
M  V30 1210 H 113.961 -4.85168 4.40786 0
M  V30 1211 H 113.481 -5.32433 2.76179 0
M  V30 1212 H 115.16 -5.56097 3.30704 0
M  V30 1213 N 115.292 -0.849877 -1.32721 0
M  V30 1214 C 116.538 -0.451591 -1.97708 0
M  V30 1215 C 116.871 0.989175 -1.6712 0
M  V30 1216 O 116.146 1.69334 -0.956891 0
M  V30 1217 C 116.429 -0.685598 -3.53513 0
M  V30 1218 C 116.282 -2.17444 -3.93749 0
M  V30 1219 C 117.601 -0.138874 -4.39881 0
M  V30 1220 H 114.72 -0.16555 -0.718166 0
M  V30 1221 H 117.362 -1.06742 -1.57182 0
M  V30 1222 H 115.512 -0.161416 -3.88165 0
M  V30 1223 H 117.184 -2.76433 -3.693 0
M  V30 1224 H 115.427 -2.65476 -3.43081 0
M  V30 1225 H 116.098 -2.28888 -5.02309 0
M  V30 1226 H 118.574 -0.587068 -4.11938 0
M  V30 1227 H 117.45 -0.332213 -5.47894 0
M  V30 1228 H 117.711 0.95806 -4.31594 0
M  V30 1229 N 116.77 1.45427 -0.607355 0
M  V30 1230 C 117.68 2.34325 0.113463 0
M  V30 1231 C 118.696 1.51226 0.860617 0
M  V30 1232 O 119.872 1.84029 0.818255 0
M  V30 1233 C 116.937 3.28839 1.09844 0
M  V30 1234 C 115.998 4.27844 0.353271 0
M  V30 1235 C 115.231 5.17842 1.29133 0
M  V30 1236 O 115.454 5.11264 2.52913 0
M  V30 1237 O 114.388 5.96713 0.788523 0
M  V30 1238 H 118.214 2.97364 -0.617094 0
M  V30 1239 H 115.799 1.44807 -0.367619 0
M  V30 1240 H 117.681 3.8708 1.66575 0
M  V30 1241 H 116.356 2.68365 1.81003 0
M  V30 1242 H 115.263 3.7322 -0.256494 0
M  V30 1243 H 116.596 4.91173 -0.317822 0
M  V30 1244 N 118.248 0.346503 1.53744 0
M  V30 1245 C 119.195 -0.508914 2.25119 0
M  V30 1246 C 120.165 -1.09315 1.25058 0
M  V30 1247 O 121.35 -1.12921 1.53797 0
M  V30 1248 C 118.49 -1.65246 3.02965 0
M  V30 1249 C 117.603 -1.09525 4.17886 0
M  V30 1250 C 116.738 -2.20634 4.83212 0
M  V30 1251 C 115.777 -1.62279 5.90196 0
M  V30 1252 N 114.914 -2.67143 6.49291 0
M  V30 1253 H 119.754 0.106283 2.9781 0
M  V30 1254 H 117.291 0.0642227 1.4696 0
M  V30 1255 H 119.249 -2.32574 3.4636 0
M  V30 1256 H 117.879 -2.2386 2.32565 0
M  V30 1257 H 116.931 -0.312818 3.79112 0
M  V30 1258 H 118.243 -0.628444 4.94825 0
M  V30 1259 H 117.397 -2.95821 5.29693 0
M  V30 1260 H 116.136 -2.70659 4.05703 0
M  V30 1261 H 115.141 -0.855989 5.43096 0
M  V30 1262 H 116.366 -1.13102 6.69615 0
M  V30 1263 H 114.312 -3.16417 5.74645 0
M  V30 1264 H 114.229 -2.25093 7.21713 0
M  V30 1265 H 115.497 -3.4209 7.00425 0
M  V30 1266 N 119.726 -1.57421 0.075193 0
M  V30 1267 C 120.956 -1.97659 -0.601203 0
M  V30 1268 C 121.364 -0.952427 -1.63479 0
M  V30 1269 O 120.707 0.0688241 -1.83571 0
M  V30 1270 C 120.769 -3.34218 -1.32434 0
M  V30 1271 C 120.433 -4.5484 -0.443826 0
M  V30 1272 C 121.43 -5.19034 0.299969 0
M  V30 1273 C 119.115 -5.00952 -0.367709 0
M  V30 1274 C 121.109 -6.27695 1.10807 0
M  V30 1275 C 118.796 -6.09484 0.444058 0
M  V30 1276 C 119.794 -6.72719 1.18061 0
M  V30 1277 O 119.482 -7.79161 1.97898 0
M  V30 1278 H 119.214 -0.65494 -0.167422 0
M  V30 1279 H 121.768 -2.04886 0.145157 0
M  V30 1280 H 119.998 -3.23615 -2.11685 0
M  V30 1281 H 121.687 -3.59038 -1.89331 0
M  V30 1282 H 122.453 -4.84351 0.250776 0
M  V30 1283 H 118.332 -4.51509 -0.930638 0
M  V30 1284 H 121.876 -6.76982 1.68347 0
M  V30 1285 H 117.773 -6.43601 0.494803 0
M  V30 1286 H 118.541 -7.96055 1.90367 0
M  V30 1287 N 121.204 0.198386 -1.56346 0
M  V30 1288 C 122.152 1.26538 -1.95169 0
M  V30 1289 C 123.146 1.47295 -0.836685 0
M  V30 1290 O 124.352 1.48195 -1.02167 0
M  V30 1291 H 120.727 0.424744 -0.620561 0
M  V30 1292 H 122.698 0.910904 -2.84157 0
M  V30 1293 C 121.447 2.6035 -2.30463 0
M  V30 1294 H 120.77 2.45192 -3.15786 0
M  V30 1295 H 122.21 3.33762 -2.61494 0
M  V30 1296 C 120.669 3.17096 -1.13806 0
M  V30 1297 O 121.199 3.99588 -0.41135 0
M  V30 1298 N 119.405 2.75795 -0.915736 0
M  V30 1299 H 118.952 2.08816 -1.50843 0
M  V30 1300 H 118.91 3.14101 -0.136979 0
M  V30 1301 N 122.682 1.50554 0.465978 0
M  V30 1302 C 123.629 1.6979 1.56333 0
M  V30 1303 C 124.599 0.539239 1.57103 0
M  V30 1304 O 125.784 0.770401 1.74555 0
M  V30 1305 C 122.924 1.80273 2.94271 0
M  V30 1306 C 122.037 3.07674 3.0325 0
M  V30 1307 C 121.172 3.08922 4.32135 0
M  V30 1308 C 120.211 4.30755 4.34875 0
M  V30 1309 N 119.348 4.29714 5.55239 0
M  V30 1310 H 124.188 2.63472 1.39235 0
M  V30 1311 H 121.725 1.30602 0.676873 0
M  V30 1312 H 123.683 1.84332 3.74269 0
M  V30 1313 H 122.313 0.900258 3.09992 0
M  V30 1314 H 121.365 3.13062 2.16094 0
M  V30 1315 H 122.677 3.97642 3.01135 0
M  V30 1316 H 121.831 3.11738 5.20485 0
M  V30 1317 H 120.57 2.16792 4.36866 0
M  V30 1318 H 119.575 4.28146 3.44922 0
M  V30 1319 H 120.8 5.24117 4.31831 0
M  V30 1320 H 118.746 3.4044 5.60746 0
M  V30 1321 H 118.663 5.13456 5.54886 0
M  V30 1322 H 119.931 4.36683 6.457 0
M  V30 1323 N 124.16 -0.719506 1.40217 0
M  V30 1324 C 125.409 -1.47486 1.37589 0
M  V30 1325 C 125.722 -1.9559 -0.0201568 0
M  V30 1326 O 126.928 -2.70973 -0.169049 0
M  V30 1327 C 125.384 -2.66575 2.41796 0
M  V30 1328 C 124.992 -2.25358 3.87192 0
M  V30 1329 C 126.736 -3.4433 2.48269 0
M  V30 1330 C 124.643 -3.41262 4.83005 0
M  V30 1331 H 123.573 -0.553901 0.511576 0
M  V30 1332 H 126.224 -0.783427 1.65936 0
M  V30 1333 H 124.606 -3.3787 2.06543 0
M  V30 1334 H 125.78 -1.61509 4.31569 0
M  V30 1335 H 124.095 -1.60657 3.84159 0
M  V30 1336 H 126.692 -4.30569 3.17041 0
M  V30 1337 H 127.035 -3.87872 1.51198 0
M  V30 1338 H 127.568 -2.80076 2.82493 0
M  V30 1339 H 124.307 -3.02755 5.81394 0
M  V30 1340 H 123.827 -4.0404 4.43297 0
M  V30 1341 H 125.506 -4.07383 5.02641 0
M  V30 1342 N 125.638 -1.25649 -0.95132 0
M  V30 1343 C 126.585 -1.06323 -2.04851 0
M  V30 1344 C 127.555 0.0286491 -1.66075 0
M  V30 1345 O 128.74 -0.12917 -1.90362 0
M  V30 1346 C 125.88 -0.691529 -3.381 0
M  V30 1347 C 124.993 -1.85861 -3.89974 0
M  V30 1348 C 124.128 -1.43096 -5.11563 0
M  V30 1349 C 123.167 -2.56696 -5.55674 0
M  V30 1350 N 122.304 -2.14684 -6.68472 0
M  V30 1351 H 127.144 -2.00222 -2.20715 0
M  V30 1352 H 124.681 -0.997027 -1.08156 0
M  V30 1353 H 126.639 -0.456963 -4.1469 0
M  V30 1354 H 125.269 0.210474 -3.22113 0
M  V30 1355 H 124.321 -2.20639 -3.09875 0
M  V30 1356 H 125.633 -2.71161 -4.18657 0
M  V30 1357 H 124.787 -1.15624 -5.9558 0
M  V30 1358 H 123.526 -0.548722 -4.84603 0
M  V30 1359 H 122.531 -2.84909 -4.7022 0
M  V30 1360 H 123.756 -3.45503 -5.8464 0
M  V30 1361 H 121.702 -1.28881 -6.43215 0
M  V30 1362 H 121.619 -2.9353 -6.96689 0
M  V30 1363 H 122.887 -1.90397 -7.5589 0
M  V30 1364 N 127.117 1.15442 -1.07289 0
M  V30 1365 C 128.366 1.85557 -0.790669 0
M  V30 1366 C 128.679 1.83186 0.685739 0
M  V30 1367 O 129.885 2.48977 1.0827 0
M  V30 1368 C 128.341 3.33038 -1.36433 0
M  V30 1369 C 127.949 3.43856 -2.8717 0
M  V30 1370 C 129.693 4.0834 -1.1601 0
M  V30 1371 C 127.6 4.85482 -3.3773 0
M  V30 1372 H 126.53 0.695122 -0.292098 0
M  V30 1373 H 129.181 1.30219 -1.29287 0
M  V30 1374 H 127.563 3.88043 -0.789864 0
M  V30 1375 H 128.737 2.98961 -3.50655 0
M  V30 1376 H 127.052 2.81998 -3.06376 0
M  V30 1377 H 129.649 5.12859 -1.51262 0
M  V30 1378 H 129.992 4.16182 -0.0991007 0
M  V30 1379 H 130.525 3.59603 -1.70089 0
M  V30 1380 H 127.264 4.82823 -4.43353 0
M  V30 1381 H 126.784 5.30961 -2.78999 0
M  V30 1382 H 128.463 5.54335 -3.33648 0
M  V30 1383 N 128.595 0.856903 1.32268 0
M  V30 1384 C 129.82 0.474569 2.01897 0
M  V30 1385 C 130.245 -0.921766 1.63967 0
M  V30 1386 O 129.603 -1.60589 0.84148 0
M  V30 1387 C 129.651 0.623799 3.55164 0
M  V30 1388 O 128.755 -0.342459 4.10976 0
M  V30 1389 H 128.096 0.190422 0.63611 0
M  V30 1390 H 130.626 1.15672 1.68764 0
M  V30 1391 H 130.636 0.512169 4.04773 0
M  V30 1392 H 129.311 1.64202 3.82113 0
M  V30 1393 H 127.888 -0.18688 3.72431 0
M  V30 1394 N 130.073 -1.45103 0.615059 0
M  V30 1395 C 131.484 -1.85654 0.197383 0
M  V30 1396 C 131.835 -1.51433 -1.24749 0
M  V30 1397 O 130.96 -0.944608 -1.94695 0
M  V30 1398 C 131.555 -3.36972 0.351448 0
M  V30 1399 C 130.114 -3.76398 -0.011593 0
M  V30 1400 C 129.261 -2.69024 0.672394 0
M  V30 1401 H 132.212 -1.35797 0.821263 0
M  V30 1402 H 132.233 -3.78239 -0.414227 0
M  V30 1403 H 131.745 -3.61847 1.40314 0
M  V30 1404 H 129.846 -3.5714 -1.06217 0
M  V30 1405 H 129.959 -4.77532 0.387265 0
M  V30 1406 H 128.323 -2.54465 0.109284 0
M  V30 1407 H 129.106 -2.96735 1.72636 0
M  V30 1408 N 131.551 -0.354651 -1.53558 0
M  V30 1409 C 132.498 0.496968 -2.25386 0
M  V30 1410 C 133.468 1.0865 -1.25636 0
M  V30 1411 O 134.653 1.12104 -1.54394 0
M  V30 1412 C 131.793 1.63637 -3.03837 0
M  V30 1413 C 130.906 1.07307 -4.18461 0
M  V30 1414 C 130.041 2.18068 -4.84376 0
M  V30 1415 C 129.08 1.59147 -5.91049 0
M  V30 1416 N 128.217 2.63695 -6.50699 0
M  V30 1417 H 133.057 -0.122075 -2.9775 0
M  V30 1418 H 130.594 -0.0720154 -1.46924 0
M  V30 1419 H 132.552 2.30734 -3.47589 0
M  V30 1420 H 131.182 2.22623 -2.33749 0
M  V30 1421 H 130.234 0.292708 -3.79272 0
M  V30 1422 H 131.546 0.602193 -4.95152 0
M  V30 1423 H 130.7 2.93007 -5.31255 0
M  V30 1424 H 129.439 2.68504 -4.07133 0
M  V30 1425 H 128.444 0.827175 -5.43542 0
M  V30 1426 H 129.669 1.09549 -6.70206 0
M  V30 1427 H 127.615 3.13365 -5.76315 0
M  V30 1428 H 127.532 2.21263 -7.22896 0
M  V30 1429 H 128.8 3.3837 -7.02229 0
M  V30 1430 N 133.029 1.57378 -0.0835403 0
M  V30 1431 C 133.962 2.09016 0.915833 0
M  V30 1432 C 134.94 0.997993 1.2837 0
M  V30 1433 O 136.124 1.27219 1.39096 0
M  V30 1434 C 133.251 2.55757 2.22049 0
M  V30 1435 C 132.297 3.76522 2.00333 0
M  V30 1436 S 133.13 5.20661 1.25191 0
M  V30 1437 C 134.286 5.70743 2.56912 0
M  V30 1438 H 134.519 2.93457 0.476492 0
M  V30 1439 H 132.052 1.53856 0.129493 0
M  V30 1440 H 134.01 2.83346 2.97027 0
M  V30 1441 H 132.671 1.71564 2.63106 0
M  V30 1442 H 131.864 4.07256 2.96916 0
M  V30 1443 H 131.466 3.49367 1.33488 0
M  V30 1444 H 133.758 5.78304 3.52946 0
M  V30 1445 H 134.701 6.6944 2.30772 0
M  V30 1446 H 135.109 4.98616 2.64655 0
M  V30 1447 N 134.507 -0.190092 1.56449 0
M  V30 1448 C 135.918 -0.754312 1.70784 0
M  V30 1449 C 136.269 -1.83631 0.690951 0
M  V30 1450 O 135.394 -2.15868 -0.151604 0
M  V30 1451 C 135.989 -1.37503 3.09642 0
M  V30 1452 C 134.548 -1.88628 3.25725 0
M  V30 1453 C 133.695 -0.758098 2.66736 0
M  V30 1454 H 136.646 0.0350524 1.58661 0
M  V30 1455 H 136.667 -2.2445 3.0725 0
M  V30 1456 H 136.179 -0.587302 3.83631 0
M  V30 1457 H 134.28 -2.70103 2.56661 0
M  V30 1458 H 134.393 -2.04462 4.3328 0
M  V30 1459 H 132.757 -1.17369 2.26046 0
M  V30 1460 H 133.54 0.0174705 3.43296 0
M  V30 1461 N 135.985 -1.50799 -0.457987 0
M  V30 1462 C 137.231 -1.62683 -1.21088 0
M  V30 1463 C 137.564 -0.332268 -1.91336 0
M  V30 1464 O 136.839 0.667043 -1.82704 0
M  V30 1465 C 137.122 -2.81615 -2.24422 0
M  V30 1466 C 136.975 -4.20989 -1.58392 0
M  V30 1467 C 138.294 -2.96085 -3.2561 0
M  V30 1468 H 135.413 -0.592087 -0.438864 0
M  V30 1469 H 138.055 -1.83225 -0.50286 0
M  V30 1470 H 136.205 -2.64231 -2.84806 0
M  V30 1471 H 137.877 -4.49994 -1.01504 0
M  V30 1472 H 136.12 -4.24641 -0.886704 0
M  V30 1473 H 136.791 -5.0016 -2.33547 0
M  V30 1474 H 139.267 -3.12042 -2.75262 0
M  V30 1475 H 138.143 -3.80902 -3.95228 0
M  V30 1476 H 138.404 -2.0726 -3.90507 0
M  V30 1477 N 137.463 0.71206 -1.40597 0
M  V30 1478 C 138.703 1.48438 -1.40519 0
M  V30 1479 C 139.067 1.91998 -0.00767611 0
M  V30 1480 O 140.268 2.6854 0.118239 0
M  V30 1481 C 138.539 2.67514 -2.37004 0
M  V30 1482 S 140.098 3.56875 -2.55315 0
M  V30 1483 H 136.916 0.507457 -0.498005 0
M  V30 1484 H 139.518 0.832355 -1.76896 0
M  V30 1485 H 138.222 2.33689 -3.37368 0
M  V30 1486 H 137.753 3.37625 -2.01923 0
M  V30 1487 H 139.768 4.62081 -1.8082 0
M  V30 1488 N 138.941 1.26152 0.944643 0
M  V30 1489 C 139.888 1.07408 2.04285 0
M  V30 1490 C 140.858 -0.0198413 1.66088 0
M  V30 1491 O 142.043 0.139264 1.90291 0
M  V30 1492 C 139.183 0.70945 3.37729 0
M  V30 1493 C 138.296 1.87926 3.88983 0
M  V30 1494 C 137.431 1.45807 5.10797 0
M  V30 1495 C 136.47 2.5964 5.54305 0
M  V30 1496 N 135.607 2.18226 6.67324 0
M  V30 1497 H 140.447 2.01389 2.1965 0
M  V30 1498 H 137.984 1.00275 1.07626 0
M  V30 1499 H 139.942 0.478948 4.14442 0
M  V30 1500 H 138.572 -0.193389 3.2222 0
M  V30 1501 H 137.624 2.22279 3.08701 0
M  V30 1502 H 138.936 2.73377 4.17213 0
M  V30 1503 H 138.09 1.18781 5.94959 0
M  V30 1504 H 136.829 0.574414 4.84305 0
M  V30 1505 H 135.834 2.87399 4.68702 0
M  V30 1506 H 137.059 3.48599 5.828 0
M  V30 1507 H 135.005 1.3229 6.42523 0
M  V30 1508 H 134.922 2.97221 6.95123 0
M  V30 1509 H 136.19 1.94403 7.54869 0
M  V30 1510 N 140.419 -1.14872 1.07899 0
M  V30 1511 C 141.667 -1.85422 0.803941 0
M  V30 1512 C 141.988 -1.83051 -0.67211 0
M  V30 1513 O 141.258 -1.27532 -1.48703 0
M  V30 1514 H 139.838 -0.686537 0.294408 0
M  V30 1515 H 142.5 -1.39226 1.3639 0
M  V30 1516 H 141.596 -2.90399 1.14346 0
M  V30 1517 N 141.898 -0.863906 -1.31812 0
M  V30 1518 C 142.848 -0.286898 -2.26188 0
M  V30 1519 C 143.832 0.572577 -1.50367 0
M  V30 1520 O 145.024 0.420447 -1.71934 0
M  V30 1521 C 142.153 0.515849 -3.39402 0
M  V30 1522 C 141.239 -0.356531 -4.22599 0
M  V30 1523 N 141.63 -1.44716 -4.84656 0
M  V30 1524 C 139.928 -0.147898 -4.45755 0
M  V30 1525 C 140.629 -1.98462 -5.46798 0
M  V30 1526 N 139.605 -1.28247 -5.28255 0
M  V30 1527 H 143.407 -1.12055 -2.717 0
M  V30 1528 H 140.921 -0.711012 -1.46008 0
M  V30 1529 H 142.918 0.945701 -4.06032 0
M  V30 1530 H 141.578 1.34718 -2.95434 0
M  V30 1531 H 142.589 -1.83008 -4.84488 0
M  V30 1532 H 139.266 0.647973 -4.12441 0
M  V30 1533 H 140.656 -2.89932 -6.06126 0
M  V30 1534 N 143.376 1.44774 -0.622745 0
M  V30 1535 C 144.306 2.33382 0.0741861 0
M  V30 1536 C 145.287 1.47719 0.843387 0
M  V30 1537 O 146.472 1.76458 0.810934 0
M  V30 1538 C 143.602 3.30663 1.06204 0
M  V30 1539 C 142.556 4.26079 0.405037 0
M  V30 1540 C 141.882 5.13165 1.5022 0
M  V30 1541 C 143.182 5.1781 -0.683414 0
M  V30 1542 H 144.876 2.91905 -0.665713 0
M  V30 1543 H 142.422 1.40363 -0.321587 0
M  V30 1544 H 144.375 3.9153 1.55827 0
M  V30 1545 H 143.099 2.70331 1.83272 0
M  V30 1546 H 141.758 3.66532 -0.0704683 0
M  V30 1547 H 141.406 4.49191 2.26355 0
M  V30 1548 H 141.106 5.77812 1.06803 0
M  V30 1549 H 142.63 5.76902 2.00041 0
M  V30 1550 H 144.044 5.72661 -0.270631 0
M  V30 1551 H 142.441 5.91015 -1.04023 0
M  V30 1552 H 143.511 4.59326 -1.55395 0
M  V30 1553 N 144.854 0.36279 1.53368 0
M  V30 1554 C 146.102 -0.227326 2.00817 0
M  V30 1555 C 146.423 -1.49511 1.25186 0
M  V30 1556 O 145.693 -1.92482 0.364348 0
M  V30 1557 H 144.273 -0.0869923 0.741917 0
M  V30 1558 H 146.935 0.488381 1.88682 0
M  V30 1559 H 146.031 -0.456273 3.08747 0
M  V30 1560 N 146.332 -1.57332 0.0918853 0
M  V30 1561 C 147.264 -2.10869 -0.898168 0
M  V30 1562 C 148.277 -1.04521 -1.24817 0
M  V30 1563 O 149.466 -1.31977 -1.20184 0
M  V30 1564 C 146.566 -2.57083 -2.2082 0
M  V30 1565 C 145.739 -3.87229 -2.03402 0
M  V30 1566 C 144.798 -4.19324 -3.17889 0
M  V30 1567 O 143.824 -4.88598 -2.91994 0
M  V30 1568 N 145.026 -3.74471 -4.43567 0
M  V30 1569 H 147.791 -2.96439 -0.440943 0
M  V30 1570 H 145.352 -1.61631 -0.0933064 0
M  V30 1571 H 147.344 -2.75602 -2.96354 0
M  V30 1572 H 145.914 -1.76541 -2.57977 0
M  V30 1573 H 145.134 -3.7789 -1.12218 0
M  V30 1574 H 146.422 -4.72379 -1.89038 0
M  V30 1575 H 145.82 -3.18546 -4.67488 0
M  V30 1576 H 144.377 -3.98151 -5.16061 0
M  V30 1577 N 147.81 0.181792 -1.56548 0
M  V30 1578 C 149.221 0.745244 -1.71181 0
M  V30 1579 C 149.572 1.83262 -0.70068 0
M  V30 1580 O 148.697 2.15946 0.140154 0
M  V30 1581 C 149.292 1.35859 -3.10367 0
M  V30 1582 C 147.851 1.86898 -3.2672 0
M  V30 1583 C 146.998 0.743942 -2.67134 0
M  V30 1584 H 149.949 -0.0434661 -1.5864 0
M  V30 1585 H 149.97 2.22817 -3.08436 0
M  V30 1586 H 149.482 0.566948 -3.83937 0
M  V30 1587 H 147.583 2.68738 -2.5809 0
M  V30 1588 H 147.696 2.02162 -4.34359 0
M  V30 1589 H 146.06 1.16169 -2.26665 0
M  V30 1590 H 146.843 -0.035676 -3.43281 0
M  V30 1591 N 149.288 1.51039 0.449983 0
M  V30 1592 C 150.218 1.74379 1.55288 0
M  V30 1593 C 151.199 0.593236 1.5942 0
M  V30 1594 O 152.384 0.834625 1.7535 0
M  V30 1595 C 149.514 1.85728 2.93466 0
M  V30 1596 C 148.468 3.01078 3.04197 0
M  V30 1597 C 147.794 2.97595 4.44231 0
M  V30 1598 C 149.094 4.41254 2.7945 0
M  V30 1599 H 150.788 2.66725 1.36008 0
M  V30 1600 H 148.334 1.2835 0.652864 0
M  V30 1601 H 150.287 2.0064 3.70569 0
M  V30 1602 H 149.011 0.900207 3.13949 0
M  V30 1603 H 147.67 2.85851 2.29531 0
M  V30 1604 H 147.318 1.99691 4.61663 0
M  V30 1605 H 147.018 3.75046 4.52343 0
M  V30 1606 H 148.542 3.14583 5.23326 0
M  V30 1607 H 149.956 4.56897 3.46292 0
M  V30 1608 H 148.353 5.20315 2.98985 0
M  V30 1609 H 149.423 4.52164 1.75144 0
M  V30 1610 N 150.766 -0.704594 1.40972 0
M  V30 1611 C 151.714 -1.83994 1.42299 0
M  V30 1612 C 152.708 -1.66684 0.302111 0
M  V30 1613 O 153.914 -1.73655 0.473697 0
M  V30 1614 H 150.289 -0.606171 0.44504 0
M  V30 1615 H 152.26 -1.79992 2.38003 0
M  V30 1616 C 151.009 -3.21946 1.31323 0
M  V30 1617 H 150.332 -3.35878 2.16855 0
M  V30 1618 H 151.772 -4.01491 1.36311 0
M  V30 1619 C 150.231 -3.36891 0.0245977 0
M  V30 1620 O 150.761 -3.90687 -0.934153 0
M  V30 1621 N 148.967 -2.90559 -0.0485243 0
M  V30 1622 H 148.514 -2.46968 0.732419 0
M  V30 1623 H 148.472 -3.00937 -0.910171 0
M  V30 1624 N 152.244 -1.26651 -0.937939 0
M  V30 1625 C 153.493 -1.11775 -1.67897 0
M  V30 1626 C 153.806 0.33794 -1.92659 0
M  V30 1627 O 155.012 0.607434 -2.64618 0
M  V30 1628 C 153.468 -1.9523 -3.02346 0
M  V30 1629 C 153.076 -3.45393 -2.8532 0
M  V30 1630 C 154.82 -1.88972 -3.80118 0
M  V30 1631 C 152.727 -4.21083 -4.15263 0
M  V30 1632 H 151.657 -0.414696 -0.629717 0
M  V30 1633 H 154.308 -1.50988 -1.04283 0
M  V30 1634 H 152.69 -1.48853 -3.66959 0
M  V30 1635 H 153.864 -3.99561 -2.29537 0
M  V30 1636 H 152.179 -3.52921 -2.20988 0
M  V30 1637 H 154.776 -2.42805 -4.76392 0
M  V30 1638 H 155.119 -0.86113 -4.07296 0
M  V30 1639 H 155.652 -2.33189 -3.22285 0
M  V30 1640 H 152.391 -5.24425 -3.93267 0
M  V30 1641 H 151.911 -3.71695 -4.70747 0
M  V30 1642 H 153.59 -4.29706 -4.83696 0
M  V30 1643 N 153.722 1.14298 -1.08507 0
M  V30 1644 C 154.969 1.85359 -0.815373 0
M  V30 1645 C 155.297 1.83001 0.658865 0
M  V30 1646 O 154.552 1.25655 1.50031 0
M  V30 1647 C 154.851 3.33547 -1.28379 0
M  V30 1648 C 154.517 3.56093 -2.76602 0
M  V30 1649 C 153.179 3.61955 -3.17084 0
M  V30 1650 C 155.531 3.64834 -3.72217 0
M  V30 1651 C 152.859 3.74082 -4.51973 0
M  V30 1652 C 155.211 3.78487 -5.06883 0
M  V30 1653 C 153.875 3.82598 -5.46969 0
M  V30 1654 H 153.145 0.678276 -0.298366 0
M  V30 1655 H 155.792 1.35002 -1.35819 0
M  V30 1656 H 154.097 3.86191 -0.660593 0
M  V30 1657 H 155.794 3.86959 -1.05186 0
M  V30 1658 H 152.384 3.52179 -2.4427 0
M  V30 1659 H 156.568 3.59595 -3.42061 0
M  V30 1660 H 151.824 3.75527 -4.82483 0
M  V30 1661 H 155.998 3.84193 -5.80834 0
M  V30 1662 H 153.625 3.91747 -6.51489 0
M  V30 1663 N 155.201 0.870884 1.31352 0
M  V30 1664 C 156.441 0.488783 1.9847 0
M  V30 1665 C 156.805 -0.941536 1.67329 0
M  V30 1666 O 158.006 -1.42903 2.27667 0
M  V30 1667 C 156.277 0.739688 3.49662 0
M  V30 1668 S 157.836 0.457582 4.36408 0
M  V30 1669 H 154.654 0.18242 0.6872 0
M  V30 1670 H 157.256 1.12711 1.59739 0
M  V30 1671 H 155.96 1.77944 3.69816 0
M  V30 1672 H 155.491 0.0883905 3.93301 0
M  V30 1673 H 157.506 -0.709752 4.91098 0
M  V30 1674 N 156.679 -1.44442 0.630414 0
M  V30 1675 C 157.609 -2.33418 -0.0618083 0
M  V30 1676 C 158.59 -1.48165 -0.835541 0
M  V30 1677 O 159.775 -1.76886 -0.801564 0
M  V30 1678 C 156.905 -3.31222 -1.04449 0
M  V30 1679 C 155.859 -4.26288 -0.382436 0
M  V30 1680 C 155.185 -5.13954 -1.47497 0
M  V30 1681 C 156.485 -5.1744 0.710865 0
M  V30 1682 H 158.179 -2.91548 0.681184 0
M  V30 1683 H 155.725 -1.40191 0.329026 0
M  V30 1684 H 157.678 -3.92351 -1.53748 0
M  V30 1685 H 156.402 -2.71299 -1.81836 0
M  V30 1686 H 155.061 -3.6649 0.0899054 0
M  V30 1687 H 154.709 -4.50385 -2.2397 0
M  V30 1688 H 154.409 -5.7837 -1.03737 0
M  V30 1689 H 155.933 -5.77955 -1.96979 0
M  V30 1690 H 157.347 -5.72509 0.300996 0
M  V30 1691 H 155.744 -5.90455 1.07156 0
M  V30 1692 H 156.814 -4.58496 1.57829 0
M  V30 1693 N 158.157 -0.370918 -1.53173 0
M  V30 1694 C 159.385 0.217704 -2.05751 0
M  V30 1695 C 159.8 1.42018 -1.24404 0
M  V30 1696 O 159.157 1.80245 -0.286033 0
M  V30 1697 C 159.208 0.605954 -3.56385 0
M  V30 1698 O 158.929 -0.548734 -4.3465 0
M  V30 1699 C 160.43 1.2524 -4.25241 0
M  V30 1700 H 157.65 0.0371659 -0.66997 0
M  V30 1701 H 160.194 -0.530832 -1.9749 0
M  V30 1702 H 158.349 1.3044 -3.6478 0
M  V30 1703 H 158.763 -0.23376 -5.23979 0
M  V30 1704 H 160.237 1.47458 -5.3194 0
M  V30 1705 H 160.714 2.2143 -3.79296 0
M  V30 1706 H 161.32 0.595233 -4.21114 0
M  V30 1707 N 159.635 1.57281 -0.100228 0
M  V30 1708 C 160.912 1.86014 0.604812 0
M  V30 1709 C 161.292 0.998025 1.86018 0
M  V30 1710 O 160.64 0.0718184 2.28387 0
M  V30 1711 C 160.85 3.36784 0.915278 0
M  V30 1712 C 162.198 4.04957 1.27651 0
M  V30 1713 O 163.222 3.41695 1.00613 0
M  V30 1714 O 162.081 5.16593 1.7831 0
M  V30 1715 H 159.175 0.76942 0.303185 0
M  V30 1716 H 161.721 1.69176 -0.133313 0
M  V30 1717 H 160.493 3.91292 0.0248896 0
M  V30 1718 H 160.116 3.58987 1.70921 0
M  V30 1719 N 161.113 -0.173488 1.56642 0
M  V30 1720 C 162.046 -1.24353 1.91342 0
M  V30 1721 C 163.024 -1.4289 0.775965 0
M  V30 1722 O 164.208 -1.57932 1.02907 0
M  V30 1723 C 161.335 -2.60683 2.16245 0
M  V30 1724 C 160.381 -2.58894 3.38934 0
M  V30 1725 S 161.214 -2.0819 4.93373 0
M  V30 1726 C 162.37 -3.46302 5.21369 0
M  V30 1727 H 162.603 -0.947345 2.81803 0
M  V30 1728 H 160.136 -0.377958 1.49703 0
M  V30 1729 H 162.094 -3.39149 2.31275 0
M  V30 1730 H 160.755 -2.87502 1.26496 0
M  V30 1731 H 159.948 -3.59188 3.53553 0
M  V30 1732 H 159.55 -1.88522 3.2301 0
M  V30 1733 H 161.842 -4.42287 5.13214 0
M  V30 1734 H 162.785 -3.3656 6.23003 0
M  V30 1735 H 163.193 -3.42214 4.48943 0
M  V30 1736 N 162.591 -1.51276 -0.441967 0
M  V30 1737 C 163.523 -1.68444 -1.55433 0
M  V30 1738 C 164.536 -0.565187 -1.52674 0
M  V30 1739 O 165.725 -0.839356 -1.57534 0
M  V30 1740 C 162.825 -1.67966 -2.94348 0
M  V30 1741 C 161.998 -2.964 -3.21661 0
M  V30 1742 C 161.057 -2.88171 -4.40277 0
M  V30 1743 O 160.083 -3.62119 -4.39157 0
M  V30 1744 N 161.285 -2.03706 -5.43584 0
M  V30 1745 H 164.05 -2.644 -1.41112 0
M  V30 1746 H 161.611 -1.49104 -0.630838 0
M  V30 1747 H 163.603 -1.60035 -3.71713 0
M  V30 1748 H 162.173 -0.796225 -3.0229 0
M  V30 1749 H 161.393 -3.18234 -2.32638 0
M  V30 1750 H 162.681 -3.81427 -3.36736 0
M  V30 1751 H 162.079 -1.42995 -5.47329 0
M  V30 1752 H 160.636 -2.01658 -6.1982 0
M  V30 1753 N 164.069 0.697108 -1.41344 0
M  V30 1754 C 164.999 1.82353 -1.45841 0
M  V30 1755 C 165.98 1.67115 -0.317247 0
M  V30 1756 O 167.165 1.86871 -0.528474 0
M  V30 1757 C 164.295 3.20476 -1.33838 0
M  V30 1758 C 163.249 3.50415 -2.4575 0
M  V30 1759 C 162.575 4.87878 -2.18813 0
M  V30 1760 C 163.875 3.49546 -3.88091 0
M  V30 1761 H 165.569 1.78846 -2.40113 0
M  V30 1762 H 163.115 0.859028 -1.15571 0
M  V30 1763 H 165.068 3.98988 -1.35596 0
M  V30 1764 H 163.792 3.24604 -0.360498 0
M  V30 1765 H 162.451 2.74253 -2.43271 0
M  V30 1766 H 162.099 4.8863 -1.19371 0
M  V30 1767 H 161.799 5.08875 -2.93803 0
M  V30 1768 H 163.323 5.68702 -2.22284 0
M  V30 1769 H 164.737 4.18066 -3.92293 0
M  V30 1770 H 163.134 3.82075 -4.62751 0
M  V30 1771 H 164.204 2.48552 -4.16353 0
M  V30 1772 N 165.547 1.27147 0.931209 0
M  V30 1773 C 166.796 1.12664 1.67302 0
M  V30 1774 C 167.109 -0.327718 1.92835 0
M  V30 1775 O 168.315 -0.593392 2.64936 0
M  V30 1776 C 166.771 1.9683 3.01307 0
M  V30 1777 C 166.379 3.46901 2.83485 0
M  V30 1778 C 168.123 1.90985 3.79111 0
M  V30 1779 C 166.03 4.23279 4.13024 0
M  V30 1780 H 164.96 0.41803 0.627509 0
M  V30 1781 H 167.611 1.51539 1.03481 0
M  V30 1782 H 165.993 1.50797 3.66164 0
M  V30 1783 H 167.167 4.00773 2.27415 0
M  V30 1784 H 165.482 3.54088 2.19113 0
M  V30 1785 H 168.079 2.45328 4.75098 0
M  V30 1786 H 168.422 0.882718 4.06834 0
M  V30 1787 H 168.955 2.34895 3.21044 0
M  V30 1788 H 165.694 5.26503 3.90481 0
M  V30 1789 H 165.214 3.74186 4.6877 0
M  V30 1790 H 166.893 4.32265 4.81411 0
M  V30 1791 N 167.025 -1.13721 1.09112 0
M  V30 1792 C 168.265 -1.86576 0.834801 0
M  V30 1793 C 168.629 -1.81435 -0.628122 0
M  V30 1794 O 169.83 -2.49497 -1.00024 0
M  V30 1795 C 168.101 -3.30872 1.35124 0
M  V30 1796 S 169.66 -4.21257 1.22832 0
M  V30 1797 H 166.478 -0.643666 0.302017 0
M  V30 1798 H 169.08 -1.37085 1.39385 0
M  V30 1799 H 167.784 -3.32166 2.41027 0
M  V30 1800 H 167.315 -3.85423 0.788185 0
M  V30 1801 H 169.33 -4.95884 0.177191 0
M  V30 1802 N 168.503 -0.877838 -1.30888 0
M  V30 1803 C 169.751 -0.491723 -1.96027 0
M  V30 1804 C 170.072 0.960827 -1.69685 0
M  V30 1805 O 169.342 1.67462 -1.01654 0
M  V30 1806 H 167.922 -0.17885 -0.725273 0
M  V30 1807 H 170.584 -1.11935 -1.59551 0
M  V30 1808 H 169.68 -0.656016 -3.05128 0
M  V30 1809 N 169.982 1.44106 -0.638065 0
M  V30 1810 C 171.231 2.01194 -0.142744 0
M  V30 1811 C 171.544 1.50835 1.24532 0
M  V30 1812 O 172.75 2.00096 1.83504 0
M  V30 1813 C 171.206 3.59319 -0.20442 0
M  V30 1814 C 170.814 4.18674 -1.59423 0
M  V30 1815 C 172.558 4.23854 0.234079 0
M  V30 1816 C 170.465 5.69045 -1.61065 0
M  V30 1817 H 169.395 0.752367 -0.0495998 0
M  V30 1818 H 172.046 1.65246 -0.797881 0
M  V30 1819 H 170.428 3.92598 0.517946 0
M  V30 1820 H 171.602 3.96921 -2.34074 0
M  V30 1821 H 169.917 3.66453 -1.97741 0
M  V30 1822 H 172.514 5.34155 0.241443 0
M  V30 1823 H 172.857 3.96688 1.2627 0
M  V30 1824 H 173.39 3.95403 -0.436025 0
M  V30 1825 H 170.129 6.00956 -2.61787 0
M  V30 1826 H 169.649 5.929 -0.90718 0
M  V30 1827 H 171.328 6.32809 -1.34766 0
M  V30 1828 N 171.46 0.379036 1.52974 0
M  V30 1829 C 172.7 -0.206325 2.03356 0
M  V30 1830 C 173.064 -1.44892 1.25977 0
M  V30 1831 O 174.265 -2.11078 1.66432 0
M  V30 1832 C 172.536 -0.477887 3.54191 0
M  V30 1833 S 174.095 -1.035 4.26419 0
M  V30 1834 H 170.913 -0.0590259 0.708546 0
M  V30 1835 H 173.515 0.525013 1.88319 0
M  V30 1836 H 172.219 0.433745 4.08101 0
M  V30 1837 H 171.75 -1.23793 3.73415 0
M  V30 1838 H 173.765 -2.31821 4.38718 0
M  V30 1839 N 172.938 -1.57226 0.108567 0
M  V30 1840 C 173.901 -2.13602 -0.831082 0
M  V30 1841 C 174.901 -1.06841 -1.20173 0
M  V30 1842 O 176.091 -1.32666 -1.12895 0
M  V30 1843 C 173.223 -2.66769 -2.12243 0
M  V30 1844 H 174.416 -2.97951 -0.341317 0
M  V30 1845 H 171.969 -1.55667 -0.14057 0
M  V30 1846 H 172.704 -1.85977 -2.65675 0
M  V30 1847 H 172.489 -3.44839 -1.86625 0
M  V30 1848 H 173.979 -3.10332 -2.79435 0
M  V30 1849 N 174.416 0.165178 -1.56732 0
M  V30 1850 C 175.644 0.896218 -1.86482 0
M  V30 1851 C 176.059 1.75555 -0.694675 0
M  V30 1852 O 175.416 1.79379 0.33607 0
M  V30 1853 C 175.467 1.76792 -3.1532 0
M  V30 1854 O 175.188 0.943239 -4.27825 0
M  V30 1855 C 176.689 2.6081 -3.58459 0
M  V30 1856 H 173.909 0.260064 -0.618553 0
M  V30 1857 H 176.453 0.163428 -2.03846 0
M  V30 1858 H 174.608 2.45398 -2.99764 0
M  V30 1859 H 175.022 1.53998 -5.01383 0
M  V30 1860 H 176.496 3.17579 -4.51495 0
M  V30 1861 H 176.973 3.35977 -2.82872 0
M  V30 1862 H 177.579 1.97526 -3.76648 0
M  V30 1863 N 175.894 1.51508 0.433938 0
M  V30 1864 C 177.31 1.39759 0.770682 0
M  V30 1865 C 177.51 0.482594 1.95636 0
M  V30 1866 O 176.566 -0.0609691 2.52426 0
M  V30 1867 C 177.879 2.81851 1.04787 0
M  V30 1868 C 179.427 2.91025 1.1521 0
M  V30 1869 C 179.902 4.34032 1.46219 0
M  V30 1870 N 181.393 4.37154 1.53136 0
M  V30 1871 C 182.128 5.4484 1.78709 0
M  V30 1872 N 181.624 6.62682 2.02051 0
M  V30 1873 N 183.417 5.32324 1.80519 0
M  V30 1874 H 175.568 2.09548 -0.346892 0
M  V30 1875 H 177.831 0.943446 -0.0928074 0
M  V30 1876 H 177.537 3.50815 0.249304 0
M  V30 1877 H 177.411 3.21386 1.97461 0
M  V30 1878 H 179.798 2.22257 1.94128 0
M  V30 1879 H 179.879 2.54983 0.204281 0
M  V30 1880 H 179.523 5.03351 0.678274 0
M  V30 1881 H 179.453 4.6759 2.42212 0
M  V30 1882 H 181.944 3.52197 1.36987 0
M  V30 1883 H 182.257 7.40543 2.20943 0
M  V30 1884 H 180.602 6.65791 1.99366 0
M  V30 1885 H 183.793 4.39246 1.61805 0
M  V30 1886 H 183.966 6.16328 2.00111 0
M  V30 1887 N 177.372 -0.689602 1.41712 0
M  V30 1888 C 178.62 -1.4468 1.4111 0
M  V30 1889 C 178.941 -1.94986 0.0232196 0
M  V30 1890 O 178.211 -1.72097 -0.935913 0
M  V30 1891 H 176.791 -0.536847 0.519427 0
M  V30 1892 H 179.453 -0.815825 1.77004 0
M  V30 1893 H 178.549 -2.30706 2.10193 0
M  V30 1894 N 178.85 -1.27639 -0.924453 0
M  V30 1895 C 179.76 -1.12466 -2.05885 0
M  V30 1896 C 180.776 -0.053869 -1.73917 0
M  V30 1897 O 181.952 -0.261012 -1.99702 0
M  V30 1898 C 179.017 -0.776768 -3.37886 0
M  V30 1899 C 178.078 -1.92878 -3.83532 0
M  V30 1900 C 177.311 -1.59739 -5.09234 0
M  V30 1901 O 177.534 -0.506782 -5.68144 0
M  V30 1902 O 176.468 -2.43761 -5.50331 0
M  V30 1903 H 180.294 -2.07671 -2.21599 0
M  V30 1904 H 177.879 -1.06857 -1.04413 0
M  V30 1905 H 179.761 -0.596229 -4.17161 0
M  V30 1906 H 178.436 0.145732 -3.23372 0
M  V30 1907 H 177.343 -2.1644 -3.0513 0
M  V30 1908 H 178.676 -2.8316 -4.02593 0
M  V30 1909 N 180.328 1.1314 -1.09713 0
M  V30 1910 C 181.278 2.16709 -0.708593 0
M  V30 1911 C 182.262 1.58471 0.278523 0
M  V30 1912 O 183.454 1.76779 0.088427 0
M  V30 1913 C 180.583 3.43039 -0.133923 0
M  V30 1914 C 179.669 4.08277 -1.14763 0
M  V30 1915 N 180.06 4.48637 -2.33577 0
M  V30 1916 C 178.358 4.34954 -0.986446 0
M  V30 1917 C 179.059 4.9952 -2.98085 0
M  V30 1918 N 178.035 4.94561 -2.25632 0
M  V30 1919 H 181.837 2.45672 -1.61315 0
M  V30 1920 H 179.351 1.29967 -0.973775 0
M  V30 1921 H 181.348 4.16583 0.162465 0
M  V30 1922 H 180.008 3.15549 0.765447 0
M  V30 1923 H 181.019 4.41246 -2.7115 0
M  V30 1924 H 177.696 4.17258 -0.142008 0
M  V30 1925 H 179.086 5.40521 -3.99108 0
M  V30 1926 N 181.806 0.884767 1.30421 0
M  V30 1927 C 183.034 0.518044 2.0031 0
M  V30 1928 C 183.449 -0.893408 1.66324 0
M  V30 1929 O 182.806 -1.5875 0.900262 0
M  V30 1930 C 182.857 0.682997 3.54989 0
M  V30 1931 O 182.578 2.03888 3.87764 0
M  V30 1932 C 184.079 0.31924 4.42149 0
M  V30 1933 H 181.299 0.200265 0.640418 0
M  V30 1934 H 183.843 1.19001 1.6631 0
M  V30 1935 H 181.998 0.0584052 3.87356 0
M  V30 1936 H 182.412 2.05735 4.82466 0
M  V30 1937 H 183.886 0.485555 5.4986 0
M  V30 1938 H 184.363 -0.742717 4.32875 0
M  V30 1939 H 184.969 0.920147 4.15227 0
M  V30 1940 N 183.284 -1.43765 0.645699 0
M  V30 1941 C 184.231 -2.30745 -0.0504648 0
M  V30 1942 C 185.201 -1.4432 -0.822241 0
M  V30 1943 O 186.386 -1.73202 -0.800358 0
M  V30 1944 C 183.526 -3.29802 -1.0161 0
M  V30 1945 C 182.639 -4.31326 -0.241219 0
M  V30 1946 C 181.774 -5.17469 -1.19998 0
M  V30 1947 C 180.813 -6.10691 -0.415094 0
M  V30 1948 N 179.95 -6.89483 -1.32506 0
M  V30 1949 H 184.79 -2.8973 0.697155 0
M  V30 1950 H 182.327 -1.42738 0.355563 0
M  V30 1951 H 184.285 -3.85734 -1.58949 0
M  V30 1952 H 182.915 -2.72483 -1.73069 0
M  V30 1953 H 181.967 -3.77749 0.448334 0
M  V30 1954 H 183.279 -4.9743 0.369437 0
M  V30 1955 H 182.433 -5.7799 -1.84424 0
M  V30 1956 H 181.172 -4.51473 -1.84455 0
M  V30 1957 H 180.177 -5.49265 0.242565 0
M  V30 1958 H 181.402 -6.78727 0.224966 0
M  V30 1959 H 179.348 -6.26142 -1.95657 0
M  V30 1960 H 179.265 -7.52081 -0.768783 0
M  V30 1961 H 180.533 -7.54516 -1.9577 0
M  V30 1962 N 184.763 -0.387143 -1.52771 0
M  V30 1963 C 185.713 0.465942 -2.23188 0
M  V30 1964 C 186.697 1.03138 -1.23496 0
M  V30 1965 O 187.889 0.957845 -1.48843 0
M  V30 1966 C 185.018 1.59384 -3.04059 0
M  V30 1967 C 184.104 1.04024 -4.11144 0
M  V30 1968 N 184.495 0.211416 -5.05358 0
M  V30 1969 C 182.793 1.31295 -4.26237 0
M  V30 1970 C 183.494 -0.0941698 -5.81624 0
M  V30 1971 N 182.47 0.509207 -5.4121 0
M  V30 1972 H 186.272 -0.173856 -2.93385 0
M  V30 1973 H 183.786 -0.19633 -1.61209 0
M  V30 1974 H 185.783 2.21738 -3.53041 0
M  V30 1975 H 184.443 2.23648 -2.35397 0
M  V30 1976 H 185.454 -0.151151 -5.17679 0
M  V30 1977 H 182.131 1.95679 -3.68803 0
M  V30 1978 H 183.521 -0.765572 -6.67524 0
M  V30 1979 N 186.241 1.57166 -0.116904 0
M  V30 1980 C 187.487 1.95412 0.542405 0
M  V30 1981 C 187.82 1.00019 1.66463 0
M  V30 1982 O 187.095 0.0370346 1.94465 0
M  V30 1983 C 187.378 3.43615 1.07708 0
M  V30 1984 C 187.231 4.49781 -0.0415868 0
M  V30 1985 C 188.55 3.93616 1.96861 0
M  V30 1986 H 185.669 0.710543 0.195696 0
M  V30 1987 H 188.311 1.89027 -0.192038 0
M  V30 1988 H 186.461 3.49187 1.70296 0
M  V30 1989 H 188.133 4.56308 -0.676793 0
M  V30 1990 H 186.376 4.28033 -0.705019 0
M  V30 1991 H 187.047 5.50733 0.373717 0
M  V30 1992 H 189.523 3.90335 1.44146 0
M  V30 1993 H 188.399 4.97838 2.3119 0
M  V30 1994 H 188.66 3.34188 2.89432 0
M  V30 1995 N 187.719 -0.156864 1.56817 0
M  V30 1996 C 188.966 -0.871125 1.82805 0
M  V30 1997 C 189.294 -1.81611 0.696262 0
M  V30 1998 O 188.549 -1.93141 -0.315459 0
M  V30 1999 C 188.848 -1.68737 3.1506 0
M  V30 2000 C 188.514 -0.890045 4.42028 0
M  V30 2001 C 187.176 -0.670042 4.76512 0
M  V30 2002 C 189.528 -0.331769 5.20143 0
M  V30 2003 C 186.856 0.119104 5.86579 0
M  V30 2004 C 189.208 0.444365 6.31037 0
M  V30 2005 C 187.872 0.675035 6.64078 0
M  V30 2006 H 187.142 -0.318767 0.668931 0
M  V30 2007 H 189.789 -0.135274 1.91022 0
M  V30 2008 H 188.094 -2.49304 3.0225 0
M  V30 2009 H 189.791 -2.24331 3.3238 0
M  V30 2010 H 186.381 -1.07157 4.14988 0
M  V30 2011 H 190.565 -0.489043 4.93885 0
M  V30 2012 H 185.821 0.307417 6.10627 0
M  V30 2013 H 189.995 0.884139 6.90765 0
M  V30 2014 H 187.622 1.28839 7.49203 0
M  V30 2015 N 189.197 -1.51736 -0.425897 0
M  V30 2016 C 190.437 -1.66636 -1.18371 0
M  V30 2017 C 190.801 -0.379854 -1.88205 0
M  V30 2018 O 192.002 -0.404758 -2.65735 0
M  V30 2019 C 190.273 -2.84382 -2.16476 0
M  V30 2020 S 191.832 -3.19673 -3.0059 0
M  V30 2021 H 188.65 -0.586957 -0.40125 0
M  V30 2022 H 191.252 -1.89679 -0.473518 0
M  V30 2023 H 189.956 -3.76281 -1.63831 0
M  V30 2024 H 189.487 -2.63562 -2.92059 0
M  V30 2025 H 191.502 -2.66994 -4.18245 0
M  V30 2026 N 190.675 0.682077 -1.42076 0
M  V30 2027 C 191.9 1.47558 -1.45744 0
M  V30 2028 C 192.325 1.87977 -0.0680981 0
M  V30 2029 O 191.683 1.55522 0.9318 0
M  V30 2030 C 191.731 2.70575 -2.38373 0
M  V30 2031 O 190.835 3.68573 -1.85007 0
M  V30 2032 H 190.176 0.443585 -0.494093 0
M  V30 2033 H 192.706 0.837238 -1.86686 0
M  V30 2034 H 192.716 3.18729 -2.54707 0
M  V30 2035 H 191.391 2.40495 -3.39315 0
M  V30 2036 H 189.968 3.2757 -1.78192 0
M  V30 2037 N 192.153 1.28127 0.917671 0
M  V30 2038 C 193.402 1.14432 1.66097 0
M  V30 2039 C 193.715 -0.307247 1.93172 0
M  V30 2040 O 194.921 -0.565259 2.65551 0
M  V30 2041 C 193.377 2.00015 2.99202 0
M  V30 2042 C 192.985 3.49889 2.79789 0
M  V30 2043 C 194.729 1.94996 3.77064 0
M  V30 2044 C 192.636 4.27636 4.08511 0
M  V30 2045 H 191.566 0.424662 0.62304 0
M  V30 2046 H 194.217 1.52628 1.01868 0
M  V30 2047 H 192.599 1.54672 3.64544 0
M  V30 2048 H 193.773 4.03162 2.23152 0
M  V30 2049 H 192.088 3.56392 2.15345 0
M  V30 2050 H 194.685 2.50354 4.72469 0
M  V30 2051 H 195.028 0.925819 4.05875 0
M  V30 2052 H 195.561 2.38287 3.18534 0
M  V30 2053 H 192.3 5.30615 3.84874 0
M  V30 2054 H 191.82 3.79137 4.64774 0
M  V30 2055 H 193.499 4.37346 4.76799 0
M  V30 2056 N 193.631 -1.12557 1.10312 0
M  V30 2057 C 194.541 -2.21841 0.763142 0
M  V30 2058 C 195.557 -1.72354 -0.238801 0
M  V30 2059 O 196.733 -2.01249 -0.0778746 0
M  V30 2060 C 193.798 -3.46131 0.198632 0
M  V30 2061 C 192.859 -4.10464 1.25769 0
M  V30 2062 C 192.092 -5.28821 0.72002 0
M  V30 2063 O 192.315 -5.6859 -0.453993 0
M  V30 2064 O 191.249 -5.83437 1.47935 0
M  V30 2065 H 195.075 -2.53312 1.67532 0
M  V30 2066 H 192.66 -1.20867 0.878157 0
M  V30 2067 H 194.542 -4.2125 -0.112401 0
M  V30 2068 H 193.217 -3.16338 -0.686419 0
M  V30 2069 H 192.124 -3.3713 1.62156 0
M  V30 2070 H 193.457 -4.44408 2.11571 0
M  V30 2071 N 195.109 -0.891671 -1.2995 0
M  V30 2072 C 196.386 -0.433307 -1.9074 0
M  V30 2073 C 196.766 1.08646 -1.80995 0
M  V30 2074 O 196.114 1.92476 -1.23147 0
M  V30 2075 C 196.324 -0.938895 -3.36134 0
M  V30 2076 C 197.672 -0.977829 -4.13187 0
M  V30 2077 O 198.696 -0.886015 -3.45005 0
M  V30 2078 O 197.555 -1.11453 -5.35015 0
M  V30 2079 H 194.649 -0.133699 -0.816121 0
M  V30 2080 H 197.195 -0.981011 -1.38471 0
M  V30 2081 H 195.967 -1.98281 -3.37343 0
M  V30 2082 H 195.59 -0.37074 -3.95868 0
M  V30 2083 N 196.587 1.43421 -0.653314 0
M  V30 2084 C 197.55 2.29182 0.0287951 0
M  V30 2085 C 198.55 1.42213 0.750465 0
M  V30 2086 O 199.74 1.63843 0.591701 0
M  V30 2087 C 196.872 3.24278 1.05151 0
M  V30 2088 H 198.065 2.90985 -0.725786 0
M  V30 2089 H 195.618 1.50702 -0.414545 0
M  V30 2090 H 196.353 2.6737 1.83532 0
M  V30 2091 H 196.138 3.88396 0.537687 0
M  V30 2092 H 197.628 3.88647 1.52786 0
M  V30 2093 N 198.065 0.39524 1.52563 0
M  V30 2094 C 199.295 -0.184675 2.05773 0
M  V30 2095 C 199.703 -1.40571 1.26635 0
M  V30 2096 O 199.046 -1.81105 0.30769 0
M  V30 2097 C 199.108 -0.613551 3.54226 0
M  V30 2098 C 198.772 0.49484 4.54313 0
M  V30 2099 C 199.769 1.3541 5.01956 0
M  V30 2100 C 197.454 0.663565 4.97898 0
M  V30 2101 C 199.448 2.36716 5.91814 0
M  V30 2102 C 197.135 1.67996 5.87555 0
M  V30 2103 C 198.133 2.53017 6.34406 0
M  V30 2104 O 197.821 3.52917 7.22291 0
M  V30 2105 H 197.553 -0.030077 0.675331 0
M  V30 2106 H 200.107 0.560708 1.97599 0
M  V30 2107 H 198.337 -1.411 3.60038 0
M  V30 2108 H 200.026 -1.11981 3.90148 0
M  V30 2109 H 200.792 1.23509 4.6901 0
M  V30 2110 H 196.671 0.0114913 4.60999 0
M  V30 2111 H 200.215 3.03113 6.28306 0
M  V30 2112 H 196.112 1.79933 6.19915 0
M  V30 2113 H 196.88 3.48996 7.40367 0
M  V30 2114 N 199.544 -1.57102 0.125237 0
M  V30 2115 C 200.507 -2.14471 -0.80838 0
M  V30 2116 C 201.507 -1.0811 -1.19033 0
M  V30 2117 O 202.697 -1.33856 -1.11482 0
M  V30 2118 C 199.829 -2.69005 -2.09402 0
M  V30 2119 H 201.022 -2.98297 -0.309696 0
M  V30 2120 H 198.575 -1.55807 -0.124051 0
M  V30 2121 H 199.31 -1.88785 -2.63687 0
M  V30 2122 H 199.095 -3.46799 -1.82957 0
M  V30 2123 H 200.585 -3.13278 -2.76128 0
M  V30 2124 N 201.022 0.148545 -1.56898 0
M  V30 2125 C 201.954 1.20852 -1.9475 0
M  V30 2126 C 202.967 1.39265 -0.843152 0
M  V30 2127 O 204.156 1.38864 -1.12156 0
M  V30 2128 C 201.256 2.57362 -2.20495 0
M  V30 2129 C 200.429 2.59947 -3.51776 0
M  V30 2130 C 199.488 3.77984 -3.6608 0
M  V30 2131 O 198.514 3.62929 -4.38487 0
M  V30 2132 N 199.716 4.95375 -3.02629 0
M  V30 2133 H 202.481 0.886804 -2.86279 0
M  V30 2134 H 200.042 0.338121 -1.5833 0
M  V30 2135 H 202.034 3.34833 -2.27307 0
M  V30 2136 H 200.604 2.81832 -1.35238 0
M  V30 2137 H 199.824 1.68403 -3.56419 0
M  V30 2138 H 201.112 2.58704 -4.38121 0
M  V30 2139 H 200.51 5.10509 -2.43715 0
M  V30 2140 H 199.067 5.70627 -3.15004 0
M  V30 2141 N 202.5 1.5196 0.417844 0
M  V30 2142 C 203.41 1.77554 1.53336 0
M  V30 2143 C 204.426 0.660655 1.6097 0
M  V30 2144 O 205.602 0.945099 1.77848 0
M  V30 2145 C 202.667 1.91291 2.89152 0
M  V30 2146 C 201.728 3.15183 2.91475 0
M  V30 2147 C 200.961 3.28256 4.20813 0
M  V30 2148 O 201.184 2.46798 5.14244 0
M  V30 2149 O 200.118 4.21356 4.29817 0
M  V30 2150 H 203.944 2.7222 1.34647 0
M  V30 2151 H 201.529 1.36698 0.602828 0
M  V30 2152 H 203.411 2.02199 3.69721 0
M  V30 2153 H 202.086 0.998129 3.07927 0
M  V30 2154 H 200.993 3.09739 2.09791 0
M  V30 2155 H 202.326 4.06414 2.77648 0
M  V30 2156 N 203.978 -0.674533 1.42435 0
M  V30 2157 C 205.394 -0.98769 1.25367 0
M  V30 2158 C 205.594 -2.00879 0.158044 0
M  V30 2159 O 204.65 -2.48075 -0.470633 0
M  V30 2160 C 205.963 -1.49224 2.6106 0
M  V30 2161 C 207.511 -1.61 2.68417 0
M  V30 2162 C 207.986 -2.14852 4.04478 0
M  V30 2163 N 209.477 -2.22185 4.06434 0
M  V30 2164 C 210.212 -2.64928 5.08528 0
M  V30 2165 N 209.708 -3.07121 6.21006 0
M  V30 2166 N 211.501 -2.64679 4.95885 0
M  V30 2167 H 203.652 0.00152503 2.124 0
M  V30 2168 H 205.915 -0.0618434 0.945981 0
M  V30 2169 H 205.621 -0.816453 3.42092 0
M  V30 2170 H 205.495 -2.47094 2.84999 0
M  V30 2171 H 207.882 -2.27686 1.87732 0
M  V30 2172 H 207.963 -0.616195 2.48267 0
M  V30 2173 H 207.607 -1.48775 4.85622 0
M  V30 2174 H 207.537 -3.15024 4.2198 0
M  V30 2175 H 210.028 -1.92435 3.25234 0
M  V30 2176 H 210.341 -3.38423 6.94759 0
M  V30 2177 H 208.686 -3.04978 6.24511 0
M  V30 2178 H 211.877 -2.31078 4.07088 0
M  V30 2179 H 212.05 -2.9767 5.75584 0
M  V30 2180 N 205.456 -1.28612 -0.910864 0
M  V30 2181 C 206.733 -1.06632 -1.63979 0
M  V30 2182 C 207.113 0.393351 -2.07403 0
M  V30 2183 O 206.461 1.37999 -1.82122 0
M  V30 2184 C 206.671 -2.0436 -2.8291 0
M  V30 2185 C 208.019 -2.34666 -3.5386 0
M  V30 2186 O 209.043 -2.02467 -2.93062 0
M  V30 2187 O 207.902 -2.89631 -4.63439 0
M  V30 2188 H 204.996 -0.407737 -0.7195 0
M  V30 2189 H 207.542 -1.39942 -0.959914 0
M  V30 2190 H 206.314 -3.02727 -2.47936 0
M  V30 2191 H 205.937 -1.71714 -3.58609 0
M  V30 2192 N 206.934 1.1197 -1.10907 0
M  V30 2193 C 207.897 2.16031 -0.765707 0
M  V30 2194 C 208.897 1.59393 0.212235 0
M  V30 2195 O 210.087 1.74196 -0.0115441 0
M  V30 2196 C 207.219 3.40632 -0.135053 0
M  V30 2197 H 208.412 2.47919 -1.68748 0
M  V30 2198 H 205.965 1.27061 -0.910226 0
M  V30 2199 H 206.7 3.14348 0.797218 0
M  V30 2200 H 206.485 3.8302 -0.838937 0
M  V30 2201 H 207.975 4.17505 0.0892469 0
M  V30 2202 N 208.412 0.89855 1.29475 0
M  V30 2203 C 209.659 0.523882 1.95606 0
M  V30 2204 C 209.987 -0.929608 1.70847 0
M  V30 2205 O 209.242 -1.67401 1.01367 0
M  V30 2206 C 209.541 0.761398 3.49195 0
M  V30 2207 C 209.207 2.19207 3.94029 0
M  V30 2208 C 207.869 2.58326 4.05982 0
M  V30 2209 C 210.221 3.12379 4.17216 0
M  V30 2210 C 207.549 3.898 4.38489 0
M  V30 2211 C 209.901 4.43401 4.51197 0
M  V30 2212 C 208.565 4.82394 4.61359 0
M  V30 2213 H 207.835 0.191702 0.715773 0
M  V30 2214 H 210.482 1.13699 1.54094 0
M  V30 2215 H 208.787 0.0653622 3.91745 0
M  V30 2216 H 210.484 0.450904 3.98457 0
M  V30 2217 H 207.074 1.87846 3.85242 0
M  V30 2218 H 211.258 2.83371 4.07449 0
M  V30 2219 H 206.514 4.19734 4.44559 0
M  V30 2220 H 210.688 5.15623 4.68087 0
M  V30 2221 H 208.315 5.84306 4.86303 0
M  V30 2222 N 209.89 -1.43072 0.660911 0
M  V30 2223 C 210.8 -2.34585 -0.0264163 0
M  V30 2224 C 211.816 -1.54316 -0.803898 0
M  V30 2225 O 212.992 -1.86939 -0.749391 0
M  V30 2226 C 210.057 -3.32689 -0.975639 0
M  V30 2227 C 209.118 -4.2886 -0.194236 0
M  V30 2228 C 208.351 -5.22278 -1.09825 0
M  V30 2229 O 208.574 -5.20299 -2.33763 0
M  V30 2230 O 207.508 -5.99228 -0.566513 0
M  V30 2231 H 211.334 -2.94869 0.727034 0
M  V30 2232 H 208.919 -1.43342 0.42111 0
M  V30 2233 H 210.801 -3.92995 -1.52094 0
M  V30 2234 H 209.476 -2.74898 -1.70918 0
M  V30 2235 H 208.383 -3.72011 0.394835 0
M  V30 2236 H 209.716 -4.89655 0.499899 0
M  V30 2237 N 211.368 -0.403325 -1.52352 0
M  V30 2238 C 212.593 0.176499 -2.06648 0
M  V30 2239 C 213.018 1.38577 -1.27193 0
M  V30 2240 O 212.376 1.7879 -0.300637 0
M  V30 2241 C 212.424 0.511061 -3.5696 0
M  V30 2242 O 211.528 1.60294 -3.79973 0
M  V30 2243 H 210.869 0.0167337 -0.663789 0
M  V30 2244 H 213.399 -0.574848 -1.96359 0
M  V30 2245 H 213.409 0.771362 -4.00642 0
M  V30 2246 H 212.084 -0.37296 -4.14224 0
M  V30 2247 H 210.661 1.33526 -3.48174 0
M  V30 2248 N 212.846 1.57033 -0.133567 0
M  V30 2249 C 213.776 2.1909 0.807567 0
M  V30 2250 C 214.757 1.13517 1.26681 0
M  V30 2251 O 215.942 1.41809 1.32679 0
M  V30 2252 C 213.072 2.80188 2.05212 0
M  V30 2253 C 212.026 3.91471 1.73015 0
M  V30 2254 C 211.352 4.39443 3.04622 0
M  V30 2255 C 212.652 5.12886 0.987168 0
M  V30 2256 H 214.346 2.97988 0.290403 0
M  V30 2257 H 211.892 1.43335 0.138239 0
M  V30 2258 H 213.845 3.22264 2.71521 0
M  V30 2259 H 212.569 1.98601 2.59278 0
M  V30 2260 H 211.228 3.49993 1.0909 0
M  V30 2261 H 210.876 3.54695 3.56651 0
M  V30 2262 H 210.576 5.14495 2.83847 0
M  V30 2263 H 212.1 4.8418 3.72024 0
M  V30 2264 H 213.514 5.51891 1.55208 0
M  V30 2265 H 211.911 5.93615 0.87985 0
M  V30 2266 H 212.981 4.84894 -0.0235286 0
M  V30 2267 N 214.325 -0.140222 1.56975 0
M  V30 2268 C 215.572 -0.851687 1.83719 0
M  V30 2269 C 215.9 -1.80862 0.715485 0
M  V30 2270 O 215.155 -1.93464 -0.294956 0
M  V30 2271 C 215.454 -1.65386 3.16832 0
M  V30 2272 C 215.12 -0.843112 4.42947 0
M  V30 2273 C 213.782 -0.619464 4.77196 0
M  V30 2274 C 216.134 -0.276582 5.20466 0
M  V30 2275 C 213.462 0.181312 5.8642 0
M  V30 2276 C 215.814 0.51127 6.30531 0
M  V30 2277 C 214.478 0.745432 6.63325 0
M  V30 2278 H 213.748 -0.311654 0.672274 0
M  V30 2279 H 216.395 -0.115006 1.91154 0
M  V30 2280 H 214.7 -2.46084 3.04877 0
M  V30 2281 H 216.397 -2.20793 3.34741 0
M  V30 2282 H 212.987 -1.0275 4.16101 0
M  V30 2283 H 217.171 -0.436632 4.94376 0
M  V30 2284 H 212.427 0.372165 6.10266 0
M  V30 2285 H 216.601 0.957354 6.89788 0
M  V30 2286 H 214.228 1.36778 7.47794 0
M  V30 2287 N 215.803 -1.52179 -0.40978 0
M  V30 2288 C 216.735 -1.71703 -1.51825 0
M  V30 2289 C 217.748 -0.597445 -1.51441 0
M  V30 2290 O 218.937 -0.872582 -1.55719 0
M  V30 2291 C 216.037 -1.74171 -2.90719 0
M  V30 2292 C 215.21 -3.03156 -3.15302 0
M  V30 2293 C 214.269 -2.97445 -4.34065 0
M  V30 2294 O 213.295 -3.71352 -4.31377 0
M  V30 2295 N 214.497 -2.15191 -5.39141 0
M  V30 2296 H 217.262 -2.67334 -1.35472 0
M  V30 2297 H 214.823 -1.50409 -0.599069 0
M  V30 2298 H 216.815 -1.67884 -3.68235 0
M  V30 2299 H 215.385 -0.860166 -3.00533 0
M  V30 2300 H 214.605 -3.23097 -2.25836 0
M  V30 2301 H 215.893 -3.88484 -3.28569 0
M  V30 2302 H 215.291 -1.54573 -5.44173 0
M  V30 2303 H 213.848 -2.1476 -6.15403 0
M  V30 2304 N 217.281 0.66697 -1.42791 0
M  V30 2305 C 218.506 1.46004 -1.47301 0
M  V30 2306 C 218.931 1.87894 -0.0880317 0
M  V30 2307 O 218.289 1.56502 0.915253 0
M  V30 2308 C 218.337 2.68031 -2.41229 0
M  V30 2309 O 217.441 3.6659 -1.88906 0
M  V30 2310 H 216.782 0.43832 -0.49877 0
M  V30 2311 H 219.312 0.817391 -1.87563 0
M  V30 2312 H 219.322 3.1601 -2.58073 0
M  V30 2313 H 217.997 2.36883 -3.41847 0
M  V30 2314 H 216.574 3.25661 -1.81656 0
M  V30 2315 N 218.759 1.29093 0.90403 0
M  V30 2316 C 220.006 1.16813 1.65411 0
M  V30 2317 C 220.334 -0.28128 1.92455 0
M  V30 2318 O 219.589 -1.22006 1.53013 0
M  V30 2319 C 219.888 1.92224 3.01305 0
M  V30 2320 C 219.554 3.41968 2.93885 0
M  V30 2321 C 218.216 3.82807 2.91569 0
M  V30 2322 C 220.568 4.37409 2.83413 0
M  V30 2323 C 217.896 5.1741 2.76594 0
M  V30 2324 C 220.248 5.72097 2.69977 0
M  V30 2325 C 218.912 6.12199 2.66024 0
M  V30 2326 H 218.182 0.42745 0.605283 0
M  V30 2327 H 220.829 1.59981 1.05254 0
M  V30 2328 H 219.134 1.41635 3.65304 0
M  V30 2329 H 220.831 1.80131 3.58265 0
M  V30 2330 H 217.421 3.09504 2.96488 0
M  V30 2331 H 221.605 4.06813 2.84283 0
M  V30 2332 H 216.861 5.47596 2.71935 0
M  V30 2333 H 221.035 6.45704 2.60844 0
M  V30 2334 H 218.662 7.16448 2.54178 0
M  V30 2335 N 220.237 -1.11381 1.11499 0
M  V30 2336 C 221.147 -2.21019 0.786628 0
M  V30 2337 C 222.163 -1.72597 -0.220507 0
M  V30 2338 O 223.339 -2.01321 -0.0565251 0
M  V30 2339 C 220.404 -3.459 0.235333 0
M  V30 2340 C 219.465 -4.09107 1.30115 0
M  V30 2341 C 218.698 -5.28027 0.776068 0
M  V30 2342 O 218.921 -5.6904 -0.393661 0
M  V30 2343 O 217.855 -5.81835 1.54114 0
M  V30 2344 H 221.681 -2.51521 1.70209 0
M  V30 2345 H 219.266 -1.19928 0.890928 0
M  V30 2346 H 221.148 -4.21346 -0.067715 0
M  V30 2347 H 219.823 -3.17049 -0.652828 0
M  V30 2348 H 218.73 -3.35391 1.65722 0
M  V30 2349 H 220.063 -4.42139 2.16273 0
M  V30 2350 N 221.715 -0.905404 -1.28997 0
M  V30 2351 C 222.943 -0.549846 -1.9946 0
M  V30 2352 C 223.358 0.866834 -1.67724 0
M  V30 2353 O 222.715 1.57298 -0.925404 0
M  V30 2354 C 222.766 -0.739387 -3.53858 0
M  V30 2355 O 222.487 -2.10031 -3.84472 0
M  V30 2356 C 223.988 -0.389541 -4.41585 0
M  V30 2357 H 221.208 -0.210429 -0.637151 0
M  V30 2358 H 223.752 -1.21632 -1.64396 0
M  V30 2359 H 221.907 -0.120023 -3.87214 0
M  V30 2360 H 222.321 -2.13385 -4.79132 0
M  V30 2361 H 223.795 -0.572972 -5.49018 0
M  V30 2362 H 224.272 0.673756 -4.34001 0
M  V30 2363 H 224.878 -0.986089 -4.1371 0
M  V30 2364 N 223.193 1.4272 -0.668489 0
M  V30 2365 C 224.439 2.02443 -0.197076 0
M  V30 2366 C 224.794 1.51882 1.18109 0
M  V30 2367 O 224.087 0.708618 1.78015 0
M  V30 2368 C 224.281 3.57021 -0.164499 0
M  V30 2369 C 224.11 4.22583 -1.53797 0
M  V30 2370 C 222.88 4.58019 -2.13416 0
M  V30 2371 C 225.078 4.50588 -2.47941 0
M  V30 2372 N 223.06 5.08729 -3.4361 0
M  V30 2373 C 224.431 5.02782 -3.62782 0
M  V30 2374 C 226.486 4.32571 -2.46551 0
M  V30 2375 C 225.189 5.38852 -4.76478 0
M  V30 2376 C 227.215 4.69713 -3.59338 0
M  V30 2377 C 226.577 5.22053 -4.72906 0
M  V30 2378 H 222.676 0.773214 -0.116894 0
M  V30 2379 H 225.26 1.73673 -0.880108 0
M  V30 2380 H 223.431 3.85323 0.487925 0
M  V30 2381 H 225.163 4.03439 0.319207 0
M  V30 2382 H 221.918 4.43566 -1.65969 0
M  V30 2383 H 222.342 5.38521 -4.10273 0
M  V30 2384 H 226.984 3.91365 -1.59978 0
M  V30 2385 H 224.702 5.78993 -5.63731 0
M  V30 2386 H 228.288 4.57454 -3.59482 0
M  V30 2387 H 227.168 5.50258 -5.58736 0
M  V30 2388 N 224.671 0.411399 1.52136 0
M  V30 2389 C 226.087 0.0623865 1.59478 0
M  V30 2390 C 226.287 -1.42554 1.4241 0
M  V30 2391 O 225.343 -2.19263 1.2522 0
M  V30 2392 C 226.656 0.559331 2.95452 0
M  V30 2393 C 228.204 0.517503 3.08692 0
M  V30 2394 C 228.679 0.990994 4.4715 0
M  V30 2395 N 230.17 0.947908 4.53397 0
M  V30 2396 C 230.905 1.28544 5.58806 0
M  V30 2397 N 230.401 1.69454 6.71757 0
M  V30 2398 N 232.194 1.20526 5.49026 0
M  V30 2399 H 224.345 1.37982 1.61477 0
M  V30 2400 H 226.608 0.566977 0.759764 0
M  V30 2401 H 226.314 1.59938 3.1323 0
M  V30 2402 H 226.188 -0.0298014 3.77188 0
M  V30 2403 H 228.575 -0.513505 2.90598 0
M  V30 2404 H 228.656 1.14272 2.28857 0
M  V30 2405 H 228.3 2.02034 4.65988 0
M  V30 2406 H 228.23 0.34257 5.25485 0
M  V30 2407 H 230.721 0.647157 3.72317 0
M  V30 2408 H 231.034 1.93513 7.48179 0
M  V30 2409 H 229.379 1.73359 6.73032 0
M  V30 2410 H 232.57 0.884505 4.59667 0
M  V30 2411 H 232.743 1.47161 6.31069 0
M  V30 2412 N 226.149 -1.5696 0.141893 0
M  V30 2413 C 227.565 -1.58151 -0.21456 0
M  V30 2414 C 227.765 -1.1559 -1.65049 0
M  V30 2415 O 226.821 -0.853832 -2.37626 0
M  V30 2416 C 228.134 -3.00674 0.0395576 0
M  V30 2417 C 229.682 -3.1299 -0.0245529 0
M  V30 2418 C 230.157 -4.57554 0.202167 0
M  V30 2419 N 231.648 -4.62961 0.148919 0
M  V30 2420 C 232.383 -5.7262 0.298924 0
M  V30 2421 N 231.879 -6.90947 0.50637 0
M  V30 2422 N 233.672 -5.61601 0.236886 0
M  V30 2423 H 225.823 -1.8292 1.07953 0
M  V30 2424 H 228.086 -0.846425 0.42693 0
M  V30 2425 H 227.792 -3.36183 1.03315 0
M  V30 2426 H 227.666 -3.70981 -0.682143 0
M  V30 2427 H 230.053 -2.77326 -1.00869 0
M  V30 2428 H 230.134 -2.4518 0.729396 0
M  V30 2429 H 229.778 -4.93922 1.18338 0
M  V30 2430 H 229.708 -5.23484 -0.572044 0
M  V30 2431 H 232.199 -3.77899 -0.00697015 0
M  V30 2432 H 232.512 -7.7038 0.611076 0
M  V30 2433 H 230.857 -6.92878 0.542628 0
M  V30 2434 H 234.048 -4.68039 0.0756209 0
M  V30 2435 H 234.221 -6.47015 0.357227 0
M  V30 2436 N 227.627 0.131896 -1.57047 0
M  V30 2437 C 228.875 0.840269 -1.83804 0
M  V30 2438 C 229.196 1.81017 -0.72512 0
M  V30 2439 O 228.466 1.94272 0.251995 0
M  V30 2440 H 227.046 0.313294 -0.678127 0
M  V30 2441 H 229.708 0.122294 -1.94516 0
M  V30 2442 H 228.804 1.39335 -2.79271 0
M  V30 2443 N 229.106 1.52395 0.401703 0
M  V30 2444 C 230.383 1.57387 1.16141 0
M  V30 2445 C 230.763 0.359359 2.08019 0
M  V30 2446 O 230.111 -0.65326 2.18963 0
M  V30 2447 C 230.321 2.90631 1.93221 0
M  V30 2448 C 231.669 3.43904 2.49028 0
M  V30 2449 O 232.693 2.92421 2.03393 0
M  V30 2450 O 231.552 4.33823 3.32356 0
M  V30 2451 H 228.646 0.634262 0.530698 0
M  V30 2452 H 231.192 1.64725 0.407883 0
M  V30 2453 H 229.964 3.70473 1.25958 0
M  V30 2454 H 229.587 2.8662 2.75563 0
M  V30 2455 N 230.584 -0.659388 1.43143 0
M  V30 2456 C 231.547 -1.75432 1.47501 0
M  V30 2457 C 232.547 -1.56707 0.360512 0
M  V30 2458 O 233.737 -1.62717 0.622002 0
M  V30 2459 C 230.869 -3.14239 1.32162 0
M  V30 2460 H 232.062 -1.7295 2.45006 0
M  V30 2461 H 229.615 -0.870469 1.29817 0
M  V30 2462 H 230.35 -3.22336 0.356401 0
M  V30 2463 H 230.135 -3.29235 2.12948 0
M  V30 2464 H 231.625 -3.94094 1.3813 0
M  V30 2465 N 232.062 -1.29571 -0.897171 0
M  V30 2466 C 232.992 -1.17473 -2.01798 0
M  V30 2467 C 233.973 -0.068323 -1.69963 0
M  V30 2468 O 235.158 -0.248239 -1.92607 0
M  V30 2469 C 232.288 -0.853099 -3.36659 0
M  V30 2470 C 231.242 -1.9161 -3.82713 0
M  V30 2471 C 230.568 -1.44773 -5.14728 0
M  V30 2472 C 231.868 -3.32535 -4.02763 0
M  V30 2473 H 233.562 -2.11237 -2.12177 0
M  V30 2474 H 231.108 -1.01699 -1.01948 0
M  V30 2475 H 233.061 -0.755165 -4.14578 0
M  V30 2476 H 231.785 0.120236 -3.26379 0
M  V30 2477 H 230.444 -2.00346 -3.07013 0
M  V30 2478 H 230.092 -0.462995 -5.00865 0
M  V30 2479 H 229.792 -2.15865 -5.46513 0
M  V30 2480 H 231.316 -1.36334 -5.95185 0
M  V30 2481 H 232.73 -3.26626 -4.71156 0
M  V30 2482 H 231.127 -4.01607 -4.45905 0
M  V30 2483 H 232.197 -3.75326 -3.07016 0
M  V30 2484 N 233.54 1.10788 -1.12088 0
M  V30 2485 C 234.765 1.87002 -0.896949 0
M  V30 2486 C 235.19 1.79933 0.548261 0
M  V30 2487 O 234.548 1.16662 1.38779 0
M  V30 2488 C 234.596 3.3349 -1.37174 0
M  V30 2489 O 233.7 4.08745 -0.547831 0
M  V30 2490 H 233.041 0.580397 -0.322545 0
M  V30 2491 H 235.571 1.39996 -1.49206 0
M  V30 2492 H 235.581 3.84339 -1.36922 0
M  V30 2493 H 234.256 3.37951 -2.42408 0
M  V30 2494 H 232.833 3.6776 -0.617034 0
M  V30 2495 N 235.018 0.912232 1.28515 0
M  V30 2496 C 236.434 0.610159 1.47476 0
M  V30 2497 C 236.634 -0.844955 1.82928 0
M  V30 2498 O 235.69 -1.62416 1.93332 0
M  V30 2499 C 237.003 1.54675 2.57868 0
M  V30 2500 C 238.551 1.55331 2.71738 0
M  V30 2501 C 239.026 2.47649 3.85272 0
M  V30 2502 N 240.517 2.45767 3.92623 0
M  V30 2503 C 241.252 3.13896 4.79851 0
M  V30 2504 N 240.748 3.9135 5.71679 0
M  V30 2505 N 242.541 3.02991 4.73448 0
M  V30 2506 H 234.692 1.85318 1.03783 0
M  V30 2507 H 236.955 0.794777 0.516753 0
M  V30 2508 H 236.661 2.5841 2.38574 0
M  V30 2509 H 236.535 1.27671 3.54937 0
M  V30 2510 H 238.922 0.52335 2.90422 0
M  V30 2511 H 239.003 1.86378 1.75205 0
M  V30 2512 H 238.647 3.50745 3.67342 0
M  V30 2513 H 238.577 2.13904 4.81199 0
M  V30 2514 H 241.068 1.89503 3.26951 0
M  V30 2515 H 241.381 4.40359 6.35062 0
M  V30 2516 H 239.726 3.95455 5.71524 0
M  V30 2517 H 242.917 2.41987 4.007 0
M  V30 2518 H 243.09 3.5636 5.41213 0
M  V30 2519 N 236.496 -1.42363 0.676048 0
M  V30 2520 C 237.426 -2.33497 0.0124832 0
M  V30 2521 C 238.407 -1.50748 -0.787981 0
M  V30 2522 O 239.592 -1.79346 -0.744884 0
M  V30 2523 C 236.722 -3.34377 -0.938582 0
M  V30 2524 C 235.676 -4.27289 -0.246622 0
M  V30 2525 C 235.002 -5.18386 -1.31071 0
M  V30 2526 C 236.302 -5.14916 0.875125 0
M  V30 2527 H 237.996 -2.89233 0.773593 0
M  V30 2528 H 235.542 -1.39073 0.37346 0
M  V30 2529 H 237.495 -3.97044 -1.41188 0
M  V30 2530 H 236.219 -2.76947 -1.73113 0
M  V30 2531 H 234.878 -3.66018 0.206456 0
M  V30 2532 H 234.526 -4.57282 -2.09528 0
M  V30 2533 H 234.226 -5.81378 -0.852839 0
M  V30 2534 H 235.75 -5.83929 -1.78492 0
M  V30 2535 H 237.164 -5.71262 0.482983 0
M  V30 2536 H 235.561 -5.86747 1.25887 0
M  V30 2537 H 236.631 -4.53242 1.72335 0
M  V30 2538 N 237.974 -0.419461 -1.51915 0
M  V30 2539 C 239.251 0.211999 -1.94448 0
M  V30 2540 C 239.631 1.61703 -1.35703 0
M  V30 2541 O 238.979 2.22102 -0.536931 0
M  V30 2542 C 239.189 0.207872 -3.4838 0
M  V30 2543 C 240.537 0.422192 -4.22496 0
M  V30 2544 O 241.561 0.286778 -3.55044 0
M  V30 2545 O 240.42 0.690009 -5.42126 0
M  V30 2546 H 237.514 0.139586 -0.815135 0
M  V30 2547 H 240.06 -0.476151 -1.62883 0
M  V30 2548 H 238.832 -0.775102 -3.83546 0
M  V30 2549 H 238.455 0.939688 -3.86336 0
M  V30 2550 N 239.452 1.56882 -0.150215 0
M  V30 2551 C 240.68 2.00593 0.506948 0
M  V30 2552 C 241.095 1.03033 1.58208 0
M  V30 2553 O 240.452 0.0278396 1.82479 0
M  V30 2554 C 240.503 3.44209 1.10465 0
M  V30 2555 O 240.224 4.3804 0.0724636 0
M  V30 2556 C 241.725 4.03214 1.84211 0
M  V30 2557 H 238.945 0.65795 0.13169 0
M  V30 2558 H 241.489 2.03018 -0.245743 0
M  V30 2559 H 239.644 3.42625 1.80795 0
M  V30 2560 H 240.058 5.22007 0.510793 0
M  V30 2561 H 241.532 5.0569 2.21318 0
M  V30 2562 H 242.009 3.44107 2.72923 0
M  V30 2563 H 242.615 4.08437 1.18572 0
M  V30 2564 N 240.93 -0.123565 1.57115 0
M  V30 2565 C 241.86 -1.15309 2.03042 0
M  V30 2566 C 242.841 -1.43454 0.914061 0
M  V30 2567 O 244.026 -1.53973 1.18347 0
M  V30 2568 C 241.156 -2.48043 2.43089 0
M  V30 2569 C 240.11 -2.3437 3.58127 0
M  V30 2570 C 239.436 -3.72026 3.84059 0
M  V30 2571 C 240.736 -1.80804 4.90007 0
M  V30 2572 H 242.43 -0.771102 2.893 0
M  V30 2573 H 239.976 -0.369479 1.39179 0
M  V30 2574 H 241.929 -3.20311 2.73823 0
M  V30 2575 H 240.653 -2.88122 1.53796 0
M  V30 2576 H 239.312 -1.64551 3.27595 0
M  V30 2577 H 238.96 -4.09582 2.91979 0
M  V30 2578 H 238.66 -3.63732 4.6149 0
M  V30 2579 H 240.184 -4.45806 4.1724 0
M  V30 2580 H 241.598 -2.42886 5.19307 0
M  V30 2581 H 239.995 -1.83343 5.71407 0
M  V30 2582 H 241.065 -0.76528 4.78823 0
M  V30 2583 N 242.408 -1.52605 -0.393616 0
M  V30 2584 C 243.318 -1.79971 -1.50492 0
M  V30 2585 C 244.334 -0.686181 -1.59899 0
M  V30 2586 O 245.51 -0.973274 -1.76322 0
M  V30 2587 C 242.575 -1.95867 -2.86072 0
M  V30 2588 C 241.636 -3.19781 -2.86424 0
M  V30 2589 C 240.869 -3.34909 -4.15538 0
M  V30 2590 O 241.092 -2.54948 -5.10253 0
M  V30 2591 O 240.026 -4.28141 -4.23059 0
M  V30 2592 H 243.852 -2.74328 -1.30299 0
M  V30 2593 H 241.437 -1.3764 -0.581005 0
M  V30 2594 H 243.319 -2.08056 -3.66457 0
M  V30 2595 H 241.994 -1.04699 -3.063 0
M  V30 2596 H 240.901 -3.13038 -2.04837 0
M  V30 2597 H 242.234 -4.1078 -2.71147 0
M  V30 2598 N 243.887 0.651787 -1.4349 0
M  V30 2599 C 245.115 1.43937 -1.48626 0
M  V30 2600 C 245.53 1.8851 -0.104587 0
M  V30 2601 O 244.887 1.5958 0.885464 0
M  V30 2602 C 244.938 2.6734 -2.43334 0
M  V30 2603 O 244.659 2.24631 -3.76128 0
M  V30 2604 C 246.16 3.60683 -2.57726 0
M  V30 2605 H 243.38 0.44213 -0.504739 0
M  V30 2606 H 245.924 0.798944 -1.88248 0
M  V30 2607 H 244.079 3.2752 -2.06904 0
M  V30 2608 H 244.493 3.04485 -4.2707 0
M  V30 2609 H 245.967 4.43933 -3.28067 0
M  V30 2610 H 246.444 4.08126 -1.62265 0
M  V30 2611 H 247.05 3.06384 -2.94973 0
M  V30 2612 N 245.365 1.30045 0.890287 0
M  V30 2613 C 246.59 1.21598 1.68014 0
M  V30 2614 C 247.015 -0.218678 1.86825 0
M  V30 2615 O 246.373 -1.15756 1.39536 0
M  V30 2616 C 246.421 1.94434 3.03691 0
M  V30 2617 O 245.525 1.2678 3.92429 0
M  V30 2618 H 244.866 0.420856 0.513592 0
M  V30 2619 H 247.396 1.71775 1.11151 0
M  V30 2620 H 247.406 2.03251 3.5377 0
M  V30 2621 H 246.081 2.98777 2.89318 0
M  V30 2622 H 244.658 1.26282 3.50866 0
M  V30 2623 N 246.843 -1.10192 1.12674 0
M  V30 2624 C 247.79 -2.16606 0.796906 0
M  V30 2625 C 248.76 -1.64394 -0.237476 0
M  V30 2626 O 249.945 -1.90474 -0.111484 0
M  V30 2627 C 247.085 -3.44116 0.26043 0
M  V30 2628 C 246.198 -4.10268 1.35293 0
M  V30 2629 C 245.333 -5.25507 0.775621 0
M  V30 2630 C 244.372 -5.83567 1.84706 0
M  V30 2631 N 243.509 -6.90179 1.28829 0
M  V30 2632 H 248.349 -2.44163 1.70846 0
M  V30 2633 H 245.886 -1.19846 0.85295 0
M  V30 2634 H 247.844 -4.17143 -0.0686814 0
M  V30 2635 H 246.474 -3.16901 -0.614274 0
M  V30 2636 H 245.526 -3.35184 1.79877 0
M  V30 2637 H 246.838 -4.4946 2.16303 0
M  V30 2638 H 245.992 -6.05398 0.397327 0
M  V30 2639 H 244.731 -4.87656 -0.0656581 0
M  V30 2640 H 243.736 -5.02344 2.23452 0
M  V30 2641 H 244.961 -6.23482 2.69161 0
M  V30 2642 H 242.907 -6.54322 0.468881 0
M  V30 2643 H 242.824 -7.28097 2.03497 0
M  V30 2644 H 244.092 -7.73844 0.937311 0
M  V30 2645 N 248.321 -0.919034 -1.28029 0
M  V30 2646 C 249.737 -0.617972 -1.4715 0
M  V30 2647 C 249.937 0.835242 -1.83374 0
M  V30 2648 O 248.993 1.61388 -1.94191 0
M  V30 2649 C 250.306 -1.56041 -2.57044 0
M  V30 2650 C 251.854 -1.56769 -2.7091 0
M  V30 2651 C 252.329 -2.49688 -3.83953 0
M  V30 2652 N 253.82 -2.47845 -3.91314 0
M  V30 2653 C 254.555 -3.16437 -4.78179 0
M  V30 2654 N 254.051 -3.94376 -5.69596 0
M  V30 2655 N 255.844 -3.05498 -4.71834 0
M  V30 2656 H 247.995 -1.85866 -1.02798 0
M  V30 2657 H 250.258 -0.797506 -0.512531 0
M  V30 2658 H 249.964 -2.59671 -2.372 0
M  V30 2659 H 249.838 -1.29551 -3.54255 0
M  V30 2660 H 252.225 -0.538745 -2.90141 0
M  V30 2661 H 252.306 -1.87305 -1.74214 0
M  V30 2662 H 251.95 -3.52688 -3.65477 0
M  V30 2663 H 251.88 -2.16453 -4.80058 0
M  V30 2664 H 254.371 -1.91234 -3.25941 0
M  V30 2665 H 254.684 -4.43721 -6.32718 0
M  V30 2666 H 253.029 -3.98481 -5.69419 0
M  V30 2667 H 256.22 -2.44108 -3.99411 0
M  V30 2668 H 256.393 -3.59225 -5.39316 0
M  V30 2669 N 249.799 1.42003 -0.683588 0
M  V30 2670 C 250.746 2.30798 -0.0107309 0
M  V30 2671 C 251.716 1.4645 0.783688 0
M  V30 2672 O 252.901 1.75263 0.754156 0
M  V30 2673 C 250.041 3.3238 0.928306 0
M  V30 2674 C 249.154 4.31814 0.126776 0
M  V30 2675 C 248.289 5.20468 1.06236 0
M  V30 2676 C 247.328 6.11577 0.253035 0
M  V30 2677 N 246.465 6.92754 1.14179 0
M  V30 2678 H 251.305 2.8778 -0.773727 0
M  V30 2679 H 248.842 1.41745 -0.393283 0
M  V30 2680 H 250.8 3.89813 1.48666 0
M  V30 2681 H 249.43 2.76976 1.65783 0
M  V30 2682 H 248.482 3.76427 -0.54833 0
M  V30 2683 H 249.794 4.96276 -0.501192 0
M  V30 2684 H 248.948 5.82677 1.69035 0
M  V30 2685 H 247.687 4.56204 1.7242 0
M  V30 2686 H 246.692 5.48428 -0.388108 0
M  V30 2687 H 247.917 6.77892 -0.404839 0
M  V30 2688 H 245.863 6.3111 1.78987 0
M  V30 2689 H 245.78 7.53855 0.569111 0
M  V30 2690 H 247.048 7.59441 1.75697 0
M  V30 2691 N 251.277 0.427512 1.51691 0
M  V30 2692 C 252.502 -0.143601 2.06902 0
M  V30 2693 C 252.927 -1.36536 1.29382 0
M  V30 2694 O 252.285 -1.78289 0.329043 0
M  V30 2695 C 252.333 -0.454207 3.57728 0
M  V30 2696 O 251.437 -1.54228 3.82475 0
M  V30 2697 H 250.778 -0.00617128 0.663971 0
M  V30 2698 H 253.308 0.606014 1.95419 0
M  V30 2699 H 253.318 -0.707525 4.01818 0
M  V30 2700 H 251.993 0.438812 4.13579 0
M  V30 2701 H 250.57 -1.2797 3.50254 0
M  V30 2702 N 252.755 -1.56801 0.158532 0
M  V30 2703 C 253.685 -2.20347 -0.772609 0
M  V30 2704 C 254.666 -1.15518 -1.24859 0
M  V30 2705 O 255.851 -1.43902 -1.30406 0
M  V30 2706 C 252.981 -2.83417 -2.00729 0
M  V30 2707 C 251.935 -3.94174 -1.66765 0
M  V30 2708 C 251.261 -4.44233 -2.97592 0
M  V30 2709 C 252.561 -5.14392 -0.905447 0
M  V30 2710 H 254.255 -2.98413 -0.242959 0
M  V30 2711 H 251.801 -1.43537 -0.115419 0
M  V30 2712 H 253.754 -3.26543 -2.6636 0
M  V30 2713 H 252.478 -2.02701 -2.56086 0
M  V30 2714 H 251.137 -3.51684 -1.03508 0
M  V30 2715 H 250.785 -3.60325 -3.50963 0
M  V30 2716 H 250.485 -5.18945 -2.75626 0
M  V30 2717 H 252.009 -4.90037 -3.64274 0
M  V30 2718 H 253.423 -5.5429 -1.46408 0
M  V30 2719 H 251.82 -5.9494 -0.7853 0
M  V30 2720 H 252.89 -4.84795 0.100668 0
M  V30 2721 N 254.233 0.115231 -1.57178 0
M  V30 2722 C 255.165 1.16694 -1.97269 0
M  V30 2723 C 256.178 1.37445 -0.872502 0
M  V30 2724 O 257.367 1.36454 -1.15077 0
M  V30 2725 C 254.467 2.52627 -2.25905 0
M  V30 2726 C 253.64 2.52427 -3.57211 0
M  V30 2727 C 252.699 3.70134 -3.74016 0
M  V30 2728 O 251.725 3.53546 -4.46087 0
M  V30 2729 N 252.927 4.88844 -3.13068 0
M  V30 2730 H 255.692 0.82588 -2.88096 0
M  V30 2731 H 253.253 0.304461 -1.59011 0
M  V30 2732 H 255.245 3.29937 -2.34359 0
M  V30 2733 H 253.815 2.789 -1.41186 0
M  V30 2734 H 253.035 1.60805 -3.5991 0
M  V30 2735 H 254.323 2.49353 -4.43509 0
M  V30 2736 H 253.721 5.05225 -2.54489 0
M  V30 2737 H 252.278 5.63817 -3.27037 0
M  V30 2738 N 255.711 1.52812 0.385517 0
M  V30 2739 C 256.641 1.80808 1.47752 0
M  V30 2740 C 257.622 0.660318 1.5676 0
M  V30 2741 O 258.807 0.908246 1.71652 0
M  V30 2742 C 255.937 1.98008 2.85324 0
M  V30 2743 C 254.891 3.13709 2.91154 0
M  V30 2744 C 254.217 3.16169 4.31209 0
M  V30 2745 C 255.517 4.52709 2.60483 0
M  V30 2746 H 257.211 2.72253 1.24573 0
M  V30 2747 H 254.757 1.31003 0.597839 0
M  V30 2748 H 256.71 2.16176 3.61726 0
M  V30 2749 H 255.434 1.03255 3.09848 0
M  V30 2750 H 254.093 2.95329 2.17201 0
M  V30 2751 H 253.741 2.19092 4.52778 0
M  V30 2752 H 253.441 3.93894 4.36029 0
M  V30 2753 H 254.965 3.36496 5.09512 0
M  V30 2754 H 256.379 4.71173 3.26602 0
M  V30 2755 H 254.776 5.32528 2.76648 0
M  V30 2756 H 255.846 4.59186 1.55809 0
M  V30 2757 N 257.189 -0.644168 1.43834 0
M  V30 2758 C 258.119 -1.76814 1.52509 0
M  V30 2759 C 259.1 -1.65823 0.379052 0
M  V30 2760 O 260.285 -1.84781 0.597466 0
M  V30 2761 C 257.415 -3.15288 1.4564 0
M  V30 2762 C 256.369 -3.41053 2.58586 0
M  V30 2763 C 255.695 -4.79421 2.36769 0
M  V30 2764 C 256.995 -3.34902 4.00797 0
M  V30 2765 H 258.689 -1.69812 2.46586 0
M  V30 2766 H 256.235 -0.815542 1.1868 0
M  V30 2767 H 258.188 -3.93681 1.50311 0
M  V30 2768 H 256.912 -3.23043 0.480725 0
M  V30 2769 H 255.571 -2.65035 2.53282 0
M  V30 2770 H 255.219 -4.83863 1.37424 0
M  V30 2771 H 254.919 -4.9762 3.12487 0
M  V30 2772 H 256.443 -5.6006 2.43238 0
M  V30 2773 H 257.857 -4.03218 4.07539 0
M  V30 2774 H 256.254 -3.64637 4.76613 0
M  V30 2775 H 257.324 -2.32928 4.25291 0
M  V30 2776 N 258.668 -1.30515 -0.883378 0
M  V30 2777 C 259.896 -1.22359 -1.66841 0
M  V30 2778 C 260.311 0.213296 -1.87591 0
M  V30 2779 O 259.668 1.14075 -1.42454 0
M  V30 2780 C 259.719 -1.95011 -3.04389 0
M  V30 2781 O 259.44 -3.3309 -2.84575 0
M  V30 2782 C 260.941 -1.93532 -3.98824 0
M  V30 2783 H 258.161 -0.423371 -0.520575 0
M  V30 2784 H 260.705 -1.72167 -1.10357 0
M  V30 2785 H 258.86 -1.48997 -3.57601 0
M  V30 2786 H 259.274 -3.69907 -3.71846 0
M  V30 2787 H 260.748 -2.48902 -4.92699 0
M  V30 2788 H 261.225 -0.914627 -4.29571 0
M  V30 2789 H 261.831 -2.39364 -3.51547 0
M  V30 2790 N 260.146 1.09593 -1.13257 0
M  V30 2791 C 261.093 2.1618 -0.808381 0
M  V30 2792 C 262.063 1.64517 0.228754 0
M  V30 2793 O 263.248 1.9053 0.101381 0
M  V30 2794 C 260.388 3.43973 -0.278675 0
M  V30 2795 C 259.501 4.09545 -1.37466 0
M  V30 2796 C 258.636 5.25088 -0.803479 0
M  V30 2797 C 257.675 5.82579 -1.87799 0
M  V30 2798 N 256.812 6.89486 -1.32488 0
M  V30 2799 H 261.652 2.43254 -1.72138 0
M  V30 2800 H 259.189 1.19392 -0.859294 0
M  V30 2801 H 261.147 4.17174 0.0465583 0
M  V30 2802 H 259.777 3.17223 0.597459 0
M  V30 2803 H 258.829 3.34226 -1.81652 0
M  V30 2804 H 260.141 4.48307 -2.18684 0
M  V30 2805 H 259.295 6.05178 -0.429427 0
M  V30 2806 H 258.034 4.87684 0.0397956 0
M  V30 2807 H 257.039 5.01152 -2.26113 0
M  V30 2808 H 258.264 6.22045 -2.72463 0
M  V30 2809 H 256.21 6.54064 -0.503575 0
M  V30 2810 H 256.127 7.27007 -2.07355 0
M  V30 2811 H 257.395 7.73336 -0.978336 0
M  V30 2812 N 261.624 0.925811 1.2754 0
M  V30 2813 C 262.901 0.483726 1.89524 0
M  V30 2814 C 263.281 -1.03809 1.83812 0
M  V30 2815 O 262.629 -1.89143 1.28207 0
M  V30 2816 C 262.839 1.02769 3.33526 0
M  V30 2817 C 264.187 1.08703 4.10449 0
M  V30 2818 O 265.211 0.977175 3.42534 0
M  V30 2819 O 264.07 1.25599 5.31871 0
M  V30 2820 H 261.164 0.15529 0.812289 0
M  V30 2821 H 263.71 1.01738 1.35822 0
M  V30 2822 H 262.482 2.07155 3.31967 0
M  V30 2823 H 262.105 0.475567 3.94746 0
M  V30 2824 N 263.102 -1.41638 0.69111 0
M  V30 2825 C 264.327 -2.06148 0.227583 0
M  V30 2826 C 264.752 -1.51652 -1.11281 0
M  V30 2827 O 264.11 -0.64164 -1.69566 0
M  V30 2828 C 264.158 -3.60095 0.190858 0
M  V30 2829 O 263.262 -4.03845 -0.835664 0
M  V30 2830 H 262.603 -0.654434 0.112306 0
M  V30 2831 H 265.133 -1.81484 0.944714 0
M  V30 2832 H 265.143 -4.07995 0.020207 0
M  V30 2833 H 263.818 -3.99129 1.16915 0
M  V30 2834 H 262.395 -3.67458 -0.63473 0
M  V30 2835 N 264.58 -0.43555 -1.51462 0
M  V30 2836 C 265.857 0.191364 -1.94662 0
M  V30 2837 C 266.237 1.60254 -1.37411 0
M  V30 2838 O 265.585 2.2152 -0.560458 0
M  V30 2839 C 265.795 0.17091 -3.48581 0
M  V30 2840 C 267.143 0.377357 -4.2292 0
M  V30 2841 O 268.167 0.249104 -3.55328 0
M  V30 2842 O 267.026 0.63247 -5.42828 0
M  V30 2843 H 264.12 0.130932 -0.816569 0
M  V30 2844 H 266.666 -0.4934 -1.62369 0
M  V30 2845 H 265.438 -0.815738 -3.82703 0
M  V30 2846 H 265.061 0.898659 -3.87311 0
M  V30 2847 N 266.058 1.56714 -0.166846 0
M  V30 2848 C 267.005 2.17746 0.765193 0
M  V30 2849 C 267.975 1.11614 1.23011 0
M  V30 2850 O 269.16 1.39745 1.29908 0
M  V30 2851 C 266.3 2.81882 1.9909 0
M  V30 2852 C 265.413 4.02462 1.56997 0
M  V30 2853 C 264.548 4.54537 2.749 0
M  V30 2854 C 263.587 5.67538 2.29275 0
M  V30 2855 N 262.724 6.14142 3.40255 0
M  V30 2856 H 267.564 2.97048 0.237952 0
M  V30 2857 H 265.101 1.4672 0.105725 0
M  V30 2858 H 267.059 3.17221 2.70974 0
M  V30 2859 H 265.689 2.05191 2.49192 0
M  V30 2860 H 264.741 3.72973 0.748037 0
M  V30 2861 H 266.053 4.84273 1.19503 0
M  V30 2862 H 265.207 4.92035 3.54946 0
M  V30 2863 H 263.946 3.71774 3.1565 0
M  V30 2864 H 262.951 5.29597 1.47674 0
M  V30 2865 H 264.176 6.52099 1.89588 0
M  V30 2866 H 262.122 5.3431 3.8059 0
M  V30 2867 H 262.039 6.9093 3.06841 0
M  V30 2868 H 263.307 6.56289 4.206 0
M  V30 2869 N 267.536 -0.106894 1.57237 0
M  V30 2870 C 268.782 -0.81373 1.85759 0
M  V30 2871 C 269.115 -1.78952 0.754315 0
M  V30 2872 O 268.39 -1.93029 -0.23879 0
M  V30 2873 C 268.673 -1.55293 3.24894 0
M  V30 2874 C 268.526 -0.595929 4.45835 0
M  V30 2875 C 269.845 -2.5063 3.61763 0
M  V30 2876 H 266.964 -0.294369 0.67566 0
M  V30 2877 H 269.606 -0.0776472 1.89841 0
M  V30 2878 H 267.756 -2.1804 3.21544 0
M  V30 2879 H 269.428 0.0236262 4.61294 0
M  V30 2880 H 267.671 0.0916191 4.33703 0
M  V30 2881 H 268.342 -1.15004 5.39887 0
M  V30 2882 H 270.818 -1.97982 3.65981 0
M  V30 2883 H 269.694 -2.99376 4.60071 0
M  V30 2884 H 269.955 -3.3385 2.89821 0
M  V30 2885 N 269.014 -1.53014 -0.377408 0
M  V30 2886 C 269.961 -1.78616 -1.46168 0
M  V30 2887 C 270.931 -0.629917 -1.53692 0
M  V30 2888 O 272.116 -0.870861 -1.69766 0
M  V30 2889 C 269.256 -1.97123 -2.8326 0
M  V30 2890 C 268.369 -3.24831 -2.84796 0
M  V30 2891 C 267.504 -3.33591 -4.13389 0
M  V30 2892 C 266.543 -4.55377 -4.09021 0
M  V30 2893 N 265.68 -4.61355 -5.29241 0
M  V30 2894 H 270.52 -2.71142 -1.23637 0
M  V30 2895 H 268.057 -1.34326 -0.599577 0
M  V30 2896 H 270.015 -2.05839 -3.62886 0
M  V30 2897 H 268.645 -1.07946 -3.04216 0
M  V30 2898 H 267.697 -3.25128 -1.97474 0
M  V30 2899 H 269.009 -4.14523 -2.77439 0
M  V30 2900 H 268.163 -3.41554 -5.01424 0
M  V30 2901 H 266.902 -2.41894 -4.23484 0
M  V30 2902 H 265.907 -4.47527 -3.19373 0
M  V30 2903 H 267.132 -5.48402 -4.00539 0
M  V30 2904 H 265.078 -3.72554 -5.39944 0
M  V30 2905 H 264.995 -5.44935 -5.24006 0
M  V30 2906 H 266.263 -4.73586 -6.19141 0
M  V30 2907 N 270.492 0.636531 -1.44174 0
M  V30 2908 C 271.402 1.77754 -1.53103 0
M  V30 2909 C 272.418 1.68928 -0.417034 0
M  V30 2910 O 273.594 1.89801 -0.6736 0
M  V30 2911 C 270.659 3.14115 -1.46741 0
M  V30 2912 C 269.72 3.34612 -2.68948 0
M  V30 2913 C 268.953 4.64467 -2.6288 0
M  V30 2914 O 269.176 5.44919 -1.68581 0
M  V30 2915 O 268.11 4.87049 -3.53648 0
M  V30 2916 H 271.936 1.73174 -2.49489 0
M  V30 2917 H 269.521 0.79709 -1.2636 0
M  V30 2918 H 271.403 3.95412 -1.45696 0
M  V30 2919 H 270.078 3.19249 -0.534975 0
M  V30 2920 H 268.985 2.53014 -2.75562 0
M  V30 2921 H 270.318 3.34336 -3.61221 0
M  V30 2922 N 271.97 1.30982 0.876444 0
M  V30 2923 C 273.217 1.20296 1.62896 0
M  V30 2924 C 273.545 -0.240395 1.93009 0
M  V30 2925 O 272.8 -1.18733 1.55567 0
M  V30 2926 C 273.099 1.98572 2.9716 0
M  V30 2927 C 272.765 3.48125 2.86566 0
M  V30 2928 C 271.427 3.88905 2.83383 0
M  V30 2929 C 273.779 4.43322 2.74071 0
M  V30 2930 C 271.107 5.2316 2.65556 0
M  V30 2931 C 273.459 5.77695 2.57781 0
M  V30 2932 C 272.123 6.17704 2.52979 0
M  V30 2933 H 271.393 0.440193 0.59608 0
M  V30 2934 H 274.04 1.62177 1.01837 0
M  V30 2935 H 272.345 1.49352 3.62217 0
M  V30 2936 H 274.042 1.8769 3.54364 0
M  V30 2937 H 270.632 3.15723 2.89856 0
M  V30 2938 H 274.816 4.12752 2.75589 0
M  V30 2939 H 270.072 5.53241 2.60259 0
M  V30 2940 H 274.246 6.51091 2.47089 0
M  V30 2941 H 271.873 7.21678 2.38924 0
M  V30 2942 N 273.449 -1.08991 1.13837 0
M  V30 2943 C 274.696 -1.81258 0.902882 0
M  V30 2944 C 275.024 -1.85936 -0.570803 0
M  V30 2945 O 274.279 -1.3267 -1.43865 0
M  V30 2946 C 274.578 -3.27042 1.44147 0
M  V30 2947 C 274.244 -3.4249 2.93276 0
M  V30 2948 C 272.906 -3.46414 3.33992 0
M  V30 2949 C 275.258 -3.4666 3.892 0
M  V30 2950 C 272.586 -3.52091 4.69307 0
M  V30 2951 C 274.938 -3.53872 5.24364 0
M  V30 2952 C 273.602 -3.56066 5.646 0
M  V30 2953 H 272.872 -0.663268 0.330388 0
M  V30 2954 H 275.519 -1.28368 1.42105 0
M  V30 2955 H 273.824 -3.82599 0.844097 0
M  V30 2956 H 275.521 -3.81499 1.23528 0
M  V30 2957 H 272.111 -3.40124 2.60794 0
M  V30 2958 H 276.295 -3.42865 3.58828 0
M  V30 2959 H 271.551 -3.52079 4.9985 0
M  V30 2960 H 275.725 -3.56043 5.98503 0
M  V30 2961 H 273.352 -3.60218 6.69438 0
M  V30 2962 N 274.927 -0.932562 -1.27047 0
M  V30 2963 C 275.837 -0.441219 -2.30414 0
M  V30 2964 C 276.853 0.480525 -1.67233 0
M  V30 2965 O 278.029 0.362151 -1.98117 0
M  V30 2966 C 275.094 0.293651 -3.45454 0
M  V30 2967 C 274.155 -0.663601 -4.2414 0
M  V30 2968 C 273.388 0.0362932 -5.33688 0
M  V30 2969 O 273.611 1.2548 -5.56427 0
M  V30 2970 O 272.545 -0.638015 -5.98509 0
M  V30 2971 H 276.371 -1.29962 -2.74488 0
M  V30 2972 H 273.956 -0.6981 -1.32087 0
M  V30 2973 H 275.838 0.707951 -4.15411 0
M  V30 2974 H 274.513 1.12758 -3.03426 0
M  V30 2975 H 273.42 -1.12768 -3.56699 0
M  V30 2976 H 274.753 -1.46489 -4.69896 0
M  V30 2977 N 276.405 1.4127 -0.698611 0
M  V30 2978 C 277.352 2.30773 -0.0352094 0
M  V30 2979 C 278.322 1.47273 0.768111 0
M  V30 2980 O 279.507 1.76053 0.735524 0
M  V30 2981 C 276.647 3.33346 0.893 0
M  V30 2982 C 275.76 4.31924 0.0809695 0
M  V30 2983 C 274.895 5.21566 1.0071 0
M  V30 2984 C 273.934 6.11811 0.188155 0
M  V30 2985 N 273.071 6.93926 1.06825 0
M  V30 2986 H 277.911 2.86943 -0.804207 0
M  V30 2987 H 275.448 1.4132 -0.408294 0
M  V30 2988 H 277.406 3.91368 1.44523 0
M  V30 2989 H 276.036 2.78719 1.62836 0
M  V30 2990 H 275.088 3.75825 -0.588224 0
M  V30 2991 H 276.4 4.95716 -0.553801 0
M  V30 2992 H 275.554 5.84437 1.62845 0
M  V30 2993 H 274.293 4.58008 1.67572 0
M  V30 2994 H 273.298 5.47986 -0.446254 0
M  V30 2995 H 274.523 6.77425 -0.476716 0
M  V30 2996 H 272.469 6.32973 1.72283 0
M  V30 2997 H 272.386 7.54416 0.489123 0
M  V30 2998 H 273.654 7.61262 1.67632 0
M  V30 2999 N 277.883 0.443576 1.51229 0
M  V30 3000 C 278.813 -0.355142 2.30783 0
M  V30 3001 C 279.794 -1.0154 1.36468 0
M  V30 3002 O 280.979 -1.01785 1.65389 0
M  V30 3003 C 278.109 -1.45312 3.15439 0
M  V30 3004 C 277.063 -0.916002 4.18083 0
M  V30 3005 C 276.389 -2.1102 4.91299 0
M  V30 3006 C 277.689 0.0538602 5.22272 0
M  V30 3007 H 279.383 0.308767 2.97804 0
M  V30 3008 H 276.929 0.149937 1.43217 0
M  V30 3009 H 278.882 -2.01914 3.69876 0
M  V30 3010 H 277.606 -2.14541 2.46252 0
M  V30 3011 H 276.265 -0.372145 3.64706 0
M  V30 3012 H 275.913 -2.78882 4.18609 0
M  V30 3013 H 275.613 -1.75717 5.60712 0
M  V30 3014 H 277.137 -2.68164 5.48562 0
M  V30 3015 H 278.551 -0.422069 5.71744 0
M  V30 3016 H 276.948 0.319776 5.99247 0
M  V30 3017 H 278.018 0.98858 4.74716 0
M  V30 3018 N 279.361 -1.56624 0.175154 0
M  V30 3019 C 280.293 -2.15333 -0.785128 0
M  V30 3020 C 281.306 -1.1099 -1.19101 0
M  V30 3021 O 282.495 -1.38162 -1.13019 0
M  V30 3022 C 279.595 -2.68427 -2.06882 0
M  V30 3023 C 278.768 -3.97466 -1.8259 0
M  V30 3024 C 277.827 -4.35585 -2.95215 0
M  V30 3025 O 276.853 -5.03389 -2.65684 0
M  V30 3026 N 278.055 -3.97457 -4.23094 0
M  V30 3027 H 280.82 -2.98359 -0.283187 0
M  V30 3028 H 278.381 -1.61898 -0.00749817 0
M  V30 3029 H 280.373 -2.90924 -2.81328 0
M  V30 3030 H 278.943 -1.89968 -2.48256 0
M  V30 3031 H 278.163 -3.83307 -0.920287 0
M  V30 3032 H 279.451 -4.81736 -1.63733 0
M  V30 3033 H 278.849 -3.42878 -4.49945 0
M  V30 3034 H 277.406 -4.24947 -4.9423 0
M  V30 3035 N 280.839 0.0985539 -1.57292 0
M  V30 3036 C 281.789 1.1261 -1.9825 0
M  V30 3037 C 282.773 1.35961 -0.860426 0
M  V30 3038 O 283.965 1.36711 -1.12424 0
M  V30 3039 C 281.094 2.44727 -2.40757 0
M  V30 3040 C 280.18 2.24764 -3.59642 0
M  V30 3041 N 280.571 1.74661 -4.74687 0
M  V30 3042 C 278.869 2.55344 -3.65672 0
M  V30 3043 C 279.57 1.68887 -5.56644 0
M  V30 3044 N 278.546 2.13976 -4.99715 0
M  V30 3045 H 282.348 0.731604 -2.84648 0
M  V30 3046 H 279.862 0.306029 -1.59491 0
M  V30 3047 H 281.859 3.19072 -2.68326 0
M  V30 3048 H 280.519 2.84917 -1.55733 0
M  V30 3049 H 281.53 1.43908 -4.97505 0
M  V30 3050 H 278.207 2.99081 -2.91302 0
M  V30 3051 H 279.597 1.3123 -6.5896 0
M  V30 3052 N 282.317 1.53212 0.369288 0
M  V30 3053 C 283.545 1.73119 1.13303 0
M  V30 3054 C 283.96 0.458455 1.83149 0
M  V30 3055 O 283.317 -0.568403 1.73423 0
M  V30 3056 C 283.368 2.89413 2.16616 0
M  V30 3057 O 283.089 4.11761 1.49614 0
M  V30 3058 C 284.59 3.21161 3.05566 0
M  V30 3059 H 281.81 0.579107 0.338934 0
M  V30 3060 H 284.354 1.99942 0.429338 0
M  V30 3061 H 282.509 2.64994 2.82589 0
M  V30 3062 H 282.923 4.76858 2.18419 0
M  V30 3063 H 284.397 4.05949 3.74045 0
M  V30 3064 H 284.874 2.36369 3.70171 0
M  V30 3065 H 285.48 3.47492 2.45213 0
M  V30 3066 N 283.795 -0.628877 1.44509 0
M  V30 3067 C 284.725 -1.75187 1.54376 0
M  V30 3068 C 285.706 -1.65411 0.396618 0
M  V30 3069 O 286.891 -1.84137 0.617031 0
M  V30 3070 C 284.021 -3.13725 1.48976 0
M  V30 3071 C 282.975 -3.38291 2.62189 0
M  V30 3072 C 282.301 -4.76883 2.41841 0
M  V30 3073 C 283.601 -3.30632 4.04326 0
M  V30 3074 H 285.295 -1.67187 2.48373 0
M  V30 3075 H 282.841 -0.802909 1.19538 0
M  V30 3076 H 284.794 -3.92064 1.54478 0
M  V30 3077 H 283.518 -3.22515 0.514961 0
M  V30 3078 H 282.177 -2.62334 2.56079 0
M  V30 3079 H 281.825 -4.82378 1.42548 0
M  V30 3080 H 281.525 -4.94278 3.17747 0
M  V30 3081 H 283.049 -5.57449 2.49165 0
M  V30 3082 H 284.463 -3.98873 4.11793 0
M  V30 3083 H 282.86 -3.59561 4.80454 0
M  V30 3084 H 283.93 -2.28404 4.27738 0
M  V30 3085 N 285.273 -1.31445 -0.869486 0
M  V30 3086 C 286.55 -1.11795 -1.60503 0
M  V30 3087 C 286.93 0.327168 -2.08549 0
M  V30 3088 O 286.278 1.32135 -1.8642 0
M  V30 3089 C 286.488 -2.13258 -2.76265 0
M  V30 3090 C 287.836 -2.45805 -3.46215 0
M  V30 3091 O 288.86 -2.11688 -2.86473 0
M  V30 3092 O 287.719 -3.04228 -4.5399 0
M  V30 3093 H 284.813 -0.430421 -0.706163 0
M  V30 3094 H 287.359 -1.42925 -0.914907 0
M  V30 3095 H 286.131 -3.10461 -2.3818 0
M  V30 3096 H 285.754 -1.83035 -3.52964 0
M  V30 3097 N 286.751 1.08385 -1.14413 0
M  V30 3098 C 287.683 2.1519 -0.789036 0
M  V30 3099 C 288.696 1.61638 0.19417 0
M  V30 3100 O 289.885 1.78479 -0.0275711 0
M  V30 3101 C 286.985 3.38565 -0.15058 0
M  V30 3102 C 286.158 4.21501 -1.16857 0
M  V30 3103 C 285.217 5.23277 -0.553832 0
M  V30 3104 O 284.243 5.56041 -1.21686 0
M  V30 3105 N 285.445 5.76629 0.669296 0
M  V30 3106 H 288.21 2.46257 -1.70814 0
M  V30 3107 H 285.771 1.24198 -1.03858 0
M  V30 3108 H 287.763 4.03777 0.273181 0
M  V30 3109 H 286.333 3.05299 0.671667 0
M  V30 3110 H 285.553 3.52265 -1.76926 0
M  V30 3111 H 286.841 4.73731 -1.85624 0
M  V30 3112 H 286.239 5.52243 1.22654 0
M  V30 3113 H 284.796 6.43521 1.03556 0
M  V30 3114 N 288.23 0.939286 1.26551 0
M  V30 3115 C 289.177 0.446088 2.26448 0
M  V30 3116 C 290.147 -0.493234 1.58608 0
M  V30 3117 O 291.332 -0.409857 1.86346 0
M  V30 3118 C 288.472 -0.284375 3.43926 0
M  V30 3119 C 287.585 0.690399 4.26448 0
M  V30 3120 C 286.72 -0.0610712 5.31165 0
M  V30 3121 C 285.759 0.905649 6.05363 0
M  V30 3122 N 284.896 0.186055 7.01853 0
M  V30 3123 H 289.736 1.30291 2.68008 0
M  V30 3124 H 287.273 0.65371 1.31776 0
M  V30 3125 H 289.231 -0.724313 4.10864 0
M  V30 3126 H 287.861 -1.10535 3.03285 0
M  V30 3127 H 286.913 1.24885 3.59316 0
M  V30 3128 H 288.225 1.42873 4.779 0
M  V30 3129 H 287.379 -0.56038 6.04106 0
M  V30 3130 H 286.118 -0.832297 4.80546 0
M  V30 3131 H 285.123 1.4161 5.3125 0
M  V30 3132 H 286.348 1.67685 6.58072 0
M  V30 3133 H 284.294 -0.566714 6.53548 0
M  V30 3134 H 284.211 0.863752 7.51049 0
M  V30 3135 H 285.479 -0.292221 7.78952 0
M  V30 3136 N 289.708 -1.40897 0.706093 0
M  V30 3137 C 290.655 -2.30751 0.0474474 0
M  V30 3138 C 291.625 -1.47678 -0.76029 0
M  V30 3139 O 292.81 -1.76441 -0.726177 0
M  V30 3140 C 289.95 -3.33815 -0.875309 0
M  V30 3141 C 289.063 -4.31961 -0.0580623 0
M  V30 3142 C 288.198 -5.22093 -0.979425 0
M  V30 3143 C 287.237 -6.11902 -0.155706 0
M  V30 3144 N 286.374 -6.94482 -1.03144 0
M  V30 3145 H 291.214 -2.86513 0.819413 0
M  V30 3146 H 288.751 -1.41102 0.415783 0
M  V30 3147 H 290.709 -3.92129 -1.42446 0
M  V30 3148 H 289.339 -2.79579 -1.61356 0
M  V30 3149 H 288.391 -3.75507 0.608147 0
M  V30 3150 H 289.703 -4.95415 0.580082 0
M  V30 3151 H 288.857 -5.85292 -1.59744 0
M  V30 3152 H 287.596 -4.5889 -1.65141 0
M  V30 3153 H 286.601 -5.47742 0.475309 0
M  V30 3154 H 287.826 -6.77162 0.512635 0
M  V30 3155 H 285.772 -6.33877 -1.68924 0
M  V30 3156 H 285.689 -7.54665 -0.449108 0
M  V30 3157 H 286.957 -7.6214 -1.63593 0
M  V30 3158 N 291.186 -0.45159 -1.50991 0
M  V30 3159 C 292.134 0.366864 -2.29689 0
M  V30 3160 C 293.128 1.00809 -1.36139 0
M  V30 3161 O 294.334 0.941427 -1.53418 0
M  V30 3162 H 290.709 0.137133 -0.739391 0
M  V30 3163 H 292.68 -0.317538 -2.96706 0
M  V30 3164 C 291.429 1.44751 -3.16137 0
M  V30 3165 H 290.752 0.963473 -3.88017 0
M  V30 3166 H 292.192 1.99315 -3.74232 0
M  V30 3167 C 290.651 2.43869 -2.32442 0
M  V30 3168 O 291.181 3.4872 -1.99392 0
M  V30 3169 N 289.387 2.15105 -1.95392 0
M  V30 3170 H 288.934 1.29866 -2.22469 0
M  V30 3171 H 288.892 2.81661 -1.39693 0
M  V30 3172 N 292.664 1.56529 -0.183458 0
M  V30 3173 C 293.574 2.22144 0.754272 0
M  V30 3174 C 294.59 1.21684 1.24374 0
M  V30 3175 O 295.766 1.54385 1.29333 0
M  V30 3176 C 292.831 2.85884 1.96141 0
M  V30 3177 C 291.892 4.01579 1.51765 0
M  V30 3178 C 291.125 4.6227 2.66725 0
M  V30 3179 O 291.348 4.21865 3.83909 0
M  V30 3180 O 290.282 5.51936 2.40104 0
M  V30 3181 H 294.108 3.02861 0.225527 0
M  V30 3182 H 291.693 1.49331 0.0453032 0
M  V30 3183 H 293.575 3.26253 2.66715 0
M  V30 3184 H 292.25 2.08154 2.47899 0
M  V30 3185 H 291.157 3.65856 0.781049 0
M  V30 3186 H 292.49 4.80938 1.04686 0
M  V30 3187 N 294.142 -0.090211 1.57342 0
M  V30 3188 C 295.391 -0.791531 1.8552 0
M  V30 3189 C 295.704 -1.79659 0.773441 0
M  V30 3190 O 296.91 -2.54616 0.942497 0
M  V30 3191 C 295.366 -1.45856 3.2902 0
M  V30 3192 C 294.974 -0.493017 4.45279 0
M  V30 3193 C 296.718 -2.14332 3.66418 0
M  V30 3194 C 294.625 -1.16491 5.79814 0
M  V30 3195 H 293.555 -0.299356 0.692027 0
M  V30 3196 H 296.206 -0.0445343 1.83446 0
M  V30 3197 H 294.588 -2.25318 3.2565 0
M  V30 3198 H 295.762 0.270464 4.60006 0
M  V30 3199 H 294.077 0.0863061 4.16311 0
M  V30 3200 H 296.674 -2.65344 4.64216 0
M  V30 3201 H 297.017 -2.93447 2.95287 0
M  V30 3202 H 297.55 -1.41724 3.71698 0
M  V30 3203 H 294.289 -0.41447 6.54188 0
M  V30 3204 H 293.809 -1.8997 5.68921 0
M  V30 3205 H 295.488 -1.69001 6.24538 0
M  V30 3206 N 295.62 -1.53406 -0.361157 0
M  V30 3207 C 296.55 -1.83136 -1.44857 0
M  V30 3208 C 297.531 -0.685174 -1.5569 0
M  V30 3209 O 298.716 -0.93544 -1.70186 0
M  V30 3210 C 295.846 -2.02522 -2.82138 0
M  V30 3211 C 294.8 -3.18302 -2.86126 0
M  V30 3212 C 294.126 -3.22989 -4.26125 0
M  V30 3213 C 295.426 -4.56796 -2.53248 0
M  V30 3214 H 297.12 -2.74201 -1.20226 0
M  V30 3215 H 294.666 -1.31938 -0.576922 0
M  V30 3216 H 296.619 -2.21904 -3.58241 0
M  V30 3217 H 295.343 -1.08172 -3.08166 0
M  V30 3218 H 294.002 -2.98747 -2.12475 0
M  V30 3219 H 293.65 -2.26267 -4.49235 0
M  V30 3220 H 293.35 -4.00781 -4.29708 0
M  V30 3221 H 294.874 -3.44559 -5.04094 0
M  V30 3222 H 296.288 -4.7631 -3.19064 0
M  V30 3223 H 294.685 -5.36862 -2.68141 0
M  V30 3224 H 295.755 -4.61606 -1.48484 0
M  V30 3225 N 297.098 0.621204 -1.44841 0
M  V30 3226 C 298.323 1.41244 -1.51871 0
M  V30 3227 C 298.748 1.87519 -0.147764 0
M  V30 3228 O 298.106 1.59334 0.865 0
M  V30 3229 C 298.154 2.60221 -2.49634 0
M  V30 3230 O 297.258 3.60395 -2.00473 0
M  V30 3231 H 296.599 0.42223 -0.512463 0
M  V30 3232 H 299.129 0.757305 -1.90069 0
M  V30 3233 H 299.139 3.0764 -2.67996 0
M  V30 3234 H 297.814 2.25887 -3.4921 0
M  V30 3235 H 296.391 3.19717 -1.91925 0
M  V30 3236 N 298.576 1.31904 0.862503 0
M  V30 3237 C 299.853 1.12644 1.59908 0
M  V30 3238 C 300.233 -0.316104 2.0872 0
M  V30 3239 O 299.581 -1.31145 1.87118 0
M  V30 3240 C 299.791 2.1472 2.7513 0
M  V30 3241 C 301.139 2.47637 3.44907 0
M  V30 3242 O 302.163 2.13205 2.85346 0
M  V30 3243 O 301.022 3.06632 4.52371 0
M  V30 3244 H 298.116 0.43416 0.703871 0
M  V30 3245 H 300.662 1.43408 0.907314 0
M  V30 3246 H 299.434 3.1172 2.3653 0
M  V30 3247 H 299.057 1.84905 3.51989 0
M  V30 3248 N 300.054 -1.07777 1.14986 0
M  V30 3249 C 301.301 -1.8029 0.922056 0
M  V30 3250 C 301.629 -1.86531 -0.55105 0
M  V30 3251 O 300.884 -1.34189 -1.42449 0
M  V30 3252 C 301.183 -3.25495 1.47608 0
M  V30 3253 C 300.849 -3.39361 2.96893 0
M  V30 3254 C 299.511 -3.42852 3.37647 0
M  V30 3255 C 301.863 -3.42512 3.92854 0
M  V30 3256 C 299.191 -3.47094 4.73015 0
M  V30 3257 C 301.543 -3.4829 5.28088 0
M  V30 3258 C 300.207 -3.50058 5.68345 0
M  V30 3259 H 299.477 -0.659727 0.337404 0
M  V30 3260 H 302.124 -1.26854 1.43459 0
M  V30 3261 H 300.429 -3.81683 0.88463 0
M  V30 3262 H 302.126 -3.80168 1.27568 0
M  V30 3263 H 298.716 -3.37339 2.64387 0
M  V30 3264 H 302.9 -3.3904 3.62444 0
M  V30 3265 H 298.156 -3.46758 5.03556 0
M  V30 3266 H 302.33 -3.49675 6.02246 0
M  V30 3267 H 299.957 -3.53097 6.73221 0
M  V30 3268 N 301.532 -0.945985 -1.26051 0
M  V30 3269 C 302.442 -0.465633 -2.29933 0
M  V30 3270 C 303.458 0.462761 -1.67733 0
M  V30 3271 O 304.634 0.341118 -1.9849 0
M  V30 3272 C 301.699 0.256994 -3.45746 0
M  V30 3273 C 300.76 -0.708549 -4.23412 0
M  V30 3274 C 299.993 -0.0203135 -5.33696 0
M  V30 3275 O 300.216 1.19571 -5.57726 0
M  V30 3276 O 299.15 -0.701459 -5.97799 0
M  V30 3277 H 302.976 -1.32866 -2.73094 0
M  V30 3278 H 300.561 -0.712071 -1.31339 0
M  V30 3279 H 302.443 0.663852 -4.16138 0
M  V30 3280 H 301.118 1.09533 -3.04605 0
M  V30 3281 H 300.025 -1.16545 -3.55483 0
M  V30 3282 H 301.358 -1.51465 -4.68315 0
M  V30 3283 N 303.011 1.40521 -0.713556 0
M  V30 3284 C 304.239 2.05237 -0.261775 0
M  V30 3285 C 304.654 1.53755 1.09567 0
M  V30 3286 O 304.011 0.693268 1.6882 0
M  V30 3287 C 304.062 3.60763 -0.230706 0
M  V30 3288 O 303.783 4.10345 -1.53455 0
M  V30 3289 C 305.284 4.42651 0.239874 0
M  V30 3290 H 302.504 0.660533 -0.118057 0
M  V30 3291 H 305.048 1.79967 -0.971192 0
M  V30 3292 H 303.203 3.8501 0.429661 0
M  V30 3293 H 303.617 5.04526 -1.43366 0
M  V30 3294 H 305.091 5.51599 0.210468 0
M  V30 3295 H 305.568 4.20082 1.28171 0
M  V30 3296 H 306.174 4.23507 -0.390142 0
M  V30 3297 N 304.489 0.459591 1.5075 0
M  V30 3298 C 305.422 -0.386257 2.24907 0
M  V30 3299 C 306.4 -1.006 1.27744 0
M  V30 3300 O 307.584 -1.04416 1.56938 0
M  V30 3301 C 304.711 -1.54021 3.01654 0
M  V30 3302 C 303.757 -1.03898 4.13651 0
M  V30 3303 S 304.59 0.0370501 5.35487 0
M  V30 3304 C 305.746 -1.12105 6.15779 0
M  V30 3305 H 305.979 0.243272 2.96303 0
M  V30 3306 H 303.512 0.244339 1.52454 0
M  V30 3307 H 305.47 -2.20163 3.46466 0
M  V30 3308 H 304.131 -2.14121 2.29806 0
M  V30 3309 H 303.324 -1.90254 4.66711 0
M  V30 3310 H 302.926 -0.45545 3.71216 0
M  V30 3311 H 305.218 -2.03501 6.46215 0
M  V30 3312 H 306.161 -0.62995 7.05292 0
M  V30 3313 H 306.569 -1.36967 5.47631 0
M  V30 3314 N 305.967 -1.56429 0.191757 0
M  V30 3315 C 306.914 -2.18936 -0.730454 0
M  V30 3316 C 307.884 -1.13557 -1.21219 0
M  V30 3317 O 309.069 -1.41794 -1.27668 0
M  V30 3318 C 306.209 -2.85013 -1.9458 0
M  V30 3319 C 305.322 -4.04909 -1.50574 0
M  V30 3320 C 304.457 -4.58853 -2.67634 0
M  V30 3321 C 303.496 -5.71114 -2.20217 0
M  V30 3322 N 302.633 -6.19478 -3.30442 0
M  V30 3323 H 307.473 -2.97389 -0.190664 0
M  V30 3324 H 305.01 -1.46869 -0.0823694 0
M  V30 3325 H 306.968 -3.21492 -2.65893 0
M  V30 3326 H 305.598 -2.09129 -2.45896 0
M  V30 3327 H 304.65 -3.74115 -0.688605 0
M  V30 3328 H 305.962 -4.86113 -1.11784 0
M  V30 3329 H 305.116 -4.97619 -3.47074 0
M  V30 3330 H 303.855 -3.76749 -3.09696 0
M  V30 3331 H 302.86 -5.31879 -1.3923 0
M  V30 3332 H 304.085 -6.55033 -1.79189 0
M  V30 3333 H 302.031 -5.40297 -3.72041 0
M  V30 3334 H 301.948 -6.95725 -2.9581 0
M  V30 3335 H 303.216 -6.62898 -4.10106 0
M  V30 3336 N 307.445 0.0818655 -1.57387 0
M  V30 3337 C 308.375 1.09885 -2.06028 0
M  V30 3338 C 309.356 1.4098 -0.951774 0
M  V30 3339 O 310.541 1.50781 -1.22387 0
M  V30 3340 C 307.671 2.4151 -2.4958 0
M  V30 3341 C 306.625 2.24792 -3.64215 0
M  V30 3342 C 305.951 3.61712 -3.93787 0
M  V30 3343 C 307.251 1.67749 -4.94629 0
M  V30 3344 H 308.945 0.694128 -2.91243 0
M  V30 3345 H 306.491 0.332448 -1.4011 0
M  V30 3346 H 308.444 3.12939 -2.82219 0
M  V30 3347 H 307.168 2.83943 -1.61381 0
M  V30 3348 H 305.827 1.55807 -3.31843 0
M  V30 3349 H 305.475 4.01697 -3.02735 0
M  V30 3350 H 305.175 3.51368 -4.70971 0
M  V30 3351 H 306.699 4.34587 -4.28913 0
M  V30 3352 H 308.113 2.29032 -5.25564 0
M  V30 3353 H 306.51 1.68128 -5.76067 0
M  V30 3354 H 307.58 0.638059 -4.80684 0
M  V30 3355 N 308.923 1.53595 0.353017 0
M  V30 3356 C 309.886 1.80232 1.41594 0
M  V30 3357 C 310.886 0.673081 1.46035 0
M  V30 3358 O 312.076 0.941335 1.46576 0
M  V30 3359 C 309.208 1.93578 2.80607 0
M  V30 3360 H 310.401 2.75174 1.19244 0
M  V30 3361 H 307.954 1.44864 0.586872 0
M  V30 3362 H 308.689 1.00746 3.08254 0
M  V30 3363 H 308.474 2.75724 2.78781 0
M  V30 3364 H 309.964 2.15735 3.57558 0
M  V30 3365 N 310.401 -0.613514 1.45168 0
M  V30 3366 C 311.647 -1.37471 1.49096 0
M  V30 3367 C 311.98 -1.93765 0.129901 0
M  V30 3368 O 311.255 -1.74707 -0.854858 0
M  V30 3369 C 311.538 -2.52701 2.56542 0
M  V30 3370 C 311.391 -2.01643 4.0207 0
M  V30 3371 C 312.71 -3.54849 2.60327 0
M  V30 3372 H 309.829 -0.498502 0.54283 0
M  V30 3373 H 312.471 -0.692125 1.76945 0
M  V30 3374 H 310.621 -3.10931 2.32926 0
M  V30 3375 H 312.293 -1.48108 4.36877 0
M  V30 3376 H 310.536 -1.32688 4.13009 0
M  V30 3377 H 311.207 -2.84681 4.72928 0
M  V30 3378 H 313.683 -3.0645 2.81474 0
M  V30 3379 H 312.559 -4.32973 3.37381 0
M  V30 3380 H 312.82 -4.10079 1.6519 0
M  V30 3381 N 311.879 -1.3236 -0.855495 0
M  V30 3382 C 312.812 -1.15559 -1.96777 0
M  V30 3383 C 313.79 -0.0552681 -1.62506 0
M  V30 3384 O 314.974 -0.214419 -1.87277 0
M  V30 3385 C 312.101 -0.768851 -3.29858 0
M  V30 3386 C 311.147 -1.87429 -3.83109 0
M  V30 3387 S 311.98 -3.48243 -4.06801 0
M  V30 3388 C 313.136 -3.11539 -5.42858 0
M  V30 3389 H 313.369 -2.09717 -2.10727 0
M  V30 3390 H 310.902 -1.17011 -1.00737 0
M  V30 3391 H 312.86 -0.55248 -4.06765 0
M  V30 3392 H 311.521 0.153857 -3.13723 0
M  V30 3393 H 310.714 -1.55667 -4.79358 0
M  V30 3394 H 310.316 -2.04647 -3.13042 0
M  V30 3395 H 312.608 -2.61331 -6.2507 0
M  V30 3396 H 313.551 -4.06806 -5.79582 0
M  V30 3397 H 313.959 -2.48582 -5.06821 0
M  V30 3398 N 313.357 1.07166 -1.15556 0
M  V30 3399 C 314.289 2.14341 -0.811815 0
M  V30 3400 C 315.302 1.61835 0.177015 0
M  V30 3401 O 316.491 1.78439 -0.0464996 0
M  V30 3402 C 313.591 3.38387 -0.186481 0
M  V30 3403 C 312.764 4.20238 -1.21321 0
M  V30 3404 C 311.823 5.2266 -0.609302 0
M  V30 3405 O 310.849 5.54719 -1.27576 0
M  V30 3406 N 312.051 5.77306 0.608099 0
M  V30 3407 H 314.816 2.44431 -1.73417 0
M  V30 3408 H 312.377 1.23089 -1.0517 0
M  V30 3409 H 314.369 4.04044 0.230339 0
M  V30 3410 H 312.939 3.05994 0.639249 0
M  V30 3411 H 312.159 3.50369 -1.80652 0
M  V30 3412 H 313.447 4.71736 -1.90638 0
M  V30 3413 H 312.845 5.53513 1.1679 0
M  V30 3414 H 311.402 6.44583 0.96725 0
M  V30 3415 N 314.835 0.952656 1.25548 0
M  V30 3416 C 315.798 0.475794 2.24207 0
M  V30 3417 C 316.798 -0.419428 1.55234 0
M  V30 3418 O 317.988 -0.216994 1.72843 0
M  V30 3419 C 315.12 -0.312814 3.39462 0
M  V30 3420 H 316.313 1.34779 2.67908 0
M  V30 3421 H 313.866 0.735739 1.37901 0
M  V30 3422 H 314.601 -1.20257 3.01179 0
M  V30 3423 H 314.386 0.329404 3.90714 0
M  V30 3424 H 315.876 -0.635986 4.12729 0
M  V30 3425 N 316.313 -1.40141 0.720998 0
M  V30 3426 C 317.543 -2.04798 0.27226 0
M  V30 3427 C 317.951 -1.54442 -1.09289 0
M  V30 3428 O 317.294 -0.698342 -1.69908 0
M  V30 3429 C 317.356 -3.59048 0.18027 0
M  V30 3430 C 317.02 -4.32317 1.48159 0
M  V30 3431 C 318.017 -4.59902 2.42458 0
M  V30 3432 C 315.702 -4.71125 1.74202 0
M  V30 3433 C 317.696 -5.25288 3.61042 0
M  V30 3434 C 315.383 -5.36242 2.93066 0
M  V30 3435 C 316.381 -5.63254 3.86308 0
M  V30 3436 O 316.069 -6.27024 5.03086 0
M  V30 3437 H 315.801 -0.665419 0.119139 0
M  V30 3438 H 318.355 -1.80436 0.981432 0
M  V30 3439 H 316.585 -3.82251 -0.58489 0
M  V30 3440 H 318.274 -4.05221 -0.234618 0
M  V30 3441 H 319.04 -4.30379 2.23604 0
M  V30 3442 H 314.919 -4.49466 1.02477 0
M  V30 3443 H 318.463 -5.46289 4.33837 0
M  V30 3444 H 314.36 -5.65185 3.11826 0
M  V30 3445 H 315.128 -6.4552 5.03235 0
M  V30 3446 N 317.792 -0.46758 -1.50504 0
M  V30 3447 C 319.069 0.15003 -1.95024 0
M  V30 3448 C 319.449 1.57304 -1.40779 0
M  V30 3449 O 318.797 2.20281 -0.607319 0
M  V30 3450 C 319.007 0.0969324 -3.48865 0
M  V30 3451 C 320.355 0.287565 -4.23625 0
M  V30 3452 O 321.379 0.173678 -3.55776 0
M  V30 3453 O 320.238 0.517186 -5.44047 0
M  V30 3454 H 317.332 0.113582 -0.819163 0
M  V30 3455 H 319.878 -0.52773 -1.61286 0
M  V30 3456 H 318.65 -0.896732 -3.80886 0
M  V30 3457 H 318.273 0.816303 -3.8913 0
M  V30 3458 N 319.27 1.56325 -0.20005 0
M  V30 3459 C 320.681 1.8408 0.31167 0
M  V30 3460 C 321.032 1.12087 1.61031 0
M  V30 3461 O 320.157 0.38332 2.12978 0
M  V30 3462 C 320.752 3.33932 0.57226 0
M  V30 3463 C 319.311 3.6208 1.02834 0
M  V30 3464 C 318.458 2.77186 0.079634 0
M  V30 3465 H 321.409 1.52939 -0.423729 0
M  V30 3466 H 321.43 3.52971 1.42096 0
M  V30 3467 H 320.942 3.86303 -0.37308 0
M  V30 3468 H 319.043 3.15147 1.98778 0
M  V30 3469 H 319.156 4.7023 0.917624 0
M  V30 3470 H 317.52 2.47951 0.582448 0
M  V30 3471 H 318.303 3.32347 -0.860238 0
M  V30 3472 N 320.748 -0.0735177 1.57428 0
M  V30 3473 C 321.658 -1.10547 2.06922 0
M  V30 3474 C 322.674 -1.42506 0.998402 0
M  V30 3475 O 323.85 -1.52717 1.31299 0
M  V30 3476 C 320.915 -2.40019 2.50184 0
M  V30 3477 C 319.976 -2.15046 3.71556 0
M  V30 3478 C 319.209 -3.38345 4.12745 0
M  V30 3479 O 319.432 -4.47399 3.53822 0
M  V30 3480 O 318.366 -3.2666 5.05546 0
M  V30 3481 H 322.192 -0.715013 2.95163 0
M  V30 3482 H 319.777 -0.287531 1.46607 0
M  V30 3483 H 321.659 -3.16218 2.78539 0
M  V30 3484 H 320.334 -2.78447 1.65072 0
M  V30 3485 H 319.241 -1.36558 3.48285 0
M  V30 3486 H 320.574 -1.81499 4.57514 0
M  V30 3487 N 322.226 -1.5378 -0.344866 0
M  V30 3488 C 323.475 -1.7018 -1.08267 0
M  V30 3489 C 323.788 -0.471 -1.89845 0
M  V30 3490 O 324.994 -0.515917 -2.66553 0
M  V30 3491 C 323.45 -3.00923 -1.97417 0
M  V30 3492 C 323.058 -4.31335 -1.21053 0
M  V30 3493 C 324.802 -3.26688 -2.71063 0
M  V30 3494 C 322.709 -5.53153 -2.09225 0
M  V30 3495 H 321.639 -0.634138 -0.407903 0
M  V30 3496 H 324.29 -1.8028 -0.342246 0
M  V30 3497 H 322.672 -2.84676 -2.75274 0
M  V30 3498 H 323.846 -4.58281 -0.481159 0
M  V30 3499 H 322.161 -4.12173 -0.591813 0
M  V30 3500 H 324.758 -4.1489 -3.37299 0
M  V30 3501 H 325.101 -2.43639 -3.37558 0
M  V30 3502 H 325.634 -3.43705 -2.0028 0
M  V30 3503 H 322.373 -6.38741 -1.47274 0
M  V30 3504 H 321.893 -5.30458 -2.79955 0
M  V30 3505 H 323.572 -5.88744 -2.68308 0
M  V30 3506 N 323.704 0.605807 -1.45491 0
M  V30 3507 C 324.652 1.73754 -1.54636 0
M  V30 3508 C 325.646 1.64207 -0.416219 0
M  V30 3509 O 326.852 1.69979 -0.592199 0
M  V30 3510 H 323.227 0.574073 -0.485741 0
M  V30 3511 H 325.198 1.63169 -2.49837 0
M  V30 3512 C 323.947 3.12135 -1.53189 0
M  V30 3513 H 323.27 3.20141 -2.39478 0
M  V30 3514 H 324.71 3.91147 -1.63645 0
M  V30 3515 C 323.169 3.35921 -0.256616 0
M  V30 3516 O 323.699 3.96194 0.662798 0
M  V30 3517 N 321.905 2.90204 -0.151751 0
M  V30 3518 H 321.452 2.41336 -0.90081 0
M  V30 3519 H 321.41 3.06492 0.700699 0
M  V30 3520 N 325.182 1.32811 0.848464 0
M  V30 3521 C 326.129 1.22265 1.95755 0
M  V30 3522 C 327.099 0.103413 1.65778 0
M  V30 3523 O 328.284 0.280033 1.88734 0
M  V30 3524 C 325.424 0.958014 3.31536 0
M  V30 3525 C 324.537 2.16262 3.73971 0
M  V30 3526 C 323.672 1.83295 4.98575 0
M  V30 3527 C 322.711 3.00041 5.33518 0
M  V30 3528 N 321.848 2.67125 6.49299 0
M  V30 3529 H 326.688 2.17128 2.04107 0
M  V30 3530 H 324.225 1.07982 0.998913 0
M  V30 3531 H 326.183 0.785052 4.09747 0
M  V30 3532 H 324.813 0.046159 3.22767 0
M  V30 3533 H 323.865 2.44565 2.91362 0
M  V30 3534 H 325.177 3.03572 3.95785 0
M  V30 3535 H 324.331 1.62586 5.84509 0
M  V30 3536 H 323.07 0.932078 4.7871 0
M  V30 3537 H 322.075 3.21374 4.46093 0
M  V30 3538 H 323.3 3.90869 5.55336 0
M  V30 3539 H 321.246 1.79586 6.3094 0
M  V30 3540 H 321.163 3.47965 6.71161 0
M  V30 3541 H 322.431 2.49861 7.3837 0
M  V30 3542 N 326.66 -1.06551 1.16123 0
M  V30 3543 C 327.59 -2.15935 0.88851 0
M  V30 3544 C 328.571 -1.69306 -0.164135 0
M  V30 3545 O 329.756 -1.94193 -0.0167857 0
M  V30 3546 C 326.886 -3.45149 0.385942 0
M  V30 3547 C 325.84 -4.05271 1.3762 0
M  V30 3548 C 325.166 -5.29664 0.732137 0
M  V30 3549 C 326.466 -4.44355 2.74493 0
M  V30 3550 H 328.16 -2.39006 1.80323 0
M  V30 3551 H 325.706 -1.14866 0.868435 0
M  V30 3552 H 327.659 -4.21004 0.182647 0
M  V30 3553 H 326.383 -3.21689 -0.564274 0
M  V30 3554 H 325.042 -3.3147 1.56599 0
M  V30 3555 H 324.69 -5.02499 -0.224483 0
M  V30 3556 H 324.39 -5.70848 1.39307 0
M  V30 3557 H 325.914 -6.08218 0.538802 0
M  V30 3558 H 327.328 -5.11303 2.59311 0
M  V30 3559 H 325.725 -4.96515 3.37035 0
M  V30 3560 H 326.795 -3.55339 3.29943 0
M  V30 3561 N 328.138 -0.959301 -1.25041 0
M  V30 3562 C 329.086 -0.474437 -2.2771 0
M  V30 3563 C 330.08 0.457697 -1.631 0
M  V30 3564 O 331.286 0.333912 -1.76876 0
M  V30 3565 H 327.661 -0.134936 -0.739795 0
M  V30 3566 H 329.632 -1.35251 -2.65988 0
M  V30 3567 C 328.381 0.227884 -3.46952 0
M  V30 3568 H 327.704 -0.480248 -3.96905 0
M  V30 3569 H 329.144 0.531091 -4.20661 0
M  V30 3570 C 327.603 1.452 -3.04004 0
M  V30 3571 O 328.133 2.54949 -3.10426 0
M  V30 3572 N 326.339 1.31502 -2.59144 0
M  V30 3573 H 325.886 0.422065 -2.54119 0
M  V30 3574 H 325.844 2.13521 -2.30773 0
M  V30 3575 N 329.616 1.39756 -0.72842 0
M  V30 3576 C 330.844 2.04948 -0.283528 0
M  V30 3577 C 331.259 1.54908 1.0793 0
M  V30 3578 O 330.616 0.711135 1.68075 0
M  V30 3579 C 330.667 3.60498 -0.268957 0
M  V30 3580 O 330.388 4.08695 -1.57798 0
M  V30 3581 C 331.889 4.4288 0.192912 0
M  V30 3582 H 329.109 0.659243 -0.125056 0
M  V30 3583 H 331.653 1.78927 -0.990226 0
M  V30 3584 H 329.808 3.85444 0.388801 0
M  V30 3585 H 330.222 5.02977 -1.48709 0
M  V30 3586 H 331.696 5.51791 0.151952 0
M  V30 3587 H 332.173 4.21418 1.23708 0
M  V30 3588 H 332.779 4.23069 -0.435039 0
M  V30 3589 N 331.094 0.475555 1.50254 0
M  V30 3590 C 332.343 -0.0795996 2.01543 0
M  V30 3591 C 332.656 -1.4038 1.36209 0
M  V30 3592 O 333.862 -2.04415 1.7868 0
M  V30 3593 C 332.318 -0.192363 3.59386 0
M  V30 3594 C 331.926 1.12367 4.33679 0
M  V30 3595 C 333.67 -0.699238 4.18701 0
M  V30 3596 C 331.577 0.974453 5.83317 0
M  V30 3597 H 330.507 -0.0335228 0.753254 0
M  V30 3598 H 333.158 0.611128 1.73025 0
M  V30 3599 H 331.54 -0.946974 3.84511 0
M  V30 3600 H 332.714 1.88958 4.20276 0
M  V30 3601 H 331.029 1.562 3.85993 0
M  V30 3602 H 333.626 -0.827978 5.28251 0
M  V30 3603 H 333.969 -1.69171 3.80377 0
M  V30 3604 H 334.502 -0.00188807 3.978 0
M  V30 3605 H 331.241 1.94042 6.26121 0
M  V30 3606 H 330.761 0.248998 5.99283 0
M  V30 3607 H 332.44 0.642867 6.43798 0
M  V30 3608 N 332.573 -1.56217 0.208337 0
M  V30 3609 C 333.503 -2.22694 -0.702116 0
M  V30 3610 C 334.484 -1.19432 -1.2112 0
M  V30 3611 O 335.669 -1.47978 -1.25762 0
M  V30 3612 C 332.799 -2.8966 -1.9161 0
M  V30 3613 C 331.753 -3.9928 -1.5414 0
M  V30 3614 C 331.079 -4.53476 -2.83308 0
M  V30 3615 C 332.379 -5.17012 -0.741339 0
M  V30 3616 H 334.073 -2.99034 -0.147898 0
M  V30 3617 H 331.619 -1.43831 -0.0696951 0
M  V30 3618 H 333.572 -3.34852 -2.55836 0
M  V30 3619 H 332.296 -2.10746 -2.49507 0
M  V30 3620 H 330.955 -3.54799 -0.922668 0
M  V30 3621 H 330.603 -3.71308 -3.39322 0
M  V30 3622 H 330.303 -5.27451 -2.58976 0
M  V30 3623 H 331.827 -5.01378 -3.485 0
M  V30 3624 H 333.241 -5.58667 -1.28699 0
M  V30 3625 H 331.638 -5.97137 -0.595627 0
M  V30 3626 H 332.708 -4.8423 0.254851 0
M  V30 3627 N 334.051 0.0651679 -1.57465 0
M  V30 3628 C 334.983 1.10359 -2.00882 0
M  V30 3629 C 335.996 1.346 -0.915788 0
M  V30 3630 O 337.185 1.32723 -1.1936 0
M  V30 3631 C 334.285 2.45312 -2.33828 0
M  V30 3632 C 333.458 2.40934 -3.65061 0
M  V30 3633 C 332.517 3.58047 -3.85602 0
M  V30 3634 O 331.543 3.39175 -4.57109 0
M  V30 3635 N 332.745 4.78637 -3.28462 0
M  V30 3636 H 335.51 0.733807 -2.90578 0
M  V30 3637 H 333.071 0.253719 -1.599 0
M  V30 3638 H 335.063 3.22314 -2.44737 0
M  V30 3639 H 333.633 2.74267 -1.49988 0
M  V30 3640 H 332.853 1.49273 -3.64844 0
M  V30 3641 H 334.141 2.35117 -4.51218 0
M  V30 3642 H 333.539 4.96872 -2.70433 0
M  V30 3643 H 332.096 5.53127 -3.44809 0
M  V30 3644 N 335.529 1.53961 0.336706 0
M  V30 3645 C 336.439 1.85432 1.43708 0
M  V30 3646 C 337.455 0.745053 1.57242 0
M  V30 3647 O 338.631 1.03804 1.72588 0
M  V30 3648 C 335.696 2.06349 2.78605 0
M  V30 3649 C 334.757 3.30191 2.74358 0
M  V30 3650 C 333.99 3.50101 4.02822 0
M  V30 3651 O 334.213 2.7371 5.00439 0
M  V30 3652 O 333.147 4.43547 4.06878 0
M  V30 3653 H 336.973 2.78975 1.20028 0
M  V30 3654 H 334.558 1.39701 0.52952 0
M  V30 3655 H 336.44 2.21513 3.58483 0
M  V30 3656 H 335.115 1.15995 3.02203 0
M  V30 3657 H 334.022 3.20425 1.93078 0
M  V30 3658 H 335.355 4.2056 2.55715 0
M  V30 3659 N 337.007 -0.598083 1.45811 0
M  V30 3660 C 337.939 -1.72231 1.51225 0
M  V30 3661 C 338.952 -1.57757 0.402059 0
M  V30 3662 O 340.141 -1.65464 0.669624 0
M  V30 3663 C 337.241 -3.10331 1.3619 0
M  V30 3664 C 336.414 -3.50955 2.61054 0
M  V30 3665 C 335.473 -4.68055 2.40439 0
M  V30 3666 O 334.499 -4.74691 3.14097 0
M  V30 3667 N 335.701 -5.61941 1.45612 0
M  V30 3668 H 338.466 -1.68046 2.48154 0
M  V30 3669 H 336.027 -0.783637 1.41671 0
M  V30 3670 H 338.019 -3.86439 1.20195 0
M  V30 3671 H 336.589 -3.0897 0.475015 0
M  V30 3672 H 335.809 -2.64711 2.92099 0
M  V30 3673 H 337.097 -3.74858 3.44034 0
M  V30 3674 H 336.495 -5.59301 0.848431 0
M  V30 3675 H 335.052 -6.37542 1.35585 0
M  V30 3676 N 338.485 -1.33259 -0.841409 0
M  V30 3677 C 339.901 -1.12538 -1.13169 0
M  V30 3678 C 340.101 0.0854037 -2.01319 0
M  V30 3679 O 339.157 0.766417 -2.40587 0
M  V30 3680 C 340.47 -2.41156 -1.79623 0
M  V30 3681 C 342.018 -2.47038 -1.922 0
M  V30 3682 C 342.493 -3.7561 -2.6207 0
M  V30 3683 N 343.984 -3.76667 -2.69585 0
M  V30 3684 C 344.719 -4.72861 -3.2433 0
M  V30 3685 N 344.215 -5.79428 -3.79783 0
M  V30 3686 N 346.008 -4.6034 -3.22558 0
M  V30 3687 H 338.159 -2.10868 -0.254676 0
M  V30 3688 H 340.422 -0.931615 -0.175493 0
M  V30 3689 H 340.128 -3.29747 -1.22311 0
M  V30 3690 H 340.002 -2.53114 -2.79666 0
M  V30 3691 H 342.389 -1.58898 -2.48667 0
M  V30 3692 H 342.47 -2.39022 -0.911148 0
M  V30 3693 H 342.114 -4.64131 -2.06263 0
M  V30 3694 H 342.044 -3.80902 -3.63622 0
M  V30 3695 H 344.535 -2.99648 -2.30259 0
M  V30 3696 H 344.848 -6.48867 -4.19752 0
M  V30 3697 H 343.193 -5.83166 -3.78078 0
M  V30 3698 H 346.384 -3.76244 -2.78492 0
M  V30 3699 H 346.557 -5.35478 -3.64921 0
M  V30 3700 N 339.963 1.05934 -1.16686 0
M  V30 3701 C 340.896 2.1295 -0.820225 0
M  V30 3702 C 341.874 1.61242 0.209722 0
M  V30 3703 O 343.058 1.88271 0.0929688 0
M  V30 3704 C 340.185 3.3797 -0.22223 0
M  V30 3705 C 339.231 4.08488 -1.22637 0
M  V30 3706 S 340.064 4.58015 -2.77457 0
M  V30 3707 C 341.22 5.86292 -2.19117 0
M  V30 3708 H 341.453 2.42025 -1.72659 0
M  V30 3709 H 338.986 1.18423 -0.990722 0
M  V30 3710 H 340.944 4.10335 0.116322 0
M  V30 3711 H 339.605 3.07045 0.66196 0
M  V30 3712 H 338.798 4.98291 -0.756455 0
M  V30 3713 H 338.4 3.42154 -1.51019 0
M  V30 3714 H 340.692 6.59246 -1.56209 0
M  V30 3715 H 341.635 6.38019 -3.07144 0
M  V30 3716 H 342.043 5.40497 -1.62858 0
M  V30 3717 N 341.441 0.965919 1.2453 0
M  V30 3718 C 342.404 0.499547 2.2369 0
M  V30 3719 C 343.404 -0.40294 1.5567 0
M  V30 3720 O 344.594 -0.19865 1.73064 0
M  V30 3721 C 341.726 -0.276792 3.39774 0
M  V30 3722 H 342.919 1.37613 2.66463 0
M  V30 3723 H 340.472 0.750324 1.37112 0
M  V30 3724 H 341.207 -1.17055 3.02438 0
M  V30 3725 H 340.992 0.370826 3.90343 0
M  V30 3726 H 342.482 -0.592175 4.1338 0
M  V30 3727 N 342.919 -1.39368 0.735821 0
M  V30 3728 C 344.166 -2.00497 0.284123 0
M  V30 3729 C 344.494 -1.58387 -1.12889 0
M  V30 3730 O 343.749 -0.804359 -1.78406 0
M  V30 3731 C 344.048 -3.5583 0.334651 0
M  V30 3732 C 343.714 -4.17593 1.7008 0
M  V30 3733 C 342.376 -4.34176 2.07472 0
M  V30 3734 C 344.728 -4.51848 2.59775 0
M  V30 3735 C 342.056 -4.82304 3.34065 0
M  V30 3736 C 344.408 -5.01384 3.85741 0
M  V30 3737 C 343.072 -5.16175 4.23225 0
M  V30 3738 H 342.342 -0.73367 0.103968 0
M  V30 3739 H 344.989 -1.66683 0.942825 0
M  V30 3740 H 343.294 -3.89674 -0.407625 0
M  V30 3741 H 344.991 -4.00986 -0.0329927 0
M  V30 3742 H 341.581 -4.05087 1.40008 0
M  V30 3743 H 345.765 -4.38653 2.32157 0
M  V30 3744 H 341.021 -4.91941 3.63049 0
M  V30 3745 H 345.195 -5.26863 4.55399 0
M  V30 3746 H 342.822 -5.5323 5.21384 0
M  V30 3747 N 344.397 -0.483516 -1.5 0
M  V30 3748 C 345.345 0.318061 -2.30415 0
M  V30 3749 C 346.339 0.978988 -1.38247 0
M  V30 3750 O 347.545 0.908673 -1.55381 0
M  V30 3751 H 343.92 0.121419 -0.742133 0
M  V30 3752 H 345.891 -0.380403 -2.95965 0
M  V30 3753 C 344.64 1.38013 -3.19136 0
M  V30 3754 H 343.963 0.880952 -3.89973 0
M  V30 3755 H 345.403 1.91332 -3.78375 0
M  V30 3756 C 343.862 2.38884 -2.37563 0
M  V30 3757 O 344.392 3.44412 -2.06744 0
M  V30 3758 N 342.598 2.10912 -1.99911 0
M  V30 3759 H 342.145 1.25118 -2.25174 0
M  V30 3760 H 342.103 2.78635 -1.45636 0
M  V30 3761 N 345.875 1.56104 -0.216619 0
M  V30 3762 C 347.124 1.97348 0.416744 0
M  V30 3763 C 347.437 1.10715 1.6125 0
M  V30 3764 O 348.643 1.41836 2.31506 0
M  V30 3765 C 347.099 3.51059 0.792835 0
M  V30 3766 C 346.707 4.46387 -0.379828 0
M  V30 3767 C 348.451 4.01026 1.39208 0
M  V30 3768 C 346.358 5.91397 0.0184223 0
M  V30 3769 H 345.288 0.736942 0.159475 0
M  V30 3770 H 347.939 1.80827 -0.31205 0
M  V30 3771 H 346.321 3.63162 1.57891 0
M  V30 3772 H 347.495 4.46029 -1.15737 0
M  V30 3773 H 345.81 4.06734 -0.891979 0
M  V30 3774 H 348.407 5.0686 1.70286 0
M  V30 3775 H 348.75 3.46587 2.30614 0
M  V30 3776 H 349.283 3.92125 0.669537 0
M  V30 3777 H 346.022 6.49807 -0.862002 0
M  V30 3778 H 345.542 5.94961 0.760384 0
M  V30 3779 H 347.221 6.45455 0.446818 0
M  V30 3780 N 347.353 -0.0568162 1.57498 0
M  V30 3781 C 348.316 -1.05038 2.03715 0
M  V30 3782 C 349.316 -1.30709 0.936577 0
M  V30 3783 O 350.506 -1.26178 1.20103 0
M  V30 3784 C 347.638 -2.39034 2.43055 0
M  V30 3785 H 348.831 -0.651715 2.92733 0
M  V30 3786 H 346.384 -0.302947 1.53336 0
M  V30 3787 H 347.119 -2.83703 1.57108 0
M  V30 3788 H 346.904 -2.21739 3.2338 0
M  V30 3789 H 348.394 -3.10421 2.79336 0
M  V30 3790 N 348.832 -1.54138 -0.328536 0
M  V30 3791 C 349.742 -1.86192 -1.42723 0
M  V30 3792 C 350.758 -0.753382 -1.56844 0
M  V30 3793 O 351.934 -1.04718 -1.72035 0
M  V30 3794 C 348.999 -2.07824 -2.77507 0
M  V30 3795 C 348.06 -3.31641 -2.72603 0
M  V30 3796 C 347.293 -3.52232 -4.00959 0
M  V30 3797 O 347.516 -2.7636 -4.9898 0
M  V30 3798 O 346.45 -4.45699 -4.0452 0
M  V30 3799 H 350.276 -2.79608 -1.18547 0
M  V30 3800 H 347.861 -1.3998 -0.522104 0
M  V30 3801 H 349.743 -2.23411 -3.57303 0
M  V30 3802 H 348.418 -1.17596 -3.01584 0
M  V30 3803 H 347.325 -3.21444 -1.91376 0
M  V30 3804 H 348.658 -4.2191 -2.53481 0
M  V30 3805 N 350.31 0.590341 -1.46126 0
M  V30 3806 C 351.273 1.68194 -1.55703 0
M  V30 3807 C 352.273 1.54808 -0.434868 0
M  V30 3808 O 353.463 1.59564 -0.698928 0
M  V30 3809 C 350.595 3.07575 -1.47005 0
M  V30 3810 H 351.788 1.61064 -2.52979 0
M  V30 3811 H 349.341 0.807541 -1.33823 0
M  V30 3812 H 350.076 3.20268 -0.509785 0
M  V30 3813 H 349.861 3.187 -2.28414 0
M  V30 3814 H 351.351 3.87055 -1.56776 0
M  V30 3815 N 351.788 1.33704 0.83433 0
M  V30 3816 C 353.035 1.25417 1.58987 0
M  V30 3817 C 353.363 -0.178869 1.93676 0
M  V30 3818 O 352.618 -1.13723 1.59265 0
M  V30 3819 C 352.917 2.07926 2.90692 0
M  V30 3820 C 352.583 3.57066 2.75345 0
M  V30 3821 C 351.245 3.97724 2.70867 0
M  V30 3822 C 353.597 4.51817 2.59828 0
M  V30 3823 C 350.925 5.31344 2.48778 0
M  V30 3824 C 353.277 5.85604 2.39272 0
M  V30 3825 C 351.941 6.25439 2.33199 0
M  V30 3826 H 351.211 0.458934 0.581774 0
M  V30 3827 H 353.858 1.65335 0.966261 0
M  V30 3828 H 352.163 1.608 3.57282 0
M  V30 3829 H 353.86 1.98868 3.48213 0
M  V30 3830 H 350.45 3.24785 2.79665 0
M  V30 3831 H 354.634 4.21311 2.62319 0
M  V30 3832 H 349.89 5.61241 2.42526 0
M  V30 3833 H 354.064 6.58623 2.2625 0
M  V30 3834 H 351.691 7.28914 2.15843 0
M  V30 3835 N 353.266 -1.05314 1.17247 0
M  V30 3836 C 354.213 -2.13031 0.888058 0
M  V30 3837 C 355.183 -1.65253 -0.167537 0
M  V30 3838 O 356.368 -1.90775 -0.0305974 0
M  V30 3839 C 353.508 -3.42702 0.406147 0
M  V30 3840 C 352.621 -4.04161 1.52572 0
M  V30 3841 C 351.756 -5.21744 0.997808 0
M  V30 3842 C 350.795 -5.75207 2.09291 0
M  V30 3843 N 349.932 -6.84094 1.57986 0
M  V30 3844 H 354.772 -2.36698 1.81048 0
M  V30 3845 H 352.309 -1.16121 0.903013 0
M  V30 3846 H 354.267 -4.17059 0.108305 0
M  V30 3847 H 352.897 -3.19222 -0.479313 0
M  V30 3848 H 351.949 -3.27253 1.93931 0
M  V30 3849 H 353.261 -4.39881 2.35172 0
M  V30 3850 H 352.415 -6.03168 0.653739 0
M  V30 3851 H 351.154 -4.87495 0.141232 0
M  V30 3852 H 350.159 -4.92414 2.44557 0
M  V30 3853 H 351.384 -6.11505 2.95362 0
M  V30 3854 H 349.33 -6.51745 0.74598 0
M  V30 3855 H 349.247 -7.18811 2.34195 0
M  V30 3856 H 350.515 -7.69172 1.26468 0
M  V30 3857 N 354.744 -0.972509 -1.24016 0
M  V30 3858 C 356.021 -0.553733 -1.87598 0
M  V30 3859 C 356.401 0.969158 -1.87538 0
M  V30 3860 O 355.749 1.84255 -1.35139 0
M  V30 3861 C 355.959 -1.15076 -3.29482 0
M  V30 3862 C 357.307 -1.23862 -4.06132 0
M  V30 3863 O 358.331 -1.10363 -3.38672 0
M  V30 3864 O 357.19 -1.45252 -5.26844 0
M  V30 3865 H 354.284 -0.185331 -0.805966 0
M  V30 3866 H 356.83 -1.06709 -1.31952 0
M  V30 3867 H 355.602 -2.19333 -3.2405 0
M  V30 3868 H 355.225 -0.621746 -3.92709 0
M  V30 3869 N 356.222 1.38976 -0.743202 0
M  V30 3870 C 357.468 2.0064 -0.295189 0
M  V30 3871 C 357.801 1.5885 1.11716 0
M  V30 3872 O 357.076 0.821181 1.76315 0
M  V30 3873 C 357.359 3.578 -0.406318 0
M  V30 3874 C 357.212 4.09586 -1.85903 0
M  V30 3875 C 358.531 4.39616 0.206439 0
M  V30 3876 H 355.65 0.728935 -0.108733 0
M  V30 3877 H 358.292 1.65067 -0.940897 0
M  V30 3878 H 356.442 3.88235 0.143419 0
M  V30 3879 H 358.114 3.89837 -2.46627 0
M  V30 3880 H 356.357 3.6284 -2.3776 0
M  V30 3881 H 357.028 5.18708 -1.888 0
M  V30 3882 H 359.504 4.15273 -0.262283 0
M  V30 3883 H 358.38 5.48812 0.0983819 0
M  V30 3884 H 358.641 4.22754 1.2935 0
M  V30 3885 N 357.7 0.491464 1.49741 0
M  V30 3886 C 358.925 -0.0557177 2.07325 0
M  V30 3887 C 359.35 -1.30925 1.35056 0
M  V30 3888 O 358.708 -1.76733 0.404365 0
M  V30 3889 C 358.756 -0.302074 3.59333 0
M  V30 3890 O 357.86 -1.37868 3.88672 0
M  V30 3891 H 357.201 0.0219956 0.663636 0
M  V30 3892 H 359.731 0.688352 1.92673 0
M  V30 3893 H 359.741 -0.536464 4.04458 0
M  V30 3894 H 358.416 0.61383 4.11345 0
M  V30 3895 H 356.993 -1.12999 3.55367 0
M  V30 3896 N 359.178 -1.55987 0.224894 0
M  V30 3897 C 360.088 -2.24066 -0.69511 0
M  V30 3898 C 361.104 -1.24939 -1.21104 0
M  V30 3899 O 362.28 -1.5776 -1.25195 0
M  V30 3900 C 359.345 -2.90983 -1.88493 0
M  V30 3901 C 358.406 -4.05462 -1.41064 0
M  V30 3902 C 357.639 -4.69179 -2.54375 0
M  V30 3903 O 357.862 -4.31895 -3.72589 0
M  V30 3904 O 356.796 -5.58108 -2.25386 0
M  V30 3905 H 360.622 -3.03353 -0.145149 0
M  V30 3906 H 358.207 -1.49399 -0.00569476 0
M  V30 3907 H 360.089 -3.33209 -2.57972 0
M  V30 3908 H 358.764 -2.14653 -2.42293 0
M  V30 3909 H 357.671 -3.67798 -0.683774 0
M  V30 3910 H 359.004 -4.83545 -0.918985 0
M  V30 3911 N 360.656 0.0484629 -1.57525 0
M  V30 3912 C 362.067 0.597486 -1.76881 0
M  V30 3913 C 362.418 1.76664 -0.853475 0
M  V30 3914 O 361.543 2.16357 -0.0433656 0
M  V30 3915 C 362.138 1.09066 -3.20765 0
M  V30 3916 C 360.697 1.58535 -3.41385 0
M  V30 3917 C 359.844 0.514868 -2.72478 0
M  V30 3918 H 362.795 -0.177758 -1.57701 0
M  V30 3919 H 362.816 1.95875 -3.2621 0
M  V30 3920 H 362.328 0.239521 -3.8736 0
M  V30 3921 H 360.429 2.45898 -2.79937 0
M  V30 3922 H 360.542 1.64622 -4.49929 0
M  V30 3923 H 358.906 0.965407 -2.35695 0
M  V30 3924 H 359.689 -0.32648 -3.41744 0
M  V30 3925 N 362.134 1.5431 0.320358 0
M  V30 3926 C 363.383 1.7188 1.05546 0
M  V30 3927 C 363.696 0.501143 1.89071 0
M  V30 3928 O 364.902 0.558258 2.65699 0
M  V30 3929 C 363.358 3.04025 1.92605 0
M  V30 3930 C 362.966 4.33207 1.14176 0
M  V30 3931 C 364.71 3.30959 2.65832 0
M  V30 3932 C 362.617 5.56412 2.00399 0
M  V30 3933 H 361.547 0.640547 0.397763 0
M  V30 3934 H 364.198 1.80802 0.313522 0
M  V30 3935 H 362.58 2.89019 2.7071 0
M  V30 3936 H 363.754 4.58989 0.40819 0
M  V30 3937 H 362.069 4.13062 0.526165 0
M  V30 3938 H 364.666 4.20203 3.30656 0
M  V30 3939 H 365.009 2.48979 3.33639 0
M  V30 3940 H 365.542 3.46847 1.94787 0
M  V30 3941 H 362.281 6.41004 1.37094 0
M  V30 3942 H 361.801 5.34844 2.7148 0
M  V30 3943 H 363.48 5.92938 2.58908 0
M  V30 3944 N 363.613 -0.582584 1.46437 0
M  V30 3945 C 364.859 -1.34278 1.51978 0
M  V30 3946 C 365.192 -1.93446 0.170973 0
M  V30 3947 O 364.467 -1.76481 -0.817608 0
M  V30 3948 C 364.75 -2.47203 2.61845 0
M  V30 3949 C 364.603 -1.93069 4.06257 0
M  V30 3950 C 365.922 -3.49247 2.67795 0
M  V30 3951 H 363.041 -0.486876 0.553282 0
M  V30 3952 H 365.683 -0.654437 1.78374 0
M  V30 3953 H 363.833 -3.0592 2.39469 0
M  V30 3954 H 365.505 -1.38808 4.3992 0
M  V30 3955 H 363.748 -1.23898 4.1573 0
M  V30 3956 H 364.419 -2.74586 4.7886 0
M  V30 3957 H 366.895 -3.00411 2.8791 0
M  V30 3958 H 365.771 -4.25719 3.46489 0
M  V30 3959 H 366.032 -4.06482 1.73852 0
M  V30 3960 N 365.091 -1.34144 -0.827227 0
M  V30 3961 C 366.338 -1.26258 -1.58319 0
M  V30 3962 C 366.666 0.168595 -1.93768 0
M  V30 3963 O 365.921 1.12877 -1.59866 0
M  V30 3964 C 366.22 -2.09464 -2.89585 0
M  V30 3965 C 365.886 -3.58521 -2.73448 0
M  V30 3966 C 364.548 -3.99155 -2.68754 0
M  V30 3967 C 366.9 -4.53189 -2.57428 0
M  V30 3968 C 364.228 -5.32656 -2.45957 0
M  V30 3969 C 366.58 -5.86864 -2.36163 0
M  V30 3970 C 365.244 -6.26667 -2.29879 0
M  V30 3971 H 364.514 -0.462013 -0.579332 0
M  V30 3972 H 367.161 -1.65845 -0.95748 0
M  V30 3973 H 365.466 -1.62692 -3.56425 0
M  V30 3974 H 367.163 -2.00712 -3.47154 0
M  V30 3975 H 363.753 -3.26264 -2.77939 0
M  V30 3976 H 367.937 -4.22696 -2.60081 0
M  V30 3977 H 363.193 -5.62519 -2.39546 0
M  V30 3978 H 367.367 -6.59813 -2.22754 0
M  V30 3979 H 364.994 -7.30049 -2.11975 0
M  V30 3980 N 366.569 1.04691 -1.17803 0
M  V30 3981 C 367.499 2.14494 -0.92275 0
M  V30 3982 C 368.48 1.69546 0.137179 0
M  V30 3983 O 369.665 1.94195 -0.0141108 0
M  V30 3984 C 366.795 3.44491 -0.440803 0
M  V30 3985 C 365.749 4.03031 -1.4405 0
M  V30 3986 C 365.075 5.28432 -0.81631 0
M  V30 3987 C 366.375 4.39932 -2.81527 0
M  V30 3988 H 368.069 2.36107 -1.84103 0
M  V30 3989 H 365.615 1.1347 -0.886599 0
M  V30 3990 H 367.568 4.2066 -0.249602 0
M  V30 3991 H 366.292 3.22546 0.513025 0
M  V30 3992 H 364.951 3.28937 -1.61853 0
M  V30 3993 H 364.599 5.02792 0.144511 0
M  V30 3994 H 364.299 5.68559 -1.48371 0
M  V30 3995 H 365.823 6.07284 -0.635496 0
M  V30 3996 H 367.237 5.07113 -2.67412 0
M  V30 3997 H 365.634 4.9109 -3.44892 0
M  V30 3998 H 366.704 3.50045 -3.35554 0
M  V30 3999 N 368.047 0.979072 1.23499 0
M  V30 4000 C 368.979 0.476271 2.24197 0
M  V30 4001 C 369.992 -0.421166 1.57258 0
M  V30 4002 O 371.181 -0.225515 1.7707 0
M  V30 4003 C 368.281 -0.330503 3.37285 0
M  V30 4004 C 367.454 0.559744 4.33804 0
M  V30 4005 C 366.513 -0.192954 5.25846 0
M  V30 4006 O 365.539 0.416978 5.67671 0
M  V30 4007 N 366.741 -1.47932 5.61334 0
M  V30 4008 H 369.506 1.34211 2.67969 0
M  V30 4009 H 367.067 0.852189 1.37657 0
M  V30 4010 H 369.059 -0.842361 3.95836 0
M  V30 4011 H 367.629 -1.09734 2.92707 0
M  V30 4012 H 366.849 1.25245 3.73775 0
M  V30 4013 H 368.137 1.1665 4.95248 0
M  V30 4014 H 367.535 -1.9964 5.29302 0
M  V30 4015 H 366.092 -1.93664 6.22364 0
M  V30 4016 N 369.525 -1.3858 0.750561 0
M  V30 4017 C 370.457 -2.29057 0.0810714 0
M  V30 4018 C 371.47 -1.47596 -0.686973 0
M  V30 4019 O 372.659 -1.70495 -0.528563 0
M  V30 4020 C 369.759 -3.26475 -0.909247 0
M  V30 4021 C 368.932 -4.36945 -0.199478 0
M  V30 4022 C 367.991 -5.14572 -1.10011 0
M  V30 4023 O 367.017 -5.66321 -0.57177 0
M  V30 4024 N 368.219 -5.27262 -2.42849 0
M  V30 4025 H 370.984 -2.87153 0.858087 0
M  V30 4026 H 368.545 -1.50328 0.60109 0
M  V30 4027 H 370.537 -3.75285 -1.51471 0
M  V30 4028 H 369.107 -2.69298 -1.58736 0
M  V30 4029 H 368.327 -3.8981 0.586664 0
M  V30 4030 H 369.615 -5.07963 0.291783 0
M  V30 4031 H 369.013 -4.86763 -2.88233 0
M  V30 4032 H 367.57 -5.79456 -2.98453 0
M  V30 4033 N 371.003 -0.499398 -1.49478 0
M  V30 4034 C 371.936 0.326491 -2.25852 0
M  V30 4035 C 372.914 0.971776 -1.30366 0
M  V30 4036 O 374.098 1.00219 -1.59651 0
M  V30 4037 C 371.225 1.45969 -3.05632 0
M  V30 4038 C 370.271 0.928938 -4.16261 0
M  V30 4039 S 371.104 -0.179012 -5.35201 0
M  V30 4040 C 372.26 0.957389 -6.18534 0
M  V30 4041 H 372.493 -0.321746 -2.95554 0
M  V30 4042 H 370.026 -0.284674 -1.51753 0
M  V30 4043 H 371.984 2.109 -3.52181 0
M  V30 4044 H 370.645 2.07953 -2.35402 0
M  V30 4045 H 369.838 1.77813 -4.71592 0
M  V30 4046 H 369.44 0.356869 -3.72293 0
M  V30 4047 H 371.732 1.86296 -6.51383 0
M  V30 4048 H 372.675 0.442733 -7.06715 0
M  V30 4049 H 373.083 1.224 -5.5107 0
M  V30 4050 N 372.481 1.55866 -0.233164 0
M  V30 4051 C 373.413 2.18099 0.704668 0
M  V30 4052 C 374.426 1.15334 1.14899 0
M  V30 4053 O 375.615 1.42262 1.07814 0
M  V30 4054 C 372.715 2.7592 1.96777 0
M  V30 4055 C 371.888 4.03969 1.67713 0
M  V30 4056 C 370.947 4.46242 2.78845 0
M  V30 4057 O 369.973 5.12903 2.46818 0
M  V30 4058 N 371.175 4.12886 4.08051 0
M  V30 4059 H 373.94 2.99205 0.172258 0
M  V30 4060 H 371.501 1.61815 -0.0525945 0
M  V30 4061 H 373.493 3.01165 2.70337 0
M  V30 4062 H 372.063 1.99051 2.41034 0
M  V30 4063 H 371.283 3.86459 0.777391 0
M  V30 4064 H 372.571 4.8748 1.4574 0
M  V30 4065 H 371.969 3.59342 4.3691 0
M  V30 4066 H 370.526 4.42997 4.78118 0
M  V30 4067 N 373.959 -0.0401083 1.57549 0
M  V30 4068 C 374.869 -1.06133 2.0922 0
M  V30 4069 C 375.885 -1.40356 1.0284 0
M  V30 4070 O 377.061 -1.49897 1.34509 0
M  V30 4071 C 374.126 -2.34658 2.55218 0
M  V30 4072 C 373.187 -2.07117 3.76033 0
M  V30 4073 C 372.42 -3.29514 4.19829 0
M  V30 4074 O 372.643 -4.39794 3.63232 0
M  V30 4075 O 371.577 -3.15863 5.12362 0
M  V30 4076 H 375.403 -0.652244 2.96613 0
M  V30 4077 H 372.988 -0.256368 1.47184 0
M  V30 4078 H 374.87 -3.10239 2.85184 0
M  V30 4079 H 373.545 -2.74883 1.70941 0
M  V30 4080 H 372.452 -1.29139 3.51104 0
M  V30 4081 H 373.785 -1.71754 4.61261 0
M  V30 4082 N 375.437 -1.54477 -0.31217 0
M  V30 4083 C 376.684 -1.73227 -1.04875 0
M  V30 4084 C 377.012 -0.512042 -1.87639 0
M  V30 4085 O 376.267 0.506131 -1.89042 0
M  V30 4086 C 376.566 -2.967 -1.99258 0
M  V30 4087 C 376.232 -4.30974 -1.32559 0
M  V30 4088 C 374.894 -4.67477 -1.141 0
M  V30 4089 C 377.246 -5.14258 -0.847835 0
M  V30 4090 C 374.574 -5.84852 -0.465326 0
M  V30 4091 C 376.926 -6.32327 -0.185931 0
M  V30 4092 C 375.59 -6.67499 0.0107077 0
M  V30 4093 H 374.86 -0.633881 -0.383765 0
M  V30 4094 H 377.507 -1.88727 -0.324731 0
M  V30 4095 H 375.812 -2.75935 -2.7815 0
M  V30 4096 H 377.509 -3.08401 -2.563 0
M  V30 4097 H 374.099 -4.02262 -1.4793 0
M  V30 4098 H 378.283 -4.86565 -0.978192 0
M  V30 4099 H 373.539 -6.10654 -0.301883 0
M  V30 4100 H 377.713 -6.96135 0.192211 0
M  V30 4101 H 375.34 -7.58306 0.536287 0
M  V30 4102 N 376.915 0.57481 -1.46744 0
M  V30 4103 C 378.331 0.898981 -1.31873 0
M  V30 4104 C 378.531 1.99313 -0.29605 0
M  V30 4105 O 377.587 2.50728 0.298621 0
M  V30 4106 C 378.9 1.30886 -2.7072 0
M  V30 4107 C 380.448 1.42127 -2.78871 0
M  V30 4108 C 380.923 1.86478 -4.18318 0
M  V30 4109 N 382.414 1.93658 -4.20774 0
M  V30 4110 C 383.149 2.29267 -5.2557 0
M  V30 4111 N 382.645 2.63612 -6.40688 0
M  V30 4112 N 384.438 2.29889 -5.1294 0
M  V30 4113 H 376.589 -0.147839 -2.11885 0
M  V30 4114 H 378.852 -0.00347013 -0.947994 0
M  V30 4115 H 378.558 0.578853 -3.46904 0
M  V30 4116 H 378.432 2.26874 -3.01343 0
M  V30 4117 H 380.819 2.14213 -2.0297 0
M  V30 4118 H 380.9 0.443705 -2.51922 0
M  V30 4119 H 380.544 1.14968 -4.94717 0
M  V30 4120 H 380.474 2.85207 -4.42679 0
M  V30 4121 H 382.965 1.69574 -3.37718 0
M  V30 4122 H 383.278 2.89759 -7.16421 0
M  V30 4123 H 381.623 2.61232 -6.44036 0
M  V30 4124 H 384.814 2.02485 -4.22039 0
M  V30 4125 H 384.987 2.57312 -5.94722 0
M  V30 4126 N 378.394 1.34581 0.820102 0
M  V30 4127 C 379.304 1.28471 1.96297 0
M  V30 4128 C 380.32 0.191902 1.72939 0
M  V30 4129 O 381.496 0.418879 1.96996 0
M  V30 4130 C 378.561 1.04281 3.30645 0
M  V30 4131 C 377.622 2.22745 3.66992 0
M  V30 4132 C 376.855 1.997 4.9493 0
M  V30 4133 O 377.078 0.956656 5.6232 0
M  V30 4134 O 376.012 2.86723 5.2922 0
M  V30 4135 H 379.838 2.24624 2.04396 0
M  V30 4136 H 377.423 1.14816 0.955913 0
M  V30 4137 H 379.305 0.925841 4.11104 0
M  V30 4138 H 377.98 0.111697 3.23507 0
M  V30 4139 H 376.887 2.40003 2.86966 0
M  V30 4140 H 378.22 3.14257 3.78819 0
M  V30 4141 N 379.872 -1.04064 1.18357 0
M  V30 4142 C 380.819 -2.12077 0.910603 0
M  V30 4143 C 381.789 -1.65421 -0.15 0
M  V30 4144 O 382.974 -1.90797 -0.0103614 0
M  V30 4145 C 380.114 -3.42252 0.442472 0
M  V30 4146 C 379.227 -4.0252 1.5685 0
M  V30 4147 C 378.362 -5.20657 1.05309 0
M  V30 4148 C 377.401 -5.72955 2.1538 0
M  V30 4149 N 376.538 -6.8238 1.65233 0
M  V30 4150 H 381.378 -2.34764 1.83548 0
M  V30 4151 H 378.915 -1.15157 0.915279 0
M  V30 4152 H 380.873 -4.16921 0.152534 0
M  V30 4153 H 379.503 -3.19712 -0.445428 0
M  V30 4154 H 378.555 -3.25178 1.97391 0
M  V30 4155 H 379.867 -4.37362 2.39824 0
M  V30 4156 H 379.021 -6.0244 0.717677 0
M  V30 4157 H 377.76 -4.87318 0.19293 0
M  V30 4158 H 376.765 -4.89793 2.49766 0
M  V30 4159 H 377.99 -6.08337 3.01832 0
M  V30 4160 H 375.936 -6.50917 0.815064 0
M  V30 4161 H 375.853 -7.16286 2.41805 0
M  V30 4162 H 377.121 -7.67788 1.34619 0
M  V30 4163 N 381.35 -0.985608 -1.22978 0
M  V30 4164 C 382.599 -0.652881 -1.90841 0
M  V30 4165 C 382.912 0.817842 -1.77681 0
M  V30 4166 O 384.118 1.26185 -2.40395 0
M  V30 4167 C 382.574 -1.11717 -3.42122 0
M  V30 4168 C 382.182 -2.6126 -3.63933 0
M  V30 4169 C 383.926 -0.85843 -4.1573 0
M  V30 4170 C 381.833 -3.0133 -5.08876 0
M  V30 4171 H 380.763 -0.240491 -0.714619 0
M  V30 4172 H 383.414 -1.1942 -1.39324 0
M  V30 4173 H 381.796 -0.504027 -3.92779 0
M  V30 4174 H 382.97 -3.27858 -3.23799 0
M  V30 4175 H 381.285 -2.84937 -3.03644 0
M  V30 4176 H 383.882 -1.13359 -5.22546 0
M  V30 4177 H 384.225 0.205461 -4.15793 0
M  V30 4178 H 384.758 -1.43341 -3.71077 0
M  V30 4179 H 381.497 -4.06864 -5.13947 0
M  V30 4180 H 381.017 -2.3943 -5.49939 0
M  V30 4181 H 382.696 -2.92224 -5.77247 0
M  V30 4182 N 382.828 1.3818 -0.7579 0
M  V30 4183 C 383.775 2.30416 -0.133057 0
M  V30 4184 C 384.745 1.50398 0.704957 0
M  V30 4185 O 385.93 1.79014 0.660192 0
M  V30 4186 C 383.07 3.36834 0.750813 0
M  V30 4187 C 382.183 4.31879 -0.102297 0
M  V30 4188 C 381.318 5.25368 0.784979 0
M  V30 4189 C 380.357 6.12058 -0.0715046 0
M  V30 4190 N 379.494 6.97832 0.772972 0
M  V30 4191 H 384.334 2.83274 -0.925186 0
M  V30 4192 H 381.871 1.39461 -0.467866 0
M  V30 4193 H 383.829 3.97145 1.27794 0
M  V30 4194 H 382.459 2.85374 1.50868 0
M  V30 4195 H 381.511 3.72991 -0.747095 0
M  V30 4196 H 382.823 4.92921 -0.763552 0
M  V30 4197 H 381.977 5.90818 1.37911 0
M  V30 4198 H 380.716 4.64703 1.47996 0
M  V30 4199 H 379.721 5.456 -0.678272 0
M  V30 4200 H 380.946 6.74793 -0.763606 0
M  V30 4201 H 378.892 6.3971 1.45282 0
M  V30 4202 H 378.809 7.55812 0.168709 0
M  V30 4203 H 380.077 7.67687 1.35194 0
M  V30 4204 N 384.306 0.507319 1.49211 0
M  V30 4205 C 385.552 -0.0350047 2.0277 0
M  V30 4206 C 385.885 -1.3606 1.38569 0
M  V30 4207 O 385.16 -1.87321 0.523542 0
M  V30 4208 C 385.443 -0.180916 3.59645 0
M  V30 4209 C 385.296 1.16825 4.34364 0
M  V30 4210 C 386.615 -0.918558 4.30407 0
M  V30 4211 H 383.734 -0.0112473 0.736914 0
M  V30 4212 H 386.376 0.659956 1.7817 0
M  V30 4213 H 384.526 -0.772826 3.80736 0
M  V30 4214 H 386.198 1.79952 4.24753 0
M  V30 4215 H 384.441 1.75594 3.96673 0
M  V30 4216 H 385.112 1.01939 5.42506 0
M  V30 4217 H 387.588 -0.41649 4.1401 0
M  V30 4218 H 386.464 -0.989505 5.39907 0
M  V30 4219 H 386.725 -1.96373 3.96093 0
M  V30 4220 N 385.784 -1.5574 0.241426 0
M  V30 4221 C 387.033 -1.97986 -0.385295 0
M  V30 4222 C 387.346 -1.13267 -1.59468 0
M  V30 4223 O 388.552 -1.45501 -2.2922 0
M  V30 4224 C 387.008 -3.52275 -0.736884 0
M  V30 4225 C 386.616 -4.45726 0.450796 0
M  V30 4226 C 388.36 -4.03189 -1.3281 0
M  V30 4227 C 386.267 -5.91352 0.0756662 0
M  V30 4228 H 385.197 -0.739386 -0.147731 0
M  V30 4229 H 387.848 -1.80308 0.340779 0
M  V30 4230 H 386.23 -3.65628 -1.52094 0
M  V30 4231 H 387.404 -4.44131 1.22819 0
M  V30 4232 H 385.719 -4.05264 0.956573 0
M  V30 4233 H 388.316 -5.09505 -1.62201 0
M  V30 4234 H 388.659 -3.50212 -2.25071 0
M  V30 4235 H 389.192 -3.93141 -0.607069 0
M  V30 4236 H 385.931 -6.48354 0.965272 0
M  V30 4237 H 385.451 -5.96095 -0.665635 0
M  V30 4238 H 387.13 -6.46084 -0.344075 0
M  V30 4239 N 387.262 0.0317525 -1.57568 0
M  V30 4240 C 388.209 1.0332 -2.06382 0
M  V30 4241 C 389.179 1.36082 -0.952414 0
M  V30 4242 O 390.364 1.46466 -1.2228 0
M  V30 4243 C 387.504 2.32989 -2.54578 0
M  V30 4244 C 386.617 2.0641 -3.79498 0
M  V30 4245 C 385.752 3.2993 -4.16317 0
M  V30 4246 C 384.791 2.98893 -5.34162 0
M  V30 4247 N 383.928 4.14857 -5.66426 0
M  V30 4248 H 388.768 0.609982 -2.9169 0
M  V30 4249 H 386.305 0.289573 -1.44222 0
M  V30 4250 H 388.263 3.0875 -2.80587 0
M  V30 4251 H 386.893 2.73039 -1.7219 0
M  V30 4252 H 385.945 1.21158 -3.6059 0
M  V30 4253 H 387.257 1.79513 -4.65378 0
M  V30 4254 H 386.411 4.1406 -4.4344 0
M  V30 4255 H 385.15 3.59938 -3.29083 0
M  V30 4256 H 384.155 2.13164 -5.06795 0
M  V30 4257 H 385.38 2.70165 -6.23047 0
M  V30 4258 H 383.326 4.44821 -4.82151 0
M  V30 4259 H 383.243 3.91374 -6.4681 0
M  V30 4260 H 384.511 4.99868 -5.98124 0
M  V30 4261 N 388.74 1.54641 0.303973 0
M  V30 4262 C 389.65 1.88439 1.39743 0
M  V30 4263 C 390.666 0.778239 1.55626 0
M  V30 4264 O 391.842 1.07442 1.70347 0
M  V30 4265 C 388.907 2.12212 2.74166 0
M  V30 4266 C 387.968 3.35936 2.67293 0
M  V30 4267 C 387.201 3.58566 3.95305 0
M  V30 4268 O 387.424 2.84263 4.9452 0
M  V30 4269 O 386.358 4.52078 3.97378 0
M  V30 4270 H 390.184 2.81458 1.14083 0
M  V30 4271 H 387.769 1.40793 0.499768 0
M  V30 4272 H 389.651 2.29067 3.53704 0
M  V30 4273 H 388.326 1.22379 2.99675 0
M  V30 4274 H 387.233 3.24448 1.86237 0
M  V30 4275 H 388.566 4.2589 2.46736 0
M  V30 4276 N 390.218 -0.567019 1.47046 0
M  V30 4277 C 391.446 -1.35027 1.56765 0
M  V30 4278 C 391.861 -1.8758 0.214316 0
M  V30 4279 O 391.218 -1.64471 -0.790919 0
M  V30 4280 C 391.269 -2.52698 2.58507 0
M  V30 4281 O 390.99 -2.0232 3.88585 0
M  V30 4282 C 392.491 -3.45043 2.78316 0
M  V30 4283 H 389.711 -0.41195 0.529658 0
M  V30 4284 H 392.255 -0.687832 1.92585 0
M  V30 4285 H 390.41 -3.149 2.25648 0
M  V30 4286 H 390.824 -2.79068 4.44096 0
M  V30 4287 H 392.298 -4.2405 3.53391 0
M  V30 4288 H 392.775 -3.97971 1.85784 0
M  V30 4289 H 393.381 -2.88665 3.12334 0
M  V30 4290 N 391.696 -1.35014 -0.812953 0
M  V30 4291 C 393.107 -1.25035 -1.38648 0
M  V30 4292 C 393.458 0.119967 -1.95833 0
M  V30 4293 O 392.583 1.02069 -1.90816 0
M  V30 4294 C 393.178 -2.26394 -2.52054 0
M  V30 4295 C 391.737 -2.20175 -3.05287 0
M  V30 4296 C 390.884 -2.12451 -1.78213 0
M  V30 4297 H 393.835 -1.46235 -0.616516 0
M  V30 4298 H 393.856 -1.88672 -3.30429 0
M  V30 4299 H 393.368 -3.26116 -2.10404 0
M  V30 4300 H 391.469 -1.23841 -3.51417 0
M  V30 4301 H 391.582 -3.11863 -3.63701 0
M  V30 4302 H 389.946 -1.58328 -1.9951 0
M  V30 4303 H 390.729 -3.14024 -1.38723 0
M  V30 4304 N 393.175 1.03435 -1.18907 0
M  V30 4305 C 394.105 2.13503 -0.945448 0
M  V30 4306 C 395.086 1.69682 0.119189 0
M  V30 4307 O 396.271 1.94169 -0.034707 0
M  V30 4308 C 393.401 3.44004 -0.477316 0
M  V30 4309 C 392.355 4.0148 -1.48316 0
M  V30 4310 C 391.681 5.27537 -0.872311 0
M  V30 4311 C 392.981 4.36921 -2.86177 0
M  V30 4312 H 394.675 2.34141 -1.86597 0
M  V30 4313 H 392.221 1.12523 -0.898584 0
M  V30 4314 H 394.174 4.20372 -0.294204 0
M  V30 4315 H 392.898 3.23072 0.478786 0
M  V30 4316 H 391.557 3.27201 -1.65332 0
M  V30 4317 H 391.205 5.02917 0.0911752 0
M  V30 4318 H 390.905 5.66954 -1.54393 0
M  V30 4319 H 392.429 6.06576 -0.699871 0
M  V30 4320 H 393.843 5.04248 -2.72776 0
M  V30 4321 H 392.24 4.87405 -3.50081 0
M  V30 4322 H 393.31 3.46466 -3.39248 0
M  V30 4323 N 394.653 0.992116 1.22453 0
M  V30 4324 C 396.064 0.702776 1.72968 0
M  V30 4325 C 396.415 -0.780399 1.80012 0
M  V30 4326 O 395.54 -1.61007 1.44589 0
M  V30 4327 C 396.135 1.26903 3.14135 0
M  V30 4328 C 394.694 1.02909 3.62059 0
M  V30 4329 C 393.841 1.38969 2.39964 0
M  V30 4330 H 396.792 1.16457 1.07812 0
M  V30 4331 H 396.813 0.647223 3.74955 0
M  V30 4332 H 396.325 2.34851 3.08977 0
M  V30 4333 H 394.426 -0.0337979 3.72585 0
M  V30 4334 H 394.539 1.69191 4.48231 0
M  V30 4335 H 392.903 0.808279 2.41535 0
M  V30 4336 H 393.686 2.4792 2.37467 0
M  V30 4337 N 396.131 -1.37776 0.765217 0
M  V30 4338 C 397.542 -1.82521 0.392819 0
M  V30 4339 C 397.893 -1.63789 -1.08017 0
M  V30 4340 O 397.018 -1.14542 -1.83601 0
M  V30 4341 C 397.613 -3.31358 0.706214 0
M  V30 4342 C 396.172 -3.74406 0.386952 0
M  V30 4343 C 395.319 -2.60394 0.953422 0
M  V30 4344 H 398.27 -1.2634 0.960412 0
M  V30 4345 H 398.291 -3.80498 -0.0114706 0
M  V30 4346 H 397.803 -3.44959 1.77833 0
M  V30 4347 H 395.904 -3.66377 -0.678112 0
M  V30 4348 H 396.017 -4.70749 0.890636 0
M  V30 4349 H 394.381 -2.51878 0.378064 0
M  V30 4350 H 395.164 -2.76791 2.03081 0
M  V30 4351 N 397.609 -0.515225 -1.4894 0
M  V30 4352 C 398.834 0.022727 -2.07388 0
M  V30 4353 C 399.259 1.2876 -1.37122 0
M  V30 4354 O 398.617 1.76067 -0.432431 0
M  V30 4355 C 398.665 0.244869 -3.59768 0
M  V30 4356 O 397.769 1.31667 -3.90817 0
M  V30 4357 H 397.11 -0.0325506 -0.663202 0
M  V30 4358 H 399.64 -0.718918 -1.91553 0
M  V30 4359 H 399.65 0.47205 -4.0526 0
M  V30 4360 H 398.325 -0.679194 -4.10317 0
M  V30 4361 H 396.902 1.07331 -3.5712 0
M  V30 4362 N 399.087 1.5561 -0.249682 0
M  V30 4363 C 400.035 2.22894 0.664906 0
M  V30 4364 C 401.029 1.21743 1.17792 0
M  V30 4365 O 402.235 1.39748 1.13449 0
M  V30 4366 H 398.61 0.715022 0.232912 0
M  V30 4367 H 400.581 2.98307 0.0742998 0
M  V30 4368 C 399.33 2.94424 1.84959 0
M  V30 4369 H 398.653 3.72031 1.46399 0
M  V30 4370 H 400.093 3.44862 2.4667 0
M  V30 4371 C 398.552 1.98454 2.72245 0
M  V30 4372 O 399.082 1.51939 3.71857 0
M  V30 4373 N 397.288 1.65496 2.38871 0
M  V30 4374 H 396.835 2.03517 1.57919 0
M  V30 4375 H 396.793 1.0155 2.97548 0
M  V30 4376 N 400.565 -0.0233959 1.57583 0
M  V30 4377 C 401.495 -1.02162 2.09965 0
M  V30 4378 C 402.476 -1.3735 1.00344 0
M  V30 4379 O 403.661 -1.46135 1.27899 0
M  V30 4380 C 400.791 -2.32081 2.58371 0
M  V30 4381 C 399.745 -2.1112 3.72307 0
M  V30 4382 C 399.071 -3.46848 4.06941 0
M  V30 4383 C 400.371 -1.49276 5.00514 0
M  V30 4384 H 402.065 -0.585557 2.93618 0
M  V30 4385 H 399.611 -0.280218 1.41247 0
M  V30 4386 H 401.564 -3.02249 2.93639 0
M  V30 4387 H 400.288 -2.77758 1.71808 0
M  V30 4388 H 398.947 -1.43384 3.37397 0
M  V30 4389 H 398.595 -3.90184 3.17436 0
M  V30 4390 H 398.295 -3.33646 4.83688 0
M  V30 4391 H 399.819 -4.18369 4.44747 0
M  V30 4392 H 401.233 -2.09368 5.33702 0
M  V30 4393 H 399.63 -1.46632 5.8191 0
M  V30 4394 H 400.7 -0.459217 4.82721 0
M  V30 4395 N 402.043 -1.548 -0.295768 0
M  V30 4396 C 403.454 -1.65274 -0.868411 0
M  V30 4397 C 403.805 -0.56481 -1.87894 0
M  V30 4398 O 402.93 0.29767 -2.14343 0
M  V30 4399 C 403.525 -2.99603 -1.58188 0
M  V30 4400 C 402.084 -3.12181 -2.10286 0
M  V30 4401 C 401.231 -2.6098 -0.93727 0
M  V30 4402 H 404.182 -1.58534 -0.0726422 0
M  V30 4403 H 404.203 -2.91319 -2.44772 0
M  V30 4404 H 403.715 -3.78764 -0.846151 0
M  V30 4405 H 401.816 -2.3775 -2.8689 0
M  V30 4406 H 401.929 -4.18415 -2.33379 0
M  V30 4407 H 400.293 -2.17564 -1.32431 0
M  V30 4408 H 401.076 -3.42623 -0.215414 0
M  V30 4409 N 403.521 0.559213 -1.47345 0
M  V30 4410 C 404.484 1.64854 -1.59235 0
M  V30 4411 C 405.484 1.53851 -0.467607 0
M  V30 4412 O 406.674 1.58045 -0.732617 0
M  V30 4413 C 403.806 3.04388 -1.53496 0
M  V30 4414 H 404.999 1.55662 -2.56339 0
M  V30 4415 H 402.552 0.778973 -1.35505 0
M  V30 4416 H 403.287 3.19115 -0.577604 0
M  V30 4417 H 403.072 3.13783 -2.35123 0
M  V30 4418 H 404.562 3.83642 -1.6495 0
M  V30 4419 N 404.999 1.35443 0.805782 0
M  V30 4420 C 406.224 1.32037 1.59941 0
M  V30 4421 C 406.649 -0.0994215 1.87837 0
M  V30 4422 O 406.007 -1.06648 1.46615 0
M  V30 4423 C 406.055 2.13354 2.90711 0
M  V30 4424 O 405.159 1.5148 3.83572 0
M  V30 4425 H 404.5 0.452666 0.485787 0
M  V30 4426 H 407.03 1.78496 1.00002 0
M  V30 4427 H 407.04 2.25338 3.40128 0
M  V30 4428 H 405.715 3.16572 2.69732 0
M  V30 4429 H 404.292 1.4834 3.42125 0
M  V30 4430 N 406.477 -1.02803 1.19454 0
M  V30 4431 C 407.888 -1.57667 0.999899 0
M  V30 4432 C 408.239 -1.91041 -0.446956 0
M  V30 4433 O 407.364 -1.70978 -1.32648 0
M  V30 4434 C 407.959 -2.86477 1.80877 0
M  V30 4435 C 406.518 -3.37911 1.65811 0
M  V30 4436 C 405.665 -2.11343 1.79526 0
M  V30 4437 H 408.616 -0.853214 1.33813 0
M  V30 4438 H 408.637 -3.57408 1.30536 0
M  V30 4439 H 408.149 -2.62155 2.86175 0
M  V30 4440 H 406.25 -3.67218 0.63102 0
M  V30 4441 H 406.363 -4.10885 2.46395 0
M  V30 4442 H 404.727 -2.23254 1.22596 0
M  V30 4443 H 405.51 -1.89461 2.86285 0
M  V30 4444 N 407.956 -0.998596 -1.21925 0
M  V30 4445 C 408.886 -0.573688 -2.26343 0
M  V30 4446 C 409.867 0.402296 -1.65274 0
M  V30 4447 O 411.052 0.291683 -1.91997 0
M  V30 4448 C 408.182 0.106839 -3.47136 0
M  V30 4449 C 407.136 -0.788269 -4.20678 0
M  V30 4450 C 406.462 0.0254927 -5.34694 0
M  V30 4451 C 407.762 -2.08784 -4.78755 0
M  V30 4452 H 409.456 -1.44651 -2.62138 0
M  V30 4453 H 407.002 -0.696975 -1.26009 0
M  V30 4454 H 408.955 0.415531 -4.19346 0
M  V30 4455 H 407.679 1.01424 -3.10452 0
M  V30 4456 H 406.338 -1.08069 -3.50309 0
M  V30 4457 H 405.986 0.933989 -4.94253 0
M  V30 4458 H 405.686 -0.570437 -5.84825 0
M  V30 4459 H 407.21 0.328147 -6.09718 0
M  V30 4460 H 408.624 -1.84272 -5.42878 0
M  V30 4461 H 407.021 -2.63307 -5.39249 0
M  V30 4462 H 408.091 -2.76284 -3.98491 0
M  V30 4463 N 409.434 1.37368 -0.772513 0
M  V30 4464 C 410.367 2.27956 -0.105593 0
M  V30 4465 C 411.345 1.46362 0.708295 0
M  V30 4466 O 412.529 1.75695 0.682895 0
M  V30 4467 C 409.656 3.27687 0.856686 0
M  V30 4468 C 408.702 4.26312 0.1267 0
M  V30 4469 S 409.535 5.22206 -1.1858 0
M  V30 4470 C 410.691 6.25488 -0.227081 0
M  V30 4471 H 410.924 2.84171 -0.87372 0
M  V30 4472 H 408.457 1.43654 -0.565939 0
M  V30 4473 H 410.415 3.85653 1.40648 0
M  V30 4474 H 409.076 2.70417 1.59793 0
M  V30 4475 H 408.269 4.96674 0.856212 0
M  V30 4476 H 407.871 3.72339 -0.352117 0
M  V30 4477 H 410.163 6.74836 0.600231 0
M  V30 4478 H 411.106 7.02371 -0.898899 0
M  V30 4479 H 411.514 5.64267 0.162053 0
M  V30 4480 N 410.912 0.523116 1.48665 0
M  V30 4481 C 411.859 -0.243398 2.29513 0
M  V30 4482 C 412.829 -0.940139 1.36933 0
M  V30 4483 O 414.014 -0.942503 1.65896 0
M  V30 4484 C 411.154 -1.28855 3.20141 0
M  V30 4485 C 410.267 -0.60135 4.27794 0
M  V30 4486 C 409.402 -1.62884 5.05611 0
M  V30 4487 C 408.441 -0.924726 6.05075 0
M  V30 4488 N 407.578 -1.89744 6.75975 0
M  V30 4489 H 412.418 0.452234 2.94549 0
M  V30 4490 H 409.955 0.234858 1.45213 0
M  V30 4491 H 411.913 -1.90674 3.71079 0
M  V30 4492 H 410.543 -1.95266 2.57043 0
M  V30 4493 H 409.595 0.130623 3.80176 0
M  V30 4494 H 410.907 -0.0481585 4.98777 0
M  V30 4495 H 410.061 -2.32149 5.60528 0
M  V30 4496 H 408.8 -2.21592 4.34452 0
M  V30 4497 H 407.805 -0.217966 5.49368 0
M  V30 4498 H 409.03 -0.343851 6.78229 0
M  V30 4499 H 406.976 -2.47373 6.07571 0
M  V30 4500 H 406.893 -1.3955 7.43009 0
M  V30 4501 H 408.161 -2.58229 7.35485 0
M  V30 4502 N 412.39 -1.55475 0.257931 0
M  V30 4503 C 413.338 -2.23244 -0.653076 0
M  V30 4504 C 414.332 -1.22366 -1.17144 0
M  V30 4505 O 415.538 -1.40347 -1.12706 0
M  V30 4506 H 411.913 -0.716247 -0.229117 0
M  V30 4507 H 413.884 -2.98343 -0.0584788 0
M  V30 4508 C 412.633 -2.95401 -1.83395 0
M  V30 4509 H 411.956 -3.72802 -1.44424 0
M  V30 4510 H 413.396 -3.46165 -2.44838 0
M  V30 4511 C 411.855 -1.99895 -2.71189 0
M  V30 4512 O 412.385 -1.53909 -3.71046 0
M  V30 4513 N 410.591 -1.6676 -2.3799 0
M  V30 4514 H 410.138 -2.04352 -1.56837 0
M  V30 4515 H 410.096 -1.03127 -2.97005 0
M  V30 4516 N 413.868 0.0150385 -1.57593 0
M  V30 4517 C 415.115 0.703001 -1.89906 0
M  V30 4518 C 415.443 1.74604 -0.856944 0
M  V30 4519 O 414.698 1.95197 0.140287 0
M  V30 4520 C 414.997 1.39686 -3.28972 0
M  V30 4521 C 414.663 0.488457 -4.48246 0
M  V30 4522 C 413.325 0.2383 -4.8061 0
M  V30 4523 C 415.677 -0.137881 -5.21018 0
M  V30 4524 C 413.005 -0.646738 -5.83125 0
M  V30 4525 C 415.357 -1.0107 -6.24474 0
M  V30 4526 C 414.021 -1.27019 -6.55303 0
M  V30 4527 H 413.291 0.257246 -0.694914 0
M  V30 4528 H 415.938 -0.037259 -1.91464 0
M  V30 4529 H 414.243 2.21079 -3.23468 0
M  V30 4530 H 415.94 1.93495 -3.51227 0
M  V30 4531 H 412.53 0.693593 -4.22951 0
M  V30 4532 H 416.714 0.0423953 -4.96282 0
M  V30 4533 H 411.97 -0.855937 -6.05379 0
M  V30 4534 H 416.144 -1.50247 -6.79999 0
M  V30 4535 H 413.771 -1.95769 -7.3456 0
M  V30 4536 N 415.346 1.54954 0.287554 0
M  V30 4537 C 416.623 1.65569 1.04146 0
M  V30 4538 C 417.003 0.512672 2.0478 0
M  V30 4539 O 416.351 -0.489038 2.23205 0
M  V30 4540 C 416.561 3.04163 1.71131 0
M  V30 4541 C 417.909 3.61429 2.22832 0
M  V30 4542 O 418.933 3.06702 1.81141 0
M  V30 4543 O 417.792 4.57281 2.9926 0
M  V30 4544 H 414.886 0.671881 0.482188 0
M  V30 4545 H 417.432 1.67297 0.28457 0
M  V30 4546 H 416.204 3.78796 0.981303 0
M  V30 4547 H 415.827 3.06271 2.53543 0
M  V30 4548 N 416.824 -0.551391 1.4764 0
M  V30 4549 C 418.052 -1.33357 1.58189 0
M  V30 4550 C 418.467 -1.87342 0.234199 0
M  V30 4551 O 417.824 -1.65301 -0.77343 0
M  V30 4552 C 417.875 -2.49942 2.61173 0
M  V30 4553 O 417.596 -1.98187 3.90709 0
M  V30 4554 C 419.097 -3.42072 2.8196 0
M  V30 4555 H 416.317 -0.40631 0.533998 0
M  V30 4556 H 418.861 -0.667367 1.93304 0
M  V30 4557 H 417.016 -3.12489 2.28975 0
M  V30 4558 H 417.43 -2.74342 4.47031 0
M  V30 4559 H 418.904 -4.20278 3.57869 0
M  V30 4560 H 419.381 -3.95978 1.89995 0
M  V30 4561 H 419.987 -2.85336 3.15378 0
M  V30 4562 N 418.302 -1.35869 -0.798587 0
M  V30 4563 C 419.527 -1.32883 -1.59238 0
M  V30 4564 C 419.952 0.0894587 -1.87887 0
M  V30 4565 O 419.31 1.05869 -1.47178 0
M  V30 4566 C 419.358 -2.14892 -2.89575 0
M  V30 4567 O 418.462 -1.53512 -3.82763 0
M  V30 4568 H 417.803 -0.455236 -0.48338 0
M  V30 4569 H 420.333 -1.79024 -0.990539 0
M  V30 4570 H 420.343 -2.27139 -3.38928 0
M  V30 4571 H 419.018 -3.17998 -2.68049 0
M  V30 4572 H 417.595 -1.50153 -3.41334 0
M  V30 4573 N 419.78 1.02168 -1.19998 0
M  V30 4574 C 420.712 2.10705 -0.901994 0
M  V30 4575 C 421.725 1.6244 0.108216 0
M  V30 4576 O 422.914 1.78082 -0.12214 0
M  V30 4577 C 420.014 3.37291 -0.329834 0
M  V30 4578 C 419.187 4.14714 -1.39035 0
M  V30 4579 C 418.246 5.19606 -0.830432 0
M  V30 4580 O 417.272 5.48809 -1.50989 0
M  V30 4581 N 418.474 5.79366 0.362696 0
M  V30 4582 H 421.239 2.36856 -1.83628 0
M  V30 4583 H 418.8 1.18518 -1.10296 0
M  V30 4584 H 420.792 4.04657 0.0587633 0
M  V30 4585 H 419.362 3.0843 0.508891 0
M  V30 4586 H 418.582 3.42392 -1.9535 0
M  V30 4587 H 419.87 4.63226 -2.10474 0
M  V30 4588 H 419.268 5.57968 0.932081 0
M  V30 4589 H 417.825 6.48106 0.69299 0
M  V30 4590 N 421.258 1.00505 1.21394 0
M  V30 4591 C 422.504 0.698477 1.91031 0
M  V30 4592 C 422.859 -0.762448 1.76648 0
M  V30 4593 O 422.152 -1.54554 1.13241 0
M  V30 4594 C 422.346 1.0546 3.41486 0
M  V30 4595 C 422.175 2.5486 3.70508 0
M  V30 4596 C 420.945 3.21461 3.8986 0
M  V30 4597 C 423.143 3.53019 3.74008 0
M  V30 4598 N 421.125 4.60211 4.06299 0
M  V30 4599 C 422.496 4.77279 3.95733 0
M  V30 4600 C 424.551 3.47154 3.56915 0
M  V30 4601 C 423.254 5.96388 4.02137 0
M  V30 4602 C 425.28 4.65652 3.64585 0
M  V30 4603 C 424.642 5.88717 3.86771 0
M  V30 4604 H 420.741 0.30707 0.719189 0
M  V30 4605 H 423.325 1.28753 1.46051 0
M  V30 4606 H 421.496 0.494007 3.85246 0
M  V30 4607 H 423.228 0.702765 3.98552 0
M  V30 4608 H 419.983 2.71906 3.87768 0
M  V30 4609 H 420.407 5.32216 4.1842 0
M  V30 4610 H 425.049 2.53015 3.38738 0
M  V30 4611 H 422.767 6.90919 4.19114 0
M  V30 4612 H 426.353 4.62717 3.52681 0
M  V30 4613 H 425.233 6.78877 3.92549 0
M  V30 4614 N 422.737 -1.36956 0.779787 0
M  V30 4615 C 423.647 -2.33965 0.172491 0
M  V30 4616 C 424.663 -1.60574 -0.670222 0
M  V30 4617 O 425.839 -1.92617 -0.588263 0
M  V30 4618 C 422.904 -3.39761 -0.690173 0
M  V30 4619 C 421.965 -4.28964 0.169924 0
M  V30 4620 C 421.198 -5.29707 -0.651662 0
M  V30 4621 O 421.421 -5.38238 -1.88827 0
M  V30 4622 O 420.355 -6.01873 -0.0566264 0
M  V30 4623 H 424.181 -2.87647 0.974321 0
M  V30 4624 H 421.766 -1.39258 0.541078 0
M  V30 4625 H 423.648 -4.04471 -1.1824 0
M  V30 4626 H 422.323 -2.88394 -1.47006 0
M  V30 4627 H 421.23 -3.67326 0.708696 0
M  V30 4628 H 422.563 -4.83656 0.913085 0
M  V30 4629 N 424.215 -0.530993 -1.48385 0
M  V30 4630 C 425.492 0.0671788 -1.95485 0
M  V30 4631 C 425.872 1.51191 -1.47324 0
M  V30 4632 O 425.22 2.17507 -0.700202 0
M  V30 4633 C 425.43 -0.0511206 -3.48963 0
M  V30 4634 C 426.778 0.107632 -4.24464 0
M  V30 4635 O 427.802 0.0226248 -3.56193 0
M  V30 4636 O 426.661 0.285972 -5.45751 0
M  V30 4637 H 423.755 0.0787365 -0.823243 0
M  V30 4638 H 426.301 -0.595662 -1.58902 0
M  V30 4639 H 425.073 -1.05747 -3.7674 0
M  V30 4640 H 424.696 0.650525 -3.92242 0
M  V30 4641 N 425.693 1.55336 -0.266172 0
M  V30 4642 C 426.942 1.98574 0.353749 0
M  V30 4643 C 427.255 1.15789 1.57646 0
M  V30 4644 O 428.461 1.49129 2.26876 0
M  V30 4645 C 426.917 3.53403 0.680747 0
M  V30 4646 C 426.525 4.44953 -0.52165 0
M  V30 4647 C 428.269 4.05251 1.26379 0
M  V30 4648 C 426.176 5.91156 -0.169736 0
M  V30 4649 H 425.106 0.741643 0.135949 0
M  V30 4650 H 427.757 1.79743 -0.369421 0
M  V30 4651 H 426.139 3.68001 1.46257 0
M  V30 4652 H 427.313 4.42121 -1.29869 0
M  V30 4653 H 425.628 4.03691 -1.02093 0
M  V30 4654 H 428.225 5.12021 1.54074 0
M  V30 4655 H 428.568 3.53749 2.19471 0
M  V30 4656 H 429.101 3.94057 0.544447 0
M  V30 4657 H 425.84 6.46736 -1.0683 0
M  V30 4658 H 425.36 5.97079 0.570717 0
M  V30 4659 H 427.039 6.4655 0.241245 0
M  V30 4660 N 427.171 -0.0066808 1.57599 0
M  V30 4661 C 428.118 -1.00024 2.08 0
M  V30 4662 C 429.088 -1.34549 0.973943 0
M  V30 4663 O 430.273 -1.44502 1.24595 0
M  V30 4664 C 427.413 -2.2891 2.58252 0
M  V30 4665 C 426.526 -2.00346 3.82734 0
M  V30 4666 C 425.661 -3.23265 4.21513 0
M  V30 4667 C 424.7 -2.90357 5.3885 0
M  V30 4668 N 423.837 -4.05793 5.72954 0
M  V30 4669 H 428.677 -0.563499 2.92624 0
M  V30 4670 H 426.214 -0.266592 1.44664 0
M  V30 4671 H 428.172 -3.04247 2.85464 0
M  V30 4672 H 426.802 -2.70265 1.76512 0
M  V30 4673 H 425.854 -1.15406 3.62471 0
M  V30 4674 H 427.166 -1.72086 4.68175 0
M  V30 4675 H 426.32 -4.06953 4.49971 0
M  V30 4676 H 425.059 -3.54657 3.34768 0
M  V30 4677 H 424.064 -2.05075 5.10122 0
M  V30 4678 H 425.289 -2.60219 6.27266 0
M  V30 4679 H 423.235 -4.37094 4.89167 0
M  V30 4680 H 423.152 -3.81034 6.52954 0
M  V30 4681 H 424.42 -4.90289 6.06001 0
M  V30 4682 N 428.649 -1.55105 -0.279332 0
M  V30 4683 C 429.579 -1.90557 -1.34945 0
M  V30 4684 C 430.56 -0.766738 -1.51839 0
M  V30 4685 O 431.745 -1.02434 -1.64988 0
M  V30 4686 C 428.875 -2.17193 -2.71006 0
M  V30 4687 C 427.829 -3.33021 -2.68851 0
M  V30 4688 C 427.155 -3.45123 -4.08405 0
M  V30 4689 C 428.455 -4.69578 -2.28678 0
M  V30 4690 H 430.149 -2.80188 -1.05522 0
M  V30 4691 H 427.695 -1.34811 -0.506173 0
M  V30 4692 H 429.648 -2.40581 -3.45975 0
M  V30 4693 H 428.372 -1.24355 -3.01999 0
M  V30 4694 H 427.031 -3.0959 -1.9634 0
M  V30 4695 H 426.679 -2.49762 -4.3661 0
M  V30 4696 H 426.379 -4.22995 -4.07859 0
M  V30 4697 H 427.903 -3.70796 -4.85121 0
M  V30 4698 H 429.317 -4.92553 -2.93368 0
M  V30 4699 H 427.714 -5.5032 -2.39306 0
M  V30 4700 H 428.784 -4.68828 -1.23807 0
M  V30 4701 N 430.127 0.543554 -1.4793 0
M  V30 4702 C 431.373 1.30201 -1.55485 0
M  V30 4703 C 431.706 1.92925 -0.222201 0
M  V30 4704 O 430.981 1.78586 0.77053 0
M  V30 4705 C 431.264 2.40174 -2.68307 0
M  V30 4706 C 431.117 1.8223 -4.11233 0
M  V30 4707 C 432.436 3.42024 -2.76961 0
M  V30 4708 H 429.555 0.472036 -0.565996 0
M  V30 4709 H 432.197 0.606914 -1.80046 0
M  V30 4710 H 430.347 2.99463 -2.47495 0
M  V30 4711 H 432.019 1.27096 -4.43446 0
M  V30 4712 H 430.262 1.12832 -4.18869 0
M  V30 4713 H 430.933 2.61793 -4.85972 0
M  V30 4714 H 433.409 2.92672 -2.95774 0
M  V30 4715 H 432.285 4.16383 -3.57654 0
M  V30 4716 H 432.546 4.0173 -1.84568 0
M  V30 4717 N 431.605 1.3629 0.791371 0
M  V30 4718 C 432.882 1.20962 1.53712 0
M  V30 4719 C 433.262 -0.205021 2.10102 0
M  V30 4720 O 432.61 -1.21042 1.93807 0
M  V30 4721 C 432.82 2.29002 2.63361 0
M  V30 4722 C 434.168 2.65572 3.31295 0
M  V30 4723 O 435.192 2.2803 2.73643 0
M  V30 4724 O 434.051 3.3018 4.35481 0
M  V30 4725 H 431.145 0.47086 0.679867 0
M  V30 4726 H 433.691 1.48016 0.830021 0
M  V30 4727 H 432.463 3.2382 2.19674 0
M  V30 4728 H 432.086 2.03303 3.41692 0
M  V30 4729 N 433.083 -1.0153 1.20538 0
M  V30 4730 C 434.329 -1.75408 1.01783 0
M  V30 4731 C 434.662 -1.88943 -0.448814 0
M  V30 4732 O 433.937 -1.4162 -1.33319 0
M  V30 4733 C 434.22 -3.17255 1.70356 0
M  V30 4734 C 434.073 -3.11508 3.24473 0
M  V30 4735 C 435.392 -4.15955 1.43769 0
M  V30 4736 H 432.511 -0.636713 0.371167 0
M  V30 4737 H 435.153 -1.18436 1.4857 0
M  V30 4738 H 433.303 -3.65898 1.30578 0
M  V30 4739 H 434.975 -2.70658 3.73553 0
M  V30 4740 H 433.218 -2.4887 3.55311 0
M  V30 4741 H 433.889 -4.11784 3.67611 0
M  V30 4742 H 436.365 -3.75973 1.7828 0
M  V30 4743 H 435.241 -5.13368 1.94279 0
M  V30 4744 H 435.502 -4.40586 0.365564 0
M  V30 4745 N 434.561 -1.01147 -1.20859 0
M  V30 4746 C 435.838 -0.613136 -1.85742 0
M  V30 4747 C 436.218 0.909004 -1.90526 0
M  V30 4748 O 435.566 1.79862 -1.40932 0
M  V30 4749 C 435.776 -1.255 -3.25654 0
M  V30 4750 C 437.124 -1.3672 -4.01986 0
M  V30 4751 O 438.148 -1.21082 -3.34989 0
M  V30 4752 O 437.007 -1.6194 -5.21956 0
M  V30 4753 H 434.101 -0.210878 -0.799662 0
M  V30 4754 H 436.647 -1.10853 -1.2849 0
M  V30 4755 H 435.419 -2.29532 -3.16908 0
M  V30 4756 H 435.042 -0.746369 -3.90532 0
M  V30 4757 N 436.039 1.36541 -0.78704 0
M  V30 4758 C 436.986 2.30082 -0.181901 0
M  V30 4759 C 437.956 1.5186 0.672896 0
M  V30 4760 O 439.141 1.80374 0.622072 0
M  V30 4761 C 436.281 3.3835 0.679197 0
M  V30 4762 C 435.394 4.31565 -0.193882 0
M  V30 4763 C 434.529 5.26915 0.673364 0
M  V30 4764 C 433.568 6.11769 -0.201315 0
M  V30 4765 N 432.705 6.99315 0.624777 0
M  V30 4766 H 437.545 2.81248 -0.985064 0
M  V30 4767 H 435.082 1.38437 -0.497342 0
M  V30 4768 H 437.04 3.99767 1.19341 0
M  V30 4769 H 435.67 2.8851 1.44781 0
M  V30 4770 H 434.722 3.71323 -0.826044 0
M  V30 4771 H 436.034 4.91191 -0.867937 0
M  V30 4772 H 435.188 5.9361 1.25348 0
M  V30 4773 H 433.927 4.67737 1.38105 0
M  V30 4774 H 432.932 5.44039 -0.793849 0
M  V30 4775 H 434.157 6.73022 -0.906568 0
M  V30 4776 H 432.103 6.42648 1.3168 0
M  V30 4777 H 432.02 7.56 0.00835237 0
M  V30 4778 H 433.288 7.70382 1.18879 0
M  V30 4779 N 437.518 0.538854 1.48102 0
M  V30 4780 C 438.448 -0.207654 2.32575 0
M  V30 4781 C 439.429 -0.926559 1.4265 0
M  V30 4782 O 440.614 -0.91061 1.71527 0
M  V30 4783 C 437.744 -1.24957 3.24042 0
M  V30 4784 C 436.698 -0.648263 4.23062 0
M  V30 4785 C 436.024 -1.79348 5.03725 0
M  V30 4786 C 437.324 0.385897 5.20872 0
M  V30 4787 H 439.018 0.497534 2.95237 0
M  V30 4788 H 436.564 0.240715 1.41974 0
M  V30 4789 H 438.517 -1.77983 3.81969 0
M  V30 4790 H 437.241 -1.98446 2.59397 0
M  V30 4791 H 435.9 -0.139452 3.66335 0
M  V30 4792 H 435.548 -2.51696 4.35498 0
M  V30 4793 H 435.248 -1.39702 5.70751 0
M  V30 4794 H 436.772 -2.32735 5.64506 0
M  V30 4795 H 438.186 -0.057607 5.73271 0
M  V30 4796 H 436.583 0.700227 5.96001 0
M  V30 4797 H 437.653 1.28848 4.67468 0
M  V30 4798 N 438.996 -1.55193 0.274407 0
M  V30 4799 C 440.221 -2.04446 -0.348824 0
M  V30 4800 C 440.646 -1.15149 -1.48735 0
M  V30 4801 O 440.004 -0.149952 -1.80679 0
M  V30 4802 C 440.052 -3.51431 -0.808009 0
M  V30 4803 O 439.156 -3.65225 -1.91531 0
M  V30 4804 H 438.497 -0.66006 -0.0722276 0
M  V30 4805 H 441.027 -2.00481 0.408498 0
M  V30 4806 H 441.037 -3.92781 -1.10395 0
M  V30 4807 H 439.712 -4.15892 0.0249865 0
M  V30 4808 H 438.289 -3.35778 -1.62196 0
M  V30 4809 N 440.474 -0.00167713 -1.576 0
M  V30 4810 C 441.404 0.988091 -2.11563 0
M  V30 4811 C 442.385 1.35736 -1.02517 0
M  V30 4812 O 443.57 1.44082 -1.30208 0
M  V30 4813 C 440.7 2.27941 -2.62031 0
M  V30 4814 C 439.654 2.0517 -3.75619 0
M  V30 4815 C 438.98 3.4033 -4.12407 0
M  V30 4816 C 440.28 1.41294 -5.02825 0
M  V30 4817 H 441.974 0.538771 -2.94513 0
M  V30 4818 H 439.52 0.257712 -1.41675 0
M  V30 4819 H 441.473 2.97539 -2.9841 0
M  V30 4820 H 440.197 2.74989 -1.76205 0
M  V30 4821 H 438.856 1.37998 -3.39635 0
M  V30 4822 H 438.504 3.85085 -3.23603 0
M  V30 4823 H 438.204 3.25909 -4.88935 0
M  V30 4824 H 439.728 4.1124 -4.51347 0
M  V30 4825 H 441.142 2.00851 -5.36965 0
M  V30 4826 H 439.539 1.37356 -5.84169 0
M  V30 4827 H 440.609 0.382362 -4.8339 0
M  V30 4828 N 441.952 1.55251 0.271103 0
M  V30 4829 C 443.363 1.66635 0.842007 0
M  V30 4830 C 443.714 0.594631 1.86972 0
M  V30 4831 O 442.839 -0.263532 2.14789 0
M  V30 4832 C 443.434 3.02082 1.53401 0
M  V30 4833 C 441.993 3.15487 2.05293 0
M  V30 4834 C 441.14 2.62438 0.895631 0
M  V30 4835 H 444.091 1.58629 0.0474117 0
M  V30 4836 H 444.112 2.95176 2.40107 0
M  V30 4837 H 443.624 3.80062 0.785786 0
M  V30 4838 H 441.725 2.42284 2.83071 0
M  V30 4839 H 441.838 4.22075 2.26693 0
M  V30 4840 H 440.202 2.19644 1.28953 0
M  V30 4841 H 440.985 3.42923 0.160878 0
M  V30 4842 N 443.43 -0.535701 1.48216 0
M  V30 4843 C 444.362 -1.65662 1.58394 0
M  V30 4844 C 445.375 -1.5591 0.468607 0
M  V30 4845 O 446.564 -1.62475 0.7392 0
M  V30 4846 C 443.664 -3.04276 1.4923 0
M  V30 4847 C 442.837 -3.39567 2.75705 0
M  V30 4848 C 441.896 -4.57436 2.60075 0
M  V30 4849 O 440.922 -4.60942 3.33948 0
M  V30 4850 N 442.124 -5.55259 1.69315 0
M  V30 4851 H 444.889 -1.5737 2.55058 0
M  V30 4852 H 442.45 -0.722845 1.44867 0
M  V30 4853 H 444.442 -3.80994 1.36477 0
M  V30 4854 H 443.012 -3.06677 0.605632 0
M  V30 4855 H 442.232 -2.52083 3.03064 0
M  V30 4856 H 443.52 -3.59929 3.59623 0
M  V30 4857 H 442.918 -5.552 1.08489 0
M  V30 4858 H 441.475 -6.31218 1.62504 0
M  V30 4859 N 444.908 -1.36708 -0.784132 0
M  V30 4860 C 446.185 -1.21776 -1.53069 0
M  V30 4861 C 446.565 0.193876 -2.10208 0
M  V30 4862 O 445.913 1.20012 -1.94446 0
M  V30 4863 C 446.123 -2.30395 -2.62143 0
M  V30 4864 C 447.471 -2.67325 -3.29882 0
M  V30 4865 O 448.495 -2.29478 -2.7243 0
M  V30 4866 O 447.354 -3.32485 -4.33724 0
M  V30 4867 H 444.448 -0.474459 -0.677361 0
M  V30 4868 H 446.994 -1.48454 -0.82216 0
M  V30 4869 H 445.766 -3.2498 -2.17953 0
M  V30 4870 H 445.389 -2.05112 -3.40609 0
M  V30 4871 N 446.386 1.0089 -1.21074 0
M  V30 4872 C 447.614 1.78191 -1.05145 0
M  V30 4873 C 448.029 1.84537 0.398952 0
M  V30 4874 O 447.386 1.30393 1.27687 0
M  V30 4875 C 447.437 3.22288 -1.63746 0
M  V30 4876 O 447.158 3.16315 -3.03111 0
M  V30 4877 C 448.659 4.16106 -1.52875 0
M  V30 4878 H 445.879 0.560129 -0.369454 0
M  V30 4879 H 448.423 1.26945 -1.60328 0
M  V30 4880 H 446.578 3.70655 -1.12664 0
M  V30 4881 H 446.992 4.06817 -3.31059 0
M  V30 4882 H 448.466 5.15026 -1.98626 0
M  V30 4883 H 448.943 4.36541 -0.482521 0
M  V30 4884 H 449.549 3.73625 -2.03185 0
M  V30 4885 N 447.864 1.01787 1.20321 0
M  V30 4886 C 449.112 0.706538 1.89347 0
M  V30 4887 C 449.433 -0.766289 1.79313 0
M  V30 4888 O 448.703 -1.55126 1.19635 0
M  V30 4889 H 447.283 0.258348 0.700903 0
M  V30 4890 H 449.945 1.28974 1.46122 0
M  V30 4891 H 449.041 0.991066 2.95946 0
M  V30 4892 N 449.342 -1.36122 0.79427 0
M  V30 4893 C 450.57 -2.03362 0.380989 0
M  V30 4894 C 450.985 -1.59881 -1.00416 0
M  V30 4895 O 450.342 -0.790515 -1.6449 0
M  V30 4896 C 450.393 -3.58804 0.440649 0
M  V30 4897 O 450.114 -4.007 1.77118 0
M  V30 4898 C 451.615 -4.43296 0.0186117 0
M  V30 4899 H 448.835 -0.652526 0.156367 0
M  V30 4900 H 451.379 -1.73998 1.07447 0
M  V30 4901 H 449.534 -3.8686 -0.204458 0
M  V30 4902 H 449.948 -4.95309 1.72538 0
M  V30 4903 H 451.422 -5.51887 0.111488 0
M  V30 4904 H 451.899 -4.2684 -1.03461 0
M  V30 4905 H 452.505 -4.20512 0.636395 0
M  V30 4906 N 450.82 -0.546701 -1.47814 0
M  V30 4907 C 452.067 -0.0187407 -2.02491 0
M  V30 4908 C 452.395 1.32685 -1.42215 0
M  V30 4909 O 451.65 1.87413 -0.563454 0
M  V30 4910 C 451.949 0.134869 -3.57145 0
M  V30 4911 C 451.615 -1.13849 -4.3629 0
M  V30 4912 C 450.277 -1.48743 -4.57634 0
M  V30 4913 C 452.629 -1.98277 -4.82012 0
M  V30 4914 C 449.957 -2.67932 -5.21948 0
M  V30 4915 C 452.309 -3.16659 -5.4764 0
M  V30 4916 C 450.973 -3.51879 -5.67219 0
M  V30 4917 H 450.243 -0.0068577 -0.740968 0
M  V30 4918 H 452.89 -0.716097 -1.77607 0
M  V30 4919 H 451.195 0.915118 -3.80963 0
M  V30 4920 H 452.892 0.558556 -3.97091 0
M  V30 4921 H 449.482 -0.856767 -4.19949 0
M  V30 4922 H 453.666 -1.72628 -4.6531 0
M  V30 4923 H 448.922 -2.95401 -5.35302 0
M  V30 4924 H 453.096 -3.82374 -5.82033 0
M  V30 4925 H 450.723 -4.44331 -6.16825 0
M  V30 4926 N 452.299 1.55045 -0.282633 0
M  V30 4927 C 453.548 1.98938 0.332667 0
M  V30 4928 C 453.861 1.17455 1.56409 0
M  V30 4929 O 455.067 1.51527 2.25282 0
M  V30 4930 C 453.523 3.54105 0.643226 0
M  V30 4931 C 453.131 4.44374 -0.568814 0
M  V30 4932 C 454.875 4.06569 1.22074 0
M  V30 4933 C 452.782 5.90943 -0.232426 0
M  V30 4934 H 451.712 0.743043 0.128075 0
M  V30 4935 H 454.363 1.79341 -0.388464 0
M  V30 4936 H 452.745 3.69532 1.42346 0
M  V30 4937 H 453.919 4.40718 -1.34551 0
M  V30 4938 H 452.234 4.02585 -1.06369 0
M  V30 4939 H 454.831 5.13626 1.48635 0
M  V30 4940 H 455.174 3.56057 2.15707 0
M  V30 4941 H 455.707 3.94612 0.502621 0
M  V30 4942 H 452.446 6.45567 -1.13683 0
M  V30 4943 H 451.966 5.9765 0.507357 0
M  V30 4944 H 453.645 6.4677 0.172657 0
M  V30 4945 N 453.777 0.010035 1.57597 0
M  V30 4946 C 455.002 -0.687021 1.95691 0
M  V30 4947 C 455.427 -1.65952 0.885519 0
M  V30 4948 O 454.785 -1.80633 -0.15543 0
M  V30 4949 C 454.833 -1.3864 3.32884 0
M  V30 4950 O 453.937 -2.50115 3.27897 0
M  V30 4951 H 453.278 -0.181989 0.638573 0
M  V30 4952 H 455.808 0.0662122 2.04493 0
M  V30 4953 H 455.818 -1.74754 3.6868 0
M  V30 4954 H 454.493 -0.673411 4.10412 0
M  V30 4955 H 453.07 -2.16253 3.03791 0
M  V30 4956 N 455.255 -1.55392 -0.262866 0
M  V30 4957 C 456.202 -1.88966 -1.32516 0
M  V30 4958 C 457.172 -0.742187 -1.48596 0
M  V30 4959 O 458.357 -0.99439 -1.62839 0
M  V30 4960 C 455.497 -2.17592 -2.67858 0
M  V30 4961 C 454.61 -3.45061 -2.59917 0
M  V30 4962 C 453.745 -3.63336 -3.87505 0
M  V30 4963 C 452.784 -4.84462 -3.74116 0
M  V30 4964 N 451.921 -4.99342 -4.93561 0
M  V30 4965 H 456.761 -2.79566 -1.03184 0
M  V30 4966 H 454.298 -1.38404 -0.498285 0
M  V30 4967 H 456.256 -2.3219 -3.46617 0
M  V30 4968 H 454.886 -1.30215 -2.95371 0
M  V30 4969 H 453.938 -3.38881 -1.72812 0
M  V30 4970 H 455.25 -4.3396 -2.45926 0
M  V30 4971 H 454.404 -3.77807 -4.74707 0
M  V30 4972 H 453.143 -2.72641 -4.04374 0
M  V30 4973 H 452.148 -4.69985 -2.85297 0
M  V30 4974 H 453.373 -5.76603 -3.58757 0
M  V30 4975 H 451.319 -4.1158 -5.10821 0
M  V30 4976 H 451.236 -5.82303 -4.82141 0
M  V30 4977 H 452.504 -5.18208 -5.82306 0
M  V30 4978 N 456.733 0.527833 -1.48498 0
M  V30 4979 C 457.982 1.28003 -1.55878 0
M  V30 4980 C 458.295 1.9414 -0.238577 0
M  V30 4981 O 459.501 2.7083 -0.190643 0
M  V30 4982 C 457.957 2.32272 -2.74914 0
M  V30 4983 C 457.565 1.72196 -4.13585 0
M  V30 4984 C 459.309 3.08488 -2.91608 0
M  V30 4985 C 457.216 2.74417 -5.23879 0
M  V30 4986 H 456.146 0.481413 -0.580308 0
M  V30 4987 H 458.797 0.557195 -1.74836 0
M  V30 4988 H 457.179 3.07601 -2.49395 0
M  V30 4989 H 458.353 1.03041 -4.49132 0
M  V30 4990 H 456.668 1.08464 -4.02025 0
M  V30 4991 H 459.265 3.84879 -3.71177 0
M  V30 4992 H 459.608 3.64481 -2.01145 0
M  V30 4993 H 460.141 2.40274 -3.17038 0
M  V30 4994 H 456.88 2.23242 -6.16314 0
M  V30 4995 H 456.4 3.41893 -4.92818 0
M  V30 4996 H 458.079 3.37362 -5.52083 0
M  V30 4997 N 458.211 1.37122 0.776871 0
M  V30 4998 C 459.622 1.28667 1.35284 0
M  V30 4999 C 459.973 -0.0680035 1.96082 0
M  V30 5000 O 459.098 -0.969743 1.93455 0
M  V30 5001 C 459.693 2.32997 2.45963 0
M  V30 5002 C 458.252 2.28191 2.99342 0
M  V30 5003 C 457.399 2.17101 1.72517 0
M  V30 5004 H 460.35 1.47819 0.577527 0
M  V30 5005 H 460.371 1.97366 3.2531 0
M  V30 5006 H 459.883 3.3158 2.01684 0
M  V30 5007 H 457.984 1.33115 3.4801 0
M  V30 5008 H 458.097 3.21397 3.55304 0
M  V30 5009 H 456.461 1.63562 1.95242 0
M  V30 5010 H 457.244 3.17591 1.30348 0
M  V30 5011 N 459.689 -1.00246 1.21608 0
M  V30 5012 C 460.935 -1.74417 1.04643 0
M  V30 5013 C 461.29 -1.87862 -0.415387 0
M  V30 5014 O 460.583 -1.40373 -1.30407 0
M  V30 5015 C 460.777 -3.15448 1.68009 0
M  V30 5016 C 460.606 -3.15755 3.20201 0
M  V30 5017 C 459.376 -3.2219 3.89258 0
M  V30 5018 C 461.574 -3.00668 4.17257 0
M  V30 5019 N 459.556 -3.1215 5.28617 0
M  V30 5020 C 460.927 -2.98553 5.43384 0
M  V30 5021 C 462.982 -2.84989 4.08272 0
M  V30 5022 C 461.685 -2.82364 6.61561 0
M  V30 5023 C 463.711 -2.70158 5.26088 0
M  V30 5024 C 463.073 -2.68721 6.51128 0
M  V30 5025 H 459.172 -0.648317 0.437274 0
M  V30 5026 H 461.756 -1.19129 1.54001 0
M  V30 5027 H 459.927 -3.69001 1.21215 0
M  V30 5028 H 461.659 -3.78128 1.44226 0
M  V30 5029 H 458.414 -3.29488 3.40198 0
M  V30 5030 H 458.838 -3.10465 6.01615 0
M  V30 5031 H 463.48 -2.84904 3.12393 0
M  V30 5032 H 461.198 -2.81196 7.57598 0
M  V30 5033 H 464.784 -2.59022 5.20959 0
M  V30 5034 H 463.664 -2.57382 7.40759 0
M  V30 5035 N 461.167 -1.02423 -1.1978 0
M  V30 5036 C 462.392 -0.7373 -1.93852 0
M  V30 5037 C 462.817 0.696923 -1.74713 0
M  V30 5038 O 462.175 1.48056 -1.04638 0
M  V30 5039 C 462.223 -1.08783 -3.438 0
M  V30 5040 O 461.327 -0.20383 -4.11896 0
M  V30 5041 H 460.668 -0.27284 -0.605355 0
M  V30 5042 H 463.198 -1.36966 -1.51992 0
M  V30 5043 H 463.208 -1.04276 -3.9445 0
M  V30 5044 H 461.883 -2.13274 -3.57053 0
M  V30 5045 H 460.46 -0.307091 -3.71633 0
M  V30 5046 N 462.645 1.35699 -0.801477 0
M  V30 5047 C 463.892 1.98913 -0.379459 0
M  V30 5048 C 464.22 1.63592 1.05204 0
M  V30 5049 O 463.475 0.888563 1.74365 0
M  V30 5050 C 463.774 3.53828 -0.504041 0
M  V30 5051 C 463.44 4.09002 -1.8981 0
M  V30 5052 C 462.102 4.23783 -2.27951 0
M  V30 5053 C 464.454 4.38939 -2.81038 0
M  V30 5054 C 461.782 4.65816 -3.56696 0
M  V30 5055 C 464.134 4.82409 -4.09224 0
M  V30 5056 C 462.798 4.95395 -4.4737 0
M  V30 5057 H 462.068 0.727874 -0.138854 0
M  V30 5058 H 464.715 1.61994 -1.02128 0
M  V30 5059 H 463.02 3.91175 0.221242 0
M  V30 5060 H 464.717 4.00687 -0.158361 0
M  V30 5061 H 461.307 3.97946 -1.59176 0
M  V30 5062 H 465.491 4.27077 -2.52821 0
M  V30 5063 H 460.747 4.74059 -3.86106 0
M  V30 5064 H 464.921 5.04535 -4.80018 0
M  V30 5065 H 462.548 5.27724 -5.47185 0
M  V30 5066 N 464.123 0.554532 1.47522 0
M  V30 5067 C 465.353 0.0342074 2.06572 0
M  V30 5068 C 465.761 -1.26375 1.40805 0
M  V30 5069 O 465.104 -1.7683 0.49769 0
M  V30 5070 C 465.166 -0.235096 3.5873 0
M  V30 5071 C 464.83 0.973024 4.46521 0
M  V30 5072 C 465.827 1.8779 4.848 0
M  V30 5073 C 463.512 1.18694 4.88075 0
M  V30 5074 C 465.506 2.98039 5.63428 0
M  V30 5075 C 463.193 2.29254 5.66468 0
M  V30 5076 C 464.191 3.18757 6.04055 0
M  V30 5077 O 463.879 4.27401 6.8087 0
M  V30 5078 H 463.611 0.041587 0.67472 0
M  V30 5079 H 466.165 0.766748 1.90552 0
M  V30 5080 H 464.395 -1.02191 3.72953 0
M  V30 5081 H 466.084 -0.700477 3.9981 0
M  V30 5082 H 466.85 1.72467 4.53299 0
M  V30 5083 H 462.729 0.49947 4.58286 0
M  V30 5084 H 466.273 3.67926 5.92685 0
M  V30 5085 H 462.17 2.4455 5.97382 0
M  V30 5086 H 462.938 4.25415 6.9926 0
M  V30 5087 N 465.601 -1.54893 0.290851 0
M  V30 5088 C 466.548 -2.23138 -0.58974 0
M  V30 5089 C 467.518 -1.21036 -1.13752 0
M  V30 5090 O 468.703 -1.49626 -1.18392 0
M  V30 5091 C 465.843 -2.96811 -1.76061 0
M  V30 5092 C 464.956 -4.13665 -1.24519 0
M  V30 5093 C 464.091 -4.74944 -2.3791 0
M  V30 5094 C 463.13 -5.83963 -1.83451 0
M  V30 5095 N 462.267 -6.39239 -2.90376 0
M  V30 5096 H 467.107 -2.98 -0.00114915 0
M  V30 5097 H 464.644 -1.47096 0.0112006 0
M  V30 5098 H 466.602 -3.37751 -2.44909 0
M  V30 5099 H 465.232 -2.24344 -2.32098 0
M  V30 5100 H 464.284 -3.77737 -0.449288 0
M  V30 5101 H 465.596 -4.92238 -0.806424 0
M  V30 5102 H 464.75 -5.18684 -3.14724 0
M  V30 5103 H 463.489 -3.95682 -2.85109 0
M  V30 5104 H 462.494 -5.39657 -1.05122 0
M  V30 5105 H 463.719 -6.65103 -1.37169 0
M  V30 5106 H 461.665 -5.62864 -3.36927 0
M  V30 5107 H 461.582 -7.13129 -2.50965 0
M  V30 5108 H 462.85 -6.87637 -3.67118 0
M  V30 5109 N 467.08 -0.0183926 -1.57589 0
M  V30 5110 C 468.01 0.965596 -2.12599 0
M  V30 5111 C 468.991 1.34641 -1.0395 0
M  V30 5112 O 470.176 1.42693 -1.31729 0
M  V30 5113 C 467.306 2.25149 -2.64434 0
M  V30 5114 C 466.26 2.01175 -3.77773 0
M  V30 5115 C 465.586 3.35937 -4.15994 0
M  V30 5116 C 466.886 1.35953 -5.04296 0
M  V30 5117 H 468.58 0.507504 -2.95067 0
M  V30 5118 H 466.126 0.242671 -1.41941 0
M  V30 5119 H 468.079 2.94357 -3.01549 0
M  V30 5120 H 466.803 2.73105 -1.79112 0
M  V30 5121 H 465.462 1.34388 -3.4108 0
M  V30 5122 H 465.11 3.81631 -3.27669 0
M  V30 5123 H 464.81 3.20705 -4.92364 0
M  V30 5124 H 466.334 4.0643 -4.55683 0
M  V30 5125 H 467.748 1.95144 -5.39065 0
M  V30 5126 H 466.145 1.31152 -5.85593 0
M  V30 5127 H 467.215 0.331071 -4.83768 0
M  V30 5128 N 468.558 1.5553 0.254621 0
M  V30 5129 C 469.805 1.77 0.983736 0
M  V30 5130 C 470.133 0.58133 1.85609 0
M  V30 5131 O 469.388 -0.435621 1.9079 0
M  V30 5132 C 469.687 3.03891 1.88109 0
M  V30 5133 C 469.353 4.35597 1.16472 0
M  V30 5134 C 468.015 4.7139 0.966714 0
M  V30 5135 C 470.367 5.1705 0.656387 0
M  V30 5136 C 467.695 5.86176 0.247942 0
M  V30 5137 C 470.047 6.32581 -0.0488807 0
M  V30 5138 C 468.711 6.67 -0.258438 0
M  V30 5139 H 467.981 0.647688 0.359974 0
M  V30 5140 H 470.628 1.89802 0.254463 0
M  V30 5141 H 468.933 2.86068 2.67717 0
M  V30 5142 H 470.63 3.17701 2.44677 0
M  V30 5143 H 467.22 4.07475 1.32899 0
M  V30 5144 H 471.404 4.8986 0.796933 0
M  V30 5145 H 466.66 6.11354 0.075035 0
M  V30 5146 H 470.834 6.94942 -0.450444 0
M  V30 5147 H 468.461 7.55793 -0.817358 0
M  V30 5148 N 470.036 -0.519951 1.48776 0
M  V30 5149 C 470.966 -1.63253 1.66945 0
M  V30 5150 C 471.947 -1.62014 0.518224 0
M  V30 5151 O 473.132 -1.79053 0.751919 0
M  V30 5152 C 470.262 -3.0181 1.71836 0
M  V30 5153 C 469.216 -3.17911 2.8656 0
M  V30 5154 C 468.542 -4.5763 2.76548 0
M  V30 5155 C 469.842 -2.99729 4.27738 0
M  V30 5156 H 471.536 -1.48302 2.6009 0
M  V30 5157 H 469.082 -0.712026 1.25165 0
M  V30 5158 H 471.035 -3.79525 1.83135 0
M  V30 5159 H 469.759 -3.17806 0.752775 0
M  V30 5160 H 468.418 -2.42616 2.74833 0
M  V30 5161 H 468.066 -4.70476 1.77937 0
M  V30 5162 H 467.766 -4.69346 3.53536 0
M  V30 5163 H 469.29 -5.37431 2.89828 0
M  V30 5164 H 470.704 -3.67228 4.40246 0
M  V30 5165 H 469.101 -3.22932 5.05801 0
M  V30 5166 H 470.171 -1.96047 4.43502 0
M  V30 5167 N 471.514 -1.37532 -0.769588 0
M  V30 5168 C 472.444 -1.36172 -1.89682 0
M  V30 5169 C 473.425 -0.23001 -1.68538 0
M  V30 5170 O 474.61 -0.43069 -1.89364 0
M  V30 5171 C 471.74 -1.1701 -3.26995 0
M  V30 5172 C 470.694 -2.27216 -3.62708 0
M  V30 5173 C 470.02 -1.93174 -4.98586 0
M  V30 5174 C 471.32 -3.6941 -3.69234 0
M  V30 5175 H 473.014 -2.30499 -1.91078 0
M  V30 5176 H 470.56 -1.10953 -0.917902 0
M  V30 5177 H 472.513 -1.14688 -4.05493 0
M  V30 5178 H 471.237 -0.191395 -3.26039 0
M  V30 5179 H 469.896 -2.28697 -2.86519 0
M  V30 5180 H 469.544 -0.938281 -4.94171 0
M  V30 5181 H 469.244 -2.66973 -5.23449 0
M  V30 5182 H 470.768 -1.92443 -5.79481 0
M  V30 5183 H 472.182 -3.70047 -4.37879 0
M  V30 5184 H 470.579 -4.4228 -4.05597 0
M  V30 5185 H 471.649 -4.0288 -2.69844 0
M  V30 5186 N 472.992 0.995999 -1.22138 0
M  V30 5187 C 474.241 1.72928 -1.03821 0
M  V30 5188 C 474.554 1.90872 0.427444 0
M  V30 5189 O 475.76 2.61496 0.730212 0
M  V30 5190 C 474.216 3.11124 -1.80913 0
M  V30 5191 C 473.824 3.01122 -3.31707 0
M  V30 5192 C 475.568 3.8852 -1.71035 0
M  V30 5193 C 473.475 4.34453 -4.01253 0
M  V30 5194 H 472.405 0.648376 -0.384869 0
M  V30 5195 H 475.056 1.11213 -1.45959 0
M  V30 5196 H 473.438 3.73503 -1.31573 0
M  V30 5197 H 474.612 2.47926 -3.88419 0
M  V30 5198 H 472.927 2.3721 -3.42228 0
M  V30 5199 H 475.524 4.872 -2.20318 0
M  V30 5200 H 475.867 4.1087 -0.670196 0
M  V30 5201 H 476.4 3.32812 -2.17902 0
M  V30 5202 H 473.139 4.17303 -5.05508 0
M  V30 5203 H 472.659 4.87574 -3.49331 0
M  V30 5204 H 474.338 5.03215 -4.06674 0
M  V30 5205 N 474.47 1.03057 1.19235 0
M  V30 5206 C 475.4 0.633497 2.24742 0
M  V30 5207 C 476.381 -0.358335 1.66283 0
M  V30 5208 O 477.566 -0.240676 1.92703 0
M  V30 5209 C 474.696 -0.0147648 3.47297 0
M  V30 5210 C 473.65 0.899527 4.18441 0
M  V30 5211 C 472.976 0.116281 5.34574 0
M  V30 5212 C 474.276 2.21404 4.73051 0
M  V30 5213 H 475.97 1.5155 2.58211 0
M  V30 5214 H 473.516 0.73014 1.24117 0
M  V30 5215 H 475.469 -0.304202 4.20301 0
M  V30 5216 H 474.193 -0.931577 3.13032 0
M  V30 5217 H 472.852 1.17319 3.47321 0
M  V30 5218 H 472.5 -0.802619 4.96555 0
M  V30 5219 H 472.2 0.725293 5.83107 0
M  V30 5220 H 473.724 -0.166376 6.10373 0
M  V30 5221 H 475.138 1.98601 5.37802 0
M  V30 5222 H 473.535 2.77512 5.32078 0
M  V30 5223 H 474.605 2.86752 3.91026 0
M  V30 5224 N 475.948 -1.35272 0.808662 0
M  V30 5225 C 476.878 -2.32315 0.234981 0
M  V30 5226 C 477.859 -1.57572 -0.64071 0
M  V30 5227 O 479.044 -1.8563 -0.570551 0
M  V30 5228 C 476.174 -3.41801 -0.615601 0
M  V30 5229 C 475.128 -4.27694 0.161767 0
M  V30 5230 C 474.454 -5.28519 -0.810649 0
M  V30 5231 C 475.754 -5.04231 1.36193 0
M  V30 5232 H 477.448 -2.80543 1.04575 0
M  V30 5233 H 474.994 -1.3488 0.504315 0
M  V30 5234 H 476.947 -4.08693 -1.02702 0
M  V30 5235 H 475.671 -2.92186 -1.45928 0
M  V30 5236 H 474.33 -3.62384 0.554382 0
M  V30 5237 H 473.978 -4.75171 -1.64988 0
M  V30 5238 H 473.678 -5.8686 -0.294822 0
M  V30 5239 H 475.202 -5.98283 -1.22023 0
M  V30 5240 H 476.616 -5.64058 1.02528 0
M  V30 5241 H 475.013 -5.72077 1.81239 0
M  V30 5242 H 476.083 -4.34753 2.14751 0
M  V30 5243 N 477.426 -0.562348 -1.47226 0
M  V30 5244 C 478.356 0.170627 -2.32876 0
M  V30 5245 C 479.337 0.903748 -1.44106 0
M  V30 5246 O 480.522 0.883206 -1.72954 0
M  V30 5247 C 477.652 1.19786 -3.25989 0
M  V30 5248 C 476.606 0.580875 -4.2404 0
M  V30 5249 C 475.932 1.71311 -5.06514 0
M  V30 5250 C 477.232 -0.468714 -5.20193 0
M  V30 5251 H 478.926 -0.544441 -2.94408 0
M  V30 5252 H 476.472 -0.263271 -1.41573 0
M  V30 5253 H 478.425 1.71884 -3.84752 0
M  V30 5254 H 477.149 1.94294 -2.62521 0
M  V30 5255 H 475.808 0.0811538 -3.6651 0
M  V30 5256 H 475.456 2.44736 -4.39447 0
M  V30 5257 H 475.156 1.30604 -5.72902 0
M  V30 5258 H 476.68 2.23725 -5.68137 0
M  V30 5259 H 478.094 -0.0336028 -5.7329 0
M  V30 5260 H 476.491 -0.794957 -5.94811 0
M  V30 5261 H 477.561 -1.36269 -4.65359 0
M  V30 5262 N 478.904 1.54736 -0.299062 0
M  V30 5263 C 480.152 1.99706 0.31017 0
M  V30 5264 C 480.473 1.18896 1.54559 0
M  V30 5265 O 479.743 0.284445 1.93824 0
M  V30 5266 H 478.323 0.737686 0.117596 0
M  V30 5267 H 480.985 1.9054 -0.409943 0
M  V30 5268 H 480.081 3.06596 0.58355 0
M  V30 5269 N 480.382 0.0267497 1.57577 0
M  V30 5270 C 481.312 -0.954308 2.13108 0
M  V30 5271 C 482.293 -1.34088 1.04663 0
M  V30 5272 O 483.478 -1.41992 1.32484 0
M  V30 5273 C 480.608 -2.23744 2.65624 0
M  V30 5274 C 479.562 -1.99168 3.78835 0
M  V30 5275 C 478.888 -3.33726 4.17769 0
M  V30 5276 C 480.188 -1.33277 5.0501 0
M  V30 5277 H 481.882 -0.491848 2.95332 0
M  V30 5278 H 479.428 -0.23514 1.42067 0
M  V30 5279 H 481.381 -2.92754 3.03106 0
M  V30 5280 H 480.105 -2.72151 1.80558 0
M  V30 5281 H 478.764 -1.32577 3.41788 0
M  V30 5282 H 478.412 -3.79888 3.29688 0
M  V30 5283 H 478.112 -3.18089 4.94058 0
M  V30 5284 H 479.636 -4.04008 4.57832 0
M  V30 5285 H 481.05 -1.92283 5.40093 0
M  V30 5286 H 479.447 -1.28045 5.8628 0
M  V30 5287 H 480.517 -0.305411 4.83937 0
M  V30 5288 N 481.861 -1.55662 -0.24637 0
M  V30 5289 C 483.107 -1.77782 -0.975779 0
M  V30 5290 C 483.44 -0.592103 -1.84953 0
M  V30 5291 O 482.715 0.409588 -1.90138 0
M  V30 5292 C 482.998 -3.09788 -1.83584 0
M  V30 5293 C 482.851 -4.38764 -0.990241 0
M  V30 5294 C 484.17 -3.38029 -2.81823 0
M  V30 5295 H 481.289 -0.646789 -0.353317 0
M  V30 5296 H 483.931 -1.88398 -0.246248 0
M  V30 5297 H 482.081 -3.00869 -2.45784 0
M  V30 5298 H 483.753 -4.59675 -0.386897 0
M  V30 5299 H 481.996 -4.32798 -0.294626 0
M  V30 5300 H 482.667 -5.27514 -1.62584 0
M  V30 5301 H 485.143 -3.46915 -2.2976 0
M  V30 5302 H 484.019 -4.3161 -3.39122 0
M  V30 5303 H 484.28 -2.58968 -3.58313 0
M  V30 5304 N 483.339 0.512053 -1.4905 0
M  V30 5305 C 484.588 1.26343 -1.57227 0
M  V30 5306 C 484.901 1.93876 -0.259155 0
M  V30 5307 O 486.107 2.70612 -0.219358 0
M  V30 5308 C 484.563 2.29343 -2.77362 0
M  V30 5309 C 484.171 1.67799 -4.15388 0
M  V30 5310 C 485.915 3.05378 -2.94864 0
M  V30 5311 C 483.822 2.68845 -5.2676 0
M  V30 5312 H 482.752 0.475231 -0.585382 0
M  V30 5313 H 485.403 0.53862 -1.75417 0
M  V30 5314 H 483.785 3.04938 -2.52643 0
M  V30 5315 H 484.959 0.982715 -4.50199 0
M  V30 5316 H 483.274 1.04194 -4.03153 0
M  V30 5317 H 485.871 3.80921 -3.75238 0
M  V30 5318 H 486.214 3.62327 -2.05 0
M  V30 5319 H 486.747 2.36898 -3.19569 0
M  V30 5320 H 483.486 2.16692 -6.18647 0
M  V30 5321 H 483.006 3.36647 -4.96416 0
M  V30 5322 H 484.685 3.31487 -5.5563 0
M  V30 5323 N 484.817 1.37938 0.762283 0
M  V30 5324 C 486.063 1.33866 1.52341 0
M  V30 5325 C 486.396 -0.0738961 1.94059 0
M  V30 5326 O 485.671 -1.03326 1.64785 0
M  V30 5327 C 485.954 2.28644 2.78197 0
M  V30 5328 C 485.807 3.78722 2.42672 0
M  V30 5329 C 487.126 2.21702 3.80179 0
M  V30 5330 H 484.245 0.487593 0.55265 0
M  V30 5331 H 486.887 1.68717 0.873767 0
M  V30 5332 H 485.037 1.99055 3.33631 0
M  V30 5333 H 486.709 4.18948 1.93081 0
M  V30 5334 H 484.952 3.96827 1.75244 0
M  V30 5335 H 485.623 4.40486 3.3268 0
M  V30 5336 H 488.099 2.47805 3.34263 0
M  V30 5337 H 486.975 2.90143 4.65949 0
M  V30 5338 H 487.236 1.21301 4.25133 0
M  V30 5339 N 486.295 -0.989507 1.22664 0
M  V30 5340 C 487.542 -1.72953 1.05325 0
M  V30 5341 C 487.87 -1.90104 -0.411168 0
M  V30 5342 O 487.125 -1.44386 -1.32103 0
M  V30 5343 C 487.424 -3.13649 1.71345 0
M  V30 5344 C 487.09 -3.16403 3.21248 0
M  V30 5345 C 485.752 -3.16862 3.62149 0
M  V30 5346 C 488.104 -3.12428 4.17179 0
M  V30 5347 C 485.432 -3.11051 4.97458 0
M  V30 5348 C 487.784 -3.08159 5.52468 0
M  V30 5349 C 486.448 -3.06935 5.92746 0
M  V30 5350 H 485.718 -0.632881 0.385412 0
M  V30 5351 H 488.365 -1.15863 1.52473 0
M  V30 5352 H 486.67 -3.74069 1.16532 0
M  V30 5353 H 488.367 -3.69658 1.55416 0
M  V30 5354 H 484.957 -3.16798 2.88682 0
M  V30 5355 H 489.141 -3.11221 3.86595 0
M  V30 5356 H 484.397 -3.0845 5.27891 0
M  V30 5357 H 488.571 -3.04039 6.26525 0
M  V30 5358 H 486.198 -3.02186 6.97558 0
M  V30 5359 N 487.773 -1.03688 -1.18687 0
M  V30 5360 C 489.021 -0.736572 -1.88199 0
M  V30 5361 C 489.342 0.737665 -1.80509 0
M  V30 5362 O 488.612 1.53204 -1.22088 0
M  V30 5363 H 487.192 -0.269466 -0.696704 0
M  V30 5364 H 489.854 -1.31282 -1.44052 0
M  V30 5365 H 488.95 -1.03802 -2.94332 0
M  V30 5366 N 489.251 1.34841 -0.815825 0
M  V30 5367 C 490.662 1.80937 -0.46029 0
M  V30 5368 C 491.013 1.67685 1.01863 0
M  V30 5369 O 490.138 1.21277 1.79223 0
M  V30 5370 C 490.733 3.28509 -0.828708 0
M  V30 5371 C 489.292 3.72712 -0.525644 0
M  V30 5372 C 488.439 2.56676 -1.04941 0
M  V30 5373 H 491.39 1.22688 -1.00664 0
M  V30 5374 H 491.411 3.80279 -0.129757 0
M  V30 5375 H 490.923 3.38122 -1.90513 0
M  V30 5376 H 489.024 3.68642 0.541666 0
M  V30 5377 H 489.137 4.67119 -1.06474 0
M  V30 5378 H 487.501 2.50302 -0.471286 0
M  V30 5379 H 488.284 2.69063 -2.13214 0
M  V30 5380 N 490.729 0.570148 1.46925 0
M  V30 5381 C 491.957 0.0561966 2.06824 0
M  V30 5382 C 492.372 -1.24326 1.42086 0
M  V30 5383 O 491.729 -1.74882 0.521794 0
M  V30 5384 C 491.78 -0.129517 3.61268 0
M  V30 5385 O 491.501 1.1185 4.23581 0
M  V30 5386 C 493.002 -0.679266 4.38065 0
M  V30 5387 H 490.222 0.0517261 0.669003 0
M  V30 5388 H 492.766 0.787243 1.8874 0
M  V30 5389 H 490.921 -0.810739 3.78822 0
M  V30 5390 H 491.335 0.924375 5.1629 0
M  V30 5391 H 492.809 -0.758445 5.46765 0
M  V30 5392 H 493.286 -1.69346 4.05239 0
M  V30 5393 H 493.892 -0.0333237 4.25287 0
M  V30 5394 N 492.207 -1.54576 0.307264 0
M  V30 5395 C 493.14 -2.19946 -0.608195 0
M  V30 5396 C 494.118 -1.17096 -1.12815 0
M  V30 5397 O 495.302 -1.45766 -1.19518 0
M  V30 5398 C 492.429 -2.84826 -1.8328 0
M  V30 5399 C 491.475 -4.01256 -1.44554 0
M  V30 5400 S 492.308 -5.33197 -0.49612 0
M  V30 5401 C 493.464 -6.01563 -1.72838 0
M  V30 5402 H 493.697 -2.97253 -0.0528544 0
M  V30 5403 H 491.23 -1.54129 0.0913837 0
M  V30 5404 H 493.188 -3.22832 -2.53554 0
M  V30 5405 H 491.849 -2.07353 -2.35931 0
M  V30 5406 H 491.042 -4.45457 -2.35762 0
M  V30 5407 H 490.644 -3.6484 -0.822671 0
M  V30 5408 H 492.936 -6.22751 -2.6681 0
M  V30 5409 H 493.879 -6.9552 -1.32882 0
M  V30 5410 H 494.287 -5.31279 -1.90795 0
M  V30 5411 N 493.685 -0.035106 -1.57561 0
M  V30 5412 C 494.932 0.642229 -1.92046 0
M  V30 5413 C 495.26 1.7179 -0.91206 0
M  V30 5414 O 494.515 1.95544 0.0781153 0
M  V30 5415 C 494.814 1.29149 -3.3325 0
M  V30 5416 C 494.48 0.345604 -4.49574 0
M  V30 5417 C 493.142 0.0852775 -4.81124 0
M  V30 5418 C 495.494 -0.303569 -5.20315 0
M  V30 5419 C 492.822 -0.831927 -5.80772 0
M  V30 5420 C 495.174 -1.20886 -6.20942 0
M  V30 5421 C 493.838 -1.47802 -6.50931 0
M  V30 5422 H 493.108 0.235008 -0.702746 0
M  V30 5423 H 495.755 -0.0981529 -1.91248 0
M  V30 5424 H 494.06 2.10676 -3.30337 0
M  V30 5425 H 495.757 1.82223 -3.57205 0
M  V30 5426 H 492.347 0.558683 -4.24943 0
M  V30 5427 H 496.531 -0.115515 -4.96166 0
M  V30 5428 H 491.787 -1.0481 -6.02349 0
M  V30 5429 H 495.961 -1.71804 -6.74875 0
M  V30 5430 H 493.588 -2.19039 -7.2796 0
M  V30 5431 N 495.163 1.55791 0.238111 0
M  V30 5432 C 496.093 1.94068 1.29846 0
M  V30 5433 C 497.074 0.806726 1.49753 0
M  V30 5434 O 498.259 1.06772 1.62214 0
M  V30 5435 C 495.389 2.24302 2.65153 0
M  V30 5436 C 494.343 3.40032 2.59927 0
M  V30 5437 C 493.669 3.55829 3.99111 0
M  V30 5438 C 494.969 4.75476 2.16148 0
M  V30 5439 H 496.663 2.82887 0.980563 0
M  V30 5440 H 494.209 1.36105 0.470253 0
M  V30 5441 H 496.162 2.4967 3.39475 0
M  V30 5442 H 494.886 1.32318 2.98596 0
M  V30 5443 H 493.545 3.14687 1.88063 0
M  V30 5444 H 493.193 2.6125 4.29834 0
M  V30 5445 H 492.893 4.3366 3.96501 0
M  V30 5446 H 494.417 3.83528 4.7512 0
M  V30 5447 H 495.831 5.00158 2.80205 0
M  V30 5448 H 494.228 5.56472 2.24631 0
M  V30 5449 H 495.298 4.71946 1.11333 0
M  V30 5450 N 496.642 -0.504142 1.49319 0
M  V30 5451 C 497.552 -1.63248 1.68486 0
M  V30 5452 C 498.568 -1.64488 0.567432 0
M  V30 5453 O 499.744 -1.82966 0.841749 0
M  V30 5454 C 496.809 -2.99627 1.74426 0
M  V30 5455 C 495.87 -3.09039 2.97982 0
M  V30 5456 C 495.103 -4.38913 3.0363 0
M  V30 5457 O 495.326 -5.27528 2.16958 0
M  V30 5458 O 494.26 -4.53231 3.96062 0
M  V30 5459 H 498.086 -1.50008 2.64067 0
M  V30 5460 H 495.671 -0.680086 1.33023 0
M  V30 5461 H 497.553 -3.80689 1.80705 0
M  V30 5462 H 496.228 -3.13136 0.820233 0
M  V30 5463 H 495.135 -2.27177 2.97223 0
M  V30 5464 H 496.468 -3.00456 3.89855 0
M  V30 5465 N 498.12 -1.38341 -0.754957 0
M  V30 5466 C 499.366 -1.35678 -1.51536 0
M  V30 5467 C 499.721 0.0533985 -1.92326 0
M  V30 5468 O 499.014 1.01573 -1.6246 0
M  V30 5469 C 499.208 -2.2452 -2.78075 0
M  V30 5470 C 499.037 -3.74035 -2.49655 0
M  V30 5471 C 497.807 -4.43066 -2.42942 0
M  V30 5472 C 500.005 -4.665 -2.16523 0
M  V30 5473 N 497.987 -5.78026 -2.06783 0
M  V30 5474 C 499.358 -5.89962 -1.90644 0
M  V30 5475 C 501.413 -4.54718 -2.02821 0
M  V30 5476 C 500.116 -7.0296 -1.52444 0
M  V30 5477 C 502.142 -5.67618 -1.66023 0
M  V30 5478 C 501.504 -6.90141 -1.41015 0
M  V30 5479 H 497.603 -0.551764 -0.554148 0
M  V30 5480 H 500.187 -1.73716 -0.879258 0
M  V30 5481 H 498.358 -1.88673 -3.39496 0
M  V30 5482 H 500.09 -2.12993 -3.44116 0
M  V30 5483 H 496.845 -3.96264 -2.59367 0
M  V30 5484 H 497.269 -6.49394 -1.91353 0
M  V30 5485 H 501.911 -3.60546 -2.20831 0
M  V30 5486 H 499.629 -7.97051 -1.33174 0
M  V30 5487 H 503.215 -5.6048 -1.56055 0
M  V30 5488 H 502.095 -7.76021 -1.12965 0
M  V30 5489 N 499.598 0.982988 -1.23187 0
M  V30 5490 C 500.823 1.76455 -1.08988 0
M  V30 5491 C 501.248 1.84726 0.354691 0
M  V30 5492 O 500.606 1.30699 1.25649 0
M  V30 5493 C 500.654 3.17094 -1.71708 0
M  V30 5494 O 499.758 4.00648 -0.977477 0
M  V30 5495 H 499.099 0.542988 -0.382177 0
M  V30 5496 H 501.629 1.23413 -1.63188 0
M  V30 5497 H 501.639 3.67684 -1.76841 0
M  V30 5498 H 500.314 3.10389 -2.76823 0
M  V30 5499 H 498.891 3.59161 -1.0029 0
M  V30 5500 N 501.076 1.04316 1.18135 0
M  V30 5501 C 502.006 0.657299 2.24058 0
M  V30 5502 C 502.987 -0.340678 1.66654 0
M  V30 5503 O 504.172 -0.220223 1.92947 0
M  V30 5504 C 501.302 0.0220715 3.47293 0
M  V30 5505 C 500.256 0.943857 4.17463 0
M  V30 5506 C 499.582 0.172973 5.3442 0
M  V30 5507 C 500.882 2.26409 4.70677 0
M  V30 5508 H 502.576 1.5428 2.56589 0
M  V30 5509 H 500.122 0.743263 1.23335 0
M  V30 5510 H 502.075 -0.259607 4.206 0
M  V30 5511 H 500.799 -0.898323 3.14003 0
M  V30 5512 H 499.458 1.20996 3.46057 0
M  V30 5513 H 499.106 -0.749907 4.97379 0
M  V30 5514 H 498.806 0.787098 5.82304 0
M  V30 5515 H 500.33 -0.101628 6.10515 0
M  V30 5516 H 501.744 2.04294 5.35665 0
M  V30 5517 H 500.141 2.8314 5.29105 0
M  V30 5518 H 501.211 2.90883 3.87962 0
M  V30 5519 N 502.554 -1.34406 0.822964 0
M  V30 5520 C 503.801 -1.98284 0.411057 0
M  V30 5521 C 504.129 -1.65245 -1.02588 0
M  V30 5522 O 503.384 -0.91619 -1.72929 0
M  V30 5523 C 503.683 -3.52981 0.560268 0
M  V30 5524 C 503.349 -4.05931 1.96293 0
M  V30 5525 C 502.011 -4.20103 2.34664 0
M  V30 5526 C 504.363 -4.34412 2.87985 0
M  V30 5527 C 501.691 -4.60082 3.64062 0
M  V30 5528 C 504.043 -4.75838 4.16847 0
M  V30 5529 C 502.707 -4.88215 4.55195 0
M  V30 5530 H 501.977 -0.725573 0.150416 0
M  V30 5531 H 504.624 -1.60349 1.04692 0
M  V30 5532 H 502.929 -3.91477 -0.158982 0
M  V30 5533 H 504.626 -4.00385 0.222087 0
M  V30 5534 H 501.216 -3.95363 1.65487 0
M  V30 5535 H 505.4 -4.23001 2.59584 0
M  V30 5536 H 500.656 -4.67856 3.93599 0
M  V30 5537 H 504.83 -4.96834 4.87984 0
M  V30 5538 H 502.457 -5.18952 5.55512 0
M  V30 5539 N 504.032 -0.577932 -1.46621 0
M  V30 5540 C 505.309 0.00495287 -1.95599 0
M  V30 5541 C 505.689 1.46428 -1.5206 0
M  V30 5542 O 505.037 2.1517 -0.769046 0
M  V30 5543 C 505.247 -0.162114 -3.48623 0
M  V30 5544 C 506.595 -0.0274623 -4.24591 0
M  V30 5545 O 507.619 -0.0907067 -3.56084 0
M  V30 5546 O 506.478 0.1122 -5.46385 0
M  V30 5547 H 503.572 0.0525057 -0.825332 0
M  V30 5548 H 506.118 -0.645914 -1.56927 0
M  V30 5549 H 504.89 -1.17679 -3.73185 0
M  V30 5550 H 504.513 0.525407 -3.94113 0
M  V30 5551 N 505.51 1.54411 -0.315457 0
M  V30 5552 C 506.787 1.92562 0.343398 0
M  V30 5553 C 507.167 1.24423 1.70535 0
M  V30 5554 O 506.515 0.385051 2.25232 0
M  V30 5555 C 506.725 3.46168 0.443687 0
M  V30 5556 C 508.073 4.18659 0.707783 0
M  V30 5557 O 509.097 3.52281 0.52693 0
M  V30 5558 O 507.956 5.36198 1.05612 0
M  V30 5559 H 505.05 0.80379 0.194552 0
M  V30 5560 H 507.596 1.65738 -0.364577 0
M  V30 5561 H 506.368 3.8792 -0.513172 0
M  V30 5562 H 505.991 3.79073 1.19956 0
M  V30 5563 N 506.988 0.0434614 1.5754 0
M  V30 5564 C 507.918 -0.931651 2.14109 0
M  V30 5565 C 508.899 -1.32971 1.06079 0
M  V30 5566 O 510.084 -1.40579 1.33982 0
M  V30 5567 C 507.214 -2.20914 2.67982 0
M  V30 5568 C 506.168 -1.95139 3.80926 0
M  V30 5569 C 505.494 -3.29276 4.21285 0
M  V30 5570 C 506.794 -1.27913 5.06395 0
M  V30 5571 H 508.488 -0.460497 2.95837 0
M  V30 5572 H 506.034 -0.220058 1.42309 0
M  V30 5573 H 507.987 -2.89522 3.06194 0
M  V30 5574 H 506.711 -2.70221 1.83434 0
M  V30 5575 H 505.37 -1.28945 3.43175 0
M  V30 5576 H 505.018 -3.76369 3.33699 0
M  V30 5577 H 504.718 -3.12831 4.97404 0
M  V30 5578 H 506.242 -3.99129 4.62091 0
M  V30 5579 H 507.656 -1.86544 5.42102 0
M  V30 5580 H 506.053 -1.2182 5.87605 0
M  V30 5581 H 507.123 -0.254066 4.84234 0
M  V30 5582 N 508.466 -1.55915 -0.229846 0
M  V30 5583 C 509.429 -1.90914 -1.26824 0
M  V30 5584 C 510.429 -0.786999 -1.40225 0
M  V30 5585 O 511.619 -1.05484 -1.38632 0
M  V30 5586 C 508.751 -2.15264 -2.64337 0
M  V30 5587 H 509.944 -2.8378 -0.969998 0
M  V30 5588 H 507.497 -1.49069 -0.4699 0
M  V30 5589 H 508.232 -1.24923 -2.99274 0
M  V30 5590 H 508.017 -2.97005 -2.55989 0
M  V30 5591 H 509.507 -2.43467 -3.39284 0
M  V30 5592 N 509.944 0.496216 -1.49584 0
M  V30 5593 C 511.172 1.27394 -1.63029 0
M  V30 5594 C 511.587 1.86344 -0.303569 0
M  V30 5595 O 510.944 1.68057 0.711547 0
M  V30 5596 C 510.995 2.40077 -2.70269 0
M  V30 5597 O 510.716 1.83549 -3.97796 0
M  V30 5598 C 512.217 3.31372 -2.94462 0
M  V30 5599 H 509.437 0.386211 -0.54871 0
M  V30 5600 H 511.981 0.595163 -1.95648 0
M  V30 5601 H 510.136 3.03775 -2.40415 0
M  V30 5602 H 510.55 2.57561 -4.56905 0
M  V30 5603 H 512.024 4.06707 -3.73221 0
M  V30 5604 H 512.501 3.88654 -2.0456 0
M  V30 5605 H 513.107 2.73435 -3.25751 0
M  V30 5606 N 511.423 1.38739 0.74761 0
M  V30 5607 C 512.669 1.3648 1.50814 0
M  V30 5608 C 513.024 -0.0431982 1.92351 0
M  V30 5609 O 512.317 -1.0071 1.62997 0
M  V30 5610 C 512.511 2.25992 2.7688 0
M  V30 5611 C 512.34 3.75354 2.47668 0
M  V30 5612 C 511.11 4.44348 2.40589 0
M  V30 5613 C 513.308 4.67642 2.14046 0
M  V30 5614 N 511.29 5.79114 2.03715 0
M  V30 5615 C 512.661 5.90965 1.87512 0
M  V30 5616 C 514.716 4.55787 2.00407 0
M  V30 5617 C 513.419 7.03759 1.48714 0
M  V30 5618 C 515.445 5.68491 1.63011 0
M  V30 5619 C 514.807 6.90879 1.37353 0
M  V30 5620 H 510.906 0.554695 0.551214 0
M  V30 5621 H 513.49 1.7418 0.870033 0
M  V30 5622 H 511.661 1.9047 3.3849 0
M  V30 5623 H 513.393 2.14815 3.42982 0
M  V30 5624 H 510.148 3.97634 2.57262 0
M  V30 5625 H 510.572 6.504 1.87906 0
M  V30 5626 H 515.214 3.61712 2.18916 0
M  V30 5627 H 512.932 7.97746 1.28945 0
M  V30 5628 H 516.518 5.613 1.53081 0
M  V30 5629 H 515.398 7.76609 1.08848 0
M  V30 5630 N 512.901 -0.976442 1.23707 0
M  V30 5631 C 513.848 -2.06952 1.02174 0
M  V30 5632 C 514.818 -1.65984 -0.0621034 0
M  V30 5633 O 516.003 -1.90584 0.0907906 0
M  V30 5634 C 513.143 -3.39425 0.62327 0
M  V30 5635 C 512.256 -3.9364 1.77966 0
M  V30 5636 C 511.391 -5.14343 1.3276 0
M  V30 5637 C 510.43 -5.60733 2.45449 0
M  V30 5638 N 509.567 -6.72662 2.01172 0
M  V30 5639 H 514.407 -2.24704 1.95734 0
M  V30 5640 H 511.944 -1.10143 0.975034 0
M  V30 5641 H 513.902 -4.15526 0.37332 0
M  V30 5642 H 512.532 -3.21624 -0.275329 0
M  V30 5643 H 511.584 -3.14258 2.14351 0
M  V30 5644 H 512.896 -4.24035 2.62671 0
M  V30 5645 H 512.05 -5.97789 1.03601 0
M  V30 5646 H 510.789 -4.8561 0.450975 0
M  V30 5647 H 509.794 -4.75865 2.75378 0
M  V30 5648 H 511.019 -5.91483 3.33654 0
M  V30 5649 H 508.965 -6.45681 1.15895 0
M  V30 5650 H 508.882 -7.02462 2.79434 0
M  V30 5651 H 510.15 -7.59572 1.75129 0
M  V30 5652 N 514.379 -1.04941 -1.1758 0
M  V30 5653 C 515.627 -0.756492 -1.87408 0
M  V30 5654 C 515.948 0.718478 -1.81281 0
M  V30 5655 O 515.218 1.519 -1.23706 0
M  V30 5656 H 513.798 -0.276841 -0.693807 0
M  V30 5657 H 516.46 -1.32803 -1.42652 0
M  V30 5658 H 515.556 -1.06918 -2.93215 0
M  V30 5659 N 515.857 1.33968 -0.830081 0
M  V30 5660 C 517.097 1.99879 -0.427521 0
M  V30 5661 C 517.461 1.64355 0.992546 0
M  V30 5662 O 518.662 2.23164 1.49837 0
M  V30 5663 C 516.933 3.51771 -0.631815 0
M  V30 5664 S 518.492 4.37608 -0.323168 0
M  V30 5665 H 515.31 0.692485 -0.161202 0
M  V30 5666 H 517.912 1.63129 -1.07745 0
M  V30 5667 H 516.616 3.75113 -1.66488 0
M  V30 5668 H 516.147 3.93386 0.0325936 0
M  V30 5669 H 518.162 4.88683 0.860432 0
M  V30 5670 N 517.335 0.585699 1.46312 0
M  V30 5671 C 518.265 -0.133556 2.33118 0
M  V30 5672 C 519.246 -0.880707 1.45525 0
M  V30 5673 O 520.431 -0.855579 1.74337 0
M  V30 5674 C 517.561 -1.14585 3.27853 0
M  V30 5675 C 516.515 -0.513341 4.2491 0
M  V30 5676 C 515.841 -1.63231 5.09175 0
M  V30 5677 C 517.141 0.551413 5.19381 0
M  V30 5678 H 518.835 0.59121 2.93505 0
M  V30 5679 H 516.381 0.285761 1.41136 0
M  V30 5680 H 518.334 -1.65741 3.87438 0
M  V30 5681 H 517.058 -1.90093 2.65579 0
M  V30 5682 H 515.717 -0.0228349 3.66593 0
M  V30 5683 H 515.365 -2.37713 4.43285 0
M  V30 5684 H 515.065 -1.21473 5.74907 0
M  V30 5685 H 516.589 -2.14658 5.71624 0
M  V30 5686 H 518.003 0.124804 5.73164 0
M  V30 5687 H 516.4 0.889486 5.93471 0
M  V30 5688 H 517.47 1.43655 4.63132 0
M  V30 5689 N 518.813 -1.54241 0.323641 0
M  V30 5690 C 520.038 -2.05452 -0.283605 0
M  V30 5691 C 520.463 -1.19823 -1.44997 0
M  V30 5692 O 519.821 -0.207358 -1.8011 0
M  V30 5693 C 519.869 -3.53823 -0.695795 0
M  V30 5694 O 518.973 -3.71134 -1.79815 0
M  V30 5695 H 518.314 -0.662024 -0.0511917 0
M  V30 5696 H 520.844 -1.99079 0.472073 0
M  V30 5697 H 520.854 -3.96094 -0.978434 0
M  V30 5698 H 519.529 -4.15602 0.157287 0
M  V30 5699 H 518.106 -3.40768 -1.51431 0
M  V30 5700 N 520.291 -0.0518155 -1.57515 0
M  V30 5701 C 521.239 0.940195 -2.12751 0
M  V30 5702 C 522.233 1.3218 -1.05948 0
M  V30 5703 O 523.439 1.30138 -1.24355 0
M  V30 5704 H 519.814 0.321066 -0.680015 0
M  V30 5705 H 521.785 0.449217 -2.94999 0
M  V30 5706 C 520.534 2.2055 -2.68799 0
M  V30 5707 H 519.857 1.92066 -3.50643 0
M  V30 5708 H 521.297 2.88119 -3.11068 0
M  V30 5709 C 519.756 2.95061 -1.62605 0
M  V30 5710 O 520.286 3.88025 -1.03921 0
M  V30 5711 N 518.492 2.57804 -1.34111 0
M  V30 5712 H 518.039 1.82281 -1.8202 0
M  V30 5713 H 517.997 3.07964 -0.632872 0
M  V30 5714 N 521.769 1.56035 0.221574 0
M  V30 5715 C 523.016 1.79047 0.94597 0
M  V30 5716 C 523.344 0.62057 1.84334 0
M  V30 5717 O 522.599 -0.395053 1.91671 0
M  V30 5718 C 522.898 3.07813 1.8162 0
M  V30 5719 C 522.564 4.3797 1.07206 0
M  V30 5720 C 521.226 4.73334 0.866508 0
M  V30 5721 C 523.578 5.18326 0.546565 0
M  V30 5722 C 520.906 5.8657 0.123549 0
M  V30 5723 C 523.258 6.32335 -0.18305 0
M  V30 5724 C 521.922 6.66301 -0.399861 0
M  V30 5725 H 521.192 0.655178 0.346155 0
M  V30 5726 H 523.839 1.90299 0.214146 0
M  V30 5727 H 522.144 2.91682 2.61589 0
M  V30 5728 H 523.841 3.2282 2.37884 0
M  V30 5729 H 520.431 4.10202 1.24226 0
M  V30 5730 H 524.615 4.9144 0.692847 0
M  V30 5731 H 519.871 6.11376 -0.0546591 0
M  V30 5732 H 524.045 6.9383 -0.59775 0
M  V30 5733 H 521.672 7.53889 -0.977489 0
M  V30 5734 N 523.247 -0.488276 1.49845 0
M  V30 5735 C 524.472 -1.26997 1.63971 0
M  V30 5736 C 524.897 -1.85427 0.315994 0
M  V30 5737 O 524.255 -1.66475 -0.718032 0
M  V30 5738 C 524.303 -2.36689 2.72049 0
M  V30 5739 O 523.407 -3.40882 2.32107 0
M  V30 5740 H 522.748 -0.374376 0.548396 0
M  V30 5741 H 525.278 -0.583104 1.96115 0
M  V30 5742 H 525.288 -2.82262 2.94605 0
M  V30 5743 H 523.963 -1.93529 3.68129 0
M  V30 5744 H 522.54 -3.01139 2.19931 0
M  V30 5745 N 524.725 -1.39134 -0.740242 0
M  V30 5746 C 525.95 -1.39518 -1.53459 0
M  V30 5747 C 526.375 0.00968883 -1.88098 0
M  V30 5748 O 525.733 0.995312 -1.51536 0
M  V30 5749 C 525.781 -2.26981 -2.802 0
M  V30 5750 O 524.885 -1.69609 -3.75908 0
M  V30 5751 H 524.226 -0.475328 -0.463637 0
M  V30 5752 H 526.756 -1.83064 -0.913717 0
M  V30 5753 H 526.766 -2.41309 -3.28989 0
M  V30 5754 H 525.441 -3.29081 -2.5432 0
M  V30 5755 H 524.018 -1.64495 -3.34658 0
M  V30 5756 N 526.204 0.969867 -1.24223 0
M  V30 5757 C 527.434 1.74502 -1.106 0
M  V30 5758 C 527.842 1.86038 0.344483 0
M  V30 5759 O 527.185 1.3465 1.24961 0
M  V30 5760 C 527.247 3.18391 -1.66935 0
M  V30 5761 C 526.911 3.30334 -3.15798 0
M  V30 5762 C 527.908 3.15832 -4.12973 0
M  V30 5763 C 525.593 3.54644 -3.55715 0
M  V30 5764 C 527.587 3.25461 -5.48045 0
M  V30 5765 C 525.274 3.63912 -4.90929 0
M  V30 5766 C 526.272 3.49332 -5.86904 0
M  V30 5767 O 525.96 3.58251 -7.1966 0
M  V30 5768 H 525.692 0.554119 -0.387206 0
M  V30 5769 H 528.246 1.22646 -1.64764 0
M  V30 5770 H 526.476 3.71543 -1.07203 0
M  V30 5771 H 528.165 3.77707 -1.48634 0
M  V30 5772 H 528.931 2.96937 -3.83476 0
M  V30 5773 H 524.81 3.65059 -2.81519 0
M  V30 5774 H 528.354 3.13998 -6.22937 0
M  V30 5775 H 524.251 3.82319 -5.20098 0
M  V30 5776 H 525.019 3.7498 -7.27552 0
M  V30 5777 N 527.682 1.05563 1.17022 0
M  V30 5778 C 528.612 0.681026 2.23348 0
M  V30 5779 C 529.593 -0.322983 1.67005 0
M  V30 5780 O 530.778 -0.199746 1.9317 0
M  V30 5781 C 527.908 0.0589053 3.4725 0
M  V30 5782 C 526.862 0.988082 4.16438 0
M  V30 5783 C 526.188 0.229646 5.34207 0
M  V30 5784 C 527.488 2.31388 4.68249 0
M  V30 5785 H 529.182 1.56993 2.54938 0
M  V30 5786 H 526.728 0.756302 1.2254 0
M  V30 5787 H 528.681 -0.214982 4.20851 0
M  V30 5788 H 527.405 -0.864968 3.14938 0
M  V30 5789 H 526.064 1.24659 3.44754 0
M  V30 5790 H 525.712 -0.697111 4.98146 0
M  V30 5791 H 525.412 0.848815 5.81437 0
M  V30 5792 H 526.936 -0.0368694 6.10589 0
M  V30 5793 H 528.35 2.09964 5.33468 0
M  V30 5794 H 526.747 2.88736 5.26072 0
M  V30 5795 H 527.817 2.94982 3.84855 0
M  V30 5796 N 529.16 -1.33526 0.837174 0
M  V30 5797 C 530.388 -2.02047 0.445494 0
M  V30 5798 C 530.803 -1.62995 -0.952788 0
M  V30 5799 O 530.16 -0.842447 -1.61892 0
M  V30 5800 C 530.211 -3.57221 0.554577 0
M  V30 5801 O 529.932 -3.94863 1.89776 0
M  V30 5802 C 531.433 -4.43012 0.159634 0
M  V30 5803 H 528.653 -0.647221 0.177048 0
M  V30 5804 H 531.197 -1.70492 1.12928 0
M  V30 5805 H 529.352 -3.87315 -0.0812781 0
M  V30 5806 H 529.766 -4.89569 1.88208 0
M  V30 5807 H 531.24 -5.51253 0.28701 0
M  V30 5808 H 531.717 -4.29916 -0.898289 0
M  V30 5809 H 532.323 -4.18274 0.769855 0
M  V30 5810 N 530.638 -0.59345 -1.46 0
M  V30 5811 C 531.585 0.133618 -2.30413 0
M  V30 5812 C 532.555 0.873736 -1.41262 0
M  V30 5813 O 533.74 0.862279 -1.70204 0
M  V30 5814 C 530.88 1.13434 -3.25924 0
M  V30 5815 C 529.993 0.39656 -4.30176 0
M  V30 5816 C 529.128 1.38575 -5.12806 0
M  V30 5817 C 528.167 0.634984 -6.08797 0
M  V30 5818 N 527.304 1.57276 -6.84258 0
M  V30 5819 H 532.144 -0.592252 -2.92055 0
M  V30 5820 H 529.681 -0.303874 -1.43927 0
M  V30 5821 H 531.639 1.72752 -3.79753 0
M  V30 5822 H 530.269 1.82779 -2.66067 0
M  V30 5823 H 529.321 -0.311861 -3.79119 0
M  V30 5824 H 530.633 -0.189869 -4.98438 0
M  V30 5825 H 529.787 2.05141 -5.70966 0
M  V30 5826 H 528.526 2.00611 -4.44529 0
M  V30 5827 H 527.531 -0.0443925 -5.49782 0
M  V30 5828 H 528.756 0.0198678 -6.79097 0
M  V30 5829 H 526.702 2.18103 -6.18682 0
M  V30 5830 H 526.619 1.03941 -7.48821 0
M  V30 5831 H 527.887 2.22844 -7.46968 0
M  V30 5832 N 532.116 1.54067 -0.331816 0
M  V30 5833 C 533.344 2.05131 0.269996 0
M  V30 5834 C 533.759 1.20749 1.45138 0
M  V30 5835 O 533.116 0.240069 1.80914 0
M  V30 5836 C 533.167 3.54728 0.696456 0
M  V30 5837 O 532.888 4.35906 -0.43794 0
M  V30 5838 C 534.389 4.21916 1.36021 0
M  V30 5839 H 531.609 0.668807 0.0542042 0
M  V30 5840 H 534.153 1.98777 -0.4804 0
M  V30 5841 H 532.308 3.61342 1.39681 0
M  V30 5842 H 532.722 5.24404 -0.100334 0
M  V30 5843 H 534.196 5.28015 1.60947 0
M  V30 5844 H 534.673 3.73538 2.31011 0
M  V30 5845 H 535.279 4.19463 0.702212 0
M  V30 5846 N 533.594 0.0601682 1.57485 0
M  V30 5847 C 534.557 -0.896373 2.10945 0
M  V30 5848 C 535.557 -1.23402 1.03095 0
M  V30 5849 O 536.747 -1.16921 1.29132 0
M  V30 5850 C 533.879 -2.20346 2.60116 0
M  V30 5851 H 535.072 -0.432778 2.96761 0
M  V30 5852 H 532.625 -0.188372 1.55161 0
M  V30 5853 H 533.36 -2.71268 1.7772 0
M  V30 5854 H 533.145 -1.9714 3.38937 0
M  V30 5855 H 534.635 -2.88846 3.01592 0
M  V30 5856 N 535.072 -1.5615 -0.213296 0
M  V30 5857 C 536.349 -1.70349 -0.961281 0
M  V30 5858 C 536.729 -0.609791 -2.02101 0
M  V30 5859 O 536.077 0.381987 -2.25285 0
M  V30 5860 C 536.287 -3.11982 -1.56424 0
M  V30 5861 C 537.635 -3.71649 -2.05334 0
M  V30 5862 O 538.659 -3.14995 -1.66302 0
M  V30 5863 O 537.518 -4.71038 -2.77102 0
M  V30 5864 H 534.612 -0.694121 -0.449582 0
M  V30 5865 H 537.158 -1.68464 -0.204426 0
M  V30 5866 H 535.93 -3.83046 -0.799457 0
M  V30 5867 H 535.553 -3.18019 -2.38641 0
M  V30 5868 N 536.55 0.480323 -1.50102 0
M  V30 5869 C 537.797 1.23307 -1.60629 0
M  V30 5870 C 538.125 1.92135 -0.302375 0
M  V30 5871 O 537.38 1.82321 0.711154 0
M  V30 5872 C 537.679 2.30708 -2.72963 0
M  V30 5873 C 537.345 1.79195 -4.13763 0
M  V30 5874 C 536.007 1.64867 -4.52076 0
M  V30 5875 C 538.359 1.40878 -5.018 0
M  V30 5876 C 535.687 1.10631 -5.76175 0
M  V30 5877 C 538.039 0.880872 -6.26437 0
M  V30 5878 C 536.703 0.724146 -6.6356 0
M  V30 5879 H 535.973 0.451211 -0.587784 0
M  V30 5880 H 538.62 0.53051 -1.84005 0
M  V30 5881 H 536.925 3.06834 -2.43639 0
M  V30 5882 H 538.622 2.88692 -2.78313 0
M  V30 5883 H 535.212 1.91313 -3.83533 0
M  V30 5884 H 539.396 1.50786 -4.7284 0
M  V30 5885 H 534.652 0.972263 -6.0362 0
M  V30 5886 H 538.826 0.575269 -6.9402 0
M  V30 5887 H 536.453 0.301722 -7.59601 0
M  V30 5888 N 538.028 1.39524 0.732853 0
M  V30 5889 C 539.277 1.36175 1.48792 0
M  V30 5890 C 539.59 -0.0388195 1.95561 0
M  V30 5891 O 540.796 -0.194899 2.708 0
M  V30 5892 C 539.252 2.39242 2.68871 0
M  V30 5893 C 538.86 3.85024 2.29042 0
M  V30 5894 C 540.604 2.44972 3.46683 0
M  V30 5895 C 538.511 4.79727 3.45856 0
M  V30 5896 H 537.441 0.506267 0.558757 0
M  V30 5897 H 540.092 1.65181 0.799226 0
M  V30 5898 H 538.474 2.0331 3.39825 0
M  V30 5899 H 539.648 4.30008 1.6562 0
M  V30 5900 H 537.963 3.82609 1.64316 0
M  V30 5901 H 540.56 3.12918 4.33574 0
M  V30 5902 H 540.903 1.4749 3.89297 0
M  V30 5903 H 541.436 2.79808 2.82759 0
M  V30 5904 H 538.175 5.78479 3.08289 0
M  V30 5905 H 537.695 4.39421 4.08251 0
M  V30 5906 H 539.374 4.98731 4.12161 0
M  V30 5907 N 539.506 -0.963266 1.24736 0
M  V30 5908 C 540.416 -2.09246 1.06082 0
M  V30 5909 C 541.432 -1.74 0.000363101 0
M  V30 5910 O 542.608 -2.0041 0.199479 0
M  V30 5911 C 539.673 -3.40115 0.672498 0
M  V30 5912 C 538.734 -3.89282 1.80993 0
M  V30 5913 C 537.967 -5.13905 1.44004 0
M  V30 5914 O 538.19 -5.69434 0.331835 0
M  V30 5915 O 537.124 -5.57566 2.26723 0
M  V30 5916 H 540.95 -2.27881 2.00759 0
M  V30 5917 H 538.535 -1.07649 1.03595 0
M  V30 5918 H 540.417 -4.18797 0.467668 0
M  V30 5919 H 539.092 -3.22771 -0.245102 0
M  V30 5920 H 537.999 -3.11642 2.06955 0
M  V30 5921 H 539.332 -4.1111 2.70646 0
M  V30 5922 N 540.985 -1.06182 -1.16461 0
M  V30 5923 C 541.917 -0.629584 -2.20383 0
M  V30 5924 C 542.93 0.311834 -1.59786 0
M  V30 5925 O 544.119 0.103 -1.78203 0
M  V30 5926 C 541.219 0.0973695 -3.3876 0
M  V30 5927 C 540.392 -0.857252 -4.28917 0
M  V30 5928 C 539.451 -0.169749 -5.25926 0
M  V30 5929 O 538.477 -0.807044 -5.6345 0
M  V30 5930 N 539.679 1.08911 -5.70192 0
M  V30 5931 H 542.444 -1.52352 -2.58087 0
M  V30 5932 H 540.005 -0.944993 -1.31459 0
M  V30 5933 H 541.997 0.567676 -4.00699 0
M  V30 5934 H 540.567 0.893093 -2.99571 0
M  V30 5935 H 539.787 -1.50696 -3.64259 0
M  V30 5936 H 541.075 -1.50489 -4.86035 0
M  V30 5937 H 540.473 1.62703 -5.41797 0
M  V30 5938 H 539.03 1.50331 -6.34227 0
M  V30 5939 N 542.463 1.3308 -0.844243 0
M  V30 5940 C 543.688 2.02341 -0.455282 0
M  V30 5941 C 544.113 1.6308 0.93737 0
M  V30 5942 O 543.471 0.826118 1.61385 0
M  V30 5943 C 543.519 3.55743 -0.58988 0
M  V30 5944 O 542.623 4.1063 0.38166 0
M  V30 5945 H 541.964 0.637898 -0.184343 0
M  V30 5946 H 544.494 1.6986 -1.14056 0
M  V30 5947 H 544.504 4.05243 -0.473522 0
M  V30 5948 H 543.179 3.83662 -1.60549 0
M  V30 5949 H 541.756 3.72236 0.22241 0
M  V30 5950 N 543.941 0.601185 1.45683 0
M  V30 5951 C 545.187 0.0940202 2.02582 0
M  V30 5952 C 545.52 -1.26972 1.46941 0
M  V30 5953 O 544.795 -1.83613 0.641612 0
M  V30 5954 C 545.078 0.0481715 3.60068 0
M  V30 5955 C 544.931 1.44212 4.26055 0
M  V30 5956 C 546.25 -0.642975 4.35378 0
M  V30 5957 H 543.369 0.0356404 0.736138 0
M  V30 5958 H 546.011 0.771929 1.73612 0
M  V30 5959 H 544.161 -0.529128 3.8488 0
M  V30 5960 H 545.833 2.06601 4.12449 0
M  V30 5961 H 544.076 2.00465 3.84703 0
M  V30 5962 H 544.747 1.36234 5.34925 0
M  V30 5963 H 547.223 -0.152351 4.15821 0
M  V30 5964 H 546.099 -0.644141 5.45107 0
M  V30 5965 H 546.36 -1.70785 4.0778 0
M  V30 5966 N 545.419 -1.53889 0.339982 0
M  V30 5967 C 546.666 -2.00855 -0.257621 0
M  V30 5968 C 546.994 -1.22788 -1.50842 0
M  V30 5969 O 546.249 -0.302567 -1.93347 0
M  V30 5970 C 546.548 -3.51968 -0.620735 0
M  V30 5971 C 546.214 -4.47741 0.532771 0
M  V30 5972 C 544.876 -4.73645 0.849339 0
M  V30 5973 C 547.228 -5.04551 1.3068 0
M  V30 5974 C 544.556 -5.53614 1.94237 0
M  V30 5975 C 546.908 -5.85713 2.39005 0
M  V30 5976 C 545.572 -6.09912 2.71225 0
M  V30 5977 H 544.842 -0.734979 -0.0942703 0
M  V30 5978 H 547.489 -1.85714 0.467159 0
M  V30 5979 H 545.794 -3.64921 -1.42618 0
M  V30 5980 H 547.491 -3.85762 -1.09495 0
M  V30 5981 H 544.081 -4.27711 0.275973 0
M  V30 5982 H 548.265 -4.84507 1.07549 0
M  V30 5983 H 543.521 -5.7059 2.19628 0
M  V30 5984 H 547.695 -6.28748 2.99415 0
M  V30 5985 H 545.322 -6.71665 3.56047 0
M  V30 5986 N 546.897 -0.0685191 -1.57451 0
M  V30 5987 C 548.127 0.609577 -1.97402 0
M  V30 5988 C 548.535 1.63882 -0.945489 0
M  V30 5989 O 547.878 1.8354 0.0766052 0
M  V30 5990 C 547.94 1.3385 -3.33653 0
M  V30 5991 C 547.604 0.463103 -4.54648 0
M  V30 5992 C 548.601 -0.277964 -5.19156 0
M  V30 5993 C 546.286 0.388941 -5.00792 0
M  V30 5994 C 548.28 -1.08145 -6.28159 0
M  V30 5995 C 545.967 -0.418217 -6.09667 0
M  V30 5996 C 546.965 -1.15208 -6.73213 0
M  V30 5997 O 546.653 -1.94594 -7.79993 0
M  V30 5998 H 546.385 0.170197 -0.654224 0
M  V30 5999 H 548.939 -0.13647 -2.04946 0
M  V30 6000 H 547.169 2.13055 -3.22714 0
M  V30 6001 H 548.858 1.90851 -3.58233 0
M  V30 6002 H 549.624 -0.230241 -4.84453 0
M  V30 6003 H 545.503 0.949769 -4.5111 0
M  V30 6004 H 549.047 -1.65476 -6.7769 0
M  V30 6005 H 544.944 -0.467515 -6.43805 0
M  V30 6006 H 545.712 -1.8699 -7.96854 0
M  V30 6007 N 548.375 1.56261 0.205012 0
M  V30 6008 C 549.621 1.81211 0.923805 0
M  V30 6009 C 549.976 0.644065 1.813 0
M  V30 6010 O 549.269 -0.361208 1.88164 0
M  V30 6011 C 549.463 3.09722 1.78345 0
M  V30 6012 C 549.292 4.38915 0.978979 0
M  V30 6013 C 548.062 5.00874 0.667332 0
M  V30 6014 C 550.26 5.13199 0.336386 0
M  V30 6015 N 548.242 6.137 -0.156814 0
M  V30 6016 C 549.613 6.19009 -0.350402 0
M  V30 6017 C 551.668 4.97266 0.251101 0
M  V30 6018 C 550.371 7.10616 -1.11434 0
M  V30 6019 C 552.397 5.89288 -0.499413 0
M  V30 6020 C 551.759 6.94536 -1.17468 0
M  V30 6021 H 547.858 0.714528 0.317764 0
M  V30 6022 H 550.442 1.93738 0.193317 0
M  V30 6023 H 548.613 2.98448 2.48563 0
M  V30 6024 H 550.345 3.22798 2.44098 0
M  V30 6025 H 547.1 4.63151 0.989366 0
M  V30 6026 H 547.524 6.74695 -0.558206 0
M  V30 6027 H 552.166 4.15935 0.758823 0
M  V30 6028 H 549.884 7.91417 -1.63353 0
M  V30 6029 H 553.47 5.79034 -0.566627 0
M  V30 6030 H 552.35 7.64513 -1.74613 0
M  V30 6031 N 549.853 -0.472356 1.50355 0
M  V30 6032 C 550.763 -1.59637 1.7191 0
M  V30 6033 C 551.779 -1.63247 0.602195 0
M  V30 6034 O 552.955 -1.81139 0.880369 0
M  V30 6035 C 550.02 -2.9586 1.80742 0
M  V30 6036 C 549.081 -3.02649 3.04471 0
M  V30 6037 C 548.314 -4.32374 3.12872 0
M  V30 6038 O 548.537 -5.22807 2.28099 0
M  V30 6039 O 547.471 -4.44728 4.05587 0
M  V30 6040 H 551.297 -1.44373 2.67189 0
M  V30 6041 H 548.882 -0.651717 1.34436 0
M  V30 6042 H 550.764 -3.7677 1.88739 0
M  V30 6043 H 549.439 -3.11325 0.88647 0
M  V30 6044 H 548.346 -2.20821 3.01975 0
M  V30 6045 H 549.679 -2.92119 3.9614 0
M  V30 6046 N 551.331 -1.39911 -0.725443 0
M  V30 6047 C 552.263 -1.35301 -1.85003 0
M  V30 6048 C 553.276 -0.260102 -1.60709 0
M  V30 6049 O 554.465 -0.519749 -1.70766 0
M  V30 6050 C 551.565 -1.08039 -3.21218 0
M  V30 6051 C 550.738 -2.28793 -3.7279 0
M  V30 6052 C 549.797 -1.97841 -4.87591 0
M  V30 6053 O 548.823 -2.70616 -5.00755 0
M  V30 6054 N 550.025 -0.950367 -5.72668 0
M  V30 6055 H 552.79 -2.32218 -1.89459 0
M  V30 6056 H 550.351 -1.34137 -0.90658 0
M  V30 6057 H 552.343 -0.853354 -3.95601 0
M  V30 6058 H 550.913 -0.198229 -3.11971 0
M  V30 6059 H 550.133 -2.67388 -2.8965 0
M  V30 6060 H 551.421 -3.09317 -4.03981 0
M  V30 6061 H 550.819 -0.347436 -5.64632 0
M  V30 6062 H 549.376 -0.783232 -6.47077 0
M  V30 6063 N 552.809 0.956637 -1.25245 0
M  V30 6064 C 554.055 1.70352 -1.10036 0
M  V30 6065 C 554.388 1.90869 0.358156 0
M  V30 6066 O 553.663 1.47819 1.26411 0
M  V30 6067 C 553.946 3.08766 -1.85298 0
M  V30 6068 C 553.799 2.95672 -3.38966 0
M  V30 6069 C 555.118 4.08622 -1.63451 0
M  V30 6070 H 552.237 0.618279 -0.401123 0
M  V30 6071 H 554.879 1.11212 -1.54051 0
M  V30 6072 H 553.029 3.59252 -1.47887 0
M  V30 6073 H 554.701 2.52527 -3.86041 0
M  V30 6074 H 552.944 2.31634 -3.6678 0
M  V30 6075 H 553.615 3.93776 -3.86839 0
M  V30 6076 H 556.091 3.67038 -1.96015 0
M  V30 6077 H 554.967 5.03514 -2.18551 0
M  V30 6078 H 555.228 4.3834 -0.575357 0
M  V30 6079 N 554.287 1.06798 1.15896 0
M  V30 6080 C 555.515 0.808694 1.90441 0
M  V30 6081 C 555.93 -0.637506 1.77711 0
M  V30 6082 O 555.287 -1.43684 1.12522 0
M  V30 6083 C 555.338 1.20068 3.40978 0
M  V30 6084 O 555.059 2.59013 3.53333 0
M  V30 6085 C 556.56 0.96987 4.3256 0
M  V30 6086 H 553.78 0.292809 0.603742 0
M  V30 6087 H 556.324 1.42296 1.46874 0
M  V30 6088 H 554.479 0.630842 3.82229 0
M  V30 6089 H 554.893 2.7485 4.46719 0
M  V30 6090 H 556.367 1.29371 5.36626 0
M  V30 6091 H 556.844 -0.0941209 4.39099 0
M  V30 6092 H 557.45 1.52433 3.97044 0
M  V30 6093 N 555.766 -1.3263 0.851289 0
M  V30 6094 C 557.043 -1.91982 0.374448 0
M  V30 6095 C 557.423 -1.77568 -1.14161 0
M  V30 6096 O 556.771 -1.1717 -1.96172 0
M  V30 6097 C 556.981 -3.38862 0.835088 0
M  V30 6098 C 558.329 -4.15999 0.850309 0
M  V30 6099 O 559.353 -3.47566 0.779505 0
M  V30 6100 O 558.212 -5.38189 0.949481 0
M  V30 6101 H 555.306 -0.819846 0.10854 0
M  V30 6102 H 557.852 -1.41422 0.937966 0
M  V30 6103 H 556.624 -3.43281 1.87814 0
M  V30 6104 H 556.247 -3.96821 0.248833 0
M  V30 6105 N 557.244 -0.608902 -1.45362 0
M  V30 6106 C 558.492 -0.104401 -2.0183 0
M  V30 6107 C 558.813 1.27007 -1.47967 0
M  V30 6108 O 558.083 1.83924 -0.674455 0
M  V30 6109 H 556.663 -0.0356042 -0.746151 0
M  V30 6110 H 559.325 -0.790596 -1.78145 0
M  V30 6111 H 558.421 -0.0551793 -3.12051 0
M  V30 6112 N 558.722 1.53707 -0.348139 0
M  V30 6113 C 559.969 2.00988 0.246966 0
M  V30 6114 C 560.297 1.23586 1.50189 0
M  V30 6115 O 559.552 0.312817 1.93184 0
M  V30 6116 C 559.851 3.52292 0.602061 0
M  V30 6117 C 559.517 4.47453 -0.556509 0
M  V30 6118 C 558.179 4.73188 -0.874446 0
M  V30 6119 C 560.531 5.03851 -1.33354 0
M  V30 6120 C 557.859 5.52577 -1.9717 0
M  V30 6121 C 560.211 5.84437 -2.42108 0
M  V30 6122 C 558.875 6.08465 -2.74456 0
M  V30 6123 H 558.145 0.735469 0.0903712 0
M  V30 6124 H 560.792 1.85464 -0.477001 0
M  V30 6125 H 559.097 3.65672 1.40681 0
M  V30 6126 H 560.794 3.86337 1.07447 0
M  V30 6127 H 557.384 4.27558 -0.298652 0
M  V30 6128 H 561.568 4.8393 -1.10117 0
M  V30 6129 H 556.824 5.69418 -2.22651 0
M  V30 6130 H 560.998 6.27151 -3.02745 0
M  V30 6131 H 558.625 6.69768 -3.59604 0
M  V30 6132 N 560.2 0.0768682 1.57412 0
M  V30 6133 C 561.447 -0.591085 1.93681 0
M  V30 6134 C 561.775 -1.69311 0.957286 0
M  V30 6135 O 561.03 -1.95682 -0.0262428 0
M  V30 6136 C 561.329 -1.20268 3.36557 0
M  V30 6137 C 560.995 -0.226286 4.50332 0
M  V30 6138 C 559.657 0.0423142 4.81181 0
M  V30 6139 C 562.009 0.441415 5.19327 0
M  V30 6140 C 559.337 0.985616 5.78362 0
M  V30 6141 C 561.689 1.37307 6.17519 0
M  V30 6142 C 560.353 1.65009 6.46783 0
M  V30 6143 H 559.623 -0.216293 0.70873 0
M  V30 6144 H 562.27 0.148824 1.90921 0
M  V30 6145 H 560.575 -2.01844 3.35807 0
M  V30 6146 H 562.272 -1.72688 3.61911 0
M  V30 6147 H 558.862 -0.445821 4.26275 0
M  V30 6148 H 563.046 0.247023 4.95685 0
M  V30 6149 H 558.302 1.20743 5.99359 0
M  V30 6150 H 562.476 1.89637 6.70083 0
M  V30 6151 H 560.103 2.38263 7.21897 0
M  V30 6152 N 561.678 -1.56367 -0.196722 0
M  V30 6153 C 562.927 -1.79724 -0.915539 0
M  V30 6154 C 563.24 -0.649804 -1.84491 0
M  V30 6155 O 564.446 -0.767631 -2.60422 0
M  V30 6156 C 562.902 -3.18369 -1.67836 0
M  V30 6157 C 562.51 -4.4091 -0.793897 0
M  V30 6158 C 564.254 -3.51037 -2.38691 0
M  V30 6159 C 562.161 -5.70577 -1.55549 0
M  V30 6160 H 561.091 -0.67013 -0.345604 0
M  V30 6161 H 563.742 -1.82721 -0.168856 0
M  V30 6162 H 562.124 -3.09617 -2.46887 0
M  V30 6163 H 563.298 -4.60781 -0.042163 0
M  V30 6164 H 561.613 -4.15937 -0.19626 0
M  V30 6165 H 564.21 -4.4515 -2.96219 0
M  V30 6166 H 564.553 -2.74704 -3.12799 0
M  V30 6167 H 565.086 -3.61229 -1.66608 0
M  V30 6168 H 561.825 -6.49871 -0.857226 0
M  V30 6169 H 561.345 -5.54726 -2.2812 0
M  V30 6170 H 563.024 -6.11637 -2.10971 0
M  V30 6171 N 563.156 0.464375 -1.50603 0
M  V30 6172 C 564.403 1.21596 -1.61928 0
M  V30 6173 C 564.731 1.91804 -0.322737 0
M  V30 6174 O 563.986 1.83065 0.691776 0
M  V30 6175 C 564.285 2.278 -2.75394 0
M  V30 6176 C 563.951 1.74797 -4.1564 0
M  V30 6177 C 562.613 1.60063 -4.53799 0
M  V30 6178 C 564.965 1.35548 -5.03266 0
M  V30 6179 C 562.293 1.04514 -5.77316 0
M  V30 6180 C 564.645 0.814381 -6.27336 0
M  V30 6181 C 563.309 0.653726 -6.64291 0
M  V30 6182 H 562.579 0.444951 -0.592536 0
M  V30 6183 H 565.226 0.510964 -1.84557 0
M  V30 6184 H 563.531 3.04233 -2.46879 0
M  V30 6185 H 565.228 2.85723 -2.81359 0
M  V30 6186 H 561.818 1.87234 -3.8554 0
M  V30 6187 H 566.002 1.45763 -4.74412 0
M  V30 6188 H 561.258 0.908186 -6.04617 0
M  V30 6189 H 565.432 0.501626 -6.94591 0
M  V30 6190 H 563.059 0.22114 -7.59878 0
M  V30 6191 N 564.634 1.40294 0.718013 0
M  V30 6192 C 565.582 1.40536 1.85344 0
M  V30 6193 C 566.576 0.286192 1.66965 0
M  V30 6194 O 567.782 0.457105 1.74099 0
M  V30 6195 H 564.157 0.439236 0.61039 0
M  V30 6196 H 566.128 2.36275 1.82255 0
M  V30 6197 C 564.877 1.28245 3.23185 0
M  V30 6198 H 564.2 2.1364 3.37932 0
M  V30 6199 H 565.64 1.32474 4.02774 0
M  V30 6200 C 564.099 -0.0075503 3.36899 0
M  V30 6201 O 564.629 -0.971391 3.89778 0
M  V30 6202 N 562.835 -0.0762479 2.905 0
M  V30 6203 H 562.382 0.708819 2.47656 0
M  V30 6204 H 562.34 -0.938846 3.00055 0
M  V30 6205 N 566.112 -0.949982 1.2575 0
M  V30 6206 C 567.022 -2.08109 1.08295 0
M  V30 6207 C 568.038 -1.7399 0.0188181 0
M  V30 6208 O 569.214 -2.00187 0.220724 0
M  V30 6209 C 566.279 -3.39383 0.708534 0
M  V30 6210 C 565.34 -3.8734 1.85111 0
M  V30 6211 C 564.573 -5.12349 1.49447 0
M  V30 6212 O 564.796 -5.6905 0.392212 0
M  V30 6213 O 563.73 -5.5513 2.32624 0
M  V30 6214 H 567.556 -2.25738 2.03165 0
M  V30 6215 H 565.141 -1.06545 1.04731 0
M  V30 6216 H 567.023 -4.18277 0.512061 0
M  V30 6217 H 565.698 -3.23013 -0.210854 0
M  V30 6218 H 564.605 -3.09429 2.10248 0
M  V30 6219 H 565.938 -4.08216 2.74991 0
M  V30 6220 N 567.59 -1.07411 -1.15328 0
M  V30 6221 C 569.006 -0.799759 -1.38116 0
M  V30 6222 C 569.206 0.59572 -1.92493 0
M  V30 6223 O 568.262 1.35433 -2.13106 0
M  V30 6224 C 569.575 -1.87407 -2.35158 0
M  V30 6225 C 571.123 -1.89889 -2.48819 0
M  V30 6226 C 571.598 -2.96406 -3.49153 0
M  V30 6227 N 573.089 -2.95512 -3.56689 0
M  V30 6228 C 573.824 -3.74575 -4.34144 0
M  V30 6229 N 573.32 -4.63488 -5.14928 0
M  V30 6230 N 575.113 -3.62919 -4.29239 0
M  V30 6231 H 567.264 -1.97411 -0.78374 0
M  V30 6232 H 569.527 -0.856113 -0.407154 0
M  V30 6233 H 569.233 -2.8768 -2.0232 0
M  V30 6234 H 569.107 -1.73471 -3.34944 0
M  V30 6235 H 571.494 -0.902677 -2.80955 0
M  V30 6236 H 571.575 -2.07904 -1.49029 0
M  V30 6237 H 571.219 -3.96227 -3.17752 0
M  V30 6238 H 571.149 -2.75638 -4.48699 0
M  V30 6239 H 573.64 -2.31061 -2.99031 0
M  V30 6240 H 573.953 -5.20445 -5.71276 0
M  V30 6241 H 572.298 -4.67537 -5.14232 0
M  V30 6242 H 575.489 -2.92833 -3.65194 0
M  V30 6243 H 575.662 -4.24777 -4.89355 0
M  V30 6244 N 569.068 1.32177 -0.85831 0
M  V30 6245 C 570.315 1.97125 -0.463484 0
M  V30 6246 C 570.643 1.67907 0.981705 0
M  V30 6247 O 569.898 0.961717 1.70439 0
M  V30 6248 C 570.197 3.51372 -0.653658 0
M  V30 6249 C 569.863 4.00584 -2.06987 0
M  V30 6250 C 568.525 4.13733 -2.4572 0
M  V30 6251 C 570.877 4.26624 -2.99402 0
M  V30 6252 C 568.205 4.50268 -3.76132 0
M  V30 6253 C 570.557 4.64618 -4.29316 0
M  V30 6254 C 569.221 4.75975 -4.67979 0
M  V30 6255 H 568.491 0.72133 -0.169601 0
M  V30 6256 H 571.138 1.57517 -1.08907 0
M  V30 6257 H 569.443 3.91761 0.0551328 0
M  V30 6258 H 571.14 3.99655 -0.328163 0
M  V30 6259 H 567.73 3.90837 -1.75911 0
M  V30 6260 H 571.914 4.1597 -2.70708 0
M  V30 6261 H 567.17 4.57256 -4.05865 0
M  V30 6262 H 571.344 4.83722 -5.00985 0
M  V30 6263 H 568.971 5.04041 -5.69076 0
M  V30 6264 N 570.547 0.616602 1.45037 0
M  V30 6265 C 571.494 -0.0969439 2.30596 0
M  V30 6266 C 572.464 -0.851151 1.42635 0
M  V30 6267 O 573.649 -0.835092 1.71554 0
M  V30 6268 C 570.789 -1.08234 3.27688 0
M  V30 6269 C 569.902 -0.328072 4.30752 0
M  V30 6270 C 569.037 -1.30399 5.14946 0
M  V30 6271 C 568.076 -0.538049 6.09731 0
M  V30 6272 N 567.213 -1.46371 6.86673 0
M  V30 6273 H 572.053 0.63864 2.91076 0
M  V30 6274 H 569.59 0.326733 1.43425 0
M  V30 6275 H 571.548 -1.66688 3.82454 0
M  V30 6276 H 570.178 -1.78523 2.68941 0
M  V30 6277 H 569.23 0.372136 3.78575 0
M  V30 6278 H 570.542 0.269142 4.98073 0
M  V30 6279 H 569.696 -1.96032 5.74157 0
M  V30 6280 H 568.435 -1.93514 4.47665 0
M  V30 6281 H 567.44 0.131852 5.49642 0
M  V30 6282 H 568.665 0.0881732 6.79043 0
M  V30 6283 H 566.611 -2.08233 6.22073 0
M  V30 6284 H 566.528 -0.920152 7.50379 0
M  V30 6285 H 567.796 -2.10932 7.50418 0
M  V30 6286 N 572.025 -1.5352 0.356285 0
M  V30 6287 C 572.973 -2.26945 -0.50978 0
M  V30 6288 C 573.967 -1.29569 -1.09125 0
M  V30 6289 O 575.173 -1.47231 -1.03552 0
M  V30 6290 H 571.548 -0.729368 -0.183102 0
M  V30 6291 H 573.519 -2.98111 0.131374 0
M  V30 6292 C 572.268 -3.06466 -1.64237 0
M  V30 6293 H 571.591 -3.81233 -1.20423 0
M  V30 6294 H 573.031 -3.61035 -2.22327 0
M  V30 6295 C 571.49 -2.16737 -2.57928 0
M  V30 6296 O 572.02 -1.77195 -3.60507 0
M  V30 6297 N 570.226 -1.81558 -2.26903 0
M  V30 6298 H 569.773 -2.13913 -1.43524 0
M  V30 6299 H 569.731 -1.21806 -2.89846 0
M  V30 6300 N 573.503 -0.0852151 -1.57369 0
M  V30 6301 C 574.75 0.580806 -1.93992 0
M  V30 6302 C 575.078 1.68801 -0.966252 0
M  V30 6303 O 574.333 1.95694 0.0158649 0
M  V30 6304 C 574.632 1.18482 -3.3719 0
M  V30 6305 C 574.298 0.2024 -4.50446 0
M  V30 6306 C 572.96 -0.0678318 -4.81152 0
M  V30 6307 C 575.312 -0.46895 -5.19086 0
M  V30 6308 C 572.64 -1.01627 -5.77831 0
M  V30 6309 C 574.992 -1.4058 -6.16782 0
M  V30 6310 C 573.656 -1.68436 -6.45899 0
M  V30 6311 H 572.926 0.212532 -0.709867 0
M  V30 6312 H 575.573 -0.158947 -1.90839 0
M  V30 6313 H 573.878 2.0006 -3.36873 0
M  V30 6314 H 575.575 1.70767 -3.62822 0
M  V30 6315 H 572.165 0.423208 -4.26505 0
M  V30 6316 H 576.349 -0.273307 -4.95547 0
M  V30 6317 H 571.605 -1.2392 -5.9871 0
M  V30 6318 H 575.779 -1.93188 -6.69068 0
M  V30 6319 H 573.406 -2.42088 -7.20623 0
M  V30 6320 N 574.981 1.5647 0.188427 0
M  V30 6321 C 576.209 1.85131 0.923803 0
M  V30 6322 C 576.624 0.668537 1.76567 0
M  V30 6323 O 575.981 -0.362662 1.7886 0
M  V30 6324 C 576.032 3.12661 1.81453 0
M  V30 6325 O 575.753 4.26378 1.00665 0
M  V30 6326 C 577.254 3.54548 2.66103 0
M  V30 6327 H 574.474 0.614624 0.269218 0
M  V30 6328 H 577.018 2.03581 0.193671 0
M  V30 6329 H 575.173 2.96088 2.49821 0
M  V30 6330 H 575.587 4.99041 1.61425 0
M  V30 6331 H 577.061 4.4673 3.24247 0
M  V30 6332 H 577.538 2.77853 3.40139 0
M  V30 6333 H 578.144 3.73674 2.03096 0
M  V30 6334 N 576.459 -0.456382 1.50847 0
M  V30 6335 C 577.389 -1.56025 1.73719 0
M  V30 6336 C 578.37 -1.5967 0.586473 0
M  V30 6337 O 579.555 -1.75702 0.827185 0
M  V30 6338 C 576.685 -2.94251 1.84483 0
M  V30 6339 C 575.639 -3.05471 2.99786 0
M  V30 6340 C 574.965 -4.45489 2.95709 0
M  V30 6341 C 576.265 -2.81318 4.40065 0
M  V30 6342 H 577.959 -1.37138 2.66146 0
M  V30 6343 H 575.505 -0.658299 1.28072 0
M  V30 6344 H 577.458 -3.71417 1.99067 0
M  V30 6345 H 576.182 -3.14328 0.886891 0
M  V30 6346 H 574.841 -2.30741 2.84876 0
M  V30 6347 H 574.489 -4.62505 1.97732 0
M  V30 6348 H 574.189 -4.53929 3.73125 0
M  V30 6349 H 575.713 -5.24655 3.12362 0
M  V30 6350 H 577.127 -3.48226 4.55425 0
M  V30 6351 H 575.524 -3.01188 5.19043 0
M  V30 6352 H 576.594 -1.7706 4.51418 0
M  V30 6353 N 577.937 -1.40673 -0.710563 0
M  V30 6354 C 579.183 -1.39428 -1.47267 0
M  V30 6355 C 579.516 0.00182129 -1.942 0
M  V30 6356 O 578.791 0.971387 -1.68506 0
M  V30 6357 C 579.074 -2.38812 -2.6952 0
M  V30 6358 C 578.927 -3.87467 -2.28449 0
M  V30 6359 C 580.246 -2.3566 -3.71689 0
M  V30 6360 H 577.365 -0.507768 -0.534173 0
M  V30 6361 H 580.007 -1.71843 -0.810547 0
M  V30 6362 H 578.157 -2.113 -3.26013 0
M  V30 6363 H 579.829 -4.25825 -1.77399 0
M  V30 6364 H 578.072 -4.03058 -1.60395 0
M  V30 6365 H 578.743 -4.5253 -3.16103 0
M  V30 6366 H 581.219 -2.6004 -3.24836 0
M  V30 6367 H 580.095 -3.07237 -4.54859 0
M  V30 6368 H 580.356 -1.36996 -4.20339 0
M  V30 6369 N 579.415 0.9433 -1.26252 0
M  V30 6370 C 580.661 1.69175 -1.11837 0
M  V30 6371 C 580.994 1.91238 0.337891 0
M  V30 6372 O 580.269 1.49152 1.24836 0
M  V30 6373 C 580.552 3.06783 -1.88563 0
M  V30 6374 C 580.405 2.9206 -3.42083 0
M  V30 6375 C 581.724 4.06865 -1.67776 0
M  V30 6376 H 578.843 0.61399 -0.407658 0
M  V30 6377 H 581.485 1.09572 -1.55222 0
M  V30 6378 H 579.635 3.57663 -1.51689 0
M  V30 6379 H 581.307 2.48419 -3.88698 0
M  V30 6380 H 579.55 2.27731 -3.69217 0
M  V30 6381 H 580.221 3.89651 -3.90994 0
M  V30 6382 H 582.697 3.64939 -1.99897 0
M  V30 6383 H 581.573 5.01168 -2.23879 0
M  V30 6384 H 581.834 4.37705 -0.621816 0
M  V30 6385 N 580.893 1.08022 1.14757 0
M  V30 6386 C 581.823 0.728248 2.21853 0
M  V30 6387 C 582.804 -0.287486 1.67653 0
M  V30 6388 O 583.989 -0.158727 1.9355 0
M  V30 6389 C 581.119 0.132549 3.47047 0
M  V30 6390 C 580.073 1.07619 4.14249 0
M  V30 6391 C 579.399 0.342907 5.33599 0
M  V30 6392 C 580.699 2.41268 4.63235 0
M  V30 6393 H 582.393 1.62365 2.51551 0
M  V30 6394 H 579.939 0.782125 1.20908 0
M  V30 6395 H 581.892 -0.125665 4.21213 0
M  V30 6396 H 580.616 -0.797971 3.16702 0
M  V30 6397 H 579.275 1.31944 3.42033 0
M  V30 6398 H 578.923 -0.59129 4.99513 0
M  V30 6399 H 578.623 0.971955 5.79506 0
M  V30 6400 H 580.147 0.0926538 6.1053 0
M  V30 6401 H 581.561 2.21232 5.28894 0
M  V30 6402 H 579.958 2.9983 5.19829 0
M  V30 6403 H 581.028 3.03079 3.78512 0
M  V30 6404 N 582.371 -1.3172 0.865308 0
M  V30 6405 C 583.319 -2.30569 0.306674 0
M  V30 6406 C 584.313 -1.59317 -0.575724 0
M  V30 6407 O 585.519 -1.73961 -0.462343 0
M  V30 6408 H 581.894 -0.747681 0.0804834 0
M  V30 6409 H 583.865 -2.75165 1.15441 0
M  V30 6410 C 582.614 -3.44358 -0.480952 0
M  V30 6411 H 581.937 -3.99354 0.18876 0
M  V30 6412 H 583.377 -4.15652 -0.837241 0
M  V30 6413 C 581.836 -2.92574 -1.67039 0
M  V30 6414 O 582.366 -2.90954 -2.76964 0
M  V30 6415 N 580.572 -2.48835 -1.50097 0
M  V30 6416 H 580.119 -2.50353 -0.606738 0
M  V30 6417 H 580.077 -2.14543 -2.29823 0
M  V30 6418 N 583.85 -0.624285 -1.44708 0
M  V30 6419 C 584.798 0.0969952 -2.32398 0
M  V30 6420 C 585.792 0.842762 -1.46949 0
M  V30 6421 O 586.998 0.756436 -1.63334 0
M  V30 6422 H 583.373 0.0501306 -0.750327 0
M  V30 6423 H 585.344 -0.660767 -2.90992 0
M  V30 6424 C 584.093 1.06967 -3.30837 0
M  V30 6425 H 583.416 0.505242 -3.96595 0
M  V30 6426 H 584.856 1.54397 -3.94889 0
M  V30 6427 C 583.315 2.15153 -2.5925 0
M  V30 6428 O 583.845 3.23139 -2.3863 0
M  V30 6429 N 582.051 1.90898 -2.19103 0
M  V30 6430 H 581.598 1.03086 -2.36074 0
M  V30 6431 H 581.556 2.63485 -1.71531 0
M  V30 6432 N 585.328 1.53329 -0.364422 0
M  V30 6433 C 586.574 2.01537 0.225969 0
M  V30 6434 C 586.907 1.25128 1.48515 0
M  V30 6435 O 586.182 0.344653 1.91422 0
M  V30 6436 C 586.465 3.56339 0.519092 0
M  V30 6437 C 586.318 4.43441 -0.753639 0
M  V30 6438 C 587.637 4.19833 1.32015 0
M  V30 6439 H 584.756 0.732573 0.0806548 0
M  V30 6440 H 587.398 1.83597 -0.489084 0
M  V30 6441 H 585.548 3.71756 1.12825 0
M  V30 6442 H 587.22 4.39823 -1.39116 0
M  V30 6443 H 585.463 4.11457 -1.37424 0
M  V30 6444 H 586.134 5.49699 -0.503517 0
M  V30 6445 H 588.61 4.08242 0.804859 0
M  V30 6446 H 587.486 5.28177 1.49399 0
M  V30 6447 H 587.747 3.75821 2.32832 0
M  V30 6448 N 586.806 0.0935595 1.57322 0
M  V30 6449 C 587.769 -0.851426 2.12799 0
M  V30 6450 C 588.769 -1.21187 1.0569 0
M  V30 6451 O 589.959 -1.14156 1.31583 0
M  V30 6452 C 587.091 -2.14779 2.64731 0
M  V30 6453 H 588.284 -0.369733 2.97612 0
M  V30 6454 H 585.837 -0.155417 1.55525 0
M  V30 6455 H 586.572 -2.67437 1.83434 0
M  V30 6456 H 586.357 -1.89907 3.43042 0
M  V30 6457 H 587.847 -2.82383 3.07651 0
M  V30 6458 N 588.284 -1.56567 -0.180126 0
M  V30 6459 C 589.194 -1.98947 -1.24327 0
M  V30 6460 C 590.21 -0.899446 -1.4895 0
M  V30 6461 O 591.386 -1.20639 -1.61271 0
M  V30 6462 C 588.451 -2.33328 -2.56435 0
M  V30 6463 C 587.512 -3.56114 -2.39752 0
M  V30 6464 C 586.745 -3.88845 -3.65561 0
M  V30 6465 O 586.968 -3.22662 -4.70368 0
M  V30 6466 O 585.902 -4.82226 -3.60197 0
M  V30 6467 H 589.728 -2.89634 -0.913565 0
M  V30 6468 H 587.313 -1.44319 -0.386306 0
M  V30 6469 H 589.195 -2.5645 -3.34382 0
M  V30 6470 H 587.87 -1.45806 -2.89002 0
M  V30 6471 H 586.777 -3.38221 -1.59866 0
M  V30 6472 H 588.11 -4.4415 -2.12113 0
M  V30 6473 N 589.762 0.448376 -1.51087 0
M  V30 6474 C 591.009 1.19872 -1.63209 0
M  V30 6475 C 591.337 1.91451 -0.343062 0
M  V30 6476 O 590.592 1.83789 0.672321 0
M  V30 6477 C 590.891 2.24866 -2.77795 0
M  V30 6478 C 590.557 1.70378 -4.17471 0
M  V30 6479 C 589.219 1.55241 -4.55471 0
M  V30 6480 C 591.571 1.30203 -5.04675 0
M  V30 6481 C 588.899 0.983844 -5.78392 0
M  V30 6482 C 591.251 0.747798 -6.28165 0
M  V30 6483 C 589.915 0.583233 -6.64947 0
M  V30 6484 H 589.185 0.438642 -0.597222 0
M  V30 6485 H 591.832 0.49136 -1.85089 0
M  V30 6486 H 590.137 3.01598 -2.50092 0
M  V30 6487 H 591.834 2.82723 -2.84374 0
M  V30 6488 H 588.424 1.83134 -3.87505 0
M  V30 6489 H 592.608 1.40723 -4.75932 0
M  V30 6490 H 587.864 0.844007 -6.05546 0
M  V30 6491 H 592.038 0.427927 -6.95084 0
M  V30 6492 H 589.665 0.140532 -7.6007 0
M  V30 6493 N 591.24 1.41047 0.703093 0
M  V30 6494 C 592.486 1.40207 1.46526 0
M  V30 6495 C 592.819 0.00847763 1.94198 0
M  V30 6496 O 592.094 -0.962437 1.69019 0
M  V30 6497 C 592.377 2.40238 2.6825 0
M  V30 6498 C 592.23 3.88674 2.26391 0
M  V30 6499 C 593.549 2.37627 3.70434 0
M  V30 6500 H 590.668 0.510594 0.531472 0
M  V30 6501 H 593.31 1.72271 0.801422 0
M  V30 6502 H 591.46 2.13026 3.24888 0
M  V30 6503 H 593.132 4.2676 1.75138 0
M  V30 6504 H 591.375 4.03903 1.58255 0
M  V30 6505 H 592.046 4.542 3.13698 0
M  V30 6506 H 594.522 2.61759 3.23452 0
M  V30 6507 H 593.398 3.09645 4.53223 0
M  V30 6508 H 593.659 1.39223 4.19606 0
M  V30 6509 N 592.718 -0.936591 1.26751 0
M  V30 6510 C 593.958 -1.69796 1.13792 0
M  V30 6511 C 594.322 -1.89437 -0.312671 0
M  V30 6512 O 595.523 -2.62806 -0.564489 0
M  V30 6513 C 593.794 -3.03297 1.89065 0
M  V30 6514 S 595.353 -3.94461 1.92214 0
M  V30 6515 H 592.171 -0.583412 0.406389 0
M  V30 6516 H 594.773 -1.11575 1.60535 0
M  V30 6517 H 593.477 -2.86687 2.93665 0
M  V30 6518 H 593.008 -3.66575 1.42781 0
M  V30 6519 H 595.023 -4.85767 1.01215 0
M  V30 6520 N 594.196 -1.08629 -1.14182 0
M  V30 6521 C 595.143 -0.718299 -2.19338 0
M  V30 6522 C 596.113 0.296587 -1.63431 0
M  V30 6523 O 597.298 0.180079 -1.89948 0
M  V30 6524 C 594.438 -0.136203 -3.44831 0
M  V30 6525 C 593.551 -1.20414 -4.14879 0
M  V30 6526 C 592.686 -0.585666 -5.27962 0
M  V30 6527 C 591.725 -1.63548 -5.89846 0
M  V30 6528 N 590.862 -1.03864 -6.94375 0
M  V30 6529 H 595.702 -1.61932 -2.50164 0
M  V30 6530 H 593.239 -0.80919 -1.22844 0
M  V30 6531 H 595.197 0.219021 -4.16625 0
M  V30 6532 H 593.827 0.728121 -3.14481 0
M  V30 6533 H 592.879 -1.67676 -3.41451 0
M  V30 6534 H 594.191 -1.99959 -4.56966 0
M  V30 6535 H 593.345 -0.178818 -6.06436 0
M  V30 6536 H 592.084 0.24142 -4.87102 0
M  V30 6537 H 591.089 -2.05197 -5.10073 0
M  V30 6538 H 592.314 -2.46509 -6.3278 0
M  V30 6539 H 590.26 -0.232687 -6.55587 0
M  V30 6540 H 590.177 -1.77116 -7.3496 0
M  V30 6541 H 591.445 -0.657724 -7.7672 0
M  V30 6542 N 595.674 1.31259 -0.872281 0
M  V30 6543 C 596.904 2.00504 -0.498183 0
M  V30 6544 C 597.312 1.65632 0.914479 0
M  V30 6545 O 596.655 0.882849 1.61095 0
M  V30 6546 C 596.717 3.5482 -0.578194 0
M  V30 6547 C 596.381 4.13172 -1.95289 0
M  V30 6548 C 597.378 4.30107 -2.92069 0
M  V30 6549 C 595.063 4.48846 -2.25483 0
M  V30 6550 C 597.057 4.81908 -4.17185 0
M  V30 6551 C 594.744 5.00349 -3.50847 0
M  V30 6552 C 595.742 5.16831 -4.46514 0
M  V30 6553 O 595.43 5.67228 -5.69656 0
M  V30 6554 H 595.162 0.648055 -0.192354 0
M  V30 6555 H 597.716 1.6841 -1.17589 0
M  V30 6556 H 595.946 3.86383 0.156438 0
M  V30 6557 H 597.635 4.05318 -0.217192 0
M  V30 6558 H 598.401 4.02862 -2.7005 0
M  V30 6559 H 594.28 4.35292 -1.51795 0
M  V30 6560 H 597.824 4.94688 -4.91863 0
M  V30 6561 H 593.721 5.27028 -3.72708 0
M  V30 6562 H 594.489 5.85592 -5.7186 0
M  V30 6563 N 597.152 0.631951 1.44375 0
M  V30 6564 C 598.099 -0.0724807 2.30686 0
M  V30 6565 C 599.069 -0.835975 1.43529 0
M  V30 6566 O 600.254 -0.816849 1.7243 0
M  V30 6567 C 597.394 -1.04753 3.28817 0
M  V30 6568 C 596.507 -0.282367 4.31076 0
M  V30 6569 C 595.642 -1.2493 5.163 0
M  V30 6570 C 594.681 -0.473349 6.10267 0
M  V30 6571 N 593.818 -1.39079 6.88187 0
M  V30 6572 H 598.658 0.669477 2.90383 0
M  V30 6573 H 596.195 0.341927 1.43071 0
M  V30 6574 H 598.153 -1.62623 3.842 0
M  V30 6575 H 596.783 -1.75661 2.70819 0
M  V30 6576 H 595.835 0.412268 3.78159 0
M  V30 6577 H 597.147 0.321955 4.9776 0
M  V30 6578 H 596.301 -1.89931 5.76204 0
M  V30 6579 H 595.04 -1.88755 4.49692 0
M  V30 6580 H 594.045 0.190142 5.49471 0
M  V30 6581 H 595.27 0.16019 6.78911 0
M  V30 6582 H 593.216 -2.01623 6.24247 0
M  V30 6583 H 593.133 -0.840513 7.51313 0
M  V30 6584 H 594.401 -2.02961 7.52613 0
M  V30 6585 N 598.631 -1.53133 0.372548 0
M  V30 6586 C 599.561 -2.28876 -0.462412 0
M  V30 6587 C 600.542 -1.31583 -1.07796 0
M  V30 6588 O 601.727 -1.60461 -1.09389 0
M  V30 6589 C 598.857 -3.08317 -1.59868 0
M  V30 6590 C 597.811 -4.13355 -1.11003 0
M  V30 6591 C 597.137 -4.8092 -2.33708 0
M  V30 6592 C 598.437 -5.21955 -0.18983 0
M  V30 6593 H 600.131 -2.9892 0.169511 0
M  V30 6594 H 597.677 -1.43761 0.0829658 0
M  V30 6595 H 599.63 -3.60055 -2.18949 0
M  V30 6596 H 598.354 -2.35976 -2.25794 0
M  V30 6597 H 597.013 -3.62573 -0.541869 0
M  V30 6598 H 596.661 -4.05144 -2.98106 0
M  V30 6599 H 596.361 -5.51904 -2.01682 0
M  V30 6600 H 597.885 -5.35455 -2.93462 0
M  V30 6601 H 599.299 -5.69153 -0.688319 0
M  V30 6602 H 597.696 -6.00087 0.0398887 0
M  V30 6603 H 598.766 -4.78811 0.766057 0
M  V30 6604 N 600.109 -0.101901 -1.5727 0
M  V30 6605 C 601.039 0.851544 -2.17419 0
M  V30 6606 C 602.02 1.28942 -1.10941 0
M  V30 6607 O 603.205 1.35509 -1.39107 0
M  V30 6608 C 600.335 2.10816 -2.75996 0
M  V30 6609 C 599.289 1.80867 -3.87906 0
M  V30 6610 C 598.615 3.13413 -4.33216 0
M  V30 6611 C 599.915 1.0903 -5.10793 0
M  V30 6612 H 601.609 0.350381 -2.97343 0
M  V30 6613 H 599.155 0.16709 -1.43027 0
M  V30 6614 H 601.108 2.77959 -3.16729 0
M  V30 6615 H 599.832 2.63227 -1.93337 0
M  V30 6616 H 598.491 1.16119 -3.47724 0
M  V30 6617 H 598.139 3.63725 -3.47438 0
M  V30 6618 H 597.839 2.94155 -5.08671 0
M  V30 6619 H 599.363 3.81704 -4.76586 0
M  V30 6620 H 600.777 1.66295 -5.48652 0
M  V30 6621 H 599.174 0.99927 -5.91722 0
M  V30 6622 H 600.244 0.0741704 -4.84843 0
M  V30 6623 O 601.626 1.61455 0.0379495 0
M  V30 6624 H 602.317 1.82122 0.659643 0
M  V30 END ATOM
M  V30 BEGIN BOND
M  V30 END BOND
M  V30 END CTAB
M  END
$$$$
