drugbank_target|O60894 Receptor activity-modifying protein 1 (DB01278)
 OpenBabel12092119413D

  0  0  0     0  0            999 V3000
M  V30 BEGIN CTAB
M  V30 COUNTS 2393 2426 0 0 0
M  V30 BEGIN ATOM
M  V30 1 H -0.908 1.98254 -0.117106 0
M  V30 2 N 0 1.576 0 0
M  V30 3 C 0.933 2.03868 1.02534 0
M  V30 4 C 1.911 0.928543 1.3348 0
M  V30 5 O 3.095 1.19667 1.45644 0
M  V30 6 C 0.222 2.43627 2.35294 0
M  V30 7 C -0.732 3.65373 2.2001 0
M  V30 8 S 0.101 5.13292 1.52614 0
M  V30 9 C 1.257 5.56322 2.86805 0
M  V30 10 H 1.49 2.90518 0.631377 0
M  V30 11 H -0.977 1.52953 0.210867 0
M  V30 12 H 0.981 2.67203 3.11629 0
M  V30 13 H -0.358 1.57376 2.7183 0
M  V30 14 H -1.165 3.90944 3.18086 0
M  V30 15 H -1.563 3.418 1.51819 0
M  V30 16 H 0.729 5.58782 3.83104 0
M  V30 17 H 1.672 6.56266 2.65933 0
M  V30 18 H 2.08 4.83886 2.90714 0
M  V30 19 N 1.4781 -0.272755 1.55222 0
M  V30 20 C 2.4411 -1.32041 1.87344 0
M  V30 21 C 3.4411 -1.42342 0.74803 0
M  V30 22 O 4.6311 -1.41488 1.0162 0
M  V30 23 C 1.7631 -2.70173 2.07893 0
M  V30 24 H 2.9561 -1.04789 2.80997 0
M  V30 25 H 0.5091 -0.51083 1.47717 0
M  V30 26 H 1.2441 -3.02605 1.16622 0
M  V30 27 H 1.0291 -2.64082 2.89833 0
M  V30 28 H 2.5191 -3.45869 2.34017 0
M  V30 29 N 2.9562 -1.48159 -0.537278 0
M  V30 30 C 4.3722 -1.34118 -0.865129 0
M  V30 31 C 4.5722 -0.346678 -1.98495 0
M  V30 32 O 3.6282 0.234715 -2.51407 0
M  V30 33 C 4.9412 -2.73963 -1.23954 0
M  V30 34 C 6.4892 -2.82397 -1.34984 0
M  V30 35 C 6.9642 -4.22928 -1.75772 0
M  V30 36 N 8.4552 -4.25566 -1.82887 0
M  V30 37 C 9.1902 -5.31235 -2.15817 0
M  V30 38 N 8.6862 -6.47189 -2.47222 0
M  V30 39 N 10.4792 -5.18624 -2.16761 0
M  V30 40 H 2.6302 -2.1144 0.201715 0
M  V30 41 H 4.8932 -0.947598 0.0275949 0
M  V30 42 H 4.5992 -3.48264 -0.490381 0
M  V30 43 H 4.4732 -3.0702 -2.19132 0
M  V30 44 H 6.8602 -2.08356 -2.08978 0
M  V30 45 H 6.9412 -2.5297 -0.379448 0
M  V30 46 H 6.5852 -4.97482 -1.02341 0
M  V30 47 H 6.5152 -4.49794 -2.73848 0
M  V30 48 H 9.0062 -3.41924 -1.60924 0
M  V30 49 H 9.3192 -7.23564 -2.71433 0
M  V30 50 H 7.6642 -6.50476 -2.44757 0
M  V30 51 H 10.8552 -4.27056 -1.91679 0
M  V30 52 H 11.0282 -6.01078 -2.42093 0
M  V30 53 N 4.4343 0.785586 -1.36625 0
M  V30 54 C 5.3973 1.87999 -1.31107 0
M  V30 55 C 6.3973 1.59316 -0.217959 0
M  V30 56 O 7.5873 1.67656 -0.472977 0
M  V30 57 C 4.7193 3.24861 -1.03334 0
M  V30 58 H 5.9123 1.94307 -2.2844 0
M  V30 59 H 3.4653 0.983813 -1.21453 0
M  V30 60 H 4.2003 3.24235 -0.0647432 0
M  V30 61 H 3.9853 3.4707 -1.82441 0
M  V30 62 H 5.4753 4.04929 -1.02088 0
M  V30 63 N 5.9124 1.20967 1.01018 0
M  V30 64 C 6.8424 0.988272 2.11555 0
M  V30 65 C 7.8234 -0.0849778 1.69888 0
M  V30 66 O 9.0084 0.0738202 1.9406 0
M  V30 67 C 6.1384 0.546528 3.42973 0
M  V30 68 C 5.0924 1.56375 3.9841 0
M  V30 69 C 4.4184 0.97842 5.25672 0
M  V30 70 C 5.7184 2.94922 4.31066 0
M  V30 71 H 7.4124 1.91276 2.30334 0
M  V30 72 H 4.9584 0.921073 1.1069 0
M  V30 73 H 6.9114 0.378839 4.19694 0
M  V30 74 H 5.6354 -0.413598 3.23971 0
M  V30 75 H 4.2944 1.71891 3.23804 0
M  V30 76 H 3.9424 0.0101688 5.02999 0
M  V30 77 H 3.6424 1.65784 5.63728 0
M  V30 78 H 5.1664 0.821939 6.05043 0
M  V30 79 H 6.5804 2.8288 4.9865 0
M  V30 80 H 4.9774 3.5983 4.80253 0
M  V30 81 H 6.0474 3.4616 3.39561 0
M  V30 82 N 7.3905 -1.2043 1.01659 0
M  V30 83 C 8.6305 -1.91507 0.714456 0
M  V30 84 C 8.9945 -1.77073 -0.742237 0
M  V30 85 O 10.1955 -2.42631 -1.15688 0
M  V30 86 C 8.4665 -3.38795 1.13809 0
M  V30 87 S 10.0255 -4.28216 0.957925 0
M  V30 88 H 6.8435 -0.661571 0.260471 0
M  V30 89 H 9.4455 -1.45671 1.30384 0
M  V30 90 H 8.1495 -3.46822 2.19415 0
M  V30 91 H 7.6805 -3.89656 0.541474 0
M  V30 92 H 9.6955 -4.96007 -0.138531 0
M  V30 93 N 8.8686 -0.792821 -1.36206 0
M  V30 94 C 10.2846 -0.474903 -1.52371 0
M  V30 95 C 10.4846 1.00622 -1.74578 0
M  V30 96 O 9.5406 1.79162 -1.77924 0
M  V30 97 C 10.8536 -1.3083 -2.70747 0
M  V30 98 C 12.4016 -1.30234 -2.84619 0
M  V30 99 C 12.8766 -2.11956 -4.06004 0
M  V30 100 N 14.3676 -2.09419 -4.13156 0
M  V30 101 C 15.1026 -2.69419 -5.06163 0
M  V30 102 N 14.5986 -3.3829 -6.04592 0
M  V30 103 N 16.3916 -2.59134 -4.98804 0
M  V30 104 H 8.5426 -1.75222 -1.20046 0
M  V30 105 H 10.8056 -0.745024 -0.586211 0
M  V30 106 H 10.5116 -2.35881 -2.6087 0
M  V30 107 H 10.3856 -0.95196 -3.6499 0
M  V30 108 H 12.7726 -0.259748 -2.93955 0
M  V30 109 H 12.8536 -1.69847 -1.91274 0
M  V30 110 H 12.4976 -3.16248 -3.97429 0
M  V30 111 H 12.4276 -1.69711 -4.98503 0
M  V30 112 H 14.9186 -1.59297 -3.42685 0
M  V30 113 H 15.2316 -3.81394 -6.7213 0
M  V30 114 H 13.5766 -3.42393 -6.04807 0
M  V30 115 H 16.7676 -2.04927 -4.20859 0
M  V30 116 H 16.9406 -3.06185 -5.711 0
M  V30 117 N 10.3467 1.47872 -0.545128 0
M  V30 118 C 11.2767 2.32661 0.197793 0
M  V30 119 C 12.2577 1.43041 0.920504 0
M  V30 120 O 13.4427 1.71912 0.90333 0
M  V30 121 C 10.5727 3.24569 1.23582 0
M  V30 122 C 9.5267 4.23333 0.630323 0
M  V30 123 C 8.8527 5.0448 1.77211 0
M  V30 124 C 10.1527 5.20704 -0.407974 0
M  V30 125 H 11.8467 2.95024 -0.510045 0
M  V30 126 H 9.3927 1.4187 -0.246731 0
M  V30 127 H 11.3457 3.8272 1.76362 0
M  V30 128 H 10.0697 2.60236 1.97344 0
M  V30 129 H 8.7287 3.6639 0.123922 0
M  V30 130 H 8.3767 4.36561 2.49847 0
M  V30 131 H 8.0767 5.71339 1.37281 0
M  V30 132 H 9.6007 5.65487 2.3034 0
M  V30 133 H 11.0147 5.7329 0.033305 0
M  V30 134 H 9.4117 5.95699 -0.725486 0
M  V30 135 H 10.4817 4.66917 -1.30828 0
M  V30 136 N 11.8248 0.280983 1.55075 0
M  V30 137 C 13.2358 -0.215629 1.85451 0
M  V30 138 C 13.5868 -1.54991 1.203 0
M  V30 139 O 12.7118 -2.10699 0.493435 0
M  V30 140 C 13.3068 -0.398026 3.36454 0
M  V30 141 C 11.8658 -0.838866 3.66933 0
M  V30 142 C 11.0128 0.064458 2.77225 0
M  V30 143 H 13.9638 0.502601 1.50531 0
M  V30 144 H 13.9848 -1.23569 3.59876 0
M  V30 145 H 13.4968 0.573241 3.83843 0
M  V30 146 H 11.5978 -1.8214 3.25048 0
M  V30 147 H 11.7108 -0.672123 4.74362 0
M  V30 148 H 10.0748 -0.452863 2.50642 0
M  V30 149 H 10.8578 1.03172 3.2743 0
M  V30 150 N 13.3029 -1.57598 0.00835791 0
M  V30 151 C 14.7189 -1.55764 -0.347822 0
M  V30 152 C 14.9189 -1.01186 -1.74252 0
M  V30 153 O 13.9749 -0.649371 -2.44007 0
M  V30 154 C 15.2879 -2.99927 -0.215407 0
M  V30 155 C 16.8359 -3.11656 -0.289725 0
M  V30 156 C 17.3109 -4.57621 -0.18634 0
M  V30 157 N 18.8019 -4.62557 -0.243978 0
M  V30 158 C 19.5369 -5.73094 -0.18745 0
M  V30 159 N 19.0329 -6.92753 -0.0810331 0
M  V30 160 N 20.8259 -5.61588 -0.239925 0
M  V30 161 H 12.9769 -1.91411 0.92062 0
M  V30 162 H 15.2399 -0.879562 0.353659 0
M  V30 163 H 14.9459 -3.43729 0.744512 0
M  V30 164 H 14.8199 -3.63865 -0.994097 0
M  V30 165 H 17.2069 -2.67779 -1.24009 0
M  V30 166 H 17.2879 -2.5048 0.51898 0
M  V30 167 H 16.9319 -5.02174 0.760519 0
M  V30 168 H 16.8619 -5.16752 -1.01364 0
M  V30 169 H 19.3529 -3.76481 -0.327217 0
M  V30 170 H 19.6659 -7.72787 -0.0440241 0
M  V30 171 H 18.0109 -6.94984 -0.0465419 0
M  V30 172 H 21.2019 -4.66996 -0.321317 0
M  V30 173 H 21.3749 -6.47714 -0.192407 0
M  V30 174 N 14.781 0.264519 -1.55364 0
M  V30 175 C 16.197 0.61215 -1.47394 0
M  V30 176 C 16.397 1.89134 -0.695018 0
M  V30 177 O 15.453 2.51563 -0.217275 0
M  V30 178 C 16.766 0.731235 -2.91674 0
M  V30 179 C 18.314 0.82473 -3.01939 0
M  V30 180 C 18.789 0.975522 -4.4749 0
M  V30 181 N 20.28 1.04083 -4.51354 0
M  V30 182 C 21.015 1.17646 -5.61201 0
M  V30 183 N 20.511 1.27874 -6.80896 0
M  V30 184 N 22.304 1.20823 -5.48961 0
M  V30 185 H 14.455 -0.575456 -2.04456 0
M  V30 186 H 16.718 -0.196099 -0.927496 0
M  V30 187 H 16.424 -0.138392 -3.51428 0
M  V30 188 H 16.298 1.60883 -3.41169 0
M  V30 189 H 18.685 1.68482 -2.42276 0
M  V30 190 H 18.766 -0.0776479 -2.55682 0
M  V30 191 H 18.41 0.120058 -5.07758 0
M  V30 192 H 18.34 1.89268 -4.91412 0
M  V30 193 H 20.831 0.973846 -3.65136 0
M  V30 194 H 21.144 1.38081 -7.60364 0
M  V30 195 H 19.489 1.24863 -6.83692 0
M  V30 196 H 22.68 1.12469 -4.54388 0
M  V30 197 H 22.853 1.31049 -6.3461 0
M  V30 198 N 16.2591 1.48442 0.529413 0
M  V30 199 C 17.5071 1.56179 1.28267 0
M  V30 200 C 17.8281 0.237721 1.93546 0
M  V30 201 O 17.0981 -0.740779 1.81354 0
M  V30 202 H 15.6781 0.575367 0.476405 0
M  V30 203 H 18.3401 1.84909 0.61602 0
M  V30 204 H 17.4361 2.34312 2.06165 0
M  V30 205 N 17.7372 -0.778329 1.37039 0
M  V30 206 C 18.6672 -1.90546 1.34962 0
M  V30 207 C 19.6482 -1.68681 0.219274 0
M  V30 208 O 20.8332 -1.89634 0.418624 0
M  V30 209 C 17.9632 -3.27734 1.14925 0
M  V30 210 C 16.9172 -3.64147 2.24902 0
M  V30 211 C 16.2432 -4.99806 1.89996 0
M  V30 212 C 17.5432 -3.71579 3.67051 0
M  V30 213 H 19.2372 -1.92541 2.29277 0
M  V30 214 H 16.7832 -0.924948 1.10366 0
M  V30 215 H 18.7362 -4.06215 1.12104 0
M  V30 216 H 17.4602 -3.26154 0.170631 0
M  V30 217 H 16.1192 -2.8797 2.26868 0
M  V30 218 H 15.7672 -4.94759 0.906796 0
M  V30 219 H 15.4672 -5.25139 2.63634 0
M  V30 220 H 16.9912 -5.80694 1.88749 0
M  V30 221 H 18.4052 -4.40227 3.67251 0
M  V30 222 H 16.8022 -4.08405 4.39688 0
M  V30 223 H 17.8722 -2.72404 4.01154 0
M  V30 224 N 19.2153 -1.21501 -1.00376 0
M  V30 225 C 20.4613 -1.04457 -1.74529 0
M  V30 226 C 20.8163 0.417386 -1.87818 0
M  V30 227 O 20.1093 1.30556 -1.40234 0
M  V30 228 C 20.3033 -1.67673 -3.15627 0
M  V30 229 C 20.1323 -3.19865 -3.16096 0
M  V30 230 C 18.9023 -3.88915 -3.22604 0
M  V30 231 C 21.1003 -4.16936 -3.01112 0
M  V30 232 N 19.0823 -5.28284 -3.12712 0
M  V30 233 C 20.4533 -5.43066 -2.99131 0
M  V30 234 C 22.5083 -4.07968 -2.85423 0
M  V30 235 C 21.2113 -6.6126 -2.83068 0
M  V30 236 C 23.2373 -5.258 -2.70718 0
M  V30 237 C 22.5993 -6.50842 -2.69414 0
M  V30 238 H 18.6983 -0.436584 -0.648782 0
M  V30 239 H 21.2823 -1.53875 -1.19293 0
M  V30 240 H 19.4533 -1.20822 -3.6913 0
M  V30 241 H 21.1853 -1.43824 -3.78281 0
M  V30 242 H 17.9403 -3.39847 -3.2985 0
M  V30 243 H 18.3643 -6.01284 -3.11105 0
M  V30 244 H 23.0063 -3.1209 -2.85236 0
M  V30 245 H 20.7243 -7.57298 -2.82002 0
M  V30 246 H 24.3103 -5.20683 -2.59577 0
M  V30 247 H 23.1903 -7.40485 -2.5817 0
M  V30 248 N 20.6934 1.19889 -1.02296 0
M  V30 249 C 21.6234 2.25141 -0.619174 0
M  V30 250 C 22.6044 1.66051 0.368915 0
M  V30 251 O 23.7894 1.92546 0.252941 0
M  V30 252 C 20.9194 3.4728 0.0368783 0
M  V30 253 C 19.8734 4.19005 -0.872865 0
M  V30 254 C 19.1994 5.34637 -0.0822402 0
M  V30 255 C 20.4994 4.74452 -2.18387 0
M  V30 256 H 22.1934 2.59171 -1.49903 0
M  V30 257 H 19.7394 1.24579 -0.722222 0
M  V30 258 H 21.6924 4.20098 0.330958 0
M  V30 259 H 20.4164 3.12433 0.95149 0
M  V30 260 H 19.0754 3.48061 -1.15105 0
M  V30 261 H 18.7234 4.96034 0.83422 0
M  V30 262 H 18.4234 5.83557 -0.688149 0
M  V30 263 H 19.9474 6.10255 0.205238 0
M  V30 264 H 21.3614 5.39055 -1.95172 0
M  V30 265 H 19.7584 5.33834 -2.74119 0
M  V30 266 H 20.8284 3.92844 -2.84257 0
M  V30 267 N 22.1715 0.800033 1.35784 0
M  V30 268 C 23.1015 0.220184 2.3246 0
M  V30 269 C 24.0825 -0.65073 1.57161 0
M  V30 270 O 25.2675 -0.582359 1.85263 0
M  V30 271 C 22.3975 -0.637353 3.41402 0
M  V30 272 C 21.3515 0.134531 4.27789 0
M  V30 273 C 20.6775 -0.844285 5.27992 0
M  V30 274 C 21.9775 1.32979 5.05088 0
M  V30 275 H 23.6715 1.02787 2.81203 0
M  V30 276 H 21.2175 0.495717 1.35199 0
M  V30 277 H 23.1705 -1.05302 4.08031 0
M  V30 278 H 21.8945 -1.47785 2.91251 0
M  V30 279 H 20.5535 0.531296 3.6273 0
M  V30 280 H 20.2015 -1.68011 4.74111 0
M  V30 281 H 19.9015 -0.332184 5.8666 0
M  V30 282 H 21.4255 -1.2583 5.97494 0
M  V30 283 H 22.8395 0.98934 5.64699 0
M  V30 284 H 21.2365 1.77593 5.7322 0
M  V30 285 H 22.3065 2.11978 4.36111 0
M  V30 286 N 23.6496 -1.47581 0.552962 0
M  V30 287 C 24.5796 -2.32762 -0.185451 0
M  V30 288 C 25.5606 -1.43527 -0.912905 0
M  V30 289 O 26.7456 -1.72388 -0.894201 0
M  V30 290 C 23.8756 -3.25219 -1.21859 0
M  V30 291 C 22.8296 -4.23661 -0.607864 0
M  V30 292 C 22.1556 -5.05413 -1.74533 0
M  V30 293 C 23.4556 -5.20481 0.435582 0
M  V30 294 H 25.1496 -2.94749 0.525684 0
M  V30 295 H 22.6956 -1.41738 0.254251 0
M  V30 296 H 24.6486 -3.8365 -1.7433 0
M  V30 297 H 23.3726 -2.61279 -1.95961 0
M  V30 298 H 22.0316 -3.66451 -0.104489 0
M  V30 299 H 21.6796 -4.3788 -2.47529 0
M  V30 300 H 21.3796 -5.72059 -1.34249 0
M  V30 301 H 22.9036 -5.66701 -2.27338 0
M  V30 302 H 24.3176 -5.733 -0.00290157 0
M  V30 303 H 22.7146 -5.95305 0.757067 0
M  V30 304 H 23.7846 -4.66217 1.33303 0
M  V30 305 N 25.1277 -0.289203 -1.54924 0
M  V30 306 C 26.0907 0.579144 -2.21762 0
M  V30 307 C 27.0907 1.07047 -1.1999 0
M  V30 308 O 28.2807 0.968384 -1.44803 0
M  V30 309 C 25.4127 1.80055 -2.8947 0
M  V30 310 H 26.6057 -0.00464908 -2.999 0
M  V30 311 H 24.1587 -0.0399306 -1.56249 0
M  V30 312 H 24.8937 2.42449 -2.15381 0
M  V30 313 H 24.6787 1.45602 -3.64064 0
M  V30 314 H 26.1687 2.41773 -3.40493 0
M  V30 315 N 26.6058 1.57591 -0.0167156 0
M  V30 316 C 27.5558 2.05953 0.978137 0
M  V30 317 C 28.5398 0.957532 1.29306 0
M  V30 318 O 29.7318 1.22119 1.28125 0
M  V30 319 C 26.8608 2.58006 2.26468 0
M  V30 320 C 25.9468 3.75113 1.97867 0
M  V30 321 N 26.3378 4.86187 1.39486 0
M  V30 322 C 24.6358 3.83363 2.27924 0
M  V30 323 C 25.3368 5.67502 1.27735 0
M  V30 324 N 24.3128 5.14023 1.76866 0
M  V30 325 H 28.1148 2.89236 0.521522 0
M  V30 326 H 25.6288 1.61301 0.188596 0
M  V30 327 H 27.6258 2.90937 2.98599 0
M  V30 328 H 26.2858 1.76148 2.72767 0
M  V30 329 H 27.2968 5.06695 1.07147 0
M  V30 330 H 23.9738 3.1239 2.76982 0
M  V30 331 H 25.3638 6.66791 0.826978 0
M  V30 332 N 28.0839 -0.256276 1.55502 0
M  V30 333 C 29.0339 -1.31981 1.85916 0
M  V30 334 C 30.0179 -1.43927 0.719296 0
M  V30 335 O 31.2099 -1.47326 0.981019 0
M  V30 336 C 28.3389 -2.67703 2.14918 0
M  V30 337 C 27.4249 -2.59801 3.35208 0
M  V30 338 N 27.8159 -2.21524 4.54709 0
M  V30 339 C 26.1139 -2.90832 3.38131 0
M  V30 340 C 26.8149 -2.24024 5.36832 0
M  V30 341 N 25.7909 -2.63158 4.75656 0
M  V30 342 H 29.5929 -1.01423 2.75845 0
M  V30 343 H 27.1069 -0.464911 1.55603 0
M  V30 344 H 29.1039 -3.44445 2.34869 0
M  V30 345 H 27.7639 -2.99137 1.26282 0
M  V30 346 H 28.7749 -1.93223 4.80505 0
M  V30 347 H 25.4519 -3.26867 2.59739 0
M  V30 348 H 26.8419 -1.9685 6.42417 0
M  V30 349 N 29.562 -1.4872 -0.521534 0
M  V30 350 C 30.492 -1.66771 -1.63431 0
M  V30 351 C 31.473 -0.516499 -1.62069 0
M  V30 352 O 32.658 -0.750013 -1.79132 0
M  V30 353 C 29.788 -1.71515 -3.01993 0
M  V30 354 C 28.742 -2.86222 -3.18216 0
M  V30 355 C 28.068 -2.76061 -4.57924 0
M  V30 356 C 29.368 -4.27419 -3.00184 0
M  V30 357 H 31.062 -2.59932 -1.48579 0
M  V30 358 H 28.608 -1.25089 -0.713358 0
M  V30 359 H 30.561 -1.82731 -3.7972 0
M  V30 360 H 29.285 -0.749393 -3.17886 0
M  V30 361 H 27.944 -2.74575 -2.42908 0
M  V30 362 H 27.592 -1.77437 -4.70665 0
M  V30 363 H 27.292 -3.53037 -4.69722 0
M  V30 364 H 28.816 -2.89256 -5.37739 0
M  V30 365 H 30.23 -4.39855 -3.67697 0
M  V30 366 H 28.627 -5.05458 -3.2347 0
M  V30 367 H 29.697 -4.43293 -1.96518 0
M  V30 368 N 31.0401 0.771051 -1.3745 0
M  V30 369 C 32.2871 1.52963 -1.32697 0
M  V30 370 C 32.6151 1.94299 0.0883274 0
M  V30 371 O 31.8701 1.64397 1.0617 0
M  V30 372 C 32.1691 2.80676 -2.2126 0
M  V30 373 C 31.8351 2.58389 -3.69521 0
M  V30 374 C 30.4971 2.52019 -4.09927 0
M  V30 375 C 32.8491 2.38469 -4.63446 0
M  V30 376 C 30.1771 2.23721 -5.42371 0
M  V30 377 C 32.5291 2.11694 -5.96128 0
M  V30 378 C 31.1931 2.03769 -6.35637 0
M  V30 379 H 30.4631 0.559732 -0.485573 0
M  V30 380 H 33.1101 0.888083 -1.69662 0
M  V30 381 H 31.4151 3.49392 -1.77291 0
M  V30 382 H 33.1121 3.38557 -2.14895 0
M  V30 383 H 29.7021 2.6421 -3.37478 0
M  V30 384 H 33.8861 2.4238 -4.33089 0
M  V30 385 H 29.1421 2.16081 -5.71943 0
M  V30 386 H 33.3161 1.9528 -6.6846 0
M  V30 387 H 30.9431 1.81606 -7.38189 0
M  V30 388 N 32.5182 1.22032 0.997298 0
M  V30 389 C 33.4512 0.929735 2.08401 0
M  V30 390 C 34.4292 -0.125681 1.62114 0
M  V30 391 O 35.6132 0.00495409 1.88499 0
M  V30 392 C 32.7402 0.397488 3.3636 0
M  V30 393 C 31.7862 1.4369 4.01566 0
M  V30 394 S 32.6192 3.00874 4.42984 0
M  V30 395 C 33.7752 2.49276 5.74119 0
M  V30 396 H 34.0082 1.84998 2.32729 0
M  V30 397 H 31.5412 1.0509 1.13117 0
M  V30 398 H 33.4992 0.0969846 4.10385 0
M  V30 399 H 32.1602 -0.501571 3.10069 0
M  V30 400 H 31.3532 1.01427 4.93689 0
M  V30 401 H 30.9552 1.68588 3.33847 0
M  V30 402 H 33.2472 1.90242 6.50242 0
M  V30 403 H 34.1902 3.39872 6.21203 0
M  V30 404 H 34.5982 1.90714 5.31308 0
M  V30 405 N 33.9963 -1.19345 1.0293 0
M  V30 406 C 35.2243 -1.92997 0.745644 0
M  V30 407 C 35.6393 -1.75519 -0.695589 0
M  V30 408 O 34.9963 -1.07737 -1.47306 0
M  V30 409 C 35.0473 -3.44741 1.08792 0
M  V30 410 O 34.7683 -3.61658 2.47256 0
M  V30 411 C 36.2693 -4.35515 0.827129 0
M  V30 412 H 33.4893 -0.613042 0.272801 0
M  V30 413 H 36.0333 -1.51473 1.3739 0
M  V30 414 H 34.1883 -3.84097 0.504832 0
M  V30 415 H 34.6023 -4.55514 2.60015 0
M  V30 416 H 36.0763 -5.40589 1.11658 0
M  V30 417 H 36.5533 -4.38552 -0.238436 0
M  V30 418 H 37.1593 -4.01841 1.39297 0
M  V30 419 N 35.4744 -0.807222 -1.35358 0
M  V30 420 C 36.7024 -0.400377 -2.02989 0
M  V30 421 C 37.1174 0.988859 -1.60832 0
M  V30 422 O 36.4744 1.63729 -0.806175 0
M  V30 423 C 36.5254 -0.474867 -3.58368 0
M  V30 424 O 36.2464 -1.80933 -3.98992 0
M  V30 425 C 37.7474 -0.0609112 -4.43258 0
M  V30 426 H 34.9674 -0.162587 -0.651004 0
M  V30 427 H 37.5114 -1.09102 -1.72965 0
M  V30 428 H 35.6664 0.167534 -3.87038 0
M  V30 429 H 36.0804 -1.77256 -4.9364 0
M  V30 430 H 37.5544 -0.164145 -5.51756 0
M  V30 431 H 38.0314 0.993831 -4.27808 0
M  V30 432 H 38.6374 -0.676492 -4.19885 0
M  V30 433 N 36.9525 1.47285 -0.560781 0
M  V30 434 C 37.9155 2.28535 0.174488 0
M  V30 435 C 38.9155 1.37153 0.839388 0
M  V30 436 O 40.1055 1.59748 0.694702 0
M  V30 437 C 37.2375 3.16934 1.25561 0
M  V30 438 H 38.4305 2.95012 -0.539262 0
M  V30 439 H 35.9835 1.53034 -0.317865 0
M  V30 440 H 36.7185 2.55157 2.00164 0
M  V30 441 H 36.5035 3.8419 0.783604 0
M  V30 442 H 37.9935 3.78143 1.77193 0
M  V30 443 N 38.4306 0.297415 1.54768 0
M  V30 444 C 39.6706 -0.313829 2.01976 0
M  V30 445 C 40.0346 -1.51366 1.1812 0
M  V30 446 O 41.2356 -2.19603 1.5501 0
M  V30 447 C 39.5066 -0.664964 3.51159 0
M  V30 448 S 41.0656 -1.25958 4.20333 0
M  V30 449 H 37.8836 -0.0965014 0.704421 0
M  V30 450 H 40.4856 0.424451 1.90837 0
M  V30 451 H 39.1896 0.21681 4.09827 0
M  V30 452 H 38.7206 -1.43413 3.66328 0
M  V30 453 H 40.7356 -2.54751 4.25813 0
M  V30 454 N 39.9087 -1.5758 0.0250728 0
M  V30 455 C 40.8407 -2.06869 -0.986796 0
M  V30 456 C 41.8537 -0.991332 -1.29137 0
M  V30 457 O 43.0427 -1.26761 -1.25674 0
M  V30 458 C 40.1427 -2.47486 -2.31525 0
M  V30 459 C 39.3157 -3.78253 -2.19643 0
M  V30 460 C 38.3747 -4.05464 -3.35388 0
M  V30 461 O 37.4007 -4.75774 -3.12454 0
M  V30 462 N 38.6027 -3.55321 -4.59051 0
M  V30 463 H 41.3677 -2.94302 -0.566276 0
M  V30 464 H 38.9287 -1.6109 -0.161776 0
M  V30 465 H 40.9207 -2.62785 -3.07776 0
M  V30 466 H 39.4907 -1.65441 -2.65232 0
M  V30 467 H 38.7107 -3.7279 -1.28144 0
M  V30 468 H 39.9987 -4.63936 -2.08903 0
M  V30 469 H 39.3967 -2.98431 -4.80578 0
M  V30 470 H 37.9537 -3.75905 -5.32483 0
M  V30 471 N 41.3868 0.248026 -1.55636 0
M  V30 472 C 42.2968 1.32859 -1.93354 0
M  V30 473 C 43.3128 1.52719 -0.833838 0
M  V30 474 O 44.4888 1.66363 -1.13513 0
M  V30 475 C 41.5538 2.66337 -2.21958 0
M  V30 476 C 40.6148 2.55008 -3.45354 0
M  V30 477 C 39.8478 3.82121 -3.72584 0
M  V30 478 O 40.0708 4.83951 -3.01907 0
M  V30 479 O 39.0048 3.80822 -4.6611 0
M  V30 480 H 42.8308 1.03862 -2.85388 0
M  V30 481 H 40.4158 0.448686 -1.42503 0
M  V30 482 H 42.2978 3.45216 -2.4167 0
M  V30 483 H 40.9728 2.95068 -1.33103 0
M  V30 484 H 39.8798 1.7442 -3.30951 0
M  V30 485 H 41.2128 2.31222 -4.34508 0
M  V30 486 N 42.8649 1.48995 0.513639 0
M  V30 487 C 43.8279 1.64229 1.59879 0
M  V30 488 C 44.8279 0.514696 1.5234 0
M  V30 489 O 46.0179 0.78087 1.55718 0
M  V30 490 C 43.1499 1.62783 2.99524 0
M  V30 491 H 44.3429 2.61004 1.47705 0
M  V30 492 H 41.8959 1.37837 0.736936 0
M  V30 493 H 42.6309 0.675461 3.17188 0
M  V30 494 H 42.4159 2.4466 3.06404 0
M  V30 495 H 43.9059 1.76669 3.78388 0
M  V30 496 N 44.343 -0.763751 1.37857 0
M  V30 497 C 45.291 -1.89864 1.34367 0
M  V30 498 C 46.285 -1.67816 0.231143 0
M  V30 499 O 47.491 -1.75508 0.399617 0
M  V30 500 H 43.866 -0.624501 0.41893 0
M  V30 501 H 45.837 -1.89925 2.30155 0
M  V30 502 C 44.586 -3.27227 1.1755 0
M  V30 503 H 43.909 -3.44773 2.02414 0
M  V30 504 H 45.349 -4.06911 1.1916 0
M  V30 505 C 43.808 -3.36692 -0.118311 0
M  V30 506 O 44.338 -3.86374 -1.09902 0
M  V30 507 N 42.544 -2.90092 -0.171717 0
M  V30 508 H 42.091 -2.49853 0.627012 0
M  V30 509 H 42.049 -2.96806 -1.03699 0
M  V30 510 N 45.8211 -1.22559 -0.990812 0
M  V30 511 C 47.0511 -1.07623 -1.76355 0
M  V30 512 C 47.4591 0.37601 -1.85426 0
M  V30 513 O 46.8021 1.27228 -1.32509 0
M  V30 514 C 46.8641 -1.61507 -3.21179 0
M  V30 515 C 46.5281 -3.10146 -3.35646 0
M  V30 516 C 47.5251 -4.07553 -3.22796 0
M  V30 517 C 45.2101 -3.49644 -3.60631 0
M  V30 518 C 47.2041 -5.42442 -3.34716 0
M  V30 519 C 44.8911 -4.84682 -3.72192 0
M  V30 520 C 45.8891 -5.8089 -3.59243 0
M  V30 521 O 45.5771 -7.13476 -3.70415 0
M  V30 522 H 45.3091 -0.377745 -0.560611 0
M  V30 523 H 47.8631 -1.62658 -1.25425 0
M  V30 524 H 46.0931 -1.00881 -3.73309 0
M  V30 525 H 47.7821 -1.42202 -3.80175 0
M  V30 526 H 48.5481 -3.78381 -3.03403 0
M  V30 527 H 44.4271 -2.75282 -3.69785 0
M  V30 528 H 47.9711 -6.17518 -3.24526 0
M  V30 529 H 43.8681 -5.13534 -3.91092 0
M  V30 530 H 44.6361 -7.21083 -3.87275 0
M  V30 531 N 47.2992 1.18797 -1.03562 0
M  V30 532 C 48.5472 1.88278 -0.734569 0
M  V30 533 C 48.8682 1.8043 0.739586 0
M  V30 534 O 48.1382 1.21925 1.53333 0
M  V30 535 H 46.7182 0.696991 -0.268725 0
M  V30 536 H 49.3802 1.44192 -1.31129 0
M  V30 537 H 48.4762 2.94443 -1.03489 0
M  V30 538 N 48.7773 0.814389 1.34928 0
M  V30 539 C 49.7403 0.235759 2.27984 0
M  V30 540 C 50.7403 -0.581412 1.49921 0
M  V30 541 O 51.9303 -0.398758 1.69575 0
M  V30 542 C 49.0623 -0.670433 3.34242 0
M  V30 543 H 50.2553 1.05659 2.80671 0
M  V30 544 H 47.8083 0.585614 1.44915 0
M  V30 545 H 48.5433 -1.51466 2.86755 0
M  V30 546 H 48.3283 -0.0860822 3.92005 0
M  V30 547 H 49.8183 -1.06935 4.03676 0
M  V30 548 N 50.2554 -1.46986 0.568584 0
M  V30 549 C 51.1854 -2.32946 -0.160753 0
M  V30 550 C 52.1664 -1.44487 -0.897631 0
M  V30 551 O 53.3514 -1.73327 -0.875867 0
M  V30 552 C 50.4814 -3.26494 -1.18403 0
M  V30 553 C 49.4354 -4.24282 -0.562895 0
M  V30 554 C 48.7614 -5.07236 -1.69163 0
M  V30 555 C 50.0614 -5.19989 0.490761 0
M  V30 556 H 51.7554 -2.94175 0.556916 0
M  V30 557 H 49.3014 -1.4146 0.26927 0
M  V30 558 H 51.2544 -3.85477 -1.70251 0
M  V30 559 H 49.9784 -2.63343 -1.93179 0
M  V30 560 H 48.6374 -3.66541 -0.0656164 0
M  V30 561 H 48.2854 -4.4048 -2.42871 0
M  V30 562 H 47.9854 -5.7345 -1.28174 0
M  V30 563 H 49.5094 -5.6908 -2.21314 0
M  V30 564 H 50.9234 -5.73271 0.0579047 0
M  V30 565 H 49.3204 -5.94469 0.820165 0
M  V30 566 H 50.3904 -4.64777 1.3824 0
M  V30 567 N 51.7335 -0.305618 -1.54608 0
M  V30 568 C 52.6635 0.561482 -2.26649 0
M  V30 569 C 53.6445 1.13415 -1.26772 0
M  V30 570 O 54.8295 1.16262 -1.55553 0
M  V30 571 C 51.9595 1.73122 -3.01075 0
M  V30 572 C 50.9135 1.2887 -4.08138 0
M  V30 573 C 50.2395 2.54396 -4.70305 0
M  V30 574 C 51.5395 0.416578 -5.20636 0
M  V30 575 H 53.2335 -0.0393902 -2.99374 0
M  V30 576 H 50.7795 -0.020385 -1.43986 0
M  V30 577 H 52.7325 2.34396 -3.50195 0
M  V30 578 H 51.4565 2.3584 -2.25936 0
M  V30 579 H 50.1155 0.698991 -3.59875 0
M  V30 580 H 49.7635 3.15439 -3.918 0
M  V30 581 H 49.4635 2.25486 -5.42614 0
M  V30 582 H 50.9875 3.16464 -5.2219 0
M  V30 583 H 52.4015 0.935116 -5.65622 0
M  V30 584 H 50.7985 0.221046 -5.99693 0
M  V30 585 H 51.8685 -0.557162 -4.81688 0
M  V30 586 N 53.2116 1.57565 -0.0334293 0
M  V30 587 C 54.6276 1.56297 0.322997 0
M  V30 588 C 54.8276 1.03945 1.7262 0
M  V30 589 O 53.8836 0.688109 2.42943 0
M  V30 590 C 55.1966 3.00232 0.167664 0
M  V30 591 C 56.7446 3.12078 0.240107 0
M  V30 592 C 57.2196 4.57859 0.113513 0
M  V30 593 N 58.7106 4.62887 0.170359 0
M  V30 594 C 59.4456 5.73319 0.0962517 0
M  V30 595 N 58.9416 6.92794 -0.0291881 0
M  V30 596 N 60.7346 5.61898 0.150551 0
M  V30 597 H 52.8856 1.89923 -0.950956 0
M  V30 598 H 55.1486 0.873824 -0.367608 0
M  V30 599 H 54.8546 3.42501 -0.799102 0
M  V30 600 H 54.7286 3.654 0.936083 0
M  V30 601 H 57.1156 2.69718 1.19733 0
M  V30 602 H 57.1966 2.49623 -0.558763 0
M  V30 603 H 56.8406 5.009 -0.840314 0
M  V30 604 H 56.7706 5.18299 0.931302 0
M  V30 605 H 59.2616 3.76954 0.26728 0
M  V30 606 H 59.5746 7.7276 -0.0789252 0
M  V30 607 H 57.9196 6.94971 -0.0640299 0
M  V30 608 H 61.1106 4.67448 0.246981 0
M  V30 609 H 61.2836 6.47938 0.0893365 0
M  V30 610 N 54.6897 -0.239769 1.55765 0
M  V30 611 C 55.5997 -1.31831 1.94056 0
M  V30 612 C 56.6157 -1.52275 0.841925 0
M  V30 613 O 57.7917 -1.65759 1.14394 0
M  V30 614 C 54.8567 -2.65156 2.23368 0
M  V30 615 C 53.9177 -2.53173 3.46701 0
M  V30 616 C 53.1507 -3.8014 3.74606 0
M  V30 617 O 53.3737 -4.82343 3.04469 0
M  V30 618 O 52.3077 -3.78344 4.68123 0
M  V30 619 H 56.1337 -1.02347 2.85935 0
M  V30 620 H 53.7187 -0.441123 1.42739 0
M  V30 621 H 55.6007 -3.43929 2.43497 0
M  V30 622 H 54.2757 -2.94358 1.34666 0
M  V30 623 H 53.1827 -1.72662 3.31871 0
M  V30 624 H 54.5157 -2.28915 4.35728 0
M  V30 625 N 56.1678 -1.49265 -0.50573 0
M  V30 626 C 57.0978 -1.68495 -1.61653 0
M  V30 627 C 58.0788 -0.53366 -1.61512 0
M  V30 628 O 59.2638 -0.76897 -1.78327 0
M  V30 629 C 56.3938 -1.74709 -3.00157 0
M  V30 630 C 55.3478 -2.89581 -3.15162 0
M  V30 631 C 54.6738 -2.80903 -4.5497 0
M  V30 632 C 55.9738 -4.30578 -2.95634 0
M  V30 633 H 57.6678 -2.61493 -1.45814 0
M  V30 634 H 55.2138 -1.25838 -0.70005 0
M  V30 635 H 57.1668 -1.86748 -3.77761 0
M  V30 636 H 55.8908 -0.783067 -3.17074 0
M  V30 637 H 54.5498 -2.77136 -2.39982 0
M  V30 638 H 54.1978 -1.82419 -4.68756 0
M  V30 639 H 53.8978 -3.57999 -4.65951 0
M  V30 640 H 55.4218 -2.94944 -5.34641 0
M  V30 641 H 56.8358 -4.4373 -3.63011 0
M  V30 642 H 55.2328 -5.0886 -3.18091 0
M  V30 643 H 56.3028 -4.45352 -1.91806 0
M  V30 644 N 57.6459 0.756429 -1.3826 0
M  V30 645 C 58.8859 1.52833 -1.35725 0
M  V30 646 C 59.2499 1.91926 0.0534106 0
M  V30 647 O 60.4509 2.68028 0.203613 0
M  V30 648 C 58.7219 2.74919 -2.28373 0
M  V30 649 S 60.2809 3.64817 -2.43832 0
M  V30 650 H 57.0989 0.523043 -0.481608 0
M  V30 651 H 59.7009 0.888212 -1.74158 0
M  V30 652 H 58.4049 2.44304 -3.29763 0
M  V30 653 H 57.9359 3.43878 -1.91079 0
M  V30 654 H 59.9509 4.676 -1.66027 0
M  V30 655 N 59.124 1.23083 0.984299 0
M  V30 656 C 60.054 1.03292 2.09411 0
M  V30 657 C 61.035 -0.048923 1.7003 0
M  V30 658 O 62.22 0.114967 1.93859 0
M  V30 659 C 59.35 0.619155 3.41736 0
M  V30 660 C 58.304 1.64791 3.95004 0
M  V30 661 C 57.63 1.0897 5.23478 0
M  V30 662 C 58.93 3.03999 4.24714 0
M  V30 663 H 60.624 1.96119 2.26225 0
M  V30 664 H 58.17 0.944344 1.08711 0
M  V30 665 H 60.123 0.467777 4.18796 0
M  V30 666 H 58.847 -0.344786 3.24775 0
M  V30 667 H 57.506 1.78721 3.20085 0
M  V30 668 H 57.154 0.11686 5.02864 0
M  V30 669 H 56.854 1.77704 5.60085 0
M  V30 670 H 58.378 0.950093 6.03163 0
M  V30 671 H 59.792 2.93393 4.92538 0
M  V30 672 H 58.189 3.69936 4.72512 0
M  V30 673 H 59.259 3.53285 3.32142 0
M  V30 674 N 60.6021 -1.18246 1.0419 0
M  V30 675 C 61.8301 -1.92195 0.766072 0
M  V30 676 C 62.2451 -1.76247 -0.676933 0
M  V30 677 O 61.6021 -1.09293 -1.46155 0
M  V30 678 C 61.6531 -3.43568 1.12442 0
M  V30 679 O 61.3741 -3.59015 2.51078 0
M  V30 680 C 62.8751 -4.34613 0.873275 0
M  V30 681 H 60.0951 -0.610114 0.279288 0
M  V30 682 H 62.6391 -1.50007 1.38989 0
M  V30 683 H 60.7941 -3.8354 0.545542 0
M  V30 684 H 61.2081 -4.5273 2.64831 0
M  V30 685 H 62.6821 -5.39374 1.17385 0
M  V30 686 H 63.1591 -4.38781 -0.191909 0
M  V30 687 H 63.7651 -4.00341 1.43551 0
M  V30 688 N 62.0802 -0.821533 -1.34494 0
M  V30 689 C 63.0122 -0.199946 -2.28326 0
M  V30 690 C 64.0252 0.609377 -1.50965 0
M  V30 691 O 65.2142 0.439285 -1.7301 0
M  V30 692 C 62.3142 0.738431 -3.30757 0
M  V30 693 C 61.4872 -0.0277632 -4.37391 0
M  V30 694 C 60.5462 0.831332 -5.19591 0
M  V30 695 O 59.5722 0.276822 -5.68526 0
M  V30 696 N 60.7742 2.15132 -5.39165 0
M  V30 697 H 63.5392 -1.00609 -2.82308 0
M  V30 698 H 61.1002 -0.678366 -1.47003 0
M  V30 699 H 63.0922 1.31773 -3.82646 0
M  V30 700 H 61.6622 1.44533 -2.7718 0
M  V30 701 H 60.8822 -0.788359 -3.86236 0
M  V30 702 H 62.1702 -0.555251 -5.05761 0
M  V30 703 H 61.5682 2.62559 -5.01078 0
M  V30 704 H 60.1252 2.6795 -5.94177 0
M  V30 705 N 63.5583 1.46682 -0.576371 0
M  V30 706 C 64.8053 2.02412 -0.0595339 0
M  V30 707 C 65.1333 1.44859 1.29793 0
M  V30 708 O 64.3883 0.601099 1.8624 0
M  V30 709 C 64.6873 3.57345 0.062886 0
M  V30 710 C 64.3533 4.33908 -1.22616 0
M  V30 711 C 63.0153 4.54544 -1.57933 0
M  V30 712 C 65.3673 4.77919 -2.07948 0
M  V30 713 C 62.6953 5.16444 -2.78393 0
M  V30 714 C 65.0473 5.41149 -3.27629 0
M  V30 715 C 63.7113 5.60014 -3.63236 0
M  V30 716 H 62.9813 0.74068 -0.021785 0
M  V30 717 H 65.6283 1.76128 -0.751735 0
M  V30 718 H 63.9333 3.82729 0.838178 0
M  V30 719 H 65.6303 3.98136 0.478439 0
M  V30 720 H 62.2203 4.18138 -0.941202 0
M  V30 721 H 66.4043 4.61738 -1.81967 0
M  V30 722 H 61.6603 5.29242 -3.06126 0
M  V30 723 H 65.8343 5.74211 -3.94023 0
M  V30 724 H 63.4613 6.07748 -4.56669 0
M  V30 725 N 65.0364 0.313813 1.54444 0
M  V30 726 C 65.9684 -0.590425 2.21465 0
M  V30 727 C 66.9814 -1.08753 1.21147 0
M  V30 728 O 68.1704 -1.00278 1.4767 0
M  V30 729 C 65.2704 -1.82179 2.85769 0
M  V30 730 C 64.4434 -1.46502 4.12136 0
M  V30 731 C 63.5024 -2.55288 4.60124 0
M  V30 732 O 62.5284 -2.19842 5.25032 0
M  V30 733 N 63.7304 -3.86053 4.33525 0
M  V30 734 H 66.4954 -0.0166033 2.99695 0
M  V30 735 H 64.0564 0.136578 1.61323 0
M  V30 736 H 66.0484 -2.54328 3.14801 0
M  V30 737 H 64.6184 -2.30369 2.11303 0
M  V30 738 H 63.8384 -0.575595 3.89975 0
M  V30 739 H 65.1264 -1.20221 4.94393 0
M  V30 740 H 64.5244 -4.17654 3.81552 0
M  V30 741 H 63.0814 -4.54461 4.67235 0
M  V30 742 N 66.5145 -1.57545 0.0417849 0
M  V30 743 C 67.7605 -1.92601 -0.635021 0
M  V30 744 C 68.0935 -0.919627 -1.71045 0
M  V30 745 O 67.3685 0.0557892 -1.9442 0
M  V30 746 C 67.6515 -3.38085 -1.23979 0
M  V30 747 C 67.5045 -4.49467 -0.173057 0
M  V30 748 C 68.8235 -3.83776 -2.15416 0
M  V30 749 H 65.9425 -0.700397 -0.229374 0
M  V30 750 H 68.5845 -1.89728 0.101633 0
M  V30 751 H 66.7345 -3.40664 -1.86762 0
M  V30 752 H 68.4065 -4.59018 0.458312 0
M  V30 753 H 66.6495 -4.30909 0.499996 0
M  V30 754 H 67.3205 -5.48323 -0.636054 0
M  V30 755 H 69.7965 -3.83013 -1.62605 0
M  V30 756 H 68.6725 -4.8624 -2.54679 0
M  V30 757 H 68.9335 -3.19998 -3.05047 0
M  V30 758 N 67.9926 0.231505 -1.5589 0
M  V30 759 C 69.2696 0.981096 -1.69215 0
M  V30 760 C 69.6496 2.02799 -0.586164 0
M  V30 761 O 68.9976 2.24823 0.408253 0
M  V30 762 C 69.2076 1.60054 -3.10135 0
M  V30 763 C 70.5556 2.09658 -3.69227 0
M  V30 764 O 71.5796 1.69967 -3.13033 0
M  V30 765 O 70.4386 2.8258 -4.67772 0
M  V30 766 H 67.5326 0.457653 -0.688827 0
M  V30 767 H 70.0786 0.224073 -1.68214 0
M  V30 768 H 68.8506 0.844105 -3.82087 0
M  V30 769 H 68.4736 2.42336 -3.15212 0
M  V30 770 N 69.4707 1.49531 0.497807 0
M  V30 771 C 70.4037 1.61043 1.6168 0
M  V30 772 C 71.3817 0.459386 1.55976 0
M  V30 773 O 72.5657 0.675358 1.75986 0
M  V30 774 C 69.6927 1.56833 3.00202 0
M  V30 775 C 68.7387 2.77173 3.24156 0
M  V30 776 S 69.5717 4.38808 3.06933 0
M  V30 777 C 70.7277 4.37248 4.47845 0
M  V30 778 H 70.9607 2.55702 1.51671 0
M  V30 779 H 68.4937 1.38462 0.683201 0
M  V30 780 H 70.4517 1.55089 3.80076 0
M  V30 781 H 69.1127 0.634561 3.07623 0
M  V30 782 H 68.3057 2.70456 4.25288 0
M  V30 783 H 67.9077 2.76346 2.5201 0
M  V30 784 H 70.1997 4.09164 5.39992 0
M  V30 785 H 71.1427 5.38668 4.59612 0
M  V30 786 H 71.5507 3.67286 4.28674 0
M  V30 787 N 70.9488 -0.749086 1.3866 0
M  V30 788 C 71.8588 -1.89358 1.38494 0
M  V30 789 C 72.8748 -1.71708 0.281476 0
M  V30 790 O 74.0508 -1.94554 0.520643 0
M  V30 791 C 71.1158 -3.24782 1.21316 0
M  V30 792 C 70.1768 -3.54926 2.41508 0
M  V30 793 C 69.4098 -4.83888 2.2514 0
M  V30 794 O 69.6328 -5.56592 1.24746 0
M  V30 795 O 68.5668 -5.13612 3.13826 0
M  V30 796 H 72.3928 -1.92452 2.34938 0
M  V30 797 H 69.9778 -0.894981 1.19626 0
M  V30 798 H 71.8598 -4.05739 1.13814 0
M  V30 799 H 70.5348 -3.2249 0.279592 0
M  V30 800 H 69.4418 -2.74112 2.54585 0
M  V30 801 H 70.7748 -3.61983 3.3351 0
M  V30 802 N 72.4269 -1.23603 -0.977757 0
M  V30 803 C 73.3899 -1.02069 -2.05218 0
M  V30 804 C 74.3899 0.0184305 -1.60789 0
M  V30 805 O 75.5799 -0.221569 -1.72785 0
M  V30 806 C 72.7119 -0.544926 -3.36517 0
M  V30 807 H 73.9049 -1.9742 -2.25755 0
M  V30 808 H 71.4579 -1.05684 -1.15155 0
M  V30 809 H 72.1929 0.412241 -3.21669 0
M  V30 810 H 71.9779 -1.2948 -3.70105 0
M  V30 811 H 73.4679 -0.414985 -4.15533 0
M  V30 812 N 73.905 1.17692 -1.04816 0
M  V30 813 C 75.151 1.88137 -0.75711 0
M  V30 814 C 75.484 1.80604 0.713841 0
M  V30 815 O 74.759 1.21146 1.52164 0
M  V30 816 C 75.042 3.38318 -1.2334 0
M  V30 817 C 74.895 3.54622 -2.76701 0
M  V30 818 C 76.214 4.32214 -0.829415 0
M  V30 819 H 73.333 0.683163 -0.27651 0
M  V30 820 H 75.975 1.38424 -1.30149 0
M  V30 821 H 74.125 3.80787 -0.770286 0
M  V30 822 H 75.797 3.21194 -3.31107 0
M  V30 823 H 74.04 2.97026 -3.16161 0
M  V30 824 H 74.711 4.60028 -3.05088 0
M  V30 825 H 77.187 3.97565 -1.22805 0
M  V30 826 H 76.063 5.35838 -1.19033 0
M  V30 827 H 76.324 4.41294 0.266891 0
M  V30 828 N 75.3831 0.828654 1.34056 0
M  V30 829 C 76.6311 0.41863 1.97717 0
M  V30 830 C 76.9521 -1.02314 1.66002 0
M  V30 831 O 76.2221 -1.71119 0.953683 0
M  V30 832 H 74.8021 0.151809 0.731412 0
M  V30 833 H 77.4641 1.05936 1.63596 0
M  V30 834 H 76.5601 0.542318 3.07352 0
M  V30 835 N 76.8612 -1.46375 0.584142 0
M  V30 836 C 77.7712 -2.34115 -0.150728 0
M  V30 837 C 78.7872 -1.49838 -0.884567 0
M  V30 838 O 79.9632 -1.82704 -0.847429 0
M  V30 839 C 77.0282 -3.2705 -1.15062 0
M  V30 840 C 76.0892 -4.27228 -0.421293 0
M  V30 841 C 75.3222 -5.15722 -1.37355 0
M  V30 842 O 75.5452 -5.07176 -2.61014 0
M  V30 843 O 74.4792 -5.95383 -0.883355 0
M  V30 844 H 78.3052 -2.98309 0.569708 0
M  V30 845 H 75.8902 -1.45373 0.344535 0
M  V30 846 H 77.7722 -3.84381 -1.72712 0
M  V30 847 H 76.4472 -2.65451 -1.8525 0
M  V30 848 H 75.3542 -3.7358 0.197085 0
M  V30 849 H 76.6872 -4.91616 0.239641 0
M  V30 850 N 78.3393 -0.321999 -1.54275 0
M  V30 851 C 79.5673 0.283052 -2.04955 0
M  V30 852 C 79.9823 1.45904 -1.19823 0
M  V30 853 O 79.3393 1.81063 -0.228545 0
M  V30 854 C 79.3903 0.719028 -3.54277 0
M  V30 855 O 79.1113 -0.410175 -4.36176 0
M  V30 856 C 80.6123 1.38705 -4.21041 0
M  V30 857 H 77.8323 0.0584616 -0.668448 0
M  V30 858 H 80.3763 -0.467734 -1.99079 0
M  V30 859 H 78.5313 1.41979 -3.60445 0
M  V30 860 H 78.9453 -0.0669416 -5.24457 0
M  V30 861 H 80.4193 1.64306 -5.2698 0
M  V30 862 H 80.8963 2.33385 -3.72059 0
M  V30 863 H 81.5023 0.728906 -4.19007 0
M  V30 864 N 79.8174 1.5752 -0.0501392 0
M  V30 865 C 80.7474 2.14502 0.922566 0
M  V30 866 C 81.7284 1.06642 1.3252 0
M  V30 867 O 82.9134 1.34577 1.4001 0
M  V30 868 C 80.0434 2.68916 2.19776 0
M  V30 869 C 78.9974 3.8175 1.93523 0
M  V30 870 C 78.3234 4.22677 3.27487 0
M  V30 871 C 79.6234 5.06932 1.25765 0
M  V30 872 H 81.3174 2.9603 0.447952 0
M  V30 873 H 78.8634 1.42401 0.214024 0
M  V30 874 H 80.8164 3.07419 2.88222 0
M  V30 875 H 79.5404 1.84578 2.69441 0
M  V30 876 H 78.1994 3.43718 1.27489 0
M  V30 877 H 77.8474 3.35291 3.74952 0
M  V30 878 H 77.5474 4.98725 3.1072 0
M  V30 879 H 79.0714 4.63779 3.97166 0
M  V30 880 H 80.4854 5.42888 1.84244 0
M  V30 881 H 78.8824 5.88116 1.19328 0
M  V30 882 H 79.9524 4.84337 0.233536 0
M  V30 883 N 81.2955 -0.223234 1.56011 0
M  V30 884 C 82.5415 -0.944891 1.8012 0
M  V30 885 C 82.8965 -1.82039 0.622862 0
M  V30 886 O 82.1895 -1.8773 -0.383143 0
M  V30 887 C 82.3835 -1.81948 3.0762 0
M  V30 888 C 82.2125 -1.03014 4.37742 0
M  V30 889 C 80.9825 -0.72574 5.00061 0
M  V30 890 C 83.1805 -0.396256 5.12771 0
M  V30 891 N 81.1625 0.0851816 6.13841 0
M  V30 892 C 82.5335 0.278137 6.19376 0
M  V30 893 C 84.5885 -0.309117 4.9694 0
M  V30 894 C 83.2915 1.03133 7.11868 0
M  V30 895 C 85.3175 0.430607 5.8983 0
M  V30 896 C 84.6795 1.09355 6.9586 0
M  V30 897 H 80.7785 -0.326081 0.710771 0
M  V30 898 H 83.3625 -0.215914 1.93499 0
M  V30 899 H 81.5335 -2.52029 2.95527 0
M  V30 900 H 83.2655 -2.47848 3.19927 0
M  V30 901 H 80.0205 -1.04335 4.61964 0
M  V30 902 H 80.4445 0.479428 6.753 0
M  V30 903 H 85.0865 -0.807313 4.15021 0
M  V30 904 H 82.8045 1.54105 7.9327 0
M  V30 905 H 86.3905 0.499012 5.79656 0
M  V30 906 H 85.2705 1.65679 7.66499 0
M  V30 907 N 82.7736 -1.49793 -0.48987 0
M  V30 908 C 84.0136 -1.61466 -1.25332 0
M  V30 909 C 84.3776 -0.299688 -1.89647 0
M  V30 910 O 85.5786 -0.291687 -2.67213 0
M  V30 911 C 83.8496 -2.74944 -2.28343 0
M  V30 912 S 85.4086 -3.06637 -3.13878 0
M  V30 913 H 82.2266 -0.569411 -0.425784 0
M  V30 914 H 84.8286 -1.875 -0.553541 0
M  V30 915 H 83.5326 -3.68994 -1.79643 0
M  V30 916 H 83.0636 -2.50938 -3.02975 0
M  V30 917 H 85.0786 -2.49015 -4.29192 0
M  V30 918 N 84.2517 0.741722 -1.39055 0
M  V30 919 C 85.5287 1.49252 -1.26425 0
M  V30 920 C 85.9087 2.10705 0.129144 0
M  V30 921 O 85.2567 1.98045 1.13976 0
M  V30 922 C 85.4667 2.54934 -2.38347 0
M  V30 923 C 86.8147 3.21506 -2.77343 0
M  V30 924 O 87.8387 2.65245 -2.37747 0
M  V30 925 O 86.6977 4.23294 -3.45665 0
M  V30 926 H 83.7917 0.662451 -0.495064 0
M  V30 927 H 86.3377 0.776121 -1.50912 0
M  V30 928 H 85.1097 2.07857 -3.31529 0
M  V30 929 H 84.7327 3.34141 -2.15489 0
M  V30 930 N 85.7298 1.2412 0.971189 0
M  V30 931 C 86.9758 1.09048 1.71698 0
M  V30 932 C 87.3308 -0.367442 1.88859 0
M  V30 933 O 86.6238 -1.26792 1.43646 0
M  V30 934 C 86.8178 1.75983 3.11071 0
M  V30 935 C 86.6468 3.28133 3.07504 0
M  V30 936 C 85.4168 3.97331 3.1218 0
M  V30 937 C 87.6148 4.24773 2.89952 0
M  V30 938 N 85.5968 5.3639 2.98596 0
M  V30 939 C 86.9678 5.50806 2.84627 0
M  V30 940 C 89.0228 4.15392 2.74506 0
M  V30 941 C 87.7258 6.68533 2.65437 0
M  V30 942 C 89.7518 5.32793 2.56682 0
M  V30 943 C 89.1138 6.57756 2.52063 0
M  V30 944 H 85.2128 0.453632 0.636979 0
M  V30 945 H 87.7968 1.56983 1.15171 0
M  V30 946 H 85.9678 1.30566 3.65796 0
M  V30 947 H 87.6998 1.53803 3.74335 0
M  V30 948 H 84.4548 3.48473 3.20724 0
M  V30 949 H 84.8788 6.09321 2.95054 0
M  V30 950 H 89.5208 3.19543 2.76861 0
M  V30 951 H 87.2388 7.64509 2.61825 0
M  V30 952 H 90.8248 5.27383 2.4568 0
M  V30 953 H 89.7048 7.4707 2.38446 0
M  V30 954 N 87.2079 -1.17134 1.05439 0
M  V30 955 C 88.4559 -1.87085 0.764429 0
M  V30 956 C 88.7769 -1.81584 -0.710787 0
M  V30 957 O 88.0469 -1.24349 -1.51374 0
M  V30 958 H 86.6269 -0.692627 0.279779 0
M  V30 959 H 89.2889 -1.42087 1.33406 0
M  V30 960 H 88.3849 -2.92759 1.0816 0
M  V30 961 N 88.686 -0.835752 -1.33615 0
M  V30 962 C 90.102 -0.523139 -1.50783 0
M  V30 963 C 90.302 0.950171 -1.77691 0
M  V30 964 O 89.358 1.73411 -1.83534 0
M  V30 965 C 90.671 -1.39378 -2.66448 0
M  V30 966 C 92.219 -1.39223 -2.80332 0
M  V30 967 C 92.694 -2.24765 -3.99055 0
M  V30 968 N 94.185 -2.22458 -4.06284 0
M  V30 969 C 94.92 -2.85386 -4.97336 0
M  V30 970 N 94.416 -3.57354 -5.93523 0
M  V30 971 N 96.209 -2.74872 -4.90308 0
M  V30 972 H 88.36 -1.78952 -1.14411 0
M  V30 973 H 90.623 -0.763297 -0.562212 0
M  V30 974 H 90.329 -2.44061 -2.53234 0
M  V30 975 H 90.203 -1.0676 -3.61776 0
M  V30 976 H 92.59 -0.353136 -2.92979 0
M  V30 977 H 92.671 -1.75846 -1.85773 0
M  V30 978 H 92.315 -3.28732 -3.87167 0
M  V30 979 H 92.245 -1.85485 -4.92852 0
M  V30 980 H 94.736 -1.70119 -3.37443 0
M  V30 981 H 95.049 -4.02584 -6.59656 0
M  V30 982 H 93.394 -3.61461 -5.93608 0
M  V30 983 H 96.585 -2.18213 -4.14126 0
M  V30 984 H 96.758 -3.24199 -5.61069 0
M  V30 985 N 90.1641 1.46063 -0.591896 0
M  V30 986 C 91.3921 2.06717 -0.0868936 0
M  V30 987 C 91.8071 1.43916 1.22203 0
M  V30 988 O 91.1641 0.547698 1.74088 0
M  V30 989 C 91.2151 3.6142 0.0758725 0
M  V30 990 O 90.9361 4.21874 -1.18126 0
M  V30 991 C 92.4371 4.39025 0.61416 0
M  V30 992 H 89.6571 0.668162 -0.0616518 0
M  V30 993 H 92.2011 1.8755 -0.815175 0
M  V30 994 H 90.3561 3.79983 0.754413 0
M  V30 995 H 90.7701 5.14861 -1.00092 0
M  V30 996 H 92.2441 5.4783 0.677193 0
M  V30 997 H 92.7211 4.07708 1.63312 0
M  V30 998 H 93.3271 4.2529 -0.0298142 0
M  V30 999 N 91.6422 0.330177 1.54103 0
M  V30 1000 C 92.8912 -0.271336 1.99867 0
M  V30 1001 C 93.2042 -1.52723 1.22209 0
M  V30 1002 O 94.4102 -2.20515 1.58383 0
M  V30 1003 C 92.8662 -0.534032 3.55916 0
M  V30 1004 C 92.4742 0.705193 4.42415 0
M  V30 1005 C 94.2182 -1.09514 4.1013 0
M  V30 1006 C 92.1252 0.414035 5.89949 0
M  V30 1007 H 91.0552 -0.105166 0.74663 0
M  V30 1008 H 93.7062 0.443429 1.78062 0
M  V30 1009 H 92.0882 -1.30915 3.73734 0
M  V30 1010 H 93.2622 1.4804 4.36372 0
M  V30 1011 H 91.5772 1.18698 3.99124 0
M  V30 1012 H 94.1742 -1.3277 5.17954 0
M  V30 1013 H 94.5172 -2.04656 3.62521 0
M  V30 1014 H 95.0502 -0.381038 3.95971 0
M  V30 1015 H 91.7892 1.33481 6.41766 0
M  V30 1016 H 91.3092 -0.323336 5.98928 0
M  V30 1017 H 92.9882 0.0263105 6.46995 0
M  V30 1018 N 93.1203 -1.57491 0.0584922 0
M  V30 1019 C 94.5363 -1.56792 -0.298091 0
M  V30 1020 C 94.7363 -1.06679 -1.70944 0
M  V30 1021 O 93.7923 -0.726672 -2.41818 0
M  V30 1022 C 95.1053 -3.00461 -0.119879 0
M  V30 1023 C 96.6533 -3.1242 -0.190428 0
M  V30 1024 C 97.1283 -4.57982 -0.0406567 0
M  V30 1025 N 98.6193 -4.63099 -0.0966958 0
M  V30 1026 C 99.3543 -5.734 -0.00502943 0
M  V30 1027 N 98.8503 -6.9266 0.139402 0
M  V30 1028 N 100.643 -5.62067 -0.0611391 0
M  V30 1029 H 92.7943 -1.88386 0.98105 0
M  V30 1030 H 95.0573 -0.867865 0.381463 0
M  V30 1031 H 94.7633 -3.41187 0.85349 0
M  V30 1032 H 94.6373 -3.66843 -0.877833 0
M  V30 1033 H 97.0243 -2.71589 -1.15427 0
M  V30 1034 H 97.1053 -2.48702 0.598405 0
M  V30 1035 H 96.7493 -4.995 0.919897 0
M  V30 1036 H 96.6793 -5.19715 -0.848727 0
M  V30 1037 H 99.1703 -3.77331 -0.207277 0
M  V30 1038 H 99.4833 -7.72536 0.201855 0
M  V30 1039 H 97.8283 -6.94781 0.174586 0
M  V30 1040 H 101.019 -4.67782 -0.172583 0
M  V30 1041 H 101.192 -6.47999 0.0137562 0
M  V30 1042 N 94.5984 0.214957 -1.56127 0
M  V30 1043 C 95.8234 0.95924 -1.83884 0
M  V30 1044 C 96.2484 1.7689 -0.639644 0
M  V30 1045 O 95.6064 1.76566 0.411601 0
M  V30 1046 C 95.6544 1.84723 -3.09693 0
M  V30 1047 O 94.7584 2.94346 -2.8885 0
M  V30 1048 H 94.0994 0.27125 -0.606069 0
M  V30 1049 H 96.6294 0.226276 -2.03345 0
M  V30 1050 H 96.6394 2.25576 -3.39969 0
M  V30 1051 H 95.3144 1.25218 -3.96602 0
M  V30 1052 H 93.8914 2.57391 -2.69823 0
M  V30 1053 N 96.0765 1.50051 0.48192 0
M  V30 1054 C 97.3065 1.63999 1.2565 0
M  V30 1055 C 97.7145 0.318288 1.86504 0
M  V30 1056 O 97.0575 -0.708534 1.69486 0
M  V30 1057 C 97.1195 2.66504 2.4128 0
M  V30 1058 C 96.7835 4.10352 2.01148 0
M  V30 1059 C 97.7805 4.96562 1.54021 0
M  V30 1060 C 95.4655 4.56203 2.10199 0
M  V30 1061 C 97.4595 6.26668 1.16473 0
M  V30 1062 C 95.1465 5.86318 1.72264 0
M  V30 1063 C 96.1445 6.71375 1.25477 0
M  V30 1064 O 95.8325 7.99062 0.880626 0
M  V30 1065 H 95.5645 0.55456 0.386574 0
M  V30 1066 H 98.1185 1.96954 0.582944 0
M  V30 1067 H 96.3485 2.28769 3.11772 0
M  V30 1068 H 98.0375 2.69783 3.03268 0
M  V30 1069 H 98.8035 4.62358 1.46458 0
M  V30 1070 H 94.6825 3.90152 2.45566 0
M  V30 1071 H 98.2265 6.93011 0.798841 0
M  V30 1072 H 94.1235 6.20046 1.79482 0
M  V30 1073 H 94.8915 8.12239 1.01043 0
M  V30 1074 N 97.5546 -0.734337 1.39446 0
M  V30 1075 C 98.9706 -1.03997 1.21065 0
M  V30 1076 C 99.1706 -2.01369 0.0727019 0
M  V30 1077 O 98.2266 -2.45856 -0.575426 0
M  V30 1078 C 99.5396 -1.60163 2.54496 0
M  V30 1079 C 101.088 -1.7224 2.61347 0
M  V30 1080 C 101.563 -2.31814 3.95002 0
M  V30 1081 N 103.054 -2.39223 3.96644 0
M  V30 1082 C 103.789 -2.86258 4.96834 0
M  V30 1083 N 103.285 -3.33184 6.07421 0
M  V30 1084 N 105.078 -2.85473 4.84213 0
M  V30 1085 H 97.2286 -0.0885624 2.12215 0
M  V30 1086 H 99.4916 -0.10191 0.942506 0
M  V30 1087 H 99.1976 -0.960811 3.38321 0
M  V30 1088 H 99.0716 -2.5896 2.74262 0
M  V30 1089 H 101.459 -2.35443 1.77906 0
M  V30 1090 H 101.54 -0.720939 2.4543 0
M  V30 1091 H 101.184 -1.69238 4.78875 0
M  V30 1092 H 101.114 -3.32638 4.08239 0
M  V30 1093 H 103.605 -2.06057 3.16779 0
M  V30 1094 H 103.918 -3.67586 6.7978 0
M  V30 1095 H 102.263 -3.31191 6.11013 0
M  V30 1096 H 105.454 -2.48136 3.96921 0
M  V30 1097 H 105.627 -3.21814 5.62441 0
M  V30 1098 N 99.0327 -1.24633 -0.964593 0
M  V30 1099 C 99.9427 -1.05859 -2.09359 0
M  V30 1100 C 100.959 0.00148855 -1.74 0
M  V30 1101 O 102.135 -0.197346 -2.00431 0
M  V30 1102 C 99.1997 -0.668879 -3.40187 0
M  V30 1103 C 98.2607 -1.80578 -3.89474 0
M  V30 1104 C 97.4937 -1.43457 -5.14058 0
M  V30 1105 O 97.7167 -0.325775 -5.69469 0
M  V30 1106 O 96.6507 -2.2613 -5.57807 0
M  V30 1107 H 100.477 -2.00516 -2.28094 0
M  V30 1108 H 98.0617 -1.03481 -1.0776 0
M  V30 1109 H 99.9437 -0.463211 -4.18846 0
M  V30 1110 H 98.6187 0.248536 -3.22744 0
M  V30 1111 H 97.5257 -2.06623 -3.11862 0
M  V30 1112 H 98.8587 -2.70208 -4.11398 0
M  V30 1113 N 100.511 1.16574 -1.06058 0
M  V30 1114 C 101.441 2.23057 -0.690488 0
M  V30 1115 C 102.422 1.67141 0.315901 0
M  V30 1116 O 103.607 1.93253 0.191556 0
M  V30 1117 C 100.737 3.47222 -0.073625 0
M  V30 1118 C 99.6908 4.16016 -1.00573 0
M  V30 1119 C 99.0168 5.34104 -0.252289 0
M  V30 1120 C 100.317 4.67264 -2.33371 0
M  V30 1121 H 102.011 2.54271 -1.58072 0
M  V30 1122 H 99.5568 1.22218 -0.76149 0
M  V30 1123 H 101.51 4.20939 0.19714 0
M  V30 1124 H 100.234 3.15302 0.85161 0
M  V30 1125 H 98.8928 3.44223 -1.2612 0
M  V30 1126 H 98.5408 4.98437 0.675988 0
M  V30 1127 H 98.2408 5.81072 -0.873455 0
M  V30 1128 H 99.7648 6.10599 0.0109857 0
M  V30 1129 H 101.179 5.32573 -2.12223 0
M  V30 1130 H 99.5758 5.24843 -2.90963 0
M  V30 1131 H 100.646 3.83602 -2.96611 0
M  V30 1132 N 101.989 0.842826 1.3317 0
M  V30 1133 C 102.952 0.284065 2.27433 0
M  V30 1134 C 103.952 -0.54948 1.5112 0
M  V30 1135 O 105.142 -0.362699 1.70382 0
M  V30 1136 C 102.274 -0.599384 3.35589 0
M  V30 1137 H 103.467 1.11589 2.78366 0
M  V30 1138 H 101.02 0.616221 1.4364 0
M  V30 1139 H 101.755 -1.45349 2.89904 0
M  V30 1140 H 101.54 -0.00291266 3.921 0
M  V30 1141 H 103.03 -0.983488 4.05854 0
M  V30 1142 N 103.467 -1.45747 0.599634 0
M  V30 1143 C 104.744 -1.95585 0.0240846 0
M  V30 1144 C 105.124 -1.54217 -1.44154 0
M  V30 1145 O 104.472 -0.800903 -2.14004 0
M  V30 1146 C 104.682 -3.48344 0.21385 0
M  V30 1147 C 106.03 -4.24504 0.0904902 0
M  V30 1148 O 107.054 -3.55911 0.143558 0
M  V30 1149 O 105.913 -5.46491 -0.0310766 0
M  V30 1150 H 103.007 -0.82602 -0.0402478 0
M  V30 1151 H 105.553 -1.55951 0.669139 0
M  V30 1152 H 104.325 -3.71397 1.23206 0
M  V30 1153 H 103.948 -3.9485 -0.466842 0
M  V30 1154 N 104.945 -0.338344 -1.53925 0
M  V30 1155 C 106.185 0.260168 -2.02737 0
M  V30 1156 C 106.549 1.48181 -1.22092 0
M  V30 1157 O 107.75 2.15416 -1.60777 0
M  V30 1158 C 106.021 0.571627 -3.52799 0
M  V30 1159 S 107.58 1.14769 -4.23525 0
M  V30 1160 H 104.398 0.077791 -0.706732 0
M  V30 1161 H 107 -0.474899 -1.89644 0
M  V30 1162 H 105.704 -0.325392 -4.09108 0
M  V30 1163 H 105.235 1.3365 -3.70002 0
M  V30 1164 H 107.25 2.43372 -4.32417 0
M  V30 1165 N 106.423 1.57458 -0.0668435 0
M  V30 1166 C 107.651 1.97624 0.612565 0
M  V30 1167 C 108.066 0.94502 1.63447 0
M  V30 1168 O 107.423 -0.0689276 1.8237 0
M  V30 1169 C 107.474 3.37869 1.28555 0
M  V30 1170 O 107.195 4.3704 0.304557 0
M  V30 1171 C 108.696 3.92882 2.05325 0
M  V30 1172 H 105.916 0.650045 0.166381 0
M  V30 1173 H 108.46 2.04035 -0.137782 0
M  V30 1174 H 106.615 3.3256 1.98702 0
M  V30 1175 H 107.029 5.18565 0.786779 0
M  V30 1176 H 108.503 4.93247 2.47812 0
M  V30 1177 H 108.98 3.29156 2.9078 0
M  V30 1178 H 109.586 4.01577 1.40056 0
M  V30 1179 N 107.901 -0.206675 1.56239 0
M  V30 1180 C 109.147 -0.925733 1.81113 0
M  V30 1181 C 109.502 -1.81368 0.642135 0
M  V30 1182 O 108.795 -1.88126 -0.363211 0
M  V30 1183 C 108.989 -1.78675 3.09532 0
M  V30 1184 C 108.818 -0.98365 4.3881 0
M  V30 1185 C 107.588 -0.672661 5.00803 0
M  V30 1186 C 109.786 -0.341847 5.13163 0
M  V30 1187 N 107.768 0.150283 6.13716 0
M  V30 1188 C 109.139 0.343815 6.19046 0
M  V30 1189 C 111.194 -0.256392 4.97239 0
M  V30 1190 C 109.897 1.10678 7.10734 0
M  V30 1191 C 111.923 0.493142 5.8934 0
M  V30 1192 C 111.285 1.16729 6.94661 0
M  V30 1193 H 107.384 -0.318524 0.714189 0
M  V30 1194 H 109.968 -0.195378 1.93717 0
M  V30 1195 H 108.139 -2.4888 2.98183 0
M  V30 1196 H 109.871 -2.44441 3.22538 0
M  V30 1197 H 106.626 -0.994294 4.63045 0
M  V30 1198 H 107.05 0.551026 6.74754 0
M  V30 1199 H 111.692 -0.763249 4.15854 0
M  V30 1200 H 109.41 1.6251 7.91591 0
M  V30 1201 H 112.996 0.560465 5.79094 0
M  V30 1202 H 111.876 1.738 7.64698 0
M  V30 1203 N 109.379 -1.50304 -0.473955 0
M  V30 1204 C 110.329 -1.65347 -1.56985 0
M  V30 1205 C 111.313 -0.508176 -1.52664 0
M  V30 1206 O 112.505 -0.762446 -1.59737 0
M  V30 1207 C 109.634 -1.74832 -2.95447 0
M  V30 1208 C 108.72 -2.95028 -3.04662 0
M  V30 1209 N 109.111 -4.18747 -2.83698 0
M  V30 1210 C 107.409 -2.93527 -3.35795 0
M  V30 1211 C 108.11 -4.99687 -2.97805 0
M  V30 1212 N 107.086 -4.33585 -3.2788 0
M  V30 1213 H 110.888 -2.58698 -1.39472 0
M  V30 1214 H 108.402 -1.47449 -0.680629 0
M  V30 1215 H 110.399 -1.83712 -3.7424 0
M  V30 1216 H 109.059 -0.826376 -3.14008 0
M  V30 1217 H 110.07 -4.48291 -2.59337 0
M  V30 1218 H 106.747 -2.10821 -3.60362 0
M  V30 1219 H 108.137 -6.08057 -2.85861 0
M  V30 1220 N 110.857 0.726932 -1.39834 0
M  V30 1221 C 111.79 1.8501 -1.33592 0
M  V30 1222 C 112.768 1.61262 -0.208191 0
M  V30 1223 O 113.952 1.84422 -0.389981 0
M  V30 1224 C 111.079 3.21143 -1.07633 0
M  V30 1225 C 110.125 3.63737 -2.22705 0
M  V30 1226 S 110.958 3.72167 -3.85035 0
M  V30 1227 C 112.114 5.11077 -3.61318 0
M  V30 1228 H 112.347 1.90022 -2.28646 0
M  V30 1229 H 109.88 0.892595 -1.25985 0
M  V30 1230 H 111.838 3.99747 -0.933415 0
M  V30 1231 H 110.499 3.13776 -0.142526 0
M  V30 1232 H 109.692 4.62551 -2.00155 0
M  V30 1233 H 109.294 2.9236 -2.33242 0
M  V30 1234 H 111.586 5.97656 -3.19083 0
M  V30 1235 H 112.529 5.38658 -4.59623 0
M  V30 1236 H 112.937 4.81135 -2.95245 0
M  V30 1237 N 112.336 1.25143 0.95797 0
M  V30 1238 C 113.299 1.05321 2.03569 0
M  V30 1239 C 114.299 0.007152 1.60798 0
M  V30 1240 O 115.489 0.24903 1.72411 0
M  V30 1241 C 112.621 0.598394 3.35607 0
M  V30 1242 H 113.814 2.00986 2.22586 0
M  V30 1243 H 111.367 1.07502 1.13459 0
M  V30 1244 H 112.102 -0.361014 3.22284 0
M  V30 1245 H 111.887 1.35351 3.67998 0
M  V30 1246 H 113.377 0.48104 4.1482 0
M  V30 1247 N 113.814 -1.1601 1.06675 0
M  V30 1248 C 114.724 -2.24156 0.692179 0
M  V30 1249 C 115.74 -1.71507 -0.293513 0
M  V30 1250 O 116.916 -2.009 -0.141861 0
M  V30 1251 C 113.981 -3.46587 0.0884131 0
M  V30 1252 C 113.042 -4.14257 1.12646 0
M  V30 1253 C 112.275 -5.30844 0.551416 0
M  V30 1254 O 112.498 -5.66858 -0.634656 0
M  V30 1255 O 111.432 -5.87848 1.29298 0
M  V30 1256 H 115.258 -2.58513 1.59388 0
M  V30 1257 H 112.843 -1.23599 0.83926 0
M  V30 1258 H 114.725 -4.20679 -0.246361 0
M  V30 1259 H 113.4 -3.13994 -0.786712 0
M  V30 1260 H 112.307 -3.42118 1.51348 0
M  V30 1261 H 113.64 -4.50914 1.97325 0
M  V30 1262 N 115.292 -0.849877 -1.32721 0
M  V30 1263 C 116.239 -0.289033 -2.28983 0
M  V30 1264 C 117.209 0.601324 -1.54833 0
M  V30 1265 O 118.394 0.537253 -1.8308 0
M  V30 1266 C 115.534 0.520623 -3.4115 0
M  V30 1267 C 114.647 -0.394989 -4.3019 0
M  V30 1268 C 113.782 0.426834 -5.29482 0
M  V30 1269 C 112.821 -0.486476 -6.10164 0
M  V30 1270 N 111.958 0.297879 -7.01468 0
M  V30 1271 H 116.798 -1.11519 -2.76347 0
M  V30 1272 H 114.335 -0.56138 -1.35967 0
M  V30 1273 H 116.293 1.00563 -4.04899 0
M  V30 1274 H 114.923 1.31165 -2.9495 0
M  V30 1275 H 113.975 -0.99836 -3.67065 0
M  V30 1276 H 115.287 -1.09612 -4.86607 0
M  V30 1277 H 114.441 0.975205 -5.98811 0
M  V30 1278 H 113.18 1.16136 -4.73671 0
M  V30 1279 H 112.185 -1.04677 -5.39743 0
M  V30 1280 H 113.41 -1.21953 -6.6806 0
M  V30 1281 H 111.356 1.01558 -6.48091 0
M  V30 1282 H 111.273 -0.344318 -7.55216 0
M  V30 1283 H 112.541 0.828131 -7.75089 0
M  V30 1284 N 116.77 1.45427 -0.607355 0
M  V30 1285 C 117.7 2.3329 0.0989352 0
M  V30 1286 C 118.681 1.46816 0.859007 0
M  V30 1287 O 119.866 1.75588 0.829604 0
M  V30 1288 C 116.996 3.29518 1.09705 0
M  V30 1289 C 115.95 4.25626 0.450206 0
M  V30 1290 C 115.276 5.11542 1.55655 0
M  V30 1291 C 116.576 5.18505 -0.628455 0
M  V30 1292 H 118.27 2.92595 -0.634716 0
M  V30 1293 H 115.816 1.40696 -0.306681 0
M  V30 1294 H 117.769 3.89855 1.59971 0
M  V30 1295 H 116.493 2.68372 1.86129 0
M  V30 1296 H 115.152 3.66586 -0.0315886 0
M  V30 1297 H 114.8 4.46765 2.31107 0
M  V30 1298 H 114.5 5.76647 1.12925 0
M  V30 1299 H 116.024 5.74748 2.06148 0
M  V30 1300 H 117.438 5.72916 -0.209877 0
M  V30 1301 H 115.835 5.92085 -0.977489 0
M  V30 1302 H 116.905 4.60948 -1.50514 0
M  V30 1303 N 118.248 0.346503 1.53744 0
M  V30 1304 C 119.496 -0.248612 2.00565 0
M  V30 1305 C 119.817 -1.5083 1.23593 0
M  V30 1306 O 119.087 -1.92858 0.343912 0
M  V30 1307 H 117.667 -0.0948564 0.740953 0
M  V30 1308 H 120.329 0.468341 1.89189 0
M  V30 1309 H 119.425 -0.488994 3.08245 0
M  V30 1310 N 119.726 -1.57421 0.075193 0
M  V30 1311 C 120.966 -1.95495 -0.596757 0
M  V30 1312 C 121.33 -0.954886 -1.66571 0
M  V30 1313 O 122.531 -1.22341 -2.39345 0
M  V30 1314 C 120.802 -3.382 -1.15566 0
M  V30 1315 S 122.361 -3.98254 -1.84226 0
M  V30 1316 H 119.179 -0.683649 -0.195307 0
M  V30 1317 H 121.781 -1.94925 0.149859 0
M  V30 1318 H 120.485 -4.08766 -0.36588 0
M  V30 1319 H 120.016 -3.42321 -1.93856 0
M  V30 1320 H 122.031 -3.85435 -3.12497 0
M  V30 1321 N 121.204 0.198386 -1.56346 0
M  V30 1322 C 122.451 0.919286 -1.80431 0
M  V30 1323 C 122.779 1.83393 -0.647866 0
M  V30 1324 O 122.034 1.92236 0.366556 0
M  V30 1325 C 122.333 1.77031 -3.10475 0
M  V30 1326 C 121.999 1.00693 -4.39513 0
M  V30 1327 C 120.661 0.796145 -4.74568 0
M  V30 1328 C 123.013 0.469559 -5.19081 0
M  V30 1329 C 120.341 0.0364588 -5.86689 0
M  V30 1330 C 122.693 -0.2769 -6.31994 0
M  V30 1331 C 121.357 -0.49873 -6.65634 0
M  V30 1332 H 120.627 0.336391 -0.660244 0
M  V30 1333 H 123.274 0.185872 -1.90596 0
M  V30 1334 H 121.579 2.5723 -2.95533 0
M  V30 1335 H 123.276 2.33065 -3.26315 0
M  V30 1336 H 119.866 1.18122 -4.12001 0
M  V30 1337 H 124.05 0.619816 -4.92414 0
M  V30 1338 H 119.306 -0.145412 -6.11227 0
M  V30 1339 H 123.48 -0.700684 -6.92866 0
M  V30 1340 H 121.107 -1.0893 -7.52355 0
M  V30 1341 N 122.682 1.50554 0.465978 0
M  V30 1342 C 123.928 1.63006 1.21658 0
M  V30 1343 C 124.283 0.328613 1.89573 0
M  V30 1344 O 123.576 -0.673813 1.79361 0
M  V30 1345 C 123.77 2.75152 2.28093 0
M  V30 1346 C 123.599 4.16075 1.7062 0
M  V30 1347 C 122.369 4.82408 1.50368 0
M  V30 1348 C 124.567 5.00145 1.1983 0
M  V30 1349 N 122.549 6.07532 0.881924 0
M  V30 1350 C 123.92 6.16035 0.700083 0
M  V30 1351 C 125.975 4.85882 1.08733 0
M  V30 1352 C 124.678 7.19228 0.101835 0
M  V30 1353 C 126.704 5.89257 0.503016 0
M  V30 1354 C 126.066 7.04398 0.0152005 0
M  V30 1355 H 122.165 0.650596 0.433877 0
M  V30 1356 H 124.749 1.8769 0.517746 0
M  V30 1357 H 122.92 2.52181 2.95397 0
M  V30 1358 H 124.652 2.76935 2.95109 0
M  V30 1359 H 121.407 4.39788 1.75737 0
M  V30 1360 H 121.831 6.7443 0.589312 0
M  V30 1361 H 126.473 3.97144 1.4504 0
M  V30 1362 H 124.191 8.07637 -0.273426 0
M  V30 1363 H 127.777 5.80286 0.419451 0
M  V30 1364 H 126.657 7.83021 -0.429856 0
M  V30 1365 N 124.16 -0.719506 1.40217 0
M  V30 1366 C 125.571 -1.29848 1.34151 0
M  V30 1367 C 125.922 -1.96196 0.0131349 0
M  V30 1368 O 125.047 -1.973 -0.88892 0
M  V30 1369 C 125.642 -2.36118 2.42968 0
M  V30 1370 C 124.201 -2.8965 2.40374 0
M  V30 1371 C 123.348 -1.63393 2.24049 0
M  V30 1372 H 126.299 -0.51591 1.5008 0
M  V30 1373 H 126.32 -3.16871 2.10649 0
M  V30 1374 H 125.832 -1.878 3.39636 0
M  V30 1375 H 123.933 -3.42208 1.47392 0
M  V30 1376 H 124.046 -3.4171 3.35814 0
M  V30 1377 H 122.41 -1.88312 1.71495 0
M  V30 1378 H 123.193 -1.17104 3.2271 0
M  V30 1379 N 125.638 -1.25649 -0.95132 0
M  V30 1380 C 126.586 -1.06118 -2.06982 0
M  V30 1381 C 127.58 0.00889169 -1.69398 0
M  V30 1382 O 128.786 -0.146988 -1.79399 0
M  V30 1383 H 125.161 -0.326248 -0.677544 0
M  V30 1384 H 127.132 -2.00932 -2.2061 0
M  V30 1385 C 125.881 -0.700145 -3.40578 0
M  V30 1386 H 125.204 -1.51537 -3.69968 0
M  V30 1387 H 126.644 -0.603211 -4.19687 0
M  V30 1388 C 125.103 0.59403 -3.31622 0
M  V30 1389 O 125.633 1.63522 -3.66911 0
M  V30 1390 N 123.839 0.58089 -2.84735 0
M  V30 1391 H 123.386 -0.266783 -2.56215 0
M  V30 1392 H 123.344 1.44695 -2.79125 0
M  V30 1393 N 127.117 1.15442 -1.07289 0
M  V30 1394 C 128.08 2.18358 -0.696591 0
M  V30 1395 C 129.08 1.58637 0.262837 0
M  V30 1396 O 130.27 1.74145 0.0438809 0
M  V30 1397 C 127.402 3.4089 -0.0266151 0
M  V30 1398 H 128.595 2.53162 -1.60776 0
M  V30 1399 H 126.148 1.29893 -0.869342 0
M  V30 1400 H 126.883 3.11653 0.896822 0
M  V30 1401 H 126.668 3.85495 -0.716657 0
M  V30 1402 H 128.158 4.17009 0.222028 0
M  V30 1403 N 128.595 0.856903 1.32268 0
M  V30 1404 C 129.505 0.306131 2.32594 0
M  V30 1405 C 130.521 -0.577209 1.64147 0
M  V30 1406 O 131.697 -0.477043 1.95669 0
M  V30 1407 C 128.762 -0.494561 3.43154 0
M  V30 1408 C 127.823 0.415186 4.27288 0
M  V30 1409 C 127.056 -0.347387 5.32568 0
M  V30 1410 O 127.279 -1.57708 5.48165 0
M  V30 1411 O 126.213 0.287982 6.01211 0
M  V30 1412 H 130.039 1.13737 2.81598 0
M  V30 1413 H 127.624 0.619902 1.35932 0
M  V30 1414 H 129.506 -0.948944 4.10576 0
M  V30 1415 H 128.181 -1.30257 2.96336 0
M  V30 1416 H 127.088 0.917793 3.62667 0
M  V30 1417 H 128.421 1.18844 4.77637 0
M  V30 1418 N 130.073 -1.45103 0.615059 0
M  V30 1419 C 131.319 -2.02483 0.113347 0
M  V30 1420 C 131.652 -1.48146 -1.25564 0
M  V30 1421 O 130.927 -0.659104 -1.82992 0
M  V30 1422 C 131.21 -3.60005 0.0825278 0
M  V30 1423 C 131.063 -4.2466 1.48271 0
M  V30 1424 C 132.382 -4.35972 -0.601401 0
M  V30 1425 H 129.501 -0.735764 0.0426632 0
M  V30 1426 H 132.143 -1.72868 0.788461 0
M  V30 1427 H 130.293 -3.85367 -0.492378 0
M  V30 1428 H 131.965 -4.10458 2.10527 0
M  V30 1429 H 130.208 -3.82772 2.04127 0
M  V30 1430 H 130.879 -5.336 1.41332 0
M  V30 1431 H 133.355 -4.15947 -0.112666 0
M  V30 1432 H 132.231 -5.45697 -0.592097 0
M  V30 1433 H 132.492 -4.09391 -1.66887 0
M  V30 1434 N 131.551 -0.354651 -1.53558 0
M  V30 1435 C 132.828 0.294281 -1.93374 0
M  V30 1436 C 133.208 1.67313 -1.28723 0
M  V30 1437 O 132.556 2.24179 -0.442247 0
M  V30 1438 C 132.766 0.355445 -3.47185 0
M  V30 1439 C 134.114 0.601007 -4.20325 0
M  V30 1440 O 135.138 0.437106 -3.53508 0
M  V30 1441 O 133.997 0.919322 -5.38712 0
M  V30 1442 H 131.091 0.174033 -0.808481 0
M  V30 1443 H 133.637 -0.406638 -1.64756 0
M  V30 1444 H 132.409 -0.611729 -3.86489 0
M  V30 1445 H 132.032 1.1027 -3.82003 0
M  V30 1446 N 133.029 1.57378 -0.0835403 0
M  V30 1447 C 134.445 1.57246 0.273109 0
M  V30 1448 C 134.645 1.09385 1.69225 0
M  V30 1449 O 133.701 0.765051 2.40631 0
M  V30 1450 C 135.014 3.00614 0.0720628 0
M  V30 1451 C 136.562 3.12684 0.1407 0
M  V30 1452 C 137.037 4.57989 -0.0322094 0
M  V30 1453 N 138.528 4.63194 0.0230085 0
M  V30 1454 C 139.263 5.73335 -0.0861941 0
M  V30 1455 N 138.759 6.9235 -0.24958 0
M  V30 1456 N 140.552 5.62093 -0.0282886 0
M  V30 1457 H 132.703 1.86801 -1.0109 0
M  V30 1458 H 134.966 0.861687 -0.395222 0
M  V30 1459 H 134.672 3.39786 -0.907662 0
M  V30 1460 H 134.546 3.68193 0.81936 0
M  V30 1461 H 136.933 2.73391 1.11092 0
M  V30 1462 H 137.014 2.47719 -0.637896 0
M  V30 1463 H 136.658 4.97973 -0.999247 0
M  V30 1464 H 136.588 5.21 0.765937 0
M  V30 1465 H 139.079 3.77613 0.14722 0
M  V30 1466 H 139.392 7.72117 -0.324733 0
M  V30 1467 H 137.737 6.94415 -0.285097 0
M  V30 1468 H 140.928 4.67997 0.0981408 0
M  V30 1469 H 141.101 6.47895 -0.116845 0
M  V30 1470 N 134.507 -0.190092 1.56449 0
M  V30 1471 C 135.754 -0.909705 1.80916 0
M  V30 1472 C 136.082 -1.83047 0.657583 0
M  V30 1473 O 135.337 -1.92428 -0.356356 0
M  V30 1474 C 135.636 -1.75382 3.1141 0
M  V30 1475 C 135.302 -0.983606 4.40041 0
M  V30 1476 C 133.964 -0.770967 4.74984 0
M  V30 1477 C 136.316 -0.442024 5.19322 0
M  V30 1478 C 133.644 -0.0053448 5.867 0
M  V30 1479 C 135.996 0.310412 6.31838 0
M  V30 1480 C 134.66 0.534023 6.6536 0
M  V30 1481 H 133.93 -0.332885 0.662019 0
M  V30 1482 H 136.577 -0.175762 1.90692 0
M  V30 1483 H 134.882 -2.55659 2.96893 0
M  V30 1484 H 136.579 -2.31331 3.27547 0
M  V30 1485 H 133.169 -1.15936 4.12622 0
M  V30 1486 H 137.353 -0.593693 4.92736 0
M  V30 1487 H 132.609 0.177825 6.11141 0
M  V30 1488 H 136.783 0.737419 6.92485 0
M  V30 1489 H 134.41 1.12918 7.51767 0
M  V30 1490 N 135.985 -1.50799 -0.457987 0
M  V30 1491 C 137.232 -1.62442 -1.20908 0
M  V30 1492 C 137.56 -0.330865 -1.91665 0
M  V30 1493 O 136.815 0.68401 -1.83357 0
M  V30 1494 C 137.114 -2.76358 -2.2663 0
M  V30 1495 C 136.78 -4.16378 -1.73033 0
M  V30 1496 C 135.442 -4.54473 -1.58138 0
M  V30 1497 C 137.794 -5.03836 -1.33413 0
M  V30 1498 C 135.122 -5.77754 -1.02065 0
M  V30 1499 C 137.474 -6.27676 -0.78778 0
M  V30 1500 C 136.138 -6.64562 -0.625561 0
M  V30 1501 H 135.408 -0.594417 -0.442435 0
M  V30 1502 H 138.055 -1.84772 -0.503136 0
M  V30 1503 H 136.36 -2.48167 -3.03184 0
M  V30 1504 H 138.057 -2.82568 -2.84528 0
M  V30 1505 H 134.647 -3.86331 -1.85598 0
M  V30 1506 H 138.831 -4.75026 -1.4375 0
M  V30 1507 H 134.087 -6.04997 -0.882547 0
M  V30 1508 H 138.261 -6.94797 -0.472177 0
M  V30 1509 H 135.888 -7.59965 -0.188926 0
M  V30 1510 N 137.463 0.71206 -1.40597 0
M  V30 1511 C 138.393 1.83889 -1.43899 0
M  V30 1512 C 139.374 1.67442 -0.299504 0
M  V30 1513 O 140.559 1.87421 -0.508624 0
M  V30 1514 C 137.689 3.21877 -1.30431 0
M  V30 1515 C 136.643 3.53002 -2.42019 0
M  V30 1516 C 135.969 4.90172 -2.13626 0
M  V30 1517 C 137.269 3.53643 -3.84362 0
M  V30 1518 H 138.963 1.81383 -2.38203 0
M  V30 1519 H 136.509 0.871237 -1.14654 0
M  V30 1520 H 138.462 4.00404 -1.31357 0
M  V30 1521 H 137.186 3.24968 -0.326049 0
M  V30 1522 H 135.845 2.76818 -2.40349 0
M  V30 1523 H 135.493 4.89869 -1.14182 0
M  V30 1524 H 135.193 5.11962 -2.88389 0
M  V30 1525 H 136.717 5.71028 -2.1624 0
M  V30 1526 H 138.131 4.22203 -3.87837 0
M  V30 1527 H 136.528 3.86961 -4.58673 0
M  V30 1528 H 137.598 2.52954 -4.13693 0
M  V30 1529 N 138.941 1.26152 0.944643 0
M  V30 1530 C 139.904 1.07474 2.0244 0
M  V30 1531 C 140.904 0.0242064 1.60782 0
M  V30 1532 O 142.094 0.267302 1.72137 0
M  V30 1533 C 139.226 0.633956 3.34953 0
M  V30 1534 H 140.419 2.03336 2.20442 0
M  V30 1535 H 137.972 1.087 1.12312 0
M  V30 1536 H 138.707 -0.326811 3.22649 0
M  V30 1537 H 138.492 1.39247 3.66542 0
M  V30 1538 H 139.982 0.52501 4.14287 0
M  V30 1539 N 140.419 -1.14872 1.07899 0
M  V30 1540 C 141.665 -1.86064 0.806725 0
M  V30 1541 C 141.998 -1.82434 -0.665706 0
M  V30 1542 O 141.273 -1.25138 -1.48899 0
M  V30 1543 C 141.556 -3.34929 1.32267 0
M  V30 1544 C 141.409 -3.47161 2.86006 0
M  V30 1545 C 142.728 -4.29863 0.943717 0
M  V30 1546 H 139.847 -0.675591 0.294526 0
M  V30 1547 H 142.489 -1.34925 1.33773 0
M  V30 1548 H 140.639 -3.78611 0.870974 0
M  V30 1549 H 142.311 -3.12302 3.39507 0
M  V30 1550 H 140.554 -2.88539 3.23925 0
M  V30 1551 H 141.225 -4.51777 3.17177 0
M  V30 1552 H 143.701 -3.9417 1.33302 0
M  V30 1553 H 142.577 -5.32494 1.33198 0
M  V30 1554 H 142.838 -4.41846 -0.149796 0
M  V30 1555 N 141.898 -0.863906 -1.31812 0
M  V30 1556 C 142.848 -0.286898 -2.26188 0
M  V30 1557 C 143.832 0.572577 -1.50367 0
M  V30 1558 O 145.024 0.420447 -1.71934 0
M  V30 1559 C 142.153 0.515849 -3.39402 0
M  V30 1560 C 141.239 -0.356531 -4.22599 0
M  V30 1561 N 141.63 -1.44716 -4.84656 0
M  V30 1562 C 139.928 -0.147898 -4.45755 0
M  V30 1563 C 140.629 -1.98462 -5.46798 0
M  V30 1564 N 139.605 -1.28247 -5.28255 0
M  V30 1565 H 143.407 -1.12055 -2.717 0
M  V30 1566 H 140.921 -0.711012 -1.46008 0
M  V30 1567 H 142.918 0.945701 -4.06032 0
M  V30 1568 H 141.578 1.34718 -2.95434 0
M  V30 1569 H 142.589 -1.83008 -4.84488 0
M  V30 1570 H 139.266 0.647973 -4.12441 0
M  V30 1571 H 140.656 -2.89932 -6.06126 0
M  V30 1572 N 143.376 1.44774 -0.622745 0
M  V30 1573 C 144.624 2.01721 -0.123655 0
M  V30 1574 C 144.945 1.49172 1.25589 0
M  V30 1575 O 144.215 0.691974 1.83272 0
M  V30 1576 H 142.795 0.745777 -0.0427225 0
M  V30 1577 H 145.457 1.77382 -0.807559 0
M  V30 1578 H 144.553 3.11984 -0.0849534 0
M  V30 1579 N 144.854 0.36279 1.53368 0
M  V30 1580 C 146.27 0.0116182 1.59596 0
M  V30 1581 C 146.47 -1.47012 1.37803 0
M  V30 1582 O 145.526 -2.23136 1.18181 0
M  V30 1583 C 146.839 0.465052 2.97082 0
M  V30 1584 C 148.387 0.419033 3.10182 0
M  V30 1585 C 148.862 0.848235 4.50077 0
M  V30 1586 N 150.353 0.803183 4.56183 0
M  V30 1587 C 151.088 1.107 5.62613 0
M  V30 1588 N 150.584 1.47996 6.76808 0
M  V30 1589 N 152.377 1.02998 5.52583 0
M  V30 1590 H 144.528 1.32775 1.65785 0
M  V30 1591 H 146.791 0.542518 0.777417 0
M  V30 1592 H 146.497 1.49892 3.18159 0
M  V30 1593 H 146.371 -0.149786 3.76902 0
M  V30 1594 H 148.758 -0.605696 2.88817 0
M  V30 1595 H 148.839 1.06933 2.32377 0
M  V30 1596 H 148.483 1.87107 4.7218 0
M  V30 1597 H 148.413 0.175218 5.26308 0
M  V30 1598 H 150.904 0.52838 3.74188 0
M  V30 1599 H 151.217 1.69613 7.53957 0
M  V30 1600 H 149.562 1.51859 6.78206 0
M  V30 1601 H 152.753 0.737817 4.62249 0
M  V30 1602 H 152.926 1.2701 6.35431 0
M  V30 1603 N 146.332 -1.57332 0.0918853 0
M  V30 1604 C 147.562 -1.98286 -0.580205 0
M  V30 1605 C 147.97 -0.969713 -1.6246 0
M  V30 1606 O 147.313 0.0493501 -1.83634 0
M  V30 1607 C 147.375 -3.35603 -1.28882 0
M  V30 1608 C 147.039 -4.55285 -0.395559 0
M  V30 1609 C 148.036 -5.18687 0.355002 0
M  V30 1610 C 145.721 -5.01314 -0.314556 0
M  V30 1611 C 147.715 -6.26484 1.17458 0
M  V30 1612 C 145.402 -6.08979 0.508677 0
M  V30 1613 C 146.4 -6.71429 1.2519 0
M  V30 1614 O 146.088 -7.77018 2.06151 0
M  V30 1615 H 145.82 -0.656678 -0.160466 0
M  V30 1616 H 148.374 -2.04721 0.16688 0
M  V30 1617 H 146.604 -3.25842 -2.08241 0
M  V30 1618 H 148.293 -3.61026 -1.85512 0
M  V30 1619 H 149.059 -4.84058 0.302134 0
M  V30 1620 H 144.938 -4.5247 -0.882697 0
M  V30 1621 H 148.482 -6.75159 1.75518 0
M  V30 1622 H 144.379 -6.4304 0.563037 0
M  V30 1623 H 145.147 -7.93991 1.98799 0
M  V30 1624 N 147.81 0.181792 -1.56548 0
M  V30 1625 C 149.057 0.900097 -1.81396 0
M  V30 1626 C 149.385 1.82695 -0.667281 0
M  V30 1627 O 148.64 1.92614 0.346146 0
M  V30 1628 C 148.939 1.73728 -3.12335 0
M  V30 1629 C 148.605 0.960255 -4.40556 0
M  V30 1630 C 147.267 0.745766 -4.75386 0
M  V30 1631 C 149.619 0.414477 -5.19549 0
M  V30 1632 C 146.947 -0.0257694 -5.86694 0
M  V30 1633 C 149.299 -0.343916 -6.31664 0
M  V30 1634 C 147.963 -0.569301 -6.65068 0
M  V30 1635 H 147.233 0.329369 -0.663775 0
M  V30 1636 H 149.88 0.165647 -1.90782 0
M  V30 1637 H 148.185 2.54081 -2.98245 0
M  V30 1638 H 149.882 2.29591 -3.28769 0
M  V30 1639 H 146.472 1.13746 -4.13231 0
M  V30 1640 H 150.656 0.567554 -4.93044 0
M  V30 1641 H 145.912 -0.210233 -6.11038 0
M  V30 1642 H 150.086 -0.774133 -6.92084 0
M  V30 1643 H 147.713 -1.16903 -7.51158 0
M  V30 1644 N 149.288 1.51039 0.449983 0
M  V30 1645 C 150.704 1.38934 0.785462 0
M  V30 1646 C 150.904 0.461817 1.96136 0
M  V30 1647 O 149.96 -0.0877389 2.52348 0
M  V30 1648 C 151.273 2.80724 1.0777 0
M  V30 1649 C 152.821 2.89787 1.1829 0
M  V30 1650 C 153.296 4.32457 1.50815 0
M  V30 1651 N 154.787 4.35505 1.57764 0
M  V30 1652 C 155.522 5.42914 1.84477 0
M  V30 1653 N 155.018 6.60502 2.09068 0
M  V30 1654 N 156.811 5.3038 1.86155 0
M  V30 1655 H 148.962 2.09904 -0.324647 0
M  V30 1656 H 151.225 0.944378 -0.0827957 0
M  V30 1657 H 150.931 3.50531 0.286498 0
M  V30 1658 H 150.805 3.19273 2.00859 0
M  V30 1659 H 153.192 2.20186 1.96474 0
M  V30 1660 H 153.273 2.54752 0.231314 0
M  V30 1661 H 152.917 5.02603 0.731622 0
M  V30 1662 H 152.847 4.64995 2.47158 0
M  V30 1663 H 155.338 3.50724 1.40715 0
M  V30 1664 H 155.651 7.38158 2.28785 0
M  V30 1665 H 153.996 6.63639 2.06416 0
M  V30 1666 H 157.187 4.37505 1.66454 0
M  V30 1667 H 157.36 6.1417 2.06637 0
M  V30 1668 N 150.766 -0.704594 1.40972 0
M  V30 1669 C 151.991 -1.49858 1.43378 0
M  V30 1670 C 152.416 -1.88061 0.038184 0
M  V30 1671 O 151.774 -1.5402 -0.956425 0
M  V30 1672 C 151.822 -2.74333 2.34038 0
M  V30 1673 O 150.926 -3.7147 1.7912 0
M  V30 1674 H 150.267 -0.45139 0.486974 0
M  V30 1675 H 152.797 -0.866832 1.8533 0
M  V30 1676 H 152.807 -3.22741 2.49604 0
M  V30 1677 H 151.482 -2.45863 3.35446 0
M  V30 1678 H 150.059 -3.30363 1.72958 0
M  V30 1679 N 152.244 -1.26651 -0.937939 0
M  V30 1680 C 153.484 -1.13611 -1.69917 0
M  V30 1681 C 153.848 0.314687 -1.89404 0
M  V30 1682 O 155.049 0.567285 -2.62746 0
M  V30 1683 C 153.32 -1.88742 -3.03498 0
M  V30 1684 S 154.879 -1.91794 -3.94665 0
M  V30 1685 H 151.697 -0.405767 -0.583844 0
M  V30 1686 H 154.299 -1.60416 -1.11745 0
M  V30 1687 H 153.003 -2.9336 -2.86999 0
M  V30 1688 H 152.534 -1.42391 -3.66727 0
M  V30 1689 H 154.549 -1.00698 -4.85875 0
M  V30 1690 N 153.722 1.14298 -1.08507 0
M  V30 1691 C 155.133 1.66926 -0.836227 0
M  V30 1692 C 155.484 1.85576 0.63686 0
M  V30 1693 O 154.609 1.56767 1.49175 0
M  V30 1694 C 155.204 3.03219 -1.51142 0
M  V30 1695 C 153.763 3.52876 -1.30979 0
M  V30 1696 C 152.91 2.2833 -1.57356 0
M  V30 1697 H 155.861 0.983491 -1.24552 0
M  V30 1698 H 155.882 3.68726 -0.939211 0
M  V30 1699 H 155.394 2.89612 -2.58353 0
M  V30 1700 H 153.495 3.71703 -0.258429 0
M  V30 1701 H 153.608 4.33586 -2.03814 0
M  V30 1702 H 151.972 2.34454 -0.995164 0
M  V30 1703 H 152.755 2.17298 -2.65775 0
M  V30 1704 N 155.201 0.870884 1.31352 0
M  V30 1705 C 156.45 0.478408 1.95944 0
M  V30 1706 C 156.763 -0.974493 1.69597 0
M  V30 1707 O 157.969 -1.47316 2.28058 0
M  V30 1708 C 156.425 0.804609 3.50791 0
M  V30 1709 C 156.033 2.27433 3.85977 0
M  V30 1710 C 157.777 0.480648 4.2177 0
M  V30 1711 C 155.684 2.5429 5.33939 0
M  V30 1712 H 154.614 0.175175 0.733369 0
M  V30 1713 H 157.265 1.06391 1.4951 0
M  V30 1714 H 155.647 0.148347 3.95722 0
M  V30 1715 H 156.821 2.97373 3.52002 0
M  V30 1716 H 155.136 2.56442 3.28065 0
M  V30 1717 H 157.733 0.658519 5.30629 0
M  V30 1718 H 158.076 -0.578979 4.12254 0
M  V30 1719 H 158.609 1.09349 3.82476 0
M  V30 1720 H 155.348 3.58939 5.48491 0
M  V30 1721 H 154.868 1.88945 5.69263 0
M  V30 1722 H 156.547 2.39066 6.01212 0
M  V30 1723 N 156.679 -1.44442 0.630414 0
M  V30 1724 C 157.904 -2.06927 0.139944 0
M  V30 1725 C 158.329 -1.46795 -1.17613 0
M  V30 1726 O 157.687 -0.569144 -1.72135 0
M  V30 1727 C 157.735 -3.6058 0.0379581 0
M  V30 1728 O 156.839 -3.99937 -1.0062 0
M  V30 1729 H 156.18 -0.658608 0.0844483 0
M  V30 1730 H 158.71 -1.85327 0.866891 0
M  V30 1731 H 158.72 -4.07714 -0.152856 0
M  V30 1732 H 157.395 -4.03728 0.998809 0
M  V30 1733 H 155.972 -3.64436 -0.79001 0
M  V30 1734 N 158.157 -0.370918 -1.53173 0
M  V30 1735 C 159.405 0.216673 -2.00935 0
M  V30 1736 C 159.726 1.48845 -1.25977 0
M  V30 1737 O 158.996 1.92286 -0.374551 0
M  V30 1738 H 157.576 0.0830565 -0.742368 0
M  V30 1739 H 160.238 -0.49838 -1.8842 0
M  V30 1740 H 159.334 0.439893 -3.08984 0
M  V30 1741 N 159.635 1.57281 -0.100228 0
M  V30 1742 C 161.051 1.57527 0.256416 0
M  V30 1743 C 161.251 1.11173 1.68056 0
M  V30 1744 O 160.307 0.79053 2.39806 0
M  V30 1745 C 161.62 3.00673 0.0401747 0
M  V30 1746 C 163.168 3.12815 0.107528 0
M  V30 1747 C 163.643 4.57929 -0.0807834 0
M  V30 1748 N 165.134 4.63193 -0.0261207 0
M  V30 1749 C 165.869 5.73212 -0.146999 0
M  V30 1750 N 165.365 6.92047 -0.322999 0
M  V30 1751 N 167.158 5.62031 -0.0879044 0
M  V30 1752 H 159.309 1.85718 -1.03065 0
M  V30 1753 H 161.572 0.857446 -0.404339 0
M  V30 1754 H 161.278 3.38804 -0.943649 0
M  V30 1755 H 161.152 3.69042 0.780262 0
M  V30 1756 H 163.539 2.74554 1.08186 0
M  V30 1757 H 163.62 2.47028 -0.664134 0
M  V30 1758 H 163.264 4.96886 -1.05201 0
M  V30 1759 H 163.194 5.21783 0.710635 0
M  V30 1760 H 165.685 3.77748 0.107161 0
M  V30 1761 H 165.998 7.7173 -0.406608 0
M  V30 1762 H 164.343 6.94074 -0.358733 0
M  V30 1763 H 167.534 4.68075 0.048498 0
M  V30 1764 H 167.707 6.47734 -0.185557 0
M  V30 1765 N 161.113 -0.173488 1.56642 0
M  V30 1766 C 162.076 -1.19859 1.95362 0
M  V30 1767 C 163.076 -1.37296 0.83704 0
M  V30 1768 O 164.266 -1.34739 1.10413 0
M  V30 1769 C 161.398 -2.56405 2.24654 0
M  V30 1770 H 162.591 -0.867062 2.87092 0
M  V30 1771 H 160.144 -0.415853 1.50666 0
M  V30 1772 H 160.879 -2.94576 1.35631 0
M  V30 1773 H 160.664 -2.45115 3.06041 0
M  V30 1774 H 162.154 -3.30287 2.5554 0
M  V30 1775 N 162.591 -1.51276 -0.441967 0
M  V30 1776 C 163.837 -1.63958 -1.19355 0
M  V30 1777 C 164.17 -0.352543 -1.90973 0
M  V30 1778 O 163.445 0.647627 -1.83401 0
M  V30 1779 C 163.728 -2.83979 -2.21422 0
M  V30 1780 C 163.581 -4.22646 -1.53918 0
M  V30 1781 C 164.9 -2.99521 -3.22451 0
M  V30 1782 H 162.019 -0.596709 -0.432559 0
M  V30 1783 H 164.661 -1.83748 -0.483398 0
M  V30 1784 H 162.811 -2.67237 -2.81987 0
M  V30 1785 H 164.483 -4.51045 -0.967256 0
M  V30 1786 H 162.726 -4.25558 -0.841615 0
M  V30 1787 H 163.397 -5.02609 -2.28229 0
M  V30 1788 H 165.873 -3.14944 -2.71937 0
M  V30 1789 H 164.749 -3.85072 -3.91166 0
M  V30 1790 H 165.01 -2.11391 -3.88287 0
M  V30 1791 N 164.069 0.697108 -1.41344 0
M  V30 1792 C 165.485 1.00751 -1.2378 0
M  V30 1793 C 165.685 2.01105 -0.126066 0
M  V30 1794 O 164.741 2.47295 0.51004 0
M  V30 1795 C 166.054 1.53359 -2.58653 0
M  V30 1796 C 167.602 1.6525 -2.65822 0
M  V30 1797 C 168.077 2.2126 -4.01009 0
M  V30 1798 N 169.568 2.28622 -4.02847 0
M  V30 1799 C 170.303 2.72984 -5.04249 0
M  V30 1800 N 169.799 3.16962 -6.16041 0
M  V30 1801 N 171.592 2.72534 -4.91611 0
M  V30 1802 H 163.743 0.0322662 -2.12375 0
M  V30 1803 H 166.006 0.0768853 -0.944877 0
M  V30 1804 H 165.712 0.870773 -3.4075 0
M  V30 1805 H 165.586 2.51597 -2.81032 0
M  V30 1806 H 167.973 2.30644 -1.84086 0
M  V30 1807 H 168.054 0.655614 -2.47256 0
M  V30 1808 H 167.698 1.56482 -4.83193 0
M  V30 1809 H 167.628 3.21698 -4.16915 0
M  V30 1810 H 170.119 1.97585 -3.22131 0
M  V30 1811 H 170.432 3.49434 -6.89287 0
M  V30 1812 H 168.777 3.14875 -6.1958 0
M  V30 1813 H 171.968 2.37525 -4.0336 0
M  V30 1814 H 172.141 3.06789 -5.70775 0
M  V30 1815 N 165.547 1.27147 0.931209 0
M  V30 1816 C 166.824 1.0401 1.65654 0
M  V30 1817 C 167.204 -0.426297 2.06751 0
M  V30 1818 O 166.552 -1.40879 1.79904 0
M  V30 1819 C 166.762 1.99834 2.86125 0
M  V30 1820 C 168.11 2.29007 3.57549 0
M  V30 1821 O 169.134 1.97779 2.96246 0
M  V30 1822 O 167.993 2.82222 4.67989 0
M  V30 1823 H 165.087 0.396239 0.725895 0
M  V30 1824 H 167.633 1.38397 0.982056 0
M  V30 1825 H 166.405 2.98744 2.52721 0
M  V30 1826 H 166.028 1.65987 3.61295 0
M  V30 1827 N 167.025 -1.13721 1.09112 0
M  V30 1828 C 168.436 -1.6648 0.845068 0
M  V30 1829 C 168.787 -1.85911 -0.62701 0
M  V30 1830 O 167.912 -1.57556 -1.48341 0
M  V30 1831 C 168.507 -3.02413 1.52748 0
M  V30 1832 C 167.066 -3.52176 1.32849 0
M  V30 1833 C 166.213 -2.27492 1.58564 0
M  V30 1834 H 169.164 -0.976872 1.25072 0
M  V30 1835 H 169.185 -3.68223 0.958752 0
M  V30 1836 H 168.697 -2.88238 2.59885 0
M  V30 1837 H 166.798 -3.7156 0.278137 0
M  V30 1838 H 166.911 -4.32499 2.0611 0
M  V30 1839 H 165.275 -2.33923 1.00758 0
M  V30 1840 H 166.058 -2.15886 2.66924 0
M  V30 1841 N 168.503 -0.877838 -1.30888 0
M  V30 1842 C 169.914 -0.544193 -1.78593 0
M  V30 1843 C 170.265 0.939301 -1.72254 0
M  V30 1844 O 169.39 1.7337 -1.29505 0
M  V30 1845 C 169.985 -0.98105 -3.24285 0
M  V30 1846 C 168.544 -0.698935 -3.69854 0
M  V30 1847 C 167.691 -1.168 -2.51502 0
M  V30 1848 H 170.642 -1.06278 -1.17859 0
M  V30 1849 H 170.663 -0.307009 -3.79259 0
M  V30 1850 H 170.175 -2.06079 -3.28866 0
M  V30 1851 H 168.276 0.369112 -3.70767 0
M  V30 1852 H 168.389 -1.28148 -4.61644 0
M  V30 1853 H 166.753 -0.587535 -2.47831 0
M  V30 1854 H 167.536 -2.25533 -2.58824 0
M  V30 1855 N 169.982 1.44106 -0.638065 0
M  V30 1856 C 171.23 2.01579 -0.145043 0
M  V30 1857 C 171.551 1.50496 1.24 0
M  V30 1858 O 170.821 0.711374 1.82527 0
M  V30 1859 H 169.401 0.745282 -0.05063 0
M  V30 1860 H 172.063 1.76516 -0.826327 0
M  V30 1861 H 171.159 3.11877 -0.118039 0
M  V30 1862 N 171.46 0.379036 1.52974 0
M  V30 1863 C 172.685 -0.209353 2.06341 0
M  V30 1864 C 173.11 -1.40583 1.24972 0
M  V30 1865 O 172.468 -1.79246 0.272155 0
M  V30 1866 C 172.516 -0.567786 3.56102 0
M  V30 1867 O 171.62 -1.66318 3.77375 0
M  V30 1868 H 170.961 -0.0272919 0.663439 0
M  V30 1869 H 173.491 0.543536 1.97248 0
M  V30 1870 H 173.501 -0.835003 3.99364 0
M  V30 1871 H 172.176 0.307013 4.14765 0
M  V30 1872 H 170.753 -1.39048 3.46006 0
M  V30 1873 N 172.938 -1.57226 0.108567 0
M  V30 1874 C 174.187 -1.94008 -0.551703 0
M  V30 1875 C 174.5 -0.993442 -1.68494 0
M  V30 1876 O 175.706 -1.25551 -2.40726 0
M  V30 1877 C 174.162 -3.44763 -1.03279 0
M  V30 1878 C 173.77 -4.47943 0.0714193 0
M  V30 1879 C 175.514 -3.90483 -1.66503 0
M  V30 1880 C 173.421 -5.89865 -0.425779 0
M  V30 1881 H 172.351 -0.724206 -0.209863 0
M  V30 1882 H 175.002 -1.82547 0.186741 0
M  V30 1883 H 173.384 -3.51422 -1.82533 0
M  V30 1884 H 174.558 -4.52942 0.847365 0
M  V30 1885 H 172.873 -4.11913 0.609669 0
M  V30 1886 H 175.47 -4.93925 -2.04798 0
M  V30 1887 H 175.813 -3.29877 -2.53942 0
M  V30 1888 H 176.346 -3.86581 -0.938074 0
M  V30 1889 H 173.085 -6.54202 0.412316 0
M  V30 1890 H 172.605 -5.88309 -1.16843 0
M  V30 1891 H 174.284 -6.40844 -0.890397 0
M  V30 1892 N 174.416 0.165178 -1.56732 0
M  V30 1893 C 175.346 1.20651 -1.99914 0
M  V30 1894 C 176.327 1.45827 -0.875705 0
M  V30 1895 O 177.512 1.57057 -1.14223 0
M  V30 1896 C 174.642 2.54401 -2.36427 0
M  V30 1897 C 173.596 2.43782 -3.51787 0
M  V30 1898 C 172.922 3.82078 -3.7406 0
M  V30 1899 C 174.222 1.93732 -4.85041 0
M  V30 1900 H 175.916 0.847534 -2.87154 0
M  V30 1901 H 173.462 0.40625 -1.38151 0
M  V30 1902 H 175.415 3.27458 -2.65234 0
M  V30 1903 H 174.139 2.92098 -1.46103 0
M  V30 1904 H 172.798 1.73178 -3.23117 0
M  V30 1905 H 172.446 4.17179 -2.81017 0
M  V30 1906 H 172.146 3.7584 -4.51684 0
M  V30 1907 H 173.67 4.56712 -4.05274 0
M  V30 1908 H 175.084 2.56569 -5.12684 0
M  V30 1909 H 173.481 1.98428 -5.66345 0
M  V30 1910 H 174.551 0.891962 -4.76626 0
M  V30 1911 N 175.894 1.51508 0.433938 0
M  V30 1912 C 177.124 1.67914 1.20369 0
M  V30 1913 C 177.532 0.377461 1.85397 0
M  V30 1914 O 176.875 -0.654255 1.71654 0
M  V30 1915 C 176.937 2.74045 2.32679 0
M  V30 1916 C 176.601 4.16543 1.87991 0
M  V30 1917 C 177.598 5.01211 1.38145 0
M  V30 1918 C 175.283 4.6266 1.95579 0
M  V30 1919 C 177.277 6.30056 0.964774 0
M  V30 1920 C 174.964 5.91501 1.53523 0
M  V30 1921 C 175.962 6.75027 1.04055 0
M  V30 1922 O 175.65 8.01459 0.625964 0
M  V30 1923 H 175.382 0.566578 0.368735 0
M  V30 1924 H 177.936 1.98709 0.51999 0
M  V30 1925 H 176.166 2.38572 3.04336 0
M  V30 1926 H 177.855 2.79295 2.94532 0
M  V30 1927 H 178.621 4.66783 1.31675 0
M  V30 1928 H 174.5 3.97767 2.33029 0
M  V30 1929 H 178.044 6.95202 0.57796 0
M  V30 1930 H 173.941 6.25442 1.59665 0
M  V30 1931 H 174.709 8.15043 0.751509 0
M  V30 1932 N 177.372 -0.689602 1.41712 0
M  V30 1933 C 178.783 -1.26973 1.36875 0
M  V30 1934 C 179.134 -1.96124 0.054748 0
M  V30 1935 O 178.259 -1.99141 -0.84687 0
M  V30 1936 C 178.854 -2.30912 2.47922 0
M  V30 1937 C 177.413 -2.84486 2.46464 0
M  V30 1938 C 176.56 -1.58603 2.27465 0
M  V30 1939 H 179.511 -0.48396 1.51141 0
M  V30 1940 H 179.532 -3.12331 2.17323 0
M  V30 1941 H 179.044 -1.80554 3.43543 0
M  V30 1942 H 177.145 -3.39005 1.54617 0
M  V30 1943 H 177.258 -3.34511 3.42986 0
M  V30 1944 H 175.622 -1.84632 1.75451 0
M  V30 1945 H 176.405 -1.10233 3.25121 0
M  V30 1946 N 178.85 -1.27639 -0.924453 0
M  V30 1947 C 180.097 -1.14167 -1.67249 0
M  V30 1948 C 180.425 0.311863 -1.91984 0
M  V30 1949 O 179.68 1.24425 -1.51053 0
M  V30 1950 C 179.979 -1.87407 -3.04325 0
M  V30 1951 C 179.645 -3.37249 -2.99289 0
M  V30 1952 C 178.307 -3.7812 -2.97622 0
M  V30 1953 C 180.659 -4.32845 -2.90336 0
M  V30 1954 C 177.987 -5.12944 -2.8479 0
M  V30 1955 C 180.339 -5.6773 -2.79045 0
M  V30 1956 C 179.003 -6.07889 -2.7573 0
M  V30 1957 H 178.273 -0.417766 -0.612007 0
M  V30 1958 H 180.92 -1.58286 -1.07786 0
M  V30 1959 H 179.225 -1.35805 -3.67511 0
M  V30 1960 H 180.922 -1.74408 -3.61086 0
M  V30 1961 H 177.512 -3.04748 -3.01374 0
M  V30 1962 H 181.696 -4.02239 -2.90719 0
M  V30 1963 H 176.952 -5.432 -2.80612 0
M  V30 1964 H 181.126 -6.41472 -2.71083 0
M  V30 1965 H 178.753 -7.12314 -2.65544 0
M  V30 1966 N 180.328 1.1314 -1.09713 0
M  V30 1967 C 181.577 1.83838 -0.829851 0
M  V30 1968 C 181.89 1.84599 0.646728 0
M  V30 1969 O 183.096 2.51218 1.02965 0
M  V30 1970 C 181.552 3.30069 -1.43466 0
M  V30 1971 C 181.16 3.37688 -2.94399 0
M  V30 1972 C 182.904 4.05788 -1.24645 0
M  V30 1973 C 180.811 4.78209 -3.47952 0
M  V30 1974 H 179.741 0.68877 -0.306777 0
M  V30 1975 H 182.392 1.27448 -1.3202 0
M  V30 1976 H 180.774 3.8628 -0.871996 0
M  V30 1977 H 181.948 2.91456 -3.56918 0
M  V30 1978 H 180.263 2.75436 -3.12289 0
M  V30 1979 H 182.86 5.09535 -1.62107 0
M  V30 1980 H 183.203 4.15878 -0.187357 0
M  V30 1981 H 183.736 3.55915 -1.77678 0
M  V30 1982 H 180.475 4.73311 -4.53495 0
M  V30 1983 H 179.995 5.24924 -2.90198 0
M  V30 1984 H 181.674 5.47133 -3.45332 0
M  V30 1985 N 181.806 0.884767 1.30421 0
M  V30 1986 C 183.052 0.503851 1.96441 0
M  V30 1987 C 183.385 -0.944518 1.69684 0
M  V30 1988 O 182.66 -1.66737 1.00145 0
M  V30 1989 C 182.943 0.779085 3.51571 0
M  V30 1990 C 182.796 2.27807 3.87846 0
M  V30 1991 C 184.115 0.255452 4.39358 0
M  V30 1992 H 181.234 0.184533 0.713524 0
M  V30 1993 H 183.876 1.10872 1.54297 0
M  V30 1994 H 182.026 0.264274 3.876 0
M  V30 1995 H 183.698 2.86127 3.61841 0
M  V30 1996 H 181.941 2.74479 3.35922 0
M  V30 1997 H 182.612 2.42125 4.96064 0
M  V30 1998 H 185.088 0.696079 4.10236 0
M  V30 1999 H 183.964 0.477361 5.4682 0
M  V30 2000 H 184.225 -0.843293 4.33983 0
M  V30 2001 N 183.284 -1.43765 0.645699 0
M  V30 2002 C 184.53 -2.02197 0.156271 0
M  V30 2003 C 184.863 -1.50776 -1.22393 0
M  V30 2004 O 184.138 -0.697771 -1.81553 0
M  V30 2005 C 184.421 -3.59749 0.158872 0
M  V30 2006 C 184.274 -4.21419 1.57245 0
M  V30 2007 C 185.593 -4.37149 -0.50879 0
M  V30 2008 H 182.712 -0.734694 0.0582602 0
M  V30 2009 H 185.354 -1.71157 0.824951 0
M  V30 2010 H 183.504 -3.86325 -0.410525 0
M  V30 2011 H 185.176 -4.059 2.19186 0
M  V30 2012 H 183.419 -3.78356 2.122 0
M  V30 2013 H 184.09 -5.30482 1.52619 0
M  V30 2014 H 186.566 -4.16093 -0.024412 0
M  V30 2015 H 185.442 -5.4683 -0.476213 0
M  V30 2016 H 185.703 -4.12839 -1.58165 0
M  V30 2017 N 184.763 -0.387143 -1.52771 0
M  V30 2018 C 186.174 0.0873634 -1.86495 0
M  V30 2019 C 186.525 1.46336 -1.30691 0
M  V30 2020 O 185.65 2.068 -0.637409 0
M  V30 2021 C 186.245 0.165305 -3.38396 0
M  V30 2022 C 184.804 0.584101 -3.7184 0
M  V30 2023 C 183.951 -0.255279 -2.76122 0
M  V30 2024 H 186.902 -0.605104 -1.46711 0
M  V30 2025 H 186.923 0.984848 -3.67534 0
M  V30 2026 H 186.435 -0.836301 -3.78982 0
M  V30 2027 H 184.536 1.59315 -3.36823 0
M  V30 2028 H 184.649 0.343749 -4.77865 0
M  V30 2029 H 183.013 0.279126 -2.53166 0
M  V30 2030 H 183.796 -1.25482 -3.19545 0
M  V30 2031 N 186.241 1.57166 -0.116904 0
M  V30 2032 C 187.49 1.94298 0.541407 0
M  V30 2033 C 187.803 1.00236 1.67964 0
M  V30 2034 O 189.009 1.26826 2.40057 0
M  V30 2035 C 187.465 3.45306 1.01449 0
M  V30 2036 C 187.073 4.47899 -0.0951738 0
M  V30 2037 C 188.817 3.91361 1.6443 0
M  V30 2038 C 186.724 5.90083 0.394491 0
M  V30 2039 H 185.654 0.725308 0.206019 0
M  V30 2040 H 188.305 1.82446 -0.196419 0
M  V30 2041 H 186.687 3.52385 1.80667 0
M  V30 2042 H 187.861 4.52486 -0.871374 0
M  V30 2043 H 186.176 4.11583 -0.631505 0
M  V30 2044 H 188.773 4.95004 2.02176 0
M  V30 2045 H 189.116 3.3122 2.52189 0
M  V30 2046 H 189.649 3.87073 0.917559 0
M  V30 2047 H 186.388 6.53974 -0.447004 0
M  V30 2048 H 185.908 5.88921 1.13722 0
M  V30 2049 H 187.587 6.41307 0.856399 0
M  V30 2050 N 187.719 -0.156864 1.56817 0
M  V30 2051 C 188.947 -0.886316 1.86955 0
M  V30 2052 C 189.362 -1.75185 0.703975 0
M  V30 2053 O 188.719 -1.79555 -0.326552 0
M  V30 2054 C 188.77 -1.75117 3.16253 0
M  V30 2055 O 188.491 -0.920537 4.2832 0
M  V30 2056 C 189.992 -2.58905 3.59837 0
M  V30 2057 H 187.212 -0.25678 0.619923 0
M  V30 2058 H 189.756 -0.152615 2.0393 0
M  V30 2059 H 187.911 -2.43805 3.01062 0
M  V30 2060 H 188.325 -1.51337 5.02192 0
M  V30 2061 H 189.799 -3.1518 4.53172 0
M  V30 2062 H 190.276 -3.34472 2.84649 0
M  V30 2063 H 190.882 -1.95526 3.7769 0
M  V30 2064 N 189.197 -1.51736 -0.425897 0
M  V30 2065 C 190.443 -1.65214 -1.1761 0
M  V30 2066 C 190.776 -0.372778 -1.90589 0
M  V30 2067 O 190.051 0.628139 -1.84078 0
M  V30 2068 C 190.334 -2.86312 -2.18398 0
M  V30 2069 C 190.187 -4.24254 -1.49426 0
M  V30 2070 C 191.506 -3.02925 -3.19256 0
M  V30 2071 H 188.625 -0.601263 -0.426206 0
M  V30 2072 H 191.267 -1.8425 -0.463882 0
M  V30 2073 H 189.417 -2.70213 -2.79137 0
M  V30 2074 H 191.089 -4.52046 -0.919362 0
M  V30 2075 H 189.332 -4.26426 -0.796432 0
M  V30 2076 H 190.003 -5.05001 -2.22885 0
M  V30 2077 H 192.479 -3.1781 -2.68581 0
M  V30 2078 H 191.355 -3.89199 -3.8706 0
M  V30 2079 H 191.616 -2.15497 -3.86023 0
M  V30 2080 N 190.675 0.682077 -1.42076 0
M  V30 2081 C 191.903 1.47057 -1.4554 0
M  V30 2082 C 192.318 1.8869 -0.0645779 0
M  V30 2083 O 191.675 1.57666 0.919115 0
M  V30 2084 C 191.726 2.72442 -2.37609 0
M  V30 2085 O 191.447 2.32559 -3.71279 0
M  V30 2086 C 192.948 3.66069 -2.50017 0
M  V30 2087 H 190.168 0.452737 -0.495248 0
M  V30 2088 H 192.712 0.838695 -1.8651 0
M  V30 2089 H 190.867 3.31835 -1.9991 0
M  V30 2090 H 191.281 3.13475 -4.20516 0
M  V30 2091 H 192.755 4.50792 -3.18576 0
M  V30 2092 H 193.232 4.11476 -1.53572 0
M  V30 2093 H 193.838 3.12572 -2.88407 0
M  V30 2094 N 192.153 1.28127 0.917671 0
M  V30 2095 C 193.083 1.14248 2.03641 0
M  V30 2096 C 194.064 0.0412748 1.7005 0
M  V30 2097 O 195.249 0.217566 1.92977 0
M  V30 2098 C 192.379 0.799431 3.37974 0
M  V30 2099 C 191.333 1.85497 3.85713 0
M  V30 2100 C 190.659 1.36565 5.16966 0
M  V30 2101 C 191.959 3.26085 4.08002 0
M  V30 2102 H 193.653 2.07835 2.15511 0
M  V30 2103 H 191.199 1.00064 1.03553 0
M  V30 2104 H 193.152 0.689114 4.15727 0
M  V30 2105 H 191.876 -0.172145 3.26146 0
M  V30 2106 H 190.535 1.95437 3.10161 0
M  V30 2107 H 190.183 0.383253 5.01538 0
M  V30 2108 H 189.883 2.07143 5.49878 0
M  V30 2109 H 191.407 1.26848 5.97279 0
M  V30 2110 H 192.821 3.19089 4.76293 0
M  V30 2111 H 191.218 3.94462 4.52238 0
M  V30 2112 H 192.288 3.70394 3.12948 0
M  V30 2113 N 193.631 -1.12557 1.10312 0
M  V30 2114 C 194.561 -2.20341 0.772798 0
M  V30 2115 C 195.542 -1.68198 -0.25365 0
M  V30 2116 O 196.727 -1.93831 -0.119699 0
M  V30 2117 C 193.857 -3.46709 0.202443 0
M  V30 2118 C 192.811 -4.11996 1.15943 0
M  V30 2119 C 192.137 -5.328 0.450345 0
M  V30 2120 C 193.437 -4.5828 2.50552 0
M  V30 2121 H 195.131 -2.48229 1.674 0
M  V30 2122 H 192.677 -1.19308 0.806326 0
M  V30 2123 H 194.63 -4.2138 -0.0407752 0
M  V30 2124 H 193.354 -3.18245 -0.734001 0
M  V30 2125 H 192.013 -3.39305 1.38808 0
M  V30 2126 H 191.661 -5.00602 -0.490531 0
M  V30 2127 H 191.361 -5.7743 1.08851 0
M  V30 2128 H 192.885 -6.10219 0.215642 0
M  V30 2129 H 194.299 -5.2433 2.31843 0
M  V30 2130 H 192.696 -5.13683 3.10242 0
M  V30 2131 H 193.766 -3.72329 3.10643 0
M  V30 2132 N 195.109 -0.891671 -1.2995 0
M  V30 2133 C 196.355 -0.514261 -1.96171 0
M  V30 2134 C 196.688 0.935506 -1.70182 0
M  V30 2135 O 195.963 1.66204 -1.01028 0
M  V30 2136 C 196.246 -0.797719 -3.51153 0
M  V30 2137 C 196.099 -2.2986 -3.86632 0
M  V30 2138 C 197.418 -0.278749 -4.39216 0
M  V30 2139 H 194.537 -0.188314 -0.712535 0
M  V30 2140 H 197.179 -1.11689 -1.53706 0
M  V30 2141 H 195.329 -0.284826 -3.87455 0
M  V30 2142 H 197.001 -2.88042 -3.60319 0
M  V30 2143 H 195.244 -2.76257 -3.34462 0
M  V30 2144 H 195.915 -2.44753 -4.94773 0
M  V30 2145 H 198.391 -0.717825 -4.09862 0
M  V30 2146 H 197.267 -0.506353 -5.46559 0
M  V30 2147 H 197.528 0.820266 -4.34424 0
M  V30 2148 N 196.587 1.43421 -0.653314 0
M  V30 2149 C 197.815 2.06163 -0.174491 0
M  V30 2150 C 198.23 1.48969 1.1599 0
M  V30 2151 O 197.587 0.621042 1.71608 0
M  V30 2152 C 197.638 3.61417 -0.0774865 0
M  V30 2153 O 197.359 4.16485 -1.35912 0
M  V30 2154 C 198.86 4.41235 0.427402 0
M  V30 2155 H 196.08 0.664946 -0.0899353 0
M  V30 2156 H 198.624 1.83924 -0.893988 0
M  V30 2157 H 196.779 3.82841 0.59257 0
M  V30 2158 H 197.193 5.10153 -1.21839 0
M  V30 2159 H 198.667 5.5021 0.44423 0
M  V30 2160 H 199.144 4.14268 1.45873 0
M  V30 2161 H 199.75 4.2478 -0.210167 0
M  V30 2162 N 198.065 0.39524 1.52563 0
M  V30 2163 C 199.028 -0.425001 2.25225 0
M  V30 2164 C 200.028 -0.985266 1.27079 0
M  V30 2165 O 201.218 -0.866332 1.5113 0
M  V30 2166 C 198.35 -1.59686 3.01186 0
M  V30 2167 H 199.543 0.211233 2.99155 0
M  V30 2168 H 197.096 0.147472 1.55603 0
M  V30 2169 H 197.831 -2.27035 2.31572 0
M  V30 2170 H 197.616 -1.20176 3.73229 0
M  V30 2171 H 199.106 -2.17743 3.5634 0
M  V30 2172 N 199.544 -1.57102 0.125237 0
M  V30 2173 C 200.474 -2.18659 -0.819174 0
M  V30 2174 C 201.455 -1.12843 -1.27281 0
M  V30 2175 O 202.64 -1.41104 -1.33429 0
M  V30 2176 C 199.77 -2.79096 -2.06695 0
M  V30 2177 C 198.724 -3.90548 -1.75088 0
M  V30 2178 C 198.05 -4.37821 -3.06948 0
M  V30 2179 C 199.35 -5.12356 -1.01435 0
M  V30 2180 H 201.044 -2.9783 -0.306202 0
M  V30 2181 H 198.59 -1.4326 -0.145839 0
M  V30 2182 H 200.543 -3.2082 -2.73226 0
M  V30 2183 H 199.267 -1.97223 -2.60328 0
M  V30 2184 H 197.926 -3.49409 -1.10944 0
M  V30 2185 H 197.574 -3.52799 -3.58527 0
M  V30 2186 H 197.274 -5.12982 -2.86571 0
M  V30 2187 H 198.798 -4.822 -3.74587 0
M  V30 2188 H 200.212 -5.5106 -1.58132 0
M  V30 2189 H 198.609 -5.9314 -0.911319 0
M  V30 2190 H 199.679 -4.849 -0.00218681 0
M  V30 2191 N 201.022 0.148545 -1.56898 0
M  V30 2192 C 202.268 0.862694 -1.83536 0
M  V30 2193 C 202.601 1.80889 -0.706604 0
M  V30 2194 O 201.876 1.92328 0.289885 0
M  V30 2195 C 202.159 1.63853 -3.20662 0
M  V30 2196 C 202.012 0.713925 -4.44098 0
M  V30 2197 C 203.331 2.60133 -3.54991 0
M  V30 2198 H 200.45 0.312179 -0.667618 0
M  V30 2199 H 203.092 0.127953 -1.89569 0
M  V30 2200 H 201.242 2.26489 -3.1565 0
M  V30 2201 H 202.914 0.098686 -4.61194 0
M  V30 2202 H 201.157 0.0234019 -4.33794 0
M  V30 2203 H 201.828 1.29278 -5.36648 0
M  V30 2204 H 204.304 2.07616 -3.60603 0
M  V30 2205 H 203.18 3.11468 -4.51972 0
M  V30 2206 H 203.441 3.41417 -2.80868 0
M  V30 2207 N 202.5 1.5196 0.417844 0
M  V30 2208 C 203.746 1.65836 1.16732 0
M  V30 2209 C 204.079 0.382881 1.90388 0
M  V30 2210 O 203.354 -0.618368 1.84408 0
M  V30 2211 C 203.637 2.87466 2.16876 0
M  V30 2212 C 203.49 4.25041 1.47174 0
M  V30 2213 C 204.809 3.04613 3.17646 0
M  V30 2214 H 201.928 0.603515 0.423011 0
M  V30 2215 H 204.57 1.84494 0.454105 0
M  V30 2216 H 202.72 2.71689 2.777 0
M  V30 2217 H 204.392 4.52527 0.895376 0
M  V30 2218 H 202.635 4.26843 0.773806 0
M  V30 2219 H 203.306 5.06176 2.20204 0
M  V30 2220 H 205.782 3.1923 2.66892 0
M  V30 2221 H 204.658 3.91247 3.8499 0
M  V30 2222 H 204.919 2.17541 3.84874 0
M  V30 2223 N 203.978 -0.674533 1.42435 0
M  V30 2224 C 205.224 -1.43521 1.4413 0
M  V30 2225 C 205.579 -1.92316 0.0567773 0
M  V30 2226 O 204.872 -1.68008 -0.921076 0
M  V30 2227 C 205.066 -2.64767 2.40069 0
M  V30 2228 C 204.895 -2.27836 3.87713 0
M  V30 2229 C 203.665 -2.17183 4.56245 0
M  V30 2230 C 205.863 -1.89466 4.78129 0
M  V30 2231 N 203.845 -1.73358 5.88915 0
M  V30 2232 C 205.216 -1.56561 5.99907 0
M  V30 2233 C 207.271 -1.7646 4.65582 0
M  V30 2234 C 205.974 -1.11957 7.10534 0
M  V30 2235 C 208 -1.3326 5.76191 0
M  V30 2236 C 207.362 -1.0128 6.97081 0
M  V30 2237 H 203.461 -0.521656 0.582579 0
M  V30 2238 H 206.045 -0.778381 1.78464 0
M  V30 2239 H 204.216 -3.28139 2.07796 0
M  V30 2240 H 205.948 -3.3136 2.32342 0
M  V30 2241 H 202.703 -2.3626 4.10461 0
M  V30 2242 H 203.127 -1.53867 6.59283 0
M  V30 2243 H 207.769 -1.99831 3.72595 0
M  V30 2244 H 205.487 -0.873318 8.03367 0
M  V30 2245 H 209.073 -1.23717 5.68494 0
M  V30 2246 H 207.953 -0.683597 7.81215 0
M  V30 2247 N 205.456 -1.28612 -0.910864 0
M  V30 2248 C 206.388 -1.08589 -2.01844 0
M  V30 2249 C 207.401 -0.0367419 -1.62759 0
M  V30 2250 O 208.59 -0.280101 -1.76289 0
M  V30 2251 C 205.69 -0.628626 -3.33019 0
M  V30 2252 C 204.863 -1.75382 -4.00699 0
M  V30 2253 C 203.922 -1.28945 -5.10156 0
M  V30 2254 O 202.948 -1.9922 -5.33198 0
M  V30 2255 N 204.15 -0.154224 -5.80295 0
M  V30 2256 H 206.915 -2.03973 -2.19579 0
M  V30 2257 H 204.476 -1.20403 -1.08234 0
M  V30 2258 H 206.468 -0.301508 -4.03575 0
M  V30 2259 H 205.038 0.232451 -3.11735 0
M  V30 2260 H 204.258 -2.25039 -3.23653 0
M  V30 2261 H 205.546 -2.50854 -4.42662 0
M  V30 2262 H 204.944 0.43194 -5.64049 0
M  V30 2263 H 203.501 0.113599 -6.51701 0
M  V30 2264 N 206.934 1.1197 -1.10907 0
M  V30 2265 C 208.159 1.87942 -0.877064 0
M  V30 2266 C 208.584 1.79341 0.567314 0
M  V30 2267 O 207.942 1.15184 1.40009 0
M  V30 2268 C 207.99 3.34926 -1.33629 0
M  V30 2269 O 207.094 4.09303 -0.504447 0
M  V30 2270 H 206.435 0.583785 -0.316371 0
M  V30 2271 H 208.965 1.4157 -1.47712 0
M  V30 2272 H 208.975 3.8577 -1.32837 0
M  V30 2273 H 207.65 3.40504 -2.3881 0
M  V30 2274 H 206.227 3.68393 -0.577993 0
M  V30 2275 N 208.412 0.89855 1.29475 0
M  V30 2276 C 209.359 0.373819 2.27753 0
M  V30 2277 C 210.329 -0.543444 1.56958 0
M  V30 2278 O 211.514 -0.468934 1.84948 0
M  V30 2279 C 208.654 -0.393648 3.42848 0
M  V30 2280 C 207.767 0.554379 4.28428 0
M  V30 2281 C 206.902 -0.230026 5.30702 0
M  V30 2282 C 205.941 0.712599 6.07938 0
M  V30 2283 N 205.078 -0.0373283 7.0209 0
M  V30 2284 H 209.918 1.21699 2.72017 0
M  V30 2285 H 207.455 0.611456 1.33789 0
M  V30 2286 H 209.413 -0.85466 4.08352 0
M  V30 2287 H 208.043 -1.20128 2.99615 0
M  V30 2288 H 207.095 1.13391 3.63107 0
M  V30 2289 H 208.407 1.27597 4.82204 0
M  V30 2290 H 207.561 -0.752288 6.02018 0
M  V30 2291 H 206.3 -0.984758 4.77654 0
M  V30 2292 H 205.305 1.24637 5.35486 0
M  V30 2293 H 206.53 1.46664 6.63074 0
M  V30 2294 H 204.476 -0.774348 6.51414 0
M  V30 2295 H 204.393 0.624374 7.53417 0
M  V30 2296 H 205.661 -0.539891 7.77628 0
M  V30 2297 N 209.89 -1.43072 0.660911 0
M  V30 2298 C 211.306 -1.56169 0.329173 0
M  V30 2299 C 211.506 -1.64317 -1.16629 0
M  V30 2300 O 210.562 -1.60245 -1.95135 0
M  V30 2301 C 211.875 -2.81873 1.04729 0
M  V30 2302 C 213.423 -2.95627 1.02828 0
M  V30 2303 C 213.898 -4.24174 1.72744 0
M  V30 2304 N 215.389 -4.31055 1.69545 0
M  V30 2305 C 216.124 -5.29304 2.20511 0
M  V30 2306 N 215.62 -6.33786 2.79799 0
M  V30 2307 N 217.413 -5.21008 2.10966 0
M  V30 2308 H 209.564 -1.36027 1.63127 0
M  V30 2309 H 211.827 -0.653823 0.686454 0
M  V30 2310 H 211.533 -2.81942 2.10242 0
M  V30 2311 H 211.407 -3.72338 0.603702 0
M  V30 2312 H 213.794 -2.95094 -0.0184742 0
M  V30 2313 H 213.875 -2.06431 1.51063 0
M  V30 2314 H 213.519 -4.25467 2.7738 0
M  V30 2315 H 213.449 -5.1228 1.2197 0
M  V30 2316 H 215.94 -3.56174 1.26288 0
M  V30 2317 H 216.253 -7.05086 3.16344 0
M  V30 2318 H 214.598 -6.34387 2.83863 0
M  V30 2319 H 217.789 -4.38301 1.64347 0
M  V30 2320 H 217.962 -5.97416 2.50993 0
M  V30 2321 N 211.368 -0.403325 -1.52352 0
M  V30 2322 C 212.596 0.174012 -2.06167 0
M  V30 2323 C 213.011 1.39347 -1.27388 0
M  V30 2324 O 212.368 1.79597 -0.324201 0
M  V30 2325 C 212.419 0.530223 -3.5759 0
M  V30 2326 O 212.14 -0.640806 -4.33388 0
M  V30 2327 C 213.641 1.16192 -4.27802 0
M  V30 2328 H 210.861 0.0229464 -0.670608 0
M  V30 2329 H 213.405 -0.572604 -1.9632 0
M  V30 2330 H 211.56 1.22673 -3.67464 0
M  V30 2331 H 211.974 -0.344851 -5.23365 0
M  V30 2332 H 213.448 1.36141 -5.34948 0
M  V30 2333 H 213.925 2.13335 -3.83907 0
M  V30 2334 H 214.531 0.505775 -4.22282 0
M  V30 2335 N 212.846 1.57033 -0.133567 0
M  V30 2336 C 213.756 2.19632 0.824564 0
M  V30 2337 C 214.772 1.17666 1.28182 0
M  V30 2338 O 215.948 1.50193 1.3418 0
M  V30 2339 C 213.013 2.79499 2.05137 0
M  V30 2340 C 212.074 3.96548 1.64464 0
M  V30 2341 C 211.307 4.5355 2.81297 0
M  V30 2342 O 211.53 4.09438 3.97136 0
M  V30 2343 O 210.464 5.44018 2.57542 0
M  V30 2344 H 214.29 3.01991 0.321766 0
M  V30 2345 H 211.875 1.49112 0.0927889 0
M  V30 2346 H 213.757 3.17602 2.7696 0
M  V30 2347 H 212.432 2.00162 2.54395 0
M  V30 2348 H 211.339 3.63186 0.897048 0
M  V30 2349 H 212.672 4.77364 1.19934 0
M  V30 2350 N 214.325 -0.140222 1.56975 0
M  V30 2351 C 215.573 -0.850005 1.83356 0
M  V30 2352 C 215.894 -1.81399 0.71551 0
M  V30 2353 O 215.164 -1.94136 -0.262294 0
M  V30 2354 H 213.744 -0.316886 0.676456 0
M  V30 2355 H 216.406 -0.132608 1.94448 0
M  V30 2356 H 215.502 -1.40814 2.78528 0
M  V30 2357 N 215.803 -1.52179 -0.40978 0
M  V30 2358 C 217.052 -1.65434 -1.15388 0
M  V30 2359 C 217.365 -0.390056 -1.91671 0
M  V30 2360 O 218.571 -0.402399 -2.68501 0
M  V30 2361 C 217.027 -2.92279 -2.10003 0
M  V30 2362 C 216.635 -4.25813 -1.39239 0
M  V30 2363 C 218.379 -3.14897 -2.84675 0
M  V30 2364 C 216.286 -5.43782 -2.32498 0
M  V30 2365 H 215.216 -0.616267 -0.434432 0
M  V30 2366 H 217.867 -1.78666 -0.418401 0
M  V30 2367 H 216.249 -2.72744 -2.871 0
M  V30 2368 H 217.423 -4.55828 -0.675099 0
M  V30 2369 H 215.738 -4.09292 -0.766097 0
M  V30 2370 H 218.335 -4.0021 -3.54593 0
M  V30 2371 H 218.678 -2.29103 -3.47588 0
M  V30 2372 H 219.211 -3.34901 -2.14677 0
M  V30 2373 H 215.95 -6.3192 -1.74233 0
M  V30 2374 H 215.47 -5.18106 -3.02201 0
M  V30 2375 H 217.149 -5.76834 -2.93038 0
M  V30 2376 N 217.281 0.66697 -1.42791 0
M  V30 2377 C 218.527 1.4291 -1.43891 0
M  V30 2378 C 218.86 1.94114 -0.0578972 0
M  V30 2379 O 218.135 1.71414 0.91911 0
M  V30 2380 C 218.418 2.62049 -2.46987 0
M  V30 2381 C 218.271 2.16426 -3.94309 0
M  V30 2382 C 219.59 3.64266 -2.46978 0
M  V30 2383 H 216.709 0.518306 -0.523954 0
M  V30 2384 H 219.351 0.757321 -1.74255 0
M  V30 2385 H 217.501 3.19361 -2.21225 0
M  V30 2386 H 219.173 1.64221 -4.31079 0
M  V30 2387 H 217.416 1.47925 -4.078 0
M  V30 2388 H 218.087 3.02038 -4.62036 0
M  V30 2389 H 220.563 3.16686 -2.69906 0
M  V30 2390 H 219.439 4.45196 -3.21079 0
M  V30 2391 H 219.7 4.15927 -1.49857 0
M  V30 2392 O 218.798 1.39735 0.809714 0
M  V30 2393 H 219.489 1.27958 1.45418 0
M  V30 END ATOM
M  V30 BEGIN BOND
M  V30 END BOND
M  V30 END CTAB
M  END
$$$$
