drugbank_target|O60895 Receptor activity-modifying protein 2 (DB01278)
 OpenBabel12092119413D

  0  0  0     0  0            999 V3000
M  V30 BEGIN CTAB
M  V30 COUNTS 2754 2793 0 0 0
M  V30 BEGIN ATOM
M  V30 1 H -0.908 1.98254 -0.117106 0
M  V30 2 N 0 1.576 0 0
M  V30 3 C 0.933 2.03868 1.02534 0
M  V30 4 C 1.911 0.928543 1.3348 0
M  V30 5 O 3.095 1.19667 1.45644 0
M  V30 6 C 0.222 2.43627 2.35294 0
M  V30 7 C -0.732 3.65373 2.2001 0
M  V30 8 S 0.101 5.13292 1.52614 0
M  V30 9 C 1.257 5.56322 2.86805 0
M  V30 10 H 1.49 2.90518 0.631377 0
M  V30 11 H -0.977 1.52953 0.210867 0
M  V30 12 H 0.981 2.67203 3.11629 0
M  V30 13 H -0.358 1.57376 2.7183 0
M  V30 14 H -1.165 3.90944 3.18086 0
M  V30 15 H -1.563 3.418 1.51819 0
M  V30 16 H 0.729 5.58782 3.83104 0
M  V30 17 H 1.672 6.56266 2.65933 0
M  V30 18 H 2.08 4.83886 2.90714 0
M  V30 19 N 1.4781 -0.272755 1.55222 0
M  V30 20 C 2.4411 -1.32041 1.87344 0
M  V30 21 C 3.4411 -1.42342 0.74803 0
M  V30 22 O 4.6311 -1.41488 1.0162 0
M  V30 23 C 1.7631 -2.70173 2.07893 0
M  V30 24 H 2.9561 -1.04789 2.80997 0
M  V30 25 H 0.5091 -0.51083 1.47717 0
M  V30 26 H 1.2441 -3.02605 1.16622 0
M  V30 27 H 1.0291 -2.64082 2.89833 0
M  V30 28 H 2.5191 -3.45869 2.34017 0
M  V30 29 N 2.9562 -1.48159 -0.537278 0
M  V30 30 C 4.1812 -1.59707 -1.32319 0
M  V30 31 C 4.6062 -0.254859 -1.86365 0
M  V30 32 O 3.9642 0.772378 -1.64024 0
M  V30 33 C 4.0122 -2.6412 -2.45505 0
M  V30 34 O 3.1162 -2.20774 -3.48328 0
M  V30 35 H 2.4572 -0.535791 -0.392204 0
M  V30 36 H 4.9872 -1.94092 -0.647268 0
M  V30 37 H 4.9972 -2.85166 -2.91795 0
M  V30 38 H 3.6722 -3.61567 -2.05528 0
M  V30 39 H 2.2492 -2.09911 -3.08207 0
M  V30 40 N 4.4343 0.785586 -1.36625 0
M  V30 41 C 5.3643 1.91259 -1.33949 0
M  V30 42 C 6.3453 1.68795 -0.210325 0
M  V30 43 O 7.5303 1.89854 -0.408561 0
M  V30 44 C 4.6603 3.28339 -1.13186 0
M  V30 45 C 3.6143 3.65335 -2.22967 0
M  V30 46 C 2.9403 5.00806 -1.87342 0
M  V30 47 C 4.2403 3.7352 -3.65075 0
M  V30 48 H 5.9343 1.93755 -2.28253 0
M  V30 49 H 3.4803 0.930788 -1.09874 0
M  V30 50 H 5.4333 4.06804 -1.09948 0
M  V30 51 H 4.1573 3.2624 -0.153332 0
M  V30 52 H 2.8163 2.89169 -2.25337 0
M  V30 53 H 2.4643 4.95233 -0.880545 0
M  V30 54 H 2.1643 5.26529 -2.60846 0
M  V30 55 H 3.6883 5.81687 -1.85667 0
M  V30 56 H 5.1023 4.42168 -3.64911 0
M  V30 57 H 3.4993 4.10731 -4.37516 0
M  V30 58 H 4.5693 2.74527 -3.99703 0
M  V30 59 N 5.9124 1.20967 1.01018 0
M  V30 60 C 7.3284 0.965905 1.27053 0
M  V30 61 C 7.5284 -0.350785 1.98423 0
M  V30 62 O 6.5844 -1.07773 2.28344 0
M  V30 63 C 7.8974 2.15294 2.09926 0
M  V30 64 C 9.4454 2.19463 2.23171 0
M  V30 65 C 9.9204 3.3767 3.09424 0
M  V30 66 N 11.4114 3.37724 3.17012 0
M  V30 67 C 12.1464 4.25837 3.83993 0
M  V30 68 N 11.6424 5.24138 4.53047 0
M  V30 69 N 13.4354 4.1366 3.80581 0
M  V30 70 H 5.5864 2.0565 0.531194 0
M  V30 71 H 7.8494 0.90024 0.297106 0
M  V30 72 H 7.5554 3.10684 1.64828 0
M  V30 73 H 7.4294 2.13923 3.10672 0
M  V30 74 H 9.8164 1.24632 2.6749 0
M  V30 75 H 9.8974 2.2488 1.21912 0
M  V30 76 H 9.5414 4.32791 2.65808 0
M  V30 77 H 9.4714 3.29491 4.10784 0
M  V30 78 H 11.9624 2.6658 2.6785 0
M  V30 79 H 12.2754 5.87684 5.01844 0
M  V30 80 H 10.6204 5.28068 4.5185 0
M  V30 81 H 13.8114 3.36127 3.25785 0
M  V30 82 H 13.9844 4.82538 4.32505 0
M  V30 83 N 7.3905 -1.2043 1.01659 0
M  V30 84 C 8.6365 -1.90079 0.706963 0
M  V30 85 C 8.9695 -1.78648 -0.761474 0
M  V30 86 O 8.2445 -1.17069 -1.55323 0
M  V30 87 C 8.5275 -3.41469 1.14327 0
M  V30 88 C 8.3805 -3.61833 2.67201 0
M  V30 89 C 9.6995 -4.34261 0.714529 0
M  V30 90 H 6.8185 -0.690254 0.2583 0
M  V30 91 H 9.4605 -1.41826 1.26433 0
M  V30 92 H 7.6105 -3.82696 0.669056 0
M  V30 93 H 9.2825 -3.2986 3.22475 0
M  V30 94 H 7.5255 -3.05304 3.08175 0
M  V30 95 H 8.1965 -4.67955 2.92783 0
M  V30 96 H 10.6725 -4.00682 1.12221 0
M  V30 97 H 9.5485 -5.38806 1.04784 0
M  V30 98 H 9.8095 -4.40431 -0.383799 0
M  V30 99 N 8.8686 -0.792821 -1.36206 0
M  V30 100 C 9.7786 -0.194808 -2.3379 0
M  V30 101 C 10.7946 0.654869 -1.61206 0
M  V30 102 O 11.9706 0.569856 -1.9317 0
M  V30 103 C 9.0356 0.657721 -3.40404 0
M  V30 104 C 8.0966 -0.210849 -4.28782 0
M  V30 105 C 7.3296 0.601086 -5.30304 0
M  V30 106 O 7.5526 1.83682 -5.40016 0
M  V30 107 O 6.4866 -0.000808277 -6.019 0
M  V30 108 H 10.3126 -1.00172 -2.86704 0
M  V30 109 H 7.8976 -0.554341 -1.38735 0
M  V30 110 H 9.7796 1.14375 -4.05581 0
M  V30 111 H 8.4546 1.44247 -2.89784 0
M  V30 112 H 7.3616 -0.743714 -3.66633 0
M  V30 113 H 8.6946 -0.959195 -4.82763 0
M  V30 114 N 10.3467 1.47872 -0.545128 0
M  V30 115 C 11.7627 1.5829 -0.204032 0
M  V30 116 C 11.9627 1.54529 1.29317 0
M  V30 117 O 11.0187 1.44232 2.07252 0
M  V30 118 C 12.3317 2.89304 -0.819987 0
M  V30 119 C 13.8797 3.02864 -0.790105 0
M  V30 120 C 14.3547 4.3656 -1.38491 0
M  V30 121 N 15.8457 4.43165 -1.34755 0
M  V30 122 C 16.5807 5.45153 -1.77753 0
M  V30 123 N 16.0767 6.54016 -2.2855 0
M  V30 124 N 17.8697 5.36125 -1.68897 0
M  V30 125 H 10.0207 1.4856 -1.51802 0
M  V30 126 H 12.2837 0.706305 -0.632327 0
M  V30 127 H 11.9897 2.97757 -1.87173 0
M  V30 128 H 11.8637 3.75957 -0.305915 0
M  V30 129 H 14.2507 2.94014 0.252913 0
M  V30 130 H 14.3317 2.17782 -1.34181 0
M  V30 131 H 13.9757 4.46164 -2.42693 0
M  V30 132 H 13.9057 5.20353 -0.808754 0
M  V30 133 H 16.3967 3.65083 -0.975855 0
M  V30 134 H 16.7097 7.27994 -2.59314 0
M  V30 135 H 15.0547 6.54938 -2.32553 0
M  V30 136 H 18.2457 4.49975 -1.28998 0
M  V30 137 H 18.4187 6.15472 -2.02726 0
M  V30 138 N 11.8248 0.280983 1.55075 0
M  V30 139 C 12.7878 -0.590896 2.21452 0
M  V30 140 C 13.7878 -1.07682 1.19421 0
M  V30 141 O 14.9778 -0.97605 1.44288 0
M  V30 142 C 12.1098 -1.81587 2.88511 0
M  V30 143 H 13.3028 -0.0112554 2.99898 0
M  V30 144 H 10.8558 0.0316438 1.56268 0
M  V30 145 H 11.5908 -2.43587 2.14093 0
M  V30 146 H 11.3758 -1.4753 3.63287 0
M  V30 147 H 12.8658 -2.43575 3.39206 0
M  V30 148 N 13.3029 -1.57598 0.00835791 0
M  V30 149 C 14.5509 -1.90551 -0.6734 0
M  V30 150 C 14.8719 -0.883301 -1.73847 0
M  V30 151 O 14.1419 0.0781442 -1.95744 0
M  V30 152 H 12.7219 -0.703312 -0.251717 0
M  V30 153 H 15.3839 -1.94833 0.0512592 0
M  V30 154 H 14.4799 -2.9056 -1.13935 0
M  V30 155 N 14.781 0.264519 -1.55364 0
M  V30 156 C 16.029 0.993021 -1.76021 0
M  V30 157 C 16.35 1.86511 -0.569099 0
M  V30 158 O 15.62 1.91438 0.415735 0
M  V30 159 H 14.2 0.369639 -0.649135 0
M  V30 160 H 16.862 0.286707 -1.9278 0
M  V30 161 H 15.958 1.62502 -2.66457 0
M  V30 162 N 16.2591 1.48442 0.529413 0
M  V30 163 C 17.6701 1.5002 1.11134 0
M  V30 164 C 18.0211 0.27031 1.94329 0
M  V30 165 O 17.1461 -0.622507 2.07253 0
M  V30 166 C 17.7411 2.71834 2.02217 0
M  V30 167 C 16.3001 2.76283 2.55627 0
M  V30 168 C 15.4471 2.43542 1.326 0
M  V30 169 H 18.3981 1.5555 0.314641 0
M  V30 170 H 18.4191 2.50384 2.8651 0
M  V30 171 H 17.9311 3.61331 1.41639 0
M  V30 172 H 16.0321 1.90995 3.19924 0
M  V30 173 H 16.1451 3.77725 2.94721 0
M  V30 174 H 14.5091 1.94709 1.64196 0
M  V30 175 H 15.2921 3.3528 0.737734 0
M  V30 176 N 17.7372 -0.778329 1.37039 0
M  V30 177 C 19.1532 -1.07796 1.17695 0
M  V30 178 C 19.3532 -2.01498 0.00860115 0
M  V30 179 O 18.4092 -2.43901 -0.653352 0
M  V30 180 C 19.7222 -1.68178 2.49272 0
M  V30 181 C 21.2702 -1.80467 2.55735 0
M  V30 182 C 21.7452 -2.44263 3.87427 0
M  V30 183 N 23.2362 -2.51721 3.88833 0
M  V30 184 C 23.9712 -3.01919 4.87476 0
M  V30 185 N 23.4672 -3.5234 5.96513 0
M  V30 186 N 25.2602 -3.00733 4.74885 0
M  V30 187 H 17.4112 -0.156032 2.11826 0
M  V30 188 H 19.6742 -0.131844 0.938787 0
M  V30 189 H 19.3802 -1.06796 3.35093 0
M  V30 190 H 19.2542 -2.67554 2.65885 0
M  V30 191 H 21.6412 -2.40984 1.70325 0
M  V30 192 H 21.7222 -0.798656 2.43013 0
M  V30 193 H 21.3662 -1.84388 4.73248 0
M  V30 194 H 21.2962 -3.45458 3.9745 0
M  V30 195 H 23.7872 -2.1603 3.10063 0
M  V30 196 H 24.1002 -3.89027 6.67741 0
M  V30 197 H 22.4452 -3.50462 6.00168 0
M  V30 198 H 25.6362 -2.60638 3.88826 0
M  V30 199 H 25.8092 -3.39545 5.51918 0
M  V30 200 N 19.2153 -1.21501 -1.00376 0
M  V30 201 C 20.1453 -0.999478 -2.11028 0
M  V30 202 C 21.1263 0.0759671 -1.6993 0
M  V30 203 O 22.3113 -0.0841106 -1.94018 0
M  V30 204 C 19.4413 -0.564709 -3.42678 0
M  V30 205 C 18.3953 -1.58486 -3.97576 0
M  V30 206 C 17.7213 -1.00628 -5.25146 0
M  V30 207 C 19.0213 -2.97204 -4.29496 0
M  V30 208 H 20.7153 -1.92495 -2.29317 0
M  V30 209 H 18.2613 -0.92693 -1.102 0
M  V30 210 H 20.2143 -0.401091 -4.19487 0
M  V30 211 H 18.9383 0.396411 -3.24185 0
M  V30 212 H 17.5973 -1.73606 -3.22888 0
M  V30 213 H 17.2453 -0.0368439 -5.02987 0
M  V30 214 H 16.9453 -1.68771 -5.62841 0
M  V30 215 H 18.4693 -0.854015 -6.04598 0
M  V30 216 H 19.8833 -2.8552 -4.97143 0
M  V30 217 H 18.2803 -3.62372 -4.78338 0
M  V30 218 H 19.3503 -3.47956 -3.3772 0
M  V30 219 N 20.6934 1.19889 -1.02296 0
M  V30 220 C 22.1044 1.71124 -0.746568 0
M  V30 221 C 22.4554 1.81939 0.734335 0
M  V30 222 O 21.5804 1.48639 1.57275 0
M  V30 223 C 22.1754 3.10804 -1.34857 0
M  V30 224 C 20.7344 3.59323 -1.1209 0
M  V30 225 C 19.8814 2.3635 -1.45031 0
M  V30 226 H 22.8324 1.04813 -1.19163 0
M  V30 227 H 22.8534 3.73186 -0.742437 0
M  V30 228 H 22.3654 3.029 -2.42638 0
M  V30 229 H 20.4664 3.7255 -0.0610337 0
M  V30 230 H 20.5794 4.4378 -1.80544 0
M  V30 231 H 18.9434 2.39399 -0.869487 0
M  V30 232 H 19.7264 2.31081 -2.53883 0
M  V30 233 N 22.1715 0.800033 1.35784 0
M  V30 234 C 23.5875 0.482977 1.52117 0
M  V30 235 C 23.7875 -0.996948 1.75109 0
M  V30 236 O 22.8435 -1.78216 1.78872 0
M  V30 237 C 24.1565 1.32264 2.70049 0
M  V30 238 C 25.7045 1.31742 2.83924 0
M  V30 239 C 26.1795 2.14106 4.04874 0
M  V30 240 N 27.6705 2.11607 4.12039 0
M  V30 241 C 28.4055 2.72099 5.04727 0
M  V30 242 N 27.9015 3.41492 6.02789 0
M  V30 243 N 29.6945 2.61776 4.97423 0
M  V30 244 H 21.8455 1.75856 1.19115 0
M  V30 245 H 24.1085 0.748122 0.582252 0
M  V30 246 H 23.8145 2.37261 2.59616 0
M  V30 247 H 23.6885 0.971303 3.6448 0
M  V30 248 H 26.0755 0.275333 2.93813 0
M  V30 249 H 26.1565 1.70859 1.9037 0
M  V30 250 H 25.8005 3.18351 3.95746 0
M  V30 251 H 25.7305 1.72353 4.97596 0
M  V30 252 H 28.2215 1.61112 3.41835 0
M  V30 253 H 28.5345 3.84953 6.70098 0
M  V30 254 H 26.8795 3.45596 6.02983 0
M  V30 255 H 30.0705 2.07157 4.19766 0
M  V30 256 H 30.2435 3.0921 5.69468 0
M  V30 257 N 23.6496 -1.47581 0.552962 0
M  V30 258 C 24.8776 -2.06875 0.0320556 0
M  V30 259 C 25.2926 -1.40625 -1.25976 0
M  V30 260 O 24.6496 -0.501349 -1.75479 0
M  V30 261 C 24.7006 -3.61092 -0.17167 0
M  V30 262 O 24.4216 -4.24858 1.06899 0
M  V30 263 C 25.9226 -4.37242 -0.730344 0
M  V30 264 H 23.1426 -0.669561 0.043915 0
M  V30 265 H 25.6866 -1.89646 0.765163 0
M  V30 266 H 23.8416 -3.7785 -0.854894 0
M  V30 267 H 24.2556 -5.17334 0.864059 0
M  V30 268 H 25.7296 -5.45842 -0.822203 0
M  V30 269 H 26.2066 -4.03235 -1.74064 0
M  V30 270 H 26.8126 -4.25219 -0.0829543 0
M  V30 271 N 25.1277 -0.289203 -1.54924 0
M  V30 272 C 26.5437 0.0645403 -1.59469 0
M  V30 273 C 26.7437 1.53419 -1.30632 0
M  V30 274 O 25.7997 2.2852 -1.074 0
M  V30 275 C 27.1127 -0.32278 -2.98963 0
M  V30 276 C 28.6607 -0.270564 -3.11828 0
M  V30 277 C 29.1357 -0.632532 -4.53611 0
M  V30 278 N 30.6267 -0.584617 -4.59496 0
M  V30 279 C 31.3617 -0.837314 -5.67254 0
M  V30 280 N 30.8577 -1.15536 -6.83098 0
M  V30 281 N 32.6507 -0.765166 -5.56868 0
M  V30 282 H 24.8017 -1.24714 -1.71931 0
M  V30 283 H 27.0647 -0.504809 -0.802416 0
M  V30 284 H 26.7707 -1.34541 -3.24948 0
M  V30 285 H 26.6447 0.32944 -3.75759 0
M  V30 286 H 29.0317 0.742805 -2.85598 0
M  V30 287 H 29.1127 -0.957242 -2.37214 0
M  V30 288 H 28.7567 -1.64365 -4.80569 0
M  V30 289 H 28.6867 0.07609 -5.26545 0
M  V30 290 H 31.1777 -0.349248 -3.76283 0
M  V30 291 H 31.4907 -1.33447 -7.61191 0
M  V30 292 H 29.8357 -1.19328 -6.84679 0
M  V30 293 H 33.0267 -0.516432 -4.65243 0
M  V30 294 H 33.1997 -0.965477 -6.40767 0
M  V30 295 N 26.6058 1.57591 -0.0167156 0
M  V30 296 C 27.8518 1.91567 0.665582 0
M  V30 297 C 28.1848 0.892298 1.72487 0
M  V30 298 O 27.4598 -0.0867127 1.94307 0
M  V30 299 C 27.7428 3.36069 1.29342 0
M  V30 300 C 27.5958 4.49135 0.244541 0
M  V30 301 C 28.9148 3.803 2.21495 0
M  V30 302 H 26.0338 0.69666 0.240488 0
M  V30 303 H 28.6758 1.89866 -0.0714356 0
M  V30 304 H 26.8258 3.3765 1.92158 0
M  V30 305 H 28.4978 4.59689 -0.385228 0
M  V30 306 H 26.7408 4.3165 -0.431379 0
M  V30 307 H 27.4118 5.47242 0.723207 0
M  V30 308 H 29.8878 3.80377 1.68678 0
M  V30 309 H 28.7638 4.82127 2.62382 0
M  V30 310 H 29.0248 3.15104 3.101 0
M  V30 311 N 28.0839 -0.256276 1.55502 0
M  V30 312 C 29.3319 -0.983672 1.76545 0
M  V30 313 C 29.6529 -1.86206 0.578982 0
M  V30 314 O 28.9229 -1.91656 -0.405577 0
M  V30 315 H 27.5029 -0.366191 0.651086 0
M  V30 316 H 30.1649 -0.276479 1.92929 0
M  V30 317 H 29.2609 -1.61087 2.67315 0
M  V30 318 N 29.562 -1.4872 -0.521534 0
M  V30 319 C 30.978 -1.35028 -0.850855 0
M  V30 320 C 31.178 -0.367712 -1.98116 0
M  V30 321 O 30.234 0.208037 -2.51642 0
M  V30 322 C 31.547 -2.75263 -1.21041 0
M  V30 323 C 33.095 -2.83813 -1.31981 0
M  V30 324 C 33.57 -4.24769 -1.71276 0
M  V30 325 N 35.061 -4.27482 -1.78363 0
M  V30 326 C 35.796 -5.33494 -2.1017 0
M  V30 327 N 35.292 -6.49775 -2.40343 0
M  V30 328 N 37.085 -5.20894 -2.11248 0
M  V30 329 H 29.236 -2.11214 0.22413 0
M  V30 330 H 31.499 -0.947252 0.0376439 0
M  V30 331 H 31.205 -3.48765 -0.453415 0
M  V30 332 H 31.079 -3.09327 -2.15863 0
M  V30 333 H 33.466 -2.10561 -2.06756 0
M  V30 334 H 33.547 -2.53358 -0.352596 0
M  V30 335 H 33.191 -4.9854 -0.970588 0
M  V30 336 H 33.121 -4.52673 -2.69062 0
M  V30 337 H 35.612 -3.43611 -1.57288 0
M  V30 338 H 35.925 -7.26402 -2.63743 0
M  V30 339 H 34.27 -6.53035 -2.37844 0
M  V30 340 H 37.461 -4.29065 -1.87139 0
M  V30 341 H 37.634 -6.03612 -2.35704 0
M  V30 342 N 31.0401 0.771051 -1.3745 0
M  V30 343 C 32.4511 1.34737 -1.29239 0
M  V30 344 C 32.8021 1.96109 0.0596908 0
M  V30 345 O 31.9271 1.93865 0.961534 0
M  V30 346 C 32.5221 2.44973 -2.34037 0
M  V30 347 C 31.0811 2.98372 -2.29458 0
M  V30 348 C 30.2281 1.71595 -2.17831 0
M  V30 349 H 33.1791 0.571256 -1.48062 0
M  V30 350 H 33.2001 3.24471 -1.98744 0
M  V30 351 H 32.7121 2.00276 -3.32432 0
M  V30 352 H 30.8131 3.47443 -1.34589 0
M  V30 353 H 30.9261 3.53939 -3.229 0
M  V30 354 H 29.2901 1.94547 -1.64388 0
M  V30 355 H 30.0731 1.29001 -3.18141 0
M  V30 356 N 32.5182 1.22032 0.997298 0
M  V30 357 C 33.4812 0.987909 2.06816 0
M  V30 358 C 34.4812 -0.0440084 1.6074 0
M  V30 359 O 35.6712 0.194053 1.73116 0
M  V30 360 C 32.8032 0.49132 3.37341 0
M  V30 361 H 33.9962 1.93803 2.28868 0
M  V30 362 H 31.5492 1.03838 1.16822 0
M  V30 363 H 32.2842 -0.463364 3.20973 0
M  V30 364 H 32.0692 1.23575 3.72118 0
M  V30 365 H 33.5592 0.348824 4.16141 0
M  V30 366 N 33.9963 -1.19345 1.0293 0
M  V30 367 C 34.9593 -2.20793 0.615069 0
M  V30 368 C 35.9593 -1.57553 -0.321533 0
M  V30 369 O 37.1493 -1.73862 -0.108483 0
M  V30 370 C 34.2813 -3.40754 -0.0999222 0
M  V30 371 H 35.4743 -2.58955 1.51269 0
M  V30 372 H 33.0273 -1.3303 0.820534 0
M  V30 373 H 33.7623 -3.0811 -1.01187 0
M  V30 374 H 33.5473 -3.87889 0.57309 0
M  V30 375 H 35.0373 -4.15898 -0.376645 0
M  V30 376 N 35.4744 -0.807222 -1.35358 0
M  V30 377 C 36.4044 -0.232509 -2.3234 0
M  V30 378 C 37.3854 0.642386 -1.57504 0
M  V30 379 O 38.5704 0.572526 -1.85569 0
M  V30 380 C 35.7004 0.619238 -3.41735 0
M  V30 381 C 34.6544 -0.157215 -4.27711 0
M  V30 382 C 33.9804 0.816273 -5.28433 0
M  V30 383 C 35.2804 -1.35656 -5.04376 0
M  V30 384 H 36.9744 -1.04276 -2.80654 0
M  V30 385 H 34.5204 -0.50288 -1.34934 0
M  V30 386 H 36.4734 1.03137 -4.08584 0
M  V30 387 H 35.1974 1.46239 -2.92031 0
M  V30 388 H 33.8564 -0.550525 -3.62443 0
M  V30 389 H 33.5044 1.65494 -4.74996 0
M  V30 390 H 33.2044 0.301067 -5.86828 0
M  V30 391 H 34.7284 1.22659 -5.98153 0
M  V30 392 H 36.1424 -1.01927 -5.64166 0
M  V30 393 H 34.5394 -1.8063 -5.7227 0
M  V30 394 H 35.6094 -2.14288 -4.34981 0
M  V30 395 N 36.9525 1.47285 -0.560781 0
M  V30 396 C 38.3685 1.58065 -0.22081 0
M  V30 397 C 38.5685 1.55892 1.27671 0
M  V30 398 O 37.6245 1.46422 2.0571 0
M  V30 399 C 38.9375 2.88418 -0.850625 0
M  V30 400 C 40.4855 3.02009 -0.822184 0
M  V30 401 C 40.9605 4.35066 -1.43113 0
M  V30 402 N 42.4515 4.41711 -1.39448 0
M  V30 403 C 43.1865 5.43237 -1.83525 0
M  V30 404 N 42.6825 6.51555 -2.35474 0
M  V30 405 N 44.4755 5.34304 -1.74574 0
M  V30 406 H 36.6265 1.46941 -1.53369 0
M  V30 407 H 38.8895 0.699558 -0.639783 0
M  V30 408 H 38.5955 2.95755 -1.9032 0
M  V30 409 H 38.4695 3.75612 -0.345773 0
M  V30 410 H 40.8565 2.94266 0.221714 0
M  V30 411 H 40.9375 2.16347 -1.36483 0
M  V30 412 H 40.5815 4.43565 -2.47412 0
M  V30 413 H 40.5115 5.19465 -0.863899 0
M  V30 414 H 43.0025 3.64027 -1.01452 0
M  V30 415 H 43.3155 7.25203 -2.67021 0
M  V30 416 H 41.6605 6.52435 -2.39487 0
M  V30 417 H 44.8515 4.48581 -1.33763 0
M  V30 418 H 45.0245 6.13288 -2.09242 0
M  V30 419 N 38.4306 0.297415 1.54768 0
M  V30 420 C 39.3606 -0.573494 2.26348 0
M  V30 421 C 40.3416 -1.14085 1.26169 0
M  V30 422 O 41.5266 -1.17086 1.54934 0
M  V30 423 C 38.6566 -1.74716 3.00153 0
M  V30 424 C 37.6106 -1.31032 4.07449 0
M  V30 425 C 36.9366 -2.56887 4.68949 0
M  V30 426 C 38.2366 -0.444183 5.20408 0
M  V30 427 H 39.9306 0.0235131 2.99391 0
M  V30 428 H 37.4766 0.0127488 1.43994 0
M  V30 429 H 39.4296 -2.3625 3.48947 0
M  V30 430 H 38.1536 -2.37035 2.24682 0
M  V30 431 H 36.8126 -0.718066 3.59499 0
M  V30 432 H 36.4606 -3.17512 3.90122 0
M  V30 433 H 36.1606 -2.2836 5.41411 0
M  V30 434 H 37.6846 -3.19229 5.20505 0
M  V30 435 H 39.0986 -0.9651 5.65118 0
M  V30 436 H 37.4956 -0.252846 5.99567 0
M  V30 437 H 38.5656 0.531609 4.81977 0
M  V30 438 N 39.9087 -1.5758 0.0250728 0
M  V30 439 C 40.8387 -2.13007 -0.956575 0
M  V30 440 C 41.8197 -1.0452 -1.342 0
M  V30 441 O 43.0047 -1.32332 -1.42133 0
M  V30 442 C 40.1347 -2.65386 -2.24026 0
M  V30 443 C 39.0887 -3.78623 -1.99571 0
M  V30 444 C 38.4147 -4.17414 -3.3417 0
M  V30 445 C 39.7147 -5.04867 -1.33814 0
M  V30 446 H 41.4087 -2.9528 -0.494991 0
M  V30 447 H 38.9547 -1.42042 -0.236651 0
M  V30 448 H 40.9077 -3.02794 -2.93076 0
M  V30 449 H 39.6317 -1.80268 -2.72343 0
M  V30 450 H 38.2907 -3.41646 -1.32941 0
M  V30 451 H 37.9387 -3.29284 -3.80238 0
M  V30 452 H 37.6387 -4.93719 -3.18615 0
M  V30 453 H 39.1627 -4.57402 -4.04495 0
M  V30 454 H 40.5767 -5.39888 -1.92857 0
M  V30 455 H 38.9737 -5.86144 -1.28669 0
M  V30 456 H 40.0437 -4.83904 -0.310561 0
M  V30 457 N 41.3868 0.248026 -1.55636 0
M  V30 458 C 42.3168 1.31079 -1.93237 0
M  V30 459 C 43.2978 1.50264 -0.797174 0
M  V30 460 O 44.4828 1.62891 -1.05737 0
M  V30 461 C 41.6128 2.66575 -2.22609 0
M  V30 462 C 40.5668 2.62087 -3.3837 0
M  V30 463 C 39.8928 4.01369 -3.53281 0
M  V30 464 C 41.1928 2.19171 -4.7409 0
M  V30 465 H 42.8868 0.998556 -2.82257 0
M  V30 466 H 40.4328 0.47891 -1.35803 0
M  V30 467 H 42.3858 3.41057 -2.47503 0
M  V30 468 H 41.1098 2.99432 -1.30414 0
M  V30 469 H 39.7688 1.90063 -3.13483 0
M  V30 470 H 39.4168 4.31489 -2.58508 0
M  V30 471 H 39.1168 3.99254 -4.31127 0
M  V30 472 H 40.6408 4.77552 -3.80495 0
M  V30 473 H 42.0548 2.83384 -4.98363 0
M  V30 474 H 40.4518 2.2817 -5.5503 0
M  V30 475 H 41.5218 1.14336 -4.71227 0
M  V30 476 N 42.8649 1.48995 0.513639 0
M  V30 477 C 43.7949 1.67636 1.62544 0
M  V30 478 C 44.7759 0.525087 1.61793 0
M  V30 479 O 45.9609 0.759502 1.78732 0
M  V30 480 C 43.0909 1.73114 3.01079 0
M  V30 481 C 42.0449 2.87905 3.16693 0
M  V30 482 C 41.3709 2.78486 4.56453 0
M  V30 483 C 42.6709 4.29005 2.97913 0
M  V30 484 H 44.3649 2.60716 1.47198 0
M  V30 485 H 41.9109 1.25465 0.706714 0
M  V30 486 H 43.8639 1.84742 3.78746 0
M  V30 487 H 42.5879 0.766241 3.17484 0
M  V30 488 H 41.2469 2.75859 2.41448 0
M  V30 489 H 40.8949 1.7993 4.69717 0
M  V30 490 H 40.5949 3.55523 4.67843 0
M  V30 491 H 42.1189 2.92104 5.36197 0
M  V30 492 H 43.5329 4.41798 3.65359 0
M  V30 493 H 41.9299 5.07166 3.20785 0
M  V30 494 H 42.9999 4.44329 1.94165 0
M  V30 495 N 44.343 -0.763751 1.37857 0
M  V30 496 C 45.273 -1.89103 1.36975 0
M  V30 497 C 46.254 -1.68439 0.237152 0
M  V30 498 O 47.439 -1.8918 0.438713 0
M  V30 499 C 44.569 -3.26496 1.18395 0
M  V30 500 C 43.523 -3.61741 2.28751 0
M  V30 501 C 42.849 -4.97762 1.95286 0
M  V30 502 C 44.149 -3.67665 3.70972 0
M  V30 503 H 45.843 -1.90099 2.31307 0
M  V30 504 H 43.389 -0.91319 1.11341 0
M  V30 505 H 45.342 -4.05003 1.16406 0
M  V30 506 H 44.066 -3.25955 0.205215 0
M  V30 507 H 42.725 -2.85547 2.29909 0
M  V30 508 H 42.373 -4.93769 0.959221 0
M  V30 509 H 42.073 -5.22313 2.69189 0
M  V30 510 H 43.597 -5.7866 1.94898 0
M  V30 511 H 45.011 -4.36307 3.719 0
M  V30 512 H 43.408 -4.03718 4.43995 0
M  V30 513 H 44.478 -2.68134 4.0402 0
M  V30 514 N 45.8211 -1.22559 -0.990812 0
M  V30 515 C 47.0691 -1.04933 -1.72724 0
M  V30 516 C 47.3901 0.416158 -1.90508 0
M  V30 517 O 46.6601 1.29918 -1.46622 0
M  V30 518 H 45.2401 -0.385296 -0.639965 0
M  V30 519 H 47.9021 -1.54105 -1.19322 0
M  V30 520 H 46.9981 -1.52886 -2.72089 0
M  V30 521 N 47.2992 1.18797 -1.03562 0
M  V30 522 C 48.2622 2.20464 -0.626769 0
M  V30 523 C 49.2622 1.57721 0.313173 0
M  V30 524 O 50.4522 1.73917 0.0992615 0
M  V30 525 C 47.5842 3.40802 0.0818498 0
M  V30 526 H 48.7772 2.58149 -1.5264 0
M  V30 527 H 46.3302 1.32593 -0.827578 0
M  V30 528 H 47.0652 3.08642 0.995518 0
M  V30 529 H 46.8502 3.8758 -0.593652 0
M  V30 530 H 48.3402 4.16092 0.354584 0
M  V30 531 N 48.7773 0.814389 1.34928 0
M  V30 532 C 50.0233 0.399013 1.98836 0
M  V30 533 C 50.3563 -1.03314 1.64438 0
M  V30 534 O 49.6313 -1.71811 0.911659 0
M  V30 535 C 49.9143 0.591629 3.55207 0
M  V30 536 C 49.7673 2.06928 3.99376 0
M  V30 537 C 51.0863 0.022199 4.40094 0
M  V30 538 H 48.2053 0.146451 0.722303 0
M  V30 539 H 50.8473 1.02537 1.59957 0
M  V30 540 H 48.9973 0.0584441 3.88456 0
M  V30 541 H 50.6693 2.66544 3.76499 0
M  V30 542 H 48.9123 2.56287 3.49999 0
M  V30 543 H 49.5833 2.1549 5.08201 0
M  V30 544 H 52.0593 0.477643 4.13349 0
M  V30 545 H 50.9353 0.186832 5.48582 0
M  V30 546 H 51.1963 -1.07215 4.28902 0
M  V30 547 N 50.2554 -1.46986 0.568584 0
M  V30 548 C 51.1854 -2.32946 -0.160753 0
M  V30 549 C 52.1664 -1.44487 -0.897631 0
M  V30 550 O 53.3514 -1.73327 -0.875867 0
M  V30 551 C 50.4814 -3.26494 -1.18403 0
M  V30 552 C 49.4354 -4.24282 -0.562895 0
M  V30 553 C 48.7614 -5.07236 -1.69163 0
M  V30 554 C 50.0614 -5.19989 0.490761 0
M  V30 555 H 51.7554 -2.94175 0.556916 0
M  V30 556 H 49.3014 -1.4146 0.26927 0
M  V30 557 H 51.2544 -3.85477 -1.70251 0
M  V30 558 H 49.9784 -2.63343 -1.93179 0
M  V30 559 H 48.6374 -3.66541 -0.0656164 0
M  V30 560 H 48.2854 -4.4048 -2.42871 0
M  V30 561 H 47.9854 -5.7345 -1.28174 0
M  V30 562 H 49.5094 -5.6908 -2.21314 0
M  V30 563 H 50.9234 -5.73271 0.0579047 0
M  V30 564 H 49.3204 -5.94469 0.820165 0
M  V30 565 H 50.3904 -4.64777 1.3824 0
M  V30 566 N 51.7335 -0.305618 -1.54608 0
M  V30 567 C 52.6815 0.584119 -2.25146 0
M  V30 568 C 53.6755 1.13326 -1.25911 0
M  V30 569 O 54.8815 1.08337 -1.43747 0
M  V30 570 H 51.2565 0.206983 -0.722954 0
M  V30 571 H 53.2275 -0.033291 -2.98381 0
M  V30 572 C 51.9765 1.74225 -3.009 0
M  V30 573 H 51.2995 1.32892 -3.77067 0
M  V30 574 H 52.7395 2.34077 -3.53531 0
M  V30 575 C 51.1985 2.64914 -2.0814 0
M  V30 576 O 51.7285 3.66137 -1.65246 0
M  V30 577 N 49.9345 2.3275 -1.74 0
M  V30 578 H 49.4815 1.50479 -2.09078 0
M  V30 579 H 49.4395 2.93694 -1.12211 0
M  V30 580 N 53.2116 1.57565 -0.0334293 0
M  V30 581 C 54.6226 1.79746 0.504798 0
M  V30 582 C 54.9736 0.944091 1.71992 0
M  V30 583 O 54.0986 0.155694 2.15839 0
M  V30 584 C 54.6936 3.25997 0.922567 0
M  V30 585 C 53.2526 3.49159 1.40588 0
M  V30 586 C 52.3996 2.74785 0.372633 0
M  V30 587 H 55.3506 1.56565 -0.259436 0
M  V30 588 H 55.3716 3.35945 1.78666 0
M  V30 589 H 54.8836 3.88081 0.0379825 0
M  V30 590 H 52.9846 2.92332 2.31025 0
M  V30 591 H 53.0976 4.57873 1.41028 0
M  V30 592 H 51.4616 2.40391 0.841672 0
M  V30 593 H 52.2446 3.39587 -0.503559 0
M  V30 594 N 54.6897 -0.239769 1.55765 0
M  V30 595 C 55.6397 -1.30002 1.87306 0
M  V30 596 C 56.6237 -1.43156 0.73452 0
M  V30 597 O 57.8157 -1.46277 0.99659 0
M  V30 598 C 54.9447 -2.65409 2.17745 0
M  V30 599 C 54.0307 -2.56231 3.37945 0
M  V30 600 N 54.4217 -2.16689 4.57033 0
M  V30 601 C 52.7197 -2.87229 3.41197 0
M  V30 602 C 53.4207 -2.18318 5.39177 0
M  V30 603 N 52.3967 -2.58098 4.78421 0
M  V30 604 H 56.1987 -0.984912 2.76906 0
M  V30 605 H 53.7127 -0.448381 1.56087 0
M  V30 606 H 55.7097 -3.41934 2.38509 0
M  V30 607 H 54.3697 -2.97781 1.29448 0
M  V30 608 H 55.3807 -1.88116 4.82528 0
M  V30 609 H 52.0577 -3.24094 2.63191 0
M  V30 610 H 53.4477 -1.90025 6.44469 0
M  V30 611 N 56.1678 -1.49265 -0.50573 0
M  V30 612 C 57.0778 -1.68312 -1.63427 0
M  V30 613 C 58.0938 -0.565682 -1.64548 0
M  V30 614 O 59.2698 -0.839801 -1.83055 0
M  V30 615 C 56.3348 -1.74107 -2.99813 0
M  V30 616 C 55.3958 -2.97653 -3.09356 0
M  V30 617 C 54.6288 -3.03163 -4.39236 0
M  V30 618 O 54.8518 -2.16396 -5.27758 0
M  V30 619 O 53.7858 -3.9558 -4.53652 0
M  V30 620 H 57.6118 -2.63907 -1.50289 0
M  V30 621 H 55.1968 -1.32951 -0.681502 0
M  V30 622 H 57.0788 -1.803 -3.80881 0
M  V30 623 H 55.7538 -0.816901 -3.13223 0
M  V30 624 H 54.6608 -2.96981 -2.27493 0
M  V30 625 H 55.9938 -3.89535 -3.00871 0
M  V30 626 N 57.6459 0.756429 -1.3826 0
M  V30 627 C 58.6089 1.85176 -1.35065 0
M  V30 628 C 59.6089 1.58818 -0.251703 0
M  V30 629 O 60.7989 1.66615 -0.508433 0
M  V30 630 C 57.9309 3.22596 -1.10201 0
M  V30 631 H 59.1239 1.89417 -2.3251 0
M  V30 632 H 56.6769 0.95783 -1.23512 0
M  V30 633 H 57.4119 3.24025 -0.133504 0
M  V30 634 H 57.1969 3.43122 -1.89762 0
M  V30 635 H 58.6869 4.02673 -1.10654 0
M  V30 636 N 59.124 1.23083 0.984299 0
M  V30 637 C 60.054 1.03292 2.09411 0
M  V30 638 C 61.035 -0.048923 1.7003 0
M  V30 639 O 62.22 0.114967 1.93859 0
M  V30 640 C 59.35 0.619155 3.41736 0
M  V30 641 C 58.304 1.64791 3.95004 0
M  V30 642 C 57.63 1.0897 5.23478 0
M  V30 643 C 58.93 3.03999 4.24714 0
M  V30 644 H 60.624 1.96119 2.26225 0
M  V30 645 H 58.17 0.944344 1.08711 0
M  V30 646 H 60.123 0.467777 4.18796 0
M  V30 647 H 58.847 -0.344786 3.24775 0
M  V30 648 H 57.506 1.78721 3.20085 0
M  V30 649 H 57.154 0.11686 5.02864 0
M  V30 650 H 56.854 1.77704 5.60085 0
M  V30 651 H 58.378 0.950093 6.03163 0
M  V30 652 H 59.792 2.93393 4.92538 0
M  V30 653 H 58.189 3.69936 4.72512 0
M  V30 654 H 59.259 3.53285 3.32142 0
M  V30 655 N 60.6021 -1.18246 1.0419 0
M  V30 656 C 61.5651 -2.20128 0.638452 0
M  V30 657 C 62.5651 -1.57885 -0.304805 0
M  V30 658 O 63.7551 -1.73967 -0.0900369 0
M  V30 659 C 60.8871 -3.4084 -0.0637751 0
M  V30 660 H 62.0801 -2.57336 1.54007 0
M  V30 661 H 59.6331 -1.32152 0.834598 0
M  V30 662 H 60.3681 -3.09166 -0.979136 0
M  V30 663 H 60.1531 -3.8726 0.614198 0
M  V30 664 H 61.6431 -4.16274 -0.332512 0
M  V30 665 N 62.0802 -0.821533 -1.34494 0
M  V30 666 C 63.0122 -0.199946 -2.28326 0
M  V30 667 C 64.0252 0.609377 -1.50965 0
M  V30 668 O 65.2142 0.439285 -1.7301 0
M  V30 669 C 62.3142 0.738431 -3.30757 0
M  V30 670 C 61.4872 -0.0277632 -4.37391 0
M  V30 671 C 60.5462 0.831332 -5.19591 0
M  V30 672 O 59.5722 0.276822 -5.68526 0
M  V30 673 N 60.7742 2.15132 -5.39165 0
M  V30 674 H 63.5392 -1.00609 -2.82308 0
M  V30 675 H 61.1002 -0.678366 -1.47003 0
M  V30 676 H 63.0922 1.31773 -3.82646 0
M  V30 677 H 61.6622 1.44533 -2.7718 0
M  V30 678 H 60.8822 -0.788359 -3.86236 0
M  V30 679 H 62.1702 -0.555251 -5.05761 0
M  V30 680 H 61.5682 2.62559 -5.01078 0
M  V30 681 H 60.1252 2.6795 -5.94177 0
M  V30 682 N 63.5583 1.46682 -0.576371 0
M  V30 683 C 64.9693 1.86112 -0.148091 0
M  V30 684 C 65.3203 1.48073 1.2872 0
M  V30 685 O 64.4453 0.892656 1.97131 0
M  V30 686 C 65.0403 3.37786 -0.261982 0
M  V30 687 C 63.5993 3.76235 0.111384 0
M  V30 688 C 62.7463 2.70713 -0.60083 0
M  V30 689 H 65.6973 1.37927 -0.78497 0
M  V30 690 H 65.7183 3.77007 0.514364 0
M  V30 691 H 65.2303 3.6544 -1.30671 0
M  V30 692 H 63.3313 3.54198 1.15649 0
M  V30 693 H 63.4443 4.78391 -0.26052 0
M  V30 694 H 61.8083 2.54666 -0.0417783 0
M  V30 695 H 62.5913 3.01208 -1.64708 0
M  V30 696 N 65.0364 0.313813 1.54444 0
M  V30 697 C 65.9664 -0.549454 2.26943 0
M  V30 698 C 66.9474 -1.12741 1.27372 0
M  V30 699 O 68.1324 -1.15436 1.56167 0
M  V30 700 C 65.2624 -1.71523 3.01989 0
M  V30 701 C 64.2164 -1.26703 4.08816 0
M  V30 702 C 63.5424 -2.51898 4.71647 0
M  V30 703 C 64.8424 -0.388962 5.2085 0
M  V30 704 H 66.5364 0.0552661 2.99349 0
M  V30 705 H 64.0824 0.0280207 1.43973 0
M  V30 706 H 66.0354 -2.32535 3.51433 0
M  V30 707 H 64.7594 -2.34639 2.27183 0
M  V30 708 H 63.4184 -0.679896 3.6024 0
M  V30 709 H 63.0664 -3.13356 3.93468 0
M  V30 710 H 62.7664 -2.22605 5.43802 0
M  V30 711 H 64.2904 -3.1369 5.23861 0
M  V30 712 H 65.7044 -0.905107 5.6611 0
M  V30 713 H 64.1014 -0.18924 5.99802 0
M  V30 714 H 65.1714 0.582699 4.81386 0
M  V30 715 N 66.5145 -1.57545 0.0417849 0
M  V30 716 C 67.9255 -1.80011 -0.495259 0
M  V30 717 C 68.2765 -0.953199 -1.71489 0
M  V30 718 O 67.4015 -0.167138 -2.15754 0
M  V30 719 C 67.9965 -3.26482 -0.905265 0
M  V30 720 C 66.5555 -3.499 -1.38734 0
M  V30 721 C 65.7025 -2.74979 -0.358056 0
M  V30 722 H 68.6535 -1.56425 0.267736 0
M  V30 723 H 68.6745 -3.36887 -1.76882 0
M  V30 724 H 68.1865 -3.88096 -0.017401 0
M  V30 725 H 66.2875 -2.93553 -2.29471 0
M  V30 726 H 66.4005 -4.58615 -1.38598 0
M  V30 727 H 64.7645 -2.40834 -0.828912 0
M  V30 728 H 65.5475 -3.39315 0.521561 0
M  V30 729 N 67.9926 0.231505 -1.5589 0
M  V30 730 C 69.2206 0.974505 -1.82513 0
M  V30 731 C 69.6356 1.78344 -0.619591 0
M  V30 732 O 68.9926 1.77792 0.411848 0
M  V30 733 C 69.0436 1.90007 -3.07538 0
M  V30 734 O 68.7646 1.12385 -4.2344 0
M  V30 735 C 70.2656 2.75779 -3.47075 0
M  V30 736 H 67.4856 0.286065 -0.606966 0
M  V30 737 H 70.0296 0.249739 -2.02969 0
M  V30 738 H 68.1846 2.57891 -2.89086 0
M  V30 739 H 68.5986 1.75125 -4.944 0
M  V30 740 H 70.0726 3.36443 -4.37619 0
M  V30 741 H 70.5496 3.47672 -2.68367 0
M  V30 742 H 71.1556 2.13323 -3.67931 0
M  V30 743 N 69.4707 1.49531 0.497807 0
M  V30 744 C 70.6987 1.62893 1.27567 0
M  V30 745 C 71.1137 0.301585 1.86376 0
M  V30 746 O 70.4707 -0.713335 1.67982 0
M  V30 747 C 70.5217 2.70013 2.40364 0
M  V30 748 O 70.2427 3.976 1.83972 0
M  V30 749 C 71.7437 2.94109 3.31685 0
M  V30 750 H 68.9637 0.548298 0.386794 0
M  V30 751 H 71.5077 1.95584 0.597245 0
M  V30 752 H 69.6627 2.40092 3.04031 0
M  V30 753 H 70.0767 4.56631 2.58047 0
M  V30 754 H 71.5507 3.72788 4.07104 0
M  V30 755 H 72.0277 2.04147 3.88871 0
M  V30 756 H 72.6337 3.2546 2.73781 0
M  V30 757 N 70.9488 -0.749086 1.3866 0
M  V30 758 C 72.1968 -1.50535 1.34847 0
M  V30 759 C 72.5178 -1.94909 -0.0595016 0
M  V30 760 O 71.7878 -1.67973 -1.00806 0
M  V30 761 H 70.3678 -0.558395 0.49619 0
M  V30 762 H 73.0298 -0.890165 1.73384 0
M  V30 763 H 72.1258 -2.39413 2.00219 0
M  V30 764 N 72.4269 -1.23603 -0.977757 0
M  V30 765 C 73.6549 -1.09646 -1.75458 0
M  V30 766 C 74.0699 0.351859 -1.85492 0
M  V30 767 O 73.4269 1.24327 -1.336 0
M  V30 768 C 73.4779 -1.71895 -3.18016 0
M  V30 769 O 73.1989 -3.11063 -3.08498 0
M  V30 770 C 74.6999 -1.63415 -4.12081 0
M  V30 771 H 71.9199 -0.38359 -0.550545 0
M  V30 772 H 74.4639 -1.63507 -1.22824 0
M  V30 773 H 72.6189 -1.22061 -3.67668 0
M  V30 774 H 73.0329 -3.41305 -3.9826 0
M  V30 775 H 74.5069 -2.11669 -5.09804 0
M  V30 776 H 74.9839 -0.593462 -4.35172 0
M  V30 777 H 75.5899 -2.12628 -3.68334 0
M  V30 778 N 73.905 1.17692 -1.04816 0
M  V30 779 C 75.316 1.69501 -0.782698 0
M  V30 780 C 75.667 1.83456 0.695577 0
M  V30 781 O 74.792 1.51942 1.54086 0
M  V30 782 C 75.387 3.07874 -1.41419 0
M  V30 783 C 73.946 3.56864 -1.19686 0
M  V30 784 C 73.093 2.3322 -1.50012 0
M  V30 785 H 76.044 1.02262 -1.2136 0
M  V30 786 H 76.065 3.71528 -0.821428 0
M  V30 787 H 75.577 2.97685 -2.49009 0
M  V30 788 H 73.678 3.72337 -0.140043 0
M  V30 789 H 73.791 4.39851 -1.89916 0
M  V30 790 H 72.155 2.37501 -0.920071 0
M  V30 791 H 72.938 2.25644 -2.58727 0
M  V30 792 N 75.3831 0.828654 1.34056 0
M  V30 793 C 76.6311 0.41863 1.97717 0
M  V30 794 C 76.9521 -1.02314 1.66002 0
M  V30 795 O 76.2221 -1.71119 0.953683 0
M  V30 796 H 74.8021 0.151809 0.731412 0
M  V30 797 H 77.4641 1.05936 1.63596 0
M  V30 798 H 76.5601 0.542318 3.07352 0
M  V30 799 N 76.8612 -1.46375 0.584142 0
M  V30 800 C 78.0862 -2.07268 0.0740405 0
M  V30 801 C 78.5112 -1.42979 -1.22223 0
M  V30 802 O 77.8692 -0.514092 -1.73859 0
M  V30 803 C 77.9172 -3.60518 -0.0767769 0
M  V30 804 O 77.0212 -3.96533 -1.13292 0
M  V30 805 H 76.3622 -0.660961 0.0634524 0
M  V30 806 H 78.8922 -1.87991 0.807492 0
M  V30 807 H 78.9022 -4.07021 -0.282489 0
M  V30 808 H 77.5772 -4.06702 0.86986 0
M  V30 809 H 76.1542 -3.61738 -0.905553 0
M  V30 810 N 78.3393 -0.321999 -1.54275 0
M  V30 811 C 79.2493 0.553631 -2.27974 0
M  V30 812 C 80.2653 1.13054 -1.32268 0
M  V30 813 O 81.4413 1.15084 -1.6528 0
M  V30 814 C 78.5063 1.69927 -3.02201 0
M  V30 815 C 77.5673 1.15433 -4.1349 0
M  V30 816 C 76.8003 2.24537 -4.84168 0
M  V30 817 O 77.0233 3.44852 -4.5435 0
M  V30 818 O 75.9573 1.90044 -5.7111 0
M  V30 819 H 79.7833 -0.0448345 -3.03667 0
M  V30 820 H 77.3683 -0.0877418 -1.49142 0
M  V30 821 H 79.2503 2.3663 -3.48689 0
M  V30 822 H 77.9253 2.28395 -2.29385 0
M  V30 823 H 76.8323 0.452436 -3.71354 0
M  V30 824 H 78.1653 0.614805 -4.88345 0
M  V30 825 N 79.8174 1.5752 -0.0501392 0
M  V30 826 C 81.0654 1.9227 0.622642 0
M  V30 827 C 81.3864 0.929083 1.71444 0
M  V30 828 O 80.6564 -0.0262186 1.95882 0
M  V30 829 H 79.2364 0.709739 0.232981 0
M  V30 830 H 81.8984 1.94628 -0.102898 0
M  V30 831 H 80.9944 2.93479 1.06191 0
M  V30 832 N 81.2955 -0.223234 1.56011 0
M  V30 833 C 82.5435 -0.946003 1.78592 0
M  V30 834 C 82.8645 -1.84936 0.618349 0
M  V30 835 O 82.1345 -1.92473 -0.364833 0
M  V30 836 H 80.7145 -0.352298 0.658707 0
M  V30 837 H 83.3765 -0.235494 1.93472 0
M  V30 838 H 82.4725 -1.55381 2.70672 0
M  V30 839 N 82.7736 -1.49793 -0.48987 0
M  V30 840 C 84.0016 -1.63568 -1.26701 0
M  V30 841 C 84.4166 -0.311465 -1.86213 0
M  V30 842 O 83.7736 0.704416 -1.68357 0
M  V30 843 C 83.8246 -2.71284 -2.38929 0
M  V30 844 O 83.5456 -3.9857 -1.81861 0
M  V30 845 C 85.0466 -2.95864 -3.3012 0
M  V30 846 H 82.2666 -0.550342 -0.383881 0
M  V30 847 H 84.8106 -1.95898 -0.586864 0
M  V30 848 H 82.9656 -2.417 -3.02753 0
M  V30 849 H 83.3796 -4.57993 -2.55622 0
M  V30 850 H 84.8536 -3.74941 -4.05121 0
M  V30 851 H 85.3306 -2.06206 -3.87783 0
M  V30 852 H 85.9366 -3.26907 -2.72051 0
M  V30 853 N 84.2517 0.741722 -1.39055 0
M  V30 854 C 85.4977 1.50336 -1.36113 0
M  V30 855 C 85.8307 1.94148 0.0450796 0
M  V30 856 O 85.1057 1.66301 1.00868 0
M  V30 857 C 85.3887 2.74773 -2.32749 0
M  V30 858 C 85.2417 2.37023 -3.82283 0
M  V30 859 C 86.5607 3.76846 -2.27322 0
M  V30 860 H 83.6797 0.545351 -0.495743 0
M  V30 861 H 86.3217 0.848624 -1.69995 0
M  V30 862 H 84.4717 3.30639 -2.03986 0
M  V30 863 H 86.1437 1.8684 -4.21768 0
M  V30 864 H 84.3867 1.69334 -3.99385 0
M  V30 865 H 85.0577 3.26104 -4.45376 0
M  V30 866 H 87.5337 3.30548 -2.5274 0
M  V30 867 H 86.4097 4.6159 -2.97028 0
M  V30 868 H 86.6707 4.23286 -1.27599 0
M  V30 869 N 85.7298 1.2412 0.971189 0
M  V30 870 C 86.6768 1.0305 2.06517 0
M  V30 871 C 87.6468 -0.0550666 1.66009 0
M  V30 872 O 88.8318 0.0988688 1.90544 0
M  V30 873 C 85.9718 0.637653 3.39158 0
M  V30 874 C 85.0848 1.79633 3.92882 0
M  V30 875 C 84.2198 1.34939 5.13775 0
M  V30 876 C 83.2588 2.47823 5.59687 0
M  V30 877 N 82.3958 2.04022 6.71803 0
M  V30 878 H 87.2358 1.96685 2.23873 0
M  V30 879 H 84.7728 0.979694 1.09729 0
M  V30 880 H 86.7308 0.390931 4.15364 0
M  V30 881 H 85.3608 -0.261693 3.21737 0
M  V30 882 H 84.4128 2.15681 3.13346 0
M  V30 883 H 85.7248 2.64466 4.22918 0
M  V30 884 H 84.8788 1.06134 5.97345 0
M  V30 885 H 83.6178 0.471557 4.85415 0
M  V30 886 H 82.6228 2.77392 4.74693 0
M  V30 887 H 83.8478 3.36158 5.90063 0
M  V30 888 H 81.7938 1.18632 6.45184 0
M  V30 889 H 81.7108 2.82409 7.01271 0
M  V30 890 H 82.9788 1.78347 7.58823 0
M  V30 891 N 87.2079 -1.17134 1.05439 0
M  V30 892 C 88.1559 -2.23289 0.651511 0
M  V30 893 C 89.1499 -1.66186 -0.328411 0
M  V30 894 O 90.3559 -1.78949 -0.194206 0
M  V30 895 H 86.7309 -0.726938 0.192523 0
M  V30 896 H 88.7019 -2.54565 1.55689 0
M  V30 897 C 87.4509 -3.47671 0.0448436 0
M  V30 898 H 86.7739 -3.91918 0.78996 0
M  V30 899 H 88.2139 -4.2353 -0.19964 0
M  V30 900 C 86.6729 -3.14453 -1.20918 0
M  V30 901 O 87.2029 -3.29459 -2.29825 0
M  V30 902 N 85.4089 -2.68657 -1.10779 0
M  V30 903 H 84.9559 -2.56646 -0.221526 0
M  V30 904 H 84.9139 -2.46804 -1.9477 0
M  V30 905 N 88.686 -0.835752 -1.33615 0
M  V30 906 C 89.916 -0.442701 -2.01801 0
M  V30 907 C 90.324 0.959807 -1.63047 0
M  V30 908 O 89.667 1.63468 -0.838088 0
M  V30 909 C 89.729 -0.480125 -3.56279 0
M  V30 910 C 89.393 -1.8382 -4.18401 0
M  V30 911 C 90.39 -2.80097 -4.37998 0
M  V30 912 C 88.075 -2.13019 -4.54894 0
M  V30 913 C 90.069 -4.03736 -4.9323 0
M  V30 914 C 87.756 -3.36916 -5.09834 0
M  V30 915 C 88.754 -4.32091 -5.28948 0
M  V30 916 O 88.442 -5.53797 -5.82721 0
M  V30 917 H 88.174 -0.17441 -0.653114 0
M  V30 918 H 90.728 -1.129 -1.71589 0
M  V30 919 H 88.958 0.262931 -3.85805 0
M  V30 920 H 90.647 -0.105335 -4.05763 0
M  V30 921 H 91.413 -2.58838 -4.10156 0
M  V30 922 H 87.292 -1.39733 -4.39313 0
M  V30 923 H 90.836 -4.78034 -5.08064 0
M  V30 924 H 86.733 -3.58033 -5.37106 0
M  V30 925 H 87.501 -5.55494 -6.0114 0
M  V30 926 N 90.1641 1.46063 -0.591896 0
M  V30 927 C 91.0741 2.34192 0.13831 0
M  V30 928 C 92.0901 1.50305 0.876608 0
M  V30 929 O 93.2661 1.8315 0.837728 0
M  V30 930 C 90.3311 3.27656 1.13326 0
M  V30 931 C 89.3921 4.27445 0.39863 0
M  V30 932 C 88.6251 5.16443 1.34618 0
M  V30 933 O 88.8481 5.08553 2.58321 0
M  V30 934 O 87.7821 5.95843 0.851768 0
M  V30 935 H 91.6081 2.98002 -0.58552 0
M  V30 936 H 89.1931 1.45188 -0.352239 0
M  V30 937 H 91.0751 3.85291 1.70671 0
M  V30 938 H 89.7501 2.6643 1.83839 0
M  V30 939 H 88.6571 3.73471 -0.216895 0
M  V30 940 H 89.9901 4.91482 -0.265709 0
M  V30 941 N 91.6422 0.330177 1.54103 0
M  V30 942 C 92.8702 -0.272179 2.05102 0
M  V30 943 C 93.2852 -1.45267 1.20595 0
M  V30 944 O 92.6422 -1.8094 0.238144 0
M  V30 945 C 92.6932 -0.70023 3.54653 0
M  V30 946 O 92.4142 0.433301 4.35952 0
M  V30 947 C 93.9152 -1.3647 4.21771 0
M  V30 948 H 91.1352 -0.0549159 0.668749 0
M  V30 949 H 93.6792 0.478285 1.98828 0
M  V30 950 H 91.8342 -1.40066 3.61193 0
M  V30 951 H 92.2482 0.0947539 5.24414 0
M  V30 952 H 93.7222 -1.61509 5.27843 0
M  V30 953 H 94.1992 -2.31409 3.73292 0
M  V30 954 H 94.8052 -0.706675 4.19388 0
M  V30 955 N 93.1203 -1.57491 0.0584922 0
M  V30 956 C 94.0833 -2.1085 -0.898617 0
M  V30 957 C 95.0833 -1.02964 -1.23511 0
M  V30 958 O 96.2733 -1.29007 -1.17059 0
M  V30 959 C 93.4053 -2.59881 -2.20623 0
M  V30 960 H 94.5983 -2.96715 -0.435936 0
M  V30 961 H 92.1513 -1.55141 -0.190023 0
M  V30 962 H 92.8863 -1.77431 -2.71457 0
M  V30 963 H 92.6713 -3.38727 -1.97501 0
M  V30 964 H 94.1613 -3.01285 -2.89166 0
M  V30 965 N 94.5984 0.214957 -1.56127 0
M  V30 966 C 95.8444 0.939762 -1.79712 0
M  V30 967 C 96.1774 1.83723 -0.629247 0
M  V30 968 O 95.4524 1.90925 0.371197 0
M  V30 969 C 95.7354 1.77306 -3.13424 0
M  V30 970 C 95.5884 0.90164 -4.40671 0
M  V30 971 C 96.9074 2.74956 -3.43638 0
M  V30 972 H 94.0264 0.340214 -0.653776 0
M  V30 973 H 96.6684 0.20824 -1.88855 0
M  V30 974 H 94.8184 2.39673 -3.0576 0
M  V30 975 H 96.4904 0.294206 -4.60361 0
M  V30 976 H 94.7334 0.207368 -4.33304 0
M  V30 977 H 95.4044 1.51923 -5.30682 0
M  V30 978 H 97.8804 2.22724 -3.51473 0
M  V30 979 H 96.7564 3.30358 -4.38355 0
M  V30 980 H 97.0174 3.53023 -2.66134 0
M  V30 981 N 96.0765 1.50051 0.48192 0
M  V30 982 C 97.0085 1.64263 1.59844 0
M  V30 983 C 98.0215 0.52451 1.54119 0
M  V30 984 O 99.2105 0.797293 1.59704 0
M  V30 985 C 96.3105 1.60102 2.98698 0
M  V30 986 C 95.4835 2.87767 3.29407 0
M  V30 987 C 94.5425 2.76397 4.47762 0
M  V30 988 O 93.5685 3.50348 4.48603 0
M  V30 989 N 94.7705 1.89222 5.48794 0
M  V30 990 H 97.5355 2.60566 1.48073 0
M  V30 991 H 95.0965 1.47379 0.670149 0
M  V30 992 H 97.0885 1.50123 3.75826 0
M  V30 993 H 95.6585 0.715798 3.04294 0
M  V30 994 H 94.8785 3.11954 2.40994 0
M  V30 995 H 96.1665 3.72365 3.4673 0
M  V30 996 H 95.5645 1.28434 5.50928 0
M  V30 997 H 94.1215 1.85154 6.24949 0
M  V30 998 N 97.5546 -0.734337 1.39446 0
M  V30 999 C 98.8016 -1.49391 1.36706 0
M  V30 1000 C 99.1296 -1.94465 -0.0367813 0
M  V30 1001 O 98.3846 -1.67154 -1.01774 0
M  V30 1002 C 98.6836 -2.74711 2.28623 0
M  V30 1003 C 98.3496 -2.48501 3.76242 0
M  V30 1004 C 97.0116 -2.41062 4.16464 0
M  V30 1005 C 99.3636 -2.26098 4.69606 0
M  V30 1006 C 96.6916 -2.09262 5.48112 0
M  V30 1007 C 99.0436 -1.95814 6.01531 0
M  V30 1008 C 97.7076 -1.86845 6.40816 0
M  V30 1009 H 96.9776 -0.546661 0.500243 0
M  V30 1010 H 99.6246 -0.842788 1.71957 0
M  V30 1011 H 97.9296 -3.44569 1.86492 0
M  V30 1012 H 99.6266 -3.32741 2.23796 0
M  V30 1013 H 96.2166 -2.55169 3.44364 0
M  V30 1014 H 100.401 -2.30812 4.39363 0
M  V30 1015 H 95.6566 -2.00841 5.77471 0
M  V30 1016 H 99.8306 -1.77488 6.73403 0
M  V30 1017 H 97.4576 -1.6197 7.42745 0
M  V30 1018 N 99.0327 -1.24633 -0.964593 0
M  V30 1019 C 100.273 -1.09981 -1.72289 0
M  V30 1020 C 100.637 0.354792 -1.88693 0
M  V30 1021 O 101.838 0.62289 -2.61483 0
M  V30 1022 C 100.109 -1.82262 -3.07434 0
M  V30 1023 S 101.668 -1.83379 -3.98645 0
M  V30 1024 H 98.4857 -0.393292 -0.59232 0
M  V30 1025 H 101.088 -1.58009 -1.15123 0
M  V30 1026 H 99.7917 -2.87206 -2.93157 0
M  V30 1027 H 99.3227 -1.3458 -3.69664 0
M  V30 1028 H 101.338 -0.903691 -4.87901 0
M  V30 1029 N 100.511 1.16574 -1.06058 0
M  V30 1030 C 101.757 1.87565 -0.78683 0
M  V30 1031 C 102.112 1.80012 0.679214 0
M  V30 1032 O 101.405 1.20327 1.49104 0
M  V30 1033 C 101.599 3.36195 -1.21275 0
M  V30 1034 C 101.428 3.58216 -2.71866 0
M  V30 1035 C 100.198 3.7444 -3.39298 0
M  V30 1036 C 102.396 3.57134 -3.70081 0
M  V30 1037 N 100.378 3.84389 -4.78663 0
M  V30 1038 C 101.749 3.73038 -4.9522 0
M  V30 1039 C 103.804 3.40332 -3.63426 0
M  V30 1040 C 102.507 3.73879 -6.14497 0
M  V30 1041 C 104.533 3.42466 -4.82153 0
M  V30 1042 C 103.895 3.58887 -6.06118 0
M  V30 1043 H 99.9938 0.704081 -0.340284 0
M  V30 1044 H 102.578 1.39885 -1.35426 0
M  V30 1045 H 100.749 3.82522 -0.673179 0
M  V30 1046 H 102.481 3.94839 -0.887917 0
M  V30 1047 H 99.2358 3.74662 -2.89699 0
M  V30 1048 H 99.6598 3.93138 -5.51155 0
M  V30 1049 H 104.302 3.26566 -2.68541 0
M  V30 1050 H 102.02 3.86427 -7.09718 0
M  V30 1051 H 105.606 3.30712 -4.78666 0
M  V30 1052 H 104.486 3.60454 -6.9645 0
M  V30 1053 N 101.989 0.842826 1.3317 0
M  V30 1054 C 102.937 0.267495 2.31057 0
M  V30 1055 C 103.931 -0.602682 1.58316 0
M  V30 1056 O 105.137 -0.491803 1.73151 0
M  V30 1057 H 101.512 0.0677813 0.748939 0
M  V30 1058 H 103.483 1.10754 2.77085 0
M  V30 1059 C 102.232 -0.539331 3.43492 0
M  V30 1060 H 101.555 0.12095 3.99617 0
M  V30 1061 H 102.995 -0.90767 4.14171 0
M  V30 1062 C 101.454 -1.71981 2.89697 0
M  V30 1063 O 101.984 -2.81862 2.86211 0
M  V30 1064 N 100.19 -1.54299 2.46252 0
M  V30 1065 H 99.7369 -0.649143 2.49287 0
M  V30 1066 H 99.6949 -2.33431 2.10612 0
M  V30 1067 N 103.467 -1.45747 0.599634 0
M  V30 1068 C 104.417 -2.27538 -0.145107 0
M  V30 1069 C 105.401 -1.3686 -0.846055 0
M  V30 1070 O 106.593 -1.6091 -0.737357 0
M  V30 1071 C 103.722 -3.23569 -1.14708 0
M  V30 1072 C 102.808 -4.21734 -0.447383 0
M  V30 1073 N 103.199 -5.03257 0.506535 0
M  V30 1074 C 101.497 -4.40536 -0.695966 0
M  V30 1075 C 102.198 -5.74426 0.917068 0
M  V30 1076 N 101.174 -5.42966 0.26253 0
M  V30 1077 H 104.976 -2.87965 0.587672 0
M  V30 1078 H 102.49 -1.56803 0.422697 0
M  V30 1079 H 104.487 -3.8089 -1.69495 0
M  V30 1080 H 103.147 -2.64702 -1.8805 0
M  V30 1081 H 104.158 -5.10319 0.882899 0
M  V30 1082 H 100.835 -3.92802 -1.41467 0
M  V30 1083 H 102.225 -6.4995 1.70338 0
M  V30 1084 N 104.945 -0.338344 -1.53925 0
M  V30 1085 C 106.175 0.260919 -2.04946 0
M  V30 1086 C 106.583 1.45174 -1.2133 0
M  V30 1087 O 105.926 1.82122 -0.240262 0
M  V30 1088 C 105.988 0.744596 -3.51704 0
M  V30 1089 C 105.652 -0.325883 -4.55837 0
M  V30 1090 C 106.649 -1.16687 -5.06636 0
M  V30 1091 C 104.334 -0.478317 -5.00017 0
M  V30 1092 C 106.328 -2.14588 -6.00192 0
M  V30 1093 C 104.015 -1.46073 -5.93385 0
M  V30 1094 C 105.013 -2.29297 -6.4336 0
M  V30 1095 O 104.701 -3.25867 -7.34892 0
M  V30 1096 H 104.433 0.0551207 -0.673749 0
M  V30 1097 H 106.987 -0.486984 -1.99544 0
M  V30 1098 H 105.217 1.54366 -3.54553 0
M  V30 1099 H 106.906 1.26383 -3.85723 0
M  V30 1100 H 107.672 -1.06016 -4.73271 0
M  V30 1101 H 103.551 0.159613 -4.60724 0
M  V30 1102 H 107.095 -2.79585 -6.39123 0
M  V30 1103 H 102.992 -1.56802 -6.26166 0
M  V30 1104 H 103.76 -3.21278 -7.5281 0
M  V30 1105 N 106.423 1.57458 -0.0668435 0
M  V30 1106 C 107.37 2.12439 0.902122 0
M  V30 1107 C 108.34 1.03565 1.2986 0
M  V30 1108 O 109.525 1.312 1.38532 0
M  V30 1109 C 106.665 2.6865 2.16614 0
M  V30 1110 C 105.778 3.91663 1.82274 0
M  V30 1111 C 104.913 4.36134 3.0325 0
M  V30 1112 C 103.952 5.51808 2.64904 0
M  V30 1113 N 103.089 5.9126 3.78624 0
M  V30 1114 H 107.929 2.94934 0.426382 0
M  V30 1115 H 105.466 1.4575 0.198819 0
M  V30 1116 H 107.424 2.99346 2.90599 0
M  V30 1117 H 106.054 1.88928 2.61737 0
M  V30 1118 H 105.106 3.6746 0.983719 0
M  V30 1119 H 106.418 4.75693 1.50059 0
M  V30 1120 H 105.572 4.68465 3.85519 0
M  V30 1121 H 104.311 3.50948 3.38655 0
M  V30 1122 H 103.316 5.19133 1.81055 0
M  V30 1123 H 104.541 6.38722 2.30675 0
M  V30 1124 H 102.487 5.09024 4.138 0
M  V30 1125 H 102.404 6.70018 3.5016 0
M  V30 1126 H 103.672 6.28212 4.61486 0
M  V30 1127 N 107.901 -0.206675 1.56239 0
M  V30 1128 C 109.178 -0.954051 1.70755 0
M  V30 1129 C 109.558 -2.01841 0.618353 0
M  V30 1130 O 108.906 -2.25444 -0.372434 0
M  V30 1131 C 109.116 -1.551 3.12642 0
M  V30 1132 C 110.464 -2.03757 3.72516 0
M  V30 1133 O 111.488 -1.64965 3.15698 0
M  V30 1134 O 110.347 -2.75103 4.72208 0
M  V30 1135 H 107.441 -0.446636 0.696021 0
M  V30 1136 H 109.987 -0.197283 1.68549 0
M  V30 1137 H 108.759 -0.783212 3.83382 0
M  V30 1138 H 108.382 -2.37291 3.19028 0
M  V30 1139 N 109.379 -1.50304 -0.473955 0
M  V30 1140 C 110.311 -1.65109 -1.58971 0
M  V30 1141 C 111.324 -0.532676 -1.53839 0
M  V30 1142 O 112.513 -0.805751 -1.59279 0
M  V30 1143 C 109.613 -1.61684 -2.97845 0
M  V30 1144 C 108.786 -2.8951 -3.27876 0
M  V30 1145 C 107.845 -2.78768 -4.4629 0
M  V30 1146 O 106.871 -3.52722 -4.46739 0
M  V30 1147 N 108.073 -1.9213 -5.47783 0
M  V30 1148 H 110.838 -2.61347 -1.46689 0
M  V30 1149 H 108.399 -1.47732 -0.662324 0
M  V30 1150 H 110.391 -1.52114 -3.75024 0
M  V30 1151 H 108.961 -0.731925 -3.03911 0
M  V30 1152 H 108.181 -3.13228 -2.39336 0
M  V30 1153 H 109.469 -3.74199 -3.4475 0
M  V30 1154 H 108.867 -1.31353 -5.50239 0
M  V30 1155 H 107.424 -1.88466 -6.23958 0
M  V30 1156 N 110.857 0.726932 -1.39834 0
M  V30 1157 C 111.79 1.8501 -1.33592 0
M  V30 1158 C 112.768 1.61262 -0.208191 0
M  V30 1159 O 113.952 1.84422 -0.389981 0
M  V30 1160 C 111.079 3.21143 -1.07633 0
M  V30 1161 C 110.125 3.63737 -2.22705 0
M  V30 1162 S 110.958 3.72167 -3.85035 0
M  V30 1163 C 112.114 5.11077 -3.61318 0
M  V30 1164 H 112.347 1.90022 -2.28646 0
M  V30 1165 H 109.88 0.892595 -1.25985 0
M  V30 1166 H 111.838 3.99747 -0.933415 0
M  V30 1167 H 110.499 3.13776 -0.142526 0
M  V30 1168 H 109.692 4.62551 -2.00155 0
M  V30 1169 H 109.294 2.9236 -2.33242 0
M  V30 1170 H 111.586 5.97656 -3.19083 0
M  V30 1171 H 112.529 5.38658 -4.59623 0
M  V30 1172 H 112.937 4.81135 -2.95245 0
M  V30 1173 N 112.336 1.25143 0.95797 0
M  V30 1174 C 113.613 1.00472 1.67823 0
M  V30 1175 C 113.993 -0.470056 2.058 0
M  V30 1176 O 113.341 -1.44663 1.76875 0
M  V30 1177 C 113.551 1.9372 2.90299 0
M  V30 1178 C 114.899 2.21371 3.62326 0
M  V30 1179 O 115.923 1.91451 3.00375 0
M  V30 1180 O 114.782 2.72231 4.7387 0
M  V30 1181 H 111.876 0.380752 0.734137 0
M  V30 1182 H 114.422 1.36283 1.01119 0
M  V30 1183 H 113.194 2.93316 2.59001 0
M  V30 1184 H 112.817 1.58286 3.64735 0
M  V30 1185 N 113.814 -1.1601 1.06675 0
M  V30 1186 C 115.225 -1.68235 0.809565 0
M  V30 1187 C 115.576 -1.8454 -0.666303 0
M  V30 1188 O 114.701 -1.54374 -1.5165 0
M  V30 1189 C 115.296 -3.05585 1.46299 0
M  V30 1190 C 113.855 -3.54915 1.25349 0
M  V30 1191 C 113.002 -2.30804 1.53703 0
M  V30 1192 H 115.953 -1.00318 1.22971 0
M  V30 1193 H 115.974 -3.70174 0.880431 0
M  V30 1194 H 115.486 -2.93686 2.53713 0
M  V30 1195 H 113.587 -3.72067 0.199261 0
M  V30 1196 H 113.7 -4.36774 1.9689 0
M  V30 1197 H 112.064 -2.36007 0.957739 0
M  V30 1198 H 112.847 -2.21499 2.62284 0
M  V30 1199 N 115.292 -0.849877 -1.32721 0
M  V30 1200 C 116.541 -0.447175 -1.96681 0
M  V30 1201 C 116.854 1.00135 -1.68025 0
M  V30 1202 O 118.06 1.50926 -2.25685 0
M  V30 1203 C 116.516 -0.7487 -3.52026 0
M  V30 1204 C 116.124 -2.21264 -3.89546 0
M  V30 1205 C 117.868 -0.413487 -4.22481 0
M  V30 1206 C 115.775 -2.45763 -5.37917 0
M  V30 1207 H 114.705 -0.163486 -0.736063 0
M  V30 1208 H 117.356 -1.03999 -1.51183 0
M  V30 1209 H 115.738 -0.0853727 -3.95908 0
M  V30 1210 H 116.912 -2.91736 -3.56689 0
M  V30 1211 H 115.227 -2.5119 -3.32103 0
M  V30 1212 H 117.824 -0.574017 -5.3161 0
M  V30 1213 H 118.167 0.644492 -4.11281 0
M  V30 1214 H 118.7 -1.03251 -3.84167 0
M  V30 1215 H 115.439 -3.50168 -5.54132 0
M  V30 1216 H 114.959 -1.79864 -5.72197 0
M  V30 1217 H 116.638 -2.29471 -6.0494 0
M  V30 1218 N 116.77 1.45427 -0.607355 0
M  V30 1219 C 117.68 2.34325 0.113463 0
M  V30 1220 C 118.696 1.51226 0.860617 0
M  V30 1221 O 119.872 1.84029 0.818255 0
M  V30 1222 C 116.937 3.28839 1.09844 0
M  V30 1223 C 115.998 4.27844 0.353271 0
M  V30 1224 C 115.231 5.17842 1.29133 0
M  V30 1225 O 115.454 5.11264 2.52913 0
M  V30 1226 O 114.388 5.96713 0.788523 0
M  V30 1227 H 118.214 2.97364 -0.617094 0
M  V30 1228 H 115.799 1.44807 -0.367619 0
M  V30 1229 H 117.681 3.8708 1.66575 0
M  V30 1230 H 116.356 2.68365 1.81003 0
M  V30 1231 H 115.263 3.7322 -0.256494 0
M  V30 1232 H 116.596 4.91173 -0.317822 0
M  V30 1233 N 118.248 0.346503 1.53744 0
M  V30 1234 C 119.195 -0.508914 2.25119 0
M  V30 1235 C 120.165 -1.09315 1.25058 0
M  V30 1236 O 121.35 -1.12921 1.53797 0
M  V30 1237 C 118.49 -1.65246 3.02965 0
M  V30 1238 C 117.603 -1.09525 4.17886 0
M  V30 1239 C 116.738 -2.20634 4.83212 0
M  V30 1240 C 115.777 -1.62279 5.90196 0
M  V30 1241 N 114.914 -2.67143 6.49291 0
M  V30 1242 H 119.754 0.106283 2.9781 0
M  V30 1243 H 117.291 0.0642227 1.4696 0
M  V30 1244 H 119.249 -2.32574 3.4636 0
M  V30 1245 H 117.879 -2.2386 2.32565 0
M  V30 1246 H 116.931 -0.312818 3.79112 0
M  V30 1247 H 118.243 -0.628444 4.94825 0
M  V30 1248 H 117.397 -2.95821 5.29693 0
M  V30 1249 H 116.136 -2.70659 4.05703 0
M  V30 1250 H 115.141 -0.855989 5.43096 0
M  V30 1251 H 116.366 -1.13102 6.69615 0
M  V30 1252 H 114.312 -3.16417 5.74645 0
M  V30 1253 H 114.229 -2.25093 7.21713 0
M  V30 1254 H 115.497 -3.4209 7.00425 0
M  V30 1255 N 119.726 -1.57421 0.075193 0
M  V30 1256 C 121.003 -1.85029 -0.634329 0
M  V30 1257 C 121.383 -0.968305 -1.87582 0
M  V30 1258 O 120.731 -0.0354749 -2.28472 0
M  V30 1259 C 120.941 -3.35286 -0.968742 0
M  V30 1260 C 122.289 -4.02875 -1.34077 0
M  V30 1261 O 123.313 -3.40051 -1.06037 0
M  V30 1262 O 122.172 -5.13691 -1.86506 0
M  V30 1263 H 119.266 -0.7645 -0.315387 0
M  V30 1264 H 121.812 -1.69366 0.106382 0
M  V30 1265 H 120.584 -3.91203 -0.0871376 0
M  V30 1266 H 120.207 -3.56223 -1.7661 0
M  V30 1267 N 121.204 0.198386 -1.56346 0
M  V30 1268 C 122.45 0.916115 -1.81601 0
M  V30 1269 C 122.805 1.81025 -0.651744 0
M  V30 1270 O 122.098 1.88316 0.353229 0
M  V30 1271 C 122.292 1.77031 -3.10475 0
M  V30 1272 C 122.121 0.960365 -4.39326 0
M  V30 1273 C 120.891 0.646093 -5.01152 0
M  V30 1274 C 123.089 0.314628 -5.13337 0
M  V30 1275 N 121.071 -0.182828 -6.13628 0
M  V30 1276 C 122.442 -0.37664 -6.18855 0
M  V30 1277 C 124.497 0.230019 -4.97368 0
M  V30 1278 C 123.2 -1.14445 -7.10137 0
M  V30 1279 C 125.226 -0.524389 -5.89071 0
M  V30 1280 C 124.588 -1.20412 -6.94032 0
M  V30 1281 H 120.687 0.314732 -0.715868 0
M  V30 1282 H 123.271 0.185102 -1.93818 0
M  V30 1283 H 121.442 2.47295 -2.99499 0
M  V30 1284 H 123.174 2.42727 -3.2383 0
M  V30 1285 H 119.929 0.969724 -4.63566 0
M  V30 1286 H 120.353 -0.586802 -6.74452 0
M  V30 1287 H 124.995 0.741184 -4.16253 0
M  V30 1288 H 122.713 -1.66706 -7.90718 0
M  V30 1289 H 126.299 -0.591167 -5.78789 0
M  V30 1290 H 125.179 -1.77853 -7.63766 0
M  V30 1291 N 122.682 1.50554 0.465978 0
M  V30 1292 C 123.922 1.63439 1.22747 0
M  V30 1293 C 124.286 0.329822 1.89146 0
M  V30 1294 O 125.487 0.334161 2.66715 0
M  V30 1295 C 123.758 2.78542 2.2394 0
M  V30 1296 S 125.317 3.11591 3.0896 0
M  V30 1297 H 122.135 0.576113 0.416672 0
M  V30 1298 H 124.737 1.88357 0.523641 0
M  V30 1299 H 123.441 3.71805 1.7375 0
M  V30 1300 H 122.972 2.55726 2.98944 0
M  V30 1301 H 124.987 2.55811 4.25176 0
M  V30 1302 N 124.16 -0.719506 1.40217 0
M  V30 1303 C 125.437 -1.47221 1.28784 0
M  V30 1304 C 125.817 -2.10883 -0.0956067 0
M  V30 1305 O 125.165 -1.99833 -1.10811 0
M  V30 1306 C 125.375 -2.5111 2.42373 0
M  V30 1307 C 126.723 -3.17053 2.82423 0
M  V30 1308 O 127.747 -2.61429 2.41937 0
M  V30 1309 O 126.606 -4.17742 3.52355 0
M  V30 1310 H 123.7 -0.654491 0.50554 0
M  V30 1311 H 126.246 -0.752014 1.52128 0
M  V30 1312 H 125.018 -2.02556 3.34793 0
M  V30 1313 H 124.641 -3.3067 2.20778 0
M  V30 1314 N 125.638 -1.25649 -0.95132 0
M  V30 1315 C 126.884 -1.11766 -1.69941 0
M  V30 1316 C 127.239 0.33735 -1.89419 0
M  V30 1317 O 126.532 1.24491 -1.45645 0
M  V30 1318 C 126.726 -1.80909 -3.08231 0
M  V30 1319 C 126.555 -3.32984 -3.02245 0
M  V30 1320 C 125.325 -4.02247 -3.05819 0
M  V30 1321 C 127.523 -4.29332 -2.83157 0
M  V30 1322 N 125.505 -5.41072 -2.90024 0
M  V30 1323 C 126.876 -5.55265 -2.75828 0
M  V30 1324 C 128.931 -4.19707 -2.67863 0
M  V30 1325 C 127.634 -6.72671 -2.54767 0
M  V30 1326 C 129.66 -5.36809 -2.48173 0
M  V30 1327 C 129.022 -6.61683 -2.41567 0
M  V30 1328 H 125.121 -0.463708 -0.629682 0
M  V30 1329 H 127.705 -1.58796 -1.12659 0
M  V30 1330 H 125.876 -1.36369 -3.63673 0
M  V30 1331 H 127.608 -1.59739 -3.71841 0
M  V30 1332 H 124.363 -3.53531 -3.15139 0
M  V30 1333 H 124.787 -6.13938 -2.85323 0
M  V30 1334 H 129.429 -3.23907 -2.71743 0
M  V30 1335 H 127.147 -7.68577 -2.49629 0
M  V30 1336 H 130.733 -5.31224 -2.37259 0
M  V30 1337 H 129.613 -7.50768 -2.26531 0
M  V30 1338 N 127.117 1.15442 -1.07289 0
M  V30 1339 C 128.08 2.18358 -0.696591 0
M  V30 1340 C 129.08 1.58637 0.262837 0
M  V30 1341 O 130.27 1.74145 0.0438809 0
M  V30 1342 C 127.402 3.4089 -0.0266151 0
M  V30 1343 H 128.595 2.53162 -1.60776 0
M  V30 1344 H 126.148 1.29893 -0.869342 0
M  V30 1345 H 126.883 3.11653 0.896822 0
M  V30 1346 H 126.668 3.85495 -0.716657 0
M  V30 1347 H 128.158 4.17009 0.222028 0
M  V30 1348 N 128.595 0.856903 1.32268 0
M  V30 1349 C 129.528 0.247937 2.26849 0
M  V30 1350 C 130.506 -0.615382 1.50505 0
M  V30 1351 O 131.69 -0.571689 1.79622 0
M  V30 1352 C 128.817 -0.650093 3.32403 0
M  V30 1353 C 127.863 0.140138 4.2627 0
M  V30 1354 S 128.696 1.51004 5.13769 0
M  V30 1355 C 129.852 0.61778 6.22844 0
M  V30 1356 H 130.085 1.04971 2.78152 0
M  V30 1357 H 127.618 0.654665 1.39834 0
M  V30 1358 H 129.576 -1.16256 3.93694 0
M  V30 1359 H 128.237 -1.4257 2.7988 0
M  V30 1360 H 127.43 -0.543945 5.01056 0
M  V30 1361 H 127.032 0.584267 3.69408 0
M  V30 1362 H 129.324 -0.177053 6.77269 0
M  V30 1363 H 130.267 1.33636 6.95375 0
M  V30 1364 H 130.675 0.191124 5.64176 0
M  V30 1365 N 130.073 -1.45103 0.615059 0
M  V30 1366 C 131.322 -2.01396 0.110718 0
M  V30 1367 C 131.635 -1.48834 -1.26916 0
M  V30 1368 O 132.841 -1.97152 -1.86664 0
M  V30 1369 C 131.297 -3.59599 0.14723 0
M  V30 1370 C 130.905 -4.21158 1.52743 0
M  V30 1371 C 132.649 -4.23428 -0.30148 0
M  V30 1372 C 130.556 -5.71535 1.51992 0
M  V30 1373 H 129.486 -0.753061 0.0376241 0
M  V30 1374 H 132.137 -1.66494 0.77149 0
M  V30 1375 H 130.519 -3.91724 -0.580339 0
M  V30 1376 H 131.693 -4.00594 2.2773 0
M  V30 1377 H 130.008 -3.69552 1.91886 0
M  V30 1378 H 132.605 -5.33703 -0.326392 0
M  V30 1379 H 132.948 -3.94629 -1.32565 0
M  V30 1380 H 133.481 -3.96047 0.373065 0
M  V30 1381 H 130.22 -6.05044 2.52193 0
M  V30 1382 H 129.74 -5.94268 0.81274 0
M  V30 1383 H 131.419 -6.34873 1.24681 0
M  V30 1384 N 131.551 -0.354651 -1.53558 0
M  V30 1385 C 132.776 0.242153 -2.05981 0
M  V30 1386 C 133.201 1.42553 -1.2272 0
M  V30 1387 O 132.559 1.79656 -0.243604 0
M  V30 1388 C 132.607 0.624367 -3.55154 0
M  V30 1389 O 131.711 1.72301 -3.74681 0
M  V30 1390 H 131.052 0.0378432 -0.662921 0
M  V30 1391 H 133.582 -0.512087 -1.98088 0
M  V30 1392 H 133.592 0.898433 -3.97985 0
M  V30 1393 H 132.267 -0.240989 -4.15201 0
M  V30 1394 H 130.844 1.44535 -3.4375 0
M  V30 1395 N 133.029 1.57378 -0.0835403 0
M  V30 1396 C 134.445 1.57246 0.273109 0
M  V30 1397 C 134.645 1.09385 1.69225 0
M  V30 1398 O 133.701 0.765051 2.40631 0
M  V30 1399 C 135.014 3.00614 0.0720628 0
M  V30 1400 C 136.562 3.12684 0.1407 0
M  V30 1401 C 137.037 4.57989 -0.0322094 0
M  V30 1402 N 138.528 4.63194 0.0230085 0
M  V30 1403 C 139.263 5.73335 -0.0861941 0
M  V30 1404 N 138.759 6.9235 -0.24958 0
M  V30 1405 N 140.552 5.62093 -0.0282886 0
M  V30 1406 H 132.703 1.86801 -1.0109 0
M  V30 1407 H 134.966 0.861687 -0.395222 0
M  V30 1408 H 134.672 3.39786 -0.907662 0
M  V30 1409 H 134.546 3.68193 0.81936 0
M  V30 1410 H 136.933 2.73391 1.11092 0
M  V30 1411 H 137.014 2.47719 -0.637896 0
M  V30 1412 H 136.658 4.97973 -0.999247 0
M  V30 1413 H 136.588 5.21 0.765937 0
M  V30 1414 H 139.079 3.77613 0.14722 0
M  V30 1415 H 139.392 7.72117 -0.324733 0
M  V30 1416 H 137.737 6.94415 -0.285097 0
M  V30 1417 H 140.928 4.67997 0.0981408 0
M  V30 1418 H 141.101 6.47895 -0.116845 0
M  V30 1419 N 134.507 -0.190092 1.56449 0
M  V30 1420 C 135.918 -0.754312 1.70784 0
M  V30 1421 C 136.269 -1.83631 0.690951 0
M  V30 1422 O 135.394 -2.15868 -0.151604 0
M  V30 1423 C 135.989 -1.37503 3.09642 0
M  V30 1424 C 134.548 -1.88628 3.25725 0
M  V30 1425 C 133.695 -0.758098 2.66736 0
M  V30 1426 H 136.646 0.0350524 1.58661 0
M  V30 1427 H 136.667 -2.2445 3.0725 0
M  V30 1428 H 136.179 -0.587302 3.83631 0
M  V30 1429 H 134.28 -2.70103 2.56661 0
M  V30 1430 H 134.393 -2.04462 4.3328 0
M  V30 1431 H 132.757 -1.17369 2.26046 0
M  V30 1432 H 133.54 0.0174705 3.43296 0
M  V30 1433 N 135.985 -1.50799 -0.457987 0
M  V30 1434 C 137.215 -1.65977 -1.23025 0
M  V30 1435 C 137.623 -0.347918 -1.85974 0
M  V30 1436 O 136.966 0.68148 -1.70592 0
M  V30 1437 C 137.028 -2.70309 -2.3701 0
M  V30 1438 C 136.692 -4.135 -1.94594 0
M  V30 1439 C 137.689 -4.98949 -1.46101 0
M  V30 1440 C 135.374 -4.5949 -2.02915 0
M  V30 1441 C 137.368 -6.28442 -1.06489 0
M  V30 1442 C 135.055 -5.88984 -1.62914 0
M  V30 1443 C 136.053 -6.73286 -1.1478 0
M  V30 1444 O 135.741 -8.00362 -0.75339 0
M  V30 1445 H 135.473 -0.56064 -0.377702 0
M  V30 1446 H 138.027 -1.97857 -0.551537 0
M  V30 1447 H 136.257 -2.337 -3.08093 0
M  V30 1448 H 137.946 -2.74574 -2.98938 0
M  V30 1449 H 138.712 -4.6463 -1.39084 0
M  V30 1450 H 134.591 -3.94009 -2.39328 0
M  V30 1451 H 138.135 -6.94194 -0.688488 0
M  V30 1452 H 134.032 -6.22822 -1.69595 0
M  V30 1453 H 134.8 -8.13744 -0.88108 0
M  V30 1454 N 137.463 0.71206 -1.40597 0
M  V30 1455 C 138.688 1.50617 -1.42581 0
M  V30 1456 C 139.113 1.88079 -0.0282102 0
M  V30 1457 O 138.471 1.53511 0.964579 0
M  V30 1458 C 138.519 2.7557 -2.3258 0
M  V30 1459 O 137.623 3.72414 -1.77148 0
M  V30 1460 H 136.964 0.453966 -0.484573 0
M  V30 1461 H 139.494 0.876649 -1.84868 0
M  V30 1462 H 139.504 3.2406 -2.47889 0
M  V30 1463 H 138.179 2.47639 -3.34138 0
M  V30 1464 H 136.756 3.31276 -1.71204 0
M  V30 1465 N 138.941 1.26152 0.944643 0
M  V30 1466 C 140.169 1.14259 1.72489 0
M  V30 1467 C 140.584 -0.302555 1.8636 0
M  V30 1468 O 139.941 -1.20741 1.36849 0
M  V30 1469 C 139.992 1.80266 3.13347 0
M  V30 1470 O 139.713 3.19133 3.00143 0
M  V30 1471 C 141.214 1.74283 4.07603 0
M  V30 1472 H 138.434 0.398051 0.540181 0
M  V30 1473 H 140.978 1.66706 1.18446 0
M  V30 1474 H 139.133 1.31766 3.64303 0
M  V30 1475 H 139.547 3.51744 3.89071 0
M  V30 1476 H 141.021 2.25111 5.04013 0
M  V30 1477 H 141.498 0.708631 4.33446 0
M  V30 1478 H 142.104 2.22319 3.62567 0
M  V30 1479 N 140.419 -1.14872 1.07899 0
M  V30 1480 C 141.349 -2.2193 0.725887 0
M  V30 1481 C 142.33 -1.67622 -0.28927 0
M  V30 1482 O 143.515 -1.93533 -0.160787 0
M  V30 1483 C 140.645 -3.47061 0.128856 0
M  V30 1484 C 139.599 -4.14363 1.07178 0
M  V30 1485 C 138.925 -5.33636 0.337229 0
M  V30 1486 C 140.225 -4.63492 2.40775 0
M  V30 1487 H 141.919 -2.51724 1.62097 0
M  V30 1488 H 139.465 -1.20991 0.780838 0
M  V30 1489 H 141.418 -4.21199 -0.130147 0
M  V30 1490 H 140.142 -3.16617 -0.80134 0
M  V30 1491 H 138.801 -3.42173 1.3158 0
M  V30 1492 H 138.449 -4.99449 -0.596606 0
M  V30 1493 H 138.149 -5.79609 0.965788 0
M  V30 1494 H 139.673 -6.10539 0.0861567 0
M  V30 1495 H 141.087 -5.2913 2.20669 0
M  V30 1496 H 139.484 -5.20148 2.99276 0
M  V30 1497 H 140.554 -3.78834 3.02676 0
M  V30 1498 N 141.898 -0.863906 -1.31812 0
M  V30 1499 C 143.314 -0.555004 -1.49639 0
M  V30 1500 C 143.514 0.912266 -1.79666 0
M  V30 1501 O 142.57 1.69479 -1.87171 0
M  V30 1502 C 143.883 -1.44998 -2.63431 0
M  V30 1503 C 145.431 -1.45138 -2.77316 0
M  V30 1504 C 145.906 -2.33179 -3.94197 0
M  V30 1505 N 147.397 -2.31025 -4.01474 0
M  V30 1506 C 148.132 -2.95871 -4.9117 0
M  V30 1507 N 147.628 -3.69863 -5.8581 0
M  V30 1508 N 149.421 -2.85211 -4.84367 0
M  V30 1509 H 141.572 -1.81339 -1.10589 0
M  V30 1510 H 143.835 -0.77505 -0.545895 0
M  V30 1511 H 143.541 -2.49377 -2.48 0
M  V30 1512 H 143.415 -1.14409 -3.59431 0
M  V30 1513 H 145.802 -0.415201 -2.92164 0
M  V30 1514 H 145.883 -1.79747 -1.82001 0
M  V30 1515 H 145.527 -3.3687 -3.80107 0
M  V30 1516 H 145.457 -1.95897 -4.88807 0
M  V30 1517 H 147.948 -1.77238 -3.33759 0
M  V30 1518 H 148.261 -4.16486 -6.50968 0
M  V30 1519 H 146.606 -3.73971 -5.85808 0
M  V30 1520 H 149.797 -2.26948 -4.09405 0
M  V30 1521 H 149.97 -3.36027 -5.54066 0
M  V30 1522 N 143.376 1.44774 -0.622745 0
M  V30 1523 C 144.653 1.95522 -0.0551974 0
M  V30 1524 C 145.033 1.5649 1.41683 0
M  V30 1525 O 144.381 0.834848 2.12703 0
M  V30 1526 C 144.591 3.4796 -0.269242 0
M  V30 1527 C 145.939 4.24306 -0.158014 0
M  V30 1528 O 146.963 3.55637 -0.200162 0
M  V30 1529 O 145.822 5.46471 -0.0558693 0
M  V30 1530 H 142.916 0.826556 0.0271015 0
M  V30 1531 H 145.462 1.54866 -0.693864 0
M  V30 1532 H 144.234 3.6939 -1.29099 0
M  V30 1533 H 143.857 3.95543 0.403966 0
M  V30 1534 N 144.854 0.36279 1.53368 0
M  V30 1535 C 146.094 -0.227882 2.03126 0
M  V30 1536 C 146.458 -1.4622 1.24434 0
M  V30 1537 O 147.659 -2.12831 1.64184 0
M  V30 1538 C 145.93 -0.515427 3.53664 0
M  V30 1539 S 147.489 -1.08017 4.25297 0
M  V30 1540 H 144.307 -0.0665377 0.70788 0
M  V30 1541 H 146.909 0.50501 1.88865 0
M  V30 1542 H 145.613 0.390436 4.08539 0
M  V30 1543 H 145.144 -1.27747 3.72081 0
M  V30 1544 H 147.159 -2.36462 4.36234 0
M  V30 1545 N 146.332 -1.57332 0.0918853 0
M  V30 1546 C 147.262 -2.16872 -0.865371 0
M  V30 1547 C 148.243 -1.10118 -1.29646 0
M  V30 1548 O 149.428 -1.38242 -1.36392 0
M  V30 1549 C 146.558 -2.74649 -2.12569 0
M  V30 1550 C 145.512 -3.86747 -1.83333 0
M  V30 1551 C 144.838 -4.31212 -3.16166 0
M  V30 1552 C 146.138 -5.10089 -1.1228 0
M  V30 1553 H 147.832 -2.97114 -0.369307 0
M  V30 1554 H 145.378 -1.42918 -0.176194 0
M  V30 1555 H 147.331 -3.14952 -2.7997 0
M  V30 1556 H 146.055 -1.91657 -2.64452 0
M  V30 1557 H 144.714 -3.46978 -1.18331 0
M  V30 1558 H 144.362 -3.45115 -3.6593 0
M  V30 1559 H 144.062 -5.06788 -2.97388 0
M  V30 1560 H 145.586 -4.74146 -3.84731 0
M  V30 1561 H 147 -5.47582 -1.69785 0
M  V30 1562 H 145.397 -5.91073 -1.03693 0
M  V30 1563 H 146.467 -4.84786 -0.105041 0
M  V30 1564 N 147.81 0.181792 -1.56548 0
M  V30 1565 C 148.72 1.24538 -1.98815 0
M  V30 1566 C 149.736 1.49045 -0.897861 0
M  V30 1567 O 150.912 1.61399 -1.20467 0
M  V30 1568 C 147.977 2.56683 -2.33055 0
M  V30 1569 C 147.038 2.40131 -3.55859 0
M  V30 1570 C 146.271 3.65975 -3.88456 0
M  V30 1571 O 146.494 4.70711 -3.22161 0
M  V30 1572 O 145.428 3.6071 -4.81842 0
M  V30 1573 H 149.254 0.916647 -2.89536 0
M  V30 1574 H 146.839 0.387842 -1.44278 0
M  V30 1575 H 148.721 3.34655 -2.56094 0
M  V30 1576 H 147.396 2.89157 -1.45498 0
M  V30 1577 H 146.303 1.60226 -3.38051 0
M  V30 1578 H 147.636 2.12585 -4.43924 0
M  V30 1579 N 149.288 1.51039 0.449983 0
M  V30 1580 C 150.238 1.67824 1.54335 0
M  V30 1581 C 151.222 0.5324 1.51836 0
M  V30 1582 O 152.414 0.787762 1.58503 0
M  V30 1583 C 149.543 1.7951 2.92628 0
M  V30 1584 C 148.629 2.99838 2.9993 0
M  V30 1585 N 149.02 4.23207 2.77001 0
M  V30 1586 C 147.318 2.98832 3.31082 0
M  V30 1587 C 148.019 5.04361 2.89818 0
M  V30 1588 N 146.995 4.38746 3.2094 0
M  V30 1589 H 150.797 2.60884 1.35339 0
M  V30 1590 H 148.311 1.48513 0.657085 0
M  V30 1591 H 150.308 1.89642 3.7127 0
M  V30 1592 H 148.968 0.876227 3.12654 0
M  V30 1593 H 149.979 4.5236 2.52172 0
M  V30 1594 H 146.656 2.16527 3.56963 0
M  V30 1595 H 148.046 6.12528 2.76151 0
M  V30 1596 N 150.766 -0.704594 1.40972 0
M  V30 1597 C 152.013 -1.46458 1.39844 0
M  V30 1598 C 152.341 -1.94499 0.00447594 0
M  V30 1599 O 151.596 -1.69275 -0.982057 0
M  V30 1600 C 151.895 -2.698 2.34399 0
M  V30 1601 C 151.561 -2.40464 3.81429 0
M  V30 1602 C 150.223 -2.32174 4.21484 0
M  V30 1603 C 152.575 -2.16086 4.74296 0
M  V30 1604 C 149.903 -1.97589 5.52427 0
M  V30 1605 C 152.255 -1.83011 6.05549 0
M  V30 1606 C 150.919 -1.7321 6.44635 0
M  V30 1607 H 150.189 -0.535927 0.511725 0
M  V30 1608 H 152.836 -0.806124 1.73706 0
M  V30 1609 H 151.141 -3.40536 1.93759 0
M  V30 1610 H 152.838 -3.27919 2.30804 0
M  V30 1611 H 149.428 -2.47808 3.49699 0
M  V30 1612 H 153.612 -2.2144 4.4416 0
M  V30 1613 H 148.868 -1.88547 5.81601 0
M  V30 1614 H 153.042 -1.63164 6.77016 0
M  V30 1615 H 150.669 -1.46179 7.46013 0
M  V30 1616 N 152.244 -1.26651 -0.937939 0
M  V30 1617 C 153.207 -1.08546 -2.01867 0
M  V30 1618 C 154.207 -0.0327327 -1.60767 0
M  V30 1619 O 155.397 -0.276427 -1.71993 0
M  V30 1620 C 152.529 -0.651711 -3.34613 0
M  V30 1621 H 153.722 -2.04502 -2.1936 0
M  V30 1622 H 151.275 -1.09294 -1.11734 0
M  V30 1623 H 152.01 0.309696 -3.22818 0
M  V30 1624 H 151.795 -1.41189 -3.65798 0
M  V30 1625 H 153.285 -0.546973 -4.14002 0
M  V30 1626 N 153.722 1.14298 -1.08507 0
M  V30 1627 C 154.632 2.23027 -0.727753 0
M  V30 1628 C 155.648 1.71952 0.26619 0
M  V30 1629 O 156.824 2.011 0.109882 0
M  V30 1630 C 153.889 3.46403 -0.143541 0
M  V30 1631 C 152.95 4.12413 -1.19223 0
M  V30 1632 C 152.183 5.29899 -0.635798 0
M  V30 1633 O 152.406 5.67796 0.544393 0
M  V30 1634 O 151.34 5.85717 -1.38634 0
M  V30 1635 H 155.166 2.55945 -1.63481 0
M  V30 1636 H 152.751 1.22248 -0.858817 0
M  V30 1637 H 154.633 4.21018 0.179404 0
M  V30 1638 H 153.308 3.15206 0.736659 0
M  V30 1639 H 152.215 3.39667 -1.56772 0
M  V30 1640 H 153.548 4.47718 -2.04474 0
M  V30 1641 N 155.201 0.870884 1.31352 0
M  V30 1642 C 156.131 0.343096 2.30966 0
M  V30 1643 C 157.112 -0.566507 1.60389 0
M  V30 1644 O 158.297 -0.483336 1.88089 0
M  V30 1645 C 155.427 -0.455487 3.443 0
M  V30 1646 C 154.381 0.361103 4.26474 0
M  V30 1647 C 153.707 -0.563221 5.31725 0
M  V30 1648 C 155.007 1.59566 4.97329 0
M  V30 1649 H 156.701 1.17548 2.75359 0
M  V30 1650 H 154.247 0.566686 1.32381 0
M  V30 1651 H 156.2 -0.83525 4.13039 0
M  V30 1652 H 154.924 -1.32139 2.98675 0
M  V30 1653 H 153.583 0.722825 3.59403 0
M  V30 1654 H 153.231 -1.42643 4.82351 0
M  V30 1655 H 152.931 -0.0207409 5.87596 0
M  V30 1656 H 154.455 -0.939808 6.03324 0
M  V30 1657 H 155.869 1.28728 5.58661 0
M  V30 1658 H 154.266 2.07728 5.63 0
M  V30 1659 H 155.336 2.34798 4.24262 0
M  V30 1660 N 156.679 -1.44442 0.630414 0
M  V30 1661 C 157.926 -2.02052 0.134617 0
M  V30 1662 C 158.254 -1.49576 -1.24327 0
M  V30 1663 O 157.509 -0.669806 -1.83881 0
M  V30 1664 C 157.808 -3.57332 0.0697835 0
M  V30 1665 C 157.474 -4.29058 1.38635 0
M  V30 1666 C 156.136 -4.4837 1.74694 0
M  V30 1667 C 158.488 -4.69872 2.25543 0
M  V30 1668 C 155.816 -5.05756 2.97369 0
M  V30 1669 C 158.168 -5.28616 3.47487 0
M  V30 1670 C 156.832 -5.46147 3.8377 0
M  V30 1671 H 156.102 -0.739361 0.0492598 0
M  V30 1672 H 158.749 -1.73217 0.816586 0
M  V30 1673 H 157.054 -3.85577 -0.695553 0
M  V30 1674 H 158.751 -3.99637 -0.330344 0
M  V30 1675 H 155.341 -4.14357 1.09574 0
M  V30 1676 H 159.525 -4.54666 1.98979 0
M  V30 1677 H 154.781 -5.17515 3.25558 0
M  V30 1678 H 158.955 -5.59192 4.15063 0
M  V30 1679 H 156.582 -5.9038 4.7891 0
M  V30 1680 N 158.157 -0.370918 -1.53173 0
M  V30 1681 C 159.434 0.273754 -1.93675 0
M  V30 1682 C 159.814 1.65938 -1.3049 0
M  V30 1683 O 159.162 2.23698 -0.465999 0
M  V30 1684 C 159.372 0.318602 -3.47543 0
M  V30 1685 C 160.72 0.556392 -4.20939 0
M  V30 1686 O 161.744 0.399587 -3.53952 0
M  V30 1687 O 160.603 0.862133 -5.39657 0
M  V30 1688 H 157.697 0.165448 -0.810281 0
M  V30 1689 H 160.243 -0.42409 -1.64315 0
M  V30 1690 H 159.015 -0.652687 -3.85818 0
M  V30 1691 H 158.638 1.06212 -3.83151 0
M  V30 1692 N 159.635 1.57281 -0.100228 0
M  V30 1693 C 160.565 2.17328 0.853857 0
M  V30 1694 C 161.546 1.10804 1.2906 0
M  V30 1695 O 162.731 1.38963 1.35657 0
M  V30 1696 C 159.861 2.75772 2.11109 0
M  V30 1697 C 158.815 3.87713 1.81279 0
M  V30 1698 C 158.141 4.32882 3.13874 0
M  V30 1699 C 159.441 5.10677 1.09574 0
M  V30 1700 H 161.135 2.97305 0.353545 0
M  V30 1701 H 158.681 1.43009 0.168612 0
M  V30 1702 H 160.634 3.16433 2.78296 0
M  V30 1703 H 159.358 1.93057 2.63432 0
M  V30 1704 H 158.017 3.476 1.16489 0
M  V30 1705 H 157.665 3.47051 3.64095 0
M  V30 1706 H 157.365 5.08358 2.94696 0
M  V30 1707 H 158.889 4.7618 3.82211 0
M  V30 1708 H 160.303 5.48474 1.66879 0
M  V30 1709 H 158.7 5.91615 1.00557 0
M  V30 1710 H 159.77 4.84835 0.0793299 0
M  V30 1711 N 161.113 -0.173488 1.56642 0
M  V30 1712 C 162.361 -0.888706 1.81512 0
M  V30 1713 C 162.682 -1.82875 0.676872 0
M  V30 1714 O 161.952 -1.93536 -0.303414 0
M  V30 1715 H 160.532 -0.331164 0.669582 0
M  V30 1716 H 163.194 -0.173823 1.94123 0
M  V30 1717 H 162.29 -1.46691 2.75478 0
M  V30 1718 N 162.591 -1.51276 -0.441967 0
M  V30 1719 C 163.838 -1.63715 -1.19179 0
M  V30 1720 C 164.166 -0.351175 -1.91303 0
M  V30 1721 O 163.421 0.664524 -1.84072 0
M  V30 1722 C 163.72 -2.78746 -2.23686 0
M  V30 1723 C 163.386 -4.18189 -1.68607 0
M  V30 1724 C 162.048 -4.56125 -1.53308 0
M  V30 1725 C 164.4 -5.05222 -1.28062 0
M  V30 1726 C 161.728 -5.78804 -0.959317 0
M  V30 1727 C 164.08 -6.28476 -0.721162 0
M  V30 1728 C 162.744 -6.65188 -0.55504 0
M  V30 1729 H 162.014 -0.599076 -0.436106 0
M  V30 1730 H 164.661 -1.85296 -0.48351 0
M  V30 1731 H 162.966 -2.51369 -3.00535 0
M  V30 1732 H 164.663 -2.8557 -2.81515 0
M  V30 1733 H 161.253 -3.88277 -1.8149 0
M  V30 1734 H 165.437 -4.76524 -1.38704 0
M  V30 1735 H 160.693 -6.05899 -0.81833 0
M  V30 1736 H 164.867 -6.95259 -0.398458 0
M  V30 1737 H 162.494 -7.60123 -0.108311 0
M  V30 1738 N 164.069 0.697108 -1.41344 0
M  V30 1739 C 165.48 1.27697 -1.36199 0
M  V30 1740 C 165.831 1.9615 -0.0443463 0
M  V30 1741 O 164.956 1.98689 0.857419 0
M  V30 1742 C 165.551 2.32223 -2.46694 0
M  V30 1743 C 164.11 2.8579 -2.44952 0
M  V30 1744 C 163.257 1.59807 -2.26621 0
M  V30 1745 H 166.208 0.491968 -1.50882 0
M  V30 1746 H 166.229 3.1348 -2.15664 0
M  V30 1747 H 165.741 1.82373 -3.42581 0
M  V30 1748 H 163.842 3.3982 -1.52817 0
M  V30 1749 H 163.955 3.36325 -3.41207 0
M  V30 1750 H 162.319 1.8556 -1.7447 0
M  V30 1751 H 163.102 1.11956 -3.24532 0
M  V30 1752 N 165.547 1.27147 0.931209 0
M  V30 1753 C 166.495 1.09398 2.05268 0
M  V30 1754 C 167.489 0.0180591 1.6939 0
M  V30 1755 O 168.695 0.17551 1.79142 0
M  V30 1756 H 165.07 0.336986 0.672268 0
M  V30 1757 H 167.041 2.04416 2.17386 0
M  V30 1758 C 165.79 0.75424 3.39421 0
M  V30 1759 H 165.113 1.57404 3.67511 0
M  V30 1760 H 166.553 0.669903 4.18674 0
M  V30 1761 C 165.012 -0.541197 3.32525 0
M  V30 1762 O 165.542 -1.57664 3.69466 0
M  V30 1763 N 163.748 -0.535517 2.85623 0
M  V30 1764 H 163.295 0.307511 2.55758 0
M  V30 1765 H 163.253 -1.40236 2.81392 0
M  V30 1766 N 167.025 -1.13721 1.09112 0
M  V30 1767 C 168.436 -1.6648 0.845068 0
M  V30 1768 C 168.787 -1.85911 -0.62701 0
M  V30 1769 O 167.912 -1.57556 -1.48341 0
M  V30 1770 C 168.507 -3.02413 1.52748 0
M  V30 1771 C 167.066 -3.52176 1.32849 0
M  V30 1772 C 166.213 -2.27492 1.58564 0
M  V30 1773 H 169.164 -0.976872 1.25072 0
M  V30 1774 H 169.185 -3.68223 0.958752 0
M  V30 1775 H 168.697 -2.88238 2.59885 0
M  V30 1776 H 166.798 -3.7156 0.278137 0
M  V30 1777 H 166.911 -4.32499 2.0611 0
M  V30 1778 H 165.275 -2.33923 1.00758 0
M  V30 1779 H 166.058 -2.15886 2.66924 0
M  V30 1780 N 168.503 -0.877838 -1.30888 0
M  V30 1781 C 169.433 -0.35534 -2.3078 0
M  V30 1782 C 170.414 0.557994 -1.60687 0
M  V30 1783 O 171.599 0.473355 -1.88343 0
M  V30 1784 C 168.729 0.437221 -3.44537 0
M  V30 1785 C 167.683 -0.383715 -4.26276 0
M  V30 1786 C 167.009 0.535014 -5.32017 0
M  V30 1787 C 168.309 -1.62201 -4.96476 0
M  V30 1788 H 170.003 -1.19007 -2.74732 0
M  V30 1789 H 167.549 -0.573698 -1.32078 0
M  V30 1790 H 169.502 0.813334 -4.13477 0
M  V30 1791 H 168.226 1.30553 -2.99372 0
M  V30 1792 H 166.885 -0.741874 -3.59015 0
M  V30 1793 H 166.533 1.40083 -4.831 0
M  V30 1794 H 166.233 -0.0104211 -5.87599 0
M  V30 1795 H 167.757 0.907799 -6.03814 0
M  V30 1796 H 169.171 -1.31689 -5.5797 0
M  V30 1797 H 167.568 -2.10711 -5.61891 0
M  V30 1798 H 168.638 -2.37044 -4.23011 0
M  V30 1799 N 169.982 1.44106 -0.638065 0
M  V30 1800 C 170.945 2.29138 0.0531013 0
M  V30 1801 C 171.945 1.41409 0.765506 0
M  V30 1802 O 173.135 1.63206 0.609046 0
M  V30 1803 C 170.267 3.23144 1.08584 0
M  V30 1804 H 171.46 2.91739 -0.694883 0
M  V30 1805 H 169.013 1.51134 -0.398538 0
M  V30 1806 H 169.748 2.65408 1.86357 0
M  V30 1807 H 169.533 3.87804 0.578852 0
M  V30 1808 H 171.023 3.87004 1.56899 0
M  V30 1809 N 171.46 0.379036 1.52974 0
M  V30 1810 C 172.37 -0.468639 2.29872 0
M  V30 1811 C 173.386 -1.08067 1.36373 0
M  V30 1812 O 174.562 -1.08871 1.69438 0
M  V30 1813 C 171.627 -1.58594 3.083 0
M  V30 1814 C 170.688 -1.00007 4.17489 0
M  V30 1815 C 169.921 -2.06413 4.92168 0
M  V30 1816 O 170.144 -3.27751 4.66835 0
M  V30 1817 O 169.078 -1.68717 5.7777 0
M  V30 1818 H 172.904 0.157508 3.03291 0
M  V30 1819 H 170.489 0.143035 1.48714 0
M  V30 1820 H 172.371 -2.23525 3.57232 0
M  V30 1821 H 171.046 -2.19724 2.37703 0
M  V30 1822 H 169.953 -0.314299 3.72777 0
M  V30 1823 H 171.286 -0.433135 4.90291 0
M  V30 1824 N 172.938 -1.57226 0.108567 0
M  V30 1825 C 174.354 -1.5766 -0.248058 0
M  V30 1826 C 174.554 -1.12063 -1.67464 0
M  V30 1827 O 173.61 -0.803236 -2.39383 0
M  V30 1828 C 174.923 -3.0069 -0.0242287 0
M  V30 1829 C 176.471 -3.12868 -0.0909372 0
M  V30 1830 C 176.946 -4.57879 0.105067 0
M  V30 1831 N 178.437 -4.63172 0.0506846 0
M  V30 1832 C 179.172 -5.73126 0.177396 0
M  V30 1833 N 178.668 -6.91866 0.359696 0
M  V30 1834 N 180.461 -5.61977 0.117709 0
M  V30 1835 H 172.612 -1.85169 1.04049 0
M  V30 1836 H 174.875 -0.85529 0.40888 0
M  V30 1837 H 174.581 -3.38299 0.961604 0
M  V30 1838 H 174.455 -3.6945 -0.76068 0
M  V30 1839 H 176.842 -2.75124 -1.06729 0
M  V30 1840 H 176.923 -2.46672 0.677225 0
M  V30 1841 H 176.567 -4.96321 1.07834 0
M  V30 1842 H 176.497 -5.22153 -0.682954 0
M  V30 1843 H 178.988 -3.778 -0.0871266 0
M  V30 1844 H 179.301 -7.71503 0.447529 0
M  V30 1845 H 177.646 -6.93874 0.395536 0
M  V30 1846 H 180.837 -4.68094 -0.0236741 0
M  V30 1847 H 181.01 -6.47627 0.219905 0
M  V30 1848 N 174.416 0.165178 -1.56732 0
M  V30 1849 C 175.665 0.879143 -1.81532 0
M  V30 1850 C 175.978 1.83144 -0.686842 0
M  V30 1851 O 177.184 2.58823 -0.819944 0
M  V30 1852 C 175.64 1.61388 -3.21686 0
M  V30 1853 C 175.248 0.704904 -4.4242 0
M  V30 1854 C 176.992 2.3157 -3.55774 0
M  V30 1855 C 174.899 1.44022 -5.73595 0
M  V30 1856 H 173.829 0.332033 -0.676957 0
M  V30 1857 H 176.48 0.132008 -1.83025 0
M  V30 1858 H 174.862 2.40599 -3.14529 0
M  V30 1859 H 176.036 -0.0506815 -4.60772 0
M  V30 1860 H 174.351 0.112419 -4.16248 0
M  V30 1861 H 176.948 2.8719 -4.51028 0
M  V30 1862 H 177.291 3.07201 -2.8095 0
M  V30 1863 H 177.824 1.59297 -3.64513 0
M  V30 1864 H 174.563 0.72612 -6.51466 0
M  V30 1865 H 174.083 2.16898 -5.5921 0
M  V30 1866 H 175.762 1.98606 -6.15764 0
M  V30 1867 N 175.894 1.51508 0.433938 0
M  V30 1868 C 177.143 1.63578 1.18005 0
M  V30 1869 C 177.456 0.359514 1.92268 0
M  V30 1870 O 178.662 0.359632 2.69108 0
M  V30 1871 C 177.118 2.88901 2.14626 0
M  V30 1872 C 176.726 4.23544 1.45995 0
M  V30 1873 C 178.47 3.10328 2.89649 0
M  V30 1874 C 176.377 5.40014 2.4112 0
M  V30 1875 H 175.307 0.609277 0.444182 0
M  V30 1876 H 177.958 1.77978 0.446773 0
M  V30 1877 H 176.34 2.68142 2.91403 0
M  V30 1878 H 177.514 4.54696 0.747532 0
M  V30 1879 H 175.829 4.08021 0.831115 0
M  V30 1880 H 178.426 3.94518 3.60915 0
M  V30 1881 H 178.769 2.23544 3.51189 0
M  V30 1882 H 179.302 3.31443 2.19978 0
M  V30 1883 H 176.041 6.29068 1.84264 0
M  V30 1884 H 175.561 5.13233 3.10406 0
M  V30 1885 H 177.24 5.72099 3.02177 0
M  V30 1886 N 177.372 -0.689602 1.41712 0
M  V30 1887 C 178.619 -1.44966 1.4139 0
M  V30 1888 C 178.947 -1.94484 0.025105 0
M  V30 1889 O 178.202 -1.70307 -0.964048 0
M  V30 1890 C 178.501 -2.67298 2.37247 0
M  V30 1891 C 178.167 -2.36405 3.83958 0
M  V30 1892 C 176.829 -2.27691 4.23923 0
M  V30 1893 C 179.181 -2.11043 4.76561 0
M  V30 1894 C 176.509 -1.91719 5.54492 0
M  V30 1895 C 178.861 -1.76578 6.07456 0
M  V30 1896 C 177.525 -1.66363 6.46436 0
M  V30 1897 H 176.795 -0.53047 0.517381 0
M  V30 1898 H 179.442 -0.787655 1.74552 0
M  V30 1899 H 177.747 -3.38461 1.9736 0
M  V30 1900 H 179.444 -3.25452 2.34269 0
M  V30 1901 H 176.034 -2.44085 3.52308 0
M  V30 1902 H 180.218 -2.16717 4.46483 0
M  V30 1903 H 175.474 -1.82367 5.83568 0
M  V30 1904 H 179.648 -1.55974 6.78708 0
M  V30 1905 H 177.275 -1.38258 7.47522 0
M  V30 1906 N 178.85 -1.27639 -0.924453 0
M  V30 1907 C 179.76 -1.12466 -2.05885 0
M  V30 1908 C 180.776 -0.053869 -1.73917 0
M  V30 1909 O 181.952 -0.261012 -1.99702 0
M  V30 1910 C 179.017 -0.776768 -3.37886 0
M  V30 1911 C 178.078 -1.92878 -3.83532 0
M  V30 1912 C 177.311 -1.59739 -5.09234 0
M  V30 1913 O 177.534 -0.506782 -5.68144 0
M  V30 1914 O 176.468 -2.43761 -5.50331 0
M  V30 1915 H 180.294 -2.07671 -2.21599 0
M  V30 1916 H 177.879 -1.06857 -1.04413 0
M  V30 1917 H 179.761 -0.596229 -4.17161 0
M  V30 1918 H 178.436 0.145732 -3.23372 0
M  V30 1919 H 177.343 -2.1644 -3.0513 0
M  V30 1920 H 178.676 -2.8316 -4.02593 0
M  V30 1921 N 180.328 1.1314 -1.09713 0
M  V30 1922 C 181.556 1.88321 -0.856898 0
M  V30 1923 C 181.971 1.79276 0.592073 0
M  V30 1924 O 181.328 1.16142 1.40774 0
M  V30 1925 C 181.379 3.37812 -1.28706 0
M  V30 1926 O 181.1 3.46627 -2.67921 0
M  V30 1927 C 182.601 4.29952 -1.07964 0
M  V30 1928 H 179.821 0.596094 -0.308079 0
M  V30 1929 H 182.365 1.43205 -1.45988 0
M  V30 1930 H 180.52 3.805 -0.727912 0
M  V30 1931 H 180.934 4.39579 -2.8613 0
M  V30 1932 H 182.408 5.33159 -1.42986 0
M  V30 1933 H 182.885 4.39196 -0.0176577 0
M  V30 1934 H 183.491 3.93036 -1.62489 0
M  V30 1935 N 181.806 0.884767 1.30421 0
M  V30 1936 C 182.756 0.322846 2.25703 0
M  V30 1937 C 183.74 -0.548582 1.51259 0
M  V30 1938 O 184.932 -0.39304 1.72581 0
M  V30 1939 C 182.061 -0.461787 3.4018 0
M  V30 1940 C 181.147 0.423717 4.21978 0
M  V30 1941 N 181.538 1.52408 4.82292 0
M  V30 1942 C 179.836 0.218795 4.45463 0
M  V30 1943 C 180.537 2.07136 5.43571 0
M  V30 1944 N 179.513 1.36635 5.26148 0
M  V30 1945 H 183.315 1.16363 2.69883 0
M  V30 1946 H 180.829 0.73415 1.44859 0
M  V30 1947 H 182.826 -0.880985 4.07485 0
M  V30 1948 H 181.486 -1.30001 2.9754 0
M  V30 1949 H 182.497 1.90693 4.81515 0
M  V30 1950 H 179.174 -0.582275 4.1342 0
M  V30 1951 H 180.564 2.99538 6.01437 0
M  V30 1952 N 183.284 -1.43765 0.645699 0
M  V30 1953 C 184.216 -2.29027 -0.0890605 0
M  V30 1954 C 185.229 -1.42093 -0.794563 0
M  V30 1955 O 186.418 -1.66104 -0.653575 0
M  V30 1956 C 183.518 -3.18831 -1.14891 0
M  V30 1957 C 182.691 -4.34261 -0.523043 0
M  V30 1958 C 181.75 -5.04994 -1.47878 0
M  V30 1959 O 180.776 -5.6052 -0.990277 0
M  V30 1960 N 181.978 -5.07795 -2.81291 0
M  V30 1961 H 184.743 -2.92727 0.64272 0
M  V30 1962 H 182.304 -1.54373 0.487924 0
M  V30 1963 H 184.296 -3.63015 -1.78892 0
M  V30 1964 H 182.866 -2.56782 -1.78275 0
M  V30 1965 H 182.086 -3.93088 0.295896 0
M  V30 1966 H 183.374 -5.08728 -0.0858147 0
M  V30 1967 H 182.772 -4.64042 -3.23546 0
M  V30 1968 H 181.329 -5.55721 -3.40614 0
M  V30 1969 N 184.763 -0.387143 -1.52771 0
M  V30 1970 C 186.012 0.19697 -2.00736 0
M  V30 1971 C 186.325 1.48082 -1.27793 0
M  V30 1972 O 187.531 2.14485 -1.66458 0
M  V30 1973 C 185.987 0.401568 -3.57653 0
M  V30 1974 C 185.595 -0.868907 -4.39493 0
M  V30 1975 C 187.339 0.942164 -4.13912 0
M  V30 1976 C 185.246 -0.632705 -5.88006 0
M  V30 1977 H 184.176 0.0773827 -0.750019 0
M  V30 1978 H 186.827 -0.50921 -1.76293 0
M  V30 1979 H 185.209 1.16954 -3.78335 0
M  V30 1980 H 186.383 -1.64133 -4.30577 0
M  V30 1981 H 184.698 -1.33429 -3.94443 0
M  V30 1982 H 187.295 1.13455 -5.22525 0
M  V30 1983 H 187.638 1.9106 -3.69867 0
M  V30 1984 H 188.171 0.233814 -3.97112 0
M  V30 1985 H 184.91 -1.57208 -6.36369 0
M  V30 1986 H 184.43 0.100825 -5.99715 0
M  V30 1987 H 186.109 -0.26642 -6.46451 0
M  V30 1988 N 186.241 1.57166 -0.116904 0
M  V30 1989 C 187.191 2.11756 0.845178 0
M  V30 1990 C 188.175 1.03783 1.22955 0
M  V30 1991 O 189.367 1.3002 1.20099 0
M  V30 1992 C 186.496 2.71886 2.09602 0
M  V30 1993 C 185.582 3.86937 1.7361 0
M  V30 1994 N 185.973 4.94073 1.08284 0
M  V30 1995 C 184.271 3.97082 2.03082 0
M  V30 1996 C 184.972 5.74477 0.913855 0
M  V30 1997 N 183.948 5.2423 1.43818 0
M  V30 1998 H 187.75 2.91967 0.336523 0
M  V30 1999 H 185.264 1.62174 0.0856332 0
M  V30 2000 H 187.261 3.09338 2.79492 0
M  V30 2001 H 185.921 1.93138 2.61013 0
M  V30 2002 H 186.932 5.12483 0.747067 0
M  V30 2003 H 183.609 3.29372 2.56554 0
M  V30 2004 H 184.999 6.70701 0.40125 0
M  V30 2005 N 187.719 -0.156864 1.56817 0
M  V30 2006 C 188.966 -0.871125 1.82805 0
M  V30 2007 C 189.294 -1.81611 0.696262 0
M  V30 2008 O 188.549 -1.93141 -0.315459 0
M  V30 2009 C 188.848 -1.68737 3.1506 0
M  V30 2010 C 188.514 -0.890045 4.42028 0
M  V30 2011 C 187.176 -0.670042 4.76512 0
M  V30 2012 C 189.528 -0.331769 5.20143 0
M  V30 2013 C 186.856 0.119104 5.86579 0
M  V30 2014 C 189.208 0.444365 6.31037 0
M  V30 2015 C 187.872 0.675035 6.64078 0
M  V30 2016 H 187.142 -0.318767 0.668931 0
M  V30 2017 H 189.789 -0.135274 1.91022 0
M  V30 2018 H 188.094 -2.49304 3.0225 0
M  V30 2019 H 189.791 -2.24331 3.3238 0
M  V30 2020 H 186.381 -1.07157 4.14988 0
M  V30 2021 H 190.565 -0.489043 4.93885 0
M  V30 2022 H 185.821 0.307417 6.10627 0
M  V30 2023 H 189.995 0.884139 6.90765 0
M  V30 2024 H 187.622 1.28839 7.49203 0
M  V30 2025 N 189.197 -1.51736 -0.425897 0
M  V30 2026 C 190.16 -1.73271 -1.50032 0
M  V30 2027 C 191.16 -0.602639 -1.4908 0
M  V30 2028 O 192.35 -0.87033 -1.509 0
M  V30 2029 C 189.482 -1.79969 -2.89523 0
M  V30 2030 H 190.675 -2.69172 -1.32237 0
M  V30 2031 H 188.228 -1.41899 -0.65532 0
M  V30 2032 H 188.963 -0.859241 -3.1271 0
M  V30 2033 H 188.748 -2.62109 -2.91619 0
M  V30 2034 H 190.238 -1.9843 -3.67444 0
M  V30 2035 N 190.675 0.682077 -1.42076 0
M  V30 2036 C 191.623 1.81707 -1.45208 0
M  V30 2037 C 192.617 1.66183 -0.328591 0
M  V30 2038 O 193.823 1.7288 -0.501264 0
M  V30 2039 H 190.198 0.599014 -0.454628 0
M  V30 2040 H 192.169 1.76183 -2.40836 0
M  V30 2041 C 190.918 3.19816 -1.36428 0
M  V30 2042 H 190.241 3.32385 -2.22171 0
M  V30 2043 H 191.681 3.99272 -1.42681 0
M  V30 2044 C 190.14 3.36809 -0.078191 0
M  V30 2045 O 190.67 3.92124 0.87188 0
M  V30 2046 N 188.876 2.906 0.00229266 0
M  V30 2047 H 188.423 2.45772 -0.771616 0
M  V30 2048 H 188.381 3.02347 0.862179 0
M  V30 2049 N 192.153 1.28127 0.917671 0
M  V30 2050 C 193.393 1.163 1.68088 0
M  V30 2051 C 193.757 -0.284515 1.8988 0
M  V30 2052 O 194.958 -0.525413 2.63615 0
M  V30 2053 C 193.229 1.93546 3.00457 0
M  V30 2054 S 194.788 1.98048 3.91564 0
M  V30 2055 H 191.606 0.415005 0.577315 0
M  V30 2056 H 194.208 1.62173 1.09179 0
M  V30 2057 H 192.912 2.97888 2.82295 0
M  V30 2058 H 192.443 1.48207 3.64415 0
M  V30 2059 H 194.458 1.08415 4.84211 0
M  V30 2060 N 193.631 -1.12557 1.10312 0
M  V30 2061 C 194.856 -1.88405 0.867085 0
M  V30 2062 C 195.281 -1.79038 -0.576817 0
M  V30 2063 O 194.639 -1.14439 -1.40618 0
M  V30 2064 C 194.687 -3.3563 1.31851 0
M  V30 2065 O 193.791 -4.09565 0.482734 0
M  V30 2066 H 193.132 -0.585455 0.313271 0
M  V30 2067 H 195.662 -1.42352 1.4696 0
M  V30 2068 H 195.672 -3.86469 1.3079 0
M  V30 2069 H 194.347 -3.41765 2.37001 0
M  V30 2070 H 192.924 -3.68695 0.558448 0
M  V30 2071 N 195.109 -0.891671 -1.2995 0
M  V30 2072 C 196.039 -0.379797 -2.30391 0
M  V30 2073 C 197.02 0.540919 -1.6127 0
M  V30 2074 O 198.205 0.453352 -1.88834 0
M  V30 2075 C 195.335 0.400654 -3.44981 0
M  V30 2076 C 194.289 -0.428905 -4.25846 0
M  V30 2077 C 193.615 0.478557 -5.32554 0
M  V30 2078 C 194.915 -1.67458 -4.94727 0
M  V30 2079 H 196.609 -1.21914 -2.73454 0
M  V30 2080 H 194.155 -0.587675 -1.31462 0
M  V30 2081 H 196.108 0.769434 -4.14316 0
M  V30 2082 H 194.832 1.27371 -3.0074 0
M  V30 2083 H 193.491 -0.779911 -3.58208 0
M  V30 2084 H 193.139 1.34951 -4.84559 0
M  V30 2085 H 192.839 -0.0727433 -5.87555 0
M  V30 2086 H 194.363 0.843705 -6.04743 0
M  V30 2087 H 195.777 -1.376 -5.56542 0
M  V30 2088 H 194.174 -2.16659 -5.59624 0
M  V30 2089 H 195.244 -2.41518 -4.20473 0
M  V30 2090 N 196.587 1.43421 -0.653314 0
M  V30 2091 C 197.833 2.02111 -0.166992 0
M  V30 2092 C 198.166 1.51423 1.21592 0
M  V30 2093 O 197.441 0.707389 1.8118 0
M  V30 2094 C 197.724 3.5966 -0.177948 0
M  V30 2095 C 197.577 4.20579 -1.59478 0
M  V30 2096 C 198.896 4.37413 0.4856 0
M  V30 2097 H 196.015 0.734374 -0.0621557 0
M  V30 2098 H 198.657 1.70717 -0.834016 0
M  V30 2099 H 196.807 3.86537 0.390032 0
M  V30 2100 H 198.479 4.04732 -2.21336 0
M  V30 2101 H 196.722 3.77226 -2.14204 0
M  V30 2102 H 197.393 5.29665 -1.5543 0
M  V30 2103 H 199.869 4.161 0.00234528 0
M  V30 2104 H 198.745 5.47075 0.447207 0
M  V30 2105 H 199.006 4.13672 1.55974 0
M  V30 2106 N 198.065 0.39524 1.52563 0
M  V30 2107 C 198.997 -0.472201 2.24283 0
M  V30 2108 C 200.01 -1.02178 1.26742 0
M  V30 2109 O 201.199 -0.923097 1.52778 0
M  V30 2110 C 198.299 -1.66775 2.95024 0
M  V30 2111 C 197.472 -1.2445 4.19322 0
M  V30 2112 C 196.531 -2.30539 4.7301 0
M  V30 2113 O 195.557 -1.91702 5.35947 0
M  V30 2114 N 196.759 -3.6253 4.53379 0
M  V30 2115 H 199.524 0.142282 2.99362 0
M  V30 2116 H 197.085 0.2219 1.60372 0
M  V30 2117 H 199.077 -2.37283 3.27839 0
M  V30 2118 H 197.647 -2.18845 2.23217 0
M  V30 2119 H 196.867 -0.368069 3.92478 0
M  V30 2120 H 198.155 -0.938457 5.0007 0
M  V30 2121 H 197.553 -3.96841 4.03154 0
M  V30 2122 H 196.11 -4.29055 4.90668 0
M  V30 2123 N 199.544 -1.57102 0.125237 0
M  V30 2124 C 200.955 -1.82384 -0.399142 0
M  V30 2125 C 201.306 -1.04276 -1.66195 0
M  V30 2126 O 200.431 -0.281269 -2.14564 0
M  V30 2127 C 201.026 -3.30821 -0.730932 0
M  V30 2128 C 199.585 -3.56762 -1.19992 0
M  V30 2129 C 198.732 -2.7649 -0.211792 0
M  V30 2130 H 201.683 -1.54786 0.350277 0
M  V30 2131 H 201.704 -3.4579 -1.58775 0
M  V30 2132 H 201.216 -3.87643 0.188345 0
M  V30 2133 H 199.317 -3.05305 -2.13588 0
M  V30 2134 H 199.43 -4.65317 -1.14093 0
M  V30 2135 H 197.794 -2.4489 -0.700085 0
M  V30 2136 H 198.577 -3.36073 0.700691 0
M  V30 2137 N 201.022 0.148545 -1.56898 0
M  V30 2138 C 202.25 0.876389 -1.87422 0
M  V30 2139 C 202.665 1.74809 -0.713256 0
M  V30 2140 O 202.022 1.79725 0.317025 0
M  V30 2141 C 202.073 1.73438 -3.17178 0
M  V30 2142 O 201.794 0.897809 -4.28802 0
M  V30 2143 C 203.295 2.56993 -3.61205 0
M  V30 2144 H 200.515 0.253489 -0.621277 0
M  V30 2145 H 203.059 0.141798 -2.04008 0
M  V30 2146 H 201.214 2.42205 -3.0235 0
M  V30 2147 H 201.628 1.48672 -5.02988 0
M  V30 2148 H 203.102 3.12773 -4.54838 0
M  V30 2149 H 203.579 3.32958 -2.86419 0
M  V30 2150 H 204.185 1.9352 -3.78722 0
M  V30 2151 N 202.5 1.5196 0.417844 0
M  V30 2152 C 203.747 1.65591 1.16559 0
M  V30 2153 C 204.075 0.381565 1.90721 0
M  V30 2154 O 203.33 -0.635156 1.85106 0
M  V30 2155 C 203.629 2.82269 2.19223 0
M  V30 2156 C 203.295 4.20819 1.61933 0
M  V30 2157 C 201.957 4.58506 1.46033 0
M  V30 2158 C 204.309 5.07196 1.20008 0
M  V30 2159 C 201.637 5.80257 0.867113 0
M  V30 2160 C 203.989 6.29544 0.621086 0
M  V30 2161 C 202.653 6.65987 0.449144 0
M  V30 2162 H 201.923 0.605939 0.42652 0
M  V30 2163 H 204.57 1.86041 0.45397 0
M  V30 2164 H 202.875 2.56118 2.96498 0
M  V30 2165 H 204.572 2.90012 2.76936 0
M  V30 2166 H 201.162 3.91116 1.7529 0
M  V30 2167 H 205.346 4.7867 1.31105 0
M  V30 2168 H 200.602 6.07124 0.721833 0
M  V30 2169 H 204.776 6.95805 0.287798 0
M  V30 2170 H 202.403 7.60199 -0.012632 0
M  V30 2171 N 203.978 -0.674533 1.42435 0
M  V30 2172 C 205.203 -1.46784 1.46524 0
M  V30 2173 C 205.628 -1.87938 0.078066 0
M  V30 2174 O 204.986 -1.56014 -0.92354 0
M  V30 2175 C 205.034 -2.69307 2.39805 0
M  V30 2176 O 204.138 -3.67587 1.86959 0
M  V30 2177 H 203.479 -0.440959 0.496439 0
M  V30 2178 H 206.009 -0.827326 1.87127 0
M  V30 2179 H 206.019 -3.17374 2.56393 0
M  V30 2180 H 204.694 -2.38692 3.40586 0
M  V30 2181 H 203.271 -3.2662 1.79927 0
M  V30 2182 N 205.456 -1.28612 -0.910864 0
M  V30 2183 C 206.733 -1.06632 -1.63979 0
M  V30 2184 C 207.113 0.393351 -2.07403 0
M  V30 2185 O 206.461 1.37999 -1.82122 0
M  V30 2186 C 206.671 -2.0436 -2.8291 0
M  V30 2187 C 208.019 -2.34666 -3.5386 0
M  V30 2188 O 209.043 -2.02467 -2.93062 0
M  V30 2189 O 207.902 -2.89631 -4.63439 0
M  V30 2190 H 204.996 -0.407737 -0.7195 0
M  V30 2191 H 207.542 -1.39942 -0.959914 0
M  V30 2192 H 206.314 -3.02727 -2.47936 0
M  V30 2193 H 205.937 -1.71714 -3.58609 0
M  V30 2194 N 206.934 1.1197 -1.10907 0
M  V30 2195 C 208.345 1.65114 -0.871446 0
M  V30 2196 C 208.696 1.86885 0.597353 0
M  V30 2197 O 207.821 1.59896 1.45816 0
M  V30 2198 C 208.416 2.99944 -1.5754 0
M  V30 2199 C 206.975 3.50018 -1.38435 0
M  V30 2200 C 206.122 2.24941 -1.62164 0
M  V30 2201 H 209.073 0.956851 -1.2661 0
M  V30 2202 H 209.094 3.66651 -1.01721 0
M  V30 2203 H 208.606 2.84067 -2.64438 0
M  V30 2204 H 206.707 3.71071 -0.337214 0
M  V30 2205 H 206.82 4.29165 -2.12965 0
M  V30 2206 H 205.184 2.3229 -1.04467 0
M  V30 2207 H 205.967 2.11612 -2.70324 0
M  V30 2208 N 208.412 0.89855 1.29475 0
M  V30 2209 C 209.823 0.572537 1.77705 0
M  V30 2210 C 210.174 -0.911778 1.73727 0
M  V30 2211 O 209.299 -1.71288 1.32247 0
M  V30 2212 C 209.894 1.03252 3.22683 0
M  V30 2213 C 208.453 0.757687 3.68695 0
M  V30 2214 C 207.6 1.20787 2.49612 0
M  V30 2215 H 210.551 1.08139 1.16153 0
M  V30 2216 H 210.572 0.367307 3.78723 0
M  V30 2217 H 210.084 2.11285 3.25546 0
M  V30 2218 H 208.185 -0.310079 3.71308 0
M  V30 2219 H 208.298 1.35476 4.59547 0
M  V30 2220 H 206.662 0.626888 2.46865 0
M  V30 2221 H 207.445 2.29622 2.55203 0
M  V30 2222 N 209.89 -1.43072 0.660911 0
M  V30 2223 C 210.8 -2.34585 -0.0264163 0
M  V30 2224 C 211.816 -1.54316 -0.803898 0
M  V30 2225 O 212.992 -1.86939 -0.749391 0
M  V30 2226 C 210.057 -3.32689 -0.975639 0
M  V30 2227 C 209.118 -4.2886 -0.194236 0
M  V30 2228 C 208.351 -5.22278 -1.09825 0
M  V30 2229 O 208.574 -5.20299 -2.33763 0
M  V30 2230 O 207.508 -5.99228 -0.566513 0
M  V30 2231 H 211.334 -2.94869 0.727034 0
M  V30 2232 H 208.919 -1.43342 0.42111 0
M  V30 2233 H 210.801 -3.92995 -1.52094 0
M  V30 2234 H 209.476 -2.74898 -1.70918 0
M  V30 2235 H 208.383 -3.72011 0.394835 0
M  V30 2236 H 209.716 -4.89655 0.499899 0
M  V30 2237 N 211.368 -0.403325 -1.52352 0
M  V30 2238 C 212.645 0.232611 -1.94212 0
M  V30 2239 C 213.025 1.63133 -1.33981 0
M  V30 2240 O 212.373 2.22659 -0.513344 0
M  V30 2241 C 212.583 0.244811 -3.4814 0
M  V30 2242 C 213.931 0.46698 -4.22024 0
M  V30 2243 O 214.955 0.324419 -3.5472 0
M  V30 2244 O 213.814 0.74747 -5.41364 0
M  V30 2245 H 210.908 0.148223 -0.813609 0
M  V30 2246 H 213.454 -0.458848 -1.63379 0
M  V30 2247 H 212.226 -0.734378 -3.84347 0
M  V30 2248 H 211.849 0.980611 -3.85318 0
M  V30 2249 N 212.846 1.57033 -0.133567 0
M  V30 2250 C 214.092 1.95976 0.521649 0
M  V30 2251 C 214.425 1.01779 1.65393 0
M  V30 2252 O 213.7 0.0576581 1.94415 0
M  V30 2253 C 213.983 3.44738 1.04057 0
M  V30 2254 C 213.836 4.49711 -0.0892897 0
M  V30 2255 C 215.155 3.95682 1.92675 0
M  V30 2256 H 212.274 0.712579 0.188149 0
M  V30 2257 H 214.916 1.88813 -0.212076 0
M  V30 2258 H 213.066 3.50973 1.66583 0
M  V30 2259 H 214.738 4.55565 -0.725152 0
M  V30 2260 H 212.981 4.27261 -0.750378 0
M  V30 2261 H 213.652 5.51099 0.315284 0
M  V30 2262 H 216.128 3.91841 1.39998 0
M  V30 2263 H 215.004 5.00262 2.25897 0
M  V30 2264 H 215.265 3.37239 2.85872 0
M  V30 2265 N 214.325 -0.140222 1.56975 0
M  V30 2266 C 215.255 -1.17456 2.01808 0
M  V30 2267 C 216.236 -1.44415 0.898794 0
M  V30 2268 O 217.421 -1.5522 1.16707 0
M  V30 2269 C 214.551 -2.50607 2.40444 0
M  V30 2270 C 213.505 -2.38155 3.55621 0
M  V30 2271 C 212.831 -3.76078 3.80091 0
M  V30 2272 C 214.131 -1.85991 4.88062 0
M  V30 2273 H 215.825 -0.801743 2.88466 0
M  V30 2274 H 213.371 -0.38422 1.38779 0
M  V30 2275 H 215.324 -3.23197 2.7041 0
M  V30 2276 H 214.048 -2.89737 1.50732 0
M  V30 2277 H 212.707 -1.68016 3.25832 0
M  V30 2278 H 212.355 -4.12656 2.87618 0
M  V30 2279 H 212.055 -3.68606 4.57606 0
M  V30 2280 H 213.579 -4.50206 4.12488 0
M  V30 2281 H 214.993 -2.4838 5.16701 0
M  V30 2282 H 213.39 -1.89393 5.6943 0
M  V30 2283 H 214.46 -0.816023 4.77984 0
M  V30 2284 N 215.803 -1.52179 -0.40978 0
M  V30 2285 C 216.733 -1.78435 -1.5061 0
M  V30 2286 C 217.714 -0.635295 -1.57791 0
M  V30 2287 O 218.899 -0.880823 -1.73076 0
M  V30 2288 C 216.029 -1.93444 -2.88439 0
M  V30 2289 C 214.983 -3.09038 -2.96108 0
M  V30 2290 C 214.309 -3.09268 -4.36185 0
M  V30 2291 C 215.609 -4.48508 -2.67652 0
M  V30 2292 H 217.303 -2.70237 -1.28889 0
M  V30 2293 H 214.849 -1.30036 -0.618605 0
M  V30 2294 H 216.802 -2.10394 -3.65119 0
M  V30 2295 H 215.526 -0.983129 -3.11452 0
M  V30 2296 H 214.185 -2.91837 -2.21872 0
M  V30 2297 H 213.833 -2.11861 -4.56206 0
M  V30 2298 H 213.533 -3.86907 -4.42241 0
M  V30 2299 H 215.057 -3.28348 -5.14801 0
M  V30 2300 H 216.471 -4.65918 -3.34056 0
M  V30 2301 H 214.868 -5.28059 -2.85085 0
M  V30 2302 H 215.938 -4.56649 -1.63095 0
M  V30 2303 N 217.281 0.66697 -1.42791 0
M  V30 2304 C 218.244 1.76211 -1.46568 0
M  V30 2305 C 219.244 1.56896 -0.352196 0
M  V30 2306 O 220.434 1.63044 -0.613364 0
M  V30 2307 C 217.566 3.14935 -1.30494 0
M  V30 2308 H 218.759 1.74247 -2.44086 0
M  V30 2309 H 216.312 0.877342 -1.29354 0
M  V30 2310 H 217.047 3.2252 -0.339301 0
M  V30 2311 H 216.832 3.30359 -2.11199 0
M  V30 2312 H 218.322 3.94821 -1.36038 0
M  V30 2313 N 218.759 1.29093 0.90403 0
M  V30 2314 C 219.692 1.08176 2.00931 0
M  V30 2315 C 220.67 -0.005083 1.62599 0
M  V30 2316 O 221.854 0.144765 1.87943 0
M  V30 2317 C 218.981 0.645897 3.32484 0
M  V30 2318 C 218.027 1.73081 3.89801 0
M  V30 2319 S 218.86 3.32905 4.19446 0
M  V30 2320 C 220.016 2.91176 5.54046 0
M  V30 2321 H 220.249 2.01752 2.18365 0
M  V30 2322 H 217.782 1.13191 1.0501 0
M  V30 2323 H 219.74 0.401131 4.08535 0
M  V30 2324 H 218.401 -0.270188 3.12936 0
M  V30 2325 H 217.594 1.37768 4.84805 0
M  V30 2326 H 217.196 1.92888 3.20422 0
M  V30 2327 H 219.488 2.37952 6.34338 0
M  V30 2328 H 220.431 3.85014 5.94281 0
M  V30 2329 H 220.839 2.296 5.15698 0
M  V30 2330 N 220.237 -1.11381 1.11499 0
M  V30 2331 C 221.486 -1.82494 0.858993 0
M  V30 2332 C 221.799 -1.85605 -0.617278 0
M  V30 2333 O 223.005 -2.52824 -0.989552 0
M  V30 2334 C 221.461 -3.27745 1.48699 0
M  V30 2335 C 221.069 -3.32961 2.99735 0
M  V30 2336 C 222.813 -4.03754 1.31085 0
M  V30 2337 C 220.72 -4.72612 3.55516 0
M  V30 2338 H 219.65 -0.683802 0.317696 0
M  V30 2339 H 222.301 -1.25331 1.34031 0
M  V30 2340 H 220.683 -3.84844 0.933339 0
M  V30 2341 H 221.857 -2.85741 3.61509 0
M  V30 2342 H 220.172 -2.70433 3.16631 0
M  V30 2343 H 222.769 -5.06891 1.70192 0
M  V30 2344 H 223.112 -4.15527 0.253496 0
M  V30 2345 H 223.645 -3.53043 1.83318 0
M  V30 2346 H 220.384 -4.66036 4.60967 0
M  V30 2347 H 219.904 -5.2024 2.98513 0
M  V30 2348 H 221.583 -5.4157 3.53992 0
M  V30 2349 N 221.715 -0.905404 -1.28997 0
M  V30 2350 C 222.964 -0.530191 -1.94607 0
M  V30 2351 C 223.277 0.929185 -1.72121 0
M  V30 2352 O 224.483 1.41218 -2.31883 0
M  V30 2353 C 222.939 -0.897333 -3.48534 0
M  V30 2354 C 222.547 -2.37587 -3.79811 0
M  V30 2355 C 224.291 -0.592304 -4.20347 0
M  V30 2356 C 222.198 -2.68357 -5.27009 0
M  V30 2357 H 221.128 -0.194558 -0.728466 0
M  V30 2358 H 223.779 -1.10318 -1.46636 0
M  V30 2359 H 222.161 -0.253214 -3.9519 0
M  V30 2360 H 223.335 -3.06602 -3.43994 0
M  V30 2361 H 221.65 -2.6505 -3.2115 0
M  V30 2362 H 224.247 -0.798975 -5.28697 0
M  V30 2363 H 224.59 0.469474 -4.13644 0
M  V30 2364 H 225.123 -1.19452 -3.79442 0
M  V30 2365 H 221.862 -3.73355 -5.38782 0
M  V30 2366 H 221.382 -2.03971 -5.64053 0
M  V30 2367 H 223.061 -2.54922 -5.94663 0
M  V30 2368 N 223.193 1.4272 -0.668489 0
M  V30 2369 C 224.156 2.292 0.00448567 0
M  V30 2370 C 225.156 1.43001 0.735339 0
M  V30 2371 O 226.346 1.64461 0.57429 0
M  V30 2372 C 223.478 3.25375 1.01705 0
M  V30 2373 H 224.671 2.90199 -0.756608 0
M  V30 2374 H 222.224 1.50254 -0.430506 0
M  V30 2375 H 222.959 2.69301 1.80686 0
M  V30 2376 H 222.744 3.88944 0.496463 0
M  V30 2377 H 224.234 3.90245 1.48655 0
M  V30 2378 N 224.671 0.411399 1.52136 0
M  V30 2379 C 226.082 -0.0576826 1.86611 0
M  V30 2380 C 226.433 -1.44238 1.33003 0
M  V30 2381 O 225.558 -2.05759 0.670228 0
M  V30 2382 C 226.153 -0.111448 3.38617 0
M  V30 2383 C 224.712 -0.52487 3.72723 0
M  V30 2384 C 223.859 0.299176 2.75681 0
M  V30 2385 H 226.81 0.628368 1.4573 0
M  V30 2386 H 226.831 -0.926252 3.69054 0
M  V30 2387 H 226.343 0.896488 3.77604 0
M  V30 2388 H 224.444 -1.53936 3.39315 0
M  V30 2389 H 224.557 -0.267681 4.78352 0
M  V30 2390 H 222.921 -0.238814 2.53578 0
M  V30 2391 H 223.704 1.3055 3.17508 0
M  V30 2392 N 226.149 -1.5696 0.141893 0
M  V30 2393 C 227.398 -1.95135 -0.510427 0
M  V30 2394 C 227.711 -1.02896 -1.66348 0
M  V30 2395 O 228.917 -1.30629 -2.38009 0
M  V30 2396 C 227.373 -3.46876 -0.959427 0
M  V30 2397 C 226.981 -4.47691 0.166419 0
M  V30 2398 C 228.725 -3.93927 -1.58183 0
M  V30 2399 C 226.632 -5.90636 -0.300565 0
M  V30 2400 H 225.562 -0.728494 -0.194454 0
M  V30 2401 H 228.213 -1.8211 0.22542 0
M  V30 2402 H 226.595 -3.55215 -1.75038 0
M  V30 2403 H 227.769 -4.51043 0.94325 0
M  V30 2404 H 226.084 -4.10527 0.696905 0
M  V30 2405 H 228.681 -4.98158 -1.94275 0
M  V30 2406 H 229.024 -3.3519 -2.46888 0
M  V30 2407 H 229.557 -3.88484 -0.855863 0
M  V30 2408 H 226.296 -6.5318 0.550989 0
M  V30 2409 H 225.816 -5.90655 -1.04338 0
M  V30 2410 H 227.495 -6.42588 -0.754265 0
M  V30 2411 N 227.627 0.131896 -1.57047 0
M  V30 2412 C 228.867 0.847972 -1.85981 0
M  V30 2413 C 229.231 1.77655 -0.7282 0
M  V30 2414 O 230.432 2.53322 -0.898968 0
M  V30 2415 C 228.703 1.58919 -3.20124 0
M  V30 2416 S 230.262 2.34862 -3.70655 0
M  V30 2417 H 227.08 0.283273 -0.652133 0
M  V30 2418 H 229.682 0.107057 -1.95207 0
M  V30 2419 H 228.386 0.898771 -4.00438 0
M  V30 2420 H 227.917 2.37073 -3.13942 0
M  V30 2421 H 229.932 3.60344 -3.41126 0
M  V30 2422 N 229.106 1.52395 0.401703 0
M  V30 2423 C 230.036 1.79231 1.49661 0
M  V30 2424 C 231.017 0.643654 1.57452 0
M  V30 2425 O 232.202 0.889989 1.72606 0
M  V30 2426 C 229.332 1.94971 2.87409 0
M  V30 2427 C 228.286 3.10604 2.94465 0
M  V30 2428 C 227.612 3.11577 4.34538 0
M  V30 2429 C 228.912 4.49921 2.6527 0
M  V30 2430 H 230.606 2.70917 1.27454 0
M  V30 2431 H 228.152 1.30362 0.6117 0
M  V30 2432 H 230.105 2.12328 3.63999 0
M  V30 2433 H 228.829 0.999632 3.10926 0
M  V30 2434 H 227.488 2.93009 2.20321 0
M  V30 2435 H 227.136 2.14277 4.55076 0
M  V30 2436 H 226.836 3.89247 4.40183 0
M  V30 2437 H 228.36 3.31073 5.13053 0
M  V30 2438 H 229.774 4.67683 3.31581 0
M  V30 2439 H 228.171 5.29564 2.82281 0
M  V30 2440 H 229.241 4.57507 1.60671 0
M  V30 2441 N 230.584 -0.659388 1.43143 0
M  V30 2442 C 231.833 -1.41518 1.43721 0
M  V30 2443 C 232.146 -1.95499 0.0628176 0
M  V30 2444 O 233.352 -2.71446 -0.0539683 0
M  V30 2445 C 231.808 -2.5608 2.52885 0
M  V30 2446 C 231.416 -2.08733 3.96402 0
M  V30 2447 C 233.16 -3.3349 2.62649 0
M  V30 2448 C 231.067 -3.20469 4.97045 0
M  V30 2449 H 229.997 -0.531705 0.534608 0
M  V30 2450 H 232.648 -0.712343 1.69109 0
M  V30 2451 H 231.03 -3.28805 2.20688 0
M  V30 2452 H 232.204 -1.43059 4.3803 0
M  V30 2453 H 230.519 -1.44219 3.90627 0
M  V30 2454 H 233.116 -4.16734 3.35017 0
M  V30 2455 H 233.459 -3.8111 1.67513 0
M  V30 2456 H 233.992 -2.67842 2.94118 0
M  V30 2457 H 230.731 -2.77824 5.93712 0
M  V30 2458 H 230.251 -3.84874 4.60034 0
M  V30 2459 H 231.93 -3.85698 5.19467 0
M  V30 2460 N 232.062 -1.29571 -0.897171 0
M  V30 2461 C 233.473 -1.15964 -1.46319 0
M  V30 2462 C 233.824 0.244267 -1.94674 0
M  V30 2463 O 232.949 1.13998 -1.83939 0
M  V30 2464 C 233.544 -2.09906 -2.65942 0
M  V30 2465 C 232.103 -2.00314 -3.18671 0
M  V30 2466 C 231.25 -2.00687 -1.91363 0
M  V30 2467 H 234.201 -1.42019 -0.708268 0
M  V30 2468 H 234.222 -1.67276 -3.41759 0
M  V30 2469 H 233.734 -3.12075 -2.30718 0
M  V30 2470 H 231.835 -1.01242 -3.58582 0
M  V30 2471 H 231.948 -2.88102 -3.82798 0
M  V30 2472 H 230.312 -1.45319 -2.09175 0
M  V30 2473 H 231.095 -3.04566 -1.58413 0
M  V30 2474 N 233.54 1.10788 -1.12088 0
M  V30 2475 C 234.787 1.82671 -0.873931 0
M  V30 2476 C 235.115 1.85004 0.600311 0
M  V30 2477 O 234.37 1.30365 1.45957 0
M  V30 2478 C 234.669 3.29294 -1.38926 0
M  V30 2479 C 234.335 3.47113 -2.87791 0
M  V30 2480 C 232.997 3.51684 -3.28439 0
M  V30 2481 C 235.349 3.52808 -3.83635 0
M  V30 2482 C 232.677 3.59513 -4.63646 0
M  V30 2483 C 235.029 3.62169 -5.18668 0
M  V30 2484 C 233.693 3.65003 -5.58864 0
M  V30 2485 H 232.963 0.668441 -0.319794 0
M  V30 2486 H 235.61 1.30613 -1.40045 0
M  V30 2487 H 233.915 3.83894 -0.783122 0
M  V30 2488 H 235.612 3.83416 -1.17443 0
M  V30 2489 H 232.202 3.4423 -2.5535 0
M  V30 2490 H 236.386 3.4853 -3.53328 0
M  V30 2491 H 231.642 3.59987 -4.94185 0
M  V30 2492 H 235.816 3.6552 -5.92763 0
M  V30 2493 H 233.443 3.70822 -6.63623 0
M  V30 2494 N 235.018 0.912232 1.28515 0
M  V30 2495 C 235.948 0.416403 2.29757 0
M  V30 2496 C 236.929 -0.515194 1.6211 0
M  V30 2497 O 238.114 -0.423253 1.89532 0
M  V30 2498 C 235.244 -0.34572 3.45575 0
M  V30 2499 C 234.198 0.496599 4.25109 0
M  V30 2500 C 233.524 -0.393771 5.33248 0
M  V30 2501 C 234.824 1.75307 4.92001 0
M  V30 2502 H 236.518 1.26249 2.7148 0
M  V30 2503 H 234.064 0.608515 1.30511 0
M  V30 2504 H 236.017 -0.703422 4.15488 0
M  V30 2505 H 234.741 -1.2257 3.02728 0
M  V30 2506 H 233.4 0.8368 3.56922 0
M  V30 2507 H 233.048 -1.27225 4.86644 0
M  V30 2508 H 232.748 0.166209 5.87365 0
M  V30 2509 H 234.272 -0.747389 6.06009 0
M  V30 2510 H 235.686 1.46437 5.54283 0
M  V30 2511 H 234.083 2.25534 5.56106 0
M  V30 2512 H 235.153 2.48176 4.16577 0
M  V30 2513 N 236.496 -1.42363 0.676048 0
M  V30 2514 C 237.745 -2.00745 0.196037 0
M  V30 2515 C 238.058 -1.54083 -1.20489 0
M  V30 2516 O 239.264 -2.04891 -1.78134 0
M  V30 2517 C 237.72 -3.58651 0.299616 0
M  V30 2518 C 237.328 -4.143 1.70468 0
M  V30 2519 C 239.072 -4.24326 -0.121619 0
M  V30 2520 C 236.979 -5.64574 1.76096 0
M  V30 2521 H 235.909 -0.750787 0.0695301 0
M  V30 2522 H 238.56 -1.63072 0.841412 0
M  V30 2523 H 236.942 -3.93833 -0.413673 0
M  V30 2524 H 238.116 -3.90575 2.44515 0
M  V30 2525 H 236.431 -3.61081 2.07387 0
M  V30 2526 H 239.028 -5.34607 -0.0997362 0
M  V30 2527 H 239.371 -3.99897 -1.15708 0
M  V30 2528 H 239.904 -3.94108 0.540706 0
M  V30 2529 H 236.643 -5.93804 2.77628 0
M  V30 2530 H 236.163 -5.90286 1.06406 0
M  V30 2531 H 237.842 -6.29013 1.51496 0
M  V30 2532 N 237.974 -0.419461 -1.51915 0
M  V30 2533 C 239.202 0.152136 -2.0634 0
M  V30 2534 C 239.617 1.37988 -1.28859 0
M  V30 2535 O 238.974 1.79243 -0.343232 0
M  V30 2536 C 239.025 0.492266 -3.58133 0
M  V30 2537 O 238.746 -0.686736 -4.32684 0
M  V30 2538 C 240.247 1.11648 -4.2901 0
M  V30 2539 H 237.467 0.0158325 -0.670813 0
M  V30 2540 H 240.011 -0.593394 -1.95702 0
M  V30 2541 H 238.166 1.18769 -3.68745 0
M  V30 2542 H 238.58 -0.400341 -5.2297 0
M  V30 2543 H 240.054 1.3046 -5.36362 0
M  V30 2544 H 240.531 2.09251 -3.86148 0
M  V30 2545 H 241.137 0.460958 -4.22795 0
M  V30 2546 N 239.452 1.56882 -0.150215 0
M  V30 2547 C 240.382 2.19935 0.784284 0
M  V30 2548 C 241.363 1.14854 1.25469 0
M  V30 2549 O 242.548 1.43209 1.31168 0
M  V30 2550 C 239.678 2.82349 2.02229 0
M  V30 2551 C 238.632 3.93285 1.68853 0
M  V30 2552 C 237.958 4.42649 2.99944 0
M  V30 2553 C 239.258 5.13904 0.932714 0
M  V30 2554 H 240.952 2.9828 0.258781 0
M  V30 2555 H 238.498 1.43473 0.123029 0
M  V30 2556 H 240.451 3.25126 2.68088 0
M  V30 2557 H 239.175 2.0134 2.57157 0
M  V30 2558 H 237.834 3.5113 1.05371 0
M  V30 2559 H 237.482 3.58458 3.52869 0
M  V30 2560 H 237.182 5.17476 2.78374 0
M  V30 2561 H 238.706 4.88099 3.66868 0
M  V30 2562 H 240.12 5.53506 1.49345 0
M  V30 2563 H 238.517 5.94515 0.81684 0
M  V30 2564 H 239.587 4.84842 -0.0749568 0
M  V30 2565 N 240.93 -0.123565 1.57115 0
M  V30 2566 C 242.176 -0.833386 1.84885 0
M  V30 2567 C 242.509 -1.79742 0.735292 0
M  V30 2568 O 241.784 -1.92764 -0.25925 0
M  V30 2569 C 242.067 -1.5873 3.23228 0
M  V30 2570 C 241.92 -0.643183 4.45178 0
M  V30 2571 C 243.239 -2.54453 3.59085 0
M  V30 2572 H 240.358 -0.301518 0.6725 0
M  V30 2573 H 243 -0.097778 1.89748 0
M  V30 2574 H 241.15 -2.21438 3.19214 0
M  V30 2575 H 242.822 -0.0253015 4.61293 0
M  V30 2576 H 241.065 0.0456139 4.33776 0
M  V30 2577 H 241.736 -1.20724 5.38637 0
M  V30 2578 H 244.212 -2.01853 3.63861 0
M  V30 2579 H 243.088 -3.04238 4.5687 0
M  V30 2580 H 243.349 -3.36906 2.86264 0
M  V30 2581 N 242.408 -1.52605 -0.393616 0
M  V30 2582 C 243.654 -1.67672 -1.14079 0
M  V30 2583 C 243.987 -0.413121 -1.89755 0
M  V30 2584 O 243.262 0.588952 -1.85369 0
M  V30 2585 C 243.545 -2.9088 -2.12276 0
M  V30 2586 C 243.398 -4.27329 -1.40394 0
M  V30 2587 C 244.717 -3.09628 -3.12759 0
M  V30 2588 H 241.836 -0.610168 -0.413356 0
M  V30 2589 H 244.478 -1.85193 -0.424696 0
M  V30 2590 H 242.628 -2.76073 -2.73342 0
M  V30 2591 H 244.3 -4.53894 -0.82327 0
M  V30 2592 H 242.543 -4.2802 -0.705801 0
M  V30 2593 H 243.214 -5.09615 -2.12123 0
M  V30 2594 H 245.69 -3.23436 -2.61779 0
M  V30 2595 H 244.566 -3.97322 -3.78717 0
M  V30 2596 H 244.827 -2.23637 -3.81365 0
M  V30 2597 N 243.887 0.651787 -1.4349 0
M  V30 2598 C 245.133 1.4121 -1.46395 0
M  V30 2599 C 245.488 1.92202 -0.087366 0
M  V30 2600 O 244.781 1.69452 0.894231 0
M  V30 2601 C 244.975 2.60914 -2.44251 0
M  V30 2602 C 244.804 2.21639 -3.91288 0
M  V30 2603 C 243.574 2.09897 -4.59643 0
M  V30 2604 C 245.772 1.81835 -4.81083 0
M  V30 2605 N 243.754 1.63967 -5.91598 0
M  V30 2606 C 245.125 1.46998 -6.02322 0
M  V30 2607 C 247.18 1.69031 -4.6833 0
M  V30 2608 C 245.883 1.00638 -7.12225 0
M  V30 2609 C 247.909 1.24077 -5.78238 0
M  V30 2610 C 247.271 0.901772 -6.98604 0
M  V30 2611 H 243.37 0.512322 -0.590805 0
M  V30 2612 H 245.954 0.74989 -1.7968 0
M  V30 2613 H 244.125 3.24792 -2.1299 0
M  V30 2614 H 245.857 3.27622 -2.37584 0
M  V30 2615 H 242.612 2.297 -4.14168 0
M  V30 2616 H 243.036 1.43359 -6.61647 0
M  V30 2617 H 247.678 1.93878 -3.75727 0
M  V30 2618 H 245.396 0.745399 -8.04655 0
M  V30 2619 H 248.982 1.14657 -5.7039 0
M  V30 2620 H 247.862 0.559226 -7.82203 0
M  V30 2621 N 245.365 1.30045 0.890287 0
M  V30 2622 C 246.781 1.08261 1.17268 0
M  V30 2623 C 246.981 -0.160063 2.00863 0
M  V30 2624 O 246.037 -0.855181 2.37577 0
M  V30 2625 C 247.35 2.34323 1.8845 0
M  V30 2626 C 248.898 2.39735 2.01237 0
M  V30 2627 C 249.373 3.65625 2.7583 0
M  V30 2628 N 250.864 3.66402 2.83379 0
M  V30 2629 C 251.599 4.60498 3.41657 0
M  V30 2630 N 251.095 5.64933 4.01026 0
M  V30 2631 N 252.888 4.48051 3.39421 0
M  V30 2632 H 245.039 2.09777 0.332762 0
M  V30 2633 H 247.302 0.92446 0.209948 0
M  V30 2634 H 247.008 3.2498 1.34465 0
M  V30 2635 H 246.882 2.4256 2.88867 0
M  V30 2636 H 249.269 1.4956 2.54393 0
M  V30 2637 H 249.35 2.35476 0.999232 0
M  V30 2638 H 248.994 4.56156 2.23347 0
M  V30 2639 H 248.924 3.67144 3.77509 0
M  V30 2640 H 251.415 2.90896 2.41222 0
M  V30 2641 H 251.728 6.32841 4.43545 0
M  V30 2642 H 250.073 5.68732 3.99461 0
M  V30 2643 H 253.264 3.65649 2.92264 0
M  V30 2644 H 253.437 5.21565 3.84544 0
M  V30 2645 N 246.843 -1.10192 1.12674 0
M  V30 2646 C 248.068 -1.86523 0.906853 0
M  V30 2647 C 248.493 -1.80221 -0.538711 0
M  V30 2648 O 247.851 -1.17396 -1.38158 0
M  V30 2649 C 247.899 -3.32758 1.3894 0
M  V30 2650 O 247.003 -4.08449 0.5695 0
M  V30 2651 H 246.344 -0.578678 0.325619 0
M  V30 2652 H 248.874 -1.39203 1.49946 0
M  V30 2653 H 248.884 -3.83608 1.38958 0
M  V30 2654 H 247.559 -3.36661 2.44197 0
M  V30 2655 H 246.136 -3.67427 0.636528 0
M  V30 2656 N 248.321 -0.919034 -1.28029 0
M  V30 2657 C 249.268 -0.410005 -2.27129 0
M  V30 2658 C 250.238 0.518405 -1.57803 0
M  V30 2659 O 251.423 0.439451 -1.8567 0
M  V30 2660 C 248.563 0.339054 -3.4343 0
M  V30 2661 C 247.676 -0.622468 -4.27492 0
M  V30 2662 C 246.811 0.145567 -5.31001 0
M  V30 2663 C 245.85 -0.809226 -6.06727 0
M  V30 2664 N 244.987 -0.0743728 -7.02061 0
M  V30 2665 H 249.827 -1.26011 -2.70047 0
M  V30 2666 H 247.364 -0.632663 -1.328 0
M  V30 2667 H 249.322 0.789586 -4.0966 0
M  V30 2668 H 247.952 1.15346 -3.01488 0
M  V30 2669 H 247.004 -1.19153 -3.61257 0
M  V30 2670 H 248.316 -1.35252 -4.80113 0
M  V30 2671 H 247.47 0.656417 -6.03139 0
M  V30 2672 H 246.209 0.908643 -4.79161 0
M  V30 2673 H 245.214 -1.3314 -5.33436 0
M  V30 2674 H 246.439 -1.57194 -6.60656 0
M  V30 2675 H 244.385 0.670616 -6.52563 0
M  V30 2676 H 244.302 -0.744157 -7.52329 0
M  V30 2677 H 245.57 0.416109 -7.78389 0
M  V30 2678 N 249.799 1.42003 -0.683588 0
M  V30 2679 C 251.076 1.95112 -0.138075 0
M  V30 2680 C 251.456 1.62359 1.34918 0
M  V30 2681 O 250.804 0.924311 2.08971 0
M  V30 2682 C 251.014 3.46505 -0.416581 0
M  V30 2683 C 252.362 4.23254 -0.337834 0
M  V30 2684 O 253.386 3.54468 -0.35082 0
M  V30 2685 O 252.245 5.45743 -0.287596 0
M  V30 2686 H 249.339 0.826961 -0.00797996 0
M  V30 2687 H 251.885 1.51784 -0.758924 0
M  V30 2688 H 250.657 3.63582 -1.4465 0
M  V30 2689 H 250.28 3.969 0.235839 0
M  V30 2690 N 251.277 0.427512 1.51691 0
M  V30 2691 C 252.502 -0.143601 2.06902 0
M  V30 2692 C 252.927 -1.36536 1.29382 0
M  V30 2693 O 252.285 -1.78289 0.329043 0
M  V30 2694 C 252.333 -0.454207 3.57728 0
M  V30 2695 O 251.437 -1.54228 3.82475 0
M  V30 2696 H 250.778 -0.00617128 0.663971 0
M  V30 2697 H 253.308 0.606014 1.95419 0
M  V30 2698 H 253.318 -0.707525 4.01818 0
M  V30 2699 H 251.993 0.438812 4.13579 0
M  V30 2700 H 250.57 -1.2797 3.50254 0
M  V30 2701 N 252.755 -1.56801 0.158532 0
M  V30 2702 C 253.665 -2.20916 -0.789518 0
M  V30 2703 C 254.681 -1.1969 -1.26294 0
M  V30 2704 O 255.857 -1.52308 -1.31773 0
M  V30 2705 C 252.922 -2.82727 -2.00665 0
M  V30 2706 C 251.983 -3.99114 -1.58134 0
M  V30 2707 C 251.216 -4.57968 -2.74045 0
M  V30 2708 O 251.439 -4.15704 -3.90572 0
M  V30 2709 O 250.373 -5.48047 -2.48855 0
M  V30 2710 H 254.199 -3.02464 -0.273681 0
M  V30 2711 H 251.784 -1.4924 -0.0690548 0
M  V30 2712 H 253.666 -3.21968 -2.71872 0
M  V30 2713 H 252.341 -2.04184 -2.51179 0
M  V30 2714 H 251.248 -3.64567 -0.839155 0
M  V30 2715 H 252.581 -4.79212 -1.12325 0
M  V30 2716 N 254.233 0.115231 -1.57178 0
M  V30 2717 C 255.196 1.12526 -1.99676 0
M  V30 2718 C 256.196 1.34095 -0.88742 0
M  V30 2719 O 257.386 1.30548 -1.15337 0
M  V30 2720 C 254.518 2.4789 -2.34015 0
M  V30 2721 H 255.711 0.759912 -2.90113 0
M  V30 2722 H 253.264 0.359648 -1.52106 0
M  V30 2723 H 253.999 2.89339 -1.4647 0
M  V30 2724 H 253.784 2.33588 -3.14927 0
M  V30 2725 H 255.274 3.20575 -2.67622 0
M  V30 2726 N 255.711 1.52812 0.385517 0
M  V30 2727 C 256.643 1.74096 1.49074 0
M  V30 2728 C 257.656 0.621462 1.50472 0
M  V30 2729 O 258.845 0.897245 1.54311 0
M  V30 2730 C 255.945 1.78774 2.87911 0
M  V30 2731 C 255.118 3.08134 3.10439 0
M  V30 2732 C 254.177 3.04313 4.29278 0
M  V30 2733 O 253.203 3.78168 4.25415 0
M  V30 2734 N 254.405 2.23741 5.35649 0
M  V30 2735 H 257.17 2.69455 1.31202 0
M  V30 2736 H 254.731 1.51343 0.575065 0
M  V30 2737 H 256.723 1.73721 3.65518 0
M  V30 2738 H 255.293 0.907869 2.99126 0
M  V30 2739 H 254.513 3.26649 2.20667 0
M  V30 2740 H 255.801 3.93662 3.22347 0
M  V30 2741 H 255.199 1.63211 5.41645 0
M  V30 2742 H 253.756 2.24524 6.11909 0
M  V30 2743 N 257.189 -0.644168 1.43834 0
M  V30 2744 C 258.152 -1.73857 1.49353 0
M  V30 2745 C 259.152 -1.56315 0.377112 0
M  V30 2746 O 260.342 -1.62048 0.639226 0
M  V30 2747 C 257.474 -3.12819 1.35488 0
M  V30 2748 H 258.667 -1.70342 2.46827 0
M  V30 2749 H 256.22 -0.856652 1.30733 0
M  V30 2750 H 256.955 -3.2194 0.390569 0
M  V30 2751 H 256.74 -3.26958 2.16428 0
M  V30 2752 H 258.23 -3.92606 1.42302 0
M  V30 2753 O 258.706 -1.41006 -0.787381 0
M  V30 2754 H 259.397 -1.30255 -1.43364 0
M  V30 END ATOM
M  V30 BEGIN BOND
M  V30 END BOND
M  V30 END CTAB
M  END
$$$$
