drugbank_target|O60882 Matrix metalloproteinase-20 (DB00786; DB08271)
 OpenBabel12092120363D

  0  0  0     0  0            999 V3000
M  V30 BEGIN CTAB
M  V30 COUNTS 7597 7710 0 0 0
M  V30 BEGIN ATOM
M  V30 1 H -0.908 1.98254 -0.117106 0
M  V30 2 N 0 1.576 0 0
M  V30 3 C 0.933 2.03868 1.02534 0
M  V30 4 C 1.911 0.928543 1.3348 0
M  V30 5 O 3.095 1.19667 1.45644 0
M  V30 6 C 0.222 2.43627 2.35294 0
M  V30 7 C -0.732 3.65373 2.2001 0
M  V30 8 S 0.101 5.13292 1.52614 0
M  V30 9 C 1.257 5.56322 2.86805 0
M  V30 10 H 1.49 2.90518 0.631377 0
M  V30 11 H -0.977 1.52953 0.210867 0
M  V30 12 H 0.981 2.67203 3.11629 0
M  V30 13 H -0.358 1.57376 2.7183 0
M  V30 14 H -1.165 3.90944 3.18086 0
M  V30 15 H -1.563 3.418 1.51819 0
M  V30 16 H 0.729 5.58782 3.83104 0
M  V30 17 H 1.672 6.56266 2.65933 0
M  V30 18 H 2.08 4.83886 2.90714 0
M  V30 19 N 1.4781 -0.272755 1.55222 0
M  V30 20 C 2.4251 -1.33716 1.88119 0
M  V30 21 C 3.3951 -1.49066 0.73271 0
M  V30 22 O 4.5801 -1.63469 0.984002 0
M  V30 23 C 1.7201 -2.69238 2.15882 0
M  V30 24 C 0.8331 -2.62108 3.43399 0
M  V30 25 C -0.0319 -3.89811 3.60861 0
M  V30 26 C -0.9929 -3.77193 4.8207 0
M  V30 27 N -1.8559 -4.9673 4.96189 0
M  V30 28 H 2.9841 -1.04962 2.78903 0
M  V30 29 H 0.5211 -0.507088 1.38083 0
M  V30 30 H 2.4791 -3.48089 2.29978 0
M  V30 31 H 1.1091 -2.96194 1.28331 0
M  V30 32 H 0.1611 -1.74967 3.37773 0
M  V30 33 H 1.4731 -2.48685 4.32386 0
M  V30 34 H 0.6271 -4.77103 3.74777 0
M  V30 35 H -0.6339 -4.06102 2.7006 0
M  V30 36 H -1.6289 -2.88284 4.68159 0
M  V30 37 H -0.4039 -3.62421 5.74307 0
M  V30 38 H -2.4579 -5.13431 4.08319 0
M  V30 39 H -2.5409 -4.85839 5.79221 0
M  V30 40 H -1.2729 -5.85594 5.1449 0
M  V30 41 N 2.9562 -1.48159 -0.537278 0
M  V30 42 C 4.2022 -1.56035 -1.29541 0
M  V30 43 C 4.5352 -0.230377 -1.92829 0
M  V30 44 O 3.8102 0.762952 -1.78911 0
M  V30 45 C 4.0932 -2.69323 -2.39034 0
M  V30 46 C 3.9462 -4.12002 -1.80485 0
M  V30 47 C 5.2652 -2.78408 -3.40847 0
M  V30 48 H 2.3842 -0.567992 -0.469632 0
M  V30 49 H 5.0262 -1.80302 -0.599277 0
M  V30 50 H 3.1762 -2.48763 -2.98412 0
M  V30 51 H 4.8482 -4.43981 -1.25215 0
M  V30 52 H 3.0912 -4.19344 -1.11055 0
M  V30 53 H 3.7622 -4.87077 -2.59731 0
M  V30 54 H 6.2382 -2.97012 -2.91416 0
M  V30 55 H 5.1142 -3.59416 -4.14863 0
M  V30 56 H 5.3752 -1.86269 -4.00944 0
M  V30 57 N 4.4343 0.785586 -1.36625 0
M  V30 58 C 5.3643 1.91259 -1.33949 0
M  V30 59 C 6.3453 1.68795 -0.210325 0
M  V30 60 O 7.5303 1.89854 -0.408561 0
M  V30 61 C 4.6603 3.28339 -1.13186 0
M  V30 62 C 3.6143 3.65335 -2.22967 0
M  V30 63 C 2.9403 5.00806 -1.87342 0
M  V30 64 C 4.2403 3.7352 -3.65075 0
M  V30 65 H 5.9343 1.93755 -2.28253 0
M  V30 66 H 3.4803 0.930788 -1.09874 0
M  V30 67 H 5.4333 4.06804 -1.09948 0
M  V30 68 H 4.1573 3.2624 -0.153332 0
M  V30 69 H 2.8163 2.89169 -2.25337 0
M  V30 70 H 2.4643 4.95233 -0.880545 0
M  V30 71 H 2.1643 5.26529 -2.60846 0
M  V30 72 H 3.6883 5.81687 -1.85667 0
M  V30 73 H 5.1023 4.42168 -3.64911 0
M  V30 74 H 3.4993 4.10731 -4.37516 0
M  V30 75 H 4.5693 2.74527 -3.99703 0
M  V30 76 N 5.9124 1.20967 1.01018 0
M  V30 77 C 7.3234 1.02319 1.56165 0
M  V30 78 C 7.6744 -0.418546 1.91684 0
M  V30 79 O 6.7994 -1.30096 1.72928 0
M  V30 80 C 7.3944 1.85109 2.8376 0
M  V30 81 C 5.9534 1.70809 3.35412 0
M  V30 82 C 5.1004 1.82643 2.08655 0
M  V30 83 H 8.0514 1.35065 0.833255 0
M  V30 84 H 8.0724 1.35827 3.55431 0
M  V30 85 H 7.5844 2.90035 2.57878 0
M  V30 86 H 5.6854 0.685464 3.66241 0
M  V30 87 H 5.7984 2.52467 4.07182 0
M  V30 88 H 4.1624 1.25896 2.21409 0
M  V30 89 H 4.9454 2.89066 1.85191 0
M  V30 90 N 7.3905 -1.2043 1.01659 0
M  V30 91 C 8.3535 -2.21433 0.591616 0
M  V30 92 C 9.3535 -1.57203 -0.338226 0
M  V30 93 O 10.5435 -1.73737 -0.126918 0
M  V30 94 C 7.6755 -3.40628 -0.136058 0
M  V30 95 H 8.8685 -2.60545 1.48514 0
M  V30 96 H 6.4215 -1.33893 0.806379 0
M  V30 97 H 7.1565 -3.07019 -1.04449 0
M  V30 98 H 6.9415 -3.88475 0.531917 0
M  V30 99 H 8.4315 -4.15475 -0.420735 0
M  V30 100 N 8.8686 -0.792821 -1.36206 0
M  V30 101 C 10.0936 -0.377701 -2.03932 0
M  V30 102 C 10.5186 0.998947 -1.59382 0
M  V30 103 O 9.8766 1.64421 -0.763903 0
M  V30 104 C 9.9246 -0.453635 -3.57735 0
M  V30 105 O 9.0286 0.538151 -4.08874 0
M  V30 106 H 8.3696 -0.159855 -0.644471 0
M  V30 107 H 10.8996 -1.07488 -1.7409 0
M  V30 108 H 10.9096 -0.318464 -4.06755 0
M  V30 109 H 9.5846 -1.45784 -3.89512 0
M  V30 110 H 8.1616 0.364359 -3.71116 0
M  V30 111 N 10.3467 1.47872 -0.545128 0
M  V30 112 C 11.5947 2.02093 -0.016553 0
M  V30 113 C 11.9157 1.42305 1.3332 0
M  V30 114 O 11.1857 0.593853 1.86682 0
M  V30 115 H 9.7657 0.746993 -0.00313038 0
M  V30 116 H 12.4277 1.81414 -0.712397 0
M  V30 117 H 11.5237 3.11996 0.0805422 0
M  V30 118 N 11.8248 0.280983 1.55075 0
M  V30 119 C 12.7548 -0.597469 2.25727 0
M  V30 120 C 13.7358 -1.15417 1.24952 0
M  V30 121 O 14.9208 -1.18722 1.53684 0
M  V30 122 C 12.0508 -1.7789 2.98283 0
M  V30 123 C 11.0048 -1.35347 4.06036 0
M  V30 124 C 10.3308 -2.61846 4.66198 0
M  V30 125 C 11.6308 -0.499354 5.19907 0
M  V30 126 H 13.3248 -0.00824265 2.99399 0
M  V30 127 H 10.8708 -0.0025244 1.44 0
M  V30 128 H 12.8238 -2.39937 3.46422 0
M  V30 129 H 11.5478 -2.39405 2.22155 0
M  V30 130 H 10.2068 -0.756156 3.58717 0
M  V30 131 H 9.8548 -3.21632 3.86732 0
M  V30 132 H 9.5548 -2.3409 5.38958 0
M  V30 133 H 11.0788 -3.24732 5.1709 0
M  V30 134 H 12.4928 -1.02498 5.64063 0
M  V30 135 H 10.8898 -0.316424 5.99265 0
M  V30 136 H 11.9598 0.480459 4.82514 0
M  V30 137 N 13.3029 -1.57598 0.00835791 0
M  V30 138 C 14.2659 -2.07884 -0.965242 0
M  V30 139 C 15.2659 -0.989825 -1.26725 0
M  V30 140 O 16.4559 -1.25218 -1.21104 0
M  V30 141 C 13.5879 -2.52731 -2.28779 0
M  V30 142 H 14.7809 -2.95178 -0.530112 0
M  V30 143 H 12.3339 -1.54458 -0.239283 0
M  V30 144 H 13.0689 -1.68705 -2.76964 0
M  V30 145 H 12.8539 -3.32272 -2.08177 0
M  V30 146 H 14.3439 -2.91933 -2.98605 0
M  V30 147 N 14.781 0.264519 -1.55364 0
M  V30 148 C 16.027 0.99646 -1.76631 0
M  V30 149 C 16.36 1.85632 -0.570478 0
M  V30 150 O 15.635 1.89647 0.43175 0
M  V30 151 C 15.918 1.87187 -3.07625 0
M  V30 152 C 15.771 1.04138 -4.37579 0
M  V30 153 C 17.09 2.85749 -3.34717 0
M  V30 154 H 14.209 0.360841 -0.642622 0
M  V30 155 H 16.851 0.268218 -1.88097 0
M  V30 156 H 15.001 2.49279 -2.9798 0
M  V30 157 H 16.673 0.440517 -4.59192 0
M  V30 158 H 14.916 0.345115 -4.32425 0
M  V30 159 H 15.587 1.68729 -5.2558 0
M  V30 160 H 18.063 2.33793 -3.4421 0
M  V30 161 H 16.939 3.44136 -4.27623 0
M  V30 162 H 17.2 3.61311 -2.54768 0
M  V30 163 N 16.2591 1.48442 0.529413 0
M  V30 164 C 17.5061 1.56488 1.28521 0
M  V30 165 C 17.8341 0.239042 1.93025 0
M  V30 166 O 17.0891 -0.770713 1.79885 0
M  V30 167 C 17.3881 2.6523 2.39558 0
M  V30 168 C 17.0541 4.07648 1.92702 0
M  V30 169 C 15.7161 4.46411 1.79641 0
M  V30 170 C 18.0681 4.96896 1.573 0
M  V30 171 C 15.3961 5.72226 1.29514 0
M  V30 172 C 17.7481 6.23202 1.08636 0
M  V30 173 C 16.4121 6.60821 0.941919 0
M  V30 174 H 15.6821 0.572631 0.470292 0
M  V30 175 H 18.3291 1.82161 0.59072 0
M  V30 176 H 16.6341 2.33419 3.14679 0
M  V30 177 H 18.3311 2.68671 2.97686 0
M  V30 178 H 14.9211 3.77036 2.03819 0
M  V30 179 H 19.1051 4.67626 1.66251 0
M  V30 180 H 14.3611 6.00097 1.17019 0
M  V30 181 H 18.5351 6.91753 0.803136 0
M  V30 182 H 16.1621 7.58198 0.5513 0
M  V30 183 N 17.7372 -0.778329 1.37039 0
M  V30 184 C 18.6672 -1.90546 1.34962 0
M  V30 185 C 19.6482 -1.68681 0.219274 0
M  V30 186 O 20.8332 -1.89634 0.418624 0
M  V30 187 C 17.9632 -3.27734 1.14925 0
M  V30 188 C 16.9172 -3.64147 2.24902 0
M  V30 189 C 16.2432 -4.99806 1.89996 0
M  V30 190 C 17.5432 -3.71579 3.67051 0
M  V30 191 H 19.2372 -1.92541 2.29277 0
M  V30 192 H 16.7832 -0.924948 1.10366 0
M  V30 193 H 18.7362 -4.06215 1.12104 0
M  V30 194 H 17.4602 -3.26154 0.170631 0
M  V30 195 H 16.1192 -2.8797 2.26868 0
M  V30 196 H 15.7672 -4.94759 0.906796 0
M  V30 197 H 15.4672 -5.25139 2.63634 0
M  V30 198 H 16.9912 -5.80694 1.88749 0
M  V30 199 H 18.4052 -4.40227 3.67251 0
M  V30 200 H 16.8022 -4.08405 4.39688 0
M  V30 201 H 17.8722 -2.72404 4.01154 0
M  V30 202 N 19.2153 -1.21501 -1.00376 0
M  V30 203 C 20.4643 -1.02718 -1.73586 0
M  V30 204 C 20.7773 0.439589 -1.90596 0
M  V30 205 O 21.9833 0.746848 -2.61026 0
M  V30 206 C 20.4393 -1.78929 -3.1227 0
M  V30 207 C 20.0473 -3.29783 -3.03228 0
M  V30 208 C 21.7913 -1.68557 -3.89601 0
M  V30 209 C 19.6983 -3.98479 -4.36999 0
M  V30 210 H 18.6283 -0.380733 -0.650814 0
M  V30 211 H 21.2793 -1.45248 -1.1214 0
M  V30 212 H 19.6613 -1.29192 -3.74333 0
M  V30 213 H 20.8353 -3.86832 -2.50395 0
M  V30 214 H 19.1503 -3.40711 -2.39385 0
M  V30 215 H 21.7473 -2.17211 -4.88593 0
M  V30 216 H 22.0903 -0.644021 -4.11288 0
M  V30 217 H 22.6233 -2.15778 -3.34193 0
M  V30 218 H 19.3623 -5.02841 -4.20513 0
M  V30 219 H 18.8823 -3.46219 -4.89788 0
M  V30 220 H 20.5613 -4.03462 -5.05794 0
M  V30 221 N 20.6934 1.19889 -1.02296 0
M  V30 222 C 21.6264 2.21639 -0.543282 0
M  V30 223 C 22.6044 1.57275 0.412698 0
M  V30 224 O 23.7884 1.85568 0.331198 0
M  V30 225 C 20.9154 3.38057 0.208571 0
M  V30 226 C 19.9614 4.20751 -0.697933 0
M  V30 227 S 20.7944 4.89529 -2.17075 0
M  V30 228 C 21.9504 6.09363 -1.42923 0
M  V30 229 H 22.1834 2.61984 -1.40541 0
M  V30 230 H 19.7164 1.30041 -0.832387 0
M  V30 231 H 21.6744 4.05539 0.63624 0
M  V30 232 H 20.3354 2.96159 1.04635 0
M  V30 233 H 19.5284 5.03862 -0.117831 0
M  V30 234 H 19.1304 3.58556 -1.06366 0
M  V30 235 H 21.4224 6.73742 -0.712637 0
M  V30 236 H 22.3654 6.71845 -2.23673 0
M  V30 237 H 22.7734 5.56798 -0.929327 0
M  V30 238 N 22.1715 0.800033 1.35784 0
M  V30 239 C 23.1345 0.211565 2.28221 0
M  V30 240 C 24.1345 -0.59728 1.49296 0
M  V30 241 O 25.3245 -0.416721 1.69142 0
M  V30 242 C 22.4565 -0.705846 3.33513 0
M  V30 243 H 23.6495 1.02677 2.81776 0
M  V30 244 H 21.2025 0.570211 1.45528 0
M  V30 245 H 21.9375 -1.54498 2.85133 0
M  V30 246 H 21.7225 -0.127655 3.91892 0
M  V30 247 H 23.2125 -1.11211 4.02519 0
M  V30 248 N 23.6496 -1.47581 0.552962 0
M  V30 249 C 24.5796 -2.32762 -0.185451 0
M  V30 250 C 25.5606 -1.43527 -0.912905 0
M  V30 251 O 26.7456 -1.72388 -0.894201 0
M  V30 252 C 23.8756 -3.25219 -1.21859 0
M  V30 253 C 22.8296 -4.23661 -0.607864 0
M  V30 254 C 22.1556 -5.05413 -1.74533 0
M  V30 255 C 23.4556 -5.20481 0.435582 0
M  V30 256 H 25.1496 -2.94749 0.525684 0
M  V30 257 H 22.6956 -1.41738 0.254251 0
M  V30 258 H 24.6486 -3.8365 -1.7433 0
M  V30 259 H 23.3726 -2.61279 -1.95961 0
M  V30 260 H 22.0316 -3.66451 -0.104489 0
M  V30 261 H 21.6796 -4.3788 -2.47529 0
M  V30 262 H 21.3796 -5.72059 -1.34249 0
M  V30 263 H 22.9036 -5.66701 -2.27338 0
M  V30 264 H 24.3176 -5.733 -0.00290157 0
M  V30 265 H 22.7146 -5.95305 0.757067 0
M  V30 266 H 23.7846 -4.66217 1.33303 0
M  V30 267 N 25.1277 -0.289203 -1.54924 0
M  V30 268 C 26.0747 0.592115 -2.23075 0
M  V30 269 C 27.0447 1.13881 -1.20915 0
M  V30 270 O 28.2297 1.18551 -1.495 0
M  V30 271 C 25.3697 1.76376 -2.96623 0
M  V30 272 C 24.4827 1.24959 -4.13533 0
M  V30 273 C 23.6177 2.38416 -4.74691 0
M  V30 274 C 22.6567 1.84072 -5.83767 0
M  V30 275 N 21.7937 2.91057 -6.38929 0
M  V30 276 H 26.6337 0.00432038 -2.98 0
M  V30 277 H 24.1707 -0.00963529 -1.47097 0
M  V30 278 H 26.1287 2.45268 -3.3749 0
M  V30 279 H 24.7587 2.32337 -2.24097 0
M  V30 280 H 23.8107 0.453307 -3.77689 0
M  V30 281 H 25.1227 0.811662 -4.92152 0
M  V30 282 H 24.2767 3.15276 -5.18349 0
M  V30 283 H 23.0157 2.8553 -3.95378 0
M  V30 284 H 22.0207 1.05697 -5.39545 0
M  V30 285 H 23.2457 1.37877 -6.64956 0
M  V30 286 H 21.1917 3.37526 -5.62505 0
M  V30 287 H 21.1087 2.51724 -7.12861 0
M  V30 288 H 22.3767 3.6785 -6.87246 0
M  V30 289 N 26.6058 1.57591 -0.0167156 0
M  V30 290 C 27.8528 1.91283 0.664597 0
M  V30 291 C 28.1808 0.891949 1.72842 0
M  V30 292 O 27.4358 -0.100931 1.9544 0
M  V30 293 C 27.7348 3.3172 1.33029 0
M  V30 294 C 27.4008 4.4914 0.398047 0
M  V30 295 C 26.0628 4.80992 0.141421 0
M  V30 296 C 28.4148 5.20634 -0.242825 0
M  V30 297 C 25.7428 5.81703 -0.764092 0
M  V30 298 C 28.0948 6.22311 -1.13632 0
M  V30 299 C 26.7588 6.52611 -1.40196 0
M  V30 300 H 26.0288 0.699956 0.243193 0
M  V30 301 H 28.6758 1.9135 -0.0758267 0
M  V30 302 H 26.9808 3.27856 2.14517 0
M  V30 303 H 28.6778 3.55055 1.86379 0
M  V30 304 H 25.2678 4.24262 0.608238 0
M  V30 305 H 29.4518 4.96267 -0.0576019 0
M  V30 306 H 24.7078 6.03532 -0.977732 0
M  V30 307 H 28.8818 6.76834 -1.63917 0
M  V30 308 H 26.5088 7.30467 -2.10529 0
M  V30 309 N 28.0839 -0.256276 1.55502 0
M  V30 310 C 29.3089 -1.00766 1.81276 0
M  V30 311 C 29.7339 -1.78524 0.59252 0
M  V30 312 O 29.0919 -1.75413 -0.45827 0
M  V30 313 C 29.1399 -1.92869 3.04687 0
M  V30 314 O 28.2439 -3.019 2.80945 0
M  V30 315 H 27.5849 -0.287224 0.598664 0
M  V30 316 H 30.1149 -0.280109 2.02674 0
M  V30 317 H 30.1249 -2.34511 3.33869 0
M  V30 318 H 28.7999 -1.35689 3.93143 0
M  V30 319 H 27.3769 -2.64454 2.62904 0
M  V30 320 N 29.562 -1.4872 -0.521534 0
M  V30 321 C 30.79 -1.60843 -1.30142 0
M  V30 322 C 31.205 -0.271897 -1.86832 0
M  V30 323 O 30.562 0.739969 -1.66825 0
M  V30 324 C 30.613 -2.66155 -2.4463 0
M  V30 325 O 30.334 -3.94623 -1.90275 0
M  V30 326 C 31.835 -2.88795 -3.36322 0
M  V30 327 H 29.055 -0.542075 -0.395468 0
M  V30 328 H 31.599 -1.94609 -0.628285 0
M  V30 329 H 29.754 -2.35224 -3.07812 0
M  V30 330 H 30.168 -4.52468 -2.65279 0
M  V30 331 H 31.642 -3.66264 -4.12983 0
M  V30 332 H 32.119 -1.97934 -3.9207 0
M  V30 333 H 32.725 -3.21063 -2.78924 0
M  V30 334 N 31.0401 0.771051 -1.3745 0
M  V30 335 C 32.0031 1.86598 -1.33093 0
M  V30 336 C 33.0031 1.59076 -0.234845 0
M  V30 337 O 34.1931 1.67145 -0.490732 0
M  V30 338 C 31.3251 3.23747 -1.06773 0
M  V30 339 H 32.5181 1.91873 -2.30488 0
M  V30 340 H 30.0711 0.970876 -1.2249 0
M  V30 341 H 30.8061 3.24148 -0.099129 0
M  V30 342 H 30.5911 3.45115 -1.86112 0
M  V30 343 H 32.0811 4.03824 -1.06377 0
M  V30 344 N 32.5182 1.22032 0.997298 0
M  V30 345 C 33.4812 0.987909 2.06816 0
M  V30 346 C 34.4812 -0.0440084 1.6074 0
M  V30 347 O 35.6712 0.194053 1.73116 0
M  V30 348 C 32.8032 0.49132 3.37341 0
M  V30 349 H 33.9962 1.93803 2.28868 0
M  V30 350 H 31.5492 1.03838 1.16822 0
M  V30 351 H 32.2842 -0.463364 3.20973 0
M  V30 352 H 32.0692 1.23575 3.72118 0
M  V30 353 H 33.5592 0.348824 4.16141 0
M  V30 354 N 33.9963 -1.19345 1.0293 0
M  V30 355 C 35.4073 -1.70725 0.755633 0
M  V30 356 C 35.7583 -1.82326 -0.724676 0
M  V30 357 O 34.8833 -1.49471 -1.56484 0
M  V30 358 C 35.4783 -3.10084 1.36503 0
M  V30 359 C 34.0373 -3.58723 1.13994 0
M  V30 360 C 33.1843 -2.35577 1.46283 0
M  V30 361 H 36.1353 -1.0418 1.19718 0
M  V30 362 H 36.1563 -3.72787 0.762217 0
M  V30 363 H 35.6683 -3.01609 2.44241 0
M  V30 364 H 33.7693 -3.72512 0.0807901 0
M  V30 365 H 33.8823 -4.42816 1.82894 0
M  V30 366 H 32.2463 -2.38935 0.88217 0
M  V30 367 H 33.0293 -2.29731 2.55105 0
M  V30 368 N 35.4744 -0.807222 -1.35358 0
M  V30 369 C 36.6994 -0.399309 -2.0352 0
M  V30 370 C 37.1244 0.981986 -1.60433 0
M  V30 371 O 36.4824 1.63601 -0.781299 0
M  V30 372 C 36.5304 -0.491552 -3.57234 0
M  V30 373 O 35.6344 0.494754 -4.09421 0
M  V30 374 H 34.9754 -0.166682 -0.642739 0
M  V30 375 H 37.5054 -1.09328 -1.72941 0
M  V30 376 H 37.5154 -0.361588 -4.06395 0
M  V30 377 H 36.1904 -1.49907 -3.87944 0
M  V30 378 H 34.7674 0.324977 -3.71481 0
M  V30 379 N 36.9525 1.47285 -0.560781 0
M  V30 380 C 37.8825 2.32857 0.173105 0
M  V30 381 C 38.8635 1.44009 0.905281 0
M  V30 382 O 40.0485 1.7286 0.885046 0
M  V30 383 C 37.1785 3.25861 1.20133 0
M  V30 384 C 36.1325 4.23978 0.585388 0
M  V30 385 C 35.4585 5.06332 1.7185 0
M  V30 386 C 36.7585 5.20242 -0.463178 0
M  V30 387 H 38.4525 2.94466 -0.541307 0
M  V30 388 H 35.9985 1.41601 -0.261764 0
M  V30 389 H 37.9515 3.84569 1.72293 0
M  V30 390 H 36.6755 2.62315 1.94573 0
M  V30 391 H 35.3345 3.66501 0.085054 0
M  V30 392 H 34.9825 4.39186 2.45203 0
M  V30 393 H 34.6825 5.72762 1.31213 0
M  V30 394 H 36.2065 5.67899 2.24329 0
M  V30 395 H 37.6205 5.73293 -0.027502 0
M  V30 396 H 36.0175 5.94896 -0.788627 0
M  V30 397 H 37.0875 4.65504 -1.35773 0
M  V30 398 N 38.4306 0.297415 1.54768 0
M  V30 399 C 39.6766 -0.313376 2.00364 0
M  V30 400 C 40.0096 -1.53815 1.18553 0
M  V30 401 O 39.2846 -1.92739 0.261103 0
M  V30 402 C 39.5676 -0.673525 3.53745 0
M  V30 403 C 39.4206 0.560133 4.46299 0
M  V30 404 C 40.7396 -1.50143 4.13697 0
M  V30 405 H 37.8586 -0.112428 0.728374 0
M  V30 406 H 40.5006 0.4088 1.8555 0
M  V30 407 H 38.6506 -1.28881 3.665 0
M  V30 408 H 40.3226 1.19863 4.45455 0
M  V30 409 H 38.5656 1.19405 4.17043 0
M  V30 410 H 39.2366 0.26405 5.51368 0
M  V30 411 H 41.7126 -0.981588 4.04356 0
M  V30 412 H 40.5886 -1.72221 5.21182 0
M  V30 413 H 40.8496 -2.48952 3.65343 0
M  V30 414 N 39.9087 -1.5758 0.0250728 0
M  V30 415 C 40.8717 -2.08896 -0.943139 0
M  V30 416 C 41.8717 -1.00321 -1.25668 0
M  V30 417 O 43.0617 -1.26495 -1.19769 0
M  V30 418 C 40.1937 -2.55143 -2.26086 0
M  V30 419 H 41.3867 -2.95723 -0.498775 0
M  V30 420 H 38.9397 -1.54703 -0.222888 0
M  V30 421 H 39.6747 -1.71633 -2.75159 0
M  V30 422 H 39.4597 -3.34461 -2.04641 0
M  V30 423 H 40.9497 -2.95083 -2.95492 0
M  V30 424 N 41.3868 0.248026 -1.55636 0
M  V30 425 C 42.3498 1.29044 -1.89421 0
M  V30 426 C 43.3498 1.41134 -0.770581 0
M  V30 427 O 44.5398 1.39854 -1.03858 0
M  V30 428 C 41.6718 2.66831 -2.12165 0
M  V30 429 H 42.8648 1.00305 -2.82629 0
M  V30 430 H 40.4178 0.487265 -1.48511 0
M  V30 431 H 41.1528 3.00711 -1.21422 0
M  V30 432 H 40.9378 2.59438 -2.93997 0
M  V30 433 H 42.4278 3.42103 -2.3949 0
M  V30 434 N 42.8649 1.48995 0.513639 0
M  V30 435 C 44.0899 1.61792 1.29762 0
M  V30 436 C 44.5149 0.284475 1.85936 0
M  V30 437 O 43.8729 -0.746185 1.65232 0
M  V30 438 C 43.9209 2.67993 2.41272 0
M  V30 439 O 43.0249 2.26287 3.44772 0
M  V30 440 H 42.3659 0.541963 0.38363 0
M  V30 441 H 44.8959 1.95097 0.616307 0
M  V30 442 H 44.9059 2.89772 2.87221 0
M  V30 443 H 43.5809 3.64791 1.9975 0
M  V30 444 H 42.1579 2.14788 3.04829 0
M  V30 445 N 44.343 -0.763751 1.37857 0
M  V30 446 C 45.754 -1.3405 1.29952 0
M  V30 447 C 46.105 -1.96138 -0.0492898 0
M  V30 448 O 45.23 -1.94372 -0.951239 0
M  V30 449 C 45.825 -2.43729 2.35333 0
M  V30 450 C 44.384 -2.97151 2.31037 0
M  V30 451 C 43.531 -1.70438 2.18738 0
M  V30 452 H 46.482 -0.563396 1.48363 0
M  V30 453 H 46.503 -3.23412 2.00462 0
M  V30 454 H 46.015 -1.9851 3.33489 0
M  V30 455 H 44.116 -3.46724 1.3643 0
M  V30 456 H 44.229 -3.52221 3.24772 0
M  V30 457 H 42.593 -1.93673 1.65418 0
M  V30 458 H 43.376 -1.27312 3.18821 0
M  V30 459 N 45.8211 -1.22559 -0.990812 0
M  V30 460 C 47.2371 -0.985996 -1.255 0
M  V30 461 C 47.4371 0.319173 -1.98956 0
M  V30 462 O 46.4931 1.04127 -2.3003 0
M  V30 463 C 47.8061 -2.18607 -2.06474 0
M  V30 464 C 49.3541 -2.22985 -2.19651 0
M  V30 465 C 49.8291 -3.4255 -3.04012 0
M  V30 466 N 51.3201 -3.42725 -3.11599 0
M  V30 467 C 52.0551 -4.31892 -3.7717 0
M  V30 468 N 51.5511 -5.31279 -4.44651 0
M  V30 469 N 53.3441 -4.19662 -3.73952 0
M  V30 470 H 45.4951 -2.06469 -0.49841 0
M  V30 471 H 47.7581 -0.904853 -0.282747 0
M  V30 472 H 47.4641 -3.13267 -1.59865 0
M  V30 473 H 47.3381 -2.18838 -3.07229 0
M  V30 474 H 49.7251 -1.28871 -2.65474 0
M  V30 475 H 49.8061 -2.26791 -1.18319 0
M  V30 476 H 49.4501 -4.36965 -2.58889 0
M  V30 477 H 49.3801 -3.35984 -4.0549 0
M  V30 478 H 51.8711 -2.70807 -2.63575 0
M  V30 479 H 52.1841 -5.95593 -4.92431 0
M  V30 480 H 50.5291 -5.3519 -4.43392 0
M  V30 481 H 53.7201 -3.41268 -3.20396 0
M  V30 482 H 53.8931 -4.89358 -4.24774 0
M  V30 483 N 47.2992 1.18797 -1.03562 0
M  V30 484 C 48.5272 1.92599 -0.755869 0
M  V30 485 C 48.9422 1.75886 0.686271 0
M  V30 486 O 48.2992 1.08517 1.46732 0
M  V30 487 C 48.3502 3.44159 -1.10619 0
M  V30 488 O 48.0712 3.60341 -2.4917 0
M  V30 489 C 49.5722 4.3507 -0.850214 0
M  V30 490 H 46.7922 0.611587 -0.276048 0
M  V30 491 H 49.3362 1.50742 -1.38192 0
M  V30 492 H 47.4912 3.83823 -0.525194 0
M  V30 493 H 47.9052 4.54128 -2.62427 0
M  V30 494 H 49.3792 5.39989 -1.14523 0
M  V30 495 H 49.8562 4.38673 0.215176 0
M  V30 496 H 50.4622 4.01097 -1.41426 0
M  V30 497 N 48.7773 0.814389 1.34928 0
M  V30 498 C 50.0233 0.408167 1.99263 0
M  V30 499 C 50.3783 -1.0154 1.63424 0
M  V30 500 O 49.6713 -1.69607 0.891289 0
M  V30 501 C 49.8653 0.537781 3.53331 0
M  V30 502 C 49.6943 1.9724 4.04137 0
M  V30 503 C 48.4643 2.60245 4.33129 0
M  V30 504 C 50.6623 2.93801 4.2212 0
M  V30 505 N 48.6443 3.95036 4.69914 0
M  V30 506 C 50.0153 4.1348 4.6199 0
M  V30 507 C 52.0703 2.9053 4.04348 0
M  V30 508 C 50.7733 5.3033 4.85945 0
M  V30 509 C 52.7993 4.06589 4.29464 0
M  V30 510 C 52.1613 5.25017 4.69613 0
M  V30 511 H 48.2603 0.197289 0.756704 0
M  V30 512 H 50.8443 1.05728 1.63492 0
M  V30 513 H 49.0153 -0.0813868 3.88315 0
M  V30 514 H 50.7473 0.105389 4.04563 0
M  V30 515 H 47.5023 2.11545 4.23728 0
M  V30 516 H 47.9263 4.64455 4.92555 0
M  V30 517 H 52.5683 2.00115 3.72443 0
M  V30 518 H 50.2863 6.21309 5.16721 0
M  V30 519 H 53.8723 4.05447 4.17257 0
M  V30 520 H 52.7523 6.1333 4.88667 0
M  V30 521 N 50.2554 -1.46986 0.568584 0
M  V30 522 C 51.6714 -1.57946 0.229189 0
M  V30 523 C 51.8714 -1.56567 -1.26843 0
M  V30 524 O 50.9274 -1.47511 -2.04931 0
M  V30 525 C 52.2404 -2.87963 0.865909 0
M  V30 526 C 53.7884 -3.01568 0.838188 0
M  V30 527 C 54.2634 -4.34301 1.45419 0
M  V30 528 N 55.7544 -4.40965 1.41788 0
M  V30 529 C 56.4894 -5.42256 1.86403 0
M  V30 530 N 55.9854 -6.50297 2.38926 0
M  V30 531 N 57.7784 -5.3337 1.77405 0
M  V30 532 H 49.9294 -1.46126 1.54146 0
M  V30 533 H 52.1924 -0.696156 0.643484 0
M  V30 534 H 51.8984 -2.94742 1.91886 0
M  V30 535 H 51.7724 -3.75423 0.365687 0
M  V30 536 H 54.1594 -2.94379 -0.206106 0
M  V30 537 H 54.2404 -2.1562 1.37629 0
M  V30 538 H 53.8844 -4.42247 2.49761 0
M  V30 539 H 53.8144 -5.19 0.891435 0
M  V30 540 H 56.3054 -3.63484 1.03381 0
M  V30 541 H 56.6184 -7.23777 2.70863 0
M  V30 542 H 54.9634 -6.51155 2.42944 0
M  V30 543 H 58.1544 -4.47865 1.3614 0
M  V30 544 H 58.3274 -6.12169 2.12492 0
M  V30 545 N 51.7335 -0.305618 -1.54608 0
M  V30 546 C 52.6815 0.584119 -2.25146 0
M  V30 547 C 53.6755 1.13326 -1.25911 0
M  V30 548 O 54.8815 1.08337 -1.43747 0
M  V30 549 H 51.2565 0.206983 -0.722954 0
M  V30 550 H 53.2275 -0.033291 -2.98381 0
M  V30 551 C 51.9765 1.74225 -3.009 0
M  V30 552 H 51.2995 1.32892 -3.77067 0
M  V30 553 H 52.7395 2.34077 -3.53531 0
M  V30 554 C 51.1985 2.64914 -2.0814 0
M  V30 555 O 51.7285 3.66137 -1.65246 0
M  V30 556 N 49.9345 2.3275 -1.74 0
M  V30 557 H 49.4815 1.50479 -2.09078 0
M  V30 558 H 49.4395 2.93694 -1.12211 0
M  V30 559 N 53.2116 1.57565 -0.0334293 0
M  V30 560 C 54.1596 2.1164 0.96496 0
M  V30 561 C 55.1536 1.04398 1.33407 0
M  V30 562 O 56.3596 1.22828 1.3158 0
M  V30 563 H 52.7346 0.676222 0.32898 0
M  V30 564 H 54.7056 2.94455 0.483614 0
M  V30 565 C 53.4546 2.66207 2.23672 0
M  V30 566 H 52.7776 3.48378 1.96145 0
M  V30 567 H 54.2176 3.07685 2.9173 0
M  V30 568 C 52.6766 1.59151 2.96939 0
M  V30 569 O 53.2066 0.993858 3.89211 0
M  V30 570 N 51.4126 1.31093 2.59351 0
M  V30 571 H 50.9596 1.7988 1.84393 0
M  V30 572 H 50.9176 0.596889 3.08682 0
M  V30 573 N 54.6897 -0.239769 1.55765 0
M  V30 574 C 55.9197 -0.982743 1.8173 0
M  V30 575 C 56.3277 -1.7917 0.607835 0
M  V30 576 O 55.6707 -1.78525 -0.432973 0
M  V30 577 C 55.7327 -1.96332 3.01155 0
M  V30 578 C 55.3967 -1.34062 4.36894 0
M  V30 579 C 56.3937 -0.739539 5.14613 0
M  V30 580 C 54.0787 -1.35784 4.83599 0
M  V30 581 C 56.0727 -0.163989 6.37189 0
M  V30 582 C 53.7597 -0.778441 6.06122 0
M  V30 583 C 54.7577 -0.182548 6.82756 0
M  V30 584 O 54.4457 0.387887 8.02964 0
M  V30 585 H 54.1777 -0.294481 0.608487 0
M  V30 586 H 56.7317 -0.26572 2.03674 0
M  V30 587 H 54.9617 -2.71884 2.74984 0
M  V30 588 H 56.6507 -2.57032 3.14149 0
M  V30 589 H 57.4167 -0.718687 4.79646 0
M  V30 590 H 53.2957 -1.81105 4.23936 0
M  V30 591 H 56.8397 0.301753 6.96947 0
M  V30 592 H 52.7367 -0.796645 6.40565 0
M  V30 593 H 53.5047 0.28044 8.18019 0
M  V30 594 N 56.1678 -1.49265 -0.50573 0
M  V30 595 C 57.5838 -1.35923 -0.836486 0
M  V30 596 C 57.7838 -0.388704 -1.97715 0
M  V30 597 O 56.8398 0.181336 -2.51848 0
M  V30 598 C 58.1528 -2.76531 -1.18115 0
M  V30 599 C 59.7008 -2.85197 -1.28964 0
M  V30 600 C 60.1758 -4.26561 -1.66761 0
M  V30 601 N 61.6668 -4.2935 -1.73819 0
M  V30 602 C 62.4018 -5.35693 -2.045 0
M  V30 603 N 61.8978 -6.52287 -2.33438 0
M  V30 604 N 63.6908 -5.23105 -2.05711 0
M  V30 605 H 55.8418 -2.10965 0.246519 0
M  V30 606 H 58.1048 -0.9468 0.0476887 0
M  V30 607 H 57.8108 -3.49226 -0.416398 0
M  V30 608 H 57.6848 -3.11599 -2.1257 0
M  V30 609 H 60.0718 -2.12742 -2.04511 0
M  V30 610 H 60.1528 -2.53718 -0.325704 0
M  V30 611 H 59.7968 -4.99541 -0.917656 0
M  V30 612 H 59.7268 -4.55502 -2.64246 0
M  V30 613 H 62.2178 -3.4526 -1.53635 0
M  V30 614 H 62.5308 -7.29158 -2.56024 0
M  V30 615 H 60.8758 -6.55521 -2.30905 0
M  V30 616 H 64.0668 -4.31026 -1.82577 0
M  V30 617 H 64.2398 -6.06078 -2.29289 0
M  V30 618 N 57.6459 0.756429 -1.3826 0
M  V30 619 C 58.5759 1.88374 -1.37976 0
M  V30 620 C 59.5569 1.68311 -0.246082 0
M  V30 621 O 60.7419 1.88944 -0.44874 0
M  V30 622 C 57.8719 3.25864 -1.20125 0
M  V30 623 C 56.8259 3.60523 -2.30666 0
M  V30 624 C 56.1519 4.9672 -1.97923 0
M  V30 625 C 57.4519 3.65692 -3.72916 0
M  V30 626 H 59.1459 1.88869 -2.32312 0
M  V30 627 H 56.6919 0.907272 -1.11824 0
M  V30 628 H 58.6449 4.0438 -1.18552 0
M  V30 629 H 57.3689 3.25841 -0.222498 0
M  V30 630 H 56.0279 2.84324 -2.3142 0
M  V30 631 H 55.6759 4.93253 -0.985393 0
M  V30 632 H 55.3759 5.20878 -2.71955 0
M  V30 633 H 56.8999 5.77618 -1.97964 0
M  V30 634 H 58.3139 4.34328 -3.74208 0
M  V30 635 H 56.7109 4.01358 -4.4613 0
M  V30 636 H 57.7809 2.65987 -4.05436 0
M  V30 637 N 59.124 1.23083 0.984299 0
M  V30 638 C 60.087 1.00979 2.05757 0
M  V30 639 C 61.087 -0.0269573 1.60777 0
M  V30 640 O 62.277 0.212403 1.729 0
M  V30 641 C 59.409 0.527072 3.36801 0
M  V30 642 H 60.602 1.9622 2.26799 0
M  V30 643 H 58.155 1.05072 1.15714 0
M  V30 644 H 58.89 -0.429294 3.21446 0
M  V30 645 H 58.675 1.27515 3.70786 0
M  V30 646 H 60.165 0.392942 4.15747 0
M  V30 647 N 60.6021 -1.18246 1.0419 0
M  V30 648 C 61.5341 -2.2142 0.592088 0
M  V30 649 C 62.5471 -1.59233 -0.338909 0
M  V30 650 O 63.7361 -1.78002 -0.133231 0
M  V30 651 C 60.8361 -3.38546 -0.154854 0
M  V30 652 C 60.0091 -4.3031 0.784328 0
M  V30 653 C 59.0681 -5.26138 0.0804583 0
M  V30 654 O 58.0941 -5.64738 0.711292 0
M  V30 655 N 59.2961 -5.68261 -1.18574 0
M  V30 656 H 62.0611 -2.60636 1.47949 0
M  V30 657 H 59.6221 -1.33044 0.922544 0
M  V30 658 H 61.6141 -3.99678 -0.635606 0
M  V30 659 H 60.1841 -2.98012 -0.943811 0
M  V30 660 H 59.4041 -3.66764 1.44491 0
M  V30 661 H 60.6921 -4.8852 1.42218 0
M  V30 662 H 60.0901 -5.38957 -1.71876 0
M  V30 663 H 58.6471 -6.31584 -1.61074 0
M  V30 664 N 62.0802 -0.821533 -1.34494 0
M  V30 665 C 63.0432 -0.247847 -2.27856 0
M  V30 666 C 64.0432 0.573453 -1.50227 0
M  V30 667 O 65.2332 0.389759 -1.69784 0
M  V30 668 C 62.3652 0.652698 -3.34593 0
M  V30 669 H 63.5582 -1.07146 -2.80107 0
M  V30 670 H 61.1112 -0.593291 -1.44602 0
M  V30 671 H 61.8462 1.49943 -2.87555 0
M  V30 672 H 61.6312 0.065292 -3.92046 0
M  V30 673 H 63.1212 1.04793 -4.04238 0
M  V30 674 N 63.5583 1.46682 -0.576371 0
M  V30 675 C 64.7883 2.06498 -0.0648694 0
M  V30 676 C 65.1963 1.42665 1.24271 0
M  V30 677 O 64.5393 0.523886 1.76071 0
M  V30 678 C 64.6013 3.5904 0.181816 0
M  V30 679 C 64.2653 4.45028 -1.0392 0
M  V30 680 C 65.2623 4.81959 -1.94966 0
M  V30 681 C 62.9473 4.86259 -1.25927 0
M  V30 682 C 64.9413 5.58942 -3.06371 0
M  V30 683 C 62.6283 5.63002 -2.37638 0
M  V30 684 C 63.6263 5.99257 -3.2769 0
M  V30 685 O 63.3143 6.7445 -4.37461 0
M  V30 686 H 63.0463 0.674028 -0.0515987 0
M  V30 687 H 65.6003 1.89393 -0.794951 0
M  V30 688 H 63.8303 3.74429 0.966436 0
M  V30 689 H 65.5193 4.00806 0.641047 0
M  V30 690 H 66.2853 4.50689 -1.79177 0
M  V30 691 H 62.1643 4.57494 -0.567448 0
M  V30 692 H 65.7083 5.87158 -3.76684 0
M  V30 693 H 61.6053 5.93686 -2.53392 0
M  V30 694 H 62.3733 6.92867 -4.35749 0
M  V30 695 N 65.0364 0.313813 1.54444 0
M  V30 696 C 65.9664 -0.549454 2.26943 0
M  V30 697 C 66.9474 -1.12741 1.27372 0
M  V30 698 O 68.1324 -1.15436 1.56167 0
M  V30 699 C 65.2624 -1.71523 3.01989 0
M  V30 700 C 64.2164 -1.26703 4.08816 0
M  V30 701 C 63.5424 -2.51898 4.71647 0
M  V30 702 C 64.8424 -0.388962 5.2085 0
M  V30 703 H 66.5364 0.0552661 2.99349 0
M  V30 704 H 64.0824 0.0280207 1.43973 0
M  V30 705 H 66.0354 -2.32535 3.51433 0
M  V30 706 H 64.7594 -2.34639 2.27183 0
M  V30 707 H 63.4184 -0.679896 3.6024 0
M  V30 708 H 63.0664 -3.13356 3.93468 0
M  V30 709 H 62.7664 -2.22605 5.43802 0
M  V30 710 H 64.2904 -3.1369 5.23861 0
M  V30 711 H 65.7044 -0.905107 5.6611 0
M  V30 712 H 64.1014 -0.18924 5.99802 0
M  V30 713 H 65.1714 0.582699 4.81386 0
M  V30 714 N 66.5145 -1.57545 0.0417849 0
M  V30 715 C 67.7915 -1.83642 -0.673433 0
M  V30 716 C 68.1715 -0.928298 -1.89594 0
M  V30 717 O 67.5195 0.0129955 -2.28496 0
M  V30 718 C 67.7295 -3.33155 -1.03964 0
M  V30 719 C 69.0775 -3.99941 -1.42592 0
M  V30 720 O 70.1015 -3.37725 -1.13226 0
M  V30 721 O 68.9605 -5.09619 -1.9736 0
M  V30 722 H 66.0545 -0.757638 -0.331533 0
M  V30 723 H 68.6005 -1.69554 0.070433 0
M  V30 724 H 67.3725 -3.9093 -0.170098 0
M  V30 725 H 66.9955 -3.52396 -1.84126 0
M  V30 726 N 67.9926 0.231505 -1.5589 0
M  V30 727 C 68.9396 1.28682 -1.91598 0
M  V30 728 C 69.9096 1.47071 -0.771974 0
M  V30 729 O 71.0946 1.60802 -1.027 0
M  V30 730 C 68.2346 2.6342 -2.22944 0
M  V30 731 C 67.3476 2.52912 -3.50228 0
M  V30 732 C 66.4826 3.80106 -3.7107 0
M  V30 733 C 65.5216 3.64279 -4.91902 0
M  V30 734 N 64.6586 4.834 -5.09184 0
M  V30 735 H 69.4986 0.975305 -2.81588 0
M  V30 736 H 67.0356 0.470299 -1.39379 0
M  V30 737 H 68.9936 3.41869 -2.39126 0
M  V30 738 H 67.6236 2.92687 -1.36139 0
M  V30 739 H 66.6756 1.6595 -3.42294 0
M  V30 740 H 67.9876 2.37133 -4.38827 0
M  V30 741 H 67.1416 4.66999 -3.87295 0
M  V30 742 H 65.8806 3.98799 -2.80733 0
M  V30 743 H 64.8856 2.7577 -4.75637 0
M  V30 744 H 66.1106 3.47067 -5.83714 0
M  V30 745 H 64.0566 5.02425 -4.21788 0
M  V30 746 H 63.9736 4.70311 -5.91898 0
M  V30 747 H 65.2416 5.71747 -5.29835 0
M  V30 748 N 69.4707 1.49531 0.497807 0
M  V30 749 C 70.7007 1.62657 1.27382 0
M  V30 750 C 71.1087 0.298488 1.86831 0
M  V30 751 O 70.4517 -0.72647 1.68725 0
M  V30 752 C 70.5137 2.6393 2.44093 0
M  V30 753 C 70.1777 4.08195 2.05489 0
M  V30 754 C 71.1747 4.949 1.59279 0
M  V30 755 C 68.8597 4.53948 2.15026 0
M  V30 756 C 70.8537 6.25397 1.23113 0
M  V30 757 C 68.5407 5.84458 1.78473 0
M  V30 758 C 69.5387 6.70006 1.32591 0
M  V30 759 O 69.2267 7.98083 0.965327 0
M  V30 760 H 68.9587 0.550429 0.392434 0
M  V30 761 H 71.5127 1.96325 0.603801 0
M  V30 762 H 69.7427 2.25449 3.14181 0
M  V30 763 H 71.4317 2.66552 3.06113 0
M  V30 764 H 72.1977 4.60779 1.51354 0
M  V30 765 H 68.0767 3.87525 2.4969 0
M  V30 766 H 71.6207 6.92125 0.872299 0
M  V30 767 H 67.5177 6.18107 1.86048 0
M  V30 768 H 68.2857 8.11122 1.09652 0
M  V30 769 N 70.9488 -0.749086 1.3866 0
M  V30 770 C 72.1788 -1.53611 1.38157 0
M  V30 771 C 72.5868 -1.89177 -0.0293595 0
M  V30 772 O 71.9298 -1.53606 -1.00752 0
M  V30 773 C 71.9918 -2.86087 2.17702 0
M  V30 774 C 71.6558 -2.73034 3.66472 0
M  V30 775 C 72.6528 -2.42526 4.59866 0
M  V30 776 C 70.3378 -2.90345 4.09884 0
M  V30 777 C 72.3318 -2.29492 5.94653 0
M  V30 778 C 70.0188 -2.7693 5.4475 0
M  V30 779 C 71.0168 -2.46547 6.36949 0
M  V30 780 O 70.7048 -2.33199 7.69333 0
M  V30 781 H 70.4368 -0.481773 0.474205 0
M  V30 782 H 72.9908 -0.934465 1.82912 0
M  V30 783 H 71.2208 -3.48458 1.67672 0
M  V30 784 H 72.9098 -3.47625 2.09551 0
M  V30 785 H 73.6758 -2.28816 4.27631 0
M  V30 786 H 69.5548 -3.1299 3.38464 0
M  V30 787 H 73.0988 -2.05698 6.66584 0
M  V30 788 H 68.9958 -2.90215 5.76581 0
M  V30 789 H 69.7638 -2.48376 7.79905 0
M  V30 790 N 72.4269 -1.23603 -0.977757 0
M  V30 791 C 73.6549 -1.09646 -1.75458 0
M  V30 792 C 74.0699 0.351859 -1.85492 0
M  V30 793 O 73.4269 1.24327 -1.336 0
M  V30 794 C 73.4779 -1.71895 -3.18016 0
M  V30 795 O 73.1989 -3.11063 -3.08498 0
M  V30 796 C 74.6999 -1.63415 -4.12081 0
M  V30 797 H 71.9199 -0.38359 -0.550545 0
M  V30 798 H 74.4639 -1.63507 -1.22824 0
M  V30 799 H 72.6189 -1.22061 -3.67668 0
M  V30 800 H 73.0329 -3.41305 -3.9826 0
M  V30 801 H 74.5069 -2.11669 -5.09804 0
M  V30 802 H 74.9839 -0.593462 -4.35172 0
M  V30 803 H 75.5899 -2.12628 -3.68334 0
M  V30 804 N 73.905 1.17692 -1.04816 0
M  V30 805 C 74.853 2.23632 -0.63966 0
M  V30 806 C 75.847 1.6601 0.337219 0
M  V30 807 O 77.053 1.78844 0.203693 0
M  V30 808 H 73.428 0.727949 -0.188665 0
M  V30 809 H 75.399 2.55387 -1.54337 0
M  V30 810 C 74.148 3.4769 -0.0264051 0
M  V30 811 H 73.471 3.92331 -0.769164 0
M  V30 812 H 74.911 4.23418 0.222098 0
M  V30 813 C 73.37 3.13807 1.22584 0
M  V30 814 O 73.9 3.28236 2.31569 0
M  V30 815 N 72.106 2.68065 1.12202 0
M  V30 816 H 71.653 2.56525 0.235133 0
M  V30 817 H 71.611 2.45767 1.96076 0
M  V30 818 N 75.3831 0.828654 1.34056 0
M  V30 819 C 76.3301 0.252567 2.29414 0
M  V30 820 C 77.3001 -0.62588 1.53857 0
M  V30 821 O 78.4851 -0.566312 1.82202 0
M  V30 822 C 75.6251 -0.574831 3.40279 0
M  V30 823 C 74.7381 0.326499 4.30764 0
M  V30 824 C 73.8731 -0.511016 5.28736 0
M  V30 825 C 72.9121 0.389342 6.1086 0
M  V30 826 N 72.0491 -0.409439 7.00905 0
M  V30 827 H 76.8891 1.07108 2.78086 0
M  V30 828 H 74.4261 0.539677 1.36843 0
M  V30 829 H 76.3841 -1.06992 4.03248 0
M  V30 830 H 75.0141 -1.35841 2.92826 0
M  V30 831 H 74.0661 0.939837 3.68607 0
M  V30 832 H 75.3781 1.01857 4.88289 0
M  V30 833 H 74.5321 -1.07035 5.97184 0
M  V30 834 H 73.2711 -1.23657 4.71763 0
M  V30 835 H 72.2761 0.960769 5.4134 0
M  V30 836 H 73.5011 1.1131 6.69916 0
M  V30 837 H 71.4471 -1.11856 6.46393 0
M  V30 838 H 71.3641 0.224126 7.55668 0
M  V30 839 H 72.6321 -0.951336 7.73673 0
M  V30 840 N 76.8612 -1.46375 0.584142 0
M  V30 841 C 77.7712 -2.34115 -0.150728 0
M  V30 842 C 78.7872 -1.49838 -0.884567 0
M  V30 843 O 79.9632 -1.82704 -0.847429 0
M  V30 844 C 77.0282 -3.2705 -1.15062 0
M  V30 845 C 76.0892 -4.27228 -0.421293 0
M  V30 846 C 75.3222 -5.15722 -1.37355 0
M  V30 847 O 75.5452 -5.07176 -2.61014 0
M  V30 848 O 74.4792 -5.95383 -0.883355 0
M  V30 849 H 78.3052 -2.98309 0.569708 0
M  V30 850 H 75.8902 -1.45373 0.344535 0
M  V30 851 H 77.7722 -3.84381 -1.72712 0
M  V30 852 H 76.4472 -2.65451 -1.8525 0
M  V30 853 H 75.3542 -3.7358 0.197085 0
M  V30 854 H 76.6872 -4.91616 0.239641 0
M  V30 855 N 78.3393 -0.321999 -1.54275 0
M  V30 856 C 79.5873 0.280489 -2.00144 0
M  V30 857 C 79.9083 1.52777 -1.21178 0
M  V30 858 O 79.1783 1.9338 -0.313187 0
M  V30 859 H 77.7583 0.106632 -0.73935 0
M  V30 860 H 80.4203 -0.438184 -1.8991 0
M  V30 861 H 79.5163 0.537972 -3.07428 0
M  V30 862 N 79.8174 1.5752 -0.0501392 0
M  V30 863 C 80.7674 2.07981 0.934231 0
M  V30 864 C 81.7514 0.984745 1.27246 0
M  V30 865 O 82.9434 1.24809 1.25506 0
M  V30 866 C 80.0724 2.62751 2.20945 0
M  V30 867 C 79.1584 3.79225 1.89865 0
M  V30 868 N 79.5494 4.89036 1.29142 0
M  V30 869 C 77.8474 3.88111 2.19741 0
M  V30 870 C 78.5484 5.70084 1.15669 0
M  V30 871 N 77.5244 5.17659 1.65923 0
M  V30 872 H 81.3264 2.90277 0.460053 0
M  V30 873 H 78.8404 1.61665 0.15434 0
M  V30 874 H 80.8374 2.97205 2.9236 0
M  V30 875 H 79.4974 1.81894 2.6897 0
M  V30 876 H 80.5084 5.08854 0.963756 0
M  V30 877 H 77.1854 3.18194 2.70293 0
M  V30 878 H 78.5754 6.68395 0.685356 0
M  V30 879 N 81.2955 -0.223234 1.56011 0
M  V30 880 C 82.2275 -1.30006 1.88762 0
M  V30 881 C 83.2405 -1.43129 0.775746 0
M  V30 882 O 84.4295 -1.44057 1.05403 0
M  V30 883 C 81.5295 -2.67589 2.07965 0
M  V30 884 C 80.7025 -2.76434 3.38973 0
M  V30 885 C 79.7615 -3.95019 3.47629 0
M  V30 886 O 78.7875 -3.83436 4.20672 0
M  V30 887 N 79.9895 -5.09249 2.78649 0
M  V30 888 H 82.7545 -1.02238 2.81722 0
M  V30 889 H 80.3155 -0.413278 1.56536 0
M  V30 890 H 82.3075 -3.45297 2.11073 0
M  V30 891 H 80.8775 -2.87964 1.21638 0
M  V30 892 H 80.0975 -1.85216 3.47978 0
M  V30 893 H 81.3855 -2.79313 4.25278 0
M  V30 894 H 80.7835 -5.21556 2.19081 0
M  V30 895 H 79.3405 -5.85007 2.8742 0
M  V30 896 N 82.7736 -1.49793 -0.48987 0
M  V30 897 C 84.0226 -1.59085 -1.23995 0
M  V30 898 C 84.3356 -0.287907 -1.9347 0
M  V30 899 O 85.5416 -0.259506 -2.70257 0
M  V30 900 C 83.9976 -2.80736 -2.252 0
M  V30 901 C 83.6056 -4.17833 -1.61614 0
M  V30 902 C 85.3496 -2.99364 -3.00967 0
M  V30 903 C 83.2566 -5.30693 -2.60996 0
M  V30 904 H 82.1866 -0.592372 -0.466488 0
M  V30 905 H 84.8376 -1.76197 -0.51252 0
M  V30 906 H 83.2196 -2.57142 -3.01154 0
M  V30 907 H 84.3936 -4.51608 -0.915774 0
M  V30 908 H 82.7086 -4.04656 -0.981977 0
M  V30 909 H 85.3056 -3.80851 -3.75308 0
M  V30 910 H 85.6486 -2.10356 -3.59244 0
M  V30 911 H 86.1816 -3.2305 -2.32128 0
M  V30 912 H 82.9206 -6.21796 -2.07485 0
M  V30 913 H 82.4406 -5.01359 -3.2924 0
M  V30 914 H 84.1196 -5.6049 -3.23202 0
M  V30 915 N 84.2517 0.741722 -1.39055 0
M  V30 916 C 85.4997 1.49818 -1.35643 0
M  V30 917 C 85.8207 1.94938 0.0491642 0
M  V30 918 O 85.0907 1.68505 0.999141 0
M  V30 919 H 83.6707 0.555755 -0.499144 0
M  V30 920 H 86.3327 0.880957 -1.73854 0
M  V30 921 H 85.4287 2.38348 -2.01486 0
M  V30 922 N 85.7298 1.2412 0.971189 0
M  V30 923 C 86.6398 1.04747 2.09917 0
M  V30 924 C 87.6558 -0.0107162 1.73997 0
M  V30 925 O 88.8318 0.186714 2.00533 0
M  V30 926 C 85.8968 0.650828 3.40537 0
M  V30 927 C 84.9578 1.7851 3.90426 0
M  V30 928 C 84.1908 1.40729 5.14812 0
M  V30 929 O 84.4138 0.29557 5.69634 0
M  V30 930 O 83.3478 2.23168 5.58999 0
M  V30 931 H 87.1738 1.99304 2.29154 0
M  V30 932 H 84.7588 1.02908 1.08307 0
M  V30 933 H 86.6408 0.440992 4.19086 0
M  V30 934 H 85.3158 -0.265649 3.22608 0
M  V30 935 H 84.2228 2.04966 3.12953 0
M  V30 936 H 85.5558 2.68023 4.12825 0
M  V30 937 N 87.2079 -1.17134 1.05439 0
M  V30 938 C 88.1409 -2.2012 0.601855 0
M  V30 939 C 89.1189 -1.58314 -0.370854 0
M  V30 940 O 90.3029 -1.8638 -0.281882 0
M  V30 941 C 87.4299 -3.38491 -0.118868 0
M  V30 942 C 86.4759 -4.18752 0.809242 0
M  V30 943 S 87.3089 -4.83602 2.29977 0
M  V30 944 C 88.4649 -6.0536 1.59029 0
M  V30 945 H 88.6979 -2.58165 1.47438 0
M  V30 946 H 86.2309 -1.27788 0.866573 0
M  V30 947 H 88.1889 -4.07084 -0.528495 0
M  V30 948 H 86.8499 -2.98829 -0.967465 0
M  V30 949 H 86.0429 -5.03373 0.251379 0
M  V30 950 H 85.6449 -3.5561 1.15835 0
M  V30 951 H 87.9369 -6.71615 0.891017 0
M  V30 952 H 88.8799 -6.65679 2.41407 0
M  V30 953 H 89.2879 -5.54138 1.07663 0
M  V30 954 N 88.686 -0.835752 -1.33615 0
M  V30 955 C 89.932 -0.430596 -1.98176 0
M  V30 956 C 90.265 1.00684 -1.66061 0
M  V30 957 O 89.54 1.70339 -0.938877 0
M  V30 958 C 89.823 -0.648065 -3.5422 0
M  V30 959 C 89.676 -2.13255 -3.96033 0
M  V30 960 C 90.995 -0.0922113 -4.40003 0
M  V30 961 H 88.114 -0.157924 -0.719881 0
M  V30 962 H 90.756 -1.05069 -1.58305 0
M  V30 963 H 88.906 -0.120237 -3.88314 0
M  V30 964 H 90.578 -2.725 -3.72211 0
M  V30 965 H 88.821 -2.61823 -3.45878 0
M  V30 966 H 89.492 -2.23547 -5.04708 0
M  V30 967 H 91.968 -0.543343 -4.12537 0
M  V30 968 H 90.844 -0.274083 -5.48215 0
M  V30 969 H 91.105 1.00378 -4.30554 0
M  V30 970 N 90.1641 1.46063 -0.591896 0
M  V30 971 C 91.1271 2.28854 0.125973 0
M  V30 972 C 92.1271 1.38903 0.810107 0
M  V30 973 O 93.3171 1.61186 0.66066 0
M  V30 974 C 90.4491 3.19526 1.1881 0
M  V30 975 H 91.6421 2.93802 -0.601717 0
M  V30 976 H 89.1951 1.52325 -0.350254 0
M  V30 977 H 89.9301 2.59345 1.94707 0
M  V30 978 H 89.7151 3.85766 0.701936 0
M  V30 979 H 91.2051 3.81817 1.69132 0
M  V30 980 N 91.6422 0.330177 1.54103 0
M  V30 981 C 93.0582 -0.0222371 1.59585 0
M  V30 982 C 93.2582 -1.49902 1.34654 0
M  V30 983 O 92.3142 -2.25592 1.13421 0
M  V30 984 C 93.6272 0.401932 2.98002 0
M  V30 985 C 95.1752 0.353145 3.11001 0
M  V30 986 C 95.6502 0.752576 4.51775 0
M  V30 987 N 97.1412 0.706239 4.57784 0
M  V30 988 C 97.8762 0.987417 5.64834 0
M  V30 989 N 97.3722 1.33607 6.79795 0
M  V30 990 N 99.1652 0.91254 5.54643 0
M  V30 991 H 91.3162 1.29228 1.68564 0
M  V30 992 H 93.5792 0.525906 0.78875 0
M  V30 993 H 93.2852 1.4311 3.21267 0
M  V30 994 H 93.1592 -0.229699 3.765 0
M  V30 995 H 95.5462 -0.666822 2.87467 0
M  V30 996 H 95.6272 1.0198 2.34593 0
M  V30 997 H 95.2712 1.77049 4.76042 0
M  V30 998 H 95.2012 0.0635409 5.26562 0
M  V30 999 H 97.6922 0.44889 3.75224 0
M  V30 1000 H 98.0052 1.53582 7.57385 0
M  V30 1001 H 96.3502 1.37439 6.81275 0
M  V30 1002 H 99.5412 0.639601 4.6371 0
M  V30 1003 H 99.7142 1.13503 6.37982 0
M  V30 1004 N 93.1203 -1.57491 0.0584922 0
M  V30 1005 C 94.3683 -1.92597 -0.612436 0
M  V30 1006 C 94.6893 -0.938162 -1.70949 0
M  V30 1007 O 93.9593 0.0158301 -1.95894 0
M  V30 1008 H 92.5393 -0.710964 -0.229214 0
M  V30 1009 H 95.2013 -1.94571 0.113218 0
M  V30 1010 H 94.2973 -2.94038 -1.04633 0
M  V30 1011 N 94.5984 0.214957 -1.56127 0
M  V30 1012 C 95.8234 0.95924 -1.83884 0
M  V30 1013 C 96.2484 1.7689 -0.639644 0
M  V30 1014 O 95.6064 1.76566 0.411601 0
M  V30 1015 C 95.6544 1.84723 -3.09693 0
M  V30 1016 O 94.7584 2.94346 -2.8885 0
M  V30 1017 H 94.0994 0.27125 -0.606069 0
M  V30 1018 H 96.6294 0.226276 -2.03345 0
M  V30 1019 H 96.6394 2.25576 -3.39969 0
M  V30 1020 H 95.3144 1.25218 -3.96602 0
M  V30 1021 H 93.8914 2.57391 -2.69823 0
M  V30 1022 N 96.0765 1.50051 0.48192 0
M  V30 1023 C 97.0245 1.68635 1.60203 0
M  V30 1024 C 98.0185 0.552184 1.60148 0
M  V30 1025 O 99.2245 0.732377 1.64427 0
M  V30 1026 H 95.5995 0.532081 0.531407 0
M  V30 1027 H 97.5705 2.62616 1.41688 0
M  V30 1028 C 96.3195 1.78775 2.9822 0
M  V30 1029 H 95.6425 2.6543 2.98976 0
M  V30 1030 H 97.0825 1.95806 3.7608 0
M  V30 1031 C 95.5415 0.536849 3.32595 0
M  V30 1032 O 96.0715 -0.328897 4.00351 0
M  V30 1033 N 94.2775 0.394091 2.87915 0
M  V30 1034 H 93.8245 1.09962 2.32951 0
M  V30 1035 H 93.7825 -0.441737 3.11281 0
M  V30 1036 N 97.5546 -0.734337 1.39446 0
M  V30 1037 C 98.7796 -1.52866 1.40167 0
M  V30 1038 C 99.2046 -1.881 -0.00171513 0
M  V30 1039 O 98.5626 -1.51957 -0.988879 0
M  V30 1040 C 98.6106 -2.79235 2.28167 0
M  V30 1041 O 97.7146 -3.75185 1.71201 0
M  V30 1042 H 97.0556 -0.461618 0.477289 0
M  V30 1043 H 99.5856 -0.905949 1.8345 0
M  V30 1044 H 99.5956 -3.27963 2.42702 0
M  V30 1045 H 98.2706 -2.52923 3.30156 0
M  V30 1046 H 96.8476 -3.33958 1.65912 0
M  V30 1047 N 99.0327 -1.24633 -0.964593 0
M  V30 1048 C 99.9657 -0.984662 -2.05863 0
M  V30 1049 C 100.944 0.0826554 -1.6239 0
M  V30 1050 O 102.128 -0.0549296 -1.8842 0
M  V30 1051 C 99.2547 -0.486529 -3.35187 0
M  V30 1052 C 98.3007 -1.54286 -3.97615 0
M  V30 1053 S 99.1337 -3.12513 -4.34851 0
M  V30 1054 C 100.29 -2.6441 -5.67308 0
M  V30 1055 H 100.523 -1.91104 -2.27743 0
M  V30 1056 H 98.0557 -1.08052 -1.10291 0
M  V30 1057 H 100.014 -0.205757 -4.09984 0
M  V30 1058 H 98.6747 0.419186 -3.1129 0
M  V30 1059 H 97.8677 -1.14481 -4.90826 0
M  V30 1060 H 97.4697 -1.7738 -3.2926 0
M  V30 1061 H 99.7617 -2.07416 -6.44969 0
M  V30 1062 H 100.705 -3.56222 -6.11973 0
M  V30 1063 H 101.113 -2.04734 -5.26065 0
M  V30 1064 N 100.511 1.16574 -1.06058 0
M  V30 1065 C 101.76 1.86385 -0.770944 0
M  V30 1066 C 102.073 1.82448 0.705129 0
M  V30 1067 O 103.279 2.47815 1.10905 0
M  V30 1068 C 101.735 3.34466 -1.32893 0
M  V30 1069 C 101.343 3.46883 -2.83507 0
M  V30 1070 C 103.087 4.09548 -1.11672 0
M  V30 1071 C 100.994 4.89036 -3.32562 0
M  V30 1072 H 99.9238 0.698181 -0.284709 0
M  V30 1073 H 102.575 1.31583 -1.27899 0
M  V30 1074 H 100.957 3.88859 -0.748662 0
M  V30 1075 H 102.131 3.02663 -3.47465 0
M  V30 1076 H 100.446 2.85232 -3.03368 0
M  V30 1077 H 103.043 5.14434 -1.45814 0
M  V30 1078 H 103.386 4.16264 -0.0549535 0
M  V30 1079 H 103.919 3.61387 -1.66265 0
M  V30 1080 H 100.658 4.87499 -4.38207 0
M  V30 1081 H 100.178 5.3389 -2.73351 0
M  V30 1082 H 101.857 5.57843 -3.2775 0
M  V30 1083 N 101.989 0.842826 1.3317 0
M  V30 1084 C 103.405 0.531128 1.50503 0
M  V30 1085 C 103.605 -0.940734 1.78192 0
M  V30 1086 O 102.661 -1.72436 1.84451 0
M  V30 1087 C 103.974 1.40789 2.65705 0
M  V30 1088 C 105.522 1.40708 2.79589 0
M  V30 1089 C 105.997 2.26878 3.97857 0
M  V30 1090 N 107.488 2.24609 4.05099 0
M  V30 1091 C 108.223 2.88019 4.95815 0
M  V30 1092 N 107.719 3.60496 5.9162 0
M  V30 1093 N 109.512 2.77469 4.88843 0
M  V30 1094 H 101.663 1.79557 1.1346 0
M  V30 1095 H 103.926 0.766267 0.558156 0
M  V30 1096 H 103.632 2.454 2.51936 0
M  V30 1097 H 103.506 1.08677 3.61205 0
M  V30 1098 H 105.893 0.368668 2.92788 0
M  V30 1099 H 105.974 1.76829 1.84838 0
M  V30 1100 H 105.618 3.3078 3.85418 0
M  V30 1101 H 105.548 1.88096 4.91861 0
M  V30 1102 H 108.039 1.71906 3.36536 0
M  V30 1103 H 108.352 4.06076 6.57512 0
M  V30 1104 H 106.697 3.64604 5.91683 0
M  V30 1105 H 109.888 2.20406 4.12963 0
M  V30 1106 H 110.061 3.2717 5.59342 0
M  V30 1107 N 103.467 -1.45747 0.599634 0
M  V30 1108 C 104.414 -2.30467 -0.123849 0
M  V30 1109 C 105.384 -1.41632 -0.86774 0
M  V30 1110 O 106.569 -1.70568 -0.855056 0
M  V30 1111 C 103.709 -3.26402 -1.12051 0
M  V30 1112 C 102.822 -4.3034 -0.37832 0
M  V30 1113 C 101.957 -5.13389 -1.364 0
M  V30 1114 C 100.996 -6.09061 -0.609171 0
M  V30 1115 N 100.133 -6.84918 -1.54374 0
M  V30 1116 H 104.973 -2.91802 0.604627 0
M  V30 1117 H 102.51 -1.43797 0.309972 0
M  V30 1118 H 104.468 -3.80482 -1.7114 0
M  V30 1119 H 103.098 -2.66839 -1.8165 0
M  V30 1120 H 102.15 -3.78984 0.327929 0
M  V30 1121 H 103.462 -4.98354 0.210997 0
M  V30 1122 H 102.616 -5.7183 -2.02719 0
M  V30 1123 H 101.355 -4.45376 -1.98725 0
M  V30 1124 H 100.36 -5.49758 0.0676979 0
M  V30 1125 H 101.585 -6.79099 0.00891991 0
M  V30 1126 H 99.531 -6.19601 -2.15478 0
M  V30 1127 H 99.448 -7.49254 -1.00766 0
M  V30 1128 H 100.716 -7.47906 -2.19676 0
M  V30 1129 N 104.945 -0.338344 -1.53925 0
M  V30 1130 C 106.194 0.260732 -2.00008 0
M  V30 1131 C 106.507 1.52073 -1.23017 0
M  V30 1132 O 107.713 2.19672 -1.5955 0
M  V30 1133 C 106.169 0.51515 -3.56194 0
M  V30 1134 C 105.777 -0.728645 -4.42035 0
M  V30 1135 C 107.521 1.07337 -4.10706 0
M  V30 1136 C 105.428 -0.445315 -5.89721 0
M  V30 1137 H 104.358 0.101205 -0.747177 0
M  V30 1138 H 107.009 -0.452866 -1.77824 0
M  V30 1139 H 105.391 1.28932 -3.74423 0
M  V30 1140 H 106.565 -1.50352 -4.35581 0
M  V30 1141 H 104.88 -1.20813 -3.98489 0
M  V30 1142 H 107.477 1.30022 -5.18651 0
M  V30 1143 H 107.82 2.0273 -3.63602 0
M  V30 1144 H 108.353 0.360034 -3.96167 0
M  V30 1145 H 105.092 -1.36883 -6.41049 0
M  V30 1146 H 104.612 0.291569 -5.99091 0
M  V30 1147 H 106.291 -0.0606218 -6.46972 0
M  V30 1148 N 106.423 1.57458 -0.0668435 0
M  V30 1149 C 107.37 2.12439 0.902122 0
M  V30 1150 C 108.34 1.03565 1.2986 0
M  V30 1151 O 109.525 1.312 1.38532 0
M  V30 1152 C 106.665 2.6865 2.16614 0
M  V30 1153 C 105.778 3.91663 1.82274 0
M  V30 1154 C 104.913 4.36134 3.0325 0
M  V30 1155 C 103.952 5.51808 2.64904 0
M  V30 1156 N 103.089 5.9126 3.78624 0
M  V30 1157 H 107.929 2.94934 0.426382 0
M  V30 1158 H 105.466 1.4575 0.198819 0
M  V30 1159 H 107.424 2.99346 2.90599 0
M  V30 1160 H 106.054 1.88928 2.61737 0
M  V30 1161 H 105.106 3.6746 0.983719 0
M  V30 1162 H 106.418 4.75693 1.50059 0
M  V30 1163 H 105.572 4.68465 3.85519 0
M  V30 1164 H 104.311 3.50948 3.38655 0
M  V30 1165 H 103.316 5.19133 1.81055 0
M  V30 1166 H 104.541 6.38722 2.30675 0
M  V30 1167 H 102.487 5.09024 4.138 0
M  V30 1168 H 102.404 6.70018 3.5016 0
M  V30 1169 H 103.672 6.28212 4.61486 0
M  V30 1170 N 107.901 -0.206675 1.56239 0
M  V30 1171 C 108.811 -1.27686 1.96808 0
M  V30 1172 C 109.827 -1.50455 0.874035 0
M  V30 1173 O 111.003 -1.63295 1.17884 0
M  V30 1174 C 108.068 -2.60358 2.28942 0
M  V30 1175 C 107.129 -2.45762 3.51994 0
M  V30 1176 C 106.362 -3.72108 3.82585 0
M  V30 1177 O 106.585 -4.75776 3.14631 0
M  V30 1178 O 105.519 -3.6833 4.76043 0
M  V30 1179 H 109.345 -0.962593 2.88041 0
M  V30 1180 H 106.93 -0.410746 1.43643 0
M  V30 1181 H 108.812 -3.38687 2.50737 0
M  V30 1182 H 107.487 -2.91435 1.4088 0
M  V30 1183 H 106.394 -1.65584 3.35459 0
M  V30 1184 H 107.727 -2.19621 4.40486 0
M  V30 1185 N 109.379 -1.50304 -0.473955 0
M  V30 1186 C 110.309 -1.71886 -1.58042 0
M  V30 1187 C 111.29 -0.567799 -1.60344 0
M  V30 1188 O 112.475 -0.806623 -1.76656 0
M  V30 1189 C 109.605 -1.81036 -2.96384 0
M  V30 1190 C 108.559 -2.962 -3.08949 0
M  V30 1191 C 107.885 -2.9049 -4.48909 0
M  V30 1192 C 109.185 -4.36752 -2.86434 0
M  V30 1193 H 110.879 -2.64527 -1.40234 0
M  V30 1194 H 108.425 -1.27295 -0.673201 0
M  V30 1195 H 110.378 -1.94719 -3.73714 0
M  V30 1196 H 109.102 -0.850147 -3.15341 0
M  V30 1197 H 107.761 -2.82164 -2.3405 0
M  V30 1198 H 107.409 -1.92321 -4.64781 0
M  V30 1199 H 107.109 -3.67802 -4.58253 0
M  V30 1200 H 108.633 -3.06218 -5.28264 0
M  V30 1201 H 110.047 -4.5133 -3.53517 0
M  V30 1202 H 108.444 -5.15493 -3.07225 0
M  V30 1203 H 109.514 -4.49321 -1.82316 0
M  V30 1204 N 110.857 0.726932 -1.39834 0
M  V30 1205 C 111.789 1.85147 -1.35104 0
M  V30 1206 C 112.802 1.60736 -0.258392 0
M  V30 1207 O 113.991 1.70821 -0.517931 0
M  V30 1208 C 111.091 3.21332 -1.07697 0
M  V30 1209 C 110.264 3.73033 -2.28396 0
M  V30 1210 C 109.323 4.87802 -1.97322 0
M  V30 1211 O 108.349 5.01043 -2.70083 0
M  V30 1212 N 109.551 5.72768 -0.944273 0
M  V30 1213 H 112.316 1.89706 -2.32017 0
M  V30 1214 H 109.877 0.908006 -1.3404 0
M  V30 1215 H 111.869 3.95691 -0.849144 0
M  V30 1216 H 110.439 3.11992 -0.194909 0
M  V30 1217 H 109.659 2.89934 -2.6708 0
M  V30 1218 H 110.947 4.0431 -3.08887 0
M  V30 1219 H 110.345 5.64669 -0.341427 0
M  V30 1220 H 108.902 6.4716 -0.776346 0
M  V30 1221 N 112.336 1.25143 0.95797 0
M  V30 1222 C 113.299 1.05321 2.03569 0
M  V30 1223 C 114.299 0.007152 1.60798 0
M  V30 1224 O 115.489 0.24903 1.72411 0
M  V30 1225 C 112.621 0.598394 3.35607 0
M  V30 1226 H 113.814 2.00986 2.22586 0
M  V30 1227 H 111.367 1.07502 1.13459 0
M  V30 1228 H 112.102 -0.361014 3.22284 0
M  V30 1229 H 111.887 1.35351 3.67998 0
M  V30 1230 H 113.377 0.48104 4.1482 0
M  V30 1231 N 113.814 -1.1601 1.06675 0
M  V30 1232 C 115.061 -1.86633 0.785781 0
M  V30 1233 C 115.389 -1.81929 -0.687896 0
M  V30 1234 O 114.644 -1.23253 -1.52011 0
M  V30 1235 C 114.943 -3.35547 1.23057 0
M  V30 1236 C 114.609 -3.60448 2.70902 0
M  V30 1237 C 113.271 -3.66954 3.11285 0
M  V30 1238 C 115.623 -3.7071 3.66365 0
M  V30 1239 C 112.951 -3.81225 4.45965 0
M  V30 1240 C 115.303 -3.86503 5.00797 0
M  V30 1241 C 113.967 -3.91252 5.40813 0
M  V30 1242 H 113.237 -0.682937 0.287538 0
M  V30 1243 H 115.884 -1.37146 1.33654 0
M  V30 1244 H 114.189 -3.87193 0.59907 0
M  V30 1245 H 115.886 -3.88583 0.990163 0
M  V30 1246 H 112.476 -3.56021 2.38636 0
M  V30 1247 H 116.66 -3.64991 3.36296 0
M  V30 1248 H 111.916 -3.83155 4.76447 0
M  V30 1249 H 116.09 -3.93385 5.74649 0
M  V30 1250 H 113.717 -4.02062 6.45174 0
M  V30 1251 N 115.292 -0.849877 -1.32721 0
M  V30 1252 C 116.539 -0.450923 -1.97416 0
M  V30 1253 C 116.867 0.992376 -1.67279 0
M  V30 1254 O 116.122 1.71048 -0.950845 0
M  V30 1255 C 116.421 -0.631272 -3.51781 0
M  V30 1256 C 116.087 -2.04432 -4.01894 0
M  V30 1257 C 114.749 -2.4308 -4.1529 0
M  V30 1258 C 117.101 -2.96679 -4.28522 0
M  V30 1259 C 114.429 -3.73257 -4.52654 0
M  V30 1260 C 116.781 -4.26349 -4.67343 0
M  V30 1261 C 115.445 -4.64939 -4.78945 0
M  V30 1262 H 114.715 -0.165004 -0.722395 0
M  V30 1263 H 117.362 -1.07901 -1.58207 0
M  V30 1264 H 115.667 0.0800767 -3.91718 0
M  V30 1265 H 117.364 -0.302709 -3.99856 0
M  V30 1266 H 113.954 -1.73419 -3.91949 0
M  V30 1267 H 118.138 -2.68054 -4.17685 0
M  V30 1268 H 113.394 -4.02946 -4.59831 0
M  V30 1269 H 117.568 -4.97895 -4.86902 0
M  V30 1270 H 115.195 -5.65855 -5.07654 0
M  V30 1271 N 116.77 1.45427 -0.607355 0
M  V30 1272 C 118.018 2.01841 -0.102253 0
M  V30 1273 C 118.339 1.47832 1.27164 0
M  V30 1274 O 117.609 0.672497 1.83995 0
M  V30 1275 H 116.189 0.746188 -0.0348101 0
M  V30 1276 H 118.851 1.78229 -0.7887 0
M  V30 1277 H 117.947 3.12057 -0.0518585 0
M  V30 1278 N 118.248 0.346503 1.53744 0
M  V30 1279 C 119.178 -0.501193 2.28058 0
M  V30 1280 C 120.159 -1.10014 1.29734 0
M  V30 1281 O 121.344 -1.12097 1.58581 0
M  V30 1282 C 118.474 -1.65078 3.05559 0
M  V30 1283 C 117.428 -1.18003 4.11411 0
M  V30 1284 C 116.754 -2.41837 4.76884 0
M  V30 1285 C 118.054 -0.278394 5.21558 0
M  V30 1286 H 119.748 0.11875 2.99164 0
M  V30 1287 H 117.294 0.0585531 1.43881 0
M  V30 1288 H 119.247 -2.25028 3.56287 0
M  V30 1289 H 117.971 -2.29767 2.32109 0
M  V30 1290 H 116.63 -0.603331 3.61601 0
M  V30 1291 H 116.278 -3.0494 4.00026 0
M  V30 1292 H 115.978 -2.1102 5.48402 0
M  V30 1293 H 117.502 -3.02508 5.30397 0
M  V30 1294 H 118.916 -0.784823 5.67903 0
M  V30 1295 H 117.313 -0.0619707 6.00068 0
M  V30 1296 H 118.383 0.684677 4.80042 0
M  V30 1297 N 119.726 -1.57421 0.075193 0
M  V30 1298 C 120.658 -2.09904 -0.920483 0
M  V30 1299 C 121.671 -1.03191 -1.25918 0
M  V30 1300 O 122.86 -1.30695 -1.21577 0
M  V30 1301 C 119.96 -2.54726 -2.23534 0
M  V30 1302 C 119.133 -3.8505 -2.07498 0
M  V30 1303 C 118.192 -4.15929 -3.22319 0
M  V30 1304 O 117.218 -4.85474 -2.9716 0
M  V30 1305 N 118.42 -3.69745 -4.47514 0
M  V30 1306 H 121.185 -2.95954 -0.472359 0
M  V30 1307 H 118.746 -1.61523 -0.110444 0
M  V30 1308 H 120.738 -2.72443 -2.9926 0
M  V30 1309 H 119.308 -1.73795 -2.59835 0
M  V30 1310 H 118.528 -3.76679 -1.16219 0
M  V30 1311 H 119.816 -4.70348 -1.94038 0
M  V30 1312 H 119.214 -3.13569 -4.7084 0
M  V30 1313 H 117.771 -3.92655 -5.20255 0
M  V30 1314 N 121.204 0.198386 -1.56346 0
M  V30 1315 C 122.45 0.920648 -1.80698 0
M  V30 1316 C 122.783 1.83045 -0.648697 0
M  V30 1317 O 122.058 1.91308 0.350925 0
M  V30 1318 C 122.341 1.73971 -3.15287 0
M  V30 1319 C 122.194 0.85485 -4.41602 0
M  V30 1320 C 123.513 2.71296 -3.46535 0
M  V30 1321 H 120.632 0.333261 -0.657348 0
M  V30 1322 H 123.274 0.188198 -1.89066 0
M  V30 1323 H 121.424 2.36416 -3.08285 0
M  V30 1324 H 123.096 0.245362 -4.60647 0
M  V30 1325 H 121.339 0.161398 -4.335 0
M  V30 1326 H 122.01 1.46286 -5.32264 0
M  V30 1327 H 124.486 2.18983 -3.53816 0
M  V30 1328 H 123.362 3.2569 -4.41834 0
M  V30 1329 H 123.623 3.5018 -2.69864 0
M  V30 1330 N 122.682 1.50554 0.465978 0
M  V30 1331 C 123.91 1.65563 1.24083 0
M  V30 1332 C 124.325 0.341051 1.85694 0
M  V30 1333 O 123.682 -0.677543 1.69457 0
M  V30 1334 C 123.733 2.75051 2.34583 0
M  V30 1335 O 123.454 4.01413 1.75497 0
M  V30 1336 C 124.955 3.01078 3.25372 0
M  V30 1337 H 122.175 0.55638 0.375077 0
M  V30 1338 H 124.719 1.96807 0.555624 0
M  V30 1339 H 122.874 2.46486 2.9887 0
M  V30 1340 H 123.288 4.62002 2.48303 0
M  V30 1341 H 124.762 3.81339 3.99105 0
M  V30 1342 H 125.239 2.12349 3.84453 0
M  V30 1343 H 125.845 3.31194 2.66816 0
M  V30 1344 N 124.16 -0.719506 1.40217 0
M  V30 1345 C 125.408 -1.47641 1.3801 0
M  V30 1346 C 125.729 -1.94992 -0.018145 0
M  V30 1347 O 124.999 -1.70073 -0.972207 0
M  V30 1348 H 123.579 -0.547744 0.507923 0
M  V30 1349 H 126.241 -0.853187 1.75233 0
M  V30 1350 H 125.337 -2.35112 2.05253 0
M  V30 1351 N 125.638 -1.25649 -0.95132 0
M  V30 1352 C 126.585 -1.06323 -2.04851 0
M  V30 1353 C 127.555 0.0286491 -1.66075 0
M  V30 1354 O 128.74 -0.12917 -1.90362 0
M  V30 1355 C 125.88 -0.691529 -3.381 0
M  V30 1356 C 124.993 -1.85861 -3.89974 0
M  V30 1357 C 124.128 -1.43096 -5.11563 0
M  V30 1358 C 123.167 -2.56696 -5.55674 0
M  V30 1359 N 122.304 -2.14684 -6.68472 0
M  V30 1360 H 127.144 -2.00222 -2.20715 0
M  V30 1361 H 124.681 -0.997027 -1.08156 0
M  V30 1362 H 126.639 -0.456963 -4.1469 0
M  V30 1363 H 125.269 0.210474 -3.22113 0
M  V30 1364 H 124.321 -2.20639 -3.09875 0
M  V30 1365 H 125.633 -2.71161 -4.18657 0
M  V30 1366 H 124.787 -1.15624 -5.9558 0
M  V30 1367 H 123.526 -0.548722 -4.84603 0
M  V30 1368 H 122.531 -2.84909 -4.7022 0
M  V30 1369 H 123.756 -3.45503 -5.8464 0
M  V30 1370 H 121.702 -1.28881 -6.43215 0
M  V30 1371 H 121.619 -2.9353 -6.96689 0
M  V30 1372 H 122.887 -1.90397 -7.5589 0
M  V30 1373 N 127.117 1.15442 -1.07289 0
M  V30 1374 C 128.047 2.22312 -0.714107 0
M  V30 1375 C 129.028 1.67467 0.298155 0
M  V30 1376 O 130.213 1.93445 0.171048 0
M  V30 1377 C 127.343 3.47124 -0.110448 0
M  V30 1378 C 126.297 4.14926 -1.04979 0
M  V30 1379 C 125.623 5.33807 -0.308924 0
M  V30 1380 C 126.923 4.64762 -2.38314 0
M  V30 1381 H 128.617 2.5258 -1.6076 0
M  V30 1382 H 126.163 1.21404 -0.77441 0
M  V30 1383 H 128.116 4.21124 0.152482 0
M  V30 1384 H 126.84 3.16187 0.81812 0
M  V30 1385 H 125.499 3.42866 -1.29764 0
M  V30 1386 H 125.147 4.99126 0.623084 0
M  V30 1387 H 124.847 5.80113 -0.935036 0
M  V30 1388 H 126.371 6.10576 -0.0537771 0
M  V30 1389 H 127.785 5.30292 -2.1786 0
M  V30 1390 H 126.182 5.21728 -2.96514 0
M  V30 1391 H 127.252 3.80434 -3.00663 0
M  V30 1392 N 128.595 0.856903 1.32268 0
M  V30 1393 C 129.872 0.382583 1.91822 0
M  V30 1394 C 130.252 -1.13407 1.78051 0
M  V30 1395 O 129.6 -1.95673 1.18001 0
M  V30 1396 C 129.81 0.849446 3.38505 0
M  V30 1397 C 131.158 0.867936 4.15634 0
M  V30 1398 O 132.182 0.794232 3.47232 0
M  V30 1399 O 131.041 0.972286 5.37781 0
M  V30 1400 H 128.135 0.112014 0.819379 0
M  V30 1401 H 130.681 0.943952 1.41024 0
M  V30 1402 H 129.453 1.89267 3.42482 0
M  V30 1403 H 129.076 0.265652 3.96712 0
M  V30 1404 N 130.073 -1.45103 0.615059 0
M  V30 1405 C 131.005 -2.28786 -0.13762 0
M  V30 1406 C 132.018 -1.40376 -0.824525 0
M  V30 1407 O 133.207 -1.64681 -0.688662 0
M  V30 1408 C 130.307 -3.16322 -1.21628 0
M  V30 1409 C 129.48 -4.33054 -0.615039 0
M  V30 1410 C 128.539 -5.01743 -1.58556 0
M  V30 1411 O 127.565 -5.58293 -1.10895 0
M  V30 1412 N 128.767 -5.01714 -2.91998 0
M  V30 1413 H 131.532 -2.94025 0.580483 0
M  V30 1414 H 129.093 -1.55373 0.45507 0
M  V30 1415 H 131.085 -3.59139 -1.86552 0
M  V30 1416 H 129.655 -2.52943 -1.83681 0
M  V30 1417 H 128.875 -3.93627 0.21245 0
M  V30 1418 H 130.163 -5.08431 -0.193704 0
M  V30 1419 H 129.561 -4.57075 -3.33316 0
M  V30 1420 H 128.118 -5.48371 -3.52325 0
M  V30 1421 N 131.551 -0.354651 -1.53558 0
M  V30 1422 C 132.779 0.239515 -2.05509 0
M  V30 1423 C 133.194 1.4333 -1.2289 0
M  V30 1424 O 132.551 1.80538 -0.266899 0
M  V30 1425 C 132.602 0.643719 -3.55723 0
M  V30 1426 O 132.323 -0.502602 -4.35207 0
M  V30 1427 C 133.824 1.29743 -4.23889 0
M  V30 1428 H 131.044 0.0442697 -0.669538 0
M  V30 1429 H 133.588 -0.509856 -1.98042 0
M  V30 1430 H 131.743 1.34302 -3.63376 0
M  V30 1431 H 132.157 -0.178172 -5.24197 0
M  V30 1432 H 133.631 1.53091 -5.30346 0
M  V30 1433 H 134.108 2.25441 -3.76926 0
M  V30 1434 H 134.714 0.639865 -4.20459 0
M  V30 1435 N 133.029 1.57378 -0.0835403 0
M  V30 1436 C 134.257 1.98263 0.59157 0
M  V30 1437 C 134.672 0.962302 1.62435 0
M  V30 1438 O 134.029 -0.049581 1.82433 0
M  V30 1439 C 134.08 3.39214 1.24965 0
M  V30 1440 O 133.801 4.37339 0.258186 0
M  V30 1441 C 135.302 3.95038 2.01147 0
M  V30 1442 H 132.522 0.651773 0.159477 0
M  V30 1443 H 135.066 2.03878 -0.159415 0
M  V30 1444 H 133.221 3.34649 1.95164 0
M  V30 1445 H 133.635 5.19371 0.731734 0
M  V30 1446 H 135.109 4.95848 2.42567 0
M  V30 1447 H 135.586 3.32222 2.87272 0
M  V30 1448 H 136.192 4.0304 1.35789 0
M  V30 1449 N 134.507 -0.190092 1.56449 0
M  V30 1450 C 135.44 -1.26375 1.90012 0
M  V30 1451 C 136.418 -1.43705 0.760765 0
M  V30 1452 O 137.602 -1.59014 1.01226 0
M  V30 1453 C 134.729 -2.62962 2.13468 0
M  V30 1454 C 133.775 -2.62474 3.36169 0
M  V30 1455 S 134.608 -2.13412 4.91137 0
M  V30 1456 C 135.764 -3.51812 5.17667 0
M  V30 1457 H 135.997 -0.977181 2.80782 0
M  V30 1458 H 133.53 -0.393814 1.49293 0
M  V30 1459 H 135.488 -3.41583 2.27664 0
M  V30 1460 H 134.149 -2.88828 1.23439 0
M  V30 1461 H 133.342 -3.62918 3.49723 0
M  V30 1462 H 132.944 -1.91937 3.20992 0
M  V30 1463 H 135.236 -4.47706 5.08494 0
M  V30 1464 H 136.179 -3.43148 6.19399 0
M  V30 1465 H 136.587 -3.46956 4.45288 0
M  V30 1466 N 135.985 -1.50799 -0.457987 0
M  V30 1467 C 136.933 -1.71162 -1.575 0
M  V30 1468 C 137.927 -0.577592 -1.59249 0
M  V30 1469 O 139.133 -0.758443 -1.63241 0
M  V30 1470 H 135.508 -0.540468 -0.522875 0
M  V30 1471 H 137.479 -2.64837 -1.37492 0
M  V30 1472 C 136.228 -1.83496 -2.95338 0
M  V30 1473 H 135.551 -2.70153 -2.94716 0
M  V30 1474 H 136.991 -2.01765 -3.72917 0
M  V30 1475 C 135.45 -0.589694 -3.31699 0
M  V30 1476 O 135.98 0.265163 -4.00824 0
M  V30 1477 N 134.186 -0.439845 -2.87252 0
M  V30 1478 H 133.733 -1.13655 -2.31172 0
M  V30 1479 H 133.691 0.392159 -3.11945 0
M  V30 1480 N 137.463 0.71206 -1.40597 0
M  V30 1481 C 138.709 1.47416 -1.39271 0
M  V30 1482 C 139.042 1.942 0.00388791 0
M  V30 1483 O 138.317 1.68403 0.973179 0
M  V30 1484 C 138.6 2.69774 -2.38525 0
M  V30 1485 C 138.453 2.28861 -3.87224 0
M  V30 1486 C 139.772 3.71939 -2.35264 0
M  V30 1487 H 136.891 0.534713 -0.5072 0
M  V30 1488 H 139.533 0.812375 -1.71757 0
M  V30 1489 H 137.683 3.26238 -2.10953 0
M  V30 1490 H 139.355 1.77852 -4.25636 0
M  V30 1491 H 137.598 1.60824 -4.02887 0
M  V30 1492 H 138.269 3.16584 -4.52193 0
M  V30 1493 H 140.745 3.25113 -2.59694 0
M  V30 1494 H 139.621 4.55186 -3.06753 0
M  V30 1495 H 139.882 4.20484 -1.36549 0
M  V30 1496 N 138.941 1.26152 0.944643 0
M  V30 1497 C 140.19 1.10883 1.68487 0
M  V30 1498 C 140.503 -0.348153 1.92477 0
M  V30 1499 O 141.709 -0.621459 2.64292 0
M  V30 1500 C 140.165 1.93624 3.03377 0
M  V30 1501 C 139.773 3.43875 2.87148 0
M  V30 1502 C 141.517 1.86954 3.81115 0
M  V30 1503 C 139.424 4.18875 4.1749 0
M  V30 1504 H 138.354 0.41135 0.631907 0
M  V30 1505 H 141.005 1.50433 1.05082 0
M  V30 1506 H 139.387 1.46904 3.67743 0
M  V30 1507 H 140.561 3.98338 2.31653 0
M  V30 1508 H 138.876 3.51744 2.22856 0
M  V30 1509 H 141.473 2.40275 4.77673 0
M  V30 1510 H 141.816 0.839518 4.07747 0
M  V30 1511 H 142.349 2.31477 3.23517 0
M  V30 1512 H 139.088 5.22332 3.96043 0
M  V30 1513 H 138.608 3.69193 4.72712 0
M  V30 1514 H 140.287 4.27134 4.85968 0
M  V30 1515 N 140.419 -1.14872 1.07899 0
M  V30 1516 C 141.366 -2.19791 0.704319 0
M  V30 1517 C 142.336 -1.63238 -0.306987 0
M  V30 1518 O 143.521 -1.8983 -0.192171 0
M  V30 1519 C 140.661 -3.44911 0.114244 0
M  V30 1520 C 139.774 -4.15637 1.1777 0
M  V30 1521 C 138.909 -5.28324 0.552037 0
M  V30 1522 C 137.948 -5.90875 1.59789 0
M  V30 1523 N 137.085 -6.95022 0.994404 0
M  V30 1524 H 141.925 -2.5119 1.60336 0
M  V30 1525 H 139.462 -1.23356 0.801352 0
M  V30 1526 H 141.42 -4.16477 -0.245544 0
M  V30 1527 H 140.05 -3.14011 -0.74813 0
M  V30 1528 H 139.102 -3.42512 1.65499 0
M  V30 1529 H 140.414 -4.5823 1.97046 0
M  V30 1530 H 139.568 -6.06538 0.1402 0
M  V30 1531 H 138.307 -4.86939 -0.272431 0
M  V30 1532 H 137.312 -5.11369 2.01945 0
M  V30 1533 H 138.537 -6.34337 2.42474 0
M  V30 1534 H 136.483 -6.55722 0.190939 0
M  V30 1535 H 136.4 -7.36073 1.72432 0
M  V30 1536 H 137.668 -7.77123 0.608253 0
M  V30 1537 N 141.898 -0.863906 -1.31812 0
M  V30 1538 C 142.845 -0.313303 -2.28664 0
M  V30 1539 C 143.815 0.584868 -1.55462 0
M  V30 1540 O 145 0.517805 -1.83639 0
M  V30 1541 C 142.14 0.48441 -3.41683 0
M  V30 1542 C 141.253 -0.440594 -4.29747 0
M  V30 1543 C 140.388 0.370652 -5.29905 0
M  V30 1544 C 139.427 -0.551164 -6.09613 0
M  V30 1545 N 138.564 0.223462 -7.01744 0
M  V30 1546 H 143.404 -1.14444 -2.75148 0
M  V30 1547 H 140.941 -0.575769 -1.35364 0
M  V30 1548 H 142.899 0.962627 -4.05943 0
M  V30 1549 H 141.529 1.28029 -2.96325 0
M  V30 1550 H 140.581 -1.03724 -3.65986 0
M  V30 1551 H 141.893 -1.14767 -4.85417 0
M  V30 1552 H 141.047 0.911638 -5.99812 0
M  V30 1553 H 139.786 1.11105 -4.74876 0
M  V30 1554 H 138.791 -1.10396 -5.38603 0
M  V30 1555 H 140.016 -1.29032 -6.66729 0
M  V30 1556 H 137.962 0.946787 -6.49132 0
M  V30 1557 H 137.879 -0.424399 -7.54808 0
M  V30 1558 H 139.147 0.745876 -7.75923 0
M  V30 1559 N 143.376 1.44774 -0.622745 0
M  V30 1560 C 144.787 1.85546 -0.207226 0
M  V30 1561 C 145.138 1.52093 1.23944 0
M  V30 1562 O 144.263 0.95492 1.94191 0
M  V30 1563 C 144.858 3.36781 -0.369313 0
M  V30 1564 C 143.417 3.76399 -0.00836847 0
M  V30 1565 C 142.564 2.68664 -0.686651 0
M  V30 1566 H 145.515 1.3536 -0.828454 0
M  V30 1567 H 145.536 3.78453 0.394162 0
M  V30 1568 H 145.048 3.61098 -1.42231 0
M  V30 1569 H 143.149 3.57698 1.04322 0
M  V30 1570 H 143.262 4.7732 -0.412584 0
M  V30 1571 H 141.626 2.54404 -0.122777 0
M  V30 1572 H 142.409 2.95815 -1.74208 0
M  V30 1573 N 144.854 0.36279 1.53368 0
M  V30 1574 C 146.27 0.0116182 1.59596 0
M  V30 1575 C 146.47 -1.47012 1.37803 0
M  V30 1576 O 145.526 -2.23136 1.18181 0
M  V30 1577 C 146.839 0.465052 2.97082 0
M  V30 1578 C 148.387 0.419033 3.10182 0
M  V30 1579 C 148.862 0.848235 4.50077 0
M  V30 1580 N 150.353 0.803183 4.56183 0
M  V30 1581 C 151.088 1.107 5.62613 0
M  V30 1582 N 150.584 1.47996 6.76808 0
M  V30 1583 N 152.377 1.02998 5.52583 0
M  V30 1584 H 144.528 1.32775 1.65785 0
M  V30 1585 H 146.791 0.542518 0.777417 0
M  V30 1586 H 146.497 1.49892 3.18159 0
M  V30 1587 H 146.371 -0.149786 3.76902 0
M  V30 1588 H 148.758 -0.605696 2.88817 0
M  V30 1589 H 148.839 1.06933 2.32377 0
M  V30 1590 H 148.483 1.87107 4.7218 0
M  V30 1591 H 148.413 0.175218 5.26308 0
M  V30 1592 H 150.904 0.52838 3.74188 0
M  V30 1593 H 151.217 1.69613 7.53957 0
M  V30 1594 H 149.562 1.51859 6.78206 0
M  V30 1595 H 152.753 0.737817 4.62249 0
M  V30 1596 H 152.926 1.2701 6.35431 0
M  V30 1597 N 146.332 -1.57332 0.0918853 0
M  V30 1598 C 147.572 -1.96117 -0.575988 0
M  V30 1599 C 147.936 -0.972499 -1.65549 0
M  V30 1600 O 149.137 -1.24872 -2.38034 0
M  V30 1601 C 147.408 -3.39407 -1.11973 0
M  V30 1602 S 148.967 -4.00185 -1.79992 0
M  V30 1603 H 145.785 -0.685682 -0.188045 0
M  V30 1604 H 148.387 -1.94755 0.170525 0
M  V30 1605 H 147.091 -4.09131 -0.322504 0
M  V30 1606 H 146.622 -3.44358 -1.90214 0
M  V30 1607 H 148.637 -3.88728 -3.08391 0
M  V30 1608 N 147.81 0.181792 -1.56548 0
M  V30 1609 C 149.058 0.89832 -1.81038 0
M  V30 1610 C 149.379 1.83232 -0.667164 0
M  V30 1611 O 148.649 1.93372 0.313673 0
M  V30 1612 H 147.229 0.33471 -0.667816 0
M  V30 1613 H 149.891 0.184116 -1.94028 0
M  V30 1614 H 148.987 1.4815 -2.74696 0
M  V30 1615 N 149.288 1.51039 0.449983 0
M  V30 1616 C 150.534 1.63322 1.20223 0
M  V30 1617 C 150.867 0.34241 1.91158 0
M  V30 1618 O 150.142 -0.657344 1.83055 0
M  V30 1619 C 150.425 2.82801 2.22925 0
M  V30 1620 C 150.278 4.21823 1.56157 0
M  V30 1621 C 151.597 2.97807 3.24035 0
M  V30 1622 H 148.716 0.594407 0.435718 0
M  V30 1623 H 151.358 1.83489 0.493136 0
M  V30 1624 H 149.508 2.65738 2.834 0
M  V30 1625 H 151.18 4.50526 0.991162 0
M  V30 1626 H 149.423 4.25105 0.864172 0
M  V30 1627 H 150.094 5.01391 2.30891 0
M  V30 1628 H 152.57 3.13497 2.73603 0
M  V30 1629 H 151.446 3.82992 3.93202 0
M  V30 1630 H 151.707 2.09328 3.89402 0
M  V30 1631 N 150.766 -0.704594 1.40972 0
M  V30 1632 C 152.177 -1.28418 1.3552 0
M  V30 1633 C 152.528 -1.96171 0.0339434 0
M  V30 1634 O 151.653 -1.98231 -0.867944 0
M  V30 1635 C 152.248 -2.33528 2.45459 0
M  V30 1636 C 150.807 -2.87085 2.43433 0
M  V30 1637 C 149.954 -1.61007 2.2577 0
M  V30 1638 H 152.905 -0.499963 1.50619 0
M  V30 1639 H 152.926 -3.14619 2.13998 0
M  V30 1640 H 152.438 -1.84187 3.41609 0
M  V30 1641 H 150.539 -3.40626 1.51013 0
M  V30 1642 H 150.652 -3.3813 3.39419 0
M  V30 1643 H 149.016 -1.86482 1.73483 0
M  V30 1644 H 149.799 -1.13675 3.23933 0
M  V30 1645 N 152.244 -1.26651 -0.937939 0
M  V30 1646 C 153.521 -1.0313 -1.66204 0
M  V30 1647 C 153.901 0.437256 -2.06522 0
M  V30 1648 O 153.249 1.41831 -1.79154 0
M  V30 1649 C 153.459 -1.98314 -2.87181 0
M  V30 1650 C 154.807 -2.27107 -3.58758 0
M  V30 1651 O 155.831 -1.96205 -2.97291 0
M  V30 1652 O 154.69 -2.79736 -4.69479 0
M  V30 1653 H 151.784 -0.392384 -0.727986 0
M  V30 1654 H 154.33 -1.37874 -0.989382 0
M  V30 1655 H 153.102 -2.97399 -2.54302 0
M  V30 1656 H 152.725 -1.64068 -3.6217 0
M  V30 1657 N 153.722 1.14298 -1.08507 0
M  V30 1658 C 154.968 1.85633 -0.816581 0
M  V30 1659 C 155.301 1.82784 0.656021 0
M  V30 1660 O 154.576 1.25926 1.48233 0
M  V30 1661 C 154.859 3.34223 -1.34041 0
M  V30 1662 C 154.712 3.45639 -2.87843 0
M  V30 1663 C 156.031 4.29356 -0.9665 0
M  V30 1664 H 153.15 0.67402 -0.298104 0
M  V30 1665 H 155.792 1.34214 -1.34487 0
M  V30 1666 H 153.942 3.78144 -0.89104 0
M  V30 1667 H 155.614 3.10498 -3.41158 0
M  V30 1668 H 153.857 2.86817 -3.25451 0
M  V30 1669 H 154.528 4.50089 -3.19569 0
M  V30 1670 H 157.004 3.93457 -1.35391 0
M  V30 1671 H 155.88 5.3178 -1.3602 0
M  V30 1672 H 156.141 4.41919 0.126362 0
M  V30 1673 N 155.201 0.870884 1.31352 0
M  V30 1674 C 156.164 0.332243 2.26779 0
M  V30 1675 C 157.164 -0.517302 1.52252 0
M  V30 1676 O 158.354 -0.326477 1.71113 0
M  V30 1677 C 155.486 -0.528066 3.36785 0
M  V30 1678 H 156.679 1.17469 2.75937 0
M  V30 1679 H 154.232 0.64655 1.423 0
M  V30 1680 H 154.967 -1.39167 2.92922 0
M  V30 1681 H 154.752 0.0802582 3.92018 0
M  V30 1682 H 156.242 -0.897179 4.07849 0
M  V30 1683 N 156.679 -1.44442 0.630414 0
M  V30 1684 C 157.627 -2.32437 -0.0871428 0
M  V30 1685 C 158.621 -1.47304 -0.836525 0
M  V30 1686 O 159.827 -1.63653 -0.749506 0
M  V30 1687 H 156.202 -0.750533 -0.0469495 0
M  V30 1688 H 158.173 -2.90709 0.673096 0
M  V30 1689 C 156.922 -3.31288 -1.05563 0
M  V30 1690 H 156.245 -3.96805 -0.488426 0
M  V30 1691 H 157.685 -3.9554 -1.52721 0
M  V30 1692 C 156.144 -2.6016 -2.14052 0
M  V30 1693 O 156.674 -2.39997 -3.22124 0
M  V30 1694 N 154.88 -2.19911 -1.89967 0
M  V30 1695 H 154.427 -2.36509 -1.02085 0
M  V30 1696 H 154.385 -1.72646 -2.62756 0
M  V30 1697 N 158.157 -0.370918 -1.53173 0
M  V30 1698 C 159.387 0.217389 -2.05453 0
M  V30 1699 C 159.795 1.42568 -1.24382 0
M  V30 1700 O 159.138 1.81571 -0.278839 0
M  V30 1701 C 159.2 0.669827 -3.53205 0
M  V30 1702 C 158.864 -0.4225 -4.55043 0
M  V30 1703 C 159.861 -1.27407 -5.04047 0
M  V30 1704 C 157.546 -0.58427 -4.9889 0
M  V30 1705 C 159.54 -2.27271 -5.95505 0
M  V30 1706 C 157.227 -1.58627 -5.90153 0
M  V30 1707 C 158.225 -2.42892 -6.38351 0
M  V30 1708 O 157.913 -3.41382 -7.27814 0
M  V30 1709 H 157.645 0.0408171 -0.674767 0
M  V30 1710 H 160.199 -0.5292 -1.98466 0
M  V30 1711 H 158.429 1.4681 -3.57748 0
M  V30 1712 H 160.118 1.18173 -3.88317 0
M  V30 1713 H 160.884 -1.16031 -4.70916 0
M  V30 1714 H 156.763 0.061851 -4.60959 0
M  V30 1715 H 160.307 -2.93079 -6.33049 0
M  V30 1716 H 156.204 -1.70048 -6.22699 0
M  V30 1717 H 156.972 -3.37173 -7.45826 0
M  V30 1718 N 159.635 1.57281 -0.100228 0
M  V30 1719 C 161.051 1.57527 0.256416 0
M  V30 1720 C 161.251 1.11173 1.68056 0
M  V30 1721 O 160.307 0.79053 2.39806 0
M  V30 1722 C 161.62 3.00673 0.0401747 0
M  V30 1723 C 163.168 3.12815 0.107528 0
M  V30 1724 C 163.643 4.57929 -0.0807834 0
M  V30 1725 N 165.134 4.63193 -0.0261207 0
M  V30 1726 C 165.869 5.73212 -0.146999 0
M  V30 1727 N 165.365 6.92047 -0.322999 0
M  V30 1728 N 167.158 5.62031 -0.0879044 0
M  V30 1729 H 159.309 1.85718 -1.03065 0
M  V30 1730 H 161.572 0.857446 -0.404339 0
M  V30 1731 H 161.278 3.38804 -0.943649 0
M  V30 1732 H 161.152 3.69042 0.780262 0
M  V30 1733 H 163.539 2.74554 1.08186 0
M  V30 1734 H 163.62 2.47028 -0.664134 0
M  V30 1735 H 163.264 4.96886 -1.05201 0
M  V30 1736 H 163.194 5.21783 0.710635 0
M  V30 1737 H 165.685 3.77748 0.107161 0
M  V30 1738 H 165.998 7.7173 -0.406608 0
M  V30 1739 H 164.343 6.94074 -0.358733 0
M  V30 1740 H 167.534 4.68075 0.048498 0
M  V30 1741 H 167.707 6.47734 -0.185557 0
M  V30 1742 N 161.113 -0.173488 1.56642 0
M  V30 1743 C 162.043 -1.2171 1.99271 0
M  V30 1744 C 163.024 -1.46289 0.867959 0
M  V30 1745 O 164.209 -1.5766 1.13388 0
M  V30 1746 C 161.339 -2.55651 2.35074 0
M  V30 1747 C 160.293 -2.45645 3.50489 0
M  V30 1748 C 159.619 -3.84056 3.72028 0
M  V30 1749 C 160.919 -1.96302 4.84007 0
M  V30 1750 H 162.613 -0.86275 2.867 0
M  V30 1751 H 160.159 -0.413571 1.37933 0
M  V30 1752 H 162.112 -3.2886 2.63494 0
M  V30 1753 H 160.836 -2.92869 1.44552 0
M  V30 1754 H 159.495 -1.7489 3.22194 0
M  V30 1755 H 159.143 -4.18664 2.788 0
M  V30 1756 H 158.843 -3.7823 4.49684 0
M  V30 1757 H 160.367 -4.58854 4.02846 0
M  V30 1758 H 161.781 -2.59284 5.11317 0
M  V30 1759 H 160.178 -2.01429 5.65284 0
M  V30 1760 H 161.248 -0.917226 4.76146 0
M  V30 1761 N 162.591 -1.51276 -0.441967 0
M  V30 1762 C 163.838 -1.63715 -1.19179 0
M  V30 1763 C 164.166 -0.351175 -1.91303 0
M  V30 1764 O 163.421 0.664524 -1.84072 0
M  V30 1765 C 163.72 -2.78746 -2.23686 0
M  V30 1766 C 163.386 -4.18189 -1.68607 0
M  V30 1767 C 162.048 -4.56125 -1.53308 0
M  V30 1768 C 164.4 -5.05222 -1.28062 0
M  V30 1769 C 161.728 -5.78804 -0.959317 0
M  V30 1770 C 164.08 -6.28476 -0.721162 0
M  V30 1771 C 162.744 -6.65188 -0.55504 0
M  V30 1772 H 162.014 -0.599076 -0.436106 0
M  V30 1773 H 164.661 -1.85296 -0.48351 0
M  V30 1774 H 162.966 -2.51369 -3.00535 0
M  V30 1775 H 164.663 -2.8557 -2.81515 0
M  V30 1776 H 161.253 -3.88277 -1.8149 0
M  V30 1777 H 165.437 -4.76524 -1.38704 0
M  V30 1778 H 160.693 -6.05899 -0.81833 0
M  V30 1779 H 164.867 -6.95259 -0.398458 0
M  V30 1780 H 162.494 -7.60123 -0.108311 0
M  V30 1781 N 164.069 0.697108 -1.41344 0
M  V30 1782 C 165.48 1.27697 -1.36199 0
M  V30 1783 C 165.831 1.9615 -0.0443463 0
M  V30 1784 O 164.956 1.98689 0.857419 0
M  V30 1785 C 165.551 2.32223 -2.46694 0
M  V30 1786 C 164.11 2.8579 -2.44952 0
M  V30 1787 C 163.257 1.59807 -2.26621 0
M  V30 1788 H 166.208 0.491968 -1.50882 0
M  V30 1789 H 166.229 3.1348 -2.15664 0
M  V30 1790 H 165.741 1.82373 -3.42581 0
M  V30 1791 H 163.842 3.3982 -1.52817 0
M  V30 1792 H 163.955 3.36325 -3.41207 0
M  V30 1793 H 162.319 1.8556 -1.7447 0
M  V30 1794 H 163.102 1.11956 -3.24532 0
M  V30 1795 N 165.547 1.27147 0.931209 0
M  V30 1796 C 166.795 1.13055 1.6752 0
M  V30 1797 C 167.116 -0.324791 1.92276 0
M  V30 1798 O 166.386 -1.22775 1.52654 0
M  V30 1799 H 164.966 0.415391 0.620854 0
M  V30 1800 H 167.628 1.59623 1.11833 0
M  V30 1801 H 166.724 1.65694 2.64485 0
M  V30 1802 N 167.025 -1.13721 1.09112 0
M  V30 1803 C 167.935 -2.22638 0.73957 0
M  V30 1804 C 168.951 -1.72091 -0.257068 0
M  V30 1805 O 170.127 -2.01155 -0.0992154 0
M  V30 1806 C 167.192 -3.46322 0.16191 0
M  V30 1807 C 166.253 -4.11775 1.21408 0
M  V30 1808 C 165.486 -5.29555 0.663891 0
M  V30 1809 O 165.709 -5.68077 -0.514274 0
M  V30 1810 O 164.643 -5.84973 1.41738 0
M  V30 1811 H 168.469 -2.55074 1.64836 0
M  V30 1812 H 166.054 -1.21791 0.865289 0
M  V30 1813 H 167.936 -4.21107 -0.157073 0
M  V30 1814 H 166.611 -3.15593 -0.719932 0
M  V30 1815 H 165.518 -3.3883 1.58571 0
M  V30 1816 H 166.851 -4.46627 2.06845 0
M  V30 1817 N 168.503 -0.877838 -1.30888 0
M  V30 1818 C 169.914 -0.544193 -1.78593 0
M  V30 1819 C 170.265 0.939301 -1.72254 0
M  V30 1820 O 169.39 1.7337 -1.29505 0
M  V30 1821 C 169.985 -0.98105 -3.24285 0
M  V30 1822 C 168.544 -0.698935 -3.69854 0
M  V30 1823 C 167.691 -1.168 -2.51502 0
M  V30 1824 H 170.642 -1.06278 -1.17859 0
M  V30 1825 H 170.663 -0.307009 -3.79259 0
M  V30 1826 H 170.175 -2.06079 -3.28866 0
M  V30 1827 H 168.276 0.369112 -3.70767 0
M  V30 1828 H 168.389 -1.28148 -4.61644 0
M  V30 1829 H 166.753 -0.587535 -2.47831 0
M  V30 1830 H 167.536 -2.25533 -2.58824 0
M  V30 1831 N 169.982 1.44106 -0.638065 0
M  V30 1832 C 170.929 2.30715 0.062701 0
M  V30 1833 C 171.899 1.43882 0.829883 0
M  V30 1834 O 173.084 1.72775 0.809532 0
M  V30 1835 C 170.224 3.29258 1.03358 0
M  V30 1836 C 169.337 4.31192 0.26409 0
M  V30 1837 C 168.472 5.16825 1.22741 0
M  V30 1838 C 167.511 6.10462 0.447475 0
M  V30 1839 N 166.648 6.8877 1.36161 0
M  V30 1840 H 171.488 2.90096 -0.681781 0
M  V30 1841 H 169.025 1.42925 -0.347988 0
M  V30 1842 H 170.983 3.84886 1.60992 0
M  V30 1843 H 169.613 2.71562 1.74511 0
M  V30 1844 H 168.665 3.77981 -0.428295 0
M  V30 1845 H 169.977 4.97619 -0.343052 0
M  V30 1846 H 169.131 5.77004 1.87487 0
M  V30 1847 H 167.87 4.50488 1.86847 0
M  V30 1848 H 166.875 5.49386 -0.213433 0
M  V30 1849 H 168.1 6.78837 -0.188968 0
M  V30 1850 H 166.046 6.25096 1.98975 0
M  V30 1851 H 165.963 7.51663 0.808656 0
M  V30 1852 H 167.231 7.53467 1.99769 0
M  V30 1853 N 171.46 0.379036 1.52974 0
M  V30 1854 C 172.706 -0.199244 2.02422 0
M  V30 1855 C 173.061 -1.4532 1.26095 0
M  V30 1856 O 172.354 -1.88377 0.34996 0
M  V30 1857 C 172.548 -0.53096 3.53434 0
M  V30 1858 C 172.377 0.689298 4.44386 0
M  V30 1859 C 171.147 1.20546 4.9071 0
M  V30 1860 C 173.345 1.55856 4.90116 0
M  V30 1861 N 171.327 2.38434 5.65705 0
M  V30 1862 C 172.698 2.58396 5.63588 0
M  V30 1863 C 174.753 1.57986 4.7217 0
M  V30 1864 C 173.456 3.62939 6.21022 0
M  V30 1865 C 175.482 2.6143 5.30479 0
M  V30 1866 C 174.844 3.62693 6.03849 0
M  V30 1867 H 170.943 -0.0352671 0.781204 0
M  V30 1868 H 173.527 0.526614 1.87443 0
M  V30 1869 H 171.698 -1.22588 3.68547 0
M  V30 1870 H 173.43 -1.0955 3.89591 0
M  V30 1871 H 170.185 0.768022 4.67331 0
M  V30 1872 H 170.609 2.98055 6.07859 0
M  V30 1873 H 175.251 0.810475 4.14959 0
M  V30 1874 H 172.969 4.40751 6.77321 0
M  V30 1875 H 176.555 2.63949 5.18481 0
M  V30 1876 H 175.435 4.41424 6.48163 0
M  V30 1877 N 172.938 -1.57226 0.108567 0
M  V30 1878 C 173.885 -2.14756 -0.845481 0
M  V30 1879 C 174.855 -1.06971 -1.27068 0
M  V30 1880 O 176.04 -1.34827 -1.35005 0
M  V30 1881 C 173.18 -2.74298 -2.09415 0
M  V30 1882 C 172.293 -3.96358 -1.71826 0
M  V30 1883 C 171.428 -4.44021 -2.9158 0
M  V30 1884 C 170.467 -5.58637 -2.50181 0
M  V30 1885 N 169.604 -6.01091 -3.62814 0
M  V30 1886 H 174.444 -2.95961 -0.348035 0
M  V30 1887 H 171.981 -1.46226 -0.160106 0
M  V30 1888 H 173.939 -3.06945 -2.82561 0
M  V30 1889 H 172.569 -1.95801 -2.56636 0
M  V30 1890 H 171.621 -3.69939 -0.885947 0
M  V30 1891 H 172.933 -4.79504 -1.37394 0
M  V30 1892 H 172.087 -4.78522 -3.72963 0
M  V30 1893 H 170.826 -3.59803 -3.29231 0
M  V30 1894 H 169.831 -5.23751 -1.67228 0
M  V30 1895 H 171.056 -6.44613 -2.13659 0
M  V30 1896 H 169.002 -5.19817 -4.00158 0
M  V30 1897 H 168.919 -6.79066 -3.32273 0
M  V30 1898 H 170.187 -6.40227 -4.44668 0
M  V30 1899 N 174.416 0.165178 -1.56732 0
M  V30 1900 C 175.363 1.2044 -1.96883 0
M  V30 1901 C 176.333 1.43664 -0.833657 0
M  V30 1902 O 177.518 1.56302 -1.09427 0
M  V30 1903 C 174.658 2.53727 -2.33916 0
M  V30 1904 C 173.771 2.3783 -3.6064 0
M  V30 1905 C 172.906 3.64026 -3.86857 0
M  V30 1906 C 171.945 3.43088 -5.06909 0
M  V30 1907 N 171.082 4.61369 -5.29229 0
M  V30 1908 H 175.922 0.854996 -2.85471 0
M  V30 1909 H 173.459 0.41076 -1.41249 0
M  V30 1910 H 175.417 3.31419 -2.53411 0
M  V30 1911 H 174.047 2.8665 -1.48431 0
M  V30 1912 H 173.099 1.51282 -3.49024 0
M  V30 1913 H 174.411 2.18308 -4.4849 0
M  V30 1914 H 173.565 4.50152 -4.06753 0
M  V30 1915 H 172.304 3.86533 -2.97394 0
M  V30 1916 H 171.309 2.55349 -4.86906 0
M  V30 1917 H 172.534 3.21997 -5.97909 0
M  V30 1918 H 170.48 4.84084 -4.42718 0
M  V30 1919 H 170.397 4.44783 -6.11313 0
M  V30 1920 H 171.665 5.48761 -5.53608 0
M  V30 1921 N 175.894 1.51508 0.433938 0
M  V30 1922 C 176.842 1.73646 1.54757 0
M  V30 1923 C 177.836 0.602854 1.5831 0
M  V30 1924 O 179.042 0.784318 1.62014 0
M  V30 1925 H 175.417 0.548718 0.51421 0
M  V30 1926 H 177.388 2.66991 1.33261 0
M  V30 1927 C 176.137 1.88172 2.92381 0
M  V30 1928 H 175.46 2.74808 2.90381 0
M  V30 1929 H 176.9 2.07672 3.6966 0
M  V30 1930 C 175.359 0.64239 3.30719 0
M  V30 1931 O 175.889 -0.201362 4.01195 0
M  V30 1932 N 174.095 0.485489 2.86516 0
M  V30 1933 H 173.642 1.17318 2.29334 0
M  V30 1934 H 173.6 -0.342482 3.12529 0
M  V30 1935 N 177.372 -0.689602 1.41712 0
M  V30 1936 C 178.6 -1.47827 1.44758 0
M  V30 1937 C 179.015 -1.88721 0.0545703 0
M  V30 1938 O 178.372 -1.57176 -0.927463 0
M  V30 1939 C 178.423 -2.73698 2.3616 0
M  V30 1940 O 178.144 -2.34524 3.7004 0
M  V30 1941 C 179.645 -3.67389 2.48072 0
M  V30 1942 H 176.865 -0.455357 0.49284 0
M  V30 1943 H 179.409 -0.848574 1.86063 0
M  V30 1944 H 177.564 -3.32891 1.98148 0
M  V30 1945 H 177.978 -3.15701 4.18847 0
M  V30 1946 H 179.452 -4.52475 3.16181 0
M  V30 1947 H 179.929 -4.12284 1.51388 0
M  V30 1948 H 180.535 -3.14097 2.86746 0
M  V30 1949 N 178.85 -1.27639 -0.924453 0
M  V30 1950 C 179.78 -1.13166 -2.04244 0
M  V30 1951 C 180.761 -0.032256 -1.70069 0
M  V30 1952 O 181.946 -0.207328 -1.9309 0
M  V30 1953 C 179.076 -0.781496 -3.38393 0
M  V30 1954 C 178.03 -1.83449 -3.86692 0
M  V30 1955 C 177.356 -1.33822 -5.17683 0
M  V30 1956 C 178.656 -3.23917 -4.09726 0
M  V30 1957 H 180.35 -2.06689 -2.1661 0
M  V30 1958 H 177.896 -0.995136 -1.04082 0
M  V30 1959 H 179.849 -0.667057 -4.16087 0
M  V30 1960 H 178.573 0.189439 -3.2605 0
M  V30 1961 H 177.232 -1.93789 -3.11193 0
M  V30 1962 H 176.88 -0.35665 -5.01734 0
M  V30 1963 H 176.58 -2.04224 -5.50968 0
M  V30 1964 H 178.104 -1.23679 -5.97943 0
M  V30 1965 H 179.518 -3.16559 -4.77978 0
M  V30 1966 H 177.915 -3.92059 -4.54324 0
M  V30 1967 H 178.985 -3.68729 -3.14908 0
M  V30 1968 N 180.328 1.1314 -1.09713 0
M  V30 1969 C 181.556 1.88321 -0.856898 0
M  V30 1970 C 181.971 1.79276 0.592073 0
M  V30 1971 O 181.328 1.16142 1.40774 0
M  V30 1972 C 181.379 3.37812 -1.28706 0
M  V30 1973 O 181.1 3.46627 -2.67921 0
M  V30 1974 C 182.601 4.29952 -1.07964 0
M  V30 1975 H 179.821 0.596094 -0.308079 0
M  V30 1976 H 182.365 1.43205 -1.45988 0
M  V30 1977 H 180.52 3.805 -0.727912 0
M  V30 1978 H 180.934 4.39579 -2.8613 0
M  V30 1979 H 182.408 5.33159 -1.42986 0
M  V30 1980 H 182.885 4.39196 -0.0176577 0
M  V30 1981 H 183.491 3.93036 -1.62489 0
M  V30 1982 N 181.806 0.884767 1.30421 0
M  V30 1983 C 183.036 0.517293 2.00019 0
M  V30 1984 C 183.444 -0.898632 1.66497 0
M  V30 1985 O 182.787 -1.60245 0.898181 0
M  V30 1986 C 182.849 0.612025 3.54252 0
M  V30 1987 C 182.513 1.99222 4.1129 0
M  V30 1988 C 183.51 2.9616 4.273 0
M  V30 1989 C 181.195 2.29755 4.46674 0
M  V30 1990 C 183.189 4.21764 4.77906 0
M  V30 1991 C 180.876 3.55606 4.96979 0
M  V30 1992 C 181.874 4.51425 5.12547 0
M  V30 1993 O 181.562 5.75043 5.61766 0
M  V30 1994 H 181.294 0.198529 0.64619 0
M  V30 1995 H 183.848 1.1919 1.67281 0
M  V30 1996 H 182.078 -0.119561 3.86515 0
M  V30 1997 H 183.767 0.255859 4.05093 0
M  V30 1998 H 184.533 2.73882 4.00267 0
M  V30 1999 H 180.412 1.55942 4.33824 0
M  V30 2000 H 183.956 4.96561 4.89972 0
M  V30 2001 H 179.853 3.7772 5.23448 0
M  V30 2002 H 180.621 5.77422 5.80109 0
M  V30 2003 N 183.284 -1.43765 0.645699 0
M  V30 2004 C 184.7 -1.56509 0.312591 0
M  V30 2005 C 184.9 -1.6307 -1.18365 0
M  V30 2006 O 183.956 -1.58167 -1.96824 0
M  V30 2007 C 185.269 -2.82968 1.01733 0
M  V30 2008 C 186.817 -2.96701 0.996865 0
M  V30 2009 C 187.292 -4.25982 1.68236 0
M  V30 2010 N 188.783 -4.32829 1.64964 0
M  V30 2011 C 189.518 -5.31613 2.14885 0
M  V30 2012 N 189.014 -6.36718 2.73061 0
M  V30 2013 N 190.807 -5.23217 2.05428 0
M  V30 2014 H 182.958 -1.3775 1.61675 0
M  V30 2015 H 185.221 -0.661067 0.679481 0
M  V30 2016 H 184.927 -2.84156 2.0724 0
M  V30 2017 H 184.801 -3.72957 0.564177 0
M  V30 2018 H 187.188 -2.95058 -0.0497719 0
M  V30 2019 H 187.269 -2.08022 1.48865 0
M  V30 2020 H 186.913 -4.28386 2.72852 0
M  V30 2021 H 186.843 -5.13545 1.16529 0
M  V30 2022 H 189.334 -3.57493 1.22503 0
M  V30 2023 H 189.647 -7.08401 3.08848 0
M  V30 2024 H 187.992 -6.37362 2.77118 0
M  V30 2025 H 191.183 -4.40019 1.59689 0
M  V30 2026 H 191.356 -6.00045 2.44643 0
M  V30 2027 N 184.763 -0.387143 -1.52771 0
M  V30 2028 C 186.012 0.19697 -2.00736 0
M  V30 2029 C 186.325 1.48082 -1.27793 0
M  V30 2030 O 187.531 2.14485 -1.66458 0
M  V30 2031 C 185.987 0.401568 -3.57653 0
M  V30 2032 C 185.595 -0.868907 -4.39493 0
M  V30 2033 C 187.339 0.942164 -4.13912 0
M  V30 2034 C 185.246 -0.632705 -5.88006 0
M  V30 2035 H 184.176 0.0773827 -0.750019 0
M  V30 2036 H 186.827 -0.50921 -1.76293 0
M  V30 2037 H 185.209 1.16954 -3.78335 0
M  V30 2038 H 186.383 -1.64133 -4.30577 0
M  V30 2039 H 184.698 -1.33429 -3.94443 0
M  V30 2040 H 187.295 1.13455 -5.22525 0
M  V30 2041 H 187.638 1.9106 -3.69867 0
M  V30 2042 H 188.171 0.233814 -3.97112 0
M  V30 2043 H 184.91 -1.57208 -6.36369 0
M  V30 2044 H 184.43 0.100825 -5.99715 0
M  V30 2045 H 186.109 -0.26642 -6.46451 0
M  V30 2046 N 186.241 1.57166 -0.116904 0
M  V30 2047 C 187.466 1.999 0.55271 0
M  V30 2048 C 187.891 0.996039 1.59564 0
M  V30 2049 O 187.249 -0.032556 1.81271 0
M  V30 2050 C 187.297 3.4152 1.15742 0
M  V30 2051 O 186.401 3.44106 2.27299 0
M  V30 2052 H 185.742 0.649447 0.138258 0
M  V30 2053 H 188.272 2.03573 -0.204759 0
M  V30 2054 H 188.282 3.79684 1.49346 0
M  V30 2055 H 186.957 4.14034 0.393493 0
M  V30 2056 H 185.534 3.17759 1.9515 0
M  V30 2057 N 187.719 -0.156864 1.56817 0
M  V30 2058 C 188.666 -1.19394 1.97519 0
M  V30 2059 C 189.636 -1.4322 0.841265 0
M  V30 2060 O 190.821 -1.55719 1.10255 0
M  V30 2061 C 187.961 -2.52483 2.35258 0
M  V30 2062 C 187.074 -2.35914 3.61896 0
M  V30 2063 C 186.209 -3.61969 3.88782 0
M  V30 2064 C 185.248 -3.40395 5.08722 0
M  V30 2065 N 184.385 -4.58556 5.31668 0
M  V30 2066 H 189.225 -0.839845 2.85921 0
M  V30 2067 H 186.762 -0.403264 1.41464 0
M  V30 2068 H 188.72 -3.30071 2.55165 0
M  V30 2069 H 187.35 -2.85859 1.49949 0
M  V30 2070 H 186.402 -1.49429 3.49821 0
M  V30 2071 H 187.714 -2.15926 4.49641 0
M  V30 2072 H 186.868 -4.47989 4.09135 0
M  V30 2073 H 185.607 -3.84951 2.9944 0
M  V30 2074 H 184.612 -2.52763 4.88253 0
M  V30 2075 H 185.837 -3.18822 5.99608 0
M  V30 2076 H 183.783 -4.81729 4.45279 0
M  V30 2077 H 183.7 -4.41535 6.13664 0
M  V30 2078 H 184.968 -5.45817 5.5651 0
M  V30 2079 N 189.197 -1.51736 -0.425897 0
M  V30 2080 C 190.427 -1.68549 -1.19476 0
M  V30 2081 C 190.835 -0.387288 -1.85194 0
M  V30 2082 O 190.178 0.645142 -1.71999 0
M  V30 2083 C 190.24 -2.75275 -2.31223 0
M  V30 2084 C 189.904 -4.17534 -1.8578 0
M  V30 2085 C 190.901 -5.01936 -1.35485 0
M  V30 2086 C 188.586 -4.6369 -1.93123 0
M  V30 2087 C 190.58 -6.30559 -0.931347 0
M  V30 2088 C 188.267 -5.92307 -1.50384 0
M  V30 2089 C 189.265 -6.75569 -1.00473 0
M  V30 2090 O 188.953 -8.0178 -0.583452 0
M  V30 2091 H 188.685 -0.568525 -0.365725 0
M  V30 2092 H 191.239 -1.98982 -0.509444 0
M  V30 2093 H 189.469 -2.40182 -3.03067 0
M  V30 2094 H 191.158 -2.80853 -2.93047 0
M  V30 2095 H 191.924 -4.67475 -1.29197 0
M  V30 2096 H 187.803 -3.98997 -2.30916 0
M  V30 2097 H 191.347 -6.95498 -0.541084 0
M  V30 2098 H 187.244 -6.2628 -1.56346 0
M  V30 2099 H 188.012 -8.1543 -0.708275 0
M  V30 2100 N 190.675 0.682077 -1.42076 0
M  V30 2101 C 191.903 1.47057 -1.4554 0
M  V30 2102 C 192.318 1.8869 -0.0645779 0
M  V30 2103 O 191.675 1.57666 0.919115 0
M  V30 2104 C 191.726 2.72442 -2.37609 0
M  V30 2105 O 191.447 2.32559 -3.71279 0
M  V30 2106 C 192.948 3.66069 -2.50017 0
M  V30 2107 H 190.168 0.452737 -0.495248 0
M  V30 2108 H 192.712 0.838695 -1.8651 0
M  V30 2109 H 190.867 3.31835 -1.9991 0
M  V30 2110 H 191.281 3.13475 -4.20516 0
M  V30 2111 H 192.755 4.50792 -3.18576 0
M  V30 2112 H 193.232 4.11476 -1.53572 0
M  V30 2113 H 193.838 3.12572 -2.88407 0
M  V30 2114 N 192.153 1.28127 0.917671 0
M  V30 2115 C 193.564 1.13622 1.48145 0
M  V30 2116 C 193.915 -0.275207 1.9426 0
M  V30 2117 O 193.04 -1.1691 1.82102 0
M  V30 2118 C 193.635 2.05648 2.69248 0
M  V30 2119 C 192.194 1.95219 3.21818 0
M  V30 2120 C 191.341 1.97618 1.94532 0
M  V30 2121 H 194.292 1.40874 0.730772 0
M  V30 2122 H 194.313 1.61818 3.44377 0
M  V30 2123 H 193.825 3.08365 2.35653 0
M  V30 2124 H 191.926 0.955244 3.60147 0
M  V30 2125 H 192.039 2.81976 3.87333 0
M  V30 2126 H 190.403 1.41973 2.11461 0
M  V30 2127 H 191.186 3.02007 1.63238 0
M  V30 2128 N 193.631 -1.12557 1.10312 0
M  V30 2129 C 194.856 -1.88405 0.867085 0
M  V30 2130 C 195.281 -1.79038 -0.576817 0
M  V30 2131 O 194.639 -1.14439 -1.40618 0
M  V30 2132 C 194.687 -3.3563 1.31851 0
M  V30 2133 O 193.791 -4.09565 0.482734 0
M  V30 2134 H 193.132 -0.585455 0.313271 0
M  V30 2135 H 195.662 -1.42352 1.4696 0
M  V30 2136 H 195.672 -3.86469 1.3079 0
M  V30 2137 H 194.347 -3.41765 2.37001 0
M  V30 2138 H 192.924 -3.68695 0.558448 0
M  V30 2139 N 195.109 -0.891671 -1.2995 0
M  V30 2140 C 196.042 -0.307994 -2.26112 0
M  V30 2141 C 197.02 0.575262 -1.52084 0
M  V30 2142 O 198.204 0.523864 -1.81074 0
M  V30 2143 C 195.331 0.561734 -3.34009 0
M  V30 2144 C 194.377 -0.253107 -4.25748 0
M  V30 2145 S 195.21 -1.64572 -5.09584 0
M  V30 2146 C 196.366 -0.782699 -6.20987 0
M  V30 2147 H 196.599 -1.12309 -2.75271 0
M  V30 2148 H 194.132 -0.691509 -1.38049 0
M  V30 2149 H 196.09 1.05777 -3.96638 0
M  V30 2150 H 194.751 1.35099 -2.83561 0
M  V30 2151 H 193.944 0.410908 -5.02322 0
M  V30 2152 H 193.546 -0.682004 -3.67729 0
M  V30 2153 H 195.838 -0.00257476 -6.775 0
M  V30 2154 H 196.781 -1.52026 -6.91588 0
M  V30 2155 H 197.189 -0.340638 -5.63471 0
M  V30 2156 N 196.587 1.43421 -0.653314 0
M  V30 2157 C 197.812 2.06678 -0.172846 0
M  V30 2158 C 198.237 1.48648 1.15262 0
M  V30 2159 O 197.595 0.596457 1.71208 0
M  V30 2160 C 197.643 3.60474 -0.0953184 0
M  V30 2161 O 196.747 4.01487 0.942442 0
M  V30 2162 H 196.088 0.657181 -0.0949155 0
M  V30 2163 H 198.618 1.83925 -0.896265 0
M  V30 2164 H 198.628 4.07905 0.0879728 0
M  V30 2165 H 197.303 4.02088 -1.06291 0
M  V30 2166 H 195.88 3.65646 0.731932 0
M  V30 2167 N 198.065 0.39524 1.52563 0
M  V30 2168 C 199.29 -0.187456 2.06551 0
M  V30 2169 C 199.715 -1.39249 1.26457 0
M  V30 2170 O 199.073 -1.78947 0.291151 0
M  V30 2171 C 199.121 -0.529985 3.56684 0
M  V30 2172 O 198.225 -1.62307 3.79118 0
M  V30 2173 H 197.566 -0.0202537 0.663691 0
M  V30 2174 H 200.096 0.564426 1.96661 0
M  V30 2175 H 200.106 -0.792598 4.00227 0
M  V30 2176 H 198.781 0.350987 4.14416 0
M  V30 2177 H 197.358 -1.3537 3.47461 0
M  V30 2178 N 199.544 -1.57102 0.125237 0
M  V30 2179 C 200.79 -1.95697 -0.532035 0
M  V30 2180 C 201.123 -1.009 -1.6593 0
M  V30 2181 O 200.398 -0.047347 -1.94442 0
M  V30 2182 C 200.681 -3.44181 -1.05884 0
M  V30 2183 C 200.534 -4.49752 0.0654392 0
M  V30 2184 C 201.853 -3.94655 -1.9477 0
M  V30 2185 H 198.972 -0.711571 -0.191925 0
M  V30 2186 H 201.614 -1.88923 0.20206 0
M  V30 2187 H 199.764 -3.50085 -1.68442 0
M  V30 2188 H 201.436 -4.55943 0.700982 0
M  V30 2189 H 199.679 -4.27653 0.727709 0
M  V30 2190 H 200.35 -5.50924 -0.344505 0
M  V30 2191 H 202.826 -3.91094 -1.42074 0
M  V30 2192 H 201.702 -4.99057 -2.28546 0
M  V30 2193 H 201.963 -3.35718 -2.87656 0
M  V30 2194 N 201.022 0.148545 -1.56898 0
M  V30 2195 C 201.932 1.20293 -2.01412 0
M  V30 2196 C 202.948 1.47107 -0.929273 0
M  V30 2197 O 204.124 1.58807 -1.23863 0
M  V30 2198 C 201.189 2.51682 -2.38447 0
M  V30 2199 C 200.25 2.32529 -3.60872 0
M  V30 2200 C 199.483 3.57653 -3.96132 0
M  V30 2201 O 199.706 4.63771 -3.32073 0
M  V30 2202 O 198.64 3.50408 -4.89385 0
M  V30 2203 H 202.466 0.855025 -2.91416 0
M  V30 2204 H 200.051 0.357151 -1.45068 0
M  V30 2205 H 201.933 3.29147 -2.63135 0
M  V30 2206 H 200.608 2.86006 -1.51599 0
M  V30 2207 H 199.515 1.53019 -3.41373 0
M  V30 2208 H 200.848 2.03121 -4.48333 0
M  V30 2209 N 202.5 1.5196 0.417844 0
M  V30 2210 C 203.746 1.65836 1.16732 0
M  V30 2211 C 204.079 0.382881 1.90388 0
M  V30 2212 O 203.354 -0.618368 1.84408 0
M  V30 2213 C 203.637 2.87466 2.16876 0
M  V30 2214 C 203.49 4.25041 1.47174 0
M  V30 2215 C 204.809 3.04613 3.17646 0
M  V30 2216 H 201.928 0.603515 0.423011 0
M  V30 2217 H 204.57 1.84494 0.454105 0
M  V30 2218 H 202.72 2.71689 2.777 0
M  V30 2219 H 204.392 4.52527 0.895376 0
M  V30 2220 H 202.635 4.26843 0.773806 0
M  V30 2221 H 203.306 5.06176 2.20204 0
M  V30 2222 H 205.782 3.1923 2.66892 0
M  V30 2223 H 204.658 3.91247 3.8499 0
M  V30 2224 H 204.919 2.17541 3.84874 0
M  V30 2225 N 203.978 -0.674533 1.42435 0
M  V30 2226 C 205.255 -1.4305 1.33402 0
M  V30 2227 C 205.635 -2.11081 -0.0284674 0
M  V30 2228 O 204.983 -2.03257 -1.04397 0
M  V30 2229 C 205.193 -2.43272 2.50239 0
M  V30 2230 C 206.541 -3.07907 2.92367 0
M  V30 2231 O 207.565 -2.53599 2.50132 0
M  V30 2232 O 206.424 -4.0632 3.65467 0
M  V30 2233 H 203.518 -0.638076 0.526106 0
M  V30 2234 H 206.064 -0.703235 1.54443 0
M  V30 2235 H 204.836 -1.91803 3.41068 0
M  V30 2236 H 204.459 -3.23479 2.31186 0
M  V30 2237 N 205.456 -1.28612 -0.910864 0
M  V30 2238 C 206.403 -1.12786 -2.01365 0
M  V30 2239 C 207.373 -0.024201 -1.66082 0
M  V30 2240 O 208.558 -0.189667 -1.89855 0
M  V30 2241 C 205.698 -0.798743 -3.35729 0
M  V30 2242 C 204.811 -1.98173 -3.83864 0
M  V30 2243 C 203.946 -1.59298 -5.06752 0
M  V30 2244 C 202.985 -2.74245 -5.47226 0
M  V30 2245 N 202.122 -2.35842 -6.61304 0
M  V30 2246 H 206.962 -2.07142 -2.14234 0
M  V30 2247 H 204.499 -1.03093 -1.0493 0
M  V30 2248 H 206.457 -0.588662 -4.13026 0
M  V30 2249 H 205.087 0.10789 -3.2262 0
M  V30 2250 H 204.139 -2.30386 -3.02699 0
M  V30 2251 H 205.451 -2.84343 -4.09818 0
M  V30 2252 H 204.605 -1.34513 -5.916 0
M  V30 2253 H 203.344 -0.702618 -4.82612 0
M  V30 2254 H 202.349 -2.99725 -4.60918 0
M  V30 2255 H 203.574 -3.63928 -5.73353 0
M  V30 2256 H 201.52 -1.49279 -6.38789 0
M  V30 2257 H 201.437 -3.15546 -6.86998 0
M  V30 2258 H 202.705 -2.14348 -7.4945 0
M  V30 2259 N 206.934 1.1197 -1.10907 0
M  V30 2260 C 207.897 2.16031 -0.765707 0
M  V30 2261 C 208.897 1.59393 0.212235 0
M  V30 2262 O 210.087 1.74196 -0.0115441 0
M  V30 2263 C 207.219 3.40632 -0.135053 0
M  V30 2264 H 208.412 2.47919 -1.68748 0
M  V30 2265 H 205.965 1.27061 -0.910226 0
M  V30 2266 H 206.7 3.14348 0.797218 0
M  V30 2267 H 206.485 3.8302 -0.838937 0
M  V30 2268 H 207.975 4.17505 0.0892469 0
M  V30 2269 N 208.412 0.89855 1.29475 0
M  V30 2270 C 209.658 0.524658 1.95896 0
M  V30 2271 C 209.991 -0.926468 1.70676 0
M  V30 2272 O 209.266 -1.65665 1.01908 0
M  V30 2273 C 209.549 0.81633 3.50725 0
M  V30 2274 C 209.402 2.31907 3.85408 0
M  V30 2275 C 210.721 0.302038 4.39062 0
M  V30 2276 H 207.84 0.19209 0.711527 0
M  V30 2277 H 210.482 1.12502 1.53112 0
M  V30 2278 H 208.632 0.305369 3.87298 0
M  V30 2279 H 210.304 2.89949 3.58786 0
M  V30 2280 H 208.547 2.78027 3.32992 0
M  V30 2281 H 209.218 2.47373 4.93468 0
M  V30 2282 H 211.694 0.739551 4.09475 0
M  V30 2283 H 210.57 0.535331 5.46283 0
M  V30 2284 H 210.831 -0.797216 4.34853 0
M  V30 2285 N 209.89 -1.43072 0.660911 0
M  V30 2286 C 210.8 -2.34585 -0.0264163 0
M  V30 2287 C 211.816 -1.54316 -0.803898 0
M  V30 2288 O 212.992 -1.86939 -0.749391 0
M  V30 2289 C 210.057 -3.32689 -0.975639 0
M  V30 2290 C 209.118 -4.2886 -0.194236 0
M  V30 2291 C 208.351 -5.22278 -1.09825 0
M  V30 2292 O 208.574 -5.20299 -2.33763 0
M  V30 2293 O 207.508 -5.99228 -0.566513 0
M  V30 2294 H 211.334 -2.94869 0.727034 0
M  V30 2295 H 208.919 -1.43342 0.42111 0
M  V30 2296 H 210.801 -3.92995 -1.52094 0
M  V30 2297 H 209.476 -2.74898 -1.70918 0
M  V30 2298 H 208.383 -3.72011 0.394835 0
M  V30 2299 H 209.716 -4.89655 0.499899 0
M  V30 2300 N 211.368 -0.403325 -1.52352 0
M  V30 2301 C 212.301 0.469463 -2.23319 0
M  V30 2302 C 213.279 1.05272 -1.23922 0
M  V30 2303 O 214.463 1.10169 -1.52954 0
M  V30 2304 C 211.59 1.6511 -2.9573 0
M  V30 2305 C 210.636 1.19178 -4.0951 0
M  V30 2306 S 211.469 0.161718 -5.35256 0
M  V30 2307 C 212.625 1.34882 -6.11194 0
M  V30 2308 H 212.858 -0.133134 -2.97002 0
M  V30 2309 H 210.391 -0.187588 -1.53256 0
M  V30 2310 H 212.349 2.3287 -3.38056 0
M  V30 2311 H 211.01 2.22503 -2.21701 0
M  V30 2312 H 210.203 2.07444 -4.59329 0
M  V30 2313 H 209.805 0.592911 -3.6927 0
M  V30 2314 H 212.097 2.27345 -6.38217 0
M  V30 2315 H 213.04 0.89128 -7.02468 0
M  V30 2316 H 213.448 1.57198 -5.42171 0
M  V30 2317 N 212.846 1.57033 -0.133567 0
M  V30 2318 C 213.809 2.14897 0.796995 0
M  V30 2319 C 214.809 1.0874 1.18458 0
M  V30 2320 O 215.999 1.34446 1.1077 0
M  V30 2321 C 213.131 2.70112 2.07973 0
M  V30 2322 H 214.324 2.98457 0.293873 0
M  V30 2323 H 211.877 1.55871 0.115787 0
M  V30 2324 H 212.612 1.9018 2.62682 0
M  V30 2325 H 212.397 3.47764 1.81115 0
M  V30 2326 H 213.887 3.14738 2.74462 0
M  V30 2327 N 214.325 -0.140222 1.56975 0
M  V30 2328 C 215.255 -1.17456 2.01808 0
M  V30 2329 C 216.236 -1.44415 0.898794 0
M  V30 2330 O 217.421 -1.5522 1.16707 0
M  V30 2331 C 214.551 -2.50607 2.40444 0
M  V30 2332 C 213.505 -2.38155 3.55621 0
M  V30 2333 C 212.831 -3.76078 3.80091 0
M  V30 2334 C 214.131 -1.85991 4.88062 0
M  V30 2335 H 215.825 -0.801743 2.88466 0
M  V30 2336 H 213.371 -0.38422 1.38779 0
M  V30 2337 H 215.324 -3.23197 2.7041 0
M  V30 2338 H 214.048 -2.89737 1.50732 0
M  V30 2339 H 212.707 -1.68016 3.25832 0
M  V30 2340 H 212.355 -4.12656 2.87618 0
M  V30 2341 H 212.055 -3.68606 4.57606 0
M  V30 2342 H 213.579 -4.50206 4.12488 0
M  V30 2343 H 214.993 -2.4838 5.16701 0
M  V30 2344 H 213.39 -1.89393 5.6943 0
M  V30 2345 H 214.46 -0.816023 4.77984 0
M  V30 2346 N 215.803 -1.52179 -0.40978 0
M  V30 2347 C 216.735 -1.71703 -1.51825 0
M  V30 2348 C 217.748 -0.597445 -1.51441 0
M  V30 2349 O 218.937 -0.872582 -1.55719 0
M  V30 2350 C 216.037 -1.74171 -2.90719 0
M  V30 2351 C 215.21 -3.03156 -3.15302 0
M  V30 2352 C 214.269 -2.97445 -4.34065 0
M  V30 2353 O 213.295 -3.71352 -4.31377 0
M  V30 2354 N 214.497 -2.15191 -5.39141 0
M  V30 2355 H 217.262 -2.67334 -1.35472 0
M  V30 2356 H 214.823 -1.50409 -0.599069 0
M  V30 2357 H 216.815 -1.67884 -3.68235 0
M  V30 2358 H 215.385 -0.860166 -3.00533 0
M  V30 2359 H 214.605 -3.23097 -2.25836 0
M  V30 2360 H 215.893 -3.88484 -3.28569 0
M  V30 2361 H 215.291 -1.54573 -5.44173 0
M  V30 2362 H 213.848 -2.1476 -6.15403 0
M  V30 2363 N 217.281 0.66697 -1.42791 0
M  V30 2364 C 218.244 1.76211 -1.46568 0
M  V30 2365 C 219.244 1.56896 -0.352196 0
M  V30 2366 O 220.434 1.63044 -0.613364 0
M  V30 2367 C 217.566 3.14935 -1.30494 0
M  V30 2368 H 218.759 1.74247 -2.44086 0
M  V30 2369 H 216.312 0.877342 -1.29354 0
M  V30 2370 H 217.047 3.2252 -0.339301 0
M  V30 2371 H 216.832 3.30359 -2.11199 0
M  V30 2372 H 218.322 3.94821 -1.36038 0
M  V30 2373 N 218.759 1.29093 0.90403 0
M  V30 2374 C 220.005 1.17996 1.65676 0
M  V30 2375 C 220.36 -0.266816 1.90541 0
M  V30 2376 O 219.653 -1.19 1.50165 0
M  V30 2377 C 219.847 1.92224 3.01305 0
M  V30 2378 C 219.676 3.43972 2.89678 0
M  V30 2379 C 218.446 4.1332 2.90679 0
M  V30 2380 C 220.644 4.39546 2.67028 0
M  V30 2381 N 218.626 5.51463 2.69743 0
M  V30 2382 C 219.997 5.65119 2.5503 0
M  V30 2383 C 222.052 4.29359 2.52101 0
M  V30 2384 C 220.755 6.81663 2.29626 0
M  V30 2385 C 222.781 5.4565 2.28079 0
M  V30 2386 C 222.143 6.70193 2.16843 0
M  V30 2387 H 218.242 0.486759 0.612037 0
M  V30 2388 H 220.826 1.62868 1.06688 0
M  V30 2389 H 218.997 1.49773 3.58361 0
M  V30 2390 H 220.729 1.73429 3.65656 0
M  V30 2391 H 217.484 3.64984 3.01801 0
M  V30 2392 H 217.908 6.24105 2.6234 0
M  V30 2393 H 222.55 3.33769 2.59534 0
M  V30 2394 H 220.268 7.77313 2.20932 0
M  V30 2395 H 223.854 5.39664 2.1738 0
M  V30 2396 H 222.734 7.58659 1.98511 0
M  V30 2397 N 220.237 -1.11381 1.11499 0
M  V30 2398 C 221.462 -1.87475 0.887019 0
M  V30 2399 C 221.887 -1.79639 -0.557796 0
M  V30 2400 O 221.245 -1.15924 -1.39396 0
M  V30 2401 C 221.293 -3.34213 1.35403 0
M  V30 2402 O 220.397 -4.0903 0.526146 0
M  V30 2403 H 219.738 -0.582099 0.319463 0
M  V30 2404 H 222.268 -1.40785 1.48461 0
M  V30 2405 H 222.278 -3.8506 1.34881 0
M  V30 2406 H 220.953 -3.39232 2.40612 0
M  V30 2407 H 219.53 -3.68082 0.597522 0
M  V30 2408 N 221.715 -0.905404 -1.28997 0
M  V30 2409 C 222.94 -0.549175 -1.99997 0
M  V30 2410 C 223.365 0.860276 -1.67275 0
M  V30 2411 O 222.723 1.57355 -0.900502 0
M  V30 2412 C 222.771 -0.755185 -3.52604 0
M  V30 2413 O 221.875 0.189692 -4.11964 0
M  V30 2414 H 221.216 -0.213899 -0.628604 0
M  V30 2415 H 223.746 -1.21856 -1.64354 0
M  V30 2416 H 223.756 -0.662045 -4.02593 0
M  V30 2417 H 222.431 -1.78271 -3.75755 0
M  V30 2418 H 221.008 0.0485257 -3.72868 0
M  V30 2419 N 223.193 1.4272 -0.668489 0
M  V30 2420 C 224.156 2.292 0.00448567 0
M  V30 2421 C 225.156 1.43001 0.735339 0
M  V30 2422 O 226.346 1.64461 0.57429 0
M  V30 2423 C 223.478 3.25375 1.01705 0
M  V30 2424 H 224.671 2.90199 -0.756608 0
M  V30 2425 H 222.224 1.50254 -0.430506 0
M  V30 2426 H 222.959 2.69301 1.80686 0
M  V30 2427 H 222.744 3.88944 0.496463 0
M  V30 2428 H 224.234 3.90245 1.48655 0
M  V30 2429 N 224.671 0.411399 1.52136 0
M  V30 2430 C 225.917 -0.163888 2.02137 0
M  V30 2431 C 226.25 -1.44597 1.29636 0
M  V30 2432 O 225.525 -1.90272 0.403353 0
M  V30 2433 C 225.808 -0.40927 3.57767 0
M  V30 2434 C 225.661 0.889643 4.40914 0
M  V30 2435 C 226.98 -1.19042 4.23694 0
M  V30 2436 H 224.099 -0.0580896 0.734707 0
M  V30 2437 H 226.741 0.54531 1.82007 0
M  V30 2438 H 224.891 -1.0134 3.7505 0
M  V30 2439 H 226.563 1.52575 4.35337 0
M  V30 2440 H 224.806 1.50011 4.07037 0
M  V30 2441 H 225.477 0.672314 5.4789 0
M  V30 2442 H 227.953 -0.678942 4.10524 0
M  V30 2443 H 226.829 -1.33086 5.32522 0
M  V30 2444 H 227.09 -2.21166 3.82803 0
M  V30 2445 N 226.149 -1.5696 0.141893 0
M  V30 2446 C 227.56 -1.82797 -0.379776 0
M  V30 2447 C 227.911 -1.06033 -1.6508 0
M  V30 2448 O 227.036 -0.304011 -2.14254 0
M  V30 2449 C 227.631 -3.31578 -0.695802 0
M  V30 2450 C 226.19 -3.58014 -1.16201 0
M  V30 2451 C 225.337 -2.76699 -0.182455 0
M  V30 2452 H 228.288 -1.54406 0.366675 0
M  V30 2453 H 228.309 -3.47454 -1.55099 0
M  V30 2454 H 227.821 -3.87421 0.229449 0
M  V30 2455 H 225.922 -3.07553 -2.10338 0
M  V30 2456 H 226.035 -4.66501 -1.09151 0
M  V30 2457 H 224.399 -2.45618 -0.674072 0
M  V30 2458 H 225.182 -3.35311 0.736297 0
M  V30 2459 N 227.627 0.131896 -1.57047 0
M  V30 2460 C 228.557 1.16384 -2.02428 0
M  V30 2461 C 229.538 1.43936 -0.90644 0
M  V30 2462 O 230.723 1.54599 -1.17528 0
M  V30 2463 C 227.853 2.49328 -2.4177 0
M  V30 2464 C 226.807 2.36266 -3.56879 0
M  V30 2465 C 226.133 3.74057 -3.8208 0
M  V30 2466 C 227.433 1.834 -4.89042 0
M  V30 2467 H 229.127 0.786433 -2.88887 0
M  V30 2468 H 226.673 0.376855 -1.38981 0
M  V30 2469 H 228.626 3.21759 -2.7212 0
M  V30 2470 H 227.35 2.88934 -1.52266 0
M  V30 2471 H 226.009 1.66286 -3.26718 0
M  V30 2472 H 225.657 4.11125 -2.89803 0
M  V30 2473 H 225.357 3.66174 -4.59554 0
M  V30 2474 H 226.881 4.48012 -4.1487 0
M  V30 2475 H 228.295 2.45636 -5.18011 0
M  V30 2476 H 226.692 1.8637 -5.70426 0
M  V30 2477 H 227.762 0.790662 -4.7841 0
M  V30 2478 N 229.106 1.52395 0.401703 0
M  V30 2479 C 230.331 1.70972 1.17403 0
M  V30 2480 C 230.756 0.421615 1.83314 0
M  V30 2481 O 230.114 -0.621564 1.70312 0
M  V30 2482 C 230.162 2.85151 2.20728 0
M  V30 2483 O 229.266 2.51238 3.27037 0
M  V30 2484 H 228.607 0.568927 0.342372 0
M  V30 2485 H 231.137 1.99131 0.469891 0
M  V30 2486 H 231.147 3.10279 2.64936 0
M  V30 2487 H 229.822 3.78603 1.7214 0
M  V30 2488 H 228.399 2.36808 2.88057 0
M  V30 2489 N 230.584 -0.659388 1.43143 0
M  V30 2490 C 231.831 -1.41935 1.44433 0
M  V30 2491 C 232.159 -1.94387 0.0663522 0
M  V30 2492 O 231.414 -1.72314 -0.927706 0
M  V30 2493 C 231.713 -2.62206 2.42864 0
M  V30 2494 C 231.379 -2.28208 3.88886 0
M  V30 2495 C 230.041 -2.18647 4.28657 0
M  V30 2496 C 232.393 -2.00887 4.8093 0
M  V30 2497 C 229.721 -1.79914 5.58433 0
M  V30 2498 C 232.073 -1.63653 6.11065 0
M  V30 2499 C 230.737 -1.52614 6.49819 0
M  V30 2500 H 230.007 -0.519376 0.528517 0
M  V30 2501 H 232.654 -0.750453 1.76183 0
M  V30 2502 H 230.959 -3.34199 2.04495 0
M  V30 2503 H 232.656 -3.2041 2.41119 0
M  V30 2504 H 229.246 -2.36557 3.57406 0
M  V30 2505 H 233.43 -2.07198 4.5098 0
M  V30 2506 H 228.686 -1.69948 5.87305 0
M  V30 2507 H 232.86 -1.41543 6.81864 0
M  V30 2508 H 230.487 -1.22371 7.50286 0
M  V30 2509 N 232.062 -1.29571 -0.897171 0
M  V30 2510 C 233.308 -1.17863 -1.65034 0
M  V30 2511 C 233.641 0.268729 -1.92332 0
M  V30 2512 O 232.916 1.19378 -1.53555 0
M  V30 2513 C 233.199 -1.995 -2.99786 0
M  V30 2514 C 233.052 -3.5239 -2.79538 0
M  V30 2515 C 234.371 -1.82335 -4.00552 0
M  V30 2516 H 231.49 -0.429528 -0.598895 0
M  V30 2517 H 234.132 -1.59072 -1.03905 0
M  V30 2518 H 232.282 -1.64485 -3.51962 0
M  V30 2519 H 233.954 -3.97401 -2.34244 0
M  V30 2520 H 232.197 -3.77187 -2.14273 0
M  V30 2521 H 232.868 -4.04787 -3.75302 0
M  V30 2522 H 235.344 -2.12924 -3.57495 0
M  V30 2523 H 234.22 -2.41801 -4.92771 0
M  V30 2524 H 234.481 -0.779209 -4.35179 0
M  V30 2525 N 233.54 1.10788 -1.12088 0
M  V30 2526 C 234.956 1.34691 -0.856186 0
M  V30 2527 C 235.156 1.94791 0.515615 0
M  V30 2528 O 234.212 2.18524 1.26505 0
M  V30 2529 C 235.525 2.27208 -1.9697 0
M  V30 2530 C 237.073 2.40755 -2.00016 0
M  V30 2531 C 237.548 3.36598 -3.1059 0
M  V30 2532 N 239.039 3.44164 -3.10008 0
M  V30 2533 C 239.774 4.18284 -3.92206 0
M  V30 2534 N 239.27 4.95322 -4.84384 0
M  V30 2535 N 241.063 4.13865 -3.80357 0
M  V30 2536 H 233.214 0.70144 -2.00483 0
M  V30 2537 H 235.477 0.371405 -0.872217 0
M  V30 2538 H 235.183 1.90251 -2.958 0
M  V30 2539 H 235.057 3.27485 -1.87172 0
M  V30 2540 H 237.444 2.76982 -1.01808 0
M  V30 2541 H 237.525 1.40305 -2.13888 0
M  V30 2542 H 237.169 3.01096 -4.09028 0
M  V30 2543 H 237.099 4.36918 -2.93956 0
M  V30 2544 H 239.59 2.8922 -2.43228 0
M  V30 2545 H 239.903 5.49267 -5.43623 0
M  V30 2546 H 238.248 4.94459 -4.884 0
M  V30 2547 H 241.439 3.52773 -3.07683 0
M  V30 2548 H 241.612 4.71372 -4.44649 0
M  V30 2549 N 235.018 0.912232 1.28515 0
M  V30 2550 C 236.267 0.540504 1.94323 0
M  V30 2551 C 236.58 -0.920044 1.72611 0
M  V30 2552 O 237.786 -1.39986 2.32629 0
M  V30 2553 C 236.242 0.915803 3.48053 0
M  V30 2554 C 235.85 2.39598 3.78546 0
M  V30 2555 C 237.594 0.614588 4.20027 0
M  V30 2556 C 235.501 2.71148 5.25578 0
M  V30 2557 H 234.431 0.198418 0.727424 0
M  V30 2558 H 237.082 1.11094 1.46049 0
M  V30 2559 H 235.464 0.274168 3.9505 0
M  V30 2560 H 236.638 3.08422 3.42364 0
M  V30 2561 H 234.953 2.66749 3.1974 0
M  V30 2562 H 237.55 0.827002 5.28266 0
M  V30 2563 H 237.893 -0.447531 4.13887 0
M  V30 2564 H 238.426 1.21462 3.78803 0
M  V30 2565 H 235.165 3.76207 5.36794 0
M  V30 2566 H 234.685 2.0696 5.62963 0
M  V30 2567 H 236.364 2.58072 5.93302 0
M  V30 2568 N 236.496 -1.42363 0.676048 0
M  V30 2569 C 237.444 -2.32596 -0.0131507 0
M  V30 2570 C 238.438 -1.49891 -0.789238 0
M  V30 2571 O 239.644 -1.65955 -0.697061 0
M  V30 2572 H 236.019 -0.751647 -0.0230481 0
M  V30 2573 H 237.99 -2.88421 0.765243 0
M  V30 2574 C 236.739 -3.34479 -0.949702 0
M  V30 2575 H 236.062 -3.98158 -0.361938 0
M  V30 2576 H 237.502 -4.00199 -1.4006 0
M  V30 2577 C 235.961 -2.66838 -2.05667 0
M  V30 2578 O 236.491 -2.50124 -3.14326 0
M  V30 2579 N 234.697 -2.25843 -1.82875 0
M  V30 2580 H 234.244 -2.39637 -0.945085 0
M  V30 2581 H 234.202 -1.80918 -2.5713 0
M  V30 2582 N 237.974 -0.419461 -1.51915 0
M  V30 2583 C 239.199 0.154572 -2.06823 0
M  V30 2584 C 239.624 1.3722 -1.28656 0
M  V30 2585 O 238.982 1.78461 -0.319583 0
M  V30 2586 C 239.03 0.473172 -3.57482 0
M  V30 2587 O 238.134 1.56255 -3.81652 0
M  V30 2588 H 237.475 0.0096924 -0.663929 0
M  V30 2589 H 240.005 -0.595642 -1.95738 0
M  V30 2590 H 240.015 0.728825 -4.01438 0
M  V30 2591 H 238.69 -0.416873 -4.13805 0
M  V30 2592 H 237.267 1.29825 -3.49571 0
M  V30 2593 N 239.452 1.56882 -0.150215 0
M  V30 2594 C 240.7 1.9584 0.499105 0
M  V30 2595 C 241.021 1.03623 1.65188 0
M  V30 2596 O 240.291 0.0984084 1.95653 0
M  V30 2597 H 238.871 0.723119 0.187373 0
M  V30 2598 H 241.533 1.9358 -0.226466 0
M  V30 2599 H 240.629 2.99638 0.873122 0
M  V30 2600 N 240.93 -0.123565 1.57115 0
M  V30 2601 C 241.84 -1.17074 2.033 0
M  V30 2602 C 242.856 -1.4561 0.952559 0
M  V30 2603 O 244.032 -1.56817 1.26374 0
M  V30 2604 C 241.097 -2.47857 2.42421 0
M  V30 2605 C 240.158 -2.26758 3.64526 0
M  V30 2606 C 239.391 -3.51305 4.01771 0
M  V30 2607 O 239.614 -4.5843 3.39409 0
M  V30 2608 O 238.548 -3.42578 4.94898 0
M  V30 2609 H 242.374 -0.808555 2.92739 0
M  V30 2610 H 239.959 -0.334027 1.45618 0
M  V30 2611 H 241.841 -3.2492 2.68338 0
M  V30 2612 H 240.516 -2.83558 1.5613 0
M  V30 2613 H 239.423 -1.47569 3.43765 0
M  V30 2614 H 240.756 -1.95963 4.51508 0
M  V30 2615 N 242.408 -1.52605 -0.393616 0
M  V30 2616 C 243.371 -1.76415 -1.46323 0
M  V30 2617 C 244.371 -0.634126 -1.47768 0
M  V30 2618 O 245.561 -0.902142 -1.4902 0
M  V30 2619 C 242.693 -1.8607 -2.85641 0
M  V30 2620 H 243.886 -2.71916 -1.26498 0
M  V30 2621 H 241.439 -1.43257 -0.625073 0
M  V30 2622 H 242.174 -0.925378 -3.10817 0
M  V30 2623 H 241.959 -2.68235 -2.85993 0
M  V30 2624 H 243.449 -2.06179 -3.63153 0
M  V30 2625 N 243.887 0.651787 -1.4349 0
M  V30 2626 C 245.164 1.40909 -1.35661 0
M  V30 2627 C 245.544 2.11099 -0.00511733 0
M  V30 2628 O 244.892 2.04892 1.0115 0
M  V30 2629 C 245.102 2.3926 -2.54078 0
M  V30 2630 C 246.45 3.03217 -2.97228 0
M  V30 2631 O 247.474 2.49588 -2.54135 0
M  V30 2632 O 246.333 4.00455 -3.71885 0
M  V30 2633 H 243.427 0.629625 -0.536191 0
M  V30 2634 H 245.973 0.678575 -1.55542 0
M  V30 2635 H 244.745 1.86352 -3.44076 0
M  V30 2636 H 244.368 3.1976 -2.36303 0
M  V30 2637 N 245.365 1.30045 0.890287 0
M  V30 2638 C 246.614 1.17929 1.63633 0
M  V30 2639 C 246.927 -0.266204 1.9378 0
M  V30 2640 O 248.133 -0.508804 2.6669 0
M  V30 2641 C 246.589 2.06317 2.94892 0
M  V30 2642 C 246.197 3.55745 2.72305 0
M  V30 2643 C 247.941 2.0295 3.72843 0
M  V30 2644 C 245.848 4.36205 3.99348 0
M  V30 2645 H 244.778 0.437782 0.613892 0
M  V30 2646 H 247.429 1.54754 0.986075 0
M  V30 2647 H 245.811 1.6237 3.61182 0
M  V30 2648 H 246.985 4.07805 2.1455 0
M  V30 2649 H 245.3 3.6088 2.07737 0
M  V30 2650 H 247.897 2.60319 4.67053 0
M  V30 2651 H 248.24 1.0117 4.0382 0
M  V30 2652 H 248.773 2.4499 3.13408 0
M  V30 2653 H 245.512 5.38659 3.73533 0
M  V30 2654 H 245.032 3.8891 4.56628 0
M  V30 2655 H 246.711 4.47362 4.67415 0
M  V30 2656 N 246.843 -1.10192 1.12674 0
M  V30 2657 C 247.776 -2.15847 0.740625 0
M  V30 2658 C 248.754 -1.60352 -0.269421 0
M  V30 2659 O 249.938 -1.87796 -0.16278 0
M  V30 2660 C 247.065 -3.38562 0.096641 0
M  V30 2661 C 246.111 -4.12758 1.07391 0
M  V30 2662 S 246.944 -4.67997 2.60267 0
M  V30 2663 C 248.1 -5.94021 1.97206 0
M  V30 2664 H 248.333 -2.48266 1.63558 0
M  V30 2665 H 245.866 -1.22019 0.946087 0
M  V30 2666 H 247.824 -4.09621 -0.268535 0
M  V30 2667 H 246.485 -3.04377 -0.775462 0
M  V30 2668 H 245.678 -5.00755 0.570997 0
M  V30 2669 H 245.28 -3.47523 1.38216 0
M  V30 2670 H 247.572 -6.64589 1.31634 0
M  V30 2671 H 248.515 -6.48979 2.83253 0
M  V30 2672 H 248.923 -5.46169 1.42686 0
M  V30 2673 N 248.321 -0.919034 -1.28029 0
M  V30 2674 C 249.57 -0.550802 -1.94034 0
M  V30 2675 C 249.883 0.910877 -1.73096 0
M  V30 2676 O 251.089 1.3875 -2.33368 0
M  V30 2677 C 249.545 -0.934249 -3.47563 0
M  V30 2678 C 249.153 -2.41602 -3.7727 0
M  V30 2679 C 250.897 -0.636854 -4.19696 0
M  V30 2680 C 248.804 -2.73932 -5.24133 0
M  V30 2681 H 247.734 -0.202273 -0.726362 0
M  V30 2682 H 250.385 -1.11867 -1.45458 0
M  V30 2683 H 248.767 -0.295115 -3.94899 0
M  V30 2684 H 249.941 -3.10233 -3.40723 0
M  V30 2685 H 248.256 -2.68441 -3.18321 0
M  V30 2686 H 250.853 -0.855005 -5.2782 0
M  V30 2687 H 251.196 0.425575 -4.14119 0
M  V30 2688 H 251.729 -1.23469 -3.78154 0
M  V30 2689 H 248.468 -3.79049 -5.34792 0
M  V30 2690 H 247.988 -2.09942 -5.61858 0
M  V30 2691 H 249.667 -2.61215 -5.91925 0
M  V30 2692 N 249.799 1.42003 -0.683588 0
M  V30 2693 C 251.024 2.06265 -0.216647 0
M  V30 2694 C 251.449 1.51059 1.12083 0
M  V30 2695 O 250.807 0.632638 1.69904 0
M  V30 2696 C 250.855 3.60191 -0.171759 0
M  V30 2697 O 249.959 4.03396 0.857069 0
M  V30 2698 H 249.3 0.65502 -0.108834 0
M  V30 2699 H 251.83 1.81982 -0.935077 0
M  V30 2700 H 251.84 4.08 0.0014303 0
M  V30 2701 H 250.515 3.99743 -1.14796 0
M  V30 2702 H 249.092 3.67117 0.654208 0
M  V30 2703 N 251.277 0.427512 1.51691 0
M  V30 2704 C 252.524 -0.142229 2.02 0
M  V30 2705 C 252.852 -1.43566 1.31221 0
M  V30 2706 O 252.107 -1.91298 0.412744 0
M  V30 2707 C 252.406 -0.418249 3.54944 0
M  V30 2708 C 252.072 0.788187 4.43958 0
M  V30 2709 C 250.734 1.11906 4.68007 0
M  V30 2710 C 253.086 1.59347 4.96244 0
M  V30 2711 C 250.414 2.25608 5.41588 0
M  V30 2712 C 252.766 2.7214 5.71072 0
M  V30 2713 C 251.43 3.05692 5.93387 0
M  V30 2714 H 250.7 -0.0520451 0.73917 0
M  V30 2715 H 253.347 0.572697 1.82736 0
M  V30 2716 H 251.652 -1.21496 3.72486 0
M  V30 2717 H 253.349 -0.872339 3.91397 0
M  V30 2718 H 249.939 0.520344 4.2543 0
M  V30 2719 H 254.123 1.35106 4.77556 0
M  V30 2720 H 249.379 2.51929 5.57083 0
M  V30 2721 H 253.553 3.34914 6.10578 0
M  V30 2722 H 251.18 3.9391 6.50184 0
M  V30 2723 N 252.755 -1.56801 0.158532 0
M  V30 2724 C 253.665 -2.20916 -0.789518 0
M  V30 2725 C 254.681 -1.1969 -1.26294 0
M  V30 2726 O 255.857 -1.52308 -1.31773 0
M  V30 2727 C 252.922 -2.82727 -2.00665 0
M  V30 2728 C 251.983 -3.99114 -1.58134 0
M  V30 2729 C 251.216 -4.57968 -2.74045 0
M  V30 2730 O 251.439 -4.15704 -3.90572 0
M  V30 2731 O 250.373 -5.48047 -2.48855 0
M  V30 2732 H 254.199 -3.02464 -0.273681 0
M  V30 2733 H 251.784 -1.4924 -0.0690548 0
M  V30 2734 H 253.666 -3.21968 -2.71872 0
M  V30 2735 H 252.341 -2.04184 -2.51179 0
M  V30 2736 H 251.248 -3.64567 -0.839155 0
M  V30 2737 H 252.581 -4.79212 -1.12325 0
M  V30 2738 N 254.233 0.115231 -1.57178 0
M  V30 2739 C 255.181 1.16014 -2.01602 0
M  V30 2740 C 256.175 1.42653 -0.913587 0
M  V30 2741 O 257.381 1.42571 -1.09879 0
M  V30 2742 H 253.756 0.391252 -0.642204 0
M  V30 2743 H 255.727 0.758998 -2.88586 0
M  V30 2744 C 254.476 2.47767 -2.4394 0
M  V30 2745 H 253.799 2.28108 -3.28339 0
M  V30 2746 H 255.239 3.19432 -2.78818 0
M  V30 2747 C 253.698 3.10617 -1.30455 0
M  V30 2748 O 254.228 3.96846 -0.622585 0
M  V30 2749 N 252.434 2.70553 -1.06064 0
M  V30 2750 H 251.981 2.00527 -1.61699 0
M  V30 2751 H 251.939 3.12934 -0.303284 0
M  V30 2752 N 255.711 1.52812 0.385517 0
M  V30 2753 C 256.959 1.67694 1.12797 0
M  V30 2754 C 257.28 0.421115 1.90399 0
M  V30 2755 O 256.55 -0.564551 1.87589 0
M  V30 2756 H 255.13 0.618155 0.419396 0
M  V30 2757 H 257.792 1.89938 0.436972 0
M  V30 2758 H 256.888 2.52896 1.82894 0
M  V30 2759 N 257.189 -0.644168 1.43834 0
M  V30 2760 C 258.466 -1.40188 1.36406 0
M  V30 2761 C 258.846 -2.11094 0.0163124 0
M  V30 2762 O 258.194 -2.05426 -1.00062 0
M  V30 2763 C 258.404 -2.3791 2.55343 0
M  V30 2764 C 259.752 -3.01637 2.98832 0
M  V30 2765 O 260.776 -2.48237 2.55455 0
M  V30 2766 O 259.635 -3.98477 3.74003 0
M  V30 2767 H 256.729 -0.626773 0.539523 0
M  V30 2768 H 259.275 -0.670317 1.559 0
M  V30 2769 H 258.047 -1.84525 3.4506 0
M  V30 2770 H 257.67 -3.18503 2.37995 0
M  V30 2771 N 258.668 -1.30515 -0.883378 0
M  V30 2772 C 259.618 -1.13641 -1.9766 0
M  V30 2773 C 260.602 -0.0511314 -1.60819 0
M  V30 2774 O 261.794 -0.274623 -1.74857 0
M  V30 2775 C 258.923 -0.831976 -3.33066 0
M  V30 2776 C 258.009 -1.95759 -3.76217 0
M  V30 2777 N 258.4 -3.20313 -3.9145 0
M  V30 2778 C 256.698 -1.85431 -4.05625 0
M  V30 2779 C 257.399 -3.93856 -4.2808 0
M  V30 2780 N 256.375 -3.21919 -4.38029 0
M  V30 2781 H 260.177 -2.08106 -2.07531 0
M  V30 2782 H 257.691 -1.21877 -1.0733 0
M  V30 2783 H 259.688 -0.692102 -4.11115 0
M  V30 2784 H 258.348 0.104588 -3.24532 0
M  V30 2785 H 259.359 -3.55583 -3.76538 0
M  V30 2786 H 256.036 -0.991531 -4.05555 0
M  V30 2787 H 257.426 -5.01125 -4.47575 0
M  V30 2788 N 260.146 1.09593 -1.13257 0
M  V30 2789 C 261.394 1.81375 -0.891492 0
M  V30 2790 C 261.715 1.86049 0.584009 0
M  V30 2791 O 260.985 1.34481 1.42449 0
M  V30 2792 H 259.565 0.671708 -0.326828 0
M  V30 2793 H 262.227 1.3256 -1.42877 0
M  V30 2794 H 261.323 2.84612 -1.28071 0
M  V30 2795 N 261.624 0.925811 1.2754 0
M  V30 2796 C 262.901 0.483726 1.89524 0
M  V30 2797 C 263.281 -1.03809 1.83812 0
M  V30 2798 O 262.629 -1.89143 1.28207 0
M  V30 2799 C 262.839 1.02769 3.33526 0
M  V30 2800 C 264.187 1.08703 4.10449 0
M  V30 2801 O 265.211 0.977175 3.42534 0
M  V30 2802 O 264.07 1.25599 5.31871 0
M  V30 2803 H 261.164 0.15529 0.812289 0
M  V30 2804 H 263.71 1.01738 1.35822 0
M  V30 2805 H 262.482 2.07155 3.31967 0
M  V30 2806 H 262.105 0.475567 3.94746 0
M  V30 2807 N 263.102 -1.41638 0.69111 0
M  V30 2808 C 264.327 -2.06148 0.227583 0
M  V30 2809 C 264.752 -1.51652 -1.11281 0
M  V30 2810 O 264.11 -0.64164 -1.69566 0
M  V30 2811 C 264.158 -3.60095 0.190858 0
M  V30 2812 O 263.262 -4.03845 -0.835664 0
M  V30 2813 H 262.603 -0.654434 0.112306 0
M  V30 2814 H 265.133 -1.81484 0.944714 0
M  V30 2815 H 265.143 -4.07995 0.020207 0
M  V30 2816 H 263.818 -3.99129 1.16915 0
M  V30 2817 H 262.395 -3.67458 -0.63473 0
M  V30 2818 N 264.58 -0.43555 -1.51462 0
M  V30 2819 C 265.81 0.130053 -2.0619 0
M  V30 2820 C 266.218 1.37164 -1.30317 0
M  V30 2821 O 265.561 1.80225 -0.355598 0
M  V30 2822 C 265.623 0.519418 -3.55728 0
M  V30 2823 C 265.287 -0.615119 -4.52841 0
M  V30 2824 C 266.284 -1.48671 -4.9819 0
M  V30 2825 C 263.969 -0.795341 -4.95963 0
M  V30 2826 C 265.963 -2.52324 -5.8533 0
M  V30 2827 C 263.65 -1.83514 -5.82894 0
M  V30 2828 C 264.648 -2.69748 -6.27475 0
M  V30 2829 O 264.336 -3.71944 -7.1268 0
M  V30 2830 H 264.068 0.0121612 -0.675891 0
M  V30 2831 H 266.622 -0.6129 -1.96043 0
M  V30 2832 H 264.852 1.31505 -3.63653 0
M  V30 2833 H 266.541 1.01597 -3.92979 0
M  V30 2834 H 267.307 -1.359 -4.65571 0
M  V30 2835 H 263.186 -0.133713 -4.60806 0
M  V30 2836 H 266.73 -3.19665 -6.20048 0
M  V30 2837 H 262.627 -1.96306 -6.14926 0
M  V30 2838 H 263.395 -3.68503 -7.30854 0
M  V30 2839 N 266.058 1.56714 -0.166846 0
M  V30 2840 C 267.469 1.83378 0.350646 0
M  V30 2841 C 267.82 1.08646 1.63372 0
M  V30 2842 O 266.945 0.338058 2.13743 0
M  V30 2843 C 267.54 3.32643 0.642963 0
M  V30 2844 C 266.099 3.59818 1.10491 0
M  V30 2845 C 265.246 2.76954 0.138411 0
M  V30 2846 H 268.197 1.53803 -0.391193 0
M  V30 2847 H 268.218 3.49878 1.49551 0
M  V30 2848 H 267.73 3.87007 -0.291055 0
M  V30 2849 H 265.831 3.1086 2.05418 0
M  V30 2850 H 265.944 4.68178 1.01716 0
M  V30 2851 H 264.308 2.4666 0.634911 0
M  V30 2852 H 265.091 3.34097 -0.789549 0
M  V30 2853 N 267.536 -0.106894 1.57237 0
M  V30 2854 C 268.783 -0.812526 1.85484 0
M  V30 2855 C 269.111 -1.79304 0.753687 0
M  V30 2856 O 268.366 -1.94047 -0.253853 0
M  V30 2857 C 268.665 -1.58628 3.20268 0
M  V30 2858 C 268.331 -0.748967 4.44636 0
M  V30 2859 C 266.993 -0.518104 4.78403 0
M  V30 2860 C 269.345 -0.166122 5.20935 0
M  V30 2861 C 266.673 0.305659 5.85903 0
M  V30 2862 C 269.025 0.644899 6.29304 0
M  V30 2863 C 267.689 0.885965 6.61594 0
M  V30 2864 H 266.959 -0.297324 0.678734 0
M  V30 2865 H 269.606 -0.0744332 1.91355 0
M  V30 2866 H 267.911 -2.39562 3.10028 0
M  V30 2867 H 269.608 -2.13643 3.39349 0
M  V30 2868 H 266.198 -0.939006 4.18187 0
M  V30 2869 H 270.382 -0.33167 4.95191 0
M  V30 2870 H 265.638 0.501528 6.0934 0
M  V30 2871 H 269.812 1.10345 6.87602 0
M  V30 2872 H 267.439 1.52609 7.44725 0
M  V30 2873 N 269.014 -1.53014 -0.377408 0
M  V30 2874 C 270.291 -1.59215 -1.13622 0
M  V30 2875 C 270.671 -0.392407 -2.07421 0
M  V30 2876 O 270.019 0.618342 -2.19975 0
M  V30 2877 C 270.229 -2.93669 -1.88573 0
M  V30 2878 C 271.577 -3.47822 -2.43526 0
M  V30 2879 O 272.601 -2.9562 -1.98715 0
M  V30 2880 O 271.46 -4.39055 -3.25412 0
M  V30 2881 H 268.554 -0.642625 -0.52054 0
M  V30 2882 H 271.1 -1.65353 -0.381625 0
M  V30 2883 H 269.872 -3.7243 -1.20048 0
M  V30 2884 H 269.495 -2.90968 -2.70968 0
M  V30 2885 N 270.492 0.636531 -1.44174 0
M  V30 2886 C 271.74 1.39343 -1.46383 0
M  V30 2887 C 272.061 1.94766 -0.0955715 0
M  V30 2888 O 271.331 1.75452 0.871395 0
M  V30 2889 H 269.911 0.517199 -0.538994 0
M  V30 2890 H 272.573 0.74957 -1.7991 0
M  V30 2891 H 271.669 2.22746 -2.18611 0
M  V30 2892 N 271.97 1.30982 0.876444 0
M  V30 2893 C 273.381 1.18277 1.44456 0
M  V30 2894 C 273.732 -0.213265 1.95037 0
M  V30 2895 O 272.857 -1.11057 1.85729 0
M  V30 2896 C 273.452 2.1411 2.62569 0
M  V30 2897 C 272.011 2.05358 3.15444 0
M  V30 2898 C 271.158 2.03706 1.88146 0
M  V30 2899 H 274.109 1.43127 0.685584 0
M  V30 2900 H 274.13 1.72692 3.39054 0
M  V30 2901 H 273.642 3.15706 2.25724 0
M  V30 2902 H 271.743 1.06934 3.56926 0
M  V30 2903 H 271.856 2.94156 3.78166 0
M  V30 2904 H 270.22 1.48629 2.06837 0
M  V30 2905 H 271.003 3.07047 1.53547 0
M  V30 2906 N 273.449 -1.08991 1.13837 0
M  V30 2907 C 274.865 -1.33312 0.877506 0
M  V30 2908 C 275.065 -1.95587 -0.48456 0
M  V30 2909 O 274.121 -2.20509 -1.23013 0
M  V30 2910 C 275.434 -2.24045 2.0056 0
M  V30 2911 C 276.982 -2.37542 2.03821 0
M  V30 2912 C 277.457 -3.31614 3.15905 0
M  V30 2913 N 278.948 -3.39189 3.15445 0
M  V30 2914 C 279.683 -4.11992 3.98811 0
M  V30 2915 N 279.179 -4.87553 4.92203 0
M  V30 2916 N 280.972 -4.07762 3.86894 0
M  V30 2917 H 273.123 -0.669456 2.01574 0
M  V30 2918 H 275.386 -0.357482 0.878015 0
M  V30 2919 H 275.092 -1.85521 2.98789 0
M  V30 2920 H 274.966 -3.24466 1.92359 0
M  V30 2921 H 277.353 -2.75327 1.06202 0
M  V30 2922 H 277.434 -1.36884 2.16093 0
M  V30 2923 H 277.078 -2.94551 4.13766 0
M  V30 2924 H 277.008 -4.32186 3.0087 0
M  V30 2925 H 279.499 -2.85314 2.47799 0
M  V30 2926 H 279.812 -5.40549 5.52292 0
M  V30 2927 H 278.157 -4.86627 4.96205 0
M  V30 2928 H 281.348 -3.47833 3.13257 0
M  V30 2929 H 281.521 -4.64238 4.52092 0
M  V30 2930 N 274.927 -0.932562 -1.27047 0
M  V30 2931 C 276.175 -0.574422 -1.93765 0
M  V30 2932 C 276.496 0.887993 -1.73608 0
M  V30 2933 O 275.766 1.62999 -1.08665 0
M  V30 2934 H 274.346 -0.209451 -0.717035 0
M  V30 2935 H 277.008 -1.18601 -1.5466 0
M  V30 2936 H 276.104 -0.784841 -3.02071 0
M  V30 2937 N 276.405 1.4127 -0.698611 0
M  V30 2938 C 277.633 2.05503 -0.239992 0
M  V30 2939 C 278.048 1.52584 1.11191 0
M  V30 2940 O 277.405 0.675323 1.69545 0
M  V30 2941 C 277.456 3.60987 -0.192429 0
M  V30 2942 O 277.177 4.1195 -1.49094 0
M  V30 2943 C 278.678 4.42371 0.28681 0
M  V30 2944 H 275.898 0.661748 -0.111045 0
M  V30 2945 H 278.442 1.80987 -0.95205 0
M  V30 2946 H 276.597 3.84533 0.470472 0
M  V30 2947 H 277.011 5.06018 -1.38007 0
M  V30 2948 H 278.485 5.51344 0.26896 0
M  V30 2949 H 278.962 4.18699 1.32619 0
M  V30 2950 H 279.568 4.23897 -0.345201 0
M  V30 2951 N 277.883 0.443576 1.51229 0
M  V30 2952 C 278.813 -0.355142 2.30783 0
M  V30 2953 C 279.794 -1.0154 1.36468 0
M  V30 2954 O 280.979 -1.01785 1.65389 0
M  V30 2955 C 278.109 -1.45312 3.15439 0
M  V30 2956 C 277.063 -0.916002 4.18083 0
M  V30 2957 C 276.389 -2.1102 4.91299 0
M  V30 2958 C 277.689 0.0538602 5.22272 0
M  V30 2959 H 279.383 0.308767 2.97804 0
M  V30 2960 H 276.929 0.149937 1.43217 0
M  V30 2961 H 278.882 -2.01914 3.69876 0
M  V30 2962 H 277.606 -2.14541 2.46252 0
M  V30 2963 H 276.265 -0.372145 3.64706 0
M  V30 2964 H 275.913 -2.78882 4.18609 0
M  V30 2965 H 275.613 -1.75717 5.60712 0
M  V30 2966 H 277.137 -2.68164 5.48562 0
M  V30 2967 H 278.551 -0.422069 5.71744 0
M  V30 2968 H 276.948 0.319776 5.99247 0
M  V30 2969 H 278.018 0.98858 4.74716 0
M  V30 2970 N 279.361 -1.56624 0.175154 0
M  V30 2971 C 280.324 -2.16934 -0.739738 0
M  V30 2972 C 281.324 -1.11842 -1.15533 0
M  V30 2973 O 282.514 -1.37335 -1.07167 0
M  V30 2974 C 279.646 -2.75531 -2.00738 0
M  V30 2975 H 280.839 -2.99131 -0.214639 0
M  V30 2976 H 278.392 -1.56123 -0.0744197 0
M  V30 2977 H 279.127 -1.97078 -2.57548 0
M  V30 2978 H 278.912 -3.52444 -1.71831 0
M  V30 2979 H 280.402 -3.21904 -2.66021 0
M  V30 2980 N 280.839 0.0985539 -1.57292 0
M  V30 2981 C 281.789 1.1261 -1.9825 0
M  V30 2982 C 282.773 1.35961 -0.860426 0
M  V30 2983 O 283.965 1.36711 -1.12424 0
M  V30 2984 C 281.094 2.44727 -2.40757 0
M  V30 2985 C 280.18 2.24764 -3.59642 0
M  V30 2986 N 280.571 1.74661 -4.74687 0
M  V30 2987 C 278.869 2.55344 -3.65672 0
M  V30 2988 C 279.57 1.68887 -5.56644 0
M  V30 2989 N 278.546 2.13976 -4.99715 0
M  V30 2990 H 282.348 0.731604 -2.84648 0
M  V30 2991 H 279.862 0.306029 -1.59491 0
M  V30 2992 H 281.859 3.19072 -2.68326 0
M  V30 2993 H 280.519 2.84917 -1.55733 0
M  V30 2994 H 281.53 1.43908 -4.97505 0
M  V30 2995 H 278.207 2.99081 -2.91302 0
M  V30 2996 H 279.597 1.3123 -6.5896 0
M  V30 2997 N 282.317 1.53212 0.369288 0
M  V30 2998 C 283.28 1.7872 1.43498 0
M  V30 2999 C 284.28 0.657554 1.46741 0
M  V30 3000 O 285.47 0.925736 1.47566 0
M  V30 3001 C 282.602 1.90591 2.82645 0
M  V30 3002 H 283.795 2.73894 1.22156 0
M  V30 3003 H 281.348 1.44233 0.602203 0
M  V30 3004 H 282.083 0.974709 3.09306 0
M  V30 3005 H 281.868 2.72751 2.8169 0
M  V30 3006 H 283.358 2.11931 3.59826 0
M  V30 3007 N 283.795 -0.628877 1.44509 0
M  V30 3008 C 285.042 -1.38839 1.47411 0
M  V30 3009 C 285.37 -1.94202 0.10757 0
M  V30 3010 O 284.625 -1.74243 -0.890947 0
M  V30 3011 C 284.924 -2.56995 2.48371 0
M  V30 3012 C 284.59 -2.19908 3.93639 0
M  V30 3013 C 283.252 -2.09506 4.33198 0
M  V30 3014 C 285.604 -1.9064 4.85083 0
M  V30 3015 C 282.932 -1.68028 5.62124 0
M  V30 3016 C 285.284 -1.50655 6.14399 0
M  V30 3017 C 283.948 -1.38796 6.5291 0
M  V30 3018 H 283.218 -0.508048 0.539414 0
M  V30 3019 H 285.865 -0.712913 1.77735 0
M  V30 3020 H 284.17 -3.29786 2.11538 0
M  V30 3021 H 285.867 -3.15223 2.47861 0
M  V30 3022 H 282.457 -2.28922 3.62343 0
M  V30 3023 H 286.641 -1.97585 4.55273 0
M  V30 3024 H 281.897 -1.57452 5.90778 0
M  V30 3025 H 286.071 -1.27048 6.84713 0
M  V30 3026 H 283.698 -1.06429 7.52713 0
M  V30 3027 N 285.273 -1.31445 -0.869486 0
M  V30 3028 C 286.236 -1.19094 -1.9583 0
M  V30 3029 C 287.236 -0.117906 -1.60367 0
M  V30 3030 O 288.426 -0.367208 -1.70286 0
M  V30 3031 C 285.558 -0.828165 -3.30688 0
M  V30 3032 H 286.751 -2.15842 -2.08212 0
M  V30 3033 H 284.304 -1.15063 -1.05784 0
M  V30 3034 H 285.039 0.138142 -3.24006 0
M  V30 3035 H 284.824 -1.6038 -3.578 0
M  V30 3036 H 286.314 -0.765658 -4.10521 0
M  V30 3037 N 286.751 1.08385 -1.14413 0
M  V30 3038 C 288.162 1.62258 -0.923535 0
M  V30 3039 C 288.513 1.88691 0.537595 0
M  V30 3040 O 287.638 1.64454 1.40655 0
M  V30 3041 C 288.233 2.94781 -1.67002 0
M  V30 3042 C 286.792 3.45437 -1.495 0
M  V30 3043 C 285.939 2.19668 -1.69238 0
M  V30 3044 H 288.89 0.916086 -1.2959 0
M  V30 3045 H 288.911 3.63229 -1.13334 0
M  V30 3046 H 288.423 2.7551 -2.73342 0
M  V30 3047 H 286.524 3.6981 -0.455097 0
M  V30 3048 H 286.637 4.22173 -2.2651 0
M  V30 3049 H 285.001 2.28849 -1.11804 0
M  V30 3050 H 285.784 2.02905 -2.7692 0
M  V30 3051 N 288.23 0.939286 1.26551 0
M  V30 3052 C 289.478 0.58469 1.93457 0
M  V30 3053 C 289.799 -0.878774 1.74076 0
M  V30 3054 O 289.069 -1.62421 1.09528 0
M  V30 3055 H 287.649 0.21325 0.715914 0
M  V30 3056 H 290.311 1.1942 1.54029 0
M  V30 3057 H 289.407 0.800849 3.0165 0
M  V30 3058 N 289.708 -1.40897 0.706093 0
M  V30 3059 C 290.618 -2.3455 0.0482286 0
M  V30 3060 C 291.634 -1.56796 -0.754396 0
M  V30 3061 O 292.81 -1.89228 -0.689538 0
M  V30 3062 C 289.875 -3.35625 -0.869303 0
M  V30 3063 C 288.936 -4.29261 -0.0576994 0
M  V30 3064 C 288.169 -5.25508 -0.931531 0
M  V30 3065 O 288.392 -5.27472 -2.17092 0
M  V30 3066 O 287.326 -6.00727 -0.375587 0
M  V30 3067 H 291.152 -2.92407 0.820476 0
M  V30 3068 H 288.737 -1.4193 0.4665 0
M  V30 3069 H 290.619 -3.97635 -1.39514 0
M  V30 3070 H 289.294 -2.80196 -1.62086 0
M  V30 3071 H 288.201 -3.70566 0.512988 0
M  V30 3072 H 289.534 -4.87817 0.655426 0
M  V30 3073 N 291.186 -0.45159 -1.50991 0
M  V30 3074 C 292.434 0.109857 -2.01801 0
M  V30 3075 C 292.755 1.41958 -1.3369 0
M  V30 3076 O 292.025 1.9003 -0.475951 0
M  V30 3077 H 290.605 0.0435884 -0.745727 0
M  V30 3078 H 293.267 -0.597557 -1.85514 0
M  V30 3079 H 292.363 0.275489 -3.10882 0
M  V30 3080 N 292.664 1.56529 -0.183458 0
M  V30 3081 C 293.594 2.21549 0.737456 0
M  V30 3082 C 294.575 1.17489 1.23005 0
M  V30 3083 O 295.76 1.45959 1.281 0
M  V30 3084 C 292.89 2.86575 1.96194 0
M  V30 3085 C 291.844 3.96778 1.60473 0
M  V30 3086 C 291.17 4.48911 2.90487 0
M  V30 3087 C 292.47 5.15767 0.823497 0
M  V30 3088 H 294.164 2.98761 0.195453 0
M  V30 3089 H 291.71 1.43702 0.0925686 0
M  V30 3090 H 293.663 3.30739 2.61131 0
M  V30 3091 H 292.387 2.06749 2.52828 0
M  V30 3092 H 291.046 3.53286 0.978997 0
M  V30 3093 H 290.694 3.65862 3.45186 0
M  V30 3094 H 290.394 5.23265 2.67335 0
M  V30 3095 H 291.918 4.95771 3.56432 0
M  V30 3096 H 293.332 5.56549 1.37571 0
M  V30 3097 H 291.729 5.96114 0.690551 0
M  V30 3098 H 292.799 4.84574 -0.177782 0
M  V30 3099 N 294.142 -0.090211 1.57342 0
M  V30 3100 C 295.39 -0.791241 1.85967 0
M  V30 3101 C 295.711 -1.7903 0.772859 0
M  V30 3102 O 294.981 -1.94872 -0.200398 0
M  V30 3103 H 293.561 -0.295205 0.686195 0
M  V30 3104 H 296.223 -0.0706782 1.94772 0
M  V30 3105 H 295.319 -1.31882 2.82867 0
M  V30 3106 N 295.62 -1.53406 -0.361157 0
M  V30 3107 C 296.868 -1.69467 -1.10115 0
M  V30 3108 C 297.189 -0.451352 -1.89705 0
M  V30 3109 O 296.459 0.534636 -1.88463 0
M  V30 3110 H 295.039 -0.624749 -0.409508 0
M  V30 3111 H 297.701 -1.90609 -0.406699 0
M  V30 3112 H 296.797 -2.55774 -1.78847 0
M  V30 3113 N 297.098 0.621204 -1.44841 0
M  V30 3114 C 298.375 1.38 -1.38619 0
M  V30 3115 C 298.755 2.11041 -0.0498935 0
M  V30 3116 O 298.103 2.06992 0.967816 0
M  V30 3117 C 298.313 2.33817 -2.59096 0
M  V30 3118 C 299.661 2.96844 -3.03593 0
M  V30 3119 O 300.685 2.44141 -2.59371 0
M  V30 3120 O 299.544 3.92476 -3.80296 0
M  V30 3121 H 296.638 0.61811 -0.549426 0
M  V30 3122 H 299.184 0.645429 -1.56947 0
M  V30 3123 H 297.956 1.79012 -3.47952 0
M  V30 3124 H 297.579 3.14676 -2.43032 0
M  V30 3125 N 298.576 1.31904 0.862503 0
M  V30 3126 C 299.804 1.24998 1.64873 0
M  V30 3127 C 300.219 -0.183425 1.87907 0
M  V30 3128 O 299.576 -1.11794 1.44251 0
M  V30 3129 C 299.627 1.99829 3.01248 0
M  V30 3130 O 299.348 3.37575 2.79239 0
M  V30 3131 C 300.849 1.99852 3.95694 0
M  V30 3132 H 298.069 0.431599 0.513773 0
M  V30 3133 H 300.613 1.73901 1.07604 0
M  V30 3134 H 298.768 1.54668 3.55185 0
M  V30 3135 H 299.182 3.75776 3.65914 0
M  V30 3136 H 300.656 2.56709 4.88676 0
M  V30 3137 H 301.133 0.982852 4.28062 0
M  V30 3138 H 301.739 2.44926 3.47694 0
M  V30 3139 N 300.054 -1.07777 1.14986 0
M  V30 3140 C 301.004 -2.13082 0.811181 0
M  V30 3141 C 301.988 -1.59619 -0.202597 0
M  V30 3142 O 303.18 -1.77 -0.00398275 0
M  V30 3143 C 300.309 -3.42009 0.297439 0
M  V30 3144 C 299.395 -4.02337 1.34112 0
M  V30 3145 N 299.786 -4.36982 2.54716 0
M  V30 3146 C 298.084 -4.29752 1.19285 0
M  V30 3147 C 298.785 -4.84729 3.21578 0
M  V30 3148 N 297.761 -4.83233 2.48972 0
M  V30 3149 H 301.563 -2.37696 1.72853 0
M  V30 3150 H 299.077 -1.25173 1.03468 0
M  V30 3151 H 301.074 -4.16884 0.0364777 0
M  V30 3152 H 299.734 -3.18841 -0.614022 0
M  V30 3153 H 300.745 -4.27807 2.91894 0
M  V30 3154 H 297.422 -4.16106 0.340926 0
M  V30 3155 H 298.812 -5.20863 4.24442 0
M  V30 3156 N 301.532 -0.945985 -1.26051 0
M  V30 3157 C 302.779 -0.596118 -1.93527 0
M  V30 3158 C 303.107 0.865559 -1.74179 0
M  V30 3159 O 302.362 1.63524 -1.0751 0
M  V30 3160 C 302.661 -0.890475 -3.46129 0
M  V30 3161 C 302.327 -2.3368 -3.85622 0
M  V30 3162 C 300.989 -2.73216 -3.96114 0
M  V30 3163 C 303.341 -3.27648 -4.05334 0
M  V30 3164 C 300.669 -4.05806 -4.2372 0
M  V30 3165 C 303.021 -4.59841 -4.3443 0
M  V30 3166 C 301.685 -4.99185 -4.43137 0
M  V30 3167 H 300.955 -0.218135 -0.708165 0
M  V30 3168 H 303.602 -1.1934 -1.49768 0
M  V30 3169 H 301.907 -0.210711 -3.91233 0
M  V30 3170 H 303.604 -0.598478 -3.96509 0
M  V30 3171 H 300.194 -2.02015 -3.78005 0
M  V30 3172 H 304.378 -2.98298 -3.96651 0
M  V30 3173 H 299.634 -4.35945 -4.28675 0
M  V30 3174 H 303.808 -5.32641 -4.48628 0
M  V30 3175 H 301.435 -6.01952 -4.64282 0
M  V30 3176 N 303.011 1.40521 -0.713556 0
M  V30 3177 C 304.288 1.94775 -0.17943 0
M  V30 3178 C 304.668 1.65184 1.31444 0
M  V30 3179 O 304.016 0.968429 2.06963 0
M  V30 3180 C 304.226 3.45543 -0.489986 0
M  V30 3181 C 305.574 4.22442 -0.427536 0
M  V30 3182 O 306.598 3.53644 -0.425929 0
M  V30 3183 O 305.457 5.4501 -0.403292 0
M  V30 3184 H 302.551 0.826606 -0.0255192 0
M  V30 3185 H 305.097 1.5014 -0.790949 0
M  V30 3186 H 303.869 3.60432 -1.5233 0
M  V30 3187 H 303.492 3.97311 0.151598 0
M  V30 3188 N 304.489 0.459591 1.5075 0
M  V30 3189 C 305.437 -0.354678 2.2988 0
M  V30 3190 C 306.431 -1.00086 1.36672 0
M  V30 3191 O 307.637 -0.933277 1.53915 0
M  V30 3192 H 304.012 -0.13321 0.740107 0
M  V30 3193 H 305.983 0.333269 2.96533 0
M  V30 3194 C 304.732 -1.43073 3.169 0
M  V30 3195 H 304.055 -0.942882 3.88523 0
M  V30 3196 H 305.495 -1.97328 3.75284 0
M  V30 3197 C 303.954 -2.42633 2.33732 0
M  V30 3198 O 304.484 -3.47658 2.01238 0
M  V30 3199 N 302.69 -2.14066 1.9653 0
M  V30 3200 H 302.237 -1.28685 2.23155 0
M  V30 3201 H 302.195 -2.80917 1.41185 0
M  V30 3202 N 305.967 -1.56429 0.191757 0
M  V30 3203 C 306.93 -2.17707 -0.716688 0
M  V30 3204 C 307.93 -1.13061 -1.14341 0
M  V30 3205 O 309.12 -1.38464 -1.05704 0
M  V30 3206 C 306.252 -2.77644 -1.97804 0
M  V30 3207 H 307.445 -2.99342 -0.1829 0
M  V30 3208 H 304.998 -1.56193 -0.0578566 0
M  V30 3209 H 305.733 -1.99799 -2.55443 0
M  V30 3210 H 305.518 -3.54246 -1.68083 0
M  V30 3211 H 307.008 -3.24708 -2.62592 0
M  V30 3212 N 307.445 0.0818655 -1.57387 0
M  V30 3213 C 308.355 1.11642 -2.06333 0
M  V30 3214 C 309.371 1.43033 -0.99083 0
M  V30 3215 O 310.547 1.53411 -1.30488 0
M  V30 3216 C 307.612 2.41342 -2.48907 0
M  V30 3217 C 306.673 2.17014 -3.7041 0
M  V30 3218 C 305.906 3.4053 -4.10944 0
M  V30 3219 O 306.129 4.4927 -3.51444 0
M  V30 3220 O 305.063 3.29336 -5.03807 0
M  V30 3221 H 308.889 0.730657 -2.9478 0
M  V30 3222 H 306.474 0.295301 -1.46452 0
M  V30 3223 H 308.356 3.17691 -2.76858 0
M  V30 3224 H 307.031 2.79319 -1.63593 0
M  V30 3225 H 305.938 1.38403 -3.47556 0
M  V30 3226 H 307.271 1.83923 -4.56545 0
M  V30 3227 N 308.923 1.53595 0.353017 0
M  V30 3228 C 309.87 1.80919 1.43308 0
M  V30 3229 C 310.84 0.654288 1.5267 0
M  V30 3230 O 312.025 0.897759 1.6836 0
M  V30 3231 C 309.165 2.01605 2.80089 0
M  V30 3232 C 308.278 3.29321 2.79593 0
M  V30 3233 C 307.413 3.40125 4.0803 0
M  V30 3234 C 306.452 4.61826 4.01725 0
M  V30 3235 N 305.589 4.69716 5.21834 0
M  V30 3236 H 310.429 2.73074 1.19308 0
M  V30 3237 H 307.966 1.35263 0.578131 0
M  V30 3238 H 309.924 2.11586 3.59565 0
M  V30 3239 H 308.554 1.12772 3.0246 0
M  V30 3240 H 307.606 3.28229 1.92276 0
M  V30 3241 H 308.918 4.18884 2.70809 0
M  V30 3242 H 308.072 3.49488 4.95927 0
M  V30 3243 H 306.811 2.48601 4.19582 0
M  V30 3244 H 305.816 4.52552 3.12213 0
M  V30 3245 H 307.041 5.54705 3.91764 0
M  V30 3246 H 304.987 3.81097 5.33948 0
M  V30 3247 H 304.904 5.53202 5.1527 0
M  V30 3248 H 306.172 4.83376 6.11529 0
M  V30 3249 N 310.401 -0.613514 1.45168 0
M  V30 3250 C 311.647 -1.37279 1.50087 0
M  V30 3251 C 312.002 -1.91902 0.138294 0
M  V30 3252 O 311.295 -1.71764 -0.84899 0
M  V30 3253 C 311.489 -2.54347 2.51083 0
M  V30 3254 C 311.318 -2.11186 3.97027 0
M  V30 3255 C 310.088 -1.97636 4.65046 0
M  V30 3256 C 312.286 -1.69016 4.85735 0
M  V30 3257 N 310.268 -1.48224 5.95737 0
M  V30 3258 C 311.639 -1.30976 6.06008 0
M  V30 3259 C 313.694 -1.56555 4.72647 0
M  V30 3260 C 312.397 -0.817197 7.14643 0
M  V30 3261 C 314.423 -1.08702 5.81324 0
M  V30 3262 C 313.785 -0.716233 7.00749 0
M  V30 3263 H 309.884 -0.496478 0.60418 0
M  V30 3264 H 312.468 -0.701988 1.81605 0
M  V30 3265 H 310.639 -3.19031 2.21527 0
M  V30 3266 H 312.371 -3.21208 2.46187 0
M  V30 3267 H 309.126 -2.18638 4.20112 0
M  V30 3268 H 309.55 -1.25767 6.65216 0
M  V30 3269 H 314.192 -1.83849 3.80736 0
M  V30 3270 H 311.91 -0.531797 8.06348 0
M  V30 3271 H 315.496 -0.994943 5.7323 0
M  V30 3272 H 314.376 -0.351642 7.83411 0
M  V30 3273 N 311.879 -1.3236 -0.855495 0
M  V30 3274 C 313.107 -1.2587 -1.64208 0
M  V30 3275 C 313.522 0.173457 -1.88002 0
M  V30 3276 O 312.879 1.11027 -1.44842 0
M  V30 3277 C 312.93 -2.01424 -3.00184 0
M  V30 3278 O 312.651 -3.39051 -2.77445 0
M  V30 3279 C 314.152 -2.01948 -3.94629 0
M  V30 3280 H 311.372 -0.434318 -0.511477 0
M  V30 3281 H 313.916 -1.74469 -1.0668 0
M  V30 3282 H 312.071 -1.56549 -3.5436 0
M  V30 3283 H 312.485 -3.77711 -3.63916 0
M  V30 3284 H 313.959 -2.59297 -4.87308 0
M  V30 3285 H 314.436 -1.00554 -4.27534 0
M  V30 3286 H 315.042 -2.46767 -3.4639 0
M  V30 3287 N 313.357 1.07166 -1.15556 0
M  V30 3288 C 314.29 2.13808 -0.797593 0
M  V30 3289 C 315.268 1.6101 0.226812 0
M  V30 3290 O 316.452 1.88161 0.112932 0
M  V30 3291 C 313.579 3.38187 -0.186371 0
M  V30 3292 C 312.625 4.09766 -1.18297 0
M  V30 3293 S 313.458 4.60932 -2.72584 0
M  V30 3294 C 314.614 5.88583 -2.12886 0
M  V30 3295 H 314.847 2.43843 -1.70083 0
M  V30 3296 H 312.38 1.19467 -0.978106 0
M  V30 3297 H 314.338 4.10189 0.159837 0
M  V30 3298 H 312.999 3.06326 0.694489 0
M  V30 3299 H 312.192 4.99065 -0.703562 0
M  V30 3300 H 311.794 3.43736 -1.47381 0
M  V30 3301 H 314.086 6.60866 -1.49208 0
M  V30 3302 H 315.029 6.41241 -3.0036 0
M  V30 3303 H 315.437 5.42194 -1.57116 0
M  V30 3304 N 314.835 0.952656 1.25548 0
M  V30 3305 C 316.083 0.605176 1.92826 0
M  V30 3306 C 316.404 -0.860261 1.74999 0
M  V30 3307 O 315.674 -1.6125 1.11244 0
M  V30 3308 H 314.254 0.220832 0.713612 0
M  V30 3309 H 316.916 1.21047 1.52754 0
M  V30 3310 H 316.012 0.832798 3.00784 0
M  V30 3311 N 316.313 -1.40141 0.720998 0
M  V30 3312 C 317.541 -2.05096 0.272656 0
M  V30 3313 C 317.956 -1.54334 -1.0875 0
M  V30 3314 O 317.313 -0.702211 -1.6845 0
M  V30 3315 C 317.364 -3.60636 0.249835 0
M  V30 3316 O 317.085 -4.09526 1.55629 0
M  V30 3317 C 318.586 -4.42772 -0.216396 0
M  V30 3318 H 315.806 -0.659897 0.121558 0
M  V30 3319 H 318.35 -1.79449 0.980723 0
M  V30 3320 H 316.505 -3.85232 -0.409237 0
M  V30 3321 H 316.919 -5.03758 1.4604 0
M  V30 3322 H 318.393 -5.51702 -0.181212 0
M  V30 3323 H 318.87 -4.20756 -1.25941 0
M  V30 3324 H 319.476 -4.23294 0.412596 0
M  V30 3325 N 317.792 -0.46758 -1.50504 0
M  V30 3326 C 318.74 0.342482 -2.30065 0
M  V30 3327 C 319.734 0.993596 -1.37201 0
M  V30 3328 O 320.94 0.925102 -1.54408 0
M  V30 3329 H 317.315 0.129283 -0.740803 0
M  V30 3330 H 319.286 -0.34899 -2.96352 0
M  V30 3331 C 318.035 1.4139 -3.17654 0
M  V30 3332 H 317.358 0.922264 -3.89017 0
M  V30 3333 H 318.798 1.95335 -3.76325 0
M  V30 3334 C 317.257 2.4139 -2.35016 0
M  V30 3335 O 317.787 3.46586 -2.03079 0
M  V30 3336 N 315.993 2.13021 -1.97662 0
M  V30 3337 H 315.54 1.27499 -2.23834 0
M  V30 3338 H 315.498 2.80164 -1.42673 0
M  V30 3339 N 319.27 1.56325 -0.20005 0
M  V30 3340 C 320.518 1.97329 0.436547 0
M  V30 3341 C 320.839 1.08826 1.61808 0
M  V30 3342 O 320.109 0.160604 1.95241 0
M  V30 3343 H 318.689 0.728714 0.164272 0
M  V30 3344 H 321.351 1.92761 -0.287937 0
M  V30 3345 H 320.447 3.02264 0.777353 0
M  V30 3346 N 320.748 -0.0735177 1.57428 0
M  V30 3347 C 321.995 -0.772999 1.87166 0
M  V30 3348 C 322.323 -1.77665 0.791551 0
M  V30 3349 O 321.578 -1.94541 -0.212636 0
M  V30 3350 C 321.877 -1.51799 3.23561 0
M  V30 3351 C 321.543 -0.654484 4.46125 0
M  V30 3352 C 320.205 -0.416511 4.79394 0
M  V30 3353 C 322.557 -0.0555862 5.2117 0
M  V30 3354 C 319.885 0.429869 5.85123 0
M  V30 3355 C 322.237 0.778239 6.27795 0
M  V30 3356 C 320.901 1.0261 6.59566 0
M  V30 3357 H 320.171 -0.282861 0.684888 0
M  V30 3358 H 322.818 -0.0338272 1.9147 0
M  V30 3359 H 321.123 -2.32932 3.1504 0
M  V30 3360 H 322.82 -2.06397 3.43804 0
M  V30 3361 H 319.41 -0.850091 4.20085 0
M  V30 3362 H 323.594 -0.226558 4.95783 0
M  V30 3363 H 318.85 0.630665 6.08139 0
M  V30 3364 H 323.024 1.24906 6.85107 0
M  V30 3365 H 320.651 1.68371 7.4132 0
M  V30 3366 N 322.226 -1.5378 -0.344866 0
M  V30 3367 C 323.174 -1.82373 -1.4437 0
M  V30 3368 C 324.168 -0.694128 -1.54526 0
M  V30 3369 O 325.374 -0.877442 -1.57165 0
M  V30 3370 H 321.749 -0.577765 -0.481344 0
M  V30 3371 H 323.72 -2.74306 -1.17468 0
M  V30 3372 C 322.469 -2.04898 -2.80913 0
M  V30 3373 H 321.792 -2.9127 -2.73865 0
M  V30 3374 H 323.232 -2.28871 -3.56923 0
M  V30 3375 C 321.691 -0.834116 -3.26411 0
M  V30 3376 O 322.221 -0.0328885 -4.01687 0
M  V30 3377 N 320.427 -0.65171 -2.83198 0
M  V30 3378 H 319.974 -1.30489 -2.22104 0
M  V30 3379 H 319.932 0.159686 -3.13994 0
M  V30 3380 N 323.704 0.605807 -1.45491 0
M  V30 3381 C 324.634 1.72709 -1.57143 0
M  V30 3382 C 325.615 1.6476 -0.422884 0
M  V30 3383 O 326.8 1.83132 -0.646247 0
M  V30 3384 C 323.93 3.11316 -1.53948 0
M  V30 3385 C 322.884 3.34077 -2.67537 0
M  V30 3386 C 322.21 4.72975 -2.49397 0
M  V30 3387 C 323.51 3.24158 -4.09535 0
M  V30 3388 H 325.204 1.63214 -2.51001 0
M  V30 3389 H 322.75 0.78379 -1.208 0
M  V30 3390 H 324.703 3.89557 -1.60696 0
M  V30 3391 H 323.427 3.21655 -0.566205 0
M  V30 3392 H 322.086 2.58227 -2.6022 0
M  V30 3393 H 321.734 4.8005 -1.50205 0
M  V30 3394 H 321.434 4.8916 -3.25571 0
M  V30 3395 H 322.958 5.53414 -2.58002 0
M  V30 3396 H 324.372 3.92271 -4.18086 0
M  V30 3397 H 322.769 3.51872 -4.86113 0
M  V30 3398 H 323.839 2.2157 -4.31317 0
M  V30 3399 N 325.182 1.32811 0.848464 0
M  V30 3400 C 326.429 1.23724 1.60308 0
M  V30 3401 C 326.757 -0.1994 1.93475 0
M  V30 3402 O 326.012 -1.15406 1.5805 0
M  V30 3403 C 326.311 2.04831 2.92881 0
M  V30 3404 C 325.977 3.54125 2.79117 0
M  V30 3405 C 324.639 3.94829 2.7507 0
M  V30 3406 C 326.991 4.49036 2.64606 0
M  V30 3407 C 324.319 5.28675 2.544 0
M  V30 3408 C 326.671 5.83033 2.4547 0
M  V30 3409 C 325.335 6.22931 2.39819 0
M  V30 3410 H 324.605 0.452737 0.586609 0
M  V30 3411 H 327.252 1.64301 0.983743 0
M  V30 3412 H 325.557 1.57001 3.58968 0
M  V30 3413 H 327.254 1.95164 3.50303 0
M  V30 3414 H 323.844 3.21801 2.83094 0
M  V30 3415 H 328.028 4.18505 2.66772 0
M  V30 3416 H 323.284 5.58637 2.48465 0
M  V30 3417 H 327.458 6.56186 2.33222 0
M  V30 3418 H 325.085 7.26584 2.23562 0
M  V30 3419 N 326.66 -1.06551 1.16123 0
M  V30 3420 C 327.888 -1.83005 0.965237 0
M  V30 3421 C 328.303 -1.82423 -0.486542 0
M  V30 3422 O 327.66 -1.24152 -1.33763 0
M  V30 3423 C 327.711 -3.29733 1.48183 0
M  V30 3424 O 327.432 -3.30416 2.87674 0
M  V30 3425 C 328.933 -4.22926 1.32848 0
M  V30 3426 H 326.153 -0.577118 0.342309 0
M  V30 3427 H 328.697 -1.3445 1.54089 0
M  V30 3428 H 326.852 -3.75609 0.948517 0
M  V30 3429 H 327.266 -4.22149 3.11272 0
M  V30 3430 H 328.74 -5.23916 1.73827 0
M  V30 3431 H 329.217 -4.38346 0.273692 0
M  V30 3432 H 329.823 -3.82894 1.85127 0
M  V30 3433 N 328.138 -0.959301 -1.25041 0
M  V30 3434 C 329.384 -0.617525 -1.9317 0
M  V30 3435 C 329.717 0.843981 -1.74902 0
M  V30 3436 O 328.992 1.60615 -1.09696 0
M  V30 3437 C 329.275 -0.982736 -3.46431 0
M  V30 3438 C 329.128 -2.50032 -3.73904 0
M  V30 3439 C 330.447 -0.511176 -4.37121 0
M  V30 3440 H 327.566 -0.22582 -0.701552 0
M  V30 3441 H 330.208 -1.19679 -1.4757 0
M  V30 3442 H 328.358 -0.489806 -3.854 0
M  V30 3443 H 330.03 -3.06737 -3.44544 0
M  V30 3444 H 328.273 -2.93598 -3.19348 0
M  V30 3445 H 328.944 -2.70635 -4.81103 0
M  V30 3446 H 331.42 -0.934075 -4.0548 0
M  V30 3447 H 330.296 -0.795361 -5.43107 0
M  V30 3448 H 330.557 0.588834 -4.38161 0
M  V30 3449 N 329.616 1.39756 -0.72842 0
M  V30 3450 C 330.579 2.29012 -0.0927297 0
M  V30 3451 C 331.579 1.45992 0.674025 0
M  V30 3452 O 332.769 1.66749 0.50402 0
M  V30 3453 C 329.901 3.29396 0.878137 0
M  V30 3454 H 331.094 2.86729 -0.879011 0
M  V30 3455 H 328.647 1.48293 -0.493847 0
M  V30 3456 H 329.382 2.76722 1.69101 0
M  V30 3457 H 329.167 3.907 0.331051 0
M  V30 3458 H 330.657 3.96199 1.3197 0
M  V30 3459 N 331.094 0.475555 1.50254 0
M  V30 3460 C 332.057 -0.305016 2.27161 0
M  V30 3461 C 333.057 -0.916519 1.32123 0
M  V30 3462 O 334.247 -0.785003 1.5551 0
M  V30 3463 C 331.379 -1.43496 3.09227 0
M  V30 3464 H 332.572 0.369511 2.97615 0
M  V30 3465 H 330.125 0.229747 1.54602 0
M  V30 3466 H 330.86 -2.14441 2.43281 0
M  V30 3467 H 330.645 -1.00223 3.79075 0
M  V30 3468 H 332.135 -1.98548 3.67381 0
M  V30 3469 N 332.573 -1.56217 0.208337 0
M  V30 3470 C 333.523 -2.16324 -0.720281 0
M  V30 3471 C 334.507 -1.10775 -1.16695 0
M  V30 3472 O 335.699 -1.36801 -1.12314 0
M  V30 3473 C 332.828 -2.83644 -1.93393 0
M  V30 3474 C 331.914 -3.96401 -1.50755 0
M  V30 3475 N 332.305 -4.99546 -0.792937 0
M  V30 3476 C 330.603 -4.08246 -1.79585 0
M  V30 3477 C 331.304 -5.78828 -0.577364 0
M  V30 3478 N 330.28 -5.31723 -1.1301 0
M  V30 3479 H 334.082 -2.93432 -0.165725 0
M  V30 3480 H 331.596 -1.62397 0.00906463 0
M  V30 3481 H 333.593 -3.25107 -2.60981 0
M  V30 3482 H 332.253 -2.08027 -2.49308 0
M  V30 3483 H 333.264 -5.15967 -0.447004 0
M  V30 3484 H 329.941 -3.4377 -2.36915 0
M  V30 3485 H 331.331 -6.71899 -0.00952956 0
M  V30 3486 N 334.051 0.0651679 -1.57465 0
M  V30 3487 C 334.961 1.09448 -2.07505 0
M  V30 3488 C 335.977 1.41974 -1.00595 0
M  V30 3489 O 337.153 1.52018 -1.32107 0
M  V30 3490 C 334.218 2.38689 -2.51453 0
M  V30 3491 C 333.279 2.13073 -3.72691 0
M  V30 3492 C 332.512 3.36152 -4.14533 0
M  V30 3493 O 332.735 4.45517 -3.56189 0
M  V30 3494 O 331.669 3.23974 -5.07272 0
M  V30 3495 H 335.495 0.69935 -2.95538 0
M  V30 3496 H 333.08 0.279752 -1.46757 0
M  V30 3497 H 334.962 3.14736 -2.80212 0
M  V30 3498 H 333.637 2.77568 -1.66546 0
M  V30 3499 H 332.544 1.34709 -3.49005 0
M  V30 3500 H 333.877 1.79071 -4.5847 0
M  V30 3501 N 335.529 1.53961 0.336706 0
M  V30 3502 C 336.776 1.71536 1.07618 0
M  V30 3503 C 337.104 0.482125 1.8843 0
M  V30 3504 O 336.359 -0.536142 1.88213 0
M  V30 3505 C 336.658 2.93493 2.03953 0
M  V30 3506 C 336.324 4.28811 1.39399 0
M  V30 3507 C 334.986 4.65602 1.21523 0
M  V30 3508 C 337.338 5.12844 0.929541 0
M  V30 3509 C 334.666 5.84037 0.558312 0
M  V30 3510 C 337.018 6.31951 0.286505 0
M  V30 3511 C 335.682 6.67432 0.0954869 0
M  V30 3512 H 334.952 0.627696 0.393801 0
M  V30 3513 H 337.599 1.88186 0.354715 0
M  V30 3514 H 335.904 2.71475 2.82504 0
M  V30 3515 H 337.601 3.04285 2.61174 0
M  V30 3516 H 334.191 3.99858 1.54311 0
M  V30 3517 H 338.375 4.84947 1.05548 0
M  V30 3518 H 333.631 6.10097 0.398995 0
M  V30 3519 H 337.805 6.96352 -0.0814376 0
M  V30 3520 H 335.432 7.59063 -0.415579 0
M  V30 3521 N 337.007 -0.598083 1.45811 0
M  V30 3522 C 338.255 -1.35413 1.50026 0
M  V30 3523 C 338.576 -1.94444 0.147177 0
M  V30 3524 O 337.846 -1.77701 -0.824571 0
M  V30 3525 H 336.426 -0.502727 0.552517 0
M  V30 3526 H 339.088 -0.701606 1.81834 0
M  V30 3527 H 338.184 -2.16871 2.2444 0
M  V30 3528 N 338.485 -1.33259 -0.841409 0
M  V30 3529 C 339.435 -1.19872 -1.93945 0
M  V30 3530 C 340.419 -0.102269 -1.60575 0
M  V30 3531 O 341.611 -0.330114 -1.73894 0
M  V30 3532 C 338.74 -0.937517 -3.30251 0
M  V30 3533 C 337.826 -2.07629 -3.69799 0
M  V30 3534 N 338.217 -3.32604 -3.81062 0
M  V30 3535 C 336.515 -1.98242 -3.9952 0
M  V30 3536 C 337.216 -4.07275 -4.15333 0
M  V30 3537 N 336.192 -3.35691 -4.27566 0
M  V30 3538 H 339.994 -2.14604 -2.00805 0
M  V30 3539 H 337.508 -1.2523 -1.03398 0
M  V30 3540 H 339.505 -0.822545 -4.08705 0
M  V30 3541 H 338.165 0.00128798 -3.247 0
M  V30 3542 H 339.176 -3.67382 -3.65035 0
M  V30 3543 H 335.853 -1.12005 -4.02195 0
M  V30 3544 H 337.243 -5.1511 -4.31406 0
M  V30 3545 N 339.963 1.05934 -1.16686 0
M  V30 3546 C 340.926 2.11669 -0.879144 0
M  V30 3547 C 341.926 1.60294 0.127445 0
M  V30 3548 O 343.116 1.7389 -0.103865 0
M  V30 3549 C 340.248 3.39438 -0.315425 0
M  V30 3550 H 341.441 2.38626 -1.81653 0
M  V30 3551 H 338.994 1.22058 -0.976299 0
M  V30 3552 H 339.729 3.18132 0.629468 0
M  V30 3553 H 339.514 3.78034 -1.04079 0
M  V30 3554 H 341.004 4.17391 -0.132189 0
M  V30 3555 N 341.441 0.965919 1.2453 0
M  V30 3556 C 342.371 0.513476 2.27784 0
M  V30 3557 C 343.352 -0.445974 1.6415 0
M  V30 3558 O 344.537 -0.342485 1.91156 0
M  V30 3559 C 341.667 -0.198839 3.4673 0
M  V30 3560 C 340.621 0.676456 4.2262 0
M  V30 3561 C 339.947 -0.167248 5.34438 0
M  V30 3562 C 341.247 1.96017 4.84123 0
M  V30 3563 H 342.941 1.3765 2.65881 0
M  V30 3564 H 340.487 0.663321 1.27813 0
M  V30 3565 H 342.44 -0.526567 4.18097 0
M  V30 3566 H 341.164 -1.0962 3.07654 0
M  V30 3567 H 339.823 0.98743 3.53052 0
M  V30 3568 H 339.471 -1.0647 4.91603 0
M  V30 3569 H 339.171 0.415181 5.86131 0
M  V30 3570 H 340.695 -0.489688 6.08633 0
M  V30 3571 H 342.109 1.69814 5.47573 0
M  V30 3572 H 340.506 2.48918 5.4604 0
M  V30 3573 H 341.576 2.65622 4.05676 0
M  V30 3574 N 342.919 -1.39368 0.735821 0
M  V30 3575 C 344.167 -2.00101 0.283562 0
M  V30 3576 C 344.488 -1.5868 -1.13338 0
M  V30 3577 O 343.758 -0.835423 -1.77193 0
M  V30 3578 H 342.338 -0.740024 0.101851 0
M  V30 3579 H 345 -1.70404 0.945962 0
M  V30 3580 H 344.096 -3.10323 0.332604 0
M  V30 3581 N 344.397 -0.483516 -1.5 0
M  V30 3582 C 345.327 0.293829 -2.31644 0
M  V30 3583 C 346.308 0.978864 -1.39112 0
M  V30 3584 O 347.493 0.973644 -1.68029 0
M  V30 3585 C 344.623 1.36897 -3.19181 0
M  V30 3586 C 343.577 0.804833 -4.20365 0
M  V30 3587 C 342.903 1.9792 -4.96721 0
M  V30 3588 C 344.203 -0.192313 -5.21946 0
M  V30 3589 H 345.897 -0.387616 -2.9688 0
M  V30 3590 H 343.443 -0.187856 -1.42769 0
M  V30 3591 H 345.396 1.92037 -3.751 0
M  V30 3592 H 344.12 2.07936 -2.51853 0
M  V30 3593 H 342.779 0.275319 -3.65565 0
M  V30 3594 H 342.427 2.67686 -4.25856 0
M  V30 3595 H 342.127 1.60789 -5.65173 0
M  V30 3596 H 343.651 2.53526 -5.55479 0
M  V30 3597 H 345.065 0.270333 -5.72662 0
M  V30 3598 H 343.462 -0.478543 -5.98189 0
M  V30 3599 H 344.532 -1.11409 -4.71928 0
M  V30 3600 N 345.875 1.56104 -0.216619 0
M  V30 3601 C 346.838 2.18819 0.681962 0
M  V30 3602 C 347.838 1.14866 1.12528 0
M  V30 3603 O 349.028 1.40128 1.03488 0
M  V30 3604 C 346.16 2.80756 1.93362 0
M  V30 3605 H 347.353 2.99595 0.135254 0
M  V30 3606 H 344.906 1.56265 0.0330003 0
M  V30 3607 H 345.641 2.03837 2.52232 0
M  V30 3608 H 345.426 3.56876 1.62426 0
M  V30 3609 H 346.916 3.28844 2.57393 0
M  V30 3610 N 347.353 -0.0568162 1.57498 0
M  V30 3611 C 348.303 -1.07315 2.01166 0
M  V30 3612 C 349.287 -1.33632 0.896171 0
M  V30 3613 O 350.479 -1.33682 1.16009 0
M  V30 3614 C 347.608 -2.38257 2.47161 0
M  V30 3615 C 346.694 -2.1515 3.65474 0
M  V30 3616 N 347.085 -1.62014 4.7915 0
M  V30 3617 C 345.383 -2.45559 3.72313 0
M  V30 3618 C 346.084 -1.54069 5.60926 0
M  V30 3619 N 345.06 -2.00652 5.05213 0
M  V30 3620 H 348.862 -0.655878 2.86488 0
M  V30 3621 H 346.376 -0.263635 1.60246 0
M  V30 3622 H 348.373 -3.11845 2.76691 0
M  V30 3623 H 347.033 -2.80687 1.63232 0
M  V30 3624 H 348.044 -1.30667 5.01145 0
M  V30 3625 H 344.721 -2.91253 2.99129 0
M  V30 3626 H 346.111 -1.13712 6.62208 0
M  V30 3627 N 348.832 -1.54138 -0.328536 0
M  V30 3628 C 350.057 -1.76378 -1.09112 0
M  V30 3629 C 350.482 -0.508596 -1.81094 0
M  V30 3630 O 349.84 0.539598 -1.73084 0
M  V30 3631 C 349.888 -2.95358 -2.06872 0
M  V30 3632 O 348.992 -2.66556 -3.14677 0
M  V30 3633 H 348.333 -0.584614 -0.314838 0
M  V30 3634 H 350.863 -2.01146 -0.374348 0
M  V30 3635 H 350.873 -3.22566 -2.4983 0
M  V30 3636 H 349.548 -3.86385 -1.5388 0
M  V30 3637 H 348.125 -2.50282 -2.7643 0
M  V30 3638 N 350.31 0.590341 -1.46126 0
M  V30 3639 C 351.538 1.37504 -1.54597 0
M  V30 3640 C 351.953 1.87897 -0.184447 0
M  V30 3641 O 351.31 1.63192 0.816984 0
M  V30 3642 C 351.361 2.56779 -2.54454 0
M  V30 3643 O 351.082 2.08476 -3.85317 0
M  V30 3644 C 352.583 3.49427 -2.72792 0
M  V30 3645 H 349.803 0.420325 -0.523037 0
M  V30 3646 H 352.347 0.718383 -1.91467 0
M  V30 3647 H 350.502 3.1845 -2.20609 0
M  V30 3648 H 350.916 2.86097 -4.396 0
M  V30 3649 H 352.39 4.29619 -3.466 0
M  V30 3650 H 352.867 4.00876 -1.79429 0
M  V30 3651 H 353.473 2.93598 -3.07702 0
M  V30 3652 N 351.788 1.33704 0.83433 0
M  V30 3653 C 353.065 1.16011 1.57483 0
M  V30 3654 C 353.445 -0.27176 2.09343 0
M  V30 3655 O 352.793 -1.27146 1.89858 0
M  V30 3656 C 353.003 2.20507 2.70514 0
M  V30 3657 C 354.351 2.54898 3.39577 0
M  V30 3658 O 355.375 2.19209 2.80759 0
M  V30 3659 O 354.234 3.16158 4.45765 0
M  V30 3660 H 351.328 0.448992 0.694503 0
M  V30 3661 H 353.874 1.453 0.876691 0
M  V30 3662 H 352.646 3.16667 2.29865 0
M  V30 3663 H 352.269 1.92329 3.47987 0
M  V30 3664 N 353.266 -1.05314 1.17247 0
M  V30 3665 C 354.677 -1.59753 0.96623 0
M  V30 3666 C 355.028 -1.9005 -0.487378 0
M  V30 3667 O 354.153 -1.68126 -1.36245 0
M  V30 3668 C 354.748 -2.90249 1.74759 0
M  V30 3669 C 353.307 -3.41352 1.58606 0
M  V30 3670 C 352.454 -2.15103 1.75002 0
M  V30 3671 H 355.405 -0.881406 1.31973 0
M  V30 3672 H 355.426 -3.60097 1.22925 0
M  V30 3673 H 354.938 -2.68166 2.8055 0
M  V30 3674 H 353.039 -3.68474 0.552985 0
M  V30 3675 H 353.152 -4.16019 2.37624 0
M  V30 3676 H 351.516 -2.25804 1.17833 0
M  V30 3677 H 352.299 -1.95491 2.82202 0
M  V30 3678 N 354.744 -0.972509 -1.24016 0
M  V30 3679 C 355.969 -0.654417 -1.96805 0
M  V30 3680 C 356.394 0.770398 -1.716 0
M  V30 3681 O 355.752 1.52361 -0.982647 0
M  V30 3682 C 355.8 -0.941031 -3.48105 0
M  V30 3683 O 354.904 -0.0289472 -4.1239 0
M  V30 3684 H 354.245 -0.24692 -0.616382 0
M  V30 3685 H 356.775 -1.30396 -1.57664 0
M  V30 3686 H 356.785 -0.87452 -3.98517 0
M  V30 3687 H 355.46 -1.97939 -3.65777 0
M  V30 3688 H 354.037 -0.149192 -3.72601 0
M  V30 3689 N 356.222 1.38976 -0.743202 0
M  V30 3690 C 357.185 2.28901 -0.117014 0
M  V30 3691 C 358.185 1.46698 0.658503 0
M  V30 3692 O 359.375 1.67274 0.486305 0
M  V30 3693 C 356.507 3.30309 0.84315 0
M  V30 3694 H 357.7 2.8578 -0.909373 0
M  V30 3695 H 355.253 1.47761 -0.509547 0
M  V30 3696 H 355.988 2.785 1.66157 0
M  V30 3697 H 355.773 3.91029 0.289594 0
M  V30 3698 H 357.263 3.97577 1.2776 0
M  V30 3699 N 357.7 0.491464 1.49741 0
M  V30 3700 C 358.63 -0.28154 2.31796 0
M  V30 3701 C 359.611 -0.971473 1.3963 0
M  V30 3702 O 360.796 -0.964719 1.68543 0
M  V30 3703 C 357.926 -1.35203 3.19902 0
M  V30 3704 C 356.88 -0.782529 4.20786 0
M  V30 3705 C 356.206 -1.95283 4.97764 0
M  V30 3706 C 357.506 0.21999 5.21837 0
M  V30 3707 H 359.2 0.403355 2.96671 0
M  V30 3708 H 356.746 0.195425 1.42668 0
M  V30 3709 H 358.699 -1.90045 3.76113 0
M  V30 3710 H 357.423 -2.06598 2.52953 0
M  V30 3711 H 356.082 -0.255928 3.65706 0
M  V30 3712 H 355.73 -2.65423 4.2727 0
M  V30 3713 H 355.43 -1.57789 5.66018 0
M  V30 3714 H 356.954 -2.50577 5.56816 0
M  V30 3715 H 358.368 -0.23996 5.72798 0
M  V30 3716 H 356.765 0.51026 5.97927 0
M  V30 3717 H 357.835 1.13911 4.7133 0
M  V30 3718 N 359.178 -1.55987 0.224894 0
M  V30 3719 C 360.111 -2.16413 -0.723929 0
M  V30 3720 C 361.089 -1.10952 -1.18863 0
M  V30 3721 O 362.273 -1.39225 -1.27077 0
M  V30 3722 C 359.4 -2.74711 -1.98121 0
M  V30 3723 C 358.446 -3.9303 -1.6562 0
M  V30 3724 S 359.279 -5.29817 -0.778058 0
M  V30 3725 C 360.435 -5.91555 -2.04483 0
M  V30 3726 H 360.668 -2.96555 -0.210347 0
M  V30 3727 H 358.201 -1.54397 0.00955457 0
M  V30 3728 H 360.159 -3.08938 -2.70311 0
M  V30 3729 H 358.82 -1.94555 -2.46591 0
M  V30 3730 H 358.013 -4.32334 -2.59043 0
M  V30 3731 H 357.615 -3.59966 -1.01491 0
M  V30 3732 H 359.907 -6.07732 -2.99446 0
M  V30 3733 H 360.85 -6.87498 -1.69563 0
M  V30 3734 H 361.258 -5.20419 -2.18688 0
M  V30 3735 N 360.656 0.0484629 -1.57525 0
M  V30 3736 C 361.886 0.754326 -1.92337 0
M  V30 3737 C 362.294 1.70443 -0.82132 0
M  V30 3738 O 361.637 1.82466 0.21254 0
M  V30 3739 C 361.699 1.58231 -3.22805 0
M  V30 3740 C 361.363 0.799074 -4.4996 0
M  V30 3741 C 362.36 0.1079 -5.19788 0
M  V30 3742 C 360.045 0.759345 -4.96527 0
M  V30 3743 C 362.039 -0.612516 -6.3445 0
M  V30 3744 C 359.726 0.0351713 -6.1109 0
M  V30 3745 C 360.724 -0.649537 -6.79904 0
M  V30 3746 O 360.412 -1.36199 -7.92278 0
M  V30 3747 H 360.144 0.218257 -0.639797 0
M  V30 3748 H 362.698 0.0159295 -2.05394 0
M  V30 3749 H 360.928 2.36406 -3.06021 0
M  V30 3750 H 362.617 2.16898 -3.43089 0
M  V30 3751 H 363.383 0.129748 -4.84826 0
M  V30 3752 H 359.262 1.28177 -4.42822 0
M  V30 3753 H 362.806 -1.14751 -6.88097 0
M  V30 3754 H 358.703 0.0113314 -6.45499 0
M  V30 3755 H 359.471 -1.27366 -8.0853 0
M  V30 3756 N 362.134 1.5431 0.320358 0
M  V30 3757 C 363.545 1.63872 0.894594 0
M  V30 3758 C 363.896 0.534847 1.88769 0
M  V30 3759 O 363.021 -0.331732 2.13842 0
M  V30 3760 C 363.616 2.97049 1.62934 0
M  V30 3761 C 362.175 3.08796 2.15226 0
M  V30 3762 C 361.322 2.59456 0.978671 0
M  V30 3763 H 364.273 1.58398 0.0978544 0
M  V30 3764 H 364.294 2.87388 2.49376 0
M  V30 3765 H 363.806 3.7737 0.906302 0
M  V30 3766 H 361.907 2.33156 2.90636 0
M  V30 3767 H 362.02 4.14649 2.40006 0
M  V30 3768 H 360.384 2.1543 1.35875 0
M  V30 3769 H 361.167 3.42237 0.269895 0
M  V30 3770 N 363.613 -0.582584 1.46437 0
M  V30 3771 C 364.841 -1.36682 1.55324 0
M  V30 3772 C 365.256 -1.87796 0.194409 0
M  V30 3773 O 364.613 -1.63623 -0.808318 0
M  V30 3774 C 364.664 -2.55426 2.55812 0
M  V30 3775 O 364.385 -2.0643 3.86417 0
M  V30 3776 C 365.886 -3.47976 2.74641 0
M  V30 3777 H 363.106 -0.417545 0.525259 0
M  V30 3778 H 365.65 -0.708219 1.91845 0
M  V30 3779 H 363.805 -3.17275 2.22295 0
M  V30 3780 H 364.219 -2.83762 4.41111 0
M  V30 3781 H 365.693 -4.27775 3.48874 0
M  V30 3782 H 366.17 -3.99919 1.81553 0
M  V30 3783 H 366.776 -2.91962 3.09255 0
M  V30 3784 N 365.091 -1.34144 -0.827227 0
M  V30 3785 C 366.321 -1.29138 -1.61267 0
M  V30 3786 C 366.729 0.137597 -1.88699 0
M  V30 3787 O 366.072 1.09379 -1.47587 0
M  V30 3788 C 366.134 -2.0097 -2.9808 0
M  V30 3789 C 365.798 -3.50242 -2.93563 0
M  V30 3790 C 366.795 -4.4523 -2.68452 0
M  V30 3791 C 364.48 -3.92592 -3.13331 0
M  V30 3792 C 366.474 -5.80542 -2.63154 0
M  V30 3793 C 364.161 -5.28005 -3.07658 0
M  V30 3794 C 365.159 -6.21792 -2.82602 0
M  V30 3795 O 364.847 -7.54723 -2.76853 0
M  V30 3796 H 364.579 -0.445851 -0.508127 0
M  V30 3797 H 367.133 -1.77263 -1.03763 0
M  V30 3798 H 365.363 -1.47451 -3.57484 0
M  V30 3799 H 367.052 -1.89309 -3.5905 0
M  V30 3800 H 367.818 -4.13832 -2.52919 0
M  V30 3801 H 363.697 -3.19994 -3.31851 0
M  V30 3802 H 367.241 -6.53717 -2.43516 0
M  V30 3803 H 363.138 -5.59023 -3.22743 0
M  V30 3804 H 363.906 -7.64409 -2.92611 0
M  V30 3805 N 366.569 1.04691 -1.17803 0
M  V30 3806 C 367.516 2.12557 -0.899343 0
M  V30 3807 C 368.486 1.65339 0.158771 0
M  V30 3808 O 369.671 1.90789 0.0204797 0
M  V30 3809 C 366.811 3.42481 -0.424315 0
M  V30 3810 C 365.924 4.03346 -1.54713 0
M  V30 3811 C 365.059 5.21208 -1.02546 0
M  V30 3812 C 364.098 5.74089 -2.12339 0
M  V30 3813 N 363.235 6.83247 -1.61612 0
M  V30 3814 H 368.075 2.35734 -1.823 0
M  V30 3815 H 365.612 1.1564 -0.909159 0
M  V30 3816 H 367.57 4.16996 -0.130421 0
M  V30 3817 H 366.2 3.19471 0.462377 0
M  V30 3818 H 365.252 3.2622 -1.95664 0
M  V30 3819 H 366.564 4.38628 -2.37501 0
M  V30 3820 H 365.718 6.02812 -0.685718 0
M  V30 3821 H 364.457 4.87414 -0.167084 0
M  V30 3822 H 363.462 4.91111 -2.47165 0
M  V30 3823 H 364.687 6.0993 -2.98601 0
M  V30 3824 H 362.633 6.5134 -0.780533 0
M  V30 3825 H 362.55 7.17559 -2.38003 0
M  V30 3826 H 363.818 7.68491 -1.30545 0
M  V30 3827 N 368.047 0.979072 1.23499 0
M  V30 3828 C 369.277 0.664237 1.95631 0
M  V30 3829 C 369.685 -0.772653 1.72704 0
M  V30 3830 O 369.028 -1.53141 1.01457 0
M  V30 3831 C 369.09 0.873115 3.48736 0
M  V30 3832 C 368.754 2.29182 3.95379 0
M  V30 3833 C 369.751 3.2704 4.04155 0
M  V30 3834 C 367.436 2.62256 4.28401 0
M  V30 3835 C 369.43 4.56052 4.45304 0
M  V30 3836 C 367.117 3.91491 4.69231 0
M  V30 3837 C 368.115 4.88201 4.77649 0
M  V30 3838 O 367.803 6.15129 5.17563 0
M  V30 3839 H 367.535 0.245915 0.629684 0
M  V30 3840 H 370.089 1.3127 1.57979 0
M  V30 3841 H 368.319 0.167476 3.86337 0
M  V30 3842 H 370.008 0.555642 4.02079 0
M  V30 3843 H 370.774 3.02819 3.78848 0
M  V30 3844 H 366.653 1.87692 4.21061 0
M  V30 3845 H 370.197 5.31538 4.51789 0
M  V30 3846 H 366.094 4.15508 4.93987 0
M  V30 3847 H 366.862 6.18862 5.35679 0
M  V30 3848 N 369.525 -1.3858 0.750561 0
M  V30 3849 C 370.472 -2.30483 0.120835 0
M  V30 3850 C 371.442 -1.50022 -0.712923 0
M  V30 3851 O 372.627 -1.78662 -0.669676 0
M  V30 3852 C 369.767 -3.36431 -0.768666 0
M  V30 3853 C 368.88 -4.31927 0.0793922 0
M  V30 3854 C 368.015 -5.24944 -0.81283 0
M  V30 3855 C 367.054 -6.12088 0.0390447 0
M  V30 3856 N 366.191 -6.97412 -0.809969 0
M  V30 3857 H 371.031 -2.83761 0.91015 0
M  V30 3858 H 368.568 -1.39707 0.460463 0
M  V30 3859 H 370.526 -3.96462 -1.29898 0
M  V30 3860 H 369.156 -2.8457 -1.5238 0
M  V30 3861 H 368.208 -3.73382 0.727303 0
M  V30 3862 H 369.52 -4.93319 0.737401 0
M  V30 3863 H 368.674 -5.90078 -1.41042 0
M  V30 3864 H 367.413 -4.63911 -1.50458 0
M  V30 3865 H 366.418 -5.45952 0.649328 0
M  V30 3866 H 367.643 -6.75189 0.727809 0
M  V30 3867 H 365.589 -6.38931 -1.48672 0
M  V30 3868 H 365.506 -7.55712 -0.208789 0
M  V30 3869 H 366.774 -7.66959 -1.39263 0
M  V30 3870 N 371.003 -0.499398 -1.49478 0
M  V30 3871 C 371.951 0.293604 -2.3074 0
M  V30 3872 C 372.945 0.96427 -1.39277 0
M  V30 3873 O 374.151 0.892141 -1.56336 0
M  V30 3874 H 370.526 0.113541 -0.743379 0
M  V30 3875 H 372.497 -0.411772 -2.95545 0
M  V30 3876 C 371.246 1.3462 -3.20582 0
M  V30 3877 H 370.569 0.83954 -3.90886 0
M  V30 3878 H 372.009 1.87308 -3.80384 0
M  V30 3879 C 370.468 2.36351 -2.40083 0
M  V30 3880 O 370.998 3.422 -2.10385 0
M  V30 3881 N 369.204 2.0878 -2.02137 0
M  V30 3882 H 368.751 1.22723 -2.26488 0
M  V30 3883 H 368.709 2.77075 -1.48583 0
M  V30 3884 N 372.481 1.55866 -0.233164 0
M  V30 3885 C 373.892 1.847 0.272554 0
M  V30 3886 C 374.243 1.15477 1.58617 0
M  V30 3887 O 373.368 0.42841 2.12117 0
M  V30 3888 C 373.963 3.35071 0.501299 0
M  V30 3889 C 372.522 3.6418 0.951304 0
M  V30 3890 C 371.669 2.77292 0.0208209 0
M  V30 3891 H 374.62 1.52005 -0.456074 0
M  V30 3892 H 374.641 3.55906 1.34577 0
M  V30 3893 H 374.153 3.85424 -0.454936 0
M  V30 3894 H 372.254 3.19293 1.92049 0
M  V30 3895 H 372.367 4.72071 0.817675 0
M  V30 3896 H 370.731 2.49131 0.529723 0
M  V30 3897 H 371.514 3.30448 -0.93054 0
M  V30 3898 N 373.959 -0.0401083 1.57549 0
M  V30 3899 C 375.189 -0.744115 1.92734 0
M  V30 3900 C 375.597 -1.70005 0.830348 0
M  V30 3901 O 374.94 -1.82576 -0.20286 0
M  V30 3902 C 375.002 -1.56516 3.2364 0
M  V30 3903 C 374.666 -0.7752 4.50377 0
M  V30 3904 C 375.663 -0.0803326 5.19838 0
M  V30 3905 C 373.348 -0.733002 4.96923 0
M  V30 3906 C 375.342 0.646154 6.34116 0
M  V30 3907 C 373.029 -0.00276321 6.111 0
M  V30 3908 C 374.027 0.685585 6.7955 0
M  V30 3909 O 373.715 1.40399 7.91545 0
M  V30 3910 H 373.447 -0.214861 0.640945 0
M  V30 3911 H 376.001 -0.00503675 2.05399 0
M  V30 3912 H 374.231 -2.3478 3.07271 0
M  V30 3913 H 375.92 -2.15076 3.44234 0
M  V30 3914 H 376.686 -0.104035 4.84888 0
M  V30 3915 H 372.565 -1.25827 4.43496 0
M  V30 3916 H 376.109 1.18398 6.87479 0
M  V30 3917 H 372.006 0.0229012 6.45496 0
M  V30 3918 H 372.774 1.31653 8.07843 0
M  V30 3919 N 375.437 -1.54477 -0.31217 0
M  V30 3920 C 376.685 -1.72884 -1.04668 0
M  V30 3921 C 377.006 -0.511477 -1.88173 0
M  V30 3922 O 376.276 0.474407 -1.90069 0
M  V30 3923 H 374.856 -0.637461 -0.389425 0
M  V30 3924 H 377.518 -1.91807 -0.345852 0
M  V30 3925 H 376.614 -2.61334 -1.70619 0
M  V30 3926 N 376.915 0.57481 -1.46744 0
M  V30 3927 C 378.162 1.33272 -1.52462 0
M  V30 3928 C 378.49 1.93669 -0.179572 0
M  V30 3929 O 377.745 1.7743 0.825664 0
M  V30 3930 C 378.044 2.476 -2.57738 0
M  V30 3931 C 377.71 2.05146 -4.01529 0
M  V30 3932 C 376.372 1.93284 -4.40676 0
M  V30 3933 C 378.724 1.72506 -4.91824 0
M  V30 3934 C 376.052 1.47049 -5.67973 0
M  V30 3935 C 378.404 1.27748 -6.19567 0
M  V30 3936 C 377.068 1.14468 -6.57612 0
M  V30 3937 H 376.338 0.487678 -0.557899 0
M  V30 3938 H 378.985 0.646456 -1.80259 0
M  V30 3939 H 377.29 3.21708 -2.23632 0
M  V30 3940 H 378.987 3.05807 -2.5939 0
M  V30 3941 H 375.577 2.15316 -3.7059 0
M  V30 3942 H 379.761 1.80552 -4.62293 0
M  V30 3943 H 375.017 1.35417 -5.96215 0
M  V30 3944 H 379.191 1.01547 -6.88957 0
M  V30 3945 H 376.818 0.78419 -7.56145 0
M  V30 3946 N 378.394 1.34581 0.820102 0
M  V30 3947 C 379.344 1.22943 1.92013 0
M  V30 3948 C 380.328 0.127802 1.60392 0
M  V30 3949 O 381.52 0.357737 1.73347 0
M  V30 3950 C 378.649 0.989938 3.28717 0
M  V30 3951 C 377.735 2.13486 3.66449 0
M  V30 3952 N 378.126 3.38625 3.75722 0
M  V30 3953 C 376.424 2.04573 3.96315 0
M  V30 3954 C 377.125 4.13832 4.08801 0
M  V30 3955 N 376.101 3.42451 4.22171 0
M  V30 3956 H 379.903 2.17771 1.97365 0
M  V30 3957 H 377.417 1.2686 1.01392 0
M  V30 3958 H 379.414 0.887462 4.07345 0
M  V30 3959 H 378.074 0.0503691 3.24661 0
M  V30 3960 H 379.085 3.73143 3.59144 0
M  V30 3961 H 375.762 1.1839 4.00362 0
M  V30 3962 H 377.152 5.21909 4.23156 0
M  V30 3963 N 379.872 -1.04064 1.18357 0
M  V30 3964 C 380.802 -2.14001 0.934113 0
M  V30 3965 C 381.783 -1.69616 -0.128186 0
M  V30 3966 O 382.968 -1.94185 0.0244093 0
M  V30 3967 C 380.098 -3.44253 0.459066 0
M  V30 3968 C 379.052 -4.02261 1.46185 0
M  V30 3969 C 378.378 -5.27992 0.844322 0
M  V30 3970 C 379.678 -4.38432 2.83856 0
M  V30 3971 H 381.372 -2.35127 1.85352 0
M  V30 3972 H 378.918 -1.12998 0.892604 0
M  V30 3973 H 380.871 -4.20522 0.271907 0
M  V30 3974 H 379.595 -3.22813 -0.495912 0
M  V30 3975 H 378.254 -3.28074 1.63595 0
M  V30 3976 H 377.902 -5.02862 -0.117845 0
M  V30 3977 H 377.602 -5.67765 1.51384 0
M  V30 3978 H 379.126 -6.06938 0.667693 0
M  V30 3979 H 380.54 -5.05688 2.70098 0
M  V30 3980 H 378.937 -4.89254 3.47491 0
M  V30 3981 H 380.007 -3.4826 3.37406 0
M  V30 3982 N 381.35 -0.985608 -1.22978 0
M  V30 3983 C 382.761 -0.693593 -1.73338 0
M  V30 3984 C 383.112 0.789935 -1.79595 0
M  V30 3985 O 382.237 1.61771 -1.43733 0
M  V30 3986 C 382.832 -1.25235 -3.14804 0
M  V30 3987 C 381.391 -1.00987 -3.626 0
M  V30 3988 C 380.538 -1.37695 -2.40698 0
M  V30 3989 H 383.489 -1.15884 -1.08428 0
M  V30 3990 H 383.51 -0.627329 -3.75293 0
M  V30 3991 H 383.022 -2.33209 -3.10218 0
M  V30 3992 H 381.123 0.0535565 -3.72562 0
M  V30 3993 H 381.236 -1.66812 -4.49122 0
M  V30 3994 H 379.6 -0.795459 -2.4196 0
M  V30 3995 H 380.383 -2.46657 -2.38779 0
M  V30 3996 N 382.828 1.3818 -0.7579 0
M  V30 3997 C 383.775 2.30416 -0.133057 0
M  V30 3998 C 384.745 1.50398 0.704957 0
M  V30 3999 O 385.93 1.79014 0.660192 0
M  V30 4000 C 383.07 3.36834 0.750813 0
M  V30 4001 C 382.183 4.31879 -0.102297 0
M  V30 4002 C 381.318 5.25368 0.784979 0
M  V30 4003 C 380.357 6.12058 -0.0715046 0
M  V30 4004 N 379.494 6.97832 0.772972 0
M  V30 4005 H 384.334 2.83274 -0.925186 0
M  V30 4006 H 381.871 1.39461 -0.467866 0
M  V30 4007 H 383.829 3.97145 1.27794 0
M  V30 4008 H 382.459 2.85374 1.50868 0
M  V30 4009 H 381.511 3.72991 -0.747095 0
M  V30 4010 H 382.823 4.92921 -0.763552 0
M  V30 4011 H 381.977 5.90818 1.37911 0
M  V30 4012 H 380.716 4.64703 1.47996 0
M  V30 4013 H 379.721 5.456 -0.678272 0
M  V30 4014 H 380.946 6.74793 -0.763606 0
M  V30 4015 H 378.892 6.3971 1.45282 0
M  V30 4016 H 378.809 7.55812 0.168709 0
M  V30 4017 H 380.077 7.67687 1.35194 0
M  V30 4018 N 384.306 0.507319 1.49211 0
M  V30 4019 C 385.583 -0.0982702 1.95353 0
M  V30 4020 C 385.963 -1.53516 1.449 0
M  V30 4021 O 385.311 -2.18594 0.66551 0
M  V30 4022 C 385.521 -0.00440283 3.49 0
M  V30 4023 C 386.869 -0.175147 4.24239 0
M  V30 4024 O 387.893 -0.0792891 3.56112 0
M  V30 4025 O 386.752 -0.37276 5.45227 0
M  V30 4026 H 383.846 -0.0918236 0.821887 0
M  V30 4027 H 386.392 0.570307 1.5983 0
M  V30 4028 H 385.164 0.997402 3.78375 0
M  V30 4029 H 384.787 -0.712845 3.91158 0
M  V30 4030 N 385.784 -1.5574 0.241426 0
M  V30 4031 C 387.061 -1.90704 -0.434881 0
M  V30 4032 C 387.441 -1.16145 -1.76277 0
M  V30 4033 O 386.789 -0.277152 -2.26813 0
M  V30 4034 C 386.999 -3.43657 -0.608343 0
M  V30 4035 C 388.347 -4.14806 -0.906725 0
M  V30 4036 O 389.371 -3.49366 -0.694408 0
M  V30 4037 O 388.23 -5.30548 -1.31075 0
M  V30 4038 H 385.324 -0.793592 -0.23268 0
M  V30 4039 H 387.87 -1.67288 0.285086 0
M  V30 4040 H 386.642 -3.89927 0.327505 0
M  V30 4041 H 386.265 -3.72918 -1.37906 0
M  V30 4042 N 387.262 0.0317525 -1.57568 0
M  V30 4043 C 388.508 0.724175 -1.8943 0
M  V30 4044 C 388.841 1.75149 -0.838836 0
M  V30 4045 O 388.116 1.93948 0.146422 0
M  V30 4046 C 388.399 1.39615 -3.31933 0
M  V30 4047 C 388.252 0.382537 -4.4817 0
M  V30 4048 C 389.571 2.33084 -3.73309 0
M  V30 4049 H 386.69 0.261797 -0.688935 0
M  V30 4050 H 389.332 -0.013017 -1.89996 0
M  V30 4051 H 387.482 2.02451 -3.31581 0
M  V30 4052 H 389.154 -0.243689 -4.60656 0
M  V30 4053 H 387.397 -0.29844 -4.32772 0
M  V30 4054 H 388.068 0.891145 -5.44759 0
M  V30 4055 H 390.544 1.80295 -3.7501 0
M  V30 4056 H 389.42 2.77084 -4.73831 0
M  V30 4057 H 389.681 3.19643 -3.05419 0
M  V30 4058 N 388.74 1.54641 0.303973 0
M  V30 4059 C 389.687 1.85386 1.37479 0
M  V30 4060 C 390.657 0.702528 1.50512 0
M  V30 4061 O 391.842 0.950867 1.65418 0
M  V30 4062 C 388.982 2.10413 2.73533 0
M  V30 4063 C 388.095 3.38049 2.68974 0
M  V30 4064 C 387.23 3.52934 3.97002 0
M  V30 4065 C 386.269 4.74373 3.86829 0
M  V30 4066 N 385.406 4.8608 5.06627 0
M  V30 4067 H 390.246 2.76732 1.1056 0
M  V30 4068 H 387.783 1.37034 0.534805 0
M  V30 4069 H 389.741 2.22919 3.52652 0
M  V30 4070 H 388.371 1.22338 2.98719 0
M  V30 4071 H 387.423 3.3418 1.81736 0
M  V30 4072 H 388.735 4.27288 2.57346 0
M  V30 4073 H 387.889 3.65088 4.84557 0
M  V30 4074 H 386.628 2.61824 4.1146 0
M  V30 4075 H 385.633 4.62255 2.97658 0
M  V30 4076 H 386.858 5.66888 3.73918 0
M  V30 4077 H 384.804 3.97891 5.21554 0
M  V30 4078 H 384.721 5.69315 4.9741 0
M  V30 4079 H 385.989 5.02587 5.95841 0
M  V30 4080 N 390.218 -0.567019 1.47046 0
M  V30 4081 C 391.466 -1.322 1.52864 0
M  V30 4082 C 391.787 -1.94088 0.188388 0
M  V30 4083 O 391.057 -1.7941 -0.786693 0
M  V30 4084 H 389.637 -0.490894 0.563056 0
M  V30 4085 H 392.299 -0.662879 1.83281 0
M  V30 4086 H 391.395 -2.12062 2.2899 0
M  V30 4087 N 391.696 -1.35014 -0.812953 0
M  V30 4088 C 392.945 -1.27269 -1.56479 0
M  V30 4089 C 393.258 0.152771 -1.95002 0
M  V30 4090 O 394.464 0.352451 -2.69203 0
M  V30 4091 C 392.92 -2.23159 -2.82362 0
M  V30 4092 C 392.528 -3.71016 -2.511 0
M  V30 4093 C 394.272 -2.24342 -3.60376 0
M  V30 4094 C 392.179 -4.58746 -3.73237 0
M  V30 4095 H 391.109 -0.472829 -0.587324 0
M  V30 4096 H 393.76 -1.6024 -0.894171 0
M  V30 4097 H 392.142 -1.83151 -3.51101 0
M  V30 4098 H 393.316 -4.1962 -1.90409 0
M  V30 4099 H 391.631 -3.72378 -1.86343 0
M  V30 4100 H 394.228 -2.87107 -4.51081 0
M  V30 4101 H 394.571 -1.24542 -3.97234 0
M  V30 4102 H 395.104 -2.62846 -2.98591 0
M  V30 4103 H 391.843 -5.59521 -3.41492 0
M  V30 4104 H 391.363 -4.14871 -4.33176 0
M  V30 4105 H 393.042 -4.73852 -4.40537 0
M  V30 4106 N 393.175 1.03435 -1.18907 0
M  V30 4107 C 394.107 2.1165 -0.879595 0
M  V30 4108 C 395.12 1.62316 0.125439 0
M  V30 4109 O 396.309 1.78201 -0.103245 0
M  V30 4110 C 393.409 3.37622 -0.294042 0
M  V30 4111 C 392.582 4.16166 -1.34629 0
M  V30 4112 C 391.641 5.20457 -0.775274 0
M  V30 4113 O 390.667 5.50379 -1.4516 0
M  V30 4114 N 391.869 5.78949 0.424126 0
M  V30 4115 H 394.634 2.38791 -1.81105 0
M  V30 4116 H 392.195 1.19681 -1.09032 0
M  V30 4117 H 394.187 4.04572 0.101679 0
M  V30 4118 H 392.757 3.07873 0.541575 0
M  V30 4119 H 391.977 3.44444 -1.91707 0
M  V30 4120 H 393.265 4.65432 -2.05549 0
M  V30 4121 H 392.663 5.56948 0.991209 0
M  V30 4122 H 391.22 6.47334 0.761691 0
M  V30 4123 N 394.653 0.992116 1.22453 0
M  V30 4124 C 395.616 0.546883 2.2258 0
M  V30 4125 C 396.616 -0.369829 1.56489 0
M  V30 4126 O 397.806 -0.161896 1.73446 0
M  V30 4127 C 394.938 -0.204659 3.40285 0
M  V30 4128 H 396.131 1.43234 2.63484 0
M  V30 4129 H 393.684 0.779239 1.3549 0
M  V30 4130 H 394.419 -1.10614 3.04853 0
M  V30 4131 H 394.204 0.45354 3.89468 0
M  V30 4132 H 395.694 -0.504358 4.14543 0
M  V30 4133 N 396.131 -1.37776 0.765217 0
M  V30 4134 C 397.061 -2.32945 0.160953 0
M  V30 4135 C 398.042 -1.55454 -0.690516 0
M  V30 4136 O 399.227 -1.83721 -0.629318 0
M  V30 4137 C 396.357 -3.39669 -0.724031 0
M  V30 4138 C 395.311 -4.27992 0.0256173 0
M  V30 4139 C 394.637 -5.25673 -0.978383 0
M  V30 4140 C 395.937 -5.08309 1.20082 0
M  V30 4141 H 397.631 -2.83728 0.955969 0
M  V30 4142 H 395.177 -1.36416 0.461149 0
M  V30 4143 H 397.13 -4.05219 -1.15652 0
M  V30 4144 H 395.854 -2.87396 -1.5515 0
M  V30 4145 H 394.513 -3.63964 0.438812 0
M  V30 4146 H 394.161 -4.69682 -1.80022 0
M  V30 4147 H 393.861 -5.85625 -0.481378 0
M  V30 4148 H 395.385 -5.94098 -1.40995 0
M  V30 4149 H 396.799 -5.67034 0.845307 0
M  V30 4150 H 395.196 -5.77554 1.62947 0
M  V30 4151 H 396.266 -4.41365 2.00811 0
M  V30 4152 N 397.609 -0.515225 -1.4894 0
M  V30 4153 C 398.839 0.0205735 -2.0659 0
M  V30 4154 C 399.247 1.30064 -1.37405 0
M  V30 4155 O 398.59 1.78087 -0.450632 0
M  V30 4156 C 398.652 0.330124 -3.57981 0
M  V30 4157 C 398.316 -0.854295 -4.48944 0
M  V30 4158 C 399.313 -1.7487 -4.89609 0
M  V30 4159 C 396.998 -1.05712 -4.9105 0
M  V30 4160 C 398.992 -2.82996 -5.71132 0
M  V30 4161 C 396.679 -2.14154 -5.72347 0
M  V30 4162 C 397.677 -3.0263 -6.12294 0
M  V30 4163 O 397.365 -4.09198 -6.91962 0
M  V30 4164 H 397.097 -0.0236833 -0.675585 0
M  V30 4165 H 399.651 -0.715956 -1.92518 0
M  V30 4166 H 397.881 1.12044 -3.70112 0
M  V30 4167 H 399.57 0.806233 -3.97812 0
M  V30 4168 H 400.336 -1.60388 -4.57712 0
M  V30 4169 H 396.215 -0.377788 -4.59449 0
M  V30 4170 H 399.759 -3.52083 -6.02232 0
M  V30 4171 H 395.656 -2.28626 -6.03656 0
M  V30 4172 H 396.424 -4.06726 -7.10293 0
M  V30 4173 N 399.087 1.5561 -0.249682 0
M  V30 4174 C 400.335 1.98618 0.373548 0
M  V30 4175 C 400.656 1.13919 1.58264 0
M  V30 4176 O 399.926 0.222637 1.94631 0
M  V30 4177 H 398.506 0.733571 0.141006 0
M  V30 4178 H 401.168 1.91748 -0.349117 0
M  V30 4179 H 400.264 3.04584 0.680796 0
M  V30 4180 N 400.565 -0.0233959 1.57583 0
M  V30 4181 C 401.976 -0.56927 1.77809 0
M  V30 4182 C 402.327 -1.75284 0.881472 0
M  V30 4183 O 401.452 -2.1626 0.0777805 0
M  V30 4184 C 402.047 -1.03949 3.22459 0
M  V30 4185 C 400.606 -1.53084 3.43864 0
M  V30 4186 C 399.753 -0.471454 2.73263 0
M  V30 4187 H 402.704 0.202825 1.57399 0
M  V30 4188 H 402.725 -1.90661 3.29285 0
M  V30 4189 H 402.237 -0.177865 3.87692 0
M  V30 4190 H 400.338 -2.41414 2.83814 0
M  V30 4191 H 400.451 -1.57443 4.52491 0
M  V30 4192 H 398.815 -0.927788 2.37201 0
M  V30 4193 H 399.598 0.380808 3.41181 0
M  V30 4194 N 402.043 -1.548 -0.295768 0
M  V30 4195 C 403.459 -1.4613 -0.641722 0
M  V30 4196 C 403.659 -0.656771 -1.90496 0
M  V30 4197 O 402.715 -0.166547 -2.5195 0
M  V30 4198 C 404.028 -2.90141 -0.789852 0
M  V30 4199 C 405.576 -3.00216 -0.885396 0
M  V30 4200 C 406.051 -4.45434 -1.06548 0
M  V30 4201 N 407.542 -4.49166 -1.13156 0
M  V30 4202 C 408.277 -5.58717 -1.28929 0
M  V30 4203 N 407.773 -6.78182 -1.41567 0
M  V30 4204 N 409.566 -5.46415 -1.31859 0
M  V30 4205 H 401.717 -2.05574 0.534147 0
M  V30 4206 H 403.98 -0.931259 0.177372 0
M  V30 4207 H 403.686 -3.51635 0.0675598 0
M  V30 4208 H 403.56 -3.37859 -1.67724 0
M  V30 4209 H 405.947 -2.38833 -1.73329 0
M  V30 4210 H 406.028 -2.55787 0.0261185 0
M  V30 4211 H 405.672 -5.07413 -0.222335 0
M  V30 4212 H 405.602 -4.87499 -1.9913 0
M  V30 4213 H 408.093 -3.631 -1.04721 0
M  V30 4214 H 408.406 -7.57428 -1.53372 0
M  V30 4215 H 406.751 -6.81037 -1.38613 0
M  V30 4216 H 409.942 -4.5203 -1.21601 0
M  V30 4217 H 410.115 -6.31841 -1.43808 0
M  V30 4218 N 403.521 0.559213 -1.47345 0
M  V30 4219 C 404.468 1.66645 -1.59682 0
M  V30 4220 C 405.438 1.60168 -0.43994 0
M  V30 4221 O 406.623 1.79031 -0.659736 0
M  V30 4222 C 403.763 3.04969 -1.61518 0
M  V30 4223 C 402.876 3.21897 -2.88108 0
M  V30 4224 C 402.011 4.50608 -2.81294 0
M  V30 4225 C 401.05 4.60961 -4.02717 0
M  V30 4226 N 400.187 5.81024 -3.94151 0
M  V30 4227 H 405.027 1.55439 -2.54249 0
M  V30 4228 H 402.564 0.757219 -1.26113 0
M  V30 4229 H 404.522 3.85064 -1.60566 0
M  V30 4230 H 403.152 3.15015 -0.704645 0
M  V30 4231 H 402.204 2.35248 -2.98936 0
M  V30 4232 H 403.516 3.25412 -3.78032 0
M  V30 4233 H 402.67 5.3896 -2.7858 0
M  V30 4234 H 401.409 4.49568 -1.89049 0
M  V30 4235 H 400.414 3.71021 -4.05738 0
M  V30 4236 H 401.639 4.63761 -4.96087 0
M  V30 4237 H 399.585 5.80938 -3.04708 0
M  V30 4238 H 399.502 5.85909 -4.77752 0
M  V30 4239 H 400.77 6.71744 -3.9545 0
M  V30 4240 N 404.999 1.35443 0.805782 0
M  V30 4241 C 406.245 1.28952 1.56522 0
M  V30 4242 C 406.578 -0.135597 1.93726 0
M  V30 4243 O 405.853 -1.08516 1.61414 0
M  V30 4244 C 406.136 2.19678 2.85331 0
M  V30 4245 C 405.989 3.7081 2.54598 0
M  V30 4246 C 407.308 2.09495 3.8704 0
M  V30 4247 H 404.427 0.469764 0.567883 0
M  V30 4248 H 407.069 1.65851 0.927001 0
M  V30 4249 H 405.219 1.8834 3.39795 0
M  V30 4250 H 406.891 4.12593 2.06312 0
M  V30 4251 H 405.134 3.91051 1.8778 0
M  V30 4252 H 405.805 4.29679 3.46525 0
M  V30 4253 H 408.281 2.37045 3.41978 0
M  V30 4254 H 407.157 2.75173 4.74943 0
M  V30 4255 H 407.418 1.07714 4.28777 0
M  V30 4256 N 406.477 -1.02803 1.19454 0
M  V30 4257 C 407.724 -1.76217 0.997693 0
M  V30 4258 C 408.052 -1.887 -0.47144 0
M  V30 4259 O 407.307 -1.4011 -1.3663 0
M  V30 4260 C 407.606 -3.18941 1.6128 0
M  V30 4261 C 407.272 -3.26463 3.11019 0
M  V30 4262 C 405.934 -3.28223 3.51885 0
M  V30 4263 C 408.286 -3.25542 4.07028 0
M  V30 4264 C 405.614 -3.26719 4.8731 0
M  V30 4265 C 407.966 -3.25579 5.42385 0
M  V30 4266 C 406.63 -3.25637 5.82681 0
M  V30 4267 H 405.9 -0.644823 0.365082 0
M  V30 4268 H 408.547 -1.20655 1.4871 0
M  V30 4269 H 406.852 -3.77587 1.04572 0
M  V30 4270 H 408.549 -3.74415 1.43577 0
M  V30 4271 H 405.139 -3.25822 2.78457 0
M  V30 4272 H 409.323 -3.23362 3.76498 0
M  V30 4273 H 404.579 -3.25089 5.1781 0
M  V30 4274 H 408.753 -3.23817 6.16535 0
M  V30 4275 H 406.38 -3.24226 6.87591 0
M  V30 4276 N 407.956 -0.998596 -1.21925 0
M  V30 4277 C 408.886 -0.573688 -2.26343 0
M  V30 4278 C 409.867 0.402296 -1.65274 0
M  V30 4279 O 411.052 0.291683 -1.91997 0
M  V30 4280 C 408.182 0.106839 -3.47136 0
M  V30 4281 C 407.136 -0.788269 -4.20678 0
M  V30 4282 C 406.462 0.0254927 -5.34694 0
M  V30 4283 C 407.762 -2.08784 -4.78755 0
M  V30 4284 H 409.456 -1.44651 -2.62138 0
M  V30 4285 H 407.002 -0.696975 -1.26009 0
M  V30 4286 H 408.955 0.415531 -4.19346 0
M  V30 4287 H 407.679 1.01424 -3.10452 0
M  V30 4288 H 406.338 -1.08069 -3.50309 0
M  V30 4289 H 405.986 0.933989 -4.94253 0
M  V30 4290 H 405.686 -0.570437 -5.84825 0
M  V30 4291 H 407.21 0.328147 -6.09718 0
M  V30 4292 H 408.624 -1.84272 -5.42878 0
M  V30 4293 H 407.021 -2.63307 -5.39249 0
M  V30 4294 H 408.091 -2.76284 -3.98491 0
M  V30 4295 N 409.434 1.37368 -0.772513 0
M  V30 4296 C 410.682 1.99279 -0.336516 0
M  V30 4297 C 411.003 1.6163 1.09091 0
M  V30 4298 O 410.273 0.882109 1.74916 0
M  V30 4299 H 408.853 0.737063 -0.121435 0
M  V30 4300 H 411.515 1.67836 -0.990809 0
M  V30 4301 H 410.611 3.09332 -0.414763 0
M  V30 4302 N 410.912 0.523116 1.48665 0
M  V30 4303 C 411.859 -0.243398 2.29513 0
M  V30 4304 C 412.829 -0.940139 1.36933 0
M  V30 4305 O 414.014 -0.942503 1.65896 0
M  V30 4306 C 411.154 -1.28855 3.20141 0
M  V30 4307 C 410.267 -0.60135 4.27794 0
M  V30 4308 C 409.402 -1.62884 5.05611 0
M  V30 4309 C 408.441 -0.924726 6.05075 0
M  V30 4310 N 407.578 -1.89744 6.75975 0
M  V30 4311 H 412.418 0.452234 2.94549 0
M  V30 4312 H 409.955 0.234858 1.45213 0
M  V30 4313 H 411.913 -1.90674 3.71079 0
M  V30 4314 H 410.543 -1.95266 2.57043 0
M  V30 4315 H 409.595 0.130623 3.80176 0
M  V30 4316 H 410.907 -0.0481585 4.98777 0
M  V30 4317 H 410.061 -2.32149 5.60528 0
M  V30 4318 H 408.8 -2.21592 4.34452 0
M  V30 4319 H 407.805 -0.217966 5.49368 0
M  V30 4320 H 409.03 -0.343851 6.78229 0
M  V30 4321 H 406.976 -2.47373 6.07571 0
M  V30 4322 H 406.893 -1.3955 7.43009 0
M  V30 4323 H 408.161 -2.58229 7.35485 0
M  V30 4324 N 412.39 -1.55475 0.257931 0
M  V30 4325 C 413.801 -1.8511 -0.243135 0
M  V30 4326 C 414.152 -1.17986 -1.5676 0
M  V30 4327 O 413.277 -0.462102 -2.11409 0
M  V30 4328 C 413.872 -3.35826 -0.447929 0
M  V30 4329 C 412.431 -3.65647 -0.893245 0
M  V30 4330 C 411.578 -2.7729 0.0232965 0
M  V30 4331 H 414.529 -1.51261 0.480199 0
M  V30 4332 H 414.55 -3.58002 -1.28898 0
M  V30 4333 H 414.062 -3.84652 0.516196 0
M  V30 4334 H 412.163 -3.22308 -1.86945 0
M  V30 4335 H 412.276 -4.73312 -0.742469 0
M  V30 4336 H 410.64 -2.49942 -0.490021 0
M  V30 4337 H 411.423 -3.28926 0.982994 0
M  V30 4338 N 413.868 0.0150385 -1.57593 0
M  V30 4339 C 415.096 0.714395 -1.94175 0
M  V30 4340 C 415.511 1.68135 -0.858841 0
M  V30 4341 O 414.868 1.81766 0.163567 0
M  V30 4342 C 414.919 1.45933 -3.30735 0
M  V30 4343 O 414.64 0.531167 -4.34868 0
M  V30 4344 C 416.141 2.25456 -3.81686 0
M  V30 4345 H 413.361 0.199923 -0.640525 0
M  V30 4346 H 415.905 -0.0316096 -2.04476 0
M  V30 4347 H 414.06 2.15709 -3.21789 0
M  V30 4348 H 414.474 1.05509 -5.13778 0
M  V30 4349 H 415.948 2.731 -4.79709 0
M  V30 4350 H 416.425 3.07485 -3.13607 0
M  V30 4351 H 417.031 1.60727 -3.9376 0
M  V30 4352 N 415.346 1.54954 0.287554 0
M  V30 4353 C 416.276 1.89839 1.35954 0
M  V30 4354 C 417.257 0.758675 1.52244 0
M  V30 4355 O 418.442 1.01557 1.65529 0
M  V30 4356 C 415.572 2.15753 2.72154 0
M  V30 4357 C 414.526 3.3159 2.70614 0
M  V30 4358 C 413.852 3.42952 4.10229 0
M  V30 4359 C 415.152 4.68359 2.31165 0
M  V30 4360 H 416.846 2.79625 1.07007 0
M  V30 4361 H 414.392 1.3454 0.513316 0
M  V30 4362 H 416.345 2.38743 3.47246 0
M  V30 4363 H 415.069 1.22752 3.02654 0
M  V30 4364 H 413.728 3.08545 1.97979 0
M  V30 4365 H 413.376 2.47443 4.37928 0
M  V30 4366 H 413.076 4.20826 4.10097 0
M  V30 4367 H 414.6 3.68218 4.87081 0
M  V30 4368 H 416.014 4.9099 2.95976 0
M  V30 4369 H 414.411 5.49044 2.42221 0
M  V30 4370 H 415.481 4.68165 1.26291 0
M  V30 4371 N 416.824 -0.551391 1.4764 0
M  V30 4372 C 418.235 -1.13349 1.48354 0
M  V30 4373 C 418.586 -1.94709 0.241432 0
M  V30 4374 O 417.711 -2.06306 -0.653205 0
M  V30 4375 C 418.306 -2.0623 2.68802 0
M  V30 4376 C 416.865 -2.597 2.72457 0
M  V30 4377 C 416.012 -1.36201 2.41546 0
M  V30 4378 H 418.963 -0.337698 1.55065 0
M  V30 4379 H 418.984 -2.90196 2.46103 0
M  V30 4380 H 418.496 -1.46987 3.59188 0
M  V30 4381 H 416.597 -3.22724 1.86225 0
M  V30 4382 H 416.71 -3.00296 3.73308 0
M  V30 4383 H 415.074 -1.67068 1.9225 0
M  V30 4384 H 415.857 -0.787425 3.34147 0
M  V30 4385 N 418.302 -1.35869 -0.798587 0
M  V30 4386 C 419.252 -1.25982 -1.90033 0
M  V30 4387 C 420.236 -0.153303 -1.60168 0
M  V30 4388 O 421.428 -0.38527 -1.72756 0
M  V30 4389 C 418.557 -1.04211 -3.27101 0
M  V30 4390 C 417.643 -2.19289 -3.63006 0
M  V30 4391 N 418.034 -3.44559 -3.70287 0
M  V30 4392 C 416.332 -2.10852 -3.93011 0
M  V30 4393 C 417.033 -4.20283 -4.02166 0
M  V30 4394 N 416.009 -3.49124 -4.16669 0
M  V30 4395 H 419.811 -2.20883 -1.93876 0
M  V30 4396 H 417.325 -1.28457 -0.993614 0
M  V30 4397 H 419.322 -0.952155 -4.05881 0
M  V30 4398 H 417.982 -0.102013 -3.2454 0
M  V30 4399 H 418.993 -3.7881 -3.53162 0
M  V30 4400 H 415.67 -1.24744 -3.98428 0
M  V30 4401 H 417.06 -5.28575 -4.14799 0
M  V30 4402 N 419.78 1.02168 -1.19998 0
M  V30 4403 C 420.743 2.08765 -0.94604 0
M  V30 4404 C 421.743 1.60618 0.0763846 0
M  V30 4405 O 422.933 1.73472 -0.159135 0
M  V30 4406 C 420.065 3.38262 -0.423255 0
M  V30 4407 H 421.258 2.32726 -1.89153 0
M  V30 4408 H 418.811 1.1889 -1.01464 0
M  V30 4409 H 419.546 3.19974 0.527938 0
M  V30 4410 H 419.331 3.74532 -1.16053 0
M  V30 4411 H 420.821 4.16759 -0.264911 0
M  V30 4412 N 421.258 1.00505 1.21394 0
M  V30 4413 C 422.669 0.721082 1.72213 0
M  V30 4414 C 423.02 -0.761263 1.80829 0
M  V30 4415 O 422.145 -1.59464 1.46288 0
M  V30 4416 C 422.74 1.30228 3.12772 0
M  V30 4417 C 421.299 1.06743 3.60947 0
M  V30 4418 C 420.446 1.41507 2.38477 0
M  V30 4419 H 423.397 1.17594 1.06571 0
M  V30 4420 H 423.418 0.686955 3.74247 0
M  V30 4421 H 422.93 2.38115 3.06468 0
M  V30 4422 H 421.031 0.00572162 3.726 0
M  V30 4423 H 421.144 1.73936 4.46411 0
M  V30 4424 H 419.508 0.833852 2.40664 0
M  V30 4425 H 420.291 2.50424 2.34824 0
M  V30 4426 N 422.737 -1.36956 0.779787 0
M  V30 4427 C 423.687 -2.27539 0.144892 0
M  V30 4428 C 424.671 -1.46493 -0.665488 0
M  V30 4429 O 425.863 -1.68968 -0.527141 0
M  V30 4430 C 422.992 -3.35512 -0.727082 0
M  V30 4431 C 422.078 -4.24001 0.0915642 0
M  V30 4432 N 422.469 -4.92757 1.14125 0
M  V30 4433 C 420.767 -4.45807 -0.131141 0
M  V30 4434 C 421.468 -5.58138 1.6388 0
M  V30 4435 N 420.444 -5.35241 0.94962 0
M  V30 4436 H 424.246 -2.78176 0.948446 0
M  V30 4437 H 421.76 -1.50169 0.618315 0
M  V30 4438 H 423.757 -3.99324 -1.19776 0
M  V30 4439 H 422.417 -2.86431 -1.52929 0
M  V30 4440 H 423.428 -4.94984 1.52353 0
M  V30 4441 H 420.105 -4.07582 -0.904621 0
M  V30 4442 H 421.495 -6.23071 2.51461 0
M  V30 4443 N 424.215 -0.530993 -1.48385 0
M  V30 4444 C 425.165 0.251092 -2.26613 0
M  V30 4445 C 426.149 0.908977 -1.32765 0
M  V30 4446 O 427.341 0.811616 -1.57295 0
M  V30 4447 C 424.47 1.29677 -3.17866 0
M  V30 4448 C 423.556 0.643627 -4.19188 0
M  V30 4449 N 423.947 -0.271223 -5.05072 0
M  V30 4450 C 422.245 0.900711 -4.3681 0
M  V30 4451 C 422.946 -0.648109 -5.78078 0
M  V30 4452 N 421.922 -0.00895987 -5.43599 0
M  V30 4453 H 425.724 -0.452702 -2.90393 0
M  V30 4454 H 423.238 -0.349091 -1.58604 0
M  V30 4455 H 425.235 1.87079 -3.72568 0
M  V30 4456 H 423.895 2.00193 -2.55642 0
M  V30 4457 H 424.906 -0.643883 -5.13882 0
M  V30 4458 H 421.583 1.59636 -3.85775 0
M  V30 4459 H 422.973 -1.39833 -6.57188 0
M  V30 4460 N 425.693 1.55336 -0.266172 0
M  V30 4461 C 426.64 2.22172 0.625165 0
M  V30 4462 C 427.61 1.19211 1.15663 0
M  V30 4463 O 428.795 1.47723 1.20758 0
M  V30 4464 C 425.935 2.93972 1.8076 0
M  V30 4465 C 425.048 4.11632 1.31084 0
M  V30 4466 C 424.183 4.71099 2.45436 0
M  V30 4467 C 423.222 5.8097 1.92718 0
M  V30 4468 N 422.359 6.34538 3.00509 0
M  V30 4469 H 427.199 2.9796 0.0485582 0
M  V30 4470 H 424.736 1.47095 0.0122024 0
M  V30 4471 H 426.694 3.33811 2.50251 0
M  V30 4472 H 425.324 2.20623 2.35638 0
M  V30 4473 H 424.376 3.76975 0.509326 0
M  V30 4474 H 425.688 4.90893 0.884633 0
M  V30 4475 H 424.842 5.13612 3.22936 0
M  V30 4476 H 423.581 3.91096 2.91368 0
M  V30 4477 H 422.586 5.37916 1.13695 0
M  V30 4478 H 423.811 6.62836 1.47733 0
M  V30 4479 H 421.757 5.57433 3.45839 0
M  V30 4480 H 421.674 7.09046 2.62279 0
M  V30 4481 H 422.942 6.81709 3.78011 0
M  V30 4482 N 427.171 -0.0066808 1.57599 0
M  V30 4483 C 428.582 -0.550379 1.78403 0
M  V30 4484 C 428.933 -1.74339 0.900014 0
M  V30 4485 O 428.058 -2.16166 0.100713 0
M  V30 4486 C 428.653 -1.00523 3.23544 0
M  V30 4487 C 427.212 -1.49428 3.45468 0
M  V30 4488 C 426.359 -0.442444 2.73748 0
M  V30 4489 H 429.31 0.219508 1.57175 0
M  V30 4490 H 429.331 -1.87157 3.31289 0
M  V30 4491 H 428.843 -0.136735 3.87859 0
M  V30 4492 H 426.944 -2.3839 2.86358 0
M  V30 4493 H 427.057 -1.52635 4.54136 0
M  V30 4494 H 425.421 -0.902578 2.38171 0
M  V30 4495 H 426.204 0.416973 3.40758 0
M  V30 4496 N 428.649 -1.55105 -0.279332 0
M  V30 4497 C 429.874 -1.7976 -1.03446 0
M  V30 4498 C 430.299 -0.565952 -1.79384 0
M  V30 4499 O 429.657 0.484259 -1.74713 0
M  V30 4500 C 429.705 -3.0179 -1.97371 0
M  V30 4501 O 428.809 -2.76432 -3.06038 0
M  V30 4502 H 428.15 -0.594334 -0.29608 0
M  V30 4503 H 430.68 -2.02235 -0.310165 0
M  V30 4504 H 430.69 -3.30351 -2.39441 0
M  V30 4505 H 429.365 -3.91085 -1.4151 0
M  V30 4506 H 427.942 -2.58949 -2.68328 0
M  V30 4507 N 430.127 0.543554 -1.4793 0
M  V30 4508 C 431.376 1.29649 -1.54512 0
M  V30 4509 C 431.689 1.94382 -0.217973 0
M  V30 4510 O 432.895 2.71017 -0.161908 0
M  V30 4511 C 431.351 2.35175 -2.72435 0
M  V30 4512 C 430.959 1.76572 -4.11736 0
M  V30 4513 C 432.703 3.11564 -2.8832 0
M  V30 4514 C 430.61 2.79958 -5.20939 0
M  V30 4515 H 429.54 0.487541 -0.57517 0
M  V30 4516 H 432.191 0.575708 -1.74235 0
M  V30 4517 H 430.573 3.10229 -2.46118 0
M  V30 4518 H 431.747 1.07799 -4.48013 0
M  V30 4519 H 430.062 1.12722 -4.00852 0
M  V30 4520 H 432.659 3.88794 -3.67074 0
M  V30 4521 H 433.002 3.66594 -1.97268 0
M  V30 4522 H 433.535 2.43623 -3.14472 0
M  V30 4523 H 430.274 2.29766 -6.13912 0
M  V30 4524 H 429.794 3.47101 -4.89164 0
M  V30 4525 H 431.473 3.43198 -5.48474 0
M  V30 4526 N 431.605 1.3629 0.791371 0
M  V30 4527 C 433.016 1.27225 1.36641 0
M  V30 4528 C 433.367 -0.0887968 1.95999 0
M  V30 4529 O 432.492 -0.990207 1.92416 0
M  V30 4530 C 433.087 2.30375 2.48421 0
M  V30 4531 C 431.646 2.25004 3.01746 0
M  V30 4532 C 430.793 2.15259 1.7481 0
M  V30 4533 H 433.744 1.47198 0.593173 0
M  V30 4534 H 433.765 1.93905 3.27385 0
M  V30 4535 H 433.277 3.29422 2.05189 0
M  V30 4536 H 431.378 1.29417 3.49403 0
M  V30 4537 H 431.491 3.1761 3.58693 0
M  V30 4538 H 429.855 1.61482 1.96966 0
M  V30 4539 H 430.638 3.16191 1.33709 0
M  V30 4540 N 433.083 -1.0153 1.20538 0
M  V30 4541 C 434.36 -1.72327 0.925343 0
M  V30 4542 C 434.74 -2.03383 -0.565547 0
M  V30 4543 O 434.088 -1.69934 -1.52757 0
M  V30 4544 C 434.298 -2.9902 1.79967 0
M  V30 4545 C 435.646 -3.72258 2.04228 0
M  V30 4546 O 436.67 -3.08979 1.77231 0
M  V30 4547 O 435.529 -4.86053 2.4983 0
M  V30 4548 H 432.623 -0.751099 0.346092 0
M  V30 4549 H 435.169 -1.07366 1.31417 0
M  V30 4550 H 433.941 -2.72402 2.80915 0
M  V30 4551 H 433.564 -3.71721 1.41099 0
M  V30 4552 N 434.561 -1.01147 -1.20859 0
M  V30 4553 C 435.491 -0.597663 -2.25722 0
M  V30 4554 C 436.472 0.384744 -1.65692 0
M  V30 4555 O 437.657 0.271303 -1.92296 0
M  V30 4556 C 434.787 0.0700149 -3.47229 0
M  V30 4557 C 433.741 -0.832843 -4.19819 0
M  V30 4558 C 433.067 -0.0312202 -5.34691 0
M  V30 4559 C 434.367 -2.1385 -4.76514 0
M  V30 4560 H 436.061 -1.47423 -2.60589 0
M  V30 4561 H 433.607 -0.710301 -1.25263 0
M  V30 4562 H 435.56 0.37103 -4.19763 0
M  V30 4563 H 434.284 0.981259 -3.11511 0
M  V30 4564 H 432.943 -1.11778 -3.49144 0
M  V30 4565 H 432.591 0.881515 -4.95215 0
M  V30 4566 H 432.291 -0.632434 -5.84187 0
M  V30 4567 H 433.815 0.26346 -6.10031 0
M  V30 4568 H 435.229 -1.9002 -5.40893 0
M  V30 4569 H 433.626 -2.69012 -5.36426 0
M  V30 4570 H 434.696 -2.80495 -3.95538 0
M  V30 4571 N 436.039 1.36541 -0.78704 0
M  V30 4572 C 437.279 2.01138 -0.363714 0
M  V30 4573 C 437.643 1.61114 1.04433 0
M  V30 4574 O 438.844 2.18285 1.56861 0
M  V30 4575 C 437.115 3.53603 -0.519582 0
M  V30 4576 S 438.674 4.38415 -0.183782 0
M  V30 4577 H 435.492 0.697263 -0.13909 0
M  V30 4578 H 438.094 1.66475 -1.02501 0
M  V30 4579 H 436.798 3.8022 -1.5447 0
M  V30 4580 H 436.329 3.93084 0.15773 0
M  V30 4581 H 438.344 4.85698 1.01547 0
M  V30 4582 N 437.518 0.538854 1.48102 0
M  V30 4583 C 438.795 -0.0568108 1.95517 0
M  V30 4584 C 439.175 -1.50408 1.48124 0
M  V30 4585 O 438.523 -2.17133 0.711727 0
M  V30 4586 C 438.733 0.0696262 3.48931 0
M  V30 4587 C 440.081 -0.0851202 4.24515 0
M  V30 4588 O 441.105 -0.0037347 3.562 0
M  V30 4589 O 439.964 -0.257025 5.45895 0
M  V30 4590 H 437.058 -0.0743695 0.823649 0
M  V30 4591 H 439.604 0.604081 1.58584 0
M  V30 4592 H 438.376 1.07744 3.76174 0
M  V30 4593 H 437.999 -0.629714 3.92582 0
M  V30 4594 N 438.996 -1.55193 0.274407 0
M  V30 4595 C 440.221 -2.04446 -0.348824 0
M  V30 4596 C 440.646 -1.15149 -1.48735 0
M  V30 4597 O 440.004 -0.149952 -1.80679 0
M  V30 4598 C 440.052 -3.51431 -0.808009 0
M  V30 4599 O 439.156 -3.65225 -1.91531 0
M  V30 4600 H 438.497 -0.66006 -0.0722276 0
M  V30 4601 H 441.027 -2.00481 0.408498 0
M  V30 4602 H 441.037 -3.92781 -1.10395 0
M  V30 4603 H 439.712 -4.15892 0.0249865 0
M  V30 4604 H 438.289 -3.35778 -1.62196 0
M  V30 4605 N 440.474 -0.00167713 -1.576 0
M  V30 4606 C 441.699 0.69739 -1.95323 0
M  V30 4607 C 442.124 1.6642 -0.876706 0
M  V30 4608 O 441.482 1.80548 0.165007 0
M  V30 4609 C 441.53 1.40403 -3.32144 0
M  V30 4610 O 440.634 2.5185 -3.26566 0
M  V30 4611 H 439.975 0.185373 -0.637599 0
M  V30 4612 H 442.505 -0.0553665 -2.04525 0
M  V30 4613 H 442.515 1.76707 -3.67748 0
M  V30 4614 H 441.19 0.695167 -4.10049 0
M  V30 4615 H 439.767 2.17861 -3.0264 0
M  V30 4616 N 441.952 1.55251 0.271103 0
M  V30 4617 C 443.177 1.80306 1.02491 0
M  V30 4618 C 443.602 0.575457 1.79081 0
M  V30 4619 O 442.96 -0.474987 1.74967 0
M  V30 4620 C 443.008 3.02832 1.95768 0
M  V30 4621 O 442.112 2.78051 3.04568 0
M  V30 4622 H 441.453 0.595896 0.292923 0
M  V30 4623 H 443.983 2.02397 0.299436 0
M  V30 4624 H 443.993 3.31616 2.37686 0
M  V30 4625 H 442.668 3.9183 1.39434 0
M  V30 4626 H 441.245 2.60369 2.66951 0
M  V30 4627 N 443.43 -0.535701 1.48216 0
M  V30 4628 C 444.655 -1.32149 1.59848 0
M  V30 4629 C 445.08 -1.86338 0.256842 0
M  V30 4630 O 444.438 -1.64107 -0.770632 0
M  V30 4631 C 444.486 -2.45224 2.64381 0
M  V30 4632 O 443.59 -3.48093 2.21144 0
M  V30 4633 H 442.931 -0.391634 0.536208 0
M  V30 4634 H 445.461 -0.645202 1.94161 0
M  V30 4635 H 445.471 -2.91491 2.85476 0
M  V30 4636 H 444.146 -2.05143 3.61786 0
M  V30 4637 H 442.723 -3.07984 2.10239 0
M  V30 4638 N 444.908 -1.36708 -0.784132 0
M  V30 4639 C 446.155 -1.31231 -1.54222 0
M  V30 4640 C 446.483 0.106864 -1.94206 0
M  V30 4641 O 445.738 1.07734 -1.63376 0
M  V30 4642 C 446.037 -2.18571 -2.82774 0
M  V30 4643 C 445.703 -3.67039 -2.61903 0
M  V30 4644 C 444.365 -4.07503 -2.55919 0
M  V30 4645 C 446.717 -4.61149 -2.4288 0
M  V30 4646 C 444.045 -5.40211 -2.28886 0
M  V30 4647 C 446.397 -5.94081 -2.17373 0
M  V30 4648 C 445.061 -6.33664 -2.09825 0
M  V30 4649 H 444.331 -0.48021 -0.56434 0
M  V30 4650 H 446.978 -1.68807 -0.904233 0
M  V30 4651 H 445.283 -1.73949 -3.51068 0
M  V30 4652 H 446.98 -2.11655 -3.40592 0
M  V30 4653 H 443.57 -3.34941 -2.67418 0
M  V30 4654 H 447.754 -4.30756 -2.46501 0
M  V30 4655 H 443.01 -5.69855 -2.21529 0
M  V30 4656 H 447.184 -6.66566 -2.01649 0
M  V30 4657 H 444.811 -7.36423 -1.88641 0
M  V30 4658 N 446.386 1.0089 -1.21074 0
M  V30 4659 C 447.663 1.71834 -0.934469 0
M  V30 4660 C 448.043 2.0368 0.554753 0
M  V30 4661 O 447.391 1.70742 1.51854 0
M  V30 4662 C 447.601 2.98061 -1.8155 0
M  V30 4663 C 448.949 3.7117 -2.06199 0
M  V30 4664 O 449.973 3.08034 -1.78867 0
M  V30 4665 O 448.832 4.84721 -2.52404 0
M  V30 4666 H 445.926 0.749253 -0.35007 0
M  V30 4667 H 448.472 1.06668 -1.31985 0
M  V30 4668 H 447.244 2.70908 -2.82355 0
M  V30 4669 H 446.867 3.70968 -1.43068 0
M  V30 4670 N 447.864 1.01787 1.20321 0
M  V30 4671 C 448.827 0.593972 2.2137 0
M  V30 4672 C 449.827 -0.336553 1.57239 0
M  V30 4673 O 451.017 -0.125069 1.7375 0
M  V30 4674 C 448.149 -0.132433 3.40643 0
M  V30 4675 H 449.342 1.48791 2.60387 0
M  V30 4676 H 446.895 0.807803 1.33807 0
M  V30 4677 H 447.63 -1.04123 3.0713 0
M  V30 4678 H 447.415 0.53605 3.88418 0
M  V30 4679 H 448.905 -0.416314 4.1552 0
M  V30 4680 N 449.342 -1.36122 0.79427 0
M  V30 4681 C 450.588 -1.99406 0.369452 0
M  V30 4682 C 450.921 -1.62886 -1.05743 0
M  V30 4683 O 450.196 -0.886053 -1.73145 0
M  V30 4684 C 450.479 -3.56046 0.538833 0
M  V30 4685 C 450.332 -4.02404 2.00976 0
M  V30 4686 C 451.651 -4.40079 -0.0431359 0
M  V30 4687 H 448.77 -0.724397 0.135712 0
M  V30 4688 H 451.412 -1.61461 1.00151 0
M  V30 4689 H 449.562 -3.885 0.000771004 0
M  V30 4690 H 451.234 -3.80415 2.60926 0
M  V30 4691 H 449.477 -3.53765 2.51063 0
M  V30 4692 H 450.148 -5.11344 2.07922 0
M  V30 4693 H 452.624 -4.14013 0.416228 0
M  V30 4694 H 451.5 -5.48799 0.105374 0
M  V30 4695 H 451.761 -4.27264 -1.13571 0
M  V30 4696 N 450.82 -0.546701 -1.47814 0
M  V30 4697 C 452.048 -0.0232857 -2.06887 0
M  V30 4698 C 452.463 1.26571 -1.4009 0
M  V30 4699 O 451.82 1.7569 -0.493906 0
M  V30 4700 C 451.871 0.186975 -3.61016 0
M  V30 4701 O 451.592 -1.05097 -4.25307 0
M  V30 4702 C 453.093 0.748872 -4.36929 0
M  V30 4703 H 450.313 -0.0410763 -0.669742 0
M  V30 4704 H 452.857 -0.757117 -1.89968 0
M  V30 4705 H 451.012 0.870903 -3.77484 0
M  V30 4706 H 451.426 -0.842121 -5.17695 0
M  V30 4707 H 452.9 0.845334 -5.45489 0
M  V30 4708 H 453.377 1.75772 -4.02493 0
M  V30 4709 H 453.983 0.100979 -4.2518 0
M  V30 4710 N 452.299 1.55045 -0.282633 0
M  V30 4711 C 453.232 2.18951 0.64311 0
M  V30 4712 C 454.21 1.15287 1.14664 0
M  V30 4713 O 455.394 1.43846 1.21822 0
M  V30 4714 C 452.521 2.81874 1.87789 0
M  V30 4715 C 451.567 3.98906 1.50919 0
M  V30 4716 S 452.4 5.3234 0.580884 0
M  V30 4717 C 453.556 5.98737 1.82387 0
M  V30 4718 H 453.789 2.97131 0.100138 0
M  V30 4719 H 451.322 1.54255 -0.0668514 0
M  V30 4720 H 453.28 3.18757 2.58658 0
M  V30 4721 H 451.941 2.03573 2.392 0
M  V30 4722 H 451.134 4.4165 2.42819 0
M  V30 4723 H 450.736 3.63485 0.88061 0
M  V30 4724 H 453.028 6.18427 2.76684 0
M  V30 4725 H 453.971 6.93318 1.4393 0
M  V30 4726 H 454.379 5.28177 1.99223 0
M  V30 4727 N 453.777 0.010035 1.57597 0
M  V30 4728 C 454.707 -0.976857 2.12084 0
M  V30 4729 C 455.688 -1.35191 1.03235 0
M  V30 4730 O 456.873 -1.43389 1.3097 0
M  V30 4731 C 454.003 -2.26548 2.63236 0
M  V30 4732 C 452.957 -2.03175 3.76701 0
M  V30 4733 C 452.283 -3.38138 4.14206 0
M  V30 4734 C 453.583 -1.38625 5.03568 0
M  V30 4735 H 455.277 -0.523145 2.94794 0
M  V30 4736 H 452.823 -0.250195 1.4181 0
M  V30 4737 H 454.776 -2.95952 2.99984 0
M  V30 4738 H 453.5 -2.74051 1.77661 0
M  V30 4739 H 452.159 -1.36195 3.40362 0
M  V30 4740 H 451.807 -3.83363 3.25641 0
M  V30 4741 H 451.507 -3.23312 4.90656 0
M  V30 4742 H 453.031 -4.08841 4.53521 0
M  V30 4743 H 454.445 -1.98 5.38023 0
M  V30 4744 H 452.842 -1.34256 5.84889 0
M  V30 4745 H 453.912 -0.356722 4.83586 0
M  V30 4746 N 455.255 -1.55392 -0.262866 0
M  V30 4747 C 456.503 -1.76127 -0.991147 0
M  V30 4748 C 456.824 -0.571083 -1.8645 0
M  V30 4749 O 456.094 0.413698 -1.91482 0
M  V30 4750 H 454.674 -0.649528 -0.368948 0
M  V30 4751 H 457.336 -1.9281 -0.284655 0
M  V30 4752 H 456.432 -2.6663 -1.62219 0
M  V30 4753 N 456.733 0.527833 -1.48498 0
M  V30 4754 C 457.68 1.6322 -1.6318 0
M  V30 4755 C 458.65 1.59199 -0.473815 0
M  V30 4756 O 459.835 1.77591 -0.697563 0
M  V30 4757 C 456.975 3.01474 -1.67951 0
M  V30 4758 C 456.088 3.15713 -2.94871 0
M  V30 4759 C 455.223 4.44539 -2.90789 0
M  V30 4760 C 454.262 4.52315 -4.12404 0
M  V30 4761 N 453.399 5.72533 -4.06387 0
M  V30 4762 H 458.239 1.50011 -2.57489 0
M  V30 4763 H 455.776 0.730298 -1.27691 0
M  V30 4764 H 457.734 3.81572 -1.68698 0
M  V30 4765 H 456.364 3.1345 -0.771306 0
M  V30 4766 H 455.416 2.28854 -3.03859 0
M  V30 4767 H 456.728 3.1732 -3.8485 0
M  V30 4768 H 455.882 5.3293 -2.89949 0
M  V30 4769 H 454.621 4.45457 -1.98542 0
M  V30 4770 H 453.626 3.62331 -4.13517 0
M  V30 4771 H 454.851 4.53134 -5.05812 0
M  V30 4772 H 452.797 5.74344 -3.16962 0
M  V30 4773 H 452.714 5.75643 -4.90073 0
M  V30 4774 H 453.982 6.63204 -4.0961 0
M  V30 4775 N 458.211 1.37122 0.776871 0
M  V30 4776 C 459.121 1.34651 1.9211 0
M  V30 4777 C 460.137 0.246824 1.7224 0
M  V30 4778 O 461.313 0.48134 1.95563 0
M  V30 4779 C 458.378 1.14748 3.2716 0
M  V30 4780 C 457.439 2.34308 3.5972 0
M  V30 4781 C 456.672 2.15345 4.88326 0
M  V30 4782 O 456.895 1.13507 5.58992 0
M  V30 4783 O 455.829 3.03414 5.1983 0
M  V30 4784 H 459.655 2.31013 1.97146 0
M  V30 4785 H 457.24 1.17799 0.918901 0
M  V30 4786 H 459.122 1.05616 4.0795 0
M  V30 4787 H 457.797 0.214562 3.22988 0
M  V30 4788 H 456.704 2.49011 2.79185 0
M  V30 4789 H 458.037 3.26149 3.68629 0
M  V30 4790 N 459.689 -1.00246 1.21608 0
M  V30 4791 C 460.619 -2.10921 1.00172 0
M  V30 4792 C 461.6 -1.69938 -0.0741587 0
M  V30 4793 O 462.785 -1.94009 0.0861753 0
M  V30 4794 C 459.915 -3.42618 0.568355 0
M  V30 4795 C 458.869 -3.97407 1.58909 0
M  V30 4796 C 458.195 -5.25038 1.01187 0
M  V30 4797 C 459.495 -4.2918 2.97661 0
M  V30 4798 H 461.189 -2.29112 1.92739 0
M  V30 4799 H 458.735 -1.10101 0.928102 0
M  V30 4800 H 460.688 -4.19444 0.405555 0
M  V30 4801 H 459.412 -3.24227 -0.392961 0
M  V30 4802 H 458.071 -3.22703 1.73949 0
M  V30 4803 H 457.719 -5.02982 0.0421965 0
M  V30 4804 H 457.419 -5.62661 1.6937 0
M  V30 4805 H 458.943 -6.04507 0.860448 0
M  V30 4806 H 460.357 -4.96839 2.86049 0
M  V30 4807 H 458.754 -4.77952 3.6288 0
M  V30 4808 H 459.824 -3.3735 3.48315 0
M  V30 4809 N 461.167 -1.02423 -1.1978 0
M  V30 4810 C 462.097 -0.62157 -2.25075 0
M  V30 4811 C 463.078 0.367148 -1.6609 0
M  V30 4812 O 464.263 0.250892 -1.92573 0
M  V30 4813 C 461.393 0.0331826 -3.47284 0
M  V30 4814 C 460.347 -0.877323 -4.18912 0
M  V30 4815 C 459.673 -0.0879296 -5.34628 0
M  V30 4816 C 460.973 -2.18892 -4.74219 0
M  V30 4817 H 462.667 -1.50179 -2.59011 0
M  V30 4818 H 460.213 -0.723547 -1.24502 0
M  V30 4819 H 462.166 0.326488 -4.20133 0
M  V30 4820 H 460.89 0.948164 -3.12534 0
M  V30 4821 H 459.549 -1.15475 -3.47938 0
M  V30 4822 H 459.197 0.828941 -4.96123 0
M  V30 4823 H 458.897 -0.694359 -5.83483 0
M  V30 4824 H 460.421 0.198743 -6.10276 0
M  V30 4825 H 461.835 -1.95746 -5.38847 0
M  V30 4826 H 460.232 -2.74686 -5.33542 0
M  V30 4827 H 461.302 -2.84674 -3.92541 0
M  V30 4828 N 462.645 1.35699 -0.801477 0
M  V30 4829 C 463.575 2.32436 -0.222658 0
M  V30 4830 C 464.556 1.5723 0.649057 0
M  V30 4831 O 465.741 1.85324 0.580387 0
M  V30 4832 C 462.871 3.41469 0.633719 0
M  V30 4833 C 461.825 4.27774 -0.139083 0
M  V30 4834 C 461.151 5.28082 0.838666 0
M  V30 4835 C 462.451 5.04946 -1.33517 0
M  V30 4836 H 464.145 2.81094 -1.03086 0
M  V30 4837 H 461.691 1.35146 -0.497155 0
M  V30 4838 H 463.644 4.08143 1.04868 0
M  V30 4839 H 462.368 2.91408 1.47475 0
M  V30 4840 H 461.027 3.62673 -0.535156 0
M  V30 4841 H 460.675 4.7429 1.67506 0
M  V30 4842 H 460.375 5.86695 0.32594 0
M  V30 4843 H 461.899 5.97628 1.25194 0
M  V30 4844 H 463.313 5.64593 -0.995349 0
M  V30 4845 H 461.71 5.7303 -1.78202 0
M  V30 4846 H 462.78 4.35886 -2.12442 0
M  V30 4847 N 464.123 0.554532 1.47522 0
M  V30 4848 C 465.37 0.029479 2.02479 0
M  V30 4849 C 465.698 -1.31929 1.42916 0
M  V30 4850 O 464.953 -1.87112 0.573385 0
M  V30 4851 C 465.252 -0.115927 3.57212 0
M  V30 4852 C 464.918 1.16161 4.3568 0
M  V30 4853 C 463.58 1.51168 4.56839 0
M  V30 4854 C 465.932 2.0083 4.80954 0
M  V30 4855 C 463.26 2.70696 5.2052 0
M  V30 4856 C 465.612 3.19559 5.45953 0
M  V30 4857 C 464.276 3.54882 5.65345 0
M  V30 4858 H 463.546 0.0107871 0.740921 0
M  V30 4859 H 466.193 0.725506 1.77225 0
M  V30 4860 H 464.498 -0.894902 3.81443 0
M  V30 4861 H 466.195 -0.53749 3.97381 0
M  V30 4862 H 462.785 0.879026 4.19489 0
M  V30 4863 H 466.969 1.75093 4.64388 0
M  V30 4864 H 462.225 2.98236 5.33728 0
M  V30 4865 H 466.399 3.85456 5.79997 0
M  V30 4866 H 464.026 4.47596 6.1446 0
M  V30 4867 N 465.601 -1.54893 0.290851 0
M  V30 4868 C 466.548 -2.23138 -0.58974 0
M  V30 4869 C 467.518 -1.21036 -1.13752 0
M  V30 4870 O 468.703 -1.49626 -1.18392 0
M  V30 4871 C 465.843 -2.96811 -1.76061 0
M  V30 4872 C 464.956 -4.13665 -1.24519 0
M  V30 4873 C 464.091 -4.74944 -2.3791 0
M  V30 4874 C 463.13 -5.83963 -1.83451 0
M  V30 4875 N 462.267 -6.39239 -2.90376 0
M  V30 4876 H 467.107 -2.98 -0.00114915 0
M  V30 4877 H 464.644 -1.47096 0.0112006 0
M  V30 4878 H 466.602 -3.37751 -2.44909 0
M  V30 4879 H 465.232 -2.24344 -2.32098 0
M  V30 4880 H 464.284 -3.77737 -0.449288 0
M  V30 4881 H 465.596 -4.92238 -0.806424 0
M  V30 4882 H 464.75 -5.18684 -3.14724 0
M  V30 4883 H 463.489 -3.95682 -2.85109 0
M  V30 4884 H 462.494 -5.39657 -1.05122 0
M  V30 4885 H 463.719 -6.65103 -1.37169 0
M  V30 4886 H 461.665 -5.62864 -3.36927 0
M  V30 4887 H 461.582 -7.13129 -2.50965 0
M  V30 4888 H 462.85 -6.87637 -3.67118 0
M  V30 4889 N 467.08 -0.0183926 -1.57589 0
M  V30 4890 C 468.357 0.700621 -1.82622 0
M  V30 4891 C 468.737 1.90951 -0.90005 0
M  V30 4892 O 468.085 2.28452 0.0469145 0
M  V30 4893 C 468.295 1.08899 -3.31575 0
M  V30 4894 C 469.643 1.48514 -3.9778 0
M  V30 4895 O 470.667 1.18227 -3.36007 0
M  V30 4896 O 469.526 2.04903 -5.06633 0
M  V30 4897 H 466.62 0.342743 -0.752633 0
M  V30 4898 H 469.166 -0.0452548 -1.6964 0
M  V30 4899 H 467.938 0.228113 -3.90635 0
M  V30 4900 H 467.561 1.89338 -3.49624 0
M  V30 4901 N 468.558 1.5553 0.254621 0
M  V30 4902 C 469.974 1.4778 0.602753 0
M  V30 4903 C 470.174 0.707047 1.88688 0
M  V30 4904 O 469.23 0.233288 2.5142 0
M  V30 4905 C 470.543 2.92133 0.712648 0
M  V30 4906 C 472.091 3.02458 0.805488 0
M  V30 4907 C 472.566 4.48102 0.947009 0
M  V30 4908 N 474.057 4.52008 1.01207 0
M  V30 4909 C 474.792 5.61939 1.1407 0
M  V30 4910 N 474.288 6.81697 1.23536 0
M  V30 4911 N 476.081 5.49719 1.17325 0
M  V30 4912 H 468.232 2.04085 -0.588463 0
M  V30 4913 H 470.495 0.926229 -0.202001 0
M  V30 4914 H 470.201 3.51332 -0.160766 0
M  V30 4915 H 470.075 3.42187 1.58707 0
M  V30 4916 H 472.462 2.43344 1.66936 0
M  V30 4917 H 472.543 2.55627 -0.0939266 0
M  V30 4918 H 472.187 5.07824 0.087725 0
M  V30 4919 H 472.117 4.92607 1.86135 0
M  V30 4920 H 474.608 3.65749 0.950577 0
M  V30 4921 H 474.921 7.61228 1.33236 0
M  V30 4922 H 473.266 6.84473 1.20508 0
M  V30 4923 H 476.457 4.55095 1.09573 0
M  V30 4924 H 476.63 6.35432 1.27005 0
M  V30 4925 N 470.036 -0.519951 1.48776 0
M  V30 4926 C 471.285 -1.27175 1.56555 0
M  V30 4927 C 471.598 -1.9401 0.248869 0
M  V30 4928 O 472.804 -2.70725 0.205004 0
M  V30 4929 C 471.26 -2.30811 2.76142 0
M  V30 4930 C 470.868 -1.7 4.14493 0
M  V30 4931 C 472.612 -3.06937 2.9324 0
M  V30 4932 C 470.519 -2.71635 5.25327 0
M  V30 4933 H 469.449 -0.478329 0.582853 0
M  V30 4934 H 472.1 -0.547916 1.75129 0
M  V30 4935 H 470.482 -3.06274 2.51023 0
M  V30 4936 H 471.656 -1.00658 4.49672 0
M  V30 4937 H 469.971 -1.06331 4.02595 0
M  V30 4938 H 472.568 -3.82905 3.73213 0
M  V30 4939 H 472.911 -3.63409 2.03075 0
M  V30 4940 H 473.444 -2.38589 3.18308 0
M  V30 4941 H 470.183 -2.1997 6.1749 0
M  V30 4942 H 469.703 -3.39275 4.94624 0
M  V30 4943 H 471.382 -3.34429 5.53865 0
M  V30 4944 N 471.514 -1.37532 -0.769588 0
M  V30 4945 C 472.761 -1.3286 -1.52822 0
M  V30 4946 C 473.089 0.0862597 -1.94309 0
M  V30 4947 O 472.344 1.05995 -1.6451 0
M  V30 4948 C 472.643 -2.21558 -2.8044 0
M  V30 4949 C 472.309 -3.69796 -2.57996 0
M  V30 4950 C 470.971 -4.10194 -2.51583 0
M  V30 4951 C 473.323 -4.63699 -2.37976 0
M  V30 4952 C 470.651 -5.42608 -2.23144 0
M  V30 4953 C 473.003 -5.96353 -2.1106 0
M  V30 4954 C 471.667 -6.35853 -2.03093 0
M  V30 4955 H 470.937 -0.486168 -0.559215 0
M  V30 4956 H 473.584 -1.69757 -0.886277 0
M  V30 4957 H 471.889 -1.77663 -3.49204 0
M  V30 4958 H 473.586 -2.15256 -3.38328 0
M  V30 4959 H 470.176 -3.37759 -2.63851 0
M  V30 4960 H 474.36 -4.33346 -2.41919 0
M  V30 4961 H 469.616 -5.72173 -2.15472 0
M  V30 4962 H 473.79 -6.68667 -1.94568 0
M  V30 4963 H 471.417 -7.38382 -1.8082 0
M  V30 4964 N 472.992 0.995999 -1.22138 0
M  V30 4965 C 474.238 1.7386 -1.05567 0
M  V30 4966 C 474.593 1.8808 0.405418 0
M  V30 4967 O 473.886 1.41062 1.29661 0
M  V30 4968 C 474.08 3.14553 -1.6968 0
M  V30 4969 C 473.909 3.14053 -3.21871 0
M  V30 4970 C 472.679 3.20121 -3.90961 0
M  V30 4971 C 474.877 2.98451 -4.18845 0
M  V30 4972 N 472.859 3.09342 -5.30265 0
M  V30 4973 C 474.23 2.95667 -5.4496 0
M  V30 4974 C 476.285 2.8282 -4.09777 0
M  V30 4975 C 474.988 2.78852 -6.63049 0
M  V30 4976 C 477.014 2.67364 -5.27513 0
M  V30 4977 C 476.376 2.65264 -6.52544 0
M  V30 4978 H 472.475 0.645989 -0.440706 0
M  V30 4979 H 475.059 1.1831 -1.54631 0
M  V30 4980 H 473.23 3.68353 -1.2317 0
M  V30 4981 H 474.962 3.77358 -1.4623 0
M  V30 4982 H 471.717 3.27679 -3.4194 0
M  V30 4983 H 472.141 3.0727 -6.03253 0
M  V30 4984 H 476.783 2.83243 -3.139 0
M  V30 4985 H 474.501 2.77175 -7.59078 0
M  V30 4986 H 478.087 2.56256 -5.22326 0
M  V30 4987 H 476.967 2.5345 -7.42114 0
M  V30 4988 N 474.47 1.03057 1.19235 0
M  V30 4989 C 475.886 0.747947 1.40989 0
M  V30 4990 C 476.086 -0.666752 1.90149 0
M  V30 4991 O 475.142 -1.43249 2.07933 0
M  V30 4992 C 476.455 1.7855 2.41951 0
M  V30 4993 C 478.003 1.80524 2.55695 0
M  V30 4994 C 478.478 2.83243 3.59913 0
M  V30 4995 N 479.969 2.8207 3.67411 0
M  V30 4996 C 480.704 3.58204 4.47747 0
M  V30 4997 N 480.2 4.44057 5.31775 0
M  V30 4998 N 481.993 3.46738 4.42413 0
M  V30 4999 H 474.144 1.94367 0.856468 0
M  V30 5000 H 476.407 0.840412 0.438647 0
M  V30 5001 H 476.113 2.79973 2.12857 0
M  V30 5002 H 475.987 1.6092 3.41152 0
M  V30 5003 H 478.374 0.79778 2.84112 0
M  V30 5004 H 478.455 2.02229 1.56643 0
M  V30 5005 H 478.099 3.84161 3.32239 0
M  V30 5006 H 478.029 2.58795 4.5862 0
M  V30 5007 H 480.52 2.19803 3.074 0
M  V30 5008 H 480.833 4.98884 5.90199 0
M  V30 5009 H 479.178 4.48129 5.3123 0
M  V30 5010 H 482.369 2.79077 3.75811 0
M  V30 5011 H 482.542 4.06322 5.04783 0
M  V30 5012 N 475.948 -1.35272 0.808662 0
M  V30 5013 C 477.364 -1.51806 0.492653 0
M  V30 5014 C 477.564 -1.7574 -0.985778 0
M  V30 5015 O 476.62 -1.80003 -1.77074 0
M  V30 5016 C 477.933 -2.69202 1.33981 0
M  V30 5017 C 479.481 -2.8308 1.33547 0
M  V30 5018 C 479.956 -4.03502 2.16679 0
M  V30 5019 N 481.447 -4.10684 2.14227 0
M  V30 5020 C 482.182 -5.02984 2.75308 0
M  V30 5021 N 481.678 -6.00603 3.45323 0
M  V30 5022 N 483.471 -4.95746 2.64938 0
M  V30 5023 H 475.622 -1.17993 1.76611 0
M  V30 5024 H 477.885 -0.577476 0.751814 0
M  V30 5025 H 477.591 -2.581 2.38909 0
M  V30 5026 H 477.465 -3.63854 0.994491 0
M  V30 5027 H 479.852 -2.93631 0.294036 0
M  V30 5028 H 479.933 -1.89278 1.72068 0
M  V30 5029 H 479.577 -3.93711 3.20864 0
M  V30 5030 H 479.507 -4.96489 1.75517 0
M  V30 5031 H 481.998 -3.40802 1.63285 0
M  V30 5032 H 482.311 -6.67633 3.89212 0
M  V30 5033 H 480.656 -6.0077 3.49428 0
M  V30 5034 H 483.847 -4.18439 2.09825 0
M  V30 5035 H 484.02 -5.67487 3.12829 0
M  V30 5036 N 477.426 -0.562348 -1.47226 0
M  V30 5037 C 478.358 0.220011 -2.28142 0
M  V30 5038 C 479.371 0.874596 -1.37312 0
M  V30 5039 O 480.56 0.747583 -1.62091 0
M  V30 5040 C 477.66 1.32953 -3.11732 0
M  V30 5041 C 476.833 0.770759 -4.30556 0
M  V30 5042 C 475.892 1.76541 -4.95701 0
M  V30 5043 O 474.918 1.3095 -5.53932 0
M  V30 5044 N 476.12 3.09896 -4.90861 0
M  V30 5045 H 478.885 -0.474107 -2.95926 0
M  V30 5046 H 476.446 -0.398761 -1.56912 0
M  V30 5047 H 478.438 1.99378 -3.5218 0
M  V30 5048 H 477.008 1.92681 -2.46156 0
M  V30 5049 H 476.228 -0.0704056 -3.94137 0
M  V30 5050 H 477.516 0.376872 -5.07402 0
M  V30 5051 H 476.914 3.49577 -4.44761 0
M  V30 5052 H 475.471 3.71865 -5.35313 0
M  V30 5053 N 478.904 1.54736 -0.299062 0
M  V30 5054 C 480.15 2.00397 0.311244 0
M  V30 5055 C 480.483 1.18716 1.53688 0
M  V30 5056 O 479.758 0.263154 1.92712 0
M  V30 5057 C 480.041 3.53817 0.669761 0
M  V30 5058 C 479.894 4.46239 -0.564882 0
M  V30 5059 C 481.213 4.13856 1.49702 0
M  V30 5060 H 478.332 0.728493 0.111653 0
M  V30 5061 H 480.974 1.85506 -0.410774 0
M  V30 5062 H 479.124 3.66637 1.28491 0
M  V30 5063 H 480.796 4.45328 -1.20337 0
M  V30 5064 H 479.039 4.16916 -1.19849 0
M  V30 5065 H 479.71 5.5134 -0.269918 0
M  V30 5066 H 482.186 4.04461 0.977284 0
M  V30 5067 H 481.062 5.21365 1.71666 0
M  V30 5068 H 481.323 3.65608 2.48563 0
M  V30 5069 N 480.382 0.0267497 1.57577 0
M  V30 5070 C 481.332 -0.965003 2.06571 0
M  V30 5071 C 482.316 -1.28694 0.965746 0
M  V30 5072 O 483.508 -1.27345 1.22932 0
M  V30 5073 C 480.637 -2.24821 2.59443 0
M  V30 5074 C 479.723 -1.95474 3.76365 0
M  V30 5075 N 480.114 -1.36387 4.87065 0
M  V30 5076 C 478.412 -2.25478 3.84806 0
M  V30 5077 C 479.113 -1.24119 5.68304 0
M  V30 5078 N 478.089 -1.7359 5.15138 0
M  V30 5079 H 481.891 -0.503095 2.89562 0
M  V30 5080 H 479.405 -0.178322 1.61418 0
M  V30 5081 H 481.402 -2.9674 2.92833 0
M  V30 5082 H 480.062 -2.7164 1.77881 0
M  V30 5083 H 481.073 -1.03919 5.07367 0
M  V30 5084 H 477.75 -2.74987 3.14147 0
M  V30 5085 H 479.14 -0.784504 6.67304 0
M  V30 5086 N 481.861 -1.55662 -0.24637 0
M  V30 5087 C 482.791 -1.93377 -1.30873 0
M  V30 5088 C 483.772 -0.798773 -1.50179 0
M  V30 5089 O 484.957 -1.0591 -1.62778 0
M  V30 5090 C 482.087 -2.22893 -2.66338 0
M  V30 5091 C 481.041 -3.38649 -2.61727 0
M  V30 5092 C 480.367 -3.53708 -4.00992 0
M  V30 5093 C 481.667 -4.74323 -2.18666 0
M  V30 5094 H 483.361 -2.82363 -0.995552 0
M  V30 5095 H 480.907 -1.35854 -0.477464 0
M  V30 5096 H 482.86 -2.47866 -3.40794 0
M  V30 5097 H 481.584 -1.30733 -2.99293 0
M  V30 5098 H 480.243 -3.13685 -1.89729 0
M  V30 5099 H 479.891 -2.58967 -4.31214 0
M  V30 5100 H 479.591 -4.31551 -3.98795 0
M  V30 5101 H 481.115 -3.81003 -4.77147 0
M  V30 5102 H 482.529 -4.98665 -2.82854 0
M  V30 5103 H 480.926 -5.55273 -2.27579 0
M  V30 5104 H 481.996 -4.71349 -1.13834 0
M  V30 5105 N 483.339 0.512053 -1.4905 0
M  V30 5106 C 484.755 0.84224 -1.35567 0
M  V30 5107 C 484.955 1.97878 -0.380319 0
M  V30 5108 O 484.011 2.51769 0.19201 0
M  V30 5109 C 485.324 1.19286 -2.76028 0
M  V30 5110 C 486.872 1.30171 -2.84648 0
M  V30 5111 C 487.347 1.68568 -4.25851 0
M  V30 5112 N 488.838 1.75638 -4.28609 0
M  V30 5113 C 489.573 2.06769 -5.34821 0
M  V30 5114 N 489.069 2.36201 -6.51292 0
M  V30 5115 N 490.862 2.07927 -5.22229 0
M  V30 5116 H 483.013 -0.237574 -2.11067 0
M  V30 5117 H 485.276 -0.0436747 -0.946993 0
M  V30 5118 H 484.982 0.431199 -3.49047 0
M  V30 5119 H 484.856 2.13889 -3.10695 0
M  V30 5120 H 487.243 2.05411 -2.11873 0
M  V30 5121 H 487.324 0.336457 -2.53578 0
M  V30 5122 H 486.968 0.938824 -4.99148 0
M  V30 5123 H 486.898 2.66174 -4.54377 0
M  V30 5124 H 489.389 1.55097 -3.44606 0
M  V30 5125 H 489.702 2.59112 -7.28066 0
M  V30 5126 H 488.047 2.33681 -6.54536 0
M  V30 5127 H 491.238 1.84403 -4.30248 0
M  V30 5128 H 491.411 2.31856 -6.05101 0
M  V30 5129 N 484.817 1.37938 0.762283 0
M  V30 5130 C 486.045 1.36883 1.55147 0
M  V30 5131 C 486.46 -0.0435348 1.8875 0
M  V30 5132 O 485.817 -1.00786 1.52146 0
M  V30 5133 C 485.868 2.21624 2.85596 0
M  V30 5134 O 485.589 3.57358 2.5343 0
M  V30 5135 C 487.09 2.28653 3.7978 0
M  V30 5136 H 484.31 0.468521 0.480343 0
M  V30 5137 H 486.854 1.81404 0.944079 0
M  V30 5138 H 485.009 1.80588 3.42734 0
M  V30 5139 H 485.423 4.01883 3.37032 0
M  V30 5140 H 486.897 2.9225 4.68288 0
M  V30 5141 H 487.374 1.29767 4.19592 0
M  V30 5142 H 487.98 2.70043 3.28568 0
M  V30 5143 N 486.295 -0.989507 1.22664 0
M  V30 5144 C 487.543 -1.72612 1.05117 0
M  V30 5145 C 487.864 -1.90552 -0.414131 0
M  V30 5146 O 487.134 -1.4676 -1.29762 0
M  V30 5147 H 485.714 -0.639555 0.385977 0
M  V30 5148 H 488.376 -1.19158 1.54232 0
M  V30 5149 H 487.472 -2.71926 1.53175 0
M  V30 5150 N 487.773 -1.03688 -1.18687 0
M  V30 5151 C 489.022 -0.733235 -1.879 0
M  V30 5152 C 489.335 0.741745 -1.8099 0
M  V30 5153 O 490.541 1.15875 -2.4553 0
M  V30 5154 C 488.997 -1.26127 -3.37076 0
M  V30 5155 C 488.605 -2.76461 -3.52524 0
M  V30 5156 C 490.349 -1.03398 -4.11715 0
M  V30 5157 C 488.256 -3.22642 -4.95637 0
M  V30 5158 H 487.186 -0.270584 -0.703776 0
M  V30 5159 H 489.837 -1.25222 -1.34133 0
M  V30 5160 H 488.219 -0.670165 -3.90288 0
M  V30 5161 H 489.393 -3.41296 -3.09602 0
M  V30 5162 H 487.708 -2.97559 -2.91286 0
M  V30 5163 H 490.305 -1.3542 -5.17267 0
M  V30 5164 H 490.648 0.0289246 -4.1629 0
M  V30 5165 H 491.181 -1.5895 -3.64664 0
M  V30 5166 H 487.92 -4.28296 -4.96228 0
M  V30 5167 H 487.44 -2.62539 -5.39289 0
M  V30 5168 H 489.119 -3.16444 -5.64333 0
M  V30 5169 N 489.251 1.34841 -0.815825 0
M  V30 5170 C 490.667 1.51543 -0.500697 0
M  V30 5171 C 490.867 1.76261 0.976444 0
M  V30 5172 O 489.923 1.8094 1.76117 0
M  V30 5173 C 491.236 2.68487 -1.35407 0
M  V30 5174 C 492.784 2.82368 -1.35046 0
M  V30 5175 C 493.259 4.02347 -2.18816 0
M  V30 5176 N 494.75 4.09542 -2.16402 0
M  V30 5177 C 495.485 5.01517 -2.77971 0
M  V30 5178 N 494.981 5.98763 -3.48503 0
M  V30 5179 N 496.774 4.94334 -2.67563 0
M  V30 5180 H 488.925 1.17055 -1.77234 0
M  V30 5181 H 491.188 0.573481 -0.754866 0
M  V30 5182 H 490.894 2.56829 -2.40274 0
M  V30 5183 H 490.768 3.63321 -1.01377 0
M  V30 5184 H 493.155 2.93471 -0.309604 0
M  V30 5185 H 493.236 1.88363 -1.73069 0
M  V30 5186 H 492.88 3.92004 -3.22948 0
M  V30 5187 H 492.81 4.95551 -1.78148 0
M  V30 5188 H 495.301 3.39932 -1.65091 0
M  V30 5189 H 495.614 6.6556 -3.92747 0
M  V30 5190 H 493.959 5.98909 -3.52609 0
M  V30 5191 H 497.15 4.1732 -2.12041 0
M  V30 5192 H 497.323 5.6582 -3.15834 0
M  V30 5193 N 490.729 0.570148 1.46925 0
M  V30 5194 C 492.14 0.1402 1.86173 0
M  V30 5195 C 492.491 -1.29347 1.47526 0
M  V30 5196 O 491.616 -1.97508 0.884292 0
M  V30 5197 C 492.211 0.247661 3.37894 0
M  V30 5198 C 490.77 -0.127332 3.76185 0
M  V30 5199 C 489.917 0.589349 2.70965 0
M  V30 5200 H 492.868 0.779117 1.38259 0
M  V30 5201 H 492.889 -0.530341 3.76786 0
M  V30 5202 H 492.401 1.29121 3.65991 0
M  V30 5203 H 490.502 -1.17149 3.53704 0
M  V30 5204 H 490.615 0.240238 4.78497 0
M  V30 5205 H 488.979 0.0309824 2.54681 0
M  V30 5206 H 489.762 1.6343 3.01903 0
M  V30 5207 N 492.207 -1.54576 0.307264 0
M  V30 5208 C 493.432 -2.05139 -0.305379 0
M  V30 5209 C 493.857 -1.18278 -1.46259 0
M  V30 5210 O 493.215 -0.188243 -1.8032 0
M  V30 5211 C 493.263 -3.53066 -0.733283 0
M  V30 5212 O 492.367 -3.69206 -1.83741 0
M  V30 5213 H 491.708 -0.661444 -0.0582105 0
M  V30 5214 H 494.238 -1.99569 0.450931 0
M  V30 5215 H 494.248 -3.95034 -1.02039 0
M  V30 5216 H 492.923 -4.15746 0.113198 0
M  V30 5217 H 491.5 -3.39143 -1.55037 0
M  V30 5218 N 493.685 -0.035106 -1.57561 0
M  V30 5219 C 494.913 0.652258 -1.9635 0
M  V30 5220 C 495.328 1.65317 -0.911897 0
M  V30 5221 O 494.685 1.82194 0.105657 0
M  V30 5222 C 494.736 1.35337 -3.35211 0
M  V30 5223 O 494.457 0.392548 -4.36338 0
M  V30 5224 C 495.958 2.13199 -3.88666 0
M  V30 5225 H 493.178 0.179444 -0.646561 0
M  V30 5226 H 495.722 -0.0966459 -2.04271 0
M  V30 5227 H 493.877 2.05362 -3.28489 0
M  V30 5228 H 494.291 0.891097 -5.16875 0
M  V30 5229 H 495.765 2.577 -4.88154 0
M  V30 5230 H 496.242 2.97353 -3.23231 0
M  V30 5231 H 496.848 1.48118 -3.98674 0
M  V30 5232 N 495.163 1.55791 0.238111 0
M  V30 5233 C 496.412 1.77234 0.962868 0
M  V30 5234 C 496.725 0.600661 1.86149 0
M  V30 5235 O 497.931 0.698315 2.62366 0
M  V30 5236 C 496.387 3.13808 1.76218 0
M  V30 5237 C 495.995 4.3865 0.910518 0
M  V30 5238 C 497.739 3.44585 2.47914 0
M  V30 5239 C 495.646 5.66252 1.70623 0
M  V30 5240 H 494.576 0.660731 0.36325 0
M  V30 5241 H 497.227 1.8221 0.217242 0
M  V30 5242 H 495.609 3.02963 2.55009 0
M  V30 5243 H 496.783 4.60507 0.164316 0
M  V30 5244 H 495.098 4.15271 0.30647 0
M  V30 5245 H 497.695 4.3714 3.07917 0
M  V30 5246 H 498.038 2.66314 3.19973 0
M  V30 5247 H 498.571 3.56685 1.76127 0
M  V30 5248 H 495.31 6.47369 1.02923 0
M  V30 5249 H 494.83 5.48483 2.42748 0
M  V30 5250 H 496.509 6.05829 2.27114 0
M  V30 5251 N 496.642 -0.504142 1.49319 0
M  V30 5252 C 497.87 -1.28256 1.62351 0
M  V30 5253 C 498.285 -1.86502 0.293682 0
M  V30 5254 O 497.642 -1.67678 -0.720449 0
M  V30 5255 C 497.693 -2.41507 2.68992 0
M  V30 5256 O 497.414 -1.85656 3.96817 0
M  V30 5257 C 498.915 -3.32929 2.927 0
M  V30 5258 H 496.135 -0.389115 0.546654 0
M  V30 5259 H 498.679 -0.605531 1.95329 0
M  V30 5260 H 496.834 -3.05046 2.38801 0
M  V30 5261 H 497.248 -2.59981 4.55533 0
M  V30 5262 H 498.722 -4.0868 3.71058 0
M  V30 5263 H 499.199 -3.89733 2.02496 0
M  V30 5264 H 499.805 -2.75158 3.24296 0
M  V30 5265 N 498.12 -1.38341 -0.754957 0
M  V30 5266 C 499.345 -1.37882 -1.5493 0
M  V30 5267 C 499.77 0.0296385 -1.88077 0
M  V30 5268 O 499.128 1.01133 -1.50472 0
M  V30 5269 C 499.176 -2.23996 -2.82592 0
M  V30 5270 O 498.28 -1.65612 -3.77686 0
M  V30 5271 H 497.621 -0.470384 -0.468652 0
M  V30 5272 H 500.151 -1.82084 -0.933082 0
M  V30 5273 H 500.161 -2.37806 -3.3153 0
M  V30 5274 H 498.836 -3.26365 -2.57796 0
M  V30 5275 H 497.413 -1.60936 -3.36384 0
M  V30 5276 N 499.598 0.982988 -1.23187 0
M  V30 5277 C 500.823 1.76455 -1.08988 0
M  V30 5278 C 501.248 1.84726 0.354691 0
M  V30 5279 O 500.606 1.30699 1.25649 0
M  V30 5280 C 500.654 3.17094 -1.71708 0
M  V30 5281 O 499.758 4.00648 -0.977477 0
M  V30 5282 H 499.099 0.542988 -0.382177 0
M  V30 5283 H 501.629 1.23413 -1.63188 0
M  V30 5284 H 501.639 3.67684 -1.76841 0
M  V30 5285 H 500.314 3.10389 -2.76823 0
M  V30 5286 H 498.891 3.59161 -1.0029 0
M  V30 5287 N 501.076 1.04316 1.18135 0
M  V30 5288 C 502.323 0.74802 1.88178 0
M  V30 5289 C 502.651 -0.72441 1.80506 0
M  V30 5290 O 501.906 -1.54463 1.20165 0
M  V30 5291 C 502.205 1.16271 3.37958 0
M  V30 5292 C 501.871 2.63585 3.65833 0
M  V30 5293 C 500.533 3.03829 3.73151 0
M  V30 5294 C 502.885 3.58822 3.78016 0
M  V30 5295 C 500.213 4.38194 3.90132 0
M  V30 5296 C 502.565 4.92909 3.96514 0
M  V30 5297 C 501.229 5.3282 4.02068 0
M  V30 5298 H 500.499 0.27372 0.688592 0
M  V30 5299 H 503.146 1.30863 1.39811 0
M  V30 5300 H 501.451 0.520938 3.88321 0
M  V30 5301 H 503.148 0.911672 3.90499 0
M  V30 5302 H 499.738 2.31414 3.60757 0
M  V30 5303 H 503.922 3.28875 3.71692 0
M  V30 5304 H 499.178 4.68631 3.92677 0
M  V30 5305 H 503.352 5.66606 4.04883 0
M  V30 5306 H 500.979 6.36943 4.14979 0
M  V30 5307 N 502.554 -1.34406 0.822964 0
M  V30 5308 C 503.965 -1.8069 0.469879 0
M  V30 5309 C 504.316 -1.68223 -1.00972 0
M  V30 5310 O 503.441 -1.22226 -1.78577 0
M  V30 5311 C 504.036 -3.28064 0.846118 0
M  V30 5312 C 502.595 -3.72428 0.545402 0
M  V30 5313 C 501.742 -2.56116 1.06301 0
M  V30 5314 H 504.693 -1.22153 1.01313 0
M  V30 5315 H 504.714 -3.80205 0.149922 0
M  V30 5316 H 504.226 -3.37107 1.92304 0
M  V30 5317 H 502.327 -3.68924 -0.522109 0
M  V30 5318 H 502.44 -4.66548 1.0895 0
M  V30 5319 H 500.804 -2.50048 0.484554 0
M  V30 5320 H 501.587 -2.67928 2.14638 0
M  V30 5321 N 504.032 -0.577932 -1.46621 0
M  V30 5322 C 504.964 0.195801 -2.28362 0
M  V30 5323 C 505.977 0.859983 -1.38232 0
M  V30 5324 O 507.166 0.730349 -1.62875 0
M  V30 5325 C 504.266 1.29639 -3.13124 0
M  V30 5326 C 503.439 0.725049 -4.31349 0
M  V30 5327 C 502.498 1.71274 -4.97546 0
M  V30 5328 O 501.524 1.25067 -5.5529 0
M  V30 5329 N 502.726 3.04672 -4.94121 0
M  V30 5330 H 505.491 -0.505468 -2.95407 0
M  V30 5331 H 503.052 -0.415381 -1.56481 0
M  V30 5332 H 505.044 1.95631 -3.54275 0
M  V30 5333 H 503.614 1.90059 -2.48186 0
M  V30 5334 H 502.834 -0.112205 -3.9404 0
M  V30 5335 H 504.122 0.323034 -5.07774 0
M  V30 5336 H 503.52 3.4484 -4.48444 0
M  V30 5337 H 502.077 3.66166 -5.39227 0
M  V30 5338 N 505.51 1.54411 -0.315457 0
M  V30 5339 C 506.44 2.27002 0.547039 0
M  V30 5340 C 507.421 1.27492 1.12605 0
M  V30 5341 O 508.606 1.5629 1.15269 0
M  V30 5342 C 505.736 3.02171 1.71201 0
M  V30 5343 C 504.69 4.0895 1.26268 0
M  V30 5344 C 504.016 4.71915 2.51396 0
M  V30 5345 C 505.316 5.20891 0.383419 0
M  V30 5346 H 507.01 2.99343 -0.0584517 0
M  V30 5347 H 504.556 1.4397 -0.0295527 0
M  V30 5348 H 506.509 3.51681 2.32161 0
M  V30 5349 H 505.233 2.27433 2.34397 0
M  V30 5350 H 503.892 3.60312 0.676062 0
M  V30 5351 H 503.54 3.93801 3.12937 0
M  V30 5352 H 503.24 5.44039 2.22026 0
M  V30 5353 H 504.764 5.24195 3.13133 0
M  V30 5354 H 506.178 5.66206 0.899082 0
M  V30 5355 H 504.575 5.99821 0.182857 0
M  V30 5356 H 505.645 4.81324 -0.587821 0
M  V30 5357 N 506.988 0.0434614 1.5754 0
M  V30 5358 C 507.921 -0.968729 2.06618 0
M  V30 5359 C 508.899 -1.30868 0.965 0
M  V30 5360 O 510.083 -1.42288 1.23638 0
M  V30 5361 C 507.21 -2.28486 2.50023 0
M  V30 5362 C 506.256 -2.09851 3.71302 0
M  V30 5363 S 507.089 -1.38401 5.17306 0
M  V30 5364 C 508.245 -2.71354 5.64019 0
M  V30 5365 H 508.478 -0.551021 2.92149 0
M  V30 5366 H 506.011 -0.168607 1.53477 0
M  V30 5367 H 507.969 -3.04142 2.75695 0
M  V30 5368 H 506.63 -2.67387 1.64812 0
M  V30 5369 H 505.823 -3.07184 3.99567 0
M  V30 5370 H 505.425 -1.42336 3.45856 0
M  V30 5371 H 507.717 -3.67549 5.69134 0
M  V30 5372 H 508.66 -2.47734 6.6335 0
M  V30 5373 H 509.068 -2.77259 4.91719 0
M  V30 5374 N 508.466 -1.55915 -0.229846 0
M  V30 5375 C 509.691 -1.8296 -0.976743 0
M  V30 5376 C 510.116 -0.622735 -1.77493 0
M  V30 5377 O 509.474 0.428431 -1.76165 0
M  V30 5378 C 509.522 -3.07916 -1.8767 0
M  V30 5379 O 508.626 -2.86028 -2.97088 0
M  V30 5380 H 507.967 -0.603453 -0.277021 0
M  V30 5381 H 510.497 -2.0312 -0.245669 0
M  V30 5382 H 510.507 -3.37802 -2.2881 0
M  V30 5383 H 509.182 -3.95389 -1.28996 0
M  V30 5384 H 507.759 -2.67355 -2.59954 0
M  V30 5385 N 509.944 0.496216 -1.49584 0
M  V30 5386 C 510.892 1.61805 -1.67098 0
M  V30 5387 C 511.886 1.60667 -0.536877 0
M  V30 5388 O 513.092 1.65118 -0.716654 0
M  V30 5389 H 509.467 0.53646 -0.526986 0
M  V30 5390 H 511.438 1.44187 -2.61252 0
M  V30 5391 C 510.187 2.99912 -1.75921 0
M  V30 5392 H 509.51 3.01496 -2.62565 0
M  V30 5393 H 510.95 3.77931 -1.92209 0
M  V30 5394 C 509.409 3.33092 -0.505088 0
M  V30 5395 O 509.939 4.00019 0.367085 0
M  V30 5396 N 508.145 2.88278 -0.366599 0
M  V30 5397 H 507.692 2.33989 -1.07735 0
M  V30 5398 H 507.65 3.10846 0.47142 0
M  V30 5399 N 511.423 1.38739 0.74761 0
M  V30 5400 C 512.669 1.35475 1.50912 0
M  V30 5401 C 513.002 -0.0533093 1.94127 0
M  V30 5402 O 512.277 -1.01572 1.65871 0
M  V30 5403 C 512.56 2.31582 2.75757 0
M  V30 5404 C 512.413 3.81274 2.38642 0
M  V30 5405 C 513.732 2.25722 3.77806 0
M  V30 5406 H 510.851 0.493427 0.547447 0
M  V30 5407 H 513.493 1.69634 0.855823 0
M  V30 5408 H 511.643 2.02582 3.31501 0
M  V30 5409 H 513.315 4.20972 1.88626 0
M  V30 5410 H 511.558 3.98664 1.71025 0
M  V30 5411 H 512.229 4.4399 3.27989 0
M  V30 5412 H 514.705 2.51336 3.31616 0
M  V30 5413 H 513.581 2.95069 4.62845 0
M  V30 5414 H 513.842 1.25803 4.23823 0
M  V30 5415 N 512.901 -0.976442 1.23707 0
M  V30 5416 C 514.178 -1.69296 0.979699 0
M  V30 5417 C 514.558 -2.0508 -0.500555 0
M  V30 5418 O 513.906 -1.74708 -1.47273 0
M  V30 5419 C 514.116 -2.93143 1.89389 0
M  V30 5420 C 515.464 -3.65572 2.15968 0
M  V30 5421 O 516.488 -3.03184 1.86971 0
M  V30 5422 O 515.347 -4.77859 2.65167 0
M  V30 5423 H 512.441 -0.739708 0.369812 0
M  V30 5424 H 514.987 -1.03131 1.34767 0
M  V30 5425 H 513.759 -2.63327 2.89439 0
M  V30 5426 H 513.382 -3.67044 1.52854 0
M  V30 5427 N 514.379 -1.04941 -1.1758 0
M  V30 5428 C 515.342 -0.652456 -2.19717 0
M  V30 5429 C 516.342 0.294745 -1.58076 0
M  V30 5430 O 517.532 0.0789579 -1.74021 0
M  V30 5431 C 514.664 0.0420712 -3.40874 0
M  V30 5432 H 515.857 -1.55642 -2.5635 0
M  V30 5433 H 513.41 -0.842995 -1.31618 0
M  V30 5434 H 514.145 0.95943 -3.09783 0
M  V30 5435 H 513.93 -0.638844 -3.86861 0
M  V30 5436 H 515.42 0.306 -4.16477 0
M  V30 5437 N 515.857 1.33968 -0.830081 0
M  V30 5438 C 516.82 2.27694 -0.26235 0
M  V30 5439 C 517.82 1.50589 0.563876 0
M  V30 5440 O 519.01 1.70028 0.378941 0
M  V30 5441 C 516.142 3.35002 0.63138 0
M  V30 5442 H 517.335 2.79419 -1.08928 0
M  V30 5443 H 514.888 1.44221 -0.602486 0
M  V30 5444 H 515.623 2.88504 1.48109 0
M  V30 5445 H 515.408 3.92079 0.0403276 0
M  V30 5446 H 516.898 4.04897 1.02217 0
M  V30 5447 N 517.335 0.585699 1.46312 0
M  V30 5448 C 518.565 0.0780166 2.06453 0
M  V30 5449 C 518.973 -1.2336 1.43454 0
M  V30 5450 O 518.316 -1.75734 0.535086 0
M  V30 5451 C 518.378 -0.158951 3.59148 0
M  V30 5452 C 518.042 1.06752 4.44357 0
M  V30 5453 C 519.039 1.98031 4.80708 0
M  V30 5454 C 516.724 1.2902 4.85447 0
M  V30 5455 C 518.718 3.09924 5.5698 0
M  V30 5456 C 516.405 2.41218 5.61478 0
M  V30 5457 C 517.403 3.31499 5.97158 0
M  V30 5458 O 517.091 4.41747 6.71651 0
M  V30 5459 H 516.823 0.0558894 0.673686 0
M  V30 5460 H 519.377 0.806994 1.88883 0
M  V30 5461 H 517.607 -0.942575 3.75037 0
M  V30 5462 H 519.296 -0.615513 4.01206 0
M  V30 5463 H 520.062 1.82043 4.49539 0
M  V30 5464 H 515.941 0.596567 4.57124 0
M  V30 5465 H 519.485 3.80415 5.84748 0
M  V30 5466 H 515.382 2.57167 5.9206 0
M  V30 5467 H 516.15 4.40152 6.90079 0
M  V30 5468 N 518.813 -1.54241 0.323641 0
M  V30 5469 C 519.723 -2.28033 -0.551205 0
M  V30 5470 C 520.739 -1.32388 -1.12913 0
M  V30 5471 O 521.915 -1.65403 -1.14908 0
M  V30 5472 C 518.98 -3.02382 -1.69606 0
M  V30 5473 C 518.041 -4.13612 -1.14993 0
M  V30 5474 C 517.274 -4.84407 -2.24022 0
M  V30 5475 O 517.497 -4.54716 -3.44368 0
M  V30 5476 O 516.431 -5.71312 -1.89436 0
M  V30 5477 H 520.257 -3.03662 0.048066 0
M  V30 5478 H 517.842 -1.49133 0.0893289 0
M  V30 5479 H 519.724 -3.48941 -2.36259 0
M  V30 5480 H 518.399 -2.29628 -2.28151 0
M  V30 5481 H 517.306 -3.71402 -0.448484 0
M  V30 5482 H 518.639 -4.8841 -0.609608 0
M  V30 5483 N 520.291 -0.0518155 -1.57515 0
M  V30 5484 C 521.537 0.622745 -1.93002 0
M  V30 5485 C 521.87 1.70456 -0.930499 0
M  V30 5486 O 521.145 1.94452 0.0434086 0
M  V30 5487 C 521.428 1.21824 -3.38867 0
M  V30 5488 C 521.281 0.144434 -4.49568 0
M  V30 5489 C 522.6 2.12968 -3.8514 0
M  V30 5490 H 519.719 0.22491 -0.701844 0
M  V30 5491 H 522.361 -0.113711 -1.89659 0
M  V30 5492 H 520.511 1.8459 -3.41846 0
M  V30 5493 H 522.183 -0.48753 -4.58717 0
M  V30 5494 H 520.426 -0.527424 -4.30582 0
M  V30 5495 H 521.097 0.601127 -5.48717 0
M  V30 5496 H 523.573 1.60163 -3.8404 0
M  V30 5497 H 522.449 2.51578 -4.87852 0
M  V30 5498 H 522.71 3.03004 -3.21934 0
M  V30 5499 N 521.769 1.56035 0.221574 0
M  V30 5500 C 522.732 1.91584 1.2581 0
M  V30 5501 C 523.732 0.794425 1.39805 0
M  V30 5502 O 524.922 1.06217 1.38071 0
M  V30 5503 C 522.054 2.16663 2.63192 0
M  V30 5504 H 523.247 2.8429 0.954935 0
M  V30 5505 H 520.8 1.49316 0.461988 0
M  V30 5506 H 521.535 1.26508 2.98607 0
M  V30 5507 H 521.32 2.98358 2.5441 0
M  V30 5508 H 522.81 2.45262 3.37988 0
M  V30 5509 N 523.247 -0.488276 1.49845 0
M  V30 5510 C 524.157 -1.61451 1.70207 0
M  V30 5511 C 525.173 -1.63877 0.584846 0
M  V30 5512 O 526.349 -1.82063 0.861107 0
M  V30 5513 C 523.414 -2.9776 1.77594 0
M  V30 5514 C 522.475 -3.05861 3.01243 0
M  V30 5515 C 521.708 -4.35668 3.08268 0
M  V30 5516 O 521.931 -5.25197 2.22541 0
M  V30 5517 O 520.865 -4.49005 4.00847 0
M  V30 5518 H 524.691 -1.47199 2.65643 0
M  V30 5519 H 522.276 -0.665939 1.33737 0
M  V30 5520 H 524.158 -3.7875 1.84732 0
M  V30 5521 H 522.833 -3.12248 0.8534 0
M  V30 5522 H 521.74 -2.24012 2.99616 0
M  V30 5523 H 523.073 -2.96304 3.9302 0
M  V30 5524 N 524.725 -1.39134 -0.740242 0
M  V30 5525 C 526.141 -1.20623 -1.0451 0
M  V30 5526 C 526.341 -0.0641651 -2.01398 0
M  V30 5527 O 525.397 0.585843 -2.4561 0
M  V30 5528 C 526.71 -2.53815 -1.6124 0
M  V30 5529 C 528.258 -2.60615 -1.73346 0
M  V30 5530 C 528.733 -3.94015 -2.33486 0
M  V30 5531 N 530.224 -3.95627 -2.40902 0
M  V30 5532 C 530.959 -4.95616 -2.88361 0
M  V30 5533 N 530.455 -6.06003 -3.35756 0
M  V30 5534 N 532.248 -4.82998 -2.87523 0
M  V30 5535 H 524.399 -2.12176 -0.0975576 0
M  V30 5536 H 526.662 -0.942066 -0.105904 0
M  V30 5537 H 526.368 -3.37911 -0.975144 0
M  V30 5538 H 526.242 -2.73162 -2.6012 0
M  V30 5539 H 528.629 -1.76906 -2.36195 0
M  V30 5540 H 528.71 -2.45123 -0.731336 0
M  V30 5541 H 528.354 -4.78153 -1.71267 0
M  V30 5542 H 528.284 -4.06825 -3.34366 0
M  V30 5543 H 530.775 -3.15903 -2.07398 0
M  V30 5544 H 531.088 -6.78215 -3.70464 0
M  V30 5545 H 529.433 -6.09604 -3.33778 0
M  V30 5546 H 532.624 -3.95866 -2.49816 0
M  V30 5547 H 532.797 -5.61072 -3.24196 0
M  V30 5548 N 526.204 0.969867 -1.24223 0
M  V30 5549 C 527.452 1.70918 -1.0785 0
M  V30 5550 C 527.773 1.91186 0.383763 0
M  V30 5551 O 527.043 1.48806 1.27411 0
M  V30 5552 H 525.623 0.633334 -0.396103 0
M  V30 5553 H 528.285 1.16689 -1.56108 0
M  V30 5554 H 527.381 2.69455 -1.57482 0
M  V30 5555 N 527.682 1.05563 1.17022 0
M  V30 5556 C 528.91 0.78845 1.91288 0
M  V30 5557 C 529.325 -0.656318 1.77025 0
M  V30 5558 O 528.682 -1.44869 1.10992 0
M  V30 5559 C 528.733 1.16444 3.42232 0
M  V30 5560 O 528.454 2.5525 3.5606 0
M  V30 5561 C 529.955 0.923937 4.33565 0
M  V30 5562 H 527.175 0.286389 0.606813 0
M  V30 5563 H 529.719 1.4073 1.48375 0
M  V30 5564 H 527.874 0.590266 3.82877 0
M  V30 5565 H 528.288 2.70097 4.49609 0
M  V30 5566 H 529.762 1.23672 5.37968 0
M  V30 5567 H 530.239 -0.140688 4.38975 0
M  V30 5568 H 530.845 1.48214 3.98639 0
M  V30 5569 N 529.16 -1.33526 0.837174 0
M  V30 5570 C 530.123 -2.27551 0.274421 0
M  V30 5571 C 531.123 -1.50886 -0.555881 0
M  V30 5572 O 532.313 -1.70227 -0.369918 0
M  V30 5573 C 529.445 -3.35332 -0.613605 0
M  V30 5574 H 530.638 -2.78837 1.10408 0
M  V30 5575 H 528.191 -1.439 0.610126 0
M  V30 5576 H 528.926 -2.89285 -1.46577 0
M  V30 5577 H 528.711 -3.92095 -0.0195341 0
M  V30 5578 H 530.201 -4.05433 -1.00068 0
M  V30 5579 N 530.638 -0.59345 -1.46 0
M  V30 5580 C 531.868 -0.0889642 -2.06408 0
M  V30 5581 C 532.276 1.22597 -1.44106 0
M  V30 5582 O 531.619 1.75448 -0.544398 0
M  V30 5583 C 531.681 0.139902 -3.59228 0
M  V30 5584 C 531.345 -1.09107 -4.43784 0
M  V30 5585 C 532.342 -2.00577 -4.79651 0
M  V30 5586 C 530.027 -1.31593 -4.84756 0
M  V30 5587 C 532.021 -3.12873 -5.55328 0
M  V30 5588 C 529.708 -2.44192 -5.60191 0
M  V30 5589 C 530.706 -3.34661 -5.95392 0
M  V30 5590 O 530.394 -4.45302 -6.69299 0
M  V30 5591 H 530.126 -0.0594613 -0.67338 0
M  V30 5592 H 532.68 -0.817 -1.88452 0
M  V30 5593 H 530.91 0.922672 -3.75531 0
M  V30 5594 H 532.599 0.594228 -4.01527 0
M  V30 5595 H 533.365 -1.84425 -4.48567 0
M  V30 5596 H 529.244 -0.620801 -4.56801 0
M  V30 5597 H 532.788 -3.83511 -5.82722 0
M  V30 5598 H 528.685 -2.60303 -5.90688 0
M  V30 5599 H 529.453 -4.43805 -6.87735 0
M  V30 5600 N 532.116 1.54067 -0.331816 0
M  V30 5601 C 533.363 2.00715 0.268269 0
M  V30 5602 C 533.691 1.21986 1.51491 0
M  V30 5603 O 532.946 0.292309 1.93505 0
M  V30 5604 C 533.245 3.51634 0.639392 0
M  V30 5605 C 532.911 4.48018 -0.509019 0
M  V30 5606 C 531.573 4.74089 -0.824209 0
M  V30 5607 C 533.925 5.05237 -1.28003 0
M  V30 5608 C 531.253 5.54637 -1.91298 0
M  V30 5609 C 533.605 5.86972 -2.35895 0
M  V30 5610 C 532.269 6.11342 -2.67987 0
M  V30 5611 H 531.539 0.734469 0.0981667 0
M  V30 5612 H 534.186 1.8596 -0.457304 0
M  V30 5613 H 532.491 3.6416 1.44551 0
M  V30 5614 H 534.188 3.85175 1.11539 0
M  V30 5615 H 530.778 4.27851 -0.253287 0
M  V30 5616 H 534.962 4.8507 -1.04978 0
M  V30 5617 H 530.218 5.71747 -2.16599 0
M  V30 5618 H 534.392 6.30327 -2.96076 0
M  V30 5619 H 532.019 6.73544 -3.5248 0
M  V30 5620 N 533.594 0.0601682 1.57485 0
M  V30 5621 C 534.841 -0.611594 1.93043 0
M  V30 5622 C 535.169 -1.70317 0.939274 0
M  V30 5623 O 534.424 -1.95644 -0.046996 0
M  V30 5624 C 534.723 -1.23831 3.35262 0
M  V30 5625 C 534.389 -0.274037 4.50066 0
M  V30 5626 C 533.051 -0.00872394 4.81199 0
M  V30 5627 C 535.403 0.386308 5.19766 0
M  V30 5628 C 532.731 0.924218 5.79375 0
M  V30 5629 C 535.083 1.3075 6.1894 0
M  V30 5630 C 533.747 1.58139 6.48497 0
M  V30 5631 H 533.017 -0.223798 0.706396 0
M  V30 5632 H 535.664 0.128566 1.91068 0
M  V30 5633 H 533.969 -2.05394 3.33647 0
M  V30 5634 H 535.666 -1.76517 3.60059 0
M  V30 5635 H 532.256 -0.491008 4.25778 0
M  V30 5636 H 536.44 0.194436 4.95919 0
M  V30 5637 H 531.696 1.1438 6.00606 0
M  V30 5638 H 535.87 1.82519 6.72056 0
M  V30 5639 H 533.497 2.30593 7.24383 0
M  V30 5640 N 535.072 -1.5615 -0.213296 0
M  V30 5641 C 536.019 -1.93086 -1.26437 0
M  V30 5642 C 536.989 -0.789086 -1.4616 0
M  V30 5643 O 538.174 -1.04569 -1.59593 0
M  V30 5644 C 535.314 -2.26003 -2.608 0
M  V30 5645 C 534.427 -3.53156 -2.48807 0
M  V30 5646 C 533.562 -3.7548 -3.7575 0
M  V30 5647 C 532.601 -4.96119 -3.58514 0
M  V30 5648 N 531.738 -5.14791 -4.77425 0
M  V30 5649 H 536.578 -2.82707 -0.942376 0
M  V30 5650 H 534.115 -1.39919 -0.454001 0
M  V30 5651 H 536.073 -2.431 -3.39055 0
M  V30 5652 H 534.703 -1.39546 -2.91079 0
M  V30 5653 H 533.755 -3.44207 -1.61944 0
M  V30 5654 H 535.067 -4.41565 -2.31996 0
M  V30 5655 H 534.221 -3.92718 -4.62447 0
M  V30 5656 H 532.96 -2.85368 -3.95495 0
M  V30 5657 H 531.965 -4.78823 -2.70201 0
M  V30 5658 H 533.19 -5.87724 -3.40231 0
M  V30 5659 H 531.136 -4.27623 -4.97468 0
M  V30 5660 H 531.053 -5.97347 -4.63371 0
M  V30 5661 H 532.321 -5.36471 -5.65525 0
M  V30 5662 N 536.55 0.480323 -1.50102 0
M  V30 5663 C 537.798 1.23063 -1.60312 0
M  V30 5664 C 538.119 1.92659 -0.301226 0
M  V30 5665 O 537.389 1.83691 0.680753 0
M  V30 5666 H 535.969 0.457231 -0.590719 0
M  V30 5667 H 538.631 0.554893 -1.86834 0
M  V30 5668 H 537.727 1.9835 -2.40964 0
M  V30 5669 N 538.028 1.39524 0.732853 0
M  V30 5670 C 539.439 1.32905 1.31122 0
M  V30 5671 C 539.79 -0.00558708 1.96199 0
M  V30 5672 O 538.915 -0.907706 1.96443 0
M  V30 5673 C 539.51 2.40704 2.38426 0
M  V30 5674 C 538.069 2.37599 2.91931 0
M  V30 5675 C 537.216 2.2248 1.65523 0
M  V30 5676 H 540.167 1.49581 0.530207 0
M  V30 5677 H 540.188 2.07616 3.18867 0
M  V30 5678 H 539.7 3.37829 1.91033 0
M  V30 5679 H 537.801 1.44119 3.43599 0
M  V30 5680 H 537.914 3.32538 3.44899 0
M  V30 5681 H 536.278 1.69691 1.8994 0
M  V30 5682 H 537.061 3.21577 1.20178 0
M  V30 5683 N 539.506 -0.963266 1.24736 0
M  V30 5684 C 540.456 -2.0438 1.01058 0
M  V30 5685 C 541.44 -1.60824 -0.0495354 0
M  V30 5686 O 542.632 -1.76232 0.164741 0
M  V30 5687 C 539.761 -3.37617 0.622067 0
M  V30 5688 C 538.847 -3.87722 1.7185 0
M  V30 5689 N 539.238 -4.10715 2.95207 0
M  V30 5690 C 537.536 -4.16426 1.59703 0
M  V30 5691 C 538.237 -4.51872 3.66315 0
M  V30 5692 N 537.213 -4.57302 2.93897 0
M  V30 5693 H 541.015 -2.20138 1.94721 0
M  V30 5694 H 538.529 -1.14741 1.14927 0
M  V30 5695 H 540.526 -4.14638 0.43366 0
M  V30 5696 H 539.186 -3.23242 -0.307327 0
M  V30 5697 H 540.197 -3.98037 3.31341 0
M  V30 5698 H 536.874 -4.10962 0.73598 0
M  V30 5699 H 538.264 -4.78037 4.72155 0
M  V30 5700 N 540.985 -1.06182 -1.16461 0
M  V30 5701 C 542.215 -0.797425 -1.9059 0
M  V30 5702 C 542.623 0.651845 -1.77616 0
M  V30 5703 O 541.966 1.45788 -1.11766 0
M  V30 5704 C 542.028 -1.11128 -3.41893 0
M  V30 5705 C 541.692 -2.55874 -3.78652 0
M  V30 5706 C 542.689 -3.54104 -3.80665 0
M  V30 5707 C 540.374 -2.91144 -4.09317 0
M  V30 5708 C 542.368 -4.85645 -4.12829 0
M  V30 5709 C 540.055 -4.22885 -4.41148 0
M  V30 5710 C 541.053 -5.19945 -4.42883 0
M  V30 5711 O 540.741 -6.49322 -4.73959 0
M  V30 5712 H 540.473 -0.288709 -0.611247 0
M  V30 5713 H 543.027 -1.41841 -1.4856 0
M  V30 5714 H 541.257 -0.433217 -3.84266 0
M  V30 5715 H 542.946 -0.831306 -3.97296 0
M  V30 5716 H 543.712 -3.28197 -3.57088 0
M  V30 5717 H 539.591 -2.16252 -4.07131 0
M  V30 5718 H 543.135 -5.61398 -4.14099 0
M  V30 5719 H 539.032 -4.48551 -4.6419 0
M  V30 5720 H 539.8 -6.54294 -4.91774 0
M  V30 5721 N 542.463 1.3308 -0.844243 0
M  V30 5722 C 543.709 1.98304 -0.452453 0
M  V30 5723 C 544.064 1.65645 0.978746 0
M  V30 5724 O 543.357 0.928849 1.6758 0
M  V30 5725 C 543.551 3.52045 -0.616354 0
M  V30 5726 C 543.38 3.99643 -2.06193 0
M  V30 5727 C 542.15 4.27224 -2.69829 0
M  V30 5728 C 544.348 4.15471 -3.03131 0
M  V30 5729 N 542.33 4.60998 -4.05406 0
M  V30 5730 C 543.701 4.52665 -4.23668 0
M  V30 5731 C 545.756 3.97776 -2.99465 0
M  V30 5732 C 544.459 4.74011 -5.41023 0
M  V30 5733 C 546.485 4.20301 -4.16055 0
M  V30 5734 C 545.847 4.57801 -5.35348 0
M  V30 5735 H 541.946 0.752122 -0.214096 0
M  V30 5736 H 544.53 1.61096 -1.09344 0
M  V30 5737 H 542.701 3.884 -0.00513205 0
M  V30 5738 H 544.433 4.04228 -0.19548 0
M  V30 5739 H 541.188 4.18911 -2.20931 0
M  V30 5740 H 541.612 4.82087 -4.75312 0
M  V30 5741 H 546.254 3.67893 -2.08362 0
M  V30 5742 H 543.972 5.02753 -6.32665 0
M  V30 5743 H 547.558 4.08122 -4.14641 0
M  V30 5744 H 546.438 4.74884 -6.24063 0
M  V30 5745 N 543.941 0.601185 1.45683 0
M  V30 5746 C 545.19 0.0914953 2.01492 0
M  V30 5747 C 545.503 -1.28331 1.47616 0
M  V30 5748 O 546.709 -1.88537 1.95362 0
M  V30 5749 C 545.165 0.11291 3.59723 0
M  V30 5750 C 544.773 1.48717 4.22596 0
M  V30 5751 C 546.517 -0.341871 4.23121 0
M  V30 5752 C 544.424 1.46531 5.7296 0
M  V30 5753 H 543.354 0.0304365 0.753385 0
M  V30 5754 H 546.005 0.755568 1.67223 0
M  V30 5755 H 544.387 -0.617692 3.91153 0
M  V30 5756 H 545.561 2.23897 4.02749 0
M  V30 5757 H 543.876 1.88351 3.71366 0
M  V30 5758 H 546.473 -0.377304 5.33367 0
M  V30 5759 H 546.816 -1.36325 3.93346 0
M  V30 5760 H 547.349 0.335256 3.96385 0
M  V30 5761 H 544.088 2.46408 6.07423 0
M  V30 5762 H 543.608 0.755997 5.95017 0
M  V30 5763 H 545.287 1.18618 6.36034 0
M  V30 5764 N 545.419 -1.53889 0.339982 0
M  V30 5765 C 546.647 -2.05271 -0.259114 0
M  V30 5766 C 547.062 -1.21517 -1.44496 0
M  V30 5767 O 546.419 -0.24966 -1.80784 0
M  V30 5768 C 546.47 -3.55092 -0.677634 0
M  V30 5769 O 546.191 -4.35667 0.461051 0
M  V30 5770 C 547.692 -4.22631 -1.33782 0
M  V30 5771 H 544.912 -0.669085 -0.0506566 0
M  V30 5772 H 547.456 -1.9852 0.490935 0
M  V30 5773 H 545.611 -3.62077 -1.37763 0
M  V30 5774 H 546.025 -5.24343 0.128144 0
M  V30 5775 H 547.499 -5.28861 -1.58145 0
M  V30 5776 H 547.976 -3.74758 -2.29027 0
M  V30 5777 H 548.582 -4.19829 -0.679957 0
M  V30 5778 N 546.897 -0.0685191 -1.57451 0
M  V30 5779 C 548.313 0.288101 -1.56978 0
M  V30 5780 C 548.513 1.70262 -1.07765 0
M  V30 5781 O 547.569 2.4135 -0.742054 0
M  V30 5782 C 548.882 0.100745 -3.00531 0
M  V30 5783 C 550.43 0.170531 -3.12535 0
M  V30 5784 C 550.905 0.0114944 -4.57999 0
M  V30 5785 N 552.396 0.0672065 -4.63151 0
M  V30 5786 C 553.131 -0.0314813 -5.73391 0
M  V30 5787 N 552.627 -0.183503 -6.92557 0
M  V30 5788 N 554.42 0.0253489 -5.62094 0
M  V30 5789 H 546.571 -0.993026 -1.87757 0
M  V30 5790 H 548.834 -0.386981 -0.865419 0
M  V30 5791 H 548.54 -0.875197 -3.40636 0
M  V30 5792 H 548.414 0.854457 -3.67395 0
M  V30 5793 H 550.801 1.13696 -2.72318 0
M  V30 5794 H 550.882 -0.614229 -2.48316 0
M  V30 5795 H 550.526 -0.951684 -4.98904 0
M  V30 5796 H 550.456 0.815617 -5.20245 0
M  V30 5797 H 552.947 0.183246 -3.77455 0
M  V30 5798 H 553.26 -0.251041 -7.72392 0
M  V30 5799 H 551.605 -0.218822 -6.94655 0
M  V30 5800 H 554.796 0.142794 -4.67882 0
M  V30 5801 H 554.969 -0.0550166 -6.47977 0
M  V30 5802 N 548.375 1.56261 0.205012 0
M  V30 5803 C 549.623 1.79684 0.925096 0
M  V30 5804 C 549.944 0.63989 1.84202 0
M  V30 5805 O 549.214 -0.342345 1.92885 0
M  V30 5806 H 547.794 0.662774 0.344587 0
M  V30 5807 H 550.456 1.93734 0.212899 0
M  V30 5808 H 549.552 2.72467 1.52211 0
M  V30 5809 N 549.853 -0.472356 1.50355 0
M  V30 5810 C 551.1 -1.22453 1.61281 0
M  V30 5811 C 551.428 -1.91972 0.31256 0
M  V30 5812 O 550.683 -1.82696 -0.701475 0
M  V30 5813 C 550.982 -2.29257 2.74182 0
M  V30 5814 C 550.648 -1.76999 4.14708 0
M  V30 5815 C 549.31 -1.62467 4.52944 0
M  V30 5816 C 551.662 -1.38215 5.0254 0
M  V30 5817 C 548.99 -1.07574 5.76754 0
M  V30 5818 C 551.342 -0.847638 6.26895 0
M  V30 5819 C 550.006 -0.688946 6.63935 0
M  V30 5820 H 549.276 -0.448087 0.590168 0
M  V30 5821 H 551.923 -0.520744 1.84284 0
M  V30 5822 H 550.228 -3.05538 2.45263 0
M  V30 5823 H 551.925 -2.87212 2.7984 0
M  V30 5824 H 548.515 -1.89276 3.84542 0
M  V30 5825 H 552.699 -1.48276 4.73633 0
M  V30 5826 H 547.955 -0.940237 6.04127 0
M  V30 5827 H 552.129 -0.538455 6.94315 0
M  V30 5828 H 549.756 -0.261435 7.5975 0
M  V30 5829 N 551.331 -1.39911 -0.725443 0
M  V30 5830 C 552.263 -1.35301 -1.85003 0
M  V30 5831 C 553.276 -0.260102 -1.60709 0
M  V30 5832 O 554.465 -0.519749 -1.70766 0
M  V30 5833 C 551.565 -1.08039 -3.21218 0
M  V30 5834 C 550.738 -2.28793 -3.7279 0
M  V30 5835 C 549.797 -1.97841 -4.87591 0
M  V30 5836 O 548.823 -2.70616 -5.00755 0
M  V30 5837 N 550.025 -0.950367 -5.72668 0
M  V30 5838 H 552.79 -2.32218 -1.89459 0
M  V30 5839 H 550.351 -1.34137 -0.90658 0
M  V30 5840 H 552.343 -0.853354 -3.95601 0
M  V30 5841 H 550.913 -0.198229 -3.11971 0
M  V30 5842 H 550.133 -2.67388 -2.8965 0
M  V30 5843 H 551.421 -3.09317 -4.03981 0
M  V30 5844 H 550.819 -0.347436 -5.64632 0
M  V30 5845 H 549.376 -0.783232 -6.47077 0
M  V30 5846 N 552.809 0.956637 -1.25245 0
M  V30 5847 C 553.742 2.05232 -0.99775 0
M  V30 5848 C 554.72 1.62439 0.0723137 0
M  V30 5849 O 555.904 1.88381 -0.066926 0
M  V30 5850 C 553.031 3.34871 -0.507861 0
M  V30 5851 C 552.077 3.96625 -1.56815 0
M  V30 5852 S 552.91 4.32853 -3.15276 0
M  V30 5853 C 554.066 5.65613 -2.68017 0
M  V30 5854 H 554.299 2.26521 -1.9255 0
M  V30 5855 H 551.832 1.09601 -1.08752 0
M  V30 5856 H 553.79 4.09845 -0.231858 0
M  V30 5857 H 552.451 3.11551 0.399356 0
M  V30 5858 H 551.644 4.90087 -1.17604 0
M  V30 5859 H 551.246 3.28124 -1.79473 0
M  V30 5860 H 553.538 6.43635 -2.11518 0
M  V30 5861 H 554.481 6.09693 -3.60112 0
M  V30 5862 H 554.889 5.24751 -2.0808 0
M  V30 5863 N 554.287 1.06798 1.15896 0
M  V30 5864 C 555.219 0.641263 2.20046 0
M  V30 5865 C 556.232 -0.303355 1.59949 0
M  V30 5866 O 557.421 -0.0935478 1.78255 0
M  V30 5867 C 554.521 -0.0794029 3.38807 0
M  V30 5868 C 553.694 0.879986 4.28457 0
M  V30 5869 C 552.753 0.197638 5.25829 0
M  V30 5870 O 551.779 0.836913 5.63014 0
M  V30 5871 N 552.981 -1.05886 5.70761 0
M  V30 5872 H 555.746 1.53718 2.57276 0
M  V30 5873 H 553.307 0.951951 1.30956 0
M  V30 5874 H 555.299 -0.546418 4.00994 0
M  V30 5875 H 553.869 -0.877193 3.0004 0
M  V30 5876 H 553.089 1.52625 3.63454 0
M  V30 5877 H 554.377 1.53065 4.8523 0
M  V30 5878 H 553.775 -1.59828 5.42652 0
M  V30 5879 H 552.332 -1.46965 6.35015 0
M  V30 5880 N 555.766 -1.3263 0.851289 0
M  V30 5881 C 557.014 -1.96978 0.452128 0
M  V30 5882 C 557.335 -1.67715 -0.99482 0
M  V30 5883 O 556.605 -0.98259 -1.69476 0
M  V30 5884 H 555.185 -0.72873 0.164202 0
M  V30 5885 H 557.847 -1.61774 1.08698 0
M  V30 5886 H 556.943 -3.06387 0.594407 0
M  V30 5887 N 557.244 -0.608902 -1.45362 0
M  V30 5888 C 558.655 -0.189511 -1.85736 0
M  V30 5889 C 559.006 1.2539 -1.50903 0
M  V30 5890 O 558.131 1.95094 -0.936347 0
M  V30 5891 C 558.726 -0.33716 -3.37118 0
M  V30 5892 C 557.285 0.0275487 -3.7639 0
M  V30 5893 C 556.432 -0.660983 -2.69307 0
M  V30 5894 H 559.383 -0.815499 -1.36144 0
M  V30 5895 H 559.404 0.430257 -3.7806 0
M  V30 5896 H 558.916 -1.38779 -3.62439 0
M  V30 5897 H 557.017 1.0773 -3.56686 0
M  V30 5898 H 557.13 -0.367018 -4.77692 0
M  V30 5899 H 555.494 -0.0984958 -2.54509 0
M  V30 5900 H 556.277 -1.71377 -2.97464 0
M  V30 5901 N 558.722 1.53707 -0.348139 0
M  V30 5902 C 560.133 1.86213 0.134797 0
M  V30 5903 C 560.484 1.26925 1.49614 0
M  V30 5904 O 559.609 0.584573 2.08355 0
M  V30 5905 C 560.204 3.37866 0.251371 0
M  V30 5906 C 558.763 3.70233 0.678543 0
M  V30 5907 C 557.91 2.76683 -0.184925 0
M  V30 5908 H 560.861 1.48204 -0.567571 0
M  V30 5909 H 560.882 3.64908 1.07806 0
M  V30 5910 H 560.394 3.80988 -0.739581 0
M  V30 5911 H 558.495 3.32659 1.67835 0
M  V30 5912 H 558.608 4.76836 0.465251 0
M  V30 5913 H 556.972 2.52374 0.343465 0
M  V30 5914 H 557.755 3.22635 -1.1731 0
M  V30 5915 N 560.2 0.0768682 1.57412 0
M  V30 5916 C 561.616 -0.279772 1.57129 0
M  V30 5917 C 561.816 -1.69688 1.08666 0
M  V30 5918 O 560.872 -2.40953 0.754843 0
M  V30 5919 C 562.185 -0.0848055 3.0058 0
M  V30 5920 C 563.733 -0.153954 3.12621 0
M  V30 5921 C 564.208 0.0127946 4.57998 0
M  V30 5922 N 565.699 -0.0426435 4.6318 0
M  V30 5923 C 566.434 0.0618892 5.73367 0
M  V30 5924 N 565.93 0.220229 6.9245 0
M  V30 5925 N 567.723 0.00446072 5.621 0
M  V30 5926 H 559.874 1.00297 1.87228 0
M  V30 5927 H 562.137 0.391565 0.863354 0
M  V30 5928 H 561.843 0.89325 3.40168 0
M  V30 5929 H 561.717 -0.834961 3.67843 0
M  V30 5930 H 564.104 -1.1225 2.72917 0
M  V30 5931 H 564.185 0.627389 2.47987 0
M  V30 5932 H 563.829 0.978128 4.98392 0
M  V30 5933 H 563.759 -0.788016 5.20671 0
M  V30 5934 H 566.25 -0.163226 3.77547 0
M  V30 5935 H 566.563 0.291999 7.72248 0
M  V30 5936 H 564.908 0.255658 6.9453 0
M  V30 5937 H 568.099 -0.117979 4.67951 0
M  V30 5938 H 568.272 0.0893796 6.47938 0
M  V30 5939 N 561.678 -1.56367 -0.196722 0
M  V30 5940 C 562.906 -1.84639 -0.933608 0
M  V30 5941 C 563.321 -0.659164 -1.76919 0
M  V30 5942 O 562.678 0.372142 -1.78665 0
M  V30 5943 C 562.729 -3.11694 -1.83109 0
M  V30 5944 O 562.45 -4.25838 -1.02924 0
M  V30 5945 C 563.951 -3.53132 -2.67979 0
M  V30 5946 H 561.171 -0.613188 -0.272473 0
M  V30 5947 H 563.715 -2.03475 -0.204465 0
M  V30 5948 H 561.87 -2.94759 -2.51387 0
M  V30 5949 H 562.284 -4.98178 -1.64069 0
M  V30 5950 H 563.758 -4.45005 -3.26611 0
M  V30 5951 H 564.235 -2.76045 -3.41608 0
M  V30 5952 H 564.841 -3.72592 -2.05074 0
M  V30 5953 N 563.156 0.464375 -1.50603 0
M  V30 5954 C 564.405 1.21277 -1.61167 0
M  V30 5955 C 564.718 1.92953 -0.320704 0
M  V30 5956 O 565.924 2.69778 -0.30534 0
M  V30 5957 C 564.38 2.20403 -2.84518 0
M  V30 5958 C 563.988 1.54499 -4.20516 0
M  V30 5959 C 565.732 2.95843 -3.0443 0
M  V30 5960 C 563.639 2.51951 -5.35047 0
M  V30 5961 H 562.569 0.456367 -0.600204 0
M  V30 5962 H 565.22 0.48254 -1.77042 0
M  V30 5963 H 563.602 2.96746 -2.62217 0
M  V30 5964 H 564.776 0.83899 -4.53098 0
M  V30 5965 H 563.091 0.913152 -4.06264 0
M  V30 5966 H 565.688 3.6879 -3.87167 0
M  V30 5967 H 566.031 3.55622 -2.16423 0
M  V30 5968 H 566.564 2.26611 -3.26944 0
M  V30 5969 H 563.303 1.96901 -6.25228 0
M  V30 5970 H 562.823 3.20683 -5.06875 0
M  V30 5971 H 564.502 3.13643 -5.65895 0
M  V30 5972 N 564.634 1.40294 0.718013 0
M  V30 5973 C 565.864 1.41544 1.50495 0
M  V30 5974 C 566.272 0.0127877 1.89196 0
M  V30 5975 O 565.615 -0.97305 1.55812 0
M  V30 5976 C 565.677 2.24021 2.81167 0
M  V30 5977 C 565.341 3.72463 2.64803 0
M  V30 5978 C 566.338 4.65154 2.32223 0
M  V30 5979 C 564.023 4.1625 2.81143 0
M  V30 5980 C 566.017 5.99618 2.16189 0
M  V30 5981 C 563.704 5.50784 2.64727 0
M  V30 5982 C 564.702 6.42283 2.32297 0
M  V30 5983 O 564.39 7.74337 2.16004 0
M  V30 5984 H 564.122 0.484819 0.471091 0
M  V30 5985 H 566.676 1.84948 0.893488 0
M  V30 5986 H 564.906 1.75393 3.44636 0
M  V30 5987 H 566.595 2.17243 3.42871 0
M  V30 5988 H 567.361 4.32622 2.19234 0
M  V30 5989 H 563.24 3.45352 3.05373 0
M  V30 5990 H 566.784 6.71 1.90799 0
M  V30 5991 H 562.681 5.82902 2.773 0
M  V30 5992 H 563.449 7.85244 2.30942 0
M  V30 5993 N 566.112 -0.949982 1.2575 0
M  V30 5994 C 567.389 -1.6718 1.01539 0
M  V30 5995 C 567.769 -2.06095 -0.456942 0
M  V30 5996 O 567.117 -1.77792 -1.43534 0
M  V30 5997 C 567.327 -2.8906 1.95564 0
M  V30 5998 C 568.675 -3.60909 2.23673 0
M  V30 5999 O 569.699 -2.9915 1.9336 0
M  V30 6000 O 568.558 -4.72127 2.75243 0
M  V30 6001 H 565.652 -0.731697 0.385419 0
M  V30 6002 H 568.198 -1.00249 1.36924 0
M  V30 6003 H 566.97 -2.57128 2.94959 0
M  V30 6004 H 566.593 -3.63719 1.60605 0
M  V30 6005 N 567.59 -1.07411 -1.15328 0
M  V30 6006 C 568.837 -0.797649 -1.86128 0
M  V30 6007 C 569.165 0.676298 -1.82364 0
M  V30 6008 O 568.42 1.51223 -1.24218 0
M  V30 6009 C 568.719 -1.25191 -3.34757 0
M  V30 6010 C 568.385 -2.73191 -3.58716 0
M  V30 6011 C 567.047 -3.13616 -3.64964 0
M  V30 6012 C 569.399 -3.68718 -3.6837 0
M  V30 6013 C 566.727 -4.48383 -3.78377 0
M  V30 6014 C 569.079 -5.03248 -3.83306 0
M  V30 6015 C 567.743 -5.43293 -3.878 0
M  V30 6016 H 567.013 -0.29188 -0.681092 0
M  V30 6017 H 569.66 -1.34524 -1.36292 0
M  V30 6018 H 567.965 -0.623712 -3.86804 0
M  V30 6019 H 569.662 -1.01489 -3.87945 0
M  V30 6020 H 566.252 -2.40898 -3.54494 0
M  V30 6021 H 570.436 -3.38614 -3.62842 0
M  V30 6022 H 565.692 -4.78877 -3.80114 0
M  V30 6023 H 569.866 -5.77142 -3.89718 0
M  V30 6024 H 567.493 -6.47721 -3.97946 0
M  V30 6025 N 569.068 1.32177 -0.85831 0
M  V30 6026 C 570.316 1.96735 -0.462568 0
M  V30 6027 C 570.637 1.6824 0.985911 0
M  V30 6028 O 569.907 0.991564 1.68952 0
M  V30 6029 H 568.487 0.727849 -0.168064 0
M  V30 6030 H 571.149 1.61195 -1.09554 0
M  V30 6031 H 570.245 3.06068 -0.610647 0
M  V30 6032 N 570.547 0.616602 1.45037 0
M  V30 6033 C 571.794 0.115331 2.02171 0
M  V30 6034 C 572.122 -1.25748 1.48383 0
M  V30 6035 O 571.377 -1.84511 0.652229 0
M  V30 6036 C 571.676 0.0356829 3.57382 0
M  V30 6037 C 571.342 1.34535 4.30362 0
M  V30 6038 C 570.004 1.70408 4.50016 0
M  V30 6039 C 572.356 2.21049 4.72003 0
M  V30 6040 C 569.684 2.92529 5.0857 0
M  V30 6041 C 572.036 3.42427 5.31908 0
M  V30 6042 C 570.7 3.78541 5.49784 0
M  V30 6043 H 569.97 0.0422024 0.739797 0
M  V30 6044 H 572.617 0.80002 1.73988 0
M  V30 6045 H 570.922 -0.732314 3.84895 0
M  V30 6046 H 572.619 -0.368463 3.99304 0
M  V30 6047 H 569.209 1.05615 4.15383 0
M  V30 6048 H 573.393 1.94632 4.56544 0
M  V30 6049 H 568.649 3.20605 5.20598 0
M  V30 6050 H 572.823 4.09709 5.63127 0
M  V30 6051 H 570.45 4.73255 5.94923 0
M  V30 6052 N 572.025 -1.5352 0.356285 0
M  V30 6053 C 573.436 -1.86282 -0.12492 0
M  V30 6054 C 573.787 -1.27717 -1.48939 0
M  V30 6055 O 572.912 -0.595614 -2.08042 0
M  V30 6056 C 573.507 -3.37995 -0.23345 0
M  V30 6057 C 572.066 -3.70588 -0.658899 0
M  V30 6058 C 571.213 -2.76581 0.199596 0
M  V30 6059 H 574.164 -1.47901 0.575423 0
M  V30 6060 H 574.185 -3.65475 -1.0587 0
M  V30 6061 H 573.697 -3.8059 0.759776 0
M  V30 6062 H 571.798 -3.33544 -1.66069 0
M  V30 6063 H 571.911 -4.77076 -0.439957 0
M  V30 6064 H 570.275 -2.52552 -0.330076 0
M  V30 6065 H 571.058 -3.22008 1.19019 0
M  V30 6066 N 573.503 -0.0852151 -1.57369 0
M  V30 6067 C 574.919 0.271436 -1.57275 0
M  V30 6068 C 575.119 1.69109 -1.09565 0
M  V30 6069 O 574.175 2.40549 -0.767611 0
M  V30 6070 C 575.488 0.0688638 -3.00621 0
M  V30 6071 C 577.036 0.137373 -3.12698 0
M  V30 6072 C 577.511 -0.0370832 -4.57985 0
M  V30 6073 N 579.002 0.0180794 -4.63196 0
M  V30 6074 C 579.737 -0.0922953 -5.73326 0
M  V30 6075 N 579.233 -0.256948 -6.92323 0
M  V30 6076 N 581.026 -0.0342702 -5.6209 0
M  V30 6077 H 573.177 -1.01288 -1.86693 0
M  V30 6078 H 575.44 -0.396138 -0.861266 0
M  V30 6079 H 575.146 -0.911277 -3.39689 0
M  V30 6080 H 575.02 0.815442 -3.6828 0
M  V30 6081 H 577.407 1.10801 -2.73509 0
M  V30 6082 H 577.488 -0.640532 -2.47651 0
M  V30 6083 H 577.132 -1.00455 -4.97867 0
M  V30 6084 H 577.062 0.760392 -5.21081 0
M  V30 6085 H 579.553 0.143202 -3.77629 0
M  V30 6086 H 579.866 -0.332949 -7.72082 0
M  V30 6087 H 578.211 -0.292487 -6.94384 0
M  V30 6088 H 581.402 0.0931605 -4.68007 0
M  V30 6089 H 581.575 -0.12374 -6.47882 0
M  V30 6090 N 574.981 1.5647 0.188427 0
M  V30 6091 C 575.931 1.91479 1.23774 0
M  V30 6092 C 576.915 0.78119 1.40664 0
M  V30 6093 O 578.107 1.04414 1.42922 0
M  V30 6094 C 575.236 2.26354 2.58106 0
M  V30 6095 C 574.322 3.46186 2.44981 0
M  V30 6096 N 574.713 4.63911 2.01546 0
M  V30 6097 C 573.011 3.50456 2.75856 0
M  V30 6098 C 573.712 5.46064 2.00472 0
M  V30 6099 N 572.688 4.86648 2.42229 0
M  V30 6100 H 576.49 2.79994 0.893339 0
M  V30 6101 H 574.004 1.57477 0.39682 0
M  V30 6102 H 576.001 2.49622 3.33908 0
M  V30 6103 H 574.661 1.39168 2.93364 0
M  V30 6104 H 575.672 4.88451 1.7215 0
M  V30 6105 H 572.349 2.73704 3.15265 0
M  V30 6106 H 573.739 6.50368 1.68734 0
M  V30 6107 N 576.459 -0.456382 1.50847 0
M  V30 6108 C 577.705 -1.20914 1.62811 0
M  V30 6109 C 578.038 -1.91301 0.334304 0
M  V30 6110 O 577.313 -1.82775 -0.665098 0
M  V30 6111 C 577.596 -2.24122 2.81853 0
M  V30 6112 C 577.449 -1.57944 4.21158 0
M  V30 6113 C 578.768 -3.25295 2.96431 0
M  V30 6114 H 575.887 -0.438233 0.592554 0
M  V30 6115 H 578.529 -0.50091 1.83278 0
M  V30 6116 H 576.679 -2.84524 2.64534 0
M  V30 6117 H 578.351 -1.01025 4.50102 0
M  V30 6118 H 576.594 -0.882185 4.24735 0
M  V30 6119 H 577.265 -2.33014 5.00408 0
M  V30 6120 H 579.741 -2.7493 3.12335 0
M  V30 6121 H 578.617 -3.94822 3.81322 0
M  V30 6122 H 578.878 -3.90286 2.07676 0
M  V30 6123 N 577.937 -1.40673 -0.710563 0
M  V30 6124 C 578.869 -1.37256 -1.83558 0
M  V30 6125 C 579.882 -0.277133 -1.60424 0
M  V30 6126 O 581.071 -0.537831 -1.70205 0
M  V30 6127 C 578.171 -1.1144 -3.20054 0
M  V30 6128 C 577.344 -2.32734 -3.70342 0
M  V30 6129 C 576.403 -2.03002 -4.85465 0
M  V30 6130 O 575.429 -2.75912 -4.97857 0
M  V30 6131 N 576.631 -1.01105 -5.71627 0
M  V30 6132 H 579.396 -2.34215 -1.86985 0
M  V30 6133 H 576.957 -1.35091 -0.892301 0
M  V30 6134 H 578.949 -0.895265 -3.94673 0
M  V30 6135 H 577.519 -0.231307 -3.11743 0
M  V30 6136 H 576.739 -2.70446 -2.86798 0
M  V30 6137 H 578.027 -3.13584 -4.00678 0
M  V30 6138 H 577.425 -0.407303 -5.64232 0
M  V30 6139 H 575.982 -0.85182 -6.4621 0
M  V30 6140 N 579.415 0.9433 -1.26252 0
M  V30 6141 C 580.347 2.04542 -1.03417 0
M  V30 6142 C 581.36 1.62799 0.0046911 0
M  V30 6143 O 582.549 1.76944 -0.235146 0
M  V30 6144 C 579.649 3.34511 -0.543671 0
M  V30 6145 C 578.822 4.05033 -1.65128 0
M  V30 6146 C 577.881 5.13273 -1.1592 0
M  V30 6147 O 576.907 5.38095 -1.85586 0
M  V30 6148 N 578.109 5.805 -0.00649279 0
M  V30 6149 H 580.874 2.24699 -1.98319 0
M  V30 6150 H 578.435 1.11264 -1.1761 0
M  V30 6151 H 580.427 4.04212 -0.198703 0
M  V30 6152 H 578.997 3.11042 0.311711 0
M  V30 6153 H 578.217 3.29275 -2.16729 0
M  V30 6154 H 579.505 4.48903 -2.39508 0
M  V30 6155 H 578.903 5.62767 0.575347 0
M  V30 6156 H 577.46 6.51201 0.279416 0
M  V30 6157 N 580.893 1.08022 1.14757 0
M  V30 6158 C 582.142 0.802468 1.8505 0
M  V30 6159 C 582.455 -0.674061 1.83619 0
M  V30 6160 O 583.661 -1.06683 2.49662 0
M  V30 6161 C 582.117 1.38551 3.32162 0
M  V30 6162 C 581.725 2.89354 3.42021 0
M  V30 6163 C 583.469 1.18608 4.07594 0
M  V30 6164 C 581.376 3.40815 4.83321 0
M  V30 6165 H 580.306 0.296518 0.693248 0
M  V30 6166 H 582.957 1.30114 1.29393 0
M  V30 6167 H 581.339 0.814556 3.87532 0
M  V30 6168 H 582.513 3.52552 2.96722 0
M  V30 6169 H 580.828 3.08165 2.80041 0
M  V30 6170 H 583.425 1.54525 5.11885 0
M  V30 6171 H 583.768 0.125599 4.1611 0
M  V30 6172 H 584.301 1.72375 3.58513 0
M  V30 6173 H 581.04 4.46418 4.79991 0
M  V30 6174 H 580.56 2.82374 5.29174 0
M  V30 6175 H 582.239 3.37171 5.522 0
M  V30 6176 N 582.371 -1.3172 0.865308 0
M  V30 6177 C 583.648 -1.91574 0.394789 0
M  V30 6178 C 584.028 -1.78769 -1.12271 0
M  V30 6179 O 583.376 -1.19245 -1.94918 0
M  V30 6180 C 583.586 -3.37957 0.870982 0
M  V30 6181 C 584.934 -4.15073 0.894384 0
M  V30 6182 O 585.958 -3.4672 0.816325 0
M  V30 6183 O 584.817 -5.37151 1.00651 0
M  V30 6184 H 581.911 -0.818649 0.117229 0
M  V30 6185 H 584.457 -1.4042 0.952913 0
M  V30 6186 H 583.229 -3.41269 1.91444 0
M  V30 6187 H 582.852 -3.96534 0.290907 0
M  V30 6188 N 583.85 -0.624285 -1.44708 0
M  V30 6189 C 584.812 0.0749638 -2.29077 0
M  V30 6190 C 585.812 0.778965 -1.40673 0
M  V30 6191 O 587.003 0.624591 -1.62618 0
M  V30 6192 C 584.135 1.11663 -3.22094 0
M  V30 6193 H 585.327 -0.667013 -2.92388 0
M  V30 6194 H 582.88 -0.384098 -1.51507 0
M  V30 6195 H 583.615 1.88881 -2.63618 0
M  V30 6196 H 583.401 0.61583 -3.87234 0
M  V30 6197 H 584.891 1.60585 -3.8549 0
M  V30 6198 N 585.328 1.53329 -0.364422 0
M  V30 6199 C 586.291 2.24323 0.470292 0
M  V30 6200 C 587.291 1.25068 1.01067 0
M  V30 6201 O 588.481 1.49354 0.896605 0
M  V30 6202 C 585.613 2.97908 1.65722 0
M  V30 6203 H 586.806 2.9952 -0.150917 0
M  V30 6204 H 584.359 1.55868 -0.116092 0
M  V30 6205 H 585.094 2.2695 2.31655 0
M  V30 6206 H 584.879 3.70732 1.27671 0
M  V30 6207 H 586.369 3.5188 2.24878 0
M  V30 6208 N 586.806 0.0935595 1.57322 0
M  V30 6209 C 588.052 -0.571355 1.94585 0
M  V30 6210 C 588.385 -1.67929 0.975366 0
M  V30 6211 O 587.66 -1.94498 0.00816206 0
M  V30 6212 C 587.943 -1.12797 3.41978 0
M  V30 6213 C 587.796 -0.0251881 4.49793 0
M  V30 6214 C 589.115 -2.02682 3.90651 0
M  V30 6215 H 586.234 -0.206223 0.70756 0
M  V30 6216 H 588.876 0.163956 1.89291 0
M  V30 6217 H 587.026 -1.75461 3.4662 0
M  V30 6218 H 588.698 0.608979 4.57263 0
M  V30 6219 H 586.941 0.641399 4.29032 0
M  V30 6220 H 587.612 -0.455433 5.50118 0
M  V30 6221 H 590.088 -1.49925 3.88152 0
M  V30 6222 H 588.964 -2.38555 4.94351 0
M  V30 6223 H 589.225 -2.94362 3.29854 0
M  V30 6224 N 588.284 -1.56567 -0.180126 0
M  V30 6225 C 589.514 -1.85349 -0.912647 0
M  V30 6226 C 589.922 -0.675795 -1.76719 0
M  V30 6227 O 589.265 0.3645 -1.80047 0
M  V30 6228 C 589.327 -3.08431 -1.84691 0
M  V30 6229 C 588.991 -4.41694 -1.17284 0
M  V30 6230 C 589.988 -5.17062 -0.542532 0
M  V30 6231 C 587.673 -4.8843 -1.17223 0
M  V30 6232 C 589.667 -6.37351 0.0793953 0
M  V30 6233 C 587.354 -6.08652 -0.54647 0
M  V30 6234 C 588.352 -6.82955 0.0782458 0
M  V30 6235 O 588.04 -8.00897 0.694158 0
M  V30 6236 H 587.772 -0.619286 -0.271036 0
M  V30 6237 H 590.326 -2.0454 -0.187768 0
M  V30 6238 H 588.556 -2.85163 -2.61188 0
M  V30 6239 H 590.245 -3.23733 -2.44851 0
M  V30 6240 H 591.011 -4.8204 -0.535045 0
M  V30 6241 H 586.89 -4.30542 -1.64788 0
M  V30 6242 H 590.434 -6.95287 0.567612 0
M  V30 6243 H 586.331 -6.4314 -0.55151 0
M  V30 6244 H 587.099 -8.16352 0.592537 0
M  V30 6245 N 589.762 0.448376 -1.51087 0
M  V30 6246 C 590.692 1.55102 -1.74544 0
M  V30 6247 C 591.673 1.59357 -0.594932 0
M  V30 6248 O 592.858 1.75261 -0.836491 0
M  V30 6249 C 589.988 2.93268 -1.86041 0
M  V30 6250 C 588.942 3.03877 -3.01402 0
M  V30 6251 C 588.268 4.43914 -2.98068 0
M  V30 6252 C 589.568 2.7898 -4.41551 0
M  V30 6253 H 591.262 1.35724 -2.66869 0
M  V30 6254 H 588.808 0.651498 -1.28419 0
M  V30 6255 H 590.761 3.70356 -2.01034 0
M  V30 6256 H 589.485 3.13853 -0.903548 0
M  V30 6257 H 588.144 2.29227 -2.86096 0
M  V30 6258 H 587.792 4.6145 -2.00182 0
M  V30 6259 H 587.492 4.51944 -3.75527 0
M  V30 6260 H 589.016 5.22991 -3.1514 0
M  V30 6261 H 590.43 3.45805 -4.57265 0
M  V30 6262 H 588.827 2.98431 -5.20633 0
M  V30 6263 H 589.897 1.74663 -4.5235 0
M  V30 6264 N 591.24 1.41047 0.703093 0
M  V30 6265 C 592.656 1.23351 1.01275 0
M  V30 6266 C 592.856 0.11754 2.01157 0
M  V30 6267 O 591.912 -0.520518 2.47077 0
M  V30 6268 C 593.225 2.58001 1.54454 0
M  V30 6269 C 594.773 2.65119 1.66376 0
M  V30 6270 C 595.248 4.00067 2.22958 0
M  V30 6271 N 596.739 4.01875 2.30328 0
M  V30 6272 C 597.474 5.03087 2.75119 0
M  V30 6273 N 596.97 6.14692 3.19571 0
M  V30 6274 N 598.763 4.90451 2.74616 0
M  V30 6275 H 590.914 2.1236 0.0412686 0
M  V30 6276 H 593.177 0.944543 0.08089 0
M  V30 6277 H 592.883 3.40378 0.88521 0
M  V30 6278 H 592.757 2.79962 2.52786 0
M  V30 6279 H 595.144 1.83106 2.31422 0
M  V30 6280 H 595.225 2.46975 0.666089 0
M  V30 6281 H 594.869 4.82526 1.58529 0
M  V30 6282 H 594.799 4.15547 3.23462 0
M  V30 6283 H 597.29 3.21291 1.98949 0
M  V30 6284 H 597.603 6.87799 3.52352 0
M  V30 6285 H 595.948 6.18239 3.17498 0
M  V30 6286 H 599.139 4.0235 2.39233 0
M  V30 6287 H 599.312 5.6947 3.09206 0
M  V30 6288 N 592.718 -0.936591 1.26751 0
M  V30 6289 C 593.628 -2.06949 1.10496 0
M  V30 6290 C 594.644 -1.7396 0.037271 0
M  V30 6291 O 595.82 -1.99941 0.241944 0
M  V30 6292 C 592.885 -3.38612 0.744491 0
M  V30 6293 C 591.946 -3.85355 1.89209 0
M  V30 6294 C 591.179 -5.10735 1.54873 0
M  V30 6295 O 591.402 -5.68602 0.452546 0
M  V30 6296 O 590.336 -5.52632 2.38499 0
M  V30 6297 H 594.162 -2.23571 2.05547 0
M  V30 6298 H 591.747 -1.05428 1.05855 0
M  V30 6299 H 593.629 -4.17711 0.556396 0
M  V30 6300 H 592.304 -3.23218 -0.176582 0
M  V30 6301 H 591.211 -3.07182 2.13518 0
M  V30 6302 H 592.544 -4.05277 2.79305 0
M  V30 6303 N 594.196 -1.08629 -1.14182 0
M  V30 6304 C 595.607 -0.838003 -1.66836 0
M  V30 6305 C 595.958 0.634885 -1.85644 0
M  V30 6306 O 595.083 1.49008 -1.56926 0
M  V30 6307 C 595.678 -1.51465 -3.03058 0
M  V30 6308 C 594.237 -1.31355 -3.52736 0
M  V30 6309 C 593.384 -1.57599 -2.28162 0
M  V30 6310 H 596.335 -1.24656 -0.982165 0
M  V30 6311 H 596.356 -0.943134 -3.68626 0
M  V30 6312 H 595.868 -2.58661 -2.89337 0
M  V30 6313 H 593.969 -0.262384 -3.71675 0
M  V30 6314 H 594.082 -2.04275 -4.33369 0
M  V30 6315 H 592.446 -0.997659 -2.34348 0
M  V30 6316 H 593.229 -2.66006 -2.17015 0
M  V30 6317 N 595.674 1.31259 -0.872281 0
M  V30 6318 C 596.606 2.27396 -0.28697 0
M  V30 6319 C 597.619 1.53181 0.551297 0
M  V30 6320 O 598.808 1.74561 0.372914 0
M  V30 6321 C 595.908 3.33335 0.611617 0
M  V30 6322 C 595.081 4.36966 -0.194729 0
M  V30 6323 C 594.14 5.22387 0.632358 0
M  V30 6324 O 593.166 5.69169 0.0595691 0
M  V30 6325 N 594.368 5.46985 1.94391 0
M  V30 6326 H 597.133 2.78261 -1.11314 0
M  V30 6327 H 594.694 1.44306 -0.733994 0
M  V30 6328 H 596.686 3.87398 1.17068 0
M  V30 6329 H 595.256 2.82496 1.33846 0
M  V30 6330 H 594.476 3.82945 -0.935241 0
M  V30 6331 H 595.764 5.03273 -0.747935 0
M  V30 6332 H 595.162 5.10737 2.43237 0
M  V30 6333 H 593.719 6.03973 2.45071 0
M  V30 6334 N 597.152 0.631951 1.44375 0
M  V30 6335 C 598.099 -0.0724807 2.30686 0
M  V30 6336 C 599.069 -0.835975 1.43529 0
M  V30 6337 O 600.254 -0.816849 1.7243 0
M  V30 6338 C 597.394 -1.04753 3.28817 0
M  V30 6339 C 596.507 -0.282367 4.31076 0
M  V30 6340 C 595.642 -1.2493 5.163 0
M  V30 6341 C 594.681 -0.473349 6.10267 0
M  V30 6342 N 593.818 -1.39079 6.88187 0
M  V30 6343 H 598.658 0.669477 2.90383 0
M  V30 6344 H 596.195 0.341927 1.43071 0
M  V30 6345 H 598.153 -1.62623 3.842 0
M  V30 6346 H 596.783 -1.75661 2.70819 0
M  V30 6347 H 595.835 0.412268 3.78159 0
M  V30 6348 H 597.147 0.321955 4.9776 0
M  V30 6349 H 596.301 -1.89931 5.76204 0
M  V30 6350 H 595.04 -1.88755 4.49692 0
M  V30 6351 H 594.045 0.190142 5.49471 0
M  V30 6352 H 595.27 0.16019 6.78911 0
M  V30 6353 H 593.216 -2.01623 6.24247 0
M  V30 6354 H 593.133 -0.840513 7.51313 0
M  V30 6355 H 594.401 -2.02961 7.52613 0
M  V30 6356 N 598.631 -1.53133 0.372548 0
M  V30 6357 C 599.859 -2.05774 -0.215515 0
M  V30 6358 C 600.274 -1.24555 -1.41886 0
M  V30 6359 O 599.631 -0.287951 -1.80214 0
M  V30 6360 C 599.682 -3.5645 -0.602161 0
M  V30 6361 O 599.403 -4.34591 0.553359 0
M  V30 6362 C 600.904 -4.25374 -1.24787 0
M  V30 6363 H 598.124 -0.670009 -0.0364529 0
M  V30 6364 H 600.668 -1.97434 0.532934 0
M  V30 6365 H 598.823 -3.64918 -1.30052 0
M  V30 6366 H 599.237 -5.23954 0.239336 0
M  V30 6367 H 600.711 -5.32097 -1.46891 0
M  V30 6368 H 601.188 -3.79531 -2.21026 0
M  V30 6369 H 601.794 -4.21177 -0.590752 0
M  V30 6370 N 600.109 -0.101901 -1.5727 0
M  V30 6371 C 601.039 0.851544 -2.17419 0
M  V30 6372 C 602.02 1.28942 -1.10941 0
M  V30 6373 O 603.205 1.35509 -1.39107 0
M  V30 6374 C 600.335 2.10816 -2.75996 0
M  V30 6375 C 599.289 1.80867 -3.87906 0
M  V30 6376 C 598.615 3.13413 -4.33216 0
M  V30 6377 C 599.915 1.0903 -5.10793 0
M  V30 6378 H 601.609 0.350381 -2.97343 0
M  V30 6379 H 599.155 0.16709 -1.43027 0
M  V30 6380 H 601.108 2.77959 -3.16729 0
M  V30 6381 H 599.832 2.63227 -1.93337 0
M  V30 6382 H 598.491 1.16119 -3.47724 0
M  V30 6383 H 598.139 3.63725 -3.47438 0
M  V30 6384 H 597.839 2.94155 -5.08671 0
M  V30 6385 H 599.363 3.81704 -4.76586 0
M  V30 6386 H 600.777 1.66295 -5.48652 0
M  V30 6387 H 599.174 0.99927 -5.91722 0
M  V30 6388 H 600.244 0.0741704 -4.84843 0
M  V30 6389 N 601.587 1.56661 0.17182 0
M  V30 6390 C 602.834 1.81965 0.888529 0
M  V30 6391 C 603.162 0.6789 1.82267 0
M  V30 6392 O 602.417 -0.333875 1.92831 0
M  V30 6393 C 602.716 3.13435 1.71736 0
M  V30 6394 C 602.382 4.41159 0.932184 0
M  V30 6395 C 601.044 4.75851 0.715481 0
M  V30 6396 C 603.396 5.19803 0.381387 0
M  V30 6397 C 600.724 5.86666 -0.063126 0
M  V30 6398 C 603.076 6.31433 -0.384129 0
M  V30 6399 C 601.74 6.64692 -0.611637 0
M  V30 6400 H 601.01 0.665859 0.325136 0
M  V30 6401 H 603.657 1.90884 0.153495 0
M  V30 6402 H 601.962 2.99857 2.52177 0
M  V30 6403 H 603.659 3.30224 2.27493 0
M  V30 6404 H 600.249 4.13947 1.11112 0
M  V30 6405 H 604.433 4.93396 0.536148 0
M  V30 6406 H 599.689 6.10892 -0.249136 0
M  V30 6407 H 603.863 6.91577 -0.818185 0
M  V30 6408 H 601.49 7.50398 -1.21684 0
M  V30 6409 N 603.065 -0.440357 1.51323 0
M  V30 6410 C 604.312 -1.19004 1.63842 0
M  V30 6411 C 604.64 -1.91266 0.35321 0
M  V30 6412 O 603.895 -1.84143 -0.662565 0
M  V30 6413 C 604.194 -2.2339 2.78984 0
M  V30 6414 C 603.86 -1.68162 4.18369 0
M  V30 6415 C 602.522 -1.52823 4.56288 0
M  V30 6416 C 604.874 -1.27524 5.05358 0
M  V30 6417 C 602.202 -0.953157 5.78906 0
M  V30 6418 C 604.554 -0.714474 6.28552 0
M  V30 6419 C 603.218 -0.547961 6.65247 0
M  V30 6420 H 602.488 -0.435468 0.59954 0
M  V30 6421 H 605.135 -0.481538 1.85347 0
M  V30 6422 H 603.44 -3.00267 2.51688 0
M  V30 6423 H 605.137 -2.81211 2.85869 0
M  V30 6424 H 601.727 -1.81077 3.8847 0
M  V30 6425 H 605.911 -1.38197 4.76671 0
M  V30 6426 H 601.167 -0.811882 6.05986 0
M  V30 6427 H 605.341 -0.391059 6.95301 0
M  V30 6428 H 602.968 -0.100222 7.60134 0
M  V30 6429 N 604.543 -1.41418 -0.695603 0
M  V30 6430 C 605.789 -1.40982 -1.4578 0
M  V30 6431 C 606.122 -0.0187763 -1.94191 0
M  V30 6432 O 605.397 0.95346 -1.69527 0
M  V30 6433 C 605.68 -2.41657 -2.66972 0
M  V30 6434 C 605.533 -3.89869 -2.24327 0
M  V30 6435 C 606.852 -2.39589 -3.69168 0
M  V30 6436 H 603.971 -0.513405 -0.528757 0
M  V30 6437 H 606.613 -1.72693 -0.792275 0
M  V30 6438 H 604.763 -2.14746 -3.23754 0
M  V30 6439 H 606.435 -4.27683 -1.72872 0
M  V30 6440 H 604.678 -4.04737 -1.56111 0
M  V30 6441 H 605.349 -4.55857 -3.11285 0
M  V30 6442 H 607.825 -2.63471 -3.2206 0
M  V30 6443 H 606.701 -3.12044 -4.51575 0
M  V30 6444 H 606.962 -1.41447 -4.18862 0
M  V30 6445 N 606.021 0.929856 -1.27246 0
M  V30 6446 C 607.269 1.674 -1.13233 0
M  V30 6447 C 607.59 1.92311 0.322744 0
M  V30 6448 O 606.86 1.52784 1.22612 0
M  V30 6449 H 605.44 0.620411 -0.416052 0
M  V30 6450 H 608.102 1.11663 -1.59741 0
M  V30 6451 H 607.198 2.64308 -1.65975 0
M  V30 6452 N 607.499 1.09233 1.13605 0
M  V30 6453 C 608.776 0.739633 1.81077 0
M  V30 6454 C 609.156 -0.775595 1.96336 0
M  V30 6455 O 608.504 -1.69726 1.52988 0
M  V30 6456 C 608.714 1.47636 3.16235 0
M  V30 6457 C 610.062 1.64087 3.91613 0
M  V30 6458 O 611.086 1.43871 3.25852 0
M  V30 6459 O 609.945 1.97511 5.0956 0
M  V30 6460 H 607.039 0.265464 0.783236 0
M  V30 6461 H 609.585 1.19441 1.20549 0
M  V30 6462 H 608.357 2.50818 3.00344 0
M  V30 6463 H 607.98 1.01362 3.84462 0
M  V30 6464 N 608.977 -1.30795 0.87923 0
M  V30 6465 C 609.887 -2.32041 0.345565 0
M  V30 6466 C 610.903 -1.65103 -0.549265 0
M  V30 6467 O 612.079 -1.9645 -0.443763 0
M  V30 6468 C 609.144 -3.43944 -0.436245 0
M  V30 6469 C 608.205 -4.26521 0.48765 0
M  V30 6470 C 607.438 -5.33081 -0.256943 0
M  V30 6471 O 607.661 -5.50762 -1.48381 0
M  V30 6472 O 606.595 -6.00635 0.389985 0
M  V30 6473 H 610.421 -2.79627 1.18501 0
M  V30 6474 H 608.006 -1.3486 0.642885 0
M  V30 6475 H 609.888 -4.12128 -0.879119 0
M  V30 6476 H 608.563 -2.98504 -1.25208 0
M  V30 6477 H 607.47 -3.61057 0.979216 0
M  V30 6478 H 608.803 -4.75551 1.26933 0
M  V30 6479 N 610.455 -0.639598 -1.44038 0
M  V30 6480 C 611.685 -0.154586 -2.06021 0
M  V30 6481 C 612.093 1.17951 -1.47933 0
M  V30 6482 O 611.436 1.73627 -0.59994 0
M  V30 6483 C 611.498 0.0255459 -3.59491 0
M  V30 6484 C 611.162 -1.2317 -4.40089 0
M  V30 6485 C 612.159 -2.15735 -4.73027 0
M  V30 6486 C 609.844 -1.46949 -4.80324 0
M  V30 6487 C 611.838 -3.30382 -5.45093 0
M  V30 6488 C 609.525 -2.61891 -5.52138 0
M  V30 6489 C 610.523 -3.53433 -5.84443 0
M  V30 6490 O 610.211 -4.6637 -6.54793 0
M  V30 6491 H 609.943 -0.0808543 -0.671147 0
M  V30 6492 H 612.497 -0.876541 -1.85758 0
M  V30 6493 H 610.727 0.802733 -3.78276 0
M  V30 6494 H 612.416 0.466184 -4.03214 0
M  V30 6495 H 613.182 -1.98602 -4.42473 0
M  V30 6496 H 609.061 -0.765815 -4.54595 0
M  V30 6497 H 612.605 -4.01856 -5.70226 0
M  V30 6498 H 608.502 -2.78964 -5.82108 0
M  V30 6499 H 609.27 -4.6546 -6.73267 0
M  V30 6500 N 611.933 1.52934 -0.380664 0
M  V30 6501 C 613.163 2.05587 0.204302 0
M  V30 6502 C 613.571 1.25288 1.41773 0
M  V30 6503 O 612.914 0.290394 1.8139 0
M  V30 6504 C 612.976 3.53624 0.647324 0
M  V30 6505 C 612.64 4.54765 -0.451465 0
M  V30 6506 C 613.637 5.03226 -1.30614 0
M  V30 6507 C 611.322 4.98508 -0.616025 0
M  V30 6508 C 613.316 5.94046 -2.31058 0
M  V30 6509 C 611.003 5.89131 -1.62381 0
M  V30 6510 C 612.001 6.36792 -2.46952 0
M  V30 6511 O 611.689 7.25626 -3.46009 0
M  V30 6512 H 611.421 0.675013 0.0365198 0
M  V30 6513 H 613.975 1.98125 -0.541827 0
M  V30 6514 H 612.205 3.58676 1.44529 0
M  V30 6515 H 613.894 3.89061 1.15698 0
M  V30 6516 H 614.66 4.70167 -1.19027 0
M  V30 6517 H 610.539 4.60989 0.0324987 0
M  V30 6518 H 614.083 6.3117 -2.97104 0
M  V30 6519 H 609.98 6.21603 -1.7401 0
M  V30 6520 H 610.748 7.43664 -3.41916 0
M  V30 6521 N 613.412 0.11024 1.57214 0
M  V30 6522 C 614.637 -0.561179 1.99664 0
M  V30 6523 C 615.062 -1.59985 0.989266 0
M  V30 6524 O 614.42 -1.81255 -0.0402399 0
M  V30 6525 C 614.468 -1.17189 3.41027 0
M  V30 6526 O 613.572 -2.28755 3.4314 0
M  V30 6527 H 612.913 -0.14101 0.648855 0
M  V30 6528 H 615.443 0.196128 2.03658 0
M  V30 6529 H 615.453 -1.50954 3.79047 0
M  V30 6530 H 614.128 -0.411041 4.13864 0
M  V30 6531 H 612.705 -1.96495 3.16929 0
M  V30 6532 N 614.89 -1.56749 -0.16351 0
M  V30 6533 C 616.12 -1.86307 -0.892936 0
M  V30 6534 C 616.528 -0.6945 -1.75992 0
M  V30 6535 O 615.871 0.345384 -1.80424 0
M  V30 6536 C 615.933 -3.10372 -1.81409 0
M  V30 6537 C 615.597 -4.42913 -1.12593 0
M  V30 6538 C 616.594 -5.17608 -0.487661 0
M  V30 6539 C 614.279 -4.89646 -1.12035 0
M  V30 6540 C 616.273 -6.3723 0.14699 0
M  V30 6541 C 613.96 -6.09197 -0.481883 0
M  V30 6542 C 614.958 -6.82834 0.150678 0
M  V30 6543 O 614.646 -8.00116 0.779065 0
M  V30 6544 H 614.378 -0.622126 -0.264452 0
M  V30 6545 H 616.932 -2.04728 -0.166063 0
M  V30 6546 H 615.162 -2.87917 -2.58148 0
M  V30 6547 H 616.851 -3.26312 -2.41403 0
M  V30 6548 H 617.617 -4.8258 -0.483888 0
M  V30 6549 H 613.496 -4.32265 -1.60212 0
M  V30 6550 H 617.04 -6.94646 0.641325 0
M  V30 6551 H 612.937 -6.43688 -0.483266 0
M  V30 6552 H 613.705 -8.15678 0.679089 0
M  V30 6553 N 616.368 0.432326 -1.51554 0
M  V30 6554 C 617.645 1.19288 -1.55015 0
M  V30 6555 C 618.025 2.08701 -0.317375 0
M  V30 6556 O 617.373 2.17602 0.697243 0
M  V30 6557 C 617.583 1.99037 -2.86679 0
M  V30 6558 C 618.931 2.55907 -3.38817 0
M  V30 6559 O 619.955 2.09243 -2.88263 0
M  V30 6560 O 618.814 3.41029 -4.27038 0
M  V30 6561 H 615.908 0.543369 -0.623441 0
M  V30 6562 H 618.454 0.440988 -1.6387 0
M  V30 6563 H 617.226 1.33397 -3.6786 0
M  V30 6564 H 616.849 2.81281 -2.8101 0
M  V30 6565 N 617.846 1.41785 0.688094 0
M  V30 6566 C 618.756 1.46596 1.83158 0
M  V30 6567 C 619.772 0.355862 1.70322 0
M  V30 6568 O 620.948 0.604737 1.92106 0
M  V30 6569 C 618.013 1.35322 3.192 0
M  V30 6570 C 617.074 2.56711 3.4409 0
M  V30 6571 C 616.307 2.45965 4.73642 0
M  V30 6572 O 616.53 1.48827 5.50642 0
M  V30 6573 O 615.464 3.35859 4.99482 0
M  V30 6574 H 619.29 2.43083 1.82056 0
M  V30 6575 H 616.875 1.23404 0.842126 0
M  V30 6576 H 618.757 1.31347 4.00407 0
M  V30 6577 H 617.432 0.419536 3.2097 0
M  V30 6578 H 616.339 2.66262 2.62784 0
M  V30 6579 H 617.672 3.48933 3.47141 0
M  V30 6580 N 619.324 -0.923095 1.27737 0
M  V30 6581 C 620.74 -1.19985 1.05241 0
M  V30 6582 C 620.94 -2.00391 -0.21113 0
M  V30 6583 O 619.996 -2.35324 -0.915366 0
M  V30 6584 C 621.309 -1.94352 2.29451 0
M  V30 6585 C 622.857 -2.07273 2.34536 0
M  V30 6586 C 623.332 -2.85046 3.58487 0
M  V30 6587 N 624.823 -2.92612 3.59072 0
M  V30 6588 C 625.558 -3.53266 4.51654 0
M  V30 6589 N 625.054 -4.15274 5.54545 0
M  V30 6590 N 626.847 -3.50714 4.39268 0
M  V30 6591 H 618.998 -0.386042 2.08862 0
M  V30 6592 H 621.261 -0.233407 0.918817 0
M  V30 6593 H 620.967 -1.42692 3.21453 0
M  V30 6594 H 620.841 -2.94947 2.3513 0
M  V30 6595 H 623.228 -2.58117 1.43037 0
M  V30 6596 H 623.309 -1.05884 2.32857 0
M  V30 6597 H 622.953 -2.34884 4.50324 0
M  V30 6598 H 622.883 -3.8673 3.57418 0
M  V30 6599 H 625.374 -2.48547 2.84663 0
M  V30 6600 H 625.687 -4.59507 6.21348 0
M  V30 6601 H 624.032 -4.13806 5.58382 0
M  V30 6602 H 627.223 -3.01475 3.58093 0
M  V30 6603 H 627.396 -3.97693 5.1161 0
M  V30 6604 N 620.802 -1.09834 -1.13024 0
M  V30 6605 C 621.749 -0.741522 -2.18564 0
M  V30 6606 C 622.719 0.279236 -1.63736 0
M  V30 6607 O 623.904 0.159923 -1.90129 0
M  V30 6608 C 621.044 -0.17277 -3.44667 0
M  V30 6609 C 620.157 -1.24808 -4.13578 0
M  V30 6610 C 619.292 -0.641631 -5.27311 0
M  V30 6611 C 618.331 -1.69795 -5.88078 0
M  V30 6612 N 617.468 -1.11223 -6.93234 0
M  V30 6613 H 622.308 -1.64576 -2.48432 0
M  V30 6614 H 619.845 -0.822174 -1.21978 0
M  V30 6615 H 621.803 0.17482 -4.16834 0
M  V30 6616 H 620.433 0.694725 -3.15235 0
M  V30 6617 H 619.485 -1.71288 -3.39653 0
M  V30 6618 H 620.797 -2.04795 -4.54819 0
M  V30 6619 H 619.951 -0.243128 -6.06213 0
M  V30 6620 H 618.69 0.189742 -4.87331 0
M  V30 6621 H 617.695 -2.10595 -5.07868 0
M  V30 6622 H 618.92 -2.53206 -6.3013 0
M  V30 6623 H 616.866 -0.302208 -6.55304 0
M  V30 6624 H 616.783 -1.84901 -7.3304 0
M  V30 6625 H 618.051 -0.740068 -7.75979 0
M  V30 6626 N 622.28 1.30327 -0.886154 0
M  V30 6627 C 623.696 1.48676 -0.580323 0
M  V30 6628 C 623.896 1.81189 0.881639 0
M  V30 6629 O 622.952 1.90021 1.66278 0
M  V30 6630 C 624.265 2.60932 -1.49449 0
M  V30 6631 C 625.813 2.74812 -1.49824 0
M  V30 6632 C 626.288 3.90183 -2.39836 0
M  V30 6633 N 627.779 3.97495 -2.37806 0
M  V30 6634 C 628.514 4.86078 -3.04165 0
M  V30 6635 N 628.01 5.79448 -3.79753 0
M  V30 6636 N 629.803 4.79456 -2.93391 0
M  V30 6637 H 621.954 1.07495 -1.8319 0
M  V30 6638 H 624.217 0.532661 -0.784204 0
M  V30 6639 H 623.923 2.43731 -2.5355 0
M  V30 6640 H 623.797 3.57437 -1.20494 0
M  V30 6641 H 626.184 2.91418 -0.464731 0
M  V30 6642 H 626.265 1.78924 -1.82811 0
M  V30 6643 H 625.909 3.74334 -3.43273 0
M  V30 6644 H 625.839 4.85411 -2.04166 0
M  V30 6645 H 628.33 3.30703 -1.82877 0
M  V30 6646 H 628.643 6.43805 -4.27475 0
M  V30 6647 H 626.988 5.79376 -3.8386 0
M  V30 6648 H 630.179 4.05494 -2.33864 0
M  V30 6649 H 630.352 5.48283 -3.45383 0
M  V30 6650 N 623.758 0.647228 1.43697 0
M  V30 6651 C 624.705 -0.0480092 2.3075 0
M  V30 6652 C 625.675 -0.820705 1.44408 0
M  V30 6653 O 626.86 -0.798515 1.73287 0
M  V30 6654 C 624 -1.01259 3.2991 0
M  V30 6655 C 623.113 -0.236629 4.31351 0
M  V30 6656 C 622.248 -1.19447 5.17596 0
M  V30 6657 C 621.287 -0.408595 6.10735 0
M  V30 6658 N 620.424 -1.31772 6.89623 0
M  V30 6659 H 625.264 0.700238 2.89656 0
M  V30 6660 H 622.801 0.357082 1.427 0
M  V30 6661 H 624.759 -1.58538 3.85903 0
M  V30 6662 H 623.389 -1.72778 2.72667 0
M  V30 6663 H 622.441 0.452353 3.77701 0
M  V30 6664 H 623.753 0.374731 4.9739 0
M  V30 6665 H 622.907 -1.83809 5.78186 0
M  V30 6666 H 621.646 -1.83975 4.51669 0
M  V30 6667 H 620.651 0.24841 5.49239 0
M  V30 6668 H 621.876 0.232188 6.78703 0
M  V30 6669 H 619.822 -1.94991 6.2635 0
M  V30 6670 H 619.739 -0.760779 7.52162 0
M  V30 6671 H 621.007 -1.94967 7.54724 0
M  V30 6672 N 625.236 -1.5273 0.388769 0
M  V30 6673 C 626.169 -2.22861 -0.490752 0
M  V30 6674 C 627.147 -1.22912 -1.06449 0
M  V30 6675 O 628.331 -1.51896 -1.11624 0
M  V30 6676 C 625.458 -2.94141 -1.67925 0
M  V30 6677 C 624.504 -4.08355 -1.23081 0
M  V30 6678 S 625.337 -5.35077 -0.212786 0
M  V30 6679 C 626.493 -6.09879 -1.40708 0
M  V30 6680 H 626.726 -2.97115 0.104787 0
M  V30 6681 H 624.259 -1.53428 0.172956 0
M  V30 6682 H 626.217 -3.35818 -2.36085 0
M  V30 6683 H 624.878 -2.19568 -2.24608 0
M  V30 6684 H 624.071 -4.57328 -2.11818 0
M  V30 6685 H 623.673 -3.68688 -0.628121 0
M  V30 6686 H 625.965 -6.36018 -2.33424 0
M  V30 6687 H 626.908 -7.01586 -0.958271 0
M  V30 6688 H 627.316 -5.40646 -1.62364 0
M  V30 6689 N 626.714 -0.118576 -1.57153 0
M  V30 6690 C 627.624 0.845484 -2.18835 0
M  V30 6691 C 628.64 1.29299 -1.16438 0
M  V30 6692 O 629.816 1.35607 -1.48905 0
M  V30 6693 C 626.881 2.07795 -2.77529 0
M  V30 6694 C 625.942 1.6824 -3.9496 0
M  V30 6695 C 625.175 2.85612 -4.50845 0
M  V30 6696 O 625.398 4.01025 -4.05629 0
M  V30 6697 O 624.332 2.62721 -5.41536 0
M  V30 6698 H 628.158 0.350568 -3.0167 0
M  V30 6699 H 625.743 0.107013 -1.49016 0
M  V30 6700 H 627.625 2.79978 -3.14945 0
M  V30 6701 H 626.3 2.56294 -1.97725 0
M  V30 6702 H 625.207 0.931663 -3.62313 0
M  V30 6703 H 626.54 1.24484 -4.76198 0
M  V30 6704 N 628.193 1.56834 0.155195 0
M  V30 6705 C 629.14 1.97646 1.19184 0
M  V30 6706 C 630.11 0.842788 1.4313 0
M  V30 6707 O 631.295 1.1042 1.55602 0
M  V30 6708 C 628.435 2.35527 2.52232 0
M  V30 6709 C 627.548 3.62147 2.35529 0
M  V30 6710 C 626.683 3.89167 3.61555 0
M  V30 6711 C 625.722 5.09084 3.39853 0
M  V30 6712 N 624.859 5.32156 4.5799 0
M  V30 6713 H 629.699 2.8601 0.836802 0
M  V30 6714 H 627.236 1.41507 0.401758 0
M  V30 6715 H 629.194 2.55516 3.29799 0
M  V30 6716 H 627.824 1.50253 2.85699 0
M  V30 6717 H 626.876 3.4998 1.49057 0
M  V30 6718 H 628.188 4.49871 2.15448 0
M  V30 6719 H 627.342 4.09611 4.47553 0
M  V30 6720 H 626.081 2.9985 3.84632 0
M  V30 6721 H 625.086 4.88522 2.52243 0
M  V30 6722 H 626.311 5.99947 3.18183 0
M  V30 6723 H 624.257 4.45791 4.81255 0
M  V30 6724 H 624.174 6.14133 4.40882 0
M  V30 6725 H 625.442 5.57091 5.45225 0
M  V30 6726 N 629.671 -0.424282 1.51781 0
M  V30 6727 C 630.948 -1.18464 1.55646 0
M  V30 6728 C 631.328 -2.08529 0.328438 0
M  V30 6729 O 630.676 -2.17969 -0.685693 0
M  V30 6730 C 630.886 -1.97514 2.87731 0
M  V30 6731 C 632.234 -2.54106 3.40169 0
M  V30 6732 O 633.258 -2.07711 2.89369 0
M  V30 6733 O 632.117 -3.38759 4.28841 0
M  V30 6734 H 629.211 -0.540055 0.626314 0
M  V30 6735 H 631.757 -0.432291 1.64102 0
M  V30 6736 H 630.529 -1.31444 3.68562 0
M  V30 6737 H 630.152 -2.79787 2.82498 0
M  V30 6738 N 631.149 -1.42148 -0.680565 0
M  V30 6739 C 632.379 -1.45485 -1.46689 0
M  V30 6740 C 632.787 -0.0629451 -1.89095 0
M  V30 6741 O 632.13 0.931397 -1.58337 0
M  V30 6742 C 632.192 -2.31397 -2.75129 0
M  V30 6743 C 631.856 -3.79353 -2.54834 0
M  V30 6744 C 632.853 -4.71148 -2.19808 0
M  V30 6745 C 630.538 -4.23557 -2.70008 0
M  V30 6746 C 632.532 -6.05139 -2.00215 0
M  V30 6747 C 630.219 -5.57609 -2.50031 0
M  V30 6748 C 631.217 -6.48216 -2.15187 0
M  V30 6749 O 630.905 -7.79792 -1.95397 0
M  V30 6750 H 630.637 -0.497139 -0.458071 0
M  V30 6751 H 633.191 -1.87252 -0.844139 0
M  V30 6752 H 631.421 -1.84468 -3.39865 0
M  V30 6753 H 633.11 -2.26257 -3.36991 0
M  V30 6754 H 633.876 -4.38282 -2.07686 0
M  V30 6755 H 629.755 -3.53327 -2.96109 0
M  V30 6756 H 633.299 -6.75823 -1.72941 0
M  V30 6757 H 629.196 -5.9005 -2.61748 0
M  V30 6758 H 629.964 -7.91091 -2.10042 0
M  V30 6759 N 632.627 0.916307 -1.28225 0
M  V30 6760 C 634.038 1.48024 -1.13779 0
M  V30 6761 C 634.389 1.94289 0.273139 0
M  V30 6762 O 633.514 1.82226 1.16716 0
M  V30 6763 C 634.109 2.69029 -2.05935 0
M  V30 6764 C 632.668 3.2161 -1.95561 0
M  V30 6765 C 631.815 1.94321 -1.97825 0
M  V30 6766 H 634.766 0.729272 -1.40951 0
M  V30 6767 H 634.787 3.44204 -1.62184 0
M  V30 6768 H 634.299 2.35325 -3.08616 0
M  V30 6769 H 632.4 3.60045 -0.959076 0
M  V30 6770 H 632.513 3.87032 -2.82388 0
M  V30 6771 H 630.877 2.1131 -1.42198 0
M  V30 6772 H 631.66 1.62917 -3.0218 0
M  V30 6773 N 634.105 1.10431 1.1244 0
M  V30 6774 C 635.052 0.753103 2.18167 0
M  V30 6775 C 636.022 -0.270549 1.63882 0
M  V30 6776 O 637.207 -0.149837 1.90211 0
M  V30 6777 C 634.347 0.191046 3.44571 0
M  V30 6778 C 633.46 1.26999 4.12911 0
M  V30 6779 C 632.595 0.669586 5.26963 0
M  V30 6780 C 631.634 1.72912 5.87169 0
M  V30 6781 N 630.771 1.14898 6.92635 0
M  V30 6782 H 635.611 1.65892 2.47556 0
M  V30 6783 H 633.148 0.828631 1.21541 0
M  V30 6784 H 635.106 -0.152712 4.1692 0
M  V30 6785 H 633.736 -0.677997 3.15599 0
M  V30 6786 H 632.788 1.73087 3.3874 0
M  V30 6787 H 634.1 2.07204 4.53727 0
M  V30 6788 H 633.254 0.275274 6.06075 0
M  V30 6789 H 631.993 -0.163895 4.87425 0
M  V30 6790 H 630.998 2.13286 5.06744 0
M  V30 6791 H 632.223 2.56544 6.28778 0
M  V30 6792 H 630.169 0.336956 6.55134 0
M  V30 6793 H 630.086 1.88786 7.32049 0
M  V30 6794 H 631.354 0.78121 7.75576 0
M  V30 6795 N 635.583 -1.29855 0.893053 0
M  V30 6796 C 636.531 -2.29867 0.355512 0
M  V30 6797 C 637.525 -1.60502 -0.541801 0
M  V30 6798 O 638.731 -1.74902 -0.425339 0
M  V30 6799 H 635.106 -0.745805 0.0963247 0
M  V30 6800 H 637.077 -2.72655 1.21252 0
M  V30 6801 C 635.826 -3.453 -0.407801 0
M  V30 6802 H 635.149 -3.98864 0.273426 0
M  V30 6803 H 636.589 -4.17334 -0.748887 0
M  V30 6804 C 635.048 -2.96051 -1.60795 0
M  V30 6805 O 635.578 -2.96763 -2.7073 0
M  V30 6806 N 633.784 -2.51963 -1.44786 0
M  V30 6807 H 633.331 -2.51583 -0.553498 0
M  V30 6808 H 633.289 -2.1937 -2.2522 0
M  V30 6809 N 637.061 -0.65484 -1.43351 0
M  V30 6810 C 638.289 -0.176685 -2.06144 0
M  V30 6811 C 638.704 1.15831 -1.49093 0
M  V30 6812 O 638.061 1.71542 -0.622868 0
M  V30 6813 C 638.112 -0.0813326 -3.61408 0
M  V30 6814 O 637.833 -1.36355 -4.1634 0
M  V30 6815 C 639.334 0.422706 -4.4128 0
M  V30 6816 H 636.554 -0.0906429 -0.66485 0
M  V30 6817 H 639.098 -0.895945 -1.83829 0
M  V30 6818 H 637.253 0.588496 -3.82904 0
M  V30 6819 H 637.667 -1.22381 -5.10023 0
M  V30 6820 H 639.141 0.438375 -5.50257 0
M  V30 6821 H 639.618 1.45432 -4.14423 0
M  V30 6822 H 640.224 -0.214687 -4.24758 0
M  V30 6823 N 638.539 1.52521 -0.396863 0
M  V30 6824 C 639.449 2.30403 0.44178 0
M  V30 6825 C 640.465 1.37625 1.06468 0
M  V30 6826 O 641.641 1.70697 1.06886 0
M  V30 6827 C 638.706 3.1013 1.54986 0
M  V30 6828 C 637.767 4.18628 0.951279 0
M  V30 6829 C 637 4.94543 2.00655 0
M  V30 6830 O 637.223 4.70629 3.22281 0
M  V30 6831 O 636.157 5.797 1.61962 0
M  V30 6832 H 639.983 3.03087 -0.192892 0
M  V30 6833 H 637.568 1.48537 -0.16038 0
M  V30 6834 H 639.45 3.59816 2.19341 0
M  V30 6835 H 638.125 2.40251 2.16935 0
M  V30 6836 H 637.032 3.73119 0.270773 0
M  V30 6837 H 638.365 4.90763 0.375887 0
M  V30 6838 N 640.017 0.126909 1.57088 0
M  V30 6839 C 640.927 -0.833867 2.1928 0
M  V30 6840 C 641.943 -1.2868 1.17122 0
M  V30 6841 O 643.119 -1.34815 1.49622 0
M  V30 6842 C 640.184 -2.0632 2.78627 0
M  V30 6843 C 639.245 -1.66143 3.95847 0
M  V30 6844 C 638.478 -2.83217 4.52354 0
M  V30 6845 O 638.701 -3.98868 4.0775 0
M  V30 6846 O 637.635 -2.59846 5.42922 0
M  V30 6847 H 641.461 -0.334564 3.01852 0
M  V30 6848 H 639.046 -0.0991091 1.49071 0
M  V30 6849 H 640.928 -2.78304 3.16425 0
M  V30 6850 H 639.603 -2.55242 1.99082 0
M  V30 6851 H 638.51 -0.912435 3.62802 0
M  V30 6852 H 639.843 -1.21957 4.76852 0
M  V30 6853 N 641.495 -1.56914 -0.146875 0
M  V30 6854 C 642.405 -2.0154 -1.20079 0
M  V30 6855 C 643.421 -0.930838 -1.47008 0
M  V30 6856 O 644.597 -1.24032 -1.58676 0
M  V30 6857 C 641.662 -2.38715 -2.51428 0
M  V30 6858 C 640.723 -3.6112 -2.32145 0
M  V30 6859 C 639.956 -3.96512 -3.57231 0
M  V30 6860 O 640.179 -3.32566 -4.63418 0
M  V30 6861 O 639.113 -4.89758 -3.49887 0
M  V30 6862 H 642.939 -2.91506 -0.851924 0
M  V30 6863 H 640.524 -1.45106 -0.355607 0
M  V30 6864 H 642.406 -2.63485 -3.28867 0
M  V30 6865 H 641.081 -1.51903 -2.85845 0
M  V30 6866 H 639.988 -3.41536 -1.52656 0
M  V30 6867 H 641.321 -4.48549 -2.02644 0
M  V30 6868 N 642.974 0.416227 -1.52004 0
M  V30 6869 C 644.221 1.16383 -1.65714 0
M  V30 6870 C 644.549 1.9068 -0.383594 0
M  V30 6871 O 643.804 1.85174 0.633185 0
M  V30 6872 C 644.103 2.18923 -2.82502 0
M  V30 6873 C 643.769 1.61485 -4.20991 0
M  V30 6874 C 642.431 1.45545 -4.58661 0
M  V30 6875 C 644.783 1.19468 -5.07323 0
M  V30 6876 C 642.111 0.860937 -5.80349 0
M  V30 6877 C 644.463 0.614386 -6.29609 0
M  V30 6878 C 643.127 0.442056 -6.66035 0
M  V30 6879 H 642.397 0.425875 -0.606392 0
M  V30 6880 H 645.044 0.45199 -1.8609 0
M  V30 6881 H 643.349 2.96225 -2.56433 0
M  V30 6882 H 645.046 2.76628 -2.90307 0
M  V30 6883 H 641.636 1.74873 -3.91302 0
M  V30 6884 H 645.82 1.30596 -4.78809 0
M  V30 6885 H 641.076 0.715372 -6.072 0
M  V30 6886 H 645.25 0.280393 -6.95835 0
M  V30 6887 H 642.877 -0.0207218 -7.60197 0
M  V30 6888 N 644.452 1.42507 0.673017 0
M  V30 6889 C 645.677 1.4668 1.46627 0
M  V30 6890 C 646.102 0.080066 1.8793 0
M  V30 6891 O 645.46 -0.921879 1.56112 0
M  V30 6892 C 645.508 2.40091 2.69051 0
M  V30 6893 O 644.612 1.8735 3.67387 0
M  V30 6894 H 643.953 0.496908 0.44043 0
M  V30 6895 H 646.483 1.87215 0.825334 0
M  V30 6896 H 646.493 2.56731 3.17101 0
M  V30 6897 H 645.168 3.4084 2.3833 0
M  V30 6898 H 643.745 1.80274 3.26429 0
M  V30 6899 N 645.93 -0.909495 1.28709 0
M  V30 6900 C 647.178 -1.65577 1.15882 0
M  V30 6901 C 647.499 -1.928 -0.292108 0
M  V30 6902 O 646.769 -1.54716 -1.20166 0
M  V30 6903 H 645.349 -0.613714 0.425869 0
M  V30 6904 H 648.011 -1.09108 1.61498 0
M  V30 6905 H 647.107 -2.61634 1.70159 0
M  V30 6906 N 647.408 -1.11026 -1.11852 0
M  V30 6907 C 648.654 -0.857729 -1.83768 0
M  V30 6908 C 648.987 0.615143 -1.842 0
M  V30 6909 O 648.262 1.45391 -1.29196 0
M  V30 6910 C 648.545 -1.41453 -3.31154 0
M  V30 6911 C 648.398 -2.95471 -3.39142 0
M  V30 6912 C 649.717 -1.0619 -4.27097 0
M  V30 6913 H 646.836 -0.313044 -0.667212 0
M  V30 6914 H 649.478 -1.37443 -1.31185 0
M  V30 6915 H 647.628 -0.975052 -3.76065 0
M  V30 6916 H 649.3 -3.4799 -3.02821 0
M  V30 6917 H 647.543 -3.31759 -2.79497 0
M  V30 6918 H 648.214 -3.29515 -4.42859 0
M  V30 6919 H 650.69 -1.44122 -3.90344 0
M  V30 6920 H 649.566 -1.47832 -5.28618 0
M  V30 6921 H 649.827 0.0278912 -4.42091 0
M  V30 6922 N 648.886 1.2938 -0.899927 0
M  V30 6923 C 649.834 2.29675 -0.367698 0
M  V30 6924 C 650.828 1.60787 0.533282 0
M  V30 6925 O 652.034 1.75126 0.416058 0
M  V30 6926 H 648.409 0.745284 -0.100279 0
M  V30 6927 H 650.38 2.72008 -1.22696 0
M  V30 6928 C 649.129 3.45512 0.389483 0
M  V30 6929 H 648.452 3.98713 -0.294575 0
M  V30 6930 H 649.892 4.17725 0.726744 0
M  V30 6931 C 648.351 2.969 1.59223 0
M  V30 6932 O 648.881 2.98195 2.69152 0
M  V30 6933 N 647.087 2.52728 1.43447 0
M  V30 6934 H 646.634 2.51873 0.540148 0
M  V30 6935 H 646.592 2.20561 2.24054 0
M  V30 6936 N 650.364 0.662433 1.43002 0
M  V30 6937 C 651.612 0.179237 2.01304 0
M  V30 6938 C 651.933 -1.21428 1.52579 0
M  V30 6939 O 651.203 -1.81294 0.742252 0
M  V30 6940 H 649.783 0.0632725 0.744316 0
M  V30 6941 H 652.445 0.856169 1.75088 0
M  V30 6942 H 651.541 0.170957 3.11631 0
M  V30 6943 N 651.842 -1.52309 0.404946 0
M  V30 6944 C 652.774 -2.24579 -0.45791 0
M  V30 6945 C 653.787 -1.2739 -1.01369 0
M  V30 6946 O 654.976 -1.53363 -0.91335 0
M  V30 6947 C 652.076 -2.9608 -1.64893 0
M  V30 6948 C 651.249 -4.20106 -1.21777 0
M  V30 6949 C 650.308 -4.74468 -2.27523 0
M  V30 6950 O 649.334 -5.37157 -1.88285 0
M  V30 6951 N 650.536 -4.55678 -3.59635 0
M  V30 6952 H 653.301 -2.99265 0.161341 0
M  V30 6953 H 650.862 -1.60228 0.232107 0
M  V30 6954 H 652.854 -3.29344 -2.35191 0
M  V30 6955 H 651.424 -2.24606 -2.17419 0
M  V30 6956 H 650.644 -3.92704 -0.343071 0
M  V30 6957 H 651.932 -5.00658 -0.906596 0
M  V30 6958 H 651.33 -4.05673 -3.94266 0
M  V30 6959 H 649.887 -4.9339 -4.25922 0
M  V30 6960 N 653.32 -0.135238 -1.57019 0
M  V30 6961 C 654.569 0.518694 -1.94917 0
M  V30 6962 C 654.882 1.66783 -1.0219 0
M  V30 6963 O 656.088 2.38561 -1.29619 0
M  V30 6964 C 654.544 0.974123 -3.46466 0
M  V30 6965 C 654.152 -0.147439 -4.47757 0
M  V30 6966 C 655.896 1.59851 -3.93253 0
M  V30 6967 C 653.803 0.325599 -5.90503 0
M  V30 6968 H 652.733 0.19754 -0.727663 0
M  V30 6969 H 655.384 -0.217698 -1.82204 0
M  V30 6970 H 653.766 1.76542 -3.5447 0
M  V30 6971 H 654.94 -0.924122 -4.51438 0
M  V30 6972 H 653.255 -0.679496 -4.10818 0
M  V30 6973 H 655.852 1.96385 -4.9733 0
M  V30 6974 H 656.195 2.48306 -3.3414 0
M  V30 6975 H 656.728 0.872323 -3.88118 0
M  V30 6976 H 653.467 -0.523295 -6.53408 0
M  V30 6977 H 652.987 1.06841 -5.90208 0
M  V30 6978 H 654.666 0.781498 -6.42263 0
M  V30 6979 N 654.798 1.5699 0.138552 0
M  V30 6980 C 656.075 1.74741 0.87891 0
M  V30 6981 C 656.455 0.705522 1.98961 0
M  V30 6982 O 655.803 -0.274066 2.2685 0
M  V30 6983 C 656.013 3.1909 1.4136 0
M  V30 6984 C 657.361 3.81023 1.87368 0
M  V30 6985 O 658.385 3.22571 1.51084 0
M  V30 6986 O 657.244 4.83722 2.54312 0
M  V30 6987 H 654.338 0.714781 0.415953 0
M  V30 6988 H 656.884 1.69248 0.123817 0
M  V30 6989 H 655.656 3.86424 0.61579 0
M  V30 6990 H 655.279 3.29043 2.23196 0
M  V30 6991 N 656.276 -0.40816 1.52223 0
M  V30 6992 C 657.239 -1.48 1.7501 0
M  V30 6993 C 658.239 -1.48367 0.619996 0
M  V30 6994 O 659.429 -1.49874 0.887881 0
M  V30 6995 C 656.561 -2.87403 1.83336 0
M  V30 6996 H 657.754 -1.29086 2.70697 0
M  V30 6997 H 655.307 -0.638715 1.42654 0
M  V30 6998 H 656.042 -3.11686 0.895677 0
M  V30 6999 H 655.827 -2.8854 2.65494 0
M  V30 7000 H 657.317 -3.65103 2.02705 0
M  V30 7001 N 657.755 -1.42862 -0.66545 0
M  V30 7002 C 658.718 -1.46756 -1.76055 0
M  V30 7003 C 659.718 -0.353866 -1.56858 0
M  V30 7004 O 660.908 -0.615099 -1.62979 0
M  V30 7005 C 658.04 -1.30829 -3.14796 0
M  V30 7006 H 659.233 -2.44271 -1.73987 0
M  V30 7007 H 656.786 -1.29447 -0.875965 0
M  V30 7008 H 657.521 -0.342733 -3.22484 0
M  V30 7009 H 657.306 -2.11551 -3.30134 0
M  V30 7010 H 658.796 -1.36458 -3.94676 0
M  V30 7011 N 659.233 0.902656 -1.29189 0
M  V30 7012 C 660.479 1.65532 -1.17163 0
M  V30 7013 C 660.812 1.92216 0.276879 0
M  V30 7014 O 660.087 1.53048 1.20027 0
M  V30 7015 C 660.37 3.00629 -1.98228 0
M  V30 7016 C 660.223 2.81029 -3.51202 0
M  V30 7017 C 661.542 4.01321 -1.80635 0
M  V30 7018 H 658.661 0.60071 -0.426985 0
M  V30 7019 H 661.303 1.04578 -1.5863 0
M  V30 7020 H 659.453 3.52656 -1.62991 0
M  V30 7021 H 661.125 2.35927 -3.96404 0
M  V30 7022 H 659.368 2.1587 -3.76275 0
M  V30 7023 H 660.039 3.77014 -4.03192 0
M  V30 7024 H 662.515 3.58394 -2.11406 0
M  V30 7025 H 661.391 4.93792 -2.3971 0
M  V30 7026 H 661.652 4.35505 -0.760754 0
M  V30 7027 N 660.711 1.11618 1.11262 0
M  V30 7028 C 661.621 0.78898 2.20935 0
M  V30 7029 C 662.637 -0.21867 1.7262 0
M  V30 7030 O 663.813 -0.0543826 2.01327 0
M  V30 7031 C 660.878 0.239014 3.45875 0
M  V30 7032 C 659.939 1.3055 4.08968 0
M  V30 7033 C 659.172 0.781687 5.27944 0
M  V30 7034 O 659.395 -0.387605 5.69082 0
M  V30 7035 O 658.329 1.54734 5.81671 0
M  V30 7036 H 662.155 1.70477 2.51339 0
M  V30 7037 H 659.74 0.892203 1.19834 0
M  V30 7038 H 661.622 -0.0632312 4.21353 0
M  V30 7039 H 660.297 -0.649454 3.17118 0
M  V30 7040 H 659.204 1.66079 3.35214 0
M  V30 7041 H 660.537 2.16743 4.41909 0
M  V30 7042 N 662.189 -1.289 0.906776 0
M  V30 7043 C 663.119 -2.29932 0.406659 0
M  V30 7044 C 664.1 -1.6189 -0.522061 0
M  V30 7045 O 665.285 -1.8935 -0.431283 0
M  V30 7046 C 662.415 -3.45425 -0.360366 0
M  V30 7047 C 661.369 -4.25316 0.478574 0
M  V30 7048 C 660.695 -5.33076 -0.416373 0
M  V30 7049 C 661.995 -4.92739 1.7322 0
M  V30 7050 H 663.689 -2.72013 1.25097 0
M  V30 7051 H 661.235 -1.30768 0.602977 0
M  V30 7052 H 663.188 -4.15186 -0.721029 0
M  V30 7053 H 661.912 -3.02206 -1.23852 0
M  V30 7054 H 660.571 -3.57273 0.821662 0
M  V30 7055 H 660.219 -4.86101 -1.29287 0
M  V30 7056 H 659.919 -5.8743 0.141309 0
M  V30 7057 H 661.443 -6.05686 -0.773072 0
M  V30 7058 H 662.857 -5.54898 1.44086 0
M  V30 7059 H 661.254 -5.57057 2.23175 0
M  V30 7060 H 662.324 -4.17625 2.46408 0
M  V30 7061 N 663.667 -0.670007 -1.42649 0
M  V30 7062 C 664.615 0.0230106 -2.32589 0
M  V30 7063 C 665.609 0.795585 -1.49555 0
M  V30 7064 O 666.815 0.70409 -1.65658 0
M  V30 7065 H 663.19 0.0262342 -0.751542 0
M  V30 7066 H 665.161 -0.753009 -2.88743 0
M  V30 7067 C 663.91 0.963872 -3.34073 0
M  V30 7068 H 663.233 0.378813 -3.98001 0
M  V30 7069 H 664.673 1.41755 -3.99602 0
M  V30 7070 C 663.132 2.06797 -2.65964 0
M  V30 7071 O 663.662 3.15383 -2.48789 0
M  V30 7072 N 661.868 1.83831 -2.25066 0
M  V30 7073 H 661.415 0.955235 -2.39234 0
M  V30 7074 H 661.373 2.57895 -1.79827 0
M  V30 7075 N 665.145 1.52092 -0.413018 0
M  V30 7076 C 666.393 2.01456 0.161178 0
M  V30 7077 C 666.714 1.30034 1.45314 0
M  V30 7078 O 665.984 0.427435 1.9118 0
M  V30 7079 H 664.564 0.744376 0.0625526 0
M  V30 7080 H 667.226 1.86974 -0.550151 0
M  V30 7081 H 666.322 3.1008 0.354517 0
M  V30 7082 N 666.623 0.143563 1.56945 0
M  V30 7083 C 667.853 -0.514699 2.00086 0
M  V30 7084 C 668.261 -1.59184 1.0226 0
M  V30 7085 O 667.604 -1.83697 0.0110514 0
M  V30 7086 C 667.666 -1.17778 3.39659 0
M  V30 7087 C 667.33 -0.245657 4.56339 0
M  V30 7088 C 668.327 0.525343 5.17239 0
M  V30 7089 C 666.012 -0.149564 5.02077 0
M  V30 7090 C 668.006 1.37992 6.22284 0
M  V30 7091 C 665.693 0.708621 6.06978 0
M  V30 7092 C 666.691 1.47197 6.6695 0
M  V30 7093 O 666.379 2.31586 7.6982 0
M  V30 7094 H 666.111 -0.138789 0.661599 0
M  V30 7095 H 668.665 0.234098 2.04062 0
M  V30 7096 H 666.895 -1.97415 3.32512 0
M  V30 7097 H 668.584 -1.73542 3.6693 0
M  V30 7098 H 669.35 0.461118 4.82803 0
M  V30 7099 H 665.229 -0.733457 4.55128 0
M  V30 7100 H 668.773 1.97621 6.69023 0
M  V30 7101 H 664.67 0.77415 6.40841 0
M  V30 7102 H 665.438 2.24796 7.87025 0
M  V30 7103 N 668.101 -1.57061 -0.130224 0
M  V30 7104 C 669.35 -1.83446 -0.838488 0
M  V30 7105 C 669.663 -0.727468 -1.81569 0
M  V30 7106 O 670.869 -0.877394 -2.56932 0
M  V30 7107 C 669.325 -3.25201 -1.54182 0
M  V30 7108 C 668.933 -4.4388 -0.606178 0
M  V30 7109 C 670.677 -3.60844 -2.23588 0
M  V30 7110 C 668.584 -5.76661 -1.31209 0
M  V30 7111 H 667.514 -0.684185 -0.316871 0
M  V30 7112 H 670.165 -1.83273 -0.0912059 0
M  V30 7113 H 668.547 -3.1981 -2.33533 0
M  V30 7114 H 669.721 -4.60545 0.153308 0
M  V30 7115 H 668.036 -4.16395 -0.0196705 0
M  V30 7116 H 670.633 -4.57313 -2.77072 0
M  V30 7117 H 670.976 -2.87724 -3.00867 0
M  V30 7118 H 671.509 -3.67971 -1.51137 0
M  V30 7119 H 668.248 -6.52922 -0.580823 0
M  V30 7120 H 667.768 -5.63902 -2.04387 0
M  V30 7121 H 669.447 -6.20035 -1.8484 0
M  V30 7122 N 669.579 0.400081 -1.52437 0
M  V30 7123 C 670.809 1.16598 -1.70553 0
M  V30 7124 C 671.217 1.8451 -0.418665 0
M  V30 7125 O 670.56 1.73069 0.615855 0
M  V30 7126 C 670.622 2.26517 -2.7916 0
M  V30 7127 C 670.286 1.78666 -4.20628 0
M  V30 7128 C 671.283 1.26946 -5.04163 0
M  V30 7129 C 668.968 1.85225 -4.66902 0
M  V30 7130 C 670.962 0.824187 -6.32049 0
M  V30 7131 C 668.649 1.40309 -5.94774 0
M  V30 7132 C 669.647 0.889922 -6.77178 0
M  V30 7133 O 669.335 0.447281 -8.02655 0
M  V30 7134 H 669.067 0.356023 -0.574651 0
M  V30 7135 H 671.621 0.475598 -1.99818 0
M  V30 7136 H 669.851 2.98946 -2.45292 0
M  V30 7137 H 671.54 2.88237 -2.85787 0
M  V30 7138 H 672.306 1.21244 -4.69601 0
M  V30 7139 H 668.185 2.24111 -4.02859 0
M  V30 7140 H 671.729 0.422958 -6.96317 0
M  V30 7141 H 667.626 1.45693 -6.28843 0
M  V30 7142 H 668.394 0.569768 -8.16514 0
M  V30 7143 N 671.057 1.43213 0.657864 0
M  V30 7144 C 672.304 1.44584 1.41781 0
M  V30 7145 C 672.632 0.0684208 1.9438 0
M  V30 7146 O 671.887 -0.925872 1.72413 0
M  V30 7147 C 672.186 2.43143 2.61947 0
M  V30 7148 C 671.852 3.89128 2.27794 0
M  V30 7149 C 670.514 4.28889 2.18191 0
M  V30 7150 C 672.866 4.81144 2.00375 0
M  V30 7151 C 670.194 5.58625 1.79319 0
M  V30 7152 C 672.546 6.11239 1.63003 0
M  V30 7153 C 671.21 6.49981 1.51922 0
M  V30 7154 H 670.48 0.529069 0.518813 0
M  V30 7155 H 673.127 1.76263 0.748577 0
M  V30 7156 H 671.432 2.04851 3.33981 0
M  V30 7157 H 673.129 2.4146 3.20153 0
M  V30 7158 H 669.719 3.57657 2.36176 0
M  V30 7159 H 673.903 4.512 2.06718 0
M  V30 7160 H 669.159 5.87486 1.69323 0
M  V30 7161 H 673.333 6.82014 1.40817 0
M  V30 7162 H 670.96 7.50416 1.21572 0
M  V30 7163 N 672.536 -0.895792 1.29666 0
M  V30 7164 C 673.783 -1.64664 1.17864 0
M  V30 7165 C 674.111 -1.92631 -0.26902 0
M  V30 7166 O 673.366 -1.53787 -1.21029 0
M  V30 7167 C 673.665 -3.00075 1.94139 0
M  V30 7168 C 673.331 -2.91702 3.43833 0
M  V30 7169 C 671.993 -2.89126 3.84656 0
M  V30 7170 C 674.345 -2.80622 4.39205 0
M  V30 7171 C 671.673 -2.73293 5.1916 0
M  V30 7172 C 674.025 -2.66329 5.73805 0
M  V30 7173 C 672.689 -2.62121 6.1388 0
M  V30 7174 H 671.959 -0.602549 0.431295 0
M  V30 7175 H 674.606 -1.04234 1.60648 0
M  V30 7176 H 672.911 -3.64394 1.43958 0
M  V30 7177 H 674.608 -3.57111 1.82408 0
M  V30 7178 H 671.198 -2.94511 3.11386 0
M  V30 7179 H 675.382 -2.81686 4.08615 0
M  V30 7180 H 670.638 -2.68443 5.49316 0
M  V30 7181 H 674.812 -2.56727 6.47352 0
M  V30 7182 H 672.439 -2.49611 7.18052 0
M  V30 7183 N 674.014 -1.12206 -1.10668 0
M  V30 7184 C 675.239 -0.898938 -1.86906 0
M  V30 7185 C 675.664 0.546346 -1.79991 0
M  V30 7186 O 675.022 1.38655 -1.1681 0
M  V30 7187 C 675.07 -1.37529 -3.33344 0
M  V30 7188 O 674.174 -0.55218 -4.08687 0
M  V30 7189 H 673.515 -0.323163 -0.580053 0
M  V30 7190 H 676.045 -1.49355 -1.39837 0
M  V30 7191 H 676.055 -1.3733 -3.84193 0
M  V30 7192 H 674.73 -2.42767 -3.37693 0
M  V30 7193 H 673.307 -0.620947 -3.67694 0
M  V30 7194 N 675.492 1.28418 -0.913599 0
M  V30 7195 C 676.74 1.94596 -0.545594 0
M  V30 7196 C 677.061 1.7227 0.913668 0
M  V30 7197 O 676.331 1.06233 1.64595 0
M  V30 7198 H 674.911 0.720065 -0.198783 0
M  V30 7199 H 677.573 1.56404 -1.16292 0
M  V30 7200 H 676.669 3.03202 -0.739911 0
M  V30 7201 N 676.97 0.677563 1.42291 0
M  V30 7202 C 678.381 0.277912 1.8462 0
M  V30 7203 C 678.732 -1.18048 1.56714 0
M  V30 7204 O 677.857 -1.90404 1.02836 0
M  V30 7205 C 678.452 0.497619 3.35126 0
M  V30 7206 C 677.011 0.152063 3.76093 0
M  V30 7207 C 676.158 0.78872 2.65847 0
M  V30 7208 H 679.109 0.879527 1.32098 0
M  V30 7209 H 679.13 -0.24939 3.79682 0
M  V30 7210 H 678.642 1.55913 3.55405 0
M  V30 7211 H 676.743 -0.905896 3.6142 0
M  V30 7212 H 676.856 0.594514 4.75397 0
M  V30 7213 H 675.22 0.219813 2.5375 0
M  V30 7214 H 676.003 1.85374 2.88949 0
M  V30 7215 N 678.448 -1.51871 0.421078 0
M  V30 7216 C 679.395 -2.27334 -0.398508 0
M  V30 7217 C 680.365 -1.30241 -1.03085 0
M  V30 7218 O 681.55 -1.59121 -1.05285 0
M  V30 7219 C 678.69 -3.10664 -1.50272 0
M  V30 7220 C 677.803 -4.2273 -0.890122 0
M  V30 7221 C 676.938 -4.93399 -1.96803 0
M  V30 7222 C 675.977 -5.97409 -1.333 0
M  V30 7223 N 675.114 -6.61548 -2.35156 0
M  V30 7224 H 679.954 -2.96938 0.251411 0
M  V30 7225 H 677.491 -1.46472 0.135825 0
M  V30 7226 H 679.449 -3.57292 -2.15403 0
M  V30 7227 H 678.079 -2.43207 -2.1225 0
M  V30 7228 H 677.131 -3.80186 -0.127537 0
M  V30 7229 H 678.443 -4.97302 -0.386349 0
M  V30 7230 H 677.597 -5.43491 -2.69633 0
M  V30 7231 H 676.336 -4.18421 -2.50549 0
M  V30 7232 H 675.341 -5.46624 -0.59008 0
M  V30 7233 H 676.566 -6.74335 -0.803076 0
M  V30 7234 H 674.512 -5.89394 -2.88012 0
M  V30 7235 H 674.429 -7.31832 -1.89624 0
M  V30 7236 H 675.697 -7.16276 -3.0752 0
M  V30 7237 N 679.926 -0.151884 -1.56866 0
M  V30 7238 C 681.154 0.504813 -2.00647 0
M  V30 7239 C 681.569 1.58098 -1.03201 0
M  V30 7240 O 680.926 1.82476 -0.0297814 0
M  V30 7241 C 680.977 1.10099 -3.44326 0
M  V30 7242 O 680.698 0.0678021 -4.38048 0
M  V30 7243 C 682.199 1.83782 -4.03409 0
M  V30 7244 H 679.419 0.130989 -0.65809 0
M  V30 7245 H 681.963 -0.247903 -2.02992 0
M  V30 7246 H 680.118 1.8043 -3.42817 0
M  V30 7247 H 680.532 0.505237 -5.22061 0
M  V30 7248 H 682.006 2.2078 -5.05925 0
M  V30 7249 H 682.483 2.72557 -3.44397 0
M  V30 7250 H 683.089 1.18138 -4.08563 0
M  V30 7251 N 681.404 1.57128 0.121893 0
M  V30 7252 C 682.634 1.88609 0.843227 0
M  V30 7253 C 683.042 0.740917 1.74089 0
M  V30 7254 O 682.385 -0.297426 1.81276 0
M  V30 7255 C 682.447 3.15073 1.73117 0
M  V30 7256 C 682.111 4.45742 1.0081 0
M  V30 7257 C 683.108 5.18719 0.350255 0
M  V30 7258 C 680.793 4.92444 0.99014 0
M  V30 7259 C 682.787 6.36617 -0.315889 0
M  V30 7260 C 680.474 6.10261 0.320196 0
M  V30 7261 C 681.472 6.82194 -0.331666 0
M  V30 7262 O 681.16 7.97769 -0.990927 0
M  V30 7263 H 680.892 0.628919 0.247865 0
M  V30 7264 H 683.446 2.05096 0.111725 0
M  V30 7265 H 681.676 2.9466 2.50424 0
M  V30 7266 H 683.365 3.32597 2.32667 0
M  V30 7267 H 684.131 4.83693 0.35577 0
M  V30 7268 H 680.01 4.36361 1.48695 0
M  V30 7269 H 683.554 6.92701 -0.825272 0
M  V30 7270 H 679.451 6.44743 0.312433 0
M  V30 7271 H 680.219 8.13591 -0.895113 0
M  V30 7272 N 682.882 -0.391992 1.52647 0
M  V30 7273 C 683.829 -1.47866 1.77213 0
M  V30 7274 C 684.799 -1.54286 0.615223 0
M  V30 7275 O 685.984 -1.7059 0.854622 0
M  V30 7276 C 683.124 -2.85129 1.94411 0
M  V30 7277 C 682.237 -2.87883 3.22098 0
M  V30 7278 C 681.372 -4.16553 3.29631 0
M  V30 7279 C 680.411 -4.13348 4.51453 0
M  V30 7280 N 679.548 -5.33619 4.56284 0
M  V30 7281 H 684.388 -1.26219 2.6995 0
M  V30 7282 H 681.925 -0.612367 1.33748 0
M  V30 7283 H 683.883 -3.64833 2.02367 0
M  V30 7284 H 682.513 -3.05232 1.05038 0
M  V30 7285 H 681.565 -2.00567 3.23229 0
M  V30 7286 H 682.877 -2.81382 4.11856 0
M  V30 7287 H 682.031 -5.0466 3.36753 0
M  V30 7288 H 680.77 -4.25773 2.37842 0
M  V30 7289 H 679.775 -3.23629 4.44459 0
M  V30 7290 H 681 -4.05754 5.44555 0
M  V30 7291 H 678.946 -5.43474 3.67385 0
M  V30 7292 H 678.863 -5.29182 5.3991 0
M  V30 7293 H 680.131 -6.23632 4.67657 0
M  V30 7294 N 684.36 -1.4356 -0.65026 0
M  V30 7295 C 685.59 -1.48563 -1.4357 0
M  V30 7296 C 685.998 -0.103041 -1.88919 0
M  V30 7297 O 685.341 0.897602 -1.60277 0
M  V30 7298 C 685.403 -2.37181 -2.70158 0
M  V30 7299 C 685.067 -3.84673 -2.4673 0
M  V30 7300 C 686.064 -4.75704 -2.09765 0
M  V30 7301 C 683.749 -4.29189 -2.60963 0
M  V30 7302 C 685.743 -6.09249 -1.87334 0
M  V30 7303 C 683.43 -5.62787 -2.38147 0
M  V30 7304 C 684.428 -6.52634 -2.01389 0
M  V30 7305 O 684.116 -7.83761 -1.78813 0
M  V30 7306 H 683.848 -0.506743 -0.447423 0
M  V30 7307 H 686.402 -1.89001 -0.80423 0
M  V30 7308 H 684.632 -1.91636 -3.35876 0
M  V30 7309 H 686.321 -2.33354 -3.32116 0
M  V30 7310 H 687.087 -4.42589 -1.98343 0
M  V30 7311 H 682.966 -3.59529 -2.88548 0
M  V30 7312 H 686.51 -6.7934 -1.58567 0
M  V30 7313 H 682.407 -5.95469 -2.49173 0
M  V30 7314 H 683.175 -7.95368 -1.93214 0
M  V30 7315 N 685.838 0.888903 -1.30139 0
M  V30 7316 C 687.115 1.62145 -1.094 0
M  V30 7317 C 687.495 2.08041 0.358091 0
M  V30 7318 O 686.843 1.84438 1.34888 0
M  V30 7319 C 687.053 2.794 -2.09133 0
M  V30 7320 C 688.401 3.49826 -2.40638 0
M  V30 7321 O 689.425 2.89583 -2.07412 0
M  V30 7322 O 688.284 4.58457 -2.97455 0
M  V30 7323 H 685.378 0.712475 -0.41989 0
M  V30 7324 H 687.924 0.936023 -1.41551 0
M  V30 7325 H 686.696 2.42762 -3.06891 0
M  V30 7326 H 686.319 3.55643 -1.77776 0
M  V30 7327 N 687.317 1.12792 1.10072 0
M  V30 7328 C 688.545 0.908506 1.85886 0
M  V30 7329 C 688.96 -0.542408 1.80841 0
M  V30 7330 O 688.317 -1.37517 1.1998 0
M  V30 7331 C 688.368 1.37973 3.34134 0
M  V30 7332 O 688.089 2.77378 3.39106 0
M  V30 7333 C 689.59 1.1978 4.26811 0
M  V30 7334 H 686.81 0.3244 0.587372 0
M  V30 7335 H 689.354 1.49882 1.39125 0
M  V30 7336 H 687.509 0.832566 3.78348 0
M  V30 7337 H 687.923 2.98144 4.31521 0
M  V30 7338 H 689.397 1.57635 5.29014 0
M  V30 7339 H 689.874 0.138768 4.38981 0
M  V30 7340 H 690.48 1.73266 3.88406 0
M  V30 7341 N 688.795 -1.27931 0.920396 0
M  V30 7342 C 689.705 -2.30824 0.419212 0
M  V30 7343 C 690.721 -1.66767 -0.496461 0
M  V30 7344 O 691.897 -1.97763 -0.38104 0
M  V30 7345 C 688.962 -3.45158 -0.326601 0
M  V30 7346 C 688.023 -4.24754 0.623098 0
M  V30 7347 C 687.256 -5.33629 -0.0872172 0
M  V30 7348 O 687.479 -5.55204 -1.30784 0
M  V30 7349 O 686.413 -5.99091 0.580875 0
M  V30 7350 H 690.239 -2.75716 1.27337 0
M  V30 7351 H 687.824 -1.32747 0.685465 0
M  V30 7352 H 689.706 -4.14716 -0.747559 0
M  V30 7353 H 688.381 -3.02336 -1.15648 0
M  V30 7354 H 687.288 -3.57759 1.09359 0
M  V30 7355 H 688.621 -4.71272 1.41998 0
M  V30 7356 N 690.273 -0.685099 -1.4193 0
M  V30 7357 C 691.22 -0.0131869 -2.30796 0
M  V30 7358 C 692.19 0.782129 -1.46533 0
M  V30 7359 O 693.375 0.75229 -1.75343 0
M  V30 7360 C 690.515 0.924768 -3.32479 0
M  V30 7361 C 689.628 0.122181 -4.31827 0
M  V30 7362 C 688.763 1.05682 -5.20581 0
M  V30 7363 C 687.802 0.246526 -6.11603 0
M  V30 7364 N 686.939 1.13442 -6.92875 0
M  V30 7365 H 691.779 -0.776789 -2.87698 0
M  V30 7366 H 689.316 -0.394791 -1.41703 0
M  V30 7367 H 691.274 1.48251 -3.89971 0
M  V30 7368 H 689.904 1.65488 -2.77152 0
M  V30 7369 H 688.956 -0.552335 -3.76369 0
M  V30 7370 H 690.268 -0.506473 -4.96222 0
M  V30 7371 H 689.422 1.68415 -5.82856 0
M  V30 7372 H 688.161 1.71935 -4.56388 0
M  V30 7373 H 687.166 -0.393944 -5.48387 0
M  V30 7374 H 688.391 -0.412053 -6.77849 0
M  V30 7375 H 686.337 1.78316 -6.313 0
M  V30 7376 H 686.254 0.561089 -7.53915 0
M  V30 7377 H 687.522 1.74889 -7.59628 0
M  V30 7378 N 691.751 1.51645 -0.429126 0
M  V30 7379 C 692.661 2.31288 0.392809 0
M  V30 7380 C 693.677 1.39852 1.03525 0
M  V30 7381 O 694.853 1.72926 1.03241 0
M  V30 7382 C 691.918 3.13347 1.48372 0
M  V30 7383 C 690.979 4.20551 0.862268 0
M  V30 7384 C 690.212 4.98688 1.9012 0
M  V30 7385 O 690.435 4.77359 3.12225 0
M  V30 7386 O 689.369 5.83005 1.4963 0
M  V30 7387 H 693.195 3.02609 -0.257138 0
M  V30 7388 H 690.78 1.48163 -0.191851 0
M  V30 7389 H 692.662 3.64387 2.1166 0
M  V30 7390 H 691.337 2.44799 2.1179 0
M  V30 7391 H 690.244 3.73609 0.191568 0
M  V30 7392 H 691.577 4.91449 0.271704 0
M  V30 7393 N 693.229 0.160201 1.56784 0
M  V30 7394 C 694.506 -0.533355 1.88188 0
M  V30 7395 C 694.886 -1.82072 1.06831 0
M  V30 7396 O 694.234 -2.27946 0.158959 0
M  V30 7397 C 694.444 -0.786034 3.40033 0
M  V30 7398 C 695.792 -1.12097 4.09536 0
M  V30 7399 O 696.816 -0.874949 3.45287 0
M  V30 7400 O 695.675 -1.58457 5.23023 0
M  V30 7401 H 692.769 -0.273589 0.780434 0
M  V30 7402 H 695.315 0.197803 1.68543 0
M  V30 7403 H 694.087 0.124515 3.91102 0
M  V30 7404 H 693.71 -1.57091 3.65251 0
M  V30 7405 N 694.707 -1.5719 -0.113559 0
M  V30 7406 C 695.953 -1.85412 -0.821597 0
M  V30 7407 C 696.286 -0.746722 -1.7927 0
M  V30 7408 O 695.561 0.246971 -1.92926 0
M  V30 7409 C 695.844 -3.24233 -1.56669 0
M  V30 7410 C 695.697 -4.45578 -0.614823 0
M  V30 7411 C 697.016 -3.60697 -2.52161 0
M  V30 7412 H 694.135 -0.674406 -0.29723 0
M  V30 7413 H 696.777 -1.89807 -0.085694 0
M  V30 7414 H 694.927 -3.20617 -2.19401 0
M  V30 7415 H 696.599 -4.613 0.00407137 0
M  V30 7416 H 694.842 -4.33738 0.0732332 0
M  V30 7417 H 695.513 -5.39395 -1.17292 0
M  V30 7418 H 697.989 -3.65139 -1.99532 0
M  V30 7419 H 696.865 -4.58798 -3.01323 0
M  V30 7420 H 697.126 -2.88403 -3.35076 0
M  V30 7421 N 696.185 0.383891 -1.52853 0
M  V30 7422 C 697.431 1.13009 -1.68395 0
M  V30 7423 C 697.764 1.89488 -0.425195 0
M  V30 7424 O 697.039 1.8574 0.577136 0
M  V30 7425 C 697.322 2.10419 -2.92226 0
M  V30 7426 C 697.175 1.3767 -4.28214 0
M  V30 7427 C 698.494 3.10781 -3.11614 0
M  V30 7428 H 695.613 0.409463 -0.612788 0
M  V30 7429 H 698.255 0.412895 -1.85459 0
M  V30 7430 H 696.405 2.71579 -2.77808 0
M  V30 7431 H 698.077 0.794352 -4.54409 0
M  V30 7432 H 696.32 0.678533 -4.2846 0
M  V30 7433 H 696.991 2.08874 -5.10956 0
M  V30 7434 H 699.467 2.59715 -3.25096 0
M  V30 7435 H 698.343 3.76179 -3.99725 0
M  V30 7436 H 698.604 3.79933 -2.2606 0
M  V30 7437 N 697.663 1.43903 0.642637 0
M  V30 7438 C 698.888 1.49758 1.43483 0
M  V30 7439 C 699.313 0.119911 1.87717 0
M  V30 7440 O 698.671 -0.888558 1.58033 0
M  V30 7441 C 698.719 2.45744 2.63898 0
M  V30 7442 O 697.823 1.95101 3.63331 0
M  V30 7443 H 697.164 0.506138 0.429791 0
M  V30 7444 H 699.694 1.88923 0.785438 0
M  V30 7445 H 699.704 2.63399 3.11584 0
M  V30 7446 H 698.379 3.45818 2.31046 0
M  V30 7447 H 696.956 1.87158 3.22531 0
M  V30 7448 N 699.141 -0.881989 1.30609 0
M  V30 7449 C 700.387 -1.63647 1.19781 0
M  V30 7450 C 700.72 -1.92632 -0.246265 0
M  V30 7451 O 699.995 -1.54938 -1.17577 0
M  V30 7452 C 700.278 -2.97437 2.02985 0
M  V30 7453 C 700.131 -2.75406 3.55628 0
M  V30 7454 C 701.45 -3.98397 1.86997 0
M  V30 7455 H 698.569 -0.593841 0.436488 0
M  V30 7456 H 701.211 -1.02041 1.60273 0
M  V30 7457 H 699.361 -3.50018 1.68581 0
M  V30 7458 H 701.033 -2.2959 4.00107 0
M  V30 7459 H 699.276 -2.09856 3.79662 0
M  V30 7460 H 699.947 -3.70552 4.09139 0
M  V30 7461 H 702.423 -3.54986 2.17081 0
M  V30 7462 H 701.299 -4.89916 2.47536 0
M  V30 7463 H 701.56 -4.3424 0.829943 0
M  V30 7464 N 700.619 -1.13374 -1.09472 0
M  V30 7465 C 701.865 -0.896516 -1.81908 0
M  V30 7466 C 702.198 0.575933 -1.85463 0
M  V30 7467 O 701.473 1.42618 -1.32251 0
M  V30 7468 C 701.756 -1.48445 -3.28079 0
M  V30 7469 C 701.609 -3.02598 -3.32798 0
M  V30 7470 C 702.928 -1.15226 -4.24748 0
M  V30 7471 H 700.047 -0.327127 -0.660422 0
M  V30 7472 H 702.689 -1.40195 -1.2824 0
M  V30 7473 H 700.839 -1.0546 -3.73912 0
M  V30 7474 H 702.511 -3.54335 -2.95372 0
M  V30 7475 H 700.754 -3.37613 -2.72397 0
M  V30 7476 H 701.425 -3.38835 -4.3577 0
M  V30 7477 H 703.901 -1.52369 -3.87199 0
M  V30 7478 H 702.777 -1.59012 -5.25363 0
M  V30 7479 H 703.038 -0.0658891 -4.42051 0
M  V30 7480 N 702.098 1.27442 -0.927168 0
M  V30 7481 C 703.045 2.26863 -0.424459 0
M  V30 7482 C 704.015 1.5813 0.508346 0
M  V30 7483 O 705.2 1.85946 0.42762 0
M  V30 7484 C 702.34 3.43639 0.31718 0
M  V30 7485 C 701.453 4.27087 -0.649675 0
M  V30 7486 C 700.588 5.31082 0.111753 0
M  V30 7487 C 699.627 6.062 -0.847843 0
M  V30 7488 N 698.764 7.01999 -0.119074 0
M  V30 7489 H 703.604 2.69239 -1.27728 0
M  V30 7490 H 701.141 1.32394 -0.641106 0
M  V30 7491 H 703.099 4.10155 0.763486 0
M  V30 7492 H 701.729 3.02217 1.13424 0
M  V30 7493 H 700.781 3.60491 -1.21451 0
M  V30 7494 H 702.093 4.79242 -1.38307 0
M  V30 7495 H 701.247 6.03544 0.618 0
M  V30 7496 H 699.986 4.7973 0.878114 0
M  V30 7497 H 698.991 5.32577 -1.36534 0
M  V30 7498 H 700.216 6.59642 -1.61398 0
M  V30 7499 H 698.162 6.52977 0.629051 0
M  V30 7500 H 698.079 7.5184 -0.792046 0
M  V30 7501 H 699.347 7.78638 0.366537 0
M  V30 7502 N 703.576 0.692616 1.41565 0
M  V30 7503 C 704.801 0.229776 2.06123 0
M  V30 7504 C 705.226 -1.11119 1.5177 0
M  V30 7505 O 704.584 -1.69498 0.643444 0
M  V30 7506 C 704.632 0.19469 3.60074 0
M  V30 7507 O 703.736 -0.831366 4.03933 0
M  V30 7508 H 703.077 0.113002 0.654314 0
M  V30 7509 H 705.607 0.946645 1.81383 0
M  V30 7510 H 705.617 0.0245487 4.07993 0
M  V30 7511 H 704.292 1.17339 3.99004 0
M  V30 7512 H 702.869 -0.630819 3.67526 0
M  V30 7513 N 705.054 -1.51416 0.437162 0
M  V30 7514 C 706.279 -2.0699 -0.130424 0
M  V30 7515 C 706.704 -1.30249 -1.35709 0
M  V30 7516 O 706.062 -0.340388 -1.78076 0
M  V30 7517 C 706.11 -3.5801 -0.43142 0
M  V30 7518 O 705.214 -3.8345 -1.5179 0
M  V30 7519 H 704.555 -0.663997 -0.00194339 0
M  V30 7520 H 707.085 -1.95029 0.618445 0
M  V30 7521 H 707.095 -4.02261 -0.681926 0
M  V30 7522 H 705.77 -4.13291 0.465137 0
M  V30 7523 H 704.347 -3.51062 -1.25737 0
M  V30 7524 N 706.532 -0.168513 -1.56696 0
M  V30 7525 C 707.757 0.486688 -2.01609 0
M  V30 7526 C 708.182 1.56203 -1.04796 0
M  V30 7527 O 707.54 1.8128 -0.0270596 0
M  V30 7528 C 707.588 1.04451 -3.45141 0
M  V30 7529 O 706.692 2.15862 -3.51393 0
M  V30 7530 H 706.033 0.116831 -0.653641 0
M  V30 7531 H 708.563 -0.271579 -2.0279 0
M  V30 7532 H 708.573 1.36782 -3.84389 0
M  V30 7533 H 707.248 0.257155 -4.15104 0
M  V30 7534 H 705.825 1.84597 -3.24004 0
M  V30 7535 N 708.01 1.57248 0.105221 0
M  V30 7536 C 709.256 1.86719 0.806692 0
M  V30 7537 C 709.611 0.758061 1.76837 0
M  V30 7538 O 708.904 -0.240812 1.90081 0
M  V30 7539 C 709.098 3.20437 1.58287 0
M  V30 7540 C 708.927 4.44252 0.697864 0
M  V30 7541 C 707.697 5.04104 0.347444 0
M  V30 7542 C 709.895 5.14299 0.00933014 0
M  V30 7543 N 707.877 6.1146 -0.546786 0
M  V30 7544 C 709.248 6.15528 -0.74336 0
M  V30 7545 C 711.303 4.97857 -0.0656505 0
M  V30 7546 C 710.006 7.02091 -1.56401 0
M  V30 7547 C 712.032 5.84919 -0.873167 0
M  V30 7548 C 711.394 6.8566 -1.61401 0
M  V30 7549 H 707.493 0.73329 0.271679 0
M  V30 7550 H 710.077 1.94575 0.0697152 0
M  V30 7551 H 708.248 3.13651 2.29079 0
M  V30 7552 H 709.98 3.37668 2.23075 0
M  V30 7553 H 706.735 4.68505 0.692817 0
M  V30 7554 H 707.159 6.69779 -0.986157 0
M  V30 7555 H 711.801 4.19919 0.492768 0
M  V30 7556 H 709.519 7.79427 -2.13353 0
M  V30 7557 H 713.105 5.74259 -0.933724 0
M  V30 7558 H 711.985 7.5186 -2.2288 0
M  V30 7559 N 709.488 -0.375779 1.53054 0
M  V30 7560 C 710.737 -1.11674 1.67964 0
M  V30 7561 C 711.05 -1.90755 0.432655 0
M  V30 7562 O 712.256 -2.67538 0.462109 0
M  V30 7563 C 710.712 -2.0344 2.96884 0
M  V30 7564 C 710.32 -1.29719 4.28809 0
M  V30 7565 C 712.064 -2.7759 3.2116 0
M  V30 7566 C 709.971 -2.20327 5.48826 0
M  V30 7567 H 708.901 -0.420597 0.625791 0
M  V30 7568 H 711.552 -0.378499 1.79554 0
M  V30 7569 H 709.934 -2.80953 2.79072 0
M  V30 7570 H 711.108 -0.573394 4.57219 0
M  V30 7571 H 709.423 -0.674735 4.10897 0
M  V30 7572 H 712.02 -3.4559 4.0801 0
M  V30 7573 H 712.363 -3.42399 2.36789 0
M  V30 7574 H 712.896 -2.07164 3.396 0
M  V30 7575 H 709.635 -1.60113 6.35645 0
M  V30 7576 H 709.155 -2.90585 5.2471 0
M  V30 7577 H 710.834 -2.80116 5.83219 0
M  V30 7578 N 710.966 -1.44241 -0.634997 0
M  V30 7579 C 712.214 -1.46531 -1.39187 0
M  V30 7580 C 712.535 -0.0976441 -1.94755 0
M  V30 7581 O 711.805 0.869528 -1.75545 0
M  V30 7582 H 710.385 -0.539544 -0.516625 0
M  V30 7583 H 713.047 -1.79989 -0.747655 0
M  V30 7584 H 712.143 -2.18848 -2.22513 0
M  V30 7585 N 712.444 0.87505 -1.31075 0
M  V30 7586 C 713.684 1.64174 -1.21763 0
M  V30 7587 C 714.048 1.90713 0.221933 0
M  V30 7588 O 715.249 2.652 0.438458 0
M  V30 7589 C 713.52 2.93932 -2.0332 0
M  V30 7590 S 715.079 3.84841 -2.10815 0
M  V30 7591 H 711.897 0.563358 -0.433761 0
M  V30 7592 H 714.499 1.03788 -1.65675 0
M  V30 7593 H 713.203 2.72349 -3.07009 0
M  V30 7594 H 712.734 3.59345 -1.60108 0
M  V30 7595 H 714.749 4.80385 -1.24276 0
M  V30 7596 O 713.961 1.25897 1.01154 0
M  V30 7597 H 714.652 1.04518 1.63082 0
M  V30 END ATOM
M  V30 BEGIN BOND
M  V30 END BOND
M  V30 END CTAB
M  END
$$$$
