drugbank_target|O60896 Receptor activity-modifying protein 3 (DB01278)
 OpenBabel12092119413D

  0  0  0     0  0            999 V3000
M  V30 BEGIN CTAB
M  V30 COUNTS 2320 2348 0 0 0
M  V30 BEGIN ATOM
M  V30 1 H -0.908 1.98254 -0.117106 0
M  V30 2 N 0 1.576 0 0
M  V30 3 C 0.933 2.03868 1.02534 0
M  V30 4 C 1.911 0.928543 1.3348 0
M  V30 5 O 3.095 1.19667 1.45644 0
M  V30 6 C 0.222 2.43627 2.35294 0
M  V30 7 C -0.732 3.65373 2.2001 0
M  V30 8 S 0.101 5.13292 1.52614 0
M  V30 9 C 1.257 5.56322 2.86805 0
M  V30 10 H 1.49 2.90518 0.631377 0
M  V30 11 H -0.977 1.52953 0.210867 0
M  V30 12 H 0.981 2.67203 3.11629 0
M  V30 13 H -0.358 1.57376 2.7183 0
M  V30 14 H -1.165 3.90944 3.18086 0
M  V30 15 H -1.563 3.418 1.51819 0
M  V30 16 H 0.729 5.58782 3.83104 0
M  V30 17 H 1.672 6.56266 2.65933 0
M  V30 18 H 2.08 4.83886 2.90714 0
M  V30 19 N 1.4781 -0.272755 1.55222 0
M  V30 20 C 2.3881 -1.35918 1.91216 0
M  V30 21 C 3.4041 -1.54026 0.809436 0
M  V30 22 O 4.5801 -1.68148 1.10852 0
M  V30 23 C 1.6451 -2.69834 2.17693 0
M  V30 24 C 0.7061 -2.6047 3.41253 0
M  V30 25 C -0.0609 -3.88 3.66458 0
M  V30 26 O 0.1621 -4.88693 2.94169 0
M  V30 27 O -0.9039 -3.88189 4.59992 0
M  V30 28 H 2.9221 -1.0839 2.83699 0
M  V30 29 H 0.5071 -0.471301 1.41771 0
M  V30 30 H 2.3891 -3.49017 2.36147 0
M  V30 31 H 1.0641 -2.97148 1.28392 0
M  V30 32 H -0.0289 -1.79663 3.28134 0
M  V30 33 H 1.3041 -2.38106 4.30774 0
M  V30 34 N 2.9562 -1.48159 -0.537278 0
M  V30 35 C 4.1842 -1.59454 -1.31841 0
M  V30 36 C 4.5992 -0.252065 -1.8711 0
M  V30 37 O 3.9562 0.757621 -1.66031 0
M  V30 38 C 4.0072 -2.63546 -2.47439 0
M  V30 39 O 3.7282 -3.92583 -1.94449 0
M  V30 40 C 5.2292 -2.85212 -3.39366 0
M  V30 41 H 2.4492 -0.53785 -0.401196 0
M  V30 42 H 4.9932 -1.93932 -0.648891 0
M  V30 43 H 3.1482 -2.31946 -3.1029 0
M  V30 44 H 3.5622 -4.49629 -2.70063 0
M  V30 45 H 5.0362 -3.61863 -4.16844 0
M  V30 46 H 5.5132 -1.93765 -3.94147 0
M  V30 47 H 6.1192 -3.18086 -2.82314 0
M  V30 48 N 4.4343 0.785586 -1.36625 0
M  V30 49 C 5.6823 1.54057 -1.30808 0
M  V30 50 C 6.0033 1.94683 0.111157 0
M  V30 51 O 5.2733 1.65241 1.05224 0
M  V30 52 H 3.8533 0.571354 -0.481211 0
M  V30 53 H 6.5153 0.935821 -1.70963 0
M  V30 54 H 5.6113 2.44637 -1.93801 0
M  V30 55 N 5.9124 1.20967 1.01018 0
M  V30 56 C 6.8754 0.965918 2.07853 0
M  V30 57 C 7.8754 -0.0610545 1.60684 0
M  V30 58 O 9.0654 0.175681 1.73312 0
M  V30 59 C 6.1974 0.455513 3.37843 0
M  V30 60 H 7.3904 1.91365 2.3091 0
M  V30 61 H 4.9434 1.02594 1.17916 0
M  V30 62 H 5.6784 -0.497381 3.20463 0
M  V30 63 H 5.4634 1.19622 3.73407 0
M  V30 64 H 6.9534 0.304667 4.16487 0
M  V30 65 N 7.3905 -1.2043 1.01659 0
M  V30 66 C 8.3205 -2.25466 0.607226 0
M  V30 67 C 9.3015 -1.65853 -0.377716 0
M  V30 68 O 10.4865 -1.92409 -0.263149 0
M  V30 69 C 7.6165 -3.47256 -0.0552949 0
M  V30 70 C 6.5705 -4.19462 0.850632 0
M  V30 71 C 5.8965 -5.34673 0.0538859 0
M  V30 72 C 7.1965 -4.75603 2.15868 0
M  V30 73 H 8.8905 -2.59962 1.48526 0
M  V30 74 H 6.4365 -1.2496 0.715605 0
M  V30 75 H 8.3895 -4.19917 -0.353233 0
M  V30 76 H 7.1135 -3.11924 -0.968045 0
M  V30 77 H 5.7725 -3.48667 1.13257 0
M  V30 78 H 5.4205 -4.95585 -0.860514 0
M  V30 79 H 5.1205 -5.83913 0.657192 0
M  V30 80 H 6.6445 -6.10138 -0.237598 0
M  V30 81 H 8.0585 -5.40083 1.92311 0
M  V30 82 H 6.4555 -5.3528 2.71284 0
M  V30 83 H 7.5255 -3.94346 2.82169 0
M  V30 84 N 8.8686 -0.792821 -1.36206 0
M  V30 85 C 10.2846 -0.474903 -1.52371 0
M  V30 86 C 10.4846 1.00622 -1.74578 0
M  V30 87 O 9.5406 1.79162 -1.77924 0
M  V30 88 C 10.8536 -1.3083 -2.70747 0
M  V30 89 C 12.4016 -1.30234 -2.84619 0
M  V30 90 C 12.8766 -2.11956 -4.06004 0
M  V30 91 N 14.3676 -2.09419 -4.13156 0
M  V30 92 C 15.1026 -2.69419 -5.06163 0
M  V30 93 N 14.5986 -3.3829 -6.04592 0
M  V30 94 N 16.3916 -2.59134 -4.98804 0
M  V30 95 H 8.5426 -1.75222 -1.20046 0
M  V30 96 H 10.8056 -0.745024 -0.586211 0
M  V30 97 H 10.5116 -2.35881 -2.6087 0
M  V30 98 H 10.3856 -0.95196 -3.6499 0
M  V30 99 H 12.7726 -0.259748 -2.93955 0
M  V30 100 H 12.8536 -1.69847 -1.91274 0
M  V30 101 H 12.4976 -3.16248 -3.97429 0
M  V30 102 H 12.4276 -1.69711 -4.98503 0
M  V30 103 H 14.9186 -1.59297 -3.42685 0
M  V30 104 H 15.2316 -3.81394 -6.7213 0
M  V30 105 H 13.5766 -3.42393 -6.04807 0
M  V30 106 H 16.7676 -2.04927 -4.20859 0
M  V30 107 H 16.9406 -3.06185 -5.711 0
M  V30 108 N 10.3467 1.47872 -0.545128 0
M  V30 109 C 11.7627 1.5829 -0.204032 0
M  V30 110 C 11.9627 1.54529 1.29317 0
M  V30 111 O 11.0187 1.44232 2.07252 0
M  V30 112 C 12.3317 2.89304 -0.819987 0
M  V30 113 C 13.8797 3.02864 -0.790105 0
M  V30 114 C 14.3547 4.3656 -1.38491 0
M  V30 115 N 15.8457 4.43165 -1.34755 0
M  V30 116 C 16.5807 5.45153 -1.77753 0
M  V30 117 N 16.0767 6.54016 -2.2855 0
M  V30 118 N 17.8697 5.36125 -1.68897 0
M  V30 119 H 10.0207 1.4856 -1.51802 0
M  V30 120 H 12.2837 0.706305 -0.632327 0
M  V30 121 H 11.9897 2.97757 -1.87173 0
M  V30 122 H 11.8637 3.75957 -0.305915 0
M  V30 123 H 14.2507 2.94014 0.252913 0
M  V30 124 H 14.3317 2.17782 -1.34181 0
M  V30 125 H 13.9757 4.46164 -2.42693 0
M  V30 126 H 13.9057 5.20353 -0.808754 0
M  V30 127 H 16.3967 3.65083 -0.975855 0
M  V30 128 H 16.7097 7.27994 -2.59314 0
M  V30 129 H 15.0547 6.54938 -2.32553 0
M  V30 130 H 18.2457 4.49975 -1.28998 0
M  V30 131 H 18.4187 6.15472 -2.02726 0
M  V30 132 N 11.8248 0.280983 1.55075 0
M  V30 133 C 13.2358 -0.215629 1.85451 0
M  V30 134 C 13.5868 -1.54991 1.203 0
M  V30 135 O 12.7118 -2.10699 0.493435 0
M  V30 136 C 13.3068 -0.398026 3.36454 0
M  V30 137 C 11.8658 -0.838866 3.66933 0
M  V30 138 C 11.0128 0.064458 2.77225 0
M  V30 139 H 13.9638 0.502601 1.50531 0
M  V30 140 H 13.9848 -1.23569 3.59876 0
M  V30 141 H 13.4968 0.573241 3.83843 0
M  V30 142 H 11.5978 -1.8214 3.25048 0
M  V30 143 H 11.7108 -0.672123 4.74362 0
M  V30 144 H 10.0748 -0.452863 2.50642 0
M  V30 145 H 10.8578 1.03172 3.2743 0
M  V30 146 N 13.3029 -1.57598 0.00835791 0
M  V30 147 C 14.2349 -2.05811 -1.00868 0
M  V30 148 C 15.2479 -0.977579 -1.30182 0
M  V30 149 O 16.4369 -1.25421 -1.27011 0
M  V30 150 C 13.5369 -2.45016 -2.34137 0
M  V30 151 C 12.7099 -3.75903 -2.23643 0
M  V30 152 C 11.7689 -4.01884 -3.3967 0
M  V30 153 O 10.7949 -4.72433 -3.17483 0
M  V30 154 N 11.9969 -3.50432 -4.62793 0
M  V30 155 H 14.7619 -2.93684 -0.597458 0
M  V30 156 H 12.3229 -1.60909 -0.178852 0
M  V30 157 H 14.3149 -2.59506 -3.10546 0
M  V30 158 H 12.8849 -1.62618 -2.66972 0
M  V30 159 H 12.1049 -3.7141 -1.32091 0
M  V30 160 H 13.3929 -4.61695 -2.13812 0
M  V30 161 H 12.7909 -2.93317 -4.83716 0
M  V30 162 H 11.3479 -3.70236 -5.3644 0
M  V30 163 N 14.781 0.264519 -1.55364 0
M  V30 164 C 15.711 1.33121 -1.91836 0
M  V30 165 C 16.692 1.51101 -0.781192 0
M  V30 166 O 17.877 1.64003 -1.04003 0
M  V30 167 C 15.007 2.68921 -2.19769 0
M  V30 168 C 13.961 2.65661 -3.35571 0
M  V30 169 C 13.287 4.05093 -3.49004 0
M  V30 170 C 14.587 2.24187 -4.71739 0
M  V30 171 H 16.281 1.02844 -2.81182 0
M  V30 172 H 13.827 0.493286 -1.35287 0
M  V30 173 H 15.78 3.43663 -2.43872 0
M  V30 174 H 14.504 3.00799 -1.27231 0
M  V30 175 H 13.163 1.93377 -3.1145 0
M  V30 176 H 12.811 4.34206 -2.53917 0
M  V30 177 H 12.511 4.03804 -4.26868 0
M  V30 178 H 14.035 4.81561 -3.75408 0
M  V30 179 H 15.449 2.88654 -4.9533 0
M  V30 180 H 13.846 2.34044 -5.52579 0
M  V30 181 H 14.916 1.19327 -4.69988 0
M  V30 182 N 16.2591 1.48442 0.529413 0
M  V30 183 C 17.1891 1.65902 1.64313 0
M  V30 184 C 18.1701 0.507897 1.6234 0
M  V30 185 O 19.3551 0.740503 1.79528 0
M  V30 186 C 16.4851 1.69911 3.02898 0
M  V30 187 C 15.4391 2.8453 3.19729 0
M  V30 188 C 14.7651 2.73629 4.59381 0
M  V30 189 C 16.0651 4.25821 3.02447 0
M  V30 190 H 17.7591 2.5914 1.49955 0
M  V30 191 H 15.3051 1.24709 0.719982 0
M  V30 192 H 17.2581 1.80715 3.80684 0
M  V30 193 H 15.9821 0.732524 3.18279 0
M  V30 194 H 14.6411 2.73283 2.44361 0
M  V30 195 H 14.2891 1.74938 4.71599 0
M  V30 196 H 13.9891 3.50541 4.71588 0
M  V30 197 H 15.5131 2.86401 5.39265 0
M  V30 198 H 16.9271 4.37898 3.70024 0
M  V30 199 H 15.3241 5.03735 3.26146 0
M  V30 200 H 16.3941 4.42244 1.98867 0
M  V30 201 N 17.7372 -0.778329 1.37039 0
M  V30 202 C 19.1482 -1.35421 1.28523 0
M  V30 203 C 19.4992 -1.96075 -0.0700901 0
M  V30 204 O 18.6242 -1.93352 -0.971801 0
M  V30 205 C 19.2192 -2.46211 2.32735 0
M  V30 206 C 17.7782 -2.99585 2.27873 0
M  V30 207 C 16.9252 -1.72748 2.16918 0
M  V30 208 H 19.8762 -0.5791 1.47757 0
M  V30 209 H 19.8972 -3.2552 1.9702 0
M  V30 210 H 19.4092 -2.02036 3.31365 0
M  V30 211 H 17.5102 -3.48152 1.32745 0
M  V30 212 H 17.6232 -3.55646 3.21018 0
M  V30 213 H 15.9872 -1.95416 1.63354 0
M  V30 214 H 16.7702 -1.30686 3.17452 0
M  V30 215 N 19.2153 -1.21501 -1.00376 0
M  V30 216 C 20.1453 -0.999478 -2.11028 0
M  V30 217 C 21.1263 0.0759671 -1.6993 0
M  V30 218 O 22.3113 -0.0841106 -1.94018 0
M  V30 219 C 19.4413 -0.564709 -3.42678 0
M  V30 220 C 18.3953 -1.58486 -3.97576 0
M  V30 221 C 17.7213 -1.00628 -5.25146 0
M  V30 222 C 19.0213 -2.97204 -4.29496 0
M  V30 223 H 20.7153 -1.92495 -2.29317 0
M  V30 224 H 18.2613 -0.92693 -1.102 0
M  V30 225 H 20.2143 -0.401091 -4.19487 0
M  V30 226 H 18.9383 0.396411 -3.24185 0
M  V30 227 H 17.5973 -1.73606 -3.22888 0
M  V30 228 H 17.2453 -0.0368439 -5.02987 0
M  V30 229 H 16.9453 -1.68771 -5.62841 0
M  V30 230 H 18.4693 -0.854015 -6.04598 0
M  V30 231 H 19.8833 -2.8552 -4.97143 0
M  V30 232 H 18.2803 -3.62372 -4.78338 0
M  V30 233 H 19.3503 -3.47956 -3.3772 0
M  V30 234 N 20.6934 1.19889 -1.02296 0
M  V30 235 C 21.6234 2.25141 -0.619174 0
M  V30 236 C 22.6044 1.66051 0.368915 0
M  V30 237 O 23.7894 1.92546 0.252941 0
M  V30 238 C 20.9194 3.4728 0.0368783 0
M  V30 239 C 19.8734 4.19005 -0.872865 0
M  V30 240 C 19.1994 5.34637 -0.0822402 0
M  V30 241 C 20.4994 4.74452 -2.18387 0
M  V30 242 H 22.1934 2.59171 -1.49903 0
M  V30 243 H 19.7394 1.24579 -0.722222 0
M  V30 244 H 21.6924 4.20098 0.330958 0
M  V30 245 H 20.4164 3.12433 0.95149 0
M  V30 246 H 19.0754 3.48061 -1.15105 0
M  V30 247 H 18.7234 4.96034 0.83422 0
M  V30 248 H 18.4234 5.83557 -0.688149 0
M  V30 249 H 19.9474 6.10255 0.205238 0
M  V30 250 H 21.3614 5.39055 -1.95172 0
M  V30 251 H 19.7584 5.33834 -2.74119 0
M  V30 252 H 20.8284 3.92844 -2.84257 0
M  V30 253 N 22.1715 0.800033 1.35784 0
M  V30 254 C 23.1015 0.220184 2.3246 0
M  V30 255 C 24.0825 -0.65073 1.57161 0
M  V30 256 O 25.2675 -0.582359 1.85263 0
M  V30 257 C 22.3975 -0.637353 3.41402 0
M  V30 258 C 21.3515 0.134531 4.27789 0
M  V30 259 C 20.6775 -0.844285 5.27992 0
M  V30 260 C 21.9775 1.32979 5.05088 0
M  V30 261 H 23.6715 1.02787 2.81203 0
M  V30 262 H 21.2175 0.495717 1.35199 0
M  V30 263 H 23.1705 -1.05302 4.08031 0
M  V30 264 H 21.8945 -1.47785 2.91251 0
M  V30 265 H 20.5535 0.531296 3.6273 0
M  V30 266 H 20.2015 -1.68011 4.74111 0
M  V30 267 H 19.9015 -0.332184 5.8666 0
M  V30 268 H 21.4255 -1.2583 5.97494 0
M  V30 269 H 22.8395 0.98934 5.64699 0
M  V30 270 H 21.2365 1.77593 5.7322 0
M  V30 271 H 22.3065 2.11978 4.36111 0
M  V30 272 N 23.6496 -1.47581 0.552962 0
M  V30 273 C 24.5796 -2.32762 -0.185451 0
M  V30 274 C 25.5606 -1.43527 -0.912905 0
M  V30 275 O 26.7456 -1.72388 -0.894201 0
M  V30 276 C 23.8756 -3.25219 -1.21859 0
M  V30 277 C 22.8296 -4.23661 -0.607864 0
M  V30 278 C 22.1556 -5.05413 -1.74533 0
M  V30 279 C 23.4556 -5.20481 0.435582 0
M  V30 280 H 25.1496 -2.94749 0.525684 0
M  V30 281 H 22.6956 -1.41738 0.254251 0
M  V30 282 H 24.6486 -3.8365 -1.7433 0
M  V30 283 H 23.3726 -2.61279 -1.95961 0
M  V30 284 H 22.0316 -3.66451 -0.104489 0
M  V30 285 H 21.6796 -4.3788 -2.47529 0
M  V30 286 H 21.3796 -5.72059 -1.34249 0
M  V30 287 H 22.9036 -5.66701 -2.27338 0
M  V30 288 H 24.3176 -5.733 -0.00290157 0
M  V30 289 H 22.7146 -5.95305 0.757067 0
M  V30 290 H 23.7846 -4.66217 1.33303 0
M  V30 291 N 25.1277 -0.289203 -1.54924 0
M  V30 292 C 26.0577 0.58549 -2.2604 0
M  V30 293 C 27.0387 1.14753 -1.25562 0
M  V30 294 O 28.2237 1.17906 -1.54311 0
M  V30 295 C 25.3537 1.76305 -2.99222 0
M  V30 296 C 24.3077 1.33191 -4.06748 0
M  V30 297 C 23.6337 2.5937 -4.6758 0
M  V30 298 C 24.9337 0.471775 -5.20165 0
M  V30 299 H 26.6277 -0.00763532 -2.99399 0
M  V30 300 H 24.1737 -0.00511229 -1.43999 0
M  V30 301 H 26.1267 2.38097 -3.47689 0
M  V30 302 H 24.8507 2.38223 -2.23422 0
M  V30 303 H 23.5097 0.737121 -3.59113 0
M  V30 304 H 23.1577 3.19576 -3.88433 0
M  V30 305 H 22.8577 2.31228 -5.40192 0
M  V30 306 H 24.3817 3.21985 -5.18804 0
M  V30 307 H 25.7957 0.995056 -5.64599 0
M  V30 308 H 24.1927 0.284639 -5.99425 0
M  V30 309 H 25.2627 -0.506041 -4.82252 0
M  V30 310 N 26.6058 1.57591 -0.0167156 0
M  V30 311 C 27.8458 1.93145 0.668902 0
M  V30 312 C 28.2098 0.892406 1.7 0
M  V30 313 O 29.4108 1.13373 2.43721 0
M  V30 314 C 27.6818 3.33678 1.28039 0
M  V30 315 S 29.2408 3.91142 1.9888 0
M  V30 316 H 26.0588 0.67593 0.220545 0
M  V30 317 H 28.6608 1.95347 -0.0774105 0
M  V30 318 H 27.3648 4.07126 0.517339 0
M  V30 319 H 26.8958 3.3489 2.06427 0
M  V30 320 H 28.9108 3.73571 3.26587 0
M  V30 321 N 28.0839 -0.256276 1.55502 0
M  V30 322 C 29.3319 -0.983672 1.76545 0
M  V30 323 C 29.6529 -1.86206 0.578982 0
M  V30 324 O 28.9229 -1.91656 -0.405577 0
M  V30 325 H 27.5029 -0.366191 0.651086 0
M  V30 326 H 30.1649 -0.276479 1.92929 0
M  V30 327 H 29.2609 -1.61087 2.67315 0
M  V30 328 N 29.562 -1.4872 -0.521534 0
M  V30 329 C 30.81 -1.56857 -1.27437 0
M  V30 330 C 31.131 -0.247982 -1.93417 0
M  V30 331 O 30.401 0.731151 -1.81744 0
M  V30 332 H 28.981 -0.577885 -0.473347 0
M  V30 333 H 31.643 -1.85233 -0.606205 0
M  V30 334 H 30.739 -2.35402 -2.0492 0
M  V30 335 N 31.0401 0.771051 -1.3745 0
M  V30 336 C 32.2801 1.54264 -1.34096 0
M  V30 337 C 32.6441 1.91858 0.0737639 0
M  V30 338 O 33.8451 2.67797 0.23203 0
M  V30 339 C 32.1161 2.77326 -2.25445 0
M  V30 340 S 33.6751 3.67383 -2.39948 0
M  V30 341 H 30.4931 0.528122 -0.476034 0
M  V30 342 H 33.0951 0.906633 -1.73206 0
M  V30 343 H 31.7991 2.47788 -3.27153 0
M  V30 344 H 31.3301 3.45886 -1.87421 0
M  V30 345 H 33.3451 4.69334 -1.61059 0
M  V30 346 N 32.5182 1.22032 0.997298 0
M  V30 347 C 33.9292 1.0397 1.55071 0
M  V30 348 C 34.2802 -0.398192 1.92117 0
M  V30 349 O 33.4052 -1.28254 1.74298 0
M  V30 350 C 34.0002 1.88109 2.81781 0
M  V30 351 C 32.5592 1.74357 3.33581 0
M  V30 352 C 31.7062 1.84846 2.06706 0
M  V30 353 H 34.6572 1.35941 0.818883 0
M  V30 354 H 34.6782 1.39589 3.53971 0
M  V30 355 H 34.1902 2.92754 2.54787 0
M  V30 356 H 32.2912 0.72427 3.65493 0
M  V30 357 H 32.4042 2.56772 4.04481 0
M  V30 358 H 30.7682 1.28238 2.20062 0
M  V30 359 H 31.5512 2.91014 1.82114 0
M  V30 360 N 33.9963 -1.19345 1.0293 0
M  V30 361 C 35.4123 -1.41069 0.746446 0
M  V30 362 C 35.6123 -1.90078 -0.668776 0
M  V30 363 O 34.6683 -2.0778 -1.4347 0
M  V30 364 C 35.9813 -2.42141 1.78292 0
M  V30 365 C 37.5293 -2.55887 1.80252 0
M  V30 366 C 38.0043 -3.60214 2.8286 0
M  V30 367 N 39.4953 -3.67711 2.81679 0
M  V30 368 C 40.2303 -4.48128 3.57727 0
M  V30 369 N 39.7263 -5.32248 4.43491 0
M  V30 370 N 41.5193 -4.42782 3.46267 0
M  V30 371 H 33.6703 -0.858536 1.94275 0
M  V30 372 H 35.9333 -0.439541 0.839945 0
M  V30 373 H 35.6393 -2.13155 2.79746 0
M  V30 374 H 35.5133 -3.41323 1.60557 0
M  V30 375 H 37.9003 -2.84196 0.794757 0
M  V30 376 H 37.9813 -1.56858 2.02062 0
M  V30 377 H 37.6253 -3.32647 3.83807 0
M  V30 378 H 37.5553 -4.58895 2.58307 0
M  V30 379 H 40.0463 -3.07634 2.19476 0
M  V30 380 H 40.3593 -5.90729 4.98256 0
M  V30 381 H 38.7043 -5.31707 4.47564 0
M  V30 382 H 41.8953 -3.76107 2.78677 0
M  V30 383 H 42.0683 -5.05215 4.05785 0
M  V30 384 N 35.4744 -0.807222 -1.35358 0
M  V30 385 C 36.4374 -0.223665 -2.28106 0
M  V30 386 C 37.4374 0.589354 -1.4961 0
M  V30 387 O 38.6274 0.407745 -1.69361 0
M  V30 388 C 35.7594 0.688149 -3.33882 0
M  V30 389 H 36.9524 -1.04169 -2.81227 0
M  V30 390 H 34.5054 -0.577921 -1.45223 0
M  V30 391 H 35.2404 1.52984 -2.85948 0
M  V30 392 H 35.0254 0.10687 -3.91954 0
M  V30 393 H 36.5154 1.09075 -4.03104 0
M  V30 394 N 36.9525 1.47285 -0.560781 0
M  V30 395 C 38.2005 2.02064 -0.0379868 0
M  V30 396 C 38.5215 1.43711 1.31803 0
M  V30 397 O 37.7915 0.61362 1.86042 0
M  V30 398 H 36.3715 0.746918 -0.0110531 0
M  V30 399 H 39.0335 1.80648 -0.731598 0
M  V30 400 H 38.1295 3.12064 0.0474463 0
M  V30 401 N 38.4306 0.297415 1.54768 0
M  V30 402 C 39.6786 -0.312295 1.99673 0
M  V30 403 C 39.9996 -1.54686 1.18732 0
M  V30 404 O 39.2696 -1.93854 0.282382 0
M  V30 405 H 37.8496 -0.118381 0.73756 0
M  V30 406 H 40.5116 0.407915 1.90583 0
M  V30 407 H 39.6076 -0.586813 3.06534 0
M  V30 408 N 39.9087 -1.5758 0.0250728 0
M  V30 409 C 41.1487 -1.93497 -0.65865 0
M  V30 410 C 41.5127 -0.901409 -1.69525 0
M  V30 411 O 42.7137 -1.14664 -2.43116 0
M  V30 412 C 40.9847 -3.34352 -1.26267 0
M  V30 413 S 42.5437 -3.92191 -1.96803 0
M  V30 414 H 39.3617 -0.67709 -0.216958 0
M  V30 415 H 41.9637 -1.95303 0.0877692 0
M  V30 416 H 40.6677 -4.07395 -0.495741 0
M  V30 417 H 40.1987 -3.3598 -2.04648 0
M  V30 418 H 42.2137 -3.75298 -3.24601 0
M  V30 419 N 41.3868 0.248026 -1.55636 0
M  V30 420 C 42.3348 1.32683 -1.91045 0
M  V30 421 C 43.3288 1.49883 -0.789401 0
M  V30 422 O 44.5348 1.51371 -0.974007 0
M  V30 423 H 40.9098 0.444272 -0.606734 0
M  V30 424 H 42.8808 1.00085 -2.81115 0
M  V30 425 C 41.6298 2.6755 -2.22064 0
M  V30 426 H 40.9528 2.55114 -3.07826 0
M  V30 427 H 42.3928 3.41912 -2.50743 0
M  V30 428 C 40.8518 3.20556 -1.0366 0
M  V30 429 O 41.3818 4.00695 -0.284016 0
M  V30 430 N 39.5878 2.78568 -0.82753 0
M  V30 431 H 39.1348 2.1351 -1.44123 0
M  V30 432 H 39.0928 3.14378 -0.0369803 0
M  V30 433 N 42.8649 1.48995 0.513639 0
M  V30 434 C 43.7749 1.67443 1.64317 0
M  V30 435 C 44.7909 0.556947 1.64846 0
M  V30 436 O 45.9669 0.830082 1.83498 0
M  V30 437 C 43.0319 1.72515 3.00732 0
M  V30 438 C 42.0929 2.96009 3.1093 0
M  V30 439 C 41.3259 3.00829 4.40837 0
M  V30 440 O 41.5489 2.13594 5.28898 0
M  V30 441 O 40.4829 3.93168 4.55744 0
M  V30 442 H 44.3089 2.63106 1.51687 0
M  V30 443 H 41.8939 1.32588 0.688543 0
M  V30 444 H 43.7759 1.78277 3.81831 0
M  V30 445 H 42.4509 0.800278 3.13651 0
M  V30 446 H 41.3579 2.9577 2.29065 0
M  V30 447 H 42.6909 3.87934 3.02933 0
M  V30 448 N 44.343 -0.763751 1.37857 0
M  V30 449 C 45.571 -1.55293 1.36718 0
M  V30 450 C 45.986 -1.88745 -0.0455434 0
M  V30 451 O 45.343 -1.52039 -1.00947 0
M  V30 452 C 45.394 -2.85831 2.2132 0
M  V30 453 O 45.115 -2.5381 3.57089 0
M  V30 454 C 46.616 -3.80023 2.28249 0
M  V30 455 H 43.836 -0.480841 0.468009 0
M  V30 456 H 46.38 -0.946009 1.81303 0
M  V30 457 H 44.535 -3.42926 1.80223 0
M  V30 458 H 44.949 -3.37459 4.01524 0
M  V30 459 H 46.423 -4.68599 2.91752 0
M  V30 460 H 46.9 -4.1973 1.2932 0
M  V30 461 H 47.506 -3.28855 2.69693 0
M  V30 462 N 45.8211 -1.22559 -0.990812 0
M  V30 463 C 47.0691 -1.04933 -1.72724 0
M  V30 464 C 47.3901 0.416158 -1.90508 0
M  V30 465 O 46.6601 1.29918 -1.46622 0
M  V30 466 H 45.2401 -0.385296 -0.639965 0
M  V30 467 H 47.9021 -1.54105 -1.19322 0
M  V30 468 H 46.9981 -1.52886 -2.72089 0
M  V30 469 N 47.2992 1.18797 -1.03562 0
M  V30 470 C 48.2322 2.2105 -0.56676 0
M  V30 471 C 49.2102 1.57704 0.395993 0
M  V30 472 O 50.3942 1.85908 0.311498 0
M  V30 473 C 47.5212 3.38259 0.172704 0
M  V30 474 C 46.5672 4.19987 -0.74252 0
M  V30 475 S 47.4002 4.87199 -2.22254 0
M  V30 476 C 48.5562 6.07813 -1.49379 0
M  V30 477 H 48.7892 2.60478 -1.43312 0
M  V30 478 H 46.3222 1.29151 -0.846133 0
M  V30 479 H 48.2802 4.06191 0.593191 0
M  V30 480 H 46.9412 2.97252 1.01488 0
M  V30 481 H 46.1342 5.03709 -0.171265 0
M  V30 482 H 45.7362 3.57408 -1.10163 0
M  V30 483 H 48.0282 6.72948 -0.784056 0
M  V30 484 H 48.9712 6.69435 -2.30786 0
M  V30 485 H 49.3792 5.55781 -0.988331 0
M  V30 486 N 48.7773 0.814389 1.34928 0
M  V30 487 C 49.7073 0.244827 2.32213 0
M  V30 488 C 50.6883 -0.634024 1.57842 0
M  V30 489 O 51.8733 -0.562676 1.8587 0
M  V30 490 C 49.0033 -0.601106 3.42058 0
M  V30 491 C 47.9573 0.179896 4.27622 0
M  V30 492 C 47.2833 -0.788237 5.28858 0
M  V30 493 C 48.5833 1.38329 5.03649 0
M  V30 494 H 50.2773 1.05763 2.80097 0
M  V30 495 H 47.8233 0.510029 1.34665 0
M  V30 496 H 49.7763 -1.00968 4.09125 0
M  V30 497 H 48.5003 -1.44688 2.92802 0
M  V30 498 H 47.1593 0.569739 3.62146 0
M  V30 499 H 46.8073 -1.62973 4.75866 0
M  V30 500 H 46.5073 -0.269942 5.8698 0
M  V30 501 H 48.0313 -1.19485 5.98795 0
M  V30 502 H 49.4453 1.04918 5.63618 0
M  V30 503 H 47.8423 1.83662 5.71304 0
M  V30 504 H 48.9123 2.16592 4.33839 0
M  V30 505 N 50.2554 -1.46986 0.568584 0
M  V30 506 C 51.1654 -2.33942 -0.17555 0
M  V30 507 C 52.1814 -1.48891 -0.90041 0
M  V30 508 O 53.3574 -1.81794 -0.86676 0
M  V30 509 C 50.4224 -3.25811 -1.18524 0
M  V30 510 C 49.4834 -4.26757 -0.466582 0
M  V30 511 C 48.7164 -5.14236 -1.42817 0
M  V30 512 O 48.9394 -5.04379 -2.66379 0
M  V30 513 O 47.8734 -5.94412 -0.946453 0
M  V30 514 H 51.6994 -2.98896 0.538036 0
M  V30 515 H 49.2844 -1.4573 0.329097 0
M  V30 516 H 51.1664 -3.82527 -1.76779 0
M  V30 517 H 49.8414 -2.63471 -1.88055 0
M  V30 518 H 48.7484 -3.73769 0.157451 0
M  V30 519 H 50.0814 -4.91843 0.187485 0
M  V30 520 N 51.7335 -0.305618 -1.54608 0
M  V30 521 C 53.1495 0.0476228 -1.59529 0
M  V30 522 C 53.3495 1.52025 -1.32252 0
M  V30 523 O 52.4055 2.27368 -1.09818 0
M  V30 524 C 53.7185 -0.354471 -2.98603 0
M  V30 525 C 55.2665 -0.303622 -3.11524 0
M  V30 526 C 55.7415 -0.680608 -4.52915 0
M  V30 527 N 57.2325 -0.63332 -4.5885 0
M  V30 528 C 57.9675 -0.897432 -5.66334 0
M  V30 529 N 57.4635 -1.22775 -6.81834 0
M  V30 530 N 59.2565 -0.824186 -5.56025 0
M  V30 531 H 51.4075 -1.2653 -1.70599 0
M  V30 532 H 53.6705 -0.513291 -0.797017 0
M  V30 533 H 53.3765 -1.3798 -3.23503 0
M  V30 534 H 53.2505 0.289568 -3.76087 0
M  V30 535 H 55.6375 0.712472 -2.8637 0
M  V30 536 H 55.7185 -0.982348 -2.36185 0
M  V30 537 H 55.3625 -1.69453 -4.78799 0
M  V30 538 H 55.2925 0.0202385 -5.26596 0
M  V30 539 H 57.7835 -0.389138 -3.75891 0
M  V30 540 H 58.0965 -1.41513 -7.59733 0
M  V30 541 H 56.4415 -1.26583 -6.83375 0
M  V30 542 H 59.6325 -0.565748 -4.64669 0
M  V30 543 H 59.8055 -1.03338 -6.39707 0
M  V30 544 N 53.2116 1.57565 -0.0334293 0
M  V30 545 C 54.1416 2.13511 0.945265 0
M  V30 546 C 55.1226 1.05231 1.33643 0
M  V30 547 O 56.3076 1.33084 1.41429 0
M  V30 548 C 53.4376 2.6657 2.22616 0
M  V30 549 C 52.3916 3.79676 1.97561 0
M  V30 550 C 51.7176 4.1918 3.31952 0
M  V30 551 C 53.0176 5.0557 1.31135 0
M  V30 552 H 54.7116 2.95538 0.479325 0
M  V30 553 H 52.2576 1.42166 0.229115 0
M  V30 554 H 54.2106 3.04344 2.91466 0
M  V30 555 H 52.9346 1.8171 2.71384 0
M  V30 556 H 51.5936 3.42347 1.31127 0
M  V30 557 H 51.2416 3.31296 3.78487 0
M  V30 558 H 50.9416 4.95402 3.15992 0
M  V30 559 H 52.4656 4.59541 4.02063 0
M  V30 560 H 53.8796 5.40903 1.89992 0
M  V30 561 H 52.2766 5.86818 1.25559 0
M  V30 562 H 53.3466 4.84062 0.284894 0
M  V30 563 N 54.6897 -0.239769 1.55765 0
M  V30 564 C 56.1007 -0.808263 1.68297 0
M  V30 565 C 56.4517 -1.85736 0.632181 0
M  V30 566 O 55.5767 -2.15277 -0.220204 0
M  V30 567 C 56.1717 -1.47284 3.05111 0
M  V30 568 C 54.7307 -1.98895 3.19559 0
M  V30 569 C 53.8777 -0.842575 2.64189 0
M  V30 570 H 56.8287 -0.0154422 1.58692 0
M  V30 571 H 56.8497 -2.34111 2.99954 0
M  V30 572 H 56.3617 -0.709053 3.81568 0
M  V30 573 H 54.4627 -2.78132 2.47938 0
M  V30 574 H 54.5757 -2.18143 4.26556 0
M  V30 575 H 52.9397 -1.24501 2.22197 0
M  V30 576 H 53.7227 -0.0917552 3.43177 0
M  V30 577 N 56.1678 -1.49265 -0.50573 0
M  V30 578 C 57.0978 -1.68495 -1.61653 0
M  V30 579 C 58.0788 -0.53366 -1.61512 0
M  V30 580 O 59.2638 -0.76897 -1.78327 0
M  V30 581 C 56.3938 -1.74709 -3.00157 0
M  V30 582 C 55.3478 -2.89581 -3.15162 0
M  V30 583 C 54.6738 -2.80903 -4.5497 0
M  V30 584 C 55.9738 -4.30578 -2.95634 0
M  V30 585 H 57.6678 -2.61493 -1.45814 0
M  V30 586 H 55.2138 -1.25838 -0.70005 0
M  V30 587 H 57.1668 -1.86748 -3.77761 0
M  V30 588 H 55.8908 -0.783067 -3.17074 0
M  V30 589 H 54.5498 -2.77136 -2.39982 0
M  V30 590 H 54.1978 -1.82419 -4.68756 0
M  V30 591 H 53.8978 -3.57999 -4.65951 0
M  V30 592 H 55.4218 -2.94944 -5.34641 0
M  V30 593 H 56.8358 -4.4373 -3.63011 0
M  V30 594 H 55.2328 -5.0886 -3.18091 0
M  V30 595 H 56.3028 -4.45352 -1.91806 0
M  V30 596 N 57.6459 0.756429 -1.3826 0
M  V30 597 C 58.8859 1.52833 -1.35725 0
M  V30 598 C 59.2499 1.91926 0.0534106 0
M  V30 599 O 60.4509 2.68028 0.203613 0
M  V30 600 C 58.7219 2.74919 -2.28373 0
M  V30 601 S 60.2809 3.64817 -2.43832 0
M  V30 602 H 57.0989 0.523043 -0.481608 0
M  V30 603 H 59.7009 0.888212 -1.74158 0
M  V30 604 H 58.4049 2.44304 -3.29763 0
M  V30 605 H 57.9359 3.43878 -1.91079 0
M  V30 606 H 59.9509 4.676 -1.66027 0
M  V30 607 N 59.124 1.23083 0.984299 0
M  V30 608 C 60.372 1.05848 1.72165 0
M  V30 609 C 60.693 -0.406049 1.90726 0
M  V30 610 O 59.963 -1.29139 1.47309 0
M  V30 611 H 58.543 0.388685 0.637913 0
M  V30 612 H 61.205 1.54736 1.18503 0
M  V30 613 H 60.301 1.54327 2.71274 0
M  V30 614 N 60.6021 -1.18246 1.0419 0
M  V30 615 C 61.5491 -2.2192 0.634037 0
M  V30 616 C 62.5191 -1.62179 -0.358765 0
M  V30 617 O 63.7041 -1.89122 -0.252466 0
M  V30 618 C 60.8441 -3.451 0.00445535 0
M  V30 619 C 59.9571 -4.19174 1.04487 0
M  V30 620 C 59.0921 -5.29813 0.383676 0
M  V30 621 C 58.1311 -5.9566 1.4091 0
M  V30 622 N 57.2681 -6.97834 0.772784 0
M  V30 623 H 62.1081 -2.56164 1.52263 0
M  V30 624 H 59.6451 -1.25843 0.761701 0
M  V30 625 H 61.6031 -4.15485 -0.377919 0
M  V30 626 H 60.2331 -3.11472 -0.847652 0
M  V30 627 H 59.2851 -3.47604 1.54518 0
M  V30 628 H 60.5971 -4.64267 1.82368 0
M  V30 629 H 59.7511 -6.06677 -0.0528366 0
M  V30 630 H 58.4901 -4.85825 -0.427208 0
M  V30 631 H 57.4951 -5.17535 1.85574 0
M  V30 632 H 58.7201 -6.4173 2.22171 0
M  V30 633 H 56.6661 -6.55998 -0.0177708 0
M  V30 634 H 56.5831 -7.41186 1.48928 0
M  V30 635 H 57.8511 -7.78665 0.36071 0
M  V30 636 N 62.0802 -0.821533 -1.34494 0
M  V30 637 C 63.0432 -0.247847 -2.27856 0
M  V30 638 C 64.0432 0.573453 -1.50227 0
M  V30 639 O 65.2332 0.389759 -1.69784 0
M  V30 640 C 62.3652 0.652698 -3.34593 0
M  V30 641 H 63.5582 -1.07146 -2.80107 0
M  V30 642 H 61.1112 -0.593291 -1.44602 0
M  V30 643 H 61.8462 1.49943 -2.87555 0
M  V30 644 H 61.6312 0.065292 -3.92046 0
M  V30 645 H 63.1212 1.04793 -4.04238 0
M  V30 646 N 63.5583 1.46682 -0.576371 0
M  V30 647 C 64.8053 2.02412 -0.0595339 0
M  V30 648 C 65.1333 1.44859 1.29793 0
M  V30 649 O 64.3883 0.601099 1.8624 0
M  V30 650 C 64.6873 3.57345 0.062886 0
M  V30 651 C 64.3533 4.33908 -1.22616 0
M  V30 652 C 63.0153 4.54544 -1.57933 0
M  V30 653 C 65.3673 4.77919 -2.07948 0
M  V30 654 C 62.6953 5.16444 -2.78393 0
M  V30 655 C 65.0473 5.41149 -3.27629 0
M  V30 656 C 63.7113 5.60014 -3.63236 0
M  V30 657 H 62.9813 0.74068 -0.021785 0
M  V30 658 H 65.6283 1.76128 -0.751735 0
M  V30 659 H 63.9333 3.82729 0.838178 0
M  V30 660 H 65.6303 3.98136 0.478439 0
M  V30 661 H 62.2203 4.18138 -0.941202 0
M  V30 662 H 66.4043 4.61738 -1.81967 0
M  V30 663 H 61.6603 5.29242 -3.06126 0
M  V30 664 H 65.8343 5.74211 -3.94023 0
M  V30 665 H 63.4613 6.07748 -4.56669 0
M  V30 666 N 65.0364 0.313813 1.54444 0
M  V30 667 C 65.9994 -0.54379 2.22656 0
M  V30 668 C 66.9994 -1.05124 1.21678 0
M  V30 669 O 68.1894 -0.945225 1.46325 0
M  V30 670 C 65.3214 -1.75427 2.92298 0
M  V30 671 H 66.5144 0.0523599 2.99854 0
M  V30 672 H 64.0674 0.0647834 1.56166 0
M  V30 673 H 64.8024 -2.38991 2.19211 0
M  V30 674 H 64.5874 -1.39791 3.66334 0
M  V30 675 H 66.0774 -2.36325 3.44297 0
M  V30 676 N 66.5145 -1.57545 0.0417849 0
M  V30 677 C 67.7915 -1.83642 -0.673433 0
M  V30 678 C 68.1715 -0.928298 -1.89594 0
M  V30 679 O 67.5195 0.0129955 -2.28496 0
M  V30 680 C 67.7295 -3.33155 -1.03964 0
M  V30 681 C 69.0775 -3.99941 -1.42592 0
M  V30 682 O 70.1015 -3.37725 -1.13226 0
M  V30 683 O 68.9605 -5.09619 -1.9736 0
M  V30 684 H 66.0545 -0.757638 -0.331533 0
M  V30 685 H 68.6005 -1.69554 0.070433 0
M  V30 686 H 67.3725 -3.9093 -0.170098 0
M  V30 687 H 66.9955 -3.52396 -1.84126 0
M  V30 688 N 67.9926 0.231505 -1.5589 0
M  V30 689 C 68.9256 1.31369 -1.86595 0
M  V30 690 C 69.9036 1.45671 -0.722397 0
M  V30 691 O 71.0876 1.61642 -0.969743 0
M  V30 692 C 68.2146 2.68529 -2.06421 0
M  V30 693 C 67.2606 2.71295 -3.29092 0
M  V30 694 S 68.0936 2.26358 -4.85306 0
M  V30 695 C 69.2496 3.65414 -5.08157 0
M  V30 696 H 69.4826 1.05128 -2.78092 0
M  V30 697 H 67.0156 0.433259 -1.48197 0
M  V30 698 H 68.9736 3.47499 -2.18528 0
M  V30 699 H 67.6346 2.91999 -1.15738 0
M  V30 700 H 66.8276 3.72063 -3.39978 0
M  V30 701 H 66.4296 2.0038 -3.15791 0
M  V30 702 H 68.7216 4.6103 -4.96445 0
M  V30 703 H 69.6646 3.5945 -6.10083 0
M  V30 704 H 70.0726 3.5864 -4.35933 0
M  V30 705 N 69.4707 1.49531 0.497807 0
M  V30 706 C 70.4037 1.61043 1.6168 0
M  V30 707 C 71.3817 0.459386 1.55976 0
M  V30 708 O 72.5657 0.675358 1.75986 0
M  V30 709 C 69.6927 1.56833 3.00202 0
M  V30 710 C 68.7387 2.77173 3.24156 0
M  V30 711 S 69.5717 4.38808 3.06933 0
M  V30 712 C 70.7277 4.37248 4.47845 0
M  V30 713 H 70.9607 2.55702 1.51671 0
M  V30 714 H 68.4937 1.38462 0.683201 0
M  V30 715 H 70.4517 1.55089 3.80076 0
M  V30 716 H 69.1127 0.634561 3.07623 0
M  V30 717 H 68.3057 2.70456 4.25288 0
M  V30 718 H 67.9077 2.76346 2.5201 0
M  V30 719 H 70.1997 4.09164 5.39992 0
M  V30 720 H 71.1427 5.38668 4.59612 0
M  V30 721 H 71.5507 3.67286 4.28674 0
M  V30 722 N 70.9488 -0.749086 1.3866 0
M  V30 723 C 72.1968 -1.50535 1.34847 0
M  V30 724 C 72.5178 -1.94909 -0.0595016 0
M  V30 725 O 71.7878 -1.67973 -1.00806 0
M  V30 726 H 70.3678 -0.558395 0.49619 0
M  V30 727 H 73.0298 -0.890165 1.73384 0
M  V30 728 H 72.1258 -2.39413 2.00219 0
M  V30 729 N 72.4269 -1.23603 -0.977757 0
M  V30 730 C 73.3739 -1.01954 -2.07061 0
M  V30 731 C 74.3439 0.0638697 -1.65977 0
M  V30 732 O 75.5289 -0.0887624 -1.90593 0
M  V30 733 C 72.6689 -0.619658 -3.39491 0
M  V30 734 C 71.7819 -1.77547 -3.93829 0
M  V30 735 C 70.9169 -1.32212 -5.14484 0
M  V30 736 C 69.9559 -2.44852 -5.60994 0
M  V30 737 N 69.0929 -2.00456 -6.72876 0
M  V30 738 H 73.9329 -1.95495 -2.24913 0
M  V30 739 H 71.4699 -0.973861 -1.10247 0
M  V30 740 H 73.4279 -0.368898 -4.15566 0
M  V30 741 H 72.0579 0.278752 -3.21594 0
M  V30 742 H 71.1099 -2.14016 -3.14486 0
M  V30 743 H 72.4219 -2.62219 -4.24314 0
M  V30 744 H 71.5759 -1.02965 -5.97899 0
M  V30 745 H 70.3149 -0.445808 -4.85658 0
M  V30 746 H 69.3199 -2.74871 -4.76157 0
M  V30 747 H 70.5449 -3.33024 -5.91837 0
M  V30 748 H 68.4909 -1.15208 -6.45804 0
M  V30 749 H 68.4079 -2.78687 -7.02759 0
M  V30 750 H 69.6759 -1.7432 -7.59758 0
M  V30 751 N 73.905 1.17692 -1.04816 0
M  V30 752 C 75.151 1.88137 -0.75711 0
M  V30 753 C 75.484 1.80604 0.713841 0
M  V30 754 O 74.759 1.21146 1.52164 0
M  V30 755 C 75.042 3.38318 -1.2334 0
M  V30 756 C 74.895 3.54622 -2.76701 0
M  V30 757 C 76.214 4.32214 -0.829415 0
M  V30 758 H 73.333 0.683163 -0.27651 0
M  V30 759 H 75.975 1.38424 -1.30149 0
M  V30 760 H 74.125 3.80787 -0.770286 0
M  V30 761 H 75.797 3.21194 -3.31107 0
M  V30 762 H 74.04 2.97026 -3.16161 0
M  V30 763 H 74.711 4.60028 -3.05088 0
M  V30 764 H 77.187 3.97565 -1.22805 0
M  V30 765 H 76.063 5.35838 -1.19033 0
M  V30 766 H 76.324 4.41294 0.266891 0
M  V30 767 N 75.3831 0.828654 1.34056 0
M  V30 768 C 76.6601 0.341809 1.9259 0
M  V30 769 C 77.0401 -1.17158 1.75605 0
M  V30 770 O 76.3881 -1.98132 1.13824 0
M  V30 771 C 76.5981 0.777453 3.4023 0
M  V30 772 C 77.9461 0.779579 4.17382 0
M  V30 773 O 78.9701 0.7204 3.48839 0
M  V30 774 O 77.8291 0.857996 5.39723 0
M  V30 775 H 74.9231 0.0946085 0.821571 0
M  V30 776 H 77.4691 0.913827 1.42994 0
M  V30 777 H 76.2411 1.8196 3.46419 0
M  V30 778 H 75.8641 0.181444 3.97186 0
M  V30 779 N 76.8612 -1.46375 0.584142 0
M  V30 780 C 78.1072 -2.02678 0.0703716 0
M  V30 781 C 78.4402 -1.4545 -1.28678 0
M  V30 782 O 77.7152 -0.62014 -1.84349 0
M  V30 783 C 77.9982 -3.60099 0.00614674 0
M  V30 784 C 77.8512 -4.27709 1.3923 0
M  V30 785 C 79.1702 -4.34598 -0.693742 0
M  V30 786 H 76.2892 -0.736504 0.027047 0
M  V30 787 H 78.9312 -1.74501 0.751615 0
M  V30 788 H 77.0812 -3.84236 -0.574009 0
M  V30 789 H 78.7532 -4.14832 2.01773 0
M  V30 790 H 76.9962 -3.87016 1.95962 0
M  V30 791 H 77.6672 -5.36478 1.29982 0
M  V30 792 H 80.1432 -4.15615 -0.200869 0
M  V30 793 H 79.0192 -5.44318 -0.707714 0
M  V30 794 H 79.2802 -4.05759 -1.75533 0
M  V30 795 N 78.3393 -0.321999 -1.54275 0
M  V30 796 C 79.5853 0.274234 -2.01543 0
M  V30 797 C 79.9403 1.499 -1.20614 0
M  V30 798 O 79.2333 1.89546 -0.279804 0
M  V30 799 C 79.4273 0.661769 -3.5122 0
M  V30 800 C 79.2563 -0.523892 -4.46638 0
M  V30 801 C 78.0263 -1.02251 -4.94846 0
M  V30 802 C 80.2243 -1.37558 -4.95563 0
M  V30 803 N 78.2063 -2.17274 -5.74165 0
M  V30 804 C 79.5773 -2.37301 -5.7279 0
M  V30 805 C 81.6323 -1.40353 -4.77709 0
M  V30 806 C 80.3353 -3.3964 -6.34064 0
M  V30 807 C 82.3613 -2.41562 -5.39817 0
M  V30 808 C 81.7233 -3.40031 -6.16894 0
M  V30 809 H 77.8223 0.0642367 -0.779357 0
M  V30 810 H 80.4063 -0.456683 -1.89268 0
M  V30 811 H 78.5773 1.36182 -3.63743 0
M  V30 812 H 80.3093 1.23934 -3.85256 0
M  V30 813 H 77.0643 -0.594046 -4.6986 0
M  V30 814 H 77.4883 -2.75289 -6.18502 0
M  V30 815 H 82.1303 -0.655907 -4.17681 0
M  V30 816 H 79.8483 -4.15309 -6.93213 0
M  V30 817 H 83.4343 -2.44524 -5.2792 0
M  V30 818 H 82.3143 -4.17063 -6.64099 0
M  V30 819 N 79.8174 1.5752 -0.0501392 0
M  V30 820 C 80.7644 2.1147 0.924603 0
M  V30 821 C 81.7344 1.02182 1.30951 0
M  V30 822 O 82.9194 1.29723 1.39916 0
M  V30 823 C 80.0594 2.66337 2.19451 0
M  V30 824 C 79.1724 3.89708 1.86418 0
M  V30 825 C 78.3074 4.32893 3.07859 0
M  V30 826 C 77.3464 5.48967 2.70742 0
M  V30 827 N 76.4834 5.87211 3.84874 0
M  V30 828 H 81.3234 2.94465 0.457639 0
M  V30 829 H 78.8604 1.45531 0.214266 0
M  V30 830 H 80.8184 2.96247 2.93758 0
M  V30 831 H 79.4484 1.86141 2.63726 0
M  V30 832 H 78.5004 3.66396 1.02264 0
M  V30 833 H 79.8124 4.74074 1.55096 0
M  V30 834 H 78.9664 4.6435 3.90466 0
M  V30 835 H 77.7054 3.47336 3.42358 0
M  V30 836 H 76.7104 5.17183 1.86551 0
M  V30 837 H 77.9354 6.3624 2.37436 0
M  V30 838 H 75.8814 5.04607 4.19175 0
M  V30 839 H 75.7984 6.66266 3.57247 0
M  V30 840 H 77.0664 6.23282 4.68123 0
M  V30 841 N 81.2955 -0.223234 1.56011 0
M  V30 842 C 82.5415 -0.944891 1.8012 0
M  V30 843 C 82.8965 -1.82039 0.622862 0
M  V30 844 O 82.1895 -1.8773 -0.383143 0
M  V30 845 C 82.3835 -1.81948 3.0762 0
M  V30 846 C 82.2125 -1.03014 4.37742 0
M  V30 847 C 80.9825 -0.72574 5.00061 0
M  V30 848 C 83.1805 -0.396256 5.12771 0
M  V30 849 N 81.1625 0.0851816 6.13841 0
M  V30 850 C 82.5335 0.278137 6.19376 0
M  V30 851 C 84.5885 -0.309117 4.9694 0
M  V30 852 C 83.2915 1.03133 7.11868 0
M  V30 853 C 85.3175 0.430607 5.8983 0
M  V30 854 C 84.6795 1.09355 6.9586 0
M  V30 855 H 80.7785 -0.326081 0.710771 0
M  V30 856 H 83.3625 -0.215914 1.93499 0
M  V30 857 H 81.5335 -2.52029 2.95527 0
M  V30 858 H 83.2655 -2.47848 3.19927 0
M  V30 859 H 80.0205 -1.04335 4.61964 0
M  V30 860 H 80.4445 0.479428 6.753 0
M  V30 861 H 85.0865 -0.807313 4.15021 0
M  V30 862 H 82.8045 1.54105 7.9327 0
M  V30 863 H 86.3905 0.499012 5.79656 0
M  V30 864 H 85.2705 1.65679 7.66499 0
M  V30 865 N 82.7736 -1.49793 -0.48987 0
M  V30 866 C 84.0136 -1.61466 -1.25332 0
M  V30 867 C 84.3776 -0.299688 -1.89647 0
M  V30 868 O 85.5786 -0.291687 -2.67213 0
M  V30 869 C 83.8496 -2.74944 -2.28343 0
M  V30 870 S 85.4086 -3.06637 -3.13878 0
M  V30 871 H 82.2266 -0.569411 -0.425784 0
M  V30 872 H 84.8286 -1.875 -0.553541 0
M  V30 873 H 83.5326 -3.68994 -1.79643 0
M  V30 874 H 83.0636 -2.50938 -3.02975 0
M  V30 875 H 85.0786 -2.49015 -4.29192 0
M  V30 876 N 84.2517 0.741722 -1.39055 0
M  V30 877 C 85.1997 1.87702 -1.3737 0
M  V30 878 C 86.1937 1.67427 -0.257812 0
M  V30 879 O 87.3997 1.7485 -0.427489 0
M  V30 880 H 83.7747 0.617757 -0.428812 0
M  V30 881 H 85.7457 1.86239 -2.33147 0
M  V30 882 C 84.4947 3.25315 -1.22741 0
M  V30 883 H 83.8177 3.41509 -2.07873 0
M  V30 884 H 85.2577 4.04964 -1.25618 0
M  V30 885 C 83.7167 3.36838 0.0647316 0
M  V30 886 O 84.2467 3.88073 1.03741 0
M  V30 887 N 82.4527 2.90329 0.125544 0
M  V30 888 H 81.9997 2.48823 -0.666682 0
M  V30 889 H 81.9577 2.98418 0.989639 0
M  V30 890 N 85.7298 1.2412 0.971189 0
M  V30 891 C 86.6598 1.05508 2.08304 0
M  V30 892 C 87.6408 -0.0308864 1.70072 0
M  V30 893 O 88.8258 0.135521 1.93727 0
M  V30 894 C 85.9558 0.655365 3.4106 0
M  V30 895 C 84.9098 1.68971 3.93234 0
M  V30 896 C 84.2358 1.14516 5.22293 0
M  V30 897 C 85.5358 3.08487 4.21465 0
M  V30 898 H 87.2298 1.98507 2.24132 0
M  V30 899 H 84.7758 0.955821 1.07704 0
M  V30 900 H 86.7288 0.51217 4.18276 0
M  V30 901 H 85.4528 -0.31032 3.25122 0
M  V30 902 H 84.1118 1.82106 3.18171 0
M  V30 903 H 83.7598 0.170189 5.02712 0
M  V30 904 H 83.4598 1.83635 5.58168 0
M  V30 905 H 84.9838 1.01401 6.02121 0
M  V30 906 H 86.3978 2.98601 4.89398 0
M  V30 907 H 84.7948 3.74926 4.68562 0
M  V30 908 H 85.8648 3.56787 3.28376 0
M  V30 909 N 87.2079 -1.17134 1.05439 0
M  V30 910 C 88.4329 -1.91913 0.786396 0
M  V30 911 C 88.8579 -1.7643 -0.652234 0
M  V30 912 O 88.2159 -1.08372 -1.45345 0
M  V30 913 C 88.2639 -3.40921 1.17497 0
M  V30 914 O 87.3679 -4.11244 0.308589 0
M  V30 915 H 86.7089 -0.598215 0.288158 0
M  V30 916 H 89.2389 -1.48457 1.4079 0
M  V30 917 H 89.2489 -3.91668 1.14281 0
M  V30 918 H 87.9239 -3.5151 2.22292 0
M  V30 919 H 86.5009 -3.70731 0.40157 0
M  V30 920 N 88.686 -0.835752 -1.33615 0
M  V30 921 C 89.596 -0.269088 -2.33052 0
M  V30 922 C 90.612 0.603251 -1.63208 0
M  V30 923 O 91.788 0.508112 -1.94885 0
M  V30 924 C 88.853 0.549091 -3.42324 0
M  V30 925 C 87.914 -0.347156 -4.27894 0
M  V30 926 C 87.147 0.43207 -5.31948 0
M  V30 927 O 87.37 1.66409 -5.45586 0
M  V30 928 O 86.304 -0.192298 -6.01593 0
M  V30 929 H 90.13 -1.09243 -2.83372 0
M  V30 930 H 87.715 -0.598198 -1.36901 0
M  V30 931 H 89.597 1.01414 -4.09015 0
M  V30 932 H 88.272 1.34955 -2.94226 0
M  V30 933 H 87.179 -0.859979 -3.64081 0
M  V30 934 H 88.512 -1.1123 -4.79467 0
M  V30 935 N 90.1641 1.46063 -0.591896 0
M  V30 936 C 91.4111 2.02338 -0.0809991 0
M  V30 937 C 91.7391 1.46228 1.28249 0
M  V30 938 O 90.9941 0.620818 1.85592 0
M  V30 939 C 91.2931 3.57391 0.0249813 0
M  V30 940 C 90.9591 4.32583 -1.27211 0
M  V30 941 C 89.6211 4.52844 -1.62745 0
M  V30 942 C 91.9731 4.75687 -2.13005 0
M  V30 943 C 89.3011 5.13462 -2.83855 0
M  V30 944 C 91.6531 5.37644 -3.3335 0
M  V30 945 C 90.3171 5.5613 -3.69155 0
M  V30 946 H 89.5871 0.740407 -0.0296397 0
M  V30 947 H 92.2341 1.75321 -0.770374 0
M  V30 948 H 90.5391 3.83597 0.797537 0
M  V30 949 H 92.2361 3.98621 0.436184 0
M  V30 950 H 88.8261 4.17116 -0.985499 0
M  V30 951 H 93.0101 4.59782 -1.86855 0
M  V30 952 H 88.2661 5.25965 -3.11722 0
M  V30 953 H 92.4401 5.7 -4.00092 0
M  V30 954 H 90.0671 6.0287 -4.63089 0
M  V30 955 N 91.6422 0.330177 1.54103 0
M  V30 956 C 92.8912 -0.271336 1.99867 0
M  V30 957 C 93.2042 -1.52723 1.22209 0
M  V30 958 O 94.4102 -2.20515 1.58383 0
M  V30 959 C 92.8662 -0.534032 3.55916 0
M  V30 960 C 92.4742 0.705193 4.42415 0
M  V30 961 C 94.2182 -1.09514 4.1013 0
M  V30 962 C 92.1252 0.414035 5.89949 0
M  V30 963 H 91.0552 -0.105166 0.74663 0
M  V30 964 H 93.7062 0.443429 1.78062 0
M  V30 965 H 92.0882 -1.30915 3.73734 0
M  V30 966 H 93.2622 1.4804 4.36372 0
M  V30 967 H 91.5772 1.18698 3.99124 0
M  V30 968 H 94.1742 -1.3277 5.17954 0
M  V30 969 H 94.5172 -2.04656 3.62521 0
M  V30 970 H 95.0502 -0.381038 3.95971 0
M  V30 971 H 91.7892 1.33481 6.41766 0
M  V30 972 H 91.3092 -0.323336 5.98928 0
M  V30 973 H 92.9882 0.0263105 6.46995 0
M  V30 974 N 93.1203 -1.57491 0.0584922 0
M  V30 975 C 94.3663 -1.93264 -0.614558 0
M  V30 976 C 94.6993 -0.937717 -1.7006 0
M  V30 977 O 93.9743 0.0351652 -1.94468 0
M  V30 978 C 94.2573 -3.3938 -1.20386 0
M  V30 979 C 94.1103 -4.49625 -0.125375 0
M  V30 980 C 95.4293 -3.86039 -2.11334 0
M  V30 981 H 92.5483 -0.702791 -0.221933 0
M  V30 982 H 95.1903 -1.8961 0.12175 0
M  V30 983 H 93.3403 -3.42626 -1.83139 0
M  V30 984 H 95.0123 -4.58506 0.506971 0
M  V30 985 H 93.2553 -4.30354 0.545672 0
M  V30 986 H 93.9263 -5.48967 -0.577861 0
M  V30 987 H 96.4023 -3.84716 -1.58534 0
M  V30 988 H 95.2783 -4.88914 -2.49507 0
M  V30 989 H 95.5393 -3.23215 -3.01636 0
M  V30 990 N 94.5984 0.214957 -1.56127 0
M  V30 991 C 95.8284 0.953707 -1.8327 0
M  V30 992 C 96.2364 1.78181 -0.636262 0
M  V30 993 O 95.5794 1.79191 0.404516 0
M  V30 994 C 95.6414 1.91516 -3.0424 0
M  V30 995 C 95.3054 1.27094 -4.38972 0
M  V30 996 C 96.3024 0.657575 -5.15725 0
M  V30 997 C 93.9874 1.28073 -4.85698 0
M  V30 998 C 95.9814 0.0625968 -6.37369 0
M  V30 999 C 93.6684 0.681914 -6.07283 0
M  V30 1000 C 94.6664 0.0739046 -6.8296 0
M  V30 1001 O 94.3544 -0.515582 -8.02245 0
M  V30 1002 H 94.0864 0.284764 -0.613095 0
M  V30 1003 H 96.6404 0.233283 -2.04071 0
M  V30 1004 H 94.8704 2.67475 -2.79274 0
M  V30 1005 H 96.5594 2.52001 -3.18198 0
M  V30 1006 H 97.3254 0.642288 -4.80728 0
M  V30 1007 H 93.2044 1.74337 -4.26764 0
M  V30 1008 H 96.7484 -0.412593 -6.96379 0
M  V30 1009 H 92.6454 0.694636 -6.41752 0
M  V30 1010 H 93.4134 -0.410544 -8.1747 0
M  V30 1011 N 96.0765 1.50051 0.48192 0
M  V30 1012 C 97.3065 1.63999 1.2565 0
M  V30 1013 C 97.7145 0.318288 1.86504 0
M  V30 1014 O 97.0575 -0.708534 1.69486 0
M  V30 1015 C 97.1195 2.66504 2.4128 0
M  V30 1016 C 96.7835 4.10352 2.01148 0
M  V30 1017 C 97.7805 4.96562 1.54021 0
M  V30 1018 C 95.4655 4.56203 2.10199 0
M  V30 1019 C 97.4595 6.26668 1.16473 0
M  V30 1020 C 95.1465 5.86318 1.72264 0
M  V30 1021 C 96.1445 6.71375 1.25477 0
M  V30 1022 O 95.8325 7.99062 0.880626 0
M  V30 1023 H 95.5645 0.55456 0.386574 0
M  V30 1024 H 98.1185 1.96954 0.582944 0
M  V30 1025 H 96.3485 2.28769 3.11772 0
M  V30 1026 H 98.0375 2.69783 3.03268 0
M  V30 1027 H 98.8035 4.62358 1.46458 0
M  V30 1028 H 94.6825 3.90152 2.45566 0
M  V30 1029 H 98.2265 6.93011 0.798841 0
M  V30 1030 H 94.1235 6.20046 1.79482 0
M  V30 1031 H 94.8915 8.12239 1.01043 0
M  V30 1032 N 97.5546 -0.734337 1.39446 0
M  V30 1033 C 98.4646 -1.87879 1.40495 0
M  V30 1034 C 99.4806 -1.714 0.299672 0
M  V30 1035 O 100.657 -1.93991 0.541249 0
M  V30 1036 C 97.7216 -3.23477 1.24754 0
M  V30 1037 C 96.7826 -3.52344 2.45259 0
M  V30 1038 C 96.0156 -4.81473 2.30259 0
M  V30 1039 O 96.2386 -5.55237 1.30643 0
M  V30 1040 O 95.1726 -5.10254 3.19256 0
M  V30 1041 H 98.9986 -1.89949 2.36966 0
M  V30 1042 H 96.5836 -0.882243 1.20569 0
M  V30 1043 H 98.4656 -4.04509 1.18111 0
M  V30 1044 H 97.1406 -3.22176 0.313781 0
M  V30 1045 H 96.0476 -2.71396 2.57478 0
M  V30 1046 H 97.3806 -3.58426 3.37331 0
M  V30 1047 N 99.0327 -1.24633 -0.964593 0
M  V30 1048 C 100.258 -1.11596 -1.74818 0
M  V30 1049 C 100.683 0.32723 -1.85232 0
M  V30 1050 O 100.041 1.23695 -1.32549 0
M  V30 1051 C 100.089 -1.76397 -3.1451 0
M  V30 1052 O 99.1927 -1.03685 -3.99153 0
M  V30 1053 H 98.5337 -0.390196 -0.537255 0
M  V30 1054 H 101.064 -1.65002 -1.20977 0
M  V30 1055 H 101.074 -1.8228 -3.65018 0
M  V30 1056 H 99.7487 -2.81401 -3.06246 0
M  V30 1057 H 98.3257 -1.05611 -3.57632 0
M  V30 1058 N 100.511 1.16574 -1.06058 0
M  V30 1059 C 101.758 1.87047 -0.775873 0
M  V30 1060 C 102.086 1.81562 0.697534 0
M  V30 1061 O 101.341 1.22445 1.52662 0
M  V30 1062 C 101.64 3.36195 -1.21275 0
M  V30 1063 C 101.306 3.6188 -2.68986 0
M  V30 1064 C 99.9678 3.68599 -3.09335 0
M  V30 1065 C 102.32 3.72648 -3.64394 0
M  V30 1066 C 99.6478 3.83584 -4.43937 0
M  V30 1067 C 102 3.89154 -4.98741 0
M  V30 1068 C 100.664 3.94114 -5.3873 0
M  V30 1069 H 99.9338 0.684452 -0.283912 0
M  V30 1070 H 102.581 1.37853 -1.32925 0
M  V30 1071 H 100.886 3.87505 -0.578528 0
M  V30 1072 H 102.583 3.89103 -0.969542 0
M  V30 1073 H 99.1728 3.57281 -2.36744 0
M  V30 1074 H 103.357 3.66769 -3.34356 0
M  V30 1075 H 98.6128 3.85677 -4.74409 0
M  V30 1076 H 102.787 3.96427 -5.72554 0
M  V30 1077 H 100.414 4.05478 -6.43033 0
M  V30 1078 N 101.989 0.842826 1.3317 0
M  V30 1079 C 103.217 0.454055 2.01856 0
M  V30 1080 C 103.632 -0.94587 1.63397 0
M  V30 1081 O 102.989 -1.61534 0.849302 0
M  V30 1082 C 103.04 0.569715 3.56982 0
M  V30 1083 O 102.761 1.91448 3.94055 0
M  V30 1084 C 104.262 0.178412 4.42941 0
M  V30 1085 H 101.482 0.17979 0.646465 0
M  V30 1086 H 104.026 1.1365 1.70012 0
M  V30 1087 H 102.181 -0.0648587 3.87346 0
M  V30 1088 H 102.595 1.90282 4.88767 0
M  V30 1089 H 104.069 0.310376 5.51127 0
M  V30 1090 H 104.546 -0.880056 4.30293 0
M  V30 1091 H 105.152 0.787579 4.17944 0
M  V30 1092 N 103.467 -1.45747 0.599634 0
M  V30 1093 C 104.415 -2.322 -0.136426 0
M  V30 1094 C 105.409 -1.45497 -0.867583 0
M  V30 1095 O 106.615 -1.62027 -0.78405 0
M  V30 1096 H 102.99 -0.749368 -0.0628588 0
M  V30 1097 H 104.961 -2.92072 0.611281 0
M  V30 1098 C 103.71 -3.28974 -1.12567 0
M  V30 1099 H 103.033 -3.9568 -0.572484 0
M  V30 1100 H 104.473 -3.92212 -1.61077 0
M  V30 1101 C 102.932 -2.55561 -2.19523 0
M  V30 1102 O 103.462 -2.33111 -3.27143 0
M  V30 1103 N 101.668 -2.15832 -1.94589 0
M  V30 1104 H 101.215 -2.3429 -1.07078 0
M  V30 1105 H 101.173 -1.67034 -2.66359 0
M  V30 1106 N 104.945 -0.338344 -1.53925 0
M  V30 1107 C 106.185 0.260168 -2.02737 0
M  V30 1108 C 106.549 1.48181 -1.22092 0
M  V30 1109 O 107.75 2.15416 -1.60777 0
M  V30 1110 C 106.021 0.571627 -3.52799 0
M  V30 1111 S 107.58 1.14769 -4.23525 0
M  V30 1112 H 104.398 0.077791 -0.706732 0
M  V30 1113 H 107 -0.474899 -1.89644 0
M  V30 1114 H 105.704 -0.325392 -4.09108 0
M  V30 1115 H 105.235 1.3365 -3.70002 0
M  V30 1116 H 107.25 2.43372 -4.32417 0
M  V30 1117 N 106.423 1.57458 -0.0668435 0
M  V30 1118 C 107.651 1.97624 0.612565 0
M  V30 1119 C 108.066 0.94502 1.63447 0
M  V30 1120 O 107.423 -0.0689276 1.8237 0
M  V30 1121 C 107.474 3.37869 1.28555 0
M  V30 1122 O 107.195 4.3704 0.304557 0
M  V30 1123 C 108.696 3.92882 2.05325 0
M  V30 1124 H 105.916 0.650045 0.166381 0
M  V30 1125 H 108.46 2.04035 -0.137782 0
M  V30 1126 H 106.615 3.3256 1.98702 0
M  V30 1127 H 107.029 5.18565 0.786779 0
M  V30 1128 H 108.503 4.93247 2.47812 0
M  V30 1129 H 108.98 3.29156 2.9078 0
M  V30 1130 H 109.586 4.01577 1.40056 0
M  V30 1131 N 107.901 -0.206675 1.56239 0
M  V30 1132 C 108.811 -1.27686 1.96808 0
M  V30 1133 C 109.827 -1.50455 0.874035 0
M  V30 1134 O 111.003 -1.63295 1.17884 0
M  V30 1135 C 108.068 -2.60358 2.28942 0
M  V30 1136 C 107.129 -2.45762 3.51994 0
M  V30 1137 C 106.362 -3.72108 3.82585 0
M  V30 1138 O 106.585 -4.75776 3.14631 0
M  V30 1139 O 105.519 -3.6833 4.76043 0
M  V30 1140 H 109.345 -0.962593 2.88041 0
M  V30 1141 H 106.93 -0.410746 1.43643 0
M  V30 1142 H 108.812 -3.38687 2.50737 0
M  V30 1143 H 107.487 -2.91435 1.4088 0
M  V30 1144 H 106.394 -1.65584 3.35459 0
M  V30 1145 H 107.727 -2.19621 4.40486 0
M  V30 1146 N 109.379 -1.50304 -0.473955 0
M  V30 1147 C 110.312 -1.63595 -1.59097 0
M  V30 1148 C 111.29 -0.484142 -1.55225 0
M  V30 1149 O 112.474 -0.703271 -1.7489 0
M  V30 1150 C 109.601 -1.61589 -2.97669 0
M  V30 1151 C 108.647 -2.82295 -3.19705 0
M  V30 1152 S 109.48 -4.43635 -2.99913 0
M  V30 1153 C 110.636 -4.44317 -4.40832 0
M  V30 1154 H 110.869 -2.58082 -1.47583 0
M  V30 1155 H 108.402 -1.39531 -0.661087 0
M  V30 1156 H 110.36 -1.61116 -3.7756 0
M  V30 1157 H 109.021 -0.683421 -3.06575 0
M  V30 1158 H 108.214 -2.77188 -4.20931 0
M  V30 1159 H 107.816 -2.8032 -2.47582 0
M  V30 1160 H 110.108 -4.17703 -5.33414 0
M  V30 1161 H 111.051 -5.45911 -4.50984 0
M  V30 1162 H 111.459 -3.74059 -4.22777 0
M  V30 1163 N 110.857 0.726932 -1.39834 0
M  V30 1164 C 111.767 1.87131 -1.41489 0
M  V30 1165 C 112.783 1.71239 -0.308757 0
M  V30 1166 O 113.959 1.93701 -0.551529 0
M  V30 1167 C 111.024 3.22811 -1.26468 0
M  V30 1168 C 110.085 3.51039 -2.47124 0
M  V30 1169 C 109.318 4.80245 -2.3281 0
M  V30 1170 O 109.541 5.54537 -1.33585 0
M  V30 1171 O 108.475 5.08554 -3.21957 0
M  V30 1172 H 112.301 1.8869 -2.3797 0
M  V30 1173 H 109.886 0.875837 -1.21035 0
M  V30 1174 H 111.768 4.03877 -1.20255 0
M  V30 1175 H 110.443 3.22005 -0.330862 0
M  V30 1176 H 109.35 2.70027 -2.58914 0
M  V30 1177 H 110.683 3.56632 -3.39227 0
M  V30 1178 N 112.336 1.25143 0.95797 0
M  V30 1179 C 113.299 1.05321 2.03569 0
M  V30 1180 C 114.299 0.007152 1.60798 0
M  V30 1181 O 115.489 0.24903 1.72411 0
M  V30 1182 C 112.621 0.598394 3.35607 0
M  V30 1183 H 113.814 2.00986 2.22586 0
M  V30 1184 H 111.367 1.07502 1.13459 0
M  V30 1185 H 112.102 -0.361014 3.22284 0
M  V30 1186 H 111.887 1.35351 3.67998 0
M  V30 1187 H 113.377 0.48104 4.1482 0
M  V30 1188 N 113.814 -1.1601 1.06675 0
M  V30 1189 C 114.762 -2.22586 0.675157 0
M  V30 1190 C 115.756 -1.66525 -0.310766 0
M  V30 1191 O 116.962 -1.79145 -0.175215 0
M  V30 1192 H 113.337 -0.724855 0.200223 0
M  V30 1193 H 115.308 -2.52899 1.58381 0
M  V30 1194 C 114.057 -3.47604 0.0817162 0
M  V30 1195 H 113.38 -3.91058 0.831484 0
M  V30 1196 H 114.82 -4.23718 -0.154708 0
M  V30 1197 C 113.279 -3.15718 -1.17576 0
M  V30 1198 O 113.809 -3.31878 -2.26318 0
M  V30 1199 N 112.015 -2.69816 -1.07923 0
M  V30 1200 H 111.562 -2.56866 -0.194293 0
M  V30 1201 H 111.52 -2.48855 -1.92141 0
M  V30 1202 N 115.292 -0.849877 -1.32721 0
M  V30 1203 C 116.538 -0.451591 -1.97708 0
M  V30 1204 C 116.871 0.989175 -1.6712 0
M  V30 1205 O 116.146 1.69334 -0.956891 0
M  V30 1206 C 116.429 -0.685598 -3.53513 0
M  V30 1207 C 116.282 -2.17444 -3.93749 0
M  V30 1208 C 117.601 -0.138874 -4.39881 0
M  V30 1209 H 114.72 -0.16555 -0.718166 0
M  V30 1210 H 117.362 -1.06742 -1.57182 0
M  V30 1211 H 115.512 -0.161416 -3.88165 0
M  V30 1212 H 117.184 -2.76433 -3.693 0
M  V30 1213 H 115.427 -2.65476 -3.43081 0
M  V30 1214 H 116.098 -2.28888 -5.02309 0
M  V30 1215 H 118.574 -0.587068 -4.11938 0
M  V30 1216 H 117.45 -0.332213 -5.47894 0
M  V30 1217 H 117.711 0.95806 -4.31594 0
M  V30 1218 N 116.77 1.45427 -0.607355 0
M  V30 1219 C 118.016 2.0254 -0.102607 0
M  V30 1220 C 118.349 1.47478 1.26348 0
M  V30 1221 O 117.624 0.64939 1.83339 0
M  V30 1222 C 117.907 3.60044 -0.0634347 0
M  V30 1223 C 117.76 4.2544 -1.46017 0
M  V30 1224 C 119.079 4.35646 0.624514 0
M  V30 1225 H 116.198 0.73598 -0.0387607 0
M  V30 1226 H 118.84 1.73284 -0.779282 0
M  V30 1227 H 116.99 3.85101 0.512808 0
M  V30 1228 H 118.662 4.11569 -2.08347 0
M  V30 1229 H 116.905 3.83849 -2.02094 0
M  V30 1230 H 117.576 5.34342 -1.385 0
M  V30 1231 H 120.052 4.15882 0.134723 0
M  V30 1232 H 118.928 5.45376 0.621028 0
M  V30 1233 H 119.189 4.08501 1.69055 0
M  V30 1234 N 118.248 0.346503 1.53744 0
M  V30 1235 C 119.496 -0.248612 2.00565 0
M  V30 1236 C 119.817 -1.5083 1.23593 0
M  V30 1237 O 119.087 -1.92858 0.343912 0
M  V30 1238 H 117.667 -0.0948564 0.740953 0
M  V30 1239 H 120.329 0.468341 1.89189 0
M  V30 1240 H 119.425 -0.488994 3.08245 0
M  V30 1241 N 119.726 -1.57421 0.075193 0
M  V30 1242 C 120.966 -1.95495 -0.596757 0
M  V30 1243 C 121.33 -0.954886 -1.66571 0
M  V30 1244 O 122.531 -1.22341 -2.39345 0
M  V30 1245 C 120.802 -3.382 -1.15566 0
M  V30 1246 S 122.361 -3.98254 -1.84226 0
M  V30 1247 H 119.179 -0.683649 -0.195307 0
M  V30 1248 H 121.781 -1.94925 0.149859 0
M  V30 1249 H 120.485 -4.08766 -0.36588 0
M  V30 1250 H 120.016 -3.42321 -1.93856 0
M  V30 1251 H 122.031 -3.85435 -3.12497 0
M  V30 1252 N 121.204 0.198386 -1.56346 0
M  V30 1253 C 122.434 0.934215 -1.84271 0
M  V30 1254 C 122.842 1.77496 -0.655125 0
M  V30 1255 O 122.185 1.7961 0.385488 0
M  V30 1256 C 122.247 1.88278 -3.06254 0
M  V30 1257 C 121.911 1.22431 -4.40295 0
M  V30 1258 C 122.908 0.602839 -5.16393 0
M  V30 1259 C 120.593 1.22915 -4.87029 0
M  V30 1260 C 122.587 -0.0050083 -6.374 0
M  V30 1261 C 120.274 0.617465 -6.07973 0
M  V30 1262 C 121.272 0.00146341 -6.83 0
M  V30 1263 O 120.96 -0.600642 -8.01653 0
M  V30 1264 H 120.692 0.278245 -0.616081 0
M  V30 1265 H 123.246 0.211626 -2.04307 0
M  V30 1266 H 121.476 2.64498 -2.82095 0
M  V30 1267 H 123.165 2.48612 -3.20853 0
M  V30 1268 H 123.931 0.591265 -4.81382 0
M  V30 1269 H 119.81 1.69801 -4.28589 0
M  V30 1270 H 123.354 -0.48643 -6.95902 0
M  V30 1271 H 119.251 0.62653 -6.42452 0
M  V30 1272 H 120.019 -0.497225 -8.16988 0
M  V30 1273 N 122.682 1.50554 0.465978 0
M  V30 1274 C 123.928 1.63006 1.21658 0
M  V30 1275 C 124.283 0.328613 1.89573 0
M  V30 1276 O 123.576 -0.673813 1.79361 0
M  V30 1277 C 123.77 2.75152 2.28093 0
M  V30 1278 C 123.599 4.16075 1.7062 0
M  V30 1279 C 122.369 4.82408 1.50368 0
M  V30 1280 C 124.567 5.00145 1.1983 0
M  V30 1281 N 122.549 6.07532 0.881924 0
M  V30 1282 C 123.92 6.16035 0.700083 0
M  V30 1283 C 125.975 4.85882 1.08733 0
M  V30 1284 C 124.678 7.19228 0.101835 0
M  V30 1285 C 126.704 5.89257 0.503016 0
M  V30 1286 C 126.066 7.04398 0.0152005 0
M  V30 1287 H 122.165 0.650596 0.433877 0
M  V30 1288 H 124.749 1.8769 0.517746 0
M  V30 1289 H 122.92 2.52181 2.95397 0
M  V30 1290 H 124.652 2.76935 2.95109 0
M  V30 1291 H 121.407 4.39788 1.75737 0
M  V30 1292 H 121.831 6.7443 0.589312 0
M  V30 1293 H 126.473 3.97144 1.4504 0
M  V30 1294 H 124.191 8.07637 -0.273426 0
M  V30 1295 H 127.777 5.80286 0.419451 0
M  V30 1296 H 126.657 7.83021 -0.429856 0
M  V30 1297 N 124.16 -0.719506 1.40217 0
M  V30 1298 C 125.571 -1.29848 1.34151 0
M  V30 1299 C 125.922 -1.96196 0.0131349 0
M  V30 1300 O 125.047 -1.973 -0.88892 0
M  V30 1301 C 125.642 -2.36118 2.42968 0
M  V30 1302 C 124.201 -2.8965 2.40374 0
M  V30 1303 C 123.348 -1.63393 2.24049 0
M  V30 1304 H 126.299 -0.51591 1.5008 0
M  V30 1305 H 126.32 -3.16871 2.10649 0
M  V30 1306 H 125.832 -1.878 3.39636 0
M  V30 1307 H 123.933 -3.42208 1.47392 0
M  V30 1308 H 124.046 -3.4171 3.35814 0
M  V30 1309 H 122.41 -1.88312 1.71495 0
M  V30 1310 H 123.193 -1.17104 3.2271 0
M  V30 1311 N 125.638 -1.25649 -0.95132 0
M  V30 1312 C 126.586 -1.06118 -2.06982 0
M  V30 1313 C 127.58 0.00889169 -1.69398 0
M  V30 1314 O 128.786 -0.146988 -1.79399 0
M  V30 1315 H 125.161 -0.326248 -0.677544 0
M  V30 1316 H 127.132 -2.00932 -2.2061 0
M  V30 1317 C 125.881 -0.700145 -3.40578 0
M  V30 1318 H 125.204 -1.51537 -3.69968 0
M  V30 1319 H 126.644 -0.603211 -4.19687 0
M  V30 1320 C 125.103 0.59403 -3.31622 0
M  V30 1321 O 125.633 1.63522 -3.66911 0
M  V30 1322 N 123.839 0.58089 -2.84735 0
M  V30 1323 H 123.386 -0.266783 -2.56215 0
M  V30 1324 H 123.344 1.44695 -2.79125 0
M  V30 1325 N 127.117 1.15442 -1.07289 0
M  V30 1326 C 128.528 1.67803 -0.818475 0
M  V30 1327 C 128.879 1.8489 0.656507 0
M  V30 1328 O 128.004 1.55176 1.50829 0
M  V30 1329 C 128.599 3.04805 -1.47917 0
M  V30 1330 C 127.158 3.54245 -1.27229 0
M  V30 1331 C 126.305 2.29986 -1.54925 0
M  V30 1332 H 129.256 0.996646 -1.23502 0
M  V30 1333 H 129.277 3.69702 -0.90005 0
M  V30 1334 H 128.789 2.92336 -2.55267 0
M  V30 1335 H 126.89 3.71956 -0.21899 0
M  V30 1336 H 127.003 4.35723 -1.99203 0
M  V30 1337 H 125.367 2.35496 -0.970242 0
M  V30 1338 H 126.15 2.20105 -2.63455 0
M  V30 1339 N 128.595 0.856903 1.32268 0
M  V30 1340 C 129.525 0.31858 2.31316 0
M  V30 1341 C 130.506 -0.583487 1.59779 0
M  V30 1342 O 131.691 -0.503259 1.87566 0
M  V30 1343 C 128.821 -0.491979 3.43798 0
M  V30 1344 C 127.775 0.315849 4.26833 0
M  V30 1345 C 127.101 -0.619586 5.31098 0
M  V30 1346 C 128.401 1.54282 4.98993 0
M  V30 1347 H 130.095 1.14621 2.76591 0
M  V30 1348 H 127.641 0.552613 1.32974 0
M  V30 1349 H 129.594 -0.879012 4.1213 0
M  V30 1350 H 128.318 -1.35299 2.97257 0
M  V30 1351 H 126.977 0.684664 3.6015 0
M  V30 1352 H 126.625 -1.47751 4.8081 0
M  V30 1353 H 126.325 -0.0830621 5.87541 0
M  V30 1354 H 127.849 -1.00375 6.02293 0
M  V30 1355 H 129.263 1.22796 5.59995 0
M  V30 1356 H 127.66 2.01745 5.65172 0
M  V30 1357 H 128.73 2.30285 4.26728 0
M  V30 1358 N 130.073 -1.45103 0.615059 0
M  V30 1359 C 131.036 -2.29025 -0.0895485 0
M  V30 1360 C 132.036 -1.40174 -0.787906 0
M  V30 1361 O 133.226 -1.62217 -0.634933 0
M  V30 1362 C 130.358 -3.21376 -1.13711 0
M  V30 1363 H 131.551 -2.92807 0.648382 0
M  V30 1364 H 129.104 -1.51749 0.374444 0
M  V30 1365 H 129.839 -2.6241 -1.90556 0
M  V30 1366 H 129.624 -3.86834 -0.640475 0
M  V30 1367 H 131.114 -3.84459 -1.63036 0
M  V30 1368 N 131.551 -0.354651 -1.53558 0
M  V30 1369 C 132.483 0.5315 -2.22952 0
M  V30 1370 C 133.496 1.05503 -1.23988 0
M  V30 1371 O 134.685 0.963279 -1.50277 0
M  V30 1372 C 131.785 1.74538 -2.90499 0
M  V30 1373 C 130.958 1.35524 -4.15875 0
M  V30 1374 C 130.017 2.42999 -4.66731 0
M  V30 1375 O 129.043 2.05844 -5.30676 0
M  V30 1376 N 130.245 3.74423 -4.43608 0
M  V30 1377 H 133.01 -0.0628615 -2.99634 0
M  V30 1378 H 130.571 -0.179302 -1.60904 0
M  V30 1379 H 132.563 2.45892 -3.21433 0
M  V30 1380 H 131.133 2.24686 -2.17336 0
M  V30 1381 H 130.353 0.471998 -3.91364 0
M  V30 1382 H 131.641 1.07071 -4.97406 0
M  V30 1383 H 131.039 4.07391 -3.92491 0
M  V30 1384 H 129.596 4.41913 -4.7912 0
M  V30 1385 N 133.029 1.57378 -0.0835403 0
M  V30 1386 C 134.277 1.93547 0.581718 0
M  V30 1387 C 134.598 0.96524 1.69435 0
M  V30 1388 O 133.868 0.0153369 1.95894 0
M  V30 1389 H 132.448 0.714521 0.217874 0
M  V30 1390 H 135.11 1.94366 -0.144158 0
M  V30 1391 H 134.206 2.95665 0.999423 0
M  V30 1392 N 134.507 -0.190092 1.56449 0
M  V30 1393 C 135.754 -0.909705 1.80916 0
M  V30 1394 C 136.082 -1.83047 0.657583 0
M  V30 1395 O 135.337 -1.92428 -0.356356 0
M  V30 1396 C 135.636 -1.75382 3.1141 0
M  V30 1397 C 135.302 -0.983606 4.40041 0
M  V30 1398 C 133.964 -0.770967 4.74984 0
M  V30 1399 C 136.316 -0.442024 5.19322 0
M  V30 1400 C 133.644 -0.0053448 5.867 0
M  V30 1401 C 135.996 0.310412 6.31838 0
M  V30 1402 C 134.66 0.534023 6.6536 0
M  V30 1403 H 133.93 -0.332885 0.662019 0
M  V30 1404 H 136.577 -0.175762 1.90692 0
M  V30 1405 H 134.882 -2.55659 2.96893 0
M  V30 1406 H 136.579 -2.31331 3.27547 0
M  V30 1407 H 133.169 -1.15936 4.12622 0
M  V30 1408 H 137.353 -0.593693 4.92736 0
M  V30 1409 H 132.609 0.177825 6.11141 0
M  V30 1410 H 136.783 0.737419 6.92485 0
M  V30 1411 H 134.41 1.12918 7.51767 0
M  V30 1412 N 135.985 -1.50799 -0.457987 0
M  V30 1413 C 137.234 -1.6168 -1.20593 0
M  V30 1414 C 137.547 -0.32888 -1.92815 0
M  V30 1415 O 138.753 -0.316773 -2.69646 0
M  V30 1416 C 137.209 -2.8545 -2.19195 0
M  V30 1417 C 136.817 -4.21168 -1.52715 0
M  V30 1418 C 138.561 -3.05681 -2.94549 0
M  V30 1419 C 136.468 -5.3611 -2.4968 0
M  V30 1420 H 135.398 -0.602134 -0.453818 0
M  V30 1421 H 138.049 -1.77245 -0.475031 0
M  V30 1422 H 136.431 -2.63472 -2.95632 0
M  V30 1423 H 137.605 -4.53449 -0.819775 0
M  V30 1424 H 135.92 -4.06648 -0.895922 0
M  V30 1425 H 138.517 -3.88727 -3.67145 0
M  V30 1426 H 138.86 -2.17929 -3.54701 0
M  V30 1427 H 139.393 -3.27901 -2.25223 0
M  V30 1428 H 136.132 -6.26057 -1.94249 0
M  V30 1429 H 135.652 -5.0823 -3.18532 0
M  V30 1430 H 137.331 -5.6722 -3.11241 0
M  V30 1431 N 137.463 0.71206 -1.40597 0
M  V30 1432 C 138.691 1.50111 -1.42388 0
M  V30 1433 C 139.106 1.88784 -0.0245395 0
M  V30 1434 O 138.463 1.55681 0.952351 0
M  V30 1435 C 138.514 2.7742 -2.31776 0
M  V30 1436 O 138.235 2.40382 -3.66262 0
M  V30 1437 C 139.736 3.7129 -2.42196 0
M  V30 1438 H 136.956 0.46314 -0.485533 0
M  V30 1439 H 139.5 0.878068 -1.8469 0
M  V30 1440 H 137.655 3.36001 -1.92827 0
M  V30 1441 H 138.069 3.22324 -4.13772 0
M  V30 1442 H 139.543 4.57448 -3.08943 0
M  V30 1443 H 140.02 4.14641 -1.44809 0
M  V30 1444 H 140.626 3.18619 -2.81712 0
M  V30 1445 N 138.941 1.26152 0.944643 0
M  V30 1446 C 140.189 1.11271 1.6871 0
M  V30 1447 C 140.51 -0.345166 1.91921 0
M  V30 1448 O 139.78 -1.24387 1.51343 0
M  V30 1449 H 138.36 0.408783 0.625224 0
M  V30 1450 H 141.022 1.58427 1.1352 0
M  V30 1451 H 140.118 1.62879 2.66227 0
M  V30 1452 N 140.419 -1.14872 1.07899 0
M  V30 1453 C 141.668 -1.85135 0.800499 0
M  V30 1454 C 141.981 -1.83547 -0.676014 0
M  V30 1455 O 143.187 -2.49548 -1.06948 0
M  V30 1456 C 141.643 -3.3231 1.38197 0
M  V30 1457 C 141.251 -3.42329 2.8899 0
M  V30 1458 C 142.995 -4.0772 1.18174 0
M  V30 1459 C 140.902 -4.83684 3.403 0
M  V30 1460 H 139.832 -0.693563 0.29578 0
M  V30 1461 H 142.483 -1.29532 1.29976 0
M  V30 1462 H 140.865 -3.87618 0.810431 0
M  V30 1463 H 142.039 -2.97097 3.52236 0
M  V30 1464 H 140.354 -2.80369 3.07867 0
M  V30 1465 H 142.951 -5.12049 1.5398 0
M  V30 1466 H 143.294 -4.16124 0.12117 0
M  V30 1467 H 143.827 -3.58696 1.71994 0
M  V30 1468 H 140.566 -4.80465 4.45907 0
M  V30 1469 H 140.086 -5.29474 2.81811 0
M  V30 1470 H 141.765 -5.52558 3.36584 0
M  V30 1471 N 141.898 -0.863906 -1.31812 0
M  V30 1472 C 142.848 -0.286898 -2.26188 0
M  V30 1473 C 143.832 0.572577 -1.50367 0
M  V30 1474 O 145.024 0.420447 -1.71934 0
M  V30 1475 C 142.153 0.515849 -3.39402 0
M  V30 1476 C 141.239 -0.356531 -4.22599 0
M  V30 1477 N 141.63 -1.44716 -4.84656 0
M  V30 1478 C 139.928 -0.147898 -4.45755 0
M  V30 1479 C 140.629 -1.98462 -5.46798 0
M  V30 1480 N 139.605 -1.28247 -5.28255 0
M  V30 1481 H 143.407 -1.12055 -2.717 0
M  V30 1482 H 140.921 -0.711012 -1.46008 0
M  V30 1483 H 142.918 0.945701 -4.06032 0
M  V30 1484 H 141.578 1.34718 -2.95434 0
M  V30 1485 H 142.589 -1.83008 -4.84488 0
M  V30 1486 H 139.266 0.647973 -4.12441 0
M  V30 1487 H 140.656 -2.89932 -6.06126 0
M  V30 1488 N 143.376 1.44774 -0.622745 0
M  V30 1489 C 144.792 1.56986 -0.287652 0
M  V30 1490 C 144.992 1.61167 1.20944 0
M  V30 1491 O 144.048 1.55015 1.99315 0
M  V30 1492 C 145.361 2.84551 -0.972188 0
M  V30 1493 C 146.909 2.9825 -0.949536 0
M  V30 1494 C 147.384 4.28605 -1.61437 0
M  V30 1495 N 148.875 4.35399 -1.58057 0
M  V30 1496 C 149.61 5.34964 -2.064 0
M  V30 1497 N 149.106 6.40981 -2.62897 0
M  V30 1498 N 150.899 5.26419 -1.97078 0
M  V30 1499 H 143.05 1.40304 -1.59463 0
M  V30 1500 H 145.313 0.671794 -0.668878 0
M  V30 1501 H 145.019 2.87417 -2.02693 0
M  V30 1502 H 144.893 3.73807 -0.504771 0
M  V30 1503 H 147.28 2.94941 0.0967067 0
M  V30 1504 H 147.361 2.10364 -1.45536 0
M  V30 1505 H 147.005 4.32672 -2.66002 0
M  V30 1506 H 146.935 5.15334 -1.08344 0
M  V30 1507 H 149.426 3.59397 -1.16801 0
M  V30 1508 H 149.739 7.13225 -2.97539 0
M  V30 1509 H 148.084 6.4169 -2.66943 0
M  V30 1510 H 151.275 4.42504 -1.52669 0
M  V30 1511 H 151.448 6.03861 -2.35066 0
M  V30 1512 N 144.854 0.36279 1.53368 0
M  V30 1513 C 145.786 -0.519668 2.23231 0
M  V30 1514 C 146.799 -1.04844 1.24546 0
M  V30 1515 O 147.988 -0.955296 1.50786 0
M  V30 1516 C 145.088 -1.72995 2.9142 0
M  V30 1517 C 144.261 -1.33316 4.16588 0
M  V30 1518 C 143.32 -2.40521 4.68013 0
M  V30 1519 O 142.346 -2.03027 5.3176 0
M  V30 1520 N 143.548 -3.72065 4.45587 0
M  V30 1521 H 146.313 0.078751 2.99597 0
M  V30 1522 H 143.874 0.187833 1.60807 0
M  V30 1523 H 145.866 -2.44184 3.22733 0
M  V30 1524 H 144.436 -2.2353 2.18525 0
M  V30 1525 H 143.656 -0.451236 3.91609 0
M  V30 1526 H 144.944 -1.04432 4.97967 0
M  V30 1527 H 144.342 -4.05304 3.94646 0
M  V30 1528 H 142.899 -4.39366 4.81457 0
M  V30 1529 N 146.332 -1.57332 0.0918853 0
M  V30 1530 C 147.579 -1.94236 -0.572577 0
M  V30 1531 C 147.907 -0.973398 -1.6839 0
M  V30 1532 O 147.162 0.00756912 -1.95699 0
M  V30 1533 C 147.461 -3.37689 -1.17051 0
M  V30 1534 C 147.127 -4.50527 -0.183304 0
M  V30 1535 C 145.789 -4.81119 0.0882276 0
M  V30 1536 C 148.141 -5.18883 0.49095 0
M  V30 1537 C 145.469 -5.77395 1.04076 0
M  V30 1538 C 147.821 -6.1618 1.43193 0
M  V30 1539 C 146.485 -6.45179 1.71173 0
M  V30 1540 H 145.755 -0.710762 -0.209521 0
M  V30 1541 H 148.402 -1.9077 0.167036 0
M  V30 1542 H 146.707 -3.37718 -1.9863 0
M  V30 1543 H 148.404 -3.63543 -1.69227 0
M  V30 1544 H 144.994 -4.26681 -0.405124 0
M  V30 1545 H 149.178 -4.95427 0.294312 0
M  V30 1546 H 144.434 -5.98179 1.26457 0
M  V30 1547 H 148.608 -6.68243 1.96023 0
M  V30 1548 H 146.235 -7.1959 2.4514 0
M  V30 1549 N 147.81 0.181792 -1.56548 0
M  V30 1550 C 149.057 0.900097 -1.81396 0
M  V30 1551 C 149.385 1.82695 -0.667281 0
M  V30 1552 O 148.64 1.92614 0.346146 0
M  V30 1553 C 148.939 1.73728 -3.12335 0
M  V30 1554 C 148.605 0.960255 -4.40556 0
M  V30 1555 C 147.267 0.745766 -4.75386 0
M  V30 1556 C 149.619 0.414477 -5.19549 0
M  V30 1557 C 146.947 -0.0257694 -5.86694 0
M  V30 1558 C 149.299 -0.343916 -6.31664 0
M  V30 1559 C 147.963 -0.569301 -6.65068 0
M  V30 1560 H 147.233 0.329369 -0.663775 0
M  V30 1561 H 149.88 0.165647 -1.90782 0
M  V30 1562 H 148.185 2.54081 -2.98245 0
M  V30 1563 H 149.882 2.29591 -3.28769 0
M  V30 1564 H 146.472 1.13746 -4.13231 0
M  V30 1565 H 150.656 0.567554 -4.93044 0
M  V30 1566 H 145.912 -0.210233 -6.11038 0
M  V30 1567 H 150.086 -0.774133 -6.92084 0
M  V30 1568 H 147.713 -1.16903 -7.51158 0
M  V30 1569 N 149.288 1.51039 0.449983 0
M  V30 1570 C 150.513 1.6715 1.22783 0
M  V30 1571 C 150.938 0.363081 1.84563 0
M  V30 1572 O 150.296 -0.675433 1.68249 0
M  V30 1573 C 150.344 2.77985 2.29689 0
M  V30 1574 O 149.448 2.40707 3.34864 0
M  V30 1575 H 148.789 0.557746 0.360299 0
M  V30 1576 H 151.319 1.97535 0.533005 0
M  V30 1577 H 151.329 3.01693 2.74673 0
M  V30 1578 H 150.004 3.72935 1.84098 0
M  V30 1579 H 148.581 2.27523 2.95445 0
M  V30 1580 N 150.766 -0.704594 1.40972 0
M  V30 1581 C 151.714 -1.83994 1.42299 0
M  V30 1582 C 152.708 -1.66684 0.302111 0
M  V30 1583 O 153.914 -1.73655 0.473697 0
M  V30 1584 H 150.289 -0.606171 0.44504 0
M  V30 1585 H 152.26 -1.79992 2.38003 0
M  V30 1586 C 151.009 -3.21946 1.31323 0
M  V30 1587 H 150.332 -3.35878 2.16855 0
M  V30 1588 H 151.772 -4.01491 1.36311 0
M  V30 1589 C 150.231 -3.36891 0.0245977 0
M  V30 1590 O 150.761 -3.90687 -0.934153 0
M  V30 1591 N 148.967 -2.90559 -0.0485243 0
M  V30 1592 H 148.514 -2.46968 0.732419 0
M  V30 1593 H 148.472 -3.00937 -0.910171 0
M  V30 1594 N 152.244 -1.26651 -0.937939 0
M  V30 1595 C 153.484 -1.13611 -1.69917 0
M  V30 1596 C 153.848 0.314687 -1.89404 0
M  V30 1597 O 155.049 0.567285 -2.62746 0
M  V30 1598 C 153.32 -1.88742 -3.03498 0
M  V30 1599 S 154.879 -1.91794 -3.94665 0
M  V30 1600 H 151.697 -0.405767 -0.583844 0
M  V30 1601 H 154.299 -1.60416 -1.11745 0
M  V30 1602 H 153.003 -2.9336 -2.86999 0
M  V30 1603 H 152.534 -1.42391 -3.66727 0
M  V30 1604 H 154.549 -1.00698 -4.85875 0
M  V30 1605 N 153.722 1.14298 -1.08507 0
M  V30 1606 C 154.95 1.89219 -0.836876 0
M  V30 1607 C 155.365 1.78638 0.611054 0
M  V30 1608 O 154.722 1.14643 1.41998 0
M  V30 1609 C 154.773 3.39158 -1.25116 0
M  V30 1610 O 154.494 3.49449 -2.64229 0
M  V30 1611 C 155.995 4.31073 -1.03398 0
M  V30 1612 H 153.215 0.599328 -0.301739 0
M  V30 1613 H 155.759 1.44746 -1.44461 0
M  V30 1614 H 153.914 3.81251 -0.687514 0
M  V30 1615 H 154.328 4.42589 -2.81452 0
M  V30 1616 H 155.802 5.34646 -1.37323 0
M  V30 1617 H 156.279 4.3919 0.0289259 0
M  V30 1618 H 156.885 3.94738 -1.58311 0
M  V30 1619 N 155.201 0.870884 1.31352 0
M  V30 1620 C 156.447 0.482987 1.96965 0
M  V30 1621 C 156.78 -0.962462 1.68672 0
M  V30 1622 O 156.055 -1.6779 0.98371 0
M  V30 1623 C 156.338 0.741752 3.52378 0
M  V30 1624 C 156.191 2.2368 3.9024 0
M  V30 1625 C 157.51 0.208838 4.39604 0
M  V30 1626 H 154.629 0.176955 0.715441 0
M  V30 1627 H 157.271 1.09229 1.55464 0
M  V30 1628 H 155.421 0.223149 3.87859 0
M  V30 1629 H 157.093 2.82273 3.64856 0
M  V30 1630 H 155.336 2.70901 3.38814 0
M  V30 1631 H 156.007 2.3685 4.98604 0
M  V30 1632 H 158.483 0.652529 4.10952 0
M  V30 1633 H 157.359 0.419336 5.47296 0
M  V30 1634 H 157.62 -0.889275 4.33064 0
M  V30 1635 N 156.679 -1.44442 0.630414 0
M  V30 1636 C 157.956 -1.9549 0.0655657 0
M  V30 1637 C 158.336 -1.5724 -1.40851 0
M  V30 1638 O 157.684 -0.846116 -2.12257 0
M  V30 1639 C 157.894 -3.47812 0.287691 0
M  V30 1640 C 159.242 -4.24216 0.180513 0
M  V30 1641 O 160.266 -3.55526 0.219019 0
M  V30 1642 O 159.125 -5.46434 0.0848493 0
M  V30 1643 H 156.219 -0.826688 -0.0227177 0
M  V30 1644 H 158.765 -1.54496 0.702068 0
M  V30 1645 H 157.537 -3.687 1.31056 0
M  V30 1646 H 157.16 -3.95751 -0.382984 0
M  V30 1647 N 158.157 -0.370918 -1.53173 0
M  V30 1648 C 159.573 -0.0200818 -1.59587 0
M  V30 1649 C 159.773 1.46279 -1.38581 0
M  V30 1650 O 158.829 2.22506 -1.19363 0
M  V30 1651 C 160.142 -0.4808 -2.96831 0
M  V30 1652 C 161.69 -0.435477 -3.09956 0
M  V30 1653 C 162.165 -0.872092 -4.4962 0
M  V30 1654 N 163.656 -0.827364 -4.55751 0
M  V30 1655 C 164.391 -1.13683 -5.62018 0
M  V30 1656 N 163.887 -1.51584 -6.76014 0
M  V30 1657 N 165.68 -1.05927 -5.52029 0
M  V30 1658 H 157.831 -1.33652 -1.65079 0
M  V30 1659 H 160.094 -0.546634 -0.774529 0
M  V30 1660 H 159.8 -1.51577 -3.1736 0
M  V30 1661 H 159.674 0.129796 -3.76977 0
M  V30 1662 H 162.061 0.590371 -2.89134 0
M  V30 1663 H 162.142 -1.08164 -2.31806 0
M  V30 1664 H 161.786 -1.89608 -4.71181 0
M  V30 1665 H 161.716 -0.203127 -5.26208 0
M  V30 1666 H 164.207 -0.548216 -3.73902 0
M  V30 1667 H 164.52 -1.73609 -7.53047 0
M  V30 1668 H 162.865 -1.55454 -6.77391 0
M  V30 1669 H 166.056 -0.762321 -4.61851 0
M  V30 1670 H 166.229 -1.30378 -6.34749 0
M  V30 1671 N 159.635 1.57281 -0.100228 0
M  V30 1672 C 160.881 1.94826 0.563101 0
M  V30 1673 C 161.214 0.982475 1.67514 0
M  V30 1674 O 160.489 0.0164069 1.94493 0
M  V30 1675 C 160.772 3.42453 1.11346 0
M  V30 1676 C 160.625 4.498 0.00612081 0
M  V30 1677 C 161.944 3.91506 2.01024 0
M  V30 1678 H 159.063 0.708428 0.203221 0
M  V30 1679 H 161.705 1.8922 -0.171979 0
M  V30 1680 H 159.855 3.47361 1.7399 0
M  V30 1681 H 161.527 4.57 -0.628357 0
M  V30 1682 H 159.77 4.28756 -0.659581 0
M  V30 1683 H 160.441 5.50306 0.432109 0
M  V30 1684 H 162.917 3.88784 1.48278 0
M  V30 1685 H 161.793 4.95358 2.36457 0
M  V30 1686 H 162.054 3.31099 2.92961 0
M  V30 1687 N 161.113 -0.173488 1.56642 0
M  V30 1688 C 162.063 -1.21941 1.92651 0
M  V30 1689 C 163.047 -1.39912 0.794577 0
M  V30 1690 O 164.239 -1.41919 1.05773 0
M  V30 1691 C 161.368 -2.55935 2.28806 0
M  V30 1692 C 160.454 -2.41667 3.48508 0
M  V30 1693 N 160.845 -1.9711 4.65813 0
M  V30 1694 C 159.143 -2.72499 3.53072 0
M  V30 1695 C 159.844 -1.95253 5.47952 0
M  V30 1696 N 158.82 -2.37575 4.88937 0
M  V30 1697 H 162.622 -0.866581 2.80834 0
M  V30 1698 H 160.136 -0.381776 1.57849 0
M  V30 1699 H 162.133 -3.31511 2.52797 0
M  V30 1700 H 160.793 -2.92022 1.41961 0
M  V30 1701 H 161.804 -1.67481 4.90072 0
M  V30 1702 H 158.481 -3.12639 2.767 0
M  V30 1703 H 159.871 -1.6252 6.51948 0
M  V30 1704 N 162.591 -1.51276 -0.441967 0
M  V30 1705 C 163.521 -1.752 -1.54361 0
M  V30 1706 C 164.502 -0.601682 -1.59103 0
M  V30 1707 O 165.687 -0.843913 -1.74905 0
M  V30 1708 C 162.817 -1.87282 -2.92477 0
M  V30 1709 C 161.771 -3.02687 -3.02596 0
M  V30 1710 C 161.097 -2.99947 -4.42647 0
M  V30 1711 C 162.397 -4.4273 -2.77106 0
M  V30 1712 H 164.091 -2.67442 -1.34592 0
M  V30 1713 H 161.637 -1.28694 -0.646048 0
M  V30 1714 H 163.59 -2.02602 -3.695 0
M  V30 1715 H 162.314 -0.916844 -3.13467 0
M  V30 1716 H 160.973 -2.87065 -2.28012 0
M  V30 1717 H 160.621 -2.02136 -4.60597 0
M  V30 1718 H 160.321 -3.77439 -4.50348 0
M  V30 1719 H 161.845 -3.17354 -5.2165 0
M  V30 1720 H 163.259 -4.58727 -3.43864 0
M  V30 1721 H 161.656 -5.21893 -2.96222 0
M  V30 1722 H 162.726 -4.53087 -1.72744 0
M  V30 1723 N 164.069 0.697108 -1.41344 0
M  V30 1724 C 164.979 1.84088 -1.45427 0
M  V30 1725 C 165.995 1.70545 -0.34501 0
M  V30 1726 O 167.171 1.92488 -0.592492 0
M  V30 1727 C 164.236 3.20056 -1.33286 0
M  V30 1728 C 163.297 3.45718 -2.54514 0
M  V30 1729 C 162.53 4.75199 -2.42944 0
M  V30 1730 O 162.753 5.51579 -1.45318 0
M  V30 1731 O 161.687 5.0161 -3.32672 0
M  V30 1732 H 165.513 1.836 -2.41919 0
M  V30 1733 H 163.098 0.849966 -1.22866 0
M  V30 1734 H 164.98 4.01236 -1.28794 0
M  V30 1735 H 163.655 3.2123 -0.39909 0
M  V30 1736 H 162.562 2.64474 -2.64583 0
M  V30 1737 H 163.895 3.49356 -3.46715 0
M  V30 1738 N 165.547 1.27147 0.931209 0
M  V30 1739 C 166.824 1.0401 1.65654 0
M  V30 1740 C 167.204 -0.426297 2.06751 0
M  V30 1741 O 166.552 -1.40879 1.79904 0
M  V30 1742 C 166.762 1.99834 2.86125 0
M  V30 1743 C 168.11 2.29007 3.57549 0
M  V30 1744 O 169.134 1.97779 2.96246 0
M  V30 1745 O 167.993 2.82222 4.67989 0
M  V30 1746 H 165.087 0.396239 0.725895 0
M  V30 1747 H 167.633 1.38397 0.982056 0
M  V30 1748 H 166.405 2.98744 2.52721 0
M  V30 1749 H 166.028 1.65987 3.61295 0
M  V30 1750 N 167.025 -1.13721 1.09112 0
M  V30 1751 C 168.436 -1.6648 0.845068 0
M  V30 1752 C 168.787 -1.85911 -0.62701 0
M  V30 1753 O 167.912 -1.57556 -1.48341 0
M  V30 1754 C 168.507 -3.02413 1.52748 0
M  V30 1755 C 167.066 -3.52176 1.32849 0
M  V30 1756 C 166.213 -2.27492 1.58564 0
M  V30 1757 H 169.164 -0.976872 1.25072 0
M  V30 1758 H 169.185 -3.68223 0.958752 0
M  V30 1759 H 168.697 -2.88238 2.59885 0
M  V30 1760 H 166.798 -3.7156 0.278137 0
M  V30 1761 H 166.911 -4.32499 2.0611 0
M  V30 1762 H 165.275 -2.33923 1.00758 0
M  V30 1763 H 166.058 -2.15886 2.66924 0
M  V30 1764 N 168.503 -0.877838 -1.30888 0
M  V30 1765 C 169.914 -0.544193 -1.78593 0
M  V30 1766 C 170.265 0.939301 -1.72254 0
M  V30 1767 O 169.39 1.7337 -1.29505 0
M  V30 1768 C 169.985 -0.98105 -3.24285 0
M  V30 1769 C 168.544 -0.698935 -3.69854 0
M  V30 1770 C 167.691 -1.168 -2.51502 0
M  V30 1771 H 170.642 -1.06278 -1.17859 0
M  V30 1772 H 170.663 -0.307009 -3.79259 0
M  V30 1773 H 170.175 -2.06079 -3.28866 0
M  V30 1774 H 168.276 0.369112 -3.70767 0
M  V30 1775 H 168.389 -1.28148 -4.61644 0
M  V30 1776 H 166.753 -0.587535 -2.47831 0
M  V30 1777 H 167.536 -2.25533 -2.58824 0
M  V30 1778 N 169.982 1.44106 -0.638065 0
M  V30 1779 C 171.259 1.95453 -0.0759321 0
M  V30 1780 C 171.639 1.57984 1.40015 0
M  V30 1781 O 170.987 0.857361 2.11806 0
M  V30 1782 C 171.197 3.47655 -0.306132 0
M  V30 1783 C 172.545 4.24114 -0.203008 0
M  V30 1784 O 173.569 3.55405 -0.237871 0
M  V30 1785 O 172.428 5.46381 -0.113827 0
M  V30 1786 H 169.522 0.826797 0.0183332 0
M  V30 1787 H 172.068 1.54122 -0.710251 0
M  V30 1788 H 170.84 3.68 -1.3301 0
M  V30 1789 H 170.463 3.95949 0.361991 0
M  V30 1790 N 171.46 0.379036 1.52974 0
M  V30 1791 C 172.37 -0.468639 2.29872 0
M  V30 1792 C 173.386 -1.08067 1.36373 0
M  V30 1793 O 174.562 -1.08871 1.69438 0
M  V30 1794 C 171.627 -1.58594 3.083 0
M  V30 1795 C 170.688 -1.00007 4.17489 0
M  V30 1796 C 169.921 -2.06413 4.92168 0
M  V30 1797 O 170.144 -3.27751 4.66835 0
M  V30 1798 O 169.078 -1.68717 5.7777 0
M  V30 1799 H 172.904 0.157508 3.03291 0
M  V30 1800 H 170.489 0.143035 1.48714 0
M  V30 1801 H 172.371 -2.23525 3.57232 0
M  V30 1802 H 171.046 -2.19724 2.37703 0
M  V30 1803 H 169.953 -0.314299 3.72777 0
M  V30 1804 H 171.286 -0.433135 4.90291 0
M  V30 1805 N 172.938 -1.57226 0.108567 0
M  V30 1806 C 174.184 -1.95121 -0.552761 0
M  V30 1807 C 174.517 -0.991345 -1.66991 0
M  V30 1808 O 173.792 -0.0267211 -1.94482 0
M  V30 1809 C 174.075 -3.43039 -1.09528 0
M  V30 1810 C 173.928 -4.49797 0.0177332 0
M  V30 1811 C 175.247 -3.92567 -1.98945 0
M  V30 1812 H 172.366 -0.709496 -0.199461 0
M  V30 1813 H 175.008 -1.89126 0.182011 0
M  V30 1814 H 173.158 -3.48279 -1.72146 0
M  V30 1815 H 174.83 -4.56661 0.652584 0
M  V30 1816 H 173.073 -4.284 0.682309 0
M  V30 1817 H 173.744 -5.50528 -0.402919 0
M  V30 1818 H 176.22 -3.89565 -1.46214 0
M  V30 1819 H 175.096 -4.96605 -2.33827 0
M  V30 1820 H 175.357 -3.32648 -2.91201 0
M  V30 1821 N 174.416 0.165178 -1.56732 0
M  V30 1822 C 175.346 1.20651 -1.99914 0
M  V30 1823 C 176.327 1.45827 -0.875705 0
M  V30 1824 O 177.512 1.57057 -1.14223 0
M  V30 1825 C 174.642 2.54401 -2.36427 0
M  V30 1826 C 173.596 2.43782 -3.51787 0
M  V30 1827 C 172.922 3.82078 -3.7406 0
M  V30 1828 C 174.222 1.93732 -4.85041 0
M  V30 1829 H 175.916 0.847534 -2.87154 0
M  V30 1830 H 173.462 0.40625 -1.38151 0
M  V30 1831 H 175.415 3.27458 -2.65234 0
M  V30 1832 H 174.139 2.92098 -1.46103 0
M  V30 1833 H 172.798 1.73178 -3.23117 0
M  V30 1834 H 172.446 4.17179 -2.81017 0
M  V30 1835 H 172.146 3.7584 -4.51684 0
M  V30 1836 H 173.67 4.56712 -4.05274 0
M  V30 1837 H 175.084 2.56569 -5.12684 0
M  V30 1838 H 173.481 1.98428 -5.66345 0
M  V30 1839 H 174.551 0.891962 -4.76626 0
M  V30 1840 N 175.894 1.51508 0.433938 0
M  V30 1841 C 177.143 1.63578 1.18005 0
M  V30 1842 C 177.456 0.359514 1.92268 0
M  V30 1843 O 178.662 0.359632 2.69108 0
M  V30 1844 C 177.118 2.88901 2.14626 0
M  V30 1845 C 176.726 4.23544 1.45995 0
M  V30 1846 C 178.47 3.10328 2.89649 0
M  V30 1847 C 176.377 5.40014 2.4112 0
M  V30 1848 H 175.307 0.609277 0.444182 0
M  V30 1849 H 177.958 1.77978 0.446773 0
M  V30 1850 H 176.34 2.68142 2.91403 0
M  V30 1851 H 177.514 4.54696 0.747532 0
M  V30 1852 H 175.829 4.08021 0.831115 0
M  V30 1853 H 178.426 3.94518 3.60915 0
M  V30 1854 H 178.769 2.23544 3.51189 0
M  V30 1855 H 179.302 3.31443 2.19978 0
M  V30 1856 H 176.041 6.29068 1.84264 0
M  V30 1857 H 175.561 5.13233 3.10406 0
M  V30 1858 H 177.24 5.72099 3.02177 0
M  V30 1859 N 177.372 -0.689602 1.41712 0
M  V30 1860 C 178.783 -1.26973 1.36875 0
M  V30 1861 C 179.134 -1.96124 0.054748 0
M  V30 1862 O 178.259 -1.99141 -0.84687 0
M  V30 1863 C 178.854 -2.30912 2.47922 0
M  V30 1864 C 177.413 -2.84486 2.46464 0
M  V30 1865 C 176.56 -1.58603 2.27465 0
M  V30 1866 H 179.511 -0.48396 1.51141 0
M  V30 1867 H 179.532 -3.12331 2.17323 0
M  V30 1868 H 179.044 -1.80554 3.43543 0
M  V30 1869 H 177.145 -3.39005 1.54617 0
M  V30 1870 H 177.258 -3.34511 3.42986 0
M  V30 1871 H 175.622 -1.84632 1.75451 0
M  V30 1872 H 176.405 -1.10233 3.25121 0
M  V30 1873 N 178.85 -1.27639 -0.924453 0
M  V30 1874 C 179.78 -1.13166 -2.04244 0
M  V30 1875 C 180.761 -0.032256 -1.70069 0
M  V30 1876 O 181.946 -0.207328 -1.9309 0
M  V30 1877 C 179.076 -0.781496 -3.38393 0
M  V30 1878 C 178.03 -1.83449 -3.86692 0
M  V30 1879 C 177.356 -1.33822 -5.17683 0
M  V30 1880 C 178.656 -3.23917 -4.09726 0
M  V30 1881 H 180.35 -2.06689 -2.1661 0
M  V30 1882 H 177.896 -0.995136 -1.04082 0
M  V30 1883 H 179.849 -0.667057 -4.16087 0
M  V30 1884 H 178.573 0.189439 -3.2605 0
M  V30 1885 H 177.232 -1.93789 -3.11193 0
M  V30 1886 H 176.88 -0.35665 -5.01734 0
M  V30 1887 H 176.58 -2.04224 -5.50968 0
M  V30 1888 H 178.104 -1.23679 -5.97943 0
M  V30 1889 H 179.518 -3.16559 -4.77978 0
M  V30 1890 H 177.915 -3.92059 -4.54324 0
M  V30 1891 H 178.985 -3.68729 -3.14908 0
M  V30 1892 N 180.328 1.1314 -1.09713 0
M  V30 1893 C 181.577 1.83838 -0.829851 0
M  V30 1894 C 181.89 1.84599 0.646728 0
M  V30 1895 O 183.096 2.51218 1.02965 0
M  V30 1896 C 181.552 3.30069 -1.43466 0
M  V30 1897 C 181.16 3.37688 -2.94399 0
M  V30 1898 C 182.904 4.05788 -1.24645 0
M  V30 1899 C 180.811 4.78209 -3.47952 0
M  V30 1900 H 179.741 0.68877 -0.306777 0
M  V30 1901 H 182.392 1.27448 -1.3202 0
M  V30 1902 H 180.774 3.8628 -0.871996 0
M  V30 1903 H 181.948 2.91456 -3.56918 0
M  V30 1904 H 180.263 2.75436 -3.12289 0
M  V30 1905 H 182.86 5.09535 -1.62107 0
M  V30 1906 H 183.203 4.15878 -0.187357 0
M  V30 1907 H 183.736 3.55915 -1.77678 0
M  V30 1908 H 180.475 4.73311 -4.53495 0
M  V30 1909 H 179.995 5.24924 -2.90198 0
M  V30 1910 H 181.674 5.47133 -3.45332 0
M  V30 1911 N 181.806 0.884767 1.30421 0
M  V30 1912 C 183.052 0.503851 1.96441 0
M  V30 1913 C 183.385 -0.944518 1.69684 0
M  V30 1914 O 182.66 -1.66737 1.00145 0
M  V30 1915 C 182.943 0.779085 3.51571 0
M  V30 1916 C 182.796 2.27807 3.87846 0
M  V30 1917 C 184.115 0.255452 4.39358 0
M  V30 1918 H 181.234 0.184533 0.713524 0
M  V30 1919 H 183.876 1.10872 1.54297 0
M  V30 1920 H 182.026 0.264274 3.876 0
M  V30 1921 H 183.698 2.86127 3.61841 0
M  V30 1922 H 181.941 2.74479 3.35922 0
M  V30 1923 H 182.612 2.42125 4.96064 0
M  V30 1924 H 185.088 0.696079 4.10236 0
M  V30 1925 H 183.964 0.477361 5.4682 0
M  V30 1926 H 184.225 -0.843293 4.33983 0
M  V30 1927 N 183.284 -1.43765 0.645699 0
M  V30 1928 C 184.533 -2.01116 0.153412 0
M  V30 1929 C 184.846 -1.51493 -1.23731 0
M  V30 1930 O 186.052 -2.01067 -1.8244 0
M  V30 1931 C 184.508 -3.59206 0.223473 0
M  V30 1932 C 184.116 -4.17823 1.61642 0
M  V30 1933 C 185.86 -4.23972 -0.211597 0
M  V30 1934 C 183.767 -5.68183 1.64081 0
M  V30 1935 H 182.697 -0.752093 0.0535891 0
M  V30 1936 H 185.348 -1.6482 0.806633 0
M  V30 1937 H 183.73 -3.92867 -0.497118 0
M  V30 1938 H 184.904 -3.95674 2.36176 0
M  V30 1939 H 183.219 -3.65399 1.99681 0
M  V30 1940 H 185.816 -5.34275 -0.213112 0
M  V30 1941 H 186.159 -3.97352 -1.24165 0
M  V30 1942 H 186.692 -3.95166 0.456988 0
M  V30 1943 H 183.431 -5.99559 2.64971 0
M  V30 1944 H 182.951 -5.9241 0.938611 0
M  V30 1945 H 184.63 -6.32085 1.3812 0
M  V30 1946 N 184.763 -0.387143 -1.52771 0
M  V30 1947 C 186.174 0.0873634 -1.86495 0
M  V30 1948 C 186.525 1.46336 -1.30691 0
M  V30 1949 O 185.65 2.068 -0.637409 0
M  V30 1950 C 186.245 0.165305 -3.38396 0
M  V30 1951 C 184.804 0.584101 -3.7184 0
M  V30 1952 C 183.951 -0.255279 -2.76122 0
M  V30 1953 H 186.902 -0.605104 -1.46711 0
M  V30 1954 H 186.923 0.984848 -3.67534 0
M  V30 1955 H 186.435 -0.836301 -3.78982 0
M  V30 1956 H 184.536 1.59315 -3.36823 0
M  V30 1957 H 184.649 0.343749 -4.77865 0
M  V30 1958 H 183.013 0.279126 -2.53166 0
M  V30 1959 H 183.796 -1.25482 -3.19545 0
M  V30 1960 N 186.241 1.57166 -0.116904 0
M  V30 1961 C 187.487 1.95412 0.542405 0
M  V30 1962 C 187.82 1.00019 1.66463 0
M  V30 1963 O 187.095 0.0370346 1.94465 0
M  V30 1964 C 187.378 3.43615 1.07708 0
M  V30 1965 C 187.231 4.49781 -0.0415868 0
M  V30 1966 C 188.55 3.93616 1.96861 0
M  V30 1967 H 185.669 0.710543 0.195696 0
M  V30 1968 H 188.311 1.89027 -0.192038 0
M  V30 1969 H 186.461 3.49187 1.70296 0
M  V30 1970 H 188.133 4.56308 -0.676793 0
M  V30 1971 H 186.376 4.28033 -0.705019 0
M  V30 1972 H 187.047 5.50733 0.373717 0
M  V30 1973 H 189.523 3.90335 1.44146 0
M  V30 1974 H 188.399 4.97838 2.3119 0
M  V30 1975 H 188.66 3.34188 2.89432 0
M  V30 1976 N 187.719 -0.156864 1.56817 0
M  V30 1977 C 188.965 -0.872416 1.83076 0
M  V30 1978 C 189.298 -1.81261 0.697001 0
M  V30 1979 O 188.573 -1.92171 -0.30008 0
M  V30 1980 C 188.856 -1.65551 3.19789 0
M  V30 1981 C 188.709 -0.737467 4.43713 0
M  V30 1982 C 190.028 -2.62012 3.53606 0
M  V30 1983 H 187.147 -0.315715 0.665953 0
M  V30 1984 H 189.789 -0.138004 1.89498 0
M  V30 1985 H 187.939 -2.28159 3.14445 0
M  V30 1986 H 189.611 -0.123143 4.61136 0
M  V30 1987 H 187.854 -0.0464067 4.33775 0
M  V30 1988 H 188.525 -1.32122 5.35955 0
M  V30 1989 H 191.001 -2.09525 3.59497 0
M  V30 1990 H 189.877 -3.13861 4.50314 0
M  V30 1991 H 190.138 -3.42902 2.79053 0
M  V30 1992 N 189.197 -1.51736 -0.425897 0
M  V30 1993 C 190.127 -1.76827 -1.52494 0
M  V30 1994 C 191.108 -0.618524 -1.58456 0
M  V30 1995 O 192.293 -0.862416 -1.74 0
M  V30 1996 C 189.423 -1.90374 -2.90474 0
M  V30 1997 C 188.377 -3.0588 -2.99369 0
M  V30 1998 C 187.703 -3.04625 -4.3944 0
M  V30 1999 C 189.003 -4.45644 -2.72394 0
M  V30 2000 H 190.697 -2.68855 -1.31748 0
M  V30 2001 H 188.243 -1.29372 -0.632362 0
M  V30 2002 H 190.196 -2.0651 -3.6733 0
M  V30 2003 H 188.92 -0.95004 -3.12477 0
M  V30 2004 H 187.579 -2.89467 -2.24954 0
M  V30 2005 H 187.227 -2.0701 -4.58428 0
M  V30 2006 H 186.927 -3.82195 -4.46319 0
M  V30 2007 H 188.451 -3.22869 -5.18255 0
M  V30 2008 H 189.865 -4.62348 -3.38979 0
M  V30 2009 H 188.262 -5.25006 -2.9067 0
M  V30 2010 H 189.332 -4.54893 -1.67929 0
M  V30 2011 N 190.675 0.682077 -1.42076 0
M  V30 2012 C 191.903 1.47057 -1.4554 0
M  V30 2013 C 192.318 1.8869 -0.0645779 0
M  V30 2014 O 191.675 1.57666 0.919115 0
M  V30 2015 C 191.726 2.72442 -2.37609 0
M  V30 2016 O 191.447 2.32559 -3.71279 0
M  V30 2017 C 192.948 3.66069 -2.50017 0
M  V30 2018 H 190.168 0.452737 -0.495248 0
M  V30 2019 H 192.712 0.838695 -1.8651 0
M  V30 2020 H 190.867 3.31835 -1.9991 0
M  V30 2021 H 191.281 3.13475 -4.20516 0
M  V30 2022 H 192.755 4.50792 -3.18576 0
M  V30 2023 H 193.232 4.11476 -1.53572 0
M  V30 2024 H 193.838 3.12572 -2.88407 0
M  V30 2025 N 192.153 1.28127 0.917671 0
M  V30 2026 C 193.399 1.15223 1.66888 0
M  V30 2027 C 193.732 -0.299293 1.9188 0
M  V30 2028 O 193.007 -1.21805 1.51637 0
M  V30 2029 C 193.29 1.94706 3.02922 0
M  V30 2030 C 193.143 3.47898 2.85109 0
M  V30 2031 C 194.462 1.75939 4.03402 0
M  V30 2032 H 191.581 0.419946 0.605652 0
M  V30 2033 H 194.223 1.57398 1.06423 0
M  V30 2034 H 192.373 1.58864 3.54534 0
M  V30 2035 H 194.045 3.93624 2.40537 0
M  V30 2036 H 192.288 3.7373 2.20246 0
M  V30 2037 H 192.959 3.98765 3.81694 0
M  V30 2038 H 195.435 2.07209 3.60837 0
M  V30 2039 H 194.311 2.33931 4.96556 0
M  V30 2040 H 194.572 0.709877 4.36364 0
M  V30 2041 N 193.631 -1.12557 1.10312 0
M  V30 2042 C 194.594 -2.16434 0.75424 0
M  V30 2043 C 195.594 -1.59278 -0.220685 0
M  V30 2044 O 196.784 -1.742 0.00230591 0
M  V30 2045 C 193.916 -3.40699 0.116987 0
M  V30 2046 H 195.109 -2.48811 1.67431 0
M  V30 2047 H 192.662 -1.27542 0.903475 0
M  V30 2048 H 193.397 -3.13921 -0.813877 0
M  V30 2049 H 193.182 -3.83459 0.818613 0
M  V30 2050 H 194.672 -4.17451 -0.111387 0
M  V30 2051 N 195.109 -0.891671 -1.2995 0
M  V30 2052 C 196.042 -0.307994 -2.26112 0
M  V30 2053 C 197.02 0.575262 -1.52084 0
M  V30 2054 O 198.204 0.523864 -1.81074 0
M  V30 2055 C 195.331 0.561734 -3.34009 0
M  V30 2056 C 194.377 -0.253107 -4.25748 0
M  V30 2057 S 195.21 -1.64572 -5.09584 0
M  V30 2058 C 196.366 -0.782699 -6.20987 0
M  V30 2059 H 196.599 -1.12309 -2.75271 0
M  V30 2060 H 194.132 -0.691509 -1.38049 0
M  V30 2061 H 196.09 1.05777 -3.96638 0
M  V30 2062 H 194.751 1.35099 -2.83561 0
M  V30 2063 H 193.944 0.410908 -5.02322 0
M  V30 2064 H 193.546 -0.682004 -3.67729 0
M  V30 2065 H 195.838 -0.00257476 -6.775 0
M  V30 2066 H 196.781 -1.52026 -6.91588 0
M  V30 2067 H 197.189 -0.340638 -5.63471 0
M  V30 2068 N 196.587 1.43421 -0.653314 0
M  V30 2069 C 197.55 2.29182 0.0287951 0
M  V30 2070 C 198.55 1.42213 0.750465 0
M  V30 2071 O 199.74 1.63843 0.591701 0
M  V30 2072 C 196.872 3.24278 1.05151 0
M  V30 2073 H 198.065 2.90985 -0.725786 0
M  V30 2074 H 195.618 1.50702 -0.414545 0
M  V30 2075 H 196.353 2.6737 1.83532 0
M  V30 2076 H 196.138 3.88396 0.537687 0
M  V30 2077 H 197.628 3.88647 1.52786 0
M  V30 2078 N 198.065 0.39524 1.52563 0
M  V30 2079 C 199.313 -0.184678 2.01254 0
M  V30 2080 C 199.634 -1.46822 1.28329 0
M  V30 2081 O 198.904 -1.91666 0.405094 0
M  V30 2082 H 197.484 -0.0712355 0.743596 0
M  V30 2083 H 200.146 0.528293 1.87603 0
M  V30 2084 H 199.242 -0.390681 3.09645 0
M  V30 2085 N 199.544 -1.57102 0.125237 0
M  V30 2086 C 200.474 -2.18659 -0.819174 0
M  V30 2087 C 201.455 -1.12843 -1.27281 0
M  V30 2088 O 202.64 -1.41104 -1.33429 0
M  V30 2089 C 199.77 -2.79096 -2.06695 0
M  V30 2090 C 198.724 -3.90548 -1.75088 0
M  V30 2091 C 198.05 -4.37821 -3.06948 0
M  V30 2092 C 199.35 -5.12356 -1.01435 0
M  V30 2093 H 201.044 -2.9783 -0.306202 0
M  V30 2094 H 198.59 -1.4326 -0.145839 0
M  V30 2095 H 200.543 -3.2082 -2.73226 0
M  V30 2096 H 199.267 -1.97223 -2.60328 0
M  V30 2097 H 197.926 -3.49409 -1.10944 0
M  V30 2098 H 197.574 -3.52799 -3.58527 0
M  V30 2099 H 197.274 -5.12982 -2.86571 0
M  V30 2100 H 198.798 -4.822 -3.74587 0
M  V30 2101 H 200.212 -5.5106 -1.58132 0
M  V30 2102 H 198.609 -5.9314 -0.911319 0
M  V30 2103 H 199.679 -4.849 -0.00218681 0
M  V30 2104 N 201.022 0.148545 -1.56898 0
M  V30 2105 C 202.268 0.862694 -1.83536 0
M  V30 2106 C 202.601 1.80889 -0.706604 0
M  V30 2107 O 201.876 1.92328 0.289885 0
M  V30 2108 C 202.159 1.63853 -3.20662 0
M  V30 2109 C 202.012 0.713925 -4.44098 0
M  V30 2110 C 203.331 2.60133 -3.54991 0
M  V30 2111 H 200.45 0.312179 -0.667618 0
M  V30 2112 H 203.092 0.127953 -1.89569 0
M  V30 2113 H 201.242 2.26489 -3.1565 0
M  V30 2114 H 202.914 0.098686 -4.61194 0
M  V30 2115 H 201.157 0.0234019 -4.33794 0
M  V30 2116 H 201.828 1.29278 -5.36648 0
M  V30 2117 H 204.304 2.07616 -3.60603 0
M  V30 2118 H 203.18 3.11468 -4.51972 0
M  V30 2119 H 203.441 3.41417 -2.80868 0
M  V30 2120 N 202.5 1.5196 0.417844 0
M  V30 2121 C 203.746 1.65836 1.16732 0
M  V30 2122 C 204.079 0.382881 1.90388 0
M  V30 2123 O 203.354 -0.618368 1.84408 0
M  V30 2124 C 203.637 2.87466 2.16876 0
M  V30 2125 C 203.49 4.25041 1.47174 0
M  V30 2126 C 204.809 3.04613 3.17646 0
M  V30 2127 H 201.928 0.603515 0.423011 0
M  V30 2128 H 204.57 1.84494 0.454105 0
M  V30 2129 H 202.72 2.71689 2.777 0
M  V30 2130 H 204.392 4.52527 0.895376 0
M  V30 2131 H 202.635 4.26843 0.773806 0
M  V30 2132 H 203.306 5.06176 2.20204 0
M  V30 2133 H 205.782 3.1923 2.66892 0
M  V30 2134 H 204.658 3.91247 3.8499 0
M  V30 2135 H 204.919 2.17541 3.84874 0
M  V30 2136 N 203.978 -0.674533 1.42435 0
M  V30 2137 C 205.224 -1.43521 1.4413 0
M  V30 2138 C 205.579 -1.92316 0.0567773 0
M  V30 2139 O 204.872 -1.68008 -0.921076 0
M  V30 2140 C 205.066 -2.64767 2.40069 0
M  V30 2141 C 204.895 -2.27836 3.87713 0
M  V30 2142 C 203.665 -2.17183 4.56245 0
M  V30 2143 C 205.863 -1.89466 4.78129 0
M  V30 2144 N 203.845 -1.73358 5.88915 0
M  V30 2145 C 205.216 -1.56561 5.99907 0
M  V30 2146 C 207.271 -1.7646 4.65582 0
M  V30 2147 C 205.974 -1.11957 7.10534 0
M  V30 2148 C 208 -1.3326 5.76191 0
M  V30 2149 C 207.362 -1.0128 6.97081 0
M  V30 2150 H 203.461 -0.521656 0.582579 0
M  V30 2151 H 206.045 -0.778381 1.78464 0
M  V30 2152 H 204.216 -3.28139 2.07796 0
M  V30 2153 H 205.948 -3.3136 2.32342 0
M  V30 2154 H 202.703 -2.3626 4.10461 0
M  V30 2155 H 203.127 -1.53867 6.59283 0
M  V30 2156 H 207.769 -1.99831 3.72595 0
M  V30 2157 H 205.487 -0.873318 8.03367 0
M  V30 2158 H 209.073 -1.23717 5.68494 0
M  V30 2159 H 207.953 -0.683597 7.81215 0
M  V30 2160 N 205.456 -1.28612 -0.910864 0
M  V30 2161 C 206.872 -1.06381 -1.18976 0
M  V30 2162 C 207.072 0.191998 -2.00583 0
M  V30 2163 O 206.128 0.892869 -2.36187 0
M  V30 2164 C 207.441 -2.31295 -1.92154 0
M  V30 2165 C 208.989 -2.36503 -2.05025 0
M  V30 2166 C 209.464 -3.61191 -2.81612 0
M  V30 2167 N 210.955 -3.61847 -2.89172 0
M  V30 2168 C 211.69 -4.55004 -3.4894 0
M  V30 2169 N 211.186 -5.58482 -4.09963 0
M  V30 2170 N 212.979 -4.42594 -3.46506 0
M  V30 2171 H 205.13 -2.09221 -0.366094 0
M  V30 2172 H 207.393 -0.921003 -0.224629 0
M  V30 2173 H 207.099 -3.228 -1.39618 0
M  V30 2174 H 206.973 -2.37934 -2.9269 0
M  V30 2175 H 209.36 -1.45494 -2.5674 0
M  V30 2176 H 209.441 -2.33857 -1.03657 0
M  V30 2177 H 209.085 -4.52545 -2.30576 0
M  V30 2178 H 209.015 -3.61092 -3.83302 0
M  V30 2179 H 211.506 -2.87022 -2.45819 0
M  V30 2180 H 211.819 -6.25704 -4.53557 0
M  V30 2181 H 210.164 -5.62305 -4.08459 0
M  V30 2182 H 213.355 -3.60953 -2.98045 0
M  V30 2183 H 213.528 -5.15381 -3.92793 0
M  V30 2184 N 206.934 1.1197 -1.10907 0
M  V30 2185 C 208.159 1.87942 -0.877064 0
M  V30 2186 C 208.584 1.79341 0.567314 0
M  V30 2187 O 207.942 1.15184 1.40009 0
M  V30 2188 C 207.99 3.34926 -1.33629 0
M  V30 2189 O 207.094 4.09303 -0.504447 0
M  V30 2190 H 206.435 0.583785 -0.316371 0
M  V30 2191 H 208.965 1.4157 -1.47712 0
M  V30 2192 H 208.975 3.8577 -1.32837 0
M  V30 2193 H 207.65 3.40504 -2.3881 0
M  V30 2194 H 206.227 3.68393 -0.577993 0
M  V30 2195 N 208.412 0.89855 1.29475 0
M  V30 2196 C 209.359 0.373819 2.27753 0
M  V30 2197 C 210.329 -0.543444 1.56958 0
M  V30 2198 O 211.514 -0.468934 1.84948 0
M  V30 2199 C 208.654 -0.393648 3.42848 0
M  V30 2200 C 207.767 0.554379 4.28428 0
M  V30 2201 C 206.902 -0.230026 5.30702 0
M  V30 2202 C 205.941 0.712599 6.07938 0
M  V30 2203 N 205.078 -0.0373283 7.0209 0
M  V30 2204 H 209.918 1.21699 2.72017 0
M  V30 2205 H 207.455 0.611456 1.33789 0
M  V30 2206 H 209.413 -0.85466 4.08352 0
M  V30 2207 H 208.043 -1.20128 2.99615 0
M  V30 2208 H 207.095 1.13391 3.63107 0
M  V30 2209 H 208.407 1.27597 4.82204 0
M  V30 2210 H 207.561 -0.752288 6.02018 0
M  V30 2211 H 206.3 -0.984758 4.77654 0
M  V30 2212 H 205.305 1.24637 5.35486 0
M  V30 2213 H 206.53 1.46664 6.63074 0
M  V30 2214 H 204.476 -0.774348 6.51414 0
M  V30 2215 H 204.393 0.624374 7.53417 0
M  V30 2216 H 205.661 -0.539891 7.77628 0
M  V30 2217 N 209.89 -1.43072 0.660911 0
M  V30 2218 C 211.306 -1.56169 0.329173 0
M  V30 2219 C 211.506 -1.64317 -1.16629 0
M  V30 2220 O 210.562 -1.60245 -1.95135 0
M  V30 2221 C 211.875 -2.81873 1.04729 0
M  V30 2222 C 213.423 -2.95627 1.02828 0
M  V30 2223 C 213.898 -4.24174 1.72744 0
M  V30 2224 N 215.389 -4.31055 1.69545 0
M  V30 2225 C 216.124 -5.29304 2.20511 0
M  V30 2226 N 215.62 -6.33786 2.79799 0
M  V30 2227 N 217.413 -5.21008 2.10966 0
M  V30 2228 H 209.564 -1.36027 1.63127 0
M  V30 2229 H 211.827 -0.653823 0.686454 0
M  V30 2230 H 211.533 -2.81942 2.10242 0
M  V30 2231 H 211.407 -3.72338 0.603702 0
M  V30 2232 H 213.794 -2.95094 -0.0184742 0
M  V30 2233 H 213.875 -2.06431 1.51063 0
M  V30 2234 H 213.519 -4.25467 2.7738 0
M  V30 2235 H 213.449 -5.1228 1.2197 0
M  V30 2236 H 215.94 -3.56174 1.26288 0
M  V30 2237 H 216.253 -7.05086 3.16344 0
M  V30 2238 H 214.598 -6.34387 2.83863 0
M  V30 2239 H 217.789 -4.38301 1.64347 0
M  V30 2240 H 217.962 -5.97416 2.50993 0
M  V30 2241 N 211.368 -0.403325 -1.52352 0
M  V30 2242 C 212.596 0.174012 -2.06167 0
M  V30 2243 C 213.011 1.39347 -1.27388 0
M  V30 2244 O 212.368 1.79597 -0.324201 0
M  V30 2245 C 212.419 0.530223 -3.5759 0
M  V30 2246 O 212.14 -0.640806 -4.33388 0
M  V30 2247 C 213.641 1.16192 -4.27802 0
M  V30 2248 H 210.861 0.0229464 -0.670608 0
M  V30 2249 H 213.405 -0.572604 -1.9632 0
M  V30 2250 H 211.56 1.22673 -3.67464 0
M  V30 2251 H 211.974 -0.344851 -5.23365 0
M  V30 2252 H 213.448 1.36141 -5.34948 0
M  V30 2253 H 213.925 2.13335 -3.83907 0
M  V30 2254 H 214.531 0.505775 -4.22282 0
M  V30 2255 N 212.846 1.57033 -0.133567 0
M  V30 2256 C 214.123 1.87256 0.56522 0
M  V30 2257 C 214.503 1.03726 1.83859 0
M  V30 2258 O 213.851 0.120247 2.28183 0
M  V30 2259 C 214.061 3.3865 0.843636 0
M  V30 2260 C 215.409 4.07574 1.19032 0
M  V30 2261 O 216.433 3.43752 0.933429 0
M  V30 2262 O 215.292 5.20259 1.67312 0
M  V30 2263 H 212.386 0.775678 0.286796 0
M  V30 2264 H 214.932 1.68855 -0.169168 0
M  V30 2265 H 213.704 3.91257 -0.0581149 0
M  V30 2266 H 213.327 3.62532 1.63268 0
M  V30 2267 N 214.325 -0.140222 1.56975 0
M  V30 2268 C 215.553 -0.866437 1.87884 0
M  V30 2269 C 215.968 -1.74428 0.722517 0
M  V30 2270 O 215.325 -1.79891 -0.30749 0
M  V30 2271 C 215.376 -1.71753 3.18093 0
M  V30 2272 O 215.097 -0.875056 4.29272 0
M  V30 2273 C 216.598 -2.55074 3.62563 0
M  V30 2274 H 213.818 -0.25019 0.622612 0
M  V30 2275 H 216.362 -0.130977 2.0408 0
M  V30 2276 H 214.517 -2.40598 3.03631 0
M  V30 2277 H 214.931 -1.46002 5.03769 0
M  V30 2278 H 216.405 -3.10356 4.5649 0
M  V30 2279 H 216.882 -3.31434 2.88181 0
M  V30 2280 H 217.488 -1.91509 3.79743 0
M  V30 2281 N 215.803 -1.52179 -0.40978 0
M  V30 2282 C 216.733 -1.78435 -1.5061 0
M  V30 2283 C 217.714 -0.635295 -1.57791 0
M  V30 2284 O 218.899 -0.880823 -1.73076 0
M  V30 2285 C 216.029 -1.93444 -2.88439 0
M  V30 2286 C 214.983 -3.09038 -2.96108 0
M  V30 2287 C 214.309 -3.09268 -4.36185 0
M  V30 2288 C 215.609 -4.48508 -2.67652 0
M  V30 2289 H 217.303 -2.70237 -1.28889 0
M  V30 2290 H 214.849 -1.30036 -0.618605 0
M  V30 2291 H 216.802 -2.10394 -3.65119 0
M  V30 2292 H 215.526 -0.983129 -3.11452 0
M  V30 2293 H 214.185 -2.91837 -2.21872 0
M  V30 2294 H 213.833 -2.11861 -4.56206 0
M  V30 2295 H 213.533 -3.86907 -4.42241 0
M  V30 2296 H 215.057 -3.28348 -5.14801 0
M  V30 2297 H 216.471 -4.65918 -3.34056 0
M  V30 2298 H 214.868 -5.28059 -2.85085 0
M  V30 2299 H 215.938 -4.56649 -1.63095 0
M  V30 2300 N 217.281 0.66697 -1.42791 0
M  V30 2301 C 218.211 1.79218 -1.49677 0
M  V30 2302 C 219.192 1.66405 -0.352623 0
M  V30 2303 O 220.377 1.85708 -0.567993 0
M  V30 2304 C 217.507 3.17565 -1.40605 0
M  V30 2305 C 216.461 3.45124 -2.53127 0
M  V30 2306 C 215.787 4.83127 -2.29112 0
M  V30 2307 C 217.087 3.41236 -3.95418 0
M  V30 2308 H 218.781 1.73713 -2.43853 0
M  V30 2309 H 216.327 0.83432 -1.17367 0
M  V30 2310 H 218.28 3.96022 -1.44029 0
M  V30 2311 H 217.004 3.23767 -0.429271 0
M  V30 2312 H 215.663 2.69031 -2.49034 0
M  V30 2313 H 215.311 4.85988 -1.29709 0
M  V30 2314 H 215.011 5.02528 -3.04531 0
M  V30 2315 H 216.535 5.63859 -2.34297 0
M  V30 2316 H 217.949 4.09651 -4.01073 0
M  V30 2317 H 216.346 3.72173 -4.70752 0
M  V30 2318 H 217.416 2.39665 -4.21532 0
M  V30 2319 O 218.798 1.39735 0.809714 0
M  V30 2320 H 219.489 1.27958 1.45418 0
M  V30 END ATOM
M  V30 BEGIN BOND
M  V30 END BOND
M  V30 END CTAB
M  END
$$$$
