drugbank_target|O60931 Cystinosin (DB00138)
 OpenBabel12092119233D

  0  0  0     0  0            999 V3000
M  V30 BEGIN CTAB
M  V30 COUNTS 5959 6047 0 0 0
M  V30 BEGIN ATOM
M  V30 1 H -0.908 1.98254 -0.117106 0
M  V30 2 N 0 1.576 0 0
M  V30 3 C 0.933 2.03868 1.02534 0
M  V30 4 C 1.911 0.928543 1.3348 0
M  V30 5 O 3.095 1.19667 1.45644 0
M  V30 6 C 0.222 2.43627 2.35294 0
M  V30 7 C -0.732 3.65373 2.2001 0
M  V30 8 S 0.101 5.13292 1.52614 0
M  V30 9 C 1.257 5.56322 2.86805 0
M  V30 10 H 1.49 2.90518 0.631377 0
M  V30 11 H -0.977 1.52953 0.210867 0
M  V30 12 H 0.981 2.67203 3.11629 0
M  V30 13 H -0.358 1.57376 2.7183 0
M  V30 14 H -1.165 3.90944 3.18086 0
M  V30 15 H -1.563 3.418 1.51819 0
M  V30 16 H 0.729 5.58782 3.83104 0
M  V30 17 H 1.672 6.56266 2.65933 0
M  V30 18 H 2.08 4.83886 2.90714 0
M  V30 19 N 1.4781 -0.272755 1.55222 0
M  V30 20 C 2.7271 -1.00211 1.75045 0
M  V30 21 C 3.0401 -1.87441 0.559046 0
M  V30 22 O 4.2461 -2.63856 0.639698 0
M  V30 23 C 2.7021 -1.83165 3.09804 0
M  V30 24 C 2.3101 -1.008 4.36513 0
M  V30 25 C 4.0541 -2.55529 3.38977 0
M  V30 26 C 1.9611 -1.83194 5.62311 0
M  V30 27 H 0.8911 -0.377878 0.652476 0
M  V30 28 H 3.5421 -0.257776 1.8168 0
M  V30 29 H 1.9241 -2.61694 2.97207 0
M  V30 30 H 3.0981 -0.266855 4.60027 0
M  V30 31 H 1.4131 -0.398897 4.14485 0
M  V30 32 H 4.0101 -3.17578 4.30172 0
M  V30 33 H 4.3531 -3.25825 2.59121 0
M  V30 34 H 4.8861 -1.84029 3.52673 0
M  V30 35 H 1.6251 -1.17318 6.44916 0
M  V30 36 H 1.1451 -2.54905 5.4294 0
M  V30 37 H 2.8241 -2.40552 6.00619 0
M  V30 38 N 2.9562 -1.48159 -0.537278 0
M  V30 39 C 4.3722 -1.34118 -0.865129 0
M  V30 40 C 4.5722 -0.346678 -1.98495 0
M  V30 41 O 3.6282 0.234715 -2.51407 0
M  V30 42 C 4.9412 -2.73963 -1.23954 0
M  V30 43 C 6.4892 -2.82397 -1.34984 0
M  V30 44 C 6.9642 -4.22928 -1.75772 0
M  V30 45 N 8.4552 -4.25566 -1.82887 0
M  V30 46 C 9.1902 -5.31235 -2.15817 0
M  V30 47 N 8.6862 -6.47189 -2.47222 0
M  V30 48 N 10.4792 -5.18624 -2.16761 0
M  V30 49 H 2.6302 -2.1144 0.201715 0
M  V30 50 H 4.8932 -0.947598 0.0275949 0
M  V30 51 H 4.5992 -3.48264 -0.490381 0
M  V30 52 H 4.4732 -3.0702 -2.19132 0
M  V30 53 H 6.8602 -2.08356 -2.08978 0
M  V30 54 H 6.9412 -2.5297 -0.379448 0
M  V30 55 H 6.5852 -4.97482 -1.02341 0
M  V30 56 H 6.5152 -4.49794 -2.73848 0
M  V30 57 H 9.0062 -3.41924 -1.60924 0
M  V30 58 H 9.3192 -7.23564 -2.71433 0
M  V30 59 H 7.6642 -6.50476 -2.44757 0
M  V30 60 H 10.8552 -4.27056 -1.91679 0
M  V30 61 H 11.0282 -6.01078 -2.42093 0
M  V30 62 N 4.4343 0.785586 -1.36625 0
M  V30 63 C 5.3823 1.91978 -1.31329 0
M  V30 64 C 6.3763 1.68162 -0.204416 0
M  V30 65 O 7.5823 1.76122 -0.371645 0
M  V30 66 H 3.9573 0.631087 -0.408942 0
M  V30 67 H 5.9283 1.93562 -2.27104 0
M  V30 68 C 4.6773 3.29055 -1.12329 0
M  V30 69 H 4.0003 3.4795 -1.96903 0
M  V30 70 H 5.4403 4.08756 -1.12671 0
M  V30 71 C 3.8993 3.36461 0.171861 0
M  V30 72 O 4.4293 3.84576 1.16035 0
M  V30 73 N 2.6353 2.89782 0.217846 0
M  V30 74 H 2.1823 2.50819 -0.587183 0
M  V30 75 H 2.1403 2.95119 1.08408 0
M  V30 76 N 5.9124 1.20967 1.01018 0
M  V30 77 C 7.1584 1.0353 1.7508 0
M  V30 78 C 7.5134 -0.42734 1.87594 0
M  V30 79 O 6.8064 -1.31298 1.3954 0
M  V30 80 C 7.0004 1.65997 3.16512 0
M  V30 81 C 6.8294 3.18184 3.17788 0
M  V30 82 C 5.5994 3.87198 3.24662 0
M  V30 83 C 7.7974 4.15334 3.03319 0
M  V30 84 N 5.7794 5.26618 3.15509 0
M  V30 85 C 7.1504 5.41472 3.02007 0
M  V30 86 C 9.2054 4.06449 2.87583 0
M  V30 87 C 7.9084 6.5975 2.86571 0
M  V30 88 C 9.9344 5.24357 2.73503 0
M  V30 89 C 9.2964 6.49404 2.72862 0
M  V30 90 H 5.3954 0.433137 0.651089 0
M  V30 91 H 7.9794 1.5324 1.20107 0
M  V30 92 H 6.1504 1.18863 3.69765 0
M  V30 93 H 7.8824 1.41816 3.79039 0
M  V30 94 H 4.6374 3.38093 3.31648 0
M  V30 95 H 5.0614 5.99626 3.14289 0
M  V30 96 H 9.7034 3.10573 2.86887 0
M  V30 97 H 7.4214 7.55792 2.86015 0
M  V30 98 H 11.0074 5.19299 2.62334 0
M  V30 99 H 9.8874 7.39105 2.62093 0
M  V30 100 N 7.3905 -1.2043 1.01659 0
M  V30 101 C 8.3205 -2.25466 0.607226 0
M  V30 102 C 9.3015 -1.65853 -0.377716 0
M  V30 103 O 10.4865 -1.92409 -0.263149 0
M  V30 104 C 7.6165 -3.47256 -0.0552949 0
M  V30 105 C 6.5705 -4.19462 0.850632 0
M  V30 106 C 5.8965 -5.34673 0.0538859 0
M  V30 107 C 7.1965 -4.75603 2.15868 0
M  V30 108 H 8.8905 -2.59962 1.48526 0
M  V30 109 H 6.4365 -1.2496 0.715605 0
M  V30 110 H 8.3895 -4.19917 -0.353233 0
M  V30 111 H 7.1135 -3.11924 -0.968045 0
M  V30 112 H 5.7725 -3.48667 1.13257 0
M  V30 113 H 5.4205 -4.95585 -0.860514 0
M  V30 114 H 5.1205 -5.83913 0.657192 0
M  V30 115 H 6.6445 -6.10138 -0.237598 0
M  V30 116 H 8.0585 -5.40083 1.92311 0
M  V30 117 H 6.4555 -5.3528 2.71284 0
M  V30 118 H 7.5255 -3.94346 2.82169 0
M  V30 119 N 8.8686 -0.792821 -1.36206 0
M  V30 120 C 10.0966 -0.378825 -2.03402 0
M  V30 121 C 10.5116 1.00586 -1.59774 0
M  V30 122 O 9.8686 1.64574 -0.788764 0
M  V30 123 C 9.9196 -0.43683 -3.58851 0
M  V30 124 O 9.6406 -1.76691 -4.00889 0
M  V30 125 C 11.1416 -0.0138943 -4.43298 0
M  V30 126 H 8.3616 -0.155673 -0.652692 0
M  V30 127 H 10.9056 -1.07261 -1.74113 0
M  V30 128 H 9.0606 0.208575 -3.86838 0
M  V30 129 H 9.4746 -1.72011 -4.95492 0
M  V30 130 H 10.9486 -0.105615 -5.51899 0
M  V30 131 H 11.4256 1.03915 -4.2673 0
M  V30 132 H 12.0316 -0.63192 -4.20579 0
M  V30 133 N 10.3467 1.47872 -0.545128 0
M  V30 134 C 11.5957 2.01695 -0.0145033 0
M  V30 135 C 11.9087 1.42609 1.33873 0
M  V30 136 O 13.1147 1.88021 1.95858 0
M  V30 137 C 11.5707 3.59892 0.0245068 0
M  V30 138 C 11.1787 4.27966 -1.32475 0
M  V30 139 C 12.9227 4.21507 0.50316 0
M  V30 140 C 10.8297 5.78136 -1.2455 0
M  V30 141 H 9.7597 0.753998 -0.00165172 0
M  V30 142 H 12.4107 1.69985 -0.691175 0
M  V30 143 H 10.7927 3.88509 0.766575 0
M  V30 144 H 11.9667 4.11003 -2.08357 0
M  V30 145 H 10.2817 3.78286 -1.74036 0
M  V30 146 H 12.8787 5.31538 0.580656 0
M  V30 147 H 13.2217 3.87855 1.51243 0
M  V30 148 H 13.7547 3.97376 -0.183681 0
M  V30 149 H 10.4937 6.16388 -2.23039 0
M  V30 150 H 10.0137 5.97469 -0.528282 0
M  V30 151 H 11.6927 6.40099 -0.942488 0
M  V30 152 N 11.8248 0.280983 1.55075 0
M  V30 153 C 13.0718 -0.334115 1.99725 0
M  V30 154 C 13.3998 -1.5542 1.1694 0
M  V30 155 O 12.6548 -1.94361 0.228531 0
M  V30 156 C 12.9538 -0.754656 3.49342 0
M  V30 157 C 12.6198 0.361445 4.49449 0
M  V30 158 C 11.2818 0.667893 4.76542 0
M  V30 159 C 13.6338 1.11322 5.09173 0
M  V30 160 C 10.9618 1.7296 5.60626 0
M  V30 161 C 13.3138 2.1647 5.9441 0
M  V30 162 C 11.9778 2.47742 6.19822 0
M  V30 163 H 11.2478 -0.122261 0.730844 0
M  V30 164 H 13.8948 0.395917 1.87363 0
M  V30 165 H 12.1998 -1.56446 3.5921 0
M  V30 166 H 13.8968 -1.24142 3.813 0
M  V30 167 H 10.4868 0.112481 4.28452 0
M  V30 168 H 14.6708 0.88973 4.8826 0
M  V30 169 H 9.9268 1.97684 5.78559 0
M  V30 170 H 14.1008 2.75193 6.3972 0
M  V30 171 H 11.7278 3.30145 6.84769 0
M  V30 172 N 13.3029 -1.57598 0.00835791 0
M  V30 173 C 14.5519 -1.90107 -0.673968 0
M  V30 174 C 14.8649 -0.884275 -1.7447 0
M  V30 175 O 16.0709 -1.09987 -2.48224 0
M  V30 176 C 14.5269 -3.37497 -1.24995 0
M  V30 177 C 14.1349 -4.47491 -0.2136 0
M  V30 178 C 15.8789 -3.79104 -1.90999 0
M  V30 179 C 13.7859 -5.85963 -0.80005 0
M  V30 180 H 12.7159 -0.709393 -0.255495 0
M  V30 181 H 15.3669 -1.83365 0.0702693 0
M  V30 182 H 13.7489 -3.39102 -2.04513 0
M  V30 183 H 14.9229 -4.57414 0.557596 0
M  V30 184 H 13.2379 -4.14956 0.346474 0
M  V30 185 H 15.8349 -4.79901 -2.35795 0
M  V30 186 H 16.1779 -3.1306 -2.74407 0
M  V30 187 H 16.7109 -3.79833 -1.18203 0
M  V30 188 H 13.4499 -6.555 -0.00456708 0
M  V30 189 H 12.9699 -5.79687 -1.54021 0
M  V30 190 H 14.6489 -6.33884 -1.29615 0
M  V30 191 N 14.781 0.264519 -1.55364 0
M  V30 192 C 15.711 1.33121 -1.91836 0
M  V30 193 C 16.692 1.51101 -0.781192 0
M  V30 194 O 17.877 1.64003 -1.04003 0
M  V30 195 C 15.007 2.68921 -2.19769 0
M  V30 196 C 13.961 2.65661 -3.35571 0
M  V30 197 C 13.287 4.05093 -3.49004 0
M  V30 198 C 14.587 2.24187 -4.71739 0
M  V30 199 H 16.281 1.02844 -2.81182 0
M  V30 200 H 13.827 0.493286 -1.35287 0
M  V30 201 H 15.78 3.43663 -2.43872 0
M  V30 202 H 14.504 3.00799 -1.27231 0
M  V30 203 H 13.163 1.93377 -3.1145 0
M  V30 204 H 12.811 4.34206 -2.53917 0
M  V30 205 H 12.511 4.03804 -4.26868 0
M  V30 206 H 14.035 4.81561 -3.75408 0
M  V30 207 H 15.449 2.88654 -4.9533 0
M  V30 208 H 13.846 2.34044 -5.52579 0
M  V30 209 H 14.916 1.19327 -4.69988 0
M  V30 210 N 16.2591 1.48442 0.529413 0
M  V30 211 C 17.5061 1.56488 1.28521 0
M  V30 212 C 17.8341 0.239042 1.93025 0
M  V30 213 O 17.0891 -0.770713 1.79885 0
M  V30 214 C 17.3881 2.6523 2.39558 0
M  V30 215 C 17.0541 4.07648 1.92702 0
M  V30 216 C 15.7161 4.46411 1.79641 0
M  V30 217 C 18.0681 4.96896 1.573 0
M  V30 218 C 15.3961 5.72226 1.29514 0
M  V30 219 C 17.7481 6.23202 1.08636 0
M  V30 220 C 16.4121 6.60821 0.941919 0
M  V30 221 H 15.6821 0.572631 0.470292 0
M  V30 222 H 18.3291 1.82161 0.59072 0
M  V30 223 H 16.6341 2.33419 3.14679 0
M  V30 224 H 18.3311 2.68671 2.97686 0
M  V30 225 H 14.9211 3.77036 2.03819 0
M  V30 226 H 19.1051 4.67626 1.66251 0
M  V30 227 H 14.3611 6.00097 1.17019 0
M  V30 228 H 18.5351 6.91753 0.803136 0
M  V30 229 H 16.1621 7.58198 0.5513 0
M  V30 230 N 17.7372 -0.778329 1.37039 0
M  V30 231 C 19.1482 -1.35421 1.28523 0
M  V30 232 C 19.4992 -1.96075 -0.0700901 0
M  V30 233 O 18.6242 -1.93352 -0.971801 0
M  V30 234 C 19.2192 -2.46211 2.32735 0
M  V30 235 C 17.7782 -2.99585 2.27873 0
M  V30 236 C 16.9252 -1.72748 2.16918 0
M  V30 237 H 19.8762 -0.5791 1.47757 0
M  V30 238 H 19.8972 -3.2552 1.9702 0
M  V30 239 H 19.4092 -2.02036 3.31365 0
M  V30 240 H 17.5102 -3.48152 1.32745 0
M  V30 241 H 17.6232 -3.55646 3.21018 0
M  V30 242 H 15.9872 -1.95416 1.63354 0
M  V30 243 H 16.7702 -1.30686 3.17452 0
M  V30 244 N 19.2153 -1.21501 -1.00376 0
M  V30 245 C 20.1453 -0.999478 -2.11028 0
M  V30 246 C 21.1263 0.0759671 -1.6993 0
M  V30 247 O 22.3113 -0.0841106 -1.94018 0
M  V30 248 C 19.4413 -0.564709 -3.42678 0
M  V30 249 C 18.3953 -1.58486 -3.97576 0
M  V30 250 C 17.7213 -1.00628 -5.25146 0
M  V30 251 C 19.0213 -2.97204 -4.29496 0
M  V30 252 H 20.7153 -1.92495 -2.29317 0
M  V30 253 H 18.2613 -0.92693 -1.102 0
M  V30 254 H 20.2143 -0.401091 -4.19487 0
M  V30 255 H 18.9383 0.396411 -3.24185 0
M  V30 256 H 17.5973 -1.73606 -3.22888 0
M  V30 257 H 17.2453 -0.0368439 -5.02987 0
M  V30 258 H 16.9453 -1.68771 -5.62841 0
M  V30 259 H 18.4693 -0.854015 -6.04598 0
M  V30 260 H 19.8833 -2.8552 -4.97143 0
M  V30 261 H 18.2803 -3.62372 -4.78338 0
M  V30 262 H 19.3503 -3.47956 -3.3772 0
M  V30 263 N 20.6934 1.19889 -1.02296 0
M  V30 264 C 21.6404 2.22901 -0.598651 0
M  V30 265 C 22.6104 1.61588 0.384521 0
M  V30 266 O 23.7954 1.88697 0.282522 0
M  V30 267 C 20.9354 3.45063 0.0504476 0
M  V30 268 C 20.0484 4.20783 -0.978053 0
M  V30 269 C 19.1834 5.30356 -0.299338 0
M  V30 270 C 18.2224 5.97826 -1.31416 0
M  V30 271 N 17.3594 6.98975 -0.661667 0
M  V30 272 H 22.1994 2.58554 -1.48169 0
M  V30 273 H 19.7364 1.27039 -0.741584 0
M  V30 274 H 21.6944 4.14831 0.443971 0
M  V30 275 H 20.3244 3.10084 0.897097 0
M  V30 276 H 19.3764 3.50018 -1.48969 0
M  V30 277 H 20.6884 4.67109 -1.74958 0
M  V30 278 H 19.8424 6.06516 0.149347 0
M  V30 279 H 18.5814 4.85084 0.504445 0
M  V30 280 H 17.5864 5.20422 -1.77317 0
M  V30 281 H 18.8114 6.45183 -2.11933 0
M  V30 282 H 16.7574 6.55886 0.122132 0
M  V30 283 H 16.6744 7.43461 -1.37117 0
M  V30 284 H 17.9424 7.7914 -0.236785 0
M  V30 285 N 22.1715 0.800033 1.35784 0
M  V30 286 C 23.1015 0.220184 2.3246 0
M  V30 287 C 24.0825 -0.65073 1.57161 0
M  V30 288 O 25.2675 -0.582359 1.85263 0
M  V30 289 C 22.3975 -0.637353 3.41402 0
M  V30 290 C 21.3515 0.134531 4.27789 0
M  V30 291 C 20.6775 -0.844285 5.27992 0
M  V30 292 C 21.9775 1.32979 5.05088 0
M  V30 293 H 23.6715 1.02787 2.81203 0
M  V30 294 H 21.2175 0.495717 1.35199 0
M  V30 295 H 23.1705 -1.05302 4.08031 0
M  V30 296 H 21.8945 -1.47785 2.91251 0
M  V30 297 H 20.5535 0.531296 3.6273 0
M  V30 298 H 20.2015 -1.68011 4.74111 0
M  V30 299 H 19.9015 -0.332184 5.8666 0
M  V30 300 H 21.4255 -1.2583 5.97494 0
M  V30 301 H 22.8395 0.98934 5.64699 0
M  V30 302 H 21.2365 1.77593 5.7322 0
M  V30 303 H 22.3065 2.11978 4.36111 0
M  V30 304 N 23.6496 -1.47581 0.552962 0
M  V30 305 C 24.8956 -2.02782 0.0273648 0
M  V30 306 C 25.2286 -1.42687 -1.31734 0
M  V30 307 O 24.5036 -0.580897 -1.85623 0
M  V30 308 C 24.7866 -3.60031 -0.0702371 0
M  V30 309 C 24.6396 -4.30566 1.30126 0
M  V30 310 C 25.9586 -4.33028 -0.785771 0
M  V30 311 H 23.0776 -0.736912 0.0114185 0
M  V30 312 H 25.7196 -1.76056 0.714432 0
M  V30 313 H 23.8696 -3.82932 -0.655382 0
M  V30 314 H 25.5416 -4.19018 1.92929 0
M  V30 315 H 23.7846 -3.91086 1.87709 0
M  V30 316 H 24.4556 -5.39114 1.18573 0
M  V30 317 H 26.9316 -4.15095 -0.288982 0
M  V30 318 H 25.8076 -5.42695 -0.823013 0
M  V30 319 H 26.0686 -4.01945 -1.841 0
M  V30 320 N 25.1277 -0.289203 -1.54924 0
M  V30 321 C 26.0377 0.601863 -2.26748 0
M  V30 322 C 27.0537 1.15834 -1.2984 0
M  V30 323 O 28.2297 1.18564 -1.62802 0
M  V30 324 C 25.2947 1.76299 -2.98529 0
M  V30 325 C 24.3557 1.24178 -4.10948 0
M  V30 326 C 23.5887 2.34757 -4.79296 0
M  V30 327 O 23.8117 3.54411 -4.46933 0
M  V30 328 O 22.7457 2.02115 -5.66951 0
M  V30 329 H 26.5717 0.0195879 -3.03694 0
M  V30 330 H 24.1567 -0.0560868 -1.49295 0
M  V30 331 H 26.0387 2.43973 -3.43592 0
M  V30 332 H 24.7137 2.33209 -2.24488 0
M  V30 333 H 23.6207 0.531104 -3.70311 0
M  V30 334 H 24.9537 0.718252 -4.86931 0
M  V30 335 N 26.6058 1.57591 -0.0167156 0
M  V30 336 C 27.5528 2.09462 0.969251 0
M  V30 337 C 28.5228 0.99381 1.33089 0
M  V30 338 O 29.7078 1.26726 1.42636 0
M  V30 339 C 26.8478 2.61622 2.25051 0
M  V30 340 C 25.9608 3.85666 1.94642 0
M  V30 341 C 25.0958 4.26266 3.16972 0
M  V30 342 C 24.1348 5.43101 2.82326 0
M  V30 343 N 23.2718 5.78915 3.97243 0
M  V30 344 H 28.1118 2.93428 0.519997 0
M  V30 345 H 25.6488 1.45044 0.245087 0
M  V30 346 H 27.6068 2.89949 2.99976 0
M  V30 347 H 26.2368 1.80505 2.67615 0
M  V30 348 H 25.2888 3.64145 1.10013 0
M  V30 349 H 26.6008 4.70678 1.65117 0
M  V30 350 H 25.7548 4.55963 4.00228 0
M  V30 351 H 24.4938 3.39996 3.49648 0
M  V30 352 H 23.4988 5.1311 1.97479 0
M  V30 353 H 24.7238 6.3106 2.50879 0
M  V30 354 H 22.6698 4.95602 4.29785 0
M  V30 355 H 22.5868 6.58539 3.71299 0
M  V30 356 H 23.8548 6.13212 4.81239 0
M  V30 357 N 28.0839 -0.256276 1.55502 0
M  V30 358 C 29.3239 -0.993081 1.78654 0
M  V30 359 C 29.6879 -1.8288 0.584724 0
M  V30 360 O 30.8889 -2.59665 0.694822 0
M  V30 361 C 29.1599 -1.83856 3.06483 0
M  V30 362 S 30.7189 -2.63573 3.5082 0
M  V30 363 H 27.5369 -0.334199 0.62756 0
M  V30 364 H 30.1389 -0.26184 1.93739 0
M  V30 365 H 28.8429 -1.21414 3.92029 0
M  V30 366 H 28.3739 -2.61271 2.94111 0
M  V30 367 H 30.3889 -3.86312 3.11412 0
M  V30 368 N 29.562 -1.4872 -0.521534 0
M  V30 369 C 30.472 -1.66569 -1.65203 0
M  V30 370 C 31.488 -0.548197 -1.65139 0
M  V30 371 O 32.664 -0.820339 -1.83936 0
M  V30 372 C 29.729 -1.70917 -3.01642 0
M  V30 373 C 28.79 -2.94356 -3.12495 0
M  V30 374 C 28.023 -2.98487 -4.42426 0
M  V30 375 O 28.246 -2.10786 -5.30024 0
M  V30 376 O 27.18 -3.90746 -4.57822 0
M  V30 377 H 31.006 -2.62298 -1.5308 0
M  V30 378 H 28.591 -1.3222 -0.695565 0
M  V30 379 H 30.473 -1.7625 -3.82771 0
M  V30 380 H 29.148 -0.783633 -3.14071 0
M  V30 381 H 28.055 -2.94552 -2.3063 0
M  V30 382 H 29.388 -3.86322 -3.04986 0
M  V30 383 N 31.0401 0.771051 -1.3745 0
M  V30 384 C 32.2651 1.56529 -1.36065 0
M  V30 385 C 32.6901 1.88029 0.0515859 0
M  V30 386 O 32.0481 1.49282 1.02882 0
M  V30 387 C 32.0961 2.85187 -2.20683 0
M  V30 388 O 31.2001 3.79593 -1.61193 0
M  V30 389 H 30.5411 0.47411 -0.464883 0
M  V30 390 H 33.0711 0.954269 -1.80983 0
M  V30 391 H 33.0811 3.34283 -2.33921 0
M  V30 392 H 31.7561 2.61588 -3.23334 0
M  V30 393 H 30.3331 3.38239 -1.56999 0
M  V30 394 N 32.5182 1.22032 0.997298 0
M  V30 395 C 33.7432 1.06921 1.77715 0
M  V30 396 C 34.1682 -0.376226 1.84299 0
M  V30 397 O 33.5262 -1.27165 1.29223 0
M  V30 398 C 33.5742 1.67996 3.19076 0
M  V30 399 O 32.6782 0.930653 4.01762 0
M  V30 400 H 32.0192 0.375814 0.547412 0
M  V30 401 H 34.5492 1.61737 1.25309 0
M  V30 402 H 34.5592 1.72538 3.69723 0
M  V30 403 H 33.2342 2.73182 3.13599 0
M  V30 404 H 31.8112 0.960917 3.60307 0
M  V30 405 N 33.9963 -1.19345 1.0293 0
M  V30 406 C 35.2423 -1.89318 0.727083 0
M  V30 407 C 35.5753 -1.79446 -0.742483 0
M  V30 408 O 34.8503 -1.1871 -1.54072 0
M  V30 409 C 35.1333 -3.40238 1.17942 0
M  V30 410 C 34.9863 -3.58979 2.71024 0
M  V30 411 C 36.3053 -4.33479 0.760548 0
M  V30 412 H 33.4243 -0.687475 0.265606 0
M  V30 413 H 36.0663 -1.40477 1.2793 0
M  V30 414 H 34.2163 -3.81964 0.709608 0
M  V30 415 H 35.8883 -3.26421 3.25955 0
M  V30 416 H 34.1313 -3.02018 3.11396 0
M  V30 417 H 34.8023 -4.64823 2.9773 0
M  V30 418 H 37.2783 -3.99469 1.16464 0
M  V30 419 H 36.1543 -5.37664 1.10493 0
M  V30 420 H 36.4153 -4.40813 -0.337063 0
M  V30 421 N 35.4744 -0.807222 -1.35358 0
M  V30 422 C 36.6994 -0.399309 -2.0352 0
M  V30 423 C 37.1244 0.981986 -1.60433 0
M  V30 424 O 36.4824 1.63601 -0.781299 0
M  V30 425 C 36.5304 -0.491552 -3.57234 0
M  V30 426 O 35.6344 0.494754 -4.09421 0
M  V30 427 H 34.9754 -0.166682 -0.642739 0
M  V30 428 H 37.5054 -1.09328 -1.72941 0
M  V30 429 H 37.5154 -0.361588 -4.06395 0
M  V30 430 H 36.1904 -1.49907 -3.87944 0
M  V30 431 H 34.7674 0.324977 -3.71481 0
M  V30 432 N 36.9525 1.47285 -0.560781 0
M  V30 433 C 37.8825 2.32857 0.173105 0
M  V30 434 C 38.8635 1.44009 0.905281 0
M  V30 435 O 40.0485 1.7286 0.885046 0
M  V30 436 C 37.1785 3.25861 1.20133 0
M  V30 437 C 36.1325 4.23978 0.585388 0
M  V30 438 C 35.4585 5.06332 1.7185 0
M  V30 439 C 36.7585 5.20242 -0.463178 0
M  V30 440 H 38.4525 2.94466 -0.541307 0
M  V30 441 H 35.9985 1.41601 -0.261764 0
M  V30 442 H 37.9515 3.84569 1.72293 0
M  V30 443 H 36.6755 2.62315 1.94573 0
M  V30 444 H 35.3345 3.66501 0.085054 0
M  V30 445 H 34.9825 4.39186 2.45203 0
M  V30 446 H 34.6825 5.72762 1.31213 0
M  V30 447 H 36.2065 5.67899 2.24329 0
M  V30 448 H 37.6205 5.73293 -0.027502 0
M  V30 449 H 36.0175 5.94896 -0.788627 0
M  V30 450 H 37.0875 4.65504 -1.35773 0
M  V30 451 N 38.4306 0.297415 1.54768 0
M  V30 452 C 39.6586 -0.315623 2.04478 0
M  V30 453 C 40.0736 -1.47792 1.17486 0
M  V30 454 O 39.4306 -1.81404 0.19971 0
M  V30 455 C 39.4816 -0.7753 3.53088 0
M  V30 456 O 39.2026 0.340732 4.36773 0
M  V30 457 C 40.7036 -1.45386 4.18781 0
M  V30 458 H 37.9236 -0.0690887 0.667434 0
M  V30 459 H 40.4676 0.436003 1.99798 0
M  V30 460 H 38.6226 -1.47696 3.58141 0
M  V30 461 H 39.0366 -0.0165035 5.24497 0
M  V30 462 H 40.5106 -1.72669 5.24299 0
M  V30 463 H 40.9876 -2.39275 3.68299 0
M  V30 464 H 41.5936 -0.795475 4.17795 0
M  V30 465 N 39.9087 -1.5758 0.0250728 0
M  V30 466 C 41.1547 -1.91917 -0.655413 0
M  V30 467 C 41.4877 -0.901433 -1.72011 0
M  V30 468 O 40.7627 0.0764069 -1.9435 0
M  V30 469 C 41.0457 -3.36751 -1.27558 0
M  V30 470 C 40.8987 -4.49258 -0.220719 0
M  V30 471 C 42.2177 -3.81469 -2.19475 0
M  V30 472 H 39.3367 -0.697925 -0.23679 0
M  V30 473 H 41.9787 -1.89825 0.0815036 0
M  V30 474 H 40.1287 -3.38664 -1.90365 0
M  V30 475 H 41.8007 -4.59478 0.409601 0
M  V30 476 H 40.0437 -4.31415 0.454264 0
M  V30 477 H 40.7147 -5.47618 -0.694175 0
M  V30 478 H 43.1907 -3.81266 -1.66659 0
M  V30 479 H 42.0667 -4.83512 -2.59822 0
M  V30 480 H 42.3277 -3.16744 -3.08424 0
M  V30 481 N 41.3868 0.248026 -1.55636 0
M  V30 482 C 42.7978 0.817177 -1.67866 0
M  V30 483 C 43.1488 1.86069 -0.622322 0
M  V30 484 O 42.2738 2.15157 0.231618 0
M  V30 485 C 42.8688 1.489 -3.04326 0
M  V30 486 C 41.4278 2.00587 -3.185 0
M  V30 487 C 40.5748 0.856573 -2.63739 0
M  V30 488 H 43.5258 0.0238579 -1.58682 0
M  V30 489 H 43.5468 2.35698 -2.98708 0
M  V30 490 H 43.0588 0.729279 -3.81186 0
M  V30 491 H 41.1598 2.79443 -2.4646 0
M  V30 492 H 41.2728 2.20402 -4.25393 0
M  V30 493 H 39.6368 1.25678 -2.21534 0
M  V30 494 H 40.4198 0.109953 -3.43124 0
M  V30 495 N 42.8649 1.48995 0.513639 0
M  V30 496 C 44.2759 1.5119 1.09537 0
M  V30 497 C 44.6269 0.290906 1.94031 0
M  V30 498 O 43.7519 -0.60049 2.07902 0
M  V30 499 C 44.3469 2.73964 1.99322 0
M  V30 500 C 42.9059 2.78978 2.52682 0
M  V30 501 C 42.0529 2.44934 1.30009 0
M  V30 502 H 45.0039 1.55875 0.298125 0
M  V30 503 H 45.0249 2.53409 2.83838 0
M  V30 504 H 44.5369 3.62813 1.37799 0
M  V30 505 H 42.6379 1.94378 3.1788 0
M  V30 506 H 42.7509 3.8083 2.90698 0
M  V30 507 H 41.1149 1.9644 1.62122 0
M  V30 508 H 41.8979 3.36043 0.702131 0
M  V30 509 N 44.343 -0.763751 1.37857 0
M  V30 510 C 45.589 -1.52483 1.33704 0
M  V30 511 C 45.922 -1.94051 -0.0759612 0
M  V30 512 O 45.197 -1.64675 -1.03501 0
M  V30 513 C 45.48 -2.78441 2.28348 0
M  V30 514 C 45.333 -2.43075 3.78463 0
M  V30 515 C 46.652 -3.80415 2.21298 0
M  V30 516 H 43.771 -0.553169 0.487005 0
M  V30 517 H 46.413 -0.875562 1.68624 0
M  V30 518 H 44.563 -3.33842 1.987 0
M  V30 519 H 46.235 -1.93527 4.18742 0
M  V30 520 H 44.478 -1.75666 3.96641 0
M  V30 521 H 45.149 -3.33149 4.40132 0
M  V30 522 H 47.625 -3.34527 2.47449 0
M  V30 523 H 46.501 -4.66257 2.89647 0
M  V30 524 H 46.762 -4.25262 1.20849 0
M  V30 525 N 45.8211 -1.22559 -0.990812 0
M  V30 526 C 47.0671 -1.05297 -1.73322 0
M  V30 527 C 47.4001 0.410655 -1.89808 0
M  V30 528 O 46.6751 1.30439 -1.44277 0
M  V30 529 C 46.9581 -1.76713 -3.13759 0
M  V30 530 C 46.8111 -3.30684 -3.04907 0
M  V30 531 C 48.1301 -1.52121 -4.12974 0
M  V30 532 H 45.2491 -0.38392 -0.629106 0
M  V30 533 H 47.8911 -1.50926 -1.15418 0
M  V30 534 H 46.0411 -1.37924 -3.63193 0
M  V30 535 H 47.7131 -3.7893 -2.63077 0
M  V30 536 H 45.9561 -3.60253 -2.41661 0
M  V30 537 H 46.6271 -3.75833 -4.04294 0
M  V30 538 H 49.1031 -1.85819 -3.72304 0
M  V30 539 H 47.9791 -2.04582 -5.0935 0
M  V30 540 H 48.2401 -0.454257 -4.3976 0
M  V30 541 N 47.2992 1.18797 -1.03562 0
M  V30 542 C 48.2462 2.22253 -0.622259 0
M  V30 543 C 49.2162 1.61987 0.36736 0
M  V30 544 O 50.4012 1.88986 0.262492 0
M  V30 545 C 47.5412 3.45097 0.0138462 0
M  V30 546 C 46.6542 4.19722 -1.02263 0
M  V30 547 C 45.7892 5.30009 -0.355573 0
M  V30 548 C 44.8282 5.96399 -1.37749 0
M  V30 549 N 43.9652 6.98234 -0.735766 0
M  V30 550 H 48.8052 2.56968 -1.50903 0
M  V30 551 H 46.3422 1.26245 -0.755017 0
M  V30 552 H 48.3002 4.15279 0.399948 0
M  V30 553 H 46.9302 3.11018 0.864158 0
M  V30 554 H 45.9822 3.48418 -1.52673 0
M  V30 555 H 47.2942 4.65227 -1.79903 0
M  V30 556 H 46.4482 6.0664 0.0850095 0
M  V30 557 H 45.1872 4.85592 0.452967 0
M  V30 558 H 44.1922 5.18512 -1.82826 0
M  V30 559 H 45.4172 6.42899 -2.18764 0
M  V30 560 H 43.3632 6.55979 0.0525597 0
M  V30 561 H 43.2802 7.41965 -1.44995 0
M  V30 562 H 44.5482 7.78845 -0.31941 0
M  V30 563 N 48.7773 0.814389 1.34928 0
M  V30 564 C 49.7073 0.244827 2.32213 0
M  V30 565 C 50.6883 -0.634024 1.57842 0
M  V30 566 O 51.8733 -0.562676 1.8587 0
M  V30 567 C 49.0033 -0.601106 3.42058 0
M  V30 568 C 47.9573 0.179896 4.27622 0
M  V30 569 C 47.2833 -0.788237 5.28858 0
M  V30 570 C 48.5833 1.38329 5.03649 0
M  V30 571 H 50.2773 1.05763 2.80097 0
M  V30 572 H 47.8233 0.510029 1.34665 0
M  V30 573 H 49.7763 -1.00968 4.09125 0
M  V30 574 H 48.5003 -1.44688 2.92802 0
M  V30 575 H 47.1593 0.569739 3.62146 0
M  V30 576 H 46.8073 -1.62973 4.75866 0
M  V30 577 H 46.5073 -0.269942 5.8698 0
M  V30 578 H 48.0313 -1.19485 5.98795 0
M  V30 579 H 49.4453 1.04918 5.63618 0
M  V30 580 H 47.8423 1.83662 5.71304 0
M  V30 581 H 48.9123 2.16592 4.33839 0
M  V30 582 N 50.2554 -1.46986 0.568584 0
M  V30 583 C 51.1654 -2.33942 -0.17555 0
M  V30 584 C 52.1814 -1.48891 -0.90041 0
M  V30 585 O 53.3574 -1.81794 -0.86676 0
M  V30 586 C 50.4224 -3.25811 -1.18524 0
M  V30 587 C 49.4834 -4.26757 -0.466582 0
M  V30 588 C 48.7164 -5.14236 -1.42817 0
M  V30 589 O 48.9394 -5.04379 -2.66379 0
M  V30 590 O 47.8734 -5.94412 -0.946453 0
M  V30 591 H 51.6994 -2.98896 0.538036 0
M  V30 592 H 49.2844 -1.4573 0.329097 0
M  V30 593 H 51.1664 -3.82527 -1.76779 0
M  V30 594 H 49.8414 -2.63471 -1.88055 0
M  V30 595 H 48.7484 -3.73769 0.157451 0
M  V30 596 H 50.0814 -4.91843 0.187485 0
M  V30 597 N 51.7335 -0.305618 -1.54608 0
M  V30 598 C 52.6815 0.584119 -2.25146 0
M  V30 599 C 53.6755 1.13326 -1.25911 0
M  V30 600 O 54.8815 1.08337 -1.43747 0
M  V30 601 H 51.2565 0.206983 -0.722954 0
M  V30 602 H 53.2275 -0.033291 -2.98381 0
M  V30 603 C 51.9765 1.74225 -3.009 0
M  V30 604 H 51.2995 1.32892 -3.77067 0
M  V30 605 H 52.7395 2.34077 -3.53531 0
M  V30 606 C 51.1985 2.64914 -2.0814 0
M  V30 607 O 51.7285 3.66137 -1.65246 0
M  V30 608 N 49.9345 2.3275 -1.74 0
M  V30 609 H 49.4815 1.50479 -2.09078 0
M  V30 610 H 49.4395 2.93694 -1.12211 0
M  V30 611 N 53.2116 1.57565 -0.0334293 0
M  V30 612 C 54.4596 1.91598 0.642999 0
M  V30 613 C 54.7806 0.910847 1.7242 0
M  V30 614 O 54.0506 -0.0469931 1.95844 0
M  V30 615 H 52.6306 0.707228 0.240496 0
M  V30 616 H 55.2926 1.94726 -0.0822488 0
M  V30 617 H 54.3886 2.92336 1.09298 0
M  V30 618 N 54.6897 -0.239769 1.55765 0
M  V30 619 C 55.9147 -0.988373 1.82335 0
M  V30 620 C 56.3397 -1.77886 0.611421 0
M  V30 621 O 55.6977 -1.75889 -0.439639 0
M  V30 622 C 55.7457 -1.89627 3.06715 0
M  V30 623 O 54.8497 -2.98904 2.84131 0
M  V30 624 H 54.1907 -0.280858 0.601677 0
M  V30 625 H 56.7207 -0.258597 2.02959 0
M  V30 626 H 56.7307 -2.30957 3.36338 0
M  V30 627 H 55.4057 -1.31511 3.9456 0
M  V30 628 H 53.9827 -2.61651 2.65694 0
M  V30 629 N 56.1678 -1.49265 -0.50573 0
M  V30 630 C 57.3928 -1.62478 -1.28902 0
M  V30 631 C 57.8178 -0.294332 -1.85783 0
M  V30 632 O 57.1758 0.737412 -1.65626 0
M  V30 633 C 57.2238 -2.69268 -2.39848 0
M  V30 634 O 56.3278 -2.28113 -3.43567 0
M  V30 635 H 55.6688 -0.54399 -0.380751 0
M  V30 636 H 58.1988 -1.95421 -0.605952 0
M  V30 637 H 58.2088 -2.91291 -2.85681 0
M  V30 638 H 56.8838 -3.65846 -1.97812 0
M  V30 639 H 55.4608 -2.16401 -3.03685 0
M  V30 640 N 57.6459 0.756429 -1.3826 0
M  V30 641 C 58.8739 1.54565 -1.3754 0
M  V30 642 C 59.2889 1.88767 0.0355331 0
M  V30 643 O 58.6459 1.52572 1.0014 0
M  V30 644 C 58.6969 2.84654 -2.22833 0
M  V30 645 O 58.4179 2.51912 -3.5843 0
M  V30 646 C 59.9189 3.78807 -2.30261 0
M  V30 647 H 57.1389 0.478353 -0.470553 0
M  V30 648 H 59.6829 0.936381 -1.81803 0
M  V30 649 H 57.8379 3.41965 -1.8204 0
M  V30 650 H 58.2519 3.35325 -4.03308 0
M  V30 651 H 59.7259 4.67045 -2.94233 0
M  V30 652 H 60.2029 4.19038 -1.31545 0
M  V30 653 H 60.8089 3.2742 -2.71433 0
M  V30 654 N 59.124 1.23083 0.984299 0
M  V30 655 C 60.072 1.00593 2.09723 0
M  V30 656 C 61.066 -0.0538014 1.69315 0
M  V30 657 O 62.272 0.0993719 1.79725 0
M  V30 658 H 58.647 0.30817 0.685956 0
M  V30 659 H 60.618 1.95012 2.2586 0
M  V30 660 C 59.367 0.609601 3.42314 0
M  V30 661 H 58.69 1.41675 3.73856 0
M  V30 662 H 60.13 0.491726 4.21139 0
M  V30 663 C 58.589 -0.681745 3.2993 0
M  V30 664 O 59.119 -1.73192 3.62446 0
M  V30 665 N 57.325 -0.656178 2.83095 0
M  V30 666 H 56.872 0.198759 2.56832 0
M  V30 667 H 56.83 -1.52044 2.75191 0
M  V30 668 N 60.6021 -1.18246 1.0419 0
M  V30 669 C 61.8481 -1.88536 0.747122 0
M  V30 670 C 62.1811 -1.80223 -0.723409 0
M  V30 671 O 61.4561 -1.20337 -1.52804 0
M  V30 672 C 61.7391 -3.38968 1.21544 0
M  V30 673 C 61.5921 -3.56084 2.74816 0
M  V30 674 C 62.9111 -4.32648 0.806482 0
M  V30 675 H 60.0301 -0.684619 0.272883 0
M  V30 676 H 62.6721 -1.39113 1.29413 0
M  V30 677 H 60.8221 -3.8119 0.750081 0
M  V30 678 H 62.4941 -3.22946 3.29399 0
M  V30 679 H 60.7371 -2.98699 3.14582 0
M  V30 680 H 61.4081 -4.61639 3.02644 0
M  V30 681 H 63.8841 -3.98211 1.20695 0
M  V30 682 H 62.7601 -5.36462 1.1619 0
M  V30 683 H 63.0211 -4.41146 -0.29029 0
M  V30 684 N 62.0802 -0.821533 -1.34494 0
M  V30 685 C 63.3052 -0.420873 -2.03085 0
M  V30 686 C 63.7302 0.964915 -1.61465 0
M  V30 687 O 63.0882 1.62763 -0.798607 0
M  V30 688 C 63.1362 -0.529414 -3.56693 0
M  V30 689 O 62.2402 0.451302 -4.09923 0
M  V30 690 H 61.5812 -0.173489 -0.640935 0
M  V30 691 H 64.1112 -1.11157 -1.71771 0
M  V30 692 H 64.1212 -0.404671 -4.05988 0
M  V30 693 H 62.7962 -1.54014 -3.86332 0
M  V30 694 H 61.3732 0.285558 -3.71805 0
M  V30 695 N 63.5583 1.46682 -0.576371 0
M  V30 696 C 64.4883 2.33028 0.148397 0
M  V30 697 C 65.4693 1.44961 0.889956 0
M  V30 698 O 66.6543 1.73789 0.866662 0
M  V30 699 C 63.7843 3.27117 1.1667 0
M  V30 700 C 62.7383 4.24575 0.540386 0
M  V30 701 C 62.0643 5.08126 1.6647 0
M  V30 702 C 63.3643 5.19722 -0.518331 0
M  V30 703 H 65.0583 2.93875 -0.572509 0
M  V30 704 H 62.6043 1.41315 -0.276768 0
M  V30 705 H 64.5573 3.86374 1.68204 0
M  V30 706 H 63.2813 2.64364 1.9178 0
M  V30 707 H 61.9403 3.66571 0.0461769 0
M  V30 708 H 61.5883 4.41762 2.40531 0
M  V30 709 H 61.2883 5.74122 1.25131 0
M  V30 710 H 62.8123 5.70246 2.18293 0
M  V30 711 H 64.2263 5.73232 -0.0883058 0
M  V30 712 H 62.6233 5.94026 -0.851679 0
M  V30 713 H 63.6933 4.64037 -1.40703 0
M  V30 714 N 65.0364 0.313813 1.54444 0
M  V30 715 C 66.2644 -0.293918 2.04802 0
M  V30 716 C 66.6794 -1.46537 1.19047 0
M  V30 717 O 66.0364 -1.81182 0.218939 0
M  V30 718 C 66.0874 -0.737806 3.53891 0
M  V30 719 O 65.8084 0.387038 4.36387 0
M  V30 720 C 67.3094 -1.40936 4.203 0
M  V30 721 H 64.5294 -0.0620057 0.668129 0
M  V30 722 H 67.0734 0.457169 1.99324 0
M  V30 723 H 65.2284 -1.43889 3.59687 0
M  V30 724 H 65.6424 0.0391274 5.24485 0
M  V30 725 H 67.1164 -1.67099 5.26101 0
M  V30 726 H 67.5934 -2.35355 3.70816 0
M  V30 727 H 68.1994 -0.751117 4.18615 0
M  V30 728 N 66.5145 -1.57545 0.0417849 0
M  V30 729 C 67.4445 -2.14009 -0.933929 0
M  V30 730 C 68.4255 -1.05938 -1.33083 0
M  V30 731 O 69.6105 -1.33833 -1.40721 0
M  V30 732 C 66.7405 -2.67747 -2.21199 0
M  V30 733 C 65.6945 -3.80718 -1.95544 0
M  V30 734 C 65.0205 -4.20935 -3.29724 0
M  V30 735 C 66.3205 -5.06258 -1.28452 0
M  V30 736 H 68.0145 -2.95788 -0.463645 0
M  V30 737 H 65.5605 -1.42285 -0.221573 0
M  V30 738 H 67.5135 -3.05886 -2.89848 0
M  V30 739 H 66.2375 -1.83147 -2.70416 0
M  V30 740 H 64.8965 -3.43037 -1.2931 0
M  V30 741 H 64.5445 -3.33298 -3.76724 0
M  V30 742 H 64.2445 -4.9707 -3.13361 0
M  V30 743 H 65.7685 -4.61666 -3.9962 0
M  V30 744 H 67.1825 -5.41903 -1.8712 0
M  V30 745 H 65.5795 -5.87475 -1.22445 0
M  V30 746 H 66.6495 -4.84207 -0.259219 0
M  V30 747 N 67.9926 0.231505 -1.5589 0
M  V30 748 C 69.4086 0.580748 -1.48659 0
M  V30 749 C 69.6086 1.87617 -0.73498 0
M  V30 750 O 68.6646 2.51046 -0.270586 0
M  V30 751 C 69.9776 0.669202 -2.93159 0
M  V30 752 C 71.5256 0.760499 -3.03621 0
M  V30 753 C 72.0006 0.880383 -4.49459 0
M  V30 754 N 73.4916 0.944861 -4.53461 0
M  V30 755 C 74.2266 1.05716 -5.63571 0
M  V30 756 N 73.7226 1.13403 -6.83456 0
M  V30 757 N 75.5156 1.09152 -5.514 0
M  V30 758 H 67.6666 -0.618695 -2.03189 0
M  V30 759 H 69.9296 -0.215728 -0.923128 0
M  V30 760 H 69.6356 -0.212904 -3.51055 0
M  V30 761 H 69.5096 1.5361 -3.44505 0
M  V30 762 H 71.8966 1.63305 -2.45796 0
M  V30 763 H 71.9776 -0.131864 -2.5546 0
M  V30 764 H 71.6216 0.0123284 -5.07899 0
M  V30 765 H 71.5516 1.78802 -4.95316 0
M  V30 766 H 74.0426 0.896176 -3.6712 0
M  V30 767 H 74.3556 1.21921 -7.63122 0
M  V30 768 H 72.7006 1.10333 -6.86186 0
M  V30 769 H 75.8916 1.02805 -4.56671 0
M  V30 770 H 76.0646 1.17558 -6.37247 0
M  V30 771 N 69.4707 1.49531 0.497807 0
M  V30 772 C 70.8817 1.52344 1.07927 0
M  V30 773 C 71.2327 0.311469 1.93712 0
M  V30 774 O 70.3577 -0.578405 2.08527 0
M  V30 775 C 70.9527 2.76062 1.96405 0
M  V30 776 C 69.5117 2.81643 2.49709 0
M  V30 777 C 68.6587 2.46299 1.27404 0
M  V30 778 H 71.6097 1.56182 0.281576 0
M  V30 779 H 71.6307 2.56405 2.81135 0
M  V30 780 H 71.1427 3.64254 1.33943 0
M  V30 781 H 69.2437 1.97739 3.15801 0
M  V30 782 H 69.3567 3.83891 2.86643 0
M  V30 783 H 67.7207 1.98148 1.60029 0
M  V30 784 H 68.5037 3.36769 0.66645 0
M  V30 785 N 70.9488 -0.749086 1.3866 0
M  V30 786 C 72.3598 -1.32664 1.31366 0
M  V30 787 C 72.7108 -1.96179 -0.028484 0
M  V30 788 O 71.8358 -1.9537 -0.93057 0
M  V30 789 C 72.4308 -2.41219 2.37905 0
M  V30 790 C 70.9898 -2.94684 2.34176 0
M  V30 791 C 70.1368 -1.68108 2.20533 0
M  V30 792 H 73.0878 -0.547628 1.48952 0
M  V30 793 H 73.1088 -3.21268 2.0388 0
M  V30 794 H 72.6208 -1.94962 3.35576 0
M  V30 795 H 70.7218 -3.45258 1.401 0
M  V30 796 H 70.8348 -3.48757 3.2849 0
M  V30 797 H 69.1988 -1.91907 1.67463 0
M  V30 798 H 69.9818 -1.23923 3.20153 0
M  V30 799 N 72.4269 -1.23603 -0.977757 0
M  V30 800 C 73.3569 -1.04401 -2.0886 0
M  V30 801 C 74.3379 0.0399052 -1.70053 0
M  V30 802 O 75.5229 -0.125246 -1.93796 0
M  V30 803 C 72.6529 -0.637269 -3.41403 0
M  V30 804 C 71.6069 -1.66883 -3.94124 0
M  V30 805 C 70.9329 -1.11745 -5.22893 0
M  V30 806 C 72.2329 -3.06247 -4.23096 0
M  V30 807 H 73.9269 -1.97316 -2.25182 0
M  V30 808 H 71.4729 -0.950096 -1.08209 0
M  V30 809 H 73.4259 -0.48998 -4.18542 0
M  V30 810 H 72.1499 0.327557 -3.24953 0
M  V30 811 H 70.8089 -1.80416 -3.19133 0
M  V30 812 H 70.4569 -0.143527 -5.02795 0
M  V30 813 H 70.1569 -1.80672 -5.59134 0
M  V30 814 H 71.6809 -0.982067 -6.02651 0
M  V30 815 H 73.0949 -2.96001 -4.90975 0
M  V30 816 H 71.4919 -3.72436 -4.70544 0
M  V30 817 H 72.5619 -3.55041 -3.30263 0
M  V30 818 N 73.905 1.17692 -1.04816 0
M  V30 819 C 74.853 2.23632 -0.63966 0
M  V30 820 C 75.847 1.6601 0.337219 0
M  V30 821 O 77.053 1.78844 0.203693 0
M  V30 822 H 73.428 0.727949 -0.188665 0
M  V30 823 H 75.399 2.55387 -1.54337 0
M  V30 824 C 74.148 3.4769 -0.0264051 0
M  V30 825 H 73.471 3.92331 -0.769164 0
M  V30 826 H 74.911 4.23418 0.222098 0
M  V30 827 C 73.37 3.13807 1.22584 0
M  V30 828 O 73.9 3.28236 2.31569 0
M  V30 829 N 72.106 2.68065 1.12202 0
M  V30 830 H 71.653 2.56525 0.235133 0
M  V30 831 H 71.611 2.45767 1.96076 0
M  V30 832 N 75.3831 0.828654 1.34056 0
M  V30 833 C 76.3461 0.259927 2.27721 0
M  V30 834 C 77.3461 -0.565478 1.50529 0
M  V30 835 O 78.5361 -0.38075 1.69988 0
M  V30 836 C 75.6681 -0.634944 3.34935 0
M  V30 837 H 76.8611 1.0863 2.79534 0
M  V30 838 H 74.4141 0.600951 1.44285 0
M  V30 839 H 75.1491 -1.48416 2.88346 0
M  V30 840 H 74.9341 -0.0444999 3.92075 0
M  V30 841 H 76.4241 -1.02648 4.04788 0
M  V30 842 N 76.8612 -1.46375 0.584142 0
M  V30 843 C 78.0892 -2.06761 0.0759296 0
M  V30 844 C 78.5042 -1.43266 -1.22965 0
M  V30 845 O 77.8612 -0.538458 -1.74376 0
M  V30 846 C 77.9122 -3.61375 -0.0950384 0
M  V30 847 O 77.6332 -4.22495 1.15887 0
M  V30 848 C 79.1342 -4.38693 -0.637434 0
M  V30 849 H 76.3542 -0.668479 0.0581075 0
M  V30 850 H 78.8982 -1.8798 0.805218 0
M  V30 851 H 77.0532 -3.79578 -0.774554 0
M  V30 852 H 77.4672 -5.15385 0.973598 0
M  V30 853 H 78.9412 -5.47464 -0.706237 0
M  V30 854 H 79.4182 -4.06836 -1.65472 0
M  V30 855 H 80.0242 -4.25299 0.00725967 0
M  V30 856 N 78.3393 -0.321999 -1.54275 0
M  V30 857 C 79.2693 0.537411 -2.27231 0
M  V30 858 C 80.2503 1.12064 -1.27968 0
M  V30 859 O 81.4353 1.14606 -1.56777 0
M  V30 860 C 78.5653 1.69919 -3.02894 0
M  V30 861 C 77.5193 1.24534 -4.09482 0
M  V30 862 C 76.8453 2.49394 -4.72977 0
M  V30 863 C 78.1453 0.361335 -5.21049 0
M  V30 864 H 79.8393 -0.0711406 -2.99315 0
M  V30 865 H 77.3853 -0.0356555 -1.43956 0
M  V30 866 H 79.3383 2.30668 -3.52662 0
M  V30 867 H 78.0623 2.33431 -2.28424 0
M  V30 868 H 76.7213 0.660782 -3.60596 0
M  V30 869 H 76.3693 3.11265 -3.95124 0
M  V30 870 H 76.0693 2.19718 -5.44975 0
M  V30 871 H 77.5933 3.10908 -5.25517 0
M  V30 872 H 79.0073 0.875072 -5.66582 0
M  V30 873 H 77.4043 0.157428 -5.99893 0
M  V30 874 H 78.4743 -0.60822 -4.8107 0
M  V30 875 N 79.8174 1.5752 -0.0501392 0
M  V30 876 C 81.0634 1.92936 0.624798 0
M  V30 877 C 81.3964 0.928685 1.70555 0
M  V30 878 O 80.6714 -0.0454779 1.94447 0
M  V30 879 C 80.9544 3.38737 1.22185 0
M  V30 880 C 80.8074 4.49552 0.149218 0
M  V30 881 C 82.1264 3.84913 2.13378 0
M  V30 882 H 79.2454 0.701604 0.225657 0
M  V30 883 H 81.8874 1.89671 -0.111693 0
M  V30 884 H 80.0374 3.4165 1.84953 0
M  V30 885 H 81.7094 4.58768 -0.482648 0
M  V30 886 H 79.9524 4.30638 -0.522841 0
M  V30 887 H 80.6234 5.48653 0.606966 0
M  V30 888 H 83.0994 3.8387 1.60572 0
M  V30 889 H 81.9754 4.87584 2.52097 0
M  V30 890 H 82.2364 3.21611 3.03346 0
M  V30 891 N 81.2955 -0.223234 1.56011 0
M  V30 892 C 82.5445 -0.945912 1.78144 0
M  V30 893 C 82.8575 -1.85567 0.618396 0
M  V30 894 O 84.0635 -2.61688 0.723318 0
M  V30 895 C 82.5195 -1.73216 3.15475 0
M  V30 896 C 82.1275 -0.868619 4.39499 0
M  V30 897 C 83.8715 -2.44615 3.46935 0
M  V30 898 C 81.7785 -1.65212 5.67855 0
M  V30 899 H 80.7085 -0.356929 0.664167 0
M  V30 900 H 83.3595 -0.199845 1.82409 0
M  V30 901 H 81.7415 -2.52107 3.05382 0
M  V30 902 H 82.9155 -0.120366 4.60643 0
M  V30 903 H 81.2305 -0.26683 4.15544 0
M  V30 904 H 83.8275 -3.03732 4.40058 0
M  V30 905 H 84.1705 -3.17417 2.69355 0
M  V30 906 H 84.7035 -1.72715 3.58349 0
M  V30 907 H 81.4425 -0.967407 6.48322 0
M  V30 908 H 80.9625 -2.37503 5.50774 0
M  V30 909 H 82.6415 -2.21322 6.07968 0
M  V30 910 N 82.7736 -1.49793 -0.48987 0
M  V30 911 C 84.0016 -1.63568 -1.26701 0
M  V30 912 C 84.4166 -0.311465 -1.86213 0
M  V30 913 O 83.7736 0.704416 -1.68357 0
M  V30 914 C 83.8246 -2.71284 -2.38929 0
M  V30 915 O 83.5456 -3.9857 -1.81861 0
M  V30 916 C 85.0466 -2.95864 -3.3012 0
M  V30 917 H 82.2666 -0.550342 -0.383881 0
M  V30 918 H 84.8106 -1.95898 -0.586864 0
M  V30 919 H 82.9656 -2.417 -3.02753 0
M  V30 920 H 83.3796 -4.57993 -2.55622 0
M  V30 921 H 84.8536 -3.74941 -4.05121 0
M  V30 922 H 85.3306 -2.06206 -3.87783 0
M  V30 923 H 85.9366 -3.26907 -2.72051 0
M  V30 924 N 84.2517 0.741722 -1.39055 0
M  V30 925 C 85.4987 1.50114 -1.35912 0
M  V30 926 C 85.8267 1.94443 0.0470937 0
M  V30 927 O 85.0817 1.66612 1.02659 0
M  V30 928 C 85.3807 2.7592 -2.27163 0
M  V30 929 C 85.0467 2.50493 -3.74919 0
M  V30 930 C 83.7087 2.43267 -4.1518 0
M  V30 931 C 86.0607 2.28585 -4.684 0
M  V30 932 C 83.3887 2.12166 -5.46994 0
M  V30 933 C 85.7407 1.99002 -6.00484 0
M  V30 934 C 84.4047 1.90241 -6.39816 0
M  V30 935 H 83.6747 0.549306 -0.497336 0
M  V30 936 H 86.3217 0.851896 -1.71508 0
M  V30 937 H 84.6267 3.45553 -1.84663 0
M  V30 938 H 86.3237 3.33923 -2.22028 0
M  V30 939 H 82.9137 2.56992 -3.43006 0
M  V30 940 H 87.0977 2.33139 -4.38132 0
M  V30 941 H 82.3537 2.03901 -5.76398 0
M  V30 942 H 86.5277 1.81057 -6.72452 0
M  V30 943 H 84.1547 1.65907 -7.41875 0
M  V30 944 N 85.7298 1.2412 0.971189 0
M  V30 945 C 86.6398 1.04747 2.09917 0
M  V30 946 C 87.6558 -0.0107162 1.73997 0
M  V30 947 O 88.8318 0.186714 2.00533 0
M  V30 948 C 85.8968 0.650828 3.40537 0
M  V30 949 C 84.9578 1.7851 3.90426 0
M  V30 950 C 84.1908 1.40729 5.14812 0
M  V30 951 O 84.4138 0.29557 5.69634 0
M  V30 952 O 83.3478 2.23168 5.58999 0
M  V30 953 H 87.1738 1.99304 2.29154 0
M  V30 954 H 84.7588 1.02908 1.08307 0
M  V30 955 H 86.6408 0.440992 4.19086 0
M  V30 956 H 85.3158 -0.265649 3.22608 0
M  V30 957 H 84.2228 2.04966 3.12953 0
M  V30 958 H 85.5558 2.68023 4.12825 0
M  V30 959 N 87.2079 -1.17134 1.05439 0
M  V30 960 C 88.4569 -1.86791 0.761049 0
M  V30 961 C 88.7699 -1.82072 -0.714795 0
M  V30 962 O 89.9759 -2.47223 -1.12218 0
M  V30 963 C 88.4319 -3.35166 1.31117 0
M  V30 964 C 88.0399 -3.48381 2.81664 0
M  V30 965 C 89.7839 -4.10134 1.09499 0
M  V30 966 C 87.6909 -4.90793 3.29964 0
M  V30 967 H 86.6209 -0.699681 0.281002 0
M  V30 968 H 89.2719 -1.3226 1.27199 0
M  V30 969 H 87.6539 -3.8925 0.72803 0
M  V30 970 H 88.8279 -3.04502 3.45855 0
M  V30 971 H 87.1429 -2.86836 3.01851 0
M  V30 972 H 89.7399 -5.152 1.43084 0
M  V30 973 H 90.0829 -4.16287 0.0328772 0
M  V30 974 H 90.6159 -3.62264 1.64346 0
M  V30 975 H 87.3549 -4.89816 4.35616 0
M  V30 976 H 86.8749 -5.35333 2.70516 0
M  V30 977 H 88.5539 -5.59573 3.24787 0
M  V30 978 N 88.686 -0.835752 -1.33615 0
M  V30 979 C 89.914 -0.443344 -2.02094 0
M  V30 980 C 90.329 0.954522 -1.62894 0
M  V30 981 O 89.686 1.61982 -0.840723 0
M  V30 982 C 89.737 -0.550775 -3.5728 0
M  V30 983 O 89.458 -1.89356 -3.95065 0
M  V30 984 C 90.959 -0.154919 -4.43029 0
M  V30 985 H 88.179 -0.176359 -0.647409 0
M  V30 986 H 90.723 -1.12746 -1.70612 0
M  V30 987 H 88.878 0.0853997 -3.87306 0
M  V30 988 H 89.292 -1.87687 -4.89769 0
M  V30 989 H 90.766 -0.281144 -5.51284 0
M  V30 990 H 91.243 0.902863 -4.2982 0
M  V30 991 H 91.849 -0.765404 -4.18356 0
M  V30 992 N 90.1641 1.46063 -0.591896 0
M  V30 993 C 91.4111 2.02338 -0.0809991 0
M  V30 994 C 91.7391 1.46228 1.28249 0
M  V30 995 O 90.9941 0.620818 1.85592 0
M  V30 996 C 91.2931 3.57391 0.0249813 0
M  V30 997 C 90.9591 4.32583 -1.27211 0
M  V30 998 C 89.6211 4.52844 -1.62745 0
M  V30 999 C 91.9731 4.75687 -2.13005 0
M  V30 1000 C 89.3011 5.13462 -2.83855 0
M  V30 1001 C 91.6531 5.37644 -3.3335 0
M  V30 1002 C 90.3171 5.5613 -3.69155 0
M  V30 1003 H 89.5871 0.740407 -0.0296397 0
M  V30 1004 H 92.2341 1.75321 -0.770374 0
M  V30 1005 H 90.5391 3.83597 0.797537 0
M  V30 1006 H 92.2361 3.98621 0.436184 0
M  V30 1007 H 88.8261 4.17116 -0.985499 0
M  V30 1008 H 93.0101 4.59782 -1.86855 0
M  V30 1009 H 88.2661 5.25965 -3.11722 0
M  V30 1010 H 92.4401 5.7 -4.00092 0
M  V30 1011 H 90.0671 6.0287 -4.63089 0
M  V30 1012 N 91.6422 0.330177 1.54103 0
M  V30 1013 C 93.0582 -0.0222371 1.59585 0
M  V30 1014 C 93.2582 -1.49902 1.34654 0
M  V30 1015 O 92.3142 -2.25592 1.13421 0
M  V30 1016 C 93.6272 0.401932 2.98002 0
M  V30 1017 C 95.1752 0.353145 3.11001 0
M  V30 1018 C 95.6502 0.752576 4.51775 0
M  V30 1019 N 97.1412 0.706239 4.57784 0
M  V30 1020 C 97.8762 0.987417 5.64834 0
M  V30 1021 N 97.3722 1.33607 6.79795 0
M  V30 1022 N 99.1652 0.91254 5.54643 0
M  V30 1023 H 91.3162 1.29228 1.68564 0
M  V30 1024 H 93.5792 0.525906 0.78875 0
M  V30 1025 H 93.2852 1.4311 3.21267 0
M  V30 1026 H 93.1592 -0.229699 3.765 0
M  V30 1027 H 95.5462 -0.666822 2.87467 0
M  V30 1028 H 95.6272 1.0198 2.34593 0
M  V30 1029 H 95.2712 1.77049 4.76042 0
M  V30 1030 H 95.2012 0.0635409 5.26562 0
M  V30 1031 H 97.6922 0.44889 3.75224 0
M  V30 1032 H 98.0052 1.53582 7.57385 0
M  V30 1033 H 96.3502 1.37439 6.81275 0
M  V30 1034 H 99.5412 0.639601 4.6371 0
M  V30 1035 H 99.7142 1.13503 6.37982 0
M  V30 1036 N 93.1203 -1.57491 0.0584922 0
M  V30 1037 C 94.3453 -1.97711 -0.62652 0
M  V30 1038 C 94.7703 -0.936132 -1.63151 0
M  V30 1039 O 94.1283 0.099811 -1.81025 0
M  V30 1040 C 94.1763 -3.36989 -1.28338 0
M  V30 1041 O 93.2803 -3.35433 -2.39913 0
M  V30 1042 H 92.6213 -0.643868 -0.162266 0
M  V30 1043 H 95.1513 -2.04193 0.129064 0
M  V30 1044 H 95.1613 -3.73879 -1.63335 0
M  V30 1045 H 93.8363 -4.12289 -0.546889 0
M  V30 1046 H 92.4133 -3.10298 -2.06809 0
M  V30 1047 N 94.5984 0.214957 -1.56127 0
M  V30 1048 C 95.5454 1.26642 -1.92952 0
M  V30 1049 C 96.5154 1.46244 -0.78753 0
M  V30 1050 O 97.7004 1.59704 -1.04399 0
M  V30 1051 C 94.8404 2.6104 -2.25726 0
M  V30 1052 C 93.9534 2.49183 -3.52891 0
M  V30 1053 C 93.0884 3.76149 -3.7508 0
M  V30 1054 C 92.1274 3.59041 -4.95738 0
M  V30 1055 N 91.2644 4.77972 -5.14283 0
M  V30 1056 H 96.1044 0.945384 -2.82607 0
M  V30 1057 H 93.6414 0.455489 -1.3987 0
M  V30 1058 H 95.5994 3.39313 -2.42739 0
M  V30 1059 H 94.2294 2.91227 -1.39236 0
M  V30 1060 H 93.2814 1.6231 -3.44034 0
M  V30 1061 H 94.5934 2.32466 -4.41318 0
M  V30 1062 H 93.7474 4.62865 -3.92226 0
M  V30 1063 H 92.4864 3.95799 -2.84947 0
M  V30 1064 H 91.4914 2.7071 -4.78535 0
M  V30 1065 H 92.7164 3.40856 -5.87362 0
M  V30 1066 H 90.6624 4.97923 -4.27093 0
M  V30 1067 H 90.5794 4.64006 -5.96853 0
M  V30 1068 H 91.8474 5.66096 -5.35869 0
M  V30 1069 N 96.0765 1.50051 0.48192 0
M  V30 1070 C 97.0245 1.68635 1.60203 0
M  V30 1071 C 98.0185 0.552184 1.60148 0
M  V30 1072 O 99.2245 0.732377 1.64427 0
M  V30 1073 H 95.5995 0.532081 0.531407 0
M  V30 1074 H 97.5705 2.62616 1.41688 0
M  V30 1075 C 96.3195 1.78775 2.9822 0
M  V30 1076 H 95.6425 2.6543 2.98976 0
M  V30 1077 H 97.0825 1.95806 3.7608 0
M  V30 1078 C 95.5415 0.536849 3.32595 0
M  V30 1079 O 96.0715 -0.328897 4.00351 0
M  V30 1080 N 94.2775 0.394091 2.87915 0
M  V30 1081 H 93.8245 1.09962 2.32951 0
M  V30 1082 H 93.7825 -0.441737 3.11281 0
M  V30 1083 N 97.5546 -0.734337 1.39446 0
M  V30 1084 C 98.8036 -1.48937 1.36017 0
M  V30 1085 C 99.1166 -1.95557 -0.0409005 0
M  V30 1086 O 100.323 -2.70779 -0.19778 0
M  V30 1087 C 98.7786 -2.69125 2.38955 0
M  V30 1088 C 98.3866 -2.29452 3.8478 0
M  V30 1089 C 100.131 -3.46944 2.44603 0
M  V30 1090 C 98.0376 -3.46366 4.79358 0
M  V30 1091 H 96.9676 -0.559296 0.505672 0
M  V30 1092 H 99.6186 -0.800983 1.65095 0
M  V30 1093 H 98.0006 -3.40041 2.02948 0
M  V30 1094 H 99.1746 -1.66077 4.29831 0
M  V30 1095 H 97.4896 -1.64723 3.82433 0
M  V30 1096 H 100.087 -4.33907 3.12456 0
M  V30 1097 H 100.43 -3.89454 1.47076 0
M  V30 1098 H 100.963 -2.83056 2.79507 0
M  V30 1099 H 97.7016 -3.08905 5.78151 0
M  V30 1100 H 97.2216 -4.08719 4.38986 0
M  V30 1101 H 98.9006 -4.12691 4.98292 0
M  V30 1102 N 99.0327 -1.24633 -0.964593 0
M  V30 1103 C 100.261 -1.11501 -1.74285 0
M  V30 1104 C 100.676 0.332165 -1.85855 0
M  V30 1105 O 100.033 1.22903 -1.34911 0
M  V30 1106 C 100.084 -1.75258 -3.16175 0
M  V30 1107 O 99.8047 -3.14318 -3.05182 0
M  V30 1108 C 101.306 -1.67776 -4.10324 0
M  V30 1109 H 98.5257 -0.389407 -0.546446 0
M  V30 1110 H 101.07 -1.64801 -1.21083 0
M  V30 1111 H 99.2247 -1.25954 -3.66353 0
M  V30 1112 H 99.6387 -3.4551 -3.94618 0
M  V30 1113 H 101.113 -2.17064 -5.0753 0
M  V30 1114 H 101.59 -0.639584 -4.34518 0
M  V30 1115 H 102.196 -2.16522 -3.66058 0
M  V30 1116 N 100.511 1.16574 -1.06058 0
M  V30 1117 C 101.76 1.86385 -0.770944 0
M  V30 1118 C 102.073 1.82448 0.705129 0
M  V30 1119 O 103.279 2.47815 1.10905 0
M  V30 1120 C 101.735 3.34466 -1.32893 0
M  V30 1121 C 101.343 3.46883 -2.83507 0
M  V30 1122 C 103.087 4.09548 -1.11672 0
M  V30 1123 C 100.994 4.89036 -3.32562 0
M  V30 1124 H 99.9238 0.698181 -0.284709 0
M  V30 1125 H 102.575 1.31583 -1.27899 0
M  V30 1126 H 100.957 3.88859 -0.748662 0
M  V30 1127 H 102.131 3.02663 -3.47465 0
M  V30 1128 H 100.446 2.85232 -3.03368 0
M  V30 1129 H 103.043 5.14434 -1.45814 0
M  V30 1130 H 103.386 4.16264 -0.0549535 0
M  V30 1131 H 103.919 3.61387 -1.66265 0
M  V30 1132 H 100.658 4.87499 -4.38207 0
M  V30 1133 H 100.178 5.3389 -2.73351 0
M  V30 1134 H 101.857 5.57843 -3.2775 0
M  V30 1135 N 101.989 0.842826 1.3317 0
M  V30 1136 C 102.919 0.294028 2.31641 0
M  V30 1137 C 103.9 -0.600401 1.59151 0
M  V30 1138 O 105.085 -0.523124 1.87022 0
M  V30 1139 C 102.215 -0.528416 3.43257 0
M  V30 1140 C 101.169 0.27056 4.27144 0
M  V30 1141 C 100.495 -0.675881 5.30411 0
M  V30 1142 C 101.795 1.48981 5.00602 0
M  V30 1143 H 103.489 1.11681 2.77791 0
M  V30 1144 H 101.035 0.538478 1.33553 0
M  V30 1145 H 102.988 -0.922674 4.11175 0
M  V30 1146 H 101.712 -1.38445 2.95805 0
M  V30 1147 H 100.371 0.646427 3.60856 0
M  V30 1148 H 100.019 -1.52842 4.79216 0
M  V30 1149 H 99.7189 -0.145374 5.8742 0
M  V30 1150 H 101.243 -1.06757 6.01195 0
M  V30 1151 H 102.657 1.16849 5.61266 0
M  V30 1152 H 101.054 1.95739 5.6728 0
M  V30 1153 H 102.124 2.25746 4.29147 0
M  V30 1154 N 103.467 -1.45747 0.599634 0
M  V30 1155 C 104.377 -2.34262 -0.125888 0
M  V30 1156 C 105.393 -1.50768 -0.868625 0
M  V30 1157 O 106.569 -1.83592 -0.828003 0
M  V30 1158 C 103.634 -3.28252 -1.11587 0
M  V30 1159 C 102.695 -4.27651 -0.375956 0
M  V30 1160 C 101.928 -5.1715 -1.31877 0
M  V30 1161 O 102.151 -5.09916 -2.55621 0
M  V30 1162 O 101.085 -5.96286 -0.820157 0
M  V30 1163 H 104.911 -2.97688 0.601315 0
M  V30 1164 H 102.496 -1.44999 0.359934 0
M  V30 1165 H 104.378 -3.86191 -1.68626 0
M  V30 1166 H 103.053 -2.67401 -1.82424 0
M  V30 1167 H 101.96 -3.7335 0.236698 0
M  V30 1168 H 103.293 -4.91334 0.29177 0
M  V30 1169 N 104.945 -0.338344 -1.53925 0
M  V30 1170 C 105.875 0.51328 -2.27789 0
M  V30 1171 C 106.856 1.107 -1.29149 0
M  V30 1172 O 108.041 1.12937 -1.57984 0
M  V30 1173 C 105.171 1.66697 -3.04679 0
M  V30 1174 C 104.125 1.20183 -4.1078 0
M  V30 1175 C 103.451 2.44363 -4.75595 0
M  V30 1176 C 104.751 0.30605 -5.21403 0
M  V30 1177 H 106.445 -0.102883 -2.99223 0
M  V30 1178 H 103.991 -0.0509219 -1.4391 0
M  V30 1179 H 105.944 2.26915 -3.55088 0
M  V30 1180 H 104.668 2.30995 -2.30887 0
M  V30 1181 H 103.327 0.622499 -3.61276 0
M  V30 1182 H 102.975 3.07057 -3.98403 0
M  V30 1183 H 102.675 2.13925 -5.47275 0
M  V30 1184 H 104.199 3.05317 -5.28786 0
M  V30 1185 H 105.613 0.814929 -5.67478 0
M  V30 1186 H 104.01 0.0937929 -6.00027 0
M  V30 1187 H 105.08 -0.65921 -4.80398 0
M  V30 1188 N 106.423 1.57458 -0.0668435 0
M  V30 1189 C 107.834 1.80776 0.466558 0
M  V30 1190 C 108.185 0.980361 1.69951 0
M  V30 1191 O 107.31 0.201441 2.1546 0
M  V30 1192 C 107.905 3.27881 0.85321 0
M  V30 1193 C 106.464 3.52062 1.3315 0
M  V30 1194 C 105.611 2.75513 0.314264 0
M  V30 1195 H 108.562 1.5598 -0.292588 0
M  V30 1196 H 108.583 3.39659 1.715 0
M  V30 1197 H 108.095 3.88075 -0.0443439 0
M  V30 1198 H 106.196 2.97167 2.24772 0
M  V30 1199 H 106.309 4.60762 1.31285 0
M  V30 1200 H 104.673 2.42123 0.790492 0
M  V30 1201 H 105.456 3.38442 -0.575477 0
M  V30 1202 N 107.901 -0.206675 1.56239 0
M  V30 1203 C 109.178 -0.954051 1.70755 0
M  V30 1204 C 109.558 -2.01841 0.618353 0
M  V30 1205 O 108.906 -2.25444 -0.372434 0
M  V30 1206 C 109.116 -1.551 3.12642 0
M  V30 1207 C 110.464 -2.03757 3.72516 0
M  V30 1208 O 111.488 -1.64965 3.15698 0
M  V30 1209 O 110.347 -2.75103 4.72208 0
M  V30 1210 H 107.441 -0.446636 0.696021 0
M  V30 1211 H 109.987 -0.197283 1.68549 0
M  V30 1212 H 108.759 -0.783212 3.83382 0
M  V30 1213 H 108.382 -2.37291 3.19028 0
M  V30 1214 N 109.379 -1.50304 -0.473955 0
M  V30 1215 C 110.289 -1.7174 -1.5982 0
M  V30 1216 C 111.305 -0.600457 -1.63311 0
M  V30 1217 O 112.481 -0.878441 -1.81233 0
M  V30 1218 C 109.546 -1.80427 -2.96052 0
M  V30 1219 C 108.607 -3.04148 -3.02972 0
M  V30 1220 C 107.84 -3.12411 -4.32706 0
M  V30 1221 O 108.063 -2.27542 -5.23049 0
M  V30 1222 O 106.997 -4.05113 -4.45159 0
M  V30 1223 H 110.823 -2.67035 -1.44657 0
M  V30 1224 H 108.408 -1.34366 -0.653148 0
M  V30 1225 H 110.29 -1.88338 -3.7697 0
M  V30 1226 H 108.965 -0.883156 -3.11419 0
M  V30 1227 H 107.872 -3.0174 -2.21142 0
M  V30 1228 H 109.205 -3.95829 -2.92541 0
M  V30 1229 N 110.857 0.726932 -1.39834 0
M  V30 1230 C 112.103 1.48884 -1.377 0
M  V30 1231 C 112.436 1.94185 0.0244852 0
M  V30 1232 O 111.711 1.67361 0.990986 0
M  V30 1233 C 111.994 2.72288 -2.3565 0
M  V30 1234 C 111.847 2.32956 -3.84775 0
M  V30 1235 C 113.166 3.74414 -2.31306 0
M  V30 1236 H 110.285 0.540062 -0.5015 0
M  V30 1237 H 112.927 0.830547 -1.70886 0
M  V30 1238 H 111.077 3.28457 -2.07481 0
M  V30 1239 H 112.749 1.82356 -4.23726 0
M  V30 1240 H 110.992 1.65088 -4.01159 0
M  V30 1241 H 111.663 3.21362 -4.4881 0
M  V30 1242 H 114.139 3.27849 -2.56231 0
M  V30 1243 H 113.015 4.58414 -3.01907 0
M  V30 1244 H 113.276 4.21909 -1.32081 0
M  V30 1245 N 112.336 1.25143 0.95797 0
M  V30 1246 C 113.582 1.09855 1.70469 0
M  V30 1247 C 113.915 -0.360187 1.90831 0
M  V30 1248 O 113.19 -1.26568 1.47685 0
M  V30 1249 C 113.473 1.8497 3.08963 0
M  V30 1250 C 113.326 3.38652 2.96032 0
M  V30 1251 C 114.645 1.63016 4.08795 0
M  V30 1252 H 111.764 0.400465 0.618706 0
M  V30 1253 H 114.406 1.53933 1.11376 0
M  V30 1254 H 112.556 1.47505 3.59409 0
M  V30 1255 H 114.228 3.85772 2.52938 0
M  V30 1256 H 112.471 3.66534 2.32025 0
M  V30 1257 H 113.142 3.8642 3.94187 0
M  V30 1258 H 115.618 1.95625 3.67247 0
M  V30 1259 H 114.494 2.18015 5.03747 0
M  V30 1260 H 114.755 0.570692 4.38401 0
M  V30 1261 N 113.814 -1.1601 1.06675 0
M  V30 1262 C 115.06 -1.86909 0.786945 0
M  V30 1263 C 115.393 -1.81717 -0.685018 0
M  V30 1264 O 114.668 -1.23551 -1.50218 0
M  V30 1265 C 114.951 -3.36313 1.28707 0
M  V30 1266 C 114.804 -3.50175 2.82308 0
M  V30 1267 C 116.123 -4.3084 0.898071 0
M  V30 1268 H 113.242 -0.678677 0.287343 0
M  V30 1269 H 115.884 -1.36336 1.32334 0
M  V30 1270 H 114.034 -3.79513 0.830768 0
M  V30 1271 H 115.706 -3.15886 3.36175 0
M  V30 1272 H 113.949 -2.91959 3.20847 0
M  V30 1273 H 114.62 -4.55116 3.12368 0
M  V30 1274 H 117.096 -3.95561 1.29114 0
M  V30 1275 H 115.972 -5.33876 1.27543 0
M  V30 1276 H 116.233 -4.41662 -0.196651 0
M  V30 1277 N 115.292 -0.849877 -1.32721 0
M  V30 1278 C 116.703 -0.506188 -1.79707 0
M  V30 1279 C 117.054 0.975627 -1.70223 0
M  V30 1280 O 116.179 1.76078 -1.25799 0
M  V30 1281 C 116.774 -0.912044 -3.26293 0
M  V30 1282 C 115.333 -0.620326 -3.71253 0
M  V30 1283 C 114.48 -1.11439 -2.53922 0
M  V30 1284 H 117.431 -1.03754 -1.20087 0
M  V30 1285 H 117.452 -0.226493 -3.79825 0
M  V30 1286 H 116.964 -1.99057 -3.33164 0
M  V30 1287 H 115.065 0.447674 -3.69901 0
M  V30 1288 H 115.178 -1.18327 -4.64258 0
M  V30 1289 H 113.542 -0.534834 -2.49021 0
M  V30 1290 H 114.325 -2.19992 -2.6355 0
M  V30 1291 N 116.77 1.45427 -0.607355 0
M  V30 1292 C 118.181 1.85756 -0.187535 0
M  V30 1293 C 118.532 1.5077 1.25551 0
M  V30 1294 O 117.657 0.93427 1.95193 0
M  V30 1295 C 118.252 3.37154 -0.333572 0
M  V30 1296 C 116.811 3.76387 0.0315542 0
M  V30 1297 C 115.958 2.69377 -0.658117 0
M  V30 1298 H 118.909 1.36231 -0.81405 0
M  V30 1299 H 118.93 3.78014 0.43428 0
M  V30 1300 H 118.442 3.62586 -1.38393 0
M  V30 1301 H 116.543 3.56571 1.0811 0
M  V30 1302 H 116.656 4.77731 -0.361935 0
M  V30 1303 H 115.02 2.5452 -0.0957873 0
M  V30 1304 H 115.803 2.97646 -1.7106 0
M  V30 1305 N 118.248 0.346503 1.53744 0
M  V30 1306 C 119.496 -0.248612 2.00565 0
M  V30 1307 C 119.817 -1.5083 1.23593 0
M  V30 1308 O 119.087 -1.92858 0.343912 0
M  V30 1309 H 117.667 -0.0948564 0.740953 0
M  V30 1310 H 120.329 0.468341 1.89189 0
M  V30 1311 H 119.425 -0.488994 3.08245 0
M  V30 1312 N 119.726 -1.57421 0.075193 0
M  V30 1313 C 120.972 -1.93905 -0.594025 0
M  V30 1314 C 121.305 -0.955701 -1.69056 0
M  V30 1315 O 120.58 0.0145373 -1.94495 0
M  V30 1316 C 120.863 -3.40638 -1.1678 0
M  V30 1317 C 120.716 -4.49733 -0.0776792 0
M  V30 1318 C 122.035 -3.88259 -2.07228 0
M  V30 1319 H 119.154 -0.705105 -0.214466 0
M  V30 1320 H 121.796 -1.8947 0.141854 0
M  V30 1321 H 119.946 -3.44549 -1.79494 0
M  V30 1322 H 121.618 -4.57942 0.555573 0
M  V30 1323 H 119.861 -4.29751 0.591286 0
M  V30 1324 H 120.532 -5.49549 -0.519603 0
M  V30 1325 H 123.008 -3.86376 -1.54445 0
M  V30 1326 H 121.884 -4.91533 -2.44308 0
M  V30 1327 H 122.145 -3.26396 -2.98191 0
M  V30 1328 N 121.204 0.198386 -1.56346 0
M  V30 1329 C 122.432 0.935572 -1.84539 0
M  V30 1330 C 122.847 1.76989 -0.657281 0
M  V30 1331 O 122.204 1.78626 0.374043 0
M  V30 1332 C 122.255 1.8344 -3.11499 0
M  V30 1333 O 121.976 1.03377 -4.25728 0
M  V30 1334 C 123.477 2.68355 -3.52846 0
M  V30 1335 H 120.697 0.273126 -0.612897 0
M  V30 1336 H 123.241 0.20663 -2.03453 0
M  V30 1337 H 121.396 2.51701 -2.94492 0
M  V30 1338 H 121.81 1.64599 -4.98003 0
M  V30 1339 H 123.284 3.27085 -4.44657 0
M  V30 1340 H 123.761 3.41901 -2.75681 0
M  V30 1341 H 124.367 2.05471 -3.72373 0
M  V30 1342 N 122.682 1.50554 0.465978 0
M  V30 1343 C 123.63 1.70324 1.58406 0
M  V30 1344 C 124.624 0.569139 1.59553 0
M  V30 1345 O 125.83 0.749776 1.63641 0
M  V30 1346 H 122.205 0.537688 0.525734 0
M  V30 1347 H 124.176 2.64104 1.38894 0
M  V30 1348 C 122.925 1.81928 2.96307 0
M  V30 1349 H 122.248 2.68586 2.96144 0
M  V30 1350 H 123.688 1.99784 3.73982 0
M  V30 1351 C 122.147 0.572095 3.32007 0
M  V30 1352 O 122.677 -0.286416 4.00678 0
M  V30 1353 N 120.883 0.424606 2.87481 0
M  V30 1354 H 120.43 1.12427 2.31771 0
M  V30 1355 H 120.388 -0.408697 3.11732 0
M  V30 1356 N 124.16 -0.719506 1.40217 0
M  V30 1357 C 125.385 -1.51371 1.4178 0
M  V30 1358 C 125.81 -1.88091 0.0182355 0
M  V30 1359 O 125.168 -1.52997 -0.972707 0
M  V30 1360 C 125.216 -2.768 2.31115 0
M  V30 1361 O 124.32 -3.73349 1.7517 0
M  V30 1362 H 123.661 -0.456529 0.482159 0
M  V30 1363 H 126.191 -0.88644 1.844 0
M  V30 1364 H 126.201 -3.25371 2.46167 0
M  V30 1365 H 124.876 -2.49407 3.3282 0
M  V30 1366 H 123.453 -3.32179 1.69444 0
M  V30 1367 N 125.638 -1.25649 -0.95132 0
M  V30 1368 C 126.863 -1.13443 -1.73624 0
M  V30 1369 C 127.288 0.307565 -1.85568 0
M  V30 1370 O 126.646 1.22282 -1.33854 0
M  V30 1371 C 126.694 -1.79723 -3.12621 0
M  V30 1372 O 125.798 -1.07912 -3.98031 0
M  V30 1373 H 125.139 -0.395872 -0.533086 0
M  V30 1374 H 127.669 -1.66276 -1.1922 0
M  V30 1375 H 127.679 -1.86141 -3.63064 0
M  V30 1376 H 126.354 -2.84633 -3.03244 0
M  V30 1377 H 124.931 -1.09398 -3.56492 0
M  V30 1378 N 127.117 1.15442 -1.07289 0
M  V30 1379 C 128.364 1.86213 -0.795668 0
M  V30 1380 C 128.692 1.82291 0.678238 0
M  V30 1381 O 127.947 1.24057 1.51355 0
M  V30 1382 C 128.246 3.3489 -1.24834 0
M  V30 1383 C 127.912 3.59007 -2.72809 0
M  V30 1384 C 126.574 3.65298 -3.13227 0
M  V30 1385 C 128.926 3.68762 -3.68326 0
M  V30 1386 C 126.254 3.78854 -4.4798 0
M  V30 1387 C 128.606 3.83842 -5.0284 0
M  V30 1388 C 127.27 3.88378 -5.4288 0
M  V30 1389 H 126.54 0.681403 -0.291155 0
M  V30 1390 H 129.187 1.36435 -1.34379 0
M  V30 1391 H 127.492 3.8687 -0.619595 0
M  V30 1392 H 129.189 3.88052 -1.01076 0
M  V30 1393 H 125.779 3.5475 -2.40521 0
M  V30 1394 H 129.963 3.63202 -3.38227 0
M  V30 1395 H 125.219 3.80623 -4.78472 0
M  V30 1396 H 129.393 3.90332 -5.76727 0
M  V30 1397 H 127.02 3.98635 -6.47298 0
M  V30 1398 N 128.595 0.856903 1.32268 0
M  V30 1399 C 129.527 0.260412 2.27716 0
M  V30 1400 C 130.54 -0.569137 1.52528 0
M  V30 1401 O 131.729 -0.39326 1.74114 0
M  V30 1402 C 128.829 -0.650477 3.32599 0
M  V30 1403 C 128.002 0.14372 4.37164 0
M  V30 1404 C 127.061 -0.69328 5.21613 0
M  V30 1405 O 126.087 -0.12599 5.69061 0
M  V30 1406 N 127.289 -2.00761 5.44679 0
M  V30 1407 H 130.054 1.08059 2.79541 0
M  V30 1408 H 127.615 0.717103 1.45152 0
M  V30 1409 H 129.607 -1.21581 3.86005 0
M  V30 1410 H 128.177 -1.37133 2.80915 0
M  V30 1411 H 127.397 0.890486 3.8401 0
M  V30 1412 H 128.685 0.68915 5.04111 0
M  V30 1413 H 128.083 -2.49181 5.07863 0
M  V30 1414 H 126.64 -2.52103 6.01072 0
M  V30 1415 N 130.073 -1.45103 0.615059 0
M  V30 1416 C 131.319 -2.02483 0.113347 0
M  V30 1417 C 131.652 -1.48146 -1.25564 0
M  V30 1418 O 130.927 -0.659104 -1.82992 0
M  V30 1419 C 131.21 -3.60005 0.0825278 0
M  V30 1420 C 131.063 -4.2466 1.48271 0
M  V30 1421 C 132.382 -4.35972 -0.601401 0
M  V30 1422 H 129.501 -0.735764 0.0426632 0
M  V30 1423 H 132.143 -1.72868 0.788461 0
M  V30 1424 H 130.293 -3.85367 -0.492378 0
M  V30 1425 H 131.965 -4.10458 2.10527 0
M  V30 1426 H 130.208 -3.82772 2.04127 0
M  V30 1427 H 130.879 -5.336 1.41332 0
M  V30 1428 H 133.355 -4.15947 -0.112666 0
M  V30 1429 H 132.231 -5.45697 -0.592097 0
M  V30 1430 H 132.492 -4.09391 -1.66887 0
M  V30 1431 N 131.551 -0.354651 -1.53558 0
M  V30 1432 C 132.779 0.239515 -2.05509 0
M  V30 1433 C 133.194 1.4333 -1.2289 0
M  V30 1434 O 132.551 1.80538 -0.266899 0
M  V30 1435 C 132.602 0.643719 -3.55723 0
M  V30 1436 O 132.323 -0.502602 -4.35207 0
M  V30 1437 C 133.824 1.29743 -4.23889 0
M  V30 1438 H 131.044 0.0442697 -0.669538 0
M  V30 1439 H 133.588 -0.509856 -1.98042 0
M  V30 1440 H 131.743 1.34302 -3.63376 0
M  V30 1441 H 132.157 -0.178172 -5.24197 0
M  V30 1442 H 133.631 1.53091 -5.30346 0
M  V30 1443 H 134.108 2.25441 -3.76926 0
M  V30 1444 H 134.714 0.639865 -4.20459 0
M  V30 1445 N 133.029 1.57378 -0.0835403 0
M  V30 1446 C 134.254 1.98682 0.594987 0
M  V30 1447 C 134.679 0.961969 1.61641 0
M  V30 1448 O 134.037 -0.0709989 1.81161 0
M  V30 1449 C 134.085 3.38988 1.2296 0
M  V30 1450 O 133.189 3.39208 2.34546 0
M  V30 1451 H 132.53 0.646368 0.152002 0
M  V30 1452 H 135.06 2.03961 -0.161533 0
M  V30 1453 H 135.07 3.76431 1.57366 0
M  V30 1454 H 133.745 4.13107 0.481228 0
M  V30 1455 H 132.322 3.13548 2.01846 0
M  V30 1456 N 134.507 -0.190092 1.56449 0
M  V30 1457 C 135.439 -1.25973 1.91477 0
M  V30 1458 C 136.452 -1.41452 0.805931 0
M  V30 1459 O 137.641 -1.41789 1.08435 0
M  V30 1460 C 134.741 -2.63117 2.13594 0
M  V30 1461 C 133.914 -2.69182 3.4476 0
M  V30 1462 C 132.973 -3.87557 3.5593 0
M  V30 1463 O 131.999 -3.74427 4.28711 0
M  V30 1464 N 133.201 -5.03224 2.89388 0
M  V30 1465 H 135.966 -0.962394 2.83828 0
M  V30 1466 H 133.527 -0.379981 1.57378 0
M  V30 1467 H 135.519 -3.40742 2.1835 0
M  V30 1468 H 134.089 -2.85319 1.27719 0
M  V30 1469 H 133.309 -1.77793 3.51828 0
M  V30 1470 H 134.597 -2.70229 4.31107 0
M  V30 1471 H 133.995 -5.16791 2.30094 0
M  V30 1472 H 132.552 -5.78778 2.99764 0
M  V30 1473 N 135.985 -1.50799 -0.457987 0
M  V30 1474 C 136.933 -1.71162 -1.575 0
M  V30 1475 C 137.927 -0.577592 -1.59249 0
M  V30 1476 O 139.133 -0.758443 -1.63241 0
M  V30 1477 H 135.508 -0.540468 -0.522875 0
M  V30 1478 H 137.479 -2.64837 -1.37492 0
M  V30 1479 C 136.228 -1.83496 -2.95338 0
M  V30 1480 H 135.551 -2.70153 -2.94716 0
M  V30 1481 H 136.991 -2.01765 -3.72917 0
M  V30 1482 C 135.45 -0.589694 -3.31699 0
M  V30 1483 O 135.98 0.265163 -4.00824 0
M  V30 1484 N 134.186 -0.439845 -2.87252 0
M  V30 1485 H 133.733 -1.13655 -2.31172 0
M  V30 1486 H 133.691 0.392159 -3.11945 0
M  V30 1487 N 137.463 0.71206 -1.40597 0
M  V30 1488 C 138.709 1.47416 -1.39271 0
M  V30 1489 C 139.042 1.942 0.00388791 0
M  V30 1490 O 138.317 1.68403 0.973179 0
M  V30 1491 C 138.6 2.69774 -2.38525 0
M  V30 1492 C 138.453 2.28861 -3.87224 0
M  V30 1493 C 139.772 3.71939 -2.35264 0
M  V30 1494 H 136.891 0.534713 -0.5072 0
M  V30 1495 H 139.533 0.812375 -1.71757 0
M  V30 1496 H 137.683 3.26238 -2.10953 0
M  V30 1497 H 139.355 1.77852 -4.25636 0
M  V30 1498 H 137.598 1.60824 -4.02887 0
M  V30 1499 H 138.269 3.16584 -4.52193 0
M  V30 1500 H 140.745 3.25113 -2.59694 0
M  V30 1501 H 139.621 4.55186 -3.06753 0
M  V30 1502 H 139.882 4.20484 -1.36549 0
M  V30 1503 N 138.941 1.26152 0.944643 0
M  V30 1504 C 140.189 1.11271 1.6871 0
M  V30 1505 C 140.51 -0.345166 1.91921 0
M  V30 1506 O 139.78 -1.24387 1.51343 0
M  V30 1507 H 138.36 0.408783 0.625224 0
M  V30 1508 H 141.022 1.58427 1.1352 0
M  V30 1509 H 140.118 1.62879 2.66227 0
M  V30 1510 N 140.419 -1.14872 1.07899 0
M  V30 1511 C 141.351 -2.19425 0.662231 0
M  V30 1512 C 142.364 -1.60231 -0.288079 0
M  V30 1513 O 143.553 -1.78336 -0.076534 0
M  V30 1514 C 140.653 -3.38867 -0.0470695 0
M  V30 1515 C 139.826 -4.27597 0.920831 0
M  V30 1516 C 138.885 -5.25616 0.247805 0
M  V30 1517 O 137.911 -5.62189 0.890599 0
M  V30 1518 N 139.113 -5.71746 -1.00435 0
M  V30 1519 H 141.878 -2.55797 1.56166 0
M  V30 1520 H 139.439 -1.30042 0.964404 0
M  V30 1521 H 141.431 -4.01497 -0.50813 0
M  V30 1522 H 140.001 -3.00864 -0.848523 0
M  V30 1523 H 139.221 -3.61982 1.56087 0
M  V30 1524 H 140.509 -4.83748 1.57688 0
M  V30 1525 H 139.907 -5.44153 -1.54642 0
M  V30 1526 H 138.464 -6.36389 -1.40899 0
M  V30 1527 N 141.898 -0.863906 -1.31812 0
M  V30 1528 C 142.828 -0.330843 -2.31144 0
M  V30 1529 C 143.809 0.575005 -1.60087 0
M  V30 1530 O 144.994 0.493304 -1.8783 0
M  V30 1531 C 142.124 0.47374 -3.44054 0
M  V30 1532 C 141.078 -0.338481 -4.26659 0
M  V30 1533 C 140.404 0.591412 -5.31419 0
M  V30 1534 C 141.704 -1.56926 -4.98168 0
M  V30 1535 H 143.398 -1.16086 -2.75979 0
M  V30 1536 H 140.944 -0.559657 -1.32679 0
M  V30 1537 H 142.897 0.857143 -4.12591 0
M  V30 1538 H 141.621 1.33721 -2.9797 0
M  V30 1539 H 140.28 -0.703754 -3.59782 0
M  V30 1540 H 139.928 1.45199 -4.81587 0
M  V30 1541 H 139.628 0.0519022 -5.87577 0
M  V30 1542 H 141.152 0.97179 -6.02817 0
M  V30 1543 H 142.566 -1.25764 -5.59336 0
M  V30 1544 H 140.963 -2.04739 -5.64094 0
M  V30 1545 H 142.033 -2.32544 -4.25501 0
M  V30 1546 N 143.376 1.44774 -0.622745 0
M  V30 1547 C 144.604 2.06487 -0.130722 0
M  V30 1548 C 145.019 1.46476 1.19123 0
M  V30 1549 O 144.376 0.584502 1.72887 0
M  V30 1550 C 144.427 3.615 -0.000807207 0
M  V30 1551 O 144.148 4.19274 -1.27048 0
M  V30 1552 C 145.649 4.40229 0.520898 0
M  V30 1553 H 142.869 0.666704 -0.0758106 0
M  V30 1554 H 145.413 1.85779 -0.854774 0
M  V30 1555 H 143.568 3.81498 0.673643 0
M  V30 1556 H 143.982 5.12622 -1.1099 0
M  V30 1557 H 145.456 5.49144 0.560838 0
M  V30 1558 H 145.933 4.1108 1.54627 0
M  V30 1559 H 146.539 4.25131 -0.120018 0
M  V30 1560 N 144.854 0.36279 1.53368 0
M  V30 1561 C 146.1 -0.228113 2.01513 0
M  V30 1562 C 146.433 -1.48648 1.2497 0
M  V30 1563 O 145.708 -1.91459 0.342616 0
M  V30 1564 C 145.991 -0.522884 3.56284 0
M  V30 1565 C 145.844 0.74892 4.43521 0
M  V30 1566 C 147.163 -1.32461 4.19693 0
M  V30 1567 H 144.282 -0.0814343 0.732487 0
M  V30 1568 H 146.924 0.48713 1.83649 0
M  V30 1569 H 145.074 -1.1322 3.71636 0
M  V30 1570 H 146.746 1.38648 4.39971 0
M  V30 1571 H 144.989 1.36986 4.11603 0
M  V30 1572 H 145.66 0.497667 5.49752 0
M  V30 1573 H 148.136 -0.809203 4.08156 0
M  V30 1574 H 147.012 -1.49961 5.28018 0
M  V30 1575 H 147.273 -2.33232 3.75573 0
M  V30 1576 N 146.332 -1.57332 0.0918853 0
M  V30 1577 C 147.562 -1.98286 -0.580205 0
M  V30 1578 C 147.97 -0.969713 -1.6246 0
M  V30 1579 O 147.313 0.0493501 -1.83634 0
M  V30 1580 C 147.375 -3.35603 -1.28882 0
M  V30 1581 C 147.039 -4.55285 -0.395559 0
M  V30 1582 C 148.036 -5.18687 0.355002 0
M  V30 1583 C 145.721 -5.01314 -0.314556 0
M  V30 1584 C 147.715 -6.26484 1.17458 0
M  V30 1585 C 145.402 -6.08979 0.508677 0
M  V30 1586 C 146.4 -6.71429 1.2519 0
M  V30 1587 O 146.088 -7.77018 2.06151 0
M  V30 1588 H 145.82 -0.656678 -0.160466 0
M  V30 1589 H 148.374 -2.04721 0.16688 0
M  V30 1590 H 146.604 -3.25842 -2.08241 0
M  V30 1591 H 148.293 -3.61026 -1.85512 0
M  V30 1592 H 149.059 -4.84058 0.302134 0
M  V30 1593 H 144.938 -4.5247 -0.882697 0
M  V30 1594 H 148.482 -6.75159 1.75518 0
M  V30 1595 H 144.379 -6.4304 0.563037 0
M  V30 1596 H 145.147 -7.93991 1.98799 0
M  V30 1597 N 147.81 0.181792 -1.56548 0
M  V30 1598 C 148.74 1.22765 -1.98623 0
M  V30 1599 C 149.721 1.46747 -0.860189 0
M  V30 1600 O 150.906 1.58259 -1.12551 0
M  V30 1601 C 148.036 2.56894 -2.33715 0
M  V30 1602 C 146.99 2.475 -3.49182 0
M  V30 1603 C 146.316 3.86023 -3.69986 0
M  V30 1604 C 147.616 1.98866 -4.82959 0
M  V30 1605 H 149.31 0.877942 -2.86239 0
M  V30 1606 H 146.856 0.42088 -1.37712 0
M  V30 1607 H 148.809 3.30253 -2.61746 0
M  V30 1608 H 147.533 2.93632 -1.42997 0
M  V30 1609 H 146.192 1.76596 -3.21262 0
M  V30 1610 H 145.84 4.20136 -2.76576 0
M  V30 1611 H 145.54 3.80609 -4.47672 0
M  V30 1612 H 147.064 4.60984 -4.00407 0
M  V30 1613 H 148.478 2.61992 -5.09934 0
M  V30 1614 H 146.875 2.04424 -5.64208 0
M  V30 1615 H 147.945 0.942465 -4.75653 0
M  V30 1616 N 149.288 1.51039 0.449983 0
M  V30 1617 C 150.238 1.67824 1.54335 0
M  V30 1618 C 151.222 0.5324 1.51836 0
M  V30 1619 O 152.414 0.787762 1.58503 0
M  V30 1620 C 149.543 1.7951 2.92628 0
M  V30 1621 C 148.629 2.99838 2.9993 0
M  V30 1622 N 149.02 4.23207 2.77001 0
M  V30 1623 C 147.318 2.98832 3.31082 0
M  V30 1624 C 148.019 5.04361 2.89818 0
M  V30 1625 N 146.995 4.38746 3.2094 0
M  V30 1626 H 150.797 2.60884 1.35339 0
M  V30 1627 H 148.311 1.48513 0.657085 0
M  V30 1628 H 150.308 1.89642 3.7127 0
M  V30 1629 H 148.968 0.876227 3.12654 0
M  V30 1630 H 149.979 4.5236 2.52172 0
M  V30 1631 H 146.656 2.16527 3.56963 0
M  V30 1632 H 148.046 6.12528 2.76151 0
M  V30 1633 N 150.766 -0.704594 1.40972 0
M  V30 1634 C 152.014 -1.46169 1.39568 0
M  V30 1635 C 152.335 -1.95 0.00253745 0
M  V30 1636 O 151.605 -1.71095 -0.954114 0
M  V30 1637 H 150.185 -0.542326 0.513704 0
M  V30 1638 H 152.847 -0.834553 1.76128 0
M  V30 1639 H 151.943 -2.32922 2.07735 0
M  V30 1640 N 152.244 -1.26651 -0.937939 0
M  V30 1641 C 153.192 -1.08308 -2.05845 0
M  V30 1642 C 154.186 -0.0090757 -1.69398 0
M  V30 1643 O 155.392 -0.166007 -1.79233 0
M  V30 1644 H 151.767 -0.333416 -0.674046 0
M  V30 1645 H 153.738 -2.03261 -2.18467 0
M  V30 1646 C 152.487 -0.736229 -3.39816 0
M  V30 1647 H 151.81 -1.55453 -3.6834 0
M  V30 1648 H 153.25 -0.64769 -4.19024 0
M  V30 1649 C 151.709 0.558824 -3.32233 0
M  V30 1650 O 152.239 1.59621 -3.68624 0
M  V30 1651 N 150.445 0.550657 -2.85335 0
M  V30 1652 H 149.992 -0.293943 -2.55917 0
M  V30 1653 H 149.95 1.41726 -2.80644 0
M  V30 1654 N 153.722 1.14298 -1.08507 0
M  V30 1655 C 154.672 2.17449 -0.685569 0
M  V30 1656 C 155.656 1.58167 0.295315 0
M  V30 1657 O 156.848 1.76675 0.107172 0
M  V30 1658 C 153.977 3.43161 -0.0975318 0
M  V30 1659 C 153.063 4.09471 -1.10426 0
M  V30 1660 N 153.454 4.51089 -2.28806 0
M  V30 1661 C 151.752 4.35976 -0.940258 0
M  V30 1662 C 152.453 5.02654 -2.9277 0
M  V30 1663 N 151.429 4.96927 -2.20374 0
M  V30 1664 H 155.231 2.47369 -1.587 0
M  V30 1665 H 152.745 1.30992 -0.959936 0
M  V30 1666 H 154.742 4.16388 0.20664 0
M  V30 1667 H 153.402 3.14719 0.798872 0
M  V30 1668 H 154.413 4.44097 -2.66455 0
M  V30 1669 H 151.09 4.17386 -0.0977441 0
M  V30 1670 H 152.48 5.44723 -3.93352 0
M  V30 1671 N 155.201 0.870884 1.31352 0
M  V30 1672 C 156.426 0.495957 2.01383 0
M  V30 1673 C 156.851 -0.904324 1.64935 0
M  V30 1674 O 156.209 -1.59687 0.858466 0
M  V30 1675 C 156.257 0.661433 3.54482 0
M  V30 1676 O 155.361 -0.298851 4.11316 0
M  V30 1677 H 154.702 0.197158 0.634054 0
M  V30 1678 H 157.232 1.17455 1.67527 0
M  V30 1679 H 157.242 0.555072 4.04207 0
M  V30 1680 H 155.917 1.68246 3.8035 0
M  V30 1681 H 154.494 -0.147368 3.72609 0
M  V30 1682 N 156.679 -1.44442 0.630414 0
M  V30 1683 C 157.627 -2.32437 -0.0871428 0
M  V30 1684 C 158.621 -1.47304 -0.836525 0
M  V30 1685 O 159.827 -1.63653 -0.749506 0
M  V30 1686 H 156.202 -0.750533 -0.0469495 0
M  V30 1687 H 158.173 -2.90709 0.673096 0
M  V30 1688 C 156.922 -3.31288 -1.05563 0
M  V30 1689 H 156.245 -3.96805 -0.488426 0
M  V30 1690 H 157.685 -3.9554 -1.52721 0
M  V30 1691 C 156.144 -2.6016 -2.14052 0
M  V30 1692 O 156.674 -2.39997 -3.22124 0
M  V30 1693 N 154.88 -2.19911 -1.89967 0
M  V30 1694 H 154.427 -2.36509 -1.02085 0
M  V30 1695 H 154.385 -1.72646 -2.62756 0
M  V30 1696 N 158.157 -0.370918 -1.53173 0
M  V30 1697 C 159.089 0.507823 -2.23503 0
M  V30 1698 C 160.102 1.04182 -1.251 0
M  V30 1699 O 161.291 0.947286 -1.5129 0
M  V30 1700 C 158.391 1.71447 -2.92334 0
M  V30 1701 C 157.564 1.31105 -4.17289 0
M  V30 1702 C 156.623 2.38035 -4.69282 0
M  V30 1703 O 155.649 2.00204 -5.32829 0
M  V30 1704 N 156.851 3.69697 -4.47554 0
M  V30 1705 H 159.616 -0.0946382 -2.99551 0
M  V30 1706 H 157.177 -0.196358 -1.60705 0
M  V30 1707 H 159.169 2.42469 -3.24023 0
M  V30 1708 H 157.739 2.22368 -2.19707 0
M  V30 1709 H 156.959 0.430462 -3.91843 0
M  V30 1710 H 158.247 1.0179 -4.98514 0
M  V30 1711 H 157.645 4.03205 -3.9679 0
M  V30 1712 H 156.202 4.36807 -4.8378 0
M  V30 1713 N 159.635 1.57281 -0.100228 0
M  V30 1714 C 160.863 1.98879 0.570509 0
M  V30 1715 C 161.278 0.979476 1.61405 0
M  V30 1716 O 160.635 -0.0302288 1.82475 0
M  V30 1717 C 160.686 3.4052 1.2136 0
M  V30 1718 O 160.407 4.37588 0.211786 0
M  V30 1719 C 161.908 3.97149 1.96945 0
M  V30 1720 H 159.128 0.653428 0.152555 0
M  V30 1721 H 161.672 2.03697 -0.18103 0
M  V30 1722 H 159.827 3.367 1.91603 0
M  V30 1723 H 160.241 5.20118 0.676607 0
M  V30 1724 H 161.715 4.98393 2.37294 0
M  V30 1725 H 162.192 3.3525 2.83733 0
M  V30 1726 H 162.798 4.04458 1.31506 0
M  V30 1727 N 161.113 -0.173488 1.56642 0
M  V30 1728 C 162.361 -0.888706 1.81512 0
M  V30 1729 C 162.682 -1.82875 0.676872 0
M  V30 1730 O 161.952 -1.93536 -0.303414 0
M  V30 1731 H 160.532 -0.331164 0.669582 0
M  V30 1732 H 163.194 -0.173823 1.94123 0
M  V30 1733 H 162.29 -1.46691 2.75478 0
M  V30 1734 N 162.591 -1.51276 -0.441967 0
M  V30 1735 C 164.002 -1.56244 -1.02199 0
M  V30 1736 C 164.353 -0.383149 -1.92422 0
M  V30 1737 O 163.478 0.500613 -2.1053 0
M  V30 1738 C 164.073 -2.83162 -1.86024 0
M  V30 1739 C 162.632 -2.90716 -2.39084 0
M  V30 1740 C 161.779 -2.50858 -1.18175 0
M  V30 1741 H 164.73 -1.5712 -0.223416 0
M  V30 1742 H 164.751 -2.66663 -2.71425 0
M  V30 1743 H 164.263 -3.68974 -1.20331 0
M  V30 1744 H 162.364 -2.09323 -3.08244 0
M  V30 1745 H 162.477 -3.94266 -2.72198 0
M  V30 1746 H 160.841 -2.03951 -1.52565 0
M  V30 1747 H 161.624 -3.3901 -0.541001 0
M  V30 1748 N 164.069 0.697108 -1.41344 0
M  V30 1749 C 165.485 1.00751 -1.2378 0
M  V30 1750 C 165.685 2.01105 -0.126066 0
M  V30 1751 O 164.741 2.47295 0.51004 0
M  V30 1752 C 166.054 1.53359 -2.58653 0
M  V30 1753 C 167.602 1.6525 -2.65822 0
M  V30 1754 C 168.077 2.2126 -4.01009 0
M  V30 1755 N 169.568 2.28622 -4.02847 0
M  V30 1756 C 170.303 2.72984 -5.04249 0
M  V30 1757 N 169.799 3.16962 -6.16041 0
M  V30 1758 N 171.592 2.72534 -4.91611 0
M  V30 1759 H 163.743 0.0322662 -2.12375 0
M  V30 1760 H 166.006 0.0768853 -0.944877 0
M  V30 1761 H 165.712 0.870773 -3.4075 0
M  V30 1762 H 165.586 2.51597 -2.81032 0
M  V30 1763 H 167.973 2.30644 -1.84086 0
M  V30 1764 H 168.054 0.655614 -2.47256 0
M  V30 1765 H 167.698 1.56482 -4.83193 0
M  V30 1766 H 167.628 3.21698 -4.16915 0
M  V30 1767 H 170.119 1.97585 -3.22131 0
M  V30 1768 H 170.432 3.49434 -6.89287 0
M  V30 1769 H 168.777 3.14875 -6.1958 0
M  V30 1770 H 171.968 2.37525 -4.0336 0
M  V30 1771 H 172.141 3.06789 -5.70775 0
M  V30 1772 N 165.547 1.27147 0.931209 0
M  V30 1773 C 166.796 1.12664 1.67302 0
M  V30 1774 C 167.109 -0.327718 1.92835 0
M  V30 1775 O 168.315 -0.593392 2.64936 0
M  V30 1776 C 166.771 1.9683 3.01307 0
M  V30 1777 C 166.379 3.46901 2.83485 0
M  V30 1778 C 168.123 1.90985 3.79111 0
M  V30 1779 C 166.03 4.23279 4.13024 0
M  V30 1780 H 164.96 0.41803 0.627509 0
M  V30 1781 H 167.611 1.51539 1.03481 0
M  V30 1782 H 165.993 1.50797 3.66164 0
M  V30 1783 H 167.167 4.00773 2.27415 0
M  V30 1784 H 165.482 3.54088 2.19113 0
M  V30 1785 H 168.079 2.45328 4.75098 0
M  V30 1786 H 168.422 0.882718 4.06834 0
M  V30 1787 H 168.955 2.34895 3.21044 0
M  V30 1788 H 165.694 5.26503 3.90481 0
M  V30 1789 H 165.214 3.74186 4.6877 0
M  V30 1790 H 166.893 4.32265 4.81411 0
M  V30 1791 N 167.025 -1.13721 1.09112 0
M  V30 1792 C 168.441 -1.36914 0.820174 0
M  V30 1793 C 168.641 -1.93356 -0.567079 0
M  V30 1794 O 167.697 -2.15093 -1.32255 0
M  V30 1795 C 169.01 -2.3235 1.90877 0
M  V30 1796 C 170.558 -2.45973 1.93562 0
M  V30 1797 C 171.033 -3.44714 3.01556 0
M  V30 1798 N 172.524 -3.52263 3.00775 0
M  V30 1799 C 173.259 -4.28536 3.80978 0
M  V30 1800 N 172.755 -5.07991 4.71081 0
M  V30 1801 N 174.548 -4.23804 3.69251 0
M  V30 1802 H 166.699 -0.754348 1.98553 0
M  V30 1803 H 168.962 -0.3944 0.862063 0
M  V30 1804 H 168.668 -1.98027 2.90651 0
M  V30 1805 H 168.542 -3.32332 1.78424 0
M  V30 1806 H 170.929 -2.79584 0.944286 0
M  V30 1807 H 171.01 -1.45926 2.10093 0
M  V30 1808 H 170.654 -3.11835 4.00901 0
M  V30 1809 H 170.584 -4.44558 2.82269 0
M  V30 1810 H 173.075 -2.95567 2.35475 0
M  V30 1811 H 173.388 -5.63487 5.28869 0
M  V30 1812 H 171.733 -5.07235 4.75119 0
M  V30 1813 H 174.924 -3.60806 2.98222 0
M  V30 1814 H 175.097 -4.82995 4.31995 0
M  V30 1815 N 168.503 -0.877838 -1.30888 0
M  V30 1816 C 169.75 -0.492696 -1.96415 0
M  V30 1817 C 170.078 0.956671 -1.69346 0
M  V30 1818 O 169.333 1.68993 -0.986913 0
M  V30 1819 C 169.632 -0.705748 -3.50363 0
M  V30 1820 C 169.298 -2.1291 -3.97467 0
M  V30 1821 C 167.96 -2.51834 -4.1004 0
M  V30 1822 C 170.312 -3.05702 -4.22132 0
M  V30 1823 C 167.64 -3.82775 -4.44635 0
M  V30 1824 C 169.992 -4.36166 -4.58194 0
M  V30 1825 C 168.656 -4.74993 -4.68975 0
M  V30 1826 H 167.926 -0.18029 -0.718733 0
M  V30 1827 H 170.573 -1.11233 -1.55883 0
M  V30 1828 H 168.878 -0.00303058 -3.918 0
M  V30 1829 H 170.575 -0.387456 -3.99124 0
M  V30 1830 H 167.165 -1.81694 -3.88182 0
M  V30 1831 H 171.349 -2.76853 -4.11906 0
M  V30 1832 H 166.605 -4.12609 -4.51181 0
M  V30 1833 H 170.779 -5.08111 -4.76231 0
M  V30 1834 H 168.406 -5.76495 -4.95537 0
M  V30 1835 N 169.982 1.44106 -0.638065 0
M  V30 1836 C 170.912 2.33448 0.0494287 0
M  V30 1837 C 171.893 1.48606 0.827672 0
M  V30 1838 O 173.078 1.77308 0.792173 0
M  V30 1839 C 170.208 3.31771 1.02691 0
M  V30 1840 C 169.162 4.26485 0.359823 0
M  V30 1841 C 168.488 5.14729 1.44769 0
M  V30 1842 C 169.788 5.17056 -0.738296 0
M  V30 1843 H 171.482 2.91183 -0.696636 0
M  V30 1844 H 169.028 1.40014 -0.336456 0
M  V30 1845 H 170.981 3.93161 1.51666 0
M  V30 1846 H 169.705 2.7226 1.80395 0
M  V30 1847 H 168.364 3.66437 -0.10934 0
M  V30 1848 H 168.012 4.51566 2.21578 0
M  V30 1849 H 167.712 5.78913 1.00668 0
M  V30 1850 H 169.236 5.78991 1.93911 0
M  V30 1851 H 170.65 5.72342 -0.331354 0
M  V30 1852 H 169.047 5.89879 -1.10286 0
M  V30 1853 H 170.117 4.57652 -1.60258 0
M  V30 1854 N 171.46 0.379036 1.52974 0
M  V30 1855 C 172.706 -0.206727 2.01744 0
M  V30 1856 C 173.039 -1.47314 1.26539 0
M  V30 1857 O 172.314 -1.91084 0.362903 0
M  V30 1858 C 172.597 -0.485066 3.56818 0
M  V30 1859 C 172.45 0.795919 4.42702 0
M  V30 1860 C 173.769 -1.28003 4.21074 0
M  V30 1861 H 170.888 -0.0736607 0.73331 0
M  V30 1862 H 173.53 0.506581 1.83122 0
M  V30 1863 H 171.68 -1.09272 3.72816 0
M  V30 1864 H 173.352 1.43307 4.38476 0
M  V30 1865 H 171.595 1.41344 4.10127 0
M  V30 1866 H 172.266 0.555947 5.49193 0
M  V30 1867 H 174.742 -0.765867 4.08991 0
M  V30 1868 H 173.618 -1.44352 5.29579 0
M  V30 1869 H 173.879 -2.29236 3.78026 0
M  V30 1870 N 172.938 -1.57226 0.108567 0
M  V30 1871 C 174.187 -1.94008 -0.551703 0
M  V30 1872 C 174.5 -0.993442 -1.68494 0
M  V30 1873 O 175.706 -1.25551 -2.40726 0
M  V30 1874 C 174.162 -3.44763 -1.03279 0
M  V30 1875 C 173.77 -4.47943 0.0714193 0
M  V30 1876 C 175.514 -3.90483 -1.66503 0
M  V30 1877 C 173.421 -5.89865 -0.425779 0
M  V30 1878 H 172.351 -0.724206 -0.209863 0
M  V30 1879 H 175.002 -1.82547 0.186741 0
M  V30 1880 H 173.384 -3.51422 -1.82533 0
M  V30 1881 H 174.558 -4.52942 0.847365 0
M  V30 1882 H 172.873 -4.11913 0.609669 0
M  V30 1883 H 175.47 -4.93925 -2.04798 0
M  V30 1884 H 175.813 -3.29877 -2.53942 0
M  V30 1885 H 176.346 -3.86581 -0.938074 0
M  V30 1886 H 173.085 -6.54202 0.412316 0
M  V30 1887 H 172.605 -5.88309 -1.16843 0
M  V30 1888 H 174.284 -6.40844 -0.890397 0
M  V30 1889 N 174.416 0.165178 -1.56732 0
M  V30 1890 C 175.832 0.517174 -1.50988 0
M  V30 1891 C 176.032 1.84331 -0.813894 0
M  V30 1892 O 175.088 2.49672 -0.37682 0
M  V30 1893 C 176.401 0.544261 -2.95733 0
M  V30 1894 C 177.949 0.631039 -3.06573 0
M  V30 1895 C 178.424 0.68896 -4.52788 0
M  V30 1896 N 179.915 0.751683 -4.5706 0
M  V30 1897 C 180.65 0.817177 -5.67547 0
M  V30 1898 N 180.146 0.843129 -6.8765 0
M  V30 1899 N 181.939 0.856668 -5.55534 0
M  V30 1900 H 174.09 -0.704318 -2.00382 0
M  V30 1901 H 176.353 -0.254687 -0.913148 0
M  V30 1902 H 176.059 -0.361607 -3.49836 0
M  V30 1903 H 175.933 1.3886 -3.5071 0
M  V30 1904 H 178.32 1.52733 -2.52501 0
M  V30 1905 H 178.401 -0.240095 -2.54671 0
M  V30 1906 H 178.045 -0.2031 -5.07494 0
M  V30 1907 H 177.975 1.57633 -5.02454 0
M  V30 1908 H 180.466 0.739661 -3.70591 0
M  V30 1909 H 180.779 0.894448 -7.67606 0
M  V30 1910 H 179.124 0.811304 -6.90248 0
M  V30 1911 H 182.315 0.833437 -4.60621 0
M  V30 1912 H 182.488 0.904247 -6.4166 0
M  V30 1913 N 175.894 1.51508 0.433938 0
M  V30 1914 C 177.119 1.68443 1.21003 0
M  V30 1915 C 177.544 0.382636 1.84167 0
M  V30 1916 O 176.902 -0.65755 1.68956 0
M  V30 1917 C 176.95 2.80405 2.26727 0
M  V30 1918 O 176.054 2.44245 3.32292 0
M  V30 1919 H 175.395 0.561536 0.354363 0
M  V30 1920 H 177.925 1.9809 0.512024 0
M  V30 1921 H 177.935 3.0459 2.71457 0
M  V30 1922 H 176.61 3.74867 1.80132 0
M  V30 1923 H 175.187 2.30644 2.93015 0
M  V30 1924 N 177.372 -0.689602 1.41712 0
M  V30 1925 C 178.597 -1.48329 1.44959 0
M  V30 1926 C 179.022 -1.8801 0.0581283 0
M  V30 1927 O 178.38 -1.55026 -0.940035 0
M  V30 1928 C 178.428 -2.71835 2.36935 0
M  V30 1929 O 177.532 -3.69549 1.8305 0
M  V30 1930 H 176.873 -0.446199 0.491734 0
M  V30 1931 H 179.403 -0.847127 1.86239 0
M  V30 1932 H 179.413 -3.20076 2.53013 0
M  V30 1933 H 178.088 -2.42291 3.38035 0
M  V30 1934 H 176.665 -3.2851 1.76452 0
M  V30 1935 N 178.85 -1.27639 -0.924453 0
M  V30 1936 C 179.813 -1.10681 -2.00705 0
M  V30 1937 C 180.813 -0.0497823 -1.60723 0
M  V30 1938 O 182.003 -0.294654 -1.7169 0
M  V30 1939 C 179.135 -0.687164 -3.33902 0
M  V30 1940 H 180.328 -2.06817 -2.17179 0
M  V30 1941 H 177.881 -1.10473 -1.10569 0
M  V30 1942 H 178.616 0.275439 -3.23128 0
M  V30 1943 H 178.401 -1.45061 -3.6428 0
M  V30 1944 H 179.891 -0.590853 -4.13399 0
M  V30 1945 N 180.328 1.1314 -1.09713 0
M  V30 1946 C 181.577 1.83838 -0.829851 0
M  V30 1947 C 181.89 1.84599 0.646728 0
M  V30 1948 O 183.096 2.51218 1.02965 0
M  V30 1949 C 181.552 3.30069 -1.43466 0
M  V30 1950 C 181.16 3.37688 -2.94399 0
M  V30 1951 C 182.904 4.05788 -1.24645 0
M  V30 1952 C 180.811 4.78209 -3.47952 0
M  V30 1953 H 179.741 0.68877 -0.306777 0
M  V30 1954 H 182.392 1.27448 -1.3202 0
M  V30 1955 H 180.774 3.8628 -0.871996 0
M  V30 1956 H 181.948 2.91456 -3.56918 0
M  V30 1957 H 180.263 2.75436 -3.12289 0
M  V30 1958 H 182.86 5.09535 -1.62107 0
M  V30 1959 H 183.203 4.15878 -0.187357 0
M  V30 1960 H 183.736 3.55915 -1.77678 0
M  V30 1961 H 180.475 4.73311 -4.53495 0
M  V30 1962 H 179.995 5.24924 -2.90198 0
M  V30 1963 H 181.674 5.47133 -3.45332 0
M  V30 1964 N 181.806 0.884767 1.30421 0
M  V30 1965 C 183.031 0.517288 2.00845 0
M  V30 1966 C 183.456 -0.886779 1.65885 0
M  V30 1967 O 182.814 -1.58768 0.875354 0
M  V30 1968 C 182.862 0.698994 3.5376 0
M  V30 1969 O 181.966 -0.255208 4.1161 0
M  V30 1970 H 181.307 0.203872 0.631927 0
M  V30 1971 H 183.837 1.19225 1.66272 0
M  V30 1972 H 183.847 0.597912 4.03595 0
M  V30 1973 H 182.522 1.72271 3.78544 0
M  V30 1974 H 181.099 -0.10784 3.72744 0
M  V30 1975 N 183.284 -1.43765 0.645699 0
M  V30 1976 C 184.533 -2.01116 0.153412 0
M  V30 1977 C 184.846 -1.51493 -1.23731 0
M  V30 1978 O 186.052 -2.01067 -1.8244 0
M  V30 1979 C 184.508 -3.59206 0.223473 0
M  V30 1980 C 184.116 -4.17823 1.61642 0
M  V30 1981 C 185.86 -4.23972 -0.211597 0
M  V30 1982 C 183.767 -5.68183 1.64081 0
M  V30 1983 H 182.697 -0.752093 0.0535891 0
M  V30 1984 H 185.348 -1.6482 0.806633 0
M  V30 1985 H 183.73 -3.92867 -0.497118 0
M  V30 1986 H 184.904 -3.95674 2.36176 0
M  V30 1987 H 183.219 -3.65399 1.99681 0
M  V30 1988 H 185.816 -5.34275 -0.213112 0
M  V30 1989 H 186.159 -3.97352 -1.24165 0
M  V30 1990 H 186.692 -3.95166 0.456988 0
M  V30 1991 H 183.431 -5.99559 2.64971 0
M  V30 1992 H 182.951 -5.9241 0.938611 0
M  V30 1993 H 184.63 -6.32085 1.3812 0
M  V30 1994 N 184.763 -0.387143 -1.52771 0
M  V30 1995 C 186.012 0.19697 -2.00736 0
M  V30 1996 C 186.325 1.48082 -1.27793 0
M  V30 1997 O 187.531 2.14485 -1.66458 0
M  V30 1998 C 185.987 0.401568 -3.57653 0
M  V30 1999 C 185.595 -0.868907 -4.39493 0
M  V30 2000 C 187.339 0.942164 -4.13912 0
M  V30 2001 C 185.246 -0.632705 -5.88006 0
M  V30 2002 H 184.176 0.0773827 -0.750019 0
M  V30 2003 H 186.827 -0.50921 -1.76293 0
M  V30 2004 H 185.209 1.16954 -3.78335 0
M  V30 2005 H 186.383 -1.64133 -4.30577 0
M  V30 2006 H 184.698 -1.33429 -3.94443 0
M  V30 2007 H 187.295 1.13455 -5.22525 0
M  V30 2008 H 187.638 1.9106 -3.69867 0
M  V30 2009 H 188.171 0.233814 -3.97112 0
M  V30 2010 H 184.91 -1.57208 -6.36369 0
M  V30 2011 H 184.43 0.100825 -5.99715 0
M  V30 2012 H 186.109 -0.26642 -6.46451 0
M  V30 2013 N 186.241 1.57166 -0.116904 0
M  V30 2014 C 187.189 2.16457 0.851418 0
M  V30 2015 C 188.183 1.11323 1.27686 0
M  V30 2016 O 189.389 1.2963 1.24884 0
M  V30 2017 H 185.764 0.69271 0.292672 0
M  V30 2018 H 187.735 2.96605 0.32685 0
M  V30 2019 C 186.484 2.77689 2.09246 0
M  V30 2020 H 185.807 3.58285 1.77402 0
M  V30 2021 H 187.247 3.22716 2.7501 0
M  V30 2022 C 185.706 1.74667 2.88085 0
M  V30 2023 O 186.236 1.19877 3.83396 0
M  V30 2024 N 184.442 1.44656 2.52038 0
M  V30 2025 H 183.989 1.89402 1.74599 0
M  V30 2026 H 183.947 0.759675 3.05084 0
M  V30 2027 N 187.719 -0.156864 1.56817 0
M  V30 2028 C 188.651 -1.21883 1.94106 0
M  V30 2029 C 189.664 -1.3971 0.835754 0
M  V30 2030 O 190.853 -1.39457 1.11418 0
M  V30 2031 C 187.953 -2.58527 2.19127 0
M  V30 2032 C 187.126 -2.61809 3.50393 0
M  V30 2033 C 186.185 -3.7992 3.64071 0
M  V30 2034 O 185.211 -3.65249 4.36557 0
M  V30 2035 N 186.413 -4.96973 2.99997 0
M  V30 2036 H 189.178 -0.901974 2.85805 0
M  V30 2037 H 186.739 -0.346513 1.58148 0
M  V30 2038 H 188.731 -3.36034 2.25529 0
M  V30 2039 H 187.301 -2.82545 1.33742 0
M  V30 2040 H 186.521 -1.7029 3.5552 0
M  V30 2041 H 187.809 -2.61024 4.36742 0
M  V30 2042 H 187.207 -5.11794 2.41004 0
M  V30 2043 H 185.764 -5.7229 3.11974 0
M  V30 2044 N 189.197 -1.51736 -0.425897 0
M  V30 2045 C 190.443 -1.65214 -1.1761 0
M  V30 2046 C 190.776 -0.372778 -1.90589 0
M  V30 2047 O 190.051 0.628139 -1.84078 0
M  V30 2048 C 190.334 -2.86312 -2.18398 0
M  V30 2049 C 190.187 -4.24254 -1.49426 0
M  V30 2050 C 191.506 -3.02925 -3.19256 0
M  V30 2051 H 188.625 -0.601263 -0.426206 0
M  V30 2052 H 191.267 -1.8425 -0.463882 0
M  V30 2053 H 189.417 -2.70213 -2.79137 0
M  V30 2054 H 191.089 -4.52046 -0.919362 0
M  V30 2055 H 189.332 -4.26426 -0.796432 0
M  V30 2056 H 190.003 -5.05001 -2.22885 0
M  V30 2057 H 192.479 -3.1781 -2.68581 0
M  V30 2058 H 191.355 -3.89199 -3.8706 0
M  V30 2059 H 191.616 -2.15497 -3.86023 0
M  V30 2060 N 190.675 0.682077 -1.42076 0
M  V30 2061 C 191.924 1.43786 -1.41451 0
M  V30 2062 C 192.237 1.95574 -0.0317074 0
M  V30 2063 O 193.443 2.71326 0.0971462 0
M  V30 2064 C 191.899 2.60071 -2.48779 0
M  V30 2065 C 191.507 2.15013 -3.93031 0
M  V30 2066 C 193.251 3.37626 -2.57311 0
M  V30 2067 C 191.158 3.28336 -4.91883 0
M  V30 2068 H 190.088 0.540143 -0.526082 0
M  V30 2069 H 192.739 0.739157 -1.67955 0
M  V30 2070 H 191.121 3.32275 -2.15429 0
M  V30 2071 H 192.295 1.5001 -4.35699 0
M  V30 2072 H 190.61 1.50416 -3.88284 0
M  V30 2073 H 193.207 4.22012 -3.28345 0
M  V30 2074 H 193.55 3.83727 -1.61429 0
M  V30 2075 H 194.083 2.72488 -2.89819 0
M  V30 2076 H 190.822 2.87234 -5.89217 0
M  V30 2077 H 190.342 3.92145 -4.53853 0
M  V30 2078 H 192.021 3.93913 -5.13265 0
M  V30 2079 N 192.153 1.28127 0.917671 0
M  V30 2080 C 193.401 1.14825 1.66312 0
M  V30 2081 C 193.722 -0.304379 1.9261 0
M  V30 2082 O 192.992 -1.21149 1.53947 0
M  V30 2083 H 191.572 0.421953 0.616413 0
M  V30 2084 H 194.234 1.608 1.10134 0
M  V30 2085 H 193.33 1.68489 2.62712 0
M  V30 2086 N 193.631 -1.12557 1.10312 0
M  V30 2087 C 194.877 -1.84515 0.855901 0
M  V30 2088 C 195.232 -1.82409 -0.611936 0
M  V30 2089 O 194.525 -1.25778 -1.44535 0
M  V30 2090 C 194.719 -3.31462 1.33669 0
M  V30 2091 C 194.548 -3.47879 2.84974 0
M  V30 2092 C 193.318 -3.61589 3.52961 0
M  V30 2093 C 195.516 -3.43152 3.83081 0
M  V30 2094 N 193.498 -3.66359 4.926 0
M  V30 2095 C 194.869 -3.54401 5.08724 0
M  V30 2096 C 196.924 -3.2661 3.75807 0
M  V30 2097 C 195.627 -3.50815 6.2795 0
M  V30 2098 C 197.653 -3.24335 4.94531 0
M  V30 2099 C 197.015 -3.36144 6.19021 0
M  V30 2100 H 193.114 -0.690967 0.366182 0
M  V30 2101 H 195.698 -1.34763 1.40524 0
M  V30 2102 H 193.869 -3.7976 0.814686 0
M  V30 2103 H 195.601 -3.91272 1.03385 0
M  V30 2104 H 192.356 -3.63652 3.03404 0
M  V30 2105 H 192.78 -3.72411 5.65366 0
M  V30 2106 H 197.422 -3.16375 2.80476 0
M  V30 2107 H 195.14 -3.5982 7.23571 0
M  V30 2108 H 198.726 -3.12719 4.9061 0
M  V30 2109 H 197.606 -3.34357 7.09348 0
M  V30 2110 N 195.109 -0.891671 -1.2995 0
M  V30 2111 C 196.358 -0.509521 -1.95158 0
M  V30 2112 C 196.671 0.947388 -1.71125 0
M  V30 2113 O 197.877 1.43669 -2.30372 0
M  V30 2114 C 196.333 -0.860315 -3.49466 0
M  V30 2115 C 195.941 -2.33545 -3.8231 0
M  V30 2116 C 197.685 -0.547687 -4.20952 0
M  V30 2117 C 195.592 -2.62752 -5.29826 0
M  V30 2118 H 194.522 -0.18682 -0.730489 0
M  V30 2119 H 197.173 -1.08756 -1.47798 0
M  V30 2120 H 195.555 -0.211285 -3.95436 0
M  V30 2121 H 196.729 -3.02936 -3.47227 0
M  V30 2122 H 195.044 -2.61629 -3.23944 0
M  V30 2123 H 197.641 -0.742854 -5.29515 0
M  V30 2124 H 197.984 0.51332 -4.13123 0
M  V30 2125 H 198.517 -1.1542 -3.80688 0
M  V30 2126 H 195.256 -3.6762 -5.42712 0
M  V30 2127 H 194.776 -1.97977 -5.66185 0
M  V30 2128 H 196.455 -2.48601 -5.97333 0
M  V30 2129 N 196.587 1.43421 -0.653314 0
M  V30 2130 C 197.817 2.05864 -0.174238 0
M  V30 2131 C 198.225 1.49052 1.16534 0
M  V30 2132 O 197.568 0.616481 1.73047 0
M  V30 2133 C 197.63 3.59499 -0.00875873 0
M  V30 2134 C 197.294 4.38893 -1.27364 0
M  V30 2135 C 198.291 4.70947 -2.20239 0
M  V30 2136 C 195.976 4.789 -1.51525 0
M  V30 2137 C 197.97 5.41916 -3.35568 0
M  V30 2138 C 195.657 5.49614 -2.67147 0
M  V30 2139 C 196.655 5.81044 -3.58994 0
M  V30 2140 O 196.343 6.50313 -4.72597 0
M  V30 2141 H 196.075 0.670345 -0.0872549 0
M  V30 2142 H 198.629 1.84913 -0.894226 0
M  V30 2143 H 196.859 3.79025 0.7666 0
M  V30 2144 H 198.548 4.0364 0.427687 0
M  V30 2145 H 199.314 4.40558 -2.02815 0
M  V30 2146 H 195.193 4.53843 -0.809158 0
M  V30 2147 H 198.737 5.66365 -4.07279 0
M  V30 2148 H 194.634 5.79419 -2.84505 0
M  V30 2149 H 195.402 6.68795 -4.71864 0
M  V30 2150 N 198.065 0.39524 1.52563 0
M  V30 2151 C 199.312 -0.185044 2.01653 0
M  V30 2152 C 199.64 -1.46317 1.28146 0
M  V30 2153 O 198.895 -1.9213 0.372074 0
M  V30 2154 C 199.194 -0.493444 3.53977 0
M  V30 2155 C 198.86 0.69384 4.4553 0
M  V30 2156 C 197.522 1.01954 4.70275 0
M  V30 2157 C 199.874 1.48785 4.99512 0
M  V30 2158 C 197.202 2.14069 5.46252 0
M  V30 2159 C 199.554 2.59965 5.76716 0
M  V30 2160 C 198.218 2.93037 5.99738 0
M  V30 2161 H 197.488 -0.0677123 0.7379 0
M  V30 2162 H 200.135 0.533807 1.8391 0
M  V30 2163 H 198.44 -1.29369 3.69825 0
M  V30 2164 H 200.137 -0.955163 3.89458 0
M  V30 2165 H 196.727 0.429987 4.26438 0
M  V30 2166 H 200.911 1.24946 4.80315 0
M  V30 2167 H 196.167 2.40056 5.62302 0
M  V30 2168 H 200.341 3.21887 6.17545 0
M  V30 2169 H 197.968 3.8003 6.58393 0
M  V30 2170 N 199.544 -1.57102 0.125237 0
M  V30 2171 C 200.79 -1.95697 -0.532035 0
M  V30 2172 C 201.123 -1.009 -1.6593 0
M  V30 2173 O 200.398 -0.047347 -1.94442 0
M  V30 2174 C 200.681 -3.44181 -1.05884 0
M  V30 2175 C 200.534 -4.49752 0.0654392 0
M  V30 2176 C 201.853 -3.94655 -1.9477 0
M  V30 2177 H 198.972 -0.711571 -0.191925 0
M  V30 2178 H 201.614 -1.88923 0.20206 0
M  V30 2179 H 199.764 -3.50085 -1.68442 0
M  V30 2180 H 201.436 -4.55943 0.700982 0
M  V30 2181 H 199.679 -4.27653 0.727709 0
M  V30 2182 H 200.35 -5.50924 -0.344505 0
M  V30 2183 H 202.826 -3.91094 -1.42074 0
M  V30 2184 H 201.702 -4.99057 -2.28546 0
M  V30 2185 H 201.963 -3.35718 -2.87656 0
M  V30 2186 N 201.022 0.148545 -1.56898 0
M  V30 2187 C 201.985 1.16736 -1.97244 0
M  V30 2188 C 202.985 1.35947 -0.858777 0
M  V30 2189 O 204.175 1.32966 -1.12542 0
M  V30 2190 C 201.307 2.52798 -2.28705 0
M  V30 2191 H 202.5 0.821279 -2.88435 0
M  V30 2192 H 200.053 0.391831 -1.51309 0
M  V30 2193 H 200.788 2.92381 -1.403 0
M  V30 2194 H 200.573 2.40216 -3.09901 0
M  V30 2195 H 202.063 3.26179 -2.60762 0
M  V30 2196 N 202.5 1.5196 0.417844 0
M  V30 2197 C 203.746 1.66793 1.16411 0
M  V30 2198 C 204.101 0.388758 1.88432 0
M  V30 2199 O 203.394 -0.616409 1.81414 0
M  V30 2200 C 203.588 2.82269 2.19223 0
M  V30 2201 C 203.417 4.21293 1.57297 0
M  V30 2202 C 202.187 4.86948 1.34944 0
M  V30 2203 C 204.385 5.03704 1.03858 0
M  V30 2204 N 202.367 6.1003 0.688195 0
M  V30 2205 C 203.738 6.1795 0.503742 0
M  V30 2206 C 205.793 4.89095 0.932203 0
M  V30 2207 C 204.496 7.19188 -0.127034 0
M  V30 2208 C 206.522 5.90559 0.315293 0
M  V30 2209 C 205.884 7.0409 -0.208906 0
M  V30 2210 H 201.983 0.66407 0.412959 0
M  V30 2211 H 204.567 1.89242 0.457772 0
M  V30 2212 H 202.738 2.61451 2.87225 0
M  V30 2213 H 204.47 2.86183 2.86149 0
M  V30 2214 H 201.225 4.45156 1.61657 0
M  V30 2215 H 201.649 6.75964 0.374449 0
M  V30 2216 H 206.291 4.01557 1.32332 0
M  V30 2217 H 204.009 8.06359 -0.530231 0
M  V30 2218 H 207.595 5.81327 0.234625 0
M  V30 2219 H 206.475 7.81257 -0.67875 0
M  V30 2220 N 203.978 -0.674533 1.42435 0
M  V30 2221 C 205.203 -1.46784 1.46524 0
M  V30 2222 C 205.628 -1.87938 0.078066 0
M  V30 2223 O 204.986 -1.56014 -0.92354 0
M  V30 2224 C 205.034 -2.69307 2.39805 0
M  V30 2225 O 204.138 -3.67587 1.86959 0
M  V30 2226 H 203.479 -0.440959 0.496439 0
M  V30 2227 H 206.009 -0.827326 1.87127 0
M  V30 2228 H 206.019 -3.17374 2.56393 0
M  V30 2229 H 204.694 -2.38692 3.40586 0
M  V30 2230 H 203.271 -3.2662 1.79927 0
M  V30 2231 N 205.456 -1.28612 -0.910864 0
M  V30 2232 C 206.705 -1.15311 -1.65488 0
M  V30 2233 C 207.018 0.296999 -1.93332 0
M  V30 2234 O 208.224 0.551168 -2.65847 0
M  V30 2235 C 206.68 -2.01599 -2.98137 0
M  V30 2236 C 206.288 -3.51367 -2.7793 0
M  V30 2237 C 208.032 -1.96993 -3.76024 0
M  V30 2238 C 205.939 -4.29797 -4.06237 0
M  V30 2239 H 204.869 -0.42796 -0.620779 0
M  V30 2240 H 207.52 -1.53166 -1.01057 0
M  V30 2241 H 205.902 -1.56603 -3.63719 0
M  V30 2242 H 207.076 -4.0434 -2.21011 0
M  V30 2243 H 205.391 -3.57529 -2.13452 0
M  V30 2244 H 207.988 -2.52856 -4.71135 0
M  V30 2245 H 208.331 -0.94733 -4.05378 0
M  V30 2246 H 208.864 -2.39973 -3.17266 0
M  V30 2247 H 205.603 -5.32648 -3.82055 0
M  V30 2248 H 205.123 -3.81596 -4.62757 0
M  V30 2249 H 206.802 -4.39869 -4.74473 0
M  V30 2250 N 206.934 1.1197 -1.10907 0
M  V30 2251 C 208.159 1.87942 -0.877064 0
M  V30 2252 C 208.584 1.79341 0.567314 0
M  V30 2253 O 207.942 1.15184 1.40009 0
M  V30 2254 C 207.99 3.34926 -1.33629 0
M  V30 2255 O 207.094 4.09303 -0.504447 0
M  V30 2256 H 206.435 0.583785 -0.316371 0
M  V30 2257 H 208.965 1.4157 -1.47712 0
M  V30 2258 H 208.975 3.8577 -1.32837 0
M  V30 2259 H 207.65 3.40504 -2.3881 0
M  V30 2260 H 206.227 3.68393 -0.577993 0
M  V30 2261 N 208.412 0.89855 1.29475 0
M  V30 2262 C 209.659 0.523882 1.95606 0
M  V30 2263 C 209.987 -0.929608 1.70847 0
M  V30 2264 O 209.242 -1.67401 1.01367 0
M  V30 2265 C 209.541 0.761398 3.49195 0
M  V30 2266 C 209.207 2.19207 3.94029 0
M  V30 2267 C 207.869 2.58326 4.05982 0
M  V30 2268 C 210.221 3.12379 4.17216 0
M  V30 2269 C 207.549 3.898 4.38489 0
M  V30 2270 C 209.901 4.43401 4.51197 0
M  V30 2271 C 208.565 4.82394 4.61359 0
M  V30 2272 H 207.835 0.191702 0.715773 0
M  V30 2273 H 210.482 1.13699 1.54094 0
M  V30 2274 H 208.787 0.0653622 3.91745 0
M  V30 2275 H 210.484 0.450904 3.98457 0
M  V30 2276 H 207.074 1.87846 3.85242 0
M  V30 2277 H 211.258 2.83371 4.07449 0
M  V30 2278 H 206.514 4.19734 4.44559 0
M  V30 2279 H 210.688 5.15623 4.68087 0
M  V30 2280 H 208.315 5.84306 4.86303 0
M  V30 2281 N 209.89 -1.43072 0.660911 0
M  V30 2282 C 211.12 -2.05769 0.185153 0
M  V30 2283 C 211.528 -1.49668 -1.15742 0
M  V30 2284 O 210.871 -0.625649 -1.72717 0
M  V30 2285 C 210.933 -3.59489 0.0278237 0
M  V30 2286 C 210.597 -4.38212 1.2969 0
M  V30 2287 C 211.594 -4.69772 2.22734 0
M  V30 2288 C 209.279 -4.7809 1.54063 0
M  V30 2289 C 211.273 -5.40129 3.38437 0
M  V30 2290 C 208.96 -5.4819 2.70058 0
M  V30 2291 C 209.958 -5.79132 3.62071 0
M  V30 2292 O 209.646 -6.47798 4.76039 0
M  V30 2293 H 209.378 -0.669873 0.0908086 0
M  V30 2294 H 211.932 -1.84436 0.90402 0
M  V30 2295 H 210.162 -3.79426 -0.746489 0
M  V30 2296 H 211.851 -4.03862 -0.406275 0
M  V30 2297 H 212.617 -4.39476 2.05149 0
M  V30 2298 H 208.496 -4.53408 0.833215 0
M  V30 2299 H 212.04 -5.64198 4.10277 0
M  V30 2300 H 207.937 -5.77902 2.87574 0
M  V30 2301 H 208.705 -6.66283 4.75404 0
M  V30 2302 N 211.368 -0.403325 -1.52352 0
M  V30 2303 C 212.779 0.0675782 -1.86578 0
M  V30 2304 C 213.13 1.44941 -1.32236 0
M  V30 2305 O 212.255 2.06112 -0.659307 0
M  V30 2306 C 212.85 0.129404 -3.38553 0
M  V30 2307 C 211.409 0.544629 -3.72439 0
M  V30 2308 C 210.556 -0.284551 -2.75836 0
M  V30 2309 H 213.507 -0.620631 -1.46061 0
M  V30 2310 H 213.528 0.94581 -3.68558 0
M  V30 2311 H 213.04 -0.87645 -3.78074 0
M  V30 2312 H 211.141 1.55734 -3.38493 0
M  V30 2313 H 211.254 0.293046 -4.78203 0
M  V30 2314 H 209.618 0.252258 -2.53448 0
M  V30 2315 H 210.401 -1.28865 -3.18196 0
M  V30 2316 N 212.846 1.57033 -0.133567 0
M  V30 2317 C 213.778 2.13176 0.841944 0
M  V30 2318 C 214.791 1.07794 1.22001 0
M  V30 2319 O 215.98 1.35117 1.16643 0
M  V30 2320 C 213.08 2.62847 2.13926 0
M  V30 2321 C 212.253 3.92486 1.93064 0
M  V30 2322 C 211.312 4.27605 3.0666 0
M  V30 2323 O 210.338 4.96168 2.78937 0
M  V30 2324 N 211.54 3.861 4.33483 0
M  V30 2325 H 214.305 2.97503 0.362192 0
M  V30 2326 H 211.866 1.61821 0.05042 0
M  V30 2327 H 213.858 2.83363 2.88942 0
M  V30 2328 H 212.428 1.83319 2.53205 0
M  V30 2329 H 211.648 3.80732 1.02159 0
M  V30 2330 H 212.936 4.77225 1.76447 0
M  V30 2331 H 212.334 3.30828 4.58878 0
M  V30 2332 H 210.891 4.11694 5.05323 0
M  V30 2333 N 214.325 -0.140222 1.56975 0
M  V30 2334 C 215.571 -0.852949 1.83991 0
M  V30 2335 C 215.904 -1.80512 0.716187 0
M  V30 2336 O 215.179 -1.92479 -0.279681 0
M  V30 2337 C 215.462 -1.6215 3.21527 0
M  V30 2338 C 215.315 -0.690363 4.4447 0
M  V30 2339 C 216.634 -2.58247 3.56366 0
M  V30 2340 H 213.753 -0.308634 0.669264 0
M  V30 2341 H 216.395 -0.117898 1.89634 0
M  V30 2342 H 214.545 -2.24812 3.16847 0
M  V30 2343 H 216.217 -0.0742264 4.6124 0
M  V30 2344 H 214.46 -0.000396433 4.338 0
M  V30 2345 H 215.131 -1.2643 5.37326 0
M  V30 2346 H 217.607 -2.05701 3.61699 0
M  V30 2347 H 216.483 -3.09067 4.53617 0
M  V30 2348 H 216.744 -3.39923 2.82674 0
M  V30 2349 N 215.803 -1.52179 -0.40978 0
M  V30 2350 C 217.052 -1.65434 -1.15388 0
M  V30 2351 C 217.365 -0.390056 -1.91671 0
M  V30 2352 O 218.571 -0.402399 -2.68501 0
M  V30 2353 C 217.027 -2.92279 -2.10003 0
M  V30 2354 C 216.635 -4.25813 -1.39239 0
M  V30 2355 C 218.379 -3.14897 -2.84675 0
M  V30 2356 C 216.286 -5.43782 -2.32498 0
M  V30 2357 H 215.216 -0.616267 -0.434432 0
M  V30 2358 H 217.867 -1.78666 -0.418401 0
M  V30 2359 H 216.249 -2.72744 -2.871 0
M  V30 2360 H 217.423 -4.55828 -0.675099 0
M  V30 2361 H 215.738 -4.09292 -0.766097 0
M  V30 2362 H 218.335 -4.0021 -3.54593 0
M  V30 2363 H 218.678 -2.29103 -3.47588 0
M  V30 2364 H 219.211 -3.34901 -2.14677 0
M  V30 2365 H 215.95 -6.3192 -1.74233 0
M  V30 2366 H 215.47 -5.18106 -3.02201 0
M  V30 2367 H 217.149 -5.76834 -2.93038 0
M  V30 2368 N 217.281 0.66697 -1.42791 0
M  V30 2369 C 218.214 1.79177 -1.41318 0
M  V30 2370 C 219.192 1.60234 -0.276401 0
M  V30 2371 O 220.376 1.82602 -0.46785 0
M  V30 2372 C 217.503 3.16289 -1.21157 0
M  V30 2373 C 216.549 3.53964 -2.37932 0
M  V30 2374 S 217.382 3.55501 -4.00474 0
M  V30 2375 C 218.538 4.95292 -3.8267 0
M  V30 2376 H 218.771 1.80153 -2.365 0
M  V30 2377 H 216.304 0.838357 -1.29657 0
M  V30 2378 H 218.262 3.95428 -1.10212 0
M  V30 2379 H 216.923 3.1289 -0.275481 0
M  V30 2380 H 216.116 4.53646 -2.19594 0
M  V30 2381 H 215.718 2.82204 -2.45432 0
M  V30 2382 H 218.01 5.83584 -3.44145 0
M  V30 2383 H 218.953 5.18679 -4.82055 0
M  V30 2384 H 219.361 4.68179 -3.15386 0
M  V30 2385 N 218.759 1.29093 0.90403 0
M  V30 2386 C 219.707 1.13727 2.02901 0
M  V30 2387 C 220.701 0.0539853 1.69314 0
M  V30 2388 O 221.907 0.213469 1.7873 0
M  V30 2389 H 218.282 0.35117 0.664969 0
M  V30 2390 H 220.253 2.08982 2.13001 0
M  V30 2391 C 219.002 0.826066 3.37745 0
M  V30 2392 H 218.325 1.65164 3.64089 0
M  V30 2393 H 219.765 0.758559 4.17159 0
M  V30 2394 C 218.224 -0.470541 3.33598 0
M  V30 2395 O 218.754 -1.49792 3.72727 0
M  V30 2396 N 216.96 -0.474812 2.86695 0
M  V30 2397 H 216.507 0.361692 2.55048 0
M  V30 2398 H 216.465 -1.34236 2.84303 0
M  V30 2399 N 220.237 -1.11381 1.11499 0
M  V30 2400 C 221.483 -1.83597 0.875423 0
M  V30 2401 C 221.838 -1.83048 -0.592555 0
M  V30 2402 O 221.131 -1.27304 -1.43193 0
M  V30 2403 C 221.325 -3.30026 1.37177 0
M  V30 2404 C 221.154 -3.44837 2.88647 0
M  V30 2405 C 219.924 -3.57825 3.56776 0
M  V30 2406 C 222.122 -3.3907 3.86699 0
M  V30 2407 N 220.104 -3.61113 4.96458 0
M  V30 2408 C 221.475 -3.48986 5.12454 0
M  V30 2409 C 223.53 -3.22605 3.7925 0
M  V30 2410 C 222.233 -3.44135 6.31636 0
M  V30 2411 C 224.259 -3.19072 4.97943 0
M  V30 2412 C 223.621 -3.29559 6.22551 0
M  V30 2413 H 219.72 -0.687044 0.37349 0
M  V30 2414 H 222.304 -1.33265 1.41946 0
M  V30 2415 H 220.475 -3.78874 0.854919 0
M  V30 2416 H 222.207 -3.90153 1.07529 0
M  V30 2417 H 218.962 -3.60414 3.07244 0
M  V30 2418 H 219.386 -3.66394 5.69284 0
M  V30 2419 H 224.028 -3.13382 2.83816 0
M  V30 2420 H 221.746 -3.52126 7.27347 0
M  V30 2421 H 225.332 -3.07498 4.93899 0
M  V30 2422 H 224.212 -3.26815 7.12855 0
M  V30 2423 N 221.715 -0.905404 -1.28997 0
M  V30 2424 C 223.131 -0.60233 -1.47798 0
M  V30 2425 C 223.331 0.854645 -1.82478 0
M  V30 2426 O 222.387 1.63439 -1.92468 0
M  V30 2427 C 223.7 -1.53306 -2.58685 0
M  V30 2428 C 225.248 -1.53887 -2.72558 0
M  V30 2429 C 225.723 -2.45602 -3.86579 0
M  V30 2430 N 227.214 -2.43681 -3.93921 0
M  V30 2431 C 227.949 -3.11347 -4.81509 0
M  V30 2432 N 227.445 -3.88313 -5.73746 0
M  V30 2433 N 229.238 -3.00476 -4.75048 0
M  V30 2434 H 221.389 -1.84765 -1.04764 0
M  V30 2435 H 223.652 -0.792025 -0.520961 0
M  V30 2436 H 223.358 -2.57141 -2.39941 0
M  V30 2437 H 223.232 -1.25787 -3.55609 0
M  V30 2438 H 225.619 -0.507941 -2.90696 0
M  V30 2439 H 225.7 -1.85447 -1.76191 0
M  V30 2440 H 225.344 -3.48792 -3.69197 0
M  V30 2441 H 225.274 -2.11349 -4.82327 0
M  V30 2442 H 227.765 -1.87767 -3.27951 0
M  V30 2443 H 228.078 -4.36985 -6.37389 0
M  V30 2444 H 226.423 -3.92419 -5.73614 0
M  V30 2445 H 229.614 -2.39858 -4.01977 0
M  V30 2446 H 229.787 -3.53485 -5.43095 0
M  V30 2447 N 223.193 1.4272 -0.668489 0
M  V30 2448 C 224.609 1.55992 -0.33745 0
M  V30 2449 C 224.809 1.64933 1.15756 0
M  V30 2450 O 223.865 1.61278 1.94282 0
M  V30 2451 C 225.178 2.81314 -1.06222 0
M  V30 2452 C 226.726 2.95078 -1.04394 0
M  V30 2453 C 227.201 4.23252 -1.74991 0
M  V30 2454 N 228.692 4.3015 -1.71829 0
M  V30 2455 C 229.427 5.28127 -2.23315 0
M  V30 2456 N 228.923 6.32293 -2.83156 0
M  V30 2457 N 230.716 5.19882 -2.13726 0
M  V30 2458 H 222.867 1.3516 -1.63846 0
M  V30 2459 H 225.13 0.650174 -0.689912 0
M  V30 2460 H 224.836 2.80823 -2.11734 0
M  V30 2461 H 224.71 3.72012 -0.62344 0
M  V30 2462 H 227.097 2.951 0.0028244 0
M  V30 2463 H 227.178 2.05627 -1.52155 0
M  V30 2464 H 226.822 4.2399 -2.79633 0
M  V30 2465 H 226.752 5.11626 -1.24685 0
M  V30 2466 H 229.243 3.55499 -1.28175 0
M  V30 2467 H 229.556 7.03398 -3.20079 0
M  V30 2468 H 227.901 6.32873 -2.87223 0
M  V30 2469 H 231.092 4.37423 -1.66669 0
M  V30 2470 H 231.265 5.96077 -2.54158 0
M  V30 2471 N 224.671 0.411399 1.52136 0
M  V30 2472 C 225.618 -0.412975 2.27075 0
M  V30 2473 C 226.588 -1.03912 1.29582 0
M  V30 2474 O 227.773 -1.06296 1.58448 0
M  V30 2475 C 224.913 -1.52247 3.09701 0
M  V30 2476 C 224.026 -0.917021 4.22155 0
M  V30 2477 C 223.161 -1.9994 4.92135 0
M  V30 2478 C 222.2 -1.37101 5.96548 0
M  V30 2479 N 221.337 -2.39364 6.60038 0
M  V30 2480 H 226.177 0.232499 2.97092 0
M  V30 2481 H 223.714 0.126496 1.46555 0
M  V30 2482 H 225.672 -2.17674 3.55913 0
M  V30 2483 H 224.302 -2.13794 2.41851 0
M  V30 2484 H 223.354 -0.151742 3.80097 0
M  V30 2485 H 224.666 -0.418006 4.97045 0
M  V30 2486 H 223.82 -2.73088 5.41763 0
M  V30 2487 H 222.559 -2.53208 4.16818 0
M  V30 2488 H 221.564 -0.624873 5.46237 0
M  V30 2489 H 222.789 -0.845998 6.7381 0
M  V30 2490 H 220.735 -2.91759 5.87548 0
M  V30 2491 H 220.652 -1.9428 7.3061 0
M  V30 2492 H 221.92 -3.12074 7.14304 0
M  V30 2493 N 226.149 -1.5696 0.141893 0
M  V30 2494 C 227.374 -2.00754 -0.520838 0
M  V30 2495 C 227.799 -1.0213 -1.57959 0
M  V30 2496 O 227.157 0.00371324 -1.813 0
M  V30 2497 C 227.205 -3.43318 -1.10294 0
M  V30 2498 O 226.309 -3.47679 -2.21795 0
M  V30 2499 H 225.65 -0.651564 -0.127908 0
M  V30 2500 H 228.18 -2.03221 0.23712 0
M  V30 2501 H 228.19 -3.82012 -1.43287 0
M  V30 2502 H 226.865 -4.14608 -0.327574 0
M  V30 2503 H 225.442 -3.20824 -1.9007 0
M  V30 2504 N 227.627 0.131896 -1.57047 0
M  V30 2505 C 228.873 0.843179 -1.84441 0
M  V30 2506 C 229.206 1.80129 -0.725749 0
M  V30 2507 O 228.481 1.92624 0.269469 0
M  V30 2508 C 228.764 1.60442 -3.22382 0
M  V30 2509 C 228.617 0.666782 -4.4483 0
M  V30 2510 C 229.936 2.56354 -3.5773 0
M  V30 2511 H 227.055 0.305081 -0.670891 0
M  V30 2512 H 229.697 0.107839 -1.89694 0
M  V30 2513 H 227.847 2.23128 -3.18035 0
M  V30 2514 H 229.519 0.0497646 -4.61273 0
M  V30 2515 H 227.762 -0.022609 -4.33794 0
M  V30 2516 H 228.433 1.23579 -5.37989 0
M  V30 2517 H 230.909 2.0378 -3.62785 0
M  V30 2518 H 229.785 3.06657 -4.5525 0
M  V30 2519 H 230.046 3.38419 -2.84473 0
M  V30 2520 N 229.106 1.52395 0.401703 0
M  V30 2521 C 230.355 1.66044 1.14509 0
M  V30 2522 C 230.668 0.400216 1.91462 0
M  V30 2523 O 231.874 0.416632 2.68284 0
M  V30 2524 C 230.33 2.93388 2.0845 0
M  V30 2525 C 229.938 4.26545 1.36978 0
M  V30 2526 C 231.682 3.16402 2.83001 0
M  V30 2527 C 229.589 5.45007 2.29611 0
M  V30 2528 H 228.519 0.618562 0.431158 0
M  V30 2529 H 231.17 1.78886 0.40892 0
M  V30 2530 H 229.552 2.74263 2.8565 0
M  V30 2531 H 230.726 4.56179 0.650916 0
M  V30 2532 H 229.041 4.09692 0.74438 0
M  V30 2533 H 231.638 4.02085 3.52465 0
M  V30 2534 H 231.981 2.30943 3.46368 0
M  V30 2535 H 232.514 3.36034 2.12898 0
M  V30 2536 H 229.253 6.32835 1.70879 0
M  V30 2537 H 228.773 5.19702 2.9945 0
M  V30 2538 H 230.452 5.7838 2.89974 0
M  V30 2539 N 230.584 -0.659388 1.43143 0
M  V30 2540 C 231.832 -1.41654 1.44147 0
M  V30 2541 C 232.153 -1.94893 0.0645739 0
M  V30 2542 O 231.423 -1.74044 -0.899198 0
M  V30 2543 H 230.003 -0.525708 0.530697 0
M  V30 2544 H 232.665 -0.778097 1.78694 0
M  V30 2545 H 231.761 -2.26195 2.1504 0
M  V30 2546 N 232.062 -1.29571 -0.897171 0
M  V30 2547 C 232.992 -1.17473 -2.01798 0
M  V30 2548 C 233.973 -0.068323 -1.69963 0
M  V30 2549 O 235.158 -0.248239 -1.92607 0
M  V30 2550 C 232.288 -0.853099 -3.36659 0
M  V30 2551 C 231.242 -1.9161 -3.82713 0
M  V30 2552 C 230.568 -1.44773 -5.14728 0
M  V30 2553 C 231.868 -3.32535 -4.02763 0
M  V30 2554 H 233.562 -2.11237 -2.12177 0
M  V30 2555 H 231.108 -1.01699 -1.01948 0
M  V30 2556 H 233.061 -0.755165 -4.14578 0
M  V30 2557 H 231.785 0.120236 -3.26379 0
M  V30 2558 H 230.444 -2.00346 -3.07013 0
M  V30 2559 H 230.092 -0.462995 -5.00865 0
M  V30 2560 H 229.792 -2.15865 -5.46513 0
M  V30 2561 H 231.316 -1.36334 -5.95185 0
M  V30 2562 H 232.73 -3.26626 -4.71156 0
M  V30 2563 H 231.127 -4.01607 -4.45905 0
M  V30 2564 H 232.197 -3.75326 -3.07016 0
M  V30 2565 N 233.54 1.10788 -1.12088 0
M  V30 2566 C 234.765 1.87002 -0.896949 0
M  V30 2567 C 235.19 1.79933 0.548261 0
M  V30 2568 O 234.548 1.16662 1.38779 0
M  V30 2569 C 234.596 3.3349 -1.37174 0
M  V30 2570 O 233.7 4.08745 -0.547831 0
M  V30 2571 H 233.041 0.580397 -0.322545 0
M  V30 2572 H 235.571 1.39996 -1.49206 0
M  V30 2573 H 235.581 3.84339 -1.36922 0
M  V30 2574 H 234.256 3.37951 -2.42408 0
M  V30 2575 H 232.833 3.6776 -0.617034 0
M  V30 2576 N 235.018 0.912232 1.28515 0
M  V30 2577 C 236.265 0.544599 1.95039 0
M  V30 2578 C 236.593 -0.911435 1.71823 0
M  V30 2579 O 235.848 -1.66317 1.03137 0
M  V30 2580 C 236.147 0.798392 3.48368 0
M  V30 2581 C 235.813 2.23374 3.91682 0
M  V30 2582 C 234.475 2.62617 4.03219 0
M  V30 2583 C 236.827 3.16786 4.13879 0
M  V30 2584 C 234.155 3.94429 4.3433 0
M  V30 2585 C 236.507 4.48161 4.46469 0
M  V30 2586 C 235.171 4.8726 4.56217 0
M  V30 2587 H 234.441 0.199283 0.7137 0
M  V30 2588 H 237.088 1.15327 1.52879 0
M  V30 2589 H 235.393 0.106908 3.91654 0
M  V30 2590 H 237.09 0.493141 3.97956 0
M  V30 2591 H 233.68 1.91922 3.83228 0
M  V30 2592 H 237.864 2.87677 4.0442 0
M  V30 2593 H 233.12 4.24426 4.40082 0
M  V30 2594 H 237.294 5.20559 4.62592 0
M  V30 2595 H 234.921 5.89431 4.80078 0
M  V30 2596 N 236.496 -1.42363 0.676048 0
M  V30 2597 C 237.773 -1.95183 0.127726 0
M  V30 2598 C 238.153 -1.61641 -1.35777 0
M  V30 2599 O 237.501 -0.913216 -2.09458 0
M  V30 2600 C 237.711 -3.46721 0.398199 0
M  V30 2601 C 239.059 -4.23427 0.315383 0
M  V30 2602 O 240.083 -3.54649 0.332016 0
M  V30 2603 O 238.942 -5.45888 0.25865 0
M  V30 2604 H 236.036 -0.826992 0.00359427 0
M  V30 2605 H 238.582 -1.52184 0.750864 0
M  V30 2606 H 237.354 -3.64344 1.4272 0
M  V30 2607 H 236.977 -3.96769 -0.256885 0
M  V30 2608 N 237.974 -0.419461 -1.51915 0
M  V30 2609 C 239.221 0.152939 -2.01922 0
M  V30 2610 C 239.549 1.4426 -1.30458 0
M  V30 2611 O 238.804 1.91514 -0.402593 0
M  V30 2612 C 239.103 0.437067 -3.54717 0
M  V30 2613 C 238.769 -0.764632 -4.44369 0
M  V30 2614 C 237.431 -1.09423 -4.68594 0
M  V30 2615 C 239.783 -1.56713 -4.97082 0
M  V30 2616 C 237.111 -2.22732 -5.42777 0
M  V30 2617 C 239.463 -2.69107 -5.72507 0
M  V30 2618 C 238.127 -3.02541 -5.95 0
M  V30 2619 H 237.397 0.0559644 -0.738884 0
M  V30 2620 H 240.044 -0.562998 -1.83037 0
M  V30 2621 H 238.349 1.23469 -3.71837 0
M  V30 2622 H 240.046 0.893083 -3.90928 0
M  V30 2623 H 236.636 -0.497775 -4.257 0
M  V30 2624 H 240.82 -1.32571 -4.78266 0
M  V30 2625 H 236.076 -2.48971 -5.58411 0
M  V30 2626 H 240.25 -3.31671 -6.12346 0
M  V30 2627 H 237.877 -3.90457 -6.52264 0
M  V30 2628 N 239.452 1.56882 -0.150215 0
M  V30 2629 C 240.698 1.96518 0.500834 0
M  V30 2630 C 241.031 1.03527 1.64304 0
M  V30 2631 O 240.306 0.0782751 1.94342 0
M  V30 2632 C 240.589 3.45822 1.00395 0
M  V30 2633 C 240.442 4.49591 -0.136983 0
M  V30 2634 C 241.761 3.97704 1.88467 0
M  V30 2635 H 238.88 0.714535 0.18058 0
M  V30 2636 H 241.522 1.88577 -0.232091 0
M  V30 2637 H 239.672 3.5272 1.62851 0
M  V30 2638 H 241.344 4.5477 -0.77343 0
M  V30 2639 H 239.587 4.26441 -0.795652 0
M  V30 2640 H 240.258 5.51402 0.256815 0
M  V30 2641 H 242.734 3.93304 1.35834 0
M  V30 2642 H 241.61 5.0263 2.20578 0
M  V30 2643 H 241.871 3.40252 2.82279 0
M  V30 2644 N 240.93 -0.123565 1.57115 0
M  V30 2645 C 241.893 -1.13583 1.99076 0
M  V30 2646 C 242.893 -1.34564 0.880296 0
M  V30 2647 O 244.083 -1.31158 1.14644 0
M  V30 2648 C 241.215 -2.49128 2.32698 0
M  V30 2649 H 242.408 -0.775287 2.89706 0
M  V30 2650 H 239.961 -0.36771 1.51913 0
M  V30 2651 H 240.696 -2.90111 1.44934 0
M  V30 2652 H 240.481 -2.35255 3.13684 0
M  V30 2653 H 241.971 -3.2199 2.65918 0
M  V30 2654 N 242.408 -1.52605 -0.393616 0
M  V30 2655 C 243.338 -1.80022 -1.48709 0
M  V30 2656 C 244.319 -0.651995 -1.57108 0
M  V30 2657 O 245.504 -0.89913 -1.72132 0
M  V30 2658 C 242.634 -1.96492 -2.86371 0
M  V30 2659 C 241.588 -3.12161 -2.92813 0
M  V30 2660 C 240.914 -3.13877 -4.3288 0
M  V30 2661 C 242.214 -4.51322 -2.6288 0
M  V30 2662 H 243.908 -2.71589 -1.26015 0
M  V30 2663 H 241.454 -1.30684 -0.604778 0
M  V30 2664 H 243.407 -2.14255 -3.62867 0
M  V30 2665 H 242.131 -1.01611 -3.10391 0
M  V30 2666 H 240.79 -2.94173 -2.18764 0
M  V30 2667 H 240.438 -2.16687 -4.53933 0
M  V30 2668 H 240.138 -3.91576 -4.38112 0
M  V30 2669 H 241.662 -3.33789 -5.1129 0
M  V30 2670 H 243.076 -4.69435 -3.29096 0
M  V30 2671 H 241.473 -5.31053 -2.79468 0
M  V30 2672 H 242.543 -4.58353 -1.58242 0
M  V30 2673 N 243.887 0.651787 -1.4349 0
M  V30 2674 C 244.835 1.78586 -1.49029 0
M  V30 2675 C 245.829 1.65448 -0.363767 0
M  V30 2676 O 247.035 1.71777 -0.537821 0
M  V30 2677 H 243.41 0.589236 -0.467231 0
M  V30 2678 H 245.381 1.71035 -2.44519 0
M  V30 2679 C 244.13 3.16851 -1.43181 0
M  V30 2680 H 243.453 3.27598 -2.29171 0
M  V30 2681 H 244.893 3.96156 -1.51118 0
M  V30 2682 C 243.352 3.36568 -0.149616 0
M  V30 2683 O 243.882 3.93885 0.788509 0
M  V30 2684 N 242.088 2.90539 -0.0593484 0
M  V30 2685 H 241.635 2.4408 -0.823575 0
M  V30 2686 H 241.593 3.04108 0.797853 0
M  V30 2687 N 245.365 1.30045 0.890287 0
M  V30 2688 C 246.295 1.18541 2.01172 0
M  V30 2689 C 247.276 0.0773356 1.69924 0
M  V30 2690 O 248.461 0.25845 1.92473 0
M  V30 2691 C 245.591 0.870941 3.36202 0
M  V30 2692 C 244.545 1.93637 3.81692 0
M  V30 2693 C 243.871 1.475 5.13953 0
M  V30 2694 C 245.171 3.34666 4.00994 0
M  V30 2695 H 246.865 2.12359 2.11054 0
M  V30 2696 H 244.411 1.02238 1.01407 0
M  V30 2697 H 246.364 0.777141 4.14172 0
M  V30 2698 H 245.088 -0.102926 3.26438 0
M  V30 2699 H 243.747 2.01972 3.05946 0
M  V30 2700 H 243.395 0.489551 5.00612 0
M  V30 2701 H 243.095 2.1876 5.4536 0
M  V30 2702 H 244.619 1.39489 5.94454 0
M  V30 2703 H 246.033 3.2912 4.69417 0
M  V30 2704 H 244.43 4.03966 4.43769 0
M  V30 2705 H 245.5 3.76949 3.05021 0
M  V30 2706 N 246.843 -1.10192 1.12674 0
M  V30 2707 C 248.071 -1.85983 0.906527 0
M  V30 2708 C 248.486 -1.80783 -0.544333 0
M  V30 2709 O 247.843 -1.19834 -1.37645 0
M  V30 2710 C 247.894 -3.34281 1.37618 0
M  V30 2711 O 247.615 -3.39401 2.77017 0
M  V30 2712 C 249.116 -4.26938 1.19325 0
M  V30 2713 H 246.336 -0.587716 0.323775 0
M  V30 2714 H 248.88 -1.39284 1.49734 0
M  V30 2715 H 247.035 -3.78436 0.828539 0
M  V30 2716 H 247.449 -4.31838 2.97684 0
M  V30 2717 H 248.923 -5.29181 1.57071 0
M  V30 2718 H 249.4 -4.38995 0.134097 0
M  V30 2719 H 250.006 -3.8859 1.72852 0
M  V30 2720 N 248.321 -0.919034 -1.28029 0
M  V30 2721 C 249.569 -0.553838 -1.94363 0
M  V30 2722 C 249.89 0.906357 -1.72656 0
M  V30 2723 O 249.16 1.64143 -1.0693 0
M  V30 2724 H 247.74 -0.201834 -0.719216 0
M  V30 2725 H 250.402 -1.16954 -1.55909 0
M  V30 2726 H 249.498 -0.752758 -3.02886 0
M  V30 2727 N 249.799 1.42003 -0.683588 0
M  V30 2728 C 251.046 2.01413 -0.209514 0
M  V30 2729 C 251.374 1.54088 1.1869 0
M  V30 2730 O 250.629 0.737591 1.81268 0
M  V30 2731 C 250.928 3.56827 -0.202357 0
M  V30 2732 C 250.594 4.23617 -1.54464 0
M  V30 2733 C 249.256 4.41577 -1.91215 0
M  V30 2734 C 251.608 4.61178 -2.42826 0
M  V30 2735 C 248.936 4.9437 -3.15935 0
M  V30 2736 C 251.288 5.15355 -3.66867 0
M  V30 2737 C 249.952 5.31528 -4.03776 0
M  V30 2738 H 249.222 0.737023 -0.0766668 0
M  V30 2739 H 251.869 1.70067 -0.880312 0
M  V30 2740 H 250.174 3.87892 0.551969 0
M  V30 2741 H 251.871 4.00588 0.181793 0
M  V30 2742 H 248.461 4.10004 -1.24877 0
M  V30 2743 H 252.645 4.46968 -2.15717 0
M  V30 2744 H 247.901 5.05076 -3.44541 0
M  V30 2745 H 252.075 5.43402 -4.35531 0
M  V30 2746 H 249.702 5.72199 -5.00492 0
M  V30 2747 N 251.277 0.427512 1.51691 0
M  V30 2748 C 252.523 -0.142439 2.02299 0
M  V30 2749 C 252.856 -1.43214 1.31162 0
M  V30 2750 O 252.131 -1.89833 0.423511 0
M  V30 2751 C 252.414 -0.371301 3.58181 0
M  V30 2752 C 252.267 0.936358 4.39946 0
M  V30 2753 C 253.586 -1.14542 4.24933 0
M  V30 2754 H 250.705 -0.0502937 0.735282 0
M  V30 2755 H 253.347 0.564584 1.81418 0
M  V30 2756 H 251.497 -0.973559 3.76104 0
M  V30 2757 H 253.169 1.57184 4.33694 0
M  V30 2758 H 251.412 1.5432 4.05423 0
M  V30 2759 H 252.083 0.730388 5.47147 0
M  V30 2760 H 254.559 -0.635362 4.11221 0
M  V30 2761 H 253.435 -1.27431 5.33903 0
M  V30 2762 H 253.696 -2.17093 3.85127 0
M  V30 2763 N 252.755 -1.56801 0.158532 0
M  V30 2764 C 253.718 -2.16138 -0.762705 0
M  V30 2765 C 254.718 -1.1061 -1.16713 0
M  V30 2766 O 255.908 -1.36191 -1.08617 0
M  V30 2767 C 253.04 -2.73386 -2.03649 0
M  V30 2768 H 254.233 -2.98886 -0.246354 0
M  V30 2769 H 251.786 -1.56035 -0.0909744 0
M  V30 2770 H 252.521 -1.94335 -2.59623 0
M  V30 2771 H 252.306 -3.50601 -1.75559 0
M  V30 2772 H 253.796 -3.19065 -2.6942 0
M  V30 2773 N 254.233 0.115231 -1.57178 0
M  V30 2774 C 255.463 0.835224 -1.88964 0
M  V30 2775 C 255.871 1.73774 -0.74829 0
M  V30 2776 O 255.214 1.81401 0.289739 0
M  V30 2777 C 255.276 1.7178 -3.15804 0
M  V30 2778 C 254.94 0.989198 -4.46166 0
M  V30 2779 C 255.937 0.328263 -5.18863 0
M  V30 2780 C 253.622 0.969256 -4.9286 0
M  V30 2781 C 255.616 -0.342873 -6.36477 0
M  V30 2782 C 253.303 0.294324 -6.10391 0
M  V30 2783 C 254.301 -0.360582 -6.82048 0
M  V30 2784 O 253.989 -1.02474 -7.97342 0
M  V30 2785 H 253.721 0.245197 -0.629964 0
M  V30 2786 H 256.275 0.10303 -2.05141 0
M  V30 2787 H 254.505 2.49173 -2.95719 0
M  V30 2788 H 256.194 2.31255 -3.33581 0
M  V30 2789 H 256.96 0.335263 -4.8384 0
M  V30 2790 H 252.839 1.46844 -4.36987 0
M  V30 2791 H 256.383 -0.854629 -6.92345 0
M  V30 2792 H 252.28 0.285099 -6.4487 0
M  V30 2793 H 253.048 -0.929594 -8.13204 0
M  V30 2794 N 255.711 1.52812 0.385517 0
M  V30 2795 C 256.936 1.72207 1.15583 0
M  V30 2796 C 257.361 0.441034 1.82857 0
M  V30 2797 O 256.719 -0.603465 1.70962 0
M  V30 2798 C 256.767 2.87476 2.17692 0
M  V30 2799 O 255.871 2.54693 3.24354 0
M  V30 2800 H 255.212 0.572526 0.336319 0
M  V30 2801 H 257.742 1.99618 0.448744 0
M  V30 2802 H 257.752 3.13072 2.6163 0
M  V30 2803 H 256.427 3.80408 1.68115 0
M  V30 2804 H 255.004 2.3985 2.85529 0
M  V30 2805 N 257.189 -0.644168 1.43834 0
M  V30 2806 C 258.435 -1.40603 1.46146 0
M  V30 2807 C 258.768 -1.93997 0.0887717 0
M  V30 2808 O 258.043 -1.72854 -0.891724 0
M  V30 2809 C 258.326 -2.58086 2.51124 0
M  V30 2810 C 258.179 -2.10126 3.97702 0
M  V30 2811 C 259.498 -3.60291 2.52742 0
M  V30 2812 H 256.617 -0.509905 0.532134 0
M  V30 2813 H 259.259 -0.729502 1.75437 0
M  V30 2814 H 257.409 -3.15801 2.26278 0
M  V30 2815 H 259.081 -1.57342 4.33637 0
M  V30 2816 H 257.324 -1.41419 4.10101 0
M  V30 2817 H 257.995 -2.94649 4.66783 0
M  V30 2818 H 260.471 -3.12352 2.7491 0
M  V30 2819 H 259.347 -4.40032 3.28121 0
M  V30 2820 H 259.608 -4.1349 1.56455 0
M  V30 2821 N 258.668 -1.30515 -0.883378 0
M  V30 2822 C 259.915 -1.1943 -1.63532 0
M  V30 2823 C 260.243 0.250627 -1.92878 0
M  V30 2824 O 259.498 1.19556 -1.54935 0
M  V30 2825 C 259.797 -1.96994 -2.98209 0
M  V30 2826 C 259.463 -3.466 -2.88408 0
M  V30 2827 C 258.125 -3.87397 -2.85442 0
M  V30 2828 C 260.477 -4.41863 -2.76418 0
M  V30 2829 C 257.805 -5.21745 -2.68327 0
M  V30 2830 C 260.157 -5.7632 -2.60841 0
M  V30 2831 C 258.821 -6.16354 -2.56251 0
M  V30 2832 H 258.091 -0.437025 -0.598406 0
M  V30 2833 H 260.738 -1.61635 -1.02696 0
M  V30 2834 H 259.043 -1.47429 -3.63004 0
M  V30 2835 H 260.74 -1.85808 -3.55354 0
M  V30 2836 H 257.33 -3.14182 -2.91527 0
M  V30 2837 H 261.514 -4.11285 -2.77775 0
M  V30 2838 H 256.77 -5.51853 -2.63189 0
M  V30 2839 H 260.944 -6.49772 -2.50538 0
M  V30 2840 H 258.571 -7.20401 -2.42748 0
M  V30 2841 N 260.146 1.09593 -1.13257 0
M  V30 2842 C 261.094 2.18271 -0.803783 0
M  V30 2843 C 262.088 1.68054 0.213148 0
M  V30 2844 O 263.294 1.79862 0.0704699 0
M  V30 2845 H 259.669 0.711949 -0.242143 0
M  V30 2846 H 261.64 2.43235 -1.72856 0
M  V30 2847 C 260.389 3.46536 -0.28424 0
M  V30 2848 H 259.712 3.85545 -1.05807 0
M  V30 2849 H 261.152 4.23899 -0.0925945 0
M  V30 2850 C 259.611 3.22036 0.989684 0
M  V30 2851 O 260.141 3.44509 2.06584 0
M  V30 2852 N 258.347 2.7565 0.920086 0
M  V30 2853 H 257.894 2.57562 0.0442019 0
M  V30 2854 H 257.852 2.59635 1.77306 0
M  V30 2855 N 261.624 0.925811 1.2754 0
M  V30 2856 C 262.873 0.561084 1.93739 0
M  V30 2857 C 263.186 -0.901685 1.73577 0
M  V30 2858 O 264.392 -1.37511 2.34101 0
M  V30 2859 C 262.848 0.952668 3.47062 0
M  V30 2860 C 262.456 2.43599 3.75983 0
M  V30 2861 C 264.2 0.659103 4.19352 0
M  V30 2862 C 262.107 2.76707 5.22673 0
M  V30 2863 H 261.037 0.206122 0.725279 0
M  V30 2864 H 263.688 1.12637 1.44863 0
M  V30 2865 H 262.07 0.316053 3.94737 0
M  V30 2866 H 263.244 3.12035 3.39073 0
M  V30 2867 H 261.559 2.70125 3.16893 0
M  V30 2868 H 264.156 0.882985 5.27359 0
M  V30 2869 H 264.499 -0.403607 4.14339 0
M  V30 2870 H 265.032 1.25473 3.77494 0
M  V30 2871 H 261.771 3.8188 5.32774 0
M  V30 2872 H 261.291 2.12919 5.60737 0
M  V30 2873 H 262.97 2.6435 5.90532 0
M  V30 2874 N 263.102 -1.41638 0.69111 0
M  V30 2875 C 264.35 -2.00902 0.219758 0
M  V30 2876 C 264.671 -1.54994 -1.18329 0
M  V30 2877 O 263.941 -0.778628 -1.79762 0
M  V30 2878 H 262.521 -0.74289 0.0782558 0
M  V30 2879 H 265.183 -1.73327 0.891271 0
M  V30 2880 H 264.279 -3.11224 0.233708 0
M  V30 2881 N 264.58 -0.43555 -1.51462 0
M  V30 2882 C 265.51 0.367376 -2.30592 0
M  V30 2883 C 266.491 1.02263 -1.35928 0
M  V30 2884 O 267.676 1.02661 -1.64847 0
M  V30 2885 C 264.806 1.46983 -3.14664 0
M  V30 2886 C 263.76 0.938161 -4.17591 0
M  V30 2887 C 263.086 2.13622 -4.90173 0
M  V30 2888 C 264.386 -0.0261621 -5.22293 0
M  V30 2889 H 266.08 -0.292969 -2.97963 0
M  V30 2890 H 263.626 -0.14234 -1.43295 0
M  V30 2891 H 265.579 2.03873 -3.688 0
M  V30 2892 H 264.303 2.15843 -2.4511 0
M  V30 2893 H 262.962 0.391481 -3.64504 0
M  V30 2894 H 262.61 2.81098 -4.17124 0
M  V30 2895 H 262.31 1.78688 -5.59772 0
M  V30 2896 H 263.834 2.7107 -5.47132 0
M  V30 2897 H 265.248 0.452384 -5.71512 0
M  V30 2898 H 263.645 -0.287992 -5.99409 0
M  V30 2899 H 264.715 -0.963391 -4.75233 0
M  V30 2900 N 266.058 1.56714 -0.166846 0
M  V30 2901 C 266.988 2.20754 0.760913 0
M  V30 2902 C 267.969 1.16178 1.24244 0
M  V30 2903 O 269.154 1.44592 1.29641 0
M  V30 2904 C 266.284 2.84478 1.99223 0
M  V30 2905 C 265.238 3.95053 1.64672 0
M  V30 2906 C 264.564 4.45805 2.95232 0
M  V30 2907 C 265.864 5.14865 0.878155 0
M  V30 2908 H 267.558 2.98537 0.22713 0
M  V30 2909 H 265.104 1.43596 0.107805 0
M  V30 2910 H 267.057 3.27951 2.64624 0
M  V30 2911 H 265.781 2.04056 2.55007 0
M  V30 2912 H 264.44 3.52228 1.01641 0
M  V30 2913 H 264.088 3.62181 3.49047 0
M  V30 2914 H 263.788 5.204 2.7287 0
M  V30 2915 H 265.312 4.91962 3.6167 0
M  V30 2916 H 266.726 5.55059 1.43466 0
M  V30 2917 H 265.123 5.95348 0.753738 0
M  V30 2918 H 266.193 4.84735 -0.126377 0
M  V30 2919 N 267.536 -0.106894 1.57237 0
M  V30 2920 C 268.782 -0.808678 1.86633 0
M  V30 2921 C 269.137 -1.76917 0.756178 0
M  V30 2922 O 268.43 -1.90055 -0.242834 0
M  V30 2923 C 268.624 -1.58628 3.20268 0
M  V30 2924 C 268.453 -0.702592 4.44178 0
M  V30 2925 C 267.223 -0.352808 5.04067 0
M  V30 2926 C 269.421 -0.0148031 5.14298 0
M  V30 2927 N 267.403 0.540279 6.11518 0
M  V30 2928 C 268.774 0.736809 6.15606 0
M  V30 2929 C 270.829 0.0603524 4.97863 0
M  V30 2930 C 269.532 1.55654 7.02257 0
M  V30 2931 C 271.558 0.866942 5.85011 0
M  V30 2932 C 270.92 1.60671 6.85831 0
M  V30 2933 H 267.019 -0.27246 0.733001 0
M  V30 2934 H 269.603 -0.0717858 1.94568 0
M  V30 2935 H 267.774 -2.29413 3.13408 0
M  V30 2936 H 269.506 -2.23434 3.3743 0
M  V30 2937 H 266.261 -0.697802 4.68431 0
M  V30 2938 H 266.685 0.979029 6.69884 0
M  V30 2939 H 271.327 -0.497236 4.19866 0
M  V30 2940 H 269.045 2.12524 7.79653 0
M  V30 2941 H 272.631 0.927612 5.74358 0
M  V30 2942 H 271.511 2.2208 7.52097 0
M  V30 2943 N 269.014 -1.53014 -0.377408 0
M  V30 2944 C 270.26 -1.68872 -1.12294 0
M  V30 2945 C 270.593 -0.433224 -1.89306 0
M  V30 2946 O 269.868 0.569258 -1.85983 0
M  V30 2947 C 270.151 -2.93115 -2.09179 0
M  V30 2948 C 270.004 -4.28794 -1.35853 0
M  V30 2949 C 271.323 -3.12928 -3.09458 0
M  V30 2950 H 268.442 -0.614518 -0.406862 0
M  V30 2951 H 271.084 -1.85633 -0.40503 0
M  V30 2952 H 269.234 -2.78956 -2.70399 0
M  V30 2953 H 270.906 -4.54742 -0.775082 0
M  V30 2954 H 269.149 -4.28744 -0.660364 0
M  V30 2955 H 269.82 -5.11837 -2.06706 0
M  V30 2956 H 272.296 -3.26194 -2.58334 0
M  V30 2957 H 271.172 -4.01316 -3.74482 0
M  V30 2958 H 271.433 -2.27669 -3.78971 0
M  V30 2959 N 270.492 0.636531 -1.44174 0
M  V30 2960 C 271.903 1.21806 -1.41493 0
M  V30 2961 C 272.254 1.95785 -0.1275 0
M  V30 2962 O 271.379 2.02147 0.772376 0
M  V30 2963 C 271.974 2.21551 -2.56321 0
M  V30 2964 C 270.533 2.75143 -2.56853 0
M  V30 2965 C 269.68 1.50052 -2.33195 0
M  V30 2966 H 272.631 0.427531 -1.52833 0
M  V30 2967 H 272.652 3.0405 -2.28765 0
M  V30 2968 H 272.164 1.67679 -3.50008 0
M  V30 2969 H 270.265 3.33033 -1.67093 0
M  V30 2970 H 270.378 3.2155 -3.55165 0
M  V30 2971 H 268.742 1.77993 -1.82183 0
M  V30 2972 H 269.525 0.980903 -3.28988 0
M  V30 2973 N 271.97 1.30982 0.876444 0
M  V30 2974 C 273.2 1.23063 1.65949 0
M  V30 2975 C 273.608 -0.207537 1.88058 0
M  V30 2976 O 272.951 -1.14781 1.43426 0
M  V30 2977 C 273.013 1.89768 3.05333 0
M  V30 2978 C 272.677 3.39106 3.0636 0
M  V30 2979 C 273.674 4.3496 2.84791 0
M  V30 2980 C 271.359 3.80693 3.27686 0
M  V30 2981 C 273.353 5.70375 2.84519 0
M  V30 2982 C 271.04 5.16223 3.27043 0
M  V30 2983 C 272.038 6.10875 3.05485 0
M  V30 2984 O 271.726 7.43928 3.04674 0
M  V30 2985 H 271.458 0.426685 0.524324 0
M  V30 2986 H 274.012 1.7329 1.10271 0
M  V30 2987 H 272.242 1.34082 3.6271 0
M  V30 2988 H 273.931 1.75853 3.65829 0
M  V30 2989 H 274.697 4.0416 2.68103 0
M  V30 2990 H 270.576 3.07457 3.43499 0
M  V30 2991 H 274.12 6.44228 2.67611 0
M  V30 2992 H 270.017 5.4666 3.43269 0
M  V30 2993 H 270.785 7.53022 3.2078 0
M  V30 2994 N 273.449 -1.08991 1.13837 0
M  V30 2995 C 274.698 -1.80631 0.897509 0
M  V30 2996 C 275.011 -1.86872 -0.57777 0
M  V30 2997 O 276.217 -2.54866 -0.935701 0
M  V30 2998 C 274.673 -3.24517 1.55618 0
M  V30 2999 C 274.281 -3.26529 3.0673 0
M  V30 3000 C 276.025 -4.00882 1.3962 0
M  V30 3001 C 273.932 -4.64965 3.65461 0
M  V30 3002 H 272.862 -0.67691 0.332129 0
M  V30 3003 H 275.513 -1.2246 1.3666 0
M  V30 3004 H 273.895 -3.82778 1.01476 0
M  V30 3005 H 275.069 -2.78008 3.67489 0
M  V30 3006 H 273.384 -2.63656 3.22296 0
M  V30 3007 H 275.981 -5.03167 1.80906 0
M  V30 3008 H 276.324 -4.14896 0.341578 0
M  V30 3009 H 276.857 -3.49075 1.90766 0
M  V30 3010 H 273.596 -4.56153 4.70749 0
M  V30 3011 H 273.116 -5.13792 3.09481 0
M  V30 3012 H 274.795 -5.3394 3.654 0
M  V30 3013 N 274.927 -0.932562 -1.27047 0
M  V30 3014 C 275.874 -0.434072 -2.26681 0
M  V30 3015 C 276.844 0.501639 -1.58344 0
M  V30 3016 O 278.029 0.419734 -1.86126 0
M  V30 3017 C 275.169 0.30261 -3.43771 0
M  V30 3018 C 274.282 -0.667774 -4.26808 0
M  V30 3019 C 273.417 0.0892393 -5.31125 0
M  V30 3020 C 272.456 -0.873532 -6.05835 0
M  V30 3021 N 271.593 -0.148832 -7.01942 0
M  V30 3022 H 276.433 -1.28868 -2.68695 0
M  V30 3023 H 273.97 -0.646713 -1.32121 0
M  V30 3024 H 275.928 0.746092 -4.10474 0
M  V30 3025 H 274.558 1.12142 -3.02695 0
M  V30 3026 H 273.61 -1.22978 -3.59973 0
M  V30 3027 H 274.922 -1.40337 -4.78651 0
M  V30 3028 H 274.076 0.592409 -6.03801 0
M  V30 3029 H 272.815 0.85777 -4.80097 0
M  V30 3030 H 271.82 -1.38791 -5.31994 0
M  V30 3031 H 273.045 -1.64193 -6.58952 0
M  V30 3032 H 270.991 0.601365 -6.53238 0
M  V30 3033 H 270.908 -0.82391 -7.51497 0
M  V30 3034 H 272.176 0.333527 -7.78786 0
M  V30 3035 N 276.405 1.4127 -0.698611 0
M  V30 3036 C 277.315 2.34573 -0.0357891 0
M  V30 3037 C 278.331 1.56393 0.762701 0
M  V30 3038 O 279.507 1.8886 0.699564 0
M  V30 3039 C 276.572 3.35159 0.887089 0
M  V30 3040 C 275.633 4.29225 0.0804634 0
M  V30 3041 C 274.866 5.25006 0.959387 0
M  V30 3042 O 275.089 5.26314 2.19886 0
M  V30 3043 O 274.023 6.00519 0.407439 0
M  V30 3044 H 277.849 2.92838 -0.804957 0
M  V30 3045 H 275.434 1.42175 -0.458966 0
M  V30 3046 H 277.316 3.9689 1.41621 0
M  V30 3047 H 275.991 2.79333 1.6357 0
M  V30 3048 H 274.898 3.70833 -0.493328 0
M  V30 3049 H 276.231 4.88157 -0.629547 0
M  V30 3050 N 277.883 0.443576 1.51229 0
M  V30 3051 C 278.815 -0.400608 2.25672 0
M  V30 3052 C 279.828 -0.980945 1.29928 0
M  V30 3053 O 281.017 -0.874024 1.55638 0
M  V30 3054 C 278.117 -1.57304 3.00181 0
M  V30 3055 C 277.29 -1.11046 4.23069 0
M  V30 3056 C 276.349 -2.15374 4.80105 0
M  V30 3057 O 275.375 -1.74554 5.41774 0
M  V30 3058 N 276.577 -3.47922 4.64683 0
M  V30 3059 H 279.342 0.23745 2.98758 0
M  V30 3060 H 276.903 0.272809 1.59585 0
M  V30 3061 H 278.895 -2.26733 3.35223 0
M  V30 3062 H 277.465 -2.11632 2.30066 0
M  V30 3063 H 276.685 -0.243019 3.9345 0
M  V30 3064 H 277.973 -0.778888 5.02803 0
M  V30 3065 H 277.371 -3.83815 4.15575 0
M  V30 3066 H 275.928 -4.13228 5.0407 0
M  V30 3067 N 279.361 -1.56624 0.175154 0
M  V30 3068 C 280.608 -1.96999 -0.468811 0
M  V30 3069 C 280.936 -1.06129 -1.62994 0
M  V30 3070 O 280.191 -0.0961771 -1.95464 0
M  V30 3071 C 280.49 -3.43419 -0.989864 0
M  V30 3072 C 280.156 -4.50866 0.0557687 0
M  V30 3073 C 278.818 -4.79975 0.343134 0
M  V30 3074 C 281.17 -5.15551 0.765308 0
M  V30 3075 C 278.498 -5.71066 1.34536 0
M  V30 3076 C 280.85 -6.07724 1.75654 0
M  V30 3077 C 279.514 -6.35199 2.05132 0
M  V30 3078 H 278.784 -0.720869 -0.17155 0
M  V30 3079 H 281.431 -1.89616 0.267924 0
M  V30 3080 H 279.736 -3.47772 -1.80449 0
M  V30 3081 H 281.433 -3.72002 -1.49719 0
M  V30 3082 H 278.023 -4.28229 -0.178381 0
M  V30 3083 H 282.207 -4.9317 0.556513 0
M  V30 3084 H 277.463 -5.90635 1.57988 0
M  V30 3085 H 281.637 -6.56912 2.31169 0
M  V30 3086 H 279.264 -7.05584 2.8294 0
M  V30 3087 N 280.839 0.0985539 -1.57292 0
M  V30 3088 C 281.769 1.12064 -2.04851 0
M  V30 3089 C 282.75 1.41981 -0.936767 0
M  V30 3090 O 283.935 1.52071 -1.20781 0
M  V30 3091 C 281.065 2.44144 -2.47004 0
M  V30 3092 C 280.019 2.28643 -3.6181 0
M  V30 3093 C 279.345 3.65869 -3.89929 0
M  V30 3094 C 280.645 1.72986 -4.92822 0
M  V30 3095 H 282.339 0.724979 -2.9049 0
M  V30 3096 H 279.885 0.34729 -1.39749 0
M  V30 3097 H 281.838 3.15914 -2.78884 0
M  V30 3098 H 280.562 2.85639 -1.5836 0
M  V30 3099 H 279.221 1.59318 -3.30172 0
M  V30 3100 H 278.869 4.04885 -2.98458 0
M  V30 3101 H 278.569 3.56344 -4.67218 0
M  V30 3102 H 280.093 4.39112 -4.2428 0
M  V30 3103 H 281.507 2.34593 -5.23105 0
M  V30 3104 H 279.904 1.74229 -5.74251 0
M  V30 3105 H 280.974 0.689007 -4.7998 0
M  V30 3106 N 282.317 1.53212 0.369288 0
M  V30 3107 C 283.247 1.82365 1.45826 0
M  V30 3108 C 284.228 0.676907 1.56051 0
M  V30 3109 O 285.413 0.926401 1.70679 0
M  V30 3110 C 282.543 2.01023 2.83208 0
M  V30 3111 C 281.497 3.1678 2.8781 0
M  V30 3112 C 280.823 3.20724 4.27832 0
M  V30 3113 C 282.123 4.55447 2.55667 0
M  V30 3114 H 283.817 2.73559 1.21678 0
M  V30 3115 H 281.363 1.3163 0.583911 0
M  V30 3116 H 283.316 2.20001 3.59413 0
M  V30 3117 H 282.04 1.06536 3.08736 0
M  V30 3118 H 280.699 2.97616 2.14056 0
M  V30 3119 H 280.347 2.23882 4.50429 0
M  V30 3120 H 280.047 3.98496 4.31827 0
M  V30 3121 H 281.571 3.41881 5.05915 0
M  V30 3122 H 282.985 4.74611 3.21586 0
M  V30 3123 H 281.382 5.35432 2.70984 0
M  V30 3124 H 282.452 4.60812 1.5093 0
M  V30 3125 N 283.795 -0.628877 1.44509 0
M  V30 3126 C 284.742 -1.74074 1.51549 0
M  V30 3127 C 285.712 -1.62084 0.363021 0
M  V30 3128 O 286.897 -1.81975 0.573567 0
M  V30 3129 C 284.037 -3.12328 1.46784 0
M  V30 3130 C 283.15 -3.35277 2.72422 0
M  V30 3131 C 282.285 -4.63515 2.59475 0
M  V30 3132 C 281.324 -4.7965 3.80266 0
M  V30 3133 N 280.461 -5.99168 3.65981 0
M  V30 3134 H 285.301 -1.67392 2.46544 0
M  V30 3135 H 282.838 -0.816527 1.22357 0
M  V30 3136 H 284.796 -3.92286 1.42012 0
M  V30 3137 H 283.426 -3.18018 0.553544 0
M  V30 3138 H 282.478 -2.49242 2.87372 0
M  V30 3139 H 283.79 -3.43078 3.62076 0
M  V30 3140 H 282.944 -5.51638 2.52548 0
M  V30 3141 H 281.683 -4.58076 1.67384 0
M  V30 3142 H 280.688 -3.89957 3.87574 0
M  V30 3143 H 281.913 -4.86902 4.73395 0
M  V30 3144 H 279.859 -5.94814 2.76644 0
M  V30 3145 H 279.776 -6.08035 4.49254 0
M  V30 3146 H 281.044 -6.89846 3.6295 0
M  V30 3147 N 285.273 -1.31445 -0.869486 0
M  V30 3148 C 286.503 -1.23942 -1.65294 0
M  V30 3149 C 286.911 0.197561 -1.88166 0
M  V30 3150 O 286.254 1.14019 -1.44033 0
M  V30 3151 C 286.316 -1.91385 -3.04322 0
M  V30 3152 C 285.98 -3.40726 -3.04557 0
M  V30 3153 C 286.977 -4.36464 -2.82481 0
M  V30 3154 C 284.662 -3.82425 -3.25663 0
M  V30 3155 C 286.656 -5.71876 -2.8149 0
M  V30 3156 C 284.343 -5.1795 -3.243 0
M  V30 3157 C 285.341 -6.12486 -3.02241 0
M  V30 3158 O 285.029 -7.45534 -3.00724 0
M  V30 3159 H 284.761 -0.429459 -0.522054 0
M  V30 3160 H 287.315 -1.73873 -1.0935 0
M  V30 3161 H 285.545 -1.36004 -3.61994 0
M  V30 3162 H 287.234 -1.77791 -3.64891 0
M  V30 3163 H 288 -4.05576 -2.65956 0
M  V30 3164 H 283.879 -3.09274 -3.41863 0
M  V30 3165 H 287.423 -6.45638 -2.64191 0
M  V30 3166 H 283.32 -5.48473 -3.40365 0
M  V30 3167 H 284.088 -7.54713 -3.16782 0
M  V30 3168 N 286.751 1.08385 -1.14413 0
M  V30 3169 C 288.162 1.62258 -0.923535 0
M  V30 3170 C 288.513 1.88691 0.537595 0
M  V30 3171 O 287.638 1.64454 1.40655 0
M  V30 3172 C 288.233 2.94781 -1.67002 0
M  V30 3173 C 286.792 3.45437 -1.495 0
M  V30 3174 C 285.939 2.19668 -1.69238 0
M  V30 3175 H 288.89 0.916086 -1.2959 0
M  V30 3176 H 288.911 3.63229 -1.13334 0
M  V30 3177 H 288.423 2.7551 -2.73342 0
M  V30 3178 H 286.524 3.6981 -0.455097 0
M  V30 3179 H 286.637 4.22173 -2.2651 0
M  V30 3180 H 285.001 2.28849 -1.11804 0
M  V30 3181 H 285.784 2.02905 -2.7692 0
M  V30 3182 N 288.23 0.939286 1.26551 0
M  V30 3183 C 289.178 0.43815 2.28436 0
M  V30 3184 C 290.172 -0.483587 1.62351 0
M  V30 3185 O 291.378 -0.362009 1.76322 0
M  V30 3186 H 287.753 0.123149 0.741848 0
M  V30 3187 H 289.724 1.31002 2.68106 0
M  V30 3188 C 288.473 -0.283052 3.46546 0
M  V30 3189 H 287.796 0.417043 3.97619 0
M  V30 3190 H 289.236 -0.597948 4.19763 0
M  V30 3191 C 287.695 -1.50018 3.01656 0
M  V30 3192 O 288.225 -2.59855 3.0633 0
M  V30 3193 N 286.431 -1.35608 2.57019 0
M  V30 3194 H 285.978 -0.46244 2.53415 0
M  V30 3195 H 285.936 -2.17165 2.27347 0
M  V30 3196 N 289.708 -1.40897 0.706093 0
M  V30 3197 C 290.956 -2.00657 0.241054 0
M  V30 3198 C 291.277 -1.56241 -1.16678 0
M  V30 3199 O 290.547 -0.79765 -1.78926 0
M  V30 3200 H 289.127 -0.742018 0.0861308 0
M  V30 3201 H 291.789 -1.72372 0.909604 0
M  V30 3202 H 290.885 -3.10958 0.266705 0
M  V30 3203 N 291.186 -0.45159 -1.50991 0
M  V30 3204 C 292.432 0.110237 -2.025 0
M  V30 3205 C 292.765 1.41109 -1.33424 0
M  V30 3206 O 292.04 1.89135 -0.453659 0
M  V30 3207 C 292.323 0.314271 -3.58726 0
M  V30 3208 C 292.176 -1.00623 -4.38401 0
M  V30 3209 C 293.495 1.07767 -4.26702 0
M  V30 3210 H 290.614 0.0385897 -0.735989 0
M  V30 3211 H 293.256 -0.593374 -1.80497 0
M  V30 3212 H 291.406 0.913601 -3.77605 0
M  V30 3213 H 293.078 -1.64064 -4.31139 0
M  V30 3214 H 291.321 -1.6075 -4.02917 0
M  V30 3215 H 291.992 -0.817341 -5.45915 0
M  V30 3216 H 294.468 0.56986 -4.12179 0
M  V30 3217 H 293.344 1.18921 -5.35863 0
M  V30 3218 H 293.605 2.10939 -3.88532 0
M  V30 3219 N 292.664 1.56529 -0.183458 0
M  V30 3220 C 293.612 2.19873 0.758845 0
M  V30 3221 C 294.606 1.16638 1.22849 0
M  V30 3222 O 295.812 1.3481 1.19274 0
M  V30 3223 H 292.187 0.7045 0.263029 0
M  V30 3224 H 294.158 2.97724 0.200755 0
M  V30 3225 C 292.907 2.86314 1.9728 0
M  V30 3226 H 292.23 3.65487 1.62047 0
M  V30 3227 H 293.67 3.3409 2.61075 0
M  V30 3228 C 292.129 1.86729 2.80418 0
M  V30 3229 O 292.659 1.36031 3.77966 0
M  V30 3230 N 290.865 1.55216 2.45675 0
M  V30 3231 H 290.412 1.96636 1.66409 0
M  V30 3232 H 290.37 0.888388 3.01588 0
M  V30 3233 N 294.142 -0.090211 1.57342 0
M  V30 3234 C 295.553 -0.644173 1.75235 0
M  V30 3235 C 295.904 -1.78865 0.806335 0
M  V30 3236 O 295.029 -2.16395 -0.0140128 0
M  V30 3237 C 295.624 -1.17532 3.1776 0
M  V30 3238 C 294.183 -1.67531 3.37061 0
M  V30 3239 C 293.33 -0.58693 2.71017 0
M  V30 3240 H 296.281 0.135884 1.58117 0
M  V30 3241 H 296.302 -2.04455 3.20902 0
M  V30 3242 H 295.814 -0.342138 3.86589 0
M  V30 3243 H 293.915 -2.53234 2.73319 0
M  V30 3244 H 294.028 -1.76493 4.45406 0
M  V30 3245 H 292.392 -1.02756 2.33052 0
M  V30 3246 H 293.175 0.235758 3.4249 0
M  V30 3247 N 295.62 -1.53406 -0.361157 0
M  V30 3248 C 296.866 -1.70054 -1.10496 0
M  V30 3249 C 297.199 -0.453278 -1.88836 0
M  V30 3250 O 296.474 0.5495 -1.86576 0
M  V30 3251 C 296.757 -2.95317 -2.06058 0
M  V30 3252 C 296.61 -4.3021 -1.31298 0
M  V30 3253 C 297.929 -3.16193 -3.06121 0
M  V30 3254 H 295.048 -0.618799 -0.400321 0
M  V30 3255 H 297.69 -1.86052 -0.385318 0
M  V30 3256 H 295.84 -2.81809 -2.67425 0
M  V30 3257 H 297.512 -4.55538 -0.726807 0
M  V30 3258 H 295.755 -4.29421 -0.614853 0
M  V30 3259 H 296.426 -5.14 -2.01265 0
M  V30 3260 H 298.902 -3.28916 -2.5486 0
M  V30 3261 H 297.778 -4.05266 -3.70204 0
M  V30 3262 H 298.039 -2.31676 -3.76535 0
M  V30 3263 N 297.098 0.621204 -1.44841 0
M  V30 3264 C 298.046 1.75385 -1.52784 0
M  V30 3265 C 299.04 1.64639 -0.398779 0
M  V30 3266 O 300.246 1.70598 -0.574137 0
M  V30 3267 H 296.621 0.579193 -0.479625 0
M  V30 3268 H 298.592 1.6581 -2.48092 0
M  V30 3269 C 297.341 3.13742 -1.4987 0
M  V30 3270 H 296.664 3.22663 -2.36069 0
M  V30 3271 H 298.104 3.92861 -1.59487 0
M  V30 3272 C 296.563 3.36175 -0.220973 0
M  V30 3273 O 297.093 3.95469 0.704782 0
M  V30 3274 N 295.299 2.90348 -0.120963 0
M  V30 3275 H 294.846 2.42278 -0.875162 0
M  V30 3276 H 294.804 3.05732 0.733168 0
M  V30 3277 N 298.576 1.31904 0.862503 0
M  V30 3278 C 299.801 1.25135 1.65397 0
M  V30 3279 C 300.226 -0.179 1.87246 0
M  V30 3280 O 299.584 -1.1277 1.4196 0
M  V30 3281 C 299.632 2.00832 2.99498 0
M  V30 3282 O 298.736 1.35075 3.89652 0
M  V30 3283 H 298.077 0.431655 0.504549 0
M  V30 3284 H 300.607 1.74094 1.07483 0
M  V30 3285 H 300.617 2.10709 3.49379 0
M  V30 3286 H 299.292 3.04847 2.82916 0
M  V30 3287 H 297.869 1.33696 3.48109 0
M  V30 3288 N 300.054 -1.07777 1.14986 0
M  V30 3289 C 301.002 -2.16964 0.838406 0
M  V30 3290 C 301.996 -1.68372 -0.186386 0
M  V30 3291 O 303.202 -1.79951 -0.0418465 0
M  V30 3292 H 299.577 -0.708006 0.253439 0
M  V30 3293 H 301.548 -2.40454 1.76704 0
M  V30 3294 C 300.297 -3.4604 0.339335 0
M  V30 3295 H 299.62 -3.83813 1.11927 0
M  V30 3296 H 301.06 -4.23698 0.160021 0
M  V30 3297 C 299.519 -3.23569 -0.938325 0
M  V30 3298 O 300.049 -3.47752 -2.01077 0
M  V30 3299 N 298.255 -2.77079 -0.876117 0
M  V30 3300 H 297.802 -2.576 -0.00322037 0
M  V30 3301 H 297.76 -2.62422 -1.73153 0
M  V30 3302 N 301.532 -0.945985 -1.26051 0
M  V30 3303 C 302.809 -0.513816 -1.88731 0
M  V30 3304 C 303.189 1.00872 -1.8544 0
M  V30 3305 O 302.537 1.8708 -1.312 0
M  V30 3306 C 302.747 -1.08062 -3.31849 0
M  V30 3307 C 304.095 -1.1522 -4.08668 0
M  V30 3308 O 305.119 -1.03155 -3.40936 0
M  V30 3309 O 303.978 -1.34044 -5.29806 0
M  V30 3310 H 301.072 -0.168193 -0.809716 0
M  V30 3311 H 303.618 -1.03886 -1.34186 0
M  V30 3312 H 302.39 -2.1241 -3.2863 0
M  V30 3313 H 302.013 -0.538307 -3.93939 0
M  V30 3314 N 303.011 1.40521 -0.713556 0
M  V30 3315 C 304.257 2.01221 -0.252564 0
M  V30 3316 C 304.59 1.56444 1.1506 0
M  V30 3317 O 303.865 0.783597 1.78017 0
M  V30 3318 C 304.148 3.58582 -0.330332 0
M  V30 3319 C 304.001 4.13437 -1.77173 0
M  V30 3320 C 305.32 4.39079 0.299641 0
M  V30 3321 H 302.439 0.731077 -0.0932471 0
M  V30 3322 H 305.081 1.67026 -0.905673 0
M  V30 3323 H 303.231 3.87844 0.225737 0
M  V30 3324 H 304.903 3.9498 -2.38303 0
M  V30 3325 H 303.146 3.67801 -2.3001 0
M  V30 3326 H 303.817 5.22597 -1.77755 0
M  V30 3327 H 306.293 4.15735 -0.174139 0
M  V30 3328 H 305.169 5.4848 0.214771 0
M  V30 3329 H 305.43 4.19915 1.38288 0
M  V30 3330 N 304.489 0.459591 1.5075 0
M  V30 3331 C 305.736 -0.0993495 2.02256 0
M  V30 3332 C 306.064 -1.40751 1.34237 0
M  V30 3333 O 305.319 -1.90379 0.453228 0
M  V30 3334 C 305.618 -0.342866 3.55752 0
M  V30 3335 C 305.284 0.88218 4.42186 0
M  V30 3336 C 303.946 1.21808 4.65528 0
M  V30 3337 C 306.298 1.69837 4.92752 0
M  V30 3338 C 303.626 2.37045 5.36681 0
M  V30 3339 C 305.978 2.84192 5.65171 0
M  V30 3340 C 304.642 3.1821 5.8677 0
M  V30 3341 H 303.912 -0.0363545 0.740108 0
M  V30 3342 H 306.559 0.611329 1.8148 0
M  V30 3343 H 304.864 -1.13567 3.7498 0
M  V30 3344 H 306.561 -0.789121 3.93159 0
M  V30 3345 H 303.151 0.610467 4.2423 0
M  V30 3346 H 307.335 1.45205 4.74583 0
M  V30 3347 H 302.591 2.63689 5.51614 0
M  V30 3348 H 306.765 3.4779 6.03337 0
M  V30 3349 H 304.392 4.07613 6.41682 0
M  V30 3350 N 305.967 -1.56429 0.191757 0
M  V30 3351 C 307.214 -1.97485 -0.447891 0
M  V30 3352 C 307.542 -1.07852 -1.61859 0
M  V30 3353 O 306.797 -0.116903 -1.95351 0
M  V30 3354 C 307.096 -3.44449 -0.953384 0
M  V30 3355 C 306.762 -4.50781 0.103586 0
M  V30 3356 C 305.424 -4.79584 0.394023 0
M  V30 3357 C 307.776 -5.1471 0.819946 0
M  V30 3358 C 305.104 -5.69607 1.40585 0
M  V30 3359 C 307.456 -6.05827 1.8209 0
M  V30 3360 C 306.12 -6.32987 2.11857 0
M  V30 3361 H 305.39 -0.722648 -0.163895 0
M  V30 3362 H 308.037 -1.89322 0.28802 0
M  V30 3363 H 306.342 -3.49666 -1.76751 0
M  V30 3364 H 308.039 -3.73569 -1.45765 0
M  V30 3365 H 304.629 -4.28394 -0.132951 0
M  V30 3366 H 308.813 -4.92552 0.608789 0
M  V30 3367 H 304.069 -5.88926 1.64243 0
M  V30 3368 H 308.243 -6.54424 2.38123 0
M  V30 3369 H 305.87 -7.02544 2.90407 0
M  V30 3370 N 307.445 0.0818655 -1.57387 0
M  V30 3371 C 308.67 0.799946 -1.91352 0
M  V30 3372 C 309.095 1.70833 -0.787258 0
M  V30 3373 O 308.453 1.79419 0.26048 0
M  V30 3374 C 308.501 1.57812 -3.24234 0
M  V30 3375 O 307.605 2.68806 -3.12757 0
M  V30 3376 H 306.946 0.21891 -0.626877 0
M  V30 3377 H 309.476 0.0531256 -2.04531 0
M  V30 3378 H 309.486 1.95952 -3.57864 0
M  V30 3379 H 308.161 0.911548 -4.05788 0
M  V30 3380 H 306.738 2.33597 -2.90666 0
M  V30 3381 N 308.923 1.53595 0.353017 0
M  V30 3382 C 309.853 1.83902 1.43883 0
M  V30 3383 C 310.834 0.693421 1.55324 0
M  V30 3384 O 312.019 0.944452 1.69687 0
M  V30 3385 C 309.149 2.04016 2.8106 0
M  V30 3386 C 308.103 3.19814 2.84434 0
M  V30 3387 C 307.429 3.25244 4.24406 0
M  V30 3388 C 308.729 4.58133 2.50822 0
M  V30 3389 H 310.423 2.74835 1.1877 0
M  V30 3390 H 307.969 1.32242 0.569917 0
M  V30 3391 H 309.922 2.238 3.57059 0
M  V30 3392 H 308.646 1.09804 3.07588 0
M  V30 3393 H 307.305 2.9987 2.10887 0
M  V30 3394 H 306.953 2.28646 4.48029 0
M  V30 3395 H 306.653 4.03054 4.27576 0
M  V30 3396 H 308.177 3.47228 5.0226 0
M  V30 3397 H 309.591 4.77995 3.16534 0
M  V30 3398 H 307.988 5.38276 2.6529 0
M  V30 3399 H 309.058 4.62387 1.46034 0
M  V30 3400 N 310.401 -0.613514 1.45168 0
M  V30 3401 C 311.351 -1.71871 1.49815 0
M  V30 3402 C 312.335 -1.56774 0.362021 0
M  V30 3403 O 313.527 -1.66212 0.608493 0
M  V30 3404 C 310.656 -3.1061 1.46207 0
M  V30 3405 C 309.742 -3.31114 2.64999 0
M  V30 3406 N 310.133 -3.21904 3.90143 0
M  V30 3407 C 308.431 -3.61966 2.6057 0
M  V30 3408 C 309.132 -3.43577 4.69393 0
M  V30 3409 N 308.108 -3.67287 4.00751 0
M  V30 3410 H 311.91 -1.63235 2.444 0
M  V30 3411 H 309.424 -0.816577 1.40377 0
M  V30 3412 H 311.421 -3.8989 1.4762 0
M  V30 3413 H 310.081 -3.20399 0.52673 0
M  V30 3414 H 311.092 -3.00436 4.21852 0
M  V30 3415 H 307.769 -3.78629 1.75916 0
M  V30 3416 H 309.159 -3.41901 5.78406 0
M  V30 3417 N 311.879 -1.3236 -0.855495 0
M  V30 3418 C 312.842 -1.21164 -1.94556 0
M  V30 3419 C 313.842 -0.134908 -1.60233 0
M  V30 3420 O 315.032 -0.385249 -1.69887 0
M  V30 3421 C 312.164 -0.863192 -3.29791 0
M  V30 3422 H 313.357 -2.18038 -2.05911 0
M  V30 3423 H 310.91 -1.16179 -1.04557 0
M  V30 3424 H 311.645 0.103769 -3.24134 0
M  V30 3425 H 311.43 -1.64166 -3.56078 0
M  V30 3426 H 312.92 -0.809156 -4.09686 0
M  V30 3427 N 313.357 1.07166 -1.15556 0
M  V30 3428 C 314.603 1.80065 -0.932984 0
M  V30 3429 C 314.936 1.86586 0.53845 0
M  V30 3430 O 314.211 1.35098 1.39924 0
M  V30 3431 C 314.494 3.25022 -1.55025 0
M  V30 3432 C 314.347 3.26634 -3.09242 0
M  V30 3433 C 315.666 4.22341 -1.2376 0
M  V30 3434 H 312.785 0.653697 -0.340366 0
M  V30 3435 H 315.427 1.25389 -1.4275 0
M  V30 3436 H 313.577 3.71712 -1.12972 0
M  V30 3437 H 315.249 2.88173 -3.60214 0
M  V30 3438 H 313.492 2.65539 -3.43033 0
M  V30 3439 H 314.163 4.28854 -3.47546 0
M  V30 3440 H 316.639 3.8405 -1.60139 0
M  V30 3441 H 315.515 5.22053 -1.69564 0
M  V30 3442 H 315.776 4.41828 -0.154938 0
M  V30 3443 N 314.835 0.952656 1.25548 0
M  V30 3444 C 316.081 0.607272 1.93494 0
M  V30 3445 C 316.414 -0.853245 1.74452 0
M  V30 3446 O 315.689 -1.61194 1.08843 0
M  V30 3447 C 315.972 0.96435 3.46947 0
M  V30 3448 C 315.825 2.48045 3.75225 0
M  V30 3449 C 317.144 0.487987 4.37386 0
M  V30 3450 H 314.263 0.222096 0.702739 0
M  V30 3451 H 316.905 1.18895 1.48203 0
M  V30 3452 H 315.055 0.469361 3.85654 0
M  V30 3453 H 316.727 3.04905 3.46166 0
M  V30 3454 H 314.97 2.919 3.209 0
M  V30 3455 H 315.641 2.6808 4.82532 0
M  V30 3456 H 318.117 0.912558 4.0597 0
M  V30 3457 H 316.993 0.766547 5.43521 0
M  V30 3458 H 317.254 -0.612063 4.37843 0
M  V30 3459 N 316.313 -1.40141 0.720998 0
M  V30 3460 C 317.243 -2.33339 0.0867621 0
M  V30 3461 C 318.224 -1.53178 -0.739622 0
M  V30 3462 O 319.409 -1.81625 -0.687449 0
M  V30 3463 C 316.539 -3.37194 -0.831728 0
M  V30 3464 C 315.493 -4.27857 -0.110558 0
M  V30 3465 C 314.819 -5.22294 -1.14513 0
M  V30 3466 C 316.119 -5.11872 1.0385 0
M  V30 3467 H 317.813 -2.86626 0.865219 0
M  V30 3468 H 315.359 -1.37814 0.417516 0
M  V30 3469 H 317.312 -4.01335 -1.28485 0
M  V30 3470 H 316.036 -2.82314 -1.64214 0
M  V30 3471 H 314.695 -3.65176 0.322797 0
M  V30 3472 H 314.343 -4.63717 -1.94874 0
M  V30 3473 H 314.043 -5.83797 -0.667446 0
M  V30 3474 H 315.567 -5.89312 -1.59824 0
M  V30 3475 H 316.981 -5.69436 0.664482 0
M  V30 3476 H 315.378 -5.82445 1.4449 0
M  V30 3477 H 316.448 -4.4753 1.86668 0
M  V30 3478 N 317.792 -0.46758 -1.50504 0
M  V30 3479 C 319.02 0.0864133 -2.06719 0
M  V30 3480 C 319.435 1.33819 -1.33184 0
M  V30 3481 O 318.792 1.78061 -0.400083 0
M  V30 3482 C 318.843 0.378079 -3.59517 0
M  V30 3483 O 318.564 -0.824044 -4.3028 0
M  V30 3484 C 320.065 0.979426 -4.32345 0
M  V30 3485 H 317.285 -0.00551697 -0.670977 0
M  V30 3486 H 319.829 -0.655354 -1.93715 0
M  V30 3487 H 317.984 1.06977 -3.72337 0
M  V30 3488 H 318.398 -0.566518 -5.21432 0
M  V30 3489 H 319.872 1.1333 -5.40241 0
M  V30 3490 H 320.349 1.9686 -3.9261 0
M  V30 3491 H 320.955 0.326216 -4.24047 0
M  V30 3492 N 319.27 1.56325 -0.20005 0
M  V30 3493 C 320.2 2.22318 0.713916 0
M  V30 3494 C 321.181 1.18788 1.21752 0
M  V30 3495 O 322.366 1.47309 1.26545 0
M  V30 3496 C 319.496 2.88639 1.93144 0
M  V30 3497 C 318.45 3.98457 1.56255 0
M  V30 3498 C 317.776 4.51967 2.85709 0
M  V30 3499 C 319.076 5.16612 0.768747 0
M  V30 3500 H 320.77 2.98952 0.163755 0
M  V30 3501 H 318.316 1.43792 0.0773219 0
M  V30 3502 H 320.269 3.33491 2.57608 0
M  V30 3503 H 318.993 2.09419 2.50621 0
M  V30 3504 H 317.652 3.54305 0.941471 0
M  V30 3505 H 317.3 3.69503 3.41287 0
M  V30 3506 H 317 5.26071 2.6177 0
M  V30 3507 H 318.524 4.99523 3.51154 0
M  V30 3508 H 319.938 5.57977 1.3166 0
M  V30 3509 H 318.335 5.96812 0.627286 0
M  V30 3510 H 319.405 4.84358 -0.229168 0
M  V30 3511 N 320.748 -0.0735177 1.57428 0
M  V30 3512 C 321.997 -0.771809 1.86349 0
M  V30 3513 C 322.31 -1.78828 0.792452 0
M  V30 3514 O 323.516 -2.53602 0.96945 0
M  V30 3515 C 321.972 -1.42358 3.30548 0
M  V30 3516 C 321.58 -0.445761 4.45777 0
M  V30 3517 C 323.324 -2.10434 3.6867 0
M  V30 3518 C 321.231 -1.10335 5.81016 0
M  V30 3519 H 320.161 -0.291999 0.695164 0
M  V30 3520 H 322.812 -0.0250749 1.83483 0
M  V30 3521 H 321.194 -2.21852 3.28021 0
M  V30 3522 H 322.368 0.319239 4.59693 0
M  V30 3523 H 320.683 0.130457 4.16196 0
M  V30 3524 H 323.28 -2.60405 4.67004 0
M  V30 3525 H 323.623 -2.90298 2.98383 0
M  V30 3526 H 324.156 -1.37773 3.7318 0
M  V30 3527 H 320.895 -0.345061 6.54591 0
M  V30 3528 H 320.415 -1.83925 5.70904 0
M  V30 3529 H 322.094 -1.62367 6.26295 0
M  V30 3530 N 322.226 -1.5378 -0.344866 0
M  V30 3531 C 323.475 -1.7018 -1.08267 0
M  V30 3532 C 323.788 -0.471 -1.89845 0
M  V30 3533 O 324.994 -0.515917 -2.66553 0
M  V30 3534 C 323.45 -3.00923 -1.97417 0
M  V30 3535 C 323.058 -4.31335 -1.21053 0
M  V30 3536 C 324.802 -3.26688 -2.71063 0
M  V30 3537 C 322.709 -5.53153 -2.09225 0
M  V30 3538 H 321.639 -0.634138 -0.407903 0
M  V30 3539 H 324.29 -1.8028 -0.342246 0
M  V30 3540 H 322.672 -2.84676 -2.75274 0
M  V30 3541 H 323.846 -4.58281 -0.481159 0
M  V30 3542 H 322.161 -4.12173 -0.591813 0
M  V30 3543 H 324.758 -4.1489 -3.37299 0
M  V30 3544 H 325.101 -2.43639 -3.37558 0
M  V30 3545 H 325.634 -3.43705 -2.0028 0
M  V30 3546 H 322.373 -6.38741 -1.47274 0
M  V30 3547 H 321.893 -5.30458 -2.79955 0
M  V30 3548 H 323.572 -5.88744 -2.68308 0
M  V30 3549 N 323.704 0.605807 -1.45491 0
M  V30 3550 C 324.953 1.36086 -1.48874 0
M  V30 3551 C 325.266 1.95131 -0.135333 0
M  V30 3552 O 326.472 2.7146 -0.0468144 0
M  V30 3553 C 324.928 2.46518 -2.62215 0
M  V30 3554 C 324.536 1.93877 -4.03876 0
M  V30 3555 C 326.28 3.23512 -2.74846 0
M  V30 3556 C 324.187 3.01801 -5.08596 0
M  V30 3557 H 323.117 0.511497 -0.553974 0
M  V30 3558 H 325.768 0.649089 -1.71636 0
M  V30 3559 H 324.15 3.20388 -2.32739 0
M  V30 3560 H 325.324 1.26704 -4.43038 0
M  V30 3561 H 323.639 1.29622 -3.95711 0
M  V30 3562 H 326.236 4.04013 -3.50253 0
M  V30 3563 H 326.579 3.74631 -1.81542 0
M  V30 3564 H 327.112 2.56742 -3.03856 0
M  V30 3565 H 323.851 2.55597 -6.03614 0
M  V30 3566 H 323.371 3.67535 -4.74002 0
M  V30 3567 H 325.05 3.66152 -5.33424 0
M  V30 3568 N 325.182 1.32811 0.848464 0
M  V30 3569 C 326.428 1.23907 1.60546 0
M  V30 3570 C 326.761 -0.197161 1.93197 0
M  V30 3571 O 326.036 -1.13596 1.5788 0
M  V30 3572 C 326.319 2.10489 2.92175 0
M  V30 3573 C 326.172 3.62522 2.66266 0
M  V30 3574 C 327.491 1.97075 3.93509 0
M  V30 3575 H 324.61 0.451459 0.58254 0
M  V30 3576 H 327.252 1.62818 0.979296 0
M  V30 3577 H 325.402 1.77434 3.45614 0
M  V30 3578 H 327.074 4.05821 2.19334 0
M  V30 3579 H 325.317 3.84879 2.00126 0
M  V30 3580 H 325.988 4.18437 3.6002 0
M  V30 3581 H 328.464 2.26045 3.49346 0
M  V30 3582 H 327.34 2.59923 4.83457 0
M  V30 3583 H 327.601 0.940186 4.31987 0
M  V30 3584 N 326.66 -1.06551 1.16123 0
M  V30 3585 C 327.592 -2.13908 0.823171 0
M  V30 3586 C 328.605 -1.61926 -0.16843 0
M  V30 3587 O 329.794 -1.78412 0.055962 0
M  V30 3588 C 326.894 -3.38283 0.204424 0
M  V30 3589 C 326.067 -4.19589 1.23548 0
M  V30 3590 C 325.126 -5.2233 0.637011 0
M  V30 3591 O 324.152 -5.54034 1.30516 0
M  V30 3592 N 325.354 -5.77621 -0.577474 0
M  V30 3593 H 328.119 -2.43508 1.74711 0
M  V30 3594 H 325.68 -1.2253 1.05821 0
M  V30 3595 H 327.672 -4.0416 -0.208909 0
M  V30 3596 H 326.242 -3.06329 -0.623012 0
M  V30 3597 H 325.462 -3.49406 1.82507 0
M  V30 3598 H 326.75 -4.70718 1.93137 0
M  V30 3599 H 326.148 -5.54125 -1.13853 0
M  V30 3600 H 324.705 -6.45087 -0.933053 0
M  V30 3601 N 328.138 -0.959301 -1.25041 0
M  V30 3602 C 329.378 -0.624343 -1.94631 0
M  V30 3603 C 329.742 0.82403 -1.73418 0
M  V30 3604 O 330.943 1.26881 -2.3697 0
M  V30 3605 C 329.214 -0.978805 -3.43736 0
M  V30 3606 S 330.773 -0.757127 -4.32219 0
M  V30 3607 H 327.591 -0.229327 -0.673001 0
M  V30 3608 H 330.193 -1.23447 -1.51595 0
M  V30 3609 H 328.897 -2.02997 -3.56679 0
M  V30 3610 H 328.428 -0.359117 -3.91757 0
M  V30 3611 H 330.443 0.369759 -4.9482 0
M  V30 3612 N 329.616 1.39756 -0.72842 0
M  V30 3613 C 330.856 2.025 -0.278078 0
M  V30 3614 C 331.22 1.5654 1.11173 0
M  V30 3615 O 332.421 2.11435 1.65978 0
M  V30 3616 C 330.692 3.55489 -0.369139 0
M  V30 3617 S 332.251 4.388 0.00232983 0
M  V30 3618 H 329.069 0.702534 -0.109391 0
M  V30 3619 H 331.671 1.70672 -0.95348 0
M  V30 3620 H 330.375 3.86429 -1.38204 0
M  V30 3621 H 329.906 3.92061 0.324308 0
M  V30 3622 H 331.921 4.80954 1.22055 0
M  V30 3623 N 331.094 0.475555 1.50254 0
M  V30 3624 C 332.024 -0.30611 2.31485 0
M  V30 3625 C 333.005 -0.986228 1.38591 0
M  V30 3626 O 334.19 -0.982541 1.67511 0
M  V30 3627 C 331.32 -1.38588 3.1845 0
M  V30 3628 C 330.274 -0.827115 4.19932 0
M  V30 3629 C 329.6 -2.00551 4.95665 0
M  V30 3630 C 330.9 0.16463 5.2204 0
M  V30 3631 H 332.594 0.371866 2.97082 0
M  V30 3632 H 330.14 0.180282 1.42867 0
M  V30 3633 H 332.093 -1.94023 3.74076 0
M  V30 3634 H 330.817 -2.09269 2.50747 0
M  V30 3635 H 329.476 -0.294702 3.65414 0
M  V30 3636 H 329.124 -2.6994 4.2443 0
M  V30 3637 H 328.824 -1.63784 5.64313 0
M  V30 3638 H 330.348 -2.56468 5.54127 0
M  V30 3639 H 331.762 -0.300699 5.72511 0
M  V30 3640 H 330.159 0.446813 5.98434 0
M  V30 3641 H 331.229 1.08905 4.72512 0
M  V30 3642 N 332.573 -1.56217 0.208337 0
M  V30 3643 C 333.803 -2.02043 -0.431523 0
M  V30 3644 C 334.211 -1.08755 -1.54819 0
M  V30 3645 O 333.554 -0.0870009 -1.83494 0
M  V30 3646 C 333.616 -3.44239 -1.03633 0
M  V30 3647 C 333.28 -4.56965 -0.0567502 0
M  V30 3648 C 334.277 -5.14624 0.738773 0
M  V30 3649 C 331.962 -5.02266 0.0581736 0
M  V30 3650 C 333.956 -6.16045 1.63605 0
M  V30 3651 C 331.643 -6.03528 0.959001 0
M  V30 3652 C 332.641 -6.60293 1.7465 0
M  V30 3653 O 332.329 -7.59586 2.6322 0
M  V30 3654 H 332.061 -0.666772 -0.111313 0
M  V30 3655 H 334.615 -2.02919 0.318277 0
M  V30 3656 H 332.845 -3.40391 -1.83497 0
M  V30 3657 H 334.534 -3.73793 -1.58221 0
M  V30 3658 H 335.3 -4.80483 0.660364 0
M  V30 3659 H 331.179 -4.57771 -0.544633 0
M  V30 3660 H 334.723 -6.60279 2.25116 0
M  V30 3661 H 330.62 -6.37092 1.03848 0
M  V30 3662 H 331.388 -7.77057 2.57148 0
M  V30 3663 N 334.051 0.0651679 -1.57465 0
M  V30 3664 C 334.961 1.09448 -2.07505 0
M  V30 3665 C 335.977 1.41974 -1.00595 0
M  V30 3666 O 337.153 1.52018 -1.32107 0
M  V30 3667 C 334.218 2.38689 -2.51453 0
M  V30 3668 C 333.279 2.13073 -3.72691 0
M  V30 3669 C 332.512 3.36152 -4.14533 0
M  V30 3670 O 332.735 4.45517 -3.56189 0
M  V30 3671 O 331.669 3.23974 -5.07272 0
M  V30 3672 H 335.495 0.69935 -2.95538 0
M  V30 3673 H 333.08 0.279752 -1.46757 0
M  V30 3674 H 334.962 3.14736 -2.80212 0
M  V30 3675 H 333.637 2.77568 -1.66546 0
M  V30 3676 H 332.544 1.34709 -3.49005 0
M  V30 3677 H 333.877 1.79071 -4.5847 0
M  V30 3678 N 335.529 1.53961 0.336706 0
M  V30 3679 C 336.945 1.44378 0.680241 0
M  V30 3680 C 337.145 0.606034 1.9217 0
M  V30 3681 O 336.201 0.099688 2.52303 0
M  V30 3682 C 337.514 2.87945 0.8665 0
M  V30 3683 C 339.062 2.97763 0.964682 0
M  V30 3684 C 339.537 4.42453 1.18321 0
M  V30 3685 N 341.028 4.46008 1.25025 0
M  V30 3686 C 341.763 5.55102 1.43697 0
M  V30 3687 N 341.259 6.7419 1.59498 0
M  V30 3688 N 343.052 5.42727 1.463 0
M  V30 3689 H 335.203 2.06918 -0.479455 0
M  V30 3690 H 337.466 0.935634 -0.152619 0
M  V30 3691 H 337.172 3.51691 0.0256937 0
M  V30 3692 H 337.046 3.33293 1.76623 0
M  V30 3693 H 339.433 2.34153 1.796 0
M  V30 3694 H 339.514 2.55766 0.041708 0
M  V30 3695 H 339.158 5.06645 0.356788 0
M  V30 3696 H 339.088 4.82048 2.11985 0
M  V30 3697 H 341.579 3.60196 1.14312 0
M  V30 3698 H 341.892 7.53095 1.734 0
M  V30 3699 H 340.237 6.77123 1.56621 0
M  V30 3700 H 343.428 4.48647 1.33543 0
M  V30 3701 H 343.601 6.27806 1.6051 0
M  V30 3702 N 337.007 -0.598083 1.45811 0
M  V30 3703 C 338.255 -1.35413 1.50026 0
M  V30 3704 C 338.576 -1.94444 0.147177 0
M  V30 3705 O 337.846 -1.77701 -0.824571 0
M  V30 3706 H 336.426 -0.502727 0.552517 0
M  V30 3707 H 339.088 -0.701606 1.81834 0
M  V30 3708 H 338.184 -2.16871 2.2444 0
M  V30 3709 N 338.485 -1.33259 -0.841409 0
M  V30 3710 C 339.733 -1.24326 -1.59334 0
M  V30 3711 C 340.054 0.191564 -1.94057 0
M  V30 3712 O 339.324 1.11967 -1.60749 0
M  V30 3713 H 337.904 -0.457174 -0.590763 0
M  V30 3714 H 340.566 -1.66947 -1.00571 0
M  V30 3715 H 339.662 -1.8352 -2.52442 0
M  V30 3716 N 339.963 1.05934 -1.16686 0
M  V30 3717 C 340.895 2.13468 -0.834503 0
M  V30 3718 C 341.908 1.62013 0.15984 0
M  V30 3719 O 343.097 1.7838 -0.0654228 0
M  V30 3720 C 340.197 3.3817 -0.222361 0
M  V30 3721 C 339.37 4.18928 -1.25771 0
M  V30 3722 C 338.429 5.21985 -0.664703 0
M  V30 3723 O 337.455 5.53334 -1.33453 0
M  V30 3724 N 338.657 5.77919 0.546834 0
M  V30 3725 H 341.422 2.42578 -1.75999 0
M  V30 3726 H 338.983 1.21967 -1.06469 0
M  V30 3727 H 340.975 4.04266 0.187472 0
M  V30 3728 H 339.545 3.06655 0.606758 0
M  V30 3729 H 338.765 3.48433 -1.84358 0
M  V30 3730 H 340.053 4.69687 -1.95631 0
M  V30 3731 H 339.451 5.54721 1.10912 0
M  V30 3732 H 338.008 6.45573 0.898829 0
M  V30 3733 N 341.441 0.965919 1.2453 0
M  V30 3734 C 342.857 0.67216 1.44756 0
M  V30 3735 C 343.057 -0.766609 1.86347 0
M  V30 3736 O 342.113 -1.5407 2.00047 0
M  V30 3737 C 343.426 1.65473 2.51076 0
M  V30 3738 C 344.974 1.66716 2.64905 0
M  V30 3739 C 345.449 2.63766 3.74421 0
M  V30 3740 N 346.94 2.62198 3.81846 0
M  V30 3741 C 347.675 3.33966 4.66106 0
M  V30 3742 N 347.171 4.15245 5.54566 0
M  V30 3743 N 348.964 3.22799 4.60171 0
M  V30 3744 H 341.115 1.89553 0.958293 0
M  V30 3745 H 343.378 0.815979 0.482579 0
M  V30 3746 H 343.084 2.68296 2.27399 0
M  V30 3747 H 342.958 1.4261 3.49202 0
M  V30 3748 H 345.345 0.646057 2.87941 0
M  V30 3749 H 345.426 1.93642 1.67142 0
M  V30 3750 H 345.07 3.6601 3.52135 0
M  V30 3751 H 345 2.34121 4.71694 0
M  V30 3752 H 347.491 2.032 3.18619 0
M  V30 3753 H 347.804 4.66898 6.15814 0
M  V30 3754 H 346.149 4.1934 5.54237 0
M  V30 3755 H 349.34 2.58764 3.90075 0
M  V30 3756 H 349.513 3.78994 5.25612 0
M  V30 3757 N 342.919 -1.39368 0.735821 0
M  V30 3758 C 344.165 -2.00794 0.284544 0
M  V30 3759 C 344.498 -1.58255 -1.12557 0
M  V30 3760 O 343.773 -0.811819 -1.76748 0
M  V30 3761 C 344.056 -3.58011 0.387337 0
M  V30 3762 C 343.909 -4.10566 1.83728 0
M  V30 3763 C 345.228 -4.395 -0.22975 0
M  V30 3764 H 342.347 -0.729501 0.104866 0
M  V30 3765 H 344.989 -1.65564 0.93213 0
M  V30 3766 H 343.139 -3.88154 -0.164006 0
M  V30 3767 H 344.811 -3.91139 2.44556 0
M  V30 3768 H 343.054 -3.64095 2.35833 0
M  V30 3769 H 343.725 -5.19702 1.86047 0
M  V30 3770 H 346.201 -4.15406 0.240257 0
M  V30 3771 H 345.077 -5.48752 -0.127485 0
M  V30 3772 H 345.338 -4.22062 -1.3159 0
M  V30 3773 N 344.397 -0.483516 -1.5 0
M  V30 3774 C 345.622 0.0667119 -2.07293 0
M  V30 3775 C 346.047 1.3164 -1.3436 0
M  V30 3776 O 345.405 1.76945 -0.394987 0
M  V30 3777 C 345.453 0.321126 -3.59167 0
M  V30 3778 O 344.557 1.39927 -3.87936 0
M  V30 3779 H 343.898 -0.0184758 -0.663743 0
M  V30 3780 H 346.428 -0.678125 -1.93035 0
M  V30 3781 H 346.438 0.557906 -4.04168 0
M  V30 3782 H 345.113 -0.592007 -4.11665 0
M  V30 3783 H 343.69 1.14882 -3.54763 0
M  V30 3784 N 345.875 1.56104 -0.216619 0
M  V30 3785 C 347.121 1.99219 0.410301 0
M  V30 3786 C 347.476 1.10169 1.57735 0
M  V30 3787 O 346.769 0.150598 1.91007 0
M  V30 3788 C 346.963 3.45923 0.898464 0
M  V30 3789 C 346.792 4.49163 -0.219748 0
M  V30 3790 C 345.562 5.00642 -0.684516 0
M  V30 3791 C 347.76 5.03751 -1.03629 0
M  V30 3792 N 345.742 5.87579 -1.7783 0
M  V30 3793 C 347.113 5.87566 -1.97904 0
M  V30 3794 C 349.168 4.86128 -1.07629 0
M  V30 3795 C 347.871 6.5564 -2.95851 0
M  V30 3796 C 349.897 5.54958 -2.04392 0
M  V30 3797 C 349.259 6.38536 -2.97407 0
M  V30 3798 H 345.358 0.773206 0.11695 0
M  V30 3799 H 347.942 1.9193 -0.327258 0
M  V30 3800 H 346.113 3.53669 1.6054 0
M  V30 3801 H 347.845 3.75963 1.49779 0
M  V30 3802 H 344.6 4.72807 -0.27399 0
M  V30 3803 H 345.024 6.3575 -2.32705 0
M  V30 3804 H 349.666 4.21168 -0.371099 0
M  V30 3805 H 347.384 7.19785 -3.67335 0
M  V30 3806 H 350.97 5.43289 -2.08154 0
M  V30 3807 H 349.85 6.90858 -3.71059 0
M  V30 3808 N 347.353 -0.0568162 1.57498 0
M  V30 3809 C 348.764 -0.606858 1.76562 0
M  V30 3810 C 349.115 -1.77114 0.844094 0
M  V30 3811 O 348.24 -2.16376 0.0318911 0
M  V30 3812 C 348.835 -1.10766 3.20182 0
M  V30 3813 C 347.394 -1.60344 3.40539 0
M  V30 3814 C 346.541 -0.529311 2.72201 0
M  V30 3815 H 349.492 0.169393 1.57793 0
M  V30 3816 H 349.513 -1.97602 3.25167 0
M  V30 3817 H 349.025 -0.26006 3.87228 0
M  V30 3818 H 347.126 -2.47379 2.78629 0
M  V30 3819 H 347.239 -1.67006 4.4905 0
M  V30 3820 H 345.603 -0.977893 2.35179 0
M  V30 3821 H 346.386 0.308352 3.41912 0
M  V30 3822 N 348.832 -1.54138 -0.328536 0
M  V30 3823 C 349.795 -1.82462 -1.38709 0
M  V30 3824 C 350.795 -0.696229 -1.44946 0
M  V30 3825 O 351.985 -0.964535 -1.4506 0
M  V30 3826 C 349.117 -1.98018 -2.77492 0
M  V30 3827 H 350.31 -2.77037 -1.14851 0
M  V30 3828 H 347.863 -1.45779 -0.563751 0
M  V30 3829 H 348.598 -1.05637 -3.06613 0
M  V30 3830 H 348.383 -2.80124 -2.74359 0
M  V30 3831 H 349.873 -2.21396 -3.54081 0
M  V30 3832 N 350.31 0.590341 -1.46126 0
M  V30 3833 C 351.559 1.34499 -1.50309 0
M  V30 3834 C 351.872 1.94977 -0.156021 0
M  V30 3835 O 353.078 2.71395 -0.0756037 0
M  V30 3836 C 351.534 2.43723 -2.64815 0
M  V30 3837 C 351.142 1.89582 -4.0591 0
M  V30 3838 C 352.886 3.20579 -2.78262 0
M  V30 3839 C 350.793 2.9639 -5.11769 0
M  V30 3840 H 349.723 0.505593 -0.559368 0
M  V30 3841 H 352.374 0.630848 -1.72315 0
M  V30 3842 H 350.756 3.17902 -2.36124 0
M  V30 3843 H 351.93 1.21997 -4.44357 0
M  V30 3844 H 350.245 1.25418 -3.97063 0
M  V30 3845 H 352.842 4.00276 -3.54519 0
M  V30 3846 H 353.185 3.72684 -1.85505 0
M  V30 3847 H 353.718 2.53505 -3.06562 0
M  V30 3848 H 350.457 2.49181 -6.06291 0
M  V30 3849 H 349.977 3.62487 -4.77873 0
M  V30 3850 H 351.656 3.60474 -5.37278 0
M  V30 3851 N 351.788 1.33704 0.83433 0
M  V30 3852 C 353.036 1.25169 1.58673 0
M  V30 3853 C 353.357 -0.18127 1.94156 0
M  V30 3854 O 352.627 -1.11113 1.6134 0
M  V30 3855 H 351.207 0.4603 0.58833 0
M  V30 3856 H 353.869 1.67478 0.996847 0
M  V30 3857 H 352.965 1.84856 2.51465 0
M  V30 3858 N 353.266 -1.05314 1.17247 0
M  V30 3859 C 354.513 -1.78293 0.960091 0
M  V30 3860 C 354.841 -1.87658 -0.51136 0
M  V30 3861 O 354.096 -1.3718 -1.39571 0
M  V30 3862 C 354.395 -3.2229 1.54479 0
M  V30 3863 C 354.061 -3.32987 3.04024 0
M  V30 3864 C 352.723 -3.35613 3.44844 0
M  V30 3865 C 355.075 -3.34102 4.00031 0
M  V30 3866 C 352.403 -3.36982 4.8027 0
M  V30 3867 C 354.755 -3.3701 5.35357 0
M  V30 3868 C 353.419 -3.37923 5.75642 0
M  V30 3869 H 352.689 -0.652422 0.351322 0
M  V30 3870 H 355.336 -1.23782 1.46117 0
M  V30 3871 H 353.641 -3.7972 0.965391 0
M  V30 3872 H 355.338 -3.77376 1.35603 0
M  V30 3873 H 351.928 -3.31655 2.71483 0
M  V30 3874 H 356.112 -3.31276 3.69554 0
M  V30 3875 H 351.368 -3.35999 5.10798 0
M  V30 3876 H 355.542 -3.36822 6.09528 0
M  V30 3877 H 353.169 -3.38738 6.80559 0
M  V30 3878 N 354.744 -0.972509 -1.24016 0
M  V30 3879 C 355.674 -0.525548 -2.27509 0
M  V30 3880 C 356.655 0.437262 -1.64384 0
M  V30 3881 O 357.84 0.332343 -1.91335 0
M  V30 3882 C 354.97 0.180448 -3.46831 0
M  V30 3883 C 353.924 -0.698859 -4.22256 0
M  V30 3884 C 353.25 0.138903 -5.3452 0
M  V30 3885 C 354.55 -1.98582 -4.83076 0
M  V30 3886 H 356.244 -1.39058 -2.65148 0
M  V30 3887 H 353.79 -0.67009 -1.27459 0
M  V30 3888 H 355.743 0.504387 -4.18371 0
M  V30 3889 H 354.467 1.07987 -3.08231 0
M  V30 3890 H 353.126 -1.00614 -3.52523 0
M  V30 3891 H 352.774 1.03862 -4.9216 0
M  V30 3892 H 352.474 -0.446259 -5.85903 0
M  V30 3893 H 353.998 0.457404 -6.08884 0
M  V30 3894 H 355.412 -1.72715 -5.46665 0
M  V30 3895 H 353.809 -2.5181 -5.44713 0
M  V30 3896 H 354.879 -2.67769 -4.04262 0
M  V30 3897 N 356.222 1.38976 -0.743202 0
M  V30 3898 C 357.468 2.0064 -0.295189 0
M  V30 3899 C 357.801 1.5885 1.11716 0
M  V30 3900 O 357.076 0.821181 1.76315 0
M  V30 3901 C 357.359 3.578 -0.406318 0
M  V30 3902 C 357.212 4.09586 -1.85903 0
M  V30 3903 C 358.531 4.39616 0.206439 0
M  V30 3904 H 355.65 0.728935 -0.108733 0
M  V30 3905 H 358.292 1.65067 -0.940897 0
M  V30 3906 H 356.442 3.88235 0.143419 0
M  V30 3907 H 358.114 3.89837 -2.46627 0
M  V30 3908 H 356.357 3.6284 -2.3776 0
M  V30 3909 H 357.028 5.18708 -1.888 0
M  V30 3910 H 359.504 4.15273 -0.262283 0
M  V30 3911 H 358.38 5.48812 0.0983819 0
M  V30 3912 H 358.641 4.22754 1.2935 0
M  V30 3913 N 357.7 0.491464 1.49741 0
M  V30 3914 C 358.63 -0.28154 2.31796 0
M  V30 3915 C 359.611 -0.971473 1.3963 0
M  V30 3916 O 360.796 -0.964719 1.68543 0
M  V30 3917 C 357.926 -1.35203 3.19902 0
M  V30 3918 C 356.88 -0.782529 4.20786 0
M  V30 3919 C 356.206 -1.95283 4.97764 0
M  V30 3920 C 357.506 0.21999 5.21837 0
M  V30 3921 H 359.2 0.403355 2.96671 0
M  V30 3922 H 356.746 0.195425 1.42668 0
M  V30 3923 H 358.699 -1.90045 3.76113 0
M  V30 3924 H 357.423 -2.06598 2.52953 0
M  V30 3925 H 356.082 -0.255928 3.65706 0
M  V30 3926 H 355.73 -2.65423 4.2727 0
M  V30 3927 H 355.43 -1.57789 5.66018 0
M  V30 3928 H 356.954 -2.50577 5.56816 0
M  V30 3929 H 358.368 -0.23996 5.72798 0
M  V30 3930 H 356.765 0.51026 5.97927 0
M  V30 3931 H 357.835 1.13911 4.7133 0
M  V30 3932 N 359.178 -1.55987 0.224894 0
M  V30 3933 C 360.141 -2.19178 -0.670348 0
M  V30 3934 C 361.141 -1.15461 -1.11917 0
M  V30 3935 O 362.331 -1.40675 -1.02743 0
M  V30 3936 C 359.463 -2.81777 -1.9187 0
M  V30 3937 H 360.656 -2.99662 -0.119364 0
M  V30 3938 H 358.209 -1.5628 -0.0247128 0
M  V30 3939 H 358.944 -2.05172 -2.51147 0
M  V30 3940 H 358.729 -3.57732 -1.60531 0
M  V30 3941 H 360.219 -3.30205 -2.55645 0
M  V30 3942 N 360.656 0.0484629 -1.57525 0
M  V30 3943 C 361.902 0.738854 -1.89506 0
M  V30 3944 C 362.257 1.73989 -0.821319 0
M  V30 3945 O 361.55 1.90825 0.172129 0
M  V30 3946 C 361.744 1.46632 -3.25935 0
M  V30 3947 C 361.573 0.537254 -4.46479 0
M  V30 3948 C 360.343 0.165484 -5.05029 0
M  V30 3949 C 362.541 -0.176085 -5.13998 0
M  V30 3950 N 360.523 -0.766868 -6.09091 0
M  V30 3951 C 361.894 -0.96478 -6.12448 0
M  V30 3952 C 363.949 -0.24509 -4.97296 0
M  V30 3953 C 362.652 -1.8161 -6.95996 0
M  V30 3954 C 364.678 -1.08347 -5.81391 0
M  V30 3955 C 364.04 -1.86014 -6.79395 0
M  V30 3956 H 360.139 0.245067 -0.742608 0
M  V30 3957 H 362.723 -0.000476161 -1.947 0
M  V30 3958 H 360.894 2.17623 -3.21706 0
M  V30 3959 H 362.626 2.10757 -3.45491 0
M  V30 3960 H 359.381 0.523466 -4.70698 0
M  V30 3961 H 359.805 -1.22698 -6.65788 0
M  V30 3962 H 364.447 0.341063 -4.21422 0
M  V30 3963 H 362.165 -2.41313 -7.71229 0
M  V30 3964 H 365.751 -1.14014 -5.70519 0
M  V30 3965 H 364.631 -2.4984 -7.43337 0
M  V30 3966 N 362.134 1.5431 0.320358 0
M  V30 3967 C 363.064 1.86912 1.3995 0
M  V30 3968 C 364.045 0.726211 1.53819 0
M  V30 3969 O 365.23 0.980233 1.67646 0
M  V30 3970 C 362.36 2.09932 2.7667 0
M  V30 3971 C 361.314 3.25776 2.77586 0
M  V30 3972 C 360.64 3.34173 4.17412 0
M  V30 3973 C 361.94 4.6335 2.41048 0
M  V30 3974 H 363.634 2.77292 1.12914 0
M  V30 3975 H 361.18 1.33421 0.541738 0
M  V30 3976 H 363.133 2.31324 3.52232 0
M  V30 3977 H 361.857 1.16304 3.0519 0
M  V30 3978 H 360.516 3.04276 2.04479 0
M  V30 3979 H 360.164 2.38098 4.43078 0
M  V30 3980 H 359.864 4.12033 4.18931 0
M  V30 3981 H 361.388 3.57803 4.94782 0
M  V30 3982 H 362.802 4.84602 3.06324 0
M  V30 3983 H 361.199 5.43782 2.53813 0
M  V30 3984 H 362.269 4.65381 1.36193 0
M  V30 3985 N 363.613 -0.582584 1.46437 0
M  V30 3986 C 364.86 -1.34079 1.51753 0
M  V30 3987 C 365.188 -1.93762 0.169299 0
M  V30 3988 O 364.443 -1.76989 -0.835062 0
M  V30 3989 C 364.742 -2.48964 2.56421 0
M  V30 3990 C 364.408 -2.07273 4.00436 0
M  V30 3991 C 363.07 -1.95618 4.39644 0
M  V30 3992 C 365.422 -1.75111 4.90903 0
M  V30 3993 C 362.75 -1.5006 5.67185 0
M  V30 3994 C 365.102 -1.31032 6.18881 0
M  V30 3995 C 363.766 -1.17954 6.56996 0
M  V30 3996 H 363.036 -0.49063 0.555304 0
M  V30 3997 H 365.683 -0.656007 1.79913 0
M  V30 3998 H 363.988 -3.22889 2.21923 0
M  V30 3999 H 365.685 -3.07178 2.57765 0
M  V30 4000 H 362.275 -2.17279 3.69443 0
M  V30 4001 H 366.459 -1.83001 4.61329 0
M  V30 4002 H 361.715 -1.38577 5.95488 0
M  V30 4003 H 365.889 -1.052 6.88408 0
M  V30 4004 H 363.516 -0.824279 7.55718 0
M  V30 4005 N 365.091 -1.34144 -0.827227 0
M  V30 4006 C 366.054 -1.25264 -1.91942 0
M  V30 4007 C 367.054 -0.168866 -1.59911 0
M  V30 4008 O 368.244 -0.421198 -1.69031 0
M  V30 4009 C 365.376 -0.932952 -3.27885 0
M  V30 4010 H 366.569 -2.22357 -2.0124 0
M  V30 4011 H 364.122 -1.1837 -1.0207 0
M  V30 4012 H 364.857 0.0349917 -3.24281 0
M  V30 4013 H 364.642 -1.71682 -3.52516 0
M  V30 4014 H 366.132 -0.895874 -4.07877 0
M  V30 4015 N 366.569 1.04691 -1.17803 0
M  V30 4016 C 367.816 1.77782 -0.969532 0
M  V30 4017 C 368.144 1.87926 0.501401 0
M  V30 4018 O 367.399 1.37918 1.38842 0
M  V30 4019 C 367.698 3.21467 -1.56186 0
M  V30 4020 C 367.364 3.3137 -3.05786 0
M  V30 4021 C 366.026 3.3378 -3.46619 0
M  V30 4022 C 368.378 3.31976 -4.01797 0
M  V30 4023 C 365.706 3.34431 -4.82051 0
M  V30 4024 C 368.058 3.34167 -5.37136 0
M  V30 4025 C 366.722 3.34866 -5.77426 0
M  V30 4026 H 365.992 0.650549 -0.354777 0
M  V30 4027 H 368.639 1.23006 -1.46772 0
M  V30 4028 H 366.944 3.79203 -0.985515 0
M  V30 4029 H 368.641 3.76652 -1.37602 0
M  V30 4030 H 365.231 3.3021 -2.73238 0
M  V30 4031 H 369.415 3.29311 -3.71306 0
M  V30 4032 H 364.671 3.33285 -5.12573 0
M  V30 4033 H 368.845 3.33585 -6.11305 0
M  V30 4034 H 366.472 3.35124 -6.82346 0
M  V30 4035 N 368.047 0.979072 1.23499 0
M  V30 4036 C 369.293 0.648178 1.92163 0
M  V30 4037 C 369.626 -0.816049 1.76222 0
M  V30 4038 O 368.901 -1.58849 1.12237 0
M  V30 4039 C 369.184 1.03773 3.44824 0
M  V30 4040 C 369.037 2.55948 3.69879 0
M  V30 4041 C 370.356 0.580653 4.36253 0
M  V30 4042 H 367.475 0.236952 0.69787 0
M  V30 4043 H 370.117 1.22012 1.45647 0
M  V30 4044 H 368.267 0.551058 3.84572 0
M  V30 4045 H 369.939 3.12179 3.3962 0
M  V30 4046 H 368.182 2.98641 3.14636 0
M  V30 4047 H 368.853 2.78255 4.76737 0
M  V30 4048 H 371.329 0.998465 4.03943 0
M  V30 4049 H 370.205 0.881663 5.41773 0
M  V30 4050 H 370.466 -0.519052 4.39042 0
M  V30 4051 N 369.525 -1.3858 0.750561 0
M  V30 4052 C 370.753 -2.04471 0.316098 0
M  V30 4053 C 371.168 -1.56606 -1.05452 0
M  V30 4054 O 370.525 -0.737784 -1.66922 0
M  V30 4055 C 370.576 -3.60025 0.326275 0
M  V30 4056 O 370.297 -4.06133 1.6428 0
M  V30 4057 C 371.798 -4.43131 -0.122429 0
M  V30 4058 H 369.018 -0.65717 0.135528 0
M  V30 4059 H 371.562 -1.77329 1.01857 0
M  V30 4060 H 369.717 -3.86014 -0.327431 0
M  V30 4061 H 370.131 -5.00547 1.56693 0
M  V30 4062 H 371.605 -5.51963 -0.0641473 0
M  V30 4063 H 372.082 -4.23333 -1.16988 0
M  V30 4064 H 372.688 -4.22323 0.50229 0
M  V30 4065 N 371.003 -0.499398 -1.49478 0
M  V30 4066 C 371.936 0.326491 -2.25852 0
M  V30 4067 C 372.914 0.971776 -1.30366 0
M  V30 4068 O 374.098 1.00219 -1.59651 0
M  V30 4069 C 371.225 1.45969 -3.05632 0
M  V30 4070 C 370.271 0.928938 -4.16261 0
M  V30 4071 S 371.104 -0.179012 -5.35201 0
M  V30 4072 C 372.26 0.957389 -6.18534 0
M  V30 4073 H 372.493 -0.321746 -2.95554 0
M  V30 4074 H 370.026 -0.284674 -1.51753 0
M  V30 4075 H 371.984 2.109 -3.52181 0
M  V30 4076 H 370.645 2.07953 -2.35402 0
M  V30 4077 H 369.838 1.77813 -4.71592 0
M  V30 4078 H 369.44 0.356869 -3.72293 0
M  V30 4079 H 371.732 1.86296 -6.51383 0
M  V30 4080 H 372.675 0.442733 -7.06715 0
M  V30 4081 H 373.083 1.224 -5.5107 0
M  V30 4082 N 372.481 1.55866 -0.233164 0
M  V30 4083 C 373.73 1.97779 0.39579 0
M  V30 4084 C 374.043 1.12419 1.60066 0
M  V30 4085 O 375.249 1.44283 2.29988 0
M  V30 4086 C 373.705 3.5188 0.755556 0
M  V30 4087 C 373.313 4.45959 -0.427152 0
M  V30 4088 C 375.057 4.02479 1.34946 0
M  V30 4089 C 372.964 5.91383 -0.0443043 0
M  V30 4090 H 371.894 0.738592 0.15165 0
M  V30 4091 H 374.545 1.80486 -0.331212 0
M  V30 4092 H 372.927 3.64816 1.5403 0
M  V30 4093 H 374.101 4.44776 -1.20462 0
M  V30 4094 H 372.416 4.05765 -0.935068 0
M  V30 4095 H 375.013 5.08637 1.649 0
M  V30 4096 H 375.356 3.49014 2.26925 0
M  V30 4097 H 375.889 3.92813 0.62791 0
M  V30 4098 H 372.628 6.48857 -0.930874 0
M  V30 4099 H 372.148 5.95734 0.697238 0
M  V30 4100 H 373.827 6.45893 0.378334 0
M  V30 4101 N 373.959 -0.0401083 1.57549 0
M  V30 4102 C 375.205 -0.734211 1.89043 0
M  V30 4103 C 375.538 -1.75591 0.829535 0
M  V30 4104 O 374.813 -1.93868 -0.156706 0
M  V30 4105 C 375.096 -1.41374 3.31188 0
M  V30 4106 C 374.949 -0.406299 4.47961 0
M  V30 4107 C 376.268 -2.35061 3.72068 0
M  V30 4108 H 373.387 -0.265447 0.687537 0
M  V30 4109 H 376.029 0.00294087 1.9 0
M  V30 4110 H 374.179 -2.04206 3.30503 0
M  V30 4111 H 375.851 0.219255 4.60779 0
M  V30 4112 H 374.094 0.275485 4.32924 0
M  V30 4113 H 374.765 -0.920022 5.44279 0
M  V30 4114 H 377.241 -1.82282 3.74049 0
M  V30 4115 H 376.117 -2.79593 4.72355 0
M  V30 4116 H 376.378 -3.21258 3.0372 0
M  V30 4117 N 375.437 -1.54477 -0.31217 0
M  V30 4118 C 376.4 -1.83923 -1.36766 0
M  V30 4119 C 377.4 -0.711563 -1.44199 0
M  V30 4120 O 378.59 -0.979866 -1.44029 0
M  V30 4121 C 375.722 -2.0095 -2.75376 0
M  V30 4122 H 376.915 -2.78239 -1.11906 0
M  V30 4123 H 374.468 -1.46369 -0.548257 0
M  V30 4124 H 375.203 -1.08883 -3.05475 0
M  V30 4125 H 374.988 -2.83018 -2.71373 0
M  V30 4126 H 376.478 -2.2514 -3.51713 0
M  V30 4127 N 376.915 0.57481 -1.46744 0
M  V30 4128 C 377.878 1.66533 -1.57478 0
M  V30 4129 C 378.878 1.54338 -0.451263 0
M  V30 4130 O 380.068 1.58814 -0.715813 0
M  V30 4131 C 377.2 3.05999 -1.50259 0
M  V30 4132 H 378.393 1.58372 -2.54673 0
M  V30 4133 H 375.946 0.793301 -1.34672 0
M  V30 4134 H 376.681 3.19709 -0.543725 0
M  V30 4135 H 376.466 3.16259 -2.31781 0
M  V30 4136 H 377.956 3.8537 -1.60872 0
M  V30 4137 N 378.394 1.34581 0.820102 0
M  V30 4138 C 379.64 1.27285 1.57881 0
M  V30 4139 C 379.973 -0.156137 1.93571 0
M  V30 4140 O 379.248 -1.10222 1.60254 0
M  V30 4141 C 379.531 2.16639 2.87645 0
M  V30 4142 C 379.384 3.68088 2.58517 0
M  V30 4143 C 380.703 2.05378 3.8924 0
M  V30 4144 H 377.822 0.463714 0.572833 0
M  V30 4145 H 380.464 1.64859 0.944539 0
M  V30 4146 H 378.614 1.84725 3.41773 0
M  V30 4147 H 380.286 4.10382 2.10676 0
M  V30 4148 H 378.529 3.89038 1.91917 0
M  V30 4149 H 379.2 4.2598 3.51063 0
M  V30 4150 H 381.676 2.33404 3.44473 0
M  V30 4151 H 380.552 2.7012 4.77835 0
M  V30 4152 H 380.813 1.0316 4.29896 0
M  V30 4153 N 379.872 -1.04064 1.18357 0
M  V30 4154 C 381.12 -1.76915 0.977013 0
M  V30 4155 C 381.441 -1.88624 -0.494577 0
M  V30 4156 O 380.711 -1.41125 -1.3587 0
M  V30 4157 H 379.291 -0.65535 0.358504 0
M  V30 4158 H 381.953 -1.25592 1.49039 0
M  V30 4159 H 381.049 -2.78178 1.41504 0
M  V30 4160 N 381.35 -0.985608 -1.22978 0
M  V30 4161 C 382.596 -0.65836 -1.91816 0
M  V30 4162 C 382.929 0.806692 -1.76653 0
M  V30 4163 O 382.204 1.58252 -1.13078 0
M  V30 4164 C 382.487 -1.056 -3.44268 0
M  V30 4165 C 382.34 -2.57906 -3.68516 0
M  V30 4166 C 383.659 -0.603781 -4.35939 0
M  V30 4167 H 380.778 -0.24065 -0.696604 0
M  V30 4168 H 383.42 -1.22783 -1.44998 0
M  V30 4169 H 381.57 -0.571445 -3.84274 0
M  V30 4170 H 383.242 -3.13976 -3.3796 0
M  V30 4171 H 381.485 -3.00305 -3.13048 0
M  V30 4172 H 382.156 -2.80779 -4.75255 0
M  V30 4173 H 384.632 -1.01987 -4.03408 0
M  V30 4174 H 383.508 -0.910383 -5.41298 0
M  V30 4175 H 383.769 0.495761 -4.39312 0
M  V30 4176 N 382.828 1.3818 -0.7579 0
M  V30 4177 C 384.056 2.04301 -0.326937 0
M  V30 4178 C 384.471 1.57163 1.0462 0
M  V30 4179 O 383.828 0.746626 1.66529 0
M  V30 4180 C 383.879 3.59846 -0.345363 0
M  V30 4181 O 383.6 4.05256 -1.66432 0
M  V30 4182 C 385.101 4.4319 0.098927 0
M  V30 4183 H 382.321 0.656443 -0.139012 0
M  V30 4184 H 384.865 1.76786 -1.02796 0
M  V30 4185 H 383.02 3.86182 0.306955 0
M  V30 4186 H 383.434 4.99709 -1.59345 0
M  V30 4187 H 384.908 5.51989 0.0348745 0
M  V30 4188 H 385.385 4.23947 1.14741 0
M  V30 4189 H 385.991 4.22051 -0.52468 0
M  V30 4190 N 384.306 0.507319 1.49211 0
M  V30 4191 C 385.534 -0.0315749 2.06876 0
M  V30 4192 C 385.949 -1.30241 1.36685 0
M  V30 4193 O 385.306 -1.76937 0.447152 0
M  V30 4194 C 385.357 -0.282627 3.60393 0
M  V30 4195 O 385.078 0.937835 4.27944 0
M  V30 4196 C 386.579 -0.864453 4.3479 0
M  V30 4197 H 383.799 0.0233048 0.670595 0
M  V30 4198 H 386.343 0.706484 1.91909 0
M  V30 4199 H 384.498 -0.97068 3.75042 0
M  V30 4200 H 384.912 0.704567 5.19746 0
M  V30 4201 H 386.386 -0.989664 5.43056 0
M  V30 4202 H 386.863 -1.86382 3.97692 0
M  V30 4203 H 387.469 -0.213672 4.24763 0
M  V30 4204 N 385.784 -1.5574 0.241426 0
M  V30 4205 C 387.03 -1.99846 -0.378555 0
M  V30 4206 C 387.385 -1.12665 -1.55963 0
M  V30 4207 O 386.678 -0.180966 -1.90743 0
M  V30 4208 C 386.872 -3.47308 -0.843317 0
M  V30 4209 C 386.701 -4.48756 0.291178 0
M  V30 4210 C 385.471 -4.9949 0.764077 0
M  V30 4211 C 387.669 -5.02039 1.11631 0
M  V30 4212 N 385.651 -5.84676 1.87156 0
M  V30 4213 C 387.022 -5.84343 2.07226 0
M  V30 4214 C 389.077 -4.84354 1.15349 0
M  V30 4215 C 387.78 -6.50851 3.06245 0
M  V30 4216 C 389.806 -5.51636 2.13195 0
M  V30 4217 C 389.168 -6.33724 3.07528 0
M  V30 4218 H 385.267 -0.774968 -0.104634 0
M  V30 4219 H 387.851 -1.91385 0.357751 0
M  V30 4220 H 386.022 -3.56178 -1.54893 0
M  V30 4221 H 387.754 -3.78299 -1.43779 0
M  V30 4222 H 384.509 -4.72311 0.349175 0
M  V30 4223 H 384.933 -6.31967 2.42789 0
M  V30 4224 H 389.575 -4.20525 0.438057 0
M  V30 4225 H 387.293 -7.1385 3.78739 0
M  V30 4226 H 390.879 -5.39909 2.16771 0
M  V30 4227 H 389.759 -6.84867 3.82003 0
M  V30 4228 N 387.262 0.0317525 -1.57568 0
M  V30 4229 C 388.192 1.03274 -2.0942 0
M  V30 4230 C 389.173 1.3788 -0.996143 0
M  V30 4231 O 390.358 1.46811 -1.27122 0
M  V30 4232 C 387.488 2.33448 -2.57137 0
M  V30 4233 C 386.442 2.13091 -3.71182 0
M  V30 4234 C 385.768 3.49001 -4.05095 0
M  V30 4235 C 387.068 1.51928 -4.99715 0
M  V30 4236 H 388.762 0.60112 -2.93303 0
M  V30 4237 H 386.308 0.287705 -1.41097 0
M  V30 4238 H 388.261 3.03802 -2.92032 0
M  V30 4239 H 386.985 2.78665 -1.70333 0
M  V30 4240 H 385.644 1.45171 -3.36632 0
M  V30 4241 H 385.292 3.91862 -3.15362 0
M  V30 4242 H 384.992 3.36207 -4.81911 0
M  V30 4243 H 386.516 4.20721 -4.42522 0
M  V30 4244 H 387.93 2.12196 -5.32584 0
M  V30 4245 H 386.327 1.49716 -5.81124 0
M  V30 4246 H 387.397 0.484811 -4.8247 0
M  V30 4247 N 388.74 1.54641 0.303973 0
M  V30 4248 C 389.672 1.81754 1.39636 0
M  V30 4249 C 390.685 0.70035 1.46966 0
M  V30 4250 O 391.874 0.97778 1.49338 0
M  V30 4251 C 388.974 1.93785 2.7803 0
M  V30 4252 C 388.147 3.24156 2.93669 0
M  V30 4253 C 387.206 3.26641 4.12544 0
M  V30 4254 O 386.232 4.00187 4.04771 0
M  V30 4255 N 387.434 2.5182 5.23036 0
M  V30 4256 H 390.199 2.76031 1.16734 0
M  V30 4257 H 387.76 1.54178 0.494033 0
M  V30 4258 H 389.752 1.92852 3.55795 0
M  V30 4259 H 388.322 1.06515 2.93893 0
M  V30 4260 H 387.542 3.37887 2.03042 0
M  V30 4261 H 388.83 4.10195 3.01027 0
M  V30 4262 H 388.228 1.91692 5.32232 0
M  V30 4263 H 386.785 2.56644 5.99147 0
M  V30 4264 N 390.218 -0.567019 1.47046 0
M  V30 4265 C 391.465 -1.32462 1.53167 0
M  V30 4266 C 391.793 -1.93571 0.189841 0
M  V30 4267 O 391.048 -1.77865 -0.816243 0
M  V30 4268 C 391.347 -2.4623 2.59047 0
M  V30 4269 C 391.013 -2.03014 4.02612 0
M  V30 4270 C 389.675 -1.90944 4.41694 0
M  V30 4271 C 392.027 -1.69895 4.92732 0
M  V30 4272 C 389.355 -1.44035 5.68745 0
M  V30 4273 C 391.707 -1.2446 6.20236 0
M  V30 4274 C 390.371 -1.10979 6.5821 0
M  V30 4275 H 389.641 -0.484713 0.560477 0
M  V30 4276 H 392.288 -0.636888 1.80599 0
M  V30 4277 H 390.593 -3.20517 2.25335 0
M  V30 4278 H 392.29 -3.04427 2.61008 0
M  V30 4279 H 388.88 -2.13348 3.71726 0
M  V30 4280 H 393.064 -1.78098 4.63244 0
M  V30 4281 H 388.32 -1.32254 5.96925 0
M  V30 4282 H 392.494 -0.978924 6.89485 0
M  V30 4283 H 390.121 -0.744078 7.5655 0
M  V30 4284 N 391.696 -1.35014 -0.812953 0
M  V30 4285 C 392.626 -1.30069 -1.93919 0
M  V30 4286 C 393.607 -0.176275 -1.69184 0
M  V30 4287 O 394.792 -0.370227 -1.90638 0
M  V30 4288 C 391.922 -1.06547 -3.30552 0
M  V30 4289 C 390.876 -2.15561 -3.69753 0
M  V30 4290 C 390.202 -1.77214 -5.04479 0
M  V30 4291 C 391.502 -3.57476 -3.808 0
M  V30 4292 H 393.196 -2.24303 -1.98314 0
M  V30 4293 H 390.742 -1.07977 -0.952736 0
M  V30 4294 H 392.695 -1.01729 -4.08937 0
M  V30 4295 H 391.419 -0.0875719 -3.26483 0
M  V30 4296 H 390.078 -2.19466 -2.9365 0
M  V30 4297 H 389.726 -0.780589 -4.96906 0
M  V30 4298 H 389.426 -2.50184 -5.31678 0
M  V30 4299 H 390.95 -1.7391 -5.8531 0
M  V30 4300 H 392.364 -3.55929 -4.4943 0
M  V30 4301 H 390.761 -4.29152 -4.19462 0
M  V30 4302 H 391.831 -3.94091 -2.82525 0
M  V30 4303 N 393.175 1.03435 -1.18907 0
M  V30 4304 C 394.422 1.76743 -0.988334 0
M  V30 4305 C 394.75 1.88447 0.481441 0
M  V30 4306 O 394.005 1.39383 1.37371 0
M  V30 4307 C 394.304 3.19792 -1.59586 0
M  V30 4308 C 393.97 3.28108 -3.09283 0
M  V30 4309 C 392.632 3.30084 -3.5014 0
M  V30 4310 C 394.984 3.27696 -4.05296 0
M  V30 4311 C 392.312 3.29299 -4.85571 0
M  V30 4312 C 394.664 3.28451 -5.4065 0
M  V30 4313 C 393.328 3.28723 -5.80946 0
M  V30 4314 H 392.598 0.64675 -0.361657 0
M  V30 4315 H 395.245 1.21442 -1.48068 0
M  V30 4316 H 393.55 3.78136 -1.02568 0
M  V30 4317 H 395.247 3.75171 -1.41589 0
M  V30 4318 H 391.837 3.27294 -2.76725 0
M  V30 4319 H 396.021 3.25354 -3.74778 0
M  V30 4320 H 391.277 3.2783 -5.16079 0
M  V30 4321 H 395.451 3.27082 -6.14809 0
M  V30 4322 H 393.078 3.27868 -6.85862 0
M  V30 4323 N 394.653 0.992116 1.22453 0
M  V30 4324 C 395.893 0.675727 1.92907 0
M  V30 4325 C 396.257 -0.777762 1.75542 0
M  V30 4326 O 397.458 -1.20553 2.40251 0
M  V30 4327 C 395.729 1.0696 3.4102 0
M  V30 4328 S 397.288 0.871456 4.30059 0
M  V30 4329 H 394.106 0.247089 0.666684 0
M  V30 4330 H 396.708 1.27423 1.48269 0
M  V30 4331 H 395.412 2.12383 3.51172 0
M  V30 4332 H 394.943 0.462858 3.90668 0
M  V30 4333 H 396.958 -0.238436 4.95627 0
M  V30 4334 N 396.131 -1.37776 0.765217 0
M  V30 4335 C 397.378 -1.99849 0.326588 0
M  V30 4336 C 397.706 -1.60746 -1.09504 0
M  V30 4337 O 396.961 -0.84202 -1.76659 0
M  V30 4338 C 397.26 -3.5504 0.410053 0
M  V30 4339 C 396.926 -4.13891 1.78899 0
M  V30 4340 C 395.588 -4.29678 2.16635 0
M  V30 4341 C 397.94 -4.46236 2.69301 0
M  V30 4342 C 395.268 -4.7511 3.44221 0
M  V30 4343 C 397.62 -4.93089 3.9629 0
M  V30 4344 C 396.284 -5.07082 4.34078 0
M  V30 4345 H 395.554 -0.7313 0.119507 0
M  V30 4346 H 398.201 -1.64645 0.977968 0
M  V30 4347 H 396.506 -3.90451 -0.324878 0
M  V30 4348 H 398.203 -4.00966 0.0520699 0
M  V30 4349 H 394.793 -4.02026 1.48569 0
M  V30 4350 H 398.977 -4.3363 2.41409 0
M  V30 4351 H 394.233 -4.84129 3.73402 0
M  V30 4352 H 398.407 -5.17084 4.66472 0
M  V30 4353 H 396.034 -5.42046 5.33001 0
M  V30 4354 N 397.609 -0.515225 -1.4894 0
M  V30 4355 C 398.834 0.022727 -2.07388 0
M  V30 4356 C 399.259 1.2876 -1.37122 0
M  V30 4357 O 398.617 1.76067 -0.432431 0
M  V30 4358 C 398.665 0.244869 -3.59768 0
M  V30 4359 O 397.769 1.31667 -3.90817 0
M  V30 4360 H 397.11 -0.0325506 -0.663202 0
M  V30 4361 H 399.64 -0.718918 -1.91553 0
M  V30 4362 H 399.65 0.47205 -4.0526 0
M  V30 4363 H 398.325 -0.679194 -4.10317 0
M  V30 4364 H 396.902 1.07331 -3.5712 0
M  V30 4365 N 399.087 1.5561 -0.249682 0
M  V30 4366 C 400.317 2.03116 0.377803 0
M  V30 4367 C 400.725 1.12822 1.51881 0
M  V30 4368 O 400.068 0.13562 1.83199 0
M  V30 4369 C 400.13 3.46866 0.944693 0
M  V30 4370 C 399.794 4.56955 -0.0644259 0
M  V30 4371 C 400.791 5.12485 -0.874957 0
M  V30 4372 C 398.476 5.01936 -0.19132 0
M  V30 4373 C 400.47 6.11491 -1.79881 0
M  V30 4374 C 398.157 6.00773 -1.11868 0
M  V30 4375 C 399.155 6.5543 -1.92095 0
M  V30 4376 O 398.843 7.5234 -2.83267 0
M  V30 4377 H 398.575 0.669489 0.0935961 0
M  V30 4378 H 401.129 2.02004 -0.371966 0
M  V30 4379 H 399.359 3.45136 1.74407 0
M  V30 4380 H 401.048 3.77856 1.48255 0
M  V30 4381 H 401.814 4.78564 -0.787523 0
M  V30 4382 H 397.693 4.59055 0.423072 0
M  V30 4383 H 401.237 6.54078 -2.42543 0
M  V30 4384 H 397.134 6.34114 -1.20703 0
M  V30 4385 H 397.902 7.69966 -2.7766 0
M  V30 4386 N 400.565 -0.0233959 1.57583 0
M  V30 4387 C 401.814 -0.712133 1.8871 0
M  V30 4388 C 402.127 -1.76217 0.848944 0
M  V30 4389 O 403.333 -2.50389 1.04964 0
M  V30 4390 C 401.789 -1.3177 3.3491 0
M  V30 4391 C 401.397 -0.303715 4.46969 0
M  V30 4392 C 403.141 -1.98598 3.75179 0
M  V30 4393 C 401.048 -0.917945 5.84233 0
M  V30 4394 H 399.978 -0.269735 0.704101 0
M  V30 4395 H 402.629 0.0333114 1.8347 0
M  V30 4396 H 401.011 -2.11304 3.34913 0
M  V30 4397 H 402.185 0.465325 4.58445 0
M  V30 4398 H 400.5 0.2628 4.1557 0
M  V30 4399 H 403.097 -2.45416 4.75053 0
M  V30 4400 H 403.44 -2.80659 3.07468 0
M  V30 4401 H 403.973 -1.25831 3.77374 0
M  V30 4402 H 400.712 -0.136633 6.55358 0
M  V30 4403 H 400.232 -1.65669 5.76467 0
M  V30 4404 H 401.911 -1.4236 6.31144 0
M  V30 4405 N 402.043 -1.548 -0.295768 0
M  V30 4406 C 402.99 -1.86113 -1.36494 0
M  V30 4407 C 403.96 -0.7105 -1.50137 0
M  V30 4408 O 405.145 -0.959626 -1.64912 0
M  V30 4409 C 402.285 -2.11861 -2.72413 0
M  V30 4410 C 401.398 -3.39471 -2.67177 0
M  V30 4411 C 400.533 -3.55035 -3.95125 0
M  V30 4412 C 399.572 -4.76418 -3.84308 0
M  V30 4413 N 398.709 -4.8876 -5.04042 0
M  V30 4414 H 403.549 -2.77314 -1.09091 0
M  V30 4415 H 401.086 -1.37315 -0.52753 0
M  V30 4416 H 403.044 -2.24786 -3.51464 0
M  V30 4417 H 401.674 -1.2392 -2.98066 0
M  V30 4418 H 400.726 -3.35139 -1.79962 0
M  V30 4419 H 402.038 -4.28646 -2.55076 0
M  V30 4420 H 401.192 -3.67653 -4.82614 0
M  V30 4421 H 399.931 -2.64002 -4.10066 0
M  V30 4422 H 398.936 -4.63827 -2.95202 0
M  V30 4423 H 400.161 -5.68863 -3.70906 0
M  V30 4424 H 398.107 -4.00652 -5.19436 0
M  V30 4425 H 398.024 -5.71945 -4.94384 0
M  V30 4426 H 399.292 -5.0574 -5.93167 0
M  V30 4427 N 403.521 0.559213 -1.47345 0
M  V30 4428 C 404.451 1.67622 -1.62558 0
M  V30 4429 C 405.432 1.63331 -0.475087 0
M  V30 4430 O 406.617 1.80983 -0.704182 0
M  V30 4431 C 403.747 3.0626 -1.63774 0
M  V30 4432 C 402.701 3.25397 -2.7803 0
M  V30 4433 C 402.027 4.64801 -2.64318 0
M  V30 4434 C 403.327 3.10965 -4.19641 0
M  V30 4435 H 405.021 1.55146 -2.56067 0
M  V30 4436 H 402.567 0.744961 -1.23233 0
M  V30 4437 H 404.52 3.84247 -1.73008 0
M  V30 4438 H 403.244 3.1969 -0.66825 0
M  V30 4439 H 401.903 2.49817 -2.68304 0
M  V30 4440 H 401.551 4.75028 -1.65401 0
M  V30 4441 H 401.251 4.78555 -3.40968 0
M  V30 4442 H 402.775 5.44926 -2.75478 0
M  V30 4443 H 404.189 3.78772 -4.30354 0
M  V30 4444 H 402.586 3.36229 -4.97062 0
M  V30 4445 H 403.656 2.07736 -4.38148 0
M  V30 4446 N 404.999 1.35443 0.805782 0
M  V30 4447 C 405.962 1.28301 1.89925 0
M  V30 4448 C 406.962 0.194285 1.59622 0
M  V30 4449 O 408.152 0.448036 1.6834 0
M  V30 4450 C 405.284 0.984997 3.2636 0
M  V30 4451 H 406.477 2.2553 1.97677 0
M  V30 4452 H 404.03 1.19979 1.00173 0
M  V30 4453 H 404.765 0.016603 3.24296 0
M  V30 4454 H 404.55 1.77269 3.4974 0
M  V30 4455 H 406.04 0.960651 4.064 0
M  V30 4456 N 406.477 -1.02803 1.19454 0
M  V30 4457 C 407.723 -1.76478 0.999171 0
M  V30 4458 C 408.056 -1.88456 -0.468828 0
M  V30 4459 O 407.331 -1.40198 -1.34814 0
M  V30 4460 C 407.614 -3.19044 1.66981 0
M  V30 4461 C 407.467 -3.14932 3.21151 0
M  V30 4462 C 408.786 -4.17456 1.39349 0
M  V30 4463 H 405.905 -0.640614 0.364393 0
M  V30 4464 H 408.547 -1.20005 1.47305 0
M  V30 4465 H 406.697 -3.67263 1.2669 0
M  V30 4466 H 408.369 -2.74605 3.70661 0
M  V30 4467 H 406.612 -2.52625 3.52652 0
M  V30 4468 H 407.283 -4.1566 3.63223 0
M  V30 4469 H 409.759 -3.77842 1.74283 0
M  V30 4470 H 408.635 -5.154 1.88823 0
M  V30 4471 H 408.896 -4.40949 0.318813 0
M  V30 4472 N 407.956 -0.998596 -1.21925 0
M  V30 4473 C 409.184 -0.696286 -1.94832 0
M  V30 4474 C 409.599 0.740032 -1.73692 0
M  V30 4475 O 408.956 1.5 -1.03953 0
M  V30 4476 C 409.007 -0.999833 -3.47398 0
M  V30 4477 O 408.728 -2.37972 -3.67833 0
M  V30 4478 C 410.229 -0.716025 -4.37479 0
M  V30 4479 H 407.449 -0.257111 -0.619786 0
M  V30 4480 H 409.993 -1.33491 -1.54921 0
M  V30 4481 H 408.148 -0.406918 -3.85257 0
M  V30 4482 H 408.562 -2.48338 -4.61983 0
M  V30 4483 H 410.036 -0.978642 -5.43256 0
M  V30 4484 H 410.513 0.349968 -4.37803 0
M  V30 4485 H 411.119 -1.29025 -4.05256 0
M  V30 4486 N 409.434 1.37368 -0.772513 0
M  V30 4487 C 410.364 2.32856 -0.173304 0
M  V30 4488 C 411.345 1.55818 0.682262 0
M  V30 4489 O 412.53 1.84052 0.619566 0
M  V30 4490 C 409.66 3.40048 0.706007 0
M  V30 4491 C 408.614 4.27973 -0.0483144 0
M  V30 4492 C 407.94 5.26184 0.950491 0
M  V30 4493 C 409.24 5.07665 -1.22776 0
M  V30 4494 H 410.934 2.83217 -0.971002 0
M  V30 4495 H 408.48 1.3617 -0.468377 0
M  V30 4496 H 410.433 4.05827 1.13501 0
M  V30 4497 H 409.157 2.88214 1.53623 0
M  V30 4498 H 407.816 3.63726 -0.458107 0
M  V30 4499 H 407.464 4.7063 1.77529 0
M  V30 4500 H 407.164 5.85872 0.450314 0
M  V30 4501 H 408.688 5.94838 1.37842 0
M  V30 4502 H 410.102 5.66578 -0.875366 0
M  V30 4503 H 408.499 5.76681 -1.66007 0
M  V30 4504 H 409.569 4.40294 -2.03149 0
M  V30 4505 N 410.912 0.523116 1.48665 0
M  V30 4506 C 412.158 -0.0134963 2.02796 0
M  V30 4507 C 412.491 -1.34582 1.40004 0
M  V30 4508 O 411.766 -1.86756 0.543381 0
M  V30 4509 C 412.049 -0.14276 3.59817 0
M  V30 4510 C 411.902 1.21425 4.331 0
M  V30 4511 C 413.221 -0.872856 4.31357 0
M  V30 4512 H 410.34 -0.00343074 0.736992 0
M  V30 4513 H 412.982 0.678816 1.7746 0
M  V30 4514 H 411.132 -0.732401 3.81534 0
M  V30 4515 H 412.804 1.84447 4.2282 0
M  V30 4516 H 411.047 1.79791 3.94788 0
M  V30 4517 H 411.718 1.07687 5.41394 0
M  V30 4518 H 414.194 -0.372555 4.14429 0
M  V30 4519 H 413.07 -0.932185 5.40927 0
M  V30 4520 H 413.331 -1.92161 3.98154 0
M  V30 4521 N 412.39 -1.55475 0.257931 0
M  V30 4522 C 413.337 -2.21837 -0.636939 0
M  V30 4523 C 414.307 -1.18596 -1.16294 0
M  V30 4524 O 415.492 -1.47081 -1.21539 0
M  V30 4525 C 412.632 -2.9301 -1.82317 0
M  V30 4526 C 411.745 -4.10931 -1.33265 0
M  V30 4527 C 410.88 -4.69791 -2.47931 0
M  V30 4528 C 409.919 -5.7994 -1.95796 0
M  V30 4529 N 409.056 -6.32935 -3.0387 0
M  V30 4530 H 413.896 -2.9793 -0.0643591 0
M  V30 4531 H 411.433 -1.47086 -0.0200031 0
M  V30 4532 H 413.391 -3.3248 -2.52018 0
M  V30 4533 H 412.021 -2.1937 -2.36805 0
M  V30 4534 H 411.073 -3.76699 -0.52931 0
M  V30 4535 H 412.385 -4.90417 -0.910654 0
M  V30 4536 H 411.539 -5.11892 -3.25656 0
M  V30 4537 H 410.278 -3.89545 -2.93438 0
M  V30 4538 H 409.283 -5.37305 -1.16546 0
M  V30 4539 H 410.508 -6.62043 -1.51246 0
M  V30 4540 H 408.454 -5.55591 -3.48791 0
M  V30 4541 H 408.371 -7.07645 -2.66035 0
M  V30 4542 H 409.639 -6.79695 -3.81621 0
M  V30 4543 N 413.868 0.0150385 -1.57593 0
M  V30 4544 C 415.098 0.713359 -1.93894 0
M  V30 4545 C 415.506 1.68663 -0.857289 0
M  V30 4546 O 414.849 1.82876 0.173788 0
M  V30 4547 C 414.911 1.51348 -3.26089 0
M  V30 4548 C 414.575 0.703451 -4.51554 0
M  V30 4549 C 415.572 -0.00237924 -5.199 0
M  V30 4550 C 413.257 0.653854 -4.98026 0
M  V30 4551 C 415.251 -0.746955 -6.33008 0
M  V30 4552 C 412.938 -0.0944578 -6.11027 0
M  V30 4553 C 413.936 -0.793609 -6.78374 0
M  V30 4554 O 413.624 -1.52974 -7.89211 0
M  V30 4555 H 413.356 0.204637 -0.644282 0
M  V30 4556 H 415.91 -0.0276411 -2.05381 0
M  V30 4557 H 414.14 2.29862 -3.10967 0
M  V30 4558 H 415.829 2.09572 -3.47612 0
M  V30 4559 H 416.595 0.0268803 -4.84993 0
M  V30 4560 H 412.474 1.18756 -4.45441 0
M  V30 4561 H 416.018 -1.2932 -6.85509 0
M  V30 4562 H 411.915 -0.125591 -6.45378 0
M  V30 4563 H 412.683 -1.44488 -8.05646 0
M  V30 4564 N 415.346 1.54954 0.287554 0
M  V30 4565 C 416.593 1.74873 1.02106 0
M  V30 4566 C 416.921 0.541829 1.86801 0
M  V30 4567 O 416.176 -0.475992 1.89823 0
M  V30 4568 C 416.475 2.99833 1.94512 0
M  V30 4569 C 416.141 4.33029 1.25686 0
M  V30 4570 C 414.803 4.69233 1.06649 0
M  V30 4571 C 417.155 5.15542 0.765913 0
M  V30 4572 C 414.483 5.85518 0.372222 0
M  V30 4573 C 416.835 6.32542 0.0853101 0
M  V30 4574 C 415.499 6.67398 -0.1169 0
M  V30 4575 H 414.769 0.639906 0.373632 0
M  V30 4576 H 417.416 1.89219 0.294665 0
M  V30 4577 H 415.721 2.80325 2.73725 0
M  V30 4578 H 417.418 3.1244 2.51361 0
M  V30 4579 H 414.008 4.04564 1.41512 0
M  V30 4580 H 418.192 4.88059 0.90066 0
M  V30 4581 H 413.448 6.11057 0.204695 0
M  V30 4582 H 417.622 6.95741 -0.302936 0
M  V30 4583 H 415.249 7.57357 -0.656859 0
M  V30 4584 N 416.824 -0.551391 1.4764 0
M  V30 4585 C 418.235 -1.13349 1.48354 0
M  V30 4586 C 418.586 -1.94709 0.241432 0
M  V30 4587 O 417.711 -2.06306 -0.653205 0
M  V30 4588 C 418.306 -2.0623 2.68802 0
M  V30 4589 C 416.865 -2.597 2.72457 0
M  V30 4590 C 416.012 -1.36201 2.41546 0
M  V30 4591 H 418.963 -0.337698 1.55065 0
M  V30 4592 H 418.984 -2.90196 2.46103 0
M  V30 4593 H 418.496 -1.46987 3.59188 0
M  V30 4594 H 416.597 -3.22724 1.86225 0
M  V30 4595 H 416.71 -3.00296 3.73308 0
M  V30 4596 H 415.074 -1.67068 1.9225 0
M  V30 4597 H 415.857 -0.787425 3.34147 0
M  V30 4598 N 418.302 -1.35869 -0.798587 0
M  V30 4599 C 419.234 -1.25305 -1.91915 0
M  V30 4600 C 420.247 -0.174548 -1.61862 0
M  V30 4601 O 421.436 -0.428499 -1.73281 0
M  V30 4602 C 418.536 -0.9086 -3.26493 0
M  V30 4603 C 417.709 -2.08711 -3.84394 0
M  V30 4604 C 416.768 -1.71717 -4.97393 0
M  V30 4605 O 415.794 -2.43692 -5.14396 0
M  V30 4606 N 416.996 -0.645473 -5.769 0
M  V30 4607 H 419.761 -2.21849 -2.01502 0
M  V30 4608 H 417.322 -1.29143 -0.976408 0
M  V30 4609 H 419.314 -0.642455 -3.99568 0
M  V30 4610 H 417.884 -0.0325815 -3.12583 0
M  V30 4611 H 417.104 -2.51659 -3.03416 0
M  V30 4612 H 418.392 -2.87468 -4.19809 0
M  V30 4613 H 417.79 -0.047648 -5.6568 0
M  V30 4614 H 416.347 -0.43913 -6.50319 0
M  V30 4615 N 419.78 1.02168 -1.19998 0
M  V30 4616 C 420.743 2.08765 -0.94604 0
M  V30 4617 C 421.743 1.60618 0.0763846 0
M  V30 4618 O 422.933 1.73472 -0.159135 0
M  V30 4619 C 420.065 3.38262 -0.423255 0
M  V30 4620 H 421.258 2.32726 -1.89153 0
M  V30 4621 H 418.811 1.1889 -1.01464 0
M  V30 4622 H 419.546 3.19974 0.527938 0
M  V30 4623 H 419.331 3.74532 -1.16053 0
M  V30 4624 H 420.821 4.16759 -0.264911 0
M  V30 4625 N 421.258 1.00505 1.21394 0
M  V30 4626 C 422.488 0.705584 1.94178 0
M  V30 4627 C 422.896 -0.735846 1.74304 0
M  V30 4628 O 422.239 -1.50954 1.04683 0
M  V30 4629 C 422.301 0.94689 3.46806 0
M  V30 4630 C 421.965 2.37517 3.90429 0
M  V30 4631 C 422.962 3.35539 3.97127 0
M  V30 4632 C 420.647 2.71284 4.22742 0
M  V30 4633 C 422.641 4.65395 4.3553 0
M  V30 4634 C 420.328 4.01356 4.60822 0
M  V30 4635 C 421.326 4.98223 4.67186 0
M  V30 4636 O 421.014 6.25969 5.04399 0
M  V30 4637 H 420.746 0.259216 0.624326 0
M  V30 4638 H 423.3 1.34592 1.55159 0
M  V30 4639 H 421.53 0.249386 3.85895 0
M  V30 4640 H 423.219 0.640804 4.0081 0
M  V30 4641 H 423.985 3.10786 3.7234 0
M  V30 4642 H 419.864 1.96581 4.16985 0
M  V30 4643 H 423.408 5.41002 4.40412 0
M  V30 4644 H 419.305 4.25893 4.85063 0
M  V30 4645 H 420.073 6.30085 5.22431 0
M  V30 4646 N 422.737 -1.36956 0.779787 0
M  V30 4647 C 423.67 -2.27896 0.117681 0
M  V30 4648 C 424.648 -1.46736 -0.700523 0
M  V30 4649 O 425.832 -1.76055 -0.673568 0
M  V30 4650 C 422.959 -3.28136 -0.839296 0
M  V30 4651 C 422.005 -4.26373 -0.10409 0
M  V30 4652 S 422.838 -5.2157 1.21348 0
M  V30 4653 C 423.994 -6.25359 0.260249 0
M  V30 4654 H 424.227 -2.83704 0.888778 0
M  V30 4655 H 421.76 -1.43352 0.57355 0
M  V30 4656 H 423.718 -3.86394 -1.38601 0
M  V30 4657 H 422.379 -2.7126 -1.58356 0
M  V30 4658 H 421.572 -4.97121 -0.82986 0
M  V30 4659 H 421.174 -3.72147 0.371858 0
M  V30 4660 H 423.466 -6.75145 -0.564435 0
M  V30 4661 H 424.409 -7.01885 0.936135 0
M  V30 4662 H 424.817 -5.64345 -0.132127 0
M  V30 4663 N 424.215 -0.530993 -1.48385 0
M  V30 4664 C 425.163 0.244595 -2.3131 0
M  V30 4665 C 426.157 0.93451 -1.41291 0
M  V30 4666 O 427.363 0.85878 -1.58193 0
M  V30 4667 H 423.738 0.0977472 -0.74562 0
M  V30 4668 H 425.709 -0.474369 -2.94605 0
M  V30 4669 C 424.458 1.2779 -3.23365 0
M  V30 4670 H 423.781 0.756439 -3.92579 0
M  V30 4671 H 425.221 1.79198 -3.84271 0
M  V30 4672 C 423.68 2.31205 -2.45042 0
M  V30 4673 O 424.21 3.37661 -2.17596 0
M  V30 4674 N 422.416 2.04446 -2.0652 0
M  V30 4675 H 421.963 1.17891 -2.2904 0
M  V30 4676 H 421.921 2.73861 -1.54427 0
M  V30 4677 N 425.693 1.55336 -0.266172 0
M  V30 4678 C 426.94 1.99397 0.353158 0
M  V30 4679 C 427.268 1.15451 1.56529 0
M  V30 4680 O 426.523 0.209974 1.9457 0
M  V30 4681 C 426.822 3.48606 0.787957 0
M  V30 4682 C 426.488 4.49773 -0.318541 0
M  V30 4683 C 425.15 4.77158 -0.62239 0
M  V30 4684 C 427.502 5.10212 -1.06459 0
M  V30 4685 C 424.83 5.62251 -1.67602 0
M  V30 4686 C 427.182 5.96449 -2.10788 0
M  V30 4687 C 425.846 6.22158 -2.41817 0
M  V30 4688 H 425.116 0.729644 0.12923 0
M  V30 4689 H 427.763 1.87732 -0.37802 0
M  V30 4690 H 426.068 3.57701 1.59866 0
M  V30 4691 H 427.765 3.80098 1.27775 0
M  V30 4692 H 424.355 4.2854 -0.0715925 0
M  V30 4693 H 428.539 4.89086 -0.843098 0
M  V30 4694 H 423.795 5.80419 -1.92155 0
M  V30 4695 H 427.969 6.42317 -2.69076 0
M  V30 4696 H 425.596 6.87888 -3.23596 0
M  V30 4697 N 427.171 -0.0066808 1.57599 0
M  V30 4698 C 428.401 -0.703066 1.94269 0
M  V30 4699 C 428.809 -1.68206 0.866222 0
M  V30 4700 O 428.152 -1.82966 -0.164087 0
M  V30 4701 C 428.214 -1.49616 3.26887 0
M  V30 4702 C 427.878 -0.679494 4.5192 0
M  V30 4703 C 428.875 0.0299508 5.19891 0
M  V30 4704 C 426.56 -0.627433 4.98366 0
M  V30 4705 C 428.554 0.780514 6.32603 0
M  V30 4706 C 426.241 0.126861 6.10968 0
M  V30 4707 C 427.239 0.829574 6.77943 0
M  V30 4708 O 426.927 1.57157 7.88389 0
M  V30 4709 H 426.659 -0.201217 0.645359 0
M  V30 4710 H 429.213 0.0385326 2.05364 0
M  V30 4711 H 427.443 -2.28209 3.12182 0
M  V30 4712 H 429.132 -2.07726 3.48719 0
M  V30 4713 H 429.898 -0.00115963 4.85 0
M  V30 4714 H 425.777 -1.16392 4.46065 0
M  V30 4715 H 429.321 1.32954 6.84813 0
M  V30 4716 H 425.218 0.159815 6.45302 0
M  V30 4717 H 425.986 1.48758 8.04868 0
M  V30 4718 N 428.649 -1.55105 -0.279332 0
M  V30 4719 C 429.879 -1.7917 -1.02867 0
M  V30 4720 C 430.287 -0.56204 -1.80659 0
M  V30 4721 O 429.63 0.478266 -1.77365 0
M  V30 4722 C 429.692 -2.96061 -2.03932 0
M  V30 4723 C 429.356 -4.33341 -1.45137 0
M  V30 4724 C 430.353 -5.12565 -0.870266 0
M  V30 4725 C 428.038 -4.79987 -1.48048 0
M  V30 4726 C 430.032 -6.36565 -0.326097 0
M  V30 4727 C 427.719 -6.03944 -0.932443 0
M  V30 4728 C 428.717 -6.8207 -0.356247 0
M  V30 4729 O 428.405 -8.03691 0.183412 0
M  V30 4730 H 428.137 -0.600796 -0.309872 0
M  V30 4731 H 430.691 -2.02932 -0.317468 0
M  V30 4732 H 428.921 -2.67975 -2.78794 0
M  V30 4733 H 430.61 -3.07506 -2.64943 0
M  V30 4734 H 431.376 -4.77661 -0.840521 0
M  V30 4735 H 427.255 -4.1919 -1.91835 0
M  V30 4736 H 430.799 -6.97489 0.124286 0
M  V30 4737 H 426.696 -6.3833 -0.959407 0
M  V30 4738 H 427.464 -8.18468 0.0721681 0
M  V30 4739 N 430.127 0.543554 -1.4793 0
M  V30 4740 C 431.074 1.64942 -1.6144 0
M  V30 4741 C 432.044 1.59692 -0.456903 0
M  V30 4742 O 433.229 1.78321 -0.678688 0
M  V30 4743 C 430.369 3.03238 -1.64744 0
M  V30 4744 C 429.482 3.18823 -2.91506 0
M  V30 4745 C 428.617 4.47599 -2.86057 0
M  V30 4746 C 427.656 4.56664 -4.07584 0
M  V30 4747 N 426.793 5.76811 -4.00292 0
M  V30 4748 H 431.633 1.52733 -2.55884 0
M  V30 4749 H 429.17 0.7438 -1.2691 0
M  V30 4750 H 431.128 3.83339 -1.64641 0
M  V30 4751 H 429.758 3.1425 -0.738017 0
M  V30 4752 H 428.81 2.32064 -3.01414 0
M  V30 4753 H 430.122 3.21384 -3.81463 0
M  V30 4754 H 429.276 5.35975 -2.84281 0
M  V30 4755 H 428.015 4.47538 -1.93807 0
M  V30 4756 H 427.02 3.66697 -4.09651 0
M  V30 4757 H 428.245 4.58474 -5.00978 0
M  V30 4758 H 426.191 5.77673 -3.10853 0
M  V30 4759 H 426.108 5.80808 -4.8394 0
M  V30 4760 H 427.376 6.67512 -4.02553 0
M  V30 4761 N 431.605 1.3629 0.791371 0
M  V30 4762 C 432.83 1.33726 1.58531 0
M  V30 4763 C 433.255 -0.0794933 1.87932 0
M  V30 4764 O 432.613 -1.05087 1.47738 0
M  V30 4765 C 432.661 2.16425 2.88431 0
M  V30 4766 O 431.765 1.5554 3.81944 0
M  V30 4767 H 431.106 0.457793 0.480959 0
M  V30 4768 H 433.636 1.79547 0.981031 0
M  V30 4769 H 433.646 2.28933 3.37718 0
M  V30 4770 H 432.321 3.19415 2.66359 0
M  V30 4771 H 430.898 1.51961 3.40532 0
M  V30 4772 N 433.083 -1.0153 1.20538 0
M  V30 4773 C 434.311 -1.78746 1.04199 0
M  V30 4774 C 434.726 -1.84323 -0.408733 0
M  V30 4775 O 434.083 -1.29714 -1.28377 0
M  V30 4776 C 434.134 -3.23152 1.62035 0
M  V30 4777 O 433.855 -3.17918 3.0143 0
M  V30 4778 C 435.356 -4.16911 1.50666 0
M  V30 4779 H 432.576 -0.56208 0.366479 0
M  V30 4780 H 435.12 -1.27794 1.59653 0
M  V30 4781 H 433.275 -3.71248 1.10697 0
M  V30 4782 H 433.689 -4.08567 3.28897 0
M  V30 4783 H 435.163 -5.16072 1.95892 0
M  V30 4784 H 435.64 -4.36791 0.459363 0
M  V30 4785 H 436.246 -3.74698 2.01201 0
M  V30 4786 N 434.561 -1.01147 -1.20859 0
M  V30 4787 C 435.471 -0.58686 -2.27141 0
M  V30 4788 C 436.487 0.373198 -1.69951 0
M  V30 4789 O 437.663 0.235423 -2.00019 0
M  V30 4790 C 434.728 0.0733602 -3.46622 0
M  V30 4791 C 433.789 -0.931995 -4.19061 0
M  V30 4792 C 433.022 -0.303186 -5.32838 0
M  V30 4793 O 433.245 0.898395 -5.63281 0
M  V30 4794 O 432.179 -1.01735 -5.9324 0
M  V30 4795 H 436.005 -1.47155 -2.65667 0
M  V30 4796 H 433.59 -0.780689 -1.2738 0
M  V30 4797 H 435.472 0.442333 -4.19072 0
M  V30 4798 H 434.147 0.932329 -3.09983 0
M  V30 4799 H 433.054 -1.35224 -3.48805 0
M  V30 4800 H 434.387 -1.76076 -4.59628 0
M  V30 4801 N 436.039 1.36541 -0.78704 0
M  V30 4802 C 437.287 1.98911 -0.357633 0
M  V30 4803 C 437.608 1.62778 1.07371 0
M  V30 4804 O 436.878 0.900612 1.73971 0
M  V30 4805 H 435.458 0.735734 -0.129246 0
M  V30 4806 H 438.12 1.66776 -1.00855 0
M  V30 4807 H 437.216 3.08874 -0.447549 0
M  V30 4808 N 437.518 0.538854 1.48102 0
M  V30 4809 C 438.764 0.0161732 2.03394 0
M  V30 4810 C 439.119 -1.31154 1.40771 0
M  V30 4811 O 438.412 -1.83613 0.547421 0
M  V30 4812 C 438.606 -0.153808 3.57069 0
M  V30 4813 C 438.435 1.15588 4.34591 0
M  V30 4814 C 437.205 1.71818 4.75191 0
M  V30 4815 C 439.403 2.06867 4.70861 0
M  V30 4816 N 437.385 2.96983 5.37284 0
M  V30 4817 C 438.756 3.16609 5.33066 0
M  V30 4818 C 440.811 2.07085 4.52791 0
M  V30 4819 C 439.514 4.26645 5.79109 0
M  V30 4820 C 441.54 3.16121 4.99821 0
M  V30 4821 C 440.902 4.24582 5.62058 0
M  V30 4822 H 437.001 0.0476346 0.780548 0
M  V30 4823 H 439.585 0.722094 1.80815 0
M  V30 4824 H 437.756 -0.828825 3.79454 0
M  V30 4825 H 439.488 -0.676896 3.98999 0
M  V30 4826 H 436.243 1.25845 4.56574 0
M  V30 4827 H 436.667 3.60732 5.72889 0
M  V30 4828 H 441.309 1.24522 4.04047 0
M  V30 4829 H 439.027 5.0998 6.26854 0
M  V30 4830 H 442.613 3.17355 4.87624 0
M  V30 4831 H 441.493 5.07562 5.97788 0
M  V30 4832 N 438.996 -1.55193 0.274407 0
M  V30 4833 C 440.221 -2.04446 -0.348824 0
M  V30 4834 C 440.646 -1.15149 -1.48735 0
M  V30 4835 O 440.004 -0.149952 -1.80679 0
M  V30 4836 C 440.052 -3.51431 -0.808009 0
M  V30 4837 O 439.156 -3.65225 -1.91531 0
M  V30 4838 H 438.497 -0.66006 -0.0722276 0
M  V30 4839 H 441.027 -2.00481 0.408498 0
M  V30 4840 H 441.037 -3.92781 -1.10395 0
M  V30 4841 H 439.712 -4.15892 0.0249865 0
M  V30 4842 H 438.289 -3.35778 -1.62196 0
M  V30 4843 N 440.474 -0.00167713 -1.576 0
M  V30 4844 C 441.723 0.682021 -1.89819 0
M  V30 4845 C 442.036 1.74844 -0.876871 0
M  V30 4846 O 443.242 2.48688 -1.08934 0
M  V30 4847 C 441.698 1.26425 -3.36964 0
M  V30 4848 C 441.306 0.232568 -4.47396 0
M  V30 4849 C 443.05 1.92604 -3.78291 0
M  V30 4850 C 440.957 0.824882 -5.85619 0
M  V30 4851 H 439.887 0.258499 -0.708304 0
M  V30 4852 H 442.538 -0.0624957 -1.83394 0
M  V30 4853 H 440.92 2.05949 -3.38232 0
M  V30 4854 H 442.094 -0.5382 -4.57646 0
M  V30 4855 H 440.409 -0.32888 -4.15099 0
M  V30 4856 H 443.006 2.37827 -4.78897 0
M  V30 4857 H 443.349 2.75732 -3.11894 0
M  V30 4858 H 443.882 1.19812 -3.79328 0
M  V30 4859 H 440.621 0.0323542 -6.55492 0
M  V30 4860 H 440.141 1.56477 -5.79029 0
M  V30 4861 H 441.82 1.32301 -6.33329 0
M  V30 4862 N 441.952 1.55251 0.271103 0
M  V30 4863 C 443.2 1.75599 1.00047 0
M  V30 4864 C 443.521 0.561188 1.8675 0
M  V30 4865 O 442.791 -0.423846 1.9126 0
M  V30 4866 H 441.371 0.647562 0.372387 0
M  V30 4867 H 444.033 1.92656 0.294876 0
M  V30 4868 H 443.129 2.65766 1.6363 0
M  V30 4869 N 443.43 -0.535701 1.48216 0
M  V30 4870 C 444.378 -1.66179 1.62749 0
M  V30 4871 C 445.372 -1.62034 0.49409 0
M  V30 4872 O 446.578 -1.6696 0.672624 0
M  V30 4873 H 442.953 -0.550244 0.512578 0
M  V30 4874 H 444.924 -1.51063 2.57337 0
M  V30 4875 C 443.673 -3.04471 1.67907 0
M  V30 4876 H 442.996 -3.08351 2.54479 0
M  V30 4877 H 444.436 -3.82894 1.82121 0
M  V30 4878 C 442.895 -3.34314 0.416596 0
M  V30 4879 O 443.425 -3.98905 -0.473014 0
M  V30 4880 N 441.631 -2.89149 0.290038 0
M  V30 4881 H 441.178 -2.36764 1.01493 0
M  V30 4882 H 441.136 -3.09486 -0.55367 0
M  V30 4883 N 444.908 -1.36708 -0.784132 0
M  V30 4884 C 446.154 -1.31426 -1.54451 0
M  V30 4885 C 446.487 0.10476 -1.93917 0
M  V30 4886 O 445.762 1.05934 -1.6312 0
M  V30 4887 C 446.045 -2.24189 -2.818 0
M  V30 4888 C 445.898 -3.74813 -2.48667 0
M  V30 4889 C 447.217 -2.15626 -3.83658 0
M  V30 4890 H 444.336 -0.478739 -0.560337 0
M  V30 4891 H 446.978 -1.67305 -0.900498 0
M  V30 4892 H 445.128 -1.93722 -3.36755 0
M  V30 4893 H 446.8 -4.15823 -1.99722 0
M  V30 4894 H 445.043 -3.93989 -1.81535 0
M  V30 4895 H 445.714 -4.35138 -3.39646 0
M  V30 4896 H 448.19 -2.42456 -3.38163 0
M  V30 4897 H 447.066 -2.82694 -4.70506 0
M  V30 4898 H 447.327 -1.14522 -4.27009 0
M  V30 4899 N 446.386 1.0089 -1.21074 0
M  V30 4900 C 447.316 2.1145 -0.990523 0
M  V30 4901 C 448.297 1.69897 0.0831699 0
M  V30 4902 O 449.482 1.94052 -0.0758853 0
M  V30 4903 C 446.612 3.42914 -0.550177 0
M  V30 4904 C 445.566 3.98244 -1.56799 0
M  V30 4905 C 444.892 5.25568 -0.984013 0
M  V30 4906 C 446.192 4.30752 -2.95381 0
M  V30 4907 H 447.886 2.3013 -1.91521 0
M  V30 4908 H 445.432 1.10592 -0.92225 0
M  V30 4909 H 447.385 4.19653 -0.383305 0
M  V30 4910 H 446.109 3.24014 0.41015 0
M  V30 4911 H 444.768 3.23621 -1.72236 0
M  V30 4912 H 444.416 5.02998 -0.0155216 0
M  V30 4913 H 444.116 5.63551 -1.66384 0
M  V30 4914 H 445.64 6.04955 -0.828378 0
M  V30 4915 H 447.054 4.98349 -2.8341 0
M  V30 4916 H 445.451 4.79869 -3.60341 0
M  V30 4917 H 446.521 3.39192 -3.46521 0
M  V30 4918 N 447.864 1.01787 1.20321 0
M  V30 4919 C 448.794 0.609625 2.25401 0
M  V30 4920 C 449.775 -0.375951 1.65893 0
M  V30 4921 O 450.96 -0.261101 1.92437 0
M  V30 4922 C 448.09 -0.0515995 3.47262 0
M  V30 4923 C 447.044 0.855095 4.19371 0
M  V30 4924 C 446.37 0.0595757 5.34667 0
M  V30 4925 C 447.67 2.16374 4.75373 0
M  V30 4926 H 449.364 1.48803 2.59804 0
M  V30 4927 H 446.91 0.716934 1.24884 0
M  V30 4928 H 448.863 -0.348764 4.19954 0
M  V30 4929 H 447.587 -0.964726 3.12027 0
M  V30 4930 H 446.246 1.13628 3.48546 0
M  V30 4931 H 445.894 -0.85524 4.95676 0
M  V30 4932 H 445.594 0.663406 5.83843 0
M  V30 4933 H 447.118 -0.231105 6.10162 0
M  V30 4934 H 448.532 1.92885 5.39878 0
M  V30 4935 H 446.929 2.71853 5.34991 0
M  V30 4936 H 447.999 2.82589 3.94045 0
M  V30 4937 N 449.342 -1.36122 0.79427 0
M  V30 4938 C 450.619 -1.93398 0.292685 0
M  V30 4939 C 450.999 -1.72567 -1.21589 0
M  V30 4940 O 450.347 -1.08745 -2.00965 0
M  V30 4941 C 450.557 -3.42099 0.690614 0
M  V30 4942 C 451.905 -4.19231 0.673105 0
M  V30 4943 O 452.929 -3.50559 0.631389 0
M  V30 4944 O 451.788 -5.41732 0.720362 0
M  V30 4945 H 448.882 -0.823712 0.0736693 0
M  V30 4946 H 451.428 -1.45273 0.87714 0
M  V30 4947 H 450.2 -3.50938 1.73085 0
M  V30 4948 H 449.823 -3.97519 0.0803036 0
M  V30 4949 N 450.82 -0.546701 -1.47814 0
M  V30 4950 C 452.067 -0.0187407 -2.02491 0
M  V30 4951 C 452.395 1.32685 -1.42215 0
M  V30 4952 O 451.65 1.87413 -0.563454 0
M  V30 4953 C 451.949 0.134869 -3.57145 0
M  V30 4954 C 451.615 -1.13849 -4.3629 0
M  V30 4955 C 450.277 -1.48743 -4.57634 0
M  V30 4956 C 452.629 -1.98277 -4.82012 0
M  V30 4957 C 449.957 -2.67932 -5.21948 0
M  V30 4958 C 452.309 -3.16659 -5.4764 0
M  V30 4959 C 450.973 -3.51879 -5.67219 0
M  V30 4960 H 450.243 -0.0068577 -0.740968 0
M  V30 4961 H 452.89 -0.716097 -1.77607 0
M  V30 4962 H 451.195 0.915118 -3.80963 0
M  V30 4963 H 452.892 0.558556 -3.97091 0
M  V30 4964 H 449.482 -0.856767 -4.19949 0
M  V30 4965 H 453.666 -1.72628 -4.6531 0
M  V30 4966 H 448.922 -2.95401 -5.35302 0
M  V30 4967 H 453.096 -3.82374 -5.82033 0
M  V30 4968 H 450.723 -4.44331 -6.16825 0
M  V30 4969 N 452.299 1.55045 -0.282633 0
M  V30 4970 C 453.527 2.04168 0.33512 0
M  V30 4971 C 453.942 1.16071 1.48906 0
M  V30 4972 O 453.299 0.182391 1.81586 0
M  V30 4973 C 453.35 3.52332 0.808957 0
M  V30 4974 O 453.071 4.37078 -0.299038 0
M  V30 4975 C 454.572 4.17375 1.49375 0
M  V30 4976 H 451.792 0.666744 0.0754543 0
M  V30 4977 H 454.336 2.00205 -0.416918 0
M  V30 4978 H 452.491 3.56715 1.51106 0
M  V30 4979 H 452.905 5.24458 0.0665514 0
M  V30 4980 H 454.379 5.22627 1.77664 0
M  V30 4981 H 454.856 3.65999 2.42778 0
M  V30 4982 H 455.462 4.17016 0.835305 0
M  V30 4983 N 453.777 0.010035 1.57597 0
M  V30 4984 C 455.025 -0.671371 1.90623 0
M  V30 4985 C 455.346 -1.73753 0.885151 0
M  V30 4986 O 454.616 -1.95752 -0.0760611 0
M  V30 4987 H 453.196 -0.250968 0.703579 0
M  V30 4988 H 455.858 0.0533325 1.94827 0
M  V30 4989 H 454.954 -1.13626 2.90681 0
M  V30 4990 N 455.255 -1.55392 -0.262866 0
M  V30 4991 C 456.503 -1.76127 -0.991147 0
M  V30 4992 C 456.824 -0.571083 -1.8645 0
M  V30 4993 O 456.094 0.413698 -1.91482 0
M  V30 4994 H 454.674 -0.649528 -0.368948 0
M  V30 4995 H 457.336 -1.9281 -0.284655 0
M  V30 4996 H 456.432 -2.6663 -1.62219 0
M  V30 4997 N 456.733 0.527833 -1.48498 0
M  V30 4998 C 457.958 1.313 -1.60546 0
M  V30 4999 C 458.383 1.86199 -0.26672 0
M  V30 5000 O 457.741 1.64513 0.761918 0
M  V30 5001 C 457.789 2.43818 -2.65678 0
M  V30 5002 O 456.893 3.46916 -2.22987 0
M  V30 5003 H 456.234 0.388784 -0.538277 0
M  V30 5004 H 458.764 0.634896 -1.945 0
M  V30 5005 H 458.774 2.89973 -2.87018 0
M  V30 5006 H 457.449 2.03222 -3.62869 0
M  V30 5007 H 456.026 3.06864 -2.11869 0
M  V30 5008 N 458.211 1.37122 0.776871 0
M  V30 5009 C 459.458 1.32047 1.53524 0
M  V30 5010 C 459.786 -0.0965631 1.9426 0
M  V30 5011 O 459.041 -1.06866 1.63945 0
M  V30 5012 C 459.34 2.20068 2.81611 0
M  V30 5013 C 459.006 3.68423 2.59953 0
M  V30 5014 C 457.668 4.08854 2.53755 0
M  V30 5015 C 460.02 4.62431 2.40431 0
M  V30 5016 C 457.348 5.41417 2.26018 0
M  V30 5017 C 459.7 5.95225 2.14219 0
M  V30 5018 C 458.364 6.34767 2.06462 0
M  V30 5019 H 457.634 0.483196 0.561785 0
M  V30 5020 H 460.281 1.69284 0.895268 0
M  V30 5021 H 458.586 1.75809 3.50141 0
M  V30 5022 H 460.283 2.13458 3.39465 0
M  V30 5023 H 456.873 3.36354 2.65638 0
M  V30 5024 H 461.057 4.32057 2.44213 0
M  V30 5025 H 456.313 5.71022 2.18504 0
M  V30 5026 H 460.487 6.67626 1.98112 0
M  V30 5027 H 458.114 7.37413 1.84733 0
M  V30 5028 N 459.689 -1.00246 1.21608 0
M  V30 5029 C 460.914 -1.78167 1.06167 0
M  V30 5030 C 461.339 -1.84138 -0.384035 0
M  V30 5031 O 460.697 -1.28683 -1.27712 0
M  V30 5032 C 460.745 -3.19786 1.66642 0
M  V30 5033 O 459.849 -4.02153 0.913613 0
M  V30 5034 H 459.19 -0.549 0.37349 0
M  V30 5035 H 461.72 -1.25994 1.61204 0
M  V30 5036 H 461.73 -3.70451 1.70969 0
M  V30 5037 H 460.405 -3.14754 2.7185 0
M  V30 5038 H 458.982 -3.60711 0.945635 0
M  V30 5039 N 461.167 -1.02423 -1.1978 0
M  V30 5040 C 462.097 -0.62157 -2.25075 0
M  V30 5041 C 463.078 0.367148 -1.6609 0
M  V30 5042 O 464.263 0.250892 -1.92573 0
M  V30 5043 C 461.393 0.0331826 -3.47284 0
M  V30 5044 C 460.347 -0.877323 -4.18912 0
M  V30 5045 C 459.673 -0.0879296 -5.34628 0
M  V30 5046 C 460.973 -2.18892 -4.74219 0
M  V30 5047 H 462.667 -1.50179 -2.59011 0
M  V30 5048 H 460.213 -0.723547 -1.24502 0
M  V30 5049 H 462.166 0.326488 -4.20133 0
M  V30 5050 H 460.89 0.948164 -3.12534 0
M  V30 5051 H 459.549 -1.15475 -3.47938 0
M  V30 5052 H 459.197 0.828941 -4.96123 0
M  V30 5053 H 458.897 -0.694359 -5.83483 0
M  V30 5054 H 460.421 0.198743 -6.10276 0
M  V30 5055 H 461.835 -1.95746 -5.38847 0
M  V30 5056 H 460.232 -2.74686 -5.33542 0
M  V30 5057 H 461.302 -2.84674 -3.92541 0
M  V30 5058 N 462.645 1.35699 -0.801477 0
M  V30 5059 C 463.575 2.32436 -0.222658 0
M  V30 5060 C 464.556 1.5723 0.649057 0
M  V30 5061 O 465.741 1.85324 0.580387 0
M  V30 5062 C 462.871 3.41469 0.633719 0
M  V30 5063 C 461.825 4.27774 -0.139083 0
M  V30 5064 C 461.151 5.28082 0.838666 0
M  V30 5065 C 462.451 5.04946 -1.33517 0
M  V30 5066 H 464.145 2.81094 -1.03086 0
M  V30 5067 H 461.691 1.35146 -0.497155 0
M  V30 5068 H 463.644 4.08143 1.04868 0
M  V30 5069 H 462.368 2.91408 1.47475 0
M  V30 5070 H 461.027 3.62673 -0.535156 0
M  V30 5071 H 460.675 4.7429 1.67506 0
M  V30 5072 H 460.375 5.86695 0.32594 0
M  V30 5073 H 461.899 5.97628 1.25194 0
M  V30 5074 H 463.313 5.64593 -0.995349 0
M  V30 5075 H 461.71 5.7303 -1.78202 0
M  V30 5076 H 462.78 4.35886 -2.12442 0
M  V30 5077 N 464.123 0.554532 1.47522 0
M  V30 5078 C 465.055 -0.232106 2.28022 0
M  V30 5079 C 466.068 -0.881865 1.36847 0
M  V30 5080 O 467.257 -0.756168 1.61692 0
M  V30 5081 C 464.357 -1.34604 3.11022 0
M  V30 5082 C 463.53 -0.793582 4.30141 0
M  V30 5083 C 462.589 -1.79168 4.94758 0
M  V30 5084 O 461.615 -1.33886 5.5323 0
M  V30 5085 N 462.817 -3.12495 4.89211 0
M  V30 5086 H 465.582 0.458407 2.96173 0
M  V30 5087 H 463.143 0.390433 1.57122 0
M  V30 5088 H 465.135 -2.01243 3.51118 0
M  V30 5089 H 463.705 -1.93983 2.45131 0
M  V30 5090 H 462.925 0.0495025 3.94169 0
M  V30 5091 H 464.213 -0.403776 5.07195 0
M  V30 5092 H 463.611 -3.51931 4.42901 0
M  V30 5093 H 462.168 -3.74698 5.33333 0
M  V30 5094 N 465.601 -1.54893 0.290851 0
M  V30 5095 C 466.534 -2.19289 -0.631489 0
M  V30 5096 C 467.512 -1.15893 -1.14051 0
M  V30 5097 O 468.696 -1.4449 -1.21058 0
M  V30 5098 C 465.823 -2.82866 -1.86291 0
M  V30 5099 C 464.869 -3.997 -1.48801 0
M  V30 5100 S 465.702 -5.32641 -0.552644 0
M  V30 5101 C 466.858 -5.99696 -1.79209 0
M  V30 5102 H 467.091 -2.9718 -0.0843791 0
M  V30 5103 H 464.624 -1.54218 0.075031 0
M  V30 5104 H 466.582 -3.20124 -2.56964 0
M  V30 5105 H 465.243 -2.04839 -2.38117 0
M  V30 5106 H 464.436 -4.42932 -2.40473 0
M  V30 5107 H 464.038 -3.63947 -0.861321 0
M  V30 5108 H 466.33 -6.19886 -2.734 0
M  V30 5109 H 467.273 -6.94071 -1.40251 0
M  V30 5110 H 467.681 -5.29226 -1.96419 0
M  V30 5111 N 467.08 -0.0183926 -1.57589 0
M  V30 5112 C 468.327 0.662562 -1.91354 0
M  V30 5113 C 468.655 1.72747 -0.893788 0
M  V30 5114 O 467.91 1.9545 0.0988509 0
M  V30 5115 C 468.209 1.32676 -3.31861 0
M  V30 5116 C 467.875 0.393267 -4.49182 0
M  V30 5117 C 466.537 0.136302 -4.81007 0
M  V30 5118 C 468.889 -0.248366 -5.20608 0
M  V30 5119 C 466.217 -0.770282 -5.81621 0
M  V30 5120 C 468.569 -1.14294 -6.22189 0
M  V30 5121 C 467.233 -1.4089 -6.52462 0
M  V30 5122 H 466.503 0.242448 -0.700214 0
M  V30 5123 H 469.15 -0.0778629 -1.91342 0
M  V30 5124 H 467.455 2.14168 -3.28084 0
M  V30 5125 H 469.152 1.86001 -3.55253 0
M  V30 5126 H 465.742 0.603723 -4.24327 0
M  V30 5127 H 469.926 -0.062883 -4.9626 0
M  V30 5128 H 465.182 -0.984154 -6.03427 0
M  V30 5129 H 469.356 -1.64637 -6.76659 0
M  V30 5130 H 466.983 -2.11306 -7.30242 0
M  V30 5131 N 468.558 1.5553 0.254621 0
M  V30 5132 C 469.488 1.9268 1.31897 0
M  V30 5133 C 470.469 0.790797 1.506 0
M  V30 5134 O 471.654 1.05045 1.63337 0
M  V30 5135 C 468.784 2.21477 2.67517 0
M  V30 5136 C 467.738 3.37256 2.63519 0
M  V30 5137 C 467.064 3.51576 4.02862 0
M  V30 5138 C 468.364 4.73157 2.21179 0
M  V30 5139 H 470.058 2.81832 1.01051 0
M  V30 5140 H 467.604 1.35599 0.484662 0
M  V30 5141 H 469.557 2.46055 3.42104 0
M  V30 5142 H 468.281 1.29144 2.99982 0
M  V30 5143 H 466.94 3.12675 1.9139 0
M  V30 5144 H 466.588 2.56676 4.32581 0
M  V30 5145 H 466.288 4.2943 4.01078 0
M  V30 5146 H 467.812 3.78467 4.79161 0
M  V30 5147 H 469.226 4.97158 2.85494 0
M  V30 5148 H 467.623 5.54058 2.30521 0
M  V30 5149 H 468.693 4.70739 1.16332 0
M  V30 5150 N 470.036 -0.519951 1.48776 0
M  V30 5151 C 470.968 -1.63973 1.60142 0
M  V30 5152 C 471.981 -1.55404 0.485117 0
M  V30 5153 O 473.17 -1.61682 0.756391 0
M  V30 5154 C 470.27 -3.02676 1.52449 0
M  V30 5155 C 469.443 -3.36624 2.79291 0
M  V30 5156 C 468.502 -4.54652 2.64912 0
M  V30 5157 O 467.528 -4.57374 3.38818 0
M  V30 5158 N 468.73 -5.53432 1.75195 0
M  V30 5159 H 471.495 -1.54656 2.56713 0
M  V30 5160 H 469.056 -0.707439 1.45626 0
M  V30 5161 H 471.048 -3.79525 1.4051 0
M  V30 5162 H 469.618 -3.06018 0.638125 0
M  V30 5163 H 468.838 -2.48855 3.0572 0
M  V30 5164 H 470.126 -3.56094 3.6342 0
M  V30 5165 H 469.524 -5.54018 1.14371 0
M  V30 5166 H 468.081 -6.29459 1.69189 0
M  V30 5167 N 471.514 -1.37532 -0.769588 0
M  V30 5168 C 472.739 -1.36231 -1.56384 0
M  V30 5169 C 473.164 0.0495849 -1.88035 0
M  V30 5170 O 472.522 1.02723 -1.49391 0
M  V30 5171 C 472.57 -2.20986 -2.84952 0
M  V30 5172 O 471.674 -1.61597 -3.79421 0
M  V30 5173 H 471.015 -0.465387 -0.473615 0
M  V30 5174 H 473.545 -1.81085 -0.952342 0
M  V30 5175 H 473.555 -2.34277 -3.34034 0
M  V30 5176 H 472.23 -3.23612 -2.61243 0
M  V30 5177 H 470.807 -1.57359 -3.38072 0
M  V30 5178 N 472.992 0.995999 -1.22138 0
M  V30 5179 C 474.222 1.76809 -1.06874 0
M  V30 5180 C 474.63 1.85265 0.383866 0
M  V30 5181 O 473.973 1.31969 1.27789 0
M  V30 5182 C 474.035 3.2186 -1.60144 0
M  V30 5183 C 473.699 3.36958 -3.0872 0
M  V30 5184 C 474.696 3.2452 -4.0618 0
M  V30 5185 C 472.381 3.62109 -3.48112 0
M  V30 5186 C 474.375 3.37013 -5.41019 0
M  V30 5187 C 472.062 3.74243 -4.831 0
M  V30 5188 C 473.06 3.61702 -5.79362 0
M  V30 5189 O 472.748 3.73436 -7.119 0
M  V30 5190 H 472.48 0.562207 -0.375365 0
M  V30 5191 H 475.034 1.26113 -1.62125 0
M  V30 5192 H 473.264 3.73734 -0.992981 0
M  V30 5193 H 474.953 3.80775 -1.40589 0
M  V30 5194 H 475.719 3.05004 -3.77091 0
M  V30 5195 H 471.598 3.70949 -2.73712 0
M  V30 5196 H 475.142 3.27141 -6.16137 0
M  V30 5197 H 471.039 3.93266 -5.11872 0
M  V30 5198 H 471.807 3.90328 -7.19435 0
M  V30 5199 N 474.47 1.03057 1.19235 0
M  V30 5200 C 475.418 0.606391 2.24557 0
M  V30 5201 C 476.412 -0.361826 1.65491 0
M  V30 5202 O 477.618 -0.23022 1.78522 0
M  V30 5203 H 473.993 0.177838 0.730669 0
M  V30 5204 H 475.964 1.50529 2.5765 0
M  V30 5205 C 474.713 -0.0252127 3.47691 0
M  V30 5206 H 474.036 0.710838 3.9343 0
M  V30 5207 H 475.476 -0.284931 4.23042 0
M  V30 5208 C 473.935 -1.27229 3.11953 0
M  V30 5209 O 474.465 -2.36416 3.24762 0
M  V30 5210 N 472.671 -1.16169 2.6637 0
M  V30 5211 H 472.218 -0.273189 2.56147 0
M  V30 5212 H 472.176 -1.99703 2.42829 0
M  V30 5213 N 475.948 -1.35272 0.808662 0
M  V30 5214 C 476.896 -2.31663 0.208606 0
M  V30 5215 C 477.89 -1.56731 -0.642778 0
M  V30 5216 O 479.096 -1.71843 -0.53571 0
M  V30 5217 H 475.471 -0.750421 0.0486993 0
M  V30 5218 H 477.442 -2.79814 1.03666 0
M  V30 5219 C 476.191 -3.42008 -0.626573 0
M  V30 5220 H 475.514 -3.99795 0.0192103 0
M  V30 5221 H 476.954 -4.11727 -1.01278 0
M  V30 5222 C 475.413 -2.85226 -1.79298 0
M  V30 5223 O 475.943 -2.78945 -2.89055 0
M  V30 5224 N 474.149 -2.42245 -1.60516 0
M  V30 5225 H 473.696 -2.47554 -0.712375 0
M  V30 5226 H 473.654 -2.04603 -2.38715 0
M  V30 5227 N 477.426 -0.562348 -1.47226 0
M  V30 5228 C 478.703 0.0256985 -1.95583 0
M  V30 5229 C 479.083 1.48032 -1.50498 0
M  V30 5230 O 478.431 2.15973 -0.746181 0
M  V30 5231 C 478.641 -0.125129 -3.48776 0
M  V30 5232 C 479.989 0.0175728 -4.24596 0
M  V30 5233 O 481.013 -0.0529341 -3.56161 0
M  V30 5234 O 479.872 0.170145 -5.46235 0
M  V30 5235 H 476.966 0.0612565 -0.824728 0
M  V30 5236 H 479.512 -0.629233 -1.57603 0
M  V30 5237 H 478.284 -1.13715 -3.74412 0
M  V30 5238 H 477.907 0.567178 -3.93534 0
M  V30 5239 N 478.904 1.54736 -0.299062 0
M  V30 5240 C 479.836 2.20891 0.61153 0
M  V30 5241 C 480.849 1.20104 1.09904 0
M  V30 5242 O 482.038 1.46707 1.01683 0
M  V30 5243 C 479.138 2.84018 1.84897 0
M  V30 5244 C 478.311 4.10719 1.50428 0
M  V30 5245 C 477.37 4.57667 2.59667 0
M  V30 5246 O 476.396 5.2291 2.24842 0
M  V30 5247 N 477.598 4.29821 3.90172 0
M  V30 5248 H 480.363 2.99666 0.0452001 0
M  V30 5249 H 477.924 1.61446 -0.121178 0
M  V30 5250 H 479.916 3.1236 2.5732 0
M  V30 5251 H 478.486 2.09095 2.32375 0
M  V30 5252 H 477.706 3.89408 0.612781 0
M  V30 5253 H 478.994 4.93223 1.24934 0
M  V30 5254 H 478.392 3.77549 4.21276 0
M  V30 5255 H 476.949 4.62877 4.58899 0
M  V30 5256 N 480.382 0.0267497 1.57577 0
M  V30 5257 C 481.628 -0.647596 1.92815 0
M  V30 5258 C 481.983 -1.69872 0.903396 0
M  V30 5259 O 481.276 -1.91429 -0.0808881 0
M  V30 5260 C 481.47 -1.30914 3.3256 0
M  V30 5261 C 481.299 -0.323621 4.48534 0
M  V30 5262 C 480.069 0.0756607 5.05243 0
M  V30 5263 C 482.267 0.42112 5.12573 0
M  V30 5264 N 480.249 1.0566 6.04739 0
M  V30 5265 C 481.62 1.25589 6.07147 0
M  V30 5266 C 483.675 0.482077 4.95561 0
M  V30 5267 C 482.378 2.1461 6.86538 0
M  V30 5268 C 484.404 1.35962 5.75559 0
M  V30 5269 C 483.766 2.18217 6.69747 0
M  V30 5270 H 479.865 -0.209357 0.753454 0
M  V30 5271 H 482.449 0.0933695 1.94476 0
M  V30 5272 H 480.62 -2.02026 3.31723 0
M  V30 5273 H 482.352 -1.94033 3.55153 0
M  V30 5274 H 479.107 -0.298294 4.7266 0
M  V30 5275 H 479.531 1.54324 6.59176 0
M  V30 5276 H 484.173 -0.139609 4.22569 0
M  V30 5277 H 481.891 2.77835 7.58837 0
M  V30 5278 H 485.477 1.41105 5.6443 0
M  V30 5279 H 484.357 2.85022 7.3057 0
M  V30 5280 N 481.861 -1.55662 -0.24637 0
M  V30 5281 C 483.089 -1.81575 -0.991876 0
M  V30 5282 C 483.504 -0.602545 -1.78927 0
M  V30 5283 O 482.861 0.428795 -1.77391 0
M  V30 5284 C 482.912 -3.05711 -1.92933 0
M  V30 5285 O 482.633 -4.22348 -1.1642 0
M  V30 5286 C 484.134 -3.44428 -2.79078 0
M  V30 5287 H 481.354 -0.604209 -0.291844 0
M  V30 5288 H 483.898 -2.02722 -0.269095 0
M  V30 5289 H 482.053 -2.86612 -2.60638 0
M  V30 5290 H 482.467 -4.92706 -1.79835 0
M  V30 5291 H 483.941 -4.34388 -3.40603 0
M  V30 5292 H 484.418 -2.65037 -3.50217 0
M  V30 5293 H 485.024 -3.65879 -2.16824 0
M  V30 5294 N 483.339 0.512053 -1.4905 0
M  V30 5295 C 484.269 1.62365 -1.67809 0
M  V30 5296 C 485.25 1.61737 -0.526809 0
M  V30 5297 O 486.435 1.78651 -0.761404 0
M  V30 5298 C 483.565 3.00895 -1.73435 0
M  V30 5299 C 482.519 3.16387 -2.88242 0
M  V30 5300 C 481.845 4.56157 -2.78971 0
M  V30 5301 C 483.145 2.97457 -4.29321 0
M  V30 5302 H 484.839 1.46921 -2.60873 0
M  V30 5303 H 482.385 0.705379 -1.2554 0
M  V30 5304 H 484.338 3.78549 -1.85145 0
M  V30 5305 H 483.062 3.17403 -0.769619 0
M  V30 5306 H 481.721 2.41155 -2.76116 0
M  V30 5307 H 481.369 4.69525 -1.8043 0
M  V30 5308 H 481.069 4.67465 -3.5602 0
M  V30 5309 H 482.593 5.35886 -2.92675 0
M  V30 5310 H 484.007 3.64888 -4.42187 0
M  V30 5311 H 482.404 3.20245 -5.07507 0
M  V30 5312 H 483.474 1.93692 -4.44535 0
M  V30 5313 N 484.817 1.37938 0.762283 0
M  V30 5314 C 486.066 1.32989 1.51647 0
M  V30 5315 C 486.379 -0.0802922 1.95435 0
M  V30 5316 O 487.585 -0.252295 2.70325 0
M  V30 5317 C 486.041 2.33485 2.73885 0
M  V30 5318 C 485.649 3.80079 2.37157 0
M  V30 5319 C 487.393 2.37563 3.51801 0
M  V30 5320 C 485.3 4.72283 3.55954 0
M  V30 5321 H 484.23 0.494301 0.56937 0
M  V30 5322 H 486.881 1.63448 0.834083 0
M  V30 5323 H 485.263 1.96056 3.44061 0
M  V30 5324 H 486.437 4.26398 1.74704 0
M  V30 5325 H 484.752 3.79037 1.72395 0
M  V30 5326 H 487.349 3.0365 4.40114 0
M  V30 5327 H 487.692 1.39199 3.92338 0
M  V30 5328 H 488.225 2.73747 2.8863 0
M  V30 5329 H 484.964 5.7181 3.2049 0
M  V30 5330 H 484.484 4.30663 4.1748 0
M  V30 5331 H 486.163 4.89876 4.22647 0
M  V30 5332 N 486.295 -0.989507 1.22664 0
M  V30 5333 C 487.542 -1.72953 1.05325 0
M  V30 5334 C 487.87 -1.90104 -0.411168 0
M  V30 5335 O 487.125 -1.44386 -1.32103 0
M  V30 5336 C 487.424 -3.13649 1.71345 0
M  V30 5337 C 487.09 -3.16403 3.21248 0
M  V30 5338 C 485.752 -3.16862 3.62149 0
M  V30 5339 C 488.104 -3.12428 4.17179 0
M  V30 5340 C 485.432 -3.11051 4.97458 0
M  V30 5341 C 487.784 -3.08159 5.52468 0
M  V30 5342 C 486.448 -3.06935 5.92746 0
M  V30 5343 H 485.718 -0.632881 0.385412 0
M  V30 5344 H 488.365 -1.15863 1.52473 0
M  V30 5345 H 486.67 -3.74069 1.16532 0
M  V30 5346 H 488.367 -3.69658 1.55416 0
M  V30 5347 H 484.957 -3.16798 2.88682 0
M  V30 5348 H 489.141 -3.11221 3.86595 0
M  V30 5349 H 484.397 -3.0845 5.27891 0
M  V30 5350 H 488.571 -3.04039 6.26525 0
M  V30 5351 H 486.198 -3.02186 6.97558 0
M  V30 5352 N 487.773 -1.03688 -1.18687 0
M  V30 5353 C 489.021 -0.736572 -1.88199 0
M  V30 5354 C 489.342 0.737665 -1.80509 0
M  V30 5355 O 488.612 1.53204 -1.22088 0
M  V30 5356 H 487.192 -0.269466 -0.696704 0
M  V30 5357 H 489.854 -1.31282 -1.44052 0
M  V30 5358 H 488.95 -1.03802 -2.94332 0
M  V30 5359 N 489.251 1.34841 -0.815825 0
M  V30 5360 C 490.528 1.92908 -0.323416 0
M  V30 5361 C 490.908 1.74479 1.18828 0
M  V30 5362 O 490.256 1.11928 1.99209 0
M  V30 5363 C 490.466 3.40957 -0.744952 0
M  V30 5364 C 491.814 4.18107 -0.739716 0
M  V30 5365 O 492.838 3.49511 -0.68708 0
M  V30 5366 O 491.697 5.40517 -0.806456 0
M  V30 5367 H 488.791 0.822436 -0.0867646 0
M  V30 5368 H 491.337 1.4386 -0.90014 0
M  V30 5369 H 490.109 3.4814 -1.78646 0
M  V30 5370 H 489.732 3.97341 -0.143535 0
M  V30 5371 N 490.729 0.570148 1.46925 0
M  V30 5372 C 492.14 0.1402 1.86173 0
M  V30 5373 C 492.491 -1.29347 1.47526 0
M  V30 5374 O 491.616 -1.97508 0.884292 0
M  V30 5375 C 492.211 0.247661 3.37894 0
M  V30 5376 C 490.77 -0.127332 3.76185 0
M  V30 5377 C 489.917 0.589349 2.70965 0
M  V30 5378 H 492.868 0.779117 1.38259 0
M  V30 5379 H 492.889 -0.530341 3.76786 0
M  V30 5380 H 492.401 1.29121 3.65991 0
M  V30 5381 H 490.502 -1.17149 3.53704 0
M  V30 5382 H 490.615 0.240238 4.78497 0
M  V30 5383 H 488.979 0.0309824 2.54681 0
M  V30 5384 H 489.762 1.6343 3.01903 0
M  V30 5385 N 492.207 -1.54576 0.307264 0
M  V30 5386 C 493.435 -2.04675 -0.302597 0
M  V30 5387 C 493.85 -1.18425 -1.47041 0
M  V30 5388 O 493.207 -0.211257 -1.81273 0
M  V30 5389 C 493.258 -3.53575 -0.752801 0
M  V30 5390 O 492.979 -4.36547 0.368536 0
M  V30 5391 C 494.48 -4.19699 -1.42717 0
M  V30 5392 H 491.7 -0.66786 -0.0648374 0
M  V30 5393 H 494.244 -1.99516 0.448716 0
M  V30 5394 H 492.399 -3.59074 -1.45412 0
M  V30 5395 H 492.813 -5.24497 0.0168937 0
M  V30 5396 H 494.287 -5.25388 -1.69327 0
M  V30 5397 H 494.764 -3.69815 -2.36925 0
M  V30 5398 H 495.37 -4.18293 -0.768856 0
M  V30 5399 N 493.685 -0.035106 -1.57561 0
M  V30 5400 C 494.632 0.94474 -2.10578 0
M  V30 5401 C 495.602 1.3192 -1.00927 0
M  V30 5402 O 496.787 1.41147 -1.28382 0
M  V30 5403 C 493.927 2.21982 -2.64231 0
M  V30 5404 C 493.04 1.90128 -3.87911 0
M  V30 5405 C 492.175 3.11975 -4.29936 0
M  V30 5406 C 491.214 2.75968 -5.46359 0
M  V30 5407 N 490.351 3.90459 -5.83512 0
M  V30 5408 H 495.191 0.485717 -2.94015 0
M  V30 5409 H 492.728 0.228143 -1.4532 0
M  V30 5410 H 494.686 2.96572 -2.9343 0
M  V30 5411 H 493.316 2.6549 -1.83616 0
M  V30 5412 H 492.368 1.05755 -3.65404 0
M  V30 5413 H 493.68 1.59613 -4.72573 0
M  V30 5414 H 492.834 3.9488 -4.60603 0
M  V30 5415 H 491.573 3.45657 -3.44053 0
M  V30 5416 H 490.578 1.91478 -5.1538 0
M  V30 5417 H 491.803 2.43497 -6.33945 0
M  V30 5418 H 489.749 4.23971 -5.00584 0
M  V30 5419 H 489.666 3.63588 -6.62827 0
M  V30 5420 H 490.934 4.7405 -6.18787 0
M  V30 5421 N 495.163 1.55791 0.238111 0
M  V30 5422 C 496.41 1.78033 0.964907 0
M  V30 5423 C 496.738 0.600984 1.84982 0
M  V30 5424 O 495.993 -0.41536 1.91241 0
M  V30 5425 C 496.292 3.05869 1.84875 0
M  V30 5426 C 495.958 4.36808 1.11846 0
M  V30 5427 C 494.62 4.72388 0.916662 0
M  V30 5428 C 496.972 5.17717 0.60151 0
M  V30 5429 C 494.3 5.86406 0.185756 0
M  V30 5430 C 496.652 6.32494 -0.115972 0
M  V30 5431 C 495.316 6.66688 -0.329168 0
M  V30 5432 H 494.586 0.651469 0.353085 0
M  V30 5433 H 497.233 1.90061 0.234318 0
M  V30 5434 H 495.538 2.88891 2.64668 0
M  V30 5435 H 497.235 3.20278 2.41294 0
M  V30 5436 H 493.825 4.08862 1.28569 0
M  V30 5437 H 498.009 4.90678 0.744932 0
M  V30 5438 H 493.265 6.11399 0.0101886 0
M  V30 5439 H 497.439 6.94425 -0.524127 0
M  V30 5440 H 495.066 7.54884 -0.897474 0
M  V30 5441 N 496.642 -0.504142 1.49319 0
M  V30 5442 C 497.89 -1.25598 1.58334 0
M  V30 5443 C 498.211 -1.93114 0.270538 0
M  V30 5444 O 497.481 -1.82585 -0.709891 0
M  V30 5445 H 496.061 -0.466571 0.58337 0
M  V30 5446 H 498.723 -0.584547 1.85928 0
M  V30 5447 H 497.819 -2.02159 2.37778 0
M  V30 5448 N 498.12 -1.38341 -0.754957 0
M  V30 5449 C 499.05 -1.38176 -1.88227 0
M  V30 5450 C 500.031 -0.247873 -1.68284 0
M  V30 5451 O 501.216 -0.45075 -1.88896 0
M  V30 5452 C 498.346 -1.20471 -3.25736 0
M  V30 5453 C 497.3 -2.3105 -3.60278 0
M  V30 5454 C 496.626 -1.98452 -4.96509 0
M  V30 5455 C 497.926 -3.73305 -3.65295 0
M  V30 5456 H 499.62 -2.32512 -1.88622 0
M  V30 5457 H 497.166 -1.1192 -0.906082 0
M  V30 5458 H 499.119 -1.18982 -4.04254 0
M  V30 5459 H 497.843 -0.225965 -3.25817 0
M  V30 5460 H 496.502 -2.31723 -2.84078 0
M  V30 5461 H 496.15 -0.990641 -4.93148 0
M  V30 5462 H 495.85 -2.7251 -5.20588 0
M  V30 5463 H 497.374 -1.98578 -5.77407 0
M  V30 5464 H 498.788 -3.7467 -4.3393 0
M  V30 5465 H 497.185 -4.46557 -4.00883 0
M  V30 5466 H 498.255 -4.05719 -2.65556 0
M  V30 5467 N 499.598 0.982988 -1.23187 0
M  V30 5468 C 500.846 1.72052 -1.06031 0
M  V30 5469 C 501.167 1.90769 0.404019 0
M  V30 5470 O 500.437 1.47446 1.28982 0
M  V30 5471 H 499.017 0.637499 -0.389363 0
M  V30 5472 H 501.679 1.18338 -1.54862 0
M  V30 5473 H 500.775 2.7111 -1.54615 0
M  V30 5474 N 501.076 1.04316 1.18135 0
M  V30 5475 C 502.322 0.749128 1.88457 0
M  V30 5476 C 502.655 -0.72149 1.803 0
M  V30 5477 O 501.93 -1.52676 1.205 0
M  V30 5478 C 502.213 1.21905 3.38838 0
M  V30 5479 C 502.066 2.75195 3.55792 0
M  V30 5480 C 503.385 0.811085 4.32561 0
M  V30 5481 H 500.504 0.273611 0.684329 0
M  V30 5482 H 503.146 1.29561 1.38975 0
M  V30 5483 H 501.296 0.754137 3.8111 0
M  V30 5484 H 502.968 3.29743 3.22595 0
M  V30 5485 H 501.211 3.14899 2.98364 0
M  V30 5486 H 501.882 3.03135 4.61317 0
M  V30 5487 H 504.358 1.21118 3.98082 0
M  V30 5488 H 503.234 1.16761 5.36338 0
M  V30 5489 H 503.495 -0.285596 4.41177 0
M  V30 5490 N 502.554 -1.34406 0.822964 0
M  V30 5491 C 503.801 -1.98284 0.411057 0
M  V30 5492 C 504.129 -1.65245 -1.02588 0
M  V30 5493 O 503.384 -0.91619 -1.72929 0
M  V30 5494 C 503.683 -3.52981 0.560268 0
M  V30 5495 C 503.349 -4.05931 1.96293 0
M  V30 5496 C 502.011 -4.20103 2.34664 0
M  V30 5497 C 504.363 -4.34412 2.87985 0
M  V30 5498 C 501.691 -4.60082 3.64062 0
M  V30 5499 C 504.043 -4.75838 4.16847 0
M  V30 5500 C 502.707 -4.88215 4.55195 0
M  V30 5501 H 501.977 -0.725573 0.150416 0
M  V30 5502 H 504.624 -1.60349 1.04692 0
M  V30 5503 H 502.929 -3.91477 -0.158982 0
M  V30 5504 H 504.626 -4.00385 0.222087 0
M  V30 5505 H 501.216 -3.95363 1.65487 0
M  V30 5506 H 505.4 -4.23001 2.59584 0
M  V30 5507 H 500.656 -4.67856 3.93599 0
M  V30 5508 H 504.83 -4.96834 4.87984 0
M  V30 5509 H 502.457 -5.18952 5.55512 0
M  V30 5510 N 504.032 -0.577932 -1.46621 0
M  V30 5511 C 505.257 -0.0652536 -2.07297 0
M  V30 5512 C 505.682 1.22828 -1.4246 0
M  V30 5513 O 505.04 1.74075 -0.506718 0
M  V30 5514 C 505.088 0.0920589 -3.60482 0
M  V30 5515 O 504.192 1.14972 -3.96049 0
M  V30 5516 H 503.533 -0.06065 -0.661224 0
M  V30 5517 H 506.063 -0.799515 -1.88332 0
M  V30 5518 H 506.073 0.299741 -4.06897 0
M  V30 5519 H 504.748 -0.852612 -4.07067 0
M  V30 5520 H 503.325 0.920879 -3.61351 0
M  V30 5521 N 505.51 1.54411 -0.315457 0
M  V30 5522 C 506.759 1.99599 0.290395 0
M  V30 5523 C 507.072 1.20746 1.53882 0
M  V30 5524 O 508.278 1.56272 2.22017 0
M  V30 5525 C 506.734 3.5539 0.56797 0
M  V30 5526 C 506.342 4.43068 -0.662945 0
M  V30 5527 C 508.086 4.09067 1.13422 0
M  V30 5528 C 505.993 5.90317 -0.357722 0
M  V30 5529 H 504.923 0.745592 0.112286 0
M  V30 5530 H 507.574 1.78477 -0.426418 0
M  V30 5531 H 505.956 3.72468 1.34476 0
M  V30 5532 H 507.13 4.37765 -1.43869 0
M  V30 5533 H 505.445 4.00238 -1.14884 0
M  V30 5534 H 508.042 5.16663 1.37707 0
M  V30 5535 H 508.385 3.60552 2.08106 0
M  V30 5536 H 508.918 3.95589 0.418805 0
M  V30 5537 H 505.657 6.4301 -1.27351 0
M  V30 5538 H 505.177 5.98592 0.380472 0
M  V30 5539 H 506.856 6.4699 0.0354284 0
M  V30 5540 N 506.988 0.0434614 1.5754 0
M  V30 5541 C 508.234 -0.632971 1.92669 0
M  V30 5542 C 508.567 -1.70947 0.921446 0
M  V30 5543 O 507.842 -1.94426 -0.0537202 0
M  V30 5544 C 508.125 -1.23619 3.38216 0
M  V30 5545 C 507.978 -0.168274 4.49485 0
M  V30 5546 C 509.297 -2.15008 3.84005 0
M  V30 5547 H 506.416 -0.228629 0.700641 0
M  V30 5548 H 509.058 0.103651 1.89717 0
M  V30 5549 H 507.208 -1.864 3.40863 0
M  V30 5550 H 508.88 0.463196 4.58969 0
M  V30 5551 H 507.123 0.504581 4.30855 0
M  V30 5552 H 507.794 -0.630218 5.48391 0
M  V30 5553 H 510.27 -1.62198 3.83185 0
M  V30 5554 H 509.146 -2.54161 4.86511 0
M  V30 5555 H 509.407 -3.04707 3.20322 0
M  V30 5556 N 508.466 -1.55915 -0.229846 0
M  V30 5557 C 509.713 -1.78542 -0.955452 0
M  V30 5558 C 510.041 -0.610785 -1.84661 0
M  V30 5559 O 509.296 0.405213 -1.91459 0
M  V30 5560 C 509.595 -3.06845 -1.8325 0
M  V30 5561 C 509.261 -4.37395 -1.09528 0
M  V30 5562 C 507.923 -4.72868 -0.891598 0
M  V30 5563 C 510.275 -5.18029 -0.574046 0
M  V30 5564 C 507.603 -5.86496 -0.154655 0
M  V30 5565 C 509.955 -6.32423 0.149513 0
M  V30 5566 C 508.619 -6.66504 0.364519 0
M  V30 5567 H 507.889 -0.653333 -0.349625 0
M  V30 5568 H 510.536 -1.90183 -0.224235 0
M  V30 5569 H 508.841 -2.90291 -2.63132 0
M  V30 5570 H 510.538 -3.21553 -2.39592 0
M  V30 5571 H 507.128 -4.09538 -1.26399 0
M  V30 5572 H 511.312 -4.91066 -0.718899 0
M  V30 5573 H 506.568 -6.11396 0.0222356 0
M  V30 5574 H 510.742 -6.94137 0.560947 0
M  V30 5575 H 508.369 -7.54397 0.937495 0
M  V30 5576 N 509.944 0.496216 -1.49584 0
M  V30 5577 C 511.221 1.25755 -1.49816 0
M  V30 5578 C 511.601 2.09859 -0.228572 0
M  V30 5579 O 510.949 2.14449 0.788908 0
M  V30 5580 C 511.159 2.11017 -2.7798 0
M  V30 5581 C 512.507 2.70047 -3.27658 0
M  V30 5582 O 513.531 2.21281 -2.79129 0
M  V30 5583 O 512.39 3.58834 -4.1219 0
M  V30 5584 H 509.484 0.569322 -0.599834 0
M  V30 5585 H 512.03 0.510094 -1.61852 0
M  V30 5586 H 510.802 1.48879 -3.61871 0
M  V30 5587 H 510.425 2.92947 -2.68827 0
M  V30 5588 N 511.423 1.38739 0.74761 0
M  V30 5589 C 512.669 1.35475 1.50912 0
M  V30 5590 C 513.002 -0.0533093 1.94127 0
M  V30 5591 O 512.277 -1.01572 1.65871 0
M  V30 5592 C 512.56 2.31582 2.75757 0
M  V30 5593 C 512.413 3.81274 2.38642 0
M  V30 5594 C 513.732 2.25722 3.77806 0
M  V30 5595 H 510.851 0.493427 0.547447 0
M  V30 5596 H 513.493 1.69634 0.855823 0
M  V30 5597 H 511.643 2.02582 3.31501 0
M  V30 5598 H 513.315 4.20972 1.88626 0
M  V30 5599 H 511.558 3.98664 1.71025 0
M  V30 5600 H 512.229 4.4399 3.27989 0
M  V30 5601 H 514.705 2.51336 3.31616 0
M  V30 5602 H 513.581 2.95069 4.62845 0
M  V30 5603 H 513.842 1.25803 4.23823 0
M  V30 5604 N 512.901 -0.976442 1.23707 0
M  V30 5605 C 514.147 -1.72081 1.07312 0
M  V30 5606 C 514.48 -1.90275 -0.388476 0
M  V30 5607 O 513.755 -1.4579 -1.28746 0
M  V30 5608 C 514.038 -3.11675 1.80363 0
M  V30 5609 C 513.891 -3.01027 3.3422 0
M  V30 5610 C 515.21 -4.1117 1.5693 0
M  V30 5611 H 512.329 -0.624583 0.391236 0
M  V30 5612 H 514.971 -1.13649 1.52263 0
M  V30 5613 H 513.121 -3.61559 1.42153 0
M  V30 5614 H 514.793 -2.58637 3.81975 0
M  V30 5615 H 513.036 -2.3744 3.63049 0
M  V30 5616 H 513.707 -3.9988 3.80525 0
M  V30 5617 H 516.183 -3.7011 1.90151 0
M  V30 5618 H 515.059 -5.06928 2.10513 0
M  V30 5619 H 515.32 -4.392 0.505548 0
M  V30 5620 N 514.379 -1.04941 -1.1758 0
M  V30 5621 C 515.626 -0.757989 -1.87779 0
M  V30 5622 C 515.954 0.714827 -1.80888 0
M  V30 5623 O 515.209 1.53824 -1.20982 0
M  V30 5624 C 515.508 -1.18062 -3.37337 0
M  V30 5625 C 515.174 -2.65521 -3.6443 0
M  V30 5626 C 513.836 -3.05804 -3.71534 0
M  V30 5627 C 516.188 -3.60822 -3.76108 0
M  V30 5628 C 513.516 -4.40256 -3.87803 0
M  V30 5629 C 515.868 -4.95005 -3.93895 0
M  V30 5630 C 514.532 -5.34945 -3.99237 0
M  V30 5631 H 513.802 -0.277368 -0.68713 0
M  V30 5632 H 516.449 -1.31603 -1.39115 0
M  V30 5633 H 514.754 -0.541525 -3.8804 0
M  V30 5634 H 516.451 -0.932368 -3.9001 0
M  V30 5635 H 513.041 -2.33324 -3.59524 0
M  V30 5636 H 517.225 -3.30841 -3.69943 0
M  V30 5637 H 512.481 -4.70707 -3.90186 0
M  V30 5638 H 516.655 -5.68746 -4.01872 0
M  V30 5639 H 514.282 -6.39135 -4.11596 0
M  V30 5640 N 515.857 1.33968 -0.830081 0
M  V30 5641 C 517.104 1.98063 -0.421566 0
M  V30 5642 C 517.432 1.65787 1.0171 0
M  V30 5643 O 516.687 0.925348 1.72441 0
M  V30 5644 C 516.986 3.52679 -0.57898 0
M  V30 5645 C 516.652 4.04884 -1.98443 0
M  V30 5646 C 515.314 4.18852 -2.36888 0
M  V30 5647 C 517.666 4.32879 -2.90285 0
M  V30 5648 C 514.994 4.58145 -3.66497 0
M  V30 5649 C 517.346 4.7362 -4.19364 0
M  V30 5650 C 516.01 4.85794 -4.57778 0
M  V30 5651 H 515.28 0.724765 -0.154262 0
M  V30 5652 H 517.927 1.59792 -1.05541 0
M  V30 5653 H 516.232 3.91556 0.138219 0
M  V30 5654 H 517.929 4.00261 -0.243317 0
M  V30 5655 H 514.519 3.9448 -1.67581 0
M  V30 5656 H 518.703 4.21619 -2.61823 0
M  V30 5657 H 513.959 4.65762 -3.96075 0
M  V30 5658 H 518.133 4.9424 -4.90612 0
M  V30 5659 H 515.76 5.15998 -5.58256 0
M  V30 5660 N 517.335 0.585699 1.46312 0
M  V30 5661 C 518.584 0.0701192 2.01578 0
M  V30 5662 C 518.897 -1.29889 1.46247 0
M  V30 5663 O 520.103 -1.90598 1.93351 0
M  V30 5664 C 518.559 0.0747499 3.59822 0
M  V30 5665 C 518.167 1.44226 4.24149 0
M  V30 5666 C 519.911 -0.38673 4.22735 0
M  V30 5667 C 517.818 1.40446 5.74481 0
M  V30 5668 H 516.748 0.0224441 0.753666 0
M  V30 5669 H 519.399 0.737789 1.68015 0
M  V30 5670 H 517.781 -0.659144 3.90476 0
M  V30 5671 H 518.955 2.19612 4.05101 0
M  V30 5672 H 517.27 1.84401 3.73343 0
M  V30 5673 H 519.867 -0.433853 5.32937 0
M  V30 5674 H 520.21 -1.40489 3.91878 0
M  V30 5675 H 520.743 0.293195 3.96718 0
M  V30 5676 H 517.482 2.39952 6.10003 0
M  V30 5677 H 517.002 0.692845 5.95785 0
M  V30 5678 H 518.681 1.11865 6.37256 0
M  V30 5679 N 518.813 -1.54241 0.323641 0
M  V30 5680 C 519.745 -2.21836 -0.576311 0
M  V30 5681 C 520.758 -1.21837 -1.07979 0
M  V30 5682 O 521.947 -1.48306 -0.99336 0
M  V30 5683 C 519.047 -2.86923 -1.80356 0
M  V30 5684 C 518.22 -4.1306 -1.43875 0
M  V30 5685 C 517.279 -4.6174 -2.52353 0
M  V30 5686 O 516.305 -5.26421 -2.16494 0
M  V30 5687 N 517.507 -4.35974 -3.83284 0
M  V30 5688 H 520.272 -2.997 0.00247987 0
M  V30 5689 H 517.833 -1.61233 0.146848 0
M  V30 5690 H 519.825 -3.16414 -2.52318 0
M  V30 5691 H 518.395 -2.12765 -2.29019 0
M  V30 5692 H 517.615 -3.90334 -0.550752 0
M  V30 5693 H 518.903 -4.95148 -1.17071 0
M  V30 5694 H 518.301 -3.84203 -4.15216 0
M  V30 5695 H 516.858 -4.70119 -4.51477 0
M  V30 5696 N 520.291 -0.0518155 -1.57515 0
M  V30 5697 C 521.241 0.932017 -2.0808 0
M  V30 5698 C 522.225 1.27141 -0.986098 0
M  V30 5699 O 523.417 1.25373 -1.24943 0
M  V30 5700 C 520.546 2.20665 -2.62986 0
M  V30 5701 C 519.632 1.89462 -3.79427 0
M  V30 5702 N 520.023 1.28621 -4.89173 0
M  V30 5703 C 518.321 2.19327 -3.88345 0
M  V30 5704 C 519.022 1.15062 -5.70207 0
M  V30 5705 N 517.998 1.65372 -5.17835 0
M  V30 5706 H 521.8 0.456964 -2.90326 0
M  V30 5707 H 519.314 0.152619 -1.61681 0
M  V30 5708 H 521.311 2.92044 -2.97516 0
M  V30 5709 H 519.971 2.68776 -1.8218 0
M  V30 5710 H 520.982 0.958341 -5.08956 0
M  V30 5711 H 517.659 2.69955 -3.18482 0
M  V30 5712 H 519.049 0.678243 -6.68468 0
M  V30 5713 N 521.769 1.56035 0.221574 0
M  V30 5714 C 523.016 1.79047 0.94597 0
M  V30 5715 C 523.344 0.62057 1.84334 0
M  V30 5716 O 522.599 -0.395053 1.91671 0
M  V30 5717 C 522.898 3.07813 1.8162 0
M  V30 5718 C 522.564 4.3797 1.07206 0
M  V30 5719 C 521.226 4.73334 0.866508 0
M  V30 5720 C 523.578 5.18326 0.546565 0
M  V30 5721 C 520.906 5.8657 0.123549 0
M  V30 5722 C 523.258 6.32335 -0.18305 0
M  V30 5723 C 521.922 6.66301 -0.399861 0
M  V30 5724 H 521.192 0.655178 0.346155 0
M  V30 5725 H 523.839 1.90299 0.214146 0
M  V30 5726 H 522.144 2.91682 2.61589 0
M  V30 5727 H 523.841 3.2282 2.37884 0
M  V30 5728 H 520.431 4.10202 1.24226 0
M  V30 5729 H 524.615 4.9144 0.692847 0
M  V30 5730 H 519.871 6.11376 -0.0546591 0
M  V30 5731 H 524.045 6.9383 -0.59775 0
M  V30 5732 H 521.672 7.53889 -0.977489 0
M  V30 5733 N 523.247 -0.488276 1.49845 0
M  V30 5734 C 524.487 -1.2516 1.61599 0
M  V30 5735 C 524.851 -1.89615 0.301706 0
M  V30 5736 O 526.052 -2.67182 0.29453 0
M  V30 5737 C 524.323 -2.2805 2.75187 0
M  V30 5738 S 525.882 -3.13552 3.0697 0
M  V30 5739 H 522.7 -0.425178 0.569864 0
M  V30 5740 H 525.302 -0.551545 1.87559 0
M  V30 5741 H 524.006 -1.7925 3.69185 0
M  V30 5742 H 523.537 -3.02708 2.5126 0
M  V30 5743 H 525.552 -4.28927 2.49471 0
M  V30 5744 N 524.725 -1.39134 -0.740242 0
M  V30 5745 C 525.655 -1.40165 -1.86751 0
M  V30 5746 C 526.636 -0.265708 -1.68012 0
M  V30 5747 O 527.821 -0.47076 -1.88408 0
M  V30 5748 C 524.951 -1.2392 -3.2444 0
M  V30 5749 C 523.905 -2.34858 -3.57807 0
M  V30 5750 C 523.231 -2.03707 -4.94376 0
M  V30 5751 C 524.531 -3.77159 -3.61315 0
M  V30 5752 H 526.225 -2.345 -1.86145 0
M  V30 5753 H 523.771 -1.12875 -0.89416 0
M  V30 5754 H 525.724 -1.23263 -4.02969 0
M  V30 5755 H 524.448 -0.26051 -3.25559 0
M  V30 5756 H 523.107 -2.34723 -2.81604 0
M  V30 5757 H 522.755 -1.04289 -4.9207 0
M  V30 5758 H 522.455 -2.78016 -5.17669 0
M  V30 5759 H 523.979 -2.04691 -5.75268 0
M  V30 5760 H 525.393 -3.79252 -4.29931 0
M  V30 5761 H 523.79 -4.50784 -3.96124 0
M  V30 5762 H 524.86 -4.08513 -2.61238 0
M  V30 5763 N 526.204 0.969867 -1.24223 0
M  V30 5764 C 527.434 1.74502 -1.106 0
M  V30 5765 C 527.842 1.86038 0.344483 0
M  V30 5766 O 527.185 1.3465 1.24961 0
M  V30 5767 C 527.247 3.18391 -1.66935 0
M  V30 5768 C 526.911 3.30334 -3.15798 0
M  V30 5769 C 527.908 3.15832 -4.12973 0
M  V30 5770 C 525.593 3.54644 -3.55715 0
M  V30 5771 C 527.587 3.25461 -5.48045 0
M  V30 5772 C 525.274 3.63912 -4.90929 0
M  V30 5773 C 526.272 3.49332 -5.86904 0
M  V30 5774 O 525.96 3.58251 -7.1966 0
M  V30 5775 H 525.692 0.554119 -0.387206 0
M  V30 5776 H 528.246 1.22646 -1.64764 0
M  V30 5777 H 526.476 3.71543 -1.07203 0
M  V30 5778 H 528.165 3.77707 -1.48634 0
M  V30 5779 H 528.931 2.96937 -3.83476 0
M  V30 5780 H 524.81 3.65059 -2.81519 0
M  V30 5781 H 528.354 3.13998 -6.22937 0
M  V30 5782 H 524.251 3.82319 -5.20098 0
M  V30 5783 H 525.019 3.7498 -7.27552 0
M  V30 5784 N 527.682 1.05563 1.17022 0
M  V30 5785 C 529.098 0.777684 1.39371 0
M  V30 5786 C 529.298 -0.626269 1.91521 0
M  V30 5787 O 528.354 -1.38806 2.10924 0
M  V30 5788 C 529.667 1.83642 2.3811 0
M  V30 5789 C 531.215 1.85907 2.51809 0
M  V30 5790 C 531.69 2.90813 3.53824 0
M  V30 5791 N 533.181 2.898 3.61345 0
M  V30 5792 C 533.916 3.6762 4.40049 0
M  V30 5793 N 533.412 4.55237 5.22237 0
M  V30 5794 N 535.205 3.56044 4.34959 0
M  V30 5795 H 527.356 1.9614 0.815047 0
M  V30 5796 H 529.619 0.849527 0.420722 0
M  V30 5797 H 529.325 2.84425 2.06871 0
M  V30 5798 H 529.199 1.6812 3.37662 0
M  V30 5799 H 531.586 0.857865 2.82356 0
M  V30 5800 H 531.667 2.05506 1.52318 0
M  V30 5801 H 531.311 3.91122 3.24015 0
M  V30 5802 H 531.241 2.68465 4.53028 0
M  V30 5803 H 533.732 2.26274 3.02669 0
M  V30 5804 H 534.045 5.11291 5.79484 0
M  V30 5805 H 532.39 4.59296 5.21605 0
M  V30 5806 H 535.581 2.86986 3.69806 0
M  V30 5807 H 535.754 4.16938 4.96051 0
M  V30 5808 N 529.16 -1.33526 0.837174 0
M  V30 5809 C 530.107 -2.29248 0.267169 0
M  V30 5810 C 531.077 -1.54252 -0.616071 0
M  V30 5811 O 532.262 -1.82559 -0.554699 0
M  V30 5812 C 529.402 -3.40638 -0.553152 0
M  V30 5813 C 528.515 -4.30548 0.353921 0
M  V30 5814 C 527.65 -5.29051 -0.477339 0
M  V30 5815 C 526.689 -6.106 0.42823 0
M  V30 5816 N 525.826 -7.01152 -0.364801 0
M  V30 5817 H 530.666 -2.77398 1.08877 0
M  V30 5818 H 528.203 -1.36496 0.54838 0
M  V30 5819 H 530.161 -4.03921 -1.04422 0
M  V30 5820 H 528.791 -2.93685 -1.33973 0
M  V30 5821 H 527.843 -3.68001 0.963289 0
M  V30 5822 H 529.155 -4.87631 1.04964 0
M  V30 5823 H 528.309 -5.97853 -1.0323 0
M  V30 5824 H 527.048 -4.72541 -1.2065 0
M  V30 5825 H 526.053 -5.40718 0.995219 0
M  V30 5826 H 527.278 -6.69193 1.15573 0
M  V30 5827 H 525.224 -6.47092 -1.07738 0
M  V30 5828 H 525.141 -7.5551 0.272238 0
M  V30 5829 H 526.409 -7.74263 -0.902054 0
M  V30 5830 N 530.638 -0.59345 -1.46 0
M  V30 5831 C 532.054 -0.255965 -1.57534 0
M  V30 5832 C 532.254 1.24167 -1.58697 0
M  V30 5833 O 531.31 2.02398 -1.50968 0
M  V30 5834 C 532.623 -0.91466 -2.86451 0
M  V30 5835 C 534.171 -0.889253 -3.00102 0
M  V30 5836 C 534.646 -1.52769 -4.3177 0
M  V30 5837 N 536.137 -1.49253 -4.38495 0
M  V30 5838 C 536.872 -1.9558 -5.39014 0
M  V30 5839 N 536.368 -2.49929 -6.46148 0
M  V30 5840 N 538.161 -1.86432 -5.30282 0
M  V30 5841 H 530.312 -1.56604 -1.43489 0
M  V30 5842 H 532.575 -0.655207 -0.685133 0
M  V30 5843 H 532.281 -1.96861 -2.91442 0
M  V30 5844 H 532.155 -0.429356 -3.74748 0
M  V30 5845 H 534.542 0.156111 -2.94687 0
M  V30 5846 H 534.623 -1.41268 -2.13253 0
M  V30 5847 H 534.267 -2.57231 -4.37944 0
M  V30 5848 H 534.197 -0.979398 -5.17412 0
M  V30 5849 H 536.688 -1.09536 -3.61677 0
M  V30 5850 H 537.001 -2.83109 -7.19075 0
M  V30 5851 H 535.346 -2.53961 -6.46938 0
M  V30 5852 H 538.537 -1.43722 -4.4549 0
M  V30 5853 H 538.71 -2.22852 -6.08474 0
M  V30 5854 N 532.116 1.54067 -0.331816 0
M  V30 5855 C 533.527 1.86059 0.15454 0
M  V30 5856 C 533.878 1.25331 1.50952 0
M  V30 5857 O 533.003 0.562441 2.08963 0
M  V30 5858 C 533.598 3.37581 0.287192 0
M  V30 5859 C 532.157 3.69493 0.717773 0
M  V30 5860 C 531.304 2.76863 -0.155569 0
M  V30 5861 H 534.255 1.48797 -0.55182 0
M  V30 5862 H 534.276 3.63744 1.11671 0
M  V30 5863 H 533.788 3.81751 -0.699131 0
M  V30 5864 H 531.889 3.3086 1.71354 0
M  V30 5865 H 532.002 4.76315 0.5158 0
M  V30 5866 H 530.366 2.51995 0.370213 0
M  V30 5867 H 531.149 3.23861 -1.13881 0
M  V30 5868 N 533.594 0.0601682 1.57485 0
M  V30 5869 C 534.842 -0.610386 1.92662 0
M  V30 5870 C 535.163 -1.70849 0.939981 0
M  V30 5871 O 534.433 -1.95895 -0.0137455 0
M  V30 5872 H 533.013 -0.228457 0.711208 0
M  V30 5873 H 535.675 0.115288 1.94559 0
M  V30 5874 H 534.771 -1.0432 2.94149 0
M  V30 5875 N 535.072 -1.5615 -0.213296 0
M  V30 5876 C 536.302 -1.83372 -0.951757 0
M  V30 5877 C 536.71 -0.638158 -1.78113 0
M  V30 5878 O 536.053 0.402609 -1.79234 0
M  V30 5879 C 536.115 -3.04444 -1.91192 0
M  V30 5880 C 535.779 -4.39107 -1.26627 0
M  V30 5881 C 536.776 -5.15794 -0.652087 0
M  V30 5882 C 534.461 -4.85834 -1.27556 0
M  V30 5883 C 536.455 -6.37376 -0.055814 0
M  V30 5884 C 534.142 -6.07356 -0.675451 0
M  V30 5885 C 535.14 -6.82967 -0.0666367 0
M  V30 5886 O 534.828 -8.0219 0.524119 0
M  V30 5887 H 534.56 -0.613398 -0.284111 0
M  V30 5888 H 537.114 -2.04096 -0.231112 0
M  V30 5889 H 535.344 -2.79559 -2.67178 0
M  V30 5890 H 537.033 -3.18466 -2.51662 0
M  V30 5891 H 537.799 -4.80796 -0.637172 0
M  V30 5892 H 533.678 -4.26949 -1.73883 0
M  V30 5893 H 537.222 -6.96334 0.420004 0
M  V30 5894 H 533.119 -6.41825 -0.687806 0
M  V30 5895 H 533.887 -8.17426 0.419243 0
M  V30 5896 N 536.55 0.480323 -1.50102 0
M  V30 5897 C 537.827 1.24159 -1.51142 0
M  V30 5898 C 538.207 2.09605 -0.250818 0
M  V30 5899 O 537.555 2.15274 0.766118 0
M  V30 5900 C 537.765 2.08057 -2.80202 0
M  V30 5901 C 539.113 2.66556 -3.30504 0
M  V30 5902 O 540.137 2.18308 -2.81461 0
M  V30 5903 O 538.996 3.54442 -4.15973 0
M  V30 5904 H 536.09 0.562928 -0.605839 0
M  V30 5905 H 538.636 0.492899 -1.62384 0
M  V30 5906 H 537.408 1.45032 -3.6343 0
M  V30 5907 H 537.031 2.90079 -2.71919 0
M  V30 5908 N 538.028 1.39524 0.732853 0
M  V30 5909 C 538.96 1.34318 1.85718 0
M  V30 5910 C 539.973 0.251576 1.60844 0
M  V30 5911 O 541.162 0.510685 1.71039 0
M  V30 5912 C 538.262 1.06334 3.21786 0
M  V30 5913 C 537.435 2.26813 3.73998 0
M  V30 5914 C 536.494 1.95253 4.88634 0
M  V30 5915 O 535.52 2.67957 5.02183 0
M  V30 5916 N 536.722 0.919984 5.73164 0
M  V30 5917 H 539.487 2.3121 1.90688 0
M  V30 5918 H 537.048 1.33654 0.91368 0
M  V30 5919 H 539.04 0.832363 3.96048 0
M  V30 5920 H 537.61 0.181682 3.12072 0
M  V30 5921 H 536.83 2.65849 2.91064 0
M  V30 5922 H 538.118 3.0717 4.05616 0
M  V30 5923 H 537.516 0.317487 5.64808 0
M  V30 5924 H 536.073 0.748905 6.47483 0
M  V30 5925 N 539.506 -0.963266 1.24736 0
M  V30 5926 C 540.436 -2.07628 1.06832 0
M  V30 5927 C 541.417 -1.70088 -0.0200566 0
M  V30 5928 O 542.602 -1.93636 0.147854 0
M  V30 5929 C 539.732 -3.40636 0.677069 0
M  V30 5930 C 538.686 -3.9215 1.71471 0
M  V30 5931 C 538.012 -5.21553 1.1784 0
M  V30 5932 C 539.312 -4.19493 3.11164 0
M  V30 5933 H 541.006 -2.22864 1.9993 0
M  V30 5934 H 538.552 -1.07093 0.96266 0
M  V30 5935 H 540.505 -4.17941 0.538792 0
M  V30 5936 H 539.229 -3.25313 -0.289612 0
M  V30 5937 H 537.888 -3.17005 1.84128 0
M  V30 5938 H 537.536 -5.02593 0.202195 0
M  V30 5939 H 537.236 -5.56988 1.87185 0
M  V30 5940 H 538.76 -6.01463 1.05233 0
M  V30 5941 H 540.174 -4.87487 3.01711 0
M  V30 5942 H 538.571 -4.66165 3.77902 0
M  V30 5943 H 539.641 -3.26097 3.58871 0
M  V30 5944 N 540.985 -1.06182 -1.16461 0
M  V30 5945 C 541.933 -0.665716 -2.2287 0
M  V30 5946 C 542.927 0.317822 -1.66392 0
M  V30 5947 O 544.133 0.182807 -1.79069 0
M  V30 5948 H 540.508 -0.197148 -0.725697 0
M  V30 5949 H 542.479 -1.57307 -2.53569 0
M  V30 5950 C 541.228 -0.0669803 -3.47635 0
M  V30 5951 H 540.551 -0.814899 -3.91407 0
M  V30 5952 H 541.991 0.172669 -4.23648 0
M  V30 5953 C 540.45 1.18913 -3.15216 0
M  V30 5954 O 540.98 2.27723 -3.30916 0
M  V30 5955 N 539.186 1.09066 -2.69357 0
M  V30 5956 H 538.733 0.20518 -2.56782 0
M  V30 5957 H 538.691 1.93195 -2.48039 0
M  V30 5958 O 542.502 1.28464 -0.97874 0
M  V30 5959 H 543.193 1.83432 -0.622284 0
M  V30 END ATOM
M  V30 BEGIN BOND
M  V30 END BOND
M  V30 END CTAB
M  END
$$$$
