drugbank_target|O66145 Methylaspartate ammonia-lyase (DB04538)
 OpenBabel12092120303D

  0  0  0     0  0            999 V3000
M  V30 BEGIN CTAB
M  V30 COUNTS 6366 6432 0 0 0
M  V30 BEGIN ATOM
M  V30 1 H -0.908 1.98254 -0.117106 0
M  V30 2 N 0 1.576 0 0
M  V30 3 C 0.933 2.03868 1.02534 0
M  V30 4 C 1.911 0.928543 1.3348 0
M  V30 5 O 3.095 1.19667 1.45644 0
M  V30 6 C 0.222 2.43627 2.35294 0
M  V30 7 C -0.732 3.65373 2.2001 0
M  V30 8 S 0.101 5.13292 1.52614 0
M  V30 9 C 1.257 5.56322 2.86805 0
M  V30 10 H 1.49 2.90518 0.631377 0
M  V30 11 H -0.977 1.52953 0.210867 0
M  V30 12 H 0.981 2.67203 3.11629 0
M  V30 13 H -0.358 1.57376 2.7183 0
M  V30 14 H -1.165 3.90944 3.18086 0
M  V30 15 H -1.563 3.418 1.51819 0
M  V30 16 H 0.729 5.58782 3.83104 0
M  V30 17 H 1.672 6.56266 2.65933 0
M  V30 18 H 2.08 4.83886 2.90714 0
M  V30 19 N 1.4781 -0.272755 1.55222 0
M  V30 20 C 2.4251 -1.33716 1.88119 0
M  V30 21 C 3.3951 -1.49066 0.73271 0
M  V30 22 O 4.5801 -1.63469 0.984002 0
M  V30 23 C 1.7201 -2.69238 2.15882 0
M  V30 24 C 0.8331 -2.62108 3.43399 0
M  V30 25 C -0.0319 -3.89811 3.60861 0
M  V30 26 C -0.9929 -3.77193 4.8207 0
M  V30 27 N -1.8559 -4.9673 4.96189 0
M  V30 28 H 2.9841 -1.04962 2.78903 0
M  V30 29 H 0.5211 -0.507088 1.38083 0
M  V30 30 H 2.4791 -3.48089 2.29978 0
M  V30 31 H 1.1091 -2.96194 1.28331 0
M  V30 32 H 0.1611 -1.74967 3.37773 0
M  V30 33 H 1.4731 -2.48685 4.32386 0
M  V30 34 H 0.6271 -4.77103 3.74777 0
M  V30 35 H -0.6339 -4.06102 2.7006 0
M  V30 36 H -1.6289 -2.88284 4.68159 0
M  V30 37 H -0.4039 -3.62421 5.74307 0
M  V30 38 H -2.4579 -5.13431 4.08319 0
M  V30 39 H -2.5409 -4.85839 5.79221 0
M  V30 40 H -1.2729 -5.85594 5.1449 0
M  V30 41 N 2.9562 -1.48159 -0.537278 0
M  V30 42 C 4.2052 -1.5506 -1.28993 0
M  V30 43 C 4.5182 -0.226211 -1.94288 0
M  V30 44 O 5.7242 -0.173395 -2.70946 0
M  V30 45 C 4.1802 -2.73429 -2.34018 0
M  V30 46 C 3.7882 -4.1248 -1.74825 0
M  V30 47 C 5.5322 -2.89638 -3.10339 0
M  V30 48 C 3.4392 -5.22121 -2.77747 0
M  V30 49 H 2.3692 -0.577231 -0.485098 0
M  V30 50 H 5.0202 -1.74478 -0.568317 0
M  V30 51 H 3.4022 -2.47431 -3.09182 0
M  V30 52 H 4.5762 -4.48466 -1.05899 0
M  V30 53 H 2.8912 -4.01327 -1.11022 0
M  V30 54 H 5.4882 -3.68718 -3.87235 0
M  V30 55 H 5.8312 -1.9882 -3.65754 0
M  V30 56 H 6.3642 -3.15502 -2.42288 0
M  V30 57 H 3.1032 -6.1488 -2.27161 0
M  V30 58 H 2.6232 -4.90631 -3.45024 0
M  V30 59 H 4.3022 -5.49924 -3.4087 0
M  V30 60 N 4.4343 0.785586 -1.36625 0
M  V30 61 C 5.3813 1.89838 -1.31264 0
M  V30 62 C 6.3513 1.65115 -0.180633 0
M  V30 63 O 7.5363 1.87222 -0.36777 0
M  V30 64 C 4.6763 3.26706 -1.11163 0
M  V30 65 C 3.7893 3.63476 -2.33472 0
M  V30 66 C 2.9243 4.89481 -2.06353 0
M  V30 67 C 1.9633 5.18941 -3.24602 0
M  V30 68 N 1.1003 6.36131 -2.97123 0
M  V30 69 H 5.9403 1.93756 -2.26413 0
M  V30 70 H 3.4773 0.947454 -1.12524 0
M  V30 71 H 5.4353 4.05639 -0.975337 0
M  V30 72 H 4.0653 3.222 -0.196674 0
M  V30 73 H 3.1173 2.79636 -2.57891 0
M  V30 74 H 4.4293 3.81193 -3.21704 0
M  V30 75 H 3.5833 5.76288 -1.89675 0
M  V30 76 H 2.3223 4.73841 -1.15437 0
M  V30 77 H 1.3273 4.30615 -3.41834 0
M  V30 78 H 2.5523 5.36498 -4.16349 0
M  V30 79 H 0.4983 6.21875 -2.08823 0
M  V30 80 H 0.4153 6.54198 -3.78894 0
M  V30 81 H 1.6833 7.2591 -2.84033 0
M  V30 82 N 5.9124 1.20967 1.01018 0
M  V30 83 C 6.8444 0.922059 2.09835 0
M  V30 84 C 7.8574 -0.0927106 1.62536 0
M  V30 85 O 9.0464 0.139127 1.77957 0
M  V30 86 C 6.1464 0.362004 3.36961 0
M  V30 87 C 5.3194 1.42986 4.13369 0
M  V30 88 C 4.3784 0.879976 5.1879 0
M  V30 89 O 3.4044 1.56219 5.47343 0
M  V30 90 N 4.6064 -0.307396 5.79686 0
M  V30 91 H 7.3714 1.8588 2.35093 0
M  V30 92 H 4.9324 1.11422 1.1746 0
M  V30 93 H 6.9244 -0.0201474 4.04695 0
M  V30 94 H 5.4944 -0.479437 3.08902 0
M  V30 95 H 4.7144 1.98608 3.40512 0
M  V30 96 H 6.0024 2.14885 4.61196 0
M  V30 97 H 5.4004 -0.878796 5.58832 0
M  V30 98 H 3.9574 -0.631115 6.48737 0
M  V30 99 N 7.3905 -1.2043 1.01659 0
M  V30 100 C 8.3535 -2.21433 0.591616 0
M  V30 101 C 9.3535 -1.57203 -0.338226 0
M  V30 102 O 10.5435 -1.73737 -0.126918 0
M  V30 103 C 7.6755 -3.40628 -0.136058 0
M  V30 104 H 8.8685 -2.60545 1.48514 0
M  V30 105 H 6.4215 -1.33893 0.806379 0
M  V30 106 H 7.1565 -3.07019 -1.04449 0
M  V30 107 H 6.9415 -3.88475 0.531917 0
M  V30 108 H 8.4315 -4.15475 -0.420735 0
M  V30 109 N 8.8686 -0.792821 -1.36206 0
M  V30 110 C 9.7986 -0.207853 -2.32573 0
M  V30 111 C 10.7796 0.659055 -1.56813 0
M  V30 112 O 11.9646 0.592176 -1.84951 0
M  V30 113 C 9.0946 0.655449 -3.41059 0
M  V30 114 C 8.0486 -0.111842 -4.27854 0
M  V30 115 C 7.3746 0.872274 -5.27537 0
M  V30 116 C 8.6746 -1.30299 -5.05786 0
M  V30 117 H 10.3686 -1.01294 -2.81744 0
M  V30 118 H 7.9146 -0.48854 -1.3546 0
M  V30 119 H 9.8676 1.07464 -4.07467 0
M  V30 120 H 8.5916 1.49328 -2.90463 0
M  V30 121 H 7.2506 -0.512053 -3.63006 0
M  V30 122 H 6.8986 1.70523 -4.73214 0
M  V30 123 H 6.5986 0.363291 -5.86476 0
M  V30 124 H 8.1226 1.28996 -5.96818 0
M  V30 125 H 9.5366 -0.959379 -5.65216 0
M  V30 126 H 7.9336 -1.7455 -5.74154 0
M  V30 127 H 9.0036 -2.09663 -4.37229 0
M  V30 128 N 10.3467 1.47872 -0.545128 0
M  V30 129 C 11.5937 2.02493 -0.0165858 0
M  V30 130 C 11.9217 1.42073 1.32836 0
M  V30 131 O 11.1767 0.561459 1.87473 0
M  V30 132 C 11.4757 3.57131 0.13867 0
M  V30 133 C 11.1417 4.36411 -1.13384 0
M  V30 134 C 9.8037 4.57792 -1.48256 0
M  V30 135 C 12.1557 4.82223 -1.97764 0
M  V30 136 C 9.4837 5.22233 -2.67376 0
M  V30 137 C 11.8357 5.47977 -3.16076 0
M  V30 138 C 10.4997 5.67593 -3.51275 0
M  V30 139 H 9.7697 0.740975 -0.00606918 0
M  V30 140 H 12.4167 1.77683 -0.714207 0
M  V30 141 H 10.7217 3.80865 0.919172 0
M  V30 142 H 12.4187 3.97031 0.562782 0
M  V30 143 H 9.0087 4.2004 -0.852297 0
M  V30 144 H 13.1927 4.65493 -1.72132 0
M  V30 145 H 8.4487 5.35616 -2.94831 0
M  V30 146 H 12.6227 5.8244 -3.81755 0
M  V30 147 H 10.2497 6.17298 -4.43675 0
M  V30 148 N 11.8248 0.280983 1.55075 0
M  V30 149 C 13.0528 -0.337293 2.04132 0
M  V30 150 C 13.4678 -1.4903 1.15912 0
M  V30 151 O 12.8248 -1.81606 0.180459 0
M  V30 152 C 12.8758 -0.812706 3.52246 0
M  V30 153 O 12.5968 0.294387 4.3711 0
M  V30 154 C 14.0978 -1.4982 4.17216 0
M  V30 155 H 11.3178 -0.0761638 0.666663 0
M  V30 156 H 13.8618 0.414787 2.00249 0
M  V30 157 H 12.0168 -1.51486 3.56554 0
M  V30 158 H 12.4308 -0.0721325 5.2445 0
M  V30 159 H 13.9048 -1.7822 5.22438 0
M  V30 160 H 14.3818 -2.43168 3.65741 0
M  V30 161 H 14.9878 -0.839742 4.16927 0
M  V30 162 N 13.3029 -1.57598 0.00835791 0
M  V30 163 C 14.2659 -2.07884 -0.965242 0
M  V30 164 C 15.2659 -0.989825 -1.26725 0
M  V30 165 O 16.4559 -1.25218 -1.21104 0
M  V30 166 C 13.5879 -2.52731 -2.28779 0
M  V30 167 H 14.7809 -2.95178 -0.530112 0
M  V30 168 H 12.3339 -1.54458 -0.239283 0
M  V30 169 H 13.0689 -1.68705 -2.76964 0
M  V30 170 H 12.8539 -3.32272 -2.08177 0
M  V30 171 H 14.3439 -2.91933 -2.98605 0
M  V30 172 N 14.781 0.264519 -1.55364 0
M  V30 173 C 16.029 0.993021 -1.76021 0
M  V30 174 C 16.35 1.86511 -0.569099 0
M  V30 175 O 15.62 1.91438 0.415735 0
M  V30 176 H 14.2 0.369639 -0.649135 0
M  V30 177 H 16.862 0.286707 -1.9278 0
M  V30 178 H 15.958 1.62502 -2.66457 0
M  V30 179 N 16.2591 1.48442 0.529413 0
M  V30 180 C 17.4891 1.59919 1.30804 0
M  V30 181 C 17.8971 0.258792 1.87422 0
M  V30 182 O 17.2401 -0.762096 1.67146 0
M  V30 183 C 17.3021 2.58693 2.49636 0
M  V30 184 C 16.9661 4.03745 2.14101 0
M  V30 185 C 17.9631 4.9141 1.6974 0
M  V30 186 C 15.6481 4.49285 2.24607 0
M  V30 187 C 17.6421 6.22645 1.36351 0
M  V30 188 C 15.3291 5.8054 1.9083 0
M  V30 189 C 16.3271 6.67043 1.46773 0
M  V30 190 O 16.0151 7.95856 1.1344 0
M  V30 191 H 15.7471 0.541981 0.404021 0
M  V30 192 H 18.3011 1.95 0.645309 0
M  V30 193 H 16.5311 2.18734 3.18892 0
M  V30 194 H 18.2201 2.59999 3.11698 0
M  V30 195 H 18.9861 4.57465 1.61094 0
M  V30 196 H 14.8651 3.82142 2.57854 0
M  V30 197 H 18.4091 6.90119 1.01891 0
M  V30 198 H 14.3061 6.14022 1.99117 0
M  V30 199 H 15.0741 8.08613 1.26832 0
M  V30 200 N 17.7372 -0.778329 1.37039 0
M  V30 201 C 18.9622 -1.57248 1.35233 0
M  V30 202 C 19.3872 -1.87999 -0.0615568 0
M  V30 203 O 18.7452 -1.48734 -1.03672 0
M  V30 204 C 18.7932 -2.86353 2.19167 0
M  V30 205 O 17.8972 -3.80442 1.59178 0
M  V30 206 H 17.2382 -0.476569 0.462362 0
M  V30 207 H 19.7682 -0.963853 1.80474 0
M  V30 208 H 19.7782 -3.35519 2.32145 0
M  V30 209 H 18.4532 -2.63299 3.21942 0
M  V30 210 H 17.0302 -3.39067 1.55203 0
M  V30 211 N 19.2153 -1.21501 -1.00376 0
M  V30 212 C 20.4403 -1.05977 -1.78279 0
M  V30 213 C 20.8653 0.385994 -1.84097 0
M  V30 214 O 20.2233 1.27849 -1.28547 0
M  V30 215 C 20.2713 -1.66302 -3.19963 0
M  V30 216 O 19.3753 -0.909333 -4.0225 0
M  V30 217 H 18.7163 -0.372906 -0.549397 0
M  V30 218 H 21.2463 -1.6107 -1.26165 0
M  V30 219 H 21.2563 -1.70574 -3.70632 0
M  V30 220 H 19.9313 -2.71515 -3.15043 0
M  V30 221 H 18.5083 -0.941795 -3.60811 0
M  V30 222 N 20.6934 1.19889 -1.02296 0
M  V30 223 C 21.9404 1.8942 -0.715972 0
M  V30 224 C 22.2684 1.79251 0.754944 0
M  V30 225 O 21.5234 1.17526 1.56481 0
M  V30 226 C 21.8224 3.39883 -1.10518 0
M  V30 227 C 21.4884 3.70254 -2.57337 0
M  V30 228 C 20.1504 3.78254 -2.97452 0
M  V30 229 C 22.5024 3.84052 -3.52354 0
M  V30 230 C 19.8304 3.97514 -4.31509 0
M  V30 231 C 22.1824 4.04824 -4.86108 0
M  V30 232 C 20.8464 4.11054 -5.25919 0
M  V30 233 H 20.1164 0.693138 -0.261993 0
M  V30 234 H 22.7634 1.42012 -1.28472 0
M  V30 235 H 21.0684 3.8915 -0.454953 0
M  V30 236 H 22.7654 3.9199 -0.845261 0
M  V30 237 H 19.3554 3.64632 -2.25258 0
M  V30 238 H 23.5394 3.77221 -3.22518 0
M  V30 239 H 18.7954 4.00574 -4.61898 0
M  V30 240 H 22.9694 4.14442 -5.59653 0
M  V30 241 H 20.5964 4.2573 -6.29808 0
M  V30 242 N 22.1715 0.800033 1.35784 0
M  V30 243 C 23.4015 0.389041 2.02904 0
M  V30 244 C 23.8095 -1.0027 1.60445 0
M  V30 245 O 23.1525 -1.65633 0.794453 0
M  V30 246 C 23.2145 0.385495 3.57427 0
M  V30 247 C 22.8785 1.72662 4.23127 0
M  V30 248 C 23.8755 2.68385 4.4527 0
M  V30 249 C 21.5605 2.00883 4.60381 0
M  V30 250 C 23.5545 3.90517 5.03761 0
M  V30 251 C 21.2415 3.2328 5.18588 0
M  V30 252 C 22.2395 4.17915 5.40218 0
M  V30 253 O 21.9275 5.38153 5.97199 0
M  V30 254 H 21.6595 0.157032 0.657508 0
M  V30 255 H 24.2135 1.08311 1.74522 0
M  V30 256 H 22.4435 -0.365128 3.84972 0
M  V30 257 H 24.1325 -0.00228296 4.059 0
M  V30 258 H 24.8985 2.47872 4.16874 0
M  V30 259 H 20.7775 1.28037 4.42863 0
M  V30 260 H 24.3215 4.64395 5.2056 0
M  V30 261 H 20.2185 3.43667 5.4641 0
M  V30 262 H 20.9865 5.3936 6.15656 0
M  V30 263 N 23.6496 -1.47581 0.552962 0
M  V30 264 C 24.8966 -2.02482 0.0273243 0
M  V30 265 C 25.2246 -1.42776 -1.32081 0
M  V30 266 O 24.4796 -0.571393 -1.87173 0
M  V30 267 C 24.7786 -3.57199 -0.119728 0
M  V30 268 C 24.4446 -4.35804 1.15697 0
M  V30 269 C 23.1066 -4.57 1.50681 0
M  V30 270 C 25.4586 -4.81167 2.00319 0
M  V30 271 C 22.7866 -5.20807 2.70142 0
M  V30 272 C 25.1386 -5.46293 3.18978 0
M  V30 273 C 23.8026 -5.65722 3.54281 0
M  V30 274 H 23.0726 -0.740933 0.00999866 0
M  V30 275 H 25.7196 -1.77302 0.72362 0
M  V30 276 H 24.0246 -3.81348 -0.89896 0
M  V30 277 H 25.7216 -3.97324 -0.541718 0
M  V30 278 H 22.3116 -4.19582 0.874561 0
M  V30 279 H 26.4956 -4.64574 1.74599 0
M  V30 280 H 21.7516 -5.34045 2.97668 0
M  V30 281 H 25.9256 -5.80407 3.84838 0
M  V30 282 H 23.5526 -6.14936 4.46942 0
M  V30 283 N 25.1277 -0.289203 -1.54924 0
M  V30 284 C 26.4047 0.376032 -1.91951 0
M  V30 285 C 26.7847 1.72622 -1.21511 0
M  V30 286 O 26.1327 2.25853 -0.346767 0
M  V30 287 C 26.3427 0.502378 -3.45365 0
M  V30 288 C 27.6907 0.778741 -4.17398 0
M  V30 289 O 28.7147 0.586647 -3.51336 0
M  V30 290 O 27.5737 1.14698 -5.34328 0
M  V30 291 H 24.6677 0.208167 -0.800372 0
M  V30 292 H 27.2137 -0.336394 -1.66332 0
M  V30 293 H 25.9857 -0.447255 -3.88736 0
M  V30 294 H 25.6087 1.26373 -3.76982 0
M  V30 295 N 26.6058 1.57591 -0.0167156 0
M  V30 296 C 27.8828 1.82547 0.702564 0
M  V30 297 C 28.2628 0.898018 1.91047 0
M  V30 298 O 27.6108 -0.0493456 2.28447 0
M  V30 299 C 27.8208 3.31459 1.09251 0
M  V30 300 C 29.1688 3.97622 1.48937 0
M  V30 301 O 30.1928 3.35881 1.18584 0
M  V30 302 O 29.0518 5.06415 2.05442 0
M  V30 303 H 26.1458 0.752268 0.343544 0
M  V30 304 H 28.6918 1.69644 -0.0434495 0
M  V30 305 H 27.4638 3.9061 0.23227 0
M  V30 306 H 27.0868 3.49422 1.89709 0
M  V30 307 N 28.0839 -0.256276 1.55502 0
M  V30 308 C 29.0159 -1.33981 1.85962 0
M  V30 309 C 30.0289 -1.44743 0.745212 0
M  V30 310 O 31.2179 -1.4626 1.02324 0
M  V30 311 C 28.3179 -2.7194 2.02242 0
M  V30 312 C 27.4909 -2.83562 3.33033 0
M  V30 313 C 26.5499 -4.02304 3.39172 0
M  V30 314 O 25.5759 -3.92273 4.12444 0
M  V30 315 N 26.7779 -5.15045 2.67784 0
M  V30 316 H 29.5429 -1.08191 2.7949 0
M  V30 317 H 27.1039 -0.446388 1.55624 0
M  V30 318 H 29.0959 -3.49697 2.03701 0
M  V30 319 H 27.6659 -2.90479 1.15502 0
M  V30 320 H 26.8859 -1.92555 3.43971 0
M  V30 321 H 28.1739 -2.88271 4.19258 0
M  V30 322 H 27.5719 -5.26085 2.07968 0
M  V30 323 H 26.1289 -5.90972 2.74947 0
M  V30 324 N 29.562 -1.4872 -0.521534 0
M  V30 325 C 30.494 -1.59968 -1.64143 0
M  V30 326 C 31.507 -0.483463 -1.55456 0
M  V30 327 O 32.696 -0.75467 -1.61762 0
M  V30 328 C 29.796 -1.52127 -3.02838 0
M  V30 329 C 28.969 -2.78932 -3.36921 0
M  V30 330 C 28.028 -2.64428 -4.54933 0
M  V30 331 O 27.054 -3.38331 -4.57735 0
M  V30 332 N 28.256 -1.74606 -5.53618 0
M  V30 333 H 31.021 -2.56548 -1.54929 0
M  V30 334 H 28.582 -1.45551 -0.708988 0
M  V30 335 H 30.574 -1.40106 -3.79674 0
M  V30 336 H 29.144 -0.634868 -3.06085 0
M  V30 337 H 28.364 -3.05455 -2.4918 0
M  V30 338 H 29.652 -3.63041 -3.56481 0
M  V30 339 H 29.05 -1.13782 -5.54139 0
M  V30 340 H 27.607 -1.6852 -6.29638 0
M  V30 341 N 31.0401 0.771051 -1.3745 0
M  V30 342 C 32.0031 1.86598 -1.33093 0
M  V30 343 C 33.0031 1.59076 -0.234845 0
M  V30 344 O 34.1931 1.67145 -0.490732 0
M  V30 345 C 31.3251 3.23747 -1.06773 0
M  V30 346 H 32.5181 1.91873 -2.30488 0
M  V30 347 H 30.0711 0.970876 -1.2249 0
M  V30 348 H 30.8061 3.24148 -0.099129 0
M  V30 349 H 30.5911 3.45115 -1.86112 0
M  V30 350 H 32.0811 4.03824 -1.06377 0
M  V30 351 N 32.5182 1.22032 0.997298 0
M  V30 352 C 33.7672 1.03637 1.73038 0
M  V30 353 C 34.0802 -0.429475 1.90827 0
M  V30 354 O 35.2862 -0.732995 2.61418 0
M  V30 355 C 33.7422 1.80582 3.11317 0
M  V30 356 C 33.3502 3.31387 3.01474 0
M  V30 357 C 35.0942 1.70621 3.88701 0
M  V30 358 C 33.0012 4.00791 4.3488 0
M  V30 359 H 31.9312 0.384179 0.648785 0
M  V30 360 H 34.5822 1.4584 1.11368 0
M  V30 361 H 32.9642 1.31175 3.73643 0
M  V30 362 H 34.1382 3.88155 2.4834 0
M  V30 363 H 32.4532 3.41976 2.37575 0
M  V30 364 H 35.0502 2.19799 4.87434 0
M  V30 365 H 35.3932 0.665823 4.10941 0
M  V30 366 H 35.9262 2.17547 3.33044 0
M  V30 367 H 32.6652 5.05064 4.1784 0
M  V30 368 H 32.1852 3.48811 4.87945 0
M  V30 369 H 33.8642 4.06139 5.03647 0
M  V30 370 N 33.9963 -1.19345 1.0293 0
M  V30 371 C 34.9433 -2.2258 0.610464 0
M  V30 372 C 35.9133 -1.6179 -0.375946 0
M  V30 373 O 37.0983 -1.88844 -0.272511 0
M  V30 374 C 34.2383 -3.45085 -0.0321473 0
M  V30 375 C 33.3513 -4.20258 1.00035 0
M  V30 376 C 32.4863 -5.3019 0.32746 0
M  V30 377 C 31.5253 -5.97121 1.34584 0
M  V30 378 N 30.6623 -6.98615 0.698726 0
M  V30 379 H 35.5023 -2.57764 1.49538 0
M  V30 380 H 33.0393 -1.26644 0.748311 0
M  V30 381 H 34.9973 -4.15061 -0.421966 0
M  V30 382 H 33.6273 -3.10555 -0.88064 0
M  V30 383 H 32.6793 -3.49223 1.50823 0
M  V30 384 H 33.9913 -4.66175 1.77433 0
M  V30 385 H 33.1453 -6.06587 -0.11718 0
M  V30 386 H 31.8843 -4.85345 -0.478713 0
M  V30 387 H 30.8893 -5.19474 1.80074 0
M  V30 388 H 32.1143 -6.4405 2.15352 0
M  V30 389 H 30.0603 -6.55942 -0.0873471 0
M  V30 390 H 29.9773 -7.42724 1.41058 0
M  V30 391 H 31.2453 -7.79004 0.278102 0
M  V30 392 N 35.4744 -0.807222 -1.35358 0
M  V30 393 C 36.4224 -0.20614 -2.31685 0
M  V30 394 C 37.4164 0.644445 -1.56663 0
M  V30 395 O 38.6224 0.537538 -1.71786 0
M  V30 396 H 34.9974 -0.0479006 -0.750473 0
M  V30 397 H 36.9684 -1.03369 -2.79924 0
M  V30 398 C 35.7174 0.630212 -3.41941 0
M  V30 399 H 35.0404 -0.0149558 -3.99797 0
M  V30 400 H 36.4804 1.01716 -4.11619 0
M  V30 401 C 34.9394 1.79601 -2.85035 0
M  V30 402 O 35.4694 2.89351 -2.78637 0
M  V30 403 N 33.6754 1.60774 -2.42074 0
M  V30 404 H 33.2224 0.715009 -2.47478 0
M  V30 405 H 33.1804 2.38933 -2.04349 0
M  V30 406 N 36.9525 1.47285 -0.560781 0
M  V30 407 C 38.2005 2.02064 -0.0379868 0
M  V30 408 C 38.5215 1.43711 1.31803 0
M  V30 409 O 37.7915 0.61362 1.86042 0
M  V30 410 H 36.3715 0.746918 -0.0110531 0
M  V30 411 H 39.0335 1.80648 -0.731598 0
M  V30 412 H 38.1295 3.12064 0.0474463 0
M  V30 413 N 38.4306 0.297415 1.54768 0
M  V30 414 C 39.3936 -0.567375 2.22066 0
M  V30 415 C 40.3936 -1.06409 1.20556 0
M  V30 416 O 41.5836 -0.960691 1.45315 0
M  V30 417 C 38.7156 -1.78517 2.90421 0
M  V30 418 H 39.9086 0.0205534 2.99893 0
M  V30 419 H 37.4616 0.0482163 1.56226 0
M  V30 420 H 38.1966 -2.41303 2.16664 0
M  V30 421 H 37.9816 -1.43669 3.64831 0
M  V30 422 H 39.4716 -2.39964 3.41771 0
M  V30 423 N 39.9087 -1.5758 0.0250728 0
M  V30 424 C 41.1567 -1.91255 -0.653151 0
M  V30 425 C 41.4777 -0.901691 -1.729 0
M  V30 426 O 40.7477 0.0573785 -1.95816 0
M  V30 427 H 39.3277 -0.705942 -0.244243 0
M  V30 428 H 41.9897 -1.94767 0.0719209 0
M  V30 429 H 41.0857 -2.91752 -1.10847 0
M  V30 430 N 41.3868 0.248026 -1.55636 0
M  V30 431 C 42.3368 1.30994 -1.86614 0
M  V30 432 C 43.3208 1.43543 -0.726918 0
M  V30 433 O 44.5128 1.46804 -0.988818 0
M  V30 434 C 41.6418 2.6656 -2.16335 0
M  V30 435 C 40.7278 2.58019 -3.36581 0
M  V30 436 N 41.1188 2.1911 -4.55878 0
M  V30 437 C 39.4168 2.89035 -3.39669 0
M  V30 438 C 40.1178 2.21174 -5.38012 0
M  V30 439 N 39.0938 2.60632 -4.77045 0
M  V30 440 H 42.8958 0.999583 -2.76379 0
M  V30 441 H 40.4098 0.456652 -1.55848 0
M  V30 442 H 42.4068 3.43194 -2.36692 0
M  V30 443 H 41.0668 2.98463 -1.27867 0
M  V30 444 H 42.0778 1.90672 -4.81523 0
M  V30 445 H 38.7548 3.25485 -2.61469 0
M  V30 446 H 40.1448 1.9344 -6.43452 0
M  V30 447 N 42.8649 1.48995 0.513639 0
M  V30 448 C 44.1419 1.48338 1.27495 0
M  V30 449 C 44.5219 0.204065 2.10111 0
M  V30 450 O 43.8699 -0.813881 2.13514 0
M  V30 451 C 44.0799 2.75498 2.14247 0
M  V30 452 C 45.4279 3.24484 2.73852 0
M  V30 453 O 46.4519 2.76528 2.24523 0
M  V30 454 O 45.3109 4.07974 3.6362 0
M  V30 455 H 42.4049 0.593149 0.576284 0
M  V30 456 H 44.9509 1.61246 0.528948 0
M  V30 457 H 43.7229 3.60109 1.53092 0
M  V30 458 H 43.3459 2.6539 2.96064 0
M  V30 459 N 44.343 -0.763751 1.37857 0
M  V30 460 C 45.591 -1.51957 1.33243 0
M  V30 461 C 45.912 -1.94835 -0.0801709 0
M  V30 462 O 45.182 -1.66894 -1.02582 0
M  V30 463 H 43.762 -0.563626 0.49024 0
M  V30 464 H 46.424 -0.908504 1.7243 0
M  V30 465 H 45.52 -2.41523 1.97669 0
M  V30 466 N 45.8211 -1.22559 -0.990812 0
M  V30 467 C 47.0681 -1.05141 -1.73065 0
M  V30 468 C 47.3961 0.413191 -1.9006 0
M  V30 469 O 46.6511 1.32257 -1.44245 0
M  V30 470 C 46.9501 -1.71011 -3.13831 0
M  V30 471 C 46.6161 -3.20911 -3.16745 0
M  V30 472 C 45.2781 -3.61812 -3.17247 0
M  V30 473 C 47.6301 -4.16846 -3.12872 0
M  V30 474 C 44.9581 -4.97127 -3.1158 0
M  V30 475 C 47.3101 -5.5214 -3.08746 0
M  V30 476 C 45.9741 -5.92419 -3.07565 0
M  V30 477 H 45.2441 -0.384738 -0.633291 0
M  V30 478 H 47.8911 -1.5235 -1.16025 0
M  V30 479 H 46.1961 -1.16133 -3.74193 0
M  V30 480 H 47.8931 -1.55023 -3.69823 0
M  V30 481 H 44.4831 -2.88344 -3.17105 0
M  V30 482 H 48.6671 -3.86263 -3.11632 0
M  V30 483 H 43.9231 -5.27562 -3.09012 0
M  V30 484 H 48.0971 -6.26201 -3.04705 0
M  V30 485 H 45.7241 -6.97236 -3.02929 0
M  V30 486 N 47.2992 1.18797 -1.03562 0
M  V30 487 C 48.5482 1.87978 -0.731235 0
M  V30 488 C 48.8612 1.80911 0.743671 0
M  V30 489 O 50.0672 2.45407 1.16137 0
M  V30 490 C 48.5232 3.3721 -1.25768 0
M  V30 491 C 48.1312 3.52818 -2.76085 0
M  V30 492 C 49.8752 4.11825 -1.0296 0
M  V30 493 C 47.7822 4.9598 -3.22114 0
M  V30 494 H 46.7122 0.704063 -0.269835 0
M  V30 495 H 49.3632 1.34266 -1.25079 0
M  V30 496 H 47.7452 3.90359 -0.666011 0
M  V30 497 H 48.9192 3.09965 -3.40966 0
M  V30 498 H 47.2342 2.91602 -2.97249 0
M  V30 499 H 49.8312 5.17411 -1.34869 0
M  V30 500 H 50.1742 4.16287 0.0333546 0
M  V30 501 H 50.7072 3.64833 -1.58562 0
M  V30 502 H 47.4462 4.96684 -4.27768 0
M  V30 503 H 46.9662 5.39569 -2.61965 0
M  V30 504 H 48.6452 5.6467 -3.15844 0
M  V30 505 N 48.7773 0.814389 1.34928 0
M  V30 506 C 50.0073 0.41054 2.0248 0
M  V30 507 C 50.4153 -0.985625 1.61499 0
M  V30 508 O 49.7583 -1.64781 0.811976 0
M  V30 509 C 49.8203 0.423384 3.56998 0
M  V30 510 C 49.4843 1.77141 4.21272 0
M  V30 511 C 50.4813 2.73093 4.42398 0
M  V30 512 C 48.1663 2.05755 4.58225 0
M  V30 513 C 50.1603 3.95838 4.9959 0
M  V30 514 C 47.8473 3.28762 5.1513 0
M  V30 515 C 48.8453 4.23621 5.35755 0
M  V30 516 O 48.5333 5.44456 5.91458 0
M  V30 517 H 48.2653 0.163997 0.655806 0
M  V30 518 H 50.8193 1.10155 1.73364 0
M  V30 519 H 49.0493 -0.324276 3.85338 0
M  V30 520 H 50.7383 0.0407683 4.0588 0
M  V30 521 H 51.5043 2.5228 4.14222 0
M  V30 522 H 47.3833 1.32727 4.4148 0
M  V30 523 H 50.9273 4.69891 5.15605 0
M  V30 524 H 46.8243 3.49443 5.42734 0
M  V30 525 H 47.5923 5.4586 6.09901 0
M  V30 526 N 50.2554 -1.46986 0.568584 0
M  V30 527 C 51.4834 -2.0683 0.0539956 0
M  V30 528 C 51.8984 -1.41953 -1.24478 0
M  V30 529 O 51.2554 -0.519933 -1.74937 0
M  V30 530 C 51.3064 -3.61254 -0.133362 0
M  V30 531 O 51.0274 -4.237 1.11399 0
M  V30 532 C 52.5284 -4.37992 -0.683927 0
M  V30 533 H 49.7484 -0.669058 0.0510141 0
M  V30 534 H 52.2924 -1.88824 0.785234 0
M  V30 535 H 50.4474 -3.78735 -0.81477 0
M  V30 536 H 50.8614 -5.16388 0.91888 0
M  V30 537 H 52.3354 -5.46684 -0.764263 0
M  V30 538 H 52.8124 -4.05058 -1.69778 0
M  V30 539 H 53.4184 -4.25283 -0.0378494 0
M  V30 540 N 51.7335 -0.305618 -1.54608 0
M  V30 541 C 52.9815 0.301701 -1.99835 0
M  V30 542 C 53.3025 1.54054 -1.19551 0
M  V30 543 O 52.5725 1.93702 -0.292658 0
M  V30 544 H 51.1525 0.114468 -0.738178 0
M  V30 545 H 53.8145 -0.418016 -1.90364 0
M  V30 546 H 52.9105 0.570548 -3.06841 0
M  V30 547 N 53.2116 1.57565 -0.0334293 0
M  V30 548 C 54.4886 1.83282 0.683163 0
M  V30 549 C 54.8686 0.91823 1.90084 0
M  V30 550 O 54.2166 -0.025113 2.28486 0
M  V30 551 C 54.4266 3.32599 1.0573 0
M  V30 552 C 55.7746 3.99179 1.44711 0
M  V30 553 O 56.7986 3.3712 1.15015 0
M  V30 554 O 55.6576 5.08565 2.0006 0
M  V30 555 H 52.7516 0.755869 0.335546 0
M  V30 556 H 55.2976 1.69589 -0.0614402 0
M  V30 557 H 54.0696 3.90834 0.190828 0
M  V30 558 H 53.6926 3.51415 1.85993 0
M  V30 559 N 54.6897 -0.239769 1.55765 0
M  V30 560 C 56.1007 -0.808263 1.68297 0
M  V30 561 C 56.4517 -1.85736 0.632181 0
M  V30 562 O 55.5767 -2.15277 -0.220204 0
M  V30 563 C 56.1717 -1.47284 3.05111 0
M  V30 564 C 54.7307 -1.98895 3.19559 0
M  V30 565 C 53.8777 -0.842575 2.64189 0
M  V30 566 H 56.8287 -0.0154422 1.58692 0
M  V30 567 H 56.8497 -2.34111 2.99954 0
M  V30 568 H 56.3617 -0.709053 3.81568 0
M  V30 569 H 54.4627 -2.78132 2.47938 0
M  V30 570 H 54.5757 -2.18143 4.26556 0
M  V30 571 H 52.9397 -1.24501 2.22197 0
M  V30 572 H 53.7227 -0.0917552 3.43177 0
M  V30 573 N 56.1678 -1.49265 -0.50573 0
M  V30 574 C 57.4138 -1.58748 -1.26202 0
M  V30 575 C 57.7468 -0.271227 -1.92297 0
M  V30 576 O 57.0218 0.724831 -1.80489 0
M  V30 577 C 57.3048 -2.74332 -2.33268 0
M  V30 578 C 57.1578 -4.15737 -1.71705 0
M  V30 579 C 58.4768 -2.85576 -3.34865 0
M  V30 580 H 55.5958 -0.577826 -0.457478 0
M  V30 581 H 58.2378 -1.81532 -0.560897 0
M  V30 582 H 56.3878 -2.55036 -2.93068 0
M  V30 583 H 58.0598 -4.46537 -1.15769 0
M  V30 584 H 56.3028 -4.21605 -1.02135 0
M  V30 585 H 56.9738 -4.92477 -2.49341 0
M  V30 586 H 59.4498 -3.03127 -2.8505 0
M  V30 587 H 58.3258 -3.68135 -4.07146 0
M  V30 588 H 58.5868 -1.94732 -3.96903 0
M  V30 589 N 57.6459 0.756429 -1.3826 0
M  V30 590 C 58.8739 1.54565 -1.3754 0
M  V30 591 C 59.2889 1.88767 0.0355331 0
M  V30 592 O 58.6459 1.52572 1.0014 0
M  V30 593 C 58.6969 2.84654 -2.22833 0
M  V30 594 O 58.4179 2.51912 -3.5843 0
M  V30 595 C 59.9189 3.78807 -2.30261 0
M  V30 596 H 57.1389 0.478353 -0.470553 0
M  V30 597 H 59.6829 0.936381 -1.81803 0
M  V30 598 H 57.8379 3.41965 -1.8204 0
M  V30 599 H 58.2519 3.35325 -4.03308 0
M  V30 600 H 59.7259 4.67045 -2.94233 0
M  V30 601 H 60.2029 4.19038 -1.31545 0
M  V30 602 H 60.8089 3.2742 -2.71433 0
M  V30 603 N 59.124 1.23083 0.984299 0
M  V30 604 C 60.535 1.05609 1.5396 0
M  V30 605 C 60.886 -0.377793 1.92528 0
M  V30 606 O 60.011 -1.26398 1.75649 0
M  V30 607 C 60.606 1.91087 2.7977 0
M  V30 608 C 59.165 1.77885 3.31713 0
M  V30 609 C 58.312 1.87028 2.04733 0
M  V30 610 H 61.263 1.36802 0.804419 0
M  V30 611 H 61.284 1.43336 3.5247 0
M  V30 612 H 60.796 2.9544 2.51668 0
M  V30 613 H 58.897 0.762995 3.64704 0
M  V30 614 H 59.01 2.61047 4.01735 0
M  V30 615 H 57.374 1.30565 2.18689 0
M  V30 616 H 58.157 2.92929 1.79017 0
M  V30 617 N 60.6021 -1.18246 1.0419 0
M  V30 618 C 61.8501 -1.87886 0.744543 0
M  V30 619 C 62.1711 -1.8082 -0.730006 0
M  V30 620 O 61.4411 -1.22736 -1.52685 0
M  V30 621 H 60.0211 -0.695556 0.272417 0
M  V30 622 H 62.6831 -1.43494 1.31892 0
M  V30 623 H 61.7791 -2.9389 1.05049 0
M  V30 624 N 62.0802 -0.821533 -1.34494 0
M  V30 625 C 63.3272 -0.408946 -1.98328 0
M  V30 626 C 63.6552 1.02764 -1.65136 0
M  V30 627 O 62.9102 1.73026 -0.914349 0
M  V30 628 C 63.2092 -0.556512 -3.53041 0
M  V30 629 C 62.8752 -1.95861 -4.0614 0
M  V30 630 C 61.5372 -2.34217 -4.20352 0
M  V30 631 C 63.8892 -2.87523 -4.34718 0
M  V30 632 C 61.2172 -3.63572 -4.6047 0
M  V30 633 C 63.5692 -4.1634 -4.76281 0
M  V30 634 C 62.2332 -4.54675 -4.88699 0
M  V30 635 H 61.5032 -0.149644 -0.725732 0
M  V30 636 H 64.1502 -1.04521 -1.6046 0
M  V30 637 H 62.4552 0.163148 -3.9146 0
M  V30 638 H 64.1522 -0.217826 -4.00408 0
M  V30 639 H 60.7422 -1.65066 -3.95539 0
M  V30 640 H 64.9262 -2.59133 -4.23277 0
M  V30 641 H 60.1822 -3.93101 -4.68275 0
M  V30 642 H 64.3562 -4.87455 -4.97354 0
M  V30 643 H 61.9832 -5.54959 -5.19542 0
M  V30 644 N 63.5583 1.46682 -0.576371 0
M  V30 645 C 64.7863 2.06798 -0.0649635 0
M  V30 646 C 65.2013 1.42612 1.23723 0
M  V30 647 O 64.5583 0.529203 1.74659 0
M  V30 648 C 64.6093 3.6132 0.114202 0
M  V30 649 O 64.3303 4.23104 -1.13644 0
M  V30 650 C 65.8313 4.38349 0.66069 0
M  V30 651 H 63.0513 0.668778 -0.0545616 0
M  V30 652 H 65.5953 1.88404 -0.795237 0
M  V30 653 H 63.7503 3.79162 0.794673 0
M  V30 654 H 64.1643 5.15894 -0.946253 0
M  V30 655 H 65.6383 5.47081 0.73526 0
M  V30 656 H 66.1153 4.05953 1.67627 0
M  V30 657 H 66.7213 4.25297 0.0152951 0
M  V30 658 N 65.0364 0.313813 1.54444 0
M  V30 659 C 66.2614 -0.296681 2.05267 0
M  V30 660 C 66.6864 -1.45757 1.18897 0
M  V30 661 O 66.0444 -1.80239 0.195886 0
M  V30 662 C 66.0924 -0.71831 3.53373 0
M  V30 663 O 65.1964 -1.82175 3.69981 0
M  V30 664 H 64.5374 -0.0554061 0.661684 0
M  V30 665 H 67.0674 0.459387 1.99376 0
M  V30 666 H 67.0774 -1.00364 3.95463 0
M  V30 667 H 65.7524 0.130821 4.15694 0
M  V30 668 H 64.3294 -1.53598 3.39797 0
M  V30 669 N 66.5145 -1.57545 0.0417849 0
M  V30 670 C 67.7605 -1.92601 -0.635021 0
M  V30 671 C 68.0935 -0.919627 -1.71045 0
M  V30 672 O 67.3685 0.0557892 -1.9442 0
M  V30 673 C 67.6515 -3.38085 -1.23979 0
M  V30 674 C 67.5045 -4.49467 -0.173057 0
M  V30 675 C 68.8235 -3.83776 -2.15416 0
M  V30 676 H 65.9425 -0.700397 -0.229374 0
M  V30 677 H 68.5845 -1.89728 0.101633 0
M  V30 678 H 66.7345 -3.40664 -1.86762 0
M  V30 679 H 68.4065 -4.59018 0.458312 0
M  V30 680 H 66.6495 -4.30909 0.499996 0
M  V30 681 H 67.3205 -5.48323 -0.636054 0
M  V30 682 H 69.7965 -3.83013 -1.62605 0
M  V30 683 H 68.6725 -4.8624 -2.54679 0
M  V30 684 H 68.9335 -3.19998 -3.05047 0
M  V30 685 N 67.9926 0.231505 -1.5589 0
M  V30 686 C 69.4086 0.580748 -1.48659 0
M  V30 687 C 69.6086 1.87617 -0.73498 0
M  V30 688 O 68.6646 2.51046 -0.270586 0
M  V30 689 C 69.9776 0.669202 -2.93159 0
M  V30 690 C 71.5256 0.760499 -3.03621 0
M  V30 691 C 72.0006 0.880383 -4.49459 0
M  V30 692 N 73.4916 0.944861 -4.53461 0
M  V30 693 C 74.2266 1.05716 -5.63571 0
M  V30 694 N 73.7226 1.13403 -6.83456 0
M  V30 695 N 75.5156 1.09152 -5.514 0
M  V30 696 H 67.6666 -0.618695 -2.03189 0
M  V30 697 H 69.9296 -0.215728 -0.923128 0
M  V30 698 H 69.6356 -0.212904 -3.51055 0
M  V30 699 H 69.5096 1.5361 -3.44505 0
M  V30 700 H 71.8966 1.63305 -2.45796 0
M  V30 701 H 71.9776 -0.131864 -2.5546 0
M  V30 702 H 71.6216 0.0123284 -5.07899 0
M  V30 703 H 71.5516 1.78802 -4.95316 0
M  V30 704 H 74.0426 0.896176 -3.6712 0
M  V30 705 H 74.3556 1.21921 -7.63122 0
M  V30 706 H 72.7006 1.10333 -6.86186 0
M  V30 707 H 75.8916 1.02805 -4.56671 0
M  V30 708 H 76.0646 1.17558 -6.37247 0
M  V30 709 N 69.4707 1.49531 0.497807 0
M  V30 710 C 70.4027 1.62559 1.61578 0
M  V30 711 C 71.4157 0.508134 1.54667 0
M  V30 712 O 72.6047 0.780309 1.60541 0
M  V30 713 C 69.7047 1.56925 3.00379 0
M  V30 714 C 68.8777 2.84257 3.3244 0
M  V30 715 C 67.9367 2.71632 4.50669 0
M  V30 716 O 66.9627 3.4557 4.52294 0
M  V30 717 N 68.1647 1.83391 5.5077 0
M  V30 718 H 70.9297 2.58981 1.50828 0
M  V30 719 H 68.4907 1.4666 0.685743 0
M  V30 720 H 70.4827 1.46129 3.77397 0
M  V30 721 H 69.0527 0.683483 3.05037 0
M  V30 722 H 68.2727 3.09381 2.44289 0
M  V30 723 H 69.5607 3.68666 3.5066 0
M  V30 724 H 68.9587 1.22583 5.52259 0
M  V30 725 H 67.5157 1.78515 6.26878 0
M  V30 726 N 70.9488 -0.749086 1.3866 0
M  V30 727 C 71.9118 -1.84457 1.36045 0
M  V30 728 C 72.9118 -1.58682 0.260122 0
M  V30 729 O 74.1018 -1.66343 0.517261 0
M  V30 730 C 71.2338 -3.22008 1.11911 0
M  V30 731 H 72.4268 -1.88182 2.33512 0
M  V30 732 H 69.9798 -0.951266 1.24019 0
M  V30 733 H 70.7148 -3.2395 0.150686 0
M  V30 734 H 70.4998 -3.42111 1.91579 0
M  V30 735 H 71.9898 -4.0208 1.12788 0
M  V30 736 N 72.4269 -1.23603 -0.977757 0
M  V30 737 C 73.6749 -1.06759 -1.71601 0
M  V30 738 C 73.9959 0.395929 -1.90938 0
M  V30 739 O 73.2659 1.28356 -1.47992 0
M  V30 740 H 71.8459 -0.392062 -0.635843 0
M  V30 741 H 74.5079 -1.55362 -1.1768 0
M  V30 742 H 73.6039 -1.55763 -2.70452 0
M  V30 743 N 73.905 1.17692 -1.04816 0
M  V30 744 C 74.815 2.25229 -0.65643 0
M  V30 745 C 75.831 1.71018 0.320761 0
M  V30 746 O 77.007 2.00649 0.173805 0
M  V30 747 C 74.072 3.46684 -0.0332629 0
M  V30 748 C 73.133 4.15997 -1.06042 0
M  V30 749 C 72.366 5.31654 -0.466893 0
M  V30 750 O 72.589 5.65777 0.724758 0
M  V30 751 O 71.523 5.89831 -1.1993 0
M  V30 752 H 75.349 2.61016 -1.55255 0
M  V30 753 H 72.934 1.24919 -0.81949 0
M  V30 754 H 74.816 4.20234 0.313256 0
M  V30 755 H 73.491 3.12703 0.836566 0
M  V30 756 H 72.398 3.44482 -1.45886 0
M  V30 757 H 73.731 4.53996 -1.90127 0
M  V30 758 N 75.3831 0.828654 1.34056 0
M  V30 759 C 76.6231 0.425394 1.99924 0
M  V30 760 C 76.9871 -0.994294 1.64249 0
M  V30 761 O 78.1881 -1.50074 2.23005 0
M  V30 762 C 76.4591 0.628071 3.51838 0
M  V30 763 S 78.0181 0.318511 4.37642 0
M  V30 764 H 74.8361 0.160465 0.692656 0
M  V30 765 H 77.4381 1.07572 1.63244 0
M  V30 766 H 76.1421 1.66089 3.7529 0
M  V30 767 H 75.6731 -0.0367799 3.93383 0
M  V30 768 H 77.6881 -0.865632 4.88591 0
M  V30 769 N 76.8612 -1.46375 0.584142 0
M  V30 770 C 78.1072 -2.02678 0.0703716 0
M  V30 771 C 78.4402 -1.4545 -1.28678 0
M  V30 772 O 77.7152 -0.62014 -1.84349 0
M  V30 773 C 77.9982 -3.60099 0.00614674 0
M  V30 774 C 77.8512 -4.27709 1.3923 0
M  V30 775 C 79.1702 -4.34598 -0.693742 0
M  V30 776 H 76.2892 -0.736504 0.027047 0
M  V30 777 H 78.9312 -1.74501 0.751615 0
M  V30 778 H 77.0812 -3.84236 -0.574009 0
M  V30 779 H 78.7532 -4.14832 2.01773 0
M  V30 780 H 76.9962 -3.87016 1.95962 0
M  V30 781 H 77.6672 -5.36478 1.29982 0
M  V30 782 H 80.1432 -4.15615 -0.200869 0
M  V30 783 H 79.0192 -5.44318 -0.707714 0
M  V30 784 H 79.2802 -4.05759 -1.75533 0
M  V30 785 N 78.3393 -0.321999 -1.54275 0
M  V30 786 C 79.5643 0.285791 -2.05422 0
M  V30 787 C 79.9893 1.45124 -1.19669 0
M  V30 788 O 79.3473 1.80132 -0.205441 0
M  V30 789 C 79.3953 0.69956 -3.53749 0
M  V30 790 O 78.4993 1.8021 -3.70942 0
M  V30 791 H 77.8403 0.0518962 -0.661969 0
M  V30 792 H 80.3703 -0.469954 -1.9913 0
M  V30 793 H 80.3803 0.982649 -3.9599 0
M  V30 794 H 79.0553 -0.152864 -4.15619 0
M  V30 795 H 77.6323 1.51794 -3.40607 0
M  V30 796 N 79.8174 1.5752 -0.0501392 0
M  V30 797 C 81.0634 1.92936 0.624798 0
M  V30 798 C 81.3964 0.928685 1.70555 0
M  V30 799 O 80.6714 -0.0454779 1.94447 0
M  V30 800 C 80.9544 3.38737 1.22185 0
M  V30 801 C 80.8074 4.49552 0.149218 0
M  V30 802 C 82.1264 3.84913 2.13378 0
M  V30 803 H 79.2454 0.701604 0.225657 0
M  V30 804 H 81.8874 1.89671 -0.111693 0
M  V30 805 H 80.0374 3.4165 1.84953 0
M  V30 806 H 81.7094 4.58768 -0.482648 0
M  V30 807 H 79.9524 4.30638 -0.522841 0
M  V30 808 H 80.6234 5.48653 0.606966 0
M  V30 809 H 83.0994 3.8387 1.60572 0
M  V30 810 H 81.9754 4.87584 2.52097 0
M  V30 811 H 82.2364 3.21611 3.03346 0
M  V30 812 N 81.2955 -0.223234 1.56011 0
M  V30 813 C 82.2275 -1.30006 1.88762 0
M  V30 814 C 83.2405 -1.43129 0.775746 0
M  V30 815 O 84.4295 -1.44057 1.05403 0
M  V30 816 C 81.5295 -2.67589 2.07965 0
M  V30 817 C 80.7025 -2.76434 3.38973 0
M  V30 818 C 79.7615 -3.95019 3.47629 0
M  V30 819 O 78.7875 -3.83436 4.20672 0
M  V30 820 N 79.9895 -5.09249 2.78649 0
M  V30 821 H 82.7545 -1.02238 2.81722 0
M  V30 822 H 80.3155 -0.413278 1.56536 0
M  V30 823 H 82.3075 -3.45297 2.11073 0
M  V30 824 H 80.8775 -2.87964 1.21638 0
M  V30 825 H 80.0975 -1.85216 3.47978 0
M  V30 826 H 81.3855 -2.79313 4.25278 0
M  V30 827 H 80.7835 -5.21556 2.19081 0
M  V30 828 H 79.3405 -5.85007 2.8742 0
M  V30 829 N 82.7736 -1.49793 -0.48987 0
M  V30 830 C 83.7036 -1.70201 -1.59856 0
M  V30 831 C 84.6846 -0.55076 -1.60937 0
M  V30 832 O 85.8696 -0.787841 -1.77501 0
M  V30 833 C 82.9996 -1.77882 -2.98287 0
M  V30 834 C 81.9536 -2.92907 -3.12073 0
M  V30 835 C 81.2796 -2.85712 -4.51965 0
M  V30 836 C 82.5796 -4.3369 -2.91051 0
M  V30 837 H 84.2736 -2.63025 -1.43032 0
M  V30 838 H 81.8196 -1.26574 -0.686664 0
M  V30 839 H 83.7726 -1.90744 -3.75759 0
M  V30 840 H 82.4966 -0.816653 -3.16225 0
M  V30 841 H 81.1556 -2.79665 -2.37029 0
M  V30 842 H 80.8036 -1.8738 -4.66795 0
M  V30 843 H 80.5036 -3.62921 -4.62128 0
M  V30 844 H 82.0276 -3.00598 -5.31482 0
M  V30 845 H 83.4416 -4.47555 -3.58284 0
M  V30 846 H 81.8386 -5.12205 -3.12675 0
M  V30 847 H 82.9086 -4.47362 -1.87071 0
M  V30 848 N 84.2517 0.741722 -1.39055 0
M  V30 849 C 85.5007 1.49656 -1.35225 0
M  V30 850 C 85.8137 1.95533 0.0512708 0
M  V30 851 O 87.0197 2.7067 0.212138 0
M  V30 852 C 85.4757 2.70389 -2.37525 0
M  V30 853 C 85.0837 2.31489 -3.83558 0
M  V30 854 C 86.8277 3.48236 -2.42759 0
M  V30 855 C 84.7347 3.48903 -4.77515 0
M  V30 856 H 83.6647 0.56197 -0.502699 0
M  V30 857 H 86.3157 0.809727 -1.64668 0
M  V30 858 H 84.6977 3.41113 -2.01142 0
M  V30 859 H 85.8717 1.68354 -4.28945 0
M  V30 860 H 84.1867 1.66749 -3.81554 0
M  V30 861 H 86.7837 4.35558 -3.1015 0
M  V30 862 H 87.1267 3.90229 -1.45008 0
M  V30 863 H 87.6597 2.84535 -2.78002 0
M  V30 864 H 84.3987 3.11966 -5.76504 0
M  V30 865 H 83.9187 4.11041 -4.36813 0
M  V30 866 H 85.5977 4.15328 -4.96096 0
M  V30 867 N 85.7298 1.2412 0.971189 0
M  V30 868 C 86.6598 1.05508 2.08304 0
M  V30 869 C 87.6408 -0.0308864 1.70072 0
M  V30 870 O 88.8258 0.135521 1.93727 0
M  V30 871 C 85.9558 0.655365 3.4106 0
M  V30 872 C 84.9098 1.68971 3.93234 0
M  V30 873 C 84.2358 1.14516 5.22293 0
M  V30 874 C 85.5358 3.08487 4.21465 0
M  V30 875 H 87.2298 1.98507 2.24132 0
M  V30 876 H 84.7758 0.955821 1.07704 0
M  V30 877 H 86.7288 0.51217 4.18276 0
M  V30 878 H 85.4528 -0.31032 3.25122 0
M  V30 879 H 84.1118 1.82106 3.18171 0
M  V30 880 H 83.7598 0.170189 5.02712 0
M  V30 881 H 83.4598 1.83635 5.58168 0
M  V30 882 H 84.9838 1.01401 6.02121 0
M  V30 883 H 86.3978 2.98601 4.89398 0
M  V30 884 H 84.7948 3.74926 4.68562 0
M  V30 885 H 85.8648 3.56787 3.28376 0
M  V30 886 N 87.2079 -1.17134 1.05439 0
M  V30 887 C 88.1179 -2.24878 0.668365 0
M  V30 888 C 89.1339 -1.71186 -0.311687 0
M  V30 889 O 90.3099 -2.00738 -0.163161 0
M  V30 890 C 87.3749 -3.46662 0.051648 0
M  V30 891 C 86.4359 -4.15429 1.08246 0
M  V30 892 C 85.6689 -5.31399 0.495082 0
M  V30 893 O 85.8919 -5.66153 -0.694743 0
M  V30 894 O 84.8259 -5.89187 1.23056 0
M  V30 895 H 88.6519 -2.60189 1.56637 0
M  V30 896 H 86.2369 -1.24482 0.826104 0
M  V30 897 H 88.1189 -4.20394 -0.290966 0
M  V30 898 H 86.7939 -3.13142 -0.819971 0
M  V30 899 H 85.7009 -3.43704 1.47711 0
M  V30 900 H 87.0339 -4.52982 1.92532 0
M  V30 901 N 88.686 -0.835752 -1.33615 0
M  V30 902 C 89.634 -0.255238 -2.31195 0
M  V30 903 C 90.628 0.61107 -1.57995 0
M  V30 904 O 91.834 0.500979 -1.72888 0
M  V30 905 H 88.209 -0.0638085 -0.749288 0
M  V30 906 H 90.18 -1.09283 -2.77669 0
M  V30 907 C 88.929 0.55754 -3.43201 0
M  V30 908 H 88.252 -0.0997553 -3.99676 0
M  V30 909 H 89.692 0.929622 -4.13683 0
M  V30 910 C 88.151 1.73515 -2.88781 0
M  V30 911 O 88.681 2.83376 -2.84712 0
M  V30 912 N 86.887 1.55603 -2.4543 0
M  V30 913 H 86.434 0.662354 -2.48939 0
M  V30 914 H 86.392 2.34545 -2.09371 0
M  V30 915 N 90.1641 1.46063 -0.591896 0
M  V30 916 C 91.4121 2.01938 -0.0808391 0
M  V30 917 C 91.7331 1.46475 1.28725 0
M  V30 918 O 91.0031 0.652944 1.84698 0
M  V30 919 H 89.5831 0.746516 -0.0268938 0
M  V30 920 H 92.2451 1.79055 -0.769752 0
M  V30 921 H 91.3411 3.12094 -0.0187578 0
M  V30 922 N 91.6422 0.330177 1.54103 0
M  V30 923 C 92.6052 -0.520144 2.2322 0
M  V30 924 C 93.6052 -1.03828 1.22786 0
M  V30 925 O 94.7952 -0.929652 1.4732 0
M  V30 926 C 91.9272 -1.72317 2.94142 0
M  V30 927 H 93.1202 0.0841605 2.99782 0
M  V30 928 H 90.6732 0.0813433 1.56088 0
M  V30 929 H 91.4082 -2.36653 2.21734 0
M  V30 930 H 91.1932 -1.35898 3.67796 0
M  V30 931 H 92.6832 -2.3266 3.46784 0
M  V30 932 N 93.1203 -1.57491 0.0584922 0
M  V30 933 C 94.3663 -1.93264 -0.614558 0
M  V30 934 C 94.6993 -0.937717 -1.7006 0
M  V30 935 O 93.9743 0.0351652 -1.94468 0
M  V30 936 C 94.2573 -3.3938 -1.20386 0
M  V30 937 C 94.1103 -4.49625 -0.125375 0
M  V30 938 C 95.4293 -3.86039 -2.11334 0
M  V30 939 H 92.5483 -0.702791 -0.221933 0
M  V30 940 H 95.1903 -1.8961 0.12175 0
M  V30 941 H 93.3403 -3.42626 -1.83139 0
M  V30 942 H 95.0123 -4.58506 0.506971 0
M  V30 943 H 93.2553 -4.30354 0.545672 0
M  V30 944 H 93.9263 -5.48967 -0.577861 0
M  V30 945 H 96.4023 -3.84716 -1.58534 0
M  V30 946 H 95.2783 -4.88914 -2.49507 0
M  V30 947 H 95.5393 -3.23215 -3.01636 0
M  V30 948 N 94.5984 0.214957 -1.56127 0
M  V30 949 C 95.5614 1.24997 -1.92116 0
M  V30 950 C 96.5614 1.39467 -0.800344 0
M  V30 951 O 97.7514 1.37619 -1.06802 0
M  V30 952 C 94.8834 2.62271 -2.17777 0
M  V30 953 H 96.0764 0.942875 -2.84693 0
M  V30 954 H 93.6294 0.455654 -1.49511 0
M  V30 955 H 94.3644 2.98068 -1.27773 0
M  V30 956 H 94.1494 2.53143 -2.99434 0
M  V30 957 H 95.6394 3.36946 -2.46693 0
M  V30 958 N 96.0765 1.50051 0.48192 0
M  V30 959 C 97.3225 1.60736 1.2366 0
M  V30 960 C 97.6555 0.301786 1.91841 0
M  V30 961 O 96.9305 -0.696025 1.8162 0
M  V30 962 C 97.2135 2.78009 2.28874 0
M  V30 963 C 97.0665 4.18416 1.65069 0
M  V30 964 C 98.3855 2.90867 3.30279 0
M  V30 965 H 95.5045 0.585031 0.448228 0
M  V30 966 H 98.1465 1.82402 0.531946 0
M  V30 967 H 96.2965 2.59667 2.88973 0
M  V30 968 H 97.9685 4.48322 1.0865 0
M  V30 969 H 96.2115 4.23177 0.954148 0
M  V30 970 H 96.8825 4.96381 2.41474 0
M  V30 971 H 99.3585 3.07623 2.80191 0
M  V30 972 H 98.2345 3.74566 4.01238 0
M  V30 973 H 98.4955 2.01021 3.93755 0
M  V30 974 N 97.5546 -0.734337 1.39446 0
M  V30 975 C 98.8026 -1.49096 1.36436 0
M  V30 976 C 99.1236 -1.94961 -0.0388255 0
M  V30 977 O 98.3936 -1.69033 -0.990191 0
M  V30 978 H 96.9736 -0.5531 0.502085 0
M  V30 979 H 99.6356 -0.871725 1.74319 0
M  V30 980 H 98.7316 -2.37276 2.02747 0
M  V30 981 N 99.0327 -1.24633 -0.964593 0
M  V30 982 C 100.31 -0.995809 -1.68354 0
M  V30 983 C 100.69 0.480964 -2.05548 0
M  V30 984 O 100.038 1.45599 -1.76105 0
M  V30 985 C 100.248 -1.92177 -2.91323 0
M  V30 986 C 101.596 -2.19446 -3.63495 0
M  V30 987 O 102.62 -1.89855 -3.01386 0
M  V30 988 O 101.479 -2.69714 -4.75307 0
M  V30 989 H 98.5727 -0.376854 -0.736146 0
M  V30 990 H 101.119 -1.35745 -1.0184 0
M  V30 991 H 99.8907 -2.91938 -2.60553 0
M  V30 992 H 99.5137 -1.56349 -3.65569 0
M  V30 993 N 100.511 1.16574 -1.06058 0
M  V30 994 C 101.751 1.88723 -0.78504 0
M  V30 995 C 102.115 1.79706 0.676006 0
M  V30 996 O 103.316 2.46757 1.06603 0
M  V30 997 C 101.587 3.34338 -1.26304 0
M  V30 998 S 103.146 4.24366 -1.1162 0
M  V30 999 H 99.9638 0.651448 -0.284846 0
M  V30 1000 H 102.566 1.40732 -1.35701 0
M  V30 1001 H 101.27 3.38439 -2.32136 0
M  V30 1002 H 100.801 3.87378 -0.685719 0
M  V30 1003 H 102.816 4.96179 -0.0456539 0
M  V30 1004 N 101.989 0.842826 1.3317 0
M  V30 1005 C 102.952 0.284065 2.27433 0
M  V30 1006 C 103.952 -0.54948 1.5112 0
M  V30 1007 O 105.142 -0.362699 1.70382 0
M  V30 1008 C 102.274 -0.599384 3.35589 0
M  V30 1009 H 103.467 1.11589 2.78366 0
M  V30 1010 H 101.02 0.616221 1.4364 0
M  V30 1011 H 101.755 -1.45349 2.89904 0
M  V30 1012 H 101.54 -0.00291266 3.921 0
M  V30 1013 H 103.03 -0.983488 4.05854 0
M  V30 1014 N 103.467 -1.45747 0.599634 0
M  V30 1015 C 104.43 -2.28917 -0.113835 0
M  V30 1016 C 105.43 -1.3933 -0.802729 0
M  V30 1017 O 106.62 -1.61534 -0.652103 0
M  V30 1018 C 103.752 -3.20152 -1.17114 0
M  V30 1019 H 104.945 -2.93478 0.617289 0
M  V30 1020 H 102.498 -1.52137 0.358327 0
M  V30 1021 H 103.233 -2.60374 -1.93329 0
M  V30 1022 H 103.018 -3.86133 -0.681468 0
M  V30 1023 H 104.508 -3.82708 -1.67105 0
M  V30 1024 N 104.945 -0.338344 -1.53925 0
M  V30 1025 C 106.191 0.260143 -2.01125 0
M  V30 1026 C 106.524 1.50617 -1.22589 0
M  V30 1027 O 105.799 1.91979 -0.312113 0
M  V30 1028 C 106.082 0.579499 -3.55407 0
M  V30 1029 C 105.935 -0.678264 -4.44657 0
M  V30 1030 C 107.254 1.39122 -4.17532 0
M  V30 1031 H 104.373 0.0930772 -0.731099 0
M  V30 1032 H 107.015 -0.457852 -1.84401 0
M  V30 1033 H 105.165 1.19118 -3.69788 0
M  V30 1034 H 106.837 -1.31631 -4.42121 0
M  V30 1035 H 105.08 -1.3042 -4.13731 0
M  V30 1036 H 105.751 -0.410143 -5.50474 0
M  V30 1037 H 108.227 0.874035 -4.06817 0
M  V30 1038 H 107.103 1.58342 -5.25565 0
M  V30 1039 H 107.364 2.39178 -3.71815 0
M  V30 1040 N 106.423 1.57458 -0.0668435 0
M  V30 1041 C 107.355 2.09413 0.931601 0
M  V30 1042 C 108.368 1.02522 1.26464 0
M  V30 1043 O 109.557 1.30049 1.22269 0
M  V30 1044 C 106.657 2.53537 2.24882 0
M  V30 1045 C 105.83 3.83944 2.09537 0
M  V30 1046 C 104.889 4.14214 3.2452 0
M  V30 1047 O 103.915 4.83891 2.9973 0
M  V30 1048 N 105.117 3.67367 4.49469 0
M  V30 1049 H 107.882 2.95699 0.488048 0
M  V30 1050 H 105.443 1.61462 0.119009 0
M  V30 1051 H 107.435 2.70853 3.00701 0
M  V30 1052 H 106.005 1.72415 2.60753 0
M  V30 1053 H 105.225 3.76057 1.18215 0
M  V30 1054 H 106.513 4.69312 1.96529 0
M  V30 1055 H 105.911 3.11068 4.72497 0
M  V30 1056 H 104.468 3.89891 5.2233 0
M  V30 1057 N 107.901 -0.206675 1.56239 0
M  V30 1058 C 109.131 -0.943975 1.83773 0
M  V30 1059 C 109.539 -1.77841 0.645703 0
M  V30 1060 O 108.882 -1.79403 -0.395008 0
M  V30 1061 C 108.944 -1.899 3.05251 0
M  V30 1062 C 108.608 -1.24764 4.39639 0
M  V30 1063 C 109.605 -0.630216 5.16066 0
M  V30 1064 C 107.29 -1.25496 4.8637 0
M  V30 1065 C 109.284 -0.0287946 6.37393 0
M  V30 1066 C 106.971 -0.649698 6.07637 0
M  V30 1067 C 107.969 -0.0376845 6.8299 0
M  V30 1068 O 107.657 0.55812 8.0196 0
M  V30 1069 H 107.389 -0.281508 0.614597 0
M  V30 1070 H 109.943 -0.222458 2.04192 0
M  V30 1071 H 108.173 -2.6599 2.80689 0
M  V30 1072 H 109.862 -2.5031 3.1953 0
M  V30 1073 H 110.628 -0.616785 4.81062 0
M  V30 1074 H 106.507 -1.72072 4.27683 0
M  V30 1075 H 110.051 0.449518 6.9615 0
M  V30 1076 H 105.948 -0.660592 6.42111 0
M  V30 1077 H 106.716 0.453891 8.17241 0
M  V30 1078 N 109.379 -1.50304 -0.473955 0
M  V30 1079 C 110.604 -1.65175 -1.25427 0
M  V30 1080 C 111.029 -0.333673 -1.85117 0
M  V30 1081 O 110.387 0.702114 -1.67153 0
M  V30 1082 C 110.435 -2.74295 -2.34082 0
M  V30 1083 O 109.539 -2.35349 -3.38651 0
M  V30 1084 H 108.88 -0.551944 -0.369126 0
M  V30 1085 H 111.41 -1.96662 -0.564364 0
M  V30 1086 H 111.42 -2.97285 -2.79438 0
M  V30 1087 H 110.095 -3.69959 -1.90008 0
M  V30 1088 H 108.672 -2.22794 -2.99027 0
M  V30 1089 N 110.857 0.726932 -1.39834 0
M  V30 1090 C 112.105 1.4837 -1.37225 0
M  V30 1091 C 112.426 1.94979 0.0284857 0
M  V30 1092 O 111.696 1.69555 0.981213 0
M  V30 1093 H 110.276 0.55043 -0.505011 0
M  V30 1094 H 112.938 0.862468 -1.74778 0
M  V30 1095 H 112.034 2.36198 -2.04003 0
M  V30 1096 N 112.336 1.25143 0.95797 0
M  V30 1097 C 113.299 1.05321 2.03569 0
M  V30 1098 C 114.299 0.007152 1.60798 0
M  V30 1099 O 115.489 0.24903 1.72411 0
M  V30 1100 C 112.621 0.598394 3.35607 0
M  V30 1101 H 113.814 2.00986 2.22586 0
M  V30 1102 H 111.367 1.07502 1.13459 0
M  V30 1103 H 112.102 -0.361014 3.22284 0
M  V30 1104 H 111.887 1.35351 3.67998 0
M  V30 1105 H 113.377 0.48104 4.1482 0
M  V30 1106 N 113.814 -1.1601 1.06675 0
M  V30 1107 C 115.062 -1.86264 0.784229 0
M  V30 1108 C 115.383 -1.82328 -0.691488 0
M  V30 1109 O 114.653 -1.25947 -1.50047 0
M  V30 1110 H 113.233 -0.689621 0.28711 0
M  V30 1111 H 115.895 -1.40664 1.34906 0
M  V30 1112 H 114.991 -2.91595 1.11259 0
M  V30 1113 N 115.292 -0.849877 -1.32721 0
M  V30 1114 C 116.54 -0.450032 -1.97026 0
M  V30 1115 C 116.861 0.996604 -1.67609 0
M  V30 1116 O 116.131 1.6958 -0.980786 0
M  V30 1117 H 114.711 -0.163426 -0.728904 0
M  V30 1118 H 117.373 -1.08526 -1.6189 0
M  V30 1119 H 116.469 -0.591146 -3.0645 0
M  V30 1120 N 116.77 1.45427 -0.607355 0
M  V30 1121 C 118.186 1.57283 -0.270985 0
M  V30 1122 C 118.386 1.59875 1.22647 0
M  V30 1123 O 117.442 1.52893 2.00948 0
M  V30 1124 C 118.755 2.85566 -0.941952 0
M  V30 1125 C 120.303 2.9924 -0.917849 0
M  V30 1126 C 120.778 4.30293 -1.56882 0
M  V30 1127 N 122.269 4.37051 -1.5343 0
M  V30 1128 C 123.004 5.37123 -2.00715 0
M  V30 1129 N 122.5 6.43734 -2.56084 0
M  V30 1130 N 124.293 5.28479 -1.91484 0
M  V30 1131 H 116.444 1.41988 -1.57966 0
M  V30 1132 H 118.707 0.67885 -0.661715 0
M  V30 1133 H 118.413 2.8955 -1.99633 0
M  V30 1134 H 118.287 3.74322 -0.465096 0
M  V30 1135 H 120.674 2.94822 0.127984 0
M  V30 1136 H 120.755 2.11895 -1.43297 0
M  V30 1137 H 120.399 4.35469 -2.61398 0
M  V30 1138 H 120.329 5.16454 -1.02873 0
M  V30 1139 H 122.82 3.60615 -1.12982 0
M  V30 1140 H 123.133 7.16341 -2.89958 0
M  V30 1141 H 121.478 6.44485 -2.60122 0
M  V30 1142 H 124.669 4.44098 -1.47967 0
M  V30 1143 H 124.842 6.0632 -2.28648 0
M  V30 1144 N 118.248 0.346503 1.53744 0
M  V30 1145 C 119.525 -0.304532 1.93215 0
M  V30 1146 C 119.905 -1.67993 1.27834 0
M  V30 1147 O 119.253 -2.24411 0.430352 0
M  V30 1148 C 119.463 -0.373852 3.46992 0
M  V30 1149 C 120.811 -0.62329 4.2 0
M  V30 1150 O 121.835 -0.455847 3.53271 0
M  V30 1151 O 120.694 -0.947879 5.38217 0
M  V30 1152 H 117.788 -0.178318 0.807547 0
M  V30 1153 H 120.334 0.397895 1.64969 0
M  V30 1154 H 119.106 0.591224 3.86808 0
M  V30 1155 H 118.729 -1.12294 3.81413 0
M  V30 1156 N 119.726 -1.57421 0.075193 0
M  V30 1157 C 121.137 -1.81021 -0.456964 0
M  V30 1158 C 121.488 -0.98936 -1.69429 0
M  V30 1159 O 120.613 -0.212865 -2.15351 0
M  V30 1160 C 121.208 -3.28329 -0.83581 0
M  V30 1161 C 119.767 -3.52764 -1.31281 0
M  V30 1162 C 118.914 -2.75676 -0.299648 0
M  V30 1163 H 121.865 -1.55822 0.300856 0
M  V30 1164 H 121.886 -3.40564 -1.69696 0
M  V30 1165 H 121.398 -3.88046 0.0649238 0
M  V30 1166 H 119.499 -2.98355 -2.23193 0
M  V30 1167 H 119.612 -4.61451 -1.28839 0
M  V30 1168 H 117.976 -2.42538 -0.777641 0
M  V30 1169 H 118.759 -3.38132 0.593417 0
M  V30 1170 N 121.204 0.198386 -1.56346 0
M  V30 1171 C 122.134 1.24865 -1.9731 0
M  V30 1172 C 123.115 1.47651 -0.844576 0
M  V30 1173 O 124.3 1.59444 -1.10866 0
M  V30 1174 C 121.43 2.59358 -2.30977 0
M  V30 1175 C 120.384 2.5119 -3.46537 0
M  V30 1176 C 119.71 3.89926 -3.65871 0
M  V30 1177 C 121.01 2.03977 -4.80823 0
M  V30 1178 H 122.704 0.908252 -2.85291 0
M  V30 1179 H 120.25 0.435462 -1.37258 0
M  V30 1180 H 122.203 3.33011 -2.58228 0
M  V30 1181 H 120.927 2.95132 -1.39874 0
M  V30 1182 H 119.586 1.79993 -3.19371 0
M  V30 1183 H 119.234 4.23046 -2.72105 0
M  V30 1184 H 118.934 3.85336 -4.4361 0
M  V30 1185 H 120.458 4.65205 -3.95495 0
M  V30 1186 H 121.872 2.67386 -5.07127 0
M  V30 1187 H 120.269 2.10397 -5.62008 0
M  V30 1188 H 121.339 0.992861 -4.74626 0
M  V30 1189 N 122.682 1.50554 0.465978 0
M  V30 1190 C 123.929 1.61798 1.21768 0
M  V30 1191 C 124.257 0.320696 1.91838 0
M  V30 1192 O 123.512 -0.693724 1.82992 0
M  V30 1193 C 123.811 2.75152 2.28093 0
M  V30 1194 C 123.477 4.15454 1.75239 0
M  V30 1195 C 122.139 4.53628 1.60546 0
M  V30 1196 C 124.491 5.03121 1.36083 0
M  V30 1197 C 121.819 5.77204 1.05128 0
M  V30 1198 C 124.171 6.27249 0.821056 0
M  V30 1199 C 122.835 6.64221 0.660795 0
M  V30 1200 H 122.105 0.592063 0.445582 0
M  V30 1201 H 124.752 1.84503 0.512927 0
M  V30 1202 H 123.057 2.46556 3.04496 0
M  V30 1203 H 124.754 2.81055 2.86023 0
M  V30 1204 H 121.344 3.85341 1.87644 0
M  V30 1205 H 125.528 4.74257 1.46267 0
M  V30 1206 H 120.784 6.0452 0.91462 0
M  V30 1207 H 124.958 6.94537 0.509018 0
M  V30 1208 H 122.585 7.59854 0.229226 0
M  V30 1209 N 124.16 -0.719506 1.40217 0
M  V30 1210 C 125.09 -1.8465 1.42922 0
M  V30 1211 C 126.071 -1.67599 0.29062 0
M  V30 1212 O 127.256 -1.87688 0.498677 0
M  V30 1213 C 124.386 -3.22565 1.28722 0
M  V30 1214 C 123.34 -3.54281 2.40144 0
M  V30 1215 C 122.666 -4.91298 2.11023 0
M  V30 1216 C 123.966 -3.55676 3.82481 0
M  V30 1217 H 125.66 -1.82644 2.37237 0
M  V30 1218 H 123.206 -0.877305 1.1419 0
M  V30 1219 H 125.159 -4.01095 1.29232 0
M  V30 1220 H 123.883 -3.25137 0.308811 0
M  V30 1221 H 122.542 -2.78088 2.38877 0
M  V30 1222 H 122.19 -4.90468 1.11582 0
M  V30 1223 H 121.89 -5.13485 2.8567 0
M  V30 1224 H 123.414 -5.72166 2.13209 0
M  V30 1225 H 124.828 -4.24254 3.85592 0
M  V30 1226 H 123.225 -3.89388 4.56614 0
M  V30 1227 H 124.295 -2.55144 4.12346 0
M  V30 1228 N 125.638 -1.25649 -0.95132 0
M  V30 1229 C 126.601 -1.06399 -2.03007 0
M  V30 1230 C 127.601 -0.0156794 -1.60792 0
M  V30 1231 O 128.791 -0.25817 -1.72276 0
M  V30 1232 C 125.923 -0.616184 -3.35285 0
M  V30 1233 H 127.116 -2.02164 -2.21517 0
M  V30 1234 H 124.669 -1.08103 -1.12887 0
M  V30 1235 H 125.404 0.343917 -3.22471 0
M  V30 1236 H 125.189 -1.37301 -3.67275 0
M  V30 1237 H 126.679 -0.503032 -4.14559 0
M  V30 1238 N 127.117 1.15442 -1.07289 0
M  V30 1239 C 128.027 2.23786 -0.704057 0
M  V30 1240 C 129.043 1.7166 0.284413 0
M  V30 1241 O 130.219 2.00972 0.131205 0
M  V30 1242 C 127.284 3.46535 -0.106792 0
M  V30 1243 C 126.345 4.13654 -1.14842 0
M  V30 1244 C 125.578 5.30544 -0.57956 0
M  V30 1245 O 125.801 5.67187 0.604585 0
M  V30 1246 O 124.735 5.87154 -1.32414 0
M  V30 1247 H 128.561 2.57664 -1.60757 0
M  V30 1248 H 126.146 1.23152 -0.845803 0
M  V30 1249 H 128.028 4.20804 0.224048 0
M  V30 1250 H 126.703 3.14407 0.770049 0
M  V30 1251 H 125.61 3.4131 -1.5316 0
M  V30 1252 H 126.943 4.49861 -1.99714 0
M  V30 1253 N 128.595 0.856903 1.32268 0
M  V30 1254 C 129.545 0.274899 2.26337 0
M  V30 1255 C 130.529 -0.580543 1.50062 0
M  V30 1256 O 131.721 -0.429559 1.71708 0
M  V30 1257 C 128.85 -0.533841 3.39124 0
M  V30 1258 C 127.936 0.334114 4.22782 0
M  V30 1259 N 128.327 1.42143 4.85416 0
M  V30 1260 C 126.625 0.124256 4.45827 0
M  V30 1261 C 127.326 1.95559 5.47843 0
M  V30 1262 N 126.302 1.25444 5.28928 0
M  V30 1263 H 130.104 1.10612 2.72291 0
M  V30 1264 H 127.618 0.703258 1.46383 0
M  V30 1265 H 129.615 -0.96722 4.05525 0
M  V30 1266 H 128.275 -1.36283 2.94715 0
M  V30 1267 H 129.286 1.80436 4.85451 0
M  V30 1268 H 125.963 -0.669837 4.12092 0
M  V30 1269 H 127.353 2.86714 6.07655 0
M  V30 1270 N 130.073 -1.45103 0.615059 0
M  V30 1271 C 131.32 -2.02183 0.113179 0
M  V30 1272 C 131.648 -1.48249 -1.25906 0
M  V30 1273 O 130.903 -0.650265 -1.84581 0
M  V30 1274 C 131.202 -3.57386 0.0318797 0
M  V30 1275 C 130.868 -4.30505 1.34077 0
M  V30 1276 C 129.53 -4.50197 1.69929 0
M  V30 1277 C 131.882 -4.72238 2.20546 0
M  V30 1278 C 129.21 -5.08881 2.91988 0
M  V30 1279 C 131.562 -5.32272 3.41861 0
M  V30 1280 C 130.226 -5.50187 3.77956 0
M  V30 1281 H 129.496 -0.739842 0.0414151 0
M  V30 1282 H 132.143 -1.74073 0.798168 0
M  V30 1283 H 130.448 -3.84817 -0.736409 0
M  V30 1284 H 132.145 -3.99264 -0.372712 0
M  V30 1285 H 128.735 -4.15496 1.05173 0
M  V30 1286 H 132.919 -4.56751 1.94146 0
M  V30 1287 H 128.175 -5.20939 3.2005 0
M  V30 1288 H 132.349 -5.63563 4.09109 0
M  V30 1289 H 129.976 -5.95427 4.72622 0
M  V30 1290 N 131.551 -0.354651 -1.53558 0
M  V30 1291 C 132.8 0.239504 -2.00273 0
M  V30 1292 C 133.113 1.50759 -1.24623 0
M  V30 1293 O 134.319 2.17968 -1.61871 0
M  V30 1294 C 132.775 0.477341 -3.5672 0
M  V30 1295 C 132.383 -0.775488 -4.41237 0
M  V30 1296 C 134.127 1.02975 -4.11821 0
M  V30 1297 C 132.034 -0.507838 -5.89216 0
M  V30 1298 H 130.964 0.0932743 -0.748208 0
M  V30 1299 H 133.615 -0.471701 -1.77334 0
M  V30 1300 H 131.997 1.24953 -3.7577 0
M  V30 1301 H 133.171 -1.54963 -4.33962 0
M  V30 1302 H 131.486 -1.25033 -3.97185 0
M  V30 1303 H 134.083 1.24513 -5.2 0
M  V30 1304 H 134.426 1.98862 -3.65731 0
M  V30 1305 H 134.959 0.317994 -3.96527 0
M  V30 1306 H 131.698 -1.43674 -6.39561 0
M  V30 1307 H 131.218 0.228011 -5.99366 0
M  V30 1308 H 132.897 -0.129238 -6.46871 0
M  V30 1309 N 133.029 1.57378 -0.0835403 0
M  V30 1310 C 134.44 1.81261 0.447358 0
M  V30 1311 C 134.791 0.998331 1.68902 0
M  V30 1312 O 133.916 0.224282 2.15235 0
M  V30 1313 C 134.511 3.28767 0.818386 0
M  V30 1314 C 133.07 3.53455 1.29409 0
M  V30 1315 C 132.217 2.75831 0.285024 0
M  V30 1316 H 135.168 1.5566 -0.309115 0
M  V30 1317 H 135.189 3.41459 1.67887 0
M  V30 1318 H 134.701 3.88006 -0.0855019 0
M  V30 1319 H 132.802 2.99534 2.21608 0
M  V30 1320 H 132.915 4.62128 1.2639 0
M  V30 1321 H 131.279 2.42947 0.764767 0
M  V30 1322 H 132.062 3.37813 -0.611341 0
M  V30 1323 N 134.507 -0.190092 1.56449 0
M  V30 1324 C 135.754 -0.909705 1.80916 0
M  V30 1325 C 136.082 -1.83047 0.657583 0
M  V30 1326 O 135.337 -1.92428 -0.356356 0
M  V30 1327 C 135.636 -1.75382 3.1141 0
M  V30 1328 C 135.302 -0.983606 4.40041 0
M  V30 1329 C 133.964 -0.770967 4.74984 0
M  V30 1330 C 136.316 -0.442024 5.19322 0
M  V30 1331 C 133.644 -0.0053448 5.867 0
M  V30 1332 C 135.996 0.310412 6.31838 0
M  V30 1333 C 134.66 0.534023 6.6536 0
M  V30 1334 H 133.93 -0.332885 0.662019 0
M  V30 1335 H 136.577 -0.175762 1.90692 0
M  V30 1336 H 134.882 -2.55659 2.96893 0
M  V30 1337 H 136.579 -2.31331 3.27547 0
M  V30 1338 H 133.169 -1.15936 4.12622 0
M  V30 1339 H 137.353 -0.593693 4.92736 0
M  V30 1340 H 132.609 0.177825 6.11141 0
M  V30 1341 H 136.783 0.737419 6.92485 0
M  V30 1342 H 134.41 1.12918 7.51767 0
M  V30 1343 N 135.985 -1.50799 -0.457987 0
M  V30 1344 C 136.915 -1.73553 -1.5621 0
M  V30 1345 C 137.896 -0.584774 -1.59732 0
M  V30 1346 O 139.081 -0.825314 -1.7579 0
M  V30 1347 C 136.211 -1.84169 -2.94447 0
M  V30 1348 C 135.165 -2.99461 -3.0579 0
M  V30 1349 C 134.491 -2.95235 -4.45803 0
M  V30 1350 C 135.791 -4.39766 -2.81786 0
M  V30 1351 H 137.485 -2.66 -1.37421 0
M  V30 1352 H 135.031 -1.28002 -0.659662 0
M  V30 1353 H 136.984 -1.98672 -3.71628 0
M  V30 1354 H 135.708 -0.883545 -3.14422 0
M  V30 1355 H 134.367 -2.8463 -2.31044 0
M  V30 1356 H 134.015 -1.97239 -4.62715 0
M  V30 1357 H 133.715 -3.72642 -4.54326 0
M  V30 1358 H 135.239 -3.11803 -5.24987 0
M  V30 1359 H 136.653 -4.55054 -3.4871 0
M  V30 1360 H 135.05 -5.18722 -3.0174 0
M  V30 1361 H 136.12 -4.51229 -1.7754 0
M  V30 1362 N 137.463 0.71206 -1.40597 0
M  V30 1363 C 138.411 1.84746 -1.41321 0
M  V30 1364 C 139.405 1.66842 -0.293268 0
M  V30 1365 O 140.611 1.73904 -0.464481 0
M  V30 1366 H 136.986 0.608522 -0.441819 0
M  V30 1367 H 138.957 1.81252 -2.37045 0
M  V30 1368 C 137.706 3.22638 -1.29614 0
M  V30 1369 H 137.029 3.37023 -2.15071 0
M  V30 1370 H 138.469 4.02209 -1.3418 0
M  V30 1371 C 136.928 3.36899 -0.00673121 0
M  V30 1372 O 137.458 3.90186 0.954859 0
M  V30 1373 N 135.664 2.9053 0.0639327 0
M  V30 1374 H 135.211 2.47353 -0.719311 0
M  V30 1375 H 135.169 3.0045 0.926118 0
M  V30 1376 N 138.941 1.26152 0.944643 0
M  V30 1377 C 140.218 1.02247 1.66748 0
M  V30 1378 C 140.598 -0.448202 2.06287 0
M  V30 1379 O 139.946 -1.42779 1.78399 0
M  V30 1380 C 140.156 1.96788 2.88228 0
M  V30 1381 C 141.504 2.25201 3.59958 0
M  V30 1382 O 142.528 1.94626 2.98327 0
M  V30 1383 O 141.387 2.77242 4.70956 0
M  V30 1384 H 138.481 0.388517 0.730057 0
M  V30 1385 H 141.027 1.37348 0.99668 0
M  V30 1386 H 139.799 2.96047 2.55875 0
M  V30 1387 H 139.422 1.62145 3.63035 0
M  V30 1388 N 140.419 -1.14872 1.07899 0
M  V30 1389 C 141.369 -2.17809 0.674027 0
M  V30 1390 C 142.353 -1.58008 -0.303699 0
M  V30 1391 O 143.545 -1.76616 -0.11654 0
M  V30 1392 C 140.674 -3.43208 0.0793318 0
M  V30 1393 C 139.76 -4.10051 1.08253 0
M  V30 1394 N 140.151 -4.52296 2.2641 0
M  V30 1395 C 138.449 -4.36469 0.917124 0
M  V30 1396 C 139.15 -5.04199 2.901 0
M  V30 1397 N 138.126 -4.98088 2.17736 0
M  V30 1398 H 141.928 -2.48207 1.57386 0
M  V30 1399 H 139.442 -1.315 0.952976 0
M  V30 1400 H 141.439 -4.16272 -0.228719 0
M  V30 1401 H 140.099 -3.14291 -0.815551 0
M  V30 1402 H 141.11 -4.45504 2.64096 0
M  V30 1403 H 137.787 -4.17432 0.0756078 0
M  V30 1404 H 139.177 -5.46802 3.90458 0
M  V30 1405 N 141.898 -0.863906 -1.31812 0
M  V30 1406 C 143.147 -0.46801 -1.96195 0
M  V30 1407 C 143.46 0.983474 -1.69077 0
M  V30 1408 O 144.666 1.48523 -2.27273 0
M  V30 1409 C 143.122 -0.785995 -3.51212 0
M  V30 1410 C 142.73 -2.25383 -3.87178 0
M  V30 1411 C 144.474 -0.458274 -4.22019 0
M  V30 1412 C 142.381 -2.51455 -5.3528 0
M  V30 1413 H 141.311 -0.171283 -0.734287 0
M  V30 1414 H 143.962 -1.05597 -1.50072 0
M  V30 1415 H 142.344 -0.127359 -3.95795 0
M  V30 1416 H 143.518 -2.95502 -3.53575 0
M  V30 1417 H 141.833 -2.54698 -3.2942 0
M  V30 1418 H 144.43 -0.630369 -5.30971 0
M  V30 1419 H 144.773 0.600834 -4.11941 0
M  V30 1420 H 145.306 -1.07319 -3.8305 0
M  V30 1421 H 142.045 -3.56025 -5.50387 0
M  V30 1422 H 141.565 -1.85923 -5.70257 0
M  V30 1423 H 143.244 -2.35874 -6.02472 0
M  V30 1424 N 143.376 1.44774 -0.622745 0
M  V30 1425 C 144.323 2.30635 0.0871679 0
M  V30 1426 C 145.293 1.42994 0.845097 0
M  V30 1427 O 146.478 1.71907 0.827812 0
M  V30 1428 C 143.618 3.28144 1.06844 0
M  V30 1429 C 142.731 4.30888 0.309809 0
M  V30 1430 C 141.866 5.15494 1.28215 0
M  V30 1431 C 140.905 6.09953 0.512198 0
M  V30 1432 N 140.042 6.87287 1.43458 0
M  V30 1433 H 144.882 2.90803 -0.650974 0
M  V30 1434 H 142.419 1.43286 -0.33281 0
M  V30 1435 H 144.377 3.83157 1.65066 0
M  V30 1436 H 143.007 2.69695 1.77382 0
M  V30 1437 H 142.059 3.78414 -0.388181 0
M  V30 1438 H 143.371 4.97955 -0.290254 0
M  V30 1439 H 142.525 5.74983 1.93596 0
M  V30 1440 H 141.264 4.48481 1.91614 0
M  V30 1441 H 140.269 5.49581 -0.155151 0
M  V30 1442 H 141.494 6.78999 -0.116958 0
M  V30 1443 H 139.44 6.2295 2.05594 0
M  V30 1444 H 139.357 7.50763 0.888335 0
M  V30 1445 H 140.625 7.51306 2.07749 0
M  V30 1446 N 144.854 0.36279 1.53368 0
M  V30 1447 C 146.265 -0.117022 1.86333 0
M  V30 1448 C 146.616 -1.48397 1.28347 0
M  V30 1449 O 145.741 -2.07787 0.604428 0
M  V30 1450 C 146.336 -0.21912 3.38091 0
M  V30 1451 C 144.895 -0.643184 3.70864 0
M  V30 1452 C 144.042 0.211318 2.76494 0
M  V30 1453 H 146.993 0.581687 1.47655 0
M  V30 1454 H 147.014 -1.04319 3.6592 0
M  V30 1455 H 146.526 0.775902 3.80265 0
M  V30 1456 H 144.627 -1.64654 3.34245 0
M  V30 1457 H 144.74 -0.41973 4.77258 0
M  V30 1458 H 143.104 -0.319367 2.5269 0
M  V30 1459 H 143.887 1.20383 3.21501 0
M  V30 1460 N 146.332 -1.57332 0.0918853 0
M  V30 1461 C 147.262 -2.16872 -0.865371 0
M  V30 1462 C 148.243 -1.10118 -1.29646 0
M  V30 1463 O 149.428 -1.38242 -1.36392 0
M  V30 1464 C 146.558 -2.74649 -2.12569 0
M  V30 1465 C 145.512 -3.86747 -1.83333 0
M  V30 1466 C 144.838 -4.31212 -3.16166 0
M  V30 1467 C 146.138 -5.10089 -1.1228 0
M  V30 1468 H 147.832 -2.97114 -0.369307 0
M  V30 1469 H 145.378 -1.42918 -0.176194 0
M  V30 1470 H 147.331 -3.14952 -2.7997 0
M  V30 1471 H 146.055 -1.91657 -2.64452 0
M  V30 1472 H 144.714 -3.46978 -1.18331 0
M  V30 1473 H 144.362 -3.45115 -3.6593 0
M  V30 1474 H 144.062 -5.06788 -2.97388 0
M  V30 1475 H 145.586 -4.74146 -3.84731 0
M  V30 1476 H 147 -5.47582 -1.69785 0
M  V30 1477 H 145.397 -5.91073 -1.03693 0
M  V30 1478 H 146.467 -4.84786 -0.105041 0
M  V30 1479 N 147.81 0.181792 -1.56548 0
M  V30 1480 C 148.74 1.22765 -1.98623 0
M  V30 1481 C 149.721 1.46747 -0.860189 0
M  V30 1482 O 150.906 1.58259 -1.12551 0
M  V30 1483 C 148.036 2.56894 -2.33715 0
M  V30 1484 C 146.99 2.475 -3.49182 0
M  V30 1485 C 146.316 3.86023 -3.69986 0
M  V30 1486 C 147.616 1.98866 -4.82959 0
M  V30 1487 H 149.31 0.877942 -2.86239 0
M  V30 1488 H 146.856 0.42088 -1.37712 0
M  V30 1489 H 148.809 3.30253 -2.61746 0
M  V30 1490 H 147.533 2.93632 -1.42997 0
M  V30 1491 H 146.192 1.76596 -3.21262 0
M  V30 1492 H 145.84 4.20136 -2.76576 0
M  V30 1493 H 145.54 3.80609 -4.47672 0
M  V30 1494 H 147.064 4.60984 -4.00407 0
M  V30 1495 H 148.478 2.61992 -5.09934 0
M  V30 1496 H 146.875 2.04424 -5.64208 0
M  V30 1497 H 147.945 0.942465 -4.75653 0
M  V30 1498 N 149.288 1.51039 0.449983 0
M  V30 1499 C 150.198 1.74261 1.57067 0
M  V30 1500 C 151.214 0.626363 1.62335 0
M  V30 1501 O 152.39 0.907162 1.79812 0
M  V30 1502 C 149.455 1.85114 2.93144 0
M  V30 1503 C 148.516 3.0893 2.98095 0
M  V30 1504 C 147.749 3.19256 4.27681 0
M  V30 1505 O 147.972 2.35835 5.19363 0
M  V30 1506 O 146.906 4.12144 4.38658 0
M  V30 1507 H 150.732 2.69303 1.40391 0
M  V30 1508 H 148.317 1.35389 0.631688 0
M  V30 1509 H 150.199 1.94311 3.73926 0
M  V30 1510 H 148.874 0.932588 3.09975 0
M  V30 1511 H 147.781 3.0522 2.16314 0
M  V30 1512 H 149.114 4.00433 2.86206 0
M  V30 1513 N 150.766 -0.704594 1.40972 0
M  V30 1514 C 152.014 -1.46169 1.39568 0
M  V30 1515 C 152.335 -1.95 0.00253745 0
M  V30 1516 O 151.605 -1.71095 -0.954114 0
M  V30 1517 H 150.185 -0.542326 0.513704 0
M  V30 1518 H 152.847 -0.834553 1.76128 0
M  V30 1519 H 151.943 -2.32922 2.07735 0
M  V30 1520 N 152.244 -1.26651 -0.937939 0
M  V30 1521 C 153.66 -1.03834 -1.21205 0
M  V30 1522 C 153.86 0.234502 -2.00131 0
M  V30 1523 O 152.916 0.942767 -2.3424 0
M  V30 1524 C 154.229 -2.27167 -1.97017 0
M  V30 1525 C 155.777 -2.32101 -2.09996 0
M  V30 1526 C 156.252 -3.55136 -2.8921 0
M  V30 1527 N 157.743 -3.55632 -2.96783 0
M  V30 1528 C 158.478 -4.475 -3.58512 0
M  V30 1529 N 157.974 -5.4966 -4.21717 0
M  V30 1530 N 159.767 -4.35145 -3.55816 0
M  V30 1531 H 151.918 -2.08398 -0.410391 0
M  V30 1532 H 154.181 -0.916031 -0.244114 0
M  V30 1533 H 153.887 -3.19765 -1.46434 0
M  V30 1534 H 153.761 -2.31672 -2.97671 0
M  V30 1535 H 156.148 -1.40015 -2.59769 0
M  V30 1536 H 156.229 -2.31605 -1.08594 0
M  V30 1537 H 155.873 -4.47553 -2.40123 0
M  V30 1538 H 155.803 -3.5288 -3.90875 0
M  V30 1539 H 158.294 -2.81743 -2.51852 0
M  V30 1540 H 158.607 -6.15943 -4.66727 0
M  V30 1541 H 156.952 -5.53514 -4.20294 0
M  V30 1542 H 160.143 -3.5455 -3.05634 0
M  V30 1543 H 160.316 -5.06934 -4.03636 0
M  V30 1544 N 153.722 1.14298 -1.08507 0
M  V30 1545 C 154.999 1.81544 -0.728088 0
M  V30 1546 C 155.379 1.95838 0.78808 0
M  V30 1547 O 154.727 1.51904 1.70697 0
M  V30 1548 C 154.937 3.17169 -1.45619 0
M  V30 1549 C 156.285 3.9265 -1.61591 0
M  V30 1550 O 157.309 3.26762 -1.41793 0
M  V30 1551 O 156.168 5.10807 -1.94263 0
M  V30 1552 H 153.262 0.78491 -0.260471 0
M  V30 1553 H 155.808 1.21307 -1.18671 0
M  V30 1554 H 154.58 3.01934 -2.489 0
M  V30 1555 H 154.203 3.851 -0.989124 0
M  V30 1556 N 155.201 0.870884 1.31352 0
M  V30 1557 C 156.447 0.482987 1.96965 0
M  V30 1558 C 156.78 -0.962462 1.68672 0
M  V30 1559 O 156.055 -1.6779 0.98371 0
M  V30 1560 C 156.338 0.741752 3.52378 0
M  V30 1561 C 156.191 2.2368 3.9024 0
M  V30 1562 C 157.51 0.208838 4.39604 0
M  V30 1563 H 154.629 0.176955 0.715441 0
M  V30 1564 H 157.271 1.09229 1.55464 0
M  V30 1565 H 155.421 0.223149 3.87859 0
M  V30 1566 H 157.093 2.82273 3.64856 0
M  V30 1567 H 155.336 2.70901 3.38814 0
M  V30 1568 H 156.007 2.3685 4.98604 0
M  V30 1569 H 158.483 0.652529 4.10952 0
M  V30 1570 H 157.359 0.419336 5.47296 0
M  V30 1571 H 157.62 -0.889275 4.33064 0
M  V30 1572 N 156.679 -1.44442 0.630414 0
M  V30 1573 C 157.956 -1.9549 0.0655657 0
M  V30 1574 C 158.336 -1.5724 -1.40851 0
M  V30 1575 O 157.684 -0.846116 -2.12257 0
M  V30 1576 C 157.894 -3.47812 0.287691 0
M  V30 1577 C 159.242 -4.24216 0.180513 0
M  V30 1578 O 160.266 -3.55526 0.219019 0
M  V30 1579 O 159.125 -5.46434 0.0848493 0
M  V30 1580 H 156.219 -0.826688 -0.0227177 0
M  V30 1581 H 158.765 -1.54496 0.702068 0
M  V30 1582 H 157.537 -3.687 1.31056 0
M  V30 1583 H 157.16 -3.95751 -0.382984 0
M  V30 1584 N 158.157 -0.370918 -1.53173 0
M  V30 1585 C 159.12 0.460778 -2.24521 0
M  V30 1586 C 160.12 1.00536 -1.25496 0
M  V30 1587 O 161.31 0.890266 -1.49733 0
M  V30 1588 C 158.442 1.64457 -2.98608 0
M  V30 1589 H 159.635 -0.163613 -2.99453 0
M  V30 1590 H 157.188 -0.122699 -1.55818 0
M  V30 1591 H 157.923 2.30691 -2.2793 0
M  V30 1592 H 157.708 1.26099 -3.7127 0
M  V30 1593 H 159.198 2.23384 -3.5283 0
M  V30 1594 N 159.635 1.57281 -0.100228 0
M  V30 1595 C 160.882 1.94537 0.562268 0
M  V30 1596 C 161.21 0.982315 1.67871 0
M  V30 1597 O 160.465 0.00280936 1.957 0
M  V30 1598 C 160.764 3.38305 1.15259 0
M  V30 1599 C 160.43 4.50618 0.159409 0
M  V30 1600 C 159.092 4.81066 -0.113741 0
M  V30 1601 C 161.444 5.18615 -0.518461 0
M  V30 1602 C 158.772 5.76835 -1.07137 0
M  V30 1603 C 161.124 6.15412 -1.46459 0
M  V30 1604 C 159.788 6.44262 -1.74592 0
M  V30 1605 H 159.058 0.711863 0.205748 0
M  V30 1606 H 161.705 1.90679 -0.17715 0
M  V30 1607 H 160.01 3.38766 1.96836 0
M  V30 1608 H 161.707 3.64435 1.67297 0
M  V30 1609 H 158.297 4.2689 0.382491 0
M  V30 1610 H 162.481 4.95264 -0.320581 0
M  V30 1611 H 157.737 5.975 -1.29628 0
M  V30 1612 H 161.911 6.67194 -1.99564 0
M  V30 1613 H 159.538 7.1828 -2.48953 0
M  V30 1614 N 161.113 -0.173488 1.56642 0
M  V30 1615 C 162.043 -1.2171 1.99271 0
M  V30 1616 C 163.024 -1.46289 0.867959 0
M  V30 1617 O 164.209 -1.5766 1.13388 0
M  V30 1618 C 161.339 -2.55651 2.35074 0
M  V30 1619 C 160.293 -2.45645 3.50489 0
M  V30 1620 C 159.619 -3.84056 3.72028 0
M  V30 1621 C 160.919 -1.96302 4.84007 0
M  V30 1622 H 162.613 -0.86275 2.867 0
M  V30 1623 H 160.159 -0.413571 1.37933 0
M  V30 1624 H 162.112 -3.2886 2.63494 0
M  V30 1625 H 160.836 -2.92869 1.44552 0
M  V30 1626 H 159.495 -1.7489 3.22194 0
M  V30 1627 H 159.143 -4.18664 2.788 0
M  V30 1628 H 158.843 -3.7823 4.49684 0
M  V30 1629 H 160.367 -4.58854 4.02846 0
M  V30 1630 H 161.781 -2.59284 5.11317 0
M  V30 1631 H 160.178 -2.01429 5.65284 0
M  V30 1632 H 161.248 -0.917226 4.76146 0
M  V30 1633 N 162.591 -1.51276 -0.441967 0
M  V30 1634 C 164.002 -1.56244 -1.02199 0
M  V30 1635 C 164.353 -0.383149 -1.92422 0
M  V30 1636 O 163.478 0.500613 -2.1053 0
M  V30 1637 C 164.073 -2.83162 -1.86024 0
M  V30 1638 C 162.632 -2.90716 -2.39084 0
M  V30 1639 C 161.779 -2.50858 -1.18175 0
M  V30 1640 H 164.73 -1.5712 -0.223416 0
M  V30 1641 H 164.751 -2.66663 -2.71425 0
M  V30 1642 H 164.263 -3.68974 -1.20331 0
M  V30 1643 H 162.364 -2.09323 -3.08244 0
M  V30 1644 H 162.477 -3.94266 -2.72198 0
M  V30 1645 H 160.841 -2.03951 -1.52565 0
M  V30 1646 H 161.624 -3.3901 -0.541001 0
M  V30 1647 N 164.069 0.697108 -1.41344 0
M  V30 1648 C 165.017 1.83237 -1.43272 0
M  V30 1649 C 166.011 1.66522 -0.310947 0
M  V30 1650 O 167.217 1.73402 -0.482899 0
M  V30 1651 H 163.592 0.603802 -0.448249 0
M  V30 1652 H 165.563 1.78727 -2.38954 0
M  V30 1653 C 164.312 3.21245 -1.33029 0
M  V30 1654 H 163.635 3.34723 -2.18633 0
M  V30 1655 H 165.075 4.00763 -1.38439 0
M  V30 1656 C 163.534 3.36873 -0.0424635 0
M  V30 1657 O 164.064 3.91177 0.913421 0
M  V30 1658 N 162.27 2.90581 0.0331145 0
M  V30 1659 H 161.817 2.46577 -0.745506 0
M  V30 1660 H 161.775 3.01416 0.894199 0
M  V30 1661 N 165.547 1.27147 0.931209 0
M  V30 1662 C 166.51 1.09615 2.01289 0
M  V30 1663 C 167.51 0.0412581 1.60747 0
M  V30 1664 O 168.7 0.285545 1.71844 0
M  V30 1665 C 165.832 0.669447 3.34262 0
M  V30 1666 H 167.025 2.05662 2.18273 0
M  V30 1667 H 164.578 1.09885 1.11153 0
M  V30 1668 H 165.313 -0.292572 3.22978 0
M  V30 1669 H 165.098 1.43127 3.65044 0
M  V30 1670 H 166.588 0.568921 4.13706 0
M  V30 1671 N 167.025 -1.13721 1.09112 0
M  V30 1672 C 168.441 -1.36914 0.820174 0
M  V30 1673 C 168.641 -1.93356 -0.567079 0
M  V30 1674 O 167.697 -2.15093 -1.32255 0
M  V30 1675 C 169.01 -2.3235 1.90877 0
M  V30 1676 C 170.558 -2.45973 1.93562 0
M  V30 1677 C 171.033 -3.44714 3.01556 0
M  V30 1678 N 172.524 -3.52263 3.00775 0
M  V30 1679 C 173.259 -4.28536 3.80978 0
M  V30 1680 N 172.755 -5.07991 4.71081 0
M  V30 1681 N 174.548 -4.23804 3.69251 0
M  V30 1682 H 166.699 -0.754348 1.98553 0
M  V30 1683 H 168.962 -0.3944 0.862063 0
M  V30 1684 H 168.668 -1.98027 2.90651 0
M  V30 1685 H 168.542 -3.32332 1.78424 0
M  V30 1686 H 170.929 -2.79584 0.944286 0
M  V30 1687 H 171.01 -1.45926 2.10093 0
M  V30 1688 H 170.654 -3.11835 4.00901 0
M  V30 1689 H 170.584 -4.44558 2.82269 0
M  V30 1690 H 173.075 -2.95567 2.35475 0
M  V30 1691 H 173.388 -5.63487 5.28869 0
M  V30 1692 H 171.733 -5.07235 4.75119 0
M  V30 1693 H 174.924 -3.60806 2.98222 0
M  V30 1694 H 175.097 -4.82995 4.31995 0
M  V30 1695 N 168.503 -0.877838 -1.30888 0
M  V30 1696 C 169.75 -0.492696 -1.96415 0
M  V30 1697 C 170.078 0.956671 -1.69346 0
M  V30 1698 O 169.333 1.68993 -0.986913 0
M  V30 1699 C 169.632 -0.705748 -3.50363 0
M  V30 1700 C 169.298 -2.1291 -3.97467 0
M  V30 1701 C 167.96 -2.51834 -4.1004 0
M  V30 1702 C 170.312 -3.05702 -4.22132 0
M  V30 1703 C 167.64 -3.82775 -4.44635 0
M  V30 1704 C 169.992 -4.36166 -4.58194 0
M  V30 1705 C 168.656 -4.74993 -4.68975 0
M  V30 1706 H 167.926 -0.18029 -0.718733 0
M  V30 1707 H 170.573 -1.11233 -1.55883 0
M  V30 1708 H 168.878 -0.00303058 -3.918 0
M  V30 1709 H 170.575 -0.387456 -3.99124 0
M  V30 1710 H 167.165 -1.81694 -3.88182 0
M  V30 1711 H 171.349 -2.76853 -4.11906 0
M  V30 1712 H 166.605 -4.12609 -4.51181 0
M  V30 1713 H 170.779 -5.08111 -4.76231 0
M  V30 1714 H 168.406 -5.76495 -4.95537 0
M  V30 1715 N 169.982 1.44106 -0.638065 0
M  V30 1716 C 171.229 2.01978 -0.14533 0
M  V30 1717 C 171.557 1.50234 1.23532 0
M  V30 1718 O 170.812 0.679548 1.83523 0
M  V30 1719 C 171.111 3.5729 -0.0887327 0
M  V30 1720 C 170.777 4.28317 -1.40909 0
M  V30 1721 C 169.439 4.47437 -1.77069 0
M  V30 1722 C 171.791 4.6867 -2.28031 0
M  V30 1723 C 169.119 5.04171 -3.00047 0
M  V30 1724 C 171.471 5.26766 -3.50286 0
M  V30 1725 C 170.135 5.44104 -3.86661 0
M  V30 1726 H 169.405 0.739089 -0.0531801 0
M  V30 1727 H 172.052 1.72781 -0.825761 0
M  V30 1728 H 170.357 3.8594 0.675095 0
M  V30 1729 H 172.054 3.99807 0.309145 0
M  V30 1730 H 168.644 4.1377 -1.1177 0
M  V30 1731 H 172.828 4.53604 -2.01388 0
M  V30 1732 H 168.084 5.15782 -3.28298 0
M  V30 1733 H 172.258 5.56983 -4.18023 0
M  V30 1734 H 169.885 5.87832 -4.82034 0
M  V30 1735 N 171.46 0.379036 1.52974 0
M  V30 1736 C 172.737 -0.263479 1.93817 0
M  V30 1737 C 173.117 -1.65244 1.31368 0
M  V30 1738 O 172.465 -2.23448 0.477856 0
M  V30 1739 C 172.675 -0.300166 3.47707 0
M  V30 1740 C 174.023 -0.534061 4.21228 0
M  V30 1741 O 175.047 -0.38081 3.54159 0
M  V30 1742 O 173.906 -0.833501 5.40106 0
M  V30 1743 H 171 -0.161149 0.811147 0
M  V30 1744 H 173.546 0.432798 1.64088 0
M  V30 1745 H 172.318 0.673138 3.85467 0
M  V30 1746 H 171.941 -1.04179 3.83709 0
M  V30 1747 N 172.938 -1.57226 0.108567 0
M  V30 1748 C 173.885 -2.14756 -0.845481 0
M  V30 1749 C 174.855 -1.06971 -1.27068 0
M  V30 1750 O 176.04 -1.34827 -1.35005 0
M  V30 1751 C 173.18 -2.74298 -2.09415 0
M  V30 1752 C 172.293 -3.96358 -1.71826 0
M  V30 1753 C 171.428 -4.44021 -2.9158 0
M  V30 1754 C 170.467 -5.58637 -2.50181 0
M  V30 1755 N 169.604 -6.01091 -3.62814 0
M  V30 1756 H 174.444 -2.95961 -0.348035 0
M  V30 1757 H 171.981 -1.46226 -0.160106 0
M  V30 1758 H 173.939 -3.06945 -2.82561 0
M  V30 1759 H 172.569 -1.95801 -2.56636 0
M  V30 1760 H 171.621 -3.69939 -0.885947 0
M  V30 1761 H 172.933 -4.79504 -1.37394 0
M  V30 1762 H 172.087 -4.78522 -3.72963 0
M  V30 1763 H 170.826 -3.59803 -3.29231 0
M  V30 1764 H 169.831 -5.23751 -1.67228 0
M  V30 1765 H 171.056 -6.44613 -2.13659 0
M  V30 1766 H 169.002 -5.19817 -4.00158 0
M  V30 1767 H 168.919 -6.79066 -3.32273 0
M  V30 1768 H 170.187 -6.40227 -4.44668 0
M  V30 1769 N 174.416 0.165178 -1.56732 0
M  V30 1770 C 175.346 1.20651 -1.99914 0
M  V30 1771 C 176.327 1.45827 -0.875705 0
M  V30 1772 O 177.512 1.57057 -1.14223 0
M  V30 1773 C 174.642 2.54401 -2.36427 0
M  V30 1774 C 173.596 2.43782 -3.51787 0
M  V30 1775 C 172.922 3.82078 -3.7406 0
M  V30 1776 C 174.222 1.93732 -4.85041 0
M  V30 1777 H 175.916 0.847534 -2.87154 0
M  V30 1778 H 173.462 0.40625 -1.38151 0
M  V30 1779 H 175.415 3.27458 -2.65234 0
M  V30 1780 H 174.139 2.92098 -1.46103 0
M  V30 1781 H 172.798 1.73178 -3.23117 0
M  V30 1782 H 172.446 4.17179 -2.81017 0
M  V30 1783 H 172.146 3.7584 -4.51684 0
M  V30 1784 H 173.67 4.56712 -4.05274 0
M  V30 1785 H 175.084 2.56569 -5.12684 0
M  V30 1786 H 173.481 1.98428 -5.66345 0
M  V30 1787 H 174.551 0.891962 -4.76626 0
M  V30 1788 N 175.894 1.51508 0.433938 0
M  V30 1789 C 177.31 1.39759 0.770682 0
M  V30 1790 C 177.51 0.482594 1.95636 0
M  V30 1791 O 176.566 -0.0609691 2.52426 0
M  V30 1792 C 177.879 2.81851 1.04787 0
M  V30 1793 C 179.427 2.91025 1.1521 0
M  V30 1794 C 179.902 4.34032 1.46219 0
M  V30 1795 N 181.393 4.37154 1.53136 0
M  V30 1796 C 182.128 5.4484 1.78709 0
M  V30 1797 N 181.624 6.62682 2.02051 0
M  V30 1798 N 183.417 5.32324 1.80519 0
M  V30 1799 H 175.568 2.09548 -0.346892 0
M  V30 1800 H 177.831 0.943446 -0.0928074 0
M  V30 1801 H 177.537 3.50815 0.249304 0
M  V30 1802 H 177.411 3.21386 1.97461 0
M  V30 1803 H 179.798 2.22257 1.94128 0
M  V30 1804 H 179.879 2.54983 0.204281 0
M  V30 1805 H 179.523 5.03351 0.678274 0
M  V30 1806 H 179.453 4.6759 2.42212 0
M  V30 1807 H 181.944 3.52197 1.36987 0
M  V30 1808 H 182.257 7.40543 2.20943 0
M  V30 1809 H 180.602 6.65791 1.99366 0
M  V30 1810 H 183.793 4.39246 1.61805 0
M  V30 1811 H 183.966 6.16328 2.00111 0
M  V30 1812 N 177.372 -0.689602 1.41712 0
M  V30 1813 C 178.621 -1.44534 1.40686 0
M  V30 1814 C 178.934 -1.95588 0.0213352 0
M  V30 1815 O 180.14 -2.71271 -0.111534 0
M  V30 1816 C 178.596 -2.61387 2.47396 0
M  V30 1817 C 178.204 -2.17094 3.91885 0
M  V30 1818 C 179.948 -3.38986 2.55517 0
M  V30 1819 C 177.855 -3.3094 4.90135 0
M  V30 1820 H 176.785 -0.542925 0.52321 0
M  V30 1821 H 179.436 -0.748054 1.6756 0
M  V30 1822 H 177.818 -3.33412 2.13664 0
M  V30 1823 H 178.992 -1.52318 4.34897 0
M  V30 1824 H 177.307 -1.52473 3.8748 0
M  V30 1825 H 179.904 -4.23747 3.26102 0
M  V30 1826 H 180.247 -3.84578 1.59391 0
M  V30 1827 H 180.78 -2.74021 2.8837 0
M  V30 1828 H 177.519 -2.90355 5.87685 0
M  V30 1829 H 177.039 -3.94546 4.51767 0
M  V30 1830 H 178.718 -3.9663 5.11169 0
M  V30 1831 N 178.85 -1.27639 -0.924453 0
M  V30 1832 C 180.127 -1.04887 -1.651 0
M  V30 1833 C 180.507 0.415327 -2.06974 0
M  V30 1834 O 179.855 1.39923 -1.80648 0
M  V30 1835 C 180.065 -2.01348 -2.85061 0
M  V30 1836 C 181.413 -2.30899 -3.56329 0
M  V30 1837 O 182.437 -1.99348 -2.95193 0
M  V30 1838 O 181.296 -2.84699 -4.66485 0
M  V30 1839 H 178.39 -0.400083 -0.723784 0
M  V30 1840 H 180.936 -1.38916 -0.974703 0
M  V30 1841 H 179.708 -3.0008 -2.51133 0
M  V30 1842 H 179.331 -1.679 -3.6041 0
M  V30 1843 N 180.328 1.1314 -1.09713 0
M  V30 1844 C 181.576 1.84119 -0.833338 0
M  V30 1845 C 181.897 1.84097 0.642904 0
M  V30 1846 O 181.167 1.29881 1.46655 0
M  V30 1847 H 179.747 0.681766 -0.305293 0
M  V30 1848 H 182.409 1.37038 -1.38588 0
M  V30 1849 H 181.505 2.88543 -1.18951 0
M  V30 1850 N 181.806 0.884767 1.30421 0
M  V30 1851 C 182.754 0.340869 2.30089 0
M  V30 1852 C 183.748 -0.55201 1.60154 0
M  V30 1853 O 184.954 -0.436467 1.74628 0
M  V30 1854 H 181.329 0.0915739 0.746404 0
M  V30 1855 H 183.3 1.19513 2.73421 0
M  V30 1856 C 182.049 -0.429779 3.45034 0
M  V30 1857 H 181.372 0.248024 3.9903 0
M  V30 1858 H 182.812 -0.775445 4.16849 0
M  V30 1859 C 181.271 -1.62677 2.95022 0
M  V30 1860 O 181.801 -2.72614 2.95033 0
M  V30 1861 N 180.007 -1.46387 2.51036 0
M  V30 1862 H 179.554 -0.569506 2.51226 0
M  V30 1863 H 179.512 -2.26612 2.17932 0
M  V30 1864 N 183.284 -1.43765 0.645699 0
M  V30 1865 C 184.214 -2.33471 -0.0370477 0
M  V30 1866 C 185.195 -1.49042 -0.819779 0
M  V30 1867 O 186.38 -1.77726 -0.782758 0
M  V30 1868 C 183.51 -3.32311 -1.0093 0
M  V30 1869 C 182.464 -4.2667 -0.337201 0
M  V30 1870 C 181.79 -5.1549 -1.42037 0
M  V30 1871 C 183.09 -5.16657 0.765706 0
M  V30 1872 H 184.784 -2.90809 0.712069 0
M  V30 1873 H 182.33 -1.39834 0.343876 0
M  V30 1874 H 184.283 -3.9396 -1.49578 0
M  V30 1875 H 183.007 -2.73213 -1.78948 0
M  V30 1876 H 181.666 -3.66374 0.128771 0
M  V30 1877 H 181.314 -4.52735 -2.1918 0
M  V30 1878 H 181.014 -5.79438 -0.975966 0
M  V30 1879 H 182.538 -5.80012 -1.90838 0
M  V30 1880 H 183.952 -5.72158 0.361702 0
M  V30 1881 H 182.349 -5.89286 1.13413 0
M  V30 1882 H 183.419 -4.56796 1.62683 0
M  V30 1883 N 184.763 -0.387143 -1.52771 0
M  V30 1884 C 185.693 0.440551 -2.29306 0
M  V30 1885 C 186.674 1.06535 -1.32606 0
M  V30 1886 O 187.859 1.07853 -1.61497 0
M  V30 1887 C 184.989 1.56919 -3.09829 0
M  V30 1888 C 183.943 1.07054 -4.14395 0
M  V30 1889 C 183.269 2.29109 -4.83129 0
M  V30 1890 C 184.569 0.140015 -5.22112 0
M  V30 1891 H 186.263 -0.198026 -2.98744 0
M  V30 1892 H 183.809 -0.09668 -1.43675 0
M  V30 1893 H 185.762 2.15503 -3.62128 0
M  V30 1894 H 184.486 2.23532 -2.3812 0
M  V30 1895 H 183.145 0.507247 -3.63074 0
M  V30 1896 H 182.793 2.94227 -4.0797 0
M  V30 1897 H 182.493 1.96406 -5.53804 0
M  V30 1898 H 184.017 2.88339 -5.38231 0
M  V30 1899 H 185.431 0.633978 -5.69784 0
M  V30 1900 H 183.828 -0.0971485 -6.00021 0
M  V30 1901 H 184.898 -0.811711 -4.78058 0
M  V30 1902 N 186.241 1.57166 -0.116904 0
M  V30 1903 C 187.191 2.11756 0.845178 0
M  V30 1904 C 188.175 1.03783 1.22955 0
M  V30 1905 O 189.367 1.3002 1.20099 0
M  V30 1906 C 186.496 2.71886 2.09602 0
M  V30 1907 C 185.582 3.86937 1.7361 0
M  V30 1908 N 185.973 4.94073 1.08284 0
M  V30 1909 C 184.271 3.97082 2.03082 0
M  V30 1910 C 184.972 5.74477 0.913855 0
M  V30 1911 N 183.948 5.2423 1.43818 0
M  V30 1912 H 187.75 2.91967 0.336523 0
M  V30 1913 H 185.264 1.62174 0.0856332 0
M  V30 1914 H 187.261 3.09338 2.79492 0
M  V30 1915 H 185.921 1.93138 2.61013 0
M  V30 1916 H 186.932 5.12483 0.747067 0
M  V30 1917 H 183.609 3.29372 2.56554 0
M  V30 1918 H 184.999 6.70701 0.40125 0
M  V30 1919 N 187.719 -0.156864 1.56817 0
M  V30 1920 C 188.947 -0.886316 1.86955 0
M  V30 1921 C 189.362 -1.75185 0.703975 0
M  V30 1922 O 188.719 -1.79555 -0.326552 0
M  V30 1923 C 188.77 -1.75117 3.16253 0
M  V30 1924 O 188.491 -0.920537 4.2832 0
M  V30 1925 C 189.992 -2.58905 3.59837 0
M  V30 1926 H 187.212 -0.25678 0.619923 0
M  V30 1927 H 189.756 -0.152615 2.0393 0
M  V30 1928 H 187.911 -2.43805 3.01062 0
M  V30 1929 H 188.325 -1.51337 5.02192 0
M  V30 1930 H 189.799 -3.1518 4.53172 0
M  V30 1931 H 190.276 -3.34472 2.84649 0
M  V30 1932 H 190.882 -1.95526 3.7769 0
M  V30 1933 N 189.197 -1.51736 -0.425897 0
M  V30 1934 C 190.16 -1.73271 -1.50032 0
M  V30 1935 C 191.16 -0.602639 -1.4908 0
M  V30 1936 O 192.35 -0.87033 -1.509 0
M  V30 1937 C 189.482 -1.79969 -2.89523 0
M  V30 1938 H 190.675 -2.69172 -1.32237 0
M  V30 1939 H 188.228 -1.41899 -0.65532 0
M  V30 1940 H 188.963 -0.859241 -3.1271 0
M  V30 1941 H 188.748 -2.62109 -2.91619 0
M  V30 1942 H 190.238 -1.9843 -3.67444 0
M  V30 1943 N 190.675 0.682077 -1.42076 0
M  V30 1944 C 191.921 1.44428 -1.42367 0
M  V30 1945 C 192.254 1.94164 -0.0373056 0
M  V30 1946 O 191.529 1.70429 0.937239 0
M  V30 1947 C 191.812 2.64654 -2.44194 0
M  V30 1948 C 191.665 2.20596 -3.91991 0
M  V30 1949 C 192.984 3.66865 -2.431 0
M  V30 1950 H 190.103 0.523834 -0.518428 0
M  V30 1951 H 192.745 0.77576 -1.73442 0
M  V30 1952 H 190.895 3.2169 -2.17826 0
M  V30 1953 H 192.567 1.68783 -4.29313 0
M  V30 1954 H 190.81 1.52242 -4.06208 0
M  V30 1955 H 191.481 3.06921 -4.58807 0
M  V30 1956 H 193.957 3.19531 -2.66532 0
M  V30 1957 H 192.833 4.48577 -3.16339 0
M  V30 1958 H 193.094 4.17493 -1.45437 0
M  V30 1959 N 192.153 1.28127 0.917671 0
M  V30 1960 C 193.569 1.05749 1.19538 0
M  V30 1961 C 193.769 -0.202633 2.00479 0
M  V30 1962 O 192.825 -0.905382 2.3571 0
M  V30 1963 C 194.138 2.30273 1.93378 0
M  V30 1964 C 195.686 2.35412 2.06277 0
M  V30 1965 C 196.161 3.59692 2.83524 0
M  V30 1966 N 197.652 3.60309 2.91087 0
M  V30 1967 C 198.387 4.53147 3.51348 0
M  V30 1968 N 197.883 5.563 4.12919 0
M  V30 1969 N 199.676 4.40751 3.48849 0
M  V30 1970 H 191.827 2.09024 0.377184 0
M  V30 1971 H 194.09 0.919798 0.22951 0
M  V30 1972 H 193.796 3.22055 1.41328 0
M  V30 1973 H 193.67 2.36378 2.93947 0
M  V30 1974 H 196.057 1.4413 2.57508 0
M  V30 1975 H 196.138 2.33304 1.04895 0
M  V30 1976 H 195.782 4.51316 2.32973 0
M  V30 1977 H 195.712 3.59054 3.85211 0
M  V30 1978 H 198.203 2.85714 2.47338 0
M  V30 1979 H 198.516 6.2329 4.56869 0
M  V30 1980 H 196.861 5.60131 4.11435 0
M  V30 1981 H 200.052 3.59367 2.99955 0
M  V30 1982 H 200.225 5.13291 3.9552 0
M  V30 1983 N 193.631 -1.12557 1.10312 0
M  V30 1984 C 194.861 -1.87592 0.865617 0
M  V30 1985 C 195.269 -1.79851 -0.587389 0
M  V30 1986 O 194.612 -1.16949 -1.41664 0
M  V30 1987 C 194.674 -3.37665 1.23381 0
M  V30 1988 C 194.338 -3.69181 2.69359 0
M  V30 1989 C 195.335 -3.67652 3.67597 0
M  V30 1990 C 193.02 -3.98555 3.05711 0
M  V30 1991 C 195.014 -3.95053 5.00212 0
M  V30 1992 C 192.701 -4.25616 4.38514 0
M  V30 1993 C 193.699 -4.23851 5.35574 0
M  V30 1994 O 193.387 -4.50242 6.65986 0
M  V30 1995 H 193.119 -0.600442 0.310557 0
M  V30 1996 H 195.673 -1.4335 1.47105 0
M  V30 1997 H 193.903 -3.82454 0.571467 0
M  V30 1998 H 195.592 -3.94041 0.973994 0
M  V30 1999 H 196.358 -3.45024 3.40857 0
M  V30 2000 H 192.237 -3.99071 2.30789 0
M  V30 2001 H 195.781 -3.93591 5.75962 0
M  V30 2002 H 191.678 -4.47718 4.64994 0
M  V30 2003 H 192.446 -4.67867 6.71597 0
M  V30 2004 N 195.109 -0.891671 -1.2995 0
M  V30 2005 C 196.357 -0.512486 -1.95494 0
M  V30 2006 C 196.678 0.942776 -1.70695 0
M  V30 2007 O 195.948 1.66374 -1.03424 0
M  V30 2008 H 194.528 -0.186533 -0.723336 0
M  V30 2009 H 197.19 -1.13621 -1.58355 0
M  V30 2010 H 196.286 -0.688342 -3.04415 0
M  V30 2011 N 196.587 1.43421 -0.653314 0
M  V30 2012 C 197.517 2.33487 0.0246656 0
M  V30 2013 C 198.498 1.49475 0.811863 0
M  V30 2014 O 199.683 1.78139 0.773322 0
M  V30 2015 C 196.813 3.32841 0.99166 0
M  V30 2016 C 195.767 4.26842 0.314568 0
M  V30 2017 C 195.093 5.16236 1.39302 0
M  V30 2018 C 196.393 5.16243 -0.793095 0
M  V30 2019 H 198.087 2.90427 -0.727481 0
M  V30 2020 H 195.633 1.39649 -0.351287 0
M  V30 2021 H 197.586 3.94747 1.47487 0
M  V30 2022 H 196.31 2.74158 1.77497 0
M  V30 2023 H 194.969 3.663 -0.148199 0
M  V30 2024 H 194.617 4.53891 2.16776 0
M  V30 2025 H 194.317 5.79948 0.945223 0
M  V30 2026 H 195.841 5.81015 1.87759 0
M  V30 2027 H 197.255 5.71958 -0.392039 0
M  V30 2028 H 195.652 5.88676 -1.16536 0
M  V30 2029 H 196.722 4.55927 -1.65103 0
M  V30 2030 N 198.065 0.39524 1.52563 0
M  V30 2031 C 199.29 -0.187456 2.06551 0
M  V30 2032 C 199.715 -1.39249 1.26457 0
M  V30 2033 O 199.073 -1.78947 0.291151 0
M  V30 2034 C 199.121 -0.529985 3.56684 0
M  V30 2035 O 198.225 -1.62307 3.79118 0
M  V30 2036 H 197.566 -0.0202537 0.663691 0
M  V30 2037 H 200.096 0.564426 1.96661 0
M  V30 2038 H 200.106 -0.792598 4.00227 0
M  V30 2039 H 198.781 0.350987 4.14416 0
M  V30 2040 H 197.358 -1.3537 3.47461 0
M  V30 2041 N 199.544 -1.57102 0.125237 0
M  V30 2042 C 200.476 -2.12726 -0.853237 0
M  V30 2043 C 201.489 -1.07145 -1.22571 0
M  V30 2044 O 202.678 -1.34497 -1.17358 0
M  V30 2045 C 199.778 -2.61709 -2.15317 0
M  V30 2046 C 198.951 -3.91456 -1.95143 0
M  V30 2047 C 198.01 -4.25973 -3.08923 0
M  V30 2048 O 197.036 -4.94682 -2.81564 0
M  V30 2049 N 198.238 -3.83795 -4.35524 0
M  V30 2050 H 201.003 -2.97307 -0.377964 0
M  V30 2051 H 198.564 -1.61792 -0.0590011 0
M  V30 2052 H 200.556 -2.81826 -2.90441 0
M  V30 2053 H 199.126 -1.81974 -2.54174 0
M  V30 2054 H 198.346 -3.80185 -1.04177 0
M  V30 2055 H 199.634 -4.76283 -1.78976 0
M  V30 2056 H 199.032 -3.2839 -4.60626 0
M  V30 2057 H 197.589 -4.09008 -5.07499 0
M  V30 2058 N 201.022 0.148545 -1.56898 0
M  V30 2059 C 201.985 1.16736 -1.97244 0
M  V30 2060 C 202.985 1.35947 -0.858777 0
M  V30 2061 O 204.175 1.32966 -1.12542 0
M  V30 2062 C 201.307 2.52798 -2.28705 0
M  V30 2063 H 202.5 0.821279 -2.88435 0
M  V30 2064 H 200.053 0.391831 -1.51309 0
M  V30 2065 H 200.788 2.92381 -1.403 0
M  V30 2066 H 200.573 2.40216 -3.09901 0
M  V30 2067 H 202.063 3.26179 -2.60762 0
M  V30 2068 N 202.5 1.5196 0.417844 0
M  V30 2069 C 203.43 1.77634 1.51554 0
M  V30 2070 C 204.411 0.626918 1.58126 0
M  V30 2071 O 205.596 0.871632 1.7354 0
M  V30 2072 C 202.726 1.91911 2.8946 0
M  V30 2073 C 201.68 3.07463 2.97743 0
M  V30 2074 C 201.006 3.06951 4.37819 0
M  V30 2075 C 202.306 4.47082 2.70027 0
M  V30 2076 H 204 2.6955 1.3032 0
M  V30 2077 H 201.546 1.29706 0.625492 0
M  V30 2078 H 203.499 2.08455 3.6623 0
M  V30 2079 H 202.223 0.966598 3.11969 0
M  V30 2080 H 200.882 2.90656 2.23416 0
M  V30 2081 H 200.53 2.09438 4.57323 0
M  V30 2082 H 200.23 3.84556 4.44286 0
M  V30 2083 H 201.754 3.25613 5.16535 0
M  V30 2084 H 203.168 4.6414 3.36522 0
M  V30 2085 H 201.565 5.2654 2.87881 0
M  V30 2086 H 202.635 4.55777 1.65514 0
M  V30 2087 N 203.978 -0.674533 1.42435 0
M  V30 2088 C 204.908 -1.80009 1.48724 0
M  V30 2089 C 205.889 -1.6659 0.343793 0
M  V30 2090 O 207.074 -1.86007 0.558137 0
M  V30 2091 C 204.204 -3.18306 1.38919 0
M  V30 2092 C 203.158 -3.46461 2.51294 0
M  V30 2093 C 202.484 -4.84335 2.26547 0
M  V30 2094 C 203.784 -3.43328 3.93603 0
M  V30 2095 H 205.478 -1.75004 2.42928 0
M  V30 2096 H 203.024 -0.840533 1.16923 0
M  V30 2097 H 204.977 -3.9678 1.41927 0
M  V30 2098 H 203.701 -3.2399 0.412094 0
M  V30 2099 H 202.36 -2.70348 2.47604 0
M  V30 2100 H 202.008 -4.86669 1.2713 0
M  V30 2101 H 201.708 -5.04136 3.01861 0
M  V30 2102 H 203.232 -5.65094 2.31304 0
M  V30 2103 H 204.646 -4.11772 3.98894 0
M  V30 2104 H 203.043 -3.74664 4.68771 0
M  V30 2105 H 204.113 -2.41897 4.20255 0
M  V30 2106 N 205.456 -1.28612 -0.910864 0
M  V30 2107 C 206.733 -1.06632 -1.63979 0
M  V30 2108 C 207.113 0.393351 -2.07403 0
M  V30 2109 O 206.461 1.37999 -1.82122 0
M  V30 2110 C 206.671 -2.0436 -2.8291 0
M  V30 2111 C 208.019 -2.34666 -3.5386 0
M  V30 2112 O 209.043 -2.02467 -2.93062 0
M  V30 2113 O 207.902 -2.89631 -4.63439 0
M  V30 2114 H 204.996 -0.407737 -0.7195 0
M  V30 2115 H 207.542 -1.39942 -0.959914 0
M  V30 2116 H 206.314 -3.02727 -2.47936 0
M  V30 2117 H 205.937 -1.71714 -3.58609 0
M  V30 2118 N 206.934 1.1197 -1.10907 0
M  V30 2119 C 207.897 2.16031 -0.765707 0
M  V30 2120 C 208.897 1.59393 0.212235 0
M  V30 2121 O 210.087 1.74196 -0.0115441 0
M  V30 2122 C 207.219 3.40632 -0.135053 0
M  V30 2123 H 208.412 2.47919 -1.68748 0
M  V30 2124 H 205.965 1.27061 -0.910226 0
M  V30 2125 H 206.7 3.14348 0.797218 0
M  V30 2126 H 206.485 3.8302 -0.838937 0
M  V30 2127 H 207.975 4.17505 0.0892469 0
M  V30 2128 N 208.412 0.89855 1.29475 0
M  V30 2129 C 209.64 0.539261 1.99749 0
M  V30 2130 C 210.055 -0.875716 1.67262 0
M  V30 2131 O 209.412 -1.57786 0.917049 0
M  V30 2132 C 209.463 0.72061 3.54245 0
M  V30 2133 O 209.184 2.07989 3.8558 0
M  V30 2134 C 210.685 0.366118 4.41786 0
M  V30 2135 H 207.905 0.207047 0.638258 0
M  V30 2136 H 210.449 1.20758 1.65039 0
M  V30 2137 H 208.604 0.0994862 3.87272 0
M  V30 2138 H 209.018 2.10841 4.80257 0
M  V30 2139 H 210.492 0.543848 5.49314 0
M  V30 2140 H 210.969 -0.696763 4.33638 0
M  V30 2141 H 211.575 0.964135 4.14228 0
M  V30 2142 N 209.89 -1.43072 0.660911 0
M  V30 2143 C 210.853 -2.29194 -0.0166406 0
M  V30 2144 C 211.853 -1.42609 -0.742912 0
M  V30 2145 O 213.043 -1.64155 -0.583004 0
M  V30 2146 C 210.175 -3.24831 -1.0343 0
M  V30 2147 H 211.368 -2.90596 0.741208 0
M  V30 2148 H 208.921 -1.5048 0.422532 0
M  V30 2149 H 209.656 -2.68339 -1.82111 0
M  V30 2150 H 209.441 -3.88676 -0.517082 0
M  V30 2151 H 210.931 -3.89451 -1.50723 0
M  V30 2152 N 211.368 -0.403325 -1.52352 0
M  V30 2153 C 212.298 0.416205 -2.29761 0
M  V30 2154 C 213.279 1.05123 -1.33728 0
M  V30 2155 O 214.464 1.06134 -1.62632 0
M  V30 2156 C 211.594 1.53624 -3.11475 0
M  V30 2157 C 210.548 1.02653 -4.15507 0
M  V30 2158 C 209.874 2.23971 -4.85532 0
M  V30 2159 C 211.174 0.08463 -5.22231 0
M  V30 2160 H 212.868 -0.229701 -2.98518 0
M  V30 2161 H 210.414 -0.111913 -1.43564 0
M  V30 2162 H 212.367 2.1165 -3.64393 0
M  V30 2163 H 211.091 2.20994 -2.40477 0
M  V30 2164 H 209.75 0.46871 -3.63591 0
M  V30 2165 H 209.398 2.89883 -4.11068 0
M  V30 2166 H 209.098 1.90521 -5.55856 0
M  V30 2167 H 210.622 2.82614 -5.41259 0
M  V30 2168 H 212.036 0.573509 -5.70424 0
M  V30 2169 H 210.433 -0.160783 -5.99885 0
M  V30 2170 H 211.503 -0.86237 -4.7717 0
M  V30 2171 N 212.846 1.57033 -0.133567 0
M  V30 2172 C 213.809 2.14897 0.796995 0
M  V30 2173 C 214.809 1.0874 1.18458 0
M  V30 2174 O 215.999 1.34446 1.1077 0
M  V30 2175 C 213.131 2.70112 2.07973 0
M  V30 2176 H 214.324 2.98457 0.293873 0
M  V30 2177 H 211.877 1.55871 0.115787 0
M  V30 2178 H 212.612 1.9018 2.62682 0
M  V30 2179 H 212.397 3.47764 1.81115 0
M  V30 2180 H 213.887 3.14738 2.74462 0
M  V30 2181 N 214.325 -0.140222 1.56975 0
M  V30 2182 C 215.55 -0.870414 1.88251 0
M  V30 2183 C 215.975 -1.73637 0.723312 0
M  V30 2184 O 215.333 -1.78329 -0.32689 0
M  V30 2185 C 215.381 -1.69737 3.18154 0
M  V30 2186 O 214.485 -2.80229 3.02565 0
M  V30 2187 H 213.826 -0.242025 0.61832 0
M  V30 2188 H 216.356 -0.128999 2.04193 0
M  V30 2189 H 216.366 -2.09099 3.50345 0
M  V30 2190 H 215.041 -1.06152 4.02125 0
M  V30 2191 H 213.618 -2.44224 2.81796 0
M  V30 2192 N 215.803 -1.52179 -0.40978 0
M  V30 2193 C 217.051 -1.65878 -1.15451 0
M  V30 2194 C 217.372 -0.390771 -1.91044 0
M  V30 2195 O 216.642 0.594323 -1.86667 0
M  V30 2196 H 215.222 -0.611405 -0.429177 0
M  V30 2197 H 217.884 -1.89219 -0.467134 0
M  V30 2198 H 216.98 -2.49954 -1.86894 0
M  V30 2199 N 217.281 0.66697 -1.42791 0
M  V30 2200 C 218.697 0.981027 -1.25889 0
M  V30 2201 C 218.897 2.00793 -0.168695 0
M  V30 2202 O 217.953 2.48321 0.45747 0
M  V30 2203 C 219.266 1.47838 -2.61848 0
M  V30 2204 C 220.814 1.59575 -2.69267 0
M  V30 2205 C 221.289 2.12704 -4.05612 0
M  V30 2206 N 222.78 2.20026 -4.07606 0
M  V30 2207 C 223.515 2.62227 -5.09926 0
M  V30 2208 N 223.011 3.03824 -6.22626 0
M  V30 2209 N 224.804 2.62045 -4.97281 0
M  V30 2210 H 216.955 -0.0127891 -2.12396 0
M  V30 2211 H 219.218 0.0568258 -0.946295 0
M  V30 2212 H 218.924 0.798299 -3.4252 0
M  V30 2213 H 218.798 2.45579 -2.86305 0
M  V30 2214 H 221.185 2.26687 -1.88936 0
M  V30 2215 H 221.266 0.60302 -2.48591 0
M  V30 2216 H 220.91 1.46198 -4.86404 0
M  V30 2217 H 220.84 3.12782 -4.23645 0
M  V30 2218 H 223.331 1.90708 -3.2625 0
M  V30 2219 H 223.644 3.34734 -6.96544 0
M  V30 2220 H 221.989 3.01662 -6.26119 0
M  V30 2221 H 225.18 2.28916 -4.08308 0
M  V30 2222 H 225.353 2.94613 -5.77154 0
M  V30 2223 N 218.759 1.29093 0.90403 0
M  V30 2224 C 219.689 1.16401 2.02418 0
M  V30 2225 C 220.67 0.0593085 1.69997 0
M  V30 2226 O 221.855 0.238021 1.92736 0
M  V30 2227 C 218.985 0.835233 3.37107 0
M  V30 2228 C 217.939 1.89578 3.83724 0
M  V30 2229 C 217.265 1.42041 5.15489 0
M  V30 2230 C 218.565 3.30394 4.04521 0
M  V30 2231 H 220.259 2.10109 2.13295 0
M  V30 2232 H 217.805 1.01157 1.02486 0
M  V30 2233 H 219.758 0.733169 4.14973 0
M  V30 2234 H 218.482 -0.137543 3.2631 0
M  V30 2235 H 217.141 1.98715 3.08071 0
M  V30 2236 H 216.789 0.436426 5.01103 0
M  V30 2237 H 216.489 2.12964 5.4765 0
M  V30 2238 H 218.013 1.33176 5.959 0
M  V30 2239 H 219.427 3.24123 4.72882 0
M  V30 2240 H 217.824 3.99237 4.48029 0
M  V30 2241 H 218.894 3.73692 3.09002 0
M  V30 2242 N 220.237 -1.11381 1.11499 0
M  V30 2243 C 221.184 -2.17439 0.773887 0
M  V30 2244 C 222.154 -1.64132 -0.254899 0
M  V30 2245 O 223.339 -1.90345 -0.13168 0
M  V30 2246 C 220.479 -3.44373 0.223917 0
M  V30 2247 C 219.592 -4.1168 1.30934 0
M  V30 2248 C 218.727 -5.263 0.71984 0
M  V30 2249 C 217.766 -5.85493 1.78507 0
M  V30 2250 N 216.903 -6.91507 1.21502 0
M  V30 2251 H 221.743 -2.45962 1.68246 0
M  V30 2252 H 219.28 -1.20744 0.840191 0
M  V30 2253 H 221.238 -4.17047 -0.112921 0
M  V30 2254 H 219.868 -3.16232 -0.647851 0
M  V30 2255 H 218.92 -3.37073 1.76312 0
M  V30 2256 H 220.232 -4.51729 2.11524 0
M  V30 2257 H 219.386 -6.05785 0.333094 0
M  V30 2258 H 218.125 -4.87559 -0.117377 0
M  V30 2259 H 217.13 -5.04686 2.18111 0
M  V30 2260 H 218.355 -6.26301 2.62533 0
M  V30 2261 H 216.301 -6.54783 0.399455 0
M  V30 2262 H 216.218 -7.30214 1.95763 0
M  V30 2263 H 217.486 -7.74795 0.855181 0
M  V30 2264 N 221.715 -0.905404 -1.28997 0
M  V30 2265 C 222.943 -0.549846 -1.9946 0
M  V30 2266 C 223.358 0.866834 -1.67724 0
M  V30 2267 O 222.715 1.57298 -0.925404 0
M  V30 2268 C 222.766 -0.739387 -3.53858 0
M  V30 2269 O 222.487 -2.10031 -3.84472 0
M  V30 2270 C 223.988 -0.389541 -4.41585 0
M  V30 2271 H 221.208 -0.210429 -0.637151 0
M  V30 2272 H 223.752 -1.21632 -1.64396 0
M  V30 2273 H 221.907 -0.120023 -3.87214 0
M  V30 2274 H 222.321 -2.13385 -4.79132 0
M  V30 2275 H 223.795 -0.572972 -5.49018 0
M  V30 2276 H 224.272 0.673756 -4.34001 0
M  V30 2277 H 224.878 -0.986089 -4.1371 0
M  V30 2278 N 223.193 1.4272 -0.668489 0
M  V30 2279 C 224.103 2.34596 0.0139753 0
M  V30 2280 C 225.119 1.5474 0.795703 0
M  V30 2281 O 226.295 1.87334 0.739466 0
M  V30 2282 C 223.36 3.33202 0.957982 0
M  V30 2283 C 222.421 4.28957 0.17149 0
M  V30 2284 C 221.654 5.22853 1.07053 0
M  V30 2285 O 221.877 5.21531 2.31001 0
M  V30 2286 O 220.811 5.9952 0.534727 0
M  V30 2287 H 224.637 2.9448 -0.742661 0
M  V30 2288 H 222.222 1.43117 -0.428705 0
M  V30 2289 H 224.104 3.93796 1.50008 0
M  V30 2290 H 222.779 2.758 1.69458 0
M  V30 2291 H 221.686 3.71796 -0.414558 0
M  V30 2292 H 223.019 4.89383 -0.52586 0
M  V30 2293 N 224.671 0.411399 1.52136 0
M  V30 2294 C 225.917 -0.163888 2.02137 0
M  V30 2295 C 226.25 -1.44597 1.29636 0
M  V30 2296 O 225.525 -1.90272 0.403353 0
M  V30 2297 C 225.808 -0.40927 3.57767 0
M  V30 2298 C 225.661 0.889643 4.40914 0
M  V30 2299 C 226.98 -1.19042 4.23694 0
M  V30 2300 H 224.099 -0.0580896 0.734707 0
M  V30 2301 H 226.741 0.54531 1.82007 0
M  V30 2302 H 224.891 -1.0134 3.7505 0
M  V30 2303 H 226.563 1.52575 4.35337 0
M  V30 2304 H 224.806 1.50011 4.07037 0
M  V30 2305 H 225.477 0.672314 5.4789 0
M  V30 2306 H 227.953 -0.678942 4.10524 0
M  V30 2307 H 226.829 -1.33086 5.32522 0
M  V30 2308 H 227.09 -2.21166 3.82803 0
M  V30 2309 N 226.149 -1.5696 0.141893 0
M  V30 2310 C 227.395 -1.9625 -0.511248 0
M  V30 2311 C 227.728 -1.02654 -1.64851 0
M  V30 2312 O 227.003 -0.0679676 -1.94381 0
M  V30 2313 C 227.286 -3.45285 -1.02227 0
M  V30 2314 C 227.139 -4.49658 0.113138 0
M  V30 2315 C 228.458 -3.96698 -1.90574 0
M  V30 2316 H 225.577 -0.713567 -0.184367 0
M  V30 2317 H 228.219 -1.88698 0.222087 0
M  V30 2318 H 226.369 -3.51852 -1.64719 0
M  V30 2319 H 228.041 -4.55174 0.749302 0
M  V30 2320 H 226.284 -4.26857 0.773026 0
M  V30 2321 H 226.955 -5.51258 -0.286053 0
M  V30 2322 H 229.431 -3.92578 -1.37918 0
M  V30 2323 H 228.307 -5.01453 -2.2324 0
M  V30 2324 H 228.568 -3.3875 -2.84079 0
M  V30 2325 N 227.627 0.131896 -1.57047 0
M  V30 2326 C 228.867 0.847972 -1.85981 0
M  V30 2327 C 229.231 1.77655 -0.7282 0
M  V30 2328 O 230.432 2.53322 -0.898968 0
M  V30 2329 C 228.703 1.58919 -3.20124 0
M  V30 2330 S 230.262 2.34862 -3.70655 0
M  V30 2331 H 227.08 0.283273 -0.652133 0
M  V30 2332 H 229.682 0.107057 -1.95207 0
M  V30 2333 H 228.386 0.898771 -4.00438 0
M  V30 2334 H 227.917 2.37073 -3.13942 0
M  V30 2335 H 229.932 3.60344 -3.41126 0
M  V30 2336 N 229.106 1.52395 0.401703 0
M  V30 2337 C 230.383 1.57387 1.16141 0
M  V30 2338 C 230.763 0.359359 2.08019 0
M  V30 2339 O 230.111 -0.65326 2.18963 0
M  V30 2340 C 230.321 2.90631 1.93221 0
M  V30 2341 C 231.669 3.43904 2.49028 0
M  V30 2342 O 232.693 2.92421 2.03393 0
M  V30 2343 O 231.552 4.33823 3.32356 0
M  V30 2344 H 228.646 0.634262 0.530698 0
M  V30 2345 H 231.192 1.64725 0.407883 0
M  V30 2346 H 229.964 3.70473 1.25958 0
M  V30 2347 H 229.587 2.8662 2.75563 0
M  V30 2348 N 230.584 -0.659388 1.43143 0
M  V30 2349 C 231.494 -1.80167 1.50256 0
M  V30 2350 C 232.51 -1.69571 0.390106 0
M  V30 2351 O 233.686 -1.90849 0.643319 0
M  V30 2352 C 230.751 -3.16409 1.41725 0
M  V30 2353 C 229.812 -3.38848 2.63591 0
M  V30 2354 C 229.045 -4.68591 2.55458 0
M  V30 2355 O 229.268 -5.47532 1.59891 0
M  V30 2356 O 228.202 -4.92614 3.45854 0
M  V30 2357 H 232.028 -1.77121 2.46702 0
M  V30 2358 H 229.613 -0.817092 1.25076 0
M  V30 2359 H 231.495 -3.9768 1.39387 0
M  V30 2360 H 230.17 -3.20059 0.484118 0
M  V30 2361 H 229.077 -2.57366 2.71502 0
M  V30 2362 H 230.41 -3.4004 3.55856 0
M  V30 2363 N 232.062 -1.29571 -0.897171 0
M  V30 2364 C 233.308 -1.18873 -1.65048 0
M  V30 2365 C 233.663 0.256707 -1.9068 0
M  V30 2366 O 232.956 1.18202 -1.50794 0
M  V30 2367 C 233.15 -1.9382 -3.00281 0
M  V30 2368 C 232.979 -3.45503 -2.8785 0
M  V30 2369 C 231.749 -4.14856 -2.88483 0
M  V30 2370 C 233.947 -4.40956 -2.64693 0
M  V30 2371 N 231.929 -5.52886 -2.66815 0
M  V30 2372 C 233.3 -5.66464 -2.5203 0
M  V30 2373 C 235.355 -4.3069 -2.49821 0
M  V30 2374 C 234.058 -6.82871 -2.26008 0
M  V30 2375 C 236.084 -5.46852 -2.25182 0
M  V30 2376 C 235.446 -6.71333 -2.13286 0
M  V30 2377 H 231.545 -0.489998 -0.609447 0
M  V30 2378 H 234.129 -1.63431 -1.05822 0
M  V30 2379 H 232.3 -1.51671 -3.57562 0
M  V30 2380 H 234.032 -1.75366 -3.64731 0
M  V30 2381 H 230.787 -3.66579 -2.99861 0
M  V30 2382 H 231.211 -6.25487 -2.59027 0
M  V30 2383 H 235.853 -3.35141 -2.5776 0
M  V30 2384 H 233.571 -7.78473 -2.16806 0
M  V30 2385 H 237.157 -5.40809 -2.14515 0
M  V30 2386 H 236.037 -7.59701 -1.94485 0
M  V30 2387 N 233.54 1.10788 -1.12088 0
M  V30 2388 C 234.472 2.16816 -0.743213 0
M  V30 2389 C 235.485 1.6119 0.228412 0
M  V30 2390 O 236.674 1.78497 0.0102931 0
M  V30 2391 C 233.774 3.38809 -0.0787313 0
M  V30 2392 C 232.947 4.23885 -1.0789 0
M  V30 2393 C 232.006 5.24334 -0.442713 0
M  V30 2394 O 231.032 5.58497 -1.09864 0
M  V30 2395 N 232.234 5.75079 0.791457 0
M  V30 2396 H 234.999 2.49825 -1.65552 0
M  V30 2397 H 232.56 1.26373 -1.012 0
M  V30 2398 H 234.552 4.03107 0.358766 0
M  V30 2399 H 233.122 3.03805 0.736275 0
M  V30 2400 H 232.342 3.55939 -1.69414 0
M  V30 2401 H 233.63 4.77562 -1.75533 0
M  V30 2402 H 233.028 5.49517 1.3434 0
M  V30 2403 H 231.585 6.4118 1.17183 0
M  V30 2404 N 235.018 0.912232 1.28515 0
M  V30 2405 C 235.948 0.416403 2.29757 0
M  V30 2406 C 236.929 -0.515194 1.6211 0
M  V30 2407 O 238.114 -0.423253 1.89532 0
M  V30 2408 C 235.244 -0.34572 3.45575 0
M  V30 2409 C 234.198 0.496599 4.25109 0
M  V30 2410 C 233.524 -0.393771 5.33248 0
M  V30 2411 C 234.824 1.75307 4.92001 0
M  V30 2412 H 236.518 1.26249 2.7148 0
M  V30 2413 H 234.064 0.608515 1.30511 0
M  V30 2414 H 236.017 -0.703422 4.15488 0
M  V30 2415 H 234.741 -1.2257 3.02728 0
M  V30 2416 H 233.4 0.8368 3.56922 0
M  V30 2417 H 233.048 -1.27225 4.86644 0
M  V30 2418 H 232.748 0.166209 5.87365 0
M  V30 2419 H 234.272 -0.747389 6.06009 0
M  V30 2420 H 235.686 1.46437 5.54283 0
M  V30 2421 H 234.083 2.25534 5.56106 0
M  V30 2422 H 235.153 2.48176 4.16577 0
M  V30 2423 N 236.496 -1.42363 0.676048 0
M  V30 2424 C 237.907 -1.84649 0.275948 0
M  V30 2425 C 238.258 -1.56588 -1.18214 0
M  V30 2426 O 237.383 -1.02634 -1.90513 0
M  V30 2427 C 237.978 -3.35178 0.494053 0
M  V30 2428 C 236.537 -3.76109 0.148061 0
M  V30 2429 C 235.684 -2.65931 0.785891 0
M  V30 2430 H 238.635 -1.32192 0.878121 0
M  V30 2431 H 238.656 -3.79655 -0.25343 0
M  V30 2432 H 238.168 -3.55571 1.55535 0
M  V30 2433 H 236.269 -3.61323 -0.909742 0
M  V30 2434 H 236.382 -4.7546 0.589454 0
M  V30 2435 H 234.746 -2.53773 0.217113 0
M  V30 2436 H 235.529 -2.89146 1.85067 0
M  V30 2437 N 237.974 -0.419461 -1.51915 0
M  V30 2438 C 239.214 0.152336 -2.03832 0
M  V30 2439 C 239.578 1.41501 -1.29775 0
M  V30 2440 O 240.779 2.06591 -1.7197 0
M  V30 2441 C 239.05 0.383812 -3.55333 0
M  V30 2442 S 240.609 0.921577 -4.29013 0
M  V30 2443 H 237.427 0.0402193 -0.709862 0
M  V30 2444 H 240.029 -0.574758 -1.8686 0
M  V30 2445 H 238.733 -0.541794 -4.06808 0
M  V30 2446 H 238.264 1.13849 -3.76566 0
M  V30 2447 H 240.279 2.20108 -4.4471 0
M  V30 2448 N 239.452 1.56882 -0.150215 0
M  V30 2449 C 240.698 1.96518 0.500834 0
M  V30 2450 C 241.031 1.03527 1.64304 0
M  V30 2451 O 240.306 0.0782751 1.94342 0
M  V30 2452 C 240.589 3.45822 1.00395 0
M  V30 2453 C 240.442 4.49591 -0.136983 0
M  V30 2454 C 241.761 3.97704 1.88467 0
M  V30 2455 H 238.88 0.714535 0.18058 0
M  V30 2456 H 241.522 1.88577 -0.232091 0
M  V30 2457 H 239.672 3.5272 1.62851 0
M  V30 2458 H 241.344 4.5477 -0.77343 0
M  V30 2459 H 239.587 4.26441 -0.795652 0
M  V30 2460 H 240.258 5.51402 0.256815 0
M  V30 2461 H 242.734 3.93304 1.35834 0
M  V30 2462 H 241.61 5.0263 2.20578 0
M  V30 2463 H 241.871 3.40252 2.82279 0
M  V30 2464 N 240.93 -0.123565 1.57115 0
M  V30 2465 C 242.341 -0.681198 1.73829 0
M  V30 2466 C 242.692 -1.80535 0.768214 0
M  V30 2467 O 241.817 -2.16317 -0.0599103 0
M  V30 2468 C 242.412 -1.24246 3.15196 0
M  V30 2469 C 240.971 -1.74643 3.33432 0
M  V30 2470 C 240.118 -0.644284 2.69711 0
M  V30 2471 H 243.069 0.102315 1.5837 0
M  V30 2472 H 243.09 -2.11216 3.16493 0
M  V30 2473 H 242.602 -0.424062 3.85776 0
M  V30 2474 H 240.703 -2.58974 2.67886 0
M  V30 2475 H 240.816 -1.85902 4.41562 0
M  V30 2476 H 239.18 -1.07676 2.3082 0
M  V30 2477 H 239.963 0.163058 3.42913 0
M  V30 2478 N 242.408 -1.52605 -0.393616 0
M  V30 2479 C 243.318 -1.79971 -1.50492 0
M  V30 2480 C 244.334 -0.686181 -1.59899 0
M  V30 2481 O 245.51 -0.973274 -1.76322 0
M  V30 2482 C 242.575 -1.95867 -2.86072 0
M  V30 2483 C 241.636 -3.19781 -2.86424 0
M  V30 2484 C 240.869 -3.34909 -4.15538 0
M  V30 2485 O 241.092 -2.54948 -5.10253 0
M  V30 2486 O 240.026 -4.28141 -4.23059 0
M  V30 2487 H 243.852 -2.74328 -1.30299 0
M  V30 2488 H 241.437 -1.3764 -0.581005 0
M  V30 2489 H 243.319 -2.08056 -3.66457 0
M  V30 2490 H 241.994 -1.04699 -3.063 0
M  V30 2491 H 240.901 -3.13038 -2.04837 0
M  V30 2492 H 242.234 -4.1078 -2.71147 0
M  V30 2493 N 243.887 0.651787 -1.4349 0
M  V30 2494 C 244.85 1.74647 -1.48429 0
M  V30 2495 C 245.85 1.56513 -0.368817 0
M  V30 2496 O 247.04 1.62385 -0.630623 0
M  V30 2497 C 244.172 3.13533 -1.33827 0
M  V30 2498 H 245.365 1.71649 -2.4592 0
M  V30 2499 H 242.918 0.863573 -1.30277 0
M  V30 2500 H 243.653 3.22142 -0.37349 0
M  V30 2501 H 243.438 3.28101 -2.14691 0
M  V30 2502 H 244.928 3.93356 -1.40218 0
M  V30 2503 N 245.365 1.30045 0.890287 0
M  V30 2504 C 246.614 1.17929 1.63633 0
M  V30 2505 C 246.927 -0.266204 1.9378 0
M  V30 2506 O 248.133 -0.508804 2.6669 0
M  V30 2507 C 246.589 2.06317 2.94892 0
M  V30 2508 C 246.197 3.55745 2.72305 0
M  V30 2509 C 247.941 2.0295 3.72843 0
M  V30 2510 C 245.848 4.36205 3.99348 0
M  V30 2511 H 244.778 0.437782 0.613892 0
M  V30 2512 H 247.429 1.54754 0.986075 0
M  V30 2513 H 245.811 1.6237 3.61182 0
M  V30 2514 H 246.985 4.07805 2.1455 0
M  V30 2515 H 245.3 3.6088 2.07737 0
M  V30 2516 H 247.897 2.60319 4.67053 0
M  V30 2517 H 248.24 1.0117 4.0382 0
M  V30 2518 H 248.773 2.4499 3.13408 0
M  V30 2519 H 245.512 5.38659 3.73533 0
M  V30 2520 H 245.032 3.8891 4.56628 0
M  V30 2521 H 246.711 4.47362 4.67415 0
M  V30 2522 N 246.843 -1.10192 1.12674 0
M  V30 2523 C 248.254 -1.63707 0.897604 0
M  V30 2524 C 248.605 -1.87812 -0.567546 0
M  V30 2525 O 247.73 -1.62196 -1.43253 0
M  V30 2526 C 248.325 -2.974 1.62292 0
M  V30 2527 C 246.884 -3.47772 1.43986 0
M  V30 2528 C 246.031 -2.22332 1.65722 0
M  V30 2529 H 248.982 -0.936587 1.28116 0
M  V30 2530 H 249.003 -3.64986 1.07541 0
M  V30 2531 H 248.515 -2.79824 2.68924 0
M  V30 2532 H 246.616 -3.70487 0.396206 0
M  V30 2533 H 246.729 -4.25723 2.19765 0
M  V30 2534 H 245.093 -2.30599 1.08149 0
M  V30 2535 H 245.876 -2.07285 2.73657 0
M  V30 2536 N 248.321 -0.919034 -1.28029 0
M  V30 2537 C 249.251 -0.428581 -2.29533 0
M  V30 2538 C 250.232 0.50659 -1.62381 0
M  V30 2539 O 251.417 0.413195 -1.89753 0
M  V30 2540 C 248.547 0.327388 -3.45753 0
M  V30 2541 C 247.501 -0.519137 -4.2484 0
M  V30 2542 C 246.827 0.365486 -5.33449 0
M  V30 2543 C 248.127 -1.77914 -4.91064 0
M  V30 2544 H 249.821 -1.27687 -2.70807 0
M  V30 2545 H 247.367 -0.615428 -1.30186 0
M  V30 2546 H 249.32 0.681378 -4.15855 0
M  V30 2547 H 248.044 1.20963 -3.03374 0
M  V30 2548 H 246.703 -0.855717 -3.56473 0
M  V30 2549 H 246.351 1.24642 -4.87312 0
M  V30 2550 H 246.051 -0.197356 -5.87268 0
M  V30 2551 H 247.575 0.715241 -6.06396 0
M  V30 2552 H 248.989 -1.49374 -5.53498 0
M  V30 2553 H 247.386 -2.2848 -5.54903 0
M  V30 2554 H 248.456 -2.50382 -4.15255 0
M  V30 2555 N 249.799 1.42003 -0.683588 0
M  V30 2556 C 251.046 2.01413 -0.209514 0
M  V30 2557 C 251.374 1.54088 1.1869 0
M  V30 2558 O 250.629 0.737591 1.81268 0
M  V30 2559 C 250.928 3.56827 -0.202357 0
M  V30 2560 C 250.594 4.23617 -1.54464 0
M  V30 2561 C 249.256 4.41577 -1.91215 0
M  V30 2562 C 251.608 4.61178 -2.42826 0
M  V30 2563 C 248.936 4.9437 -3.15935 0
M  V30 2564 C 251.288 5.15355 -3.66867 0
M  V30 2565 C 249.952 5.31528 -4.03776 0
M  V30 2566 H 249.222 0.737023 -0.0766668 0
M  V30 2567 H 251.869 1.70067 -0.880312 0
M  V30 2568 H 250.174 3.87892 0.551969 0
M  V30 2569 H 251.871 4.00588 0.181793 0
M  V30 2570 H 248.461 4.10004 -1.24877 0
M  V30 2571 H 252.645 4.46968 -2.15717 0
M  V30 2572 H 247.901 5.05076 -3.44541 0
M  V30 2573 H 252.075 5.43402 -4.35531 0
M  V30 2574 H 249.702 5.72199 -5.00492 0
M  V30 2575 N 251.277 0.427512 1.51691 0
M  V30 2576 C 252.525 -0.141948 2.01601 0
M  V30 2577 C 252.846 -1.44067 1.31414 0
M  V30 2578 O 252.116 -1.90763 0.445658 0
M  V30 2579 H 250.696 -0.0554468 0.744939 0
M  V30 2580 H 253.358 0.567968 1.86441 0
M  V30 2581 H 252.454 -0.324913 3.10404 0
M  V30 2582 N 252.755 -1.56801 0.158532 0
M  V30 2583 C 253.687 -2.14488 -0.807923 0
M  V30 2584 C 254.7 -1.09721 -1.20271 0
M  V30 2585 O 255.889 -1.36956 -1.14478 0
M  V30 2586 C 252.989 -2.66217 -2.09718 0
M  V30 2587 C 252.162 -3.95507 -1.86796 0
M  V30 2588 C 251.221 -4.3243 -2.99818 0
M  V30 2589 O 250.247 -5.00543 -2.71008 0
M  V30 2590 N 251.449 -3.92947 -4.27285 0
M  V30 2591 H 254.214 -2.98042 -0.314816 0
M  V30 2592 H 251.775 -1.61881 -0.0246692 0
M  V30 2593 H 253.767 -2.87924 -2.84398 0
M  V30 2594 H 252.337 -1.87324 -2.50257 0
M  V30 2595 H 251.557 -3.82309 -0.96089 0
M  V30 2596 H 252.845 -4.79972 -1.68833 0
M  V30 2597 H 252.243 -3.38087 -4.53557 0
M  V30 2598 H 250.8 -4.19681 -4.9871 0
M  V30 2599 N 254.233 0.115231 -1.57178 0
M  V30 2600 C 255.458 0.840354 -1.89612 0
M  V30 2601 C 255.883 1.72464 -0.750845 0
M  V30 2602 O 255.241 1.78826 0.298478 0
M  V30 2603 C 255.289 1.64654 -3.20814 0
M  V30 2604 O 254.393 2.7538 -3.06985 0
M  V30 2605 H 253.734 0.232158 -0.622092 0
M  V30 2606 H 256.264 0.0964977 -2.04372 0
M  V30 2607 H 256.274 2.03499 -3.53627 0
M  V30 2608 H 254.949 0.997416 -4.03763 0
M  V30 2609 H 253.526 2.3971 -2.85646 0
M  V30 2610 N 255.711 1.52812 0.385517 0
M  V30 2611 C 256.959 1.67694 1.12797 0
M  V30 2612 C 257.28 0.421115 1.90399 0
M  V30 2613 O 256.55 -0.564551 1.87589 0
M  V30 2614 H 255.13 0.618155 0.419396 0
M  V30 2615 H 257.792 1.89938 0.436972 0
M  V30 2616 H 256.888 2.52896 1.82894 0
M  V30 2617 N 257.189 -0.644168 1.43834 0
M  V30 2618 C 258.466 -1.40188 1.36406 0
M  V30 2619 C 258.846 -2.11094 0.0163124 0
M  V30 2620 O 258.194 -2.05426 -1.00062 0
M  V30 2621 C 258.404 -2.3791 2.55343 0
M  V30 2622 C 259.752 -3.01637 2.98832 0
M  V30 2623 O 260.776 -2.48237 2.55455 0
M  V30 2624 O 259.635 -3.98477 3.74003 0
M  V30 2625 H 256.729 -0.626773 0.539523 0
M  V30 2626 H 259.275 -0.670317 1.559 0
M  V30 2627 H 258.047 -1.84525 3.4506 0
M  V30 2628 H 257.67 -3.18503 2.37995 0
M  V30 2629 N 258.668 -1.30515 -0.883378 0
M  V30 2630 C 259.945 -1.10086 -1.6168 0
M  V30 2631 C 260.325 0.349269 -2.08191 0
M  V30 2632 O 259.673 1.34105 -1.85008 0
M  V30 2633 C 259.883 -2.10315 -2.78511 0
M  V30 2634 C 261.231 -2.42119 -3.48803 0
M  V30 2635 O 262.255 -2.08638 -2.88702 0
M  V30 2636 O 261.114 -2.99396 -4.57192 0
M  V30 2637 H 258.208 -0.422907 -0.710689 0
M  V30 2638 H 260.754 -1.41947 -0.930015 0
M  V30 2639 H 259.526 -3.07917 -2.41459 0
M  V30 2640 H 259.149 -1.79282 -3.54886 0
M  V30 2641 N 260.146 1.09593 -1.13257 0
M  V30 2642 C 261.562 1.33775 -0.870423 0
M  V30 2643 C 261.762 1.95327 0.494926 0
M  V30 2644 O 260.818 2.19853 1.2418 0
M  V30 2645 C 262.131 2.25106 -1.99369 0
M  V30 2646 C 263.679 2.3862 -2.02558 0
M  V30 2647 C 264.154 3.33285 -3.14142 0
M  V30 2648 N 265.645 3.40857 -3.13641 0
M  V30 2649 C 266.38 4.14101 -3.96621 0
M  V30 2650 N 265.876 4.90157 -4.8961 0
M  V30 2651 N 267.669 4.09808 -3.84726 0
M  V30 2652 H 259.82 0.680136 -2.01216 0
M  V30 2653 H 262.083 0.362133 -0.876107 0
M  V30 2654 H 261.789 1.87103 -2.97801 0
M  V30 2655 H 261.663 3.25481 -1.90635 0
M  V30 2656 H 264.05 2.75887 -1.0474 0
M  V30 2657 H 264.131 1.38028 -2.15364 0
M  V30 2658 H 263.775 2.96741 -4.12198 0
M  V30 2659 H 263.705 4.33776 -2.98574 0
M  V30 2660 H 266.196 2.86624 -2.46282 0
M  V30 2661 H 266.509 5.4347 -5.49418 0
M  V30 2662 H 264.854 4.89251 -4.93617 0
M  V30 2663 H 268.045 3.4949 -3.11408 0
M  V30 2664 H 268.218 4.66629 -4.49623 0
M  V30 2665 N 261.624 0.925811 1.2754 0
M  V30 2666 C 262.854 0.580666 1.98272 0
M  V30 2667 C 263.262 -0.845207 1.69272 0
M  V30 2668 O 262.605 -1.57306 0.948707 0
M  V30 2669 C 262.667 0.724418 3.52126 0
M  V30 2670 C 262.331 2.12206 4.04744 0
M  V30 2671 C 263.328 3.09604 4.17662 0
M  V30 2672 C 261.013 2.4385 4.39138 0
M  V30 2673 C 263.007 4.36755 4.64246 0
M  V30 2674 C 260.694 3.71237 4.85414 0
M  V30 2675 C 261.692 4.67503 4.97926 0
M  V30 2676 O 261.38 5.92624 5.43187 0
M  V30 2677 H 261.112 0.218987 0.639547 0
M  V30 2678 H 263.666 1.24452 1.63404 0
M  V30 2679 H 261.896 0.0034663 3.867 0
M  V30 2680 H 263.585 0.384607 4.04074 0
M  V30 2681 H 264.351 2.86478 3.91351 0
M  V30 2682 H 260.23 1.69665 4.28643 0
M  V30 2683 H 263.774 5.11898 4.73927 0
M  V30 2684 H 259.671 3.94182 5.11166 0
M  V30 2685 H 260.439 5.95585 5.61445 0
M  V30 2686 N 263.102 -1.41638 0.69111 0
M  V30 2687 C 264.351 -2.00526 0.217318 0
M  V30 2688 C 264.664 -1.55353 -1.18848 0
M  V30 2689 O 265.87 -2.06769 -1.75951 0
M  V30 2690 C 264.326 -3.58313 0.337639 0
M  V30 2691 C 263.934 -4.12469 1.74852 0
M  V30 2692 C 265.678 -4.24431 -0.0766066 0
M  V30 2693 C 263.585 -5.62675 1.82074 0
M  V30 2694 H 262.515 -0.750008 0.0774893 0
M  V30 2695 H 265.166 -1.6217 0.858661 0
M  V30 2696 H 263.548 -3.9425 -0.371879 0
M  V30 2697 H 264.722 -3.8796 2.48644 0
M  V30 2698 H 263.037 -3.58861 2.11205 0
M  V30 2699 H 265.634 -5.34683 -0.0430284 0
M  V30 2700 H 265.977 -4.01101 -1.1146 0
M  V30 2701 H 266.51 -3.93512 0.582476 0
M  V30 2702 H 263.249 -5.90826 2.83911 0
M  V30 2703 H 262.769 -5.89124 1.12661 0
M  V30 2704 H 264.448 -6.27371 1.58159 0
M  V30 2705 N 264.58 -0.43555 -1.51462 0
M  V30 2706 C 265.543 0.365137 -2.26273 0
M  V30 2707 C 266.543 0.951227 -1.29647 0
M  V30 2708 O 267.733 0.825958 -1.53374 0
M  V30 2709 C 264.865 1.51645 -3.05314 0
M  V30 2710 H 266.058 -0.290474 -2.9849 0
M  V30 2711 H 263.611 -0.188676 -1.55157 0
M  V30 2712 H 264.346 2.20816 -2.3751 0
M  V30 2713 H 264.131 1.10238 -3.76284 0
M  V30 2714 H 265.621 2.08218 -3.61987 0
M  V30 2715 N 266.058 1.56714 -0.166846 0
M  V30 2716 C 267.304 1.97039 0.479962 0
M  V30 2717 C 267.637 1.05264 1.63197 0
M  V30 2718 O 266.912 0.0988833 1.94248 0
M  V30 2719 C 267.195 3.46867 0.967212 0
M  V30 2720 C 267.048 4.49421 -0.18466 0
M  V30 2721 C 268.367 3.9968 1.84238 0
M  V30 2722 H 265.486 0.71641 0.172992 0
M  V30 2723 H 268.128 1.8832 -0.252079 0
M  V30 2724 H 266.278 3.54428 1.59101 0
M  V30 2725 H 267.95 4.53924 -0.821621 0
M  V30 2726 H 266.193 4.25573 -0.840837 0
M  V30 2727 H 266.864 5.51644 0.198317 0
M  V30 2728 H 269.34 3.94723 1.31655 0
M  V30 2729 H 268.216 5.04941 2.15234 0
M  V30 2730 H 268.477 3.43226 2.78654 0
M  V30 2731 N 267.536 -0.106894 1.57237 0
M  V30 2732 C 268.813 -0.843526 1.76477 0
M  V30 2733 C 269.193 -1.97499 0.745464 0
M  V30 2734 O 268.541 -2.27357 -0.228306 0
M  V30 2735 C 268.751 -1.34903 3.21873 0
M  V30 2736 C 270.099 -1.79654 3.8472 0
M  V30 2737 O 271.123 -1.44554 3.2555 0
M  V30 2738 O 269.982 -2.44515 4.88748 0
M  V30 2739 H 267.076 -0.401468 0.723016 0
M  V30 2740 H 269.622 -0.0896927 1.69463 0
M  V30 2741 H 268.394 -0.53781 3.87586 0
M  V30 2742 H 268.017 -2.16522 3.33473 0
M  V30 2743 N 269.014 -1.53014 -0.377408 0
M  V30 2744 C 269.961 -1.78616 -1.46168 0
M  V30 2745 C 270.931 -0.629917 -1.53692 0
M  V30 2746 O 272.116 -0.870861 -1.69766 0
M  V30 2747 C 269.256 -1.97123 -2.8326 0
M  V30 2748 C 268.369 -3.24831 -2.84796 0
M  V30 2749 C 267.504 -3.33591 -4.13389 0
M  V30 2750 C 266.543 -4.55377 -4.09021 0
M  V30 2751 N 265.68 -4.61355 -5.29241 0
M  V30 2752 H 270.52 -2.71142 -1.23637 0
M  V30 2753 H 268.057 -1.34326 -0.599577 0
M  V30 2754 H 270.015 -2.05839 -3.62886 0
M  V30 2755 H 268.645 -1.07946 -3.04216 0
M  V30 2756 H 267.697 -3.25128 -1.97474 0
M  V30 2757 H 269.009 -4.14523 -2.77439 0
M  V30 2758 H 268.163 -3.41554 -5.01424 0
M  V30 2759 H 266.902 -2.41894 -4.23484 0
M  V30 2760 H 265.907 -4.47527 -3.19373 0
M  V30 2761 H 267.132 -5.48402 -4.00539 0
M  V30 2762 H 265.078 -3.72554 -5.39944 0
M  V30 2763 H 264.995 -5.44935 -5.24006 0
M  V30 2764 H 266.263 -4.73586 -6.19141 0
M  V30 2765 N 270.492 0.636531 -1.44174 0
M  V30 2766 C 271.425 1.76139 -1.45087 0
M  V30 2767 C 272.403 1.59611 -0.310326 0
M  V30 2768 O 273.587 1.81568 -0.506477 0
M  V30 2769 C 270.714 3.13648 -1.27839 0
M  V30 2770 C 269.76 3.48838 -2.45386 0
M  V30 2771 S 270.593 3.46927 -4.07924 0
M  V30 2772 C 271.749 4.87064 -3.9309 0
M  V30 2773 H 271.982 1.75096 -2.40268 0
M  V30 2774 H 269.515 0.810666 -1.31406 0
M  V30 2775 H 271.473 3.93002 -1.18575 0
M  V30 2776 H 270.134 3.12235 -0.341787 0
M  V30 2777 H 269.327 4.48886 -2.29167 0
M  V30 2778 H 268.929 2.76935 -2.51362 0
M  V30 2779 H 271.221 5.76153 -3.56446 0
M  V30 2780 H 272.164 5.08337 -4.92949 0
M  V30 2781 H 272.572 4.61384 -3.25246 0
M  V30 2782 N 271.97 1.30982 0.876444 0
M  V30 2783 C 273.219 1.19658 1.62373 0
M  V30 2784 C 273.532 -0.245636 1.94052 0
M  V30 2785 O 274.738 -0.48049 2.67214 0
M  V30 2786 C 273.194 2.09433 2.92687 0
M  V30 2787 C 272.802 3.58613 2.68516 0
M  V30 2788 C 274.546 2.06893 3.70669 0
M  V30 2789 C 272.453 4.40416 3.94699 0
M  V30 2790 H 271.383 0.444268 0.609214 0
M  V30 2791 H 274.034 1.55791 0.969605 0
M  V30 2792 H 272.416 1.66191 3.59439 0
M  V30 2793 H 273.59 4.10058 2.10212 0
M  V30 2794 H 271.905 3.63063 2.03898 0
M  V30 2795 H 274.502 2.65258 4.64265 0
M  V30 2796 H 274.845 1.05448 4.02724 0
M  V30 2797 H 275.378 2.48301 3.10792 0
M  V30 2798 H 272.117 5.42591 3.67798 0
M  V30 2799 H 271.637 3.93731 4.52477 0
M  V30 2800 H 273.316 4.52294 4.62644 0
M  V30 2801 N 273.449 -1.08991 1.13837 0
M  V30 2802 C 274.379 -2.17771 0.842507 0
M  V30 2803 C 275.36 -1.6892 -0.20001 0
M  V30 2804 O 276.545 -1.94113 -0.0579731 0
M  V30 2805 C 273.675 -3.4589 0.312644 0
M  V30 2806 C 272.629 -4.08099 1.28992 0
M  V30 2807 C 271.955 -5.31098 0.619623 0
M  V30 2808 C 273.255 -4.50077 2.65005 0
M  V30 2809 H 274.949 -2.42777 1.75213 0
M  V30 2810 H 272.495 -1.16682 0.843875 0
M  V30 2811 H 274.448 -4.21297 0.0933043 0
M  V30 2812 H 273.172 -3.20419 -0.632382 0
M  V30 2813 H 271.831 -3.34717 1.49533 0
M  V30 2814 H 271.479 -5.0191 -0.33102 0
M  V30 2815 H 271.179 -5.73674 1.27167 0
M  V30 2816 H 272.703 -6.09224 0.409669 0
M  V30 2817 H 274.117 -5.16688 2.48407 0
M  V30 2818 H 272.514 -5.03553 3.26427 0
M  V30 2819 H 273.584 -3.62257 3.22332 0
M  V30 2820 N 274.927 -0.932562 -1.27047 0
M  V30 2821 C 275.874 -0.434072 -2.26681 0
M  V30 2822 C 276.844 0.501639 -1.58344 0
M  V30 2823 O 278.029 0.419734 -1.86126 0
M  V30 2824 C 275.169 0.30261 -3.43771 0
M  V30 2825 C 274.282 -0.667774 -4.26808 0
M  V30 2826 C 273.417 0.0892393 -5.31125 0
M  V30 2827 C 272.456 -0.873532 -6.05835 0
M  V30 2828 N 271.593 -0.148832 -7.01942 0
M  V30 2829 H 276.433 -1.28868 -2.68695 0
M  V30 2830 H 273.97 -0.646713 -1.32121 0
M  V30 2831 H 275.928 0.746092 -4.10474 0
M  V30 2832 H 274.558 1.12142 -3.02695 0
M  V30 2833 H 273.61 -1.22978 -3.59973 0
M  V30 2834 H 274.922 -1.40337 -4.78651 0
M  V30 2835 H 274.076 0.592409 -6.03801 0
M  V30 2836 H 272.815 0.85777 -4.80097 0
M  V30 2837 H 271.82 -1.38791 -5.31994 0
M  V30 2838 H 273.045 -1.64193 -6.58952 0
M  V30 2839 H 270.991 0.601365 -6.53238 0
M  V30 2840 H 270.908 -0.82391 -7.51497 0
M  V30 2841 H 272.176 0.333527 -7.78786 0
M  V30 2842 N 276.405 1.4127 -0.698611 0
M  V30 2843 C 277.653 2.00782 -0.230409 0
M  V30 2844 C 277.974 1.5562 1.17505 0
M  V30 2845 O 277.244 0.78815 1.79346 0
M  V30 2846 H 275.824 0.742464 -0.0821944 0
M  V30 2847 H 278.486 1.72852 -0.90045 0
M  V30 2848 H 277.582 3.11095 -0.25021 0
M  V30 2849 N 277.883 0.443576 1.51229 0
M  V30 2850 C 279.129 -0.120975 2.02439 0
M  V30 2851 C 279.462 -1.41815 1.32674 0
M  V30 2852 O 278.737 -1.89373 0.443622 0
M  V30 2853 C 279.02 -0.333291 3.58554 0
M  V30 2854 C 278.873 0.982968 4.38928 0
M  V30 2855 C 280.192 -1.10028 4.26124 0
M  V30 2856 H 277.311 -0.0424923 0.735774 0
M  V30 2857 H 279.953 0.583794 1.80809 0
M  V30 2858 H 278.103 -0.933614 3.77115 0
M  V30 2859 H 279.775 1.61775 4.32003 0
M  V30 2860 H 278.018 1.58611 4.03763 0
M  V30 2861 H 278.689 0.788379 5.46341 0
M  V30 2862 H 281.165 -0.591711 4.11871 0
M  V30 2863 H 280.041 -1.21761 5.35225 0
M  V30 2864 H 280.302 -2.12996 3.87408 0
M  V30 2865 N 279.361 -1.56624 0.175154 0
M  V30 2866 C 280.638 -1.88688 -0.515373 0
M  V30 2867 C 281.018 -1.08564 -1.81044 0
M  V30 2868 O 280.366 -0.180703 -2.27784 0
M  V30 2869 C 280.576 -3.40768 -0.753552 0
M  V30 2870 C 281.924 -4.10587 -1.08184 0
M  V30 2871 O 282.948 -3.46106 -0.841961 0
M  V30 2872 O 281.807 -5.24512 -1.53459 0
M  V30 2873 H 278.901 -0.78301 -0.26613 0
M  V30 2874 H 281.447 -1.68347 0.213877 0
M  V30 2875 H 280.219 -3.90965 0.161829 0
M  V30 2876 H 279.842 -3.66733 -1.53598 0
M  V30 2877 N 280.839 0.0985539 -1.57292 0
M  V30 2878 C 282.085 0.803867 -1.86188 0
M  V30 2879 C 282.418 1.78549 -0.763794 0
M  V30 2880 O 281.693 1.93153 0.22855 0
M  V30 2881 C 281.976 1.53568 -3.25713 0
M  V30 2882 C 281.829 0.572277 -4.46145 0
M  V30 2883 C 283.148 2.48708 -3.63087 0
M  V30 2884 H 280.267 0.290781 -0.677211 0
M  V30 2885 H 282.909 0.0675783 -1.8988 0
M  V30 2886 H 281.059 2.16332 -3.22696 0
M  V30 2887 H 282.731 -0.0480894 -4.61275 0
M  V30 2888 H 280.974 -0.114618 -4.33649 0
M  V30 2889 H 281.645 1.12139 -5.40489 0
M  V30 2890 H 284.121 1.96039 -3.67026 0
M  V30 2891 H 282.997 2.96932 -4.61652 0
M  V30 2892 H 283.258 3.32309 -2.91588 0
M  V30 2893 N 282.317 1.53212 0.369288 0
M  V30 2894 C 283.247 1.82365 1.45826 0
M  V30 2895 C 284.228 0.676907 1.56051 0
M  V30 2896 O 285.413 0.926401 1.70679 0
M  V30 2897 C 282.543 2.01023 2.83208 0
M  V30 2898 C 281.497 3.1678 2.8781 0
M  V30 2899 C 280.823 3.20724 4.27832 0
M  V30 2900 C 282.123 4.55447 2.55667 0
M  V30 2901 H 283.817 2.73559 1.21678 0
M  V30 2902 H 281.363 1.3163 0.583911 0
M  V30 2903 H 283.316 2.20001 3.59413 0
M  V30 2904 H 282.04 1.06536 3.08736 0
M  V30 2905 H 280.699 2.97616 2.14056 0
M  V30 2906 H 280.347 2.23882 4.50429 0
M  V30 2907 H 280.047 3.98496 4.31827 0
M  V30 2908 H 281.571 3.41881 5.05915 0
M  V30 2909 H 282.985 4.74611 3.21586 0
M  V30 2910 H 281.382 5.35432 2.70984 0
M  V30 2911 H 282.452 4.60812 1.5093 0
M  V30 2912 N 283.795 -0.628877 1.44509 0
M  V30 2913 C 285.206 -1.21054 1.42137 0
M  V30 2914 C 285.557 -1.95715 0.137881 0
M  V30 2915 O 284.682 -2.02554 -0.761645 0
M  V30 2916 C 285.277 -2.20189 2.57493 0
M  V30 2917 C 283.836 -2.73777 2.58308 0
M  V30 2918 C 282.983 -1.48813 2.33987 0
M  V30 2919 H 285.934 -0.41942 1.53057 0
M  V30 2920 H 285.955 -3.02833 2.30375 0
M  V30 2921 H 285.467 -1.6582 3.50892 0
M  V30 2922 H 283.568 -3.32142 1.68856 0
M  V30 2923 H 283.681 -3.19662 3.56865 0
M  V30 2924 H 282.045 -1.77024 1.83124 0
M  V30 2925 H 282.828 -0.963442 3.29504 0
M  V30 2926 N 285.273 -1.31445 -0.869486 0
M  V30 2927 C 286.223 -1.15731 -1.96444 0
M  V30 2928 C 287.207 -0.0681855 -1.60755 0
M  V30 2929 O 288.399 -0.293154 -1.74555 0
M  V30 2930 C 285.528 -0.867255 -3.32165 0
M  V30 2931 C 284.614 -1.99738 -3.74119 0
M  V30 2932 N 285.005 -3.24447 -3.88031 0
M  V30 2933 C 283.303 -1.89723 -4.03635 0
M  V30 2934 C 284.004 -3.98374 -4.23879 0
M  V30 2935 N 282.98 -3.26547 -4.3459 0
M  V30 2936 H 286.782 -2.10296 -2.05312 0
M  V30 2937 H 284.296 -1.23009 -1.06031 0
M  V30 2938 H 286.293 -0.735668 -4.10358 0
M  V30 2939 H 284.953 0.0701614 -3.24624 0
M  V30 2940 H 285.964 -3.59557 -3.72746 0
M  V30 2941 H 282.641 -1.03449 -4.04481 0
M  V30 2942 H 284.031 -5.05844 -4.42235 0
M  V30 2943 N 286.751 1.08385 -1.14413 0
M  V30 2944 C 287.714 2.13486 -0.834048 0
M  V30 2945 C 288.714 1.59988 0.161418 0
M  V30 2946 O 289.904 1.74071 -0.0669575 0
M  V30 2947 C 287.036 3.4003 -0.243354 0
M  V30 2948 H 288.229 2.42425 -1.7655 0
M  V30 2949 H 285.782 1.24101 -0.950189 0
M  V30 2950 H 286.517 3.16726 0.696807 0
M  V30 2951 H 286.302 3.80157 -0.960367 0
M  V30 2952 H 287.792 4.17577 -0.0436242 0
M  V30 2953 N 288.23 0.939286 1.26551 0
M  V30 2954 C 289.16 0.465044 2.28822 0
M  V30 2955 C 290.141 -0.480692 1.63167 0
M  V30 2956 O 291.326 -0.382955 1.90387 0
M  V30 2957 C 288.456 -0.27234 3.46231 0
M  V30 2958 C 287.41 0.58666 4.2396 0
M  V30 2959 C 286.736 -0.280573 5.33963 0
M  V30 2960 C 288.036 1.85704 4.88171 0
M  V30 2961 H 289.73 1.31979 2.68741 0
M  V30 2962 H 287.276 0.636061 1.29191 0
M  V30 2963 H 289.229 -0.615133 4.16886 0
M  V30 2964 H 287.953 -1.16121 3.0526 0
M  V30 2965 H 286.612 0.91232 3.55067 0
M  V30 2966 H 286.26 -1.16874 4.89234 0
M  V30 2967 H 285.96 0.29076 5.8688 0
M  V30 2968 H 287.484 -0.618678 6.07458 0
M  V30 2969 H 288.898 1.58161 5.51052 0
M  V30 2970 H 287.295 2.37279 5.51197 0
M  V30 2971 H 288.365 2.56957 4.11219 0
M  V30 2972 N 289.708 -1.40897 0.706093 0
M  V30 2973 C 290.957 -2.00284 0.238574 0
M  V30 2974 C 291.27 -1.56604 -1.17194 0
M  V30 2975 O 292.476 -2.08624 -1.73748 0
M  V30 2976 C 290.932 -3.57934 0.375623 0
M  V30 2977 C 290.54 -4.10591 1.79217 0
M  V30 2978 C 292.284 -4.24488 -0.0315857 0
M  V30 2979 C 290.191 -5.60712 1.88032 0
M  V30 2980 H 289.121 -0.749144 0.0854398 0
M  V30 2981 H 291.772 -1.61251 0.875813 0
M  V30 2982 H 290.154 -3.94622 -0.330042 0
M  V30 2983 H 291.328 -3.85301 2.52745 0
M  V30 2984 H 289.643 -3.56601 2.15 0
M  V30 2985 H 292.24 -5.34698 0.0136842 0
M  V30 2986 H 292.583 -4.02261 -1.072 0
M  V30 2987 H 293.116 -3.92873 0.624181 0
M  V30 2988 H 289.855 -5.87781 2.90161 0
M  V30 2989 H 289.375 -5.87896 1.18903 0
M  V30 2990 H 291.054 -6.25658 1.64805 0
M  V30 2991 N 291.186 -0.45159 -1.50991 0
M  V30 2992 C 292.134 0.366864 -2.29689 0
M  V30 2993 C 293.128 1.00809 -1.36139 0
M  V30 2994 O 294.334 0.941427 -1.53418 0
M  V30 2995 H 290.709 0.137133 -0.739391 0
M  V30 2996 H 292.68 -0.317538 -2.96706 0
M  V30 2997 C 291.429 1.44751 -3.16137 0
M  V30 2998 H 290.752 0.963473 -3.88017 0
M  V30 2999 H 292.192 1.99315 -3.74232 0
M  V30 3000 C 290.651 2.43869 -2.32442 0
M  V30 3001 O 291.181 3.4872 -1.99392 0
M  V30 3002 N 289.387 2.15105 -1.95392 0
M  V30 3003 H 288.934 1.29866 -2.22469 0
M  V30 3004 H 288.892 2.81661 -1.39693 0
M  V30 3005 N 292.664 1.56529 -0.183458 0
M  V30 3006 C 293.612 2.19873 0.758845 0
M  V30 3007 C 294.606 1.16638 1.22849 0
M  V30 3008 O 295.812 1.3481 1.19274 0
M  V30 3009 H 292.187 0.7045 0.263029 0
M  V30 3010 H 294.158 2.97724 0.200755 0
M  V30 3011 C 292.907 2.86314 1.9728 0
M  V30 3012 H 292.23 3.65487 1.62047 0
M  V30 3013 H 293.67 3.3409 2.61075 0
M  V30 3014 C 292.129 1.86729 2.80418 0
M  V30 3015 O 292.659 1.36031 3.77966 0
M  V30 3016 N 290.865 1.55216 2.45675 0
M  V30 3017 H 290.412 1.96636 1.66409 0
M  V30 3018 H 290.37 0.888388 3.01588 0
M  V30 3019 N 294.142 -0.090211 1.57342 0
M  V30 3020 C 295.388 -0.793982 1.86611 0
M  V30 3021 C 295.721 -1.78142 0.773252 0
M  V30 3022 O 294.996 -1.93271 -0.218304 0
M  V30 3023 C 295.279 -1.51839 3.26523 0
M  V30 3024 C 295.132 -0.548609 4.46442 0
M  V30 3025 C 296.451 -2.46779 3.64401 0
M  V30 3026 H 293.57 -0.287186 0.678744 0
M  V30 3027 H 296.212 -0.0575076 1.89913 0
M  V30 3028 H 294.362 -2.14617 3.23839 0
M  V30 3029 H 296.034 0.0725513 4.61243 0
M  V30 3030 H 294.277 0.137614 4.33582 0
M  V30 3031 H 294.948 -1.09271 5.41076 0
M  V30 3032 H 297.424 -1.94089 3.68061 0
M  V30 3033 H 296.3 -2.94479 4.63221 0
M  V30 3034 H 296.561 -3.30758 2.93346 0
M  V30 3035 N 295.62 -1.53406 -0.361157 0
M  V30 3036 C 296.53 -1.83122 -1.4664 0
M  V30 3037 C 297.546 -0.719943 -1.58407 0
M  V30 3038 O 298.722 -1.01046 -1.74218 0
M  V30 3039 C 295.787 -2.01891 -2.81853 0
M  V30 3040 C 294.848 -3.25784 -2.79577 0
M  V30 3041 C 294.081 -3.43648 -4.0834 0
M  V30 3042 O 294.304 -2.65714 -5.0473 0
M  V30 3043 O 293.238 -4.37018 -4.13883 0
M  V30 3044 H 297.064 -2.7703 -1.24451 0
M  V30 3045 H 294.649 -1.38841 -0.551678 0
M  V30 3046 H 296.531 -2.15782 -3.61962 0
M  V30 3047 H 295.206 -1.11173 -3.0401 0
M  V30 3048 H 294.113 -3.17312 -1.98151 0
M  V30 3049 H 295.446 -4.16439 -2.62373 0
M  V30 3050 N 297.098 0.621204 -1.44841 0
M  V30 3051 C 298.008 1.7612 -1.5498 0
M  V30 3052 C 299.024 1.68477 -0.434927 0
M  V30 3053 O 300.2 1.89076 -0.693693 0
M  V30 3054 C 297.265 3.1254 -1.50065 0
M  V30 3055 C 296.326 3.31741 -2.72482 0
M  V30 3056 C 295.559 4.61653 -2.67792 0
M  V30 3057 O 295.782 5.431 -1.74352 0
M  V30 3058 O 294.716 4.83271 -3.58794 0
M  V30 3059 H 298.542 1.70518 -2.51311 0
M  V30 3060 H 296.127 0.783643 -1.27198 0
M  V30 3061 H 298.009 3.93844 -1.49882 0
M  V30 3062 H 296.684 3.18663 -0.568806 0
M  V30 3063 H 295.591 2.50077 -2.7823 0
M  V30 3064 H 296.924 3.30486 -3.64746 0
M  V30 3065 N 298.576 1.31904 0.862503 0
M  V30 3066 C 299.523 1.20182 1.9704 0
M  V30 3067 C 300.493 0.0858247 1.65878 0
M  V30 3068 O 301.678 0.26 1.8902 0
M  V30 3069 C 298.818 0.922797 3.32533 0
M  V30 3070 C 297.931 2.12284 3.76244 0
M  V30 3071 C 297.066 1.77996 5.00491 0
M  V30 3072 C 296.105 2.94366 5.36671 0
M  V30 3073 N 295.242 2.60223 6.52095 0
M  V30 3074 H 300.082 2.14951 2.06398 0
M  V30 3075 H 297.619 1.06917 1.01031 0
M  V30 3076 H 299.577 0.741548 4.10557 0
M  V30 3077 H 298.207 0.0119227 3.22798 0
M  V30 3078 H 297.259 2.41461 2.9394 0
M  V30 3079 H 298.571 2.99357 3.98982 0
M  V30 3080 H 297.725 1.56377 5.862 0
M  V30 3081 H 296.464 0.881252 4.79672 0
M  V30 3082 H 295.469 3.16625 4.49476 0
M  V30 3083 H 296.694 3.84957 5.59451 0
M  V30 3084 H 294.64 1.72884 6.32809 0
M  V30 3085 H 294.557 3.40827 6.74814 0
M  V30 3086 H 295.825 2.42016 7.40978 0
M  V30 3087 N 300.054 -1.07777 1.14986 0
M  V30 3088 C 300.984 -2.16865 0.865557 0
M  V30 3089 C 301.965 -1.69123 -0.182083 0
M  V30 3090 O 303.15 -1.94164 -0.0373815 0
M  V30 3091 C 300.28 -3.45539 0.349313 0
M  V30 3092 C 299.234 -4.06708 1.33313 0
M  V30 3093 C 298.56 -5.30411 0.675918 0
M  V30 3094 C 299.86 -4.47241 2.69764 0
M  V30 3095 H 301.554 -2.40905 1.77778 0
M  V30 3096 H 299.1 -1.15781 0.856203 0
M  V30 3097 H 301.053 -4.21174 0.137983 0
M  V30 3098 H 299.777 -3.21072 -0.598362 0
M  V30 3099 H 298.436 -3.33112 1.53075 0
M  V30 3100 H 298.084 -5.02232 -0.277767 0
M  V30 3101 H 297.784 -5.72293 1.33244 0
M  V30 3102 H 299.308 -6.08755 0.474262 0
M  V30 3103 H 300.722 -5.14025 2.53873 0
M  V30 3104 H 299.119 -5.00062 3.3175 0
M  V30 3105 H 300.189 -3.58818 3.26156 0
M  V30 3106 N 301.532 -0.945985 -1.26051 0
M  V30 3107 C 302.78 -0.594941 -1.93145 0
M  V30 3108 C 303.101 0.86953 -1.7454 0
M  V30 3109 O 302.371 1.61838 -1.10387 0
M  V30 3110 H 300.951 -0.217044 -0.714773 0
M  V30 3111 H 303.613 -1.20235 -1.53393 0
M  V30 3112 H 302.709 -0.816835 -3.01221 0
M  V30 3113 N 303.011 1.40521 -0.713556 0
M  V30 3114 C 304.258 2.00923 -0.25219 0
M  V30 3115 C 304.586 1.56571 1.15395 0
M  V30 3116 O 303.841 0.775874 1.79663 0
M  V30 3117 C 304.14 3.56317 -0.278 0
M  V30 3118 C 303.806 4.20246 -1.63415 0
M  V30 3119 C 302.468 4.37422 -2.00538 0
M  V30 3120 C 304.82 4.55923 -2.52554 0
M  V30 3121 C 302.148 4.87558 -3.2635 0
M  V30 3122 C 304.5 5.07458 -3.77716 0
M  V30 3123 C 303.164 5.22843 -4.14959 0
M  V30 3124 H 302.434 0.735231 -0.0922829 0
M  V30 3125 H 305.081 1.68161 -0.916188 0
M  V30 3126 H 303.386 3.88976 0.469567 0
M  V30 3127 H 305.083 4.00883 0.0967819 0
M  V30 3128 H 301.673 4.07263 -1.33546 0
M  V30 3129 H 305.857 4.42291 -2.25149 0
M  V30 3130 H 301.113 4.97654 -3.55176 0
M  V30 3131 H 305.287 5.34041 -4.4696 0
M  V30 3132 H 302.914 5.61454 -5.12516 0
M  V30 3133 N 304.489 0.459591 1.5075 0
M  V30 3134 C 305.436 -0.340524 2.28274 0
M  V30 3135 C 306.406 -0.997371 1.32822 0
M  V30 3136 O 307.591 -1.01202 1.61749 0
M  V30 3137 C 304.731 -1.42317 3.14388 0
M  V30 3138 C 303.844 -0.782251 4.24859 0
M  V30 3139 C 302.979 -1.84182 4.98247 0
M  V30 3140 C 302.018 -1.18053 6.00608 0
M  V30 3141 N 301.155 -2.18244 6.67319 0
M  V30 3142 H 305.995 0.326899 2.96202 0
M  V30 3143 H 303.532 0.173057 1.46078 0
M  V30 3144 H 305.49 -2.06241 3.62658 0
M  V30 3145 H 304.12 -2.05992 2.4853 0
M  V30 3146 H 303.172 -0.0307404 3.80388 0
M  V30 3147 H 304.484 -0.259663 4.98124 0
M  V30 3148 H 303.638 -2.55714 5.50177 0
M  V30 3149 H 302.377 -2.39819 4.24662 0
M  V30 3150 H 301.382 -0.450776 5.47949 0
M  V30 3151 H 302.607 -0.631202 6.7616 0
M  V30 3152 H 300.553 -2.72919 5.96533 0
M  V30 3153 H 300.47 -1.70938 7.36421 0
M  V30 3154 H 301.738 -2.89191 7.23871 0
M  V30 3155 N 305.967 -1.56429 0.191757 0
M  V30 3156 C 307.215 -1.97095 -0.447006 0
M  V30 3157 C 307.536 -1.07967 -1.62383 0
M  V30 3158 O 306.806 -0.150248 -1.95323 0
M  V30 3159 H 305.386 -0.727832 -0.168135 0
M  V30 3160 H 308.048 -1.92911 0.27771 0
M  V30 3161 H 307.144 -3.01848 -0.793371 0
M  V30 3162 N 307.445 0.0818655 -1.57387 0
M  V30 3163 C 308.355 1.11642 -2.06333 0
M  V30 3164 C 309.371 1.43033 -0.99083 0
M  V30 3165 O 310.547 1.53411 -1.30488 0
M  V30 3166 C 307.612 2.41342 -2.48907 0
M  V30 3167 C 306.673 2.17014 -3.7041 0
M  V30 3168 C 305.906 3.4053 -4.10944 0
M  V30 3169 O 306.129 4.4927 -3.51444 0
M  V30 3170 O 305.063 3.29336 -5.03807 0
M  V30 3171 H 308.889 0.730657 -2.9478 0
M  V30 3172 H 306.474 0.295301 -1.46452 0
M  V30 3173 H 308.356 3.17691 -2.76858 0
M  V30 3174 H 307.031 2.79319 -1.63593 0
M  V30 3175 H 305.938 1.38403 -3.47556 0
M  V30 3176 H 307.271 1.83923 -4.56545 0
M  V30 3177 N 308.923 1.53595 0.353017 0
M  V30 3178 C 309.87 1.80919 1.43308 0
M  V30 3179 C 310.84 0.654288 1.5267 0
M  V30 3180 O 312.025 0.897759 1.6836 0
M  V30 3181 C 309.165 2.01605 2.80089 0
M  V30 3182 C 308.278 3.29321 2.79593 0
M  V30 3183 C 307.413 3.40125 4.0803 0
M  V30 3184 C 306.452 4.61826 4.01725 0
M  V30 3185 N 305.589 4.69716 5.21834 0
M  V30 3186 H 310.429 2.73074 1.19308 0
M  V30 3187 H 307.966 1.35263 0.578131 0
M  V30 3188 H 309.924 2.11586 3.59565 0
M  V30 3189 H 308.554 1.12772 3.0246 0
M  V30 3190 H 307.606 3.28229 1.92276 0
M  V30 3191 H 308.918 4.18884 2.70809 0
M  V30 3192 H 308.072 3.49488 4.95927 0
M  V30 3193 H 306.811 2.48601 4.19582 0
M  V30 3194 H 305.816 4.52552 3.12213 0
M  V30 3195 H 307.041 5.54705 3.91764 0
M  V30 3196 H 304.987 3.81097 5.33948 0
M  V30 3197 H 304.904 5.53202 5.1527 0
M  V30 3198 H 306.172 4.83376 6.11529 0
M  V30 3199 N 310.401 -0.613514 1.45168 0
M  V30 3200 C 311.331 -1.7354 1.56225 0
M  V30 3201 C 312.312 -1.64981 0.41414 0
M  V30 3202 O 313.497 -1.83472 0.636526 0
M  V30 3203 C 310.627 -3.12128 1.52295 0
M  V30 3204 C 309.581 -3.35491 2.65762 0
M  V30 3205 C 308.907 -4.74291 2.46885 0
M  V30 3206 C 310.207 -3.26325 4.0781 0
M  V30 3207 H 311.901 -1.64543 2.50132 0
M  V30 3208 H 309.447 -0.790185 1.20383 0
M  V30 3209 H 311.4 -3.90404 1.58628 0
M  V30 3210 H 310.124 -3.2195 0.549139 0
M  V30 3211 H 308.783 -2.59603 2.58847 0
M  V30 3212 H 308.431 -4.80839 1.47657 0
M  V30 3213 H 308.131 -4.9088 3.22972 0
M  V30 3214 H 309.655 -5.54775 2.55063 0
M  V30 3215 H 311.069 -3.94483 4.16 0
M  V30 3216 H 309.466 -3.54445 4.8424 0
M  V30 3217 H 310.536 -2.23855 4.30136 0
M  V30 3218 N 311.879 -1.3236 -0.855495 0
M  V30 3219 C 313.295 -1.11332 -1.14356 0
M  V30 3220 C 313.495 0.106751 -2.01217 0
M  V30 3221 O 312.551 0.791891 -2.39761 0
M  V30 3222 C 313.864 -2.39237 -1.82171 0
M  V30 3223 C 315.412 -2.44986 -1.9481 0
M  V30 3224 C 315.887 -3.7281 -2.66039 0
M  V30 3225 N 317.378 -3.73787 -2.73565 0
M  V30 3226 C 318.113 -4.69394 -3.29327 0
M  V30 3227 N 317.609 -5.75367 -3.85907 0
M  V30 3228 N 319.402 -4.56893 -3.27423 0
M  V30 3229 H 311.553 -2.10586 -0.277027 0
M  V30 3230 H 313.816 -0.929701 -0.185364 0
M  V30 3231 H 313.522 -3.28431 -1.25802 0
M  V30 3232 H 313.396 -2.50134 -2.82335 0
M  V30 3233 H 315.783 -1.56252 -2.50338 0
M  V30 3234 H 315.864 -2.38043 -0.936448 0
M  V30 3235 H 315.508 -4.61918 -2.11174 0
M  V30 3236 H 315.438 -3.77024 -3.67642 0
M  V30 3237 H 317.929 -2.97189 -2.33424 0
M  V30 3238 H 318.242 -6.44378 -4.26611 0
M  V30 3239 H 316.587 -5.79123 -3.84242 0
M  V30 3240 H 319.778 -3.73269 -2.82467 0
M  V30 3241 H 319.951 -5.31577 -3.7058 0
M  V30 3242 N 313.357 1.07166 -1.15556 0
M  V30 3243 C 314.267 2.17947 -0.868116 0
M  V30 3244 C 315.283 1.73297 0.156297 0
M  V30 3245 O 316.459 2.01392 -0.0182327 0
M  V30 3246 C 313.524 3.44789 -0.36355 0
M  V30 3247 C 312.585 4.03996 -1.45209 0
M  V30 3248 C 311.818 5.24783 -0.971508 0
M  V30 3249 O 312.041 5.70109 0.182194 0
M  V30 3250 O 310.975 5.75715 -1.75603 0
M  V30 3251 H 314.801 2.4503 -1.79427 0
M  V30 3252 H 312.386 1.16539 -0.934824 0
M  V30 3253 H 314.268 4.21307 -0.0887113 0
M  V30 3254 H 312.943 3.19253 0.534708 0
M  V30 3255 H 311.85 3.29009 -1.78056 0
M  V30 3256 H 313.183 4.33808 -2.32533 0
M  V30 3257 N 314.835 0.952656 1.25548 0
M  V30 3258 C 316.065 0.622592 1.96996 0
M  V30 3259 C 316.473 -0.809112 1.71026 0
M  V30 3260 O 315.816 -1.55258 0.981861 0
M  V30 3261 C 315.878 0.798946 3.5051 0
M  V30 3262 C 315.542 2.20744 4.00151 0
M  V30 3263 C 316.539 3.18394 4.11001 0
M  V30 3264 C 314.224 2.5311 4.33867 0
M  V30 3265 C 316.218 4.46504 4.54877 0
M  V30 3266 C 313.905 3.8145 4.7743 0
M  V30 3267 C 314.903 4.77959 4.87897 0
M  V30 3268 O 314.591 6.04012 5.30494 0
M  V30 3269 H 314.323 0.232503 0.634758 0
M  V30 3270 H 316.877 1.2789 1.60728 0
M  V30 3271 H 315.107 0.0854903 3.86605 0
M  V30 3272 H 316.796 0.47023 4.03167 0
M  V30 3273 H 317.562 2.94715 3.85186 0
M  V30 3274 H 313.441 1.78719 4.24948 0
M  V30 3275 H 316.985 5.21835 4.62962 0
M  V30 3276 H 312.882 4.04936 5.0269 0
M  V30 3277 H 313.65 6.0736 5.48685 0
M  V30 3278 N 316.313 -1.40141 0.720998 0
M  V30 3279 C 317.559 -2.01084 0.263231 0
M  V30 3280 C 317.892 -1.57052 -1.14229 0
M  V30 3281 O 317.167 -0.793027 -1.77599 0
M  V30 3282 C 317.45 -3.58401 0.349344 0
M  V30 3283 C 317.303 -4.12491 1.79363 0
M  V30 3284 C 318.622 -4.39231 -0.276351 0
M  V30 3285 H 315.741 -0.730572 0.0971228 0
M  V30 3286 H 318.383 -1.66543 0.914518 0
M  V30 3287 H 316.533 -3.87958 -0.205165 0
M  V30 3288 H 318.205 -3.93711 2.40394 0
M  V30 3289 H 316.448 -3.66576 2.31958 0
M  V30 3290 H 317.119 -5.21646 1.80524 0
M  V30 3291 H 319.595 -4.15637 0.196184 0
M  V30 3292 H 318.471 -5.48586 -0.185681 0
M  V30 3293 H 318.732 -4.20643 -1.36059 0
M  V30 3294 N 317.792 -0.46758 -1.50504 0
M  V30 3295 C 319.208 -0.121533 -1.59137 0
M  V30 3296 C 319.408 1.3717 -1.47603 0
M  V30 3297 O 318.464 2.14464 -1.33272 0
M  V30 3298 C 319.777 -0.6686 -2.93173 0
M  V30 3299 C 321.325 -0.631716 -3.06559 0
M  V30 3300 C 321.8 -1.15627 -4.43164 0
M  V30 3301 N 323.291 -1.11553 -4.49567 0
M  V30 3302 C 324.026 -1.49195 -5.5365 0
M  V30 3303 N 323.522 -1.94269 -6.65005 0
M  V30 3304 N 325.315 -1.4082 -5.44175 0
M  V30 3305 H 317.466 -1.4388 -1.56245 0
M  V30 3306 H 319.729 -0.594784 -0.738198 0
M  V30 3307 H 319.435 -1.71453 -3.07078 0
M  V30 3308 H 319.309 -0.11021 -3.77039 0
M  V30 3309 H 321.696 0.405297 -2.92304 0
M  V30 3310 H 321.777 -1.22687 -2.24458 0
M  V30 3311 H 321.421 -2.1919 -4.58168 0
M  V30 3312 H 321.351 -0.537365 -5.23851 0
M  V30 3313 H 323.842 -0.784895 -3.69659 0
M  V30 3314 H 324.155 -2.21148 -7.40482 0
M  V30 3315 H 322.5 -1.98219 -6.66134 0
M  V30 3316 H 325.691 -1.0545 -4.56068 0
M  V30 3317 H 325.864 -1.70481 -6.25172 0
M  V30 3318 N 319.27 1.56325 -0.20005 0
M  V30 3319 C 320.516 1.98772 0.431408 0
M  V30 3320 C 320.871 1.0849 1.58895 0
M  V30 3321 O 320.164 0.130331 1.91156 0
M  V30 3322 C 320.358 3.4495 0.935103 0
M  V30 3323 C 320.187 4.49371 -0.172096 0
M  V30 3324 C 318.957 5.0134 -0.631377 0
M  V30 3325 C 321.155 5.04822 -0.982806 0
M  V30 3326 N 319.137 5.89433 -1.71588 0
M  V30 3327 C 320.508 5.89632 -1.91661 0
M  V30 3328 C 322.563 4.87242 -1.02467 0
M  V30 3329 C 321.266 6.58741 -2.88881 0
M  V30 3330 C 323.292 5.57094 -1.98494 0
M  V30 3331 C 322.654 6.41655 -2.90617 0
M  V30 3332 H 318.753 0.771922 0.125144 0
M  V30 3333 H 321.337 1.92266 -0.306883 0
M  V30 3334 H 319.508 3.51946 1.64282 0
M  V30 3335 H 321.24 3.74354 1.53758 0
M  V30 3336 H 317.995 4.73071 -0.223827 0
M  V30 3337 H 318.419 6.38182 -2.25948 0
M  V30 3338 H 323.061 4.21538 -0.326408 0
M  V30 3339 H 320.779 7.23641 -3.5968 0
M  V30 3340 H 324.365 5.45466 -2.0238 0
M  V30 3341 H 323.245 6.94755 -3.63711 0
M  V30 3342 N 320.748 -0.0735177 1.57428 0
M  V30 3343 C 321.678 -1.0879 2.06608 0
M  V30 3344 C 322.659 -1.40473 0.959237 0
M  V30 3345 O 323.844 -1.5013 1.23185 0
M  V30 3346 C 320.974 -2.40183 2.50857 0
M  V30 3347 C 319.928 -2.22858 3.65402 0
M  V30 3348 C 319.254 -3.59619 3.957 0
M  V30 3349 C 320.554 -1.65123 4.95511 0
M  V30 3350 H 322.248 -0.678673 2.91607 0
M  V30 3351 H 319.794 -0.325013 1.40284 0
M  V30 3352 H 321.747 -3.11437 2.83874 0
M  V30 3353 H 320.471 -2.83083 1.62885 0
M  V30 3354 H 319.13 -1.54045 3.32664 0
M  V30 3355 H 318.778 -4.00086 3.04861 0
M  V30 3356 H 318.478 -3.48866 4.72828 0
M  V30 3357 H 320.002 -4.32306 4.31212 0
M  V30 3358 H 321.416 -2.26241 5.26771 0
M  V30 3359 H 319.813 -1.65071 5.7695 0
M  V30 3360 H 320.883 -0.612559 4.81015 0
M  V30 3361 N 322.226 -1.5378 -0.344866 0
M  V30 3362 C 323.451 -1.75211 -1.10977 0
M  V30 3363 C 323.876 -0.48936 -1.81623 0
M  V30 3364 O 323.234 0.557925 -1.72502 0
M  V30 3365 C 323.282 -2.93147 -2.09993 0
M  V30 3366 O 322.386 -2.63203 -3.17487 0
M  V30 3367 H 321.727 -0.581241 -0.321021 0
M  V30 3368 H 324.257 -2.00738 -0.395661 0
M  V30 3369 H 324.267 -3.19898 -2.53237 0
M  V30 3370 H 322.942 -3.84731 -1.5797 0
M  V30 3371 H 321.519 -2.47336 -2.79069 0
M  V30 3372 N 323.704 0.605807 -1.45491 0
M  V30 3373 C 324.981 1.36522 -1.40075 0
M  V30 3374 C 325.361 2.10976 -0.0722744 0
M  V30 3375 O 324.709 2.08007 0.945808 0
M  V30 3376 C 324.919 2.31056 -2.61561 0
M  V30 3377 C 326.267 2.93608 -3.06724 0
M  V30 3378 O 327.291 2.41376 -2.61946 0
M  V30 3379 O 326.15 3.88421 -3.84437 0
M  V30 3380 H 323.244 0.612248 -0.555951 0
M  V30 3381 H 325.79 0.628747 -1.57623 0
M  V30 3382 H 324.562 1.75311 -3.49831 0
M  V30 3383 H 324.185 3.12081 -2.46356 0
M  V30 3384 N 325.182 1.32811 0.848464 0
M  V30 3385 C 326.598 1.11937 1.13764 0
M  V30 3386 C 326.798 -0.0960789 2.01271 0
M  V30 3387 O 325.854 -0.779165 2.40178 0
M  V30 3388 C 327.167 2.402 1.809 0
M  V30 3389 C 328.715 2.46016 1.93508 0
M  V30 3390 C 329.19 3.74215 2.64059 0
M  V30 3391 N 330.681 3.75232 2.71579 0
M  V30 3392 C 331.416 4.71134 3.26833 0
M  V30 3393 N 330.912 5.77406 3.8285 0
M  V30 3394 N 332.705 4.58623 3.24995 0
M  V30 3395 H 324.856 2.1073 0.265855 0
M  V30 3396 H 327.119 0.930671 0.180431 0
M  V30 3397 H 326.825 3.29093 1.24058 0
M  V30 3398 H 326.699 2.51628 2.81004 0
M  V30 3399 H 329.086 1.57577 2.49506 0
M  V30 3400 H 329.167 2.38536 0.923811 0
M  V30 3401 H 328.811 4.63031 2.08722 0
M  V30 3402 H 328.741 3.78968 3.65637 0
M  V30 3403 H 331.232 2.98423 2.31845 0
M  V30 3404 H 331.545 6.46632 4.23187 0
M  V30 3405 H 329.89 5.81152 3.81165 0
M  V30 3406 H 333.081 3.74762 2.80484 0
M  V30 3407 H 333.254 5.33535 3.67756 0
M  V30 3408 N 326.66 -1.06551 1.16123 0
M  V30 3409 C 327.909 -1.78687 0.935622 0
M  V30 3410 C 328.222 -1.88056 -0.538001 0
M  V30 3411 O 329.428 -2.56794 -0.88143 0
M  V30 3412 C 327.884 -3.21143 1.62466 0
M  V30 3413 C 327.492 -3.19949 3.13587 0
M  V30 3414 C 329.236 -3.9783 1.48092 0
M  V30 3415 C 327.143 -4.57108 3.75241 0
M  V30 3416 H 326.073 -0.669712 0.346412 0
M  V30 3417 H 328.724 -1.19534 1.39226 0
M  V30 3418 H 327.106 -3.80539 1.09572 0
M  V30 3419 H 328.28 -2.70151 3.73303 0
M  V30 3420 H 326.595 -2.5676 3.27816 0
M  V30 3421 H 329.192 -4.99217 1.91538 0
M  V30 3422 H 329.535 -4.14078 0.429507 0
M  V30 3423 H 330.068 -3.4495 1.98127 0
M  V30 3424 H 326.807 -4.46065 4.80319 0
M  V30 3425 H 326.327 -5.07111 3.20309 0
M  V30 3426 H 328.006 -5.26069 3.76644 0
M  V30 3427 N 328.138 -0.959301 -1.25041 0
M  V30 3428 C 329.068 -0.501388 -2.28053 0
M  V30 3429 C 330.049 0.454673 -1.63911 0
M  V30 3430 O 331.234 0.352618 -1.90972 0
M  V30 3431 C 328.364 0.217224 -3.4662 0
M  V30 3432 C 327.318 -0.654034 -4.22973 0
M  V30 3433 C 326.644 0.195589 -5.34342 0
M  V30 3434 C 327.944 -1.93447 -4.85155 0
M  V30 3435 H 329.638 -1.36238 -2.66608 0
M  V30 3436 H 327.184 -0.656534 -1.28163 0
M  V30 3437 H 329.137 0.548732 -4.17812 0
M  V30 3438 H 327.861 1.1125 -3.07068 0
M  V30 3439 H 326.52 -0.968693 -3.5357 0
M  V30 3440 H 326.168 1.09076 -4.91031 0
M  V30 3441 H 325.868 -0.384091 -5.86343 0
M  V30 3442 H 327.392 0.521958 -6.08365 0
M  V30 3443 H 328.806 -1.66908 -5.48466 0
M  V30 3444 H 327.203 -2.46018 -5.47353 0
M  V30 3445 H 328.273 -2.63466 -4.07079 0
M  V30 3446 N 329.616 1.39756 -0.72842 0
M  V30 3447 C 330.841 2.05472 -0.282159 0
M  V30 3448 C 331.266 1.54549 1.07221 0
M  V30 3449 O 330.624 0.686372 1.67805 0
M  V30 3450 C 330.672 3.59462 -0.286264 0
M  V30 3451 O 329.776 4.05918 0.728298 0
M  V30 3452 H 329.117 0.651226 -0.129618 0
M  V30 3453 H 331.647 1.78915 -0.992499 0
M  V30 3454 H 331.657 4.07798 -0.128373 0
M  V30 3455 H 330.332 3.95889 -1.27456 0
M  V30 3456 H 328.909 3.69012 0.537081 0
M  V30 3457 N 331.094 0.475555 1.50254 0
M  V30 3458 C 332.024 -0.30611 2.31485 0
M  V30 3459 C 333.005 -0.986228 1.38591 0
M  V30 3460 O 334.19 -0.982541 1.67511 0
M  V30 3461 C 331.32 -1.38588 3.1845 0
M  V30 3462 C 330.274 -0.827115 4.19932 0
M  V30 3463 C 329.6 -2.00551 4.95665 0
M  V30 3464 C 330.9 0.16463 5.2204 0
M  V30 3465 H 332.594 0.371866 2.97082 0
M  V30 3466 H 330.14 0.180282 1.42867 0
M  V30 3467 H 332.093 -1.94023 3.74076 0
M  V30 3468 H 330.817 -2.09269 2.50747 0
M  V30 3469 H 329.476 -0.294702 3.65414 0
M  V30 3470 H 329.124 -2.6994 4.2443 0
M  V30 3471 H 328.824 -1.63784 5.64313 0
M  V30 3472 H 330.348 -2.56468 5.54127 0
M  V30 3473 H 331.762 -0.300699 5.72511 0
M  V30 3474 H 330.159 0.446813 5.98434 0
M  V30 3475 H 331.229 1.08905 4.72512 0
M  V30 3476 N 332.573 -1.56217 0.208337 0
M  V30 3477 C 333.989 -1.58919 -0.14729 0
M  V30 3478 C 334.189 -1.22486 -1.59998 0
M  V30 3479 O 333.245 -0.953849 -2.3379 0
M  V30 3480 C 334.558 -3.00236 0.167048 0
M  V30 3481 C 336.106 -3.12813 0.108219 0
M  V30 3482 C 336.581 -4.56284 0.396049 0
M  V30 3483 N 338.072 -4.61912 0.345142 0
M  V30 3484 C 338.807 -5.70837 0.541523 0
M  V30 3485 N 338.303 -6.88178 0.798968 0
M  V30 3486 N 340.096 -5.60091 0.474867 0
M  V30 3487 H 332.247 -1.78177 1.15614 0
M  V30 3488 H 334.51 -0.827555 0.462446 0
M  V30 3489 H 334.216 -3.31499 1.1748 0
M  V30 3490 H 334.09 -3.7354 -0.524184 0
M  V30 3491 H 336.477 -2.81354 -0.890157 0
M  V30 3492 H 336.558 -2.41866 0.832729 0
M  V30 3493 H 336.202 -4.88458 1.3918 0
M  V30 3494 H 336.132 -5.25439 -0.349502 0
M  V30 3495 H 338.623 -3.77589 0.153316 0
M  V30 3496 H 338.936 -7.67095 0.93727 0
M  V30 3497 H 337.281 -6.89953 0.836013 0
M  V30 3498 H 340.472 -4.67297 0.274064 0
M  V30 3499 H 340.645 -6.44917 0.631326 0
M  V30 3500 N 334.051 0.0651679 -1.57465 0
M  V30 3501 C 335.276 0.779605 -1.9219 0
M  V30 3502 C 335.701 1.69988 -0.805333 0
M  V30 3503 O 335.059 1.79685 0.241435 0
M  V30 3504 C 335.107 1.54364 -3.2589 0
M  V30 3505 O 334.211 2.65474 -3.1559 0
M  V30 3506 H 333.552 0.212249 -0.629163 0
M  V30 3507 H 336.082 0.0314294 -2.04576 0
M  V30 3508 H 336.092 1.92146 -3.59922 0
M  V30 3509 H 334.767 0.868457 -4.06732 0
M  V30 3510 H 333.344 2.30501 -2.93128 0
M  V30 3511 N 335.529 1.53961 0.336706 0
M  V30 3512 C 336.754 1.75797 1.10046 0
M  V30 3513 C 337.179 0.498985 1.81361 0
M  V30 3514 O 336.537 -0.548769 1.72795 0
M  V30 3515 C 336.585 2.94257 2.08436 0
M  V30 3516 O 335.689 2.64883 3.16087 0
M  V30 3517 H 335.03 0.582936 0.317934 0
M  V30 3518 H 337.56 2.00945 0.38501 0
M  V30 3519 H 337.57 3.21237 2.51537 0
M  V30 3520 H 336.245 3.85564 1.55927 0
M  V30 3521 H 334.822 2.48812 2.77753 0
M  V30 3522 N 337.007 -0.598083 1.45811 0
M  V30 3523 C 338.418 -1.18011 1.44673 0
M  V30 3524 C 338.769 -1.95378 0.179364 0
M  V30 3525 O 337.894 -2.04124 -0.718509 0
M  V30 3526 C 338.489 -2.14677 2.62105 0
M  V30 3527 C 337.048 -2.68236 2.64057 0
M  V30 3528 C 336.195 -1.43816 2.37091 0
M  V30 3529 H 339.146 -0.38686 1.53913 0
M  V30 3530 H 339.167 -2.97878 2.36746 0
M  V30 3531 H 338.679 -1.5834 3.5433 0
M  V30 3532 H 336.78 -3.28486 1.75864 0
M  V30 3533 H 336.893 -3.12021 3.63566 0
M  V30 3534 H 335.257 -1.731 1.86838 0
M  V30 3535 H 336.04 -0.893333 3.31473 0
M  V30 3536 N 338.485 -1.33259 -0.841409 0
M  V30 3537 C 339.901 -1.12538 -1.13169 0
M  V30 3538 C 340.101 0.0854037 -2.01319 0
M  V30 3539 O 339.157 0.766417 -2.40587 0
M  V30 3540 C 340.47 -2.41156 -1.79623 0
M  V30 3541 C 342.018 -2.47038 -1.922 0
M  V30 3542 C 342.493 -3.7561 -2.6207 0
M  V30 3543 N 343.984 -3.76667 -2.69585 0
M  V30 3544 C 344.719 -4.72861 -3.2433 0
M  V30 3545 N 344.215 -5.79428 -3.79783 0
M  V30 3546 N 346.008 -4.6034 -3.22558 0
M  V30 3547 H 338.159 -2.10868 -0.254676 0
M  V30 3548 H 340.422 -0.931615 -0.175493 0
M  V30 3549 H 340.128 -3.29747 -1.22311 0
M  V30 3550 H 340.002 -2.53114 -2.79666 0
M  V30 3551 H 342.389 -1.58898 -2.48667 0
M  V30 3552 H 342.47 -2.39022 -0.911148 0
M  V30 3553 H 342.114 -4.64131 -2.06263 0
M  V30 3554 H 342.044 -3.80902 -3.63622 0
M  V30 3555 H 344.535 -2.99648 -2.30259 0
M  V30 3556 H 344.848 -6.48867 -4.19752 0
M  V30 3557 H 343.193 -5.83166 -3.78078 0
M  V30 3558 H 346.384 -3.76244 -2.78492 0
M  V30 3559 H 346.557 -5.35478 -3.64921 0
M  V30 3560 N 339.963 1.05934 -1.16686 0
M  V30 3561 C 341.193 1.82226 -0.973515 0
M  V30 3562 C 341.601 1.8297 0.481532 0
M  V30 3563 O 340.944 1.25009 1.34604 0
M  V30 3564 C 341.006 3.29897 -1.42858 0
M  V30 3565 C 340.67 3.52849 -2.90425 0
M  V30 3566 C 341.667 3.45595 -3.88407 0
M  V30 3567 C 339.352 3.80053 -3.28428 0
M  V30 3568 C 341.346 3.65217 -5.22394 0
M  V30 3569 C 339.033 3.99325 -4.62583 0
M  V30 3570 C 340.031 3.91905 -5.59374 0
M  V30 3571 O 339.719 4.10647 -6.91104 0
M  V30 3572 H 339.451 0.581314 -0.345036 0
M  V30 3573 H 342.005 1.3453 -1.55212 0
M  V30 3574 H 340.235 3.78472 -0.793477 0
M  V30 3575 H 341.924 3.87692 -1.20207 0
M  V30 3576 H 342.69 3.24564 -3.60393 0
M  V30 3577 H 338.569 3.84936 -2.53664 0
M  V30 3578 H 342.113 3.59341 -5.9793 0
M  V30 3579 H 338.01 4.19846 -4.90306 0
M  V30 3580 H 338.778 4.27915 -6.97733 0
M  V30 3581 N 341.441 0.965919 1.2453 0
M  V30 3582 C 342.391 0.465731 2.23193 0
M  V30 3583 C 343.375 -0.451277 1.54442 0
M  V30 3584 O 344.567 -0.282489 1.74731 0
M  V30 3585 C 341.696 -0.244511 3.42428 0
M  V30 3586 C 340.782 0.691222 4.18429 0
M  V30 3587 N 341.173 1.82771 4.71623 0
M  V30 3588 C 339.471 0.501649 4.4317 0
M  V30 3589 C 340.172 2.41285 5.29298 0
M  V30 3590 N 339.148 1.69819 5.16394 0
M  V30 3591 H 342.95 1.33291 2.61937 0
M  V30 3592 H 340.464 0.824789 1.39896 0
M  V30 3593 H 342.461 -0.620056 4.12263 0
M  V30 3594 H 341.121 -1.10815 3.05205 0
M  V30 3595 H 342.132 2.20929 4.68413 0
M  V30 3596 H 338.809 -0.318177 4.16286 0
M  V30 3597 H 340.199 3.37181 5.8117 0
M  V30 3598 N 342.919 -1.39368 0.735821 0
M  V30 3599 C 344.33 -1.83313 0.354015 0
M  V30 3600 C 344.681 -1.61461 -1.11466 0
M  V30 3601 O 343.806 -1.10621 -1.85989 0
M  V30 3602 C 344.401 -3.32781 0.635769 0
M  V30 3603 C 342.96 -3.75142 0.307448 0
M  V30 3604 C 342.107 -2.62358 0.897974 0
M  V30 3605 H 345.058 -1.28349 0.933398 0
M  V30 3606 H 345.079 -3.80388 -0.0921773 0
M  V30 3607 H 344.591 -3.48654 1.70476 0
M  V30 3608 H 342.692 -3.64857 -0.755674 0
M  V30 3609 H 342.805 -4.72532 0.790583 0
M  V30 3610 H 341.169 -2.52624 0.324551 0
M  V30 3611 H 341.952 -2.81036 1.97164 0
M  V30 3612 N 344.397 -0.483516 -1.5 0
M  V30 3613 C 345.625 0.0644831 -2.06799 0
M  V30 3614 C 346.04 1.32399 -1.34596 0
M  V30 3615 O 345.397 1.77626 -0.418946 0
M  V30 3616 C 345.448 0.339927 -3.59898 0
M  V30 3617 O 345.169 -0.869635 -4.29382 0
M  V30 3618 C 346.67 0.933515 -4.33359 0
M  V30 3619 H 343.89 -0.0126333 -0.670881 0
M  V30 3620 H 346.434 -0.675864 -1.93009 0
M  V30 3621 H 344.589 1.03022 -3.7345 0
M  V30 3622 H 345.003 -0.62179 -5.20801 0
M  V30 3623 H 346.477 1.07593 -5.41413 0
M  V30 3624 H 346.954 1.92685 -3.94676 0
M  V30 3625 H 347.56 0.281221 -4.24369 0
M  V30 3626 N 345.875 1.56104 -0.216619 0
M  V30 3627 C 346.805 2.23063 0.690296 0
M  V30 3628 C 347.786 1.20072 1.20485 0
M  V30 3629 O 348.971 1.48643 1.24976 0
M  V30 3630 C 346.101 2.90672 1.90072 0
M  V30 3631 C 345.055 4.00092 1.5202 0
M  V30 3632 C 344.381 4.54972 2.80899 0
M  V30 3633 C 345.681 5.17398 0.71391 0
M  V30 3634 H 347.375 2.99109 0.132038 0
M  V30 3635 H 344.921 1.43866 0.0620664 0
M  V30 3636 H 346.874 3.36204 2.54057 0
M  V30 3637 H 345.598 2.12066 2.48386 0
M  V30 3638 H 344.257 3.55283 0.903839 0
M  V30 3639 H 343.905 3.73102 3.37348 0
M  V30 3640 H 343.605 5.28817 2.56176 0
M  V30 3641 H 345.129 5.0322 3.45836 0
M  V30 3642 H 346.543 5.59342 1.25735 0
M  V30 3643 H 344.94 5.97444 0.563951 0
M  V30 3644 H 346.01 4.84088 -0.280527 0
M  V30 3645 N 347.353 -0.0568162 1.57498 0
M  V30 3646 C 348.303 -1.07315 2.01166 0
M  V30 3647 C 349.287 -1.33632 0.896171 0
M  V30 3648 O 350.479 -1.33682 1.16009 0
M  V30 3649 C 347.608 -2.38257 2.47161 0
M  V30 3650 C 346.694 -2.1515 3.65474 0
M  V30 3651 N 347.085 -1.62014 4.7915 0
M  V30 3652 C 345.383 -2.45559 3.72313 0
M  V30 3653 C 346.084 -1.54069 5.60926 0
M  V30 3654 N 345.06 -2.00652 5.05213 0
M  V30 3655 H 348.862 -0.655878 2.86488 0
M  V30 3656 H 346.376 -0.263635 1.60246 0
M  V30 3657 H 348.373 -3.11845 2.76691 0
M  V30 3658 H 347.033 -2.80687 1.63232 0
M  V30 3659 H 348.044 -1.30667 5.01145 0
M  V30 3660 H 344.721 -2.91253 2.99129 0
M  V30 3661 H 346.111 -1.13712 6.62208 0
M  V30 3662 N 348.832 -1.54138 -0.328536 0
M  V30 3663 C 350.081 -1.71318 -1.06456 0
M  V30 3664 C 350.394 -0.491109 -1.89334 0
M  V30 3665 O 351.6 -0.54416 -2.65991 0
M  V30 3666 C 350.056 -3.03 -1.94214 0
M  V30 3667 C 349.664 -4.32595 -1.16471 0
M  V30 3668 C 351.408 -3.29544 -2.67583 0
M  V30 3669 C 349.315 -5.55341 -2.03347 0
M  V30 3670 H 348.245 -0.638429 -0.401155 0
M  V30 3671 H 350.896 -1.80633 -0.323106 0
M  V30 3672 H 349.278 -2.87579 -2.72239 0
M  V30 3673 H 350.452 -4.58766 -0.432525 0
M  V30 3674 H 348.767 -4.12777 -0.548063 0
M  V30 3675 H 351.364 -4.18444 -3.3288 0
M  V30 3676 H 351.707 -2.47206 -3.34955 0
M  V30 3677 H 352.24 -3.45809 -1.96623 0
M  V30 3678 H 348.979 -6.40268 -1.40491 0
M  V30 3679 H 348.499 -5.33397 -2.74313 0
M  V30 3680 H 350.178 -5.91557 -2.62049 0
M  V30 3681 N 350.31 0.590341 -1.46126 0
M  V30 3682 C 351.587 1.35029 -1.41515 0
M  V30 3683 C 351.967 2.10888 -0.0946472 0
M  V30 3684 O 351.315 2.08998 0.923693 0
M  V30 3685 C 351.525 2.28269 -2.63997 0
M  V30 3686 C 352.873 2.90338 -3.09821 0
M  V30 3687 O 353.897 2.38585 -2.64492 0
M  V30 3688 O 352.756 3.84321 -3.88535 0
M  V30 3689 H 349.85 0.606317 -0.562413 0
M  V30 3690 H 352.396 0.611994 -1.58281 0
M  V30 3691 H 351.168 1.71591 -3.51671 0
M  V30 3692 H 350.791 3.0945 -2.49652 0
M  V30 3693 N 351.788 1.33704 0.83433 0
M  V30 3694 C 353.034 1.25603 1.59222 0
M  V30 3695 C 353.367 -0.176659 1.93395 0
M  V30 3696 O 352.642 -1.11915 1.59076 0
M  V30 3697 C 352.925 2.13576 2.89926 0
M  V30 3698 C 352.778 3.65326 2.62406 0
M  V30 3699 C 354.097 2.01238 3.91397 0
M  V30 3700 H 351.216 0.457613 0.577719 0
M  V30 3701 H 353.858 1.63848 0.961972 0
M  V30 3702 H 352.008 1.8109 3.43713 0
M  V30 3703 H 353.68 4.08124 2.15017 0
M  V30 3704 H 351.923 3.8698 1.96033 0
M  V30 3705 H 352.594 4.22232 3.55562 0
M  V30 3706 H 355.07 2.29738 3.46929 0
M  V30 3707 H 353.946 2.65036 4.80673 0
M  V30 3708 H 354.207 0.985951 4.30966 0
M  V30 3709 N 353.266 -1.05314 1.17247 0
M  V30 3710 C 354.496 -1.81707 0.983166 0
M  V30 3711 C 354.904 -1.83222 -0.471822 0
M  V30 3712 O 354.247 -1.25721 -1.3394 0
M  V30 3713 C 354.309 -3.29134 1.44606 0
M  V30 3714 C 353.973 -3.51304 2.92292 0
M  V30 3715 C 354.97 -3.4353 3.90235 0
M  V30 3716 C 352.655 -3.78306 3.30439 0
M  V30 3717 C 354.649 -3.62442 5.24323 0
M  V30 3718 C 352.336 -3.96866 4.64694 0
M  V30 3719 C 353.334 -3.88933 5.61445 0
M  V30 3720 O 353.022 -4.06976 6.93272 0
M  V30 3721 H 352.754 -0.579476 0.348114 0
M  V30 3722 H 355.308 -1.33705 1.55924 0
M  V30 3723 H 353.538 -3.78046 0.813537 0
M  V30 3724 H 355.227 -3.87049 1.22262 0
M  V30 3725 H 355.993 -3.22648 3.62109 0
M  V30 3726 H 351.872 -3.83585 2.55702 0
M  V30 3727 H 355.416 -3.56165 5.99827 0
M  V30 3728 H 351.313 -4.1724 4.92525 0
M  V30 3729 H 352.081 -4.24209 6.99992 0
M  V30 3730 N 354.744 -0.972509 -1.24016 0
M  V30 3731 C 355.992 -0.635776 -1.91839 0
M  V30 3732 C 356.313 0.832312 -1.76345 0
M  V30 3733 O 355.583 1.5946 -1.13795 0
M  V30 3734 H 354.163 -0.232157 -0.710009 0
M  V30 3735 H 356.825 -1.23462 -1.50809 0
M  V30 3736 H 355.921 -0.880545 -2.99421 0
M  V30 3737 N 356.222 1.38976 -0.743202 0
M  V30 3738 C 357.45 2.04636 -0.30525 0
M  V30 3739 C 357.865 1.56044 1.06281 0
M  V30 3740 O 357.222 0.728921 1.67311 0
M  V30 3741 C 357.273 3.60193 -0.307177 0
M  V30 3742 O 356.994 4.06998 -1.62124 0
M  V30 3743 C 358.495 4.4306 0.145928 0
M  V30 3744 H 355.715 0.65788 -0.132041 0
M  V30 3745 H 358.259 1.77866 -1.00915 0
M  V30 3746 H 356.414 3.85835 0.347898 0
M  V30 3747 H 356.828 5.01371 -1.54036 0
M  V30 3748 H 358.302 5.51921 0.0934183 0
M  V30 3749 H 358.779 4.22706 1.19231 0
M  V30 3750 H 359.385 4.22584 -0.479886 0
M  V30 3751 N 357.7 0.491464 1.49741 0
M  V30 3752 C 358.949 -0.0582189 2.01616 0
M  V30 3753 C 359.262 -1.38927 1.3769 0
M  V30 3754 O 360.468 -2.02509 1.80838 0
M  V30 3755 C 358.924 -0.154235 3.59569 0
M  V30 3756 C 358.532 1.1696 4.32463 0
M  V30 3757 C 360.276 -0.65479 4.1942 0
M  V30 3758 C 358.183 1.03627 5.8225 0
M  V30 3759 H 357.113 -0.0255317 0.753568 0
M  V30 3760 H 359.764 0.629445 1.72367 0
M  V30 3761 H 358.146 -0.906138 3.85493 0
M  V30 3762 H 359.32 1.93405 4.18248 0
M  V30 3763 H 357.635 1.60285 3.84315 0
M  V30 3764 H 360.232 -0.771903 5.29099 0
M  V30 3765 H 360.575 -1.65127 3.8215 0
M  V30 3766 H 361.108 0.040304 3.9778 0
M  V30 3767 H 357.847 2.00672 6.24028 0
M  V30 3768 H 357.367 0.312546 5.98985 0
M  V30 3769 H 359.046 0.711114 6.4308 0
M  V30 3770 N 359.178 -1.55987 0.224894 0
M  V30 3771 C 360.426 -1.97998 -0.405099 0
M  V30 3772 C 360.747 -1.11387 -1.60056 0
M  V30 3773 O 360.017 -0.191645 -1.9496 0
M  V30 3774 H 358.597 -0.731235 -0.152658 0
M  V30 3775 H 361.259 -1.92279 0.318567 0
M  V30 3776 H 360.355 -3.03463 -0.729167 0
M  V30 3777 N 360.656 0.0484629 -1.57525 0
M  V30 3778 C 361.586 1.0549 -2.08313 0
M  V30 3779 C 362.567 1.38929 -0.981463 0
M  V30 3780 O 363.752 1.48151 -1.25558 0
M  V30 3781 C 360.882 2.36162 -2.54646 0
M  V30 3782 C 359.836 2.17016 -3.68901 0
M  V30 3783 C 359.162 3.53278 -4.01371 0
M  V30 3784 C 360.462 1.57219 -4.98076 0
M  V30 3785 H 362.156 0.632195 -2.92649 0
M  V30 3786 H 359.702 0.302654 -1.40784 0
M  V30 3787 H 361.655 3.06882 -2.88793 0
M  V30 3788 H 360.379 2.80456 -1.67368 0
M  V30 3789 H 359.038 1.48733 -3.35073 0
M  V30 3790 H 358.686 3.95185 -3.11188 0
M  V30 3791 H 358.386 3.41299 -4.78318 0
M  V30 3792 H 359.91 4.25391 -4.38035 0
M  V30 3793 H 361.324 2.17832 -5.30304 0
M  V30 3794 H 359.721 1.55871 -5.79503 0
M  V30 3795 H 360.791 0.535956 -4.81929 0
M  V30 3796 N 362.134 1.5431 0.320358 0
M  V30 3797 C 363.383 1.7188 1.05546 0
M  V30 3798 C 363.696 0.501143 1.89071 0
M  V30 3799 O 364.902 0.558258 2.65699 0
M  V30 3800 C 363.358 3.04025 1.92605 0
M  V30 3801 C 362.966 4.33207 1.14176 0
M  V30 3802 C 364.71 3.30959 2.65832 0
M  V30 3803 C 362.617 5.56412 2.00399 0
M  V30 3804 H 361.547 0.640547 0.397763 0
M  V30 3805 H 364.198 1.80802 0.313522 0
M  V30 3806 H 362.58 2.89019 2.7071 0
M  V30 3807 H 363.754 4.58989 0.40819 0
M  V30 3808 H 362.069 4.13062 0.526165 0
M  V30 3809 H 364.666 4.20203 3.30656 0
M  V30 3810 H 365.009 2.48979 3.33639 0
M  V30 3811 H 365.542 3.46847 1.94787 0
M  V30 3812 H 362.281 6.41004 1.37094 0
M  V30 3813 H 361.801 5.34844 2.7148 0
M  V30 3814 H 363.48 5.92938 2.58908 0
M  V30 3815 N 363.613 -0.582584 1.46437 0
M  V30 3816 C 364.86 -1.34079 1.51753 0
M  V30 3817 C 365.188 -1.93762 0.169299 0
M  V30 3818 O 364.443 -1.76989 -0.835062 0
M  V30 3819 C 364.742 -2.48964 2.56421 0
M  V30 3820 C 364.408 -2.07273 4.00436 0
M  V30 3821 C 363.07 -1.95618 4.39644 0
M  V30 3822 C 365.422 -1.75111 4.90903 0
M  V30 3823 C 362.75 -1.5006 5.67185 0
M  V30 3824 C 365.102 -1.31032 6.18881 0
M  V30 3825 C 363.766 -1.17954 6.56996 0
M  V30 3826 H 363.036 -0.49063 0.555304 0
M  V30 3827 H 365.683 -0.656007 1.79913 0
M  V30 3828 H 363.988 -3.22889 2.21923 0
M  V30 3829 H 365.685 -3.07178 2.57765 0
M  V30 3830 H 362.275 -2.17279 3.69443 0
M  V30 3831 H 366.459 -1.83001 4.61329 0
M  V30 3832 H 361.715 -1.38577 5.95488 0
M  V30 3833 H 365.889 -1.052 6.88408 0
M  V30 3834 H 363.516 -0.824279 7.55718 0
M  V30 3835 N 365.091 -1.34144 -0.827227 0
M  V30 3836 C 366.368 -1.16844 -1.56865 0
M  V30 3837 C 366.748 0.260654 -2.09485 0
M  V30 3838 O 366.096 1.26138 -1.9053 0
M  V30 3839 C 366.306 -2.21939 -2.6934 0
M  V30 3840 C 367.654 -2.56695 -3.3822 0
M  V30 3841 O 368.678 -2.20695 -2.79593 0
M  V30 3842 O 367.537 -3.18518 -4.44082 0
M  V30 3843 H 364.631 -0.452669 -0.692112 0
M  V30 3844 H 367.177 -1.45763 -0.868973 0
M  V30 3845 H 365.949 -3.17882 -2.28182 0
M  V30 3846 H 365.572 -1.94172 -3.46962 0
M  V30 3847 N 366.569 1.04691 -1.17803 0
M  V30 3848 C 367.502 2.12068 -0.842765 0
M  V30 3849 C 368.48 1.61455 0.192608 0
M  V30 3850 O 369.664 1.88359 0.072995 0
M  V30 3851 C 366.791 3.37715 -0.258063 0
M  V30 3852 C 365.837 4.07164 -1.26962 0
M  V30 3853 S 366.67 4.55047 -2.82299 0
M  V30 3854 C 367.826 5.83935 -2.25323 0
M  V30 3855 H 368.059 2.4018 -1.75217 0
M  V30 3856 H 365.592 1.17366 -1.00323 0
M  V30 3857 H 367.55 4.10435 0.0727935 0
M  V30 3858 H 366.211 3.0773 0.629357 0
M  V30 3859 H 365.404 4.9746 -0.809263 0
M  V30 3860 H 365.006 3.40533 -1.54639 0
M  V30 3861 H 367.298 6.57552 -1.63192 0
M  V30 3862 H 368.241 6.34725 -3.13894 0
M  V30 3863 H 368.649 5.3874 -1.68582 0
M  V30 3864 N 368.047 0.979072 1.23499 0
M  V30 3865 C 369.324 0.563674 1.87302 0
M  V30 3866 C 369.704 -0.959199 1.88049 0
M  V30 3867 O 369.052 -1.83535 1.36114 0
M  V30 3868 C 369.262 1.16822 3.28867 0
M  V30 3869 C 370.61 1.26014 4.0547 0
M  V30 3870 O 371.634 1.12158 3.38082 0
M  V30 3871 O 370.493 1.48044 5.26066 0
M  V30 3872 H 367.587 0.189602 0.804972 0
M  V30 3873 H 370.133 1.07407 1.31384 0
M  V30 3874 H 368.905 2.21049 3.22883 0
M  V30 3875 H 368.528 0.642564 3.92373 0
M  V30 3876 N 369.525 -1.3858 0.750561 0
M  V30 3877 C 370.936 -1.82927 0.373438 0
M  V30 3878 C 371.287 -1.62634 -1.09748 0
M  V30 3879 O 370.412 -1.12588 -1.84805 0
M  V30 3880 C 371.007 -3.32088 0.671029 0
M  V30 3881 C 369.566 -3.74795 0.34722 0
M  V30 3882 C 368.713 -2.61391 0.92575 0
M  V30 3883 H 371.664 -1.27351 0.946958 0
M  V30 3884 H 371.685 -3.80465 -0.0518269 0
M  V30 3885 H 371.197 -3.46826 1.74164 0
M  V30 3886 H 369.298 -3.65638 -0.716933 0
M  V30 3887 H 369.411 -4.71667 0.840656 0
M  V30 3888 H 367.775 -2.52265 0.351327 0
M  V30 3889 H 368.558 -2.78929 2.00133 0
M  V30 3890 N 371.003 -0.499398 -1.49478 0
M  V30 3891 C 372.249 0.0457576 -2.02748 0
M  V30 3892 C 372.582 1.36793 -1.37846 0
M  V30 3893 O 371.857 1.87596 -0.513601 0
M  V30 3894 C 372.14 0.199986 -3.59544 0
M  V30 3895 C 371.993 -1.1452 -4.34977 0
M  V30 3896 C 373.312 0.94137 -4.29914 0
M  V30 3897 H 370.431 0.0151552 -0.736844 0
M  V30 3898 H 373.073 -0.650498 -1.78518 0
M  V30 3899 H 371.223 0.793007 -3.8032 0
M  V30 3900 H 372.895 -1.77697 -4.25701 0
M  V30 3901 H 371.138 -1.73488 -3.97598 0
M  V30 3902 H 371.809 -0.990607 -5.43039 0
M  V30 3903 H 374.285 0.43844 -4.13784 0
M  V30 3904 H 373.161 1.01812 -5.39375 0
M  V30 3905 H 373.422 1.98471 -3.95046 0
M  V30 3906 N 372.481 1.55866 -0.233164 0
M  V30 3907 C 373.897 1.59133 0.121988 0
M  V30 3908 C 374.097 1.25016 1.58029 0
M  V30 3909 O 373.153 0.990922 2.32243 0
M  V30 3910 C 374.466 2.99932 -0.214792 0
M  V30 3911 C 376.014 3.12601 -0.157971 0
M  V30 3912 C 376.489 4.55597 -0.46859 0
M  V30 3913 N 377.98 4.61305 -0.418585 0
M  V30 3914 C 378.715 5.69903 -0.63227 0
M  V30 3915 N 378.211 6.86819 -0.90835 0
M  V30 3916 N 380.004 5.59264 -0.563913 0
M  V30 3917 H 372.155 1.76315 -1.18434 0
M  V30 3918 H 374.418 0.820093 -0.475553 0
M  V30 3919 H 374.124 3.29588 -1.22739 0
M  V30 3920 H 373.998 3.74327 0.464691 0
M  V30 3921 H 376.385 2.82735 0.845283 0
M  V30 3922 H 376.466 2.40511 -0.871102 0
M  V30 3923 H 376.11 4.86182 -1.46934 0
M  V30 3924 H 376.04 5.25928 0.265865 0
M  V30 3925 H 378.531 3.77297 -0.213368 0
M  V30 3926 H 378.844 7.65507 -1.05919 0
M  V30 3927 H 377.189 6.88536 -0.945673 0
M  V30 3928 H 380.38 4.66802 -0.348372 0
M  V30 3929 H 380.553 6.43831 -0.733847 0
M  V30 3930 N 373.959 -0.0401083 1.57549 0
M  V30 3931 C 375.199 -0.738098 1.90608 0
M  V30 3932 C 375.563 -1.73107 0.830539 0
M  V30 3933 O 376.764 -2.4765 1.04513 0
M  V30 3934 C 375.035 -1.39985 3.28845 0
M  V30 3935 S 376.594 -2.12852 3.83718 0
M  V30 3936 H 373.412 -0.24477 0.667539 0
M  V30 3937 H 376.014 0.00693599 1.95499 0
M  V30 3938 H 374.718 -0.663775 4.04997 0
M  V30 3939 H 374.249 -2.18366 3.2723 0
M  V30 3940 H 376.264 -3.39842 3.61555 0
M  V30 3941 N 375.437 -1.54477 -0.31217 0
M  V30 3942 C 376.4 -1.83923 -1.36766 0
M  V30 3943 C 377.4 -0.711563 -1.44199 0
M  V30 3944 O 378.59 -0.979866 -1.44029 0
M  V30 3945 C 375.722 -2.0095 -2.75376 0
M  V30 3946 H 376.915 -2.78239 -1.11906 0
M  V30 3947 H 374.468 -1.46369 -0.548257 0
M  V30 3948 H 375.203 -1.08883 -3.05475 0
M  V30 3949 H 374.988 -2.83018 -2.71373 0
M  V30 3950 H 376.478 -2.2514 -3.51713 0
M  V30 3951 N 376.915 0.57481 -1.46744 0
M  V30 3952 C 377.825 1.711 -1.60505 0
M  V30 3953 C 378.841 1.67008 -0.488307 0
M  V30 3954 O 380.017 1.86774 -0.753495 0
M  V30 3955 C 377.082 3.07608 -1.59932 0
M  V30 3956 C 376.143 3.22904 -2.82898 0
M  V30 3957 C 375.376 4.529 -2.82343 0
M  V30 3958 O 375.599 5.37278 -1.91542 0
M  V30 3959 O 374.533 4.71611 -3.73987 0
M  V30 3960 H 378.359 1.62436 -2.56609 0
M  V30 3961 H 375.944 0.742779 -1.29627 0
M  V30 3962 H 377.826 3.88877 -1.62336 0
M  V30 3963 H 376.501 3.16692 -0.669898 0
M  V30 3964 H 375.408 2.41099 -2.86046 0
M  V30 3965 H 376.741 3.18715 -3.75076 0
M  V30 3966 N 378.394 1.34581 0.820102 0
M  V30 3967 C 379.624 1.29991 1.6058 0
M  V30 3968 C 380.032 -0.127588 1.88769 0
M  V30 3969 O 379.375 -1.08595 1.48165 0
M  V30 3970 C 379.437 2.02548 2.9701 0
M  V30 3971 C 379.101 3.51794 2.91701 0
M  V30 3972 C 380.098 4.46647 2.66087 0
M  V30 3973 C 377.783 3.94249 3.11245 0
M  V30 3974 C 379.777 5.81929 2.60071 0
M  V30 3975 C 377.464 5.2963 3.04853 0
M  V30 3976 C 378.462 6.23282 2.793 0
M  V30 3977 O 378.15 7.56181 2.72847 0
M  V30 3978 H 377.882 0.448539 0.505756 0
M  V30 3979 H 380.436 1.77811 1.02822 0
M  V30 3980 H 378.666 1.49345 3.56697 0
M  V30 3981 H 380.355 1.91211 3.58041 0
M  V30 3982 H 381.121 4.15168 2.5072 0
M  V30 3983 H 377 3.21749 3.30149 0
M  V30 3984 H 380.544 6.54999 2.40046 0
M  V30 3985 H 376.441 5.60727 3.19774 0
M  V30 3986 H 377.209 7.6595 2.88553 0
M  V30 3987 N 379.872 -1.04064 1.18357 0
M  V30 3988 C 381.121 -1.76662 0.973313 0
M  V30 3989 C 381.434 -1.89154 -0.497991 0
M  V30 3990 O 382.64 -2.58606 -0.826762 0
M  V30 3991 C 381.096 -3.17624 1.69242 0
M  V30 3992 C 380.704 -3.13225 3.20303 0
M  V30 3993 C 382.448 -3.946 1.56497 0
M  V30 3994 C 380.355 -4.49046 3.84853 0
M  V30 3995 H 379.285 -0.662214 0.36054 0
M  V30 3996 H 381.936 -1.16553 1.41731 0
M  V30 3997 H 380.318 -3.78129 1.1762 0
M  V30 3998 H 381.492 -2.62172 3.78949 0
M  V30 3999 H 379.807 -2.49749 3.33189 0
M  V30 4000 H 382.404 -4.95042 2.02084 0
M  V30 4001 H 382.747 -4.13074 0.517243 0
M  V30 4002 H 383.28 -3.4067 2.05399 0
M  V30 4003 H 380.019 -4.35777 4.89672 0
M  V30 4004 H 379.539 -5.00203 3.30994 0
M  V30 4005 H 381.218 -5.17961 3.87718 0
M  V30 4006 N 381.35 -0.985608 -1.22978 0
M  V30 4007 C 382.313 -0.535071 -2.22867 0
M  V30 4008 C 383.313 0.378123 -1.56291 0
M  V30 4009 O 384.503 0.171092 -1.73358 0
M  V30 4010 C 381.635 0.222702 -3.40172 0
M  V30 4011 H 382.828 -1.41835 -2.6424 0
M  V30 4012 H 380.381 -0.772042 -1.35901 0
M  V30 4013 H 381.116 1.12229 -3.04262 0
M  V30 4014 H 380.901 -0.43288 -3.89703 0
M  V30 4015 H 382.391 0.526335 -4.1427 0
M  V30 4016 N 382.828 1.3818 -0.7579 0
M  V30 4017 C 384.053 2.04827 -0.325679 0
M  V30 4018 C 384.478 1.56788 1.03919 0
M  V30 4019 O 383.836 0.721811 1.66312 0
M  V30 4020 C 383.884 3.58774 -0.362447 0
M  V30 4021 O 382.988 4.07372 0.642033 0
M  V30 4022 H 382.329 0.64833 -0.143402 0
M  V30 4023 H 384.859 1.7677 -1.03023 0
M  V30 4024 H 384.869 4.07434 -0.214844 0
M  V30 4025 H 383.544 3.93096 -1.35824 0
M  V30 4026 H 382.121 3.70068 0.458688 0
M  V30 4027 N 384.306 0.507319 1.49211 0
M  V30 4028 C 385.236 -0.256939 2.32082 0
M  V30 4029 C 386.217 -0.956609 1.40652 0
M  V30 4030 O 387.402 -0.946788 1.69557 0
M  V30 4031 C 384.532 -1.31802 3.21318 0
M  V30 4032 C 383.486 -0.737855 4.21592 0
M  V30 4033 C 382.812 -1.89992 4.99807 0
M  V30 4034 C 384.112 0.275325 5.21574 0
M  V30 4035 H 385.806 0.434798 2.96226 0
M  V30 4036 H 383.352 0.210546 1.42452 0
M  V30 4037 H 385.305 -1.86045 3.78107 0
M  V30 4038 H 384.029 -2.03903 2.5513 0
M  V30 4039 H 382.688 -0.217126 3.65956 0
M  V30 4040 H 382.336 -2.60877 4.30061 0
M  V30 4041 H 382.036 -1.51777 5.6766 0
M  V30 4042 H 383.56 -2.44657 5.59442 0
M  V30 4043 H 384.974 -0.179193 5.7302 0
M  V30 4044 H 383.371 0.573649 5.97352 0
M  V30 4045 H 384.441 1.18903 4.70096 0
M  V30 4046 N 385.784 -1.5574 0.241426 0
M  V30 4047 C 386.694 -2.2479 -0.671305 0
M  V30 4048 C 387.71 -1.26217 -1.19772 0
M  V30 4049 O 388.886 -1.59079 -1.23514 0
M  V30 4050 C 385.951 -2.92966 -1.85396 0
M  V30 4051 C 385.012 -4.06935 -1.36756 0
M  V30 4052 C 384.245 -4.71851 -2.49384 0
M  V30 4053 O 384.468 -4.35823 -3.67987 0
M  V30 4054 O 383.402 -5.60467 -2.19454 0
M  V30 4055 H 387.228 -3.0349 -0.112966 0
M  V30 4056 H 384.813 -1.49397 0.0101513 0
M  V30 4057 H 386.695 -3.35927 -2.54423 0
M  V30 4058 H 385.37 -2.17211 -2.40002 0
M  V30 4059 H 384.277 -3.68503 -0.644726 0
M  V30 4060 H 385.61 -4.84492 -0.867647 0
M  V30 4061 N 387.262 0.0317525 -1.57568 0
M  V30 4062 C 388.209 1.0332 -2.06382 0
M  V30 4063 C 389.179 1.36082 -0.952414 0
M  V30 4064 O 390.364 1.46466 -1.2228 0
M  V30 4065 C 387.504 2.32989 -2.54578 0
M  V30 4066 C 386.617 2.0641 -3.79498 0
M  V30 4067 C 385.752 3.2993 -4.16317 0
M  V30 4068 C 384.791 2.98893 -5.34162 0
M  V30 4069 N 383.928 4.14857 -5.66426 0
M  V30 4070 H 388.768 0.609982 -2.9169 0
M  V30 4071 H 386.305 0.289573 -1.44222 0
M  V30 4072 H 388.263 3.0875 -2.80587 0
M  V30 4073 H 386.893 2.73039 -1.7219 0
M  V30 4074 H 385.945 1.21158 -3.6059 0
M  V30 4075 H 387.257 1.79513 -4.65378 0
M  V30 4076 H 386.411 4.1406 -4.4344 0
M  V30 4077 H 385.15 3.59938 -3.29083 0
M  V30 4078 H 384.155 2.13164 -5.06795 0
M  V30 4079 H 385.38 2.70165 -6.23047 0
M  V30 4080 H 383.326 4.44821 -4.82151 0
M  V30 4081 H 383.243 3.91374 -6.4681 0
M  V30 4082 H 384.511 4.99868 -5.98124 0
M  V30 4083 N 388.74 1.54641 0.303973 0
M  V30 4084 C 389.65 1.88439 1.39743 0
M  V30 4085 C 390.666 0.778239 1.55626 0
M  V30 4086 O 391.842 1.07442 1.70347 0
M  V30 4087 C 388.907 2.12212 2.74166 0
M  V30 4088 C 387.968 3.35936 2.67293 0
M  V30 4089 C 387.201 3.58566 3.95305 0
M  V30 4090 O 387.424 2.84263 4.9452 0
M  V30 4091 O 386.358 4.52078 3.97378 0
M  V30 4092 H 390.184 2.81458 1.14083 0
M  V30 4093 H 387.769 1.40793 0.499768 0
M  V30 4094 H 389.651 2.29067 3.53704 0
M  V30 4095 H 388.326 1.22379 2.99675 0
M  V30 4096 H 387.233 3.24448 1.86237 0
M  V30 4097 H 388.566 4.2589 2.46736 0
M  V30 4098 N 390.218 -0.567019 1.47046 0
M  V30 4099 C 391.181 -1.65696 1.58359 0
M  V30 4100 C 392.181 -1.54097 0.459441 0
M  V30 4101 O 393.371 -1.58432 0.724225 0
M  V30 4102 C 390.503 -3.05197 1.51879 0
M  V30 4103 H 391.696 -1.57019 2.5551 0
M  V30 4104 H 389.249 -0.786148 1.3509 0
M  V30 4105 H 389.984 -3.19417 0.560673 0
M  V30 4106 H 389.769 -3.15025 2.33455 0
M  V30 4107 H 391.259 -3.84511 1.62913 0
M  V30 4108 N 391.696 -1.35014 -0.812953 0
M  V30 4109 C 392.628 -1.23262 -1.93233 0
M  V30 4110 C 393.641 -0.157371 -1.62038 0
M  V30 4111 O 394.83 -0.410096 -1.73725 0
M  V30 4112 C 391.93 -0.87392 -3.27438 0
M  V30 4113 C 391.103 -2.04622 -3.86586 0
M  V30 4114 C 390.162 -1.66432 -4.99186 0
M  V30 4115 O 389.188 -2.38222 -5.16951 0
M  V30 4116 N 390.39 -0.584248 -5.77552 0
M  V30 4117 H 393.155 -2.19699 -2.03844 0
M  V30 4118 H 390.716 -1.281 -0.99005 0
M  V30 4119 H 392.708 -0.600039 -4.00227 0
M  V30 4120 H 391.278 0.00057392 -3.126 0
M  V30 4121 H 390.498 -2.48427 -3.06068 0
M  V30 4122 H 391.786 -2.82999 -4.22835 0
M  V30 4123 H 391.184 0.0123526 -5.65699 0
M  V30 4124 H 389.741 -0.37013 -6.50748 0
M  V30 4125 N 393.175 1.03435 -1.18907 0
M  V30 4126 C 394.423 1.76394 -0.986382 0
M  V30 4127 C 394.744 1.88883 0.484567 0
M  V30 4128 O 394.014 1.41843 1.3512 0
M  V30 4129 H 392.594 0.65344 -0.361975 0
M  V30 4130 H 395.256 1.248 -1.49703 0
M  V30 4131 H 394.352 2.77424 -1.42978 0
M  V30 4132 N 394.653 0.992116 1.22453 0
M  V30 4133 C 395.583 0.561677 2.26644 0
M  V30 4134 C 396.564 -0.411055 1.65059 0
M  V30 4135 O 397.749 -0.301861 1.9184 0
M  V30 4136 C 394.879 -0.125247 3.47074 0
M  V30 4137 C 393.833 0.765948 4.21091 0
M  V30 4138 C 393.159 -0.0538484 5.34673 0
M  V30 4139 C 394.459 2.06242 4.79856 0
M  V30 4140 H 396.153 1.43259 2.62902 0
M  V30 4141 H 393.699 0.690283 1.26377 0
M  V30 4142 H 395.652 -0.437764 4.1912 0
M  V30 4143 H 394.376 -1.03069 3.0991 0
M  V30 4144 H 393.035 1.0621 3.50878 0
M  V30 4145 H 392.683 -0.960188 4.9375 0
M  V30 4146 H 392.383 0.539415 5.85119 0
M  V30 4147 H 393.907 -0.360477 6.09535 0
M  V30 4148 H 395.321 1.8139 5.43848 0
M  V30 4149 H 393.718 2.60444 5.40638 0
M  V30 4150 H 394.788 2.74167 3.99951 0
M  V30 4151 N 396.131 -1.37776 0.765217 0
M  V30 4152 C 397.542 -1.82521 0.392819 0
M  V30 4153 C 397.893 -1.63789 -1.08017 0
M  V30 4154 O 397.018 -1.14542 -1.83601 0
M  V30 4155 C 397.613 -3.31358 0.706214 0
M  V30 4156 C 396.172 -3.74406 0.386952 0
M  V30 4157 C 395.319 -2.60394 0.953422 0
M  V30 4158 H 398.27 -1.2634 0.960412 0
M  V30 4159 H 398.291 -3.80498 -0.0114706 0
M  V30 4160 H 397.803 -3.44959 1.77833 0
M  V30 4161 H 395.904 -3.66377 -0.678112 0
M  V30 4162 H 396.017 -4.70749 0.890636 0
M  V30 4163 H 394.381 -2.51878 0.378064 0
M  V30 4164 H 395.164 -2.76791 2.03081 0
M  V30 4165 N 397.609 -0.515225 -1.4894 0
M  V30 4166 C 398.539 0.244628 -2.32215 0
M  V30 4167 C 399.52 0.949136 -1.41157 0
M  V30 4168 O 400.705 0.937783 -1.70057 0
M  V30 4169 C 397.835 1.30096 -3.22013 0
M  V30 4170 C 396.789 0.715486 -4.21977 0
M  V30 4171 C 396.115 1.87339 -5.00808 0
M  V30 4172 C 397.415 -0.302982 -5.2142 0
M  V30 4173 H 399.109 -0.450501 -2.95991 0
M  V30 4174 H 396.655 -0.218098 -1.42339 0
M  V30 4175 H 398.608 1.84037 -3.79089 0
M  V30 4176 H 397.332 2.02547 -2.56207 0
M  V30 4177 H 395.991 0.197715 -3.66066 0
M  V30 4178 H 395.639 2.58592 -4.31438 0
M  V30 4179 H 395.339 1.48764 -5.68457 0
M  V30 4180 H 396.863 2.41686 -5.60732 0
M  V30 4181 H 398.277 0.148802 -5.73107 0
M  V30 4182 H 396.674 -0.60532 -5.97039 0
M  V30 4183 H 397.744 -1.21395 -4.69459 0
M  V30 4184 N 399.087 1.5561 -0.249682 0
M  V30 4185 C 400.317 2.03116 0.377803 0
M  V30 4186 C 400.725 1.12822 1.51881 0
M  V30 4187 O 400.068 0.13562 1.83199 0
M  V30 4188 C 400.13 3.46866 0.944693 0
M  V30 4189 C 399.794 4.56955 -0.0644259 0
M  V30 4190 C 400.791 5.12485 -0.874957 0
M  V30 4191 C 398.476 5.01936 -0.19132 0
M  V30 4192 C 400.47 6.11491 -1.79881 0
M  V30 4193 C 398.157 6.00773 -1.11868 0
M  V30 4194 C 399.155 6.5543 -1.92095 0
M  V30 4195 O 398.843 7.5234 -2.83267 0
M  V30 4196 H 398.575 0.669489 0.0935961 0
M  V30 4197 H 401.129 2.02004 -0.371966 0
M  V30 4198 H 399.359 3.45136 1.74407 0
M  V30 4199 H 401.048 3.77856 1.48255 0
M  V30 4200 H 401.814 4.78564 -0.787523 0
M  V30 4201 H 397.693 4.59055 0.423072 0
M  V30 4202 H 401.237 6.54078 -2.42543 0
M  V30 4203 H 397.134 6.34114 -1.20703 0
M  V30 4204 H 397.902 7.69966 -2.7766 0
M  V30 4205 N 400.565 -0.0233959 1.57583 0
M  V30 4206 C 401.814 -0.712133 1.8871 0
M  V30 4207 C 402.127 -1.76217 0.848944 0
M  V30 4208 O 403.333 -2.50389 1.04964 0
M  V30 4209 C 401.789 -1.3177 3.3491 0
M  V30 4210 C 401.397 -0.303715 4.46969 0
M  V30 4211 C 403.141 -1.98598 3.75179 0
M  V30 4212 C 401.048 -0.917945 5.84233 0
M  V30 4213 H 399.978 -0.269735 0.704101 0
M  V30 4214 H 402.629 0.0333114 1.8347 0
M  V30 4215 H 401.011 -2.11304 3.34913 0
M  V30 4216 H 402.185 0.465325 4.58445 0
M  V30 4217 H 400.5 0.2628 4.1557 0
M  V30 4218 H 403.097 -2.45416 4.75053 0
M  V30 4219 H 403.44 -2.80659 3.07468 0
M  V30 4220 H 403.973 -1.25831 3.77374 0
M  V30 4221 H 400.712 -0.136633 6.55358 0
M  V30 4222 H 400.232 -1.65669 5.76467 0
M  V30 4223 H 401.911 -1.4236 6.31144 0
M  V30 4224 N 402.043 -1.548 -0.295768 0
M  V30 4225 C 402.953 -1.89177 -1.38742 0
M  V30 4226 C 403.969 -0.786481 -1.55211 0
M  V30 4227 O 405.145 -1.08344 -1.69775 0
M  V30 4228 C 402.21 -2.13663 -2.73036 0
M  V30 4229 C 401.271 -3.37349 -2.65508 0
M  V30 4230 C 400.504 -3.60658 -3.93398 0
M  V30 4231 O 400.727 -2.86882 -4.93006 0
M  V30 4232 O 399.661 -4.54179 -3.94975 0
M  V30 4233 H 403.487 -2.82059 -1.12589 0
M  V30 4234 H 401.072 -1.41056 -0.492295 0
M  V30 4235 H 402.954 -2.3094 -3.52484 0
M  V30 4236 H 401.629 -1.23967 -2.99022 0
M  V30 4237 H 400.536 -3.25431 -1.84514 0
M  V30 4238 H 401.869 -4.27192 -2.44474 0
M  V30 4239 N 403.521 0.559213 -1.47345 0
M  V30 4240 C 404.769 1.31388 -1.53563 0
M  V30 4241 C 405.09 1.93985 -0.198678 0
M  V30 4242 O 404.36 1.79825 0.777167 0
M  V30 4243 H 402.94 0.487901 -0.565652 0
M  V30 4244 H 405.602 0.65315 -1.8363 0
M  V30 4245 H 404.698 2.10844 -2.30111 0
M  V30 4246 N 404.999 1.35443 0.805782 0
M  V30 4247 C 406.41 1.25768 1.37983 0
M  V30 4248 C 406.761 -0.10958 1.95894 0
M  V30 4249 O 405.886 -1.01056 1.91355 0
M  V30 4250 C 406.481 2.27727 2.5085 0
M  V30 4251 C 405.04 2.2179 3.04115 0
M  V30 4252 C 404.187 2.13393 1.77084 0
M  V30 4253 H 407.138 1.4656 0.608752 0
M  V30 4254 H 407.159 1.90422 3.29424 0
M  V30 4255 H 406.671 3.27227 2.08671 0
M  V30 4256 H 404.772 1.25703 3.50756 0
M  V30 4257 H 404.885 3.13788 3.62042 0
M  V30 4258 H 403.249 1.59384 1.98668 0
M  V30 4259 H 404.032 3.14755 1.37056 0
M  V30 4260 N 406.477 -1.02803 1.19454 0
M  V30 4261 C 407.723 -1.76478 0.999171 0
M  V30 4262 C 408.056 -1.88456 -0.468828 0
M  V30 4263 O 407.331 -1.40198 -1.34814 0
M  V30 4264 C 407.614 -3.19044 1.66981 0
M  V30 4265 C 407.467 -3.14932 3.21151 0
M  V30 4266 C 408.786 -4.17456 1.39349 0
M  V30 4267 H 405.905 -0.640614 0.364393 0
M  V30 4268 H 408.547 -1.20005 1.47305 0
M  V30 4269 H 406.697 -3.67263 1.2669 0
M  V30 4270 H 408.369 -2.74605 3.70661 0
M  V30 4271 H 406.612 -2.52625 3.52652 0
M  V30 4272 H 407.283 -4.1566 3.63223 0
M  V30 4273 H 409.759 -3.77842 1.74283 0
M  V30 4274 H 408.635 -5.154 1.88823 0
M  V30 4275 H 408.896 -4.40949 0.318813 0
M  V30 4276 N 407.956 -0.998596 -1.21925 0
M  V30 4277 C 409.233 -0.593401 -1.86382 0
M  V30 4278 C 409.613 0.92916 -1.89552 0
M  V30 4279 O 408.961 1.81347 -1.39017 0
M  V30 4280 C 409.171 -1.22039 -3.26967 0
M  V30 4281 C 410.519 -1.32449 -4.03413 0
M  V30 4282 O 411.543 -1.17522 -3.36254 0
M  V30 4283 O 410.402 -1.56395 -5.23644 0
M  V30 4284 H 407.496 -0.202385 -0.801854 0
M  V30 4285 H 410.042 -1.09484 -1.29659 0
M  V30 4286 H 408.814 -2.26158 -3.19325 0
M  V30 4287 H 408.437 -0.704906 -3.91301 0
M  V30 4288 N 409.434 1.37368 -0.772513 0
M  V30 4289 C 410.397 2.28601 -0.165541 0
M  V30 4290 C 411.397 1.48062 0.627238 0
M  V30 4291 O 412.587 1.68268 0.450715 0
M  V30 4292 C 409.719 3.32023 0.772897 0
M  V30 4293 H 410.912 2.83787 -0.969787 0
M  V30 4294 H 408.465 1.46647 -0.540775 0
M  V30 4295 H 409.2 2.81962 1.60212 0
M  V30 4296 H 408.985 3.91555 0.206585 0
M  V30 4297 H 410.475 4.00197 1.19298 0
M  V30 4298 N 410.912 0.523116 1.48665 0
M  V30 4299 C 412.16 -0.0134497 2.02096 0
M  V30 4300 C 412.481 -1.35418 1.40311 0
M  V30 4301 O 411.751 -1.87543 0.566074 0
M  V30 4302 H 410.331 -0.00795915 0.746958 0
M  V30 4303 H 412.993 0.685388 1.82451 0
M  V30 4304 H 412.089 -0.126849 3.11842 0
M  V30 4305 N 412.39 -1.55475 0.257931 0
M  V30 4306 C 413.338 -2.23244 -0.653076 0
M  V30 4307 C 414.332 -1.22366 -1.17144 0
M  V30 4308 O 415.538 -1.40347 -1.12706 0
M  V30 4309 H 411.913 -0.716247 -0.229117 0
M  V30 4310 H 413.884 -2.98343 -0.0584788 0
M  V30 4311 C 412.633 -2.95401 -1.83395 0
M  V30 4312 H 411.956 -3.72802 -1.44424 0
M  V30 4313 H 413.396 -3.46165 -2.44838 0
M  V30 4314 C 411.855 -1.99895 -2.71189 0
M  V30 4315 O 412.385 -1.53909 -3.71046 0
M  V30 4316 N 410.591 -1.6676 -2.3799 0
M  V30 4317 H 410.138 -2.04352 -1.56837 0
M  V30 4318 H 410.096 -1.03127 -2.97005 0
M  V30 4319 N 413.868 0.0150385 -1.57593 0
M  V30 4320 C 414.815 1.01126 -2.07466 0
M  V30 4321 C 415.785 1.35064 -0.966794 0
M  V30 4322 O 416.97 1.4516 -1.23827 0
M  V30 4323 C 414.11 2.30276 -2.57035 0
M  V30 4324 C 413.223 2.02373 -3.81666 0
M  V30 4325 C 412.358 3.25496 -4.19793 0
M  V30 4326 C 411.397 2.93211 -5.37303 0
M  V30 4327 N 410.534 4.08826 -5.70794 0
M  V30 4328 H 415.374 0.57901 -2.92321 0
M  V30 4329 H 412.911 0.27426 -1.44521 0
M  V30 4330 H 414.869 3.05757 -2.83846 0
M  V30 4331 H 413.499 2.71197 -1.75077 0
M  V30 4332 H 412.551 1.17327 -3.61854 0
M  V30 4333 H 413.863 1.74567 -4.67256 0
M  V30 4334 H 413.017 4.09333 -4.47807 0
M  V30 4335 H 411.756 3.56428 -3.32882 0
M  V30 4336 H 410.761 2.07777 -5.09027 0
M  V30 4337 H 411.986 2.63542 -6.25877 0
M  V30 4338 H 409.932 4.39682 -4.86842 0
M  V30 4339 H 409.849 3.84491 -6.50924 0
M  V30 4340 H 411.117 4.93496 -6.03392 0
M  V30 4341 N 415.346 1.54954 0.287554 0
M  V30 4342 C 416.757 1.65732 0.859634 0
M  V30 4343 C 417.108 0.574767 1.87592 0
M  V30 4344 O 416.233 -0.286299 2.14498 0
M  V30 4345 C 416.828 3.00438 1.56597 0
M  V30 4346 C 415.387 3.13292 2.08627 0
M  V30 4347 C 414.534 2.61473 0.923416 0
M  V30 4348 H 417.485 1.5857 0.0642338 0
M  V30 4349 H 417.506 2.92613 2.43224 0
M  V30 4350 H 417.018 3.79207 0.826053 0
M  V30 4351 H 415.119 2.39268 2.85625 0
M  V30 4352 H 415.232 4.19647 2.31157 0
M  V30 4353 H 413.596 2.18264 1.31275 0
M  V30 4354 H 414.379 3.42733 0.197241 0
M  V30 4355 N 416.824 -0.551391 1.4764 0
M  V30 4356 C 418.101 -1.31229 1.45046 0
M  V30 4357 C 418.481 -2.10563 0.150527 0
M  V30 4358 O 417.829 -2.11374 -0.867956 0
M  V30 4359 C 418.039 -2.21189 2.69956 0
M  V30 4360 C 419.387 -2.82021 3.1741 0
M  V30 4361 O 420.411 -2.31488 2.70724 0
M  V30 4362 O 419.27 -3.73885 3.98588 0
M  V30 4363 H 416.364 -0.591193 0.578291 0
M  V30 4364 H 418.91 -0.569813 1.59847 0
M  V30 4365 H 417.682 -1.62207 3.56096 0
M  V30 4366 H 417.305 -3.02722 2.57769 0
M  V30 4367 N 418.302 -1.35869 -0.798587 0
M  V30 4368 C 419.234 -1.25305 -1.91915 0
M  V30 4369 C 420.247 -0.174548 -1.61862 0
M  V30 4370 O 421.436 -0.428499 -1.73281 0
M  V30 4371 C 418.536 -0.9086 -3.26493 0
M  V30 4372 C 417.709 -2.08711 -3.84394 0
M  V30 4373 C 416.768 -1.71717 -4.97393 0
M  V30 4374 O 415.794 -2.43692 -5.14396 0
M  V30 4375 N 416.996 -0.645473 -5.769 0
M  V30 4376 H 419.761 -2.21849 -2.01502 0
M  V30 4377 H 417.322 -1.29143 -0.976408 0
M  V30 4378 H 419.314 -0.642455 -3.99568 0
M  V30 4379 H 417.884 -0.0325815 -3.12583 0
M  V30 4380 H 417.104 -2.51659 -3.03416 0
M  V30 4381 H 418.392 -2.87468 -4.19809 0
M  V30 4382 H 417.79 -0.047648 -5.6568 0
M  V30 4383 H 416.347 -0.43913 -6.50319 0
M  V30 4384 N 419.78 1.02168 -1.19998 0
M  V30 4385 C 421.029 1.75091 -1.0013 0
M  V30 4386 C 421.342 1.89923 0.467835 0
M  V30 4387 O 422.548 2.59888 0.785515 0
M  V30 4388 C 421.004 3.14892 -1.74273 0
M  V30 4389 C 420.612 3.0809 -3.25245 0
M  V30 4390 C 422.356 3.9206 -1.62755 0
M  V30 4391 C 420.263 4.42867 -3.91948 0
M  V30 4392 H 419.193 0.656394 -0.37103 0
M  V30 4393 H 421.844 1.14284 -1.43567 0
M  V30 4394 H 420.226 3.7621 -1.2362 0
M  V30 4395 H 421.4 2.5611 -3.83072 0
M  V30 4396 H 419.715 2.44416 -3.3712 0
M  V30 4397 H 422.312 4.91764 -2.09934 0
M  V30 4398 H 422.655 4.12199 -0.582894 0
M  V30 4399 H 423.188 3.37359 -2.10793 0
M  V30 4400 H 419.927 4.27931 -4.96543 0
M  V30 4401 H 419.447 4.94874 -3.3891 0
M  V30 4402 H 421.126 5.11728 -3.95909 0
M  V30 4403 N 421.258 1.00505 1.21394 0
M  V30 4404 C 422.674 0.717873 1.42544 0
M  V30 4405 C 422.874 -0.706936 1.88692 0
M  V30 4406 O 421.93 -1.47627 2.04847 0
M  V30 4407 C 423.243 1.73377 2.45684 0
M  V30 4408 C 424.791 1.75059 2.59467 0
M  V30 4409 C 425.266 2.75545 3.6584 0
M  V30 4410 N 426.757 2.74213 3.73311 0
M  V30 4411 C 427.492 3.48626 4.55245 0
M  V30 4412 N 426.988 4.32678 5.41075 0
M  V30 4413 N 428.781 3.37276 4.49668 0
M  V30 4414 H 420.932 1.92506 0.897503 0
M  V30 4415 H 423.195 0.830919 0.456375 0
M  V30 4416 H 422.901 2.75395 2.18748 0
M  V30 4417 H 422.775 1.53647 3.44489 0
M  V30 4418 H 425.162 0.737337 2.8574 0
M  V30 4419 H 425.243 1.98861 1.60897 0
M  V30 4420 H 424.887 3.77028 3.40313 0
M  V30 4421 H 424.817 2.49009 4.64007 0
M  V30 4422 H 427.308 2.13234 3.11993 0
M  V30 4423 H 427.621 4.86253 6.00648 0
M  V30 4424 H 425.966 4.3676 5.40616 0
M  V30 4425 H 429.157 2.71043 3.81646 0
M  V30 4426 H 429.33 3.95524 5.13288 0
M  V30 4427 N 422.737 -1.36956 0.779787 0
M  V30 4428 C 423.67 -2.27896 0.117681 0
M  V30 4429 C 424.648 -1.46736 -0.700523 0
M  V30 4430 O 425.832 -1.76055 -0.673568 0
M  V30 4431 C 422.959 -3.28136 -0.839296 0
M  V30 4432 C 422.005 -4.26373 -0.10409 0
M  V30 4433 S 422.838 -5.2157 1.21348 0
M  V30 4434 C 423.994 -6.25359 0.260249 0
M  V30 4435 H 424.227 -2.83704 0.888778 0
M  V30 4436 H 421.76 -1.43352 0.57355 0
M  V30 4437 H 423.718 -3.86394 -1.38601 0
M  V30 4438 H 422.379 -2.7126 -1.58356 0
M  V30 4439 H 421.572 -4.97121 -0.82986 0
M  V30 4440 H 421.174 -3.72147 0.371858 0
M  V30 4441 H 423.466 -6.75145 -0.564435 0
M  V30 4442 H 424.409 -7.01885 0.936135 0
M  V30 4443 H 424.817 -5.64345 -0.132127 0
M  V30 4444 N 424.215 -0.530993 -1.48385 0
M  V30 4445 C 425.145 0.219985 -2.32461 0
M  V30 4446 C 426.126 0.934111 -1.42156 0
M  V30 4447 O 427.311 0.919694 -1.71042 0
M  V30 4448 C 424.441 1.26674 -3.23375 0
M  V30 4449 C 423.395 0.67069 -4.22712 0
M  V30 4450 C 422.721 1.82017 -5.02766 0
M  V30 4451 C 424.021 -0.358268 -5.2107 0
M  V30 4452 H 425.715 -0.48187 -2.95497 0
M  V30 4453 H 423.261 -0.233182 -1.42099 0
M  V30 4454 H 425.214 1.80006 -3.81019 0
M  V30 4455 H 423.938 1.99818 -2.58341 0
M  V30 4456 H 422.597 0.158878 -3.66256 0
M  V30 4457 H 422.245 2.54002 -4.34157 0
M  V30 4458 H 421.945 1.42727 -5.70003 0
M  V30 4459 H 423.469 2.35725 -5.63264 0
M  V30 4460 H 424.883 0.0880081 -5.73232 0
M  V30 4461 H 423.28 -0.66861 -5.96364 0
M  V30 4462 H 424.35 -1.26367 -4.68145 0
M  V30 4463 N 425.693 1.55336 -0.266172 0
M  V30 4464 C 426.921 2.03801 0.356756 0
M  V30 4465 C 427.336 1.14485 1.50129 0
M  V30 4466 O 426.693 0.163121 1.8177 0
M  V30 4467 C 426.744 3.51455 0.846281 0
M  V30 4468 O 426.465 4.37371 -0.252663 0
M  V30 4469 C 427.966 4.15767 1.53794 0
M  V30 4470 H 425.186 0.665906 0.0825218 0
M  V30 4471 H 427.73 2.00636 -0.39566 0
M  V30 4472 H 425.885 3.55092 1.54881 0
M  V30 4473 H 426.299 5.24358 0.122173 0
M  V30 4474 H 427.773 5.20714 1.83198 0
M  V30 4475 H 428.25 3.63404 2.46646 0
M  V30 4476 H 428.856 4.16107 0.879488 0
M  V30 4477 N 427.171 -0.0066808 1.57599 0
M  V30 4478 C 428.134 -0.985035 2.06953 0
M  V30 4479 C 429.134 -1.27663 0.977687 0
M  V30 4480 O 430.324 -1.22293 1.24057 0
M  V30 4481 C 427.456 -2.3118 2.50536 0
M  V30 4482 H 428.649 -0.558255 2.94658 0
M  V30 4483 H 426.202 -0.254011 1.54222 0
M  V30 4484 H 426.937 -2.78561 1.66054 0
M  V30 4485 H 426.722 -2.11338 3.3027 0
M  V30 4486 H 428.212 -3.01377 2.8907 0
M  V30 4487 N 428.649 -1.55105 -0.279332 0
M  V30 4488 C 429.898 -1.74618 -1.00952 0
M  V30 4489 C 430.211 -0.551096 -1.87676 0
M  V30 4490 O 431.417 -0.628507 -2.64125 0
M  V30 4491 C 429.873 -3.09025 -1.84476 0
M  V30 4492 C 429.481 -4.36081 -1.0265 0
M  V30 4493 C 431.225 -3.37891 -2.56963 0
M  V30 4494 C 429.132 -5.6153 -1.85576 0
M  V30 4495 H 428.062 -0.650868 -0.38064 0
M  V30 4496 H 430.713 -1.81569 -0.265475 0
M  V30 4497 H 429.095 -2.96095 -2.62952 0
M  V30 4498 H 430.269 -4.59909 -0.286354 0
M  V30 4499 H 428.584 -4.14312 -0.416464 0
M  V30 4500 H 431.181 -4.28822 -3.19399 0
M  V30 4501 H 431.524 -2.57737 -3.26921 0
M  V30 4502 H 432.057 -3.5189 -1.85522 0
M  V30 4503 H 428.796 -6.44413 -1.2005 0
M  V30 4504 H 428.316 -5.41854 -2.57204 0
M  V30 4505 H 429.995 -5.99594 -2.43096 0
M  V30 4506 N 430.127 0.543554 -1.4793 0
M  V30 4507 C 431.355 1.32516 -1.58894 0
M  V30 4508 C 431.77 1.87215 -0.244131 0
M  V30 4509 O 431.127 1.65709 0.764652 0
M  V30 4510 C 431.178 2.48554 -2.62494 0
M  V30 4511 O 430.899 1.96112 -3.91755 0
M  V30 4512 C 432.4 3.40572 -2.8377 0
M  V30 4513 H 429.62 0.403472 -0.536145 0
M  V30 4514 H 432.164 0.657106 -1.93655 0
M  V30 4515 H 430.319 3.1127 -2.30629 0
M  V30 4516 H 430.733 2.71967 -4.4848 0
M  V30 4517 H 432.207 4.18375 -3.60093 0
M  V30 4518 H 432.684 3.94965 -1.92092 0
M  V30 4519 H 433.29 2.8366 -3.16887 0
M  V30 4520 N 431.605 1.3629 0.791371 0
M  V30 4521 C 432.552 1.30458 1.90393 0
M  V30 4522 C 433.522 0.173632 1.6519 0
M  V30 4523 O 434.707 0.35983 1.87376 0
M  V30 4524 C 431.847 1.09777 3.27174 0
M  V30 4525 C 430.96 2.31929 3.64462 0
M  V30 4526 C 430.095 2.04276 4.90352 0
M  V30 4527 C 429.134 3.224 5.20312 0
M  V30 4528 N 428.271 2.94424 6.37385 0
M  V30 4529 H 433.111 2.25589 1.94714 0
M  V30 4530 H 430.648 1.12122 0.952216 0
M  V30 4531 H 432.606 0.958133 4.06049 0
M  V30 4532 H 431.236 0.183014 3.22281 0
M  V30 4533 H 430.288 2.56703 2.80727 0
M  V30 4534 H 431.6 3.20085 3.82553 0
M  V30 4535 H 430.754 1.87231 5.77087 0
M  V30 4536 H 429.493 1.13428 4.74326 0
M  V30 4537 H 428.498 3.40005 4.32061 0
M  V30 4538 H 429.723 4.14071 5.38258 0
M  V30 4539 H 427.669 2.06185 6.22755 0
M  V30 4540 H 427.586 3.76118 6.55798 0
M  V30 4541 H 428.854 2.80953 7.27108 0
M  V30 4542 N 433.083 -1.0153 1.20538 0
M  V30 4543 C 433.993 -2.13557 0.971113 0
M  V30 4544 C 435.009 -1.73845 -0.0734366 0
M  V30 4545 O 436.185 -2.01075 0.114299 0
M  V30 4546 C 433.25 -3.42661 0.527639 0
M  V30 4547 C 432.311 -3.96608 1.64319 0
M  V30 4548 C 431.544 -5.1955 1.22078 0
M  V30 4549 O 431.767 -5.70329 0.0900198 0
M  V30 4550 O 430.701 -5.66681 2.02871 0
M  V30 4551 H 434.527 -2.3619 1.90913 0
M  V30 4552 H 432.112 -1.11946 0.989362 0
M  V30 4553 H 433.994 -4.20404 0.289621 0
M  V30 4554 H 432.669 -3.21441 -0.381779 0
M  V30 4555 H 431.576 -3.20139 1.93551 0
M  V30 4556 H 432.909 -4.22219 2.52966 0
M  V30 4557 N 434.561 -1.01147 -1.20859 0
M  V30 4558 C 435.491 -0.597663 -2.25722 0
M  V30 4559 C 436.472 0.384744 -1.65692 0
M  V30 4560 O 437.657 0.271303 -1.92296 0
M  V30 4561 C 434.787 0.0700149 -3.47229 0
M  V30 4562 C 433.741 -0.832843 -4.19819 0
M  V30 4563 C 433.067 -0.0312202 -5.34691 0
M  V30 4564 C 434.367 -2.1385 -4.76514 0
M  V30 4565 H 436.061 -1.47423 -2.60589 0
M  V30 4566 H 433.607 -0.710301 -1.25263 0
M  V30 4567 H 435.56 0.37103 -4.19763 0
M  V30 4568 H 434.284 0.981259 -3.11511 0
M  V30 4569 H 432.943 -1.11778 -3.49144 0
M  V30 4570 H 432.591 0.881515 -4.95215 0
M  V30 4571 H 432.291 -0.632434 -5.84187 0
M  V30 4572 H 433.815 0.26346 -6.10031 0
M  V30 4573 H 435.229 -1.9002 -5.40893 0
M  V30 4574 H 433.626 -2.69012 -5.36426 0
M  V30 4575 H 434.696 -2.80495 -3.95538 0
M  V30 4576 N 436.039 1.36541 -0.78704 0
M  V30 4577 C 437.267 2.03561 -0.370199 0
M  V30 4578 C 437.682 1.59347 1.01263 0
M  V30 4579 O 437.039 0.781781 1.64907 0
M  V30 4580 C 437.09 3.59033 -0.421614 0
M  V30 4581 O 436.811 4.01634 -1.7499 0
M  V30 4582 C 438.312 4.433 0.00489763 0
M  V30 4583 H 435.532 0.653346 -0.152904 0
M  V30 4584 H 438.076 1.74566 -1.06522 0
M  V30 4585 H 436.231 3.86746 0.224971 0
M  V30 4586 H 436.645 4.96217 -1.69909 0
M  V30 4587 H 438.119 5.51939 -0.0822184 0
M  V30 4588 H 438.596 4.26285 1.05723 0
M  V30 4589 H 439.202 4.20843 -0.614085 0
M  V30 4590 N 437.518 0.538854 1.48102 0
M  V30 4591 C 438.934 0.19732 1.58376 0
M  V30 4592 C 439.134 -1.29971 1.5398 0
M  V30 4593 O 438.19 -2.07861 1.43352 0
M  V30 4594 C 439.503 0.807716 2.89649 0
M  V30 4595 C 441.051 0.77726 3.03196 0
M  V30 4596 C 441.526 1.36639 4.37143 0
M  V30 4597 N 443.017 1.32875 4.43732 0
M  V30 4598 C 443.752 1.7544 5.45901 0
M  V30 4599 N 443.248 2.25776 6.54979 0
M  V30 4600 N 445.041 1.66623 5.36836 0
M  V30 4601 H 437.192 1.5117 1.49202 0
M  V30 4602 H 439.455 0.629327 0.708979 0
M  V30 4603 H 439.161 1.85909 2.98548 0
M  V30 4604 H 439.035 0.289975 3.76084 0
M  V30 4605 H 441.422 -0.265374 2.93904 0
M  V30 4606 H 441.503 1.33256 2.18349 0
M  V30 4607 H 441.147 2.408 4.47189 0
M  V30 4608 H 441.077 0.786689 5.20691 0
M  V30 4609 H 443.568 0.96037 3.65493 0
M  V30 4610 H 443.881 2.56226 7.29087 0
M  V30 4611 H 442.226 2.29775 6.55918 0
M  V30 4612 H 445.417 1.27089 4.50517 0
M  V30 4613 H 445.59 2.00115 6.16326 0
M  V30 4614 N 438.996 -1.55193 0.274407 0
M  V30 4615 C 439.926 -2.25471 -0.607032 0
M  V30 4616 C 440.907 -1.24461 -1.15946 0
M  V30 4617 O 442.092 -1.53179 -1.19373 0
M  V30 4618 C 439.222 -2.97526 -1.79153 0
M  V30 4619 C 438.176 -4.05459 -1.37067 0
M  V30 4620 C 437.502 -4.65084 -2.6382 0
M  V30 4621 C 438.802 -5.19691 -0.521389 0
M  V30 4622 H 440.496 -2.99393 -0.0209343 0
M  V30 4623 H 438.042 -1.43997 -0.00862866 0
M  V30 4624 H 439.995 -3.45402 -2.41404 0
M  V30 4625 H 438.719 -2.21138 -2.40344 0
M  V30 4626 H 437.378 -3.58393 -0.771355 0
M  V30 4627 H 437.026 -3.85365 -3.23268 0
M  V30 4628 H 436.726 -5.37961 -2.36372 0
M  V30 4629 H 438.25 -5.15708 -3.26921 0
M  V30 4630 H 439.664 -5.63623 -1.04889 0
M  V30 4631 H 438.061 -5.99126 -0.341825 0
M  V30 4632 H 439.131 -4.82713 0.46 0
M  V30 4633 N 440.474 -0.00167713 -1.576 0
M  V30 4634 C 441.722 0.681471 -1.90264 0
M  V30 4635 C 442.043 1.7422 -0.875924 0
M  V30 4636 O 441.313 1.95709 0.0864412 0
M  V30 4637 H 439.893 0.254696 -0.702239 0
M  V30 4638 H 442.555 -0.0429996 -1.94853 0
M  V30 4639 H 441.651 1.15166 -2.90075 0
M  V30 4640 N 441.952 1.55251 0.271103 0
M  V30 4641 C 443.177 1.80306 1.02491 0
M  V30 4642 C 443.602 0.575457 1.79081 0
M  V30 4643 O 442.96 -0.474987 1.74967 0
M  V30 4644 C 443.008 3.02832 1.95768 0
M  V30 4645 O 442.112 2.78051 3.04568 0
M  V30 4646 H 441.453 0.595896 0.292923 0
M  V30 4647 H 443.983 2.02397 0.299436 0
M  V30 4648 H 443.993 3.31616 2.37686 0
M  V30 4649 H 442.668 3.9183 1.39434 0
M  V30 4650 H 441.245 2.60369 2.66951 0
M  V30 4651 N 443.43 -0.535701 1.48216 0
M  V30 4652 C 444.678 -1.28928 1.55634 0
M  V30 4653 C 444.999 -1.93645 0.229514 0
M  V30 4654 O 444.269 -1.81038 -0.74846 0
M  V30 4655 H 442.849 -0.47884 0.573342 0
M  V30 4656 H 445.511 -0.623853 1.84646 0
M  V30 4657 H 444.607 -2.07157 2.33436 0
M  V30 4658 N 444.908 -1.36708 -0.784132 0
M  V30 4659 C 446.154 -1.31426 -1.54451 0
M  V30 4660 C 446.487 0.10476 -1.93917 0
M  V30 4661 O 445.762 1.05934 -1.6312 0
M  V30 4662 C 446.045 -2.24189 -2.818 0
M  V30 4663 C 445.898 -3.74813 -2.48667 0
M  V30 4664 C 447.217 -2.15626 -3.83658 0
M  V30 4665 H 444.336 -0.478739 -0.560337 0
M  V30 4666 H 446.978 -1.67305 -0.900498 0
M  V30 4667 H 445.128 -1.93722 -3.36755 0
M  V30 4668 H 446.8 -4.15823 -1.99722 0
M  V30 4669 H 445.043 -3.93989 -1.81535 0
M  V30 4670 H 445.714 -4.35138 -3.39646 0
M  V30 4671 H 448.19 -2.42456 -3.38163 0
M  V30 4672 H 447.066 -2.82694 -4.70506 0
M  V30 4673 H 447.327 -1.14522 -4.27009 0
M  V30 4674 N 446.386 1.0089 -1.21074 0
M  V30 4675 C 447.333 2.09588 -0.966512 0
M  V30 4676 C 448.303 1.65761 0.106089 0
M  V30 4677 O 449.488 1.90758 -0.0402287 0
M  V30 4678 C 446.628 3.40958 -0.533058 0
M  V30 4679 C 445.741 3.9822 -1.67467 0
M  V30 4680 C 444.876 5.17682 -1.19076 0
M  V30 4681 C 443.915 5.67043 -2.30496 0
M  V30 4682 N 443.052 6.77759 -1.83267 0
M  V30 4683 H 447.892 2.29815 -1.89708 0
M  V30 4684 H 445.429 1.12689 -0.945489 0
M  V30 4685 H 447.387 4.1637 -0.263019 0
M  V30 4686 H 446.017 3.20781 0.360505 0
M  V30 4687 H 445.069 3.1983 -2.05944 0
M  V30 4688 H 446.381 4.3085 -2.51336 0
M  V30 4689 H 445.535 6.00326 -0.877151 0
M  V30 4690 H 444.274 4.86635 -0.322066 0
M  V30 4691 H 443.279 4.82999 -2.62664 0
M  V30 4692 H 444.504 6.00121 -3.17855 0
M  V30 4693 H 442.45 6.48527 -0.987356 0
M  V30 4694 H 442.367 7.09624 -2.60711 0
M  V30 4695 H 443.635 7.63949 -1.54928 0
M  V30 4696 N 447.864 1.01787 1.20321 0
M  V30 4697 C 449.113 0.703249 1.89043 0
M  V30 4698 C 449.426 -0.770445 1.79787 0
M  V30 4699 O 450.632 -1.19767 2.43656 0
M  V30 4700 C 449.088 1.20749 3.3904 0
M  V30 4701 C 448.696 2.70817 3.56878 0
M  V30 4702 C 450.44 0.968352 4.13308 0
M  V30 4703 C 448.347 3.14716 5.00708 0
M  V30 4704 H 447.277 0.259354 0.707991 0
M  V30 4705 H 449.928 1.23072 1.36108 0
M  V30 4706 H 448.31 0.607989 3.91305 0
M  V30 4707 H 449.484 3.36327 3.14993 0
M  V30 4708 H 447.799 2.92888 2.95983 0
M  V30 4709 H 450.396 1.27173 5.19356 0
M  V30 4710 H 450.739 -0.095149 4.16191 0
M  V30 4711 H 451.272 1.53129 3.67146 0
M  V30 4712 H 448.011 4.20347 5.02979 0
M  V30 4713 H 447.531 2.53927 5.43398 0
M  V30 4714 H 449.21 3.07426 5.69296 0
M  V30 4715 N 449.342 -1.36122 0.79427 0
M  V30 4716 C 450.588 -1.99406 0.369452 0
M  V30 4717 C 450.921 -1.62886 -1.05743 0
M  V30 4718 O 450.196 -0.886053 -1.73145 0
M  V30 4719 C 450.479 -3.56046 0.538833 0
M  V30 4720 C 450.332 -4.02404 2.00976 0
M  V30 4721 C 451.651 -4.40079 -0.0431359 0
M  V30 4722 H 448.77 -0.724397 0.135712 0
M  V30 4723 H 451.412 -1.61461 1.00151 0
M  V30 4724 H 449.562 -3.885 0.000771004 0
M  V30 4725 H 451.234 -3.80415 2.60926 0
M  V30 4726 H 449.477 -3.53765 2.51063 0
M  V30 4727 H 450.148 -5.11344 2.07922 0
M  V30 4728 H 452.624 -4.14013 0.416228 0
M  V30 4729 H 451.5 -5.48799 0.105374 0
M  V30 4730 H 451.761 -4.27264 -1.13571 0
M  V30 4731 N 450.82 -0.546701 -1.47814 0
M  V30 4732 C 451.783 0.196287 -2.28358 0
M  V30 4733 C 452.783 0.852437 -1.36346 0
M  V30 4734 O 453.973 0.709913 -1.59078 0
M  V30 4735 C 451.105 1.28579 -3.15722 0
M  V30 4736 H 452.298 -0.511086 -2.95513 0
M  V30 4737 H 449.851 -0.303248 -1.5333 0
M  V30 4738 H 450.586 2.0259 -2.53235 0
M  V30 4739 H 450.371 0.820229 -3.83425 0
M  V30 4740 H 451.861 1.80793 -3.76435 0
M  V30 4741 N 452.299 1.55045 -0.282633 0
M  V30 4742 C 453.576 1.9179 0.384166 0
M  V30 4743 C 453.956 1.20778 1.73136 0
M  V30 4744 O 453.304 0.33719 2.25998 0
M  V30 4745 C 453.514 3.45149 0.517014 0
M  V30 4746 C 454.862 4.17064 0.796427 0
M  V30 4747 O 455.886 3.51084 0.601535 0
M  V30 4748 O 454.745 5.33837 1.16962 0
M  V30 4749 H 451.839 0.799483 0.211558 0
M  V30 4750 H 454.385 1.66474 -0.32934 0
M  V30 4751 H 453.157 3.88922 -0.430772 0
M  V30 4752 H 452.78 3.76443 1.2797 0
M  V30 4753 N 453.777 0.010035 1.57597 0
M  V30 4754 C 454.687 -0.994226 2.12491 0
M  V30 4755 C 455.703 -1.37013 1.07254 0
M  V30 4756 O 456.879 -1.45542 1.3921 0
M  V30 4757 C 453.944 -2.2642 2.62555 0
M  V30 4758 C 453.005 -1.95049 3.82432 0
M  V30 4759 C 452.238 -3.15991 4.30099 0
M  V30 4760 O 452.461 -4.28015 3.7704 0
M  V30 4761 O 451.395 -2.99403 5.22151 0
M  V30 4762 H 455.221 -0.557549 2.98538 0
M  V30 4763 H 452.806 -0.209413 1.47925 0
M  V30 4764 H 454.688 -3.01009 2.9491 0
M  V30 4765 H 453.363 -2.69306 1.796 0
M  V30 4766 H 452.27 -1.17904 3.55034 0
M  V30 4767 H 453.603 -1.56992 4.66491 0
M  V30 4768 N 455.255 -1.55392 -0.262866 0
M  V30 4769 C 456.501 -1.77657 -0.990424 0
M  V30 4770 C 456.856 -0.576333 -1.83565 0
M  V30 4771 O 456.149 0.430795 -1.86694 0
M  V30 4772 C 456.343 -3.02889 -1.89718 0
M  V30 4773 C 456.172 -4.34979 -1.14121 0
M  V30 4774 C 454.942 -4.98052 -0.852768 0
M  V30 4775 C 457.14 -5.11597 -0.526625 0
M  V30 4776 N 455.122 -6.13859 -0.0710649 0
M  V30 4777 C 456.493 -6.19883 0.12042 0
M  V30 4778 C 458.548 -4.95992 -0.435485 0
M  V30 4779 C 457.251 -7.14262 0.849833 0
M  V30 4780 C 459.277 -5.90735 0.280359 0
M  V30 4781 C 458.639 -6.98417 0.916103 0
M  V30 4782 H 454.738 -0.702242 -0.344064 0
M  V30 4783 H 457.322 -1.92887 -0.265088 0
M  V30 4784 H 455.493 -2.89017 -2.59468 0
M  V30 4785 H 457.225 -3.13516 -2.5591 0
M  V30 4786 H 453.98 -4.5916 -1.16058 0
M  V30 4787 H 454.404 -6.76302 0.307413 0
M  V30 4788 H 459.046 -4.12832 -0.912671 0
M  V30 4789 H 456.764 -7.96935 1.33867 0
M  V30 4790 H 460.35 -5.80738 0.351332 0
M  V30 4791 H 459.23 -7.70467 1.46119 0
M  V30 4792 N 456.733 0.527833 -1.48498 0
M  V30 4793 C 457.973 1.29401 -1.58224 0
M  V30 4794 C 458.337 1.90348 -0.251327 0
M  V30 4795 O 459.538 2.67868 -0.223588 0
M  V30 4796 C 457.809 2.35266 -2.69044 0
M  V30 4797 S 459.368 3.2158 -2.98549 0
M  V30 4798 H 456.186 0.440138 -0.558391 0
M  V30 4799 H 458.788 0.601079 -1.8603 0
M  V30 4800 H 457.492 1.88975 -3.64303 0
M  V30 4801 H 457.023 3.09263 -2.43146 0
M  V30 4802 H 459.038 4.35391 -2.38011 0
M  V30 4803 N 458.211 1.37122 0.776871 0
M  V30 4804 C 459.159 1.32549 1.91138 0
M  V30 4805 C 460.153 0.215119 1.68029 0
M  V30 4806 O 461.359 0.382852 1.75881 0
M  V30 4807 H 457.734 0.412952 0.62847 0
M  V30 4808 H 459.705 2.28332 1.92112 0
M  V30 4809 C 458.454 1.14422 3.28333 0
M  V30 4810 H 457.777 1.99115 3.46689 0
M  V30 4811 H 459.217 1.15272 4.0803 0
M  V30 4812 C 457.676 -0.150434 3.36564 0
M  V30 4813 O 458.206 -1.13584 3.85307 0
M  V30 4814 N 456.412 -0.19939 2.89915 0
M  V30 4815 H 455.959 0.603142 2.5044 0
M  V30 4816 H 455.917 -1.06526 2.95803 0
M  V30 4817 N 459.689 -1.00246 1.21608 0
M  V30 4818 C 460.917 -1.77631 1.06089 0
M  V30 4819 C 461.332 -1.84746 -0.38916 0
M  V30 4820 O 460.689 -1.31068 -1.26994 0
M  V30 4821 C 460.74 -3.21415 1.65453 0
M  V30 4822 O 460.461 -3.14703 3.04785 0
M  V30 4823 C 461.962 -4.15289 1.55079 0
M  V30 4824 H 459.182 -0.558162 0.37242 0
M  V30 4825 H 461.726 -1.26093 1.60999 0
M  V30 4826 H 459.881 -3.70053 1.14629 0
M  V30 4827 H 460.295 -4.05056 3.33212 0
M  V30 4828 H 461.769 -5.13965 2.01355 0
M  V30 4829 H 462.246 -4.36279 0.505665 0
M  V30 4830 H 462.852 -3.72543 2.05163 0
M  V30 4831 N 461.167 -1.02423 -1.1978 0
M  V30 4832 C 462.397 -0.736387 -1.93031 0
M  V30 4833 C 462.805 0.708023 -1.75453 0
M  V30 4834 O 462.148 1.4927 -1.07071 0
M  V30 4835 C 462.21 -1.00194 -3.45255 0
M  V30 4836 C 461.874 -2.43698 -3.86601 0
M  V30 4837 C 462.871 -3.41814 -3.91738 0
M  V30 4838 C 460.556 -2.77975 -4.18372 0
M  V30 4839 C 462.55 -4.72265 -4.28071 0
M  V30 4840 C 460.237 -4.08636 -4.54378 0
M  V30 4841 C 461.235 -5.05592 -4.59201 0
M  V30 4842 O 460.923 -6.33914 -4.94376 0
M  V30 4843 H 460.655 -0.269116 -0.620123 0
M  V30 4844 H 463.209 -1.37043 -1.52998 0
M  V30 4845 H 461.439 -0.310747 -3.85449 0
M  V30 4846 H 463.128 -0.704488 -3.9974 0
M  V30 4847 H 463.894 -3.16671 -3.67348 0
M  V30 4848 H 459.773 -2.0319 -4.13805 0
M  V30 4849 H 463.317 -5.4794 -4.3175 0
M  V30 4850 H 459.214 -4.33556 -4.78226 0
M  V30 4851 H 459.982 -6.38317 -5.12341 0
M  V30 4852 N 462.645 1.35699 -0.801477 0
M  V30 4853 C 463.577 2.28598 -0.166028 0
M  V30 4854 C 464.59 1.50044 0.631721 0
M  V30 4855 O 465.779 1.72339 0.464921 0
M  V30 4856 C 462.879 3.29625 0.787451 0
M  V30 4857 C 462.052 4.37384 0.037171 0
M  V30 4858 C 461.111 5.183 0.908375 0
M  V30 4859 O 460.137 5.68053 0.361189 0
M  V30 4860 N 461.339 5.35912 2.23112 0
M  V30 4861 H 464.104 2.83771 -0.964071 0
M  V30 4862 H 461.665 1.47994 -0.656469 0
M  V30 4863 H 463.657 3.80648 1.37439 0
M  V30 4864 H 462.227 2.75004 1.48632 0
M  V30 4865 H 461.447 3.87364 -0.730935 0
M  V30 4866 H 462.735 5.0653 -0.480109 0
M  V30 4867 H 462.133 4.97125 2.69968 0
M  V30 4868 H 460.69 5.90133 2.76741 0
M  V30 4869 N 464.123 0.554532 1.47522 0
M  V30 4870 C 465.4 -0.0360704 1.95567 0
M  V30 4871 C 465.78 -1.48828 1.49711 0
M  V30 4872 O 465.128 -2.16366 0.734717 0
M  V30 4873 C 465.338 0.106631 3.48837 0
M  V30 4874 C 466.686 -0.0400899 4.24581 0
M  V30 4875 O 467.71 0.0340453 3.56184 0
M  V30 4876 O 466.569 -0.199111 5.46137 0
M  V30 4877 H 463.663 -0.0656294 0.824392 0
M  V30 4878 H 466.209 0.620867 1.57935 0
M  V30 4879 H 464.981 1.11727 3.7501 0
M  V30 4880 H 464.604 -0.58804 3.93227 0
M  V30 4881 N 465.601 -1.54893 0.290851 0
M  V30 4882 C 466.85 -1.99111 -0.322113 0
M  V30 4883 C 467.163 -1.18283 -1.55784 0
M  V30 4884 O 468.369 -1.5272 -2.24475 0
M  V30 4885 C 466.825 -3.54442 -0.624438 0
M  V30 4886 C 466.433 -4.44066 0.592373 0
M  V30 4887 C 468.177 -4.07211 -1.19916 0
M  V30 4888 C 466.084 -5.90812 0.263762 0
M  V30 4889 H 465.014 -0.743712 -0.124133 0
M  V30 4890 H 467.665 -1.79132 0.39797 0
M  V30 4891 H 466.047 -3.70281 -1.40384 0
M  V30 4892 H 467.221 -4.39999 1.36886 0
M  V30 4893 H 465.536 -4.02015 1.08502 0
M  V30 4894 H 468.133 -5.14407 -1.45909 0
M  V30 4895 H 468.476 -3.57196 -2.13815 0
M  V30 4896 H 469.009 -3.94873 -0.481687 0
M  V30 4897 H 465.748 -6.44955 1.17105 0
M  V30 4898 H 465.268 -5.97911 -0.475655 0
M  V30 4899 H 466.947 -6.46852 -0.138354 0
M  V30 4900 N 467.08 -0.0183926 -1.57589 0
M  V30 4901 C 468.326 0.663543 -1.91638 0
M  V30 4902 C 468.659 1.72392 -0.894134 0
M  V30 4903 O 467.934 1.94316 0.0846449 0
M  V30 4904 C 468.217 1.28984 -3.36207 0
M  V30 4905 C 468.07 0.239761 -4.49161 0
M  V30 4906 C 469.389 2.2109 -3.80536 0
M  V30 4907 H 466.508 0.239746 -0.696915 0
M  V30 4908 H 469.15 -0.073456 -1.89858 0
M  V30 4909 H 467.3 1.91799 -3.37854 0
M  V30 4910 H 468.972 -0.390119 -4.59647 0
M  V30 4911 H 467.215 -0.435972 -4.31604 0
M  V30 4912 H 467.886 0.717383 -5.47319 0
M  V30 4913 H 470.362 1.68273 -3.80557 0
M  V30 4914 H 469.238 2.61869 -4.82406 0
M  V30 4915 H 469.499 3.09764 -3.15434 0
M  V30 4916 N 468.558 1.5553 0.254621 0
M  V30 4917 C 469.835 1.6774 1.00611 0
M  V30 4918 C 470.215 0.555993 2.03647 0
M  V30 4919 O 469.563 -0.441583 2.24193 0
M  V30 4920 C 469.773 3.07725 1.6464 0
M  V30 4921 C 471.121 3.66074 2.15116 0
M  V30 4922 O 472.145 3.10476 1.74595 0
M  V30 4923 O 471.004 4.63526 2.89493 0
M  V30 4924 H 468.098 0.681958 0.467828 0
M  V30 4925 H 470.644 1.67863 0.24902 0
M  V30 4926 H 469.416 3.80792 0.900734 0
M  V30 4927 H 469.039 3.1158 2.46989 0
M  V30 4928 N 470.036 -0.519951 1.48776 0
M  V30 4929 C 471.283 -1.27522 1.57303 0
M  V30 4930 C 471.611 -1.92869 0.251328 0
M  V30 4931 O 470.866 -1.80372 -0.759243 0
M  V30 4932 C 471.165 -2.37864 2.6675 0
M  V30 4933 C 470.831 -1.90103 4.08867 0
M  V30 4934 C 469.493 -1.76795 4.47546 0
M  V30 4935 C 471.845 -1.54133 4.97888 0
M  V30 4936 C 469.173 -1.25868 5.73039 0
M  V30 4937 C 471.525 -1.04665 6.23881 0
M  V30 4938 C 470.189 -0.899823 6.61407 0
M  V30 4939 H 469.459 -0.466636 0.575614 0
M  V30 4940 H 472.106 -0.579109 1.82534 0
M  V30 4941 H 470.411 -3.13186 2.35418 0
M  V30 4942 H 472.108 -2.95969 2.70561 0
M  V30 4943 H 468.698 -2.01414 3.78326 0
M  V30 4944 H 472.882 -1.6327 4.68675 0
M  V30 4945 H 468.138 -1.13196 6.0083 0
M  V30 4946 H 472.312 -0.759074 6.92251 0
M  V30 4947 H 469.939 -0.503011 7.58534 0
M  V30 4948 N 471.514 -1.37532 -0.769588 0
M  V30 4949 C 472.742 -1.36059 -1.55871 0
M  V30 4950 C 473.157 0.053544 -1.88724 0
M  V30 4951 O 472.514 1.01591 -1.5161 0
M  V30 4952 C 472.565 -2.20107 -2.86767 0
M  V30 4953 O 472.286 -3.56009 -2.55321 0
M  V30 4954 C 473.787 -2.26636 -3.80987 0
M  V30 4955 H 471.007 -0.465967 -0.482821 0
M  V30 4956 H 473.551 -1.80901 -0.953686 0
M  V30 4957 H 471.706 -1.78768 -3.43687 0
M  V30 4958 H 472.12 -4.0009 -3.39158 0
M  V30 4959 H 473.594 -2.89763 -4.69831 0
M  V30 4960 H 474.071 -1.2754 -4.20274 0
M  V30 4961 H 474.677 -2.68296 -3.29996 0
M  V30 4962 N 472.992 0.995999 -1.22138 0
M  V30 4963 C 474.269 1.70834 -0.952642 0
M  V30 4964 C 474.649 2.04257 0.533119 0
M  V30 4965 O 473.997 1.72343 1.50034 0
M  V30 4966 C 474.207 2.96119 -1.84701 0
M  V30 4967 C 475.555 3.68962 -2.10124 0
M  V30 4968 O 476.579 3.0612 -1.82124 0
M  V30 4969 O 475.438 4.82017 -2.57531 0
M  V30 4970 H 472.532 0.745498 -0.357997 0
M  V30 4971 H 475.078 1.05262 -1.33109 0
M  V30 4972 H 473.85 2.67898 -2.85213 0
M  V30 4973 H 473.473 3.6943 -1.46995 0
M  V30 4974 N 474.47 1.03057 1.19235 0
M  V30 4975 C 475.433 0.617418 2.20727 0
M  V30 4976 C 476.433 -0.319856 1.57587 0
M  V30 4977 O 477.623 -0.106633 1.73873 0
M  V30 4978 C 474.755 -0.096296 3.40764 0
M  V30 4979 H 475.948 1.51544 2.58794 0
M  V30 4980 H 473.501 0.821949 1.32942 0
M  V30 4981 H 474.236 -1.00859 3.08217 0
M  V30 4982 H 474.021 0.577217 3.87828 0
M  V30 4983 H 475.511 -0.372219 4.15938 0
M  V30 4984 N 475.948 -1.35272 0.808662 0
M  V30 4985 C 477.196 -1.98316 0.389233 0
M  V30 4986 C 477.517 -1.64465 -1.04767 0
M  V30 4987 O 476.787 -0.928175 -1.72516 0
M  V30 4988 H 475.367 -0.733585 0.140935 0
M  V30 4989 H 478.029 -1.6515 1.03496 0
M  V30 4990 H 477.125 -3.08123 0.496631 0
M  V30 4991 N 477.426 -0.562348 -1.47226 0
M  V30 4992 C 478.651 -0.0432632 -2.07355 0
M  V30 4993 C 479.076 1.24332 -1.41149 0
M  V30 4994 O 478.434 1.74603 -0.488226 0
M  V30 4995 C 478.482 0.130288 -3.60365 0
M  V30 4996 O 477.586 1.19166 -3.94808 0
M  V30 4997 H 476.927 -0.0536334 -0.66183 0
M  V30 4998 H 479.457 -0.779495 -1.89169 0
M  V30 4999 H 479.467 0.342881 -4.06557 0
M  V30 5000 H 478.142 -0.809389 -4.07948 0
M  V30 5001 H 476.719 0.959153 -3.60354 0
M  V30 5002 N 478.904 1.54736 -0.299062 0
M  V30 5003 C 480.144 2.0201 0.31168 0
M  V30 5004 C 480.508 1.18281 1.5124 0
M  V30 5005 O 481.709 1.55243 2.19438 0
M  V30 5006 C 479.98 3.5123 0.661227 0
M  V30 5007 S 481.539 4.20467 1.2551 0
M  V30 5008 H 478.357 0.704523 0.0957517 0
M  V30 5009 H 480.959 1.90791 -0.426482 0
M  V30 5010 H 479.663 4.09804 -0.221171 0
M  V30 5011 H 479.194 3.66481 1.43023 0
M  V30 5012 H 481.209 4.26083 2.54298 0
M  V30 5013 N 480.382 0.0267497 1.57577 0
M  V30 5014 C 481.332 -0.965003 2.06571 0
M  V30 5015 C 482.316 -1.28694 0.965746 0
M  V30 5016 O 483.508 -1.27345 1.22932 0
M  V30 5017 C 480.637 -2.24821 2.59443 0
M  V30 5018 C 479.723 -1.95474 3.76365 0
M  V30 5019 N 480.114 -1.36387 4.87065 0
M  V30 5020 C 478.412 -2.25478 3.84806 0
M  V30 5021 C 479.113 -1.24119 5.68304 0
M  V30 5022 N 478.089 -1.7359 5.15138 0
M  V30 5023 H 481.891 -0.503095 2.89562 0
M  V30 5024 H 479.405 -0.178322 1.61418 0
M  V30 5025 H 481.402 -2.9674 2.92833 0
M  V30 5026 H 480.062 -2.7164 1.77881 0
M  V30 5027 H 481.073 -1.03919 5.07367 0
M  V30 5028 H 477.75 -2.74987 3.14147 0
M  V30 5029 H 479.14 -0.784504 6.67304 0
M  V30 5030 N 481.861 -1.55662 -0.24637 0
M  V30 5031 C 482.794 -1.85332 -1.33143 0
M  V30 5032 C 483.772 -0.708464 -1.46354 0
M  V30 5033 O 484.956 -0.954274 -1.6256 0
M  V30 5034 C 482.083 -2.0385 -2.70487 0
M  V30 5035 C 481.129 -3.26488 -2.74423 0
M  V30 5036 S 481.962 -4.83124 -2.30979 0
M  V30 5037 C 483.118 -5.04647 -3.70246 0
M  V30 5038 H 483.351 -2.77077 -1.07777 0
M  V30 5039 H 480.884 -1.47776 -0.44738 0
M  V30 5040 H 482.842 -2.15202 -3.49569 0
M  V30 5041 H 481.503 -1.12947 -2.9309 0
M  V30 5042 H 480.696 -3.36413 -3.7529 0
M  V30 5043 H 480.298 -3.13864 -2.03385 0
M  V30 5044 H 482.59 -4.92023 -4.65746 0
M  V30 5045 H 483.533 -6.06625 -3.65255 0
M  V30 5046 H 483.941 -4.32491 -3.62784 0
M  V30 5047 N 483.339 0.512053 -1.4905 0
M  V30 5048 C 484.585 1.26874 -1.58212 0
M  V30 5049 C 484.918 1.9241 -0.263073 0
M  V30 5050 O 484.193 1.80181 0.732476 0
M  V30 5051 C 484.476 2.34428 -2.73341 0
M  V30 5052 C 484.329 1.73466 -4.15006 0
M  V30 5053 C 485.648 3.36073 -2.84154 0
M  V30 5054 H 482.767 0.459924 -0.575881 0
M  V30 5055 H 485.409 0.568587 -1.81293 0
M  V30 5056 H 483.559 2.94146 -2.53792 0
M  V30 5057 H 485.231 1.17661 -4.46042 0
M  V30 5058 H 483.474 1.03921 -4.21168 0
M  V30 5059 H 484.145 2.51426 -4.91415 0
M  V30 5060 H 486.621 2.86332 -3.01916 0
M  V30 5061 H 485.497 4.08703 -3.66406 0
M  V30 5062 H 485.758 3.97725 -1.93048 0
M  V30 5063 N 484.817 1.37938 0.762283 0
M  V30 5064 C 485.749 1.30349 1.88525 0
M  V30 5065 C 486.762 0.217402 1.61342 0
M  V30 5066 O 487.951 0.474291 1.72084 0
M  V30 5067 C 485.051 0.994844 3.23969 0
M  V30 5068 C 484.224 2.18829 3.78725 0
M  V30 5069 C 483.283 1.84844 4.92665 0
M  V30 5070 O 482.309 2.57244 5.07754 0
M  V30 5071 N 483.511 0.798201 5.74986 0
M  V30 5072 H 486.276 2.27114 1.95549 0
M  V30 5073 H 483.837 1.31686 0.941825 0
M  V30 5074 H 485.829 0.748168 3.97724 0
M  V30 5075 H 484.399 0.115446 3.12387 0
M  V30 5076 H 483.619 2.59615 2.96637 0
M  V30 5077 H 484.907 2.98497 4.1204 0
M  V30 5078 H 484.305 0.197611 5.65355 0
M  V30 5079 H 482.862 0.611396 6.48926 0
M  V30 5080 N 486.295 -0.989507 1.22664 0
M  V30 5081 C 487.544 -1.72375 1.04737 0
M  V30 5082 C 487.857 -1.91096 -0.417316 0
M  V30 5083 O 489.063 -2.6188 -0.716334 0
M  V30 5084 C 487.519 -3.10161 1.82561 0
M  V30 5085 C 487.127 -2.99358 3.333 0
M  V30 5086 C 488.871 -3.87607 1.73093 0
M  V30 5087 C 486.778 -4.32319 4.03552 0
M  V30 5088 H 485.708 -0.646326 0.388302 0
M  V30 5089 H 488.359 -1.10437 1.46546 0
M  V30 5090 H 486.741 -3.728 1.33552 0
M  V30 5091 H 487.915 -2.45863 3.89728 0
M  V30 5092 H 486.23 -2.35392 3.43481 0
M  V30 5093 H 488.827 -4.86025 2.22899 0
M  V30 5094 H 489.17 -4.10509 0.691976 0
M  V30 5095 H 489.703 -3.31652 2.19663 0
M  V30 5096 H 486.442 -4.14616 5.07714 0
M  V30 5097 H 485.962 -4.85714 3.51911 0
M  V30 5098 H 487.641 -5.01051 4.09337 0
M  V30 5099 N 487.773 -1.03688 -1.18687 0
M  V30 5100 C 488.72 -0.624624 -2.22187 0
M  V30 5101 C 489.69 0.365636 -1.62026 0
M  V30 5102 O 490.875 0.260481 -1.89014 0
M  V30 5103 C 488.015 0.0101738 -3.45099 0
M  V30 5104 C 487.128 -1.02709 -4.19613 0
M  V30 5105 C 486.263 -0.361213 -5.2997 0
M  V30 5106 C 485.302 -1.38384 -5.96252 0
M  V30 5107 N 484.439 -0.743196 -6.98155 0
M  V30 5108 H 489.279 -1.51176 -2.56807 0
M  V30 5109 H 486.816 -0.75636 -1.26165 0
M  V30 5110 H 488.774 0.395528 -4.15321 0
M  V30 5111 H 487.404 0.860848 -3.1111 0
M  V30 5112 H 486.456 -1.53043 -3.48256 0
M  V30 5113 H 487.768 -1.80398 -4.65036 0
M  V30 5114 H 486.922 0.0785537 -6.06649 0
M  V30 5115 H 485.661 0.447799 -4.8564 0
M  V30 5116 H 484.666 -1.83378 -5.18317 0
M  V30 5117 H 485.891 -2.19448 -6.42666 0
M  V30 5118 H 483.837 0.0455789 -6.55984 0
M  V30 5119 H 483.754 -1.45784 -7.41811 0
M  V30 5120 H 485.022 -0.327698 -7.78811 0
M  V30 5121 N 489.251 1.34841 -0.815825 0
M  V30 5122 C 490.479 2.0273 -0.413294 0
M  V30 5123 C 490.894 1.61459 0.978599 0
M  V30 5124 O 490.251 0.816584 1.63212 0
M  V30 5125 C 490.302 3.58058 -0.497676 0
M  V30 5126 O 490.023 3.97832 -1.8347 0
M  V30 5127 C 491.524 4.4321 -0.0891339 0
M  V30 5128 H 488.744 0.649956 -0.166728 0
M  V30 5129 H 491.288 1.72267 -1.10201 0
M  V30 5130 H 489.443 3.87136 0.142886 0
M  V30 5131 H 489.857 4.92501 -1.80396 0
M  V30 5132 H 491.331 5.5164 -0.199274 0
M  V30 5133 H 491.808 4.28432 0.966571 0
M  V30 5134 H 492.414 4.19446 -0.703214 0
M  V30 5135 N 490.729 0.570148 1.46925 0
M  V30 5136 C 492.14 0.1402 1.86173 0
M  V30 5137 C 492.491 -1.29347 1.47526 0
M  V30 5138 O 491.616 -1.97508 0.884292 0
M  V30 5139 C 492.211 0.247661 3.37894 0
M  V30 5140 C 490.77 -0.127332 3.76185 0
M  V30 5141 C 489.917 0.589349 2.70965 0
M  V30 5142 H 492.868 0.779117 1.38259 0
M  V30 5143 H 492.889 -0.530341 3.76786 0
M  V30 5144 H 492.401 1.29121 3.65991 0
M  V30 5145 H 490.502 -1.17149 3.53704 0
M  V30 5146 H 490.615 0.240238 4.78497 0
M  V30 5147 H 488.979 0.0309824 2.54681 0
M  V30 5148 H 489.762 1.6343 3.01903 0
M  V30 5149 N 492.207 -1.54576 0.307264 0
M  V30 5150 C 493.484 -1.92377 -0.353605 0
M  V30 5151 C 493.864 -1.23517 -1.71192 0
M  V30 5152 O 493.212 -0.373101 -2.25433 0
M  V30 5153 C 493.422 -3.45928 -0.462039 0
M  V30 5154 C 494.77 -4.18278 -0.729975 0
M  V30 5155 O 495.794 -3.51997 -0.545605 0
M  V30 5156 O 494.653 -5.3563 -1.08454 0
M  V30 5157 H 491.747 -0.802747 -0.198812 0
M  V30 5158 H 494.293 -1.65929 0.355783 0
M  V30 5159 H 493.065 -3.88187 0.492592 0
M  V30 5160 H 492.688 -3.78431 -1.21965 0
M  V30 5161 N 493.685 -0.035106 -1.57561 0
M  V30 5162 C 494.615 0.942993 -2.13612 0
M  V30 5163 C 495.596 1.33531 -1.05373 0
M  V30 5164 O 496.781 1.41287 -1.33235 0
M  V30 5165 C 493.911 2.22332 -2.66807 0
M  V30 5166 C 492.865 1.97156 -3.79886 0
M  V30 5167 C 492.191 3.31506 -4.19533 0
M  V30 5168 C 493.491 1.30596 -5.05709 0
M  V30 5169 H 495.185 0.476179 -2.95589 0
M  V30 5170 H 492.731 0.227602 -1.4219 0
M  V30 5171 H 494.684 2.91142 -3.04654 0
M  V30 5172 H 493.408 2.7119 -1.81999 0
M  V30 5173 H 492.067 1.30763 -3.42486 0
M  V30 5174 H 491.715 3.78134 -3.31698 0
M  V30 5175 H 491.415 3.15465 -4.95738 0
M  V30 5176 H 492.939 4.01574 -4.59968 0
M  V30 5177 H 494.353 1.89416 -5.41105 0
M  V30 5178 H 492.75 1.24934 -5.86951 0
M  V30 5179 H 493.82 0.279742 -4.84092 0
M  V30 5180 N 495.163 1.55791 0.238111 0
M  V30 5181 C 496.411 1.77681 0.963001 0
M  V30 5182 C 496.732 0.600674 1.85518 0
M  V30 5183 O 496.002 -0.383182 1.92116 0
M  V30 5184 H 494.582 0.655315 0.358568 0
M  V30 5185 H 497.244 1.93239 0.253945 0
M  V30 5186 H 496.34 2.69177 1.57956 0
M  V30 5187 N 496.642 -0.504142 1.49319 0
M  V30 5188 C 497.89 -1.25598 1.58334 0
M  V30 5189 C 498.211 -1.93114 0.270538 0
M  V30 5190 O 497.481 -1.82585 -0.709891 0
M  V30 5191 H 496.061 -0.466571 0.58337 0
M  V30 5192 H 498.723 -0.584547 1.85928 0
M  V30 5193 H 497.819 -2.02159 2.37778 0
M  V30 5194 N 498.12 -1.38341 -0.754957 0
M  V30 5195 C 499.369 -1.33791 -1.5094 0
M  V30 5196 C 499.682 0.0699267 -1.95475 0
M  V30 5197 O 500.888 0.237956 -2.70455 0
M  V30 5198 C 499.344 -2.34934 -2.72643 0
M  V30 5199 C 498.952 -3.81332 -2.35138 0
M  V30 5200 C 500.696 -2.39425 -3.50536 0
M  V30 5201 C 498.603 -4.74164 -3.53444 0
M  V30 5202 H 497.533 -0.497314 -0.566741 0
M  V30 5203 H 500.184 -1.63888 -0.825403 0
M  V30 5204 H 498.566 -1.97878 -3.43017 0
M  V30 5205 H 499.74 -4.27319 -1.7244 0
M  V30 5206 H 498.055 -3.79946 -1.70382 0
M  V30 5207 H 500.652 -3.0598 -4.38498 0
M  V30 5208 H 500.995 -1.41278 -3.91594 0
M  V30 5209 H 501.528 -2.75274 -2.87174 0
M  V30 5210 H 498.267 -5.73501 -3.17453 0
M  V30 5211 H 497.787 -4.3287 -4.15191 0
M  V30 5212 H 499.466 -4.92111 -4.20043 0
M  V30 5213 N 499.598 0.982988 -1.23187 0
M  V30 5214 C 500.548 2.05962 -0.977942 0
M  V30 5215 C 501.532 1.60725 0.0751148 0
M  V30 5216 O 502.724 1.76471 -0.136683 0
M  V30 5217 C 499.853 3.38564 -0.568276 0
M  V30 5218 C 498.939 3.90407 -1.6566 0
M  V30 5219 N 499.33 4.15359 -2.88635 0
M  V30 5220 C 497.628 4.18915 -1.53058 0
M  V30 5221 C 498.329 4.57642 -3.5908 0
M  V30 5222 N 497.305 4.6192 -2.86584 0
M  V30 5223 H 501.107 2.23208 -1.91195 0
M  V30 5224 H 498.621 1.16555 -1.13087 0
M  V30 5225 H 500.618 4.15276 -0.36764 0
M  V30 5226 H 499.278 3.22712 0.358713 0
M  V30 5227 H 500.289 4.03258 -3.24966 0
M  V30 5228 H 496.966 4.12081 -0.670506 0
M  V30 5229 H 498.356 4.85488 -4.6449 0
M  V30 5230 N 501.076 1.04316 1.18135 0
M  V30 5231 C 502.024 0.630175 2.23901 0
M  V30 5232 C 503.018 -0.344254 1.65865 0
M  V30 5233 O 504.224 -0.211273 1.78756 0
M  V30 5234 H 500.599 0.185578 0.728742 0
M  V30 5235 H 502.57 1.53253 2.56039 0
M  V30 5236 C 501.319 0.011666 3.47698 0
M  V30 5237 H 500.642 0.752526 3.92654 0
M  V30 5238 H 502.082 -0.240046 4.2332 0
M  V30 5239 C 500.541 -1.23913 3.13285 0
M  V30 5240 O 501.071 -2.32959 3.27251 0
M  V30 5241 N 499.277 -1.13338 2.67587 0
M  V30 5242 H 498.824 -0.246006 2.56423 0
M  V30 5243 H 498.782 -1.97116 2.44934 0
M  V30 5244 N 502.554 -1.34406 0.822964 0
M  V30 5245 C 503.803 -1.97542 0.407458 0
M  V30 5246 C 504.116 -1.65973 -1.035 0
M  V30 5247 O 505.322 -2.22598 -1.55442 0
M  V30 5248 C 503.778 -3.53463 0.677623 0
M  V30 5249 C 503.386 -3.93925 2.1337 0
M  V30 5250 C 505.13 -4.23229 0.328284 0
M  V30 5251 C 503.037 -5.42759 2.34876 0
M  V30 5252 H 501.967 -0.739207 0.148623 0
M  V30 5253 H 504.618 -1.53248 1.00932 0
M  V30 5254 H 503 -3.96 0.00558965 0
M  V30 5255 H 504.174 -3.62494 2.8449 0
M  V30 5256 H 502.489 -3.37097 2.44448 0
M  V30 5257 H 505.086 -5.32659 0.466794 0
M  V30 5258 H 505.429 -4.09899 -0.727224 0
M  V30 5259 H 505.962 -3.86169 0.954896 0
M  V30 5260 H 502.701 -5.61075 3.38932 0
M  V30 5261 H 502.221 -5.75704 1.68299 0
M  V30 5262 H 503.9 -6.0944 2.17236 0
M  V30 5263 N 504.032 -0.577932 -1.46621 0
M  V30 5264 C 505.278 -0.0617793 -2.02706 0
M  V30 5265 C 505.611 1.29294 -1.44903 0
M  V30 5266 O 504.886 1.8461 -0.61232 0
M  V30 5267 C 505.169 0.00911824 -3.60099 0
M  V30 5268 C 505.022 -1.37416 -4.28295 0
M  V30 5269 C 506.341 0.712159 -4.343 0
M  V30 5270 H 503.46 -0.0239246 -0.736612 0
M  V30 5271 H 506.102 -0.744211 -1.74818 0
M  V30 5272 H 504.252 0.590292 -3.83989 0
M  V30 5273 H 505.924 -2.00013 -4.15683 0
M  V30 5274 H 504.167 -1.94319 -3.87843 0
M  V30 5275 H 504.838 -1.27707 -5.37024 0
M  V30 5276 H 507.314 0.218486 -4.15526 0
M  V30 5277 H 506.19 0.730782 -5.44014 0
M  V30 5278 H 506.451 1.77251 -4.05012 0
M  V30 5279 N 505.51 1.54411 -0.315457 0
M  V30 5280 C 506.787 1.92562 0.343398 0
M  V30 5281 C 507.167 1.24423 1.70535 0
M  V30 5282 O 506.515 0.385051 2.25232 0
M  V30 5283 C 506.725 3.46168 0.443687 0
M  V30 5284 C 508.073 4.18659 0.707783 0
M  V30 5285 O 509.097 3.52281 0.52693 0
M  V30 5286 O 507.956 5.36198 1.05612 0
M  V30 5287 H 505.05 0.80379 0.194552 0
M  V30 5288 H 507.596 1.65738 -0.364577 0
M  V30 5289 H 506.368 3.8792 -0.513172 0
M  V30 5290 H 505.991 3.79073 1.19956 0
M  V30 5291 N 506.988 0.0434614 1.5754 0
M  V30 5292 C 507.951 -0.918696 2.09982 0
M  V30 5293 C 508.951 -1.24488 1.01781 0
M  V30 5294 O 510.141 -1.18284 1.27885 0
M  V30 5295 C 507.273 -2.23093 2.57764 0
M  V30 5296 H 508.466 -0.464229 2.96285 0
M  V30 5297 H 506.019 -0.204818 1.54952 0
M  V30 5298 H 506.754 -2.73137 1.74832 0
M  V30 5299 H 506.539 -2.00724 3.36827 0
M  V30 5300 H 508.029 -2.92028 2.98512 0
M  V30 5301 N 508.466 -1.55915 -0.229846 0
M  V30 5302 C 509.712 -1.78807 -0.956868 0
M  V30 5303 C 510.045 -0.611687 -1.84315 0
M  V30 5304 O 509.32 0.389398 -1.90562 0
M  V30 5305 C 509.603 -3.11718 -1.80288 0
M  V30 5306 C 509.456 -4.3979 -0.943649 0
M  V30 5307 C 510.775 -3.40999 -2.78222 0
M  V30 5308 H 507.894 -0.6505 -0.346437 0
M  V30 5309 H 510.536 -1.88648 -0.226252 0
M  V30 5310 H 508.686 -3.03459 -2.42579 0
M  V30 5311 H 510.358 -4.60059 -0.338121 0
M  V30 5312 H 508.601 -4.33086 -0.248705 0
M  V30 5313 H 509.272 -5.29208 -1.5698 0
M  V30 5314 H 511.748 -3.49332 -2.26067 0
M  V30 5315 H 510.624 -4.35183 -3.34526 0
M  V30 5316 H 510.885 -2.62754 -3.55546 0
M  V30 5317 N 509.944 0.496216 -1.49584 0
M  V30 5318 C 510.874 1.60576 -1.69521 0
M  V30 5319 C 511.855 1.61169 -0.543933 0
M  V30 5320 O 513.04 1.77834 -0.78031 0
M  V30 5321 C 510.17 2.99038 -1.76616 0
M  V30 5322 C 509.124 3.13312 -2.91581 0
M  V30 5323 C 508.45 4.53172 -2.83794 0
M  V30 5324 C 509.75 2.92886 -4.32452 0
M  V30 5325 H 511.444 1.44146 -2.62416 0
M  V30 5326 H 508.99 0.692024 -1.26282 0
M  V30 5327 H 510.943 3.76564 -1.8915 0
M  V30 5328 H 509.667 3.16568 -0.80324 0
M  V30 5329 H 508.326 2.38213 -2.78658 0
M  V30 5330 H 507.974 4.67585 -1.854 0
M  V30 5331 H 507.674 4.63662 -3.60958 0
M  V30 5332 H 509.198 5.32752 -2.98342 0
M  V30 5333 H 510.612 3.60178 -4.46032 0
M  V30 5334 H 509.009 3.14844 -5.10875 0
M  V30 5335 H 510.079 1.88966 -4.46565 0
M  V30 5336 N 511.423 1.38739 0.74761 0
M  V30 5337 C 512.653 1.3832 1.53464 0
M  V30 5338 C 513.061 -0.0273464 1.8918 0
M  V30 5339 O 512.404 -1.00588 1.53713 0
M  V30 5340 C 512.466 2.18007 2.85855 0
M  V30 5341 C 512.13 3.66762 2.72644 0
M  V30 5342 C 513.127 4.60124 2.42037 0
M  V30 5343 C 510.812 4.10193 2.89909 0
M  V30 5344 C 512.806 5.94897 2.28859 0
M  V30 5345 C 510.493 5.45045 2.7635 0
M  V30 5346 C 511.491 6.37211 2.45869 0
M  V30 5347 O 511.179 7.69581 2.3238 0
M  V30 5348 H 510.911 0.474718 0.481268 0
M  V30 5349 H 513.465 1.83012 0.932518 0
M  V30 5350 H 511.695 1.68043 3.48279 0
M  V30 5351 H 513.384 2.09921 3.47402 0
M  V30 5352 H 514.15 4.27874 2.28361 0
M  V30 5353 H 510.029 3.38797 3.1263 0
M  V30 5354 H 513.573 6.66802 2.04989 0
M  V30 5355 H 509.47 5.76889 2.89601 0
M  V30 5356 H 510.238 7.80169 2.47546 0
M  V30 5357 N 512.901 -0.976442 1.23707 0
M  V30 5358 C 514.141 -1.73331 1.08332 0
M  V30 5359 C 514.505 -1.88346 -0.372781 0
M  V30 5360 O 515.706 -2.60877 -0.647813 0
M  V30 5361 C 513.977 -3.09159 1.7932 0
M  V30 5362 S 515.536 -4.00376 1.79567 0
M  V30 5363 H 512.354 -0.596045 0.387622 0
M  V30 5364 H 514.956 -1.16625 1.56904 0
M  V30 5365 H 513.66 -2.95884 2.84395 0
M  V30 5366 H 513.191 -3.70932 1.31046 0
M  V30 5367 H 515.206 -4.88742 0.857094 0
M  V30 5368 N 514.379 -1.04941 -1.1758 0
M  V30 5369 C 515.327 -0.64204 -2.23563 0
M  V30 5370 C 516.321 0.335453 -1.66045 0
M  V30 5371 O 517.527 0.20179 -1.78865 0
M  V30 5372 H 513.902 -0.18944 -0.727748 0
M  V30 5373 H 515.873 -1.54609 -2.55223 0
M  V30 5374 C 514.622 -0.0301051 -3.47687 0
M  V30 5375 H 513.945 -0.773339 -3.92249 0
M  V30 5376 H 515.385 0.217592 -4.23441 0
M  V30 5377 C 513.844 1.2225 -3.13937 0
M  V30 5378 O 514.374 2.3122 -3.28482 0
M  V30 5379 N 512.58 1.11917 -2.68185 0
M  V30 5380 H 512.127 0.232403 -2.5655 0
M  V30 5381 H 512.085 1.95814 -2.45976 0
M  V30 5382 N 515.857 1.33968 -0.830081 0
M  V30 5383 C 516.804 2.29387 -0.255008 0
M  V30 5384 C 517.774 1.53923 0.624243 0
M  V30 5385 O 518.959 1.82262 0.564372 0
M  V30 5386 C 516.099 3.4034 0.571209 0
M  V30 5387 C 515.212 4.30729 -0.331083 0
M  V30 5388 C 514.347 5.2879 0.505389 0
M  V30 5389 C 513.386 6.10819 -0.395843 0
M  V30 5390 N 512.523 7.00948 0.401979 0
M  V30 5391 H 517.363 2.77972 -1.07404 0
M  V30 5392 H 514.9 1.36785 -0.541133 0
M  V30 5393 H 516.858 4.03361 1.06562 0
M  V30 5394 H 515.488 2.9297 1.35529 0
M  V30 5395 H 514.54 3.68507 -0.943759 0
M  V30 5396 H 515.852 4.88181 -1.02377 0
M  V30 5397 H 515.006 5.97297 1.06399 0
M  V30 5398 H 513.745 4.71894 1.23155 0
M  V30 5399 H 512.75 5.41238 -0.966529 0
M  V30 5400 H 513.975 6.69797 -1.12023 0
M  V30 5401 H 511.921 6.46512 1.11168 0
M  V30 5402 H 511.838 7.55643 -0.232167 0
M  V30 5403 H 513.106 7.73774 0.943102 0
M  V30 5404 N 517.335 0.585699 1.46312 0
M  V30 5405 C 518.285 -0.166813 2.27389 0
M  V30 5406 C 519.269 -0.859076 1.36047 0
M  V30 5407 O 520.461 -0.752678 1.60199 0
M  V30 5408 C 517.59 -1.17791 3.2246 0
M  V30 5409 C 516.676 -0.487605 4.21288 0
M  V30 5410 N 517.067 0.45849 5.03718 0
M  V30 5411 C 515.365 -0.737971 4.39852 0
M  V30 5412 C 516.066 0.862213 5.75275 0
M  V30 5413 N 515.042 0.210707 5.43191 0
M  V30 5414 H 518.844 0.560167 2.88512 0
M  V30 5415 H 516.358 0.407715 1.57199 0
M  V30 5416 H 518.355 -1.73122 3.79255 0
M  V30 5417 H 517.015 -1.90568 2.62896 0
M  V30 5418 H 518.026 0.834163 5.11138 0
M  V30 5419 H 514.703 -1.45209 3.91434 0
M  V30 5420 H 516.093 1.64128 6.51546 0
M  V30 5421 N 518.813 -1.54241 0.323641 0
M  V30 5422 C 520.061 -2.00174 -0.278359 0
M  V30 5423 C 520.382 -1.2134 -1.52648 0
M  V30 5424 O 519.652 -0.315244 -1.93347 0
M  V30 5425 H 518.232 -0.739463 -0.105845 0
M  V30 5426 H 520.894 -1.89864 0.440204 0
M  V30 5427 H 519.99 -3.07486 -0.5347 0
M  V30 5428 N 520.291 -0.0518155 -1.57515 0
M  V30 5429 C 521.224 0.957758 -2.07129 0
M  V30 5430 C 522.202 1.30355 -0.971927 0
M  V30 5431 O 523.386 1.41631 -1.2439 0
M  V30 5432 C 520.513 2.27157 -2.51232 0
M  V30 5433 C 519.559 2.07879 -3.72409 0
M  V30 5434 S 520.392 1.35656 -5.18033 0
M  V30 5435 C 521.548 2.68359 -5.65451 0
M  V30 5436 H 521.781 0.53552 -2.92437 0
M  V30 5437 H 519.314 0.160465 -1.53564 0
M  V30 5438 H 521.272 3.02676 -2.77304 0
M  V30 5439 H 519.933 2.66509 -1.66228 0
M  V30 5440 H 519.126 3.05061 -4.01191 0
M  V30 5441 H 518.728 1.40499 -3.46606 0
M  V30 5442 H 521.02 3.64526 -5.71076 0
M  V30 5443 H 521.963 2.44213 -6.64654 0
M  V30 5444 H 522.371 2.74647 -4.93183 0
M  V30 5445 N 521.769 1.56035 0.221574 0
M  V30 5446 C 522.679 1.95581 1.29558 0
M  V30 5447 C 523.695 0.859639 1.51282 0
M  V30 5448 O 524.871 1.16321 1.64413 0
M  V30 5449 C 521.936 2.26447 2.62531 0
M  V30 5450 C 520.997 3.49632 2.4911 0
M  V30 5451 C 520.23 3.79017 3.75742 0
M  V30 5452 O 520.453 3.10077 4.78757 0
M  V30 5453 O 519.387 4.72507 3.72855 0
M  V30 5454 H 523.213 2.8711 0.990035 0
M  V30 5455 H 520.798 1.43244 0.424434 0
M  V30 5456 H 522.68 2.47494 3.41064 0
M  V30 5457 H 521.355 1.38092 2.92766 0
M  V30 5458 H 520.262 3.33864 1.68777 0
M  V30 5459 H 521.595 4.3837 2.23814 0
M  V30 5460 N 523.247 -0.488276 1.49845 0
M  V30 5461 C 524.21 -1.57069 1.66919 0
M  V30 5462 C 525.21 -1.51445 0.540479 0
M  V30 5463 O 526.4 -1.5437 0.807188 0
M  V30 5464 C 523.532 -2.96718 1.67844 0
M  V30 5465 H 524.725 -1.43254 2.63474 0
M  V30 5466 H 522.278 -0.713435 1.39068 0
M  V30 5467 H 523.013 -3.15996 0.7292 0
M  V30 5468 H 522.798 -3.02208 2.49826 0
M  V30 5469 H 524.288 -3.75335 1.83066 0
M  V30 5470 N 524.725 -1.39134 -0.740242 0
M  V30 5471 C 525.955 -1.39132 -1.52728 0
M  V30 5472 C 526.363 0.0173133 -1.89192 0
M  V30 5473 O 525.706 0.997715 -1.54244 0
M  V30 5474 C 525.768 -2.1952 -2.84695 0
M  V30 5475 C 525.432 -3.68203 -2.70695 0
M  V30 5476 C 526.429 -4.61401 -2.39593 0
M  V30 5477 C 524.114 -4.11724 -2.8773 0
M  V30 5478 C 526.108 -5.96102 -2.25701 0
M  V30 5479 C 523.795 -5.46503 -2.73456 0
M  V30 5480 C 524.793 -6.38506 -2.42486 0
M  V30 5481 O 524.481 -7.70803 -2.28295 0
M  V30 5482 H 524.213 -0.477263 -0.478744 0
M  V30 5483 H 526.767 -1.83504 -0.922799 0
M  V30 5484 H 524.997 -1.69888 -3.47383 0
M  V30 5485 H 526.686 -2.1176 -3.46284 0
M  V30 5486 H 527.452 -4.29079 -2.26088 0
M  V30 5487 H 523.331 -3.4045 -3.10829 0
M  V30 5488 H 526.875 -6.6788 -2.0145 0
M  V30 5489 H 522.772 -5.78417 -2.86538 0
M  V30 5490 H 523.54 -7.8147 -2.43405 0
M  V30 5491 N 526.204 0.969867 -1.24223 0
M  V30 5492 C 527.136 2.0669 -0.99055 0
M  V30 5493 C 528.149 1.62753 0.0392222 0
M  V30 5494 O 529.338 1.77403 -0.197561 0
M  V30 5495 C 526.438 3.35589 -0.472594 0
M  V30 5496 C 525.611 4.08444 -1.56499 0
M  V30 5497 C 524.67 5.15616 -1.05007 0
M  V30 5498 O 523.696 5.41911 -1.7413 0
M  V30 5499 N 524.898 5.80383 0.116641 0
M  V30 5500 H 527.663 2.28855 -1.93508 0
M  V30 5501 H 525.224 1.13733 -1.15223 0
M  V30 5502 H 527.216 4.04542 -0.112919 0
M  V30 5503 H 525.786 3.10311 0.377617 0
M  V30 5504 H 525.006 3.33798 -2.09696 0
M  V30 5505 H 526.294 4.53882 -2.29932 0
M  V30 5506 H 525.692 5.6142 0.694589 0
M  V30 5507 H 524.249 6.50462 0.417483 0
M  V30 5508 N 527.682 1.05563 1.17022 0
M  V30 5509 C 528.93 0.76642 1.87004 0
M  V30 5510 C 529.251 -0.708854 1.8166 0
M  V30 5511 O 528.521 -1.51242 1.2451 0
M  V30 5512 H 527.101 0.280516 0.692329 0
M  V30 5513 H 529.763 1.33557 1.41945 0
M  V30 5514 H 528.859 1.08472 2.92644 0
M  V30 5515 N 529.16 -1.33526 0.837174 0
M  V30 5516 C 530.408 -1.97446 0.431211 0
M  V30 5517 C 530.729 -1.6665 -1.01255 0
M  V30 5518 O 529.999 -0.964559 -1.70508 0
M  V30 5519 H 528.579 -0.73043 0.156463 0
M  V30 5520 H 531.241 -1.62918 1.06976 0
M  V30 5521 H 530.337 -3.07001 0.561877 0
M  V30 5522 N 530.638 -0.59345 -1.46 0
M  V30 5523 C 531.866 -0.0890934 -2.06708 0
M  V30 5524 C 532.281 1.2205 -1.44046 0
M  V30 5525 O 531.638 1.74029 -0.549551 0
M  V30 5526 C 531.689 0.0720263 -3.61428 0
M  V30 5527 O 531.41 -1.18574 -4.21748 0
M  V30 5528 C 532.911 0.609487 -4.3909 0
M  V30 5529 H 530.131 -0.0623628 -0.668096 0
M  V30 5530 H 532.675 -0.817171 -1.87464 0
M  V30 5531 H 530.83 0.750369 -3.80063 0
M  V30 5532 H 531.244 -1.0064 -5.14754 0
M  V30 5533 H 532.718 0.671363 -5.47902 0
M  V30 5534 H 533.195 1.62878 -4.07882 0
M  V30 5535 H 533.801 -0.03434 -4.25286 0
M  V30 5536 N 532.116 1.54067 -0.331816 0
M  V30 5537 C 533.356 2.02625 0.26876 0
M  V30 5538 C 533.72 1.21462 1.48697 0
M  V30 5539 O 534.921 1.59863 2.16096 0
M  V30 5540 C 533.192 3.52554 0.586577 0
M  V30 5541 S 534.751 4.23035 1.16563 0
M  V30 5542 H 531.569 0.706395 0.0807862 0
M  V30 5543 H 534.171 1.89844 -0.466856 0
M  V30 5544 H 532.875 4.09242 -0.308046 0
M  V30 5545 H 532.406 3.69432 1.35217 0
M  V30 5546 H 534.421 4.31382 2.45203 0
M  V30 5547 N 533.594 0.0601682 1.57485 0
M  V30 5548 C 534.542 -0.928899 2.13247 0
M  V30 5549 C 535.536 -1.31616 1.06647 0
M  V30 5550 O 536.742 -1.29476 1.25043 0
M  V30 5551 H 533.117 -0.317455 0.681708 0
M  V30 5552 H 535.088 -0.433566 2.95233 0
M  V30 5553 C 533.837 -2.19121 2.69965 0
M  V30 5554 H 533.16 -1.90204 3.51657 0
M  V30 5555 H 534.6 -2.86465 3.12592 0
M  V30 5556 C 533.059 -2.94195 1.64168 0
M  V30 5557 O 533.589 -3.87468 1.05978 0
M  V30 5558 N 531.795 -2.57089 1.35476 0
M  V30 5559 H 531.342 -1.81314 1.82984 0
M  V30 5560 H 531.3 -3.07624 0.649196 0
M  V30 5561 N 535.072 -1.5615 -0.213296 0
M  V30 5562 C 535.982 -1.96265 -1.28519 0
M  V30 5563 C 536.998 -0.86765 -1.50824 0
M  V30 5564 O 538.174 -1.17191 -1.63793 0
M  V30 5565 C 535.239 -2.27836 -2.61327 0
M  V30 5566 C 534.3 -3.50949 -2.47252 0
M  V30 5567 C 533.533 -3.81004 -3.73727 0
M  V30 5568 O 533.756 -3.12612 -4.77106 0
M  V30 5569 O 532.69 -4.74477 -3.70344 0
M  V30 5570 H 536.516 -2.87631 -0.974795 0
M  V30 5571 H 534.101 -1.43467 -0.416832 0
M  V30 5572 H 535.983 -2.49299 -3.39747 0
M  V30 5573 H 534.658 -1.39643 -2.9203 0
M  V30 5574 H 533.565 -3.34754 -1.67004 0
M  V30 5575 H 534.898 -4.39551 -2.21486 0
M  V30 5576 N 536.55 0.480323 -1.50102 0
M  V30 5577 C 537.778 1.25657 -1.64371 0
M  V30 5578 C 538.193 1.86011 -0.323316 0
M  V30 5579 O 537.55 1.68803 0.693682 0
M  V30 5580 C 537.601 2.37197 -2.728 0
M  V30 5581 O 537.322 1.7932 -3.9972 0
M  V30 5582 C 538.823 3.2823 -2.9796 0
M  V30 5583 H 536.043 0.380369 -0.552775 0
M  V30 5584 H 538.587 0.574379 -1.96268 0
M  V30 5585 H 536.742 3.01208 -2.43623 0
M  V30 5586 H 537.156 2.52701 -4.59611 0
M  V30 5587 H 538.63 4.02725 -3.77513 0
M  V30 5588 H 539.107 3.86462 -2.08671 0
M  V30 5589 H 539.713 2.69964 -3.28633 0
M  V30 5590 N 538.028 1.39524 0.732853 0
M  V30 5591 C 538.938 1.40695 1.87729 0
M  V30 5592 C 539.954 0.301496 1.71368 0
M  V30 5593 O 541.13 0.543313 1.93933 0
M  V30 5594 C 538.195 1.25098 3.23344 0
M  V30 5595 C 537.256 2.45634 3.52083 0
M  V30 5596 C 536.489 2.30772 4.81228 0
M  V30 5597 O 536.712 1.31233 5.55098 0
M  V30 5598 O 535.646 3.19799 5.09914 0
M  V30 5599 H 539.472 2.37168 1.89697 0
M  V30 5600 H 537.057 1.20663 0.880959 0
M  V30 5601 H 538.939 1.18541 4.04383 0
M  V30 5602 H 537.614 0.317209 3.22142 0
M  V30 5603 H 536.521 2.57767 2.71122 0
M  V30 5604 H 537.854 3.37712 3.58066 0
M  V30 5605 N 539.506 -0.963266 1.24736 0
M  V30 5606 C 540.755 -1.70115 1.08369 0
M  V30 5607 C 541.068 -1.91939 -0.376688 0
M  V30 5608 O 542.274 -2.6334 -0.660624 0
M  V30 5609 C 540.73 -3.06218 1.89099 0
M  V30 5610 C 540.338 -2.92221 3.39574 0
M  V30 5611 C 542.082 -3.83848 1.81275 0
M  V30 5612 C 539.989 -4.23662 4.12631 0
M  V30 5613 H 538.919 -0.637944 0.401924 0
M  V30 5614 H 541.57 -1.07304 1.48856 0
M  V30 5615 H 539.952 -3.69884 1.41429 0
M  V30 5616 H 541.126 -2.37541 3.94856 0
M  V30 5617 H 539.441 -2.28054 3.48397 0
M  V30 5618 H 542.038 -4.81188 2.33158 0
M  V30 5619 H 542.381 -4.08949 0.778895 0
M  V30 5620 H 542.914 -3.26918 2.26649 0
M  V30 5621 H 539.653 -4.03753 5.16395 0
M  V30 5622 H 539.173 -4.78141 3.62135 0
M  V30 5623 H 540.852 -4.92256 4.19873 0
M  V30 5624 N 540.985 -1.06182 -1.16461 0
M  V30 5625 C 542.21 -0.798599 -1.91408 0
M  V30 5626 C 542.635 0.640987 -1.76842 0
M  V30 5627 O 541.993 1.44652 -1.09296 0
M  V30 5628 C 542.041 -1.19665 -3.40165 0
M  V30 5629 O 541.145 -0.334768 -4.11039 0
M  V30 5630 H 540.486 -0.291961 -0.596368 0
M  V30 5631 H 543.016 -1.41732 -1.47557 0
M  V30 5632 H 543.026 -1.16772 -3.90933 0
M  V30 5633 H 541.701 -2.24526 -3.50087 0
M  V30 5634 H 540.278 -0.425168 -3.70468 0
M  V30 5635 N 542.463 1.3308 -0.844243 0
M  V30 5636 C 543.426 2.27403 -0.286485 0
M  V30 5637 C 544.426 1.51179 0.547872 0
M  V30 5638 O 545.616 1.70421 0.360886 0
M  V30 5639 C 542.748 3.35653 0.595813 0
M  V30 5640 H 543.941 2.78248 -1.11885 0
M  V30 5641 H 541.494 1.43574 -0.617749 0
M  V30 5642 H 542.229 2.90058 1.4504 0
M  V30 5643 H 542.014 3.921 -0.00125994 0
M  V30 5644 H 543.504 4.05958 0.979168 0
M  V30 5645 N 543.941 0.601185 1.45683 0
M  V30 5646 C 545.357 0.264315 1.57396 0
M  V30 5647 C 545.557 -1.23324 1.59353 0
M  V30 5648 O 544.613 -2.01594 1.52039 0
M  V30 5649 C 545.926 0.929839 2.85962 0
M  V30 5650 C 547.474 0.905156 2.99626 0
M  V30 5651 C 547.949 1.55057 4.30954 0
M  V30 5652 N 549.44 1.51576 4.37697 0
M  V30 5653 C 550.175 1.98436 5.37969 0
M  V30 5654 N 549.671 2.53352 6.44813 0
M  V30 5655 N 551.464 1.89242 5.29286 0
M  V30 5656 H 543.615 1.57363 1.42656 0
M  V30 5657 H 545.878 0.658831 0.681649 0
M  V30 5658 H 545.584 1.98404 2.90394 0
M  V30 5659 H 545.458 0.449224 3.74515 0
M  V30 5660 H 547.845 -0.14048 2.94765 0
M  V30 5661 H 547.926 1.42397 2.12501 0
M  V30 5662 H 547.57 2.5955 4.36573 0
M  V30 5663 H 547.5 1.00682 5.16886 0
M  V30 5664 H 549.991 1.11452 3.61091 0
M  V30 5665 H 550.304 2.86918 7.17564 0
M  V30 5666 H 548.649 2.57388 6.45582 0
M  V30 5667 H 551.84 1.46083 4.44722 0
M  V30 5668 H 552.013 2.26075 6.07284 0
M  V30 5669 N 545.419 -1.53889 0.339982 0
M  V30 5670 C 546.647 -2.05271 -0.259114 0
M  V30 5671 C 547.062 -1.21517 -1.44496 0
M  V30 5672 O 546.419 -0.24966 -1.80784 0
M  V30 5673 C 546.47 -3.55092 -0.677634 0
M  V30 5674 O 546.191 -4.35667 0.461051 0
M  V30 5675 C 547.692 -4.22631 -1.33782 0
M  V30 5676 H 544.912 -0.669085 -0.0506566 0
M  V30 5677 H 547.456 -1.9852 0.490935 0
M  V30 5678 H 545.611 -3.62077 -1.37763 0
M  V30 5679 H 546.025 -5.24343 0.128144 0
M  V30 5680 H 547.499 -5.28861 -1.58145 0
M  V30 5681 H 547.976 -3.74758 -2.29027 0
M  V30 5682 H 548.582 -4.19829 -0.679957 0
M  V30 5683 N 546.897 -0.0685191 -1.57451 0
M  V30 5684 C 548.137 0.605038 -1.9524 0
M  V30 5685 C 548.501 1.66974 -0.947816 0
M  V30 5686 O 549.702 2.39862 -1.21325 0
M  V30 5687 C 547.973 1.16999 -3.37707 0
M  V30 5688 S 549.532 1.85913 -3.97469 0
M  V30 5689 H 546.35 0.198203 -0.682815 0
M  V30 5690 H 548.952 -0.141594 -1.94987 0
M  V30 5691 H 547.656 0.383205 -4.08607 0
M  V30 5692 H 547.187 1.95305 -3.41496 0
M  V30 5693 H 549.202 3.14128 -3.84107 0
M  V30 5694 N 548.375 1.56261 0.205012 0
M  V30 5695 C 549.621 1.80306 0.9283 0
M  V30 5696 C 549.954 0.640932 1.83319 0
M  V30 5697 O 549.229 -0.359032 1.91158 0
M  V30 5698 C 549.512 3.14547 1.75306 0
M  V30 5699 C 549.365 4.41236 0.873562 0
M  V30 5700 C 550.684 3.45382 2.72762 0
M  V30 5701 H 547.803 0.655929 0.336044 0
M  V30 5702 H 550.445 1.88984 0.196211 0
M  V30 5703 H 548.595 3.0728 2.37721 0
M  V30 5704 H 550.267 4.60539 0.264887 0
M  V30 5705 H 548.51 4.33427 0.179773 0
M  V30 5706 H 549.181 5.31639 1.48541 0
M  V30 5707 H 551.657 3.52884 2.20481 0
M  V30 5708 H 550.533 4.40449 3.2756 0
M  V30 5709 H 550.794 2.68377 3.51321 0
M  V30 5710 N 549.853 -0.472356 1.50355 0
M  V30 5711 C 550.803 -1.56809 1.65514 0
M  V30 5712 C 551.787 -1.5261 0.509801 0
M  V30 5713 O 552.979 -1.59655 0.764145 0
M  V30 5714 C 550.108 -2.9526 1.75146 0
M  V30 5715 C 549.194 -3.04348 2.95353 0
M  V30 5716 N 549.585 -2.83253 4.19048 0
M  V30 5717 C 547.883 -3.35482 2.93884 0
M  V30 5718 C 548.584 -2.97273 5.00003 0
M  V30 5719 N 547.56 -3.27418 4.33934 0
M  V30 5720 H 551.362 -1.39197 2.58846 0
M  V30 5721 H 548.876 -0.67906 1.47521 0
M  V30 5722 H 550.873 -3.74044 1.8411 0
M  V30 5723 H 549.533 -3.1392 0.829717 0
M  V30 5724 H 550.544 -2.5886 4.48567 0
M  V30 5725 H 547.221 -3.60138 2.11204 0
M  V30 5726 H 548.611 -2.85214 6.08361 0
M  V30 5727 N 551.331 -1.39911 -0.725443 0
M  V30 5728 C 552.577 -1.37858 -1.48738 0
M  V30 5729 C 552.91 0.0224187 -1.94187 0
M  V30 5730 O 552.185 0.989204 -1.67466 0
M  V30 5731 C 552.468 -2.3594 -2.72038 0
M  V30 5732 C 552.321 -3.85023 -2.32546 0
M  V30 5733 C 553.64 -2.31704 -3.74167 0
M  V30 5734 H 550.759 -0.502074 -0.539528 0
M  V30 5735 H 553.401 -1.70974 -0.828728 0
M  V30 5736 H 551.551 -2.0783 -3.28236 0
M  V30 5737 H 553.223 -4.2392 -1.81905 0
M  V30 5738 H 551.466 -4.01334 -1.64661 0
M  V30 5739 H 552.137 -4.49152 -3.20884 0
M  V30 5740 H 554.613 -2.5658 -3.27576 0
M  V30 5741 H 553.489 -3.02395 -4.58092 0
M  V30 5742 H 553.75 -1.3253 -4.21768 0
M  V30 5743 N 552.809 0.956637 -1.25245 0
M  V30 5744 C 553.772 2.03457 -1.05537 0
M  V30 5745 C 554.772 1.60798 -0.00886317 0
M  V30 5746 O 555.962 1.72384 -0.250865 0
M  V30 5747 C 553.094 3.35543 -0.601965 0
M  V30 5748 H 554.287 2.22372 -2.01223 0
M  V30 5749 H 551.84 1.13344 -1.07623 0
M  V30 5750 H 552.575 3.22323 0.357584 0
M  V30 5751 H 552.36 3.67854 -1.35743 0
M  V30 5752 H 553.85 4.14769 -0.485454 0
M  V30 5753 N 554.287 1.06798 1.15896 0
M  V30 5754 C 555.217 0.704677 2.22613 0
M  V30 5755 C 556.198 -0.305252 1.67339 0
M  V30 5756 O 557.383 -0.179247 1.93371 0
M  V30 5757 C 554.513 0.0957325 3.47168 0
M  V30 5758 C 553.467 1.0322 4.15367 0
M  V30 5759 C 552.793 0.286293 5.33933 0
M  V30 5760 C 554.093 2.36341 4.65768 0
M  V30 5761 H 555.787 1.59688 2.53259 0
M  V30 5762 H 553.333 0.769257 1.21731 0
M  V30 5763 H 555.286 -0.170333 4.21056 0
M  V30 5764 H 554.01 -0.831516 3.15838 0
M  V30 5765 H 552.669 1.28309 3.43413 0
M  V30 5766 H 552.317 -0.644237 4.98857 0
M  V30 5767 H 552.017 0.910436 5.80504 0
M  V30 5768 H 553.541 0.0278938 6.10594 0
M  V30 5769 H 554.955 2.1561 5.31211 0
M  V30 5770 H 553.352 2.94299 5.2298 0
M  V30 5771 H 554.422 2.99047 3.81705 0
M  V30 5772 N 555.766 -1.3263 0.851289 0
M  V30 5773 C 556.729 -2.27247 0.298541 0
M  V30 5774 C 557.729 -1.51467 -0.539847 0
M  V30 5775 O 558.919 -1.7061 -0.351843 0
M  V30 5776 C 556.051 -3.35964 -0.578004 0
M  V30 5777 H 557.244 -2.7765 1.13359 0
M  V30 5778 H 554.797 -1.43245 0.625354 0
M  V30 5779 H 555.532 -2.90823 -1.435 0
M  V30 5780 H 555.317 -3.92094 0.0220539 0
M  V30 5781 H 556.807 -4.06472 -0.957626 0
M  V30 5782 N 557.244 -0.608902 -1.45362 0
M  V30 5783 C 558.207 0.0992563 -2.28985 0
M  V30 5784 C 559.207 0.793841 -1.39838 0
M  V30 5785 O 560.397 0.641804 -1.61946 0
M  V30 5786 C 557.529 1.15073 -3.20891 0
M  V30 5787 H 558.722 -0.635964 -2.93079 0
M  V30 5788 H 556.275 -0.368007 -1.51906 0
M  V30 5789 H 557.01 1.91667 -2.616 0
M  V30 5790 H 556.795 0.656867 -3.86559 0
M  V30 5791 H 558.285 1.64665 -3.83765 0
M  V30 5792 N 558.722 1.53707 -0.348139 0
M  V30 5793 C 560.138 1.596 0.00361134 0
M  V30 5794 C 560.338 1.36394 1.4832 0
M  V30 5795 O 559.394 1.16046 2.24253 0
M  V30 5796 C 560.707 2.97512 -0.436682 0
M  V30 5797 C 562.255 3.10568 -0.389416 0
M  V30 5798 C 562.73 4.50866 -0.805249 0
M  V30 5799 N 564.221 4.56929 -0.759616 0
M  V30 5800 C 564.956 5.63643 -1.05327 0
M  V30 5801 N 564.452 6.78189 -1.41531 0
M  V30 5802 N 566.245 5.5354 -0.977207 0
M  V30 5803 H 558.396 1.67044 -1.31187 0
M  V30 5804 H 560.659 0.782559 -0.535075 0
M  V30 5805 H 560.365 3.19575 -1.46849 0
M  V30 5806 H 560.239 3.76742 0.185744 0
M  V30 5807 H 562.626 2.88226 0.633228 0
M  V30 5808 H 562.707 2.33387 -1.04711 0
M  V30 5809 H 562.351 4.73943 -1.82593 0
M  V30 5810 H 562.281 5.26452 -0.124989 0
M  V30 5811 H 564.772 3.74675 -0.49265 0
M  V30 5812 H 565.085 7.55541 -1.62411 0
M  V30 5813 H 563.43 6.79624 -1.45381 0
M  V30 5814 H 566.621 4.62932 -0.693675 0
M  V30 5815 H 566.794 6.36614 -1.2094 0
M  V30 5816 N 560.2 0.0768682 1.57412 0
M  V30 5817 C 561.611 -0.455037 1.8107 0
M  V30 5818 C 561.962 -1.69323 0.991162 0
M  V30 5819 O 561.087 -2.15328 0.215156 0
M  V30 5820 C 561.682 -0.832316 3.28417 0
M  V30 5821 C 560.241 -1.30906 3.52903 0
M  V30 5822 C 559.388 -0.296714 2.75708 0
M  V30 5823 H 562.339 0.302514 1.5579 0
M  V30 5824 H 562.36 -1.69333 3.40744 0
M  V30 5825 H 561.872 0.0690532 3.88039 0
M  V30 5826 H 559.973 -2.22875 2.98592 0
M  V30 5827 H 560.086 -1.28348 4.61588 0
M  V30 5828 H 558.45 -0.775059 2.42621 0
M  V30 5829 H 559.233 0.597015 3.38069 0
M  V30 5830 N 561.678 -1.56367 -0.196722 0
M  V30 5831 C 562.611 -1.89475 -1.2718 0
M  V30 5832 C 563.589 -0.754667 -1.44026 0
M  V30 5833 O 564.773 -1.00551 -1.59442 0
M  V30 5834 C 561.9 -2.12352 -2.63864 0
M  V30 5835 C 560.946 -3.35053 -2.63897 0
M  V30 5836 S 561.779 -4.90228 -2.15492 0
M  V30 5837 C 562.935 -5.16171 -3.54004 0
M  V30 5838 H 563.168 -2.80365 -0.989075 0
M  V30 5839 H 560.701 -1.49125 -0.40014 0
M  V30 5840 H 562.659 -2.26214 -3.42545 0
M  V30 5841 H 561.32 -1.22214 -2.89349 0
M  V30 5842 H 560.513 -3.48182 -3.64397 0
M  V30 5843 H 560.115 -3.20176 -1.93296 0
M  V30 5844 H 562.407 -5.06591 -4.49857 0
M  V30 5845 H 563.35 -6.17938 -3.45771 0
M  V30 5846 H 563.758 -4.43814 -3.48841 0
M  V30 5847 N 563.156 0.464375 -1.50603 0
M  V30 5848 C 564.572 0.798684 -1.38178 0
M  V30 5849 C 564.772 1.96568 -0.44308 0
M  V30 5850 O 563.828 2.52252 0.111814 0
M  V30 5851 C 565.141 1.10444 -2.79683 0
M  V30 5852 C 566.689 1.2105 -2.88645 0
M  V30 5853 C 567.164 1.54934 -4.30998 0
M  V30 5854 N 568.655 1.61913 -4.3398 0
M  V30 5855 C 569.39 1.8965 -5.41129 0
M  V30 5856 N 568.886 2.15361 -6.58477 0
M  V30 5857 N 570.679 1.91207 -5.28579 0
M  V30 5858 H 562.83 -0.304603 -2.10204 0
M  V30 5859 H 565.093 -0.0737804 -0.945125 0
M  V30 5860 H 564.799 0.319934 -3.50242 0
M  V30 5861 H 564.673 2.03896 -3.17342 0
M  V30 5862 H 567.06 1.98567 -2.18301 0
M  V30 5863 H 567.141 0.255613 -2.5452 0
M  V30 5864 H 566.785 0.779549 -5.01882 0
M  V30 5865 H 566.715 2.51584 -4.62615 0
M  V30 5866 H 569.206 1.44055 -3.49366 0
M  V30 5867 H 569.519 2.35818 -7.35941 0
M  V30 5868 H 567.864 2.1274 -6.6164 0
M  V30 5869 H 571.055 1.70622 -4.35897 0
M  V30 5870 H 571.228 2.12488 -6.12171 0
M  V30 5871 N 564.634 1.40294 0.718013 0
M  V30 5872 C 565.567 1.34767 1.84155 0
M  V30 5873 C 566.545 0.218455 1.61126 0
M  V30 5874 O 567.729 0.401716 1.8417 0
M  V30 5875 C 564.856 1.09676 3.20451 0
M  V30 5876 C 563.902 2.25016 3.62312 0
M  V30 5877 S 564.735 3.87397 3.69707 0
M  V30 5878 C 565.891 3.64565 5.08766 0
M  V30 5879 H 566.124 2.29851 1.88562 0
M  V30 5880 H 563.657 1.2655 0.884555 0
M  V30 5881 H 565.615 0.95885 3.99144 0
M  V30 5882 H 564.276 0.162502 3.13679 0
M  V30 5883 H 563.469 2.03097 4.61268 0
M  V30 5884 H 563.071 2.35098 2.90869 0
M  V30 5885 H 565.363 3.22882 5.95612 0
M  V30 5886 H 566.306 4.63043 5.35721 0
M  V30 5887 H 566.714 2.98303 4.79245 0
M  V30 5888 N 566.112 -0.949982 1.2575 0
M  V30 5889 C 567.042 -2.06483 1.09028 0
M  V30 5890 C 568.023 -1.701 -0.00201532 0
M  V30 5891 O 569.208 -1.93469 0.168383 0
M  V30 5892 C 566.338 -3.39899 0.71316 0
M  V30 5893 C 565.292 -3.90309 1.75621 0
M  V30 5894 C 564.618 -5.20274 1.23365 0
M  V30 5895 C 565.918 -4.16169 3.15596 0
M  V30 5896 H 567.612 -2.20731 2.02283 0
M  V30 5897 H 565.158 -1.06066 0.973964 0
M  V30 5898 H 567.111 -4.17346 0.58309 0
M  V30 5899 H 565.835 -3.25602 -0.255091 0
M  V30 5900 H 564.494 -3.15035 1.8748 0
M  V30 5901 H 564.142 -5.02351 0.255491 0
M  V30 5902 H 563.842 -5.54971 1.93082 0
M  V30 5903 H 565.366 -6.00314 1.11607 0
M  V30 5904 H 566.78 -4.84259 3.06864 0
M  V30 5905 H 565.177 -4.62131 3.82825 0
M  V30 5906 H 566.247 -3.22273 3.6231 0
M  V30 5907 N 567.59 -1.07411 -1.15328 0
M  V30 5908 C 568.839 -0.792643 -1.85473 0
M  V30 5909 C 569.152 0.683789 -1.83259 0
M  V30 5910 O 570.358 1.08005 -2.49093 0
M  V30 5911 C 568.814 -1.36787 -3.32892 0
M  V30 5912 C 568.422 -2.87536 -3.43551 0
M  V30 5913 C 570.166 -1.16444 -4.08217 0
M  V30 5914 C 568.073 -3.38247 -4.85122 0
M  V30 5915 H 567.003 -0.292838 -0.694811 0
M  V30 5916 H 569.654 -1.29426 -1.30082 0
M  V30 5917 H 568.036 -0.793993 -3.87958 0
M  V30 5918 H 569.21 -3.50973 -2.98588 0
M  V30 5919 H 567.525 -3.06676 -2.81672 0
M  V30 5920 H 570.122 -1.51808 -5.12697 0
M  V30 5921 H 570.465 -0.10353 -4.16171 0
M  V30 5922 H 570.998 -1.70472 -3.59422 0
M  V30 5923 H 567.737 -4.43866 -4.82351 0
M  V30 5924 H 567.257 -2.79564 -5.30664 0
M  V30 5925 H 568.936 -3.34238 -5.5398 0
M  V30 5926 N 569.068 1.32177 -0.85831 0
M  V30 5927 C 570.015 2.28794 -0.303607 0
M  V30 5928 C 570.985 1.55213 0.591453 0
M  V30 5929 O 572.17 1.83418 0.525585 0
M  V30 5930 C 569.31 3.41475 0.49889 0
M  V30 5931 C 568.423 4.2993 -0.422373 0
M  V30 5932 C 567.558 5.29743 0.393111 0
M  V30 5933 C 566.597 6.09842 -0.525317 0
M  V30 5934 N 565.734 7.01643 0.253208 0
M  V30 5935 H 570.574 2.75631 -1.13276 0
M  V30 5936 H 568.111 1.35606 -0.570026 0
M  V30 5937 H 570.069 4.05531 0.979826 0
M  V30 5938 H 568.699 2.95779 1.29284 0
M  V30 5939 H 567.751 3.66422 -1.02171 0
M  V30 5940 H 569.063 4.85899 -1.12709 0
M  V30 5941 H 568.217 5.9942 0.937056 0
M  V30 5942 H 566.956 4.744 1.13117 0
M  V30 5943 H 565.961 5.39066 -1.08112 0
M  V30 5944 H 567.186 6.6727 -1.26205 0
M  V30 5945 H 565.132 6.48725 0.974295 0
M  V30 5946 H 565.049 7.54981 -0.392398 0
M  V30 5947 H 566.317 7.756 0.778761 0
M  V30 5948 N 570.547 0.616602 1.45037 0
M  V30 5949 C 571.958 0.199359 1.85633 0
M  V30 5950 C 572.309 -1.24588 1.51566 0
M  V30 5951 O 571.434 -1.94594 0.94668 0
M  V30 5952 C 572.029 0.355033 3.36935 0
M  V30 5953 C 570.588 -0.00758748 3.76399 0
M  V30 5954 C 569.735 0.675256 2.68953 0
M  V30 5955 H 572.686 0.822708 1.3571 0
M  V30 5956 H 572.707 -0.410201 3.78282 0
M  V30 5957 H 572.219 1.40699 3.61698 0
M  V30 5958 H 570.32 -1.05837 3.57252 0
M  V30 5959 H 570.433 0.392346 4.77491 0
M  V30 5960 H 568.797 0.111992 2.54454 0
M  V30 5961 H 569.58 1.72952 2.96551 0
M  V30 5962 N 572.025 -1.5352 0.356285 0
M  V30 5963 C 573.273 -2.00719 -0.235837 0
M  V30 5964 C 573.594 -1.24551 -1.5004 0
M  V30 5965 O 572.864 -0.356185 -1.92635 0
M  V30 5966 H 571.444 -0.741542 -0.0901366 0
M  V30 5967 H 574.106 -1.88887 0.480378 0
M  V30 5968 H 573.202 -3.08551 -0.469357 0
M  V30 5969 N 573.503 -0.0852151 -1.57369 0
M  V30 5970 C 574.436 0.913608 -2.09113 0
M  V30 5971 C 575.414 1.28264 -0.999358 0
M  V30 5972 O 576.598 1.3896 -1.27367 0
M  V30 5973 C 573.725 2.21777 -2.55993 0
M  V30 5974 C 572.771 1.99932 -3.76735 0
M  V30 5975 S 573.604 1.24637 -5.20794 0
M  V30 5976 C 574.76 2.56304 -5.71016 0
M  V30 5977 H 574.993 0.473369 -2.93507 0
M  V30 5978 H 572.526 0.127856 -1.5387 0
M  V30 5979 H 574.484 2.96726 -2.83662 0
M  V30 5980 H 573.145 2.62923 -1.71843 0
M  V30 5981 H 572.338 2.96482 -4.07571 0
M  V30 5982 H 571.94 1.33116 -3.49509 0
M  V30 5983 H 574.232 3.5233 -5.78679 0
M  V30 5984 H 575.175 2.3006 -6.69685 0
M  V30 5985 H 575.583 2.64125 -4.98897 0
M  V30 5986 N 574.981 1.5647 0.188427 0
M  V30 5987 C 576.229 1.80655 0.905986 0
M  V30 5988 C 576.55 0.659391 1.83513 0
M  V30 5989 O 575.82 -0.321868 1.93238 0
M  V30 5990 H 574.4 0.666391 0.337538 0
M  V30 5991 H 577.062 1.93949 0.192339 0
M  V30 5992 H 576.158 2.74066 1.49313 0
M  V30 5993 N 576.459 -0.456382 1.50847 0
M  V30 5994 C 577.706 -1.20736 1.62571 0
M  V30 5995 C 578.034 -1.9163 0.332904 0
M  V30 5996 O 577.289 -1.8343 -0.682058 0
M  V30 5997 C 577.588 -2.26336 2.76599 0
M  V30 5998 C 577.254 -1.7259 4.16562 0
M  V30 5999 C 575.916 -1.57654 4.54641 0
M  V30 6000 C 578.268 -1.32877 5.03977 0
M  V30 6001 C 575.596 -1.0145 5.77862 0
M  V30 6002 C 577.948 -0.7811 6.27759 0
M  V30 6003 C 576.612 -0.618488 6.64628 0
M  V30 6004 H 575.882 -0.441803 0.594888 0
M  V30 6005 H 578.529 -0.501169 1.84826 0
M  V30 6006 H 576.834 -3.0292 2.48489 0
M  V30 6007 H 578.531 -2.84227 2.82871 0
M  V30 6008 H 575.121 -1.85187 3.86528 0
M  V30 6009 H 579.305 -1.43245 4.75179 0
M  V30 6010 H 574.561 -0.876109 6.0509 0
M  V30 6011 H 578.735 -0.464783 6.94847 0
M  V30 6012 H 576.362 -0.180838 7.59985 0
M  V30 6013 N 577.937 -1.40673 -0.710563 0
M  V30 6014 C 579.214 -1.29718 -1.46398 0
M  V30 6015 C 579.594 0.082177 -2.1094 0
M  V30 6016 O 578.942 1.09536 -2.00534 0
M  V30 6017 C 579.152 -2.43967 -2.49562 0
M  V30 6018 C 580.5 -2.84436 -3.15248 0
M  V30 6019 O 581.524 -2.43597 -2.59883 0
M  V30 6020 O 580.383 -3.55008 -4.1549 0
M  V30 6021 H 577.477 -0.509697 -0.651258 0
M  V30 6022 H 580.023 -1.52603 -0.742312 0
M  V30 6023 H 578.795 -3.36076 -2.0042 0
M  V30 6024 H 578.418 -2.22879 -3.29258 0
M  V30 6025 N 579.415 0.9433 -1.26252 0
M  V30 6026 C 580.325 2.07532 -1.09397 0
M  V30 6027 C 581.341 1.73977 -0.0280449 0
M  V30 6028 O 582.517 2.00067 -0.231337 0
M  V30 6029 C 579.582 3.39002 -0.726523 0
M  V30 6030 C 578.643 3.86353 -1.87163 0
M  V30 6031 C 577.876 5.11549 -1.52162 0
M  V30 6032 O 578.099 5.68834 -0.422385 0
M  V30 6033 O 577.033 5.53889 -2.35565 0
M  V30 6034 H 580.859 2.24658 -2.04359 0
M  V30 6035 H 578.444 1.05988 -1.05295 0
M  V30 6036 H 580.326 4.18 -0.534236 0
M  V30 6037 H 579.001 3.2312 0.193721 0
M  V30 6038 H 577.908 3.0831 -2.11886 0
M  V30 6039 H 579.241 4.06752 -2.77152 0
M  V30 6040 N 580.893 1.08022 1.14757 0
M  V30 6041 C 582.141 0.805913 1.85336 0
M  V30 6042 C 582.462 -0.670162 1.83122 0
M  V30 6043 O 581.732 -1.48567 1.2769 0
M  V30 6044 H 580.312 0.295138 0.686223 0
M  V30 6045 H 582.974 1.36538 1.3908 0
M  V30 6046 H 582.07 1.14655 2.90277 0
M  V30 6047 N 582.371 -1.3172 0.865308 0
M  V30 6048 C 583.301 -2.31109 0.333302 0
M  V30 6049 C 584.282 -1.60148 -0.573301 0
M  V30 6050 O 585.467 -1.87882 -0.491305 0
M  V30 6051 C 582.597 -3.44104 -0.470078 0
M  V30 6052 C 581.551 -4.26623 0.343021 0
M  V30 6053 C 580.877 -5.31482 -0.585756 0
M  V30 6054 C 582.177 -4.98001 1.57456 0
M  V30 6055 H 583.871 -2.75855 1.1638 0
M  V30 6056 H 581.417 -1.3262 0.561069 0
M  V30 6057 H 583.37 -4.12682 -0.852752 0
M  V30 6058 H 582.094 -2.98112 -1.33404 0
M  V30 6059 H 580.753 -3.59707 0.707583 0
M  V30 6060 H 580.401 -4.81741 -1.44686 0
M  V30 6061 H 580.101 -5.87582 -0.0456494 0
M  V30 6062 H 581.625 -6.0292 -0.965375 0
M  V30 6063 H 583.039 -5.59201 1.26359 0
M  V30 6064 H 581.436 -5.63876 2.05339 0
M  V30 6065 H 582.506 -4.25253 2.32997 0
M  V30 6066 N 583.85 -0.624285 -1.44708 0
M  V30 6067 C 584.798 0.0969952 -2.32398 0
M  V30 6068 C 585.792 0.842762 -1.46949 0
M  V30 6069 O 586.998 0.756436 -1.63334 0
M  V30 6070 H 583.373 0.0501306 -0.750327 0
M  V30 6071 H 585.344 -0.660767 -2.90992 0
M  V30 6072 C 584.093 1.06967 -3.30837 0
M  V30 6073 H 583.416 0.505242 -3.96595 0
M  V30 6074 H 584.856 1.54397 -3.94889 0
M  V30 6075 C 583.315 2.15153 -2.5925 0
M  V30 6076 O 583.845 3.23139 -2.3863 0
M  V30 6077 N 582.051 1.90898 -2.19103 0
M  V30 6078 H 581.598 1.03086 -2.36074 0
M  V30 6079 H 581.556 2.63485 -1.71531 0
M  V30 6080 N 585.328 1.53329 -0.364422 0
M  V30 6081 C 586.577 2.00421 0.226747 0
M  V30 6082 C 586.89 1.25581 1.49963 0
M  V30 6083 O 588.096 1.63256 2.16933 0
M  V30 6084 C 586.552 3.57017 0.454618 0
M  V30 6085 C 586.16 4.40734 -0.803568 0
M  V30 6086 C 587.904 4.12468 1.00351 0
M  V30 6087 C 585.811 5.8888 -0.545345 0
M  V30 6088 H 584.741 0.748787 0.0885082 0
M  V30 6089 H 587.392 1.7703 -0.482983 0
M  V30 6090 H 585.774 3.76558 1.22558 0
M  V30 6091 H 586.948 4.32967 -1.57723 0
M  V30 6092 H 585.263 3.96381 -1.27559 0
M  V30 6093 H 587.86 5.20783 1.212 0
M  V30 6094 H 588.203 3.6699 1.9653 0
M  V30 6095 H 588.736 3.96721 0.29274 0
M  V30 6096 H 585.475 6.38633 -1.47743 0
M  V30 6097 H 584.995 5.99499 0.189842 0
M  V30 6098 H 586.674 6.46776 -0.170425 0
M  V30 6099 N 586.806 0.0935595 1.57322 0
M  V30 6100 C 588.052 -0.571355 1.94585 0
M  V30 6101 C 588.385 -1.67929 0.975366 0
M  V30 6102 O 587.66 -1.94498 0.00816206 0
M  V30 6103 C 587.943 -1.12797 3.41978 0
M  V30 6104 C 587.796 -0.0251881 4.49793 0
M  V30 6105 C 589.115 -2.02682 3.90651 0
M  V30 6106 H 586.234 -0.206223 0.70756 0
M  V30 6107 H 588.876 0.163956 1.89291 0
M  V30 6108 H 587.026 -1.75461 3.4662 0
M  V30 6109 H 588.698 0.608979 4.57263 0
M  V30 6110 H 586.941 0.641399 4.29032 0
M  V30 6111 H 587.612 -0.455433 5.50118 0
M  V30 6112 H 590.088 -1.49925 3.88152 0
M  V30 6113 H 588.964 -2.38555 4.94351 0
M  V30 6114 H 589.225 -2.94362 3.29854 0
M  V30 6115 N 588.284 -1.56567 -0.180126 0
M  V30 6116 C 589.531 -1.81492 -0.898167 0
M  V30 6117 C 589.859 -0.669225 -1.82624 0
M  V30 6118 O 589.114 0.344096 -1.92651 0
M  V30 6119 C 589.413 -3.1252 -1.73395 0
M  V30 6120 C 589.079 -4.40658 -0.955567 0
M  V30 6121 C 587.741 -4.75465 -0.740707 0
M  V30 6122 C 590.093 -5.19593 -0.408948 0
M  V30 6123 C 587.421 -5.86691 0.0320128 0
M  V30 6124 C 589.773 -6.31627 0.350638 0
M  V30 6125 C 588.437 -6.65007 0.576378 0
M  V30 6126 H 587.707 -0.664125 -0.328662 0
M  V30 6127 H 590.354 -1.908 -0.163616 0
M  V30 6128 H 588.659 -2.98515 -2.53763 0
M  V30 6129 H 590.356 -3.29013 -2.29241 0
M  V30 6130 H 586.946 -4.13352 -1.13306 0
M  V30 6131 H 591.13 -4.93104 -0.562307 0
M  V30 6132 H 586.386 -6.11016 0.216735 0
M  V30 6133 H 590.56 -6.92001 0.781497 0
M  V30 6134 H 588.187 -7.51033 1.17703 0
M  V30 6135 N 589.762 0.448376 -1.51087 0
M  V30 6136 C 590.71 1.56407 -1.72161 0
M  V30 6137 C 591.704 1.58878 -0.587721 0
M  V30 6138 O 592.91 1.62755 -0.768822 0
M  V30 6139 H 589.285 0.519423 -0.543786 0
M  V30 6140 H 591.256 1.35803 -2.65707 0
M  V30 6141 C 590.005 2.94163 -1.85373 0
M  V30 6142 H 589.328 2.9299 -2.72024 0
M  V30 6143 H 590.768 3.71625 -2.04135 0
M  V30 6144 C 589.227 3.31317 -0.610803 0
M  V30 6145 O 589.757 4.00985 0.239636 0
M  V30 6146 N 587.963 2.86966 -0.458127 0
M  V30 6147 H 587.51 2.30443 -1.15124 0
M  V30 6148 H 587.468 3.12188 0.372289 0
M  V30 6149 N 591.24 1.41047 0.703093 0
M  V30 6150 C 592.15 1.44645 1.84703 0
M  V30 6151 C 593.166 0.337778 1.7069 0
M  V30 6152 O 594.342 0.584327 1.92737 0
M  V30 6153 C 591.407 1.31928 3.20618 0
M  V30 6154 C 590.468 2.53047 3.46794 0
M  V30 6155 C 589.701 2.40927 4.76224 0
M  V30 6156 O 589.924 1.42978 5.5219 0
M  V30 6157 O 588.858 3.30543 5.03016 0
M  V30 6158 H 592.684 2.41139 1.84624 0
M  V30 6159 H 590.269 1.22504 0.855167 0
M  V30 6160 H 592.151 1.27092 4.01778 0
M  V30 6161 H 590.826 0.385469 3.21397 0
M  V30 6162 H 589.733 2.6346 2.65593 0
M  V30 6163 H 591.066 3.45231 3.50822 0
M  V30 6164 N 592.718 -0.936591 1.26751 0
M  V30 6165 C 593.651 -2.03619 1.03027 0
M  V30 6166 C 594.629 -1.62534 -0.0464619 0
M  V30 6167 O 595.813 -1.88251 0.0968873 0
M  V30 6168 C 592.94 -3.3402 0.561072 0
M  V30 6169 C 591.986 -3.9408 1.63105 0
M  V30 6170 S 592.819 -4.27782 3.22122 0
M  V30 6171 C 593.975 -5.61277 2.76982 0
M  V30 6172 H 594.208 -2.23429 1.96129 0
M  V30 6173 H 591.741 -1.07857 1.10482 0
M  V30 6174 H 593.699 -4.09424 0.297031 0
M  V30 6175 H 592.36 -3.12147 -0.349741 0
M  V30 6176 H 591.553 -4.88154 1.25386 0
M  V30 6177 H 591.155 -3.25227 1.84671 0
M  V30 6178 H 593.447 -6.40189 2.21731 0
M  V30 6179 H 594.39 -6.03887 3.69766 0
M  V30 6180 H 594.798 -5.21374 2.16402 0
M  V30 6181 N 594.196 -1.08629 -1.14182 0
M  V30 6182 C 595.144 -0.71284 -2.21408 0
M  V30 6183 C 596.138 0.282457 -1.67029 0
M  V30 6184 O 597.344 0.144783 -1.79417 0
M  V30 6185 H 593.719 -0.212497 -0.721352 0
M  V30 6186 H 595.69 -1.6265 -2.50175 0
M  V30 6187 C 594.439 -0.140704 -3.47415 0
M  V30 6188 H 593.762 -0.897739 -3.8959 0
M  V30 6189 H 595.202 0.0827677 -4.23919 0
M  V30 6190 C 593.661 1.122 -3.17668 0
M  V30 6191 O 594.191 2.20652 -3.35672 0
M  V30 6192 N 592.397 1.03328 -2.71609 0
M  V30 6193 H 591.944 0.150666 -2.57159 0
M  V30 6194 H 591.902 1.8789 -2.52081 0
M  V30 6195 N 595.674 1.31259 -0.872281 0
M  V30 6196 C 597.09 1.49283 -0.564521 0
M  V30 6197 C 597.29 1.80243 0.900807 0
M  V30 6198 O 596.346 1.88246 1.68284 0
M  V30 6199 C 597.659 2.62503 -1.46673 0
M  V30 6200 C 599.207 2.76386 -1.46901 0
M  V30 6201 C 599.682 3.92705 -2.35684 0
M  V30 6202 N 601.173 3.99995 -2.33577 0
M  V30 6203 C 601.908 4.89276 -2.98992 0
M  V30 6204 N 601.404 5.83443 -3.73585 0
M  V30 6205 N 603.197 4.82541 -2.88289 0
M  V30 6206 H 595.348 1.09432 -1.82039 0
M  V30 6207 H 597.611 0.540949 -0.77851 0
M  V30 6208 H 597.317 2.46407 -2.50951 0
M  V30 6209 H 597.191 3.58695 -1.16696 0
M  V30 6210 H 599.578 2.91894 -0.433796 0
M  V30 6211 H 599.659 1.80853 -1.80903 0
M  V30 6212 H 599.303 3.77954 -3.39283 0
M  V30 6213 H 599.233 4.87549 -1.99006 0
M  V30 6214 H 601.724 3.32624 -1.7936 0
M  V30 6215 H 602.037 6.48303 -4.20622 0
M  V30 6216 H 600.382 5.83415 -3.77694 0
M  V30 6217 H 603.573 4.07951 -2.2955 0
M  V30 6218 H 603.746 5.51916 -3.39549 0
M  V30 6219 N 597.152 0.631951 1.44375 0
M  V30 6220 C 598.38 0.143867 2.06399 0
M  V30 6221 C 598.795 -1.18188 1.47231 0
M  V30 6222 O 598.152 -1.72511 0.595498 0
M  V30 6223 C 598.203 0.0238253 3.61492 0
M  V30 6224 O 597.924 1.29715 4.18456 0
M  V30 6225 C 599.425 -0.492856 4.40552 0
M  V30 6226 H 596.645 0.0800542 0.666207 0
M  V30 6227 H 599.189 0.866586 1.85231 0
M  V30 6228 H 597.344 -0.649338 3.81919 0
M  V30 6229 H 597.758 1.14252 5.11905 0
M  V30 6230 H 599.232 -0.525861 5.49489 0
M  V30 6231 H 599.709 -1.52006 4.12057 0
M  V30 6232 H 600.315 0.147085 4.25046 0
M  V30 6233 N 598.631 -1.53133 0.372548 0
M  V30 6234 C 599.88 -2.00539 -0.216115 0
M  V30 6235 C 600.193 -1.26374 -1.49295 0
M  V30 6236 O 601.399 -1.64404 -2.16064 0
M  V30 6237 C 599.855 -3.57253 -0.435678 0
M  V30 6238 C 599.463 -4.40302 0.82693 0
M  V30 6239 C 601.207 -4.12995 -0.981618 0
M  V30 6240 C 599.114 -5.88583 0.576567 0
M  V30 6241 H 598.044 -0.749246 -0.084536 0
M  V30 6242 H 600.695 -1.76771 0.492364 0
M  V30 6243 H 599.077 -3.77202 -1.20559 0
M  V30 6244 H 600.251 -4.32124 1.60017 0
M  V30 6245 H 598.566 -3.95699 1.29659 0
M  V30 6246 H 601.163 -5.21418 -1.18436 0
M  V30 6247 H 601.506 -3.68027 -1.94581 0
M  V30 6248 H 602.039 -3.96871 -0.271696 0
M  V30 6249 H 598.778 -6.37841 1.51128 0
M  V30 6250 H 598.298 -5.99592 -0.158047 0
M  V30 6251 H 599.977 -6.46676 0.204722 0
M  V30 6252 N 600.109 -0.101901 -1.5727 0
M  V30 6253 C 601.072 0.840129 -2.13247 0
M  V30 6254 C 602.072 1.20625 -1.06331 0
M  V30 6255 O 603.262 1.13456 -1.32186 0
M  V30 6256 C 600.394 2.13372 -2.65867 0
M  V30 6257 H 601.587 0.353945 -2.97804 0
M  V30 6258 H 599.14 0.147167 -1.55606 0
M  V30 6259 H 599.875 2.66461 -1.84849 0
M  V30 6260 H 599.66 1.88085 -3.44044 0
M  V30 6261 H 601.15 2.80748 -3.09145 0
M  V30 6262 N 601.587 1.56661 0.17182 0
M  V30 6263 C 602.517 1.99401 1.21498 0
M  V30 6264 C 603.498 0.869516 1.46197 0
M  V30 6265 O 604.683 1.13556 1.57539 0
M  V30 6266 C 601.813 2.35346 2.55401 0
M  V30 6267 C 600.767 3.5075 2.45272 0
M  V30 6268 C 600.093 3.72437 3.8366 0
M  V30 6269 C 601.393 4.84216 1.95787 0
M  V30 6270 H 603.087 2.86792 0.859699 0
M  V30 6271 H 600.633 1.37977 0.412103 0
M  V30 6272 H 602.586 2.63843 3.2858 0
M  V30 6273 H 601.31 1.44864 2.92715 0
M  V30 6274 H 599.969 3.2238 1.74547 0
M  V30 6275 H 599.617 2.79246 4.18367 0
M  V30 6276 H 599.317 4.50087 3.77751 0
M  V30 6277 H 600.841 4.03334 4.58426 0
M  V30 6278 H 602.255 5.11592 2.5874 0
M  V30 6279 H 600.652 5.65498 2.00827 0
M  V30 6280 H 601.722 4.76243 0.912159 0
M  V30 6281 N 603.065 -0.440357 1.51323 0
M  V30 6282 C 603.995 -1.54174 1.75364 0
M  V30 6283 C 604.976 -1.59039 0.603375 0
M  V30 6284 O 606.161 -1.74815 0.845774 0
M  V30 6285 C 603.291 -2.92277 1.87593 0
M  V30 6286 C 602.245 -3.02274 3.03009 0
M  V30 6287 C 601.571 -4.42327 3.00418 0
M  V30 6288 C 602.871 -2.76634 4.43024 0
M  V30 6289 H 604.565 -1.34307 2.67585 0
M  V30 6290 H 602.111 -0.644678 1.28763 0
M  V30 6291 H 604.064 -3.69284 2.02995 0
M  V30 6292 H 602.788 -3.13369 0.920179 0
M  V30 6293 H 601.447 -2.27706 2.87307 0
M  V30 6294 H 601.095 -4.60382 2.02626 0
M  V30 6295 H 600.795 -4.49946 3.77918 0
M  V30 6296 H 602.319 -5.21312 3.17909 0
M  V30 6297 H 603.733 -3.43376 4.59093 0
M  V30 6298 H 602.13 -2.95666 5.22208 0
M  V30 6299 H 603.2 -1.72262 4.5327 0
M  V30 6300 N 604.543 -1.41418 -0.695603 0
M  V30 6301 C 605.475 -1.39195 -1.82092 0
M  V30 6302 C 606.488 -0.294132 -1.60121 0
M  V30 6303 O 607.677 -0.555854 -1.69625 0
M  V30 6304 C 604.777 -1.14828 -3.18854 0
M  V30 6305 C 603.95 -2.36649 -3.67853 0
M  V30 6306 C 603.009 -2.08139 -4.83285 0
M  V30 6307 O 602.035 -2.81177 -4.94902 0
M  V30 6308 N 603.237 -1.07162 -5.70523 0
M  V30 6309 H 606.002 -2.36185 -1.84491 0
M  V30 6310 H 603.563 -1.3603 -0.877923 0
M  V30 6311 H 605.555 -0.937075 -3.93702 0
M  V30 6312 H 604.125 -0.264358 -3.1148 0
M  V30 6313 H 603.345 -2.73472 -2.83913 0
M  V30 6314 H 604.633 -3.17816 -3.97329 0
M  V30 6315 H 604.031 -0.467124 -5.63768 0
M  V30 6316 H 602.588 -0.920311 -6.4527 0
M  V30 6317 N 606.021 0.929856 -1.27246 0
M  V30 6318 C 607.249 1.71144 -1.16265 0
M  V30 6319 C 607.664 1.867 0.280786 0
M  V30 6320 O 607.021 1.38249 1.19136 0
M  V30 6321 C 607.072 3.11222 -1.83911 0
M  V30 6322 O 606.793 2.96398 -3.22614 0
M  V30 6323 C 608.294 4.05541 -1.79028 0
M  V30 6324 H 605.514 0.535499 -0.404328 0
M  V30 6325 H 608.058 1.16492 -1.68077 0
M  V30 6326 H 606.213 3.6274 -1.36009 0
M  V30 6327 H 606.627 3.8494 -3.56261 0
M  V30 6328 H 608.101 5.01351 -2.30978 0
M  V30 6329 H 608.578 4.32589 -0.759168 0
M  V30 6330 H 609.184 3.59947 -2.26535 0
M  V30 6331 N 607.499 1.09233 1.13605 0
M  V30 6332 C 608.446 0.729921 2.18954 0
M  V30 6333 C 609.416 -0.287916 1.63586 0
M  V30 6334 O 610.601 -0.170003 1.90041 0
M  V30 6335 C 607.741 0.154489 3.44754 0
M  V30 6336 C 606.854 1.22613 4.14234 0
M  V30 6337 C 605.989 0.613657 5.27644 0
M  V30 6338 C 605.028 1.66674 5.8897 0
M  V30 6339 N 604.165 1.07545 6.93814 0
M  V30 6340 H 609.005 1.63257 2.49302 0
M  V30 6341 H 606.542 0.815693 1.22413 0
M  V30 6342 H 608.5 -0.196923 4.16735 0
M  V30 6343 H 607.13 -0.711433 3.14863 0
M  V30 6344 H 606.182 1.69485 3.40557 0
M  V30 6345 H 607.494 2.0238 4.55899 0
M  V30 6346 H 606.648 0.210976 6.06333 0
M  V30 6347 H 605.387 -0.215584 4.87223 0
M  V30 6348 H 604.392 2.07899 5.08978 0
M  V30 6349 H 605.617 2.49861 6.31464 0
M  V30 6350 H 603.563 0.267451 6.55455 0
M  V30 6351 H 603.48 1.81011 7.3401 0
M  V30 6352 H 604.748 0.698906 7.7636 0
M  V30 6353 N 608.977 -1.30795 0.87923 0
M  V30 6354 C 610.254 -1.91145 0.415086 0
M  V30 6355 C 610.634 -1.7995 -1.10368 0
M  V30 6356 O 609.982 -1.21305 -1.93642 0
M  V30 6357 C 610.192 -3.37014 0.906778 0
M  V30 6358 C 611.54 -4.14101 0.938358 0
M  V30 6359 O 612.564 -3.45834 0.853053 0
M  V30 6360 O 611.423 -5.36054 1.06342 0
M  V30 6361 H 608.517 -0.81736 0.125905 0
M  V30 6362 H 611.063 -1.39401 0.967753 0
M  V30 6363 H 609.835 -3.3922 1.95053 0
M  V30 6364 H 609.458 -3.96204 0.332948 0
M  V30 6365 O 610.494 -0.779418 -1.41447 0
M  V30 6366 H 611.185 -0.346083 -1.90583 0
M  V30 END ATOM
M  V30 BEGIN BOND
M  V30 END BOND
M  V30 END CTAB
M  END
$$$$
