drugbank_target|O66529 6,7-dimethyl-8-ribityllumazine synthase (DB02214; DB04128; DB04262)
 OpenBabel12092119543D

  0  0  0     0  0            999 V3000
M  V30 BEGIN CTAB
M  V30 COUNTS 2380 2398 0 0 0
M  V30 BEGIN ATOM
M  V30 1 H -0.908 1.98254 -0.117106 0
M  V30 2 N 0 1.576 0 0
M  V30 3 C 0.933 2.03868 1.02534 0
M  V30 4 C 1.911 0.928543 1.3348 0
M  V30 5 O 3.095 1.19667 1.45644 0
M  V30 6 C 0.222 2.43627 2.35294 0
M  V30 7 C -0.732 3.65373 2.2001 0
M  V30 8 S 0.101 5.13292 1.52614 0
M  V30 9 C 1.257 5.56322 2.86805 0
M  V30 10 H 1.49 2.90518 0.631377 0
M  V30 11 H -0.977 1.52953 0.210867 0
M  V30 12 H 0.981 2.67203 3.11629 0
M  V30 13 H -0.358 1.57376 2.7183 0
M  V30 14 H -1.165 3.90944 3.18086 0
M  V30 15 H -1.563 3.418 1.51819 0
M  V30 16 H 0.729 5.58782 3.83104 0
M  V30 17 H 1.672 6.56266 2.65933 0
M  V30 18 H 2.08 4.83886 2.90714 0
M  V30 19 N 1.4781 -0.272755 1.55222 0
M  V30 20 C 2.4101 -1.35946 1.8453 0
M  V30 21 C 3.4231 -1.45525 0.729818 0
M  V30 22 O 4.6121 -1.47337 1.00767 0
M  V30 23 C 1.7121 -2.74069 1.99347 0
M  V30 24 C 0.8851 -2.87079 3.30007 0
M  V30 25 C -0.0559 -4.05879 3.34886 0
M  V30 26 O -1.0299 -3.96626 4.08261 0
M  V30 27 N 0.1721 -5.17857 2.62307 0
M  V30 28 H 2.9371 -1.11149 2.78327 0
M  V30 29 H 0.4981 -0.462869 1.55142 0
M  V30 30 H 2.4901 -3.51838 1.99981 0
M  V30 31 H 1.0601 -2.91688 1.12415 0
M  V30 32 H 0.2801 -1.96193 3.41909 0
M  V30 33 H 1.5681 -2.92701 4.16177 0
M  V30 34 H 0.9661 -5.28261 2.02377 0
M  V30 35 H -0.4769 -5.93855 2.68663 0
M  V30 36 N 2.9562 -1.48159 -0.537278 0
M  V30 37 C 4.2052 -1.5506 -1.28993 0
M  V30 38 C 4.5182 -0.226211 -1.94288 0
M  V30 39 O 5.7242 -0.173395 -2.70946 0
M  V30 40 C 4.1802 -2.73429 -2.34018 0
M  V30 41 C 3.7882 -4.1248 -1.74825 0
M  V30 42 C 5.5322 -2.89638 -3.10339 0
M  V30 43 C 3.4392 -5.22121 -2.77747 0
M  V30 44 H 2.3692 -0.577231 -0.485098 0
M  V30 45 H 5.0202 -1.74478 -0.568317 0
M  V30 46 H 3.4022 -2.47431 -3.09182 0
M  V30 47 H 4.5762 -4.48466 -1.05899 0
M  V30 48 H 2.8912 -4.01327 -1.11022 0
M  V30 49 H 5.4882 -3.68718 -3.87235 0
M  V30 50 H 5.8312 -1.9882 -3.65754 0
M  V30 51 H 6.3642 -3.15502 -2.42288 0
M  V30 52 H 3.1032 -6.1488 -2.27161 0
M  V30 53 H 2.6232 -4.90631 -3.45024 0
M  V30 54 H 4.3022 -5.49924 -3.4087 0
M  V30 55 N 4.4343 0.785586 -1.36625 0
M  V30 56 C 5.6643 1.5722 -1.34036 0
M  V30 57 C 6.0723 1.89033 0.0795062 0
M  V30 58 O 5.4153 1.50881 1.04789 0
M  V30 59 C 5.4773 2.91759 -2.10041 0
M  V30 60 C 5.1413 2.82654 -3.59104 0
M  V30 61 C 6.1383 2.54634 -4.53274 0
M  V30 62 C 3.8233 3.01111 -4.02042 0
M  V30 63 C 5.8173 2.45177 -5.88359 0
M  V30 64 C 3.5043 2.91276 -5.37216 0
M  V30 65 C 4.5023 2.63348 -6.30188 0
M  V30 66 O 4.1903 2.53514 -7.6288 0
M  V30 67 H 3.9223 0.494177 -0.461265 0
M  V30 68 H 6.4763 0.982632 -1.8037 0
M  V30 69 H 4.7063 3.52781 -1.58375 0
M  V30 70 H 6.3953 3.53059 -2.00261 0
M  V30 71 H 7.1613 2.40073 -4.21414 0
M  V30 72 H 3.0403 3.21854 -3.30047 0
M  V30 73 H 6.5843 2.23299 -6.60896 0
M  V30 74 H 2.4813 3.054 -5.68684 0
M  V30 75 H 3.2493 2.68967 -7.73045 0
M  V30 76 N 5.9124 1.20967 1.01018 0
M  V30 77 C 6.8224 0.980157 2.13143 0
M  V30 78 C 7.8384 -0.0660665 1.73875 0
M  V30 79 O 9.0144 0.122821 2.01025 0
M  V30 80 C 6.0794 0.54216 3.42435 0
M  V30 81 C 5.1404 1.65999 3.95908 0
M  V30 82 C 4.3734 1.2428 5.19028 0
M  V30 83 O 4.5964 0.114196 5.70286 0
M  V30 84 O 3.5304 2.05271 5.65816 0
M  V30 85 H 7.3564 1.91913 2.35379 0
M  V30 86 H 4.9414 0.994099 1.11526 0
M  V30 87 H 6.8234 0.30744 4.20277 0
M  V30 88 H 5.4984 -0.36815 3.216 0
M  V30 89 H 4.4054 1.94906 3.19316 0
M  V30 90 H 5.7384 2.54753 4.21143 0
M  V30 91 N 7.3905 -1.2043 1.01659 0
M  V30 92 C 8.6385 -1.89423 0.704522 0
M  V30 93 C 8.9595 -1.79231 -0.768197 0
M  V30 94 O 8.2295 -1.1947 -1.55254 0
M  V30 95 H 6.8095 -0.701178 0.257602 0
M  V30 96 H 9.4715 -1.4626 1.28818 0
M  V30 97 H 8.5675 -2.96052 0.987916 0
M  V30 98 N 8.8686 -0.792821 -1.36206 0
M  V30 99 C 9.8156 -0.191653 -2.30003 0
M  V30 100 C 10.7856 0.666453 -1.52143 0
M  V30 101 O 11.9706 0.61442 -1.80636 0
M  V30 102 C 9.1106 0.664848 -3.38635 0
M  V30 103 C 8.2236 -0.212175 -4.31479 0
M  V30 104 C 7.3586 0.651022 -5.27196 0
M  V30 105 C 6.3976 -0.227247 -6.11678 0
M  V30 106 N 5.5346 0.595127 -6.99573 0
M  V30 107 H 10.3746 -0.996978 -2.80828 0
M  V30 108 H 7.9116 -0.503206 -1.38225 0
M  V30 109 H 9.8696 1.17645 -4.00269 0
M  V30 110 H 8.4996 1.43557 -2.89122 0
M  V30 111 H 7.5516 -0.841777 -3.70969 0
M  V30 112 H 8.8636 -0.888751 -4.90818 0
M  V30 113 H 8.0176 1.2283 -5.94136 0
M  V30 114 H 6.7566 1.36121 -4.68319 0
M  V30 115 H 5.7616 -0.816904 -5.43697 0
M  V30 116 H 6.9866 -0.93509 -6.72631 0
M  V30 117 H 4.9326 1.28955 -6.432 0
M  V30 118 H 4.8496 -0.0236952 -7.55996 0
M  V30 119 H 6.1176 1.15613 -7.70879 0
M  V30 120 N 10.3467 1.47872 -0.545128 0
M  V30 121 C 11.2767 2.32661 0.197793 0
M  V30 122 C 12.2577 1.43041 0.920504 0
M  V30 123 O 13.4427 1.71912 0.90333 0
M  V30 124 C 10.5727 3.24569 1.23582 0
M  V30 125 C 9.5267 4.23333 0.630323 0
M  V30 126 C 8.8527 5.0448 1.77211 0
M  V30 127 C 10.1527 5.20704 -0.407974 0
M  V30 128 H 11.8467 2.95024 -0.510045 0
M  V30 129 H 9.3927 1.4187 -0.246731 0
M  V30 130 H 11.3457 3.8272 1.76362 0
M  V30 131 H 10.0697 2.60236 1.97344 0
M  V30 132 H 8.7287 3.6639 0.123922 0
M  V30 133 H 8.3767 4.36561 2.49847 0
M  V30 134 H 8.0767 5.71339 1.37281 0
M  V30 135 H 9.6007 5.65487 2.3034 0
M  V30 136 H 11.0147 5.7329 0.033305 0
M  V30 137 H 9.4117 5.95699 -0.725486 0
M  V30 138 H 10.4817 4.66917 -1.30828 0
M  V30 139 N 11.8248 0.280983 1.55075 0
M  V30 140 C 13.0528 -0.337293 2.04132 0
M  V30 141 C 13.4678 -1.4903 1.15912 0
M  V30 142 O 12.8248 -1.81606 0.180459 0
M  V30 143 C 12.8758 -0.812706 3.52246 0
M  V30 144 O 12.5968 0.294387 4.3711 0
M  V30 145 C 14.0978 -1.4982 4.17216 0
M  V30 146 H 11.3178 -0.0761638 0.666663 0
M  V30 147 H 13.8618 0.414787 2.00249 0
M  V30 148 H 12.0168 -1.51486 3.56554 0
M  V30 149 H 12.4308 -0.0721325 5.2445 0
M  V30 150 H 13.9048 -1.7822 5.22438 0
M  V30 151 H 14.3818 -2.43168 3.65741 0
M  V30 152 H 14.9878 -0.839742 4.16927 0
M  V30 153 N 13.3029 -1.57598 0.00835791 0
M  V30 154 C 14.2659 -2.07884 -0.965242 0
M  V30 155 C 15.2659 -0.989825 -1.26725 0
M  V30 156 O 16.4559 -1.25218 -1.21104 0
M  V30 157 C 13.5879 -2.52731 -2.28779 0
M  V30 158 H 14.7809 -2.95178 -0.530112 0
M  V30 159 H 12.3339 -1.54458 -0.239283 0
M  V30 160 H 13.0689 -1.68705 -2.76964 0
M  V30 161 H 12.8539 -3.32272 -2.08177 0
M  V30 162 H 14.3439 -2.91933 -2.98605 0
M  V30 163 N 14.781 0.264519 -1.55364 0
M  V30 164 C 15.691 1.34902 -1.91934 0
M  V30 165 C 16.707 1.53595 -0.817593 0
M  V30 166 O 17.883 1.67558 -1.11742 0
M  V30 167 C 14.948 2.68676 -2.19121 0
M  V30 168 C 14.009 2.58657 -3.4263 0
M  V30 169 C 13.242 3.86051 -3.68511 0
M  V30 170 O 13.465 4.87126 -2.96757 0
M  V30 171 O 12.399 3.85744 -4.62045 0
M  V30 172 H 16.225 1.06883 -2.8427 0
M  V30 173 H 13.81 0.463775 -1.42019 0
M  V30 174 H 15.692 3.47759 -2.37995 0
M  V30 175 H 14.367 2.96463 -1.29966 0
M  V30 176 H 13.274 1.7792 -3.29082 0
M  V30 177 H 14.607 2.35818 -4.32031 0
M  V30 178 N 16.2591 1.48442 0.529413 0
M  V30 179 C 17.5071 1.56179 1.28267 0
M  V30 180 C 17.8281 0.237721 1.93546 0
M  V30 181 O 17.0981 -0.740779 1.81354 0
M  V30 182 H 15.6781 0.575367 0.476405 0
M  V30 183 H 18.3401 1.84909 0.61602 0
M  V30 184 H 17.4361 2.34312 2.06165 0
M  V30 185 N 17.7372 -0.778329 1.37039 0
M  V30 186 C 18.6672 -1.90546 1.34962 0
M  V30 187 C 19.6482 -1.68681 0.219274 0
M  V30 188 O 20.8332 -1.89634 0.418624 0
M  V30 189 C 17.9632 -3.27734 1.14925 0
M  V30 190 C 16.9172 -3.64147 2.24902 0
M  V30 191 C 16.2432 -4.99806 1.89996 0
M  V30 192 C 17.5432 -3.71579 3.67051 0
M  V30 193 H 19.2372 -1.92541 2.29277 0
M  V30 194 H 16.7832 -0.924948 1.10366 0
M  V30 195 H 18.7362 -4.06215 1.12104 0
M  V30 196 H 17.4602 -3.26154 0.170631 0
M  V30 197 H 16.1192 -2.8797 2.26868 0
M  V30 198 H 15.7672 -4.94759 0.906796 0
M  V30 199 H 15.4672 -5.25139 2.63634 0
M  V30 200 H 16.9912 -5.80694 1.88749 0
M  V30 201 H 18.4052 -4.40227 3.67251 0
M  V30 202 H 16.8022 -4.08405 4.39688 0
M  V30 203 H 17.8722 -2.72404 4.01154 0
M  V30 204 N 19.2153 -1.21501 -1.00376 0
M  V30 205 C 20.6313 -0.972629 -1.26539 0
M  V30 206 C 20.8313 0.340257 -1.98606 0
M  V30 207 O 19.8873 1.06561 -2.28913 0
M  V30 208 C 21.2003 -2.16404 -2.08781 0
M  V30 209 C 22.7483 -2.20643 -2.22004 0
M  V30 210 C 23.2233 -3.39306 -3.07629 0
M  V30 211 N 24.7143 -3.39401 -3.15217 0
M  V30 212 C 25.4493 -4.27867 -3.81729 0
M  V30 213 N 24.9453 -5.26533 -4.5026 0
M  V30 214 N 26.7383 -4.15672 -3.78382 0
M  V30 215 H 18.8893 -2.05929 -0.520281 0
M  V30 216 H 21.1523 -0.901803 -0.292328 0
M  V30 217 H 20.8583 -3.11554 -1.63178 0
M  V30 218 H 20.7323 -2.15567 -3.09533 0
M  V30 219 H 23.1193 -1.26048 -2.66825 0
M  V30 220 H 23.2003 -2.25523 -1.20718 0
M  V30 221 H 22.8443 -4.34195 -2.63509 0
M  V30 222 H 22.7743 -3.31665 -4.09031 0
M  V30 223 H 25.2653 -2.67997 -2.66432 0
M  V30 224 H 25.5783 -5.90337 -4.98721 0
M  V30 225 H 23.9233 -5.30457 -4.49044 0
M  V30 226 H 27.1143 -3.3785 -3.23998 0
M  V30 227 H 27.2873 -4.84825 -4.2994 0
M  V30 228 N 20.6934 1.19889 -1.02296 0
M  V30 229 C 21.9404 1.8942 -0.715972 0
M  V30 230 C 22.2684 1.79251 0.754944 0
M  V30 231 O 21.5234 1.17526 1.56481 0
M  V30 232 C 21.8224 3.39883 -1.10518 0
M  V30 233 C 21.4884 3.70254 -2.57337 0
M  V30 234 C 20.1504 3.78254 -2.97452 0
M  V30 235 C 22.5024 3.84052 -3.52354 0
M  V30 236 C 19.8304 3.97514 -4.31509 0
M  V30 237 C 22.1824 4.04824 -4.86108 0
M  V30 238 C 20.8464 4.11054 -5.25919 0
M  V30 239 H 20.1164 0.693138 -0.261993 0
M  V30 240 H 22.7634 1.42012 -1.28472 0
M  V30 241 H 21.0684 3.8915 -0.454953 0
M  V30 242 H 22.7654 3.9199 -0.845261 0
M  V30 243 H 19.3554 3.64632 -2.25258 0
M  V30 244 H 23.5394 3.77221 -3.22518 0
M  V30 245 H 18.7954 4.00574 -4.61898 0
M  V30 246 H 22.9694 4.14442 -5.59653 0
M  V30 247 H 20.5964 4.2573 -6.29808 0
M  V30 248 N 22.1715 0.800033 1.35784 0
M  V30 249 C 23.4195 0.376597 1.9856 0
M  V30 250 C 23.7405 -1.05812 1.63795 0
M  V30 251 O 23.0105 -1.73103 0.917171 0
M  V30 252 H 21.5905 0.136261 0.734467 0
M  V30 253 H 24.2525 1.02442 1.65806 0
M  V30 254 H 23.3485 0.477002 3.08433 0
M  V30 255 N 23.6496 -1.47581 0.552962 0
M  V30 256 C 24.8986 -2.01684 0.0251995 0
M  V30 257 C 25.2116 -1.43317 -1.33115 0
M  V30 258 O 26.4176 -1.89057 -1.94858 0
M  V30 259 C 24.8736 -3.599 -0.00542052 0
M  V30 260 C 24.4816 -4.27257 1.34742 0
M  V30 261 C 26.2256 -4.21768 -0.4808 0
M  V30 262 C 24.1326 -5.77467 1.27614 0
M  V30 263 H 23.0626 -0.753979 0.00565033 0
M  V30 264 H 25.7136 -1.69616 0.70018 0
M  V30 265 H 24.0956 -3.88911 -0.745961 0
M  V30 266 H 25.2696 -4.09893 2.10534 0
M  V30 267 H 23.5846 -3.77358 1.76039 0
M  V30 268 H 26.1816 -5.31838 -0.55246 0
M  V30 269 H 26.5246 -3.88651 -1.49184 0
M  V30 270 H 27.0576 -3.97273 0.204752 0
M  V30 271 H 23.7966 -6.15196 2.26304 0
M  V30 272 H 23.3166 -5.9718 0.55996 0
M  V30 273 H 24.9956 -6.3959 0.976421 0
M  V30 274 N 25.1277 -0.289203 -1.54924 0
M  V30 275 C 26.3737 0.323998 -2.00195 0
M  V30 276 C 26.7067 1.54441 -1.17735 0
M  V30 277 O 25.9817 1.92875 -0.250878 0
M  V30 278 C 26.2647 0.692276 -3.53383 0
M  V30 279 C 26.1177 -0.536457 -4.46589 0
M  V30 280 C 27.4367 1.52335 -4.12895 0
M  V30 281 H 24.5557 0.116289 -0.727768 0
M  V30 282 H 27.1977 -0.398954 -1.85764 0
M  V30 283 H 25.3477 1.30822 -3.65811 0
M  V30 284 H 27.0197 -1.17499 -4.46085 0
M  V30 285 H 25.2627 -1.17192 -4.1767 0
M  V30 286 H 25.9337 -0.234806 -5.515 0
M  V30 287 H 28.4097 1.00302 -4.0383 0
M  V30 288 H 27.2857 1.74982 -5.20262 0
M  V30 289 H 27.5467 2.50886 -3.64018 0
M  V30 290 N 26.6058 1.57591 -0.0167156 0
M  V30 291 C 27.5688 2.08393 0.954204 0
M  V30 292 C 28.5688 0.996531 1.26198 0
M  V30 293 O 29.7588 1.25858 1.20438 0
M  V30 294 C 26.8908 2.5394 2.27436 0
M  V30 295 H 28.0838 2.95455 0.514451 0
M  V30 296 H 25.6368 1.54582 0.231089 0
M  V30 297 H 26.3718 1.70171 2.76066 0
M  V30 298 H 26.1568 3.33371 2.06412 0
M  V30 299 H 27.6468 2.93512 2.97053 0
M  V30 300 N 28.0839 -0.256276 1.55502 0
M  V30 301 C 29.3089 -1.00766 1.81276 0
M  V30 302 C 29.7339 -1.78524 0.59252 0
M  V30 303 O 29.0919 -1.75413 -0.45827 0
M  V30 304 C 29.1399 -1.92869 3.04687 0
M  V30 305 O 28.2439 -3.019 2.80945 0
M  V30 306 H 27.5849 -0.287224 0.598664 0
M  V30 307 H 30.1149 -0.280109 2.02674 0
M  V30 308 H 30.1249 -2.34511 3.33869 0
M  V30 309 H 28.7999 -1.35689 3.93143 0
M  V30 310 H 27.3769 -2.64454 2.62904 0
M  V30 311 N 29.562 -1.4872 -0.521534 0
M  V30 312 C 30.978 -1.35028 -0.850855 0
M  V30 313 C 31.178 -0.367712 -1.98116 0
M  V30 314 O 30.234 0.208037 -2.51642 0
M  V30 315 C 31.547 -2.75263 -1.21041 0
M  V30 316 C 33.095 -2.83813 -1.31981 0
M  V30 317 C 33.57 -4.24769 -1.71276 0
M  V30 318 N 35.061 -4.27482 -1.78363 0
M  V30 319 C 35.796 -5.33494 -2.1017 0
M  V30 320 N 35.292 -6.49775 -2.40343 0
M  V30 321 N 37.085 -5.20894 -2.11248 0
M  V30 322 H 29.236 -2.11214 0.22413 0
M  V30 323 H 31.499 -0.947252 0.0376439 0
M  V30 324 H 31.205 -3.48765 -0.453415 0
M  V30 325 H 31.079 -3.09327 -2.15863 0
M  V30 326 H 33.466 -2.10561 -2.06756 0
M  V30 327 H 33.547 -2.53358 -0.352596 0
M  V30 328 H 33.191 -4.9854 -0.970588 0
M  V30 329 H 33.121 -4.52673 -2.69062 0
M  V30 330 H 35.612 -3.43611 -1.57288 0
M  V30 331 H 35.925 -7.26402 -2.63743 0
M  V30 332 H 34.27 -6.53035 -2.37844 0
M  V30 333 H 37.461 -4.29065 -1.87139 0
M  V30 334 H 37.634 -6.03612 -2.35704 0
M  V30 335 N 31.0401 0.771051 -1.3745 0
M  V30 336 C 32.2871 1.52963 -1.32697 0
M  V30 337 C 32.6151 1.94299 0.0883274 0
M  V30 338 O 31.8701 1.64397 1.0617 0
M  V30 339 C 32.1691 2.80676 -2.2126 0
M  V30 340 C 31.8351 2.58389 -3.69521 0
M  V30 341 C 30.4971 2.52019 -4.09927 0
M  V30 342 C 32.8491 2.38469 -4.63446 0
M  V30 343 C 30.1771 2.23721 -5.42371 0
M  V30 344 C 32.5291 2.11694 -5.96128 0
M  V30 345 C 31.1931 2.03769 -6.35637 0
M  V30 346 H 30.4631 0.559732 -0.485573 0
M  V30 347 H 33.1101 0.888083 -1.69662 0
M  V30 348 H 31.4151 3.49392 -1.77291 0
M  V30 349 H 33.1121 3.38557 -2.14895 0
M  V30 350 H 29.7021 2.6421 -3.37478 0
M  V30 351 H 33.8861 2.4238 -4.33089 0
M  V30 352 H 29.1421 2.16081 -5.71943 0
M  V30 353 H 33.3161 1.9528 -6.6846 0
M  V30 354 H 30.9431 1.81606 -7.38189 0
M  V30 355 N 32.5182 1.22032 0.997298 0
M  V30 356 C 33.4662 0.983634 2.10778 0
M  V30 357 C 34.4602 -0.0717564 1.69248 0
M  V30 358 O 35.6662 0.080304 1.79821 0
M  V30 359 H 32.0412 0.300877 0.689186 0
M  V30 360 H 34.0122 1.92606 2.27916 0
M  V30 361 C 32.7612 0.57326 3.42942 0
M  V30 362 H 32.0842 1.37702 3.75338 0
M  V30 363 H 33.5242 0.447031 4.21637 0
M  V30 364 C 31.9832 -0.7167 3.29188 0
M  V30 365 O 32.5132 -1.77027 3.60589 0
M  V30 366 N 30.7192 -0.686167 2.82383 0
M  V30 367 H 30.2662 0.171507 2.57028 0
M  V30 368 H 30.2242 -1.54955 2.73562 0
M  V30 369 N 33.9963 -1.19345 1.0293 0
M  V30 370 C 34.9463 -2.20472 0.58104 0
M  V30 371 C 35.9303 -1.56578 -0.370442 0
M  V30 372 O 37.1223 -1.75963 -0.191344 0
M  V30 373 C 34.2513 -3.43236 -0.066306 0
M  V30 374 C 33.3373 -4.14274 0.907642 0
M  V30 375 N 33.7283 -4.61492 2.07023 0
M  V30 376 C 32.0263 -4.39966 0.731177 0
M  V30 377 C 32.7273 -5.1605 2.68454 0
M  V30 378 N 31.7033 -5.06875 1.96414 0
M  V30 379 H 35.5053 -2.54659 1.46717 0
M  V30 380 H 33.0193 -1.35423 0.896345 0
M  V30 381 H 35.0163 -4.14927 -0.405068 0
M  V30 382 H 33.6763 -3.10549 -0.948118 0
M  V30 383 H 34.6873 -4.56304 2.44963 0
M  V30 384 H 31.3643 -4.17377 -0.101507 0
M  V30 385 H 32.7543 -5.6287 3.66915 0
M  V30 386 N 35.4744 -0.807222 -1.35358 0
M  V30 387 C 36.4374 -0.223665 -2.28106 0
M  V30 388 C 37.4374 0.589354 -1.4961 0
M  V30 389 O 38.6274 0.407745 -1.69361 0
M  V30 390 C 35.7594 0.688149 -3.33882 0
M  V30 391 H 36.9524 -1.04169 -2.81227 0
M  V30 392 H 34.5054 -0.577921 -1.45223 0
M  V30 393 H 35.2404 1.52984 -2.85948 0
M  V30 394 H 35.0254 0.10687 -3.91954 0
M  V30 395 H 36.5154 1.09075 -4.03104 0
M  V30 396 N 36.9525 1.47285 -0.560781 0
M  V30 397 C 37.8825 2.32857 0.173105 0
M  V30 398 C 38.8635 1.44009 0.905281 0
M  V30 399 O 40.0485 1.7286 0.885046 0
M  V30 400 C 37.1785 3.25861 1.20133 0
M  V30 401 C 36.1325 4.23978 0.585388 0
M  V30 402 C 35.4585 5.06332 1.7185 0
M  V30 403 C 36.7585 5.20242 -0.463178 0
M  V30 404 H 38.4525 2.94466 -0.541307 0
M  V30 405 H 35.9985 1.41601 -0.261764 0
M  V30 406 H 37.9515 3.84569 1.72293 0
M  V30 407 H 36.6755 2.62315 1.94573 0
M  V30 408 H 35.3345 3.66501 0.085054 0
M  V30 409 H 34.9825 4.39186 2.45203 0
M  V30 410 H 34.6825 5.72762 1.31213 0
M  V30 411 H 36.2065 5.67899 2.24329 0
M  V30 412 H 37.6205 5.73293 -0.027502 0
M  V30 413 H 36.0175 5.94896 -0.788627 0
M  V30 414 H 37.0875 4.65504 -1.35773 0
M  V30 415 N 38.4306 0.297415 1.54768 0
M  V30 416 C 39.6766 -0.313376 2.00364 0
M  V30 417 C 40.0096 -1.53815 1.18553 0
M  V30 418 O 39.2846 -1.92739 0.261103 0
M  V30 419 C 39.5676 -0.673525 3.53745 0
M  V30 420 C 39.4206 0.560133 4.46299 0
M  V30 421 C 40.7396 -1.50143 4.13697 0
M  V30 422 H 37.8586 -0.112428 0.728374 0
M  V30 423 H 40.5006 0.4088 1.8555 0
M  V30 424 H 38.6506 -1.28881 3.665 0
M  V30 425 H 40.3226 1.19863 4.45455 0
M  V30 426 H 38.5656 1.19405 4.17043 0
M  V30 427 H 39.2366 0.26405 5.51368 0
M  V30 428 H 41.7126 -0.981588 4.04356 0
M  V30 429 H 40.5886 -1.72221 5.21182 0
M  V30 430 H 40.8496 -2.48952 3.65343 0
M  V30 431 N 39.9087 -1.5758 0.0250728 0
M  V30 432 C 41.1857 -1.82917 -0.692873 0
M  V30 433 C 41.5657 -0.908137 -1.90568 0
M  V30 434 O 40.9137 0.0372298 -2.2847 0
M  V30 435 C 41.1237 -3.32034 -1.07492 0
M  V30 436 C 42.4717 -3.98406 -1.46826 0
M  V30 437 O 43.4957 -3.36505 -1.16801 0
M  V30 438 O 42.3547 -5.07497 -2.02754 0
M  V30 439 H 39.4487 -0.754079 -0.33955 0
M  V30 440 H 41.9947 -1.69619 0.0524456 0
M  V30 441 H 40.7667 -3.90728 -0.211552 0
M  V30 442 H 40.3897 -3.50424 -1.87854 0
M  V30 443 N 41.3868 0.248026 -1.55636 0
M  V30 444 C 42.8028 0.596483 -1.48035 0
M  V30 445 C 43.0028 1.88386 -0.715039 0
M  V30 446 O 42.0588 2.51319 -0.243944 0
M  V30 447 C 43.3718 0.700258 -2.92433 0
M  V30 448 C 44.9198 0.792659 -3.02797 0
M  V30 449 C 45.3948 0.928005 -4.485 0
M  V30 450 N 46.8858 0.992903 -4.52433 0
M  V30 451 C 47.6208 1.11687 -5.62418 0
M  V30 452 N 47.1168 1.20645 -6.82214 0
M  V30 453 N 48.9098 1.14994 -5.50212 0
M  V30 454 H 41.0608 -0.597109 -2.03834 0
M  V30 455 H 43.3238 -0.205925 -0.925364 0
M  V30 456 H 43.0298 -0.175658 -3.51261 0
M  V30 457 H 42.9038 1.57255 -3.42857 0
M  V30 458 H 45.2908 1.65903 -2.4405 0
M  V30 459 H 45.3718 -0.104762 -2.55585 0
M  V30 460 H 45.0158 0.0661971 -5.07857 0
M  V30 461 H 44.9458 1.84045 -4.93391 0
M  V30 462 H 47.4368 0.935064 -3.66149 0
M  V30 463 H 47.7498 1.30008 -7.61786 0
M  V30 464 H 46.0948 1.17605 -6.84977 0
M  V30 465 H 49.2858 1.07643 -4.55555 0
M  V30 466 H 49.4588 1.24311 -6.35965 0
M  V30 467 N 42.8649 1.48995 0.513639 0
M  V30 468 C 43.7949 1.67636 1.62544 0
M  V30 469 C 44.7759 0.525087 1.61793 0
M  V30 470 O 45.9609 0.759502 1.78732 0
M  V30 471 C 43.0909 1.73114 3.01079 0
M  V30 472 C 42.0449 2.87905 3.16693 0
M  V30 473 C 41.3709 2.78486 4.56453 0
M  V30 474 C 42.6709 4.29005 2.97913 0
M  V30 475 H 44.3649 2.60716 1.47198 0
M  V30 476 H 41.9109 1.25465 0.706714 0
M  V30 477 H 43.8639 1.84742 3.78746 0
M  V30 478 H 42.5879 0.766241 3.17484 0
M  V30 479 H 41.2469 2.75859 2.41448 0
M  V30 480 H 40.8949 1.7993 4.69717 0
M  V30 481 H 40.5949 3.55523 4.67843 0
M  V30 482 H 42.1189 2.92104 5.36197 0
M  V30 483 H 43.5329 4.41798 3.65359 0
M  V30 484 H 41.9299 5.07166 3.20785 0
M  V30 485 H 42.9999 4.44329 1.94165 0
M  V30 486 N 44.343 -0.763751 1.37857 0
M  V30 487 C 45.589 -1.52483 1.33704 0
M  V30 488 C 45.922 -1.94051 -0.0759612 0
M  V30 489 O 45.197 -1.64675 -1.03501 0
M  V30 490 C 45.48 -2.78441 2.28348 0
M  V30 491 C 45.333 -2.43075 3.78463 0
M  V30 492 C 46.652 -3.80415 2.21298 0
M  V30 493 H 43.771 -0.553169 0.487005 0
M  V30 494 H 46.413 -0.875562 1.68624 0
M  V30 495 H 44.563 -3.33842 1.987 0
M  V30 496 H 46.235 -1.93527 4.18742 0
M  V30 497 H 44.478 -1.75666 3.96641 0
M  V30 498 H 45.149 -3.33149 4.40132 0
M  V30 499 H 47.625 -3.34527 2.47449 0
M  V30 500 H 46.501 -4.66257 2.89647 0
M  V30 501 H 46.762 -4.25262 1.20849 0
M  V30 502 N 45.8211 -1.22559 -0.990812 0
M  V30 503 C 46.7311 -1.01394 -2.11557 0
M  V30 504 C 47.7471 0.0383962 -1.73958 0
M  V30 505 O 48.9231 -0.154787 -2.00804 0
M  V30 506 C 45.9881 -0.596569 -3.41529 0
M  V30 507 C 45.0491 -1.72276 -3.93217 0
M  V30 508 C 44.2821 -1.32521 -5.16985 0
M  V30 509 O 44.5051 -0.204909 -5.70032 0
M  V30 510 O 43.4391 -2.14247 -5.62478 0
M  V30 511 H 47.2651 -1.95633 -2.32296 0
M  V30 512 H 44.8501 -1.01172 -1.0993 0
M  V30 513 H 46.7321 -0.374263 -4.19735 0
M  V30 514 H 45.4071 0.316939 -3.22145 0
M  V30 515 H 44.3141 -1.99961 -3.16174 0
M  V30 516 H 45.6471 -2.61421 -4.17037 0
M  V30 517 N 47.2992 1.18797 -1.03562 0
M  V30 518 C 48.5472 1.88278 -0.734569 0
M  V30 519 C 48.8682 1.8043 0.739586 0
M  V30 520 O 48.1382 1.21925 1.53333 0
M  V30 521 H 46.7182 0.696991 -0.268725 0
M  V30 522 H 49.3802 1.44192 -1.31129 0
M  V30 523 H 48.4762 2.94443 -1.03489 0
M  V30 524 N 48.7773 0.814389 1.34928 0
M  V30 525 C 49.7403 0.235759 2.27984 0
M  V30 526 C 50.7403 -0.581412 1.49921 0
M  V30 527 O 51.9303 -0.398758 1.69575 0
M  V30 528 C 49.0623 -0.670433 3.34242 0
M  V30 529 H 50.2553 1.05659 2.80671 0
M  V30 530 H 47.8083 0.585614 1.44915 0
M  V30 531 H 48.5433 -1.51466 2.86755 0
M  V30 532 H 48.3283 -0.0860822 3.92005 0
M  V30 533 H 49.8183 -1.06935 4.03676 0
M  V30 534 N 50.2554 -1.46986 0.568584 0
M  V30 535 C 51.5044 -2.01646 0.0465894 0
M  V30 536 C 51.8174 -1.44721 -1.31587 0
M  V30 537 O 53.0234 -1.91113 -1.92842 0
M  V30 538 C 51.4794 -3.59885 0.032752 0
M  V30 539 C 51.0874 -4.25804 1.39266 0
M  V30 540 C 52.8314 -4.22255 -0.436038 0
M  V30 541 C 50.7384 -5.76081 1.33732 0
M  V30 542 H 49.6684 -0.753876 0.013647 0
M  V30 543 H 52.3194 -1.68864 0.718131 0
M  V30 544 H 50.7014 -3.8968 -0.704669 0
M  V30 545 H 51.8754 -4.07637 2.1487 0
M  V30 546 H 50.1904 -3.7547 1.80032 0
M  V30 547 H 52.7874 -5.32394 -0.49602 0
M  V30 548 H 53.1304 -3.90212 -1.45053 0
M  V30 549 H 53.6634 -3.97033 0.246877 0
M  V30 550 H 50.4024 -6.12761 2.32817 0
M  V30 551 H 49.9224 -5.96553 0.623267 0
M  V30 552 H 51.6014 -6.38518 1.0442 0
M  V30 553 N 51.7335 -0.305618 -1.54608 0
M  V30 554 C 53.0105 0.355652 -1.92339 0
M  V30 555 C 53.3905 1.71324 -1.23335 0
M  V30 556 O 52.7385 2.25473 -0.370702 0
M  V30 557 C 52.9485 0.46572 -3.45879 0
M  V30 558 C 54.2965 0.734426 -4.182 0
M  V30 559 O 55.3205 0.54935 -3.51938 0
M  V30 560 O 54.1795 1.09024 -5.35515 0
M  V30 561 H 51.2735 0.199666 -0.802535 0
M  V30 562 H 53.8195 -0.354017 -1.65966 0
M  V30 563 H 52.5915 -0.488461 -3.88239 0
M  V30 564 H 52.2145 1.22367 -3.78301 0
M  V30 565 N 53.2116 1.57565 -0.0334293 0
M  V30 566 C 54.4516 1.93844 0.648379 0
M  V30 567 C 54.8156 0.910387 1.69044 0
M  V30 568 O 56.0166 1.15952 2.42505 0
M  V30 569 C 54.2876 3.35017 1.24492 0
M  V30 570 S 55.8466 3.93229 1.94721 0
M  V30 571 H 52.6646 0.678231 0.213364 0
M  V30 572 H 55.2666 1.95254 -0.0981253 0
M  V30 573 H 53.9706 4.07652 0.474128 0
M  V30 574 H 53.5016 3.37061 2.02864 0
M  V30 575 H 55.5166 3.77014 3.22606 0
M  V30 576 N 54.6897 -0.239769 1.55765 0
M  V30 577 C 55.9387 -0.964754 1.77131 0
M  V30 578 C 56.2517 -1.86213 0.59868 0
M  V30 579 O 57.4577 -2.6244 0.695522 0
M  V30 580 C 55.9137 -1.76552 3.1362 0
M  V30 581 C 55.5217 -0.915185 4.38553 0
M  V30 582 C 57.2657 -2.48281 3.44321 0
M  V30 583 C 55.1727 -1.71225 5.66071 0
M  V30 584 H 54.1027 -0.363953 0.660344 0
M  V30 585 H 56.7537 -0.219181 1.82186 0
M  V30 586 H 55.1357 -2.55331 3.02691 0
M  V30 587 H 56.3097 -0.169217 4.60489 0
M  V30 588 H 54.6247 -0.310889 4.15238 0
M  V30 589 H 57.2217 -3.08382 4.36812 0
M  V30 590 H 57.5647 -3.20256 2.65973 0
M  V30 591 H 58.0977 -1.76507 3.56497 0
M  V30 592 H 54.8367 -1.03612 6.4726 0
M  V30 593 H 54.3567 -2.43331 5.48224 0
M  V30 594 H 56.0357 -2.27758 6.05587 0
M  V30 595 N 56.1678 -1.49265 -0.50573 0
M  V30 596 C 57.4138 -1.58748 -1.26202 0
M  V30 597 C 57.7468 -0.271227 -1.92297 0
M  V30 598 O 57.0218 0.724831 -1.80489 0
M  V30 599 C 57.3048 -2.74332 -2.33268 0
M  V30 600 C 57.1578 -4.15737 -1.71705 0
M  V30 601 C 58.4768 -2.85576 -3.34865 0
M  V30 602 H 55.5958 -0.577826 -0.457478 0
M  V30 603 H 58.2378 -1.81532 -0.560897 0
M  V30 604 H 56.3878 -2.55036 -2.93068 0
M  V30 605 H 58.0598 -4.46537 -1.15769 0
M  V30 606 H 56.3028 -4.21605 -1.02135 0
M  V30 607 H 56.9738 -4.92477 -2.49341 0
M  V30 608 H 59.4498 -3.03127 -2.8505 0
M  V30 609 H 58.3258 -3.68135 -4.07146 0
M  V30 610 H 58.5868 -1.94732 -3.96903 0
M  V30 611 N 57.6459 0.756429 -1.3826 0
M  V30 612 C 59.0619 1.0591 -1.19395 0
M  V30 613 C 59.2619 2.01459 -0.0406567 0
M  V30 614 O 58.3179 2.44909 0.614467 0
M  V30 615 C 59.6309 1.64191 -2.51916 0
M  V30 616 C 61.1789 1.76376 -2.58574 0
M  V30 617 C 61.6539 2.38069 -3.91264 0
M  V30 618 N 63.1449 2.45503 -3.92788 0
M  V30 619 C 63.8799 2.94126 -4.92217 0
M  V30 620 N 63.3759 3.42805 -6.02043 0
M  V30 621 N 65.1689 2.9314 -4.7961 0
M  V30 622 H 57.3199 0.122313 -2.12048 0
M  V30 623 H 59.5829 0.116892 -0.940766 0
M  V30 624 H 59.2889 1.01451 -3.3675 0
M  V30 625 H 59.1629 2.6329 -2.70108 0
M  V30 626 H 61.5499 2.38244 -1.74137 0
M  V30 627 H 61.6309 0.759894 -2.44252 0
M  V30 628 H 61.2749 1.76835 -4.76121 0
M  V30 629 H 61.2049 3.39091 -4.02895 0
M  V30 630 H 63.6959 2.1107 -3.13461 0
M  V30 631 H 64.0089 3.78354 -6.73846 0
M  V30 632 H 62.3539 3.4087 -6.05667 0
M  V30 633 H 65.5449 2.54419 -3.92923 0
M  V30 634 H 65.7179 3.30721 -5.5725 0
M  V30 635 N 59.124 1.23083 0.984299 0
M  V30 636 C 60.074 0.975749 2.06066 0
M  V30 637 C 61.058 -0.0768251 1.60716 0
M  V30 638 O 62.25 0.134805 1.76486 0
M  V30 639 C 59.379 0.564673 3.38624 0
M  V30 640 C 58.465 1.65244 3.90583 0
M  V30 641 N 58.856 2.88193 4.15666 0
M  V30 642 C 57.154 1.52612 4.19077 0
M  V30 643 C 57.855 3.58593 4.58024 0
M  V30 644 N 56.831 2.86093 4.62225 0
M  V30 645 H 60.633 1.90957 2.23411 0
M  V30 646 H 58.147 1.12963 1.16675 0
M  V30 647 H 60.144 0.36322 4.15315 0
M  V30 648 H 58.804 -0.362147 3.22674 0
M  V30 649 H 59.815 3.24537 4.03604 0
M  V30 650 H 56.492 0.666121 4.12152 0
M  V30 651 H 57.882 4.63974 4.85982 0
M  V30 652 N 60.6021 -1.18246 1.0419 0
M  V30 653 C 61.8501 -1.87886 0.744543 0
M  V30 654 C 62.1711 -1.8082 -0.730006 0
M  V30 655 O 61.4411 -1.22736 -1.52685 0
M  V30 656 H 60.0211 -0.695556 0.272417 0
M  V30 657 H 62.6831 -1.43494 1.31892 0
M  V30 658 H 61.7791 -2.9389 1.05049 0
M  V30 659 N 62.0802 -0.821533 -1.34494 0
M  V30 660 C 63.3282 -0.408139 -1.97936 0
M  V30 661 C 63.6492 1.03193 -1.65457 0
M  V30 662 O 62.9192 1.71622 -0.944595 0
M  V30 663 H 61.4992 -0.147928 -0.732206 0
M  V30 664 H 64.1612 -1.05067 -1.64155 0
M  V30 665 H 63.2572 -0.52601 -3.07635 0
M  V30 666 N 63.5583 1.46682 -0.576371 0
M  V30 667 C 64.9743 1.57822 -0.237562 0
M  V30 668 C 65.1743 1.57237 1.26011 0
M  V30 669 O 64.2303 1.48596 2.04146 0
M  V30 670 C 65.5433 2.87499 -0.881168 0
M  V30 671 C 67.0913 3.01119 -0.85417 0
M  V30 672 C 67.5663 4.33524 -1.4772 0
M  V30 673 N 69.0573 4.40207 -1.44125 0
M  V30 674 C 69.7923 5.4126 -1.89276 0
M  V30 675 N 69.2883 6.49021 -2.42371 0
M  V30 676 N 71.0813 5.32422 -1.80231 0
M  V30 677 H 63.2323 1.45306 -1.54919 0
M  V30 678 H 65.4953 0.692733 -0.647167 0
M  V30 679 H 65.2013 2.9372 -1.93447 0
M  V30 680 H 65.0753 3.75224 -0.385592 0
M  V30 681 H 67.4623 2.94485 0.190491 0
M  V30 682 H 67.5433 2.14887 -1.3877 0
M  V30 683 H 67.1873 4.40916 -2.52103 0
M  V30 684 H 67.1173 5.1852 -0.918947 0
M  V30 685 H 69.6083 3.62931 -1.05307 0
M  V30 686 H 69.9213 7.2233 -2.74698 0
M  V30 687 H 68.2663 6.49858 -2.46393 0
M  V30 688 H 71.4573 4.47137 -1.38514 0
M  V30 689 H 71.6303 6.11034 -2.15735 0
M  V30 690 N 65.0364 0.313813 1.54444 0
M  V30 691 C 65.9464 -0.565714 2.27677 0
M  V30 692 C 66.9624 -1.13754 1.31666 0
M  V30 693 O 68.1384 -1.15959 1.64668 0
M  V30 694 C 65.2034 -1.71528 3.01296 0
M  V30 695 C 64.2644 -1.17624 4.12872 0
M  V30 696 C 63.4974 -2.27102 4.8297 0
M  V30 697 O 63.7204 -3.47256 4.52514 0
M  V30 698 O 62.6544 -1.9307 5.70094 0
M  V30 699 H 66.4804 0.0287296 3.03686 0
M  V30 700 H 64.0654 0.0798312 1.49187 0
M  V30 701 H 65.9474 -2.38476 3.4743 0
M  V30 702 H 64.6224 -2.29608 2.2817 0
M  V30 703 H 63.5294 -0.472124 3.71109 0
M  V30 704 H 64.8624 -0.640695 4.88012 0
M  V30 705 N 66.5145 -1.57545 0.0417849 0
M  V30 706 C 67.4245 -2.14451 -0.951213 0
M  V30 707 C 68.4405 -1.09992 -1.34825 0
M  V30 708 O 69.6165 -1.42114 -1.42708 0
M  V30 709 C 66.6815 -2.67063 -2.21084 0
M  V30 710 C 65.7425 -3.86284 -1.87304 0
M  V30 711 C 64.9755 -4.36378 -3.07261 0
M  V30 712 O 65.1985 -3.85587 -4.20332 0
M  V30 713 O 64.1325 -5.28077 -2.88822 0
M  V30 714 H 67.9585 -2.99601 -0.497287 0
M  V30 715 H 65.5435 -1.48317 -0.179567 0
M  V30 716 H 67.4255 -3.00914 -2.95006 0
M  V30 717 H 66.1005 -1.84989 -2.65633 0
M  V30 718 H 65.0075 -3.57338 -1.10727 0
M  V30 719 H 66.3405 -4.6956 -1.47562 0
M  V30 720 N 67.9926 0.231505 -1.5589 0
M  V30 721 C 69.2696 0.981096 -1.69215 0
M  V30 722 C 69.6496 2.02799 -0.586164 0
M  V30 723 O 68.9976 2.24823 0.408253 0
M  V30 724 C 69.2076 1.60054 -3.10135 0
M  V30 725 C 70.5556 2.09658 -3.69227 0
M  V30 726 O 71.5796 1.69967 -3.13033 0
M  V30 727 O 70.4386 2.8258 -4.67772 0
M  V30 728 H 67.5326 0.457653 -0.688827 0
M  V30 729 H 70.0786 0.224073 -1.68214 0
M  V30 730 H 68.8506 0.844105 -3.82087 0
M  V30 731 H 68.4736 2.42336 -3.15212 0
M  V30 732 N 69.4707 1.49531 0.497807 0
M  V30 733 C 70.7197 1.58426 1.24837 0
M  V30 734 C 71.0327 0.277643 1.93619 0
M  V30 735 O 72.2387 0.24517 2.70391 0
M  V30 736 C 70.6947 2.79538 2.26686 0
M  V30 737 C 70.3027 4.16971 1.63828 0
M  V30 738 C 72.0467 2.97764 3.0255 0
M  V30 739 C 69.9537 5.29301 2.63807 0
M  V30 740 H 68.8837 0.58989 0.469623 0
M  V30 741 H 71.5347 1.75923 0.521857 0
M  V30 742 H 69.9167 2.55542 3.02514 0
M  V30 743 H 71.0907 4.51116 0.939711 0
M  V30 744 H 69.4057 4.04129 1.00342 0
M  V30 745 H 72.0027 3.78856 3.77323 0
M  V30 746 H 72.3457 2.08448 3.60354 0
M  V30 747 H 72.8787 3.21815 2.33838 0
M  V30 748 H 69.6177 6.20687 2.10779 0
M  V30 749 H 69.1377 4.99606 3.31894 0
M  V30 750 H 70.8167 5.58768 3.2617 0
M  V30 751 N 70.9488 -0.749086 1.3866 0
M  V30 752 C 72.1768 -1.53834 1.38358 0
M  V30 753 C 72.5918 -1.88783 -0.0255219 0
M  V30 754 O 71.9488 -1.53101 -0.993292 0
M  V30 755 C 71.9998 -2.83468 2.2434 0
M  V30 756 O 71.7208 -2.50008 3.5976 0
M  V30 757 C 73.2218 -3.7758 2.32267 0
M  V30 758 H 70.4418 -0.47585 0.473083 0
M  V30 759 H 72.9858 -0.926726 1.82297 0
M  V30 760 H 71.1408 -3.40995 1.83851 0
M  V30 761 H 71.5548 -3.33182 4.05081 0
M  V30 762 H 73.0288 -4.65478 2.96706 0
M  V30 763 H 73.5058 -4.18334 1.33765 0
M  V30 764 H 74.1118 -3.25976 2.73166 0
M  V30 765 N 72.4269 -1.23603 -0.977757 0
M  V30 766 C 73.3569 -1.04401 -2.0886 0
M  V30 767 C 74.3379 0.0399052 -1.70053 0
M  V30 768 O 75.5229 -0.125246 -1.93796 0
M  V30 769 C 72.6529 -0.637269 -3.41403 0
M  V30 770 C 71.6069 -1.66883 -3.94124 0
M  V30 771 C 70.9329 -1.11745 -5.22893 0
M  V30 772 C 72.2329 -3.06247 -4.23096 0
M  V30 773 H 73.9269 -1.97316 -2.25182 0
M  V30 774 H 71.4729 -0.950096 -1.08209 0
M  V30 775 H 73.4259 -0.48998 -4.18542 0
M  V30 776 H 72.1499 0.327557 -3.24953 0
M  V30 777 H 70.8089 -1.80416 -3.19133 0
M  V30 778 H 70.4569 -0.143527 -5.02795 0
M  V30 779 H 70.1569 -1.80672 -5.59134 0
M  V30 780 H 71.6809 -0.982067 -6.02651 0
M  V30 781 H 73.0949 -2.96001 -4.90975 0
M  V30 782 H 71.4919 -3.72436 -4.70544 0
M  V30 783 H 72.5619 -3.55041 -3.30263 0
M  V30 784 N 73.905 1.17692 -1.04816 0
M  V30 785 C 75.151 1.88137 -0.75711 0
M  V30 786 C 75.484 1.80604 0.713841 0
M  V30 787 O 74.759 1.21146 1.52164 0
M  V30 788 C 75.042 3.38318 -1.2334 0
M  V30 789 C 74.895 3.54622 -2.76701 0
M  V30 790 C 76.214 4.32214 -0.829415 0
M  V30 791 H 73.333 0.683163 -0.27651 0
M  V30 792 H 75.975 1.38424 -1.30149 0
M  V30 793 H 74.125 3.80787 -0.770286 0
M  V30 794 H 75.797 3.21194 -3.31107 0
M  V30 795 H 74.04 2.97026 -3.16161 0
M  V30 796 H 74.711 4.60028 -3.05088 0
M  V30 797 H 77.187 3.97565 -1.22805 0
M  V30 798 H 76.063 5.35838 -1.19033 0
M  V30 799 H 76.324 4.41294 0.266891 0
M  V30 800 N 75.3831 0.828654 1.34056 0
M  V30 801 C 76.7991 0.515135 1.51058 0
M  V30 802 C 76.9991 -0.959581 1.77184 0
M  V30 803 O 76.0551 -1.74382 1.82612 0
M  V30 804 C 77.3681 1.37963 2.67183 0
M  V30 805 C 78.9161 1.37735 2.81066 0
M  V30 806 C 79.3911 2.22645 4.00241 0
M  V30 807 N 80.8821 2.203 4.07458 0
M  V30 808 C 81.6171 2.82744 4.98842 0
M  V30 809 N 81.1131 3.54201 5.9541 0
M  V30 810 N 82.9061 2.72268 4.91759 0
M  V30 811 H 75.0571 1.78343 1.15358 0
M  V30 812 H 77.3201 0.760304 0.566252 0
M  V30 813 H 77.0261 2.42714 2.54525 0
M  V30 814 H 76.9001 1.0484 3.62338 0
M  V30 815 H 79.2871 0.337593 2.93163 0
M  V30 816 H 79.3681 1.74859 1.86703 0
M  V30 817 H 79.0121 3.26674 3.88905 0
M  V30 818 H 78.9421 1.82869 4.93829 0
M  V30 819 H 81.4331 1.68327 3.38341 0
M  V30 820 H 81.7461 3.9908 6.61782 0
M  V30 821 H 80.0911 3.58308 5.95517 0
M  V30 822 H 83.2821 2.16014 4.15278 0
M  V30 823 H 83.4551 3.21219 5.62781 0
M  V30 824 N 76.8612 -1.46375 0.584142 0
M  V30 825 C 78.1072 -2.02678 0.0703716 0
M  V30 826 C 78.4402 -1.4545 -1.28678 0
M  V30 827 O 77.7152 -0.62014 -1.84349 0
M  V30 828 C 77.9982 -3.60099 0.00614674 0
M  V30 829 C 77.8512 -4.27709 1.3923 0
M  V30 830 C 79.1702 -4.34598 -0.693742 0
M  V30 831 H 76.2892 -0.736504 0.027047 0
M  V30 832 H 78.9312 -1.74501 0.751615 0
M  V30 833 H 77.0812 -3.84236 -0.574009 0
M  V30 834 H 78.7532 -4.14832 2.01773 0
M  V30 835 H 76.9962 -3.87016 1.95962 0
M  V30 836 H 77.6672 -5.36478 1.29982 0
M  V30 837 H 80.1432 -4.15615 -0.200869 0
M  V30 838 H 79.0192 -5.44318 -0.707714 0
M  V30 839 H 79.2802 -4.05759 -1.75533 0
M  V30 840 N 78.3393 -0.321999 -1.54275 0
M  V30 841 C 79.7503 0.166384 -1.85957 0
M  V30 842 C 80.1013 1.51747 -1.24367 0
M  V30 843 O 79.2263 2.09317 -0.549124 0
M  V30 844 C 79.8213 0.308681 -3.37391 0
M  V30 845 C 78.3803 0.741286 -3.69028 0
M  V30 846 C 77.5273 -0.137937 -2.76957 0
M  V30 847 H 80.4783 -0.542335 -1.49146 0
M  V30 848 H 80.4993 1.13984 -3.63026 0
M  V30 849 H 80.0113 -0.674809 -3.82188 0
M  V30 850 H 78.1123 1.73458 -3.29762 0
M  V30 851 H 78.2253 0.546118 -4.75977 0
M  V30 852 H 76.5893 0.386251 -2.51754 0
M  V30 853 H 77.3723 -1.11816 -3.2458 0
M  V30 854 N 79.8174 1.5752 -0.0501392 0
M  V30 855 C 81.0654 1.9227 0.622642 0
M  V30 856 C 81.3864 0.929083 1.71444 0
M  V30 857 O 80.6564 -0.0262186 1.95882 0
M  V30 858 H 79.2364 0.709739 0.232981 0
M  V30 859 H 81.8984 1.94628 -0.102898 0
M  V30 860 H 80.9944 2.93479 1.06191 0
M  V30 861 N 81.2955 -0.223234 1.56011 0
M  V30 862 C 82.5205 -0.968978 1.83373 0
M  V30 863 C 82.9455 -1.77227 0.630254 0
M  V30 864 O 82.3035 -1.76345 -0.420959 0
M  V30 865 C 82.3515 -1.86363 3.08709 0
M  V30 866 O 81.4555 -2.95873 2.87285 0
M  V30 867 H 80.7965 -0.274461 0.604622 0
M  V30 868 H 83.3265 -0.237056 2.03222 0
M  V30 869 H 83.3365 -2.27376 3.38768 0
M  V30 870 H 82.0115 -1.27319 3.95933 0
M  V30 871 H 80.5885 -2.58818 2.68454 0
M  V30 872 N 82.7736 -1.49793 -0.48987 0
M  V30 873 C 84.0196 -1.61049 -1.24236 0
M  V30 874 C 84.3746 -0.298412 -1.90072 0
M  V30 875 O 83.6676 0.702262 -1.78266 0
M  V30 876 C 83.8616 -2.71488 -2.32441 0
M  V30 877 C 83.6906 -4.13308 -1.77218 0
M  V30 878 C 82.4606 -4.79955 -1.58023 0
M  V30 879 C 84.6586 -4.98176 -1.27772 0
M  V30 880 N 82.6406 -6.06052 -0.978465 0
M  V30 881 C 84.0116 -6.14843 -0.798 0
M  V30 882 C 86.0666 -4.84091 -1.16449 0
M  V30 883 C 84.7696 -7.18975 -0.216245 0
M  V30 884 C 86.7956 -5.88382 -0.596698 0
M  V30 885 C 86.1576 -7.04285 -0.127262 0
M  V30 886 H 82.2566 -0.643611 -0.444172 0
M  V30 887 H 84.8406 -1.86842 -0.54754 0
M  V30 888 H 83.0116 -2.47449 -2.99372 0
M  V30 889 H 84.7436 -2.72205 -2.99477 0
M  V30 890 H 81.4986 -4.36936 -1.82712 0
M  V30 891 H 81.9226 -6.73407 -0.696534 0
M  V30 892 H 86.5646 -3.94786 -1.5134 0
M  V30 893 H 84.2826 -8.0797 0.144903 0
M  V30 894 H 87.8686 -5.79545 -0.511716 0
M  V30 895 H 86.7486 -7.83606 0.30523 0
M  V30 896 N 84.2517 0.741722 -1.39055 0
M  V30 897 C 85.1617 1.88621 -1.39496 0
M  V30 898 C 86.1777 1.71557 -0.290578 0
M  V30 899 O 87.3537 1.94275 -0.530954 0
M  V30 900 C 84.4187 3.24134 -1.23037 0
M  V30 901 C 83.4797 3.5364 -2.43387 0
M  V30 902 C 82.7127 4.82687 -2.27703 0
M  V30 903 O 82.9357 5.55922 -1.27696 0
M  V30 904 O 81.8697 5.1194 -3.16545 0
M  V30 905 H 85.6957 1.91203 -2.35956 0
M  V30 906 H 83.2807 0.888625 -1.20099 0
M  V30 907 H 85.1627 4.0513 -1.15964 0
M  V30 908 H 83.8377 3.22337 -0.296691 0
M  V30 909 H 82.7447 2.72758 -2.56035 0
M  V30 910 H 84.0777 3.60209 -3.35425 0
M  V30 911 N 85.7298 1.2412 0.971189 0
M  V30 912 C 86.9788 1.07284 1.70801 0
M  V30 913 C 87.2918 -0.388902 1.91695 0
M  V30 914 O 88.4978 -0.677379 2.62914 0
M  V30 915 C 86.9538 1.87145 3.07416 0
M  V30 916 C 86.5618 3.37707 2.94377 0
M  V30 917 C 88.3058 1.78828 3.84995 0
M  V30 918 C 86.2128 4.09925 4.26281 0
M  V30 919 H 85.1428 0.397854 0.64049 0
M  V30 920 H 87.7938 1.4817 1.0825 0
M  V30 921 H 86.1758 1.39071 3.70777 0
M  V30 922 H 87.3498 3.93335 2.4005 0
M  V30 923 H 85.6648 3.46938 2.30267 0
M  V30 924 H 88.2618 2.30089 4.82662 0
M  V30 925 H 88.6048 0.75284 4.09436 0
M  V30 926 H 89.1378 2.24563 3.28354 0
M  V30 927 H 85.8768 5.13813 4.07033 0
M  V30 928 H 85.3968 3.59083 4.80437 0
M  V30 929 H 87.0758 4.1673 4.94919 0
M  V30 930 N 87.2079 -1.17134 1.05439 0
M  V30 931 C 88.6189 -1.69084 0.791676 0
M  V30 932 C 88.9699 -1.83822 -0.685839 0
M  V30 933 O 88.0949 -1.52757 -1.53278 0
M  V30 934 C 88.6899 -3.07119 1.4305 0
M  V30 935 C 87.2489 -3.56225 1.21577 0
M  V30 936 C 86.3959 -2.32421 1.51247 0
M  V30 937 H 89.3469 -1.01617 1.219 0
M  V30 938 H 89.3679 -3.71087 0.84112 0
M  V30 939 H 88.8799 -2.9636 2.50584 0
M  V30 940 H 86.9809 -3.72257 0.159787 0
M  V30 941 H 87.0939 -4.38837 1.92246 0
M  V30 942 H 85.4579 -2.3701 0.932653 0
M  V30 943 H 86.2409 -2.24268 2.5992 0
M  V30 944 N 88.686 -0.835752 -1.33615 0
M  V30 945 C 89.932 -0.430596 -1.98176 0
M  V30 946 C 90.265 1.00684 -1.66061 0
M  V30 947 O 89.54 1.70339 -0.938877 0
M  V30 948 C 89.823 -0.648065 -3.5422 0
M  V30 949 C 89.676 -2.13255 -3.96033 0
M  V30 950 C 90.995 -0.0922113 -4.40003 0
M  V30 951 H 88.114 -0.157924 -0.719881 0
M  V30 952 H 90.756 -1.05069 -1.58305 0
M  V30 953 H 88.906 -0.120237 -3.88314 0
M  V30 954 H 90.578 -2.725 -3.72211 0
M  V30 955 H 88.821 -2.61823 -3.45878 0
M  V30 956 H 89.492 -2.23547 -5.04708 0
M  V30 957 H 91.968 -0.543343 -4.12537 0
M  V30 958 H 90.844 -0.274083 -5.48215 0
M  V30 959 H 91.105 1.00378 -4.30554 0
M  V30 960 N 90.1641 1.46063 -0.591896 0
M  V30 961 C 91.1271 2.28854 0.125973 0
M  V30 962 C 92.1271 1.38903 0.810107 0
M  V30 963 O 93.3171 1.61186 0.66066 0
M  V30 964 C 90.4491 3.19526 1.1881 0
M  V30 965 H 91.6421 2.93802 -0.601717 0
M  V30 966 H 89.1951 1.52325 -0.350254 0
M  V30 967 H 89.9301 2.59345 1.94707 0
M  V30 968 H 89.7151 3.85766 0.701936 0
M  V30 969 H 91.2051 3.81817 1.69132 0
M  V30 970 N 91.6422 0.330177 1.54103 0
M  V30 971 C 92.6052 -0.520144 2.2322 0
M  V30 972 C 93.6052 -1.03828 1.22786 0
M  V30 973 O 94.7952 -0.929652 1.4732 0
M  V30 974 C 91.9272 -1.72317 2.94142 0
M  V30 975 H 93.1202 0.0841605 2.99782 0
M  V30 976 H 90.6732 0.0813433 1.56088 0
M  V30 977 H 91.4082 -2.36653 2.21734 0
M  V30 978 H 91.1932 -1.35898 3.67796 0
M  V30 979 H 92.6832 -2.3266 3.46784 0
M  V30 980 N 93.1203 -1.57491 0.0584922 0
M  V30 981 C 94.3683 -1.92597 -0.612436 0
M  V30 982 C 94.6893 -0.938162 -1.70949 0
M  V30 983 O 93.9593 0.0158301 -1.95894 0
M  V30 984 H 92.5393 -0.710964 -0.229214 0
M  V30 985 H 95.2013 -1.94571 0.113218 0
M  V30 986 H 94.2973 -2.94038 -1.04633 0
M  V30 987 N 94.5984 0.214957 -1.56127 0
M  V30 988 C 95.5084 1.28727 -1.96129 0
M  V30 989 C 96.5244 1.50916 -0.866044 0
M  V30 990 O 97.7004 1.63918 -1.17016 0
M  V30 991 C 94.7654 2.61569 -2.27558 0
M  V30 992 C 93.8264 2.47625 -3.50685 0
M  V30 993 C 93.0594 3.74132 -3.80606 0
M  V30 994 O 93.2824 4.77438 -3.12104 0
M  V30 995 O 92.2164 3.70849 -4.74083 0
M  V30 996 H 96.0424 0.977855 -2.87527 0
M  V30 997 H 93.6274 0.418358 -1.43423 0
M  V30 998 H 95.5094 3.40012 -2.48938 0
M  V30 999 H 94.1844 2.92178 -1.39332 0
M  V30 1000 H 93.0914 1.67361 -3.34576 0
M  V30 1001 H 94.4244 2.21954 -4.39315 0
M  V30 1002 N 96.0765 1.50051 0.48192 0
M  V30 1003 C 97.0065 1.71046 1.58951 0
M  V30 1004 C 97.9875 0.559288 1.60642 0
M  V30 1005 O 99.1725 0.797243 1.77081 0
M  V30 1006 C 96.3025 1.79462 2.97339 0
M  V30 1007 C 95.2565 2.94558 3.10515 0
M  V30 1008 C 94.5825 2.88105 4.50444 0
M  V30 1009 C 95.8825 4.35227 2.88747 0
M  V30 1010 H 97.5765 2.6378 1.41635 0
M  V30 1011 H 95.1225 1.26936 0.679942 0
M  V30 1012 H 97.0755 1.92734 3.74742 0
M  V30 1013 H 95.7995 0.833412 3.15788 0
M  V30 1014 H 94.4585 2.80918 2.35543 0
M  V30 1015 H 94.1065 1.89853 4.65795 0
M  V30 1016 H 93.8065 3.65366 4.60197 0
M  V30 1017 H 95.3305 3.03412 5.29881 0
M  V30 1018 H 96.7445 4.49449 3.55905 0
M  V30 1019 H 95.1415 5.13856 3.09955 0
M  V30 1020 H 96.2115 4.48347 1.84696 0
M  V30 1021 N 97.5546 -0.734337 1.39446 0
M  V30 1022 C 98.5176 -1.83004 1.37994 0
M  V30 1023 C 99.5176 -1.58397 0.276938 0
M  V30 1024 O 100.708 -1.65785 0.534875 0
M  V30 1025 C 97.8396 -3.20802 1.1532 0
M  V30 1026 H 99.0326 -1.85694 2.35494 0
M  V30 1027 H 96.5856 -0.938059 1.25021 0
M  V30 1028 H 97.3206 -3.23772 0.185036 0
M  V30 1029 H 97.1056 -3.4006 1.95197 0
M  V30 1030 H 98.5956 -4.00862 1.17046 0
M  V30 1031 N 99.0327 -1.24633 -0.964593 0
M  V30 1032 C 100.449 -1.01239 -1.2338 0
M  V30 1033 C 100.649 0.2769 -1.99588 0
M  V30 1034 O 99.7047 0.992241 -2.32187 0
M  V30 1035 C 101.018 -2.22937 -2.01791 0
M  V30 1036 C 102.566 -2.27594 -2.14872 0
M  V30 1037 C 103.041 -3.48921 -2.96678 0
M  V30 1038 N 104.532 -3.49257 -3.04259 0
M  V30 1039 C 105.267 -4.39795 -3.67924 0
M  V30 1040 N 104.763 -5.40591 -4.33281 0
M  V30 1041 N 106.556 -4.275 -3.64966 0
M  V30 1042 H 98.7067 -2.0748 -0.454502 0
M  V30 1043 H 100.97 -0.910647 -0.26349 0
M  V30 1044 H 100.676 -3.16587 -1.53184 0
M  V30 1045 H 100.55 -2.25306 -3.02518 0
M  V30 1046 H 102.937 -1.34473 -2.6268 0
M  V30 1047 H 103.018 -2.2925 -1.13482 0
M  V30 1048 H 102.662 -4.42359 -2.49562 0
M  V30 1049 H 102.592 -3.4451 -3.98272 0
M  V30 1050 H 105.083 -2.76337 -2.57771 0
M  V30 1051 H 105.396 -6.05904 -4.79687 0
M  V30 1052 H 103.741 -5.44475 -4.3194 0
M  V30 1053 H 106.932 -3.47987 -3.13086 0
M  V30 1054 H 107.105 -4.98258 -4.14298 0
M  V30 1055 N 100.511 1.16574 -1.06058 0
M  V30 1056 C 101.458 2.20883 -0.669263 0
M  V30 1057 C 102.428 1.62729 0.332918 0
M  V30 1058 O 103.613 1.895 0.222346 0
M  V30 1059 C 100.753 3.45049 -0.0593572 0
M  V30 1060 C 99.8658 4.17458 -1.11143 0
M  V30 1061 C 99.0008 5.29135 -0.467916 0
M  V30 1062 C 98.0398 5.93343 -1.50369 0
M  V30 1063 N 97.1768 6.96516 -0.883706 0
M  V30 1064 H 102.017 2.53709 -1.5632 0
M  V30 1065 H 99.5538 1.24616 -0.781625 0
M  V30 1066 H 101.512 4.16033 0.311771 0
M  V30 1067 H 100.142 3.12781 0.797992 0
M  V30 1068 H 99.1938 3.45101 -1.60029 0
M  V30 1069 H 100.506 4.61307 -1.89731 0
M  V30 1070 H 99.6598 6.06684 -0.0436871 0
M  V30 1071 H 98.3988 4.86443 0.349864 0
M  V30 1072 H 97.4038 5.14517 -1.93784 0
M  V30 1073 H 98.6288 6.38114 -2.32352 0
M  V30 1074 H 96.5748 6.55943 -0.086595 0
M  V30 1075 H 96.4918 7.38723 -1.607 0
M  V30 1076 H 97.7598 7.77993 -0.484543 0
M  V30 1077 N 101.989 0.842826 1.3317 0
M  V30 1078 C 102.899 0.281444 2.32906 0
M  V30 1079 C 103.915 -0.594587 1.63526 0
M  V30 1080 O 105.091 -0.49777 1.95152 0
M  V30 1081 C 102.156 -0.530929 3.42611 0
M  V30 1082 C 101.217 0.369843 4.27704 0
M  V30 1083 C 100.45 -0.403853 5.3217 0
M  V30 1084 O 100.673 -1.63513 5.46461 0
M  V30 1085 O 99.6069 0.224199 6.01482 0
M  V30 1086 H 103.433 1.10744 2.82789 0
M  V30 1087 H 101.018 0.60545 1.36582 0
M  V30 1088 H 102.9 -0.992437 4.09547 0
M  V30 1089 H 101.575 -1.33392 2.94938 0
M  V30 1090 H 100.482 0.879275 3.6362 0
M  V30 1091 H 101.815 1.13771 4.78871 0
M  V30 1092 N 103.467 -1.45747 0.599634 0
M  V30 1093 C 104.744 -1.95585 0.0240846 0
M  V30 1094 C 105.124 -1.54217 -1.44154 0
M  V30 1095 O 104.472 -0.800903 -2.14004 0
M  V30 1096 C 104.682 -3.48344 0.21385 0
M  V30 1097 C 106.03 -4.24504 0.0904902 0
M  V30 1098 O 107.054 -3.55911 0.143558 0
M  V30 1099 O 105.913 -5.46491 -0.0310766 0
M  V30 1100 H 103.007 -0.82602 -0.0402478 0
M  V30 1101 H 105.553 -1.55951 0.669139 0
M  V30 1102 H 104.325 -3.71397 1.23206 0
M  V30 1103 H 103.948 -3.9485 -0.466842 0
M  V30 1104 N 104.945 -0.338344 -1.53925 0
M  V30 1105 C 106.194 0.260732 -2.00008 0
M  V30 1106 C 106.507 1.52073 -1.23017 0
M  V30 1107 O 107.713 2.19672 -1.5955 0
M  V30 1108 C 106.169 0.51515 -3.56194 0
M  V30 1109 C 105.777 -0.728645 -4.42035 0
M  V30 1110 C 107.521 1.07337 -4.10706 0
M  V30 1111 C 105.428 -0.445315 -5.89721 0
M  V30 1112 H 104.358 0.101205 -0.747177 0
M  V30 1113 H 107.009 -0.452866 -1.77824 0
M  V30 1114 H 105.391 1.28932 -3.74423 0
M  V30 1115 H 106.565 -1.50352 -4.35581 0
M  V30 1116 H 104.88 -1.20813 -3.98489 0
M  V30 1117 H 107.477 1.30022 -5.18651 0
M  V30 1118 H 107.82 2.0273 -3.63602 0
M  V30 1119 H 108.353 0.360034 -3.96167 0
M  V30 1120 H 105.092 -1.36883 -6.41049 0
M  V30 1121 H 104.612 0.291569 -5.99091 0
M  V30 1122 H 106.291 -0.0606218 -6.46972 0
M  V30 1123 N 106.423 1.57458 -0.0668435 0
M  V30 1124 C 107.7 1.8469 0.644132 0
M  V30 1125 C 108.08 0.958343 1.88093 0
M  V30 1126 O 107.428 0.0233579 2.28488 0
M  V30 1127 C 107.638 3.34767 0.986509 0
M  V30 1128 C 108.986 4.02159 1.36212 0
M  V30 1129 O 110.01 3.39484 1.07839 0
M  V30 1130 O 108.869 5.12694 1.89227 0
M  V30 1131 H 105.963 0.762816 0.319437 0
M  V30 1132 H 108.509 1.6942 -0.0973986 0
M  V30 1133 H 107.281 3.91151 0.107883 0
M  V30 1134 H 106.904 3.55281 1.78497 0
M  V30 1135 N 107.901 -0.206675 1.56239 0
M  V30 1136 C 108.864 -1.23976 1.92776 0
M  V30 1137 C 109.864 -1.39041 0.807729 0
M  V30 1138 O 111.054 -1.37051 1.0753 0
M  V30 1139 C 108.186 -2.61112 2.19165 0
M  V30 1140 H 109.379 -0.927764 2.85189 0
M  V30 1141 H 106.932 -0.447718 1.4975 0
M  V30 1142 H 107.667 -2.97386 1.29352 0
M  V30 1143 H 107.452 -2.51552 3.00772 0
M  V30 1144 H 108.942 -3.35633 2.48476 0
M  V30 1145 N 109.379 -1.50304 -0.473955 0
M  V30 1146 C 110.625 -1.61389 -1.22806 0
M  V30 1147 C 110.958 -0.311955 -1.91678 0
M  V30 1148 O 110.233 0.686384 -1.81986 0
M  V30 1149 C 110.516 -2.79219 -2.27396 0
M  V30 1150 C 110.369 -4.19286 -1.62848 0
M  V30 1151 C 111.688 -2.92614 -3.28732 0
M  V30 1152 H 108.807 -0.587399 -0.445119 0
M  V30 1153 H 111.449 -1.82681 -0.522265 0
M  V30 1154 H 109.599 -2.61195 -2.87592 0
M  V30 1155 H 111.271 -4.48892 -1.06271 0
M  V30 1156 H 109.514 -4.23677 -0.931693 0
M  V30 1157 H 110.185 -4.97655 -2.38838 0
M  V30 1158 H 112.661 -3.09105 -2.78556 0
M  V30 1159 H 111.537 -3.76688 -3.99246 0
M  V30 1160 H 111.798 -2.03107 -3.92683 0
M  V30 1161 N 110.857 0.726932 -1.39834 0
M  V30 1162 C 112.106 1.48214 -1.36805 0
M  V30 1163 C 112.419 1.95576 0.0305291 0
M  V30 1164 O 113.625 2.7088 0.183417 0
M  V30 1165 C 112.081 2.67854 -2.40379 0
M  V30 1166 C 111.689 2.27408 -3.85992 0
M  V30 1167 C 113.433 3.45641 -2.46439 0
M  V30 1168 C 111.34 3.43819 -4.81189 0
M  V30 1169 H 110.27 0.556606 -0.508631 0
M  V30 1170 H 112.921 0.792216 -1.65518 0
M  V30 1171 H 111.303 3.3896 -2.04749 0
M  V30 1172 H 112.477 1.63795 -4.30706 0
M  V30 1173 H 110.792 1.62692 -3.83302 0
M  V30 1174 H 113.389 4.32244 -3.14753 0
M  V30 1175 H 113.732 3.88669 -1.49139 0
M  V30 1176 H 114.265 2.8157 -2.81004 0
M  V30 1177 H 111.004 3.05834 -5.79781 0
M  V30 1178 H 110.524 4.06385 -4.41148 0
M  V30 1179 H 112.203 4.10043 -5.00474 0
M  V30 1180 N 112.336 1.25143 0.95797 0
M  V30 1181 C 113.299 1.05321 2.03569 0
M  V30 1182 C 114.299 0.007152 1.60798 0
M  V30 1183 O 115.489 0.24903 1.72411 0
M  V30 1184 C 112.621 0.598394 3.35607 0
M  V30 1185 H 113.814 2.00986 2.22586 0
M  V30 1186 H 111.367 1.07502 1.13459 0
M  V30 1187 H 112.102 -0.361014 3.22284 0
M  V30 1188 H 111.887 1.35351 3.67998 0
M  V30 1189 H 113.377 0.48104 4.1482 0
M  V30 1190 N 113.814 -1.1601 1.06675 0
M  V30 1191 C 115.063 -1.85973 0.780818 0
M  V30 1192 C 115.376 -1.82819 -0.695444 0
M  V30 1193 O 116.582 -2.484 -1.09589 0
M  V30 1194 C 115.038 -3.33757 1.34665 0
M  V30 1195 C 114.646 -3.45374 2.85343 0
M  V30 1196 C 116.39 -4.0895 1.13843 0
M  V30 1197 C 114.297 -4.87266 3.35151 0
M  V30 1198 H 113.227 -0.696661 0.288407 0
M  V30 1199 H 115.878 -1.30903 1.28595 0
M  V30 1200 H 114.26 -3.88456 0.769274 0
M  V30 1201 H 115.434 -3.00816 3.49065 0
M  V30 1202 H 113.749 -2.83619 3.04876 0
M  V30 1203 H 116.346 -5.13654 1.4854 0
M  V30 1204 H 116.689 -4.16229 0.0770282 0
M  V30 1205 H 117.222 -3.605 1.68179 0
M  V30 1206 H 113.961 -4.85168 4.40786 0
M  V30 1207 H 113.481 -5.32433 2.76179 0
M  V30 1208 H 115.16 -5.56097 3.30704 0
M  V30 1209 N 115.292 -0.849877 -1.32721 0
M  V30 1210 C 116.54 -0.450032 -1.97026 0
M  V30 1211 C 116.861 0.996604 -1.67609 0
M  V30 1212 O 116.131 1.6958 -0.980786 0
M  V30 1213 H 114.711 -0.163426 -0.728904 0
M  V30 1214 H 117.373 -1.08526 -1.6189 0
M  V30 1215 H 116.469 -0.591146 -3.0645 0
M  V30 1216 N 116.77 1.45427 -0.607355 0
M  V30 1217 C 118.016 2.0254 -0.102607 0
M  V30 1218 C 118.349 1.47478 1.26348 0
M  V30 1219 O 117.624 0.64939 1.83339 0
M  V30 1220 C 117.907 3.60044 -0.0634347 0
M  V30 1221 C 117.76 4.2544 -1.46017 0
M  V30 1222 C 119.079 4.35646 0.624514 0
M  V30 1223 H 116.198 0.73598 -0.0387607 0
M  V30 1224 H 118.84 1.73284 -0.779282 0
M  V30 1225 H 116.99 3.85101 0.512808 0
M  V30 1226 H 118.662 4.11569 -2.08347 0
M  V30 1227 H 116.905 3.83849 -2.02094 0
M  V30 1228 H 117.576 5.34342 -1.385 0
M  V30 1229 H 120.052 4.15882 0.134723 0
M  V30 1230 H 118.928 5.45376 0.621028 0
M  V30 1231 H 119.189 4.08501 1.69055 0
M  V30 1232 N 118.248 0.346503 1.53744 0
M  V30 1233 C 119.178 -0.501193 2.28058 0
M  V30 1234 C 120.159 -1.10014 1.29734 0
M  V30 1235 O 121.344 -1.12097 1.58581 0
M  V30 1236 C 118.474 -1.65078 3.05559 0
M  V30 1237 C 117.428 -1.18003 4.11411 0
M  V30 1238 C 116.754 -2.41837 4.76884 0
M  V30 1239 C 118.054 -0.278394 5.21558 0
M  V30 1240 H 119.748 0.11875 2.99164 0
M  V30 1241 H 117.294 0.0585531 1.43881 0
M  V30 1242 H 119.247 -2.25028 3.56287 0
M  V30 1243 H 117.971 -2.29767 2.32109 0
M  V30 1244 H 116.63 -0.603331 3.61601 0
M  V30 1245 H 116.278 -3.0494 4.00026 0
M  V30 1246 H 115.978 -2.1102 5.48402 0
M  V30 1247 H 117.502 -3.02508 5.30397 0
M  V30 1248 H 118.916 -0.784823 5.67903 0
M  V30 1249 H 117.313 -0.0619707 6.00068 0
M  V30 1250 H 118.383 0.684677 4.80042 0
M  V30 1251 N 119.726 -1.57421 0.075193 0
M  V30 1252 C 120.975 -1.92794 -0.592731 0
M  V30 1253 C 121.288 -0.957478 -1.70563 0
M  V30 1254 O 122.494 -1.20417 -2.43335 0
M  V30 1255 C 120.95 -3.42495 -1.10569 0
M  V30 1256 C 120.558 -4.47994 -0.0236121 0
M  V30 1257 C 122.302 -3.86864 -1.74748 0
M  V30 1258 C 120.209 -5.88829 -0.550803 0
M  V30 1259 H 119.139 -0.719591 -0.225177 0
M  V30 1260 H 121.79 -1.82902 0.147978 0
M  V30 1261 H 120.172 -3.47471 -1.89947 0
M  V30 1262 H 121.346 -4.54637 0.751099 0
M  V30 1263 H 119.661 -4.13113 0.522159 0
M  V30 1264 H 122.258 -4.8947 -2.15229 0
M  V30 1265 H 122.601 -3.24417 -2.60882 0
M  V30 1266 H 123.134 -3.84504 -1.01986 0
M  V30 1267 H 119.873 -6.54929 0.273457 0
M  V30 1268 H 119.393 -5.85698 -1.29296 0
M  V30 1269 H 121.072 -6.38811 -1.02613 0
M  V30 1270 N 121.204 0.198386 -1.56346 0
M  V30 1271 C 122.62 0.549085 -1.49857 0
M  V30 1272 C 122.82 1.86016 -0.774611 0
M  V30 1273 O 121.876 2.50416 -0.323776 0
M  V30 1274 C 123.189 0.606868 -2.94512 0
M  V30 1275 C 124.737 0.695925 -3.05165 0
M  V30 1276 C 125.212 0.784848 -4.51225 0
M  V30 1277 N 126.703 0.848463 -4.55363 0
M  V30 1278 C 127.438 0.937378 -5.65686 0
M  V30 1279 N 126.934 0.9888 -6.85707 0
M  V30 1280 N 128.727 0.974312 -5.53592 0
M  V30 1281 H 120.878 -0.661655 -2.01831 0
M  V30 1282 H 123.141 -0.235261 -0.918344 0
M  V30 1283 H 122.847 -0.28732 -3.50524 0
M  V30 1284 H 122.721 1.46268 -3.47686 0
M  V30 1285 H 125.108 1.58055 -2.49204 0
M  V30 1286 H 125.189 -0.186022 -2.55123 0
M  V30 1287 H 124.833 -0.0954072 -5.0781 0
M  V30 1288 H 124.763 1.68255 -4.98997 0
M  V30 1289 H 127.254 0.818103 -3.68938 0
M  V30 1290 H 127.567 1.05707 -7.65536 0
M  V30 1291 H 125.912 0.957534 -6.88372 0
M  V30 1292 H 129.103 0.930954 -4.58749 0
M  V30 1293 H 129.276 1.04015 -6.39597 0
M  V30 1294 N 122.682 1.50554 0.465978 0
M  V30 1295 C 123.93 1.61479 1.21528 0
M  V30 1296 C 124.251 0.319596 1.92363 0
M  V30 1297 O 123.521 -0.663194 1.84333 0
M  V30 1298 H 122.101 0.595055 0.451573 0
M  V30 1299 H 124.763 1.87355 0.53704 0
M  V30 1300 H 123.859 2.42846 1.96042 0
M  V30 1301 N 124.16 -0.719506 1.40217 0
M  V30 1302 C 125.123 -1.8153 1.39927 0
M  V30 1303 C 126.123 -1.58095 0.293723 0
M  V30 1304 O 127.313 -1.65209 0.552429 0
M  V30 1305 C 124.445 -3.19561 1.18716 0
M  V30 1306 H 125.638 -1.83186 2.37451 0
M  V30 1307 H 123.191 -0.924746 1.26008 0
M  V30 1308 H 123.926 -3.23557 0.219366 0
M  V30 1309 H 123.711 -3.3797 1.98793 0
M  V30 1310 H 125.201 -3.99598 1.21291 0
M  V30 1311 N 125.638 -1.25649 -0.95132 0
M  V30 1312 C 126.866 -1.13343 -1.73092 0
M  V30 1313 C 127.281 0.312434 -1.86197 0
M  V30 1314 O 126.638 1.21465 -1.36207 0
M  V30 1315 C 126.689 -1.78602 -3.14299 0
M  V30 1316 O 126.41 -3.17537 -3.01831 0
M  V30 1317 C 127.911 -1.72119 -4.08522 0
M  V30 1318 H 125.131 -0.395181 -0.542285 0
M  V30 1319 H 127.675 -1.66076 -1.19328 0
M  V30 1320 H 125.83 -1.29832 -3.64996 0
M  V30 1321 H 126.244 -3.49676 -3.90931 0
M  V30 1322 H 127.718 -2.22435 -5.052 0
M  V30 1323 H 128.195 -0.685635 -4.33815 0
M  V30 1324 H 128.801 -2.20393 -3.63741 0
M  V30 1325 N 127.117 1.15442 -1.07289 0
M  V30 1326 C 128.528 1.67803 -0.818475 0
M  V30 1327 C 128.879 1.8489 0.656507 0
M  V30 1328 O 128.004 1.55176 1.50829 0
M  V30 1329 C 128.599 3.04805 -1.47917 0
M  V30 1330 C 127.158 3.54245 -1.27229 0
M  V30 1331 C 126.305 2.29986 -1.54925 0
M  V30 1332 H 129.256 0.996646 -1.23502 0
M  V30 1333 H 129.277 3.69702 -0.90005 0
M  V30 1334 H 128.789 2.92336 -2.55267 0
M  V30 1335 H 126.89 3.71956 -0.21899 0
M  V30 1336 H 127.003 4.35723 -1.99203 0
M  V30 1337 H 125.367 2.35496 -0.970242 0
M  V30 1338 H 126.15 2.20105 -2.63455 0
M  V30 1339 N 128.595 0.856903 1.32268 0
M  V30 1340 C 129.545 0.274899 2.26337 0
M  V30 1341 C 130.529 -0.580543 1.50062 0
M  V30 1342 O 131.721 -0.429559 1.71708 0
M  V30 1343 C 128.85 -0.533841 3.39124 0
M  V30 1344 C 127.936 0.334114 4.22782 0
M  V30 1345 N 128.327 1.42143 4.85416 0
M  V30 1346 C 126.625 0.124256 4.45827 0
M  V30 1347 C 127.326 1.95559 5.47843 0
M  V30 1348 N 126.302 1.25444 5.28928 0
M  V30 1349 H 130.104 1.10612 2.72291 0
M  V30 1350 H 127.618 0.703258 1.46383 0
M  V30 1351 H 129.615 -0.96722 4.05525 0
M  V30 1352 H 128.275 -1.36283 2.94715 0
M  V30 1353 H 129.286 1.80436 4.85451 0
M  V30 1354 H 125.963 -0.669837 4.12092 0
M  V30 1355 H 127.353 2.86714 6.07655 0
M  V30 1356 N 130.073 -1.45103 0.615059 0
M  V30 1357 C 131.32 -2.02183 0.113179 0
M  V30 1358 C 131.648 -1.48249 -1.25906 0
M  V30 1359 O 130.903 -0.650265 -1.84581 0
M  V30 1360 C 131.202 -3.57386 0.0318797 0
M  V30 1361 C 130.868 -4.30505 1.34077 0
M  V30 1362 C 129.53 -4.50197 1.69929 0
M  V30 1363 C 131.882 -4.72238 2.20546 0
M  V30 1364 C 129.21 -5.08881 2.91988 0
M  V30 1365 C 131.562 -5.32272 3.41861 0
M  V30 1366 C 130.226 -5.50187 3.77956 0
M  V30 1367 H 129.496 -0.739842 0.0414151 0
M  V30 1368 H 132.143 -1.74073 0.798168 0
M  V30 1369 H 130.448 -3.84817 -0.736409 0
M  V30 1370 H 132.145 -3.99264 -0.372712 0
M  V30 1371 H 128.735 -4.15496 1.05173 0
M  V30 1372 H 132.919 -4.56751 1.94146 0
M  V30 1373 H 128.175 -5.20939 3.2005 0
M  V30 1374 H 132.349 -5.63563 4.09109 0
M  V30 1375 H 129.976 -5.95427 4.72622 0
M  V30 1376 N 131.551 -0.354651 -1.53558 0
M  V30 1377 C 132.828 0.294281 -1.93374 0
M  V30 1378 C 133.208 1.67313 -1.28723 0
M  V30 1379 O 132.556 2.24179 -0.442247 0
M  V30 1380 C 132.766 0.355445 -3.47185 0
M  V30 1381 C 134.114 0.601007 -4.20325 0
M  V30 1382 O 135.138 0.437106 -3.53508 0
M  V30 1383 O 133.997 0.919322 -5.38712 0
M  V30 1384 H 131.091 0.174033 -0.808481 0
M  V30 1385 H 133.637 -0.406638 -1.64756 0
M  V30 1386 H 132.409 -0.611729 -3.86489 0
M  V30 1387 H 132.032 1.1027 -3.82003 0
M  V30 1388 N 133.029 1.57378 -0.0835403 0
M  V30 1389 C 134.259 1.97975 0.590713 0
M  V30 1390 C 134.667 0.961083 1.62972 0
M  V30 1391 O 134.01 -0.0590879 1.83605 0
M  V30 1392 C 134.072 3.34915 1.3066 0
M  V30 1393 C 133.736 4.55069 0.419698 0
M  V30 1394 C 134.733 5.18868 -0.32749 0
M  V30 1395 C 132.418 5.0114 0.341137 0
M  V30 1396 C 134.412 6.27098 -1.14134 0
M  V30 1397 C 132.099 6.0924 -0.476374 0
M  V30 1398 C 133.097 6.72083 -1.21627 0
M  V30 1399 O 132.785 7.781 -2.02028 0
M  V30 1400 H 132.517 0.655818 0.163947 0
M  V30 1401 H 135.071 2.04807 -0.156021 0
M  V30 1402 H 133.301 3.24733 2.09966 0
M  V30 1403 H 134.99 3.60037 1.87424 0
M  V30 1404 H 135.756 4.84211 -0.276459 0
M  V30 1405 H 131.635 4.51996 0.90668 0
M  V30 1406 H 135.179 6.7608 -1.71935 0
M  V30 1407 H 131.076 6.43329 -0.528927 0
M  V30 1408 H 131.844 7.95034 -1.94586 0
M  V30 1409 N 134.507 -0.190092 1.56449 0
M  V30 1410 C 135.756 -0.907912 1.80111 0
M  V30 1411 C 136.069 -1.84214 0.657619 0
M  V30 1412 O 137.275 -2.60094 0.778663 0
M  V30 1413 C 135.731 -1.66485 3.19078 0
M  V30 1414 C 135.339 -0.7752 4.41242 0
M  V30 1415 C 137.083 -2.37201 3.52045 0
M  V30 1416 C 134.99 -1.53129 5.71231 0
M  V30 1417 H 133.92 -0.34276 0.671589 0
M  V30 1418 H 136.571 -0.161109 1.82791 0
M  V30 1419 H 134.953 -2.45572 3.10661 0
M  V30 1420 H 136.127 -0.0226298 4.60794 0
M  V30 1421 H 134.442 -0.178627 4.16017 0
M  V30 1422 H 137.039 -2.94329 4.46402 0
M  V30 1423 H 137.382 -3.11632 2.76028 0
M  V30 1424 H 137.915 -1.65075 3.61932 0
M  V30 1425 H 134.654 -0.82967 6.50228 0
M  V30 1426 H 134.174 -2.25767 5.55688 0
M  V30 1427 H 135.853 -2.08377 6.12526 0
M  V30 1428 N 135.985 -1.50799 -0.457987 0
M  V30 1429 C 136.948 -1.7005 -1.53674 0
M  V30 1430 C 137.948 -0.570881 -1.50325 0
M  V30 1431 O 139.138 -0.838126 -1.52712 0
M  V30 1432 C 136.27 -1.73788 -2.93276 0
M  V30 1433 H 137.463 -2.66306 -1.37917 0
M  V30 1434 H 135.016 -1.40477 -0.685271 0
M  V30 1435 H 135.751 -0.792717 -3.14462 0
M  V30 1436 H 135.536 -2.55864 -2.97113 0
M  V30 1437 H 137.026 -1.90591 -3.71571 0
M  V30 1438 N 137.463 0.71206 -1.40597 0
M  V30 1439 C 138.688 1.50617 -1.42581 0
M  V30 1440 C 139.113 1.88079 -0.0282102 0
M  V30 1441 O 138.471 1.53511 0.964579 0
M  V30 1442 C 138.519 2.7557 -2.3258 0
M  V30 1443 O 137.623 3.72414 -1.77148 0
M  V30 1444 H 136.964 0.453966 -0.484573 0
M  V30 1445 H 139.494 0.876649 -1.84868 0
M  V30 1446 H 139.504 3.2406 -2.47889 0
M  V30 1447 H 138.179 2.47639 -3.34138 0
M  V30 1448 H 136.756 3.31276 -1.71204 0
M  V30 1449 N 138.941 1.26152 0.944643 0
M  V30 1450 C 139.851 1.09176 2.07648 0
M  V30 1451 C 140.867 0.0261935 1.7398 0
M  V30 1452 O 142.043 0.229208 2.00091 0
M  V30 1453 C 139.108 0.722915 3.39079 0
M  V30 1454 C 138.169 1.86752 3.86552 0
M  V30 1455 C 137.402 1.51617 5.11711 0
M  V30 1456 O 137.625 0.416331 5.68879 0
M  V30 1457 O 136.559 2.34975 5.54139 0
M  V30 1458 H 140.385 2.0412 2.24875 0
M  V30 1459 H 137.97 1.05182 1.061 0
M  V30 1460 H 139.852 0.529787 4.18056 0
M  V30 1461 H 138.527 -0.197159 3.23099 0
M  V30 1462 H 137.434 2.11558 3.08535 0
M  V30 1463 H 138.767 2.76719 4.07047 0
M  V30 1464 N 140.419 -1.14872 1.07899 0
M  V30 1465 C 141.665 -1.86064 0.806725 0
M  V30 1466 C 141.998 -1.82434 -0.665706 0
M  V30 1467 O 141.273 -1.25138 -1.48899 0
M  V30 1468 C 141.556 -3.34929 1.32267 0
M  V30 1469 C 141.409 -3.47161 2.86006 0
M  V30 1470 C 142.728 -4.29863 0.943717 0
M  V30 1471 H 139.847 -0.675591 0.294526 0
M  V30 1472 H 142.489 -1.34925 1.33773 0
M  V30 1473 H 140.639 -3.78611 0.870974 0
M  V30 1474 H 142.311 -3.12302 3.39507 0
M  V30 1475 H 140.554 -2.88539 3.23925 0
M  V30 1476 H 141.225 -4.51777 3.17177 0
M  V30 1477 H 143.701 -3.9417 1.33302 0
M  V30 1478 H 142.577 -5.32494 1.33198 0
M  V30 1479 H 142.838 -4.41846 -0.149796 0
M  V30 1480 N 141.898 -0.863906 -1.31812 0
M  V30 1481 C 143.123 -0.48527 -2.01643 0
M  V30 1482 C 143.548 0.913058 -1.64453 0
M  V30 1483 O 142.906 1.6014 -0.849985 0
M  V30 1484 C 142.954 -0.642625 -3.54828 0
M  V30 1485 O 142.058 0.320659 -4.11151 0
M  V30 1486 H 141.399 -0.193793 -0.635091 0
M  V30 1487 H 143.929 -1.16565 -1.68148 0
M  V30 1488 H 143.939 -0.533628 -4.04495 0
M  V30 1489 H 142.614 -1.66227 -3.81237 0
M  V30 1490 H 141.191 0.167126 -3.72525 0
M  V30 1491 N 143.376 1.44774 -0.622745 0
M  V30 1492 C 144.323 2.30635 0.0871679 0
M  V30 1493 C 145.293 1.42994 0.845097 0
M  V30 1494 O 146.478 1.71907 0.827812 0
M  V30 1495 C 143.618 3.28144 1.06844 0
M  V30 1496 C 142.731 4.30888 0.309809 0
M  V30 1497 C 141.866 5.15494 1.28215 0
M  V30 1498 C 140.905 6.09953 0.512198 0
M  V30 1499 N 140.042 6.87287 1.43458 0
M  V30 1500 H 144.882 2.90803 -0.650974 0
M  V30 1501 H 142.419 1.43286 -0.33281 0
M  V30 1502 H 144.377 3.83157 1.65066 0
M  V30 1503 H 143.007 2.69695 1.77382 0
M  V30 1504 H 142.059 3.78414 -0.388181 0
M  V30 1505 H 143.371 4.97955 -0.290254 0
M  V30 1506 H 142.525 5.74983 1.93596 0
M  V30 1507 H 141.264 4.48481 1.91614 0
M  V30 1508 H 140.269 5.49581 -0.155151 0
M  V30 1509 H 141.494 6.78999 -0.116958 0
M  V30 1510 H 139.44 6.2295 2.05594 0
M  V30 1511 H 139.357 7.50763 0.888335 0
M  V30 1512 H 140.625 7.51306 2.07749 0
M  V30 1513 N 144.854 0.36279 1.53368 0
M  V30 1514 C 146.102 -0.227326 2.00817 0
M  V30 1515 C 146.423 -1.49511 1.25186 0
M  V30 1516 O 145.693 -1.92482 0.364348 0
M  V30 1517 H 144.273 -0.0869923 0.741917 0
M  V30 1518 H 146.935 0.488381 1.88682 0
M  V30 1519 H 146.031 -0.456273 3.08747 0
M  V30 1520 N 146.332 -1.57332 0.0918853 0
M  V30 1521 C 147.262 -2.16872 -0.865371 0
M  V30 1522 C 148.243 -1.10118 -1.29646 0
M  V30 1523 O 149.428 -1.38242 -1.36392 0
M  V30 1524 C 146.558 -2.74649 -2.12569 0
M  V30 1525 C 145.512 -3.86747 -1.83333 0
M  V30 1526 C 144.838 -4.31212 -3.16166 0
M  V30 1527 C 146.138 -5.10089 -1.1228 0
M  V30 1528 H 147.832 -2.97114 -0.369307 0
M  V30 1529 H 145.378 -1.42918 -0.176194 0
M  V30 1530 H 147.331 -3.14952 -2.7997 0
M  V30 1531 H 146.055 -1.91657 -2.64452 0
M  V30 1532 H 144.714 -3.46978 -1.18331 0
M  V30 1533 H 144.362 -3.45115 -3.6593 0
M  V30 1534 H 144.062 -5.06788 -2.97388 0
M  V30 1535 H 145.586 -4.74146 -3.84731 0
M  V30 1536 H 147 -5.47582 -1.69785 0
M  V30 1537 H 145.397 -5.91073 -1.03693 0
M  V30 1538 H 146.467 -4.84786 -0.105041 0
M  V30 1539 N 147.81 0.181792 -1.56548 0
M  V30 1540 C 148.773 1.20894 -1.94724 0
M  V30 1541 C 149.773 1.37738 -0.829747 0
M  V30 1542 O 150.963 1.35323 -1.09697 0
M  V30 1543 C 148.095 2.57593 -2.23291 0
M  V30 1544 H 149.288 0.882275 -2.86629 0
M  V30 1545 H 146.841 0.423838 -1.50444 0
M  V30 1546 H 147.576 2.95291 -1.34067 0
M  V30 1547 H 147.361 2.46735 -3.04736 0
M  V30 1548 H 148.851 3.31637 -2.53785 0
M  V30 1549 N 149.288 1.51039 0.449983 0
M  V30 1550 C 150.236 1.71995 1.5659 0
M  V30 1551 C 151.23 0.586029 1.5894 0
M  V30 1552 O 152.436 0.76709 1.62837 0
M  V30 1553 H 148.811 0.543233 0.520001 0
M  V30 1554 H 150.782 2.65562 1.36085 0
M  V30 1555 C 149.531 1.8506 2.9436 0
M  V30 1556 H 148.854 2.71712 2.93279 0
M  V30 1557 H 150.294 2.0374 3.71842 0
M  V30 1558 C 148.753 0.607277 3.31382 0
M  V30 1559 O 149.283 -0.243903 4.00959 0
M  V30 1560 N 147.489 0.455073 2.87015 0
M  V30 1561 H 147.036 1.14879 2.30566 0
M  V30 1562 H 146.994 -0.375611 3.12148 0
M  V30 1563 N 150.766 -0.704594 1.40972 0
M  V30 1564 C 151.696 -1.83124 1.44872 0
M  V30 1565 C 152.677 -1.67281 0.30838 0
M  V30 1566 O 153.862 -1.87149 0.518556 0
M  V30 1567 C 150.992 -3.21181 1.32136 0
M  V30 1568 C 149.946 -3.51714 2.43888 0
M  V30 1569 C 149.272 -4.89032 2.16222 0
M  V30 1570 C 150.572 -3.516 3.86232 0
M  V30 1571 H 152.266 -1.80117 2.39161 0
M  V30 1572 H 149.812 -0.865145 1.15114 0
M  V30 1573 H 151.765 -3.99702 1.33479 0
M  V30 1574 H 150.489 -3.24791 0.343279 0
M  V30 1575 H 149.148 -2.75539 2.41813 0
M  V30 1576 H 148.796 -4.89256 1.16778 0
M  V30 1577 H 148.496 -5.10426 2.911 0
M  V30 1578 H 150.02 -5.69873 2.19265 0
M  V30 1579 H 151.434 -4.2014 3.9007 0
M  V30 1580 H 149.831 -3.84523 4.60719 0
M  V30 1581 H 150.901 -2.50757 4.15029 0
M  V30 1582 N 152.244 -1.26651 -0.937939 0
M  V30 1583 C 153.469 -1.15279 -1.72411 0
M  V30 1584 C 153.894 0.287866 -1.85884 0
M  V30 1585 O 153.252 1.20855 -1.35143 0
M  V30 1586 C 153.3 -1.83028 -3.10698 0
M  V30 1587 O 152.404 -1.12128 -3.96864 0
M  V30 1588 H 151.745 -0.401504 -0.528858 0
M  V30 1589 H 154.275 -1.67531 -1.1745 0
M  V30 1590 H 154.285 -1.89981 -3.6107 0
M  V30 1591 H 152.96 -2.87833 -3.00208 0
M  V30 1592 H 151.537 -1.13173 -3.55312 0
M  V30 1593 N 153.722 1.14298 -1.08507 0
M  V30 1594 C 154.652 2.21542 -0.737646 0
M  V30 1595 C 155.633 1.67773 0.280377 0
M  V30 1596 O 156.818 1.93616 0.150521 0
M  V30 1597 C 153.948 3.46988 -0.147259 0
M  V30 1598 C 152.902 4.13789 -1.09374 0
M  V30 1599 C 152.228 5.33449 -0.365524 0
M  V30 1600 C 153.528 4.62208 -2.4323 0
M  V30 1601 H 155.222 2.5086 -1.6343 0
M  V30 1602 H 152.768 1.20576 -0.787243 0
M  V30 1603 H 154.721 4.21262 0.107808 0
M  V30 1604 H 153.445 3.17037 0.784538 0
M  V30 1605 H 152.104 3.4147 -1.33393 0
M  V30 1606 H 151.752 4.99759 0.57011 0
M  V30 1607 H 151.452 5.79088 -0.996512 0
M  V30 1608 H 152.976 6.10485 -0.118534 0
M  V30 1609 H 154.39 5.27952 -2.23472 0
M  V30 1610 H 152.787 5.18553 -3.02031 0
M  V30 1611 H 153.857 3.77224 -3.04681 0
M  V30 1612 N 155.201 0.870884 1.31352 0
M  V30 1613 C 156.111 0.330783 2.32256 0
M  V30 1614 C 157.127 -0.559767 1.6475 0
M  V30 1615 O 158.303 -0.456263 1.96164 0
M  V30 1616 C 155.368 -0.458137 3.4366 0
M  V30 1617 C 154.429 0.460482 4.26823 0
M  V30 1618 C 153.662 -0.290881 5.32907 0
M  V30 1619 O 153.885 -1.51885 5.49806 0
M  V30 1620 O 152.819 0.351732 6.00871 0
M  V30 1621 H 156.645 1.16718 2.80376 0
M  V30 1622 H 154.23 0.634285 1.35267 0
M  V30 1623 H 156.112 -0.905343 4.1156 0
M  V30 1624 H 154.787 -1.27106 2.97701 0
M  V30 1625 H 153.694 0.956207 3.61673 0
M  V30 1626 H 155.027 1.23903 4.7635 0
M  V30 1627 N 156.679 -1.44442 0.630414 0
M  V30 1628 C 157.609 -2.33418 -0.0618083 0
M  V30 1629 C 158.59 -1.48165 -0.835541 0
M  V30 1630 O 159.775 -1.76886 -0.801564 0
M  V30 1631 C 156.905 -3.31222 -1.04449 0
M  V30 1632 C 155.859 -4.26288 -0.382436 0
M  V30 1633 C 155.185 -5.13954 -1.47497 0
M  V30 1634 C 156.485 -5.1744 0.710865 0
M  V30 1635 H 158.179 -2.91548 0.681184 0
M  V30 1636 H 155.725 -1.40191 0.329026 0
M  V30 1637 H 157.678 -3.92351 -1.53748 0
M  V30 1638 H 156.402 -2.71299 -1.81836 0
M  V30 1639 H 155.061 -3.6649 0.0899054 0
M  V30 1640 H 154.709 -4.50385 -2.2397 0
M  V30 1641 H 154.409 -5.7837 -1.03737 0
M  V30 1642 H 155.933 -5.77955 -1.96979 0
M  V30 1643 H 157.347 -5.72509 0.300996 0
M  V30 1644 H 155.744 -5.90455 1.07156 0
M  V30 1645 H 156.814 -4.58496 1.57829 0
M  V30 1646 N 158.157 -0.370918 -1.53173 0
M  V30 1647 C 159.573 -0.0200818 -1.59587 0
M  V30 1648 C 159.773 1.46279 -1.38581 0
M  V30 1649 O 158.829 2.22506 -1.19363 0
M  V30 1650 C 160.142 -0.4808 -2.96831 0
M  V30 1651 C 161.69 -0.435477 -3.09956 0
M  V30 1652 C 162.165 -0.872092 -4.4962 0
M  V30 1653 N 163.656 -0.827364 -4.55751 0
M  V30 1654 C 164.391 -1.13683 -5.62018 0
M  V30 1655 N 163.887 -1.51584 -6.76014 0
M  V30 1656 N 165.68 -1.05927 -5.52029 0
M  V30 1657 H 157.831 -1.33652 -1.65079 0
M  V30 1658 H 160.094 -0.546634 -0.774529 0
M  V30 1659 H 159.8 -1.51577 -3.1736 0
M  V30 1660 H 159.674 0.129796 -3.76977 0
M  V30 1661 H 162.061 0.590371 -2.89134 0
M  V30 1662 H 162.142 -1.08164 -2.31806 0
M  V30 1663 H 161.786 -1.89608 -4.71181 0
M  V30 1664 H 161.716 -0.203127 -5.26208 0
M  V30 1665 H 164.207 -0.548216 -3.73902 0
M  V30 1666 H 164.52 -1.73609 -7.53047 0
M  V30 1667 H 162.865 -1.55454 -6.77391 0
M  V30 1668 H 166.056 -0.762321 -4.61851 0
M  V30 1669 H 166.229 -1.30378 -6.34749 0
M  V30 1670 N 159.635 1.57281 -0.100228 0
M  V30 1671 C 160.582 2.14305 0.856858 0
M  V30 1672 C 161.552 1.06296 1.27634 0
M  V30 1673 O 162.737 1.34109 1.35718 0
M  V30 1674 C 159.877 2.73184 2.10866 0
M  V30 1675 C 158.99 3.95442 1.73925 0
M  V30 1676 C 158.125 4.42468 2.93931 0
M  V30 1677 C 157.164 5.57303 2.5314 0
M  V30 1678 N 156.301 5.99158 3.65997 0
M  V30 1679 H 161.141 2.95772 0.363726 0
M  V30 1680 H 158.678 1.46139 0.167858 0
M  V30 1681 H 160.636 3.05442 2.84185 0
M  V30 1682 H 159.266 1.94437 2.57671 0
M  V30 1683 H 158.318 3.69464 0.905554 0
M  V30 1684 H 159.63 4.78769 1.39935 0
M  V30 1685 H 158.784 4.76537 3.75496 0
M  V30 1686 H 157.523 3.58052 3.31134 0
M  V30 1687 H 156.528 5.22857 1.70003 0
M  V30 1688 H 157.753 6.43471 2.17075 0
M  V30 1689 H 155.699 5.17687 4.02909 0
M  V30 1690 H 155.616 6.77295 3.35869 0
M  V30 1691 H 156.884 6.3786 4.48057 0
M  V30 1692 N 161.113 -0.173488 1.56642 0
M  V30 1693 C 162.524 -0.736155 1.71574 0
M  V30 1694 C 162.875 -1.82888 0.710389 0
M  V30 1695 O 162 -2.16017 -0.1287 0
M  V30 1696 C 162.595 -1.34211 3.11083 0
M  V30 1697 C 161.154 -1.85162 3.27707 0
M  V30 1698 C 160.301 -0.729765 2.67525 0
M  V30 1699 H 163.252 0.0518786 1.58615 0
M  V30 1700 H 163.273 -2.21178 3.09613 0
M  V30 1701 H 162.785 -0.546579 3.84232 0
M  V30 1702 H 160.886 -2.67366 2.59512 0
M  V30 1703 H 160.999 -1.99855 4.35425 0
M  V30 1704 H 159.363 -1.14965 2.27278 0
M  V30 1705 H 160.146 0.0538806 3.43258 0
M  V30 1706 N 162.591 -1.51276 -0.441967 0
M  V30 1707 C 163.84 -1.6295 -1.18871 0
M  V30 1708 C 164.153 -0.349312 -1.92456 0
M  V30 1709 O 165.359 -0.345355 -2.69295 0
M  V30 1710 C 163.815 -2.87759 -2.16155 0
M  V30 1711 C 163.423 -4.22764 -1.48239 0
M  V30 1712 C 165.167 -3.08788 -2.91291 0
M  V30 1713 C 163.074 -5.38728 -2.4398 0
M  V30 1714 H 162.004 -0.606913 -0.447406 0
M  V30 1715 H 164.655 -1.77739 -0.456205 0
M  V30 1716 H 163.037 -2.66593 -2.92821 0
M  V30 1717 H 164.211 -4.54293 -0.771635 0
M  V30 1718 H 162.526 -4.07575 -0.852741 0
M  V30 1719 H 165.123 -3.92599 -3.63002 0
M  V30 1720 H 165.466 -2.21679 -3.5237 0
M  V30 1721 H 165.999 -3.30272 -2.21733 0
M  V30 1722 H 162.738 -6.28082 -1.87598 0
M  V30 1723 H 162.258 -5.1158 -3.13123 0
M  V30 1724 H 163.937 -5.70489 -3.05207 0
M  V30 1725 N 164.069 0.697108 -1.41344 0
M  V30 1726 C 165.297 1.48593 -1.43972 0
M  V30 1727 C 165.712 1.88747 -0.0445612 0
M  V30 1728 O 165.069 1.56682 0.935785 0
M  V30 1729 C 165.12 2.74946 -2.34706 0
M  V30 1730 O 164.841 2.36484 -3.68791 0
M  V30 1731 C 166.342 3.687 -2.46121 0
M  V30 1732 H 163.562 0.457964 -0.490418 0
M  V30 1733 H 166.106 0.858429 -1.8561 0
M  V30 1734 H 164.261 3.33937 -1.9638 0
M  V30 1735 H 164.675 3.17918 -4.17167 0
M  V30 1736 H 166.149 4.54145 -3.13777 0
M  V30 1737 H 166.626 4.13081 -1.49199 0
M  V30 1738 H 167.232 3.15613 -2.85076 0
M  V30 1739 N 165.547 1.27147 0.931209 0
M  V30 1740 C 166.794 1.13278 1.67852 0
M  V30 1741 C 167.122 -0.32204 1.91815 0
M  V30 1742 O 166.377 -1.25224 1.50391 0
M  V30 1743 C 166.676 1.8579 3.05314 0
M  V30 1744 C 166.342 3.35657 3.01073 0
M  V30 1745 C 165.004 3.76536 2.99623 0
M  V30 1746 C 167.356 4.31299 2.92627 0
M  V30 1747 C 164.684 5.11426 2.87506 0
M  V30 1748 C 167.036 5.66242 2.82051 0
M  V30 1749 C 165.7 6.06418 2.7895 0
M  V30 1750 H 164.97 0.414515 0.614214 0
M  V30 1751 H 167.617 1.57712 1.08624 0
M  V30 1752 H 165.922 1.33854 3.68226 0
M  V30 1753 H 167.619 1.72491 3.62005 0
M  V30 1754 H 164.209 3.03146 3.02986 0
M  V30 1755 H 168.393 4.00692 2.92848 0
M  V30 1756 H 163.649 5.41705 2.83489 0
M  V30 1757 H 167.823 6.40026 2.74481 0
M  V30 1758 H 165.45 7.10895 2.69318 0
M  V30 1759 N 167.025 -1.13721 1.09112 0
M  V30 1760 C 168.273 -1.84559 0.823562 0
M  V30 1761 C 168.594 -1.83754 -0.652658 0
M  V30 1762 O 167.864 -1.29102 -1.47342 0
M  V30 1763 H 166.444 -0.683376 0.301673 0
M  V30 1764 H 169.106 -1.37771 1.37859 0
M  V30 1765 H 168.202 -2.8917 1.17419 0
M  V30 1766 N 168.503 -0.877838 -1.30888 0
M  V30 1767 C 169.749 -0.493426 -1.96706 0
M  V30 1768 C 170.082 0.953504 -1.6918 0
M  V30 1769 O 169.357 1.67266 -0.992594 0
M  V30 1770 C 169.64 -0.760429 -3.51979 0
M  V30 1771 C 169.493 -2.25747 -3.89048 0
M  V30 1772 C 170.812 -0.232148 -4.39487 0
M  V30 1773 H 167.931 -0.180746 -0.714493 0
M  V30 1774 H 170.573 -1.10052 -1.54882 0
M  V30 1775 H 168.723 -0.243715 -3.87735 0
M  V30 1776 H 170.395 -2.84204 -3.63354 0
M  V30 1777 H 168.638 -2.72694 -3.37373 0
M  V30 1778 H 169.309 -2.39491 -4.97341 0
M  V30 1779 H 171.785 -0.674314 -4.106 0
M  V30 1780 H 170.661 -0.448355 -5.47066 0
M  V30 1781 H 170.922 0.866297 -4.33529 0
M  V30 1782 N 169.982 1.44106 -0.638065 0
M  V30 1783 C 171.231 2.01194 -0.142744 0
M  V30 1784 C 171.544 1.50835 1.24532 0
M  V30 1785 O 172.75 2.00096 1.83504 0
M  V30 1786 C 171.206 3.59319 -0.20442 0
M  V30 1787 C 170.814 4.18674 -1.59423 0
M  V30 1788 C 172.558 4.23854 0.234079 0
M  V30 1789 C 170.465 5.69045 -1.61065 0
M  V30 1790 H 169.395 0.752367 -0.0495998 0
M  V30 1791 H 172.046 1.65246 -0.797881 0
M  V30 1792 H 170.428 3.92598 0.517946 0
M  V30 1793 H 171.602 3.96921 -2.34074 0
M  V30 1794 H 169.917 3.66453 -1.97741 0
M  V30 1795 H 172.514 5.34155 0.241443 0
M  V30 1796 H 172.857 3.96688 1.2627 0
M  V30 1797 H 173.39 3.95403 -0.436025 0
M  V30 1798 H 170.129 6.00956 -2.61787 0
M  V30 1799 H 169.649 5.929 -0.90718 0
M  V30 1800 H 171.328 6.32809 -1.34766 0
M  V30 1801 N 171.46 0.379036 1.52974 0
M  V30 1802 C 172.688 -0.20679 2.05864 0
M  V30 1803 C 173.103 -1.41356 1.25155 0
M  V30 1804 O 172.46 -1.8009 0.295588 0
M  V30 1805 C 172.511 -0.587045 3.56702 0
M  V30 1806 O 172.232 0.571776 4.34353 0
M  V30 1807 C 173.733 -1.22983 4.25899 0
M  V30 1808 H 170.953 -0.0336123 0.670158 0
M  V30 1809 H 173.497 0.541298 1.97206 0
M  V30 1810 H 171.652 -1.28504 3.65466 0
M  V30 1811 H 172.066 0.261544 5.23847 0
M  V30 1812 H 173.54 -1.44635 5.32715 0
M  V30 1813 H 174.017 -2.19416 3.80465 0
M  V30 1814 H 174.623 -0.572892 4.21424 0
M  V30 1815 N 172.938 -1.57226 0.108567 0
M  V30 1816 C 173.901 -2.13602 -0.831082 0
M  V30 1817 C 174.901 -1.06841 -1.20173 0
M  V30 1818 O 176.091 -1.32666 -1.12895 0
M  V30 1819 C 173.223 -2.66769 -2.12243 0
M  V30 1820 H 174.416 -2.97951 -0.341317 0
M  V30 1821 H 171.969 -1.55667 -0.14057 0
M  V30 1822 H 172.704 -1.85977 -2.65675 0
M  V30 1823 H 172.489 -3.44839 -1.86625 0
M  V30 1824 H 173.979 -3.10332 -2.79435 0
M  V30 1825 N 174.416 0.165178 -1.56732 0
M  V30 1826 C 175.693 0.908443 -1.73224 0
M  V30 1827 C 176.073 2.0013 -0.67165 0
M  V30 1828 O 175.421 2.26353 0.31253 0
M  V30 1829 C 175.631 1.46756 -3.16644 0
M  V30 1830 C 176.979 1.93809 -3.77787 0
M  V30 1831 O 178.003 1.56537 -3.1996 0
M  V30 1832 O 176.862 2.62486 -4.79336 0
M  V30 1833 H 173.956 0.428025 -0.707618 0
M  V30 1834 H 176.502 0.152526 -1.69013 0
M  V30 1835 H 175.274 0.68129 -3.85323 0
M  V30 1836 H 174.897 2.28749 -3.25207 0
M  V30 1837 N 175.894 1.51508 0.433938 0
M  V30 1838 C 177.122 1.68157 1.20543 0
M  V30 1839 C 177.537 0.380362 1.84929 0
M  V30 1840 O 176.894 -0.641446 1.70856 0
M  V30 1841 C 176.945 2.79965 2.28696 0
M  V30 1842 O 176.666 4.05045 1.66943 0
M  V30 1843 C 178.167 3.07912 3.18912 0
M  V30 1844 H 175.387 0.56421 0.363191 0
M  V30 1845 H 177.931 1.97941 0.513754 0
M  V30 1846 H 176.086 2.5277 2.93574 0
M  V30 1847 H 176.5 4.67165 2.38448 0
M  V30 1848 H 177.974 3.89719 3.90926 0
M  V30 1849 H 178.451 2.20456 3.79863 0
M  V30 1850 H 179.057 3.36779 2.59731 0
M  V30 1851 N 177.372 -0.689602 1.41712 0
M  V30 1852 C 178.302 -1.81577 1.46806 0
M  V30 1853 C 179.283 -1.66945 0.326105 0
M  V30 1854 O 180.468 -1.86588 0.538377 0
M  V30 1855 C 177.598 -3.19762 1.35535 0
M  V30 1856 C 176.552 -3.49107 2.47605 0
M  V30 1857 C 175.878 -4.86711 2.21397 0
M  V30 1858 C 177.178 -3.47483 3.89939 0
M  V30 1859 H 178.872 -1.7757 2.41058 0
M  V30 1860 H 176.418 -0.852887 1.16025 0
M  V30 1861 H 178.371 -3.98263 1.3771 0
M  V30 1862 H 177.095 -3.24409 0.377708 0
M  V30 1863 H 175.754 -2.72959 2.44722 0
M  V30 1864 H 175.402 -4.8799 1.21961 0
M  V30 1865 H 175.102 -5.0731 2.96497 0
M  V30 1866 H 176.626 -5.67515 2.25297 0
M  V30 1867 H 178.04 -4.1598 3.94505 0
M  V30 1868 H 176.437 -3.79615 4.64771 0
M  V30 1869 H 177.507 -2.46341 4.17665 0
M  V30 1870 N 178.85 -1.27639 -0.924453 0
M  V30 1871 C 179.76 -1.12466 -2.05885 0
M  V30 1872 C 180.776 -0.053869 -1.73917 0
M  V30 1873 O 181.952 -0.261012 -1.99702 0
M  V30 1874 C 179.017 -0.776768 -3.37886 0
M  V30 1875 C 178.078 -1.92878 -3.83532 0
M  V30 1876 C 177.311 -1.59739 -5.09234 0
M  V30 1877 O 177.534 -0.506782 -5.68144 0
M  V30 1878 O 176.468 -2.43761 -5.50331 0
M  V30 1879 H 180.294 -2.07671 -2.21599 0
M  V30 1880 H 177.879 -1.06857 -1.04413 0
M  V30 1881 H 179.761 -0.596229 -4.17161 0
M  V30 1882 H 178.436 0.145732 -3.23372 0
M  V30 1883 H 177.343 -2.1644 -3.0513 0
M  V30 1884 H 178.676 -2.8316 -4.02593 0
M  V30 1885 N 180.328 1.1314 -1.09713 0
M  V30 1886 C 181.26 2.18343 -0.697056 0
M  V30 1887 C 182.273 1.60669 0.262551 0
M  V30 1888 O 183.462 1.78435 0.0481527 0
M  V30 1889 C 180.562 3.38899 -0.00684728 0
M  V30 1890 C 179.735 4.26078 -0.988741 0
M  V30 1891 C 178.794 5.25155 -0.331394 0
M  V30 1892 O 177.82 5.60701 -0.979926 0
M  V30 1893 N 179.022 5.73271 0.913261 0
M  V30 1894 H 181.787 2.5328 -1.60216 0
M  V30 1895 H 179.348 1.28491 -0.984971 0
M  V30 1896 H 181.34 4.02255 0.444191 0
M  V30 1897 H 179.91 3.02175 0.800551 0
M  V30 1898 H 179.13 3.59453 -1.61826 0
M  V30 1899 H 180.418 4.81178 -1.65364 0
M  V30 1900 H 179.816 5.46544 1.45966 0
M  V30 1901 H 178.373 6.3855 1.30757 0
M  V30 1902 N 181.806 0.884767 1.30421 0
M  V30 1903 C 182.769 0.356277 2.26414 0
M  V30 1904 C 183.769 -0.501124 1.52792 0
M  V30 1905 O 184.959 -0.30831 1.7145 0
M  V30 1906 C 182.091 -0.492316 3.37326 0
M  V30 1907 H 183.284 1.20389 2.74675 0
M  V30 1908 H 180.837 0.661607 1.41607 0
M  V30 1909 H 181.572 -1.36052 2.94381 0
M  V30 1910 H 181.357 0.121832 3.91911 0
M  V30 1911 H 182.847 -0.853871 4.08777 0
M  V30 1912 N 183.284 -1.43765 0.645699 0
M  V30 1913 C 184.533 -2.01116 0.153412 0
M  V30 1914 C 184.846 -1.51493 -1.23731 0
M  V30 1915 O 186.052 -2.01067 -1.8244 0
M  V30 1916 C 184.508 -3.59206 0.223473 0
M  V30 1917 C 184.116 -4.17823 1.61642 0
M  V30 1918 C 185.86 -4.23972 -0.211597 0
M  V30 1919 C 183.767 -5.68183 1.64081 0
M  V30 1920 H 182.697 -0.752093 0.0535891 0
M  V30 1921 H 185.348 -1.6482 0.806633 0
M  V30 1922 H 183.73 -3.92867 -0.497118 0
M  V30 1923 H 184.904 -3.95674 2.36176 0
M  V30 1924 H 183.219 -3.65399 1.99681 0
M  V30 1925 H 185.816 -5.34275 -0.213112 0
M  V30 1926 H 186.159 -3.97352 -1.24165 0
M  V30 1927 H 186.692 -3.95166 0.456988 0
M  V30 1928 H 183.431 -5.99559 2.64971 0
M  V30 1929 H 182.951 -5.9241 0.938611 0
M  V30 1930 H 184.63 -6.32085 1.3812 0
M  V30 1931 N 184.763 -0.387143 -1.52771 0
M  V30 1932 C 185.673 0.456442 -2.30117 0
M  V30 1933 C 186.689 1.07342 -1.36944 0
M  V30 1934 O 187.865 1.07971 -1.70013 0
M  V30 1935 C 184.93 1.56957 -3.09136 0
M  V30 1936 C 183.991 0.977916 -4.18014 0
M  V30 1937 C 183.224 2.038 -4.93256 0
M  V30 1938 O 183.447 3.25271 -4.68567 0
M  V30 1939 O 182.381 1.6565 -5.78657 0
M  V30 1940 H 186.207 -0.17359 -3.03203 0
M  V30 1941 H 183.792 -0.150919 -1.48636 0
M  V30 1942 H 185.674 2.21628 -3.58412 0
M  V30 1943 H 184.349 2.18461 -2.38865 0
M  V30 1944 H 183.256 0.294525 -3.72939 0
M  V30 1945 H 184.589 0.407128 -4.90513 0
M  V30 1946 N 186.241 1.57166 -0.116904 0
M  V30 1947 C 187.657 1.5779 0.239693 0
M  V30 1948 C 187.857 1.1295 1.66867 0
M  V30 1949 O 186.913 0.81592 2.38954 0
M  V30 1950 C 188.226 3.00699 0.00828202 0
M  V30 1951 C 189.774 3.12912 0.0743438 0
M  V30 1952 C 190.249 4.57817 -0.129348 0
M  V30 1953 N 191.74 4.63139 -0.075247 0
M  V30 1954 C 192.475 5.73023 -0.207788 0
M  V30 1955 N 191.971 6.91665 -0.396382 0
M  V30 1956 N 193.764 5.61906 -0.14751 0
M  V30 1957 H 185.915 1.84615 -1.05029 0
M  V30 1958 H 188.178 0.85311 -0.41341 0
M  V30 1959 H 187.884 3.37784 -0.979531 0
M  V30 1960 H 187.758 3.69848 0.741077 0
M  V30 1961 H 190.145 2.75686 1.05268 0
M  V30 1962 H 190.226 2.4631 -0.690297 0
M  V30 1963 H 189.87 4.95742 -1.10465 0
M  V30 1964 H 189.8 5.22507 0.655253 0
M  V30 1965 H 192.291 3.7784 0.0670898 0
M  V30 1966 H 192.604 7.71255 -0.488437 0
M  V30 1967 H 190.949 6.93654 -0.432329 0
M  V30 1968 H 194.14 4.681 -0.00115036 0
M  V30 1969 H 194.313 6.47501 -0.254247 0
M  V30 1970 N 187.719 -0.156864 1.56817 0
M  V30 1971 C 188.682 -1.17781 1.96622 0
M  V30 1972 C 189.682 -1.36401 0.851555 0
M  V30 1973 O 190.872 -1.33561 1.11836 0
M  V30 1974 C 188.004 -2.54008 2.27361 0
M  V30 1975 H 189.197 -0.836564 2.87996 0
M  V30 1976 H 186.75 -0.39985 1.51099 0
M  V30 1977 H 187.485 -2.9312 1.38748 0
M  V30 1978 H 187.27 -2.41856 3.08623 0
M  V30 1979 H 188.76 -3.27558 2.59029 0
M  V30 1980 N 189.197 -1.51736 -0.425897 0
M  V30 1981 C 190.445 -1.64644 -1.17204 0
M  V30 1982 C 190.766 -0.370486 -1.91448 0
M  V30 1983 O 190.036 0.614088 -1.86026 0
M  V30 1984 H 188.616 -0.606819 -0.435638 0
M  V30 1985 H 191.278 -1.88713 -0.487177 0
M  V30 1986 H 190.374 -2.47958 -1.89534 0
M  V30 1987 N 190.675 0.682077 -1.42076 0
M  V30 1988 C 191.903 1.47057 -1.4554 0
M  V30 1989 C 192.318 1.8869 -0.0645779 0
M  V30 1990 O 191.675 1.57666 0.919115 0
M  V30 1991 C 191.726 2.72442 -2.37609 0
M  V30 1992 O 191.447 2.32559 -3.71279 0
M  V30 1993 C 192.948 3.66069 -2.50017 0
M  V30 1994 H 190.168 0.452737 -0.495248 0
M  V30 1995 H 192.712 0.838695 -1.8651 0
M  V30 1996 H 190.867 3.31835 -1.9991 0
M  V30 1997 H 191.281 3.13475 -4.20516 0
M  V30 1998 H 192.755 4.50792 -3.18576 0
M  V30 1999 H 193.232 4.11476 -1.53572 0
M  V30 2000 H 193.838 3.12572 -2.88407 0
M  V30 2001 N 192.153 1.28127 0.917671 0
M  V30 2002 C 193.1 1.11717 2.0196 0
M  V30 2003 C 194.07 0.0153929 1.66093 0
M  V30 2004 O 195.255 0.179596 1.89953 0
M  V30 2005 C 192.395 0.780927 3.36148 0
M  V30 2006 C 191.508 1.96135 3.84909 0
M  V30 2007 C 190.643 1.56609 5.0759 0
M  V30 2008 C 189.682 2.71339 5.48673 0
M  V30 2009 N 188.819 2.32332 6.62545 0
M  V30 2010 H 193.659 2.06003 2.15329 0
M  V30 2011 H 191.196 1.02535 1.05475 0
M  V30 2012 H 193.154 0.56675 4.13333 0
M  V30 2013 H 191.784 -0.124998 3.22558 0
M  V30 2014 H 190.836 2.28777 3.03916 0
M  V30 2015 H 192.148 2.82165 4.1132 0
M  V30 2016 H 191.302 1.31374 5.92305 0
M  V30 2017 H 190.041 0.677014 4.82978 0
M  V30 2018 H 189.046 2.97276 4.62501 0
M  V30 2019 H 190.271 3.60882 5.75274 0
M  V30 2020 H 188.217 1.45889 6.39572 0
M  V30 2021 H 188.134 3.11899 6.88662 0
M  V30 2022 H 189.402 2.10371 7.50576 0
M  V30 2023 N 193.631 -1.12557 1.10312 0
M  V30 2024 C 194.581 -2.16331 0.720076 0
M  V30 2025 C 195.565 -1.58616 -0.270115 0
M  V30 2026 O 196.757 -1.76823 -0.0790507 0
M  V30 2027 C 193.886 -3.42963 0.152113 0
M  V30 2028 C 192.972 -4.07663 1.16927 0
M  V30 2029 N 193.363 -4.47392 2.35953 0
M  V30 2030 C 191.661 -4.34425 1.0095 0
M  V30 2031 C 192.362 -4.97932 3.0073 0
M  V30 2032 N 191.338 -4.93358 2.28252 0
M  V30 2033 H 195.14 -2.44813 1.62616 0
M  V30 2034 H 192.654 -1.29449 0.980654 0
M  V30 2035 H 194.651 -4.16664 -0.14037 0
M  V30 2036 H 193.311 -3.1595 -0.748701 0
M  V30 2037 H 194.322 -4.39802 2.73486 0
M  V30 2038 H 190.999 -4.17177 0.164134 0
M  V30 2039 H 192.389 -5.38397 4.01969 0
M  V30 2040 N 195.109 -0.891671 -1.2995 0
M  V30 2041 C 196.357 -0.512486 -1.95494 0
M  V30 2042 C 196.678 0.942776 -1.70695 0
M  V30 2043 O 195.948 1.66374 -1.03424 0
M  V30 2044 H 194.528 -0.186533 -0.723336 0
M  V30 2045 H 197.19 -1.13621 -1.58355 0
M  V30 2046 H 196.286 -0.688342 -3.04415 0
M  V30 2047 N 196.587 1.43421 -0.653314 0
M  V30 2048 C 197.535 2.32546 0.0501531 0
M  V30 2049 C 198.529 1.48617 0.812985 0
M  V30 2050 O 199.735 1.64825 0.723375 0
M  V30 2051 H 196.11 0.751185 0.0350032 0
M  V30 2052 H 198.081 2.89602 -0.719261 0
M  V30 2053 C 196.83 3.32925 1.00279 0
M  V30 2054 H 196.153 3.97532 0.425236 0
M  V30 2055 H 197.593 3.9792 1.46409 0
M  V30 2056 C 196.052 2.63532 2.09886 0
M  V30 2057 O 196.582 2.45092 3.18265 0
M  V30 2058 N 194.788 2.22905 1.86445 0
M  V30 2059 H 194.335 2.38103 0.98309 0
M  V30 2060 H 194.293 1.76805 2.59976 0
M  V30 2061 N 198.065 0.39524 1.52563 0
M  V30 2062 C 199.012 -0.437036 2.26624 0
M  V30 2063 C 199.982 -1.05281 1.28472 0
M  V30 2064 O 201.167 -1.07971 1.57311 0
M  V30 2065 C 198.307 -1.55524 3.08069 0
M  V30 2066 C 197.42 -0.961745 4.21158 0
M  V30 2067 C 196.555 -2.05149 4.89987 0
M  V30 2068 C 195.594 -1.4342 5.95061 0
M  V30 2069 N 194.731 -2.46351 6.57462 0
M  V30 2070 H 199.571 0.200976 2.97322 0
M  V30 2071 H 197.108 0.110944 1.46681 0
M  V30 2072 H 199.066 -2.21437 3.53584 0
M  V30 2073 H 197.696 -2.16348 2.3957 0
M  V30 2074 H 196.748 -0.192048 3.79915 0
M  V30 2075 H 198.06 -0.470701 4.96574 0
M  V30 2076 H 197.214 -2.78819 5.38837 0
M  V30 2077 H 195.953 -2.57615 4.14109 0
M  V30 2078 H 194.958 -0.682774 5.45544 0
M  V30 2079 H 196.183 -0.917416 6.72875 0
M  V30 2080 H 194.129 -2.97975 5.8442 0
M  V30 2081 H 194.046 -2.02019 7.28508 0
M  V30 2082 H 195.314 -3.19633 7.10954 0
M  V30 2083 N 199.544 -1.57102 0.125237 0
M  V30 2084 C 200.792 -1.95021 -0.530198 0
M  V30 2085 C 201.113 -1.00982 -1.66816 0
M  V30 2086 O 200.383 -0.0672693 -1.95784 0
M  V30 2087 H 198.963 -0.720046 -0.198853 0
M  V30 2088 H 201.625 -1.93916 0.19564 0
M  V30 2089 H 200.721 -2.98211 -0.920681 0
M  V30 2090 N 201.022 0.148545 -1.56898 0
M  V30 2091 C 202.268 0.857877 -1.84424 0
M  V30 2092 C 202.623 1.7886 -0.709006 0
M  V30 2093 O 201.916 1.89344 0.293139 0
M  V30 2094 C 202.11 1.67064 -3.1595 0
M  V30 2095 C 201.939 0.82011 -4.42159 0
M  V30 2096 C 200.709 0.486328 -5.02954 0
M  V30 2097 C 202.907 0.151155 -5.14078 0
M  V30 2098 N 200.889 -0.377956 -6.12735 0
M  V30 2099 C 202.26 -0.573333 -6.17343 0
M  V30 2100 C 204.315 0.0716685 -4.97848 0
M  V30 2101 C 203.018 -1.3698 -7.06137 0
M  V30 2102 C 205.044 -0.711532 -5.87104 0
M  V30 2103 C 204.406 -1.42431 -6.8985 0
M  V30 2104 H 200.505 0.291798 -0.725519 0
M  V30 2105 H 203.089 0.123347 -1.94309 0
M  V30 2106 H 201.26 2.37642 -3.07215 0
M  V30 2107 H 202.992 2.32302 -3.31388 0
M  V30 2108 H 199.747 0.821753 -4.66416 0
M  V30 2109 H 200.171 -0.801077 -6.72244 0
M  V30 2110 H 204.813 0.608381 -4.184 0
M  V30 2111 H 202.531 -1.91778 -7.85014 0
M  V30 2112 H 206.117 -0.775005 -5.76615 0
M  V30 2113 H 204.997 -2.02061 -7.57721 0
M  V30 2114 N 202.5 1.5196 0.417844 0
M  V30 2115 C 203.41 1.77554 1.53336 0
M  V30 2116 C 204.426 0.660655 1.6097 0
M  V30 2117 O 205.602 0.945099 1.77848 0
M  V30 2118 C 202.667 1.91291 2.89152 0
M  V30 2119 C 201.728 3.15183 2.91475 0
M  V30 2120 C 200.961 3.28256 4.20813 0
M  V30 2121 O 201.184 2.46798 5.14244 0
M  V30 2122 O 200.118 4.21356 4.29817 0
M  V30 2123 H 203.944 2.7222 1.34647 0
M  V30 2124 H 201.529 1.36698 0.602828 0
M  V30 2125 H 203.411 2.02199 3.69721 0
M  V30 2126 H 202.086 0.998129 3.07927 0
M  V30 2127 H 200.993 3.09739 2.09791 0
M  V30 2128 H 202.326 4.06414 2.77648 0
M  V30 2129 N 203.978 -0.674533 1.42435 0
M  V30 2130 C 204.941 -1.76986 1.45632 0
M  V30 2131 C 205.941 -1.5708 0.343871 0
M  V30 2132 O 207.131 -1.63367 0.604709 0
M  V30 2133 C 204.263 -3.15623 1.28822 0
M  V30 2134 H 205.456 -1.75539 2.43158 0
M  V30 2135 H 203.009 -0.884189 1.28887 0
M  V30 2136 H 203.744 -3.22696 0.322193 0
M  V30 2137 H 203.529 -3.31475 2.09444 0
M  V30 2138 H 205.019 -3.95537 1.33942 0
M  V30 2139 N 205.456 -1.28612 -0.910864 0
M  V30 2140 C 206.419 -1.12803 -1.9952 0
M  V30 2141 C 207.419 -0.0668264 -1.60661 0
M  V30 2142 O 208.609 -0.312847 -1.71368 0
M  V30 2143 C 205.741 -0.72254 -3.33155 0
M  V30 2144 H 206.934 -2.09109 -2.14973 0
M  V30 2145 H 204.487 -1.11639 -1.09391 0
M  V30 2146 H 205.222 0.241152 -3.23402 0
M  V30 2147 H 205.007 -1.48916 -3.62721 0
M  V30 2148 H 206.497 -0.634666 -4.12749 0
M  V30 2149 N 206.934 1.1197 -1.10907 0
M  V30 2150 C 207.864 2.19928 -0.784473 0
M  V30 2151 C 208.845 1.6833 0.244726 0
M  V30 2152 O 210.03 1.93892 0.109418 0
M  V30 2153 C 207.16 3.46597 -0.220827 0
M  V30 2154 C 206.114 4.11376 -1.18127 0
M  V30 2155 C 205.44 5.32554 -0.478594 0
M  V30 2156 C 206.74 4.56945 -2.52979 0
M  V30 2157 H 208.434 2.47337 -1.68715 0
M  V30 2158 H 205.98 1.18879 -0.812642 0
M  V30 2159 H 207.933 4.21396 0.0184278 0
M  V30 2160 H 206.657 3.1863 0.717113 0
M  V30 2161 H 205.316 3.38564 -1.40606 0
M  V30 2162 H 204.964 5.00856 0.463976 0
M  V30 2163 H 204.664 5.76844 -1.11912 0
M  V30 2164 H 206.188 6.10096 -0.248 0
M  V30 2165 H 207.602 5.23093 -2.3462 0
M  V30 2166 H 205.999 5.1203 -3.12962 0
M  V30 2167 H 207.069 3.70676 -3.12614 0
M  V30 2168 N 208.412 0.89855 1.29475 0
M  V30 2169 C 209.637 0.538561 2.00285 0
M  V30 2170 C 210.062 -0.869135 1.66816 0
M  V30 2171 O 209.42 -1.57831 0.892145 0
M  V30 2172 C 209.468 0.736475 3.52999 0
M  V30 2173 O 208.572 -0.211537 4.11857 0
M  V30 2174 H 207.913 0.210563 0.62973 0
M  V30 2175 H 210.443 1.20982 1.64998 0
M  V30 2176 H 210.453 0.640685 4.02938 0
M  V30 2177 H 209.128 1.76276 3.76696 0
M  V30 2178 H 207.705 -0.0682991 3.72837 0
M  V30 2179 N 209.89 -1.43072 0.660911 0
M  V30 2180 C 210.853 -2.29194 -0.0166406 0
M  V30 2181 C 211.853 -1.42609 -0.742912 0
M  V30 2182 O 213.043 -1.64155 -0.583004 0
M  V30 2183 C 210.175 -3.24831 -1.0343 0
M  V30 2184 H 211.368 -2.90596 0.741208 0
M  V30 2185 H 208.921 -1.5048 0.422532 0
M  V30 2186 H 209.656 -2.68339 -1.82111 0
M  V30 2187 H 209.441 -3.88676 -0.517082 0
M  V30 2188 H 210.931 -3.89451 -1.50723 0
M  V30 2189 N 211.368 -0.403325 -1.52352 0
M  V30 2190 C 212.617 0.175668 -2.00934 0
M  V30 2191 C 212.93 1.46718 -1.29356 0
M  V30 2192 O 214.136 2.12708 -1.68724 0
M  V30 2193 C 212.592 0.363612 -3.58058 0
M  V30 2194 C 212.2 -0.915472 -4.38547 0
M  V30 2195 C 213.944 0.89821 -4.14888 0
M  V30 2196 C 211.851 -0.695035 -5.87302 0
M  V30 2197 H 210.781 0.0694234 -0.750797 0
M  V30 2198 H 213.432 -0.527879 -1.75743 0
M  V30 2199 H 211.814 1.12935 -3.79555 0
M  V30 2200 H 212.988 -1.68691 -4.28812 0
M  V30 2201 H 211.303 -1.37606 -3.93006 0
M  V30 2202 H 213.9 1.07907 -5.23699 0
M  V30 2203 H 214.243 1.87126 -3.71873 0
M  V30 2204 H 214.776 0.191681 -3.97338 0
M  V30 2205 H 211.515 -1.63948 -6.34666 0
M  V30 2206 H 211.035 0.0372116 -5.99788 0
M  V30 2207 H 212.714 -0.33497 -6.46132 0
M  V30 2208 N 212.846 1.57033 -0.133567 0
M  V30 2209 C 213.756 2.19632 0.824564 0
M  V30 2210 C 214.772 1.17666 1.28182 0
M  V30 2211 O 215.948 1.50193 1.3418 0
M  V30 2212 C 213.013 2.79499 2.05137 0
M  V30 2213 C 212.074 3.96548 1.64464 0
M  V30 2214 C 211.307 4.5355 2.81297 0
M  V30 2215 O 211.53 4.09438 3.97136 0
M  V30 2216 O 210.464 5.44018 2.57542 0
M  V30 2217 H 214.29 3.01991 0.321766 0
M  V30 2218 H 211.875 1.49112 0.0927889 0
M  V30 2219 H 213.757 3.17602 2.7696 0
M  V30 2220 H 212.432 2.00162 2.54395 0
M  V30 2221 H 211.339 3.63186 0.897048 0
M  V30 2222 H 212.672 4.77364 1.19934 0
M  V30 2223 N 214.325 -0.140222 1.56975 0
M  V30 2224 C 215.258 -1.20266 1.93936 0
M  V30 2225 C 216.236 -1.41212 0.806099 0
M  V30 2226 O 217.42 -1.55713 1.06234 0
M  V30 2227 C 214.547 -2.56037 2.21726 0
M  V30 2228 C 213.593 -2.51646 3.44349 0
M  V30 2229 S 214.426 -1.97678 4.97678 0
M  V30 2230 C 215.582 -3.35165 5.28597 0
M  V30 2231 H 215.815 -0.887358 2.83749 0
M  V30 2232 H 213.348 -0.346119 1.50471 0
M  V30 2233 H 215.306 -3.34167 2.38416 0
M  V30 2234 H 213.967 -2.84755 1.32566 0
M  V30 2235 H 213.16 -3.51608 3.61092 0
M  V30 2236 H 212.762 -1.81628 3.26936 0
M  V30 2237 H 215.054 -4.31302 5.2248 0
M  V30 2238 H 215.997 -3.23269 6.30002 0
M  V30 2239 H 216.405 -3.32614 4.56101 0
M  V30 2240 N 215.803 -1.52179 -0.40978 0
M  V30 2241 C 216.766 -1.74853 -1.48186 0
M  V30 2242 C 217.766 -0.618417 -1.48433 0
M  V30 2243 O 218.956 -0.886286 -1.49969 0
M  V30 2244 C 216.088 -1.8303 -2.87598 0
M  V30 2245 H 217.281 -2.70559 -1.29374 0
M  V30 2246 H 214.834 -1.42586 -0.640233 0
M  V30 2247 H 215.569 -0.89236 -3.11781 0
M  V30 2248 H 215.354 -2.65187 -2.88822 0
M  V30 2249 H 216.844 -2.02316 -3.65319 0
M  V30 2250 N 217.281 0.66697 -1.42791 0
M  V30 2251 C 218.229 1.80157 -1.47127 0
M  V30 2252 C 219.223 1.65825 -0.346199 0
M  V30 2253 O 220.429 1.72338 -0.519572 0
M  V30 2254 H 216.804 0.594158 -0.460956 0
M  V30 2255 H 218.775 1.73619 -2.42692 0
M  V30 2256 C 217.524 3.18351 -1.39813 0
M  V30 2257 H 216.847 3.3001 -2.25684 0
M  V30 2258 H 218.287 3.97736 -1.46908 0
M  V30 2259 C 216.746 3.36707 -0.11391 0
M  V30 2260 O 217.276 3.93027 0.830241 0
M  V30 2261 N 215.482 2.90586 -0.0285295 0
M  V30 2262 H 215.029 2.4494 -0.79764 0
M  V30 2263 H 214.987 3.03245 0.830063 0
M  V30 2264 N 218.759 1.29093 0.90403 0
M  V30 2265 C 219.689 1.16401 2.02418 0
M  V30 2266 C 220.67 0.0593085 1.69997 0
M  V30 2267 O 221.855 0.238021 1.92736 0
M  V30 2268 C 218.985 0.835233 3.37107 0
M  V30 2269 C 217.939 1.89578 3.83724 0
M  V30 2270 C 217.265 1.42041 5.15489 0
M  V30 2271 C 218.565 3.30394 4.04521 0
M  V30 2272 H 220.259 2.10109 2.13295 0
M  V30 2273 H 217.805 1.01157 1.02486 0
M  V30 2274 H 219.758 0.733169 4.14973 0
M  V30 2275 H 218.482 -0.137543 3.2631 0
M  V30 2276 H 217.141 1.98715 3.08071 0
M  V30 2277 H 216.789 0.436426 5.01103 0
M  V30 2278 H 216.489 2.12964 5.4765 0
M  V30 2279 H 218.013 1.33176 5.959 0
M  V30 2280 H 219.427 3.24123 4.72882 0
M  V30 2281 H 217.824 3.99237 4.48029 0
M  V30 2282 H 218.894 3.73692 3.09002 0
M  V30 2283 N 220.237 -1.11381 1.11499 0
M  V30 2284 C 221.484 -1.83132 0.864231 0
M  V30 2285 C 221.812 -1.84683 -0.610114 0
M  V30 2286 O 221.067 -1.29589 -1.46646 0
M  V30 2287 C 221.366 -3.30026 1.37177 0
M  V30 2288 C 221.032 -3.48634 2.85946 0
M  V30 2289 C 219.694 -3.53421 3.26569 0
M  V30 2290 C 222.046 -3.54837 3.81759 0
M  V30 2291 C 219.374 -3.61967 4.61733 0
M  V30 2292 C 221.726 -3.64915 5.1674 0
M  V30 2293 C 220.39 -3.67962 5.5692 0
M  V30 2294 H 219.66 -0.670127 0.316245 0
M  V30 2295 H 222.307 -1.31354 1.3935 0
M  V30 2296 H 220.612 -3.84304 0.762753 0
M  V30 2297 H 222.309 -3.84034 1.15408 0
M  V30 2298 H 218.899 -3.45579 2.53521 0
M  V30 2299 H 223.083 -3.50399 3.51474 0
M  V30 2300 H 218.339 -3.62603 4.92269 0
M  V30 2301 H 222.513 -3.68658 5.90816 0
M  V30 2302 H 220.14 -3.74336 6.61647 0
M  V30 2303 N 221.715 -0.905404 -1.28997 0
M  V30 2304 C 222.662 -0.385892 -2.27551 0
M  V30 2305 C 223.632 0.535113 -1.57244 0
M  V30 2306 O 224.817 0.459119 -1.85194 0
M  V30 2307 C 221.957 0.375461 -3.43051 0
M  V30 2308 C 221.07 -0.577092 -4.28128 0
M  V30 2309 C 220.205 0.201879 -5.30816 0
M  V30 2310 C 219.244 -0.744829 -6.07551 0
M  V30 2311 N 218.381 9.42587e-05 -7.021 0
M  V30 2312 H 223.221 -1.23139 -2.71368 0
M  V30 2313 H 220.758 -0.618542 -1.33463 0
M  V30 2314 H 222.716 0.832992 -4.088 0
M  V30 2315 H 221.346 1.18537 -3.00248 0
M  V30 2316 H 220.398 -1.15315 -3.62501 0
M  V30 2317 H 221.71 -1.30152 -4.8152 0
M  V30 2318 H 220.864 0.720351 -6.02408 0
M  V30 2319 H 219.603 0.959413 -4.7817 0
M  V30 2320 H 218.608 -1.27475 -5.34818 0
M  V30 2321 H 219.833 -1.50178 -6.62286 0
M  V30 2322 H 217.779 0.739791 -6.51815 0
M  V30 2323 H 217.696 -0.664321 -7.53076 0
M  V30 2324 H 218.964 0.498644 -7.77903 0
M  V30 2325 N 223.193 1.4272 -0.668489 0
M  V30 2326 C 224.418 2.06484 -0.194758 0
M  V30 2327 C 224.843 1.49862 1.13679 0
M  V30 2328 O 224.201 0.614582 1.70565 0
M  V30 2329 C 224.249 3.60353 -0.133546 0
M  V30 2330 O 223.353 4.02464 0.899806 0
M  V30 2331 H 222.694 0.656137 -0.10188 0
M  V30 2332 H 225.224 1.82964 -0.915722 0
M  V30 2333 H 225.234 4.07976 0.0447041 0
M  V30 2334 H 223.909 4.00938 -1.1055 0
M  V30 2335 H 222.486 3.66402 0.693109 0
M  V30 2336 N 224.671 0.411399 1.52136 0
M  V30 2337 C 225.601 -0.404015 2.29978 0
M  V30 2338 C 226.582 -1.04412 1.34284 0
M  V30 2339 O 227.767 -1.0527 1.63192 0
M  V30 2340 C 224.897 -1.5197 3.12286 0
M  V30 2341 C 223.851 -1.00448 4.16046 0
M  V30 2342 C 223.177 -2.21393 4.86712 0
M  V30 2343 C 224.477 -0.0569336 5.22269 0
M  V30 2344 H 226.171 0.245529 2.98392 0
M  V30 2345 H 223.717 0.119525 1.43503 0
M  V30 2346 H 225.67 -2.09715 3.6551 0
M  V30 2347 H 224.394 -2.19716 2.41646 0
M  V30 2348 H 223.053 -0.449421 3.63835 0
M  V30 2349 H 222.701 -2.87699 4.12599 0
M  V30 2350 H 222.401 -1.87571 5.56858 0
M  V30 2351 H 223.925 -2.7974 5.4275 0
M  V30 2352 H 225.339 -0.54325 5.7072 0
M  V30 2353 H 223.736 0.192594 5.99791 0
M  V30 2354 H 224.806 0.887663 4.76706 0
M  V30 2355 N 226.149 -1.5696 0.141893 0
M  V30 2356 C 227.565 -1.58151 -0.21456 0
M  V30 2357 C 227.765 -1.1559 -1.65049 0
M  V30 2358 O 226.821 -0.853832 -2.37626 0
M  V30 2359 C 228.134 -3.00674 0.0395576 0
M  V30 2360 C 229.682 -3.1299 -0.0245529 0
M  V30 2361 C 230.157 -4.57554 0.202167 0
M  V30 2362 N 231.648 -4.62961 0.148919 0
M  V30 2363 C 232.383 -5.7262 0.298924 0
M  V30 2364 N 231.879 -6.90947 0.50637 0
M  V30 2365 N 233.672 -5.61601 0.236886 0
M  V30 2366 H 225.823 -1.8292 1.07953 0
M  V30 2367 H 228.086 -0.846425 0.42693 0
M  V30 2368 H 227.792 -3.36183 1.03315 0
M  V30 2369 H 227.666 -3.70981 -0.682143 0
M  V30 2370 H 230.053 -2.77326 -1.00869 0
M  V30 2371 H 230.134 -2.4518 0.729396 0
M  V30 2372 H 229.778 -4.93922 1.18338 0
M  V30 2373 H 229.708 -5.23484 -0.572044 0
M  V30 2374 H 232.199 -3.77899 -0.00697015 0
M  V30 2375 H 232.512 -7.7038 0.611076 0
M  V30 2376 H 230.857 -6.92878 0.542628 0
M  V30 2377 H 234.048 -4.68039 0.0756209 0
M  V30 2378 H 234.221 -6.47015 0.357227 0
M  V30 2379 O 227.666 -0.00315229 -1.615 0
M  V30 2380 H 228.357 0.61308 -1.83742 0
M  V30 END ATOM
M  V30 BEGIN BOND
M  V30 END BOND
M  V30 END CTAB
M  END
$$$$
