drugbank_target|O67040 Exopolyphosphatase (DB03382)
 OpenBabel12092120273D

  0  0  0     0  0            999 V3000
M  V30 BEGIN CTAB
M  V30 COUNTS 5102 5141 0 0 0
M  V30 BEGIN ATOM
M  V30 1 H -0.908 1.98254 -0.117106 0
M  V30 2 N 0 1.576 0 0
M  V30 3 C 0.933 2.03868 1.02534 0
M  V30 4 C 1.911 0.928543 1.3348 0
M  V30 5 O 3.095 1.19667 1.45644 0
M  V30 6 C 0.222 2.43627 2.35294 0
M  V30 7 C -0.732 3.65373 2.2001 0
M  V30 8 S 0.101 5.13292 1.52614 0
M  V30 9 C 1.257 5.56322 2.86805 0
M  V30 10 H 1.49 2.90518 0.631377 0
M  V30 11 H -0.977 1.52953 0.210867 0
M  V30 12 H 0.981 2.67203 3.11629 0
M  V30 13 H -0.358 1.57376 2.7183 0
M  V30 14 H -1.165 3.90944 3.18086 0
M  V30 15 H -1.563 3.418 1.51819 0
M  V30 16 H 0.729 5.58782 3.83104 0
M  V30 17 H 1.672 6.56266 2.65933 0
M  V30 18 H 2.08 4.83886 2.90714 0
M  V30 19 N 1.4781 -0.272755 1.55222 0
M  V30 20 C 2.7031 -1.02683 1.80197 0
M  V30 21 C 3.1281 -1.79142 0.573551 0
M  V30 22 O 2.4861 -1.74917 -0.476849 0
M  V30 23 C 2.5341 -1.9609 3.02624 0
M  V30 24 O 1.6381 -3.04863 2.77727 0
M  V30 25 H 0.9791 -0.293557 0.595584 0
M  V30 26 H 3.5091 -0.30159 2.02365 0
M  V30 27 H 3.5191 -2.38039 3.31363 0
M  V30 28 H 2.1941 -1.39851 3.91682 0
M  V30 29 H 0.7711 -2.67228 2.60084 0
M  V30 30 N 2.9562 -1.48159 -0.537278 0
M  V30 31 C 3.8862 -1.65029 -1.6519 0
M  V30 32 C 4.8672 -0.499281 -1.62607 0
M  V30 33 O 6.0522 -0.730972 -1.79918 0
M  V30 34 C 3.1822 -1.68303 -3.03795 0
M  V30 35 C 2.1362 -2.8283 -3.21234 0
M  V30 36 C 1.4622 -2.71189 -4.60826 0
M  V30 37 C 2.7622 -4.24211 -3.04701 0
M  V30 38 H 4.4562 -2.58341 -1.51328 0
M  V30 39 H 2.0022 -1.24325 -0.726585 0
M  V30 40 H 3.9552 -1.78693 -3.81637 0
M  V30 41 H 2.6792 -0.715635 -3.18663 0
M  V30 42 H 1.3382 -2.71983 -2.45807 0
M  V30 43 H 0.9862 -1.72435 -4.7252 0
M  V30 44 H 0.6862 -3.48035 -4.7344 0
M  V30 45 H 2.2102 -2.83537 -5.40777 0
M  V30 46 H 3.6242 -4.3593 -3.72341 0
M  V30 47 H 2.0212 -5.01998 -3.28813 0
M  V30 48 H 3.0912 -4.41184 -2.01209 0
M  V30 49 N 4.4343 0.785586 -1.36625 0
M  V30 50 C 5.7113 1.53198 -1.21613 0
M  V30 51 C 6.0913 2.10187 0.196113 0
M  V30 52 O 5.4393 1.94318 1.20219 0
M  V30 53 C 5.6493 2.62388 -2.30116 0
M  V30 54 C 6.9973 3.30167 -2.66974 0
M  V30 55 O 8.0213 2.72674 -2.29188 0
M  V30 56 O 6.8803 4.34077 -3.32023 0
M  V30 57 H 3.9743 0.677865 -0.473738 0
M  V30 58 H 6.5203 0.823739 -1.48367 0
M  V30 59 H 5.2923 2.18299 -3.24748 0
M  V30 60 H 4.9153 3.40827 -2.0475 0
M  V30 61 N 5.9124 1.20967 1.01018 0
M  V30 62 C 6.8604 0.961223 2.1181 0
M  V30 63 C 7.8544 -0.0897034 1.69162 0
M  V30 64 O 9.0604 0.0612271 1.79896 0
M  V30 65 H 5.4354 0.29355 0.692338 0
M  V30 66 H 7.4064 1.90178 2.29946 0
M  V30 67 C 6.1554 0.536854 3.4353 0
M  V30 68 H 5.4784 1.33713 3.76777 0
M  V30 69 H 6.9184 0.402286 4.22087 0
M  V30 70 C 5.3774 -0.751574 3.2841 0
M  V30 71 O 5.9074 -1.80841 3.58691 0
M  V30 72 N 4.1134 -0.716079 2.81639 0
M  V30 73 H 3.6604 0.144236 2.57196 0
M  V30 74 H 3.6184 -1.57847 2.71904 0
M  V30 75 N 7.3905 -1.2043 1.01659 0
M  V30 76 C 8.3375 -2.23215 0.586822 0
M  V30 77 C 9.3075 -1.61382 -0.393085 0
M  V30 78 O 10.4925 -1.88544 -0.292525 0
M  V30 79 C 7.6325 -3.45032 -0.0687464 0
M  V30 80 C 6.7455 -4.21296 0.955724 0
M  V30 81 C 5.8805 -5.30507 0.271208 0
M  V30 82 C 4.9195 -5.98515 1.28244 0
M  V30 83 N 4.0565 -6.99316 0.62459 0
M  V30 84 H 8.8965 -2.59336 1.46796 0
M  V30 85 H 6.4335 -1.27431 0.734836 0
M  V30 86 H 8.3915 -4.1459 -0.465965 0
M  V30 87 H 7.0215 -3.09604 -0.913529 0
M  V30 88 H 6.0735 -3.50803 1.4711 0
M  V30 89 H 7.3855 -4.6803 1.72479 0
M  V30 90 H 6.5395 -6.06428 -0.18151 0
M  V30 91 H 5.2785 -4.8481 -0.530163 0
M  V30 92 H 4.2835 -5.21355 1.74554 0
M  V30 93 H 5.5085 -6.46298 2.08509 0
M  V30 94 H 3.4545 -6.55812 -0.156914 0
M  V30 95 H 3.3715 -7.44178 1.33172 0
M  V30 96 H 4.6395 -7.79255 0.195462 0
M  V30 97 N 8.8686 -0.792821 -1.36206 0
M  V30 98 C 10.2796 -0.429513 -1.81692 0
M  V30 99 C 10.6306 1.04695 -1.65932 0
M  V30 100 O 9.7556 1.81256 -1.18218 0
M  V30 101 C 10.3506 -0.772831 -3.29868 0
M  V30 102 C 8.9096 -0.462307 -3.7355 0
M  V30 103 C 8.0566 -1.00569 -2.5842 0
M  V30 104 H 11.0076 -0.985672 -1.24379 0
M  V30 105 H 11.0286 -0.0651928 -3.80444 0
M  V30 106 H 10.5406 -1.84747 -3.41307 0
M  V30 107 H 8.6416 0.604158 -3.67669 0
M  V30 108 H 8.7546 -0.985299 -4.68859 0
M  V30 109 H 7.1186 -0.428734 -2.51066 0
M  V30 110 H 7.9016 -2.08616 -2.72643 0
M  V30 111 N 10.3467 1.47872 -0.545128 0
M  V30 112 C 11.5957 2.01695 -0.0145033 0
M  V30 113 C 11.9087 1.42609 1.33873 0
M  V30 114 O 13.1147 1.88021 1.95858 0
M  V30 115 C 11.5707 3.59892 0.0245068 0
M  V30 116 C 11.1787 4.27966 -1.32475 0
M  V30 117 C 12.9227 4.21507 0.50316 0
M  V30 118 C 10.8297 5.78136 -1.2455 0
M  V30 119 H 9.7597 0.753998 -0.00165172 0
M  V30 120 H 12.4107 1.69985 -0.691175 0
M  V30 121 H 10.7927 3.88509 0.766575 0
M  V30 122 H 11.9667 4.11003 -2.08357 0
M  V30 123 H 10.2817 3.78286 -1.74036 0
M  V30 124 H 12.8787 5.31538 0.580656 0
M  V30 125 H 13.2217 3.87855 1.51243 0
M  V30 126 H 13.7547 3.97376 -0.183681 0
M  V30 127 H 10.4937 6.16388 -2.23039 0
M  V30 128 H 10.0137 5.97469 -0.528282 0
M  V30 129 H 11.6927 6.40099 -0.942488 0
M  V30 130 N 11.8248 0.280983 1.55075 0
M  V30 131 C 12.7578 -0.645439 2.18882 0
M  V30 132 C 13.7358 -1.14786 1.15165 0
M  V30 133 O 14.9198 -1.21975 1.43716 0
M  V30 134 C 12.0468 -1.88088 2.81674 0
M  V30 135 C 11.0928 -1.51343 3.98745 0
M  V30 136 S 11.9258 -0.586548 5.32278 0
M  V30 137 C 13.0818 -1.83024 5.98543 0
M  V30 138 H 13.3148 -0.1033 2.9712 0
M  V30 139 H 10.8478 0.0652099 1.54262 0
M  V30 140 H 12.8058 -2.58997 3.18482 0
M  V30 141 H 11.4668 -2.39417 2.03318 0
M  V30 142 H 10.6598 -2.43289 4.41392 0
M  V30 143 H 10.2618 -0.884477 3.63391 0
M  V30 144 H 12.5538 -2.77342 6.18133 0
M  V30 145 H 13.4968 -1.44668 6.93164 0
M  V30 146 H 13.9048 -1.99785 5.27964 0
M  V30 147 N 13.3029 -1.57598 0.00835791 0
M  V30 148 C 14.7189 -1.55764 -0.347822 0
M  V30 149 C 14.9189 -1.01186 -1.74252 0
M  V30 150 O 13.9749 -0.649371 -2.44007 0
M  V30 151 C 15.2879 -2.99927 -0.215407 0
M  V30 152 C 16.8359 -3.11656 -0.289725 0
M  V30 153 C 17.3109 -4.57621 -0.18634 0
M  V30 154 N 18.8019 -4.62557 -0.243978 0
M  V30 155 C 19.5369 -5.73094 -0.18745 0
M  V30 156 N 19.0329 -6.92753 -0.0810331 0
M  V30 157 N 20.8259 -5.61588 -0.239925 0
M  V30 158 H 12.9769 -1.91411 0.92062 0
M  V30 159 H 15.2399 -0.879562 0.353659 0
M  V30 160 H 14.9459 -3.43729 0.744512 0
M  V30 161 H 14.8199 -3.63865 -0.994097 0
M  V30 162 H 17.2069 -2.67779 -1.24009 0
M  V30 163 H 17.2879 -2.5048 0.51898 0
M  V30 164 H 16.9319 -5.02174 0.760519 0
M  V30 165 H 16.8619 -5.16752 -1.01364 0
M  V30 166 H 19.3529 -3.76481 -0.327217 0
M  V30 167 H 19.6659 -7.72787 -0.0440241 0
M  V30 168 H 18.0109 -6.94984 -0.0465419 0
M  V30 169 H 21.2019 -4.66996 -0.321317 0
M  V30 170 H 21.3749 -6.47714 -0.192407 0
M  V30 171 N 14.781 0.264519 -1.55364 0
M  V30 172 C 16.027 0.99646 -1.76631 0
M  V30 173 C 16.36 1.85632 -0.570478 0
M  V30 174 O 15.635 1.89647 0.43175 0
M  V30 175 C 15.918 1.87187 -3.07625 0
M  V30 176 C 15.771 1.04138 -4.37579 0
M  V30 177 C 17.09 2.85749 -3.34717 0
M  V30 178 H 14.209 0.360841 -0.642622 0
M  V30 179 H 16.851 0.268218 -1.88097 0
M  V30 180 H 15.001 2.49279 -2.9798 0
M  V30 181 H 16.673 0.440517 -4.59192 0
M  V30 182 H 14.916 0.345115 -4.32425 0
M  V30 183 H 15.587 1.68729 -5.2558 0
M  V30 184 H 18.063 2.33793 -3.4421 0
M  V30 185 H 16.939 3.44136 -4.27623 0
M  V30 186 H 17.2 3.61311 -2.54768 0
M  V30 187 N 16.2591 1.48442 0.529413 0
M  V30 188 C 17.2221 1.62524 1.61612 0
M  V30 189 C 18.2221 0.498509 1.52877 0
M  V30 190 O 19.4121 0.76431 1.56537 0
M  V30 191 C 16.5441 1.59597 3.01233 0
M  V30 192 H 17.7371 2.59423 1.50465 0
M  V30 193 H 15.2901 1.37047 0.751514 0
M  V30 194 H 16.0251 0.641781 3.17886 0
M  V30 195 H 15.8101 2.41397 3.08982 0
M  V30 196 H 17.3001 1.72646 3.80241 0
M  V30 197 N 17.7372 -0.778329 1.37039 0
M  V30 198 C 18.9622 -1.57248 1.35233 0
M  V30 199 C 19.3872 -1.87999 -0.0615568 0
M  V30 200 O 18.7452 -1.48734 -1.03672 0
M  V30 201 C 18.7932 -2.86353 2.19167 0
M  V30 202 O 17.8972 -3.80442 1.59178 0
M  V30 203 H 17.2382 -0.476569 0.462362 0
M  V30 204 H 19.7682 -0.963853 1.80474 0
M  V30 205 H 19.7782 -3.35519 2.32145 0
M  V30 206 H 18.4532 -2.63299 3.21942 0
M  V30 207 H 17.0302 -3.39067 1.55203 0
M  V30 208 N 19.2153 -1.21501 -1.00376 0
M  V30 209 C 20.4643 -1.02718 -1.73586 0
M  V30 210 C 20.7773 0.439589 -1.90596 0
M  V30 211 O 21.9833 0.746848 -2.61026 0
M  V30 212 C 20.4393 -1.78929 -3.1227 0
M  V30 213 C 20.0473 -3.29783 -3.03228 0
M  V30 214 C 21.7913 -1.68557 -3.89601 0
M  V30 215 C 19.6983 -3.98479 -4.36999 0
M  V30 216 H 18.6283 -0.380733 -0.650814 0
M  V30 217 H 21.2793 -1.45248 -1.1214 0
M  V30 218 H 19.6613 -1.29192 -3.74333 0
M  V30 219 H 20.8353 -3.86832 -2.50395 0
M  V30 220 H 19.1503 -3.40711 -2.39385 0
M  V30 221 H 21.7473 -2.17211 -4.88593 0
M  V30 222 H 22.0903 -0.644021 -4.11288 0
M  V30 223 H 22.6233 -2.15778 -3.34193 0
M  V30 224 H 19.3623 -5.02841 -4.20513 0
M  V30 225 H 18.8823 -3.46219 -4.89788 0
M  V30 226 H 20.5613 -4.03462 -5.05794 0
M  V30 227 N 20.6934 1.19889 -1.02296 0
M  V30 228 C 21.9704 1.85148 -0.630832 0
M  V30 229 C 22.3504 1.91385 0.890782 0
M  V30 230 O 21.6984 1.42642 1.78509 0
M  V30 231 C 21.9084 3.24442 -1.28602 0
M  V30 232 C 23.2564 4.00663 -1.4055 0
M  V30 233 O 24.2804 3.33818 -1.24273 0
M  V30 234 O 23.1394 5.20387 -1.66913 0
M  V30 235 H 20.2334 0.797613 -0.218499 0
M  V30 236 H 22.7794 1.27427 -1.12074 0
M  V30 237 H 21.5514 3.14704 -2.32545 0
M  V30 238 H 21.1744 3.89802 -0.7836 0
M  V30 239 N 22.1715 0.800033 1.35784 0
M  V30 240 C 23.4205 0.37387 1.98205 0
M  V30 241 C 23.7335 -1.06302 1.64193 0
M  V30 242 O 24.9395 -1.59198 2.19928 0
M  V30 243 C 23.3955 0.617532 3.54562 0
M  V30 244 C 23.0035 2.06654 3.9749 0
M  V30 245 C 24.7475 0.256401 4.23725 0
M  V30 246 C 22.6545 2.2563 5.46667 0
M  V30 247 H 21.5845 0.136055 0.741623 0
M  V30 248 H 24.2355 0.983166 1.54939 0
M  V30 249 H 22.6175 -0.0616248 3.95952 0
M  V30 250 H 23.7915 2.78296 3.67271 0
M  V30 251 H 22.1065 2.38691 3.41197 0
M  V30 252 H 24.7035 0.376318 5.33374 0
M  V30 253 H 25.0465 -0.796692 4.08606 0
M  V30 254 H 25.5795 0.889214 3.87734 0
M  V30 255 H 22.3185 3.2936 5.66747 0
M  V30 256 H 21.8385 1.58504 5.78478 0
M  V30 257 H 23.5175 2.06861 6.1304 0
M  V30 258 N 23.6496 -1.47581 0.552962 0
M  V30 259 C 24.8976 -2.02082 0.0272703 0
M  V30 260 C 25.2186 -1.4301 -1.32563 0
M  V30 261 O 24.4886 -0.603745 -1.86365 0
M  V30 262 H 23.0686 -0.746966 0.00709182 0
M  V30 263 H 25.7306 -1.81033 0.722008 0
M  V30 264 H 24.8266 -3.12034 -0.0639951 0
M  V30 265 N 25.1277 -0.289203 -1.54924 0
M  V30 266 C 26.3527 0.329299 -2.04769 0
M  V30 267 C 26.7777 1.4763 -1.16564 0
M  V30 268 O 26.1357 1.80527 -0.167186 0
M  V30 269 C 26.1837 0.774438 -3.52186 0
M  V30 270 O 25.2877 1.88038 -3.67036 0
M  V30 271 H 24.6287 0.0659259 -0.660719 0
M  V30 272 H 27.1587 -0.42761 -2.00082 0
M  V30 273 H 27.1687 1.06642 -3.93816 0
M  V30 274 H 25.8437 -0.0646707 -4.1585 0
M  V30 275 H 24.4207 1.58985 -3.3731 0
M  V30 276 N 26.6058 1.57591 -0.0167156 0
M  V30 277 C 27.8358 1.95292 0.674149 0
M  V30 278 C 28.2438 0.891097 1.66901 0
M  V30 279 O 27.5868 -0.136908 1.83189 0
M  V30 280 C 27.6488 3.29072 1.44747 0
M  V30 281 C 27.3128 4.52879 0.612331 0
M  V30 282 C 28.3098 5.1979 -0.107126 0
M  V30 283 C 25.9948 4.99242 0.553381 0
M  V30 284 C 27.9888 6.31375 -0.874339 0
M  V30 285 C 25.6758 6.10713 -0.217546 0
M  V30 286 C 26.6738 6.76637 -0.930123 0
M  V30 287 O 26.3618 7.85969 -1.68844 0
M  V30 288 H 26.0938 0.648275 0.191615 0
M  V30 289 H 28.6478 2.05284 -0.0690148 0
M  V30 290 H 26.8778 3.15535 2.2355 0
M  V30 291 H 28.5668 3.51764 2.02526 0
M  V30 292 H 29.3328 4.84948 -0.0708392 0
M  V30 293 H 25.2118 4.47744 1.09757 0
M  V30 294 H 28.7558 6.82764 -1.43106 0
M  V30 295 H 24.6528 6.44994 -0.255593 0
M  V30 296 H 25.4208 8.02571 -1.6069 0
M  V30 297 N 28.0839 -0.256276 1.55502 0
M  V30 298 C 29.3089 -1.00766 1.81276 0
M  V30 299 C 29.7339 -1.78524 0.59252 0
M  V30 300 O 29.0919 -1.75413 -0.45827 0
M  V30 301 C 29.1399 -1.92869 3.04687 0
M  V30 302 O 28.2439 -3.019 2.80945 0
M  V30 303 H 27.5849 -0.287224 0.598664 0
M  V30 304 H 30.1149 -0.280109 2.02674 0
M  V30 305 H 30.1249 -2.34511 3.33869 0
M  V30 306 H 28.7999 -1.35689 3.93143 0
M  V30 307 H 27.3769 -2.64454 2.62904 0
M  V30 308 N 29.562 -1.4872 -0.521534 0
M  V30 309 C 30.808 -1.574 -1.27879 0
M  V30 310 C 31.141 -0.250817 -1.92573 0
M  V30 311 O 30.416 0.743934 -1.79711 0
M  V30 312 C 30.699 -2.71843 -2.36164 0
M  V30 313 C 30.552 -4.13893 -1.76105 0
M  V30 314 C 31.871 -2.82008 -3.37875 0
M  V30 315 H 28.99 -0.572941 -0.463581 0
M  V30 316 H 31.632 -1.80927 -0.580119 0
M  V30 317 H 29.782 -2.51914 -2.95756 0
M  V30 318 H 31.454 -4.45284 -1.20499 0
M  V30 319 H 29.697 -4.20498 -1.06601 0
M  V30 320 H 30.368 -4.89804 -2.5455 0
M  V30 321 H 32.844 -3.00086 -2.88249 0
M  V30 322 H 31.72 -3.63796 -4.11028 0
M  V30 323 H 31.981 -1.90511 -3.98946 0
M  V30 324 N 31.0401 0.771051 -1.3745 0
M  V30 325 C 32.4561 1.07171 -1.18265 0
M  V30 326 C 32.6561 2.01491 -0.019287 0
M  V30 327 O 31.7121 2.44244 0.640408 0
M  V30 328 C 33.0251 1.66854 -2.50161 0
M  V30 329 C 34.5731 1.79109 -2.56689 0
M  V30 330 C 35.0481 2.42205 -3.88717 0
M  V30 331 N 36.5391 2.49655 -3.90162 0
M  V30 332 C 37.2741 2.9933 -4.8907 0
M  V30 333 N 36.7701 3.49172 -5.98374 0
M  V30 334 N 38.5631 2.9821 -4.76474 0
M  V30 335 H 30.7141 0.144796 -2.11906 0
M  V30 336 H 32.9771 0.126863 -0.939473 0
M  V30 337 H 32.6831 1.05017 -3.35655 0
M  V30 338 H 32.5571 2.6614 -2.673 0
M  V30 339 H 34.9441 2.40077 -1.71601 0
M  V30 340 H 35.0251 0.785757 -2.43433 0
M  V30 341 H 34.6691 1.81875 -4.74219 0
M  V30 342 H 34.5991 3.43345 -3.99276 0
M  V30 343 H 37.0901 2.14383 -3.11205 0
M  V30 344 H 37.4031 3.8548 -6.69795 0
M  V30 345 H 35.7481 3.47275 -6.02018 0
M  V30 346 H 38.9391 2.58572 -3.90203 0
M  V30 347 H 39.1121 3.36613 -5.53711 0
M  V30 348 N 32.5182 1.22032 0.997298 0
M  V30 349 C 33.4482 1.01065 2.10495 0
M  V30 350 C 34.4292 -0.0669542 1.69968 0
M  V30 351 O 35.6142 0.0943987 1.9397 0
M  V30 352 C 32.7442 0.582874 3.42374 0
M  V30 353 C 31.6982 1.60592 3.96729 0
M  V30 354 C 31.0242 1.03412 5.24605 0
M  V30 355 C 32.3242 2.99478 4.27914 0
M  V30 356 H 34.0182 1.93708 2.28292 0
M  V30 357 H 31.5642 0.932761 1.09707 0
M  V30 358 H 33.5172 0.423332 4.19268 0
M  V30 359 H 32.2412 -0.379213 3.24391 0
M  V30 360 H 30.9002 1.75316 3.21963 0
M  V30 361 H 30.5482 0.063518 5.0296 0
M  V30 362 H 30.2482 1.71754 5.61938 0
M  V30 363 H 31.7722 0.886066 6.04137 0
M  V30 364 H 33.1862 2.88153 4.95622 0
M  V30 365 H 31.5832 3.64903 4.76409 0
M  V30 366 H 32.6532 3.49742 3.3587 0
M  V30 367 N 33.9963 -1.19345 1.0293 0
M  V30 368 C 35.2243 -1.92997 0.745644 0
M  V30 369 C 35.6393 -1.75519 -0.695589 0
M  V30 370 O 34.9963 -1.07737 -1.47306 0
M  V30 371 C 35.0473 -3.44741 1.08792 0
M  V30 372 O 34.7683 -3.61658 2.47256 0
M  V30 373 C 36.2693 -4.35515 0.827129 0
M  V30 374 H 33.4893 -0.613042 0.272801 0
M  V30 375 H 36.0333 -1.51473 1.3739 0
M  V30 376 H 34.1883 -3.84097 0.504832 0
M  V30 377 H 34.6023 -4.55514 2.60015 0
M  V30 378 H 36.0763 -5.40589 1.11658 0
M  V30 379 H 36.5533 -4.38552 -0.238436 0
M  V30 380 H 37.1593 -4.01841 1.39297 0
M  V30 381 N 35.4744 -0.807222 -1.35358 0
M  V30 382 C 36.7234 -0.384376 -1.98004 0
M  V30 383 C 37.0364 1.0543 -1.64754 0
M  V30 384 O 38.2424 1.58029 -2.20769 0
M  V30 385 C 36.6984 -0.636326 -3.5423 0
M  V30 386 C 36.3064 -2.08759 -3.96388 0
M  V30 387 C 38.0504 -0.278869 -4.23583 0
M  V30 388 C 35.9574 -2.28525 -5.45463 0
M  V30 389 H 34.8874 -0.139986 -0.740891 0
M  V30 390 H 37.5384 -0.991369 -1.54415 0
M  V30 391 H 35.9204 0.0406256 -3.95979 0
M  V30 392 H 37.0944 -2.8024 -3.6579 0
M  V30 393 H 35.4094 -2.40497 -3.39926 0
M  V30 394 H 38.0064 -0.404599 -5.33167 0
M  V30 395 H 38.3494 0.775012 -4.09022 0
M  V30 396 H 38.8824 -0.909764 -3.87257 0
M  V30 397 H 35.6214 -3.32361 -5.64992 0
M  V30 398 H 35.1414 -1.61569 -5.77629 0
M  V30 399 H 36.8204 -2.10109 -6.11934 0
M  V30 400 N 36.9525 1.47285 -0.560781 0
M  V30 401 C 37.9155 2.28535 0.174488 0
M  V30 402 C 38.9155 1.37153 0.839388 0
M  V30 403 O 40.1055 1.59748 0.694702 0
M  V30 404 C 37.2375 3.16934 1.25561 0
M  V30 405 H 38.4305 2.95012 -0.539262 0
M  V30 406 H 35.9835 1.53034 -0.317865 0
M  V30 407 H 36.7185 2.55157 2.00164 0
M  V30 408 H 36.5035 3.8419 0.783604 0
M  V30 409 H 37.9935 3.78143 1.77193 0
M  V30 410 N 38.4306 0.297415 1.54768 0
M  V30 411 C 39.3626 -0.613881 2.20826 0
M  V30 412 C 40.3756 -1.10032 1.19987 0
M  V30 413 O 41.5646 -1.01839 1.46598 0
M  V30 414 C 38.6646 -1.852 2.83821 0
M  V30 415 C 37.8376 -1.50865 4.10559 0
M  V30 416 C 36.8966 -2.60154 4.57391 0
M  V30 417 O 35.9226 -2.25398 5.2267 0
M  V30 418 N 37.1246 -3.90629 4.29406 0
M  V30 419 H 39.8896 -0.048389 2.99661 0
M  V30 420 H 37.4506 0.11946 1.61459 0
M  V30 421 H 39.4426 -2.57652 3.12086 0
M  V30 422 H 38.0126 -2.32597 2.08847 0
M  V30 423 H 37.2326 -0.616925 3.89343 0
M  V30 424 H 38.5206 -1.25458 4.9309 0
M  V30 425 H 37.9186 -4.21677 3.77101 0
M  V30 426 H 36.4756 -4.59391 4.62388 0
M  V30 427 N 39.9087 -1.5758 0.0250728 0
M  V30 428 C 41.1577 -1.90811 -0.653767 0
M  V30 429 C 41.4707 -0.90273 -1.73523 0
M  V30 430 O 42.6767 -1.12614 -2.47043 0
M  V30 431 C 41.1327 -3.38804 -1.21409 0
M  V30 432 C 40.7407 -4.47692 -0.166126 0
M  V30 433 C 42.4847 -3.81108 -1.86967 0
M  V30 434 C 40.3917 -5.86779 -0.737856 0
M  V30 435 H 39.3217 -0.712063 -0.247956 0
M  V30 436 H 41.9727 -1.83281 0.0897137 0
M  V30 437 H 40.3547 -3.41252 -2.00905 0
M  V30 438 H 41.5287 -4.56797 0.606079 0
M  V30 439 H 39.8437 -4.14565 0.390466 0
M  V30 440 H 42.4407 -4.82375 -2.30692 0
M  V30 441 H 42.7837 -3.15953 -2.71071 0
M  V30 442 H 43.3167 -3.81065 -1.14167 0
M  V30 443 H 40.0557 -6.55468 0.0649577 0
M  V30 444 H 39.5757 -5.81288 -1.47864 0
M  V30 445 H 41.2547 -6.35223 -1.22884 0
M  V30 446 N 41.3868 0.248026 -1.55636 0
M  V30 447 C 42.3338 1.30707 -1.90222 0
M  V30 448 C 43.3038 1.47881 -0.756332 0
M  V30 449 O 44.4888 1.61883 -1.00988 0
M  V30 450 C 41.6288 2.65769 -2.20138 0
M  V30 451 C 40.7418 2.56612 -3.47526 0
M  V30 452 C 39.8768 3.8402 -3.67017 0
M  V30 453 C 38.9158 3.69476 -4.8801 0
M  V30 454 N 38.0528 4.88774 -5.04029 0
M  V30 455 H 42.8928 1.00512 -2.80538 0
M  V30 456 H 40.4298 0.485055 -1.38873 0
M  V30 457 H 42.3878 3.44386 -2.35487 0
M  V30 458 H 41.0178 2.94115 -1.33027 0
M  V30 459 H 40.0698 1.69571 -3.40514 0
M  V30 460 H 41.3818 2.41774 -4.36287 0
M  V30 461 H 40.5358 4.7108 -3.8232 0
M  V30 462 H 39.2748 4.01754 -2.76487 0
M  V30 463 H 38.2798 2.80799 -4.72686 0
M  V30 464 H 39.5048 3.53238 -5.8 0
M  V30 465 H 37.4508 5.0687 -4.16435 0
M  V30 466 H 37.3678 4.76562 -5.86877 0
M  V30 467 H 38.6358 5.77335 -5.23741 0
M  V30 468 N 42.8649 1.48995 0.513639 0
M  V30 469 C 44.1419 1.48338 1.27495 0
M  V30 470 C 44.5219 0.204065 2.10111 0
M  V30 471 O 43.8699 -0.813881 2.13514 0
M  V30 472 C 44.0799 2.75498 2.14247 0
M  V30 473 C 45.4279 3.24484 2.73852 0
M  V30 474 O 46.4519 2.76528 2.24523 0
M  V30 475 O 45.3109 4.07974 3.6362 0
M  V30 476 H 42.4049 0.593149 0.576284 0
M  V30 477 H 44.9509 1.61246 0.528948 0
M  V30 478 H 43.7229 3.60109 1.53092 0
M  V30 479 H 43.3459 2.6539 2.96064 0
M  V30 480 N 44.343 -0.763751 1.37857 0
M  V30 481 C 45.591 -1.51957 1.33243 0
M  V30 482 C 45.912 -1.94835 -0.0801709 0
M  V30 483 O 45.182 -1.66894 -1.02582 0
M  V30 484 H 43.762 -0.563626 0.49024 0
M  V30 485 H 46.424 -0.908504 1.7243 0
M  V30 486 H 45.52 -2.41523 1.97669 0
M  V30 487 N 45.8211 -1.22559 -0.990812 0
M  V30 488 C 46.7681 -0.997519 -2.0813 0
M  V30 489 C 47.7381 0.0814702 -1.659 0
M  V30 490 O 48.9231 -0.0685424 -1.90677 0
M  V30 491 C 46.0631 -0.583615 -3.40129 0
M  V30 492 C 45.1761 -1.7336 -3.9569 0
M  V30 493 C 44.3111 -1.26748 -5.15857 0
M  V30 494 C 43.3501 -2.38888 -5.63559 0
M  V30 495 N 42.4871 -1.93308 -6.74964 0
M  V30 496 H 47.3271 -1.93099 -2.26973 0
M  V30 497 H 44.8641 -0.962114 -1.11273 0
M  V30 498 H 46.8221 -0.324801 -4.15934 0
M  V30 499 H 45.4521 0.312845 -3.2128 0
M  V30 500 H 44.5041 -2.10669 -3.16738 0
M  V30 501 H 45.8161 -2.57704 -4.27071 0
M  V30 502 H 44.9701 -0.966173 -5.98957 0
M  V30 503 H 43.7091 -0.394272 -4.86104 0
M  V30 504 H 42.7141 -2.69805 -4.79046 0
M  V30 505 H 43.9391 -3.26728 -5.95336 0
M  V30 506 H 41.8851 -1.08352 -6.4699 0
M  V30 507 H 41.8021 -2.71217 -7.05675 0
M  V30 508 H 43.0701 -1.66252 -7.61564 0
M  V30 509 N 47.2992 1.18797 -1.03562 0
M  V30 510 C 48.2292 2.24472 -0.643019 0
M  V30 511 C 49.2102 1.66433 0.351283 0
M  V30 512 O 50.3952 1.92803 0.232505 0
M  V30 513 C 47.5252 3.473 4.24935e-05 0
M  V30 514 C 46.4792 4.18055 -0.917257 0
M  V30 515 C 45.8052 5.34519 -0.138941 0
M  V30 516 C 47.1052 4.72109 -2.23407 0
M  V30 517 H 48.7992 2.57566 -1.52643 0
M  V30 518 H 46.3452 1.23806 -0.735394 0
M  V30 519 H 48.2982 4.20426 0.286383 0
M  V30 520 H 47.0222 3.13424 0.918299 0
M  V30 521 H 45.6812 3.46821 -1.1879 0
M  V30 522 H 45.3292 4.96891 0.781562 0
M  V30 523 H 45.0292 5.82794 -0.750005 0
M  V30 524 H 46.5532 6.10438 0.1405 0
M  V30 525 H 47.9672 5.36955 -2.00879 0
M  V30 526 H 46.3642 5.30897 -2.79765 0
M  V30 527 H 47.4342 3.89807 -2.88407 0
M  V30 528 N 48.7773 0.814389 1.34928 0
M  V30 529 C 50.0023 0.410097 2.03305 0
M  V30 530 C 50.4273 -0.973464 1.60951 0
M  V30 531 O 49.7853 -1.63185 0.789964 0
M  V30 532 C 49.8333 0.51049 3.56968 0
M  V30 533 O 48.9373 -0.473035 4.09678 0
M  V30 534 H 48.2783 0.170088 0.641846 0
M  V30 535 H 50.8083 1.10244 1.72358 0
M  V30 536 H 50.8183 0.383135 4.06197 0
M  V30 537 H 49.4933 1.51963 3.87144 0
M  V30 538 H 48.0703 -0.305272 3.71648 0
M  V30 539 N 50.2554 -1.46986 0.568584 0
M  V30 540 C 51.5044 -2.01646 0.0465894 0
M  V30 541 C 51.8174 -1.44721 -1.31587 0
M  V30 542 O 53.0234 -1.91113 -1.92842 0
M  V30 543 C 51.4794 -3.59885 0.032752 0
M  V30 544 C 51.0874 -4.25804 1.39266 0
M  V30 545 C 52.8314 -4.22255 -0.436038 0
M  V30 546 C 50.7384 -5.76081 1.33732 0
M  V30 547 H 49.6684 -0.753876 0.013647 0
M  V30 548 H 52.3194 -1.68864 0.718131 0
M  V30 549 H 50.7014 -3.8968 -0.704669 0
M  V30 550 H 51.8754 -4.07637 2.1487 0
M  V30 551 H 50.1904 -3.7547 1.80032 0
M  V30 552 H 52.7874 -5.32394 -0.49602 0
M  V30 553 H 53.1304 -3.90212 -1.45053 0
M  V30 554 H 53.6634 -3.97033 0.246877 0
M  V30 555 H 50.4024 -6.12761 2.32817 0
M  V30 556 H 49.9224 -5.96553 0.623267 0
M  V30 557 H 51.6014 -6.38518 1.0442 0
M  V30 558 N 51.7335 -0.305618 -1.54608 0
M  V30 559 C 52.9825 0.303098 -1.9941 0
M  V30 560 C 53.2955 1.54648 -1.19764 0
M  V30 561 O 54.5015 2.23007 -1.54855 0
M  V30 562 C 52.9575 0.590588 -3.55021 0
M  V30 563 C 52.5655 -0.634719 -4.43481 0
M  V30 564 C 54.3095 1.16025 -4.08336 0
M  V30 565 C 52.2165 -0.320126 -5.90533 0
M  V30 566 H 51.1465 0.117031 -0.744862 0
M  V30 567 H 53.7975 -0.415045 -1.78745 0
M  V30 568 H 52.1795 1.36845 -3.71604 0
M  V30 569 H 53.3535 -1.41079 -4.38672 0
M  V30 570 H 51.6685 -1.12333 -4.00962 0
M  V30 571 H 54.2655 1.40994 -5.15776 0
M  V30 572 H 54.6085 2.10397 -3.5922 0
M  V30 573 H 55.1415 0.443985 -3.95315 0
M  V30 574 H 51.8805 -1.23254 -6.43808 0
M  V30 575 H 51.4005 0.418579 -5.98338 0
M  V30 576 H 53.0795 0.0766241 -6.46955 0
M  V30 577 N 53.2116 1.57565 -0.0334293 0
M  V30 578 C 54.1416 2.13511 0.945265 0
M  V30 579 C 55.1226 1.05231 1.33643 0
M  V30 580 O 56.3076 1.33084 1.41429 0
M  V30 581 C 53.4376 2.6657 2.22616 0
M  V30 582 C 52.3916 3.79676 1.97561 0
M  V30 583 C 51.7176 4.1918 3.31952 0
M  V30 584 C 53.0176 5.0557 1.31135 0
M  V30 585 H 54.7116 2.95538 0.479325 0
M  V30 586 H 52.2576 1.42166 0.229115 0
M  V30 587 H 54.2106 3.04344 2.91466 0
M  V30 588 H 52.9346 1.8171 2.71384 0
M  V30 589 H 51.5936 3.42347 1.31127 0
M  V30 590 H 51.2416 3.31296 3.78487 0
M  V30 591 H 50.9416 4.95402 3.15992 0
M  V30 592 H 52.4656 4.59541 4.02063 0
M  V30 593 H 53.8796 5.40903 1.89992 0
M  V30 594 H 52.2766 5.86818 1.25559 0
M  V30 595 H 53.3466 4.84062 0.284894 0
M  V30 596 N 54.6897 -0.239769 1.55765 0
M  V30 597 C 55.5997 -1.31831 1.94056 0
M  V30 598 C 56.6157 -1.52275 0.841925 0
M  V30 599 O 57.7917 -1.65759 1.14394 0
M  V30 600 C 54.8567 -2.65156 2.23368 0
M  V30 601 C 53.9177 -2.53173 3.46701 0
M  V30 602 C 53.1507 -3.8014 3.74606 0
M  V30 603 O 53.3737 -4.82343 3.04469 0
M  V30 604 O 52.3077 -3.78344 4.68123 0
M  V30 605 H 56.1337 -1.02347 2.85935 0
M  V30 606 H 53.7187 -0.441123 1.42739 0
M  V30 607 H 55.6007 -3.43929 2.43497 0
M  V30 608 H 54.2757 -2.94358 1.34666 0
M  V30 609 H 53.1827 -1.72662 3.31871 0
M  V30 610 H 54.5157 -2.28915 4.35728 0
M  V30 611 N 56.1678 -1.49265 -0.50573 0
M  V30 612 C 57.5838 -1.35923 -0.836486 0
M  V30 613 C 57.7838 -0.388704 -1.97715 0
M  V30 614 O 56.8398 0.181336 -2.51848 0
M  V30 615 C 58.1528 -2.76531 -1.18115 0
M  V30 616 C 59.7008 -2.85197 -1.28964 0
M  V30 617 C 60.1758 -4.26561 -1.66761 0
M  V30 618 N 61.6668 -4.2935 -1.73819 0
M  V30 619 C 62.4018 -5.35693 -2.045 0
M  V30 620 N 61.8978 -6.52287 -2.33438 0
M  V30 621 N 63.6908 -5.23105 -2.05711 0
M  V30 622 H 55.8418 -2.10965 0.246519 0
M  V30 623 H 58.1048 -0.9468 0.0476887 0
M  V30 624 H 57.8108 -3.49226 -0.416398 0
M  V30 625 H 57.6848 -3.11599 -2.1257 0
M  V30 626 H 60.0718 -2.12742 -2.04511 0
M  V30 627 H 60.1528 -2.53718 -0.325704 0
M  V30 628 H 59.7968 -4.99541 -0.917656 0
M  V30 629 H 59.7268 -4.55502 -2.64246 0
M  V30 630 H 62.2178 -3.4526 -1.53635 0
M  V30 631 H 62.5308 -7.29158 -2.56024 0
M  V30 632 H 60.8758 -6.55521 -2.30905 0
M  V30 633 H 64.0668 -4.31026 -1.82577 0
M  V30 634 H 64.2398 -6.06078 -2.29289 0
M  V30 635 N 57.6459 0.756429 -1.3826 0
M  V30 636 C 58.8939 1.51248 -1.34047 0
M  V30 637 C 59.2149 1.94875 0.0698372 0
M  V30 638 O 58.4849 1.67436 1.01696 0
M  V30 639 H 57.0649 0.561018 -0.493222 0
M  V30 640 H 59.7269 0.899347 -1.7291 0
M  V30 641 H 58.8229 2.40472 -1.98947 0
M  V30 642 N 59.124 1.23083 0.984299 0
M  V30 643 C 60.54 0.992637 1.24975 0
M  V30 644 C 60.74 -0.308618 1.99123 0
M  V30 645 O 59.796 -1.02905 2.30579 0
M  V30 646 C 61.109 2.19698 2.05312 0
M  V30 647 C 62.657 2.24147 2.18465 0
M  V30 648 C 63.132 3.44157 3.02192 0
M  V30 649 N 64.623 3.44372 3.09777 0
M  V30 650 C 65.358 4.33886 3.74874 0
M  V30 651 N 64.854 5.3363 4.41827 0
M  V30 652 N 66.647 4.21639 3.71721 0
M  V30 653 H 58.798 2.06731 0.487453 0
M  V30 654 H 61.061 0.906339 0.277944 0
M  V30 655 H 60.767 3.1411 1.58201 0
M  V30 656 H 60.641 2.20465 3.06064 0
M  V30 657 H 63.028 1.30277 2.64786 0
M  V30 658 H 63.109 2.27415 1.17115 0
M  V30 659 H 62.753 4.38332 2.56568 0
M  V30 660 H 62.683 3.3813 4.03702 0
M  V30 661 H 65.174 2.72201 2.62135 0
M  V30 662 H 65.487 5.98196 4.89266 0
M  V30 663 H 63.832 5.37534 4.40548 0
M  V30 664 H 67.023 3.42962 3.18582 0
M  V30 665 H 67.196 4.91604 4.22173 0
M  V30 666 N 60.6021 -1.18246 1.0419 0
M  V30 667 C 61.8511 -1.87588 0.741194 0
M  V30 668 C 62.1641 -1.81303 -0.734066 0
M  V30 669 O 63.3701 -2.46019 -1.14834 0
M  V30 670 C 61.8261 -3.36538 1.27555 0
M  V30 671 C 61.4341 -3.51349 2.77953 0
M  V30 672 C 63.1781 -4.11273 1.05143 0
M  V30 673 C 61.0851 -4.94265 3.2474 0
M  V30 674 H 60.0151 -0.702622 0.273565 0
M  V30 675 H 62.6661 -1.33601 1.25789 0
M  V30 676 H 61.0481 -3.9 0.686703 0
M  V30 677 H 62.2221 -3.08153 3.42605 0
M  V30 678 H 60.5371 -2.90022 2.98791 0
M  V30 679 H 63.1341 -5.16689 1.37611 0
M  V30 680 H 63.4771 -4.16298 -0.0112774 0
M  V30 681 H 64.0101 -3.63987 1.60495 0
M  V30 682 H 60.7491 -4.94408 4.30396 0
M  V30 683 H 60.2691 -5.38172 2.64823 0
M  V30 684 H 61.9481 -5.62987 3.18834 0
M  V30 685 N 62.0802 -0.821533 -1.34494 0
M  V30 686 C 63.3082 -0.421884 -2.02553 0
M  V30 687 C 63.7232 0.971745 -1.61872 0
M  V30 688 O 63.0802 1.62864 -0.823496 0
M  V30 689 C 63.1312 -0.51285 -3.57844 0
M  V30 690 O 62.8522 -1.85155 -3.97051 0
M  V30 691 C 64.3532 -0.107921 -4.43169 0
M  V30 692 H 61.5732 -0.169482 -0.649243 0
M  V30 693 H 64.1172 -1.1093 -1.71798 0
M  V30 694 H 62.2722 0.126474 -3.87193 0
M  V30 695 H 62.6862 -1.82482 -4.91732 0
M  V30 696 H 64.1602 -0.222657 -5.51551 0
M  V30 697 H 64.6372 0.948401 -4.28838 0
M  V30 698 H 65.2432 -0.720989 -4.19144 0
M  V30 699 N 63.5583 1.46682 -0.576371 0
M  V30 700 C 64.7833 2.07304 -0.0630475 0
M  V30 701 C 65.2083 1.42329 1.2298 0
M  V30 702 O 64.5663 0.504865 1.74129 0
M  V30 703 C 64.6143 3.60472 0.095895 0
M  V30 704 O 63.7183 3.95927 1.15394 0
M  V30 705 H 63.0593 0.661288 -0.0599463 0
M  V30 706 H 65.5893 1.88417 -0.797511 0
M  V30 707 H 65.5993 4.06865 0.304071 0
M  V30 708 H 64.2743 4.07157 -0.84828 0
M  V30 709 H 62.8513 3.61252 0.924724 0
M  V30 710 N 65.0364 0.313813 1.54444 0
M  V30 711 C 65.9664 -0.549454 2.26943 0
M  V30 712 C 66.9474 -1.12741 1.27372 0
M  V30 713 O 68.1324 -1.15436 1.56167 0
M  V30 714 C 65.2624 -1.71523 3.01989 0
M  V30 715 C 64.2164 -1.26703 4.08816 0
M  V30 716 C 63.5424 -2.51898 4.71647 0
M  V30 717 C 64.8424 -0.388962 5.2085 0
M  V30 718 H 66.5364 0.0552661 2.99349 0
M  V30 719 H 64.0824 0.0280207 1.43973 0
M  V30 720 H 66.0354 -2.32535 3.51433 0
M  V30 721 H 64.7594 -2.34639 2.27183 0
M  V30 722 H 63.4184 -0.679896 3.6024 0
M  V30 723 H 63.0664 -3.13356 3.93468 0
M  V30 724 H 62.7664 -2.22605 5.43802 0
M  V30 725 H 64.2904 -3.1369 5.23861 0
M  V30 726 H 65.7044 -0.905107 5.6611 0
M  V30 727 H 64.1014 -0.18924 5.99802 0
M  V30 728 H 65.1714 0.582699 4.81386 0
M  V30 729 N 66.5145 -1.57545 0.0417849 0
M  V30 730 C 67.7625 -1.91937 -0.632829 0
M  V30 731 C 68.0835 -0.919978 -1.71934 0
M  V30 732 O 67.3535 0.0366064 -1.95866 0
M  V30 733 H 65.9335 -0.708493 -0.236742 0
M  V30 734 H 68.5955 -1.9468 0.0925745 0
M  V30 735 H 67.6915 -2.92912 -1.07746 0
M  V30 736 N 67.9926 0.231505 -1.5589 0
M  V30 737 C 69.2206 0.974505 -1.82513 0
M  V30 738 C 69.6356 1.78344 -0.619591 0
M  V30 739 O 68.9926 1.77792 0.411848 0
M  V30 740 C 69.0436 1.90007 -3.07538 0
M  V30 741 O 68.7646 1.12385 -4.2344 0
M  V30 742 C 70.2656 2.75779 -3.47075 0
M  V30 743 H 67.4856 0.286065 -0.606966 0
M  V30 744 H 70.0296 0.249739 -2.02969 0
M  V30 745 H 68.1846 2.57891 -2.89086 0
M  V30 746 H 68.5986 1.75125 -4.944 0
M  V30 747 H 70.0726 3.36443 -4.37619 0
M  V30 748 H 70.5496 3.47672 -2.68367 0
M  V30 749 H 71.1556 2.13323 -3.67931 0
M  V30 750 N 69.4707 1.49531 0.497807 0
M  V30 751 C 70.4177 1.66436 1.59899 0
M  V30 752 C 71.3877 0.505793 1.58212 0
M  V30 753 O 72.5727 0.733202 1.7615 0
M  V30 754 C 69.7127 1.7399 2.98029 0
M  V30 755 C 68.8257 3.01172 3.09708 0
M  V30 756 C 67.9607 2.99686 4.38591 0
M  V30 757 C 66.9997 4.21434 4.43914 0
M  V30 758 N 66.1367 4.1784 5.64229 0
M  V30 759 H 70.9767 2.60459 1.44793 0
M  V30 760 H 68.5137 1.29137 0.704423 0
M  V30 761 H 70.4717 1.76352 3.78095 0
M  V30 762 H 69.1017 0.834301 3.11832 0
M  V30 763 H 68.1537 3.08408 2.22685 0
M  V30 764 H 69.4657 3.91165 3.09502 0
M  V30 765 H 68.6197 3.00628 5.2698 0
M  V30 766 H 67.3587 2.07477 4.41367 0
M  V30 767 H 66.3637 4.20733 3.53926 0
M  V30 768 H 67.5887 5.14839 4.42851 0
M  V30 769 H 65.5347 3.28469 5.67841 0
M  V30 770 H 65.4517 5.01571 5.65652 0
M  V30 771 H 66.7197 4.22889 6.54817 0
M  V30 772 N 70.9488 -0.749086 1.3866 0
M  V30 773 C 72.1948 -1.51056 1.35314 0
M  V30 774 C 72.5278 -1.94121 -0.0553751 0
M  V30 775 O 71.8028 -1.65763 -1.01749 0
M  V30 776 C 72.0858 -2.76003 2.31288 0
M  V30 777 C 71.9388 -2.39047 3.8102 0
M  V30 778 C 73.2578 -3.78046 2.2532 0
M  V30 779 H 70.3768 -0.547972 0.492844 0
M  V30 780 H 73.0188 -0.857628 1.69543 0
M  V30 781 H 71.1688 -3.31716 2.02229 0
M  V30 782 H 72.8408 -1.89074 4.20771 0
M  V30 783 H 71.0838 -1.71449 3.98482 0
M  V30 784 H 71.7548 -3.28462 4.4364 0
M  V30 785 H 74.2308 -3.31884 2.50983 0
M  V30 786 H 73.1068 -4.63159 2.94576 0
M  V30 787 H 73.3678 -4.23957 1.25352 0
M  V30 788 N 72.4269 -1.23603 -0.977757 0
M  V30 789 C 73.3739 -1.01954 -2.07061 0
M  V30 790 C 74.3439 0.0638697 -1.65977 0
M  V30 791 O 75.5289 -0.0887624 -1.90593 0
M  V30 792 C 72.6689 -0.619658 -3.39491 0
M  V30 793 C 71.7819 -1.77547 -3.93829 0
M  V30 794 C 70.9169 -1.32212 -5.14484 0
M  V30 795 C 69.9559 -2.44852 -5.60994 0
M  V30 796 N 69.0929 -2.00456 -6.72876 0
M  V30 797 H 73.9329 -1.95495 -2.24913 0
M  V30 798 H 71.4699 -0.973861 -1.10247 0
M  V30 799 H 73.4279 -0.368898 -4.15566 0
M  V30 800 H 72.0579 0.278752 -3.21594 0
M  V30 801 H 71.1099 -2.14016 -3.14486 0
M  V30 802 H 72.4219 -2.62219 -4.24314 0
M  V30 803 H 71.5759 -1.02965 -5.97899 0
M  V30 804 H 70.3149 -0.445808 -4.85658 0
M  V30 805 H 69.3199 -2.74871 -4.76157 0
M  V30 806 H 70.5449 -3.33024 -5.91837 0
M  V30 807 H 68.4909 -1.15208 -6.45804 0
M  V30 808 H 68.4079 -2.78687 -7.02759 0
M  V30 809 H 69.6759 -1.7432 -7.59758 0
M  V30 810 N 73.905 1.17692 -1.04816 0
M  V30 811 C 74.815 2.25229 -0.65643 0
M  V30 812 C 75.831 1.71018 0.320761 0
M  V30 813 O 77.007 2.00649 0.173805 0
M  V30 814 C 74.072 3.46684 -0.0332629 0
M  V30 815 C 73.133 4.15997 -1.06042 0
M  V30 816 C 72.366 5.31654 -0.466893 0
M  V30 817 O 72.589 5.65777 0.724758 0
M  V30 818 O 71.523 5.89831 -1.1993 0
M  V30 819 H 75.349 2.61016 -1.55255 0
M  V30 820 H 72.934 1.24919 -0.81949 0
M  V30 821 H 74.816 4.20234 0.313256 0
M  V30 822 H 73.491 3.12703 0.836566 0
M  V30 823 H 72.398 3.44482 -1.45886 0
M  V30 824 H 73.731 4.53996 -1.90127 0
M  V30 825 N 75.3831 0.828654 1.34056 0
M  V30 826 C 76.6111 0.43262 2.02326 0
M  V30 827 C 77.0261 -0.963147 1.62385 0
M  V30 828 O 76.3831 -1.62425 0.832121 0
M  V30 829 C 76.4341 0.53182 3.57567 0
M  V30 830 O 76.1551 1.87258 3.96063 0
M  V30 831 C 77.6561 0.131422 4.43105 0
M  V30 832 H 74.8761 0.172923 0.648335 0
M  V30 833 H 77.4201 1.1184 1.71208 0
M  V30 834 H 75.5751 -0.105938 3.87255 0
M  V30 835 H 75.9891 1.85087 4.90758 0
M  V30 836 H 77.4631 0.251904 5.51425 0
M  V30 837 H 77.9401 -0.925645 4.29335 0
M  V30 838 H 78.5461 0.743207 4.18756 0
M  V30 839 N 76.8612 -1.46375 0.584142 0
M  V30 840 C 78.1092 -2.01978 0.0701287 0
M  V30 841 C 78.4302 -1.4579 -1.295 0
M  V30 842 O 77.7002 -0.64314 -1.85042 0
M  V30 843 H 76.2802 -0.746648 0.0229345 0
M  V30 844 H 78.9422 -1.79461 0.760245 0
M  V30 845 H 78.0382 -3.121 0.0022064 0
M  V30 846 N 78.3393 -0.321999 -1.54275 0
M  V30 847 C 79.7553 0.0306999 -1.5957 0
M  V30 848 C 79.9553 1.50614 -1.33857 0
M  V30 849 O 79.0113 2.2619 -1.12223 0
M  V30 850 C 80.3243 -0.386122 -2.98211 0
M  V30 851 C 81.8723 -0.336647 -3.11184 0
M  V30 852 C 82.3473 -0.728607 -4.52167 0
M  V30 853 N 83.8383 -0.681952 -4.58152 0
M  V30 854 C 84.5733 -0.957449 -5.6535 0
M  V30 855 N 84.0693 -1.3 -6.80494 0
M  V30 856 N 85.8623 -0.883113 -5.55119 0
M  V30 857 H 78.0133 -1.28332 -1.69247 0
M  V30 858 H 80.2763 -0.521716 -0.791528 0
M  V30 859 H 79.9823 -1.41404 -3.22022 0
M  V30 860 H 79.8563 0.249662 -3.76373 0
M  V30 861 H 82.2433 0.682058 -2.8711 0
M  V30 862 H 82.3243 -1.00734 -2.3513 0
M  V30 863 H 81.9683 -1.74522 -4.76974 0
M  V30 864 H 81.8983 -0.0356152 -5.26588 0
M  V30 865 H 84.3893 -0.428985 -3.75457 0
M  V30 866 H 84.7023 -1.49563 -7.58189 0
M  V30 867 H 83.0473 -1.33824 -6.81994 0
M  V30 868 H 86.2383 -0.615001 -4.64042 0
M  V30 869 H 86.4113 -1.10118 -6.38575 0
M  V30 870 N 79.8174 1.5752 -0.0501392 0
M  V30 871 C 80.7474 2.14502 0.922566 0
M  V30 872 C 81.7284 1.06642 1.3252 0
M  V30 873 O 82.9134 1.34577 1.4001 0
M  V30 874 C 80.0434 2.68916 2.19776 0
M  V30 875 C 78.9974 3.8175 1.93523 0
M  V30 876 C 78.3234 4.22677 3.27487 0
M  V30 877 C 79.6234 5.06932 1.25765 0
M  V30 878 H 81.3174 2.9603 0.447952 0
M  V30 879 H 78.8634 1.42401 0.214024 0
M  V30 880 H 80.8164 3.07419 2.88222 0
M  V30 881 H 79.5404 1.84578 2.69441 0
M  V30 882 H 78.1994 3.43718 1.27489 0
M  V30 883 H 77.8474 3.35291 3.74952 0
M  V30 884 H 77.5474 4.98725 3.1072 0
M  V30 885 H 79.0714 4.63779 3.97166 0
M  V30 886 H 80.4854 5.42888 1.84244 0
M  V30 887 H 78.8824 5.88116 1.19328 0
M  V30 888 H 79.9524 4.84337 0.233536 0
M  V30 889 N 81.2955 -0.223234 1.56011 0
M  V30 890 C 82.2275 -1.30006 1.88762 0
M  V30 891 C 83.2405 -1.43129 0.775746 0
M  V30 892 O 84.4295 -1.44057 1.05403 0
M  V30 893 C 81.5295 -2.67589 2.07965 0
M  V30 894 C 80.7025 -2.76434 3.38973 0
M  V30 895 C 79.7615 -3.95019 3.47629 0
M  V30 896 O 78.7875 -3.83436 4.20672 0
M  V30 897 N 79.9895 -5.09249 2.78649 0
M  V30 898 H 82.7545 -1.02238 2.81722 0
M  V30 899 H 80.3155 -0.413278 1.56536 0
M  V30 900 H 82.3075 -3.45297 2.11073 0
M  V30 901 H 80.8775 -2.87964 1.21638 0
M  V30 902 H 80.0975 -1.85216 3.47978 0
M  V30 903 H 81.3855 -2.79313 4.25278 0
M  V30 904 H 80.7835 -5.21556 2.19081 0
M  V30 905 H 79.3405 -5.85007 2.8742 0
M  V30 906 N 82.7736 -1.49793 -0.48987 0
M  V30 907 C 83.6836 -1.70036 -1.61632 0
M  V30 908 C 84.6996 -0.583102 -1.63939 0
M  V30 909 O 85.8756 -0.859169 -1.82154 0
M  V30 910 C 82.9406 -1.77277 -2.97949 0
M  V30 911 C 82.0016 -3.00918 -3.06181 0
M  V30 912 C 81.2346 -3.07804 -4.35996 0
M  V30 913 O 81.4576 -2.21982 -5.25433 0
M  V30 914 O 80.3916 -4.00369 -4.49431 0
M  V30 915 H 84.2176 -2.65486 -1.47482 0
M  V30 916 H 81.8026 -1.33666 -0.667362 0
M  V30 917 H 83.6846 -1.84329 -3.78947 0
M  V30 918 H 82.3596 -0.850076 -3.12339 0
M  V30 919 H 81.2666 -2.99377 -2.2433 0
M  V30 920 H 82.5996 -3.92704 -2.96723 0
M  V30 921 N 84.2517 0.741722 -1.39055 0
M  V30 922 C 85.5287 1.49252 -1.26425 0
M  V30 923 C 85.9087 2.10705 0.129144 0
M  V30 924 O 85.2567 1.98045 1.13976 0
M  V30 925 C 85.4667 2.54934 -2.38347 0
M  V30 926 C 86.8147 3.21506 -2.77343 0
M  V30 927 O 87.8387 2.65245 -2.37747 0
M  V30 928 O 86.6977 4.23294 -3.45665 0
M  V30 929 H 83.7917 0.662451 -0.495064 0
M  V30 930 H 86.3377 0.776121 -1.50912 0
M  V30 931 H 85.1097 2.07857 -3.31529 0
M  V30 932 H 84.7327 3.34141 -2.15489 0
M  V30 933 N 85.7298 1.2412 0.971189 0
M  V30 934 C 87.1458 1.00584 1.23916 0
M  V30 935 C 87.3458 -0.287481 1.99439 0
M  V30 936 O 86.4018 -1.00454 2.31658 0
M  V30 937 C 87.7148 2.21864 2.0297 0
M  V30 938 C 89.2628 2.26452 2.16076 0
M  V30 939 C 89.7378 3.47343 2.98524 0
M  V30 940 N 91.2288 3.47639 3.06107 0
M  V30 941 C 91.9638 4.37837 3.70251 0
M  V30 942 N 91.4598 5.38286 4.36142 0
M  V30 943 N 93.2528 4.25558 3.67228 0
M  V30 944 H 85.4038 2.07236 0.465499 0
M  V30 945 H 87.6668 0.909236 0.268315 0
M  V30 946 H 87.3728 3.15771 1.54861 0
M  V30 947 H 87.2468 2.23698 3.03709 0
M  V30 948 H 89.6338 1.33078 2.6339 0
M  V30 949 H 89.7148 2.28645 1.14696 0
M  V30 950 H 89.3588 4.41029 2.51905 0
M  V30 951 H 89.2888 3.42393 4.00093 0
M  V30 952 H 91.7798 2.74966 2.59233 0
M  V30 953 H 92.0928 6.03352 4.82894 0
M  V30 954 H 90.4378 5.42176 4.34822 0
M  V30 955 H 93.6288 3.46322 3.14927 0
M  V30 956 H 93.8018 4.96054 4.16935 0
M  V30 957 N 87.2079 -1.17134 1.05439 0
M  V30 958 C 88.4569 -1.86791 0.761049 0
M  V30 959 C 88.7699 -1.82072 -0.714795 0
M  V30 960 O 89.9759 -2.47223 -1.12218 0
M  V30 961 C 88.4319 -3.35166 1.31117 0
M  V30 962 C 88.0399 -3.48381 2.81664 0
M  V30 963 C 89.7839 -4.10134 1.09499 0
M  V30 964 C 87.6909 -4.90793 3.29964 0
M  V30 965 H 86.6209 -0.699681 0.281002 0
M  V30 966 H 89.2719 -1.3226 1.27199 0
M  V30 967 H 87.6539 -3.8925 0.72803 0
M  V30 968 H 88.8279 -3.04502 3.45855 0
M  V30 969 H 87.1429 -2.86836 3.01851 0
M  V30 970 H 89.7399 -5.152 1.43084 0
M  V30 971 H 90.0829 -4.16287 0.0328772 0
M  V30 972 H 90.6159 -3.62264 1.64346 0
M  V30 973 H 87.3549 -4.89816 4.35616 0
M  V30 974 H 86.8749 -5.35333 2.70516 0
M  V30 975 H 88.5539 -5.59573 3.24787 0
M  V30 976 N 88.686 -0.835752 -1.33615 0
M  V30 977 C 89.596 -0.269088 -2.33052 0
M  V30 978 C 90.612 0.603251 -1.63208 0
M  V30 979 O 91.788 0.508112 -1.94885 0
M  V30 980 C 88.853 0.549091 -3.42324 0
M  V30 981 C 87.914 -0.347156 -4.27894 0
M  V30 982 C 87.147 0.43207 -5.31948 0
M  V30 983 O 87.37 1.66409 -5.45586 0
M  V30 984 O 86.304 -0.192298 -6.01593 0
M  V30 985 H 90.13 -1.09243 -2.83372 0
M  V30 986 H 87.715 -0.598198 -1.36901 0
M  V30 987 H 89.597 1.01414 -4.09015 0
M  V30 988 H 88.272 1.34955 -2.94226 0
M  V30 989 H 87.179 -0.859979 -3.64081 0
M  V30 990 H 88.512 -1.1123 -4.79467 0
M  V30 991 N 90.1641 1.46063 -0.591896 0
M  V30 992 C 91.0741 2.34192 0.13831 0
M  V30 993 C 92.0901 1.50305 0.876608 0
M  V30 994 O 93.2661 1.8315 0.837728 0
M  V30 995 C 90.3311 3.27656 1.13326 0
M  V30 996 C 89.3921 4.27445 0.39863 0
M  V30 997 C 88.6251 5.16443 1.34618 0
M  V30 998 O 88.8481 5.08553 2.58321 0
M  V30 999 O 87.7821 5.95843 0.851768 0
M  V30 1000 H 91.6081 2.98002 -0.58552 0
M  V30 1001 H 89.1931 1.45188 -0.352239 0
M  V30 1002 H 91.0751 3.85291 1.70671 0
M  V30 1003 H 89.7501 2.6643 1.83839 0
M  V30 1004 H 88.6571 3.73471 -0.216895 0
M  V30 1005 H 89.9901 4.91482 -0.265709 0
M  V30 1006 N 91.6422 0.330177 1.54103 0
M  V30 1007 C 92.8702 -0.272179 2.05102 0
M  V30 1008 C 93.2852 -1.45267 1.20595 0
M  V30 1009 O 92.6422 -1.8094 0.238144 0
M  V30 1010 C 92.6932 -0.70023 3.54653 0
M  V30 1011 O 92.4142 0.433301 4.35952 0
M  V30 1012 C 93.9152 -1.3647 4.21771 0
M  V30 1013 H 91.1352 -0.0549159 0.668749 0
M  V30 1014 H 93.6792 0.478285 1.98828 0
M  V30 1015 H 91.8342 -1.40066 3.61193 0
M  V30 1016 H 92.2482 0.0947539 5.24414 0
M  V30 1017 H 93.7222 -1.61509 5.27843 0
M  V30 1018 H 94.1992 -2.31409 3.73292 0
M  V30 1019 H 94.8052 -0.706675 4.19388 0
M  V30 1020 N 93.1203 -1.57491 0.0584922 0
M  V30 1021 C 94.3693 -1.92155 -0.613146 0
M  V30 1022 C 94.6823 -0.939334 -1.71569 0
M  V30 1023 O 95.8883 -1.17829 -2.44599 0
M  V30 1024 C 94.3443 -3.41303 -1.14195 0
M  V30 1025 C 93.9523 -4.47944 -0.0711265 0
M  V30 1026 C 95.6963 -3.84988 -1.78841 0
M  V30 1027 C 93.6033 -5.88212 -0.613225 0
M  V30 1028 H 92.5333 -0.717162 -0.232796 0
M  V30 1029 H 95.1843 -1.83049 0.12857 0
M  V30 1030 H 93.5663 -3.45437 -1.93621 0
M  V30 1031 H 94.7403 -4.55408 0.702836 0
M  V30 1032 H 93.0553 -4.13644 0.478313 0
M  V30 1033 H 95.6523 -4.87159 -2.20408 0
M  V30 1034 H 95.9953 -3.21632 -2.64308 0
M  V30 1035 H 96.5283 -3.83401 -1.06059 0
M  V30 1036 H 93.2673 -6.55183 0.203978 0
M  V30 1037 H 92.7873 -5.84294 -1.35501 0
M  V30 1038 H 94.4663 -6.37687 -1.09383 0
M  V30 1039 N 94.5984 0.214957 -1.56127 0
M  V30 1040 C 95.5304 1.29004 -1.89448 0
M  V30 1041 C 96.5434 1.42716 -0.783326 0
M  V30 1042 O 97.7324 1.43496 -1.06166 0
M  V30 1043 C 94.8324 2.66482 -2.09381 0
M  V30 1044 C 94.0054 2.74633 -3.40434 0
M  V30 1045 C 93.0644 3.9317 -3.49719 0
M  V30 1046 O 92.0904 3.812 -4.227 0
M  V30 1047 N 93.2924 5.07765 -2.81346 0
M  V30 1048 H 96.0574 1.00743 -2.82261 0
M  V30 1049 H 93.6184 0.40497 -1.56753 0
M  V30 1050 H 95.6104 3.44173 -2.12901 0
M  V30 1051 H 94.1804 2.87314 -1.23163 0
M  V30 1052 H 93.4004 1.83368 -3.48955 0
M  V30 1053 H 94.6884 2.77054 -4.26754 0
M  V30 1054 H 94.0864 5.20386 -2.21843 0
M  V30 1055 H 92.6434 5.83474 -2.90519 0
M  V30 1056 N 96.0765 1.50051 0.48192 0
M  V30 1057 C 97.3225 1.60736 1.2366 0
M  V30 1058 C 97.6555 0.301786 1.91841 0
M  V30 1059 O 96.9305 -0.696025 1.8162 0
M  V30 1060 C 97.2135 2.78009 2.28874 0
M  V30 1061 C 97.0665 4.18416 1.65069 0
M  V30 1062 C 98.3855 2.90867 3.30279 0
M  V30 1063 H 95.5045 0.585031 0.448228 0
M  V30 1064 H 98.1465 1.82402 0.531946 0
M  V30 1065 H 96.2965 2.59667 2.88973 0
M  V30 1066 H 97.9685 4.48322 1.0865 0
M  V30 1067 H 96.2115 4.23177 0.954148 0
M  V30 1068 H 96.8825 4.96381 2.41474 0
M  V30 1069 H 99.3585 3.07623 2.80191 0
M  V30 1070 H 98.2345 3.74566 4.01238 0
M  V30 1071 H 98.4955 2.01021 3.93755 0
M  V30 1072 N 97.5546 -0.734337 1.39446 0
M  V30 1073 C 98.4846 -1.86155 1.40955 0
M  V30 1074 C 99.4656 -1.67898 0.272827 0
M  V30 1075 O 100.651 -1.88207 0.478743 0
M  V30 1076 C 97.7806 -3.23912 1.25294 0
M  V30 1077 C 96.7346 -3.56808 2.36373 0
M  V30 1078 C 96.0606 -4.93508 2.058 0
M  V30 1079 C 97.3606 -3.59713 3.78687 0
M  V30 1080 H 99.0546 -1.8515 2.35287 0
M  V30 1081 H 96.6006 -0.889367 1.13253 0
M  V30 1082 H 98.5536 -4.02443 1.2497 0
M  V30 1083 H 97.2776 -3.25446 0.274308 0
M  V30 1084 H 95.9366 -2.80606 2.35914 0
M  V30 1085 H 95.5846 -4.91623 1.06374 0
M  V30 1086 H 95.2846 -5.16486 2.80208 0
M  V30 1087 H 96.8086 -5.74396 2.07128 0
M  V30 1088 H 98.2226 -4.2832 3.81071 0
M  V30 1089 H 96.6196 -3.94209 4.52459 0
M  V30 1090 H 97.6896 -2.59504 4.09617 0
M  V30 1091 N 99.0327 -1.24633 -0.964593 0
M  V30 1092 C 99.9797 -1.04144 -2.05968 0
M  V30 1093 C 100.95 0.046262 -1.66036 0
M  V30 1094 O 102.135 -0.108972 -1.90489 0
M  V30 1095 C 99.2747 -0.65563 -3.38815 0
M  V30 1096 C 98.3877 -1.81714 -3.91923 0
M  V30 1097 C 97.5227 -1.37662 -5.13052 0
M  V30 1098 C 96.5617 -2.50788 -5.58365 0
M  V30 1099 N 95.6987 -2.07582 -6.70712 0
M  V30 1100 H 100.539 -1.9787 -2.22827 0
M  V30 1101 H 98.0757 -0.9855 -1.09208 0
M  V30 1102 H 100.034 -0.412954 -4.15151 0
M  V30 1103 H 98.6637 0.244627 -3.21872 0
M  V30 1104 H 97.7157 -2.1734 -3.12198 0
M  V30 1105 H 99.0277 -2.66705 -4.21509 0
M  V30 1106 H 98.1817 -1.093 -5.96773 0
M  V30 1107 H 96.9207 -0.497293 -4.85158 0
M  V30 1108 H 95.9257 -2.79906 -4.73215 0
M  V30 1109 H 97.1507 -3.39283 -5.88272 0
M  V30 1110 H 95.0967 -1.22051 -6.44546 0
M  V30 1111 H 95.0137 -2.86125 -6.99763 0
M  V30 1112 H 96.2817 -1.82369 -7.57867 0
M  V30 1113 N 100.511 1.16574 -1.06058 0
M  V30 1114 C 101.421 2.2452 -0.680282 0
M  V30 1115 C 102.437 1.71348 0.302604 0
M  V30 1116 O 103.613 2.00822 0.152513 0
M  V30 1117 C 100.678 3.46629 -0.0700315 0
M  V30 1118 C 99.7388 4.14849 -1.10448 0
M  V30 1119 C 98.9718 5.31129 -0.523256 0
M  V30 1120 O 99.1948 5.66514 0.664709 0
M  V30 1121 O 98.1288 5.88526 -1.26179 0
M  V30 1122 H 101.955 2.59355 -1.58015 0
M  V30 1123 H 99.5398 1.24043 -0.832694 0
M  V30 1124 H 101.422 4.20543 0.268667 0
M  V30 1125 H 100.097 3.13573 0.803353 0
M  V30 1126 H 99.0038 3.42916 -1.49532 0
M  V30 1127 H 100.337 4.51954 -1.94931 0
M  V30 1128 N 101.989 0.842826 1.3317 0
M  V30 1129 C 103.219 0.453397 2.01564 0
M  V30 1130 C 103.627 -0.951147 1.63554 0
M  V30 1131 O 102.97 -1.63021 0.846746 0
M  V30 1132 C 103.032 0.499013 3.5602 0
M  V30 1133 C 102.696 1.86037 4.1742 0
M  V30 1134 C 103.693 2.82416 4.36506 0
M  V30 1135 C 101.378 2.15428 4.53757 0
M  V30 1136 C 103.372 4.06346 4.91082 0
M  V30 1137 C 101.059 3.39615 5.0804 0
M  V30 1138 C 102.057 4.3489 5.26649 0
M  V30 1139 O 101.745 5.5688 5.79776 0
M  V30 1140 H 101.477 0.177871 0.652179 0
M  V30 1141 H 104.031 1.13808 1.70988 0
M  V30 1142 H 102.261 -0.242467 3.85939 0
M  V30 1143 H 103.95 0.126852 4.05702 0
M  V30 1144 H 104.716 2.6101 4.08777 0
M  V30 1145 H 100.595 1.42061 4.38565 0
M  V30 1146 H 104.139 4.80722 5.05522 0
M  V30 1147 H 100.036 3.60876 5.352 0
M  V30 1148 H 100.804 5.58674 5.98185 0
M  V30 1149 N 103.467 -1.45747 0.599634 0
M  V30 1150 C 104.414 -2.30467 -0.123849 0
M  V30 1151 C 105.384 -1.41632 -0.86774 0
M  V30 1152 O 106.569 -1.70568 -0.855056 0
M  V30 1153 C 103.709 -3.26402 -1.12051 0
M  V30 1154 C 102.822 -4.3034 -0.37832 0
M  V30 1155 C 101.957 -5.13389 -1.364 0
M  V30 1156 C 100.996 -6.09061 -0.609171 0
M  V30 1157 N 100.133 -6.84918 -1.54374 0
M  V30 1158 H 104.973 -2.91802 0.604627 0
M  V30 1159 H 102.51 -1.43797 0.309972 0
M  V30 1160 H 104.468 -3.80482 -1.7114 0
M  V30 1161 H 103.098 -2.66839 -1.8165 0
M  V30 1162 H 102.15 -3.78984 0.327929 0
M  V30 1163 H 103.462 -4.98354 0.210997 0
M  V30 1164 H 102.616 -5.7183 -2.02719 0
M  V30 1165 H 101.355 -4.45376 -1.98725 0
M  V30 1166 H 100.36 -5.49758 0.0676979 0
M  V30 1167 H 101.585 -6.79099 0.00891991 0
M  V30 1168 H 99.531 -6.19601 -2.15478 0
M  V30 1169 H 99.448 -7.49254 -1.00766 0
M  V30 1170 H 100.716 -7.47906 -2.19676 0
M  V30 1171 N 104.945 -0.338344 -1.53925 0
M  V30 1172 C 105.892 0.520845 -2.24846 0
M  V30 1173 C 106.862 1.09976 -1.24477 0
M  V30 1174 O 108.047 1.13735 -1.53196 0
M  V30 1175 C 105.187 1.6685 -3.02084 0
M  V30 1176 C 104.3 1.11739 -4.17299 0
M  V30 1177 C 103.435 2.23193 -4.82036 0
M  V30 1178 C 102.474 1.65407 -5.89328 0
M  V30 1179 N 101.611 2.70582 -6.47866 0
M  V30 1180 H 106.451 -0.0904881 -2.97863 0
M  V30 1181 H 103.988 -0.0564282 -1.46992 0
M  V30 1182 H 105.946 2.34407 -3.45122 0
M  V30 1183 H 104.576 2.2509 -2.31375 0
M  V30 1184 H 103.628 0.332919 -3.7894 0
M  V30 1185 H 104.94 0.654677 -4.94485 0
M  V30 1186 H 104.094 2.98626 -5.28117 0
M  V30 1187 H 102.833 2.72807 -4.04262 0
M  V30 1188 H 101.838 0.884779 -5.42634 0
M  V30 1189 H 103.063 1.16652 -6.69006 0
M  V30 1190 H 101.009 3.1946 -5.72959 0
M  V30 1191 H 100.926 2.28917 -7.20509 0
M  V30 1192 H 102.194 3.45799 -6.98601 0
M  V30 1193 N 106.423 1.57458 -0.0668435 0
M  V30 1194 C 107.353 2.15468 0.899764 0
M  V30 1195 C 108.334 1.08042 1.31381 0
M  V30 1196 O 109.519 1.36054 1.38574 0
M  V30 1197 C 106.649 2.71232 2.16911 0
M  V30 1198 C 105.603 3.83781 1.89463 0
M  V30 1199 C 104.929 4.26127 3.22986 0
M  V30 1200 C 106.229 5.08238 1.20381 0
M  V30 1201 H 107.923 2.96488 0.416529 0
M  V30 1202 H 105.469 1.4262 0.198908 0
M  V30 1203 H 107.422 3.10458 2.84945 0
M  V30 1204 H 106.146 1.87426 2.67468 0
M  V30 1205 H 104.805 3.45051 1.23836 0
M  V30 1206 H 104.453 3.39249 3.71374 0
M  V30 1207 H 104.153 5.01993 3.05413 0
M  V30 1208 H 105.677 4.67966 3.92225 0
M  V30 1209 H 107.091 5.44811 1.78475 0
M  V30 1210 H 105.488 5.89349 1.13083 0
M  V30 1211 H 106.558 4.84558 0.182153 0
M  V30 1212 N 107.901 -0.206675 1.56239 0
M  V30 1213 C 109.15 -0.926964 1.79138 0
M  V30 1214 C 109.463 -1.84901 0.638043 0
M  V30 1215 O 110.669 -2.60906 0.751033 0
M  V30 1216 C 109.125 -1.6986 3.17294 0
M  V30 1217 C 108.733 -0.821956 4.40395 0
M  V30 1218 C 110.477 -2.40922 3.4951 0
M  V30 1219 C 108.384 -1.59179 5.69575 0
M  V30 1220 H 107.314 -0.349864 0.667915 0
M  V30 1221 H 109.965 -0.180487 1.8261 0
M  V30 1222 H 108.347 -2.48853 3.08039 0
M  V30 1223 H 109.521 -0.0715019 4.60745 0
M  V30 1224 H 107.836 -0.222741 4.15804 0
M  V30 1225 H 110.433 -2.99047 4.43255 0
M  V30 1226 H 110.776 -3.14542 2.72707 0
M  V30 1227 H 111.309 -1.68905 3.60161 0
M  V30 1228 H 108.048 -0.898589 6.49312 0
M  V30 1229 H 107.568 -2.31648 5.53262 0
M  V30 1230 H 109.247 -2.14862 6.10281 0
M  V30 1231 N 109.379 -1.50304 -0.473955 0
M  V30 1232 C 110.656 -1.51667 -1.23518 0
M  V30 1233 C 111.036 -0.259701 -2.09496 0
M  V30 1234 O 110.384 0.756986 -2.15597 0
M  V30 1235 C 110.594 -2.81082 -2.06868 0
M  V30 1236 C 111.942 -3.31631 -2.65153 0
M  V30 1237 O 112.966 -2.82384 -2.17113 0
M  V30 1238 O 111.825 -4.17471 -3.52675 0
M  V30 1239 H 108.919 -0.60822 -0.560355 0
M  V30 1240 H 111.465 -1.62592 -0.486011 0
M  V30 1241 H 110.237 -3.64041 -1.4349 0
M  V30 1242 H 109.86 -2.73146 -2.88924 0
M  V30 1243 N 110.857 0.726932 -1.39834 0
M  V30 1244 C 111.767 1.87131 -1.41489 0
M  V30 1245 C 112.783 1.71239 -0.308757 0
M  V30 1246 O 113.959 1.93701 -0.551529 0
M  V30 1247 C 111.024 3.22811 -1.26468 0
M  V30 1248 C 110.085 3.51039 -2.47124 0
M  V30 1249 C 109.318 4.80245 -2.3281 0
M  V30 1250 O 109.541 5.54537 -1.33585 0
M  V30 1251 O 108.475 5.08554 -3.21957 0
M  V30 1252 H 112.301 1.8869 -2.3797 0
M  V30 1253 H 109.886 0.875837 -1.21035 0
M  V30 1254 H 111.768 4.03877 -1.20255 0
M  V30 1255 H 110.443 3.22005 -0.330862 0
M  V30 1256 H 109.35 2.70027 -2.58914 0
M  V30 1257 H 110.683 3.56632 -3.39227 0
M  V30 1258 N 112.336 1.25143 0.95797 0
M  V30 1259 C 113.583 1.09692 1.70217 0
M  V30 1260 C 113.911 -0.362654 1.91089 0
M  V30 1261 O 113.166 -1.28386 1.47701 0
M  V30 1262 C 113.465 1.79272 3.09187 0
M  V30 1263 C 113.131 3.29196 3.08125 0
M  V30 1264 C 111.793 3.70096 3.07543 0
M  V30 1265 C 114.145 4.24995 3.0171 0
M  V30 1266 C 111.473 5.05213 2.9829 0
M  V30 1267 C 113.825 5.60132 2.93999 0
M  V30 1268 C 112.489 6.00365 2.9175 0
M  V30 1269 H 111.759 0.401393 0.622868 0
M  V30 1270 H 114.406 1.55372 1.11945 0
M  V30 1271 H 112.711 1.26014 3.70982 0
M  V30 1272 H 114.408 1.64773 3.65583 0
M  V30 1273 H 110.998 2.96651 3.09348 0
M  V30 1274 H 115.182 3.9439 3.01281 0
M  V30 1275 H 110.438 5.35569 2.94916 0
M  V30 1276 H 114.612 6.3406 2.87996 0
M  V30 1277 H 112.239 7.05023 2.84336 0
M  V30 1278 N 113.814 -1.1601 1.06675 0
M  V30 1279 C 114.761 -2.20525 0.680967 0
M  V30 1280 C 115.731 -1.62904 -0.324283 0
M  V30 1281 O 116.916 -1.89615 -0.212294 0
M  V30 1282 C 114.056 -3.45013 0.0776551 0
M  V30 1283 C 113.169 -4.16863 1.13355 0
M  V30 1284 C 112.304 -5.2888 0.49597 0
M  V30 1285 C 111.343 -5.92537 1.53513 0
M  V30 1286 N 110.48 -6.96038 0.920631 0
M  V30 1287 H 115.32 -2.52876 1.57663 0
M  V30 1288 H 112.857 -1.24199 0.788223 0
M  V30 1289 H 114.815 -4.16193 -0.289704 0
M  V30 1290 H 113.445 -3.132 -0.781393 0
M  V30 1291 H 112.497 -3.44248 1.61857 0
M  V30 1292 H 113.809 -4.60294 1.92174 0
M  V30 1293 H 112.963 -6.06653 0.0758604 0
M  V30 1294 H 111.702 -4.86622 -0.324062 0
M  V30 1295 H 110.707 -5.13482 1.9651 0
M  V30 1296 H 111.932 -6.36873 2.35733 0
M  V30 1297 H 109.878 -6.55888 0.12138 0
M  V30 1298 H 109.795 -7.3786 1.64616 0
M  V30 1299 H 111.063 -7.77725 0.525795 0
M  V30 1300 N 115.292 -0.849877 -1.32721 0
M  V30 1301 C 116.538 -0.451591 -1.97708 0
M  V30 1302 C 116.871 0.989175 -1.6712 0
M  V30 1303 O 116.146 1.69334 -0.956891 0
M  V30 1304 C 116.429 -0.685598 -3.53513 0
M  V30 1305 C 116.282 -2.17444 -3.93749 0
M  V30 1306 C 117.601 -0.138874 -4.39881 0
M  V30 1307 H 114.72 -0.16555 -0.718166 0
M  V30 1308 H 117.362 -1.06742 -1.57182 0
M  V30 1309 H 115.512 -0.161416 -3.88165 0
M  V30 1310 H 117.184 -2.76433 -3.693 0
M  V30 1311 H 115.427 -2.65476 -3.43081 0
M  V30 1312 H 116.098 -2.28888 -5.02309 0
M  V30 1313 H 118.574 -0.587068 -4.11938 0
M  V30 1314 H 117.45 -0.332213 -5.47894 0
M  V30 1315 H 117.711 0.95806 -4.31594 0
M  V30 1316 N 116.77 1.45427 -0.607355 0
M  V30 1317 C 117.68 2.34325 0.113463 0
M  V30 1318 C 118.696 1.51226 0.860617 0
M  V30 1319 O 119.872 1.84029 0.818255 0
M  V30 1320 C 116.937 3.28839 1.09844 0
M  V30 1321 C 115.998 4.27844 0.353271 0
M  V30 1322 C 115.231 5.17842 1.29133 0
M  V30 1323 O 115.454 5.11264 2.52913 0
M  V30 1324 O 114.388 5.96713 0.788523 0
M  V30 1325 H 118.214 2.97364 -0.617094 0
M  V30 1326 H 115.799 1.44807 -0.367619 0
M  V30 1327 H 117.681 3.8708 1.66575 0
M  V30 1328 H 116.356 2.68365 1.81003 0
M  V30 1329 H 115.263 3.7322 -0.256494 0
M  V30 1330 H 116.596 4.91173 -0.317822 0
M  V30 1331 N 118.248 0.346503 1.53744 0
M  V30 1332 C 119.664 -0.00530975 1.59599 0
M  V30 1333 C 119.864 -1.48465 1.36236 0
M  V30 1334 O 118.92 -2.24376 1.15808 0
M  V30 1335 C 120.233 0.433516 2.97559 0
M  V30 1336 C 121.781 0.386111 3.10609 0
M  V30 1337 C 122.256 0.800451 4.50951 0
M  V30 1338 N 123.747 0.754753 4.5701 0
M  V30 1339 C 124.482 1.04727 5.63755 0
M  V30 1340 N 123.978 1.4081 6.7834 0
M  V30 1341 N 125.771 0.971316 5.53644 0
M  V30 1342 H 117.922 1.31009 1.67184 0
M  V30 1343 H 120.185 0.534242 0.783128 0
M  V30 1344 H 119.891 1.46509 3.19731 0
M  V30 1345 H 119.765 -0.189753 3.76722 0
M  V30 1346 H 122.152 -0.636295 2.88158 0
M  V30 1347 H 122.233 1.04462 2.33498 0
M  V30 1348 H 121.877 1.82088 4.74137 0
M  V30 1349 H 121.807 0.119386 5.26465 0
M  V30 1350 H 124.298 0.488662 3.74727 0
M  V30 1351 H 124.611 1.61607 7.55714 0
M  V30 1352 H 122.956 1.44657 6.79779 0
M  V30 1353 H 126.147 0.688748 4.63005 0
M  V30 1354 H 126.32 1.20263 6.36742 0
M  V30 1355 N 119.726 -1.57421 0.075193 0
M  V30 1356 C 120.972 -1.93905 -0.594025 0
M  V30 1357 C 121.305 -0.955701 -1.69056 0
M  V30 1358 O 120.58 0.0145373 -1.94495 0
M  V30 1359 C 120.863 -3.40638 -1.1678 0
M  V30 1360 C 120.716 -4.49733 -0.0776792 0
M  V30 1361 C 122.035 -3.88259 -2.07228 0
M  V30 1362 H 119.154 -0.705105 -0.214466 0
M  V30 1363 H 121.796 -1.8947 0.141854 0
M  V30 1364 H 119.946 -3.44549 -1.79494 0
M  V30 1365 H 121.618 -4.57942 0.555573 0
M  V30 1366 H 119.861 -4.29751 0.591286 0
M  V30 1367 H 120.532 -5.49549 -0.519603 0
M  V30 1368 H 123.008 -3.86376 -1.54445 0
M  V30 1369 H 121.884 -4.91533 -2.44308 0
M  V30 1370 H 122.145 -3.26396 -2.98191 0
M  V30 1371 N 121.204 0.198386 -1.56346 0
M  V30 1372 C 122.151 1.24589 -1.94284 0
M  V30 1373 C 123.121 1.454 -0.802997 0
M  V30 1374 O 124.306 1.58588 -1.06087 0
M  V30 1375 C 121.446 2.58631 -2.28482 0
M  V30 1376 C 120.559 2.45426 -3.55514 0
M  V30 1377 C 119.694 3.7215 -3.79049 0
M  V30 1378 C 118.733 3.53763 -4.99518 0
M  V30 1379 N 117.87 4.72491 -5.19323 0
M  V30 1380 H 122.71 0.915356 -2.83593 0
M  V30 1381 H 120.247 0.440629 -1.40346 0
M  V30 1382 H 122.205 3.3672 -2.46324 0
M  V30 1383 H 120.835 2.89734 -1.42317 0
M  V30 1384 H 119.887 1.58652 -3.45737 0
M  V30 1385 H 121.199 2.27772 -4.43758 0
M  V30 1386 H 120.353 4.58679 -3.97113 0
M  V30 1387 H 119.092 3.92754 -2.89129 0
M  V30 1388 H 118.097 2.65619 -4.8138 0
M  V30 1389 H 119.322 3.34607 -5.90944 0
M  V30 1390 H 117.268 4.93365 -4.3235 0
M  V30 1391 H 117.185 4.5765 -6.01741 0
M  V30 1392 H 118.453 5.6038 -5.41843 0
M  V30 1393 N 122.682 1.50554 0.465978 0
M  V30 1394 C 123.645 1.69233 1.54574 0
M  V30 1395 C 124.645 0.562901 1.50626 0
M  V30 1396 O 125.835 0.830016 1.53155 0
M  V30 1397 C 122.967 1.7223 2.94193 0
M  V30 1398 H 124.16 2.65571 1.39327 0
M  V30 1399 H 121.713 1.40111 0.692711 0
M  V30 1400 H 122.448 0.77603 3.14878 0
M  V30 1401 H 122.233 2.54285 2.98466 0
M  V30 1402 H 123.723 1.88618 3.72576 0
M  V30 1403 N 124.16 -0.719506 1.40217 0
M  V30 1404 C 125.406 -1.48152 1.38488 0
M  V30 1405 C 125.739 -1.94195 -0.0141867 0
M  V30 1406 O 125.014 -1.67884 -0.982096 0
M  V30 1407 C 125.297 -2.71035 2.37091 0
M  V30 1408 C 125.15 -2.30912 3.86005 0
M  V30 1409 C 126.469 -3.73182 2.33288 0
M  V30 1410 H 123.588 -0.537395 0.504357 0
M  V30 1411 H 126.23 -0.821472 1.71324 0
M  V30 1412 H 124.38 -3.27352 2.0922 0
M  V30 1413 H 126.052 -1.80107 4.24687 0
M  V30 1414 H 124.295 -1.62958 4.02029 0
M  V30 1415 H 124.966 -3.18978 4.50508 0
M  V30 1416 H 127.442 -3.26485 2.57966 0
M  V30 1417 H 126.318 -4.56806 3.04334 0
M  V30 1418 H 126.579 -4.21202 1.34317 0
M  V30 1419 N 125.638 -1.25649 -0.95132 0
M  V30 1420 C 126.601 -1.06399 -2.03007 0
M  V30 1421 C 127.601 -0.0156794 -1.60792 0
M  V30 1422 O 128.791 -0.25817 -1.72276 0
M  V30 1423 C 125.923 -0.616184 -3.35285 0
M  V30 1424 H 127.116 -2.02164 -2.21517 0
M  V30 1425 H 124.669 -1.08103 -1.12887 0
M  V30 1426 H 125.404 0.343917 -3.22471 0
M  V30 1427 H 125.189 -1.37301 -3.67275 0
M  V30 1428 H 126.679 -0.503032 -4.14559 0
M  V30 1429 N 127.117 1.15442 -1.07289 0
M  V30 1430 C 128.345 1.90096 -0.81676 0
M  V30 1431 C 128.76 1.7798 0.629966 0
M  V30 1432 O 128.117 1.1313 1.43206 0
M  V30 1433 C 128.168 3.40466 -1.21512 0
M  V30 1434 O 127.889 3.52232 -2.60508 0
M  V30 1435 C 129.39 4.32145 -0.988198 0
M  V30 1436 H 126.61 0.602495 -0.295366 0
M  V30 1437 H 129.154 1.4627 -1.42918 0
M  V30 1438 H 127.309 3.81958 -0.647039 0
M  V30 1439 H 127.723 4.45549 -2.76742 0
M  V30 1440 H 129.197 5.36072 -1.31645 0
M  V30 1441 H 129.674 4.39135 0.0755063 0
M  V30 1442 H 130.28 3.96395 -1.54115 0
M  V30 1443 N 128.595 0.856903 1.32268 0
M  V30 1444 C 129.505 0.306131 2.32594 0
M  V30 1445 C 130.521 -0.577209 1.64147 0
M  V30 1446 O 131.697 -0.477043 1.95669 0
M  V30 1447 C 128.762 -0.494561 3.43154 0
M  V30 1448 C 127.823 0.415186 4.27288 0
M  V30 1449 C 127.056 -0.347387 5.32568 0
M  V30 1450 O 127.279 -1.57708 5.48165 0
M  V30 1451 O 126.213 0.287982 6.01211 0
M  V30 1452 H 130.039 1.13737 2.81598 0
M  V30 1453 H 127.624 0.619902 1.35932 0
M  V30 1454 H 129.506 -0.948944 4.10576 0
M  V30 1455 H 128.181 -1.30257 2.96336 0
M  V30 1456 H 127.088 0.917793 3.62667 0
M  V30 1457 H 128.421 1.18844 4.77637 0
M  V30 1458 N 130.073 -1.45103 0.615059 0
M  V30 1459 C 131.036 -2.29025 -0.0895485 0
M  V30 1460 C 132.036 -1.40174 -0.787906 0
M  V30 1461 O 133.226 -1.62217 -0.634933 0
M  V30 1462 C 130.358 -3.21376 -1.13711 0
M  V30 1463 H 131.551 -2.92807 0.648382 0
M  V30 1464 H 129.104 -1.51749 0.374444 0
M  V30 1465 H 129.839 -2.6241 -1.90556 0
M  V30 1466 H 129.624 -3.86834 -0.640475 0
M  V30 1467 H 131.114 -3.84459 -1.63036 0
M  V30 1468 N 131.551 -0.354651 -1.53558 0
M  V30 1469 C 132.8 0.239504 -2.00273 0
M  V30 1470 C 133.113 1.50759 -1.24623 0
M  V30 1471 O 134.319 2.17968 -1.61871 0
M  V30 1472 C 132.775 0.477341 -3.5672 0
M  V30 1473 C 132.383 -0.775488 -4.41237 0
M  V30 1474 C 134.127 1.02975 -4.11821 0
M  V30 1475 C 132.034 -0.507838 -5.89216 0
M  V30 1476 H 130.964 0.0932743 -0.748208 0
M  V30 1477 H 133.615 -0.471701 -1.77334 0
M  V30 1478 H 131.997 1.24953 -3.7577 0
M  V30 1479 H 133.171 -1.54963 -4.33962 0
M  V30 1480 H 131.486 -1.25033 -3.97185 0
M  V30 1481 H 134.083 1.24513 -5.2 0
M  V30 1482 H 134.426 1.98862 -3.65731 0
M  V30 1483 H 134.959 0.317994 -3.96527 0
M  V30 1484 H 131.698 -1.43674 -6.39561 0
M  V30 1485 H 131.218 0.228011 -5.99366 0
M  V30 1486 H 132.897 -0.129238 -6.46871 0
M  V30 1487 N 133.029 1.57378 -0.0835403 0
M  V30 1488 C 134.445 1.57246 0.273109 0
M  V30 1489 C 134.645 1.09385 1.69225 0
M  V30 1490 O 133.701 0.765051 2.40631 0
M  V30 1491 C 135.014 3.00614 0.0720628 0
M  V30 1492 C 136.562 3.12684 0.1407 0
M  V30 1493 C 137.037 4.57989 -0.0322094 0
M  V30 1494 N 138.528 4.63194 0.0230085 0
M  V30 1495 C 139.263 5.73335 -0.0861941 0
M  V30 1496 N 138.759 6.9235 -0.24958 0
M  V30 1497 N 140.552 5.62093 -0.0282886 0
M  V30 1498 H 132.703 1.86801 -1.0109 0
M  V30 1499 H 134.966 0.861687 -0.395222 0
M  V30 1500 H 134.672 3.39786 -0.907662 0
M  V30 1501 H 134.546 3.68193 0.81936 0
M  V30 1502 H 136.933 2.73391 1.11092 0
M  V30 1503 H 137.014 2.47719 -0.637896 0
M  V30 1504 H 136.658 4.97973 -0.999247 0
M  V30 1505 H 136.588 5.21 0.765937 0
M  V30 1506 H 139.079 3.77613 0.14722 0
M  V30 1507 H 139.392 7.72117 -0.324733 0
M  V30 1508 H 137.737 6.94415 -0.285097 0
M  V30 1509 H 140.928 4.67997 0.0981408 0
M  V30 1510 H 141.101 6.47895 -0.116845 0
M  V30 1511 N 134.507 -0.190092 1.56449 0
M  V30 1512 C 135.923 -0.54113 1.50146 0
M  V30 1513 C 136.123 -1.85603 0.784465 0
M  V30 1514 O 135.179 -2.5024 0.337051 0
M  V30 1515 C 136.492 -0.591241 2.9483 0
M  V30 1516 C 138.04 -0.679732 3.0553 0
M  V30 1517 C 138.515 -0.760908 4.51635 0
M  V30 1518 N 140.006 -0.824302 4.55806 0
M  V30 1519 C 140.741 -0.907365 5.66175 0
M  V30 1520 N 140.237 -0.952422 6.86222 0
M  V30 1521 N 142.03 -0.94494 5.541 0
M  V30 1522 H 134.181 0.67235 2.01478 0
M  V30 1523 H 136.444 0.240127 0.917084 0
M  V30 1524 H 136.15 0.305905 3.50367 0
M  V30 1525 H 136.024 -1.44422 3.48457 0
M  V30 1526 H 138.411 -1.56731 2.50039 0
M  V30 1527 H 138.492 0.199549 2.5502 0
M  V30 1528 H 138.136 0.122336 5.07753 0
M  V30 1529 H 138.066 -1.65606 4.99882 0
M  V30 1530 H 140.557 -0.798526 3.69367 0
M  V30 1531 H 140.87 -1.01645 7.66086 0
M  V30 1532 H 139.215 -0.921014 6.8887 0
M  V30 1533 H 142.406 -0.906612 4.59236 0
M  V30 1534 H 142.579 -1.00622 6.4014 0
M  V30 1535 N 135.985 -1.50799 -0.457987 0
M  V30 1536 C 136.948 -1.7005 -1.53674 0
M  V30 1537 C 137.948 -0.570881 -1.50325 0
M  V30 1538 O 139.138 -0.838126 -1.52712 0
M  V30 1539 C 136.27 -1.73788 -2.93276 0
M  V30 1540 H 137.463 -2.66306 -1.37917 0
M  V30 1541 H 135.016 -1.40477 -0.685271 0
M  V30 1542 H 135.751 -0.792717 -3.14462 0
M  V30 1543 H 135.536 -2.55864 -2.97113 0
M  V30 1544 H 137.026 -1.90591 -3.71571 0
M  V30 1545 N 137.463 0.71206 -1.40597 0
M  V30 1546 C 138.41 1.82613 -1.41142 0
M  V30 1547 C 139.38 1.63925 -0.267903 0
M  V30 1548 O 140.565 1.85009 -0.466495 0
M  V30 1549 C 137.705 3.20354 -1.28324 0
M  V30 1550 C 136.818 3.50589 -2.52411 0
M  V30 1551 C 135.953 4.77855 -2.32009 0
M  V30 1552 C 134.992 5.01005 -3.51654 0
M  V30 1553 N 134.129 6.19487 -3.30425 0
M  V30 1554 H 138.969 1.81482 -2.36365 0
M  V30 1555 H 136.506 0.886475 -1.17388 0
M  V30 1556 H 138.464 3.99899 -1.18899 0
M  V30 1557 H 137.094 3.20705 -0.367189 0
M  V30 1558 H 136.146 2.65573 -2.72351 0
M  V30 1559 H 137.458 3.63604 -3.41458 0
M  V30 1560 H 136.612 5.65424 -2.19956 0
M  V30 1561 H 135.351 4.67056 -1.40392 0
M  V30 1562 H 134.356 4.1189 -3.64179 0
M  V30 1563 H 135.581 5.13674 -4.44202 0
M  V30 1564 H 133.527 6.09932 -2.41494 0
M  V30 1565 H 133.444 6.33194 -4.13039 0
M  V30 1566 H 134.712 7.09834 -3.22113 0
M  V30 1567 N 138.941 1.26152 0.944643 0
M  V30 1568 C 139.889 1.07215 2.06417 0
M  V30 1569 C 140.883 9.2007e-05 1.694 0
M  V30 1570 O 142.089 0.1565 1.79318 0
M  V30 1571 H 138.464 0.329837 0.675805 0
M  V30 1572 H 140.435 2.02099 2.19541 0
M  V30 1573 C 139.184 0.718197 3.40202 0
M  V30 1574 H 138.507 1.53497 3.69159 0
M  V30 1575 H 139.947 0.625459 4.19361 0
M  V30 1576 C 138.406 -0.576435 3.31932 0
M  V30 1577 O 138.936 -1.61574 3.67773 0
M  V30 1578 N 137.142 -0.565781 2.85039 0
M  V30 1579 H 136.689 0.280367 2.5607 0
M  V30 1580 H 136.647 -1.43213 2.79888 0
M  V30 1581 N 140.419 -1.14872 1.07899 0
M  V30 1582 C 141.382 -2.17986 0.708161 0
M  V30 1583 C 142.382 -1.58775 -0.25442 0
M  V30 1584 O 143.572 -1.74166 -0.034645 0
M  V30 1585 C 140.704 -3.40871 0.0446929 0
M  V30 1586 H 141.897 -2.52306 1.62116 0
M  V30 1587 H 139.45 -1.2943 0.876218 0
M  V30 1588 H 140.185 -3.12124 -0.880281 0
M  V30 1589 H 139.97 -3.8511 0.737091 0
M  V30 1590 H 141.46 -4.17121 -0.19991 0
M  V30 1591 N 141.898 -0.863906 -1.31812 0
M  V30 1592 C 142.808 -0.318461 -2.32428 0
M  V30 1593 C 143.824 0.568496 -1.64451 0
M  V30 1594 O 145 0.46666 -1.95919 0
M  V30 1595 C 142.065 0.476355 -3.43412 0
M  V30 1596 C 141.126 -0.43784 -4.27061 0
M  V30 1597 C 140.359 0.319138 -5.32745 0
M  V30 1598 O 140.582 1.54799 -5.48993 0
M  V30 1599 O 139.516 -0.319861 -6.01049 0
M  V30 1600 H 143.342 -1.15229 -2.80991 0
M  V30 1601 H 140.927 -0.627103 -1.35602 0
M  V30 1602 H 142.809 0.927156 -4.11074 0
M  V30 1603 H 141.484 1.28683 -2.97022 0
M  V30 1604 H 140.391 -0.937013 -3.62175 0
M  V30 1605 H 141.724 -1.21375 -4.77 0
M  V30 1606 N 143.376 1.44774 -0.622745 0
M  V30 1607 C 144.286 2.34433 0.0886031 0
M  V30 1608 C 145.302 1.52131 0.844529 0
M  V30 1609 O 146.478 1.84886 0.798691 0
M  V30 1610 C 143.543 3.29986 1.0635 0
M  V30 1611 C 142.604 4.28195 0.307873 0
M  V30 1612 C 141.837 5.19183 1.23633 0
M  V30 1613 O 142.06 5.13918 2.47476 0
M  V30 1614 O 140.994 5.97515 0.725189 0
M  V30 1615 H 144.82 2.96693 -0.648599 0
M  V30 1616 H 142.405 1.44408 -0.382957 0
M  V30 1617 H 144.287 3.88825 1.6246 0
M  V30 1618 H 142.962 2.70269 1.78146 0
M  V30 1619 H 141.869 3.72927 -0.296064 0
M  V30 1620 H 143.202 4.90808 -0.3699 0
M  V30 1621 N 144.854 0.36279 1.53368 0
M  V30 1622 C 146.101 -0.227776 2.01215 0
M  V30 1623 C 146.429 -1.49003 1.25014 0
M  V30 1624 O 145.684 -1.92876 0.331236 0
M  V30 1625 C 145.983 -0.568417 3.52851 0
M  V30 1626 C 145.649 0.59918 4.46901 0
M  V30 1627 C 144.311 0.919559 4.72332 0
M  V30 1628 C 146.663 1.38156 5.02556 0
M  V30 1629 C 143.991 2.02434 5.5067 0
M  V30 1630 C 146.343 2.47674 5.821 0
M  V30 1631 C 145.007 2.8025 6.05819 0
M  V30 1632 H 144.277 -0.083349 0.736297 0
M  V30 1633 H 146.924 0.494677 1.85001 0
M  V30 1634 H 145.229 -1.37185 3.66998 0
M  V30 1635 H 146.926 -1.03756 3.87344 0
M  V30 1636 H 143.516 0.339437 4.27254 0
M  V30 1637 H 147.7 1.14729 4.82857 0
M  V30 1638 H 142.956 2.28075 5.67267 0
M  V30 1639 H 147.13 3.08716 6.24234 0
M  V30 1640 H 144.757 3.65979 6.66306 0
M  V30 1641 N 146.332 -1.57332 0.0918853 0
M  V30 1642 C 147.262 -2.16872 -0.865371 0
M  V30 1643 C 148.243 -1.10118 -1.29646 0
M  V30 1644 O 149.428 -1.38242 -1.36392 0
M  V30 1645 C 146.558 -2.74649 -2.12569 0
M  V30 1646 C 145.512 -3.86747 -1.83333 0
M  V30 1647 C 144.838 -4.31212 -3.16166 0
M  V30 1648 C 146.138 -5.10089 -1.1228 0
M  V30 1649 H 147.832 -2.97114 -0.369307 0
M  V30 1650 H 145.378 -1.42918 -0.176194 0
M  V30 1651 H 147.331 -3.14952 -2.7997 0
M  V30 1652 H 146.055 -1.91657 -2.64452 0
M  V30 1653 H 144.714 -3.46978 -1.18331 0
M  V30 1654 H 144.362 -3.45115 -3.6593 0
M  V30 1655 H 144.062 -5.06788 -2.97388 0
M  V30 1656 H 145.586 -4.74146 -3.84731 0
M  V30 1657 H 147 -5.47582 -1.69785 0
M  V30 1658 H 145.397 -5.91073 -1.03693 0
M  V30 1659 H 146.467 -4.84786 -0.105041 0
M  V30 1660 N 147.81 0.181792 -1.56548 0
M  V30 1661 C 148.72 1.24538 -1.98815 0
M  V30 1662 C 149.736 1.49045 -0.897861 0
M  V30 1663 O 150.912 1.61399 -1.20467 0
M  V30 1664 C 147.977 2.56683 -2.33055 0
M  V30 1665 C 147.038 2.40131 -3.55859 0
M  V30 1666 C 146.271 3.65975 -3.88456 0
M  V30 1667 O 146.494 4.70711 -3.22161 0
M  V30 1668 O 145.428 3.6071 -4.81842 0
M  V30 1669 H 149.254 0.916647 -2.89536 0
M  V30 1670 H 146.839 0.387842 -1.44278 0
M  V30 1671 H 148.721 3.34655 -2.56094 0
M  V30 1672 H 147.396 2.89157 -1.45498 0
M  V30 1673 H 146.303 1.60226 -3.38051 0
M  V30 1674 H 147.636 2.12585 -4.43924 0
M  V30 1675 N 149.288 1.51039 0.449983 0
M  V30 1676 C 150.704 1.38934 0.785462 0
M  V30 1677 C 150.904 0.461817 1.96136 0
M  V30 1678 O 149.96 -0.0877389 2.52348 0
M  V30 1679 C 151.273 2.80724 1.0777 0
M  V30 1680 C 152.821 2.89787 1.1829 0
M  V30 1681 C 153.296 4.32457 1.50815 0
M  V30 1682 N 154.787 4.35505 1.57764 0
M  V30 1683 C 155.522 5.42914 1.84477 0
M  V30 1684 N 155.018 6.60502 2.09068 0
M  V30 1685 N 156.811 5.3038 1.86155 0
M  V30 1686 H 148.962 2.09904 -0.324647 0
M  V30 1687 H 151.225 0.944378 -0.0827957 0
M  V30 1688 H 150.931 3.50531 0.286498 0
M  V30 1689 H 150.805 3.19273 2.00859 0
M  V30 1690 H 153.192 2.20186 1.96474 0
M  V30 1691 H 153.273 2.54752 0.231314 0
M  V30 1692 H 152.917 5.02603 0.731622 0
M  V30 1693 H 152.847 4.64995 2.47158 0
M  V30 1694 H 155.338 3.50724 1.40715 0
M  V30 1695 H 155.651 7.38158 2.28785 0
M  V30 1696 H 153.996 6.63639 2.06416 0
M  V30 1697 H 157.187 4.37505 1.66454 0
M  V30 1698 H 157.36 6.1417 2.06637 0
M  V30 1699 N 150.766 -0.704594 1.40972 0
M  V30 1700 C 152.012 -1.46675 1.40051 0
M  V30 1701 C 152.345 -1.94199 0.00641102 0
M  V30 1702 O 151.62 -1.68916 -0.964235 0
M  V30 1703 C 151.903 -2.68505 2.39952 0
M  V30 1704 C 151.756 -2.26805 3.88432 0
M  V30 1705 C 153.075 -3.70686 2.37233 0
M  V30 1706 H 150.194 -0.532015 0.510028 0
M  V30 1707 H 152.836 -0.803255 1.72185 0
M  V30 1708 H 150.986 -3.25114 2.1268 0
M  V30 1709 H 152.658 -1.75592 4.26574 0
M  V30 1710 H 150.901 -1.58685 4.03734 0
M  V30 1711 H 151.572 -3.14181 4.53866 0
M  V30 1712 H 154.048 -3.23731 2.61415 0
M  V30 1713 H 152.924 -4.53553 3.09162 0
M  V30 1714 H 153.185 -4.19754 1.38777 0
M  V30 1715 N 152.244 -1.26651 -0.937939 0
M  V30 1716 C 153.191 -1.0849 -2.03712 0
M  V30 1717 C 154.161 0.011033 -1.66096 0
M  V30 1718 O 155.346 -0.149353 -1.90215 0
M  V30 1719 C 152.486 -0.72735 -3.37348 0
M  V30 1720 C 151.599 -1.89986 -3.87981 0
M  V30 1721 C 150.734 -1.48513 -5.10017 0
M  V30 1722 C 149.773 -2.62575 -5.5292 0
M  V30 1723 N 148.91 -2.21762 -6.66158 0
M  V30 1724 H 153.75 -2.02551 -2.18579 0
M  V30 1725 H 151.287 -1.00844 -1.07093 0
M  V30 1726 H 153.245 -0.50092 -4.14182 0
M  V30 1727 H 151.875 0.176298 -3.22318 0
M  V30 1728 H 150.927 -2.23913 -3.07518 0
M  V30 1729 H 152.239 -2.75586 -4.15757 0
M  V30 1730 H 151.393 -1.21934 -5.94321 0
M  V30 1731 H 150.132 -0.60009 -4.83994 0
M  V30 1732 H 149.137 -2.8988 -4.67172 0
M  V30 1733 H 150.362 -3.51685 -5.80943 0
M  V30 1734 H 148.308 -1.35696 -6.41812 0
M  V30 1735 H 148.225 -3.00903 -6.93537 0
M  V30 1736 H 149.493 -1.98403 -7.53828 0
M  V30 1737 N 153.722 1.14298 -1.08507 0
M  V30 1738 C 155.138 1.37347 -0.812901 0
M  V30 1739 C 155.338 1.93052 0.577325 0
M  V30 1740 O 154.394 2.14389 1.33393 0
M  V30 1741 C 155.707 2.33359 -1.89642 0
M  V30 1742 C 157.255 2.46996 -1.92255 0
M  V30 1743 C 157.73 3.46309 -2.99724 0
M  V30 1744 N 159.221 3.53853 -2.98902 0
M  V30 1745 C 159.956 4.3055 -3.787 0
M  V30 1746 N 159.452 5.10482 -4.6838 0
M  V30 1747 N 161.245 4.25757 -3.66998 0
M  V30 1748 H 153.396 0.764867 -1.9815 0
M  V30 1749 H 155.659 0.398966 -0.859959 0
M  V30 1750 H 155.365 1.99565 -2.89597 0
M  V30 1751 H 155.239 3.33274 -1.76659 0
M  V30 1752 H 157.626 2.80081 -0.929445 0
M  V30 1753 H 157.707 1.47039 -2.09316 0
M  V30 1754 H 157.351 3.13957 -3.99241 0
M  V30 1755 H 157.281 4.46049 -2.79907 0
M  V30 1756 H 159.772 2.96812 -2.33904 0
M  V30 1757 H 160.085 5.66284 -5.25873 0
M  V30 1758 H 158.43 5.09747 -4.72422 0
M  V30 1759 H 161.621 3.62383 -2.96304 0
M  V30 1760 H 161.794 4.85279 -4.29427 0
M  V30 1761 N 155.201 0.870884 1.31352 0
M  V30 1762 C 156.111 0.330783 2.32256 0
M  V30 1763 C 157.127 -0.559767 1.6475 0
M  V30 1764 O 158.303 -0.456263 1.96164 0
M  V30 1765 C 155.368 -0.458137 3.4366 0
M  V30 1766 C 154.429 0.460482 4.26823 0
M  V30 1767 C 153.662 -0.290881 5.32907 0
M  V30 1768 O 153.885 -1.51885 5.49806 0
M  V30 1769 O 152.819 0.351732 6.00871 0
M  V30 1770 H 156.645 1.16718 2.80376 0
M  V30 1771 H 154.23 0.634285 1.35267 0
M  V30 1772 H 156.112 -0.905343 4.1156 0
M  V30 1773 H 154.787 -1.27106 2.97701 0
M  V30 1774 H 153.694 0.956207 3.61673 0
M  V30 1775 H 155.027 1.23903 4.7635 0
M  V30 1776 N 156.679 -1.44442 0.630414 0
M  V30 1777 C 157.925 -2.02351 0.134816 0
M  V30 1778 C 158.258 -1.4947 -1.23986 0
M  V30 1779 O 157.533 -0.678475 -1.82283 0
M  V30 1780 C 157.816 -3.59898 0.120707 0
M  V30 1781 C 157.669 -4.23063 1.52767 0
M  V30 1782 C 158.988 -4.36585 -0.555127 0
M  V30 1783 H 156.107 -0.73527 0.0504646 0
M  V30 1784 H 158.749 -1.72022 0.806751 0
M  V30 1785 H 156.899 -3.85868 -0.451477 0
M  V30 1786 H 158.571 -4.08202 2.14869 0
M  V30 1787 H 156.814 -3.80586 2.08175 0
M  V30 1788 H 157.485 -5.32071 1.46984 0
M  V30 1789 H 159.961 -4.16044 -0.0685429 0
M  V30 1790 H 158.837 -5.46294 -0.534185 0
M  V30 1791 H 159.098 -4.11138 -1.62535 0
M  V30 1792 N 158.157 -0.370918 -1.53173 0
M  V30 1793 C 159.405 0.216673 -2.00935 0
M  V30 1794 C 159.726 1.48845 -1.25977 0
M  V30 1795 O 158.996 1.92286 -0.374551 0
M  V30 1796 H 157.576 0.0830565 -0.742368 0
M  V30 1797 H 160.238 -0.49838 -1.8842 0
M  V30 1798 H 159.334 0.439893 -3.08984 0
M  V30 1799 N 159.635 1.57281 -0.100228 0
M  V30 1800 C 160.565 2.17328 0.853857 0
M  V30 1801 C 161.546 1.10804 1.2906 0
M  V30 1802 O 162.731 1.38963 1.35657 0
M  V30 1803 C 159.861 2.75772 2.11109 0
M  V30 1804 C 158.815 3.87713 1.81279 0
M  V30 1805 C 158.141 4.32882 3.13874 0
M  V30 1806 C 159.441 5.10677 1.09574 0
M  V30 1807 H 161.135 2.97305 0.353545 0
M  V30 1808 H 158.681 1.43009 0.168612 0
M  V30 1809 H 160.634 3.16433 2.78296 0
M  V30 1810 H 159.358 1.93057 2.63432 0
M  V30 1811 H 158.017 3.476 1.16489 0
M  V30 1812 H 157.665 3.47051 3.64095 0
M  V30 1813 H 157.365 5.08358 2.94696 0
M  V30 1814 H 158.889 4.7618 3.82211 0
M  V30 1815 H 160.303 5.48474 1.66879 0
M  V30 1816 H 158.7 5.91615 1.00557 0
M  V30 1817 H 159.77 4.84835 0.0793299 0
M  V30 1818 N 161.113 -0.173488 1.56642 0
M  V30 1819 C 162.359 -0.891784 1.8214 0
M  V30 1820 C 162.692 -1.8199 0.677736 0
M  V30 1821 O 161.967 -1.91842 -0.320446 0
M  V30 1822 C 162.25 -1.68933 3.18015 0
M  V30 1823 C 162.103 -0.784487 4.42906 0
M  V30 1824 C 163.422 -2.65748 3.50808 0
M  V30 1825 H 160.541 -0.322761 0.662567 0
M  V30 1826 H 163.183 -0.158095 1.89341 0
M  V30 1827 H 161.333 -2.31482 3.12007 0
M  V30 1828 H 163.005 -0.172046 4.60979 0
M  V30 1829 H 161.248 -0.0924117 4.33702 0
M  V30 1830 H 161.919 -1.37799 5.34524 0
M  V30 1831 H 164.395 -2.13327 3.57255 0
M  V30 1832 H 163.271 -3.18619 4.4696 0
M  V30 1833 H 163.532 -3.45842 2.75401 0
M  V30 1834 N 162.591 -1.51276 -0.441967 0
M  V30 1835 C 163.837 -1.63958 -1.19355 0
M  V30 1836 C 164.17 -0.352543 -1.90973 0
M  V30 1837 O 163.445 0.647627 -1.83401 0
M  V30 1838 C 163.728 -2.83979 -2.21422 0
M  V30 1839 C 163.581 -4.22646 -1.53918 0
M  V30 1840 C 164.9 -2.99521 -3.22451 0
M  V30 1841 H 162.019 -0.596709 -0.432559 0
M  V30 1842 H 164.661 -1.83748 -0.483398 0
M  V30 1843 H 162.811 -2.67237 -2.81987 0
M  V30 1844 H 164.483 -4.51045 -0.967256 0
M  V30 1845 H 162.726 -4.25558 -0.841615 0
M  V30 1846 H 163.397 -5.02609 -2.28229 0
M  V30 1847 H 165.873 -3.14944 -2.71937 0
M  V30 1848 H 164.749 -3.85072 -3.91166 0
M  V30 1849 H 165.01 -2.11391 -3.88287 0
M  V30 1850 N 164.069 0.697108 -1.41344 0
M  V30 1851 C 164.979 1.84088 -1.45427 0
M  V30 1852 C 165.995 1.70545 -0.34501 0
M  V30 1853 O 167.171 1.92488 -0.592492 0
M  V30 1854 C 164.236 3.20056 -1.33286 0
M  V30 1855 C 163.297 3.45718 -2.54514 0
M  V30 1856 C 162.53 4.75199 -2.42944 0
M  V30 1857 O 162.753 5.51579 -1.45318 0
M  V30 1858 O 161.687 5.0161 -3.32672 0
M  V30 1859 H 165.513 1.836 -2.41919 0
M  V30 1860 H 163.098 0.849966 -1.22866 0
M  V30 1861 H 164.98 4.01236 -1.28794 0
M  V30 1862 H 163.655 3.2123 -0.39909 0
M  V30 1863 H 162.562 2.64474 -2.64583 0
M  V30 1864 H 163.895 3.49356 -3.46715 0
M  V30 1865 N 165.547 1.27147 0.931209 0
M  V30 1866 C 166.793 1.13446 1.68101 0
M  V30 1867 C 167.126 -0.319628 1.91552 0
M  V30 1868 O 166.401 -1.23407 1.50336 0
M  V30 1869 C 166.684 1.91482 3.0497 0
M  V30 1870 C 166.537 3.44855 2.88782 0
M  V30 1871 C 167.856 1.71651 4.05246 0
M  V30 1872 H 164.975 0.413498 0.610072 0
M  V30 1873 H 167.617 1.56261 1.08086 0
M  V30 1874 H 165.767 1.55095 3.56199 0
M  V30 1875 H 167.439 3.9105 2.44698 0
M  V30 1876 H 165.682 3.71373 2.24198 0
M  V30 1877 H 166.353 3.94694 3.85902 0
M  V30 1878 H 168.829 2.0337 3.63015 0
M  V30 1879 H 167.705 2.28651 4.99009 0
M  V30 1880 H 167.966 0.663555 4.37092 0
M  V30 1881 N 167.025 -1.13721 1.09112 0
M  V30 1882 C 168.274 -1.84275 0.82009 0
M  V30 1883 C 168.587 -1.84253 -0.656509 0
M  V30 1884 O 169.793 -2.50668 -1.04296 0
M  V30 1885 C 168.249 -3.30825 1.41714 0
M  V30 1886 C 167.857 -3.39244 2.92605 0
M  V30 1887 C 169.601 -4.06443 1.22492 0
M  V30 1888 C 167.508 -4.80047 3.45411 0
M  V30 1889 H 166.438 -0.690387 0.30312 0
M  V30 1890 H 169.089 -1.28146 1.31343 0
M  V30 1891 H 167.471 -3.86737 0.851498 0
M  V30 1892 H 168.645 -2.93344 3.55367 0
M  V30 1893 H 166.96 -2.77088 3.10823 0
M  V30 1894 H 169.557 -5.10387 1.59402 0
M  V30 1895 H 169.9 -4.15972 0.165299 0
M  V30 1896 H 170.433 -3.56852 1.75788 0
M  V30 1897 H 167.172 -4.75709 4.50978 0
M  V30 1898 H 166.692 -5.26455 2.87411 0
M  V30 1899 H 168.371 -5.48957 3.42425 0
M  V30 1900 N 168.503 -0.877838 -1.30888 0
M  V30 1901 C 169.731 -0.507414 -2.00581 0
M  V30 1902 C 170.146 0.902216 -1.65848 0
M  V30 1903 O 169.503 1.59225 -0.891831 0
M  V30 1904 C 169.554 -0.664162 -3.55347 0
M  V30 1905 O 169.275 -2.01829 -3.8884 0
M  V30 1906 C 170.776 -0.295787 -4.42312 0
M  V30 1907 H 167.996 -0.196866 -0.641471 0
M  V30 1908 H 170.54 -1.18117 -1.66939 0
M  V30 1909 H 168.695 -0.0378619 -3.87381 0
M  V30 1910 H 169.109 -2.03174 -4.8355 0
M  V30 1911 H 170.583 -0.456388 -5.5011 0
M  V30 1912 H 171.06 0.765663 -4.32475 0
M  V30 1913 H 171.666 -0.898113 -4.15709 0
M  V30 1914 N 169.982 1.44106 -0.638065 0
M  V30 1915 C 171.393 1.85316 -0.226894 0
M  V30 1916 C 171.744 1.53399 1.22324 0
M  V30 1917 O 170.869 0.975463 1.93167 0
M  V30 1918 C 171.464 3.3637 -0.405013 0
M  V30 1919 C 170.023 3.76369 -0.0482902 0
M  V30 1920 C 169.17 2.67921 -0.715108 0
M  V30 1921 H 172.121 1.34474 -0.842764 0
M  V30 1922 H 172.142 3.7885 0.354 0
M  V30 1923 H 171.654 3.59569 -1.46053 0
M  V30 1924 H 169.755 3.58784 1.00522 0
M  V30 1925 H 169.868 4.76856 -0.463187 0
M  V30 1926 H 168.232 2.54259 -0.149753 0
M  V30 1927 H 169.015 2.93951 -1.77335 0
M  V30 1928 N 171.46 0.379036 1.52974 0
M  V30 1929 C 172.37 -0.468639 2.29872 0
M  V30 1930 C 173.386 -1.08067 1.36373 0
M  V30 1931 O 174.562 -1.08871 1.69438 0
M  V30 1932 C 171.627 -1.58594 3.083 0
M  V30 1933 C 170.688 -1.00007 4.17489 0
M  V30 1934 C 169.921 -2.06413 4.92168 0
M  V30 1935 O 170.144 -3.27751 4.66835 0
M  V30 1936 O 169.078 -1.68717 5.7777 0
M  V30 1937 H 172.904 0.157508 3.03291 0
M  V30 1938 H 170.489 0.143035 1.48714 0
M  V30 1939 H 172.371 -2.23525 3.57232 0
M  V30 1940 H 171.046 -2.19724 2.37703 0
M  V30 1941 H 169.953 -0.314299 3.72777 0
M  V30 1942 H 171.286 -0.433135 4.90291 0
M  V30 1943 N 172.938 -1.57226 0.108567 0
M  V30 1944 C 173.87 -2.11809 -0.875752 0
M  V30 1945 C 174.883 -1.05839 -1.23701 0
M  V30 1946 O 176.072 -1.33245 -1.18778 0
M  V30 1947 C 173.172 -2.59411 -2.18081 0
M  V30 1948 C 172.345 -3.89364 -1.99284 0
M  V30 1949 C 171.404 -4.22672 -3.13424 0
M  V30 1950 O 170.43 -4.91668 -2.86795 0
M  V30 1951 N 171.632 -3.79154 -4.3957 0
M  V30 1952 H 174.397 -2.9689 -0.409477 0
M  V30 1953 H 171.958 -1.61721 -0.076158 0
M  V30 1954 H 173.95 -2.7873 -2.93414 0
M  V30 1955 H 172.52 -1.79268 -2.5609 0
M  V30 1956 H 171.74 -3.79059 -1.08203 0
M  V30 1957 H 173.028 -4.74358 -1.84017 0
M  V30 1958 H 172.426 -3.23486 -4.64083 0
M  V30 1959 H 170.983 -4.03602 -5.11809 0
M  V30 1960 N 174.416 0.165178 -1.56732 0
M  V30 1961 C 175.326 1.22423 -2.00125 0
M  V30 1962 C 176.342 1.48084 -0.913619 0
M  V30 1963 O 177.518 1.60112 -1.22172 0
M  V30 1964 C 174.583 2.54197 -2.35764 0
M  V30 1965 C 173.644 2.36343 -3.58386 0
M  V30 1966 C 172.877 3.61834 -3.92316 0
M  V30 1967 O 173.1 4.67267 -3.27135 0
M  V30 1968 O 172.034 3.55579 -4.85641 0
M  V30 1969 H 175.86 0.885886 -2.90492 0
M  V30 1970 H 173.445 0.372518 -1.44681 0
M  V30 1971 H 175.327 3.3192 -2.59629 0
M  V30 1972 H 174.002 2.87598 -1.48557 0
M  V30 1973 H 172.909 1.56632 -3.39731 0
M  V30 1974 H 174.242 2.07865 -4.46154 0
M  V30 1975 N 175.894 1.51508 0.433938 0
M  V30 1976 C 177.142 1.6402 1.18075 0
M  V30 1977 C 177.463 0.360328 1.91642 0
M  V30 1978 O 176.733 -0.623945 1.85698 0
M  V30 1979 H 175.313 0.6045 0.43885 0
M  V30 1980 H 177.975 1.88452 0.497178 0
M  V30 1981 H 177.071 2.46949 1.90847 0
M  V30 1982 N 177.372 -0.689602 1.41712 0
M  V30 1983 C 178.788 -1.00093 1.24312 0
M  V30 1984 C 178.988 -2.01036 0.136729 0
M  V30 1985 O 178.044 -2.47562 -0.496918 0
M  V30 1986 C 179.357 -1.51985 2.59463 0
M  V30 1987 C 180.905 -1.63838 2.66695 0
M  V30 1988 C 181.38 -2.1913 4.02177 0
M  V30 1989 N 182.871 -2.26483 4.04054 0
M  V30 1990 C 183.606 -2.70306 5.0569 0
M  V30 1991 N 183.102 -3.13691 6.17713 0
M  V30 1992 N 184.895 -2.69923 4.9305 0
M  V30 1993 H 177.046 -0.0210029 2.1239 0
M  V30 1994 H 179.309 -0.0718733 0.945272 0
M  V30 1995 H 179.015 -0.85269 3.41207 0
M  V30 1996 H 178.889 -2.50103 2.82362 0
M  V30 1997 H 181.276 -2.29664 1.85306 0
M  V30 1998 H 181.357 -0.642492 2.476 0
M  V30 1999 H 181.001 -1.53918 4.84016 0
M  V30 2000 H 180.931 -3.19482 4.18615 0
M  V30 2001 H 183.422 -1.95874 3.23174 0
M  V30 2002 H 183.735 -3.45773 6.9113 0
M  V30 2003 H 182.08 -3.11585 6.21241 0
M  V30 2004 H 185.271 -2.35382 4.04614 0
M  V30 2005 H 185.444 -3.03758 5.72394 0
M  V30 2006 N 178.85 -1.27639 -0.924453 0
M  V30 2007 C 180.08 -1.16819 -1.70402 0
M  V30 2008 C 180.488 0.277191 -1.87158 0
M  V30 2009 O 179.831 1.20025 -1.39067 0
M  V30 2010 C 179.893 -1.78305 -3.12166 0
M  V30 2011 C 179.557 -3.27502 -3.18734 0
M  V30 2012 C 180.554 -4.2409 -3.00738 0
M  V30 2013 C 178.239 -3.68269 -3.4159 0
M  V30 2014 C 180.233 -5.59422 -3.05492 0
M  V30 2015 C 177.92 -5.0373 -3.45977 0
M  V30 2016 C 178.918 -5.99116 -3.27946 0
M  V30 2017 O 178.606 -7.32108 -3.32074 0
M  V30 2018 H 178.338 -0.406931 -0.539799 0
M  V30 2019 H 180.892 -1.69078 -1.16626 0
M  V30 2020 H 179.122 -1.20528 -3.67437 0
M  V30 2021 H 180.811 -1.62154 -3.72103 0
M  V30 2022 H 181.577 -3.93931 -2.82919 0
M  V30 2023 H 177.456 -2.94496 -3.54673 0
M  V30 2024 H 181 -6.33852 -2.91337 0
M  V30 2025 H 176.897 -5.33543 -3.63321 0
M  V30 2026 H 177.665 -7.40598 -3.48507 0
M  V30 2027 N 180.328 1.1314 -1.09713 0
M  V30 2028 C 181.291 2.16831 -0.742751 0
M  V30 2029 C 182.291 1.59159 0.229129 0
M  V30 2030 O 183.481 1.74199 0.00693237 0
M  V30 2031 C 180.613 3.40756 -0.0989168 0
M  V30 2032 H 181.806 2.49695 -1.66109 0
M  V30 2033 H 179.359 1.2802 -0.896699 0
M  V30 2034 H 180.094 3.13485 0.830514 0
M  V30 2035 H 179.879 3.83888 -0.798265 0
M  V30 2036 H 181.369 4.17386 0.133524 0
M  V30 2037 N 181.806 0.884767 1.30421 0
M  V30 2038 C 183.036 0.517293 2.00019 0
M  V30 2039 C 183.444 -0.898632 1.66497 0
M  V30 2040 O 182.787 -1.60245 0.898181 0
M  V30 2041 C 182.849 0.612025 3.54252 0
M  V30 2042 C 182.513 1.99222 4.1129 0
M  V30 2043 C 183.51 2.9616 4.273 0
M  V30 2044 C 181.195 2.29755 4.46674 0
M  V30 2045 C 183.189 4.21764 4.77906 0
M  V30 2046 C 180.876 3.55606 4.96979 0
M  V30 2047 C 181.874 4.51425 5.12547 0
M  V30 2048 O 181.562 5.75043 5.61766 0
M  V30 2049 H 181.294 0.198529 0.64619 0
M  V30 2050 H 183.848 1.1919 1.67281 0
M  V30 2051 H 182.078 -0.119561 3.86515 0
M  V30 2052 H 183.767 0.255859 4.05093 0
M  V30 2053 H 184.533 2.73882 4.00267 0
M  V30 2054 H 180.412 1.55942 4.33824 0
M  V30 2055 H 183.956 4.96561 4.89972 0
M  V30 2056 H 179.853 3.7772 5.23448 0
M  V30 2057 H 180.621 5.77422 5.80109 0
M  V30 2058 N 183.284 -1.43765 0.645699 0
M  V30 2059 C 184.214 -2.33471 -0.0370477 0
M  V30 2060 C 185.195 -1.49042 -0.819779 0
M  V30 2061 O 186.38 -1.77726 -0.782758 0
M  V30 2062 C 183.51 -3.32311 -1.0093 0
M  V30 2063 C 182.464 -4.2667 -0.337201 0
M  V30 2064 C 181.79 -5.1549 -1.42037 0
M  V30 2065 C 183.09 -5.16657 0.765706 0
M  V30 2066 H 184.784 -2.90809 0.712069 0
M  V30 2067 H 182.33 -1.39834 0.343876 0
M  V30 2068 H 184.283 -3.9396 -1.49578 0
M  V30 2069 H 183.007 -2.73213 -1.78948 0
M  V30 2070 H 181.666 -3.66374 0.128771 0
M  V30 2071 H 181.314 -4.52735 -2.1918 0
M  V30 2072 H 181.014 -5.79438 -0.975966 0
M  V30 2073 H 182.538 -5.80012 -1.90838 0
M  V30 2074 H 183.952 -5.72158 0.361702 0
M  V30 2075 H 182.349 -5.89286 1.13413 0
M  V30 2076 H 183.419 -4.56796 1.62683 0
M  V30 2077 N 184.763 -0.387143 -1.52771 0
M  V30 2078 C 185.726 0.436939 -2.24997 0
M  V30 2079 C 186.726 0.991991 -1.26555 0
M  V30 2080 O 187.916 0.874335 -1.50669 0
M  V30 2081 C 185.048 1.61281 -3.00335 0
M  V30 2082 H 186.241 -0.195365 -2.99263 0
M  V30 2083 H 183.794 -0.139218 -1.55679 0
M  V30 2084 H 184.529 2.2826 -2.30364 0
M  V30 2085 H 184.314 1.22154 -3.72587 0
M  V30 2086 H 185.804 2.19629 -3.5518 0
M  V30 2087 N 186.241 1.57166 -0.116904 0
M  V30 2088 C 187.487 1.95412 0.542405 0
M  V30 2089 C 187.82 1.00019 1.66463 0
M  V30 2090 O 187.095 0.0370346 1.94465 0
M  V30 2091 C 187.378 3.43615 1.07708 0
M  V30 2092 C 187.231 4.49781 -0.0415868 0
M  V30 2093 C 188.55 3.93616 1.96861 0
M  V30 2094 H 185.669 0.710543 0.195696 0
M  V30 2095 H 188.311 1.89027 -0.192038 0
M  V30 2096 H 186.461 3.49187 1.70296 0
M  V30 2097 H 188.133 4.56308 -0.676793 0
M  V30 2098 H 186.376 4.28033 -0.705019 0
M  V30 2099 H 187.047 5.50733 0.373717 0
M  V30 2100 H 189.523 3.90335 1.44146 0
M  V30 2101 H 188.399 4.97838 2.3119 0
M  V30 2102 H 188.66 3.34188 2.89432 0
M  V30 2103 N 187.719 -0.156864 1.56817 0
M  V30 2104 C 188.682 -1.17781 1.96622 0
M  V30 2105 C 189.682 -1.36401 0.851555 0
M  V30 2106 O 190.872 -1.33561 1.11836 0
M  V30 2107 C 188.004 -2.54008 2.27361 0
M  V30 2108 H 189.197 -0.836564 2.87996 0
M  V30 2109 H 186.75 -0.39985 1.51099 0
M  V30 2110 H 187.485 -2.9312 1.38748 0
M  V30 2111 H 187.27 -2.41856 3.08623 0
M  V30 2112 H 188.76 -3.27558 2.59029 0
M  V30 2113 N 189.197 -1.51736 -0.425897 0
M  V30 2114 C 190.427 -1.68549 -1.19476 0
M  V30 2115 C 190.835 -0.387288 -1.85194 0
M  V30 2116 O 190.178 0.645142 -1.71999 0
M  V30 2117 C 190.24 -2.75275 -2.31223 0
M  V30 2118 C 189.904 -4.17534 -1.8578 0
M  V30 2119 C 190.901 -5.01936 -1.35485 0
M  V30 2120 C 188.586 -4.6369 -1.93123 0
M  V30 2121 C 190.58 -6.30559 -0.931347 0
M  V30 2122 C 188.267 -5.92307 -1.50384 0
M  V30 2123 C 189.265 -6.75569 -1.00473 0
M  V30 2124 O 188.953 -8.0178 -0.583452 0
M  V30 2125 H 188.685 -0.568525 -0.365725 0
M  V30 2126 H 191.239 -1.98982 -0.509444 0
M  V30 2127 H 189.469 -2.40182 -3.03067 0
M  V30 2128 H 191.158 -2.80853 -2.93047 0
M  V30 2129 H 191.924 -4.67475 -1.29197 0
M  V30 2130 H 187.803 -3.98997 -2.30916 0
M  V30 2131 H 191.347 -6.95498 -0.541084 0
M  V30 2132 H 187.244 -6.2628 -1.56346 0
M  V30 2133 H 188.012 -8.1543 -0.708275 0
M  V30 2134 N 190.675 0.682077 -1.42076 0
M  V30 2135 C 191.9 1.47558 -1.45744 0
M  V30 2136 C 192.325 1.87977 -0.0680981 0
M  V30 2137 O 191.683 1.55522 0.9318 0
M  V30 2138 C 191.731 2.70575 -2.38373 0
M  V30 2139 O 190.835 3.68573 -1.85007 0
M  V30 2140 H 190.176 0.443585 -0.494093 0
M  V30 2141 H 192.706 0.837238 -1.86686 0
M  V30 2142 H 192.716 3.18729 -2.54707 0
M  V30 2143 H 191.391 2.40495 -3.39315 0
M  V30 2144 H 189.968 3.2757 -1.78192 0
M  V30 2145 N 192.153 1.28127 0.917671 0
M  V30 2146 C 193.083 1.14248 2.03641 0
M  V30 2147 C 194.064 0.0412748 1.7005 0
M  V30 2148 O 195.249 0.217566 1.92977 0
M  V30 2149 C 192.379 0.799431 3.37974 0
M  V30 2150 C 191.333 1.85497 3.85713 0
M  V30 2151 C 190.659 1.36565 5.16966 0
M  V30 2152 C 191.959 3.26085 4.08002 0
M  V30 2153 H 193.653 2.07835 2.15511 0
M  V30 2154 H 191.199 1.00064 1.03553 0
M  V30 2155 H 193.152 0.689114 4.15727 0
M  V30 2156 H 191.876 -0.172145 3.26146 0
M  V30 2157 H 190.535 1.95437 3.10161 0
M  V30 2158 H 190.183 0.383253 5.01538 0
M  V30 2159 H 189.883 2.07143 5.49878 0
M  V30 2160 H 191.407 1.26848 5.97279 0
M  V30 2161 H 192.821 3.19089 4.76293 0
M  V30 2162 H 191.218 3.94462 4.52238 0
M  V30 2163 H 192.288 3.70394 3.12948 0
M  V30 2164 N 193.631 -1.12557 1.10312 0
M  V30 2165 C 194.578 -2.18247 0.750781 0
M  V30 2166 C 195.548 -1.63853 -0.272293 0
M  V30 2167 O 196.733 -1.90195 -0.151862 0
M  V30 2168 C 193.873 -3.44591 0.187379 0
M  V30 2169 C 192.986 -4.13046 1.2656 0
M  V30 2170 C 192.121 -5.27034 0.663978 0
M  V30 2171 C 191.16 -5.87353 1.72287 0
M  V30 2172 N 190.297 -6.92757 1.1416 0
M  V30 2173 H 195.137 -2.47732 1.65628 0
M  V30 2174 H 192.674 -1.21629 0.827337 0
M  V30 2175 H 194.632 -4.16904 -0.157148 0
M  V30 2176 H 193.262 -3.15527 -0.681355 0
M  V30 2177 H 192.314 -3.38924 1.72727 0
M  V30 2178 H 193.626 -4.53947 2.06721 0
M  V30 2179 H 192.78 -6.06104 0.268824 0
M  V30 2180 H 191.519 -4.87407 -0.169082 0
M  V30 2181 H 190.524 -5.06971 2.12746 0
M  V30 2182 H 191.749 -6.29051 2.55875 0
M  V30 2183 H 189.695 -6.5517 0.329984 0
M  V30 2184 H 189.612 -7.3225 1.88007 0
M  V30 2185 H 190.88 -7.75658 0.772956 0
M  V30 2186 N 195.109 -0.891671 -1.2995 0
M  V30 2187 C 196.52 -0.563104 -1.78006 0
M  V30 2188 C 196.871 0.920978 -1.73241 0
M  V30 2189 O 195.996 1.71987 -1.31337 0
M  V30 2190 C 196.591 -1.01539 -3.23226 0
M  V30 2191 C 195.15 -0.738124 -3.69092 0
M  V30 2192 C 194.297 -1.19461 -2.50249 0
M  V30 2193 H 197.248 -1.07522 -1.16725 0
M  V30 2194 H 197.269 -0.347217 -3.78912 0
M  V30 2195 H 196.781 -2.09555 -3.26662 0
M  V30 2196 H 194.882 0.329766 -3.71138 0
M  V30 2197 H 194.995 -1.33037 -4.60259 0
M  V30 2198 H 193.359 -0.613787 -2.47194 0
M  V30 2199 H 194.142 -2.28265 -2.56417 0
M  V30 2200 N 196.587 1.43421 -0.653314 0
M  V30 2201 C 197.497 2.34568 0.0388565 0
M  V30 2202 C 198.513 1.53888 0.81207 0
M  V30 2203 O 199.689 1.86539 0.759294 0
M  V30 2204 C 196.754 3.32167 0.993269 0
M  V30 2205 C 195.815 4.28751 0.216977 0
M  V30 2206 C 195.048 5.21688 1.12593 0
M  V30 2207 O 195.271 5.19052 2.36519 0
M  V30 2208 O 194.205 5.98919 0.598284 0
M  V30 2209 H 198.031 2.95251 -0.711386 0
M  V30 2210 H 195.616 1.43564 -0.413502 0
M  V30 2211 H 197.498 3.92183 1.54176 0
M  V30 2212 H 196.173 2.73987 1.72374 0
M  V30 2213 H 195.08 3.72215 -0.375101 0
M  V30 2214 H 196.413 4.89913 -0.473924 0
M  V30 2215 N 198.065 0.39524 1.52563 0
M  V30 2216 C 199.313 -0.184678 2.01254 0
M  V30 2217 C 199.634 -1.46822 1.28329 0
M  V30 2218 O 198.904 -1.91666 0.405094 0
M  V30 2219 H 197.484 -0.0712355 0.743596 0
M  V30 2220 H 200.146 0.528293 1.87603 0
M  V30 2221 H 199.242 -0.390681 3.09645 0
M  V30 2222 N 199.544 -1.57102 0.125237 0
M  V30 2223 C 200.454 -2.19191 -0.8362 0
M  V30 2224 C 201.47 -1.16985 -1.28805 0
M  V30 2225 O 202.646 -1.49479 -1.34974 0
M  V30 2226 C 199.711 -2.78407 -2.06617 0
M  V30 2227 C 198.772 -3.9567 -1.66565 0
M  V30 2228 C 198.005 -4.52052 -2.83698 0
M  V30 2229 O 198.228 -4.07326 -3.99302 0
M  V30 2230 O 197.162 -5.42645 -2.60423 0
M  V30 2231 H 200.988 -3.01816 -0.337776 0
M  V30 2232 H 198.573 -1.4906 -0.100695 0
M  V30 2233 H 200.455 -3.16129 -2.7864 0
M  V30 2234 H 199.13 -1.9881 -2.55453 0
M  V30 2235 H 198.037 -3.62705 -0.916296 0
M  V30 2236 H 199.37 -4.76722 -1.22464 0
M  V30 2237 N 201.022 0.148545 -1.56898 0
M  V30 2238 C 202.268 0.862694 -1.83536 0
M  V30 2239 C 202.601 1.80889 -0.706604 0
M  V30 2240 O 201.876 1.92328 0.289885 0
M  V30 2241 C 202.159 1.63853 -3.20662 0
M  V30 2242 C 202.012 0.713925 -4.44098 0
M  V30 2243 C 203.331 2.60133 -3.54991 0
M  V30 2244 H 200.45 0.312179 -0.667618 0
M  V30 2245 H 203.092 0.127953 -1.89569 0
M  V30 2246 H 201.242 2.26489 -3.1565 0
M  V30 2247 H 202.914 0.098686 -4.61194 0
M  V30 2248 H 201.157 0.0234019 -4.33794 0
M  V30 2249 H 201.828 1.29278 -5.36648 0
M  V30 2250 H 204.304 2.07616 -3.60603 0
M  V30 2251 H 203.18 3.11468 -4.51972 0
M  V30 2252 H 203.441 3.41417 -2.80868 0
M  V30 2253 N 202.5 1.5196 0.417844 0
M  V30 2254 C 203.74 1.67262 1.17486 0
M  V30 2255 C 204.104 0.38983 1.88001 0
M  V30 2256 O 205.305 0.418845 2.65517 0
M  V30 2257 C 203.576 2.85526 2.14965 0
M  V30 2258 S 205.135 3.21263 2.98891 0
M  V30 2259 H 201.953 0.589077 0.398132 0
M  V30 2260 H 204.555 1.89927 0.463452 0
M  V30 2261 H 203.259 3.77145 1.61833 0
M  V30 2262 H 202.79 2.65107 2.90657 0
M  V30 2263 H 204.805 2.69208 4.16823 0
M  V30 2264 N 203.978 -0.674533 1.42435 0
M  V30 2265 C 205.224 -1.43671 1.43131 0
M  V30 2266 C 205.557 -1.94142 0.0476021 0
M  V30 2267 O 204.832 -1.70924 -0.928188 0
M  V30 2268 C 205.115 -2.63355 2.45594 0
M  V30 2269 C 204.968 -2.18514 3.93156 0
M  V30 2270 C 206.287 -3.65571 2.45043 0
M  V30 2271 H 203.406 -0.521077 0.521198 0
M  V30 2272 H 206.048 -0.766551 1.7385 0
M  V30 2273 H 204.198 -3.2053 2.19528 0
M  V30 2274 H 205.87 -1.66504 4.30202 0
M  V30 2275 H 204.113 -1.50086 4.07009 0
M  V30 2276 H 204.784 -3.04484 4.60428 0
M  V30 2277 H 207.26 -3.18113 2.68223 0
M  V30 2278 H 206.136 -4.46893 3.18713 0
M  V30 2279 H 206.397 -4.16716 1.47649 0
M  V30 2280 N 205.456 -1.28612 -0.910864 0
M  V30 2281 C 206.702 -1.16106 -1.66274 0
M  V30 2282 C 207.035 0.289113 -1.92036 0
M  V30 2283 O 206.31 1.21 -1.52281 0
M  V30 2284 C 206.593 -1.96309 -3.01885 0
M  V30 2285 C 206.446 -3.49405 -2.8326 0
M  V30 2286 C 207.765 -1.78076 -4.02463 0
M  V30 2287 H 204.884 -0.423152 -0.603417 0
M  V30 2288 H 207.526 -1.57961 -1.05586 0
M  V30 2289 H 205.676 -1.60742 -3.53687 0
M  V30 2290 H 207.348 -3.94894 -2.38446 0
M  V30 2291 H 205.591 -3.74893 -2.18261 0
M  V30 2292 H 206.262 -4.00784 -3.79574 0
M  V30 2293 H 208.738 -2.0912 -3.59733 0
M  V30 2294 H 207.614 -2.36561 -4.95308 0
M  V30 2295 H 207.875 -0.733008 -4.35981 0
M  V30 2296 N 206.934 1.1197 -1.10907 0
M  V30 2297 C 208.211 1.79959 -0.766432 0
M  V30 2298 C 208.591 1.97466 0.746363 0
M  V30 2299 O 207.939 1.55491 1.67436 0
M  V30 2300 C 208.149 3.14009 -1.52314 0
M  V30 2301 C 209.497 3.89134 -1.69883 0
M  V30 2302 O 210.521 3.2368 -1.48692 0
M  V30 2303 O 209.38 5.06572 -2.05054 0
M  V30 2304 H 206.474 0.779208 -0.277062 0
M  V30 2305 H 209.02 1.18762 -1.21217 0
M  V30 2306 H 207.792 2.96587 -2.55249 0
M  V30 2307 H 207.415 3.82915 -1.07059 0
M  V30 2308 N 208.412 0.89855 1.29475 0
M  V30 2309 C 209.344 0.332726 2.26772 0
M  V30 2310 C 210.357 -0.520323 1.54261 0
M  V30 2311 O 211.546 -0.337668 1.75277 0
M  V30 2312 C 208.646 -0.544334 3.345 0
M  V30 2313 C 207.819 0.282728 4.36485 0
M  V30 2314 C 206.878 -0.526982 5.23555 0
M  V30 2315 O 205.904 0.0551165 5.69173 0
M  V30 2316 N 207.106 -1.83331 5.5079 0
M  V30 2317 H 209.871 1.16897 2.75962 0
M  V30 2318 H 207.432 0.762919 1.42798 0
M  V30 2319 H 209.424 -1.09239 3.89678 0
M  V30 2320 H 207.994 -1.28127 2.85136 0
M  V30 2321 H 207.214 1.01221 3.80983 0
M  V30 2322 H 208.502 0.84918 5.01664 0
M  V30 2323 H 207.9 -2.32898 5.15534 0
M  V30 2324 H 206.457 -2.32852 6.08788 0
M  V30 2325 N 209.89 -1.43072 0.660911 0
M  V30 2326 C 211.138 -2.01323 0.177094 0
M  V30 2327 C 211.459 -1.5245 -1.2159 0
M  V30 2328 O 210.729 -0.740322 -1.81373 0
M  V30 2329 H 209.309 -0.744382 0.0624804 0
M  V30 2330 H 211.971 -1.75179 0.854305 0
M  V30 2331 H 211.067 -3.11649 0.167641 0
M  V30 2332 N 211.368 -0.403325 -1.52352 0
M  V30 2333 C 212.616 0.174003 -2.0135 0
M  V30 2334 C 212.937 1.46139 -1.29106 0
M  V30 2335 O 212.207 1.91448 -0.415253 0
M  V30 2336 H 210.787 0.0672911 -0.743963 0
M  V30 2337 H 213.449 -0.538235 -1.87321 0
M  V30 2338 H 212.545 0.374254 -3.09848 0
M  V30 2339 N 212.846 1.57033 -0.133567 0
M  V30 2340 C 214.094 1.953 0.519848 0
M  V30 2341 C 214.415 1.01866 1.66278 0
M  V30 2342 O 213.685 0.0776513 1.95746 0
M  V30 2343 H 212.265 0.721091 0.195032 0
M  V30 2344 H 214.927 1.93809 -0.205921 0
M  V30 2345 H 214.023 2.98695 0.904854 0
M  V30 2346 N 214.325 -0.140222 1.56975 0
M  V30 2347 C 215.55 -0.870414 1.88251 0
M  V30 2348 C 215.975 -1.73637 0.723312 0
M  V30 2349 O 215.333 -1.78329 -0.32689 0
M  V30 2350 C 215.381 -1.69737 3.18154 0
M  V30 2351 O 214.485 -2.80229 3.02565 0
M  V30 2352 H 213.826 -0.242025 0.61832 0
M  V30 2353 H 216.356 -0.128999 2.04193 0
M  V30 2354 H 216.366 -2.09099 3.50345 0
M  V30 2355 H 215.041 -1.06152 4.02125 0
M  V30 2356 H 213.618 -2.44224 2.81796 0
M  V30 2357 N 215.803 -1.52179 -0.40978 0
M  V30 2358 C 217.031 -1.70054 -1.17853 0
M  V30 2359 C 217.446 -0.409735 -1.843 0
M  V30 2360 O 216.803 0.614183 -1.71855 0
M  V30 2361 C 216.854 -2.83568 -2.24213 0
M  V30 2362 O 216.575 -4.0765 -1.60478 0
M  V30 2363 C 218.076 -3.12947 -3.13973 0
M  V30 2364 H 215.296 -0.569917 -0.354169 0
M  V30 2365 H 217.84 -1.98734 -0.482198 0
M  V30 2366 H 215.995 -2.57409 -2.89516 0
M  V30 2367 H 216.409 -4.70899 -2.30986 0
M  V30 2368 H 217.883 -3.95889 -3.84677 0
M  V30 2369 H 218.36 -2.26472 -3.76307 0
M  V30 2370 H 218.966 -3.40868 -2.5434 0
M  V30 2371 N 217.281 0.66697 -1.42791 0
M  V30 2372 C 218.191 1.80962 -1.49299 0
M  V30 2373 C 219.207 1.69775 -0.381108 0
M  V30 2374 O 220.383 1.91188 -0.633188 0
M  V30 2375 C 217.448 3.17156 -1.40045 0
M  V30 2376 C 216.509 3.40242 -2.6179 0
M  V30 2377 C 215.742 4.69939 -2.52969 0
M  V30 2378 O 215.965 5.48372 -1.56985 0
M  V30 2379 O 214.899 4.94441 -3.43237 0
M  V30 2380 H 218.725 1.78427 -2.45759 0
M  V30 2381 H 216.31 0.823713 -1.24641 0
M  V30 2382 H 218.192 3.98413 -1.37276 0
M  V30 2383 H 216.867 3.20312 -0.467138 0
M  V30 2384 H 215.774 2.58802 -2.70134 0
M  V30 2385 H 217.107 3.41923 -3.54047 0
M  V30 2386 N 218.759 1.29093 0.90403 0
M  V30 2387 C 219.989 1.19516 1.68522 0
M  V30 2388 C 220.397 -0.24738 1.87576 0
M  V30 2389 O 219.74 -1.17798 1.40959 0
M  V30 2390 C 219.802 1.83249 3.0929 0
M  V30 2391 C 219.466 3.32531 3.13484 0
M  V30 2392 C 220.463 4.28821 2.93953 0
M  V30 2393 C 218.148 3.73656 3.35688 0
M  V30 2394 C 220.142 5.64212 2.96553 0
M  V30 2395 C 217.829 5.0917 3.37919 0
M  V30 2396 C 218.827 6.04258 3.18373 0
M  V30 2397 O 218.515 7.37298 3.20385 0
M  V30 2398 H 218.247 0.415467 0.533257 0
M  V30 2399 H 220.801 1.70912 1.13922 0
M  V30 2400 H 219.031 1.26358 3.65473 0
M  V30 2401 H 220.72 1.68054 3.69476 0
M  V30 2402 H 221.486 3.98382 2.76616 0
M  V30 2403 H 217.365 3.00101 3.49943 0
M  V30 2404 H 220.909 6.38407 2.81216 0
M  V30 2405 H 216.806 5.39256 3.54787 0
M  V30 2406 H 217.574 7.46048 3.36681 0
M  V30 2407 N 220.237 -1.11381 1.11499 0
M  V30 2408 C 221.483 -1.83403 0.865512 0
M  V30 2409 C 221.816 -1.84459 -0.607329 0
M  V30 2410 O 221.091 -1.29811 -1.44842 0
M  V30 2411 C 221.374 -3.30552 1.42855 0
M  V30 2412 C 221.227 -3.37886 2.96906 0
M  V30 2413 C 222.546 -4.26643 1.08 0
M  V30 2414 H 219.665 -0.665879 0.31587 0
M  V30 2415 H 222.307 -1.30601 1.37998 0
M  V30 2416 H 220.457 -3.75648 0.990985 0
M  V30 2417 H 222.129 -3.01343 3.49271 0
M  V30 2418 H 220.372 -2.78088 3.32941 0
M  V30 2419 H 221.043 -4.41458 3.31389 0
M  V30 2420 H 223.519 -3.89729 1.45775 0
M  V30 2421 H 222.395 -5.27986 1.50072 0
M  V30 2422 H 222.656 -4.42099 -0.00915037 0
M  V30 2423 N 221.715 -0.905404 -1.28997 0
M  V30 2424 C 222.962 -0.534248 -1.95325 0
M  V30 2425 C 223.29 0.920535 -1.71337 0
M  V30 2426 O 222.545 1.66861 -1.02254 0
M  V30 2427 C 222.844 -0.779906 -3.48787 0
M  V30 2428 C 222.51 -2.21293 -3.92861 0
M  V30 2429 C 221.172 -2.60475 -4.04606 0
M  V30 2430 C 223.524 -3.14587 -4.15553 0
M  V30 2431 C 220.852 -3.9212 -4.36416 0
M  V30 2432 C 223.204 -4.45787 -4.48839 0
M  V30 2433 C 221.868 -4.84834 -4.58794 0
M  V30 2434 H 221.138 -0.195495 -0.714747 0
M  V30 2435 H 223.785 -1.14514 -1.53488 0
M  V30 2436 H 222.09 -0.0861365 -3.91705 0
M  V30 2437 H 223.787 -0.472029 -3.98212 0
M  V30 2438 H 220.377 -1.89887 -3.84241 0
M  V30 2439 H 224.561 -2.85528 -4.0594 0
M  V30 2440 H 219.817 -4.22086 -4.42327 0
M  V30 2441 H 223.991 -5.18098 -4.65346 0
M  V30 2442 H 221.618 -5.86877 -4.83197 0
M  V30 2443 N 223.193 1.4272 -0.668489 0
M  V30 2444 C 224.441 2.01226 -0.187769 0
M  V30 2445 C 224.762 1.53092 1.2078 0
M  V30 2446 O 224.032 0.74993 1.80977 0
M  V30 2447 H 222.612 0.744041 -0.0664272 0
M  V30 2448 H 225.274 1.74723 -0.863583 0
M  V30 2449 H 224.37 3.11556 -0.184166 0
M  V30 2450 N 224.671 0.411399 1.52136 0
M  V30 2451 C 225.618 -0.412975 2.27075 0
M  V30 2452 C 226.588 -1.03912 1.29582 0
M  V30 2453 O 227.773 -1.06296 1.58448 0
M  V30 2454 C 224.913 -1.52247 3.09701 0
M  V30 2455 C 224.026 -0.917021 4.22155 0
M  V30 2456 C 223.161 -1.9994 4.92135 0
M  V30 2457 C 222.2 -1.37101 5.96548 0
M  V30 2458 N 221.337 -2.39364 6.60038 0
M  V30 2459 H 226.177 0.232499 2.97092 0
M  V30 2460 H 223.714 0.126496 1.46555 0
M  V30 2461 H 225.672 -2.17674 3.55913 0
M  V30 2462 H 224.302 -2.13794 2.41851 0
M  V30 2463 H 223.354 -0.151742 3.80097 0
M  V30 2464 H 224.666 -0.418006 4.97045 0
M  V30 2465 H 223.82 -2.73088 5.41763 0
M  V30 2466 H 222.559 -2.53208 4.16818 0
M  V30 2467 H 221.564 -0.624873 5.46237 0
M  V30 2468 H 222.789 -0.845998 6.7381 0
M  V30 2469 H 220.735 -2.91759 5.87548 0
M  V30 2470 H 220.652 -1.9428 7.3061 0
M  V30 2471 H 221.92 -3.12074 7.14304 0
M  V30 2472 N 226.149 -1.5696 0.141893 0
M  V30 2473 C 227.397 -1.95573 -0.509484 0
M  V30 2474 C 227.718 -1.02746 -1.65736 0
M  V30 2475 O 226.988 -0.0880311 -1.95702 0
M  V30 2476 H 225.568 -0.722115 -0.191205 0
M  V30 2477 H 228.23 -1.93697 0.216196 0
M  V30 2478 H 227.326 -2.99171 -0.889 0
M  V30 2479 N 227.627 0.131896 -1.57047 0
M  V30 2480 C 228.857 0.855219 -1.88068 0
M  V30 2481 C 229.265 1.74557 -0.729817 0
M  V30 2482 O 228.608 1.81083 0.308962 0
M  V30 2483 C 228.67 1.75119 -3.13964 0
M  V30 2484 C 228.334 1.03646 -4.45091 0
M  V30 2485 C 229.331 0.383276 -5.18485 0
M  V30 2486 C 227.016 1.02148 -4.91804 0
M  V30 2487 C 229.01 -0.275347 -6.36805 0
M  V30 2488 C 226.697 0.359047 -6.10044 0
M  V30 2489 C 227.695 -0.288222 -6.82392 0
M  V30 2490 O 227.383 -0.94011 -7.98384 0
M  V30 2491 H 227.115 0.251864 -0.627328 0
M  V30 2492 H 229.669 0.124782 -2.05021 0
M  V30 2493 H 227.899 2.52295 -2.9306 0
M  V30 2494 H 229.588 2.3478 -3.31109 0
M  V30 2495 H 230.354 0.386562 -4.83457 0
M  V30 2496 H 226.233 1.5147 -4.35405 0
M  V30 2497 H 229.777 -0.781148 -6.93213 0
M  V30 2498 H 225.674 0.35348 -6.44531 0
M  V30 2499 H 226.442 -0.84329 -8.14144 0
M  V30 2500 N 229.106 1.52395 0.401703 0
M  V30 2501 C 230.053 1.76268 1.48991 0
M  V30 2502 C 231.023 0.605386 1.54675 0
M  V30 2503 O 232.208 0.843742 1.7113 0
M  V30 2504 C 229.348 1.92592 2.86361 0
M  V30 2505 C 228.461 3.20259 2.89928 0
M  V30 2506 C 227.596 3.26972 4.18644 0
M  V30 2507 C 226.635 4.48812 4.16214 0
M  V30 2508 N 225.772 4.52877 5.36514 0
M  V30 2509 H 230.612 2.6914 1.27935 0
M  V30 2510 H 228.149 1.33355 0.620871 0
M  V30 2511 H 230.107 2.0004 3.66115 0
M  V30 2512 H 228.737 1.03093 3.05895 0
M  V30 2513 H 227.789 3.21945 2.02621 0
M  V30 2514 H 229.101 4.10056 2.83999 0
M  V30 2515 H 228.255 3.33533 5.06794 0
M  V30 2516 H 226.994 2.35126 4.27278 0
M  V30 2517 H 225.999 4.4239 3.26453 0
M  V30 2518 H 227.224 5.41961 4.09213 0
M  V30 2519 H 225.17 3.63917 5.45802 0
M  V30 2520 H 225.087 5.36529 5.32609 0
M  V30 2521 H 226.355 4.63676 6.26597 0
M  V30 2522 N 230.584 -0.659388 1.43143 0
M  V30 2523 C 231.83 -1.42145 1.44647 0
M  V30 2524 C 232.163 -1.9408 0.0681907 0
M  V30 2525 O 231.438 -1.71899 -0.910007 0
M  V30 2526 C 231.721 -2.60735 2.48373 0
M  V30 2527 C 231.574 -2.14332 3.95451 0
M  V30 2528 C 232.893 -3.62951 2.48906 0
M  V30 2529 H 230.012 -0.51552 0.526696 0
M  V30 2530 H 232.654 -0.748069 1.74654 0
M  V30 2531 H 230.804 -3.18184 2.22916 0
M  V30 2532 H 232.476 -1.61932 4.31944 0
M  V30 2533 H 230.719 -1.4576 4.08578 0
M  V30 2534 H 231.39 -2.99583 4.63631 0
M  V30 2535 H 233.866 -3.1525 2.71582 0
M  V30 2536 H 232.742 -4.43487 3.23435 0
M  V30 2537 H 233.003 -4.15126 1.52061 0
M  V30 2538 N 232.062 -1.29571 -0.897171 0
M  V30 2539 C 233.478 -1.07637 -1.17841 0
M  V30 2540 C 233.678 0.170713 -2.00776 0
M  V30 2541 O 232.734 0.867768 -2.3712 0
M  V30 2542 C 234.047 -2.3332 -1.8969 0
M  V30 2543 C 235.595 -2.38664 -2.02505 0
M  V30 2544 C 236.07 -3.64157 -2.77765 0
M  V30 2545 N 237.561 -3.64894 -2.85318 0
M  V30 2546 C 238.296 -4.58679 -3.44094 0
M  V30 2547 N 237.792 -5.62799 -4.04017 0
M  V30 2548 N 239.585 -4.46245 -3.41793 0
M  V30 2549 H 231.736 -2.09598 -0.343883 0
M  V30 2550 H 233.999 -0.923333 -0.214848 0
M  V30 2551 H 233.705 -3.24262 -1.36187 0
M  V30 2552 H 233.579 -2.41025 -2.9015 0
M  V30 2553 H 235.966 -1.48208 -2.55183 0
M  V30 2554 H 236.047 -2.34943 -1.01171 0
M  V30 2555 H 235.691 -4.54965 -2.25763 0
M  V30 2556 H 235.621 -3.65137 -3.7945 0
M  V30 2557 H 238.112 -2.89613 -2.42761 0
M  V30 2558 H 238.425 -6.3048 -4.46895 0
M  V30 2559 H 236.77 -5.66605 -4.02472 0
M  V30 2560 H 239.961 -3.64094 -2.94199 0
M  V30 2561 H 240.134 -5.19518 -3.87304 0
M  V30 2562 N 233.54 1.10788 -1.12088 0
M  V30 2563 C 234.45 2.20599 -0.798338 0
M  V30 2564 C 235.466 1.72712 0.21135 0
M  V30 2565 O 236.642 2.01348 0.0458477 0
M  V30 2566 C 233.707 3.45771 -0.253674 0
M  V30 2567 C 232.768 4.08411 -1.32283 0
M  V30 2568 C 232.001 5.27608 -0.80406 0
M  V30 2569 O 232.224 5.69241 0.363478 0
M  V30 2570 O 231.158 5.8101 -1.57198 0
M  V30 2571 H 234.984 2.50614 -1.7154 0
M  V30 2572 H 232.569 1.19454 -0.897275 0
M  V30 2573 H 234.451 4.21376 0.0453691 0
M  V30 2574 H 233.126 3.1739 0.636005 0
M  V30 2575 H 232.033 3.34507 -1.67499 0
M  V30 2576 H 233.366 4.40986 -2.18614 0
M  V30 2577 N 235.018 0.912232 1.28515 0
M  V30 2578 C 236.264 0.545405 1.95328 0
M  V30 2579 C 236.597 -0.908313 1.71649 0
M  V30 2580 O 235.872 -1.64575 1.03659 0
M  V30 2581 C 236.155 0.853483 3.4984 0
M  V30 2582 C 236.008 2.35982 3.82926 0
M  V30 2583 C 237.327 0.348589 4.38717 0
M  V30 2584 H 234.446 0.199626 0.709449 0
M  V30 2585 H 237.088 1.1412 1.5191 0
M  V30 2586 H 235.238 0.34643 3.86952 0
M  V30 2587 H 236.91 2.93738 3.55691 0
M  V30 2588 H 235.153 2.81543 3.30024 0
M  V30 2589 H 235.824 2.52593 4.90816 0
M  V30 2590 H 238.3 0.78294 4.08668 0
M  V30 2591 H 237.176 0.593242 5.45685 0
M  V30 2592 H 237.437 -0.751049 4.35674 0
M  V30 2593 N 236.496 -1.42363 0.676048 0
M  V30 2594 C 237.745 -2.00745 0.196037 0
M  V30 2595 C 238.058 -1.54083 -1.20489 0
M  V30 2596 O 239.264 -2.04891 -1.78134 0
M  V30 2597 C 237.72 -3.58651 0.299616 0
M  V30 2598 C 237.328 -4.143 1.70468 0
M  V30 2599 C 239.072 -4.24326 -0.121619 0
M  V30 2600 C 236.979 -5.64574 1.76096 0
M  V30 2601 H 235.909 -0.750787 0.0695301 0
M  V30 2602 H 238.56 -1.63072 0.841412 0
M  V30 2603 H 236.942 -3.93833 -0.413673 0
M  V30 2604 H 238.116 -3.90575 2.44515 0
M  V30 2605 H 236.431 -3.61081 2.07387 0
M  V30 2606 H 239.028 -5.34607 -0.0997362 0
M  V30 2607 H 239.371 -3.99897 -1.15708 0
M  V30 2608 H 239.904 -3.94108 0.540706 0
M  V30 2609 H 236.643 -5.93804 2.77628 0
M  V30 2610 H 236.163 -5.90286 1.06406 0
M  V30 2611 H 237.842 -6.29013 1.51496 0
M  V30 2612 N 237.974 -0.419461 -1.51915 0
M  V30 2613 C 239.199 0.154572 -2.06823 0
M  V30 2614 C 239.624 1.3722 -1.28656 0
M  V30 2615 O 238.982 1.78461 -0.319583 0
M  V30 2616 C 239.03 0.473172 -3.57482 0
M  V30 2617 O 238.134 1.56255 -3.81652 0
M  V30 2618 H 237.475 0.0096924 -0.663929 0
M  V30 2619 H 240.005 -0.595642 -1.95738 0
M  V30 2620 H 240.015 0.728825 -4.01438 0
M  V30 2621 H 238.69 -0.416873 -4.13805 0
M  V30 2622 H 237.267 1.29825 -3.49571 0
M  V30 2623 N 239.452 1.56882 -0.150215 0
M  V30 2624 C 240.382 2.19935 0.784284 0
M  V30 2625 C 241.363 1.14854 1.25469 0
M  V30 2626 O 242.548 1.43209 1.31168 0
M  V30 2627 C 239.678 2.82349 2.02229 0
M  V30 2628 C 238.632 3.93285 1.68853 0
M  V30 2629 C 237.958 4.42649 2.99944 0
M  V30 2630 C 239.258 5.13904 0.932714 0
M  V30 2631 H 240.952 2.9828 0.258781 0
M  V30 2632 H 238.498 1.43473 0.123029 0
M  V30 2633 H 240.451 3.25126 2.68088 0
M  V30 2634 H 239.175 2.0134 2.57157 0
M  V30 2635 H 237.834 3.5113 1.05371 0
M  V30 2636 H 237.482 3.58458 3.52869 0
M  V30 2637 H 237.182 5.17476 2.78374 0
M  V30 2638 H 238.706 4.88099 3.66868 0
M  V30 2639 H 240.12 5.53506 1.49345 0
M  V30 2640 H 238.517 5.94515 0.81684 0
M  V30 2641 H 239.587 4.84842 -0.0749568 0
M  V30 2642 N 240.93 -0.123565 1.57115 0
M  V30 2643 C 242.341 -0.681198 1.73829 0
M  V30 2644 C 242.692 -1.80535 0.768214 0
M  V30 2645 O 241.817 -2.16317 -0.0599103 0
M  V30 2646 C 242.412 -1.24246 3.15196 0
M  V30 2647 C 240.971 -1.74643 3.33432 0
M  V30 2648 C 240.118 -0.644284 2.69711 0
M  V30 2649 H 243.069 0.102315 1.5837 0
M  V30 2650 H 243.09 -2.11216 3.16493 0
M  V30 2651 H 242.602 -0.424062 3.85776 0
M  V30 2652 H 240.703 -2.58974 2.67886 0
M  V30 2653 H 240.816 -1.85902 4.41562 0
M  V30 2654 H 239.18 -1.07676 2.3082 0
M  V30 2655 H 239.963 0.163058 3.42913 0
M  V30 2656 N 242.408 -1.52605 -0.393616 0
M  V30 2657 C 243.657 -1.66649 -1.13627 0
M  V30 2658 C 243.97 -0.410364 -1.91247 0
M  V30 2659 O 245.176 -0.430854 -2.68059 0
M  V30 2660 C 243.632 -2.9449 -2.06891 0
M  V30 2661 C 243.24 -4.27266 -1.34714 0
M  V30 2662 C 244.984 -3.17899 -2.81319 0
M  V30 2663 C 242.891 -5.46217 -2.26717 0
M  V30 2664 H 241.821 -0.62084 -0.427871 0
M  V30 2665 H 244.472 -1.791 -0.399428 0
M  V30 2666 H 242.854 -2.75774 -2.84191 0
M  V30 2667 H 244.028 -4.56518 -0.626714 0
M  V30 2668 H 242.343 -4.10081 -0.722643 0
M  V30 2669 H 244.94 -4.03949 -3.50328 0
M  V30 2670 H 245.283 -2.32777 -3.45139 0
M  V30 2671 H 245.816 -3.37159 -2.11113 0
M  V30 2672 H 242.555 -6.33733 -1.67521 0
M  V30 2673 H 242.075 -5.21283 -2.96689 0
M  V30 2674 H 243.754 -5.7991 -2.86903 0
M  V30 2675 N 243.887 0.651787 -1.4349 0
M  V30 2676 C 245.135 1.40888 -1.44897 0
M  V30 2677 C 245.456 1.94856 -0.0749086 0
M  V30 2678 O 244.726 1.74518 0.889956 0
M  V30 2679 H 243.306 0.522887 -0.533478 0
M  V30 2680 H 245.968 0.768609 -1.79104 0
M  V30 2681 H 245.064 2.25052 -2.16236 0
M  V30 2682 N 245.365 1.30045 0.890287 0
M  V30 2683 C 246.614 1.17929 1.63633 0
M  V30 2684 C 246.927 -0.266204 1.9378 0
M  V30 2685 O 248.133 -0.508804 2.6669 0
M  V30 2686 C 246.589 2.06317 2.94892 0
M  V30 2687 C 246.197 3.55745 2.72305 0
M  V30 2688 C 247.941 2.0295 3.72843 0
M  V30 2689 C 245.848 4.36205 3.99348 0
M  V30 2690 H 244.778 0.437782 0.613892 0
M  V30 2691 H 247.429 1.54754 0.986075 0
M  V30 2692 H 245.811 1.6237 3.61182 0
M  V30 2693 H 246.985 4.07805 2.1455 0
M  V30 2694 H 245.3 3.6088 2.07737 0
M  V30 2695 H 247.897 2.60319 4.67053 0
M  V30 2696 H 248.24 1.0117 4.0382 0
M  V30 2697 H 248.773 2.4499 3.13408 0
M  V30 2698 H 245.512 5.38659 3.73533 0
M  V30 2699 H 245.032 3.8891 4.56628 0
M  V30 2700 H 246.711 4.47362 4.67415 0
M  V30 2701 N 246.843 -1.10192 1.12674 0
M  V30 2702 C 248.089 -1.82475 0.884915 0
M  V30 2703 C 248.422 -1.85093 -0.58773 0
M  V30 2704 O 247.697 -1.3134 -1.43457 0
M  V30 2705 C 247.98 -3.29018 1.46353 0
M  V30 2706 C 247.833 -3.34718 3.00473 0
M  V30 2707 C 249.152 -4.25473 1.12519 0
M  V30 2708 H 246.271 -0.662492 0.322915 0
M  V30 2709 H 248.913 -1.2913 1.39375 0
M  V30 2710 H 247.063 -3.74576 1.03077 0
M  V30 2711 H 248.735 -2.97622 3.52447 0
M  V30 2712 H 246.978 -2.74541 3.35872 0
M  V30 2713 H 247.649 -4.37918 3.36053 0
M  V30 2714 H 250.125 -3.88161 1.499 0
M  V30 2715 H 249.001 -5.26365 1.55663 0
M  V30 2716 H 249.262 -4.42084 0.0377407 0
M  V30 2717 N 248.321 -0.919034 -1.28029 0
M  V30 2718 C 249.269 -0.401753 -2.29104 0
M  V30 2719 C 250.263 0.509354 -1.61561 0
M  V30 2720 O 251.469 0.390014 -1.75724 0
M  V30 2721 H 247.844 -0.111331 -0.743713 0
M  V30 2722 H 249.815 -1.2672 -2.70156 0
M  V30 2723 C 248.564 0.338148 -3.46052 0
M  V30 2724 H 247.887 -0.353732 -3.98232 0
M  V30 2725 H 249.327 0.664653 -4.18758 0
M  V30 2726 C 247.786 1.54798 -2.99231 0
M  V30 2727 O 248.316 2.64696 -3.02157 0
M  V30 2728 N 246.522 1.3968 -2.54829 0
M  V30 2729 H 246.069 0.502698 -2.52647 0
M  V30 2730 H 246.027 2.20755 -2.23863 0
M  V30 2731 N 249.799 1.42003 -0.683588 0
M  V30 2732 C 250.729 2.33487 -0.024866 0
M  V30 2733 C 251.71 1.51163 0.779975 0
M  V30 2734 O 252.895 1.79739 0.735362 0
M  V30 2735 C 250.025 3.3487 0.920836 0
M  V30 2736 C 248.979 4.27414 0.223958 0
M  V30 2737 C 248.305 5.19074 1.2832 0
M  V30 2738 C 249.605 5.14445 -0.90242 0
M  V30 2739 H 251.299 2.88819 -0.788921 0
M  V30 2740 H 248.845 1.38873 -0.38083 0
M  V30 2741 H 250.798 3.97787 1.39081 0
M  V30 2742 H 249.522 2.77861 1.71642 0
M  V30 2743 H 248.181 3.65904 -0.225864 0
M  V30 2744 H 247.829 4.58387 2.071 0
M  V30 2745 H 247.529 5.81822 0.821995 0
M  V30 2746 H 249.053 5.84867 1.75392 0
M  V30 2747 H 250.467 5.70998 -0.513272 0
M  V30 2748 H 248.864 5.86072 -1.28997 0
M  V30 2749 H 249.934 4.52322 -1.74737 0
M  V30 2750 N 251.277 0.427512 1.51691 0
M  V30 2751 C 252.505 -0.141191 2.06418 0
M  V30 2752 C 252.92 -1.37303 1.29589 0
M  V30 2753 O 252.277 -1.79059 0.352732 0
M  V30 2754 C 252.328 -0.473266 3.58389 0
M  V30 2755 O 252.049 0.709673 4.32314 0
M  V30 2756 C 253.55 -1.09371 4.29596 0
M  V30 2757 H 250.77 -0.0122747 0.670888 0
M  V30 2758 H 253.314 0.603764 1.95384 0
M  V30 2759 H 251.469 -1.16812 3.69369 0
M  V30 2760 H 251.883 0.42807 5.2275 0
M  V30 2761 H 253.357 -1.27613 5.37046 0
M  V30 2762 H 253.834 -2.072 3.87253 0
M  V30 2763 H 254.44 -0.43853 4.23033 0
M  V30 2764 N 252.755 -1.56801 0.158532 0
M  V30 2765 C 253.665 -2.20916 -0.789518 0
M  V30 2766 C 254.681 -1.1969 -1.26294 0
M  V30 2767 O 255.857 -1.52308 -1.31773 0
M  V30 2768 C 252.922 -2.82727 -2.00665 0
M  V30 2769 C 251.983 -3.99114 -1.58134 0
M  V30 2770 C 251.216 -4.57968 -2.74045 0
M  V30 2771 O 251.439 -4.15704 -3.90572 0
M  V30 2772 O 250.373 -5.48047 -2.48855 0
M  V30 2773 H 254.199 -3.02464 -0.273681 0
M  V30 2774 H 251.784 -1.4924 -0.0690548 0
M  V30 2775 H 253.666 -3.21968 -2.71872 0
M  V30 2776 H 252.341 -2.04184 -2.51179 0
M  V30 2777 H 251.248 -3.64567 -0.839155 0
M  V30 2778 H 252.581 -4.79212 -1.12325 0
M  V30 2779 N 254.233 0.115231 -1.57178 0
M  V30 2780 C 255.461 0.836437 -1.89239 0
M  V30 2781 C 255.876 1.73256 -0.750175 0
M  V30 2782 O 255.233 1.80357 0.278832 0
M  V30 2783 C 255.284 1.66671 -3.20785 0
M  V30 2784 O 255.005 0.806652 -4.3061 0
M  V30 2785 C 256.506 2.49274 -3.66575 0
M  V30 2786 H 253.726 0.240253 -0.626514 0
M  V30 2787 H 256.27 0.0984932 -2.04263 0
M  V30 2788 H 254.425 2.35737 -3.0742 0
M  V30 2789 H 254.839 1.37969 -5.06028 0
M  V30 2790 H 256.313 3.03055 -4.6137 0
M  V30 2791 H 256.79 3.26807 -2.93417 0
M  V30 2792 H 257.396 1.85443 -3.82741 0
M  V30 2793 N 255.711 1.52812 0.385517 0
M  V30 2794 C 256.958 1.68026 1.1302 0
M  V30 2795 C 257.286 0.421934 1.89868 0
M  V30 2796 O 256.541 -0.595749 1.86412 0
M  V30 2797 C 256.84 2.86856 2.13187 0
M  V30 2798 C 256.506 4.24159 1.5297 0
M  V30 2799 C 255.168 4.61501 1.36274 0
M  V30 2800 C 257.52 5.09627 1.09223 0
M  V30 2801 C 254.848 5.81966 0.743837 0
M  V30 2802 C 257.2 6.30719 0.487411 0
M  V30 2803 C 255.864 6.6679 0.307777 0
M  V30 2804 H 255.134 0.614849 0.413571 0
M  V30 2805 H 257.781 1.86962 0.414405 0
M  V30 2806 H 256.086 2.6235 2.90998 0
M  V30 2807 H 257.783 2.95821 2.70722 0
M  V30 2808 H 254.373 3.94746 1.66954 0
M  V30 2809 H 258.557 4.81343 1.20922 0
M  V30 2810 H 253.813 6.08519 0.592891 0
M  V30 2811 H 257.987 6.96259 0.140143 0
M  V30 2812 H 255.614 7.60001 -0.173879 0
M  V30 2813 N 257.189 -0.644168 1.43834 0
M  V30 2814 C 258.436 -1.40395 1.4593 0
M  V30 2815 C 258.764 -1.94305 0.0869658 0
M  V30 2816 O 258.019 -1.73288 -0.909378 0
M  V30 2817 C 258.318 -2.59615 2.45631 0
M  V30 2818 C 257.984 -2.2407 3.91284 0
M  V30 2819 C 256.646 -2.14089 4.30952 0
M  V30 2820 C 258.998 -1.95775 4.83034 0
M  V30 2821 C 256.326 -1.73981 5.6031 0
M  V30 2822 C 258.678 -1.57163 6.12766 0
M  V30 2823 C 257.342 -1.45713 6.51402 0
M  V30 2824 H 256.612 -0.513741 0.533995 0
M  V30 2825 H 259.259 -0.731724 1.76969 0
M  V30 2826 H 257.564 -3.32011 2.08028 0
M  V30 2827 H 259.261 -3.17834 2.44504 0
M  V30 2828 H 255.851 -2.32753 3.59895 0
M  V30 2829 H 260.035 -2.02403 4.53152 0
M  V30 2830 H 255.291 -1.63709 5.89075 0
M  V30 2831 H 259.465 -1.34303 6.83327 0
M  V30 2832 H 257.092 -1.14406 7.51542 0
M  V30 2833 N 258.668 -1.30515 -0.883378 0
M  V30 2834 C 259.615 -1.17032 -1.98927 0
M  V30 2835 C 260.585 -0.0594241 -1.65994 0
M  V30 2836 O 261.77 -0.229895 -1.8941 0
M  V30 2837 C 258.91 -0.869777 -3.33959 0
M  V30 2838 C 258.023 -2.06271 -3.79574 0
M  V30 2839 C 257.158 -1.70011 -5.03259 0
M  V30 2840 C 256.197 -2.8579 -5.41286 0
M  V30 2841 N 255.334 -2.49816 -6.56153 0
M  V30 2842 H 260.174 -2.1164 -2.09792 0
M  V30 2843 H 257.711 -1.05296 -1.02719 0
M  V30 2844 H 259.669 -0.676138 -4.11685 0
M  V30 2845 H 258.299 0.0394332 -3.22776 0
M  V30 2846 H 257.351 -2.36755 -2.97744 0
M  V30 2847 H 258.663 -2.92971 -4.03694 0
M  V30 2848 H 257.817 -1.47032 -5.88614 0
M  V30 2849 H 256.556 -0.804829 -4.81013 0
M  V30 2850 H 255.561 -3.09434 -4.54456 0
M  V30 2851 H 256.786 -3.76008 -5.65504 0
M  V30 2852 H 254.732 -1.62795 -6.35479 0
M  V30 2853 H 254.649 -3.30048 -6.8015 0
M  V30 2854 H 255.917 -2.30197 -7.44735 0
M  V30 2855 N 260.146 1.09593 -1.13257 0
M  V30 2856 C 261.078 2.16015 -0.766167 0
M  V30 2857 C 262.091 1.61423 0.211303 0
M  V30 2858 O 263.28 1.78498 -0.00863946 0
M  V30 2859 C 260.38 3.38706 -0.114662 0
M  V30 2860 C 259.553 4.22717 -1.12379 0
M  V30 2861 C 258.612 5.23835 -0.498301 0
M  V30 2862 O 257.638 5.573 -1.15781 0
M  V30 2863 N 258.84 5.75886 0.730417 0
M  V30 2864 H 261.605 2.48055 -1.68193 0
M  V30 2865 H 259.166 1.25292 -1.02535 0
M  V30 2866 H 261.158 4.03464 0.315991 0
M  V30 2867 H 259.728 3.04569 0.704011 0
M  V30 2868 H 258.948 3.54122 -1.73179 0
M  V30 2869 H 260.236 4.75673 -1.80589 0
M  V30 2870 H 259.634 5.50911 1.28504 0
M  V30 2871 H 258.191 6.42387 1.10376 0
M  V30 2872 N 261.624 0.925811 1.2754 0
M  V30 2873 C 262.901 0.483726 1.89524 0
M  V30 2874 C 263.281 -1.03809 1.83812 0
M  V30 2875 O 262.629 -1.89143 1.28207 0
M  V30 2876 C 262.839 1.02769 3.33526 0
M  V30 2877 C 264.187 1.08703 4.10449 0
M  V30 2878 O 265.211 0.977175 3.42534 0
M  V30 2879 O 264.07 1.25599 5.31871 0
M  V30 2880 H 261.164 0.15529 0.812289 0
M  V30 2881 H 263.71 1.01738 1.35822 0
M  V30 2882 H 262.482 2.07155 3.31967 0
M  V30 2883 H 262.105 0.475567 3.94746 0
M  V30 2884 N 263.102 -1.41638 0.69111 0
M  V30 2885 C 264.513 -1.84346 0.295517 0
M  V30 2886 C 264.864 -1.57833 -1.16547 0
M  V30 2887 O 263.989 -1.04648 -1.89414 0
M  V30 2888 C 264.584 -3.34636 0.529575 0
M  V30 2889 C 263.143 -3.7593 0.187944 0
M  V30 2890 C 262.29 -2.65082 0.814052 0
M  V30 2891 H 265.241 -1.31253 0.892092 0
M  V30 2892 H 265.262 -3.79903 -0.213148 0
M  V30 2893 H 264.774 -3.53901 1.59297 0
M  V30 2894 H 262.875 -3.62268 -0.871367 0
M  V30 2895 H 262.988 -4.74808 0.63985 0
M  V30 2896 H 261.352 -2.53528 0.244017 0
M  V30 2897 H 262.135 -2.87167 1.88123 0
M  V30 2898 N 264.58 -0.43555 -1.51462 0
M  V30 2899 C 265.991 0.0279871 -1.86679 0
M  V30 2900 C 266.342 1.42104 -1.35281 0
M  V30 2901 O 265.467 2.04667 -0.702878 0
M  V30 2902 C 266.062 0.0575626 -3.38751 0
M  V30 2903 C 264.621 0.465507 -3.7351 0
M  V30 2904 C 263.768 -0.342996 -2.75171 0
M  V30 2905 H 266.719 -0.651473 -1.44712 0
M  V30 2906 H 266.74 0.867421 -3.70481 0
M  V30 2907 H 266.252 -0.956448 -3.7613 0
M  V30 2908 H 264.353 1.48519 -3.41721 0
M  V30 2909 H 264.466 0.191546 -4.78717 0
M  V30 2910 H 262.83 0.198442 -2.53926 0
M  V30 2911 H 263.613 -1.35585 -3.15391 0
M  V30 2912 N 266.058 1.56714 -0.166846 0
M  V30 2913 C 267.286 2.0112 0.485644 0
M  V30 2914 C 267.701 1.04705 1.57106 0
M  V30 2915 O 267.058 0.0471923 1.82439 0
M  V30 2916 C 267.109 3.45361 1.06808 0
M  V30 2917 O 266.83 4.38092 0.0259995 0
M  V30 2918 C 268.331 4.05145 1.79924 0
M  V30 2919 H 265.551 0.65931 0.124704 0
M  V30 2920 H 268.095 2.02746 -0.267262 0
M  V30 2921 H 266.25 3.44524 1.7715 0
M  V30 2922 H 266.664 5.22519 0.455398 0
M  V30 2923 H 268.138 5.08009 2.15942 0
M  V30 2924 H 268.615 3.46982 2.69258 0
M  V30 2925 H 269.221 4.09672 1.14234 0
M  V30 2926 N 267.536 -0.106894 1.57237 0
M  V30 2927 C 268.446 -1.14911 2.0453 0
M  V30 2928 C 269.462 -1.44592 0.96795 0
M  V30 2929 O 270.638 -1.55468 1.2803 0
M  V30 2930 C 267.703 -2.45272 2.45036 0
M  V30 2931 C 266.764 -2.22879 3.66911 0
M  V30 2932 C 265.997 -3.47024 4.05475 0
M  V30 2933 O 266.22 -4.54804 3.44252 0
M  V30 2934 O 265.154 -3.3731 4.98504 0
M  V30 2935 H 268.98 -0.777461 2.9358 0
M  V30 2936 H 266.565 -0.318563 1.45964 0
M  V30 2937 H 268.447 -3.22055 2.71769 0
M  V30 2938 H 267.122 -2.81886 1.59129 0
M  V30 2939 H 266.029 -1.43915 3.45311 0
M  V30 2940 H 267.362 -1.91163 4.53561 0
M  V30 2941 N 269.014 -1.53014 -0.377408 0
M  V30 2942 C 269.924 -1.81557 -1.48574 0
M  V30 2943 C 270.94 -0.703102 -1.59162 0
M  V30 2944 O 272.116 -0.99192 -1.75279 0
M  V30 2945 C 269.181 -1.9889 -2.83978 0
M  V30 2946 C 268.242 -3.22801 -2.83016 0
M  V30 2947 C 267.475 -3.39298 -4.11962 0
M  V30 2948 O 267.698 -2.60345 -5.0752 0
M  V30 2949 O 266.632 -4.32604 -4.18494 0
M  V30 2950 H 270.458 -2.75695 -1.27382 0
M  V30 2951 H 268.043 -1.38248 -0.566373 0
M  V30 2952 H 269.925 -2.11931 -3.6423 0
M  V30 2953 H 268.6 -1.07942 -3.05172 0
M  V30 2954 H 267.507 -3.15193 -2.01505 0
M  V30 2955 H 268.84 -4.13632 -2.66775 0
M  V30 2956 N 270.492 0.636531 -1.44174 0
M  V30 2957 C 271.402 1.77754 -1.53103 0
M  V30 2958 C 272.418 1.68928 -0.417034 0
M  V30 2959 O 273.594 1.89801 -0.6736 0
M  V30 2960 C 270.659 3.14115 -1.46741 0
M  V30 2961 C 269.72 3.34612 -2.68948 0
M  V30 2962 C 268.953 4.64467 -2.6288 0
M  V30 2963 O 269.176 5.44919 -1.68581 0
M  V30 2964 O 268.11 4.87049 -3.53648 0
M  V30 2965 H 271.936 1.73174 -2.49489 0
M  V30 2966 H 269.521 0.79709 -1.2636 0
M  V30 2967 H 271.403 3.95412 -1.45696 0
M  V30 2968 H 270.078 3.19249 -0.534975 0
M  V30 2969 H 268.985 2.53014 -2.75562 0
M  V30 2970 H 270.318 3.34336 -3.61221 0
M  V30 2971 N 271.97 1.30982 0.876444 0
M  V30 2972 C 273.216 1.20474 1.63138 0
M  V30 2973 C 273.549 -0.238096 1.92735 0
M  V30 2974 O 272.824 -1.1692 1.55435 0
M  V30 2975 C 273.107 2.04244 2.96574 0
M  V30 2976 C 272.96 3.56793 2.73896 0
M  V30 2977 C 274.279 1.88684 3.97601 0
M  V30 2978 H 271.398 0.439001 0.591985 0
M  V30 2979 H 274.04 1.60704 1.01361 0
M  V30 2980 H 272.19 1.70063 3.493 0
M  V30 2981 H 273.862 4.01077 2.27892 0
M  V30 2982 H 272.105 3.80548 2.08245 0
M  V30 2983 H 272.776 4.10706 3.68815 0
M  V30 2984 H 275.252 2.18584 3.54062 0
M  V30 2985 H 274.128 2.4961 4.88862 0
M  V30 2986 H 274.389 0.848343 4.33884 0
M  V30 2987 N 273.449 -1.08991 1.13837 0
M  V30 2988 C 274.396 -2.15748 0.819835 0
M  V30 2989 C 275.366 -1.64636 -0.220026 0
M  V30 2990 O 276.551 -1.90582 -0.0912757 0
M  V30 2991 C 273.691 -3.4382 0.296913 0
M  V30 2992 C 272.804 -4.0881 1.39636 0
M  V30 2993 C 271.939 -5.24655 0.831314 0
M  V30 2994 C 270.978 -5.81575 1.90886 0
M  V30 2995 N 270.115 -6.88774 1.36142 0
M  V30 2996 H 274.955 -2.42338 1.73426 0
M  V30 2997 H 272.492 -1.18935 0.865613 0
M  V30 2998 H 274.45 -4.17193 -0.0244339 0
M  V30 2999 H 273.08 -3.17535 -0.580628 0
M  V30 3000 H 272.132 -3.33258 1.83422 0
M  V30 3001 H 273.444 -4.47141 2.21058 0
M  V30 3002 H 272.598 -6.04942 0.461515 0
M  V30 3003 H 271.337 -4.87698 -0.013932 0
M  V30 3004 H 270.342 -4.99946 2.28767 0
M  V30 3005 H 271.567 -6.20592 2.75758 0
M  V30 3006 H 269.513 -6.53788 0.538254 0
M  V30 3007 H 269.43 -7.25898 2.11208 0
M  V30 3008 H 270.698 -7.72806 1.01933 0
M  V30 3009 N 274.927 -0.932562 -1.27047 0
M  V30 3010 C 276.343 -0.633544 -1.46487 0
M  V30 3011 C 276.543 0.815746 -1.84249 0
M  V30 3012 O 275.599 1.59319 -1.95892 0
M  V30 3013 C 276.912 -1.58758 -2.55375 0
M  V30 3014 C 278.46 -1.59634 -2.69232 0
M  V30 3015 C 278.935 -2.53747 -3.81283 0
M  V30 3016 N 280.426 -2.51982 -3.88664 0
M  V30 3017 C 281.161 -3.21491 -4.74796 0
M  V30 3018 N 280.657 -4.00395 -5.65381 0
M  V30 3019 N 282.45 -3.10485 -4.68568 0
M  V30 3020 H 274.601 -1.86946 -1.00821 0
M  V30 3021 H 276.864 -0.802897 -0.504044 0
M  V30 3022 H 276.57 -2.62172 -2.34432 0
M  V30 3023 H 276.444 -1.33301 -3.52861 0
M  V30 3024 H 278.831 -0.569488 -2.89553 0
M  V30 3025 H 278.912 -1.89142 -1.72218 0
M  V30 3026 H 278.556 -3.56545 -3.61715 0
M  V30 3027 H 278.486 -2.21532 -4.77735 0
M  V30 3028 H 280.977 -1.94681 -3.23895 0
M  V30 3029 H 281.29 -4.50406 -6.27976 0
M  V30 3030 H 279.635 -4.04498 -5.65161 0
M  V30 3031 H 282.826 -2.48331 -3.96799 0
M  V30 3032 H 282.999 -3.64925 -5.35475 0
M  V30 3033 N 276.405 1.4127 -0.698611 0
M  V30 3034 C 277.652 2.0118 -0.230865 0
M  V30 3035 C 277.98 1.55338 1.17049 0
M  V30 3036 O 277.235 0.756775 1.80475 0
M  V30 3037 C 277.534 3.56592 -0.240192 0
M  V30 3038 C 277.2 4.21955 -1.58948 0
M  V30 3039 C 275.862 4.39524 -1.95887 0
M  V30 3040 C 278.214 4.58576 -2.47704 0
M  V30 3041 C 275.542 4.90992 -3.2116 0
M  V30 3042 C 277.894 5.11435 -3.72313 0
M  V30 3043 C 276.558 5.27215 -4.0939 0
M  V30 3044 H 275.828 0.736169 -0.0844796 0
M  V30 3045 H 278.475 1.69124 -0.8983 0
M  V30 3046 H 276.78 3.88456 0.510797 0
M  V30 3047 H 278.477 4.00758 0.139296 0
M  V30 3048 H 275.067 4.08657 -1.29219 0
M  V30 3049 H 279.251 4.44654 -2.20445 0
M  V30 3050 H 274.507 5.01393 -3.49878 0
M  V30 3051 H 278.681 5.38752 -4.4127 0
M  V30 3052 H 276.308 5.66859 -5.06533 0
M  V30 3053 N 277.883 0.443576 1.51229 0
M  V30 3054 C 279.13 -0.120796 2.02139 0
M  V30 3055 C 279.458 -1.42166 1.32736 0
M  V30 3056 O 278.713 -1.90849 0.43301 0
M  V30 3057 C 279.012 -0.380579 3.55368 0
M  V30 3058 C 278.678 0.83523 4.43097 0
M  V30 3059 C 277.34 1.16864 4.66794 0
M  V30 3060 C 279.692 1.64601 4.94526 0
M  V30 3061 C 277.02 2.31339 5.39165 0
M  V30 3062 C 279.372 2.78181 5.68153 0
M  V30 3063 C 278.036 3.11969 5.90112 0
M  V30 3064 H 277.306 -0.0442023 0.73968 0
M  V30 3065 H 279.953 0.592046 1.82118 0
M  V30 3066 H 278.258 -1.17538 3.73754 0
M  V30 3067 H 279.955 -0.830777 3.923 0
M  V30 3068 H 276.545 0.565437 4.24854 0
M  V30 3069 H 280.729 1.40163 4.76097 0
M  V30 3070 H 275.985 2.57823 5.5438 0
M  V30 3071 H 280.159 3.41371 6.06992 0
M  V30 3072 H 277.786 4.00784 6.45969 0
M  V30 3073 N 279.361 -1.56624 0.175154 0
M  V30 3074 C 280.271 -2.21741 -0.766042 0
M  V30 3075 C 281.287 -1.21023 -1.25018 0
M  V30 3076 O 282.463 -1.53697 -1.3015 0
M  V30 3077 C 279.528 -2.84839 -1.97655 0
M  V30 3078 C 278.589 -4.00769 -1.53892 0
M  V30 3079 C 277.822 -4.60849 -2.69173 0
M  V30 3080 O 278.045 -4.19823 -3.86141 0
M  V30 3081 O 276.979 -5.50655 -2.43028 0
M  V30 3082 H 280.805 -3.02738 -0.241585 0
M  V30 3083 H 278.39 -1.49305 -0.053222 0
M  V30 3084 H 280.272 -3.24834 -2.68442 0
M  V30 3085 H 278.947 -2.06836 -2.48999 0
M  V30 3086 H 277.854 -3.65436 -0.80044 0
M  V30 3087 H 279.187 -4.80376 -1.07236 0
M  V30 3088 N 280.839 0.0985539 -1.57292 0
M  V30 3089 C 282.086 0.802678 -1.85912 0
M  V30 3090 C 282.414 1.78901 -0.763186 0
M  V30 3091 O 281.669 1.94178 0.243559 0
M  V30 3092 C 281.968 1.56927 -3.21105 0
M  V30 3093 C 281.634 0.725376 -4.45027 0
M  V30 3094 C 280.296 0.492726 -4.78671 0
M  V30 3095 C 282.648 0.138493 -5.21016 0
M  V30 3096 C 279.976 -0.336727 -5.85733 0
M  V30 3097 C 282.328 -0.678264 -6.28953 0
M  V30 3098 C 280.992 -0.921039 -6.61115 0
M  V30 3099 H 280.262 0.293721 -0.680301 0
M  V30 3100 H 282.909 0.0642841 -1.91392 0
M  V30 3101 H 281.214 2.37914 -3.11294 0
M  V30 3102 H 282.911 2.11841 -3.40477 0
M  V30 3103 H 279.501 0.916815 -4.18679 0
M  V30 3104 H 283.685 0.305404 -4.95359 0
M  V30 3105 H 278.941 -0.533836 -6.09065 0
M  V30 3106 H 283.115 -1.1399 -6.87007 0
M  V30 3107 H 280.742 -1.56556 -7.43905 0
M  V30 3108 N 282.317 1.53212 0.369288 0
M  V30 3109 C 283.247 1.82365 1.45826 0
M  V30 3110 C 284.228 0.676907 1.56051 0
M  V30 3111 O 285.413 0.926401 1.70679 0
M  V30 3112 C 282.543 2.01023 2.83208 0
M  V30 3113 C 281.497 3.1678 2.8781 0
M  V30 3114 C 280.823 3.20724 4.27832 0
M  V30 3115 C 282.123 4.55447 2.55667 0
M  V30 3116 H 283.817 2.73559 1.21678 0
M  V30 3117 H 281.363 1.3163 0.583911 0
M  V30 3118 H 283.316 2.20001 3.59413 0
M  V30 3119 H 282.04 1.06536 3.08736 0
M  V30 3120 H 280.699 2.97616 2.14056 0
M  V30 3121 H 280.347 2.23882 4.50429 0
M  V30 3122 H 280.047 3.98496 4.31827 0
M  V30 3123 H 281.571 3.41881 5.05915 0
M  V30 3124 H 282.985 4.74611 3.21586 0
M  V30 3125 H 281.382 5.35432 2.70984 0
M  V30 3126 H 282.452 4.60812 1.5093 0
M  V30 3127 N 283.795 -0.628877 1.44509 0
M  V30 3128 C 284.705 -1.7694 1.54044 0
M  V30 3129 C 285.721 -1.68705 0.425987 0
M  V30 3130 O 286.897 -1.89442 0.683656 0
M  V30 3131 C 283.962 -3.13332 1.48405 0
M  V30 3132 C 283.023 -3.33181 2.70719 0
M  V30 3133 C 282.256 -4.63067 2.6534 0
M  V30 3134 O 282.479 -5.44017 1.71469 0
M  V30 3135 O 281.413 -4.85167 3.56226 0
M  V30 3136 H 285.239 -1.71848 2.50403 0
M  V30 3137 H 282.824 -0.790378 1.26781 0
M  V30 3138 H 284.706 -3.94634 1.47791 0
M  V30 3139 H 283.381 -3.1896 0.551898 0
M  V30 3140 H 282.288 -2.51549 2.769 0
M  V30 3141 H 283.621 -3.32416 3.62988 0
M  V30 3142 N 285.273 -1.31445 -0.869486 0
M  V30 3143 C 286.22 -1.19135 -1.97675 0
M  V30 3144 C 287.19 -0.0770266 -1.65921 0
M  V30 3145 O 288.375 -0.249972 -1.89155 0
M  V30 3146 C 285.515 -0.905149 -3.33018 0
M  V30 3147 C 284.628 -2.10285 -3.77365 0
M  V30 3148 C 283.763 -1.75339 -5.01427 0
M  V30 3149 C 282.802 -2.91515 -5.38224 0
M  V30 3150 N 281.939 -2.56762 -6.53466 0
M  V30 3151 H 286.779 -2.13853 -2.07535 0
M  V30 3152 H 284.316 -1.06379 -1.01597 0
M  V30 3153 H 286.274 -0.719765 -4.10944 0
M  V30 3154 H 284.904 0.00519624 -3.228 0
M  V30 3155 H 283.956 -2.39899 -2.95216 0
M  V30 3156 H 285.268 -2.97237 -4.00564 0
M  V30 3157 H 284.422 -1.53266 -5.87022 0
M  V30 3158 H 283.161 -0.855801 -4.80133 0
M  V30 3159 H 282.166 -3.14237 -4.51149 0
M  V30 3160 H 283.391 -3.81985 -5.61484 0
M  V30 3161 H 281.337 -1.69526 -6.33717 0
M  V30 3162 H 281.254 -3.37243 -6.76612 0
M  V30 3163 H 282.522 -2.38083 -7.42251 0
M  V30 3164 N 286.751 1.08385 -1.14413 0
M  V30 3165 C 287.661 2.18856 -0.844951 0
M  V30 3166 C 288.677 1.73121 0.174668 0
M  V30 3167 O 289.853 2.014 0.00312857 0
M  V30 3168 C 286.918 3.45155 -0.32696 0
M  V30 3169 C 285.979 4.05513 -1.40916 0
M  V30 3170 C 285.212 5.25784 -0.915793 0
M  V30 3171 O 285.435 5.69884 0.242651 0
M  V30 3172 O 284.369 5.77545 -1.69487 0
M  V30 3173 H 288.195 2.46919 -1.76818 0
M  V30 3174 H 285.78 1.17524 -0.922411 0
M  V30 3175 H 287.662 4.21377 -0.0440211 0
M  V30 3176 H 286.337 3.18668 0.568539 0
M  V30 3177 H 285.244 3.30879 -1.74556 0
M  V30 3178 H 286.577 4.3625 -2.27919 0
M  V30 3179 N 288.23 0.939286 1.26551 0
M  V30 3180 C 289.16 0.465044 2.28822 0
M  V30 3181 C 290.141 -0.480692 1.63167 0
M  V30 3182 O 291.326 -0.382955 1.90387 0
M  V30 3183 C 288.456 -0.27234 3.46231 0
M  V30 3184 C 287.41 0.58666 4.2396 0
M  V30 3185 C 286.736 -0.280573 5.33963 0
M  V30 3186 C 288.036 1.85704 4.88171 0
M  V30 3187 H 289.73 1.31979 2.68741 0
M  V30 3188 H 287.276 0.636061 1.29191 0
M  V30 3189 H 289.229 -0.615133 4.16886 0
M  V30 3190 H 287.953 -1.16121 3.0526 0
M  V30 3191 H 286.612 0.91232 3.55067 0
M  V30 3192 H 286.26 -1.16874 4.89234 0
M  V30 3193 H 285.96 0.29076 5.8688 0
M  V30 3194 H 287.484 -0.618678 6.07458 0
M  V30 3195 H 288.898 1.58161 5.51052 0
M  V30 3196 H 287.295 2.37279 5.51197 0
M  V30 3197 H 288.365 2.56957 4.11219 0
M  V30 3198 N 289.708 -1.40897 0.706093 0
M  V30 3199 C 290.933 -2.05895 0.249435 0
M  V30 3200 C 291.358 -1.52823 -1.09666 0
M  V30 3201 O 290.716 -0.659589 -1.68876 0
M  V30 3202 C 290.764 -3.59872 0.22904 0
M  V30 3203 O 289.868 -4.04708 -0.792784 0
M  V30 3204 H 289.209 -0.653206 0.119241 0
M  V30 3205 H 291.739 -1.80471 0.96391 0
M  V30 3206 H 291.749 -4.07951 0.0634791 0
M  V30 3207 H 290.424 -3.97866 1.21141 0
M  V30 3208 H 289.001 -3.68111 -0.59572 0
M  V30 3209 N 291.186 -0.45159 -1.50991 0
M  V30 3210 C 292.133 0.352625 -2.2809 0
M  V30 3211 C 293.103 1.0044 -1.32291 0
M  V30 3212 O 294.288 1.02058 -1.6121 0
M  V30 3213 C 291.428 1.43983 -3.13629 0
M  V30 3214 C 290.541 0.804772 -4.24438 0
M  V30 3215 C 289.676 1.86822 -4.97263 0
M  V30 3216 C 288.715 1.21236 -5.99973 0
M  V30 3217 N 287.852 2.2178 -6.66152 0
M  V30 3218 H 292.692 -0.311186 -2.96371 0
M  V30 3219 H 290.229 -0.165308 -1.46168 0
M  V30 3220 H 292.187 2.08161 -3.61559 0
M  V30 3221 H 290.817 2.07307 -2.47434 0
M  V30 3222 H 289.869 0.0509129 -3.80366 0
M  V30 3223 H 291.181 0.286076 -4.97979 0
M  V30 3224 H 290.335 2.58628 -5.48813 0
M  V30 3225 H 289.074 2.42068 -4.23385 0
M  V30 3226 H 288.079 0.479828 -5.47702 0
M  V30 3227 H 289.304 0.667051 -6.75816 0
M  V30 3228 H 287.25 2.76079 -5.95077 0
M  V30 3229 H 287.167 1.74841 -7.35504 0
M  V30 3230 H 288.435 2.93026 -7.22327 0
M  V30 3231 N 292.664 1.56529 -0.183458 0
M  V30 3232 C 293.91 1.97537 0.459036 0
M  V30 3233 C 294.243 1.06989 1.62071 0
M  V30 3234 O 293.518 0.11948 1.94133 0
M  V30 3235 C 293.801 3.47874 0.930368 0
M  V30 3236 C 293.654 4.492 -0.232317 0
M  V30 3237 C 294.973 4.01612 1.79989 0
M  V30 3238 H 292.092 0.718204 0.165383 0
M  V30 3239 H 294.734 1.88042 -0.272038 0
M  V30 3240 H 292.884 3.56095 1.55333 0
M  V30 3241 H 294.556 4.53027 -0.86972 0
M  V30 3242 H 292.799 4.24657 -0.885928 0
M  V30 3243 H 293.47 5.51823 0.139796 0
M  V30 3244 H 295.946 3.96097 1.27461 0
M  V30 3245 H 294.822 5.07195 2.09867 0
M  V30 3246 H 295.083 3.46163 2.74998 0
M  V30 3247 N 294.142 -0.090211 1.57342 0
M  V30 3248 C 295.089 -1.10909 2.02405 0
M  V30 3249 C 296.059 -1.39523 0.901252 0
M  V30 3250 O 297.244 -1.50903 1.1676 0
M  V30 3251 C 294.384 -2.42277 2.45755 0
M  V30 3252 C 293.497 -2.20352 3.71576 0
M  V30 3253 C 292.632 -3.45154 4.03785 0
M  V30 3254 C 291.671 -3.18512 5.22701 0
M  V30 3255 N 290.808 -4.35593 5.50639 0
M  V30 3256 H 295.648 -0.71782 2.89225 0
M  V30 3257 H 293.185 -0.342901 1.43048 0
M  V30 3258 H 295.143 -3.18951 2.68935 0
M  V30 3259 H 293.773 -2.79242 1.61938 0
M  V30 3260 H 292.825 -1.34458 3.55844 0
M  V30 3261 H 294.137 -1.96661 4.58395 0
M  V30 3262 H 293.291 -4.30233 4.27767 0
M  V30 3263 H 292.03 -3.71904 3.15498 0
M  V30 3264 H 291.035 -2.31827 4.98534 0
M  V30 3265 H 292.26 -2.93103 6.12591 0
M  V30 3266 H 290.206 -4.6241 4.6531 0
M  V30 3267 H 290.123 -4.1511 6.31838 0
M  V30 3268 H 291.391 -5.21723 5.7916 0
M  V30 3269 N 295.62 -1.53406 -0.361157 0
M  V30 3270 C 296.567 -1.80156 -1.44265 0
M  V30 3271 C 297.537 -0.646183 -1.53015 0
M  V30 3272 O 298.722 -0.888818 -1.68833 0
M  V30 3273 C 295.862 -2.00116 -2.81154 0
M  V30 3274 C 294.975 -3.27833 -2.81335 0
M  V30 3275 C 294.11 -3.37957 -4.09828 0
M  V30 3276 C 293.149 -4.59689 -4.04168 0
M  V30 3277 N 292.286 -4.66942 -5.24318 0
M  V30 3278 H 297.126 -2.72438 -1.20754 0
M  V30 3279 H 294.663 -1.34954 -0.585296 0
M  V30 3280 H 296.621 -2.09677 -3.60682 0
M  V30 3281 H 295.251 -1.11167 -3.03054 0
M  V30 3282 H 294.303 -3.27204 -1.94014 0
M  V30 3283 H 295.615 -4.17442 -2.73027 0
M  V30 3284 H 294.769 -3.46853 -4.97773 0
M  V30 3285 H 293.508 -2.46372 -4.20894 0
M  V30 3286 H 292.513 -4.50889 -3.14609 0
M  V30 3287 H 293.738 -5.5262 -3.947 0
M  V30 3288 H 291.684 -3.7826 -5.35962 0
M  V30 3289 H 291.601 -5.50462 -5.18197 0
M  V30 3290 H 292.869 -4.80127 -6.14084 0
M  V30 3291 N 297.098 0.621204 -1.44841 0
M  V30 3292 C 298.509 1.20298 -1.42777 0
M  V30 3293 C 298.86 1.95639 -0.148259 0
M  V30 3294 O 297.985 2.02955 0.750892 0
M  V30 3295 C 298.58 2.1882 -2.58657 0
M  V30 3296 C 297.139 2.72403 -2.59756 0
M  V30 3297 C 296.286 1.4757 -2.34773 0
M  V30 3298 H 299.237 0.411297 -1.53278 0
M  V30 3299 H 299.258 3.01607 -2.31977 0
M  V30 3300 H 298.77 1.63957 -3.51766 0
M  V30 3301 H 296.871 3.31242 -1.70615 0
M  V30 3302 H 296.984 3.17765 -3.58556 0
M  V30 3303 H 295.348 1.76051 -1.8406 0
M  V30 3304 H 296.131 0.945954 -3.3001 0
M  V30 3305 N 298.576 1.31904 0.862503 0
M  V30 3306 C 299.822 1.22197 1.61851 0
M  V30 3307 C 300.155 -0.217641 1.92977 0
M  V30 3308 O 299.43 -1.15264 1.56666 0
M  V30 3309 C 299.713 2.07378 2.94391 0
M  V30 3310 C 299.566 3.59678 2.70096 0
M  V30 3311 C 300.885 1.92891 3.95577 0
M  V30 3312 H 298.004 0.445255 0.587296 0
M  V30 3313 H 300.646 1.6177 0.99651 0
M  V30 3314 H 298.796 1.73758 3.47477 0
M  V30 3315 H 300.468 4.03472 2.23625 0
M  V30 3316 H 298.711 3.82735 2.04197 0
M  V30 3317 H 299.382 4.14595 3.64438 0
M  V30 3318 H 301.858 2.22327 3.51724 0
M  V30 3319 H 300.734 2.54781 4.86187 0
M  V30 3320 H 300.995 0.894315 4.3296 0
M  V30 3321 N 300.054 -1.07777 1.14986 0
M  V30 3322 C 301.331 -1.7699 0.832695 0
M  V30 3323 C 301.711 -2.001 -0.672561 0
M  V30 3324 O 301.059 -1.61598 -1.6155 0
M  V30 3325 C 301.269 -3.08139 1.63863 0
M  V30 3326 C 302.617 -3.8256 1.84208 0
M  V30 3327 O 303.641 -3.17939 1.60603 0
M  V30 3328 O 302.5 -4.98612 2.23714 0
M  V30 3329 H 299.594 -0.768389 0.305791 0
M  V30 3330 H 302.14 -1.14182 1.25541 0
M  V30 3331 H 300.912 -2.86909 2.6608 0
M  V30 3332 H 300.535 -3.78678 1.21197 0
M  V30 3333 N 301.532 -0.945985 -1.26051 0
M  V30 3334 C 302.76 -0.613025 -1.9761 0
M  V30 3335 C 303.175 0.813035 -1.70397 0
M  V30 3336 O 302.532 1.54274 -0.974979 0
M  V30 3337 C 302.583 -0.85159 -3.51326 0
M  V30 3338 O 302.304 -2.22157 -3.77595 0
M  V30 3339 C 303.805 -0.529831 -4.40122 0
M  V30 3340 H 301.025 -0.230593 -0.630133 0
M  V30 3341 H 303.569 -1.268 -1.60443 0
M  V30 3342 H 301.724 -0.243151 -3.86636 0
M  V30 3343 H 302.138 -2.2852 -4.721 0
M  V30 3344 H 303.612 -0.747348 -5.46917 0
M  V30 3345 H 304.089 0.535341 -4.35925 0
M  V30 3346 H 304.695 -1.11721 -4.10364 0
M  V30 3347 N 303.011 1.40521 -0.713556 0
M  V30 3348 C 304.26 2.00155 -0.249192 0
M  V30 3349 C 304.573 1.57224 1.16362 0
M  V30 3350 O 305.779 2.09542 1.72639 0
M  V30 3351 C 304.235 3.5773 -0.3946 0
M  V30 3352 C 303.843 4.09635 -1.81392 0
M  V30 3353 C 305.587 4.24499 0.00907364 0
M  V30 3354 C 303.494 5.59707 -1.91003 0
M  V30 3355 H 302.424 0.74868 -0.0894114 0
M  V30 3356 H 305.075 1.60784 -0.884352 0
M  V30 3357 H 303.457 3.94792 0.30911 0
M  V30 3358 H 304.631 3.83955 -2.54785 0
M  V30 3359 H 302.946 3.55456 -2.16888 0
M  V30 3360 H 305.543 5.34683 -0.0420404 0
M  V30 3361 H 305.886 4.02824 1.05065 0
M  V30 3362 H 306.419 3.92536 -0.645007 0
M  V30 3363 H 303.158 5.86234 -2.93275 0
M  V30 3364 H 302.678 5.87258 -1.22019 0
M  V30 3365 H 304.357 6.24776 -1.6812 0
M  V30 3366 N 304.489 0.459591 1.5075 0
M  V30 3367 C 305.735 -0.0994966 2.02556 0
M  V30 3368 C 306.068 -1.40399 1.3417 0
M  V30 3369 O 305.343 -1.88892 0.463683 0
M  V30 3370 C 305.626 -0.295242 3.58888 0
M  V30 3371 C 305.479 1.02947 4.37861 0
M  V30 3372 C 306.798 -1.05502 4.27267 0
M  V30 3373 H 303.917 -0.034686 0.736183 0
M  V30 3374 H 306.559 0.602938 1.8018 0
M  V30 3375 H 304.709 -0.893563 3.78084 0
M  V30 3376 H 306.381 1.66348 4.30263 0
M  V30 3377 H 304.624 1.62885 4.02058 0
M  V30 3378 H 305.295 0.846281 5.45474 0
M  V30 3379 H 307.771 -0.547993 4.12476 0
M  V30 3380 H 306.647 -1.16077 5.36486 0
M  V30 3381 H 306.908 -2.08875 3.89645 0
M  V30 3382 N 305.967 -1.56429 0.191757 0
M  V30 3383 C 307.215 -1.97095 -0.447006 0
M  V30 3384 C 307.536 -1.07967 -1.62383 0
M  V30 3385 O 306.806 -0.150248 -1.95323 0
M  V30 3386 H 305.386 -0.727832 -0.168135 0
M  V30 3387 H 308.048 -1.92911 0.27771 0
M  V30 3388 H 307.144 -3.01848 -0.793371 0
M  V30 3389 N 307.445 0.0818655 -1.57387 0
M  V30 3390 C 308.375 1.09885 -2.06028 0
M  V30 3391 C 309.356 1.4098 -0.951774 0
M  V30 3392 O 310.541 1.50781 -1.22387 0
M  V30 3393 C 307.671 2.4151 -2.4958 0
M  V30 3394 C 306.625 2.24792 -3.64215 0
M  V30 3395 C 305.951 3.61712 -3.93787 0
M  V30 3396 C 307.251 1.67749 -4.94629 0
M  V30 3397 H 308.945 0.694128 -2.91243 0
M  V30 3398 H 306.491 0.332448 -1.4011 0
M  V30 3399 H 308.444 3.12939 -2.82219 0
M  V30 3400 H 307.168 2.83943 -1.61381 0
M  V30 3401 H 305.827 1.55807 -3.31843 0
M  V30 3402 H 305.475 4.01697 -3.02735 0
M  V30 3403 H 305.175 3.51368 -4.70971 0
M  V30 3404 H 306.699 4.34587 -4.28913 0
M  V30 3405 H 308.113 2.29032 -5.25564 0
M  V30 3406 H 306.51 1.68128 -5.76067 0
M  V30 3407 H 307.58 0.638059 -4.80684 0
M  V30 3408 N 308.923 1.53595 0.353017 0
M  V30 3409 C 310.171 1.70049 1.09215 0
M  V30 3410 C 310.492 0.461406 1.89463 0
M  V30 3411 O 309.762 -0.524633 1.88744 0
M  V30 3412 H 308.342 0.626912 0.40619 0
M  V30 3413 H 311.004 1.90822 0.396585 0
M  V30 3414 H 310.1 2.56718 1.77488 0
M  V30 3415 N 310.401 -0.613514 1.45168 0
M  V30 3416 C 311.649 -1.36997 1.48581 0
M  V30 3417 C 311.97 -1.94589 0.126545 0
M  V30 3418 O 311.24 -1.76816 -0.843372 0
M  V30 3419 H 309.82 -0.508558 0.547154 0
M  V30 3420 H 312.482 -0.720853 1.81079 0
M  V30 3421 H 311.578 -2.1924 2.22127 0
M  V30 3422 N 311.879 -1.3236 -0.855495 0
M  V30 3423 C 313.107 -1.2587 -1.64208 0
M  V30 3424 C 313.522 0.173457 -1.88002 0
M  V30 3425 O 312.879 1.11027 -1.44842 0
M  V30 3426 C 312.93 -2.01424 -3.00184 0
M  V30 3427 O 312.651 -3.39051 -2.77445 0
M  V30 3428 C 314.152 -2.01948 -3.94629 0
M  V30 3429 H 311.372 -0.434318 -0.511477 0
M  V30 3430 H 313.916 -1.74469 -1.0668 0
M  V30 3431 H 312.071 -1.56549 -3.5436 0
M  V30 3432 H 312.485 -3.77711 -3.63916 0
M  V30 3433 H 313.959 -2.59297 -4.87308 0
M  V30 3434 H 314.436 -1.00554 -4.27534 0
M  V30 3435 H 315.042 -2.46767 -3.4639 0
M  V30 3436 N 313.357 1.07166 -1.15556 0
M  V30 3437 C 314.606 1.79181 -0.926132 0
M  V30 3438 C 314.919 1.87768 0.547967 0
M  V30 3439 O 316.125 2.56323 0.895036 0
M  V30 3440 C 314.581 3.22 -1.60761 0
M  V30 3441 C 314.189 3.21607 -3.11886 0
M  V30 3442 C 315.933 3.9861 -1.4598 0
M  V30 3443 C 313.84 4.59092 -3.72812 0
M  V30 3444 H 312.77 0.67154 -0.342856 0
M  V30 3445 H 315.421 1.2027 -1.3859 0
M  V30 3446 H 313.803 3.81115 -1.07553 0
M  V30 3447 H 314.977 2.72127 -3.71865 0
M  V30 3448 H 313.292 2.58495 -3.2645 0
M  V30 3449 H 315.889 5.00225 -1.88888 0
M  V30 3450 H 316.232 4.143 -0.407541 0
M  V30 3451 H 316.765 3.45996 -1.96295 0
M  V30 3452 H 313.504 4.48606 -4.77946 0
M  V30 3453 H 313.024 5.08803 -3.17616 0
M  V30 3454 H 314.703 5.28059 -3.73848 0
M  V30 3455 N 314.835 0.952656 1.25548 0
M  V30 3456 C 316.063 0.623496 1.97282 0
M  V30 3457 C 316.478 -0.803987 1.70826 0
M  V30 3458 O 315.835 -1.53755 0.983147 0
M  V30 3459 C 315.886 0.870209 3.5087 0
M  V30 3460 O 315.607 2.24156 3.76412 0
M  V30 3461 C 317.108 0.553164 4.39835 0
M  V30 3462 H 314.328 0.233931 0.628902 0
M  V30 3463 H 316.872 1.27649 1.59768 0
M  V30 3464 H 315.027 0.263652 3.86502 0
M  V30 3465 H 315.441 2.31021 4.70882 0
M  V30 3466 H 316.915 0.776342 5.46513 0
M  V30 3467 H 317.392 -0.512215 4.36203 0
M  V30 3468 H 317.998 1.13896 4.09766 0
M  V30 3469 N 316.313 -1.40141 0.720998 0
M  V30 3470 C 317.541 -2.05096 0.272656 0
M  V30 3471 C 317.956 -1.54334 -1.0875 0
M  V30 3472 O 317.313 -0.702211 -1.6845 0
M  V30 3473 C 317.364 -3.60636 0.249835 0
M  V30 3474 O 317.085 -4.09526 1.55629 0
M  V30 3475 C 318.586 -4.42772 -0.216396 0
M  V30 3476 H 315.806 -0.659897 0.121558 0
M  V30 3477 H 318.35 -1.79449 0.980723 0
M  V30 3478 H 316.505 -3.85232 -0.409237 0
M  V30 3479 H 316.919 -5.03758 1.4604 0
M  V30 3480 H 318.393 -5.51702 -0.181212 0
M  V30 3481 H 318.87 -4.20756 -1.25941 0
M  V30 3482 H 319.476 -4.23294 0.412596 0
M  V30 3483 N 317.792 -0.46758 -1.50504 0
M  V30 3484 C 318.722 0.318381 -2.31319 0
M  V30 3485 C 319.703 0.993564 -1.38066 0
M  V30 3486 O 320.888 0.991411 -1.66987 0
M  V30 3487 C 318.018 1.40275 -3.17711 0
M  V30 3488 C 316.972 0.849373 -4.19487 0
M  V30 3489 C 316.298 2.03177 -4.94594 0
M  V30 3490 C 317.598 -0.136942 -5.2212 0
M  V30 3491 H 319.292 -0.356106 -2.97275 0
M  V30 3492 H 316.838 -0.172703 -1.42961 0
M  V30 3493 H 318.791 1.96004 -3.73042 0
M  V30 3494 H 317.515 2.10596 -2.49634 0
M  V30 3495 H 316.174 0.314076 -3.65252 0
M  V30 3496 H 315.822 2.72187 -4.22993 0
M  V30 3497 H 315.522 1.66774 -5.63436 0
M  V30 3498 H 317.046 2.59403 -5.52759 0
M  V30 3499 H 318.46 0.331056 -5.72343 0
M  V30 3500 H 316.857 -0.41507 -5.98663 0
M  V30 3501 H 317.927 -1.06398 -4.73083 0
M  V30 3502 N 319.27 1.56325 -0.20005 0
M  V30 3503 C 320.233 2.18084 0.705132 0
M  V30 3504 C 321.233 1.13666 1.1374 0
M  V30 3505 O 322.423 1.39023 1.04968 0
M  V30 3506 C 319.555 2.78689 1.96329 0
M  V30 3507 H 320.748 2.99435 0.167023 0
M  V30 3508 H 318.301 1.56221 0.0495725 0
M  V30 3509 H 319.036 2.0115 2.5438 0
M  V30 3510 H 318.821 3.55133 1.66202 0
M  V30 3511 H 320.311 3.26096 2.60866 0
M  V30 3512 N 320.748 -0.0735177 1.57428 0
M  V30 3513 C 321.711 -1.07192 2.02589 0
M  V30 3514 C 322.711 -1.31695 0.922661 0
M  V30 3515 O 323.901 -1.27445 1.18758 0
M  V30 3516 C 321.033 -2.41599 2.40506 0
M  V30 3517 H 322.226 -0.682727 2.92025 0
M  V30 3518 H 319.779 -0.319193 1.53006 0
M  V30 3519 H 320.514 -2.85354 1.5409 0
M  V30 3520 H 320.299 -2.25156 3.21009 0
M  V30 3521 H 321.789 -3.13367 2.76027 0
M  V30 3522 N 322.226 -1.5378 -0.344866 0
M  V30 3523 C 323.156 -1.84662 -1.42906 0
M  V30 3524 C 324.137 -0.701648 -1.54955 0
M  V30 3525 O 325.322 -0.953438 -1.69184 0
M  V30 3526 C 322.452 -2.05503 -2.79974 0
M  V30 3527 C 321.406 -3.21318 -2.82734 0
M  V30 3528 C 320.732 -3.2749 -4.22675 0
M  V30 3529 C 322.032 -4.59456 -2.48389 0
M  V30 3530 H 323.726 -2.75461 -1.17311 0
M  V30 3531 H 321.272 -1.32542 -0.562896 0
M  V30 3532 H 323.225 -2.25691 -3.55867 0
M  V30 3533 H 321.949 -1.11434 -3.07002 0
M  V30 3534 H 320.608 -3.00984 -2.09294 0
M  V30 3535 H 320.256 -2.31019 -4.4681 0
M  V30 3536 H 319.956 -4.05316 -4.25433 0
M  V30 3537 H 321.48 -3.49887 -5.00412 0
M  V30 3538 H 322.894 -4.79667 -3.13995 0
M  V30 3539 H 321.291 -5.39675 -2.62432 0
M  V30 3540 H 322.361 -4.63155 -1.4358 0
M  V30 3541 N 323.704 0.605807 -1.45491 0
M  V30 3542 C 324.614 1.74466 -1.56839 0
M  V30 3543 C 325.63 1.68006 -0.452772 0
M  V30 3544 O 326.806 1.8833 -0.713708 0
M  V30 3545 C 323.871 3.10931 -1.53371 0
M  V30 3546 C 322.932 3.28832 -2.75986 0
M  V30 3547 C 322.165 4.58787 -2.72673 0
M  V30 3548 O 322.388 5.4122 -1.80102 0
M  V30 3549 O 321.322 4.79438 -3.63899 0
M  V30 3550 H 325.148 1.67843 -2.53106 0
M  V30 3551 H 322.733 0.770108 -1.28022 0
M  V30 3552 H 324.615 3.92233 -1.54051 0
M  V30 3553 H 323.29 3.18042 -0.602572 0
M  V30 3554 H 322.197 2.47112 -2.80867 0
M  V30 3555 H 323.53 3.26599 -3.68231 0
M  V30 3556 N 325.182 1.32811 0.848464 0
M  V30 3557 C 326.412 1.26556 1.63301 0
M  V30 3558 C 326.82 -0.1676 1.88456 0
M  V30 3559 O 326.163 -1.11713 1.45828 0
M  V30 3560 C 326.225 1.96202 3.01239 0
M  V30 3561 C 325.889 3.45528 2.99098 0
M  V30 3562 C 326.886 4.40903 2.75501 0
M  V30 3563 C 324.571 3.87558 3.19537 0
M  V30 3564 C 326.565 5.76282 2.72356 0
M  V30 3565 C 324.252 5.23044 3.16019 0
M  V30 3566 C 325.25 6.17217 2.92458 0
M  V30 3567 O 324.938 7.50223 2.88825 0
M  V30 3568 H 324.67 0.43771 0.515156 0
M  V30 3569 H 327.224 1.7559 1.0657 0
M  V30 3570 H 325.454 1.41746 3.59785 0
M  V30 3571 H 327.143 1.83573 3.62016 0
M  V30 3572 H 327.909 4.09756 2.5947 0
M  V30 3573 H 323.788 3.14674 3.369 0
M  V30 3574 H 327.332 6.4976 2.53886 0
M  V30 3575 H 323.229 5.53818 3.31596 0
M  V30 3576 H 323.997 7.59657 3.04735 0
M  V30 3577 N 326.66 -1.06551 1.16123 0
M  V30 3578 C 327.608 -2.16063 0.861371 0
M  V30 3579 C 328.602 -1.6856 -0.168517 0
M  V30 3580 O 329.808 -1.79986 -0.0227579 0
M  V30 3581 H 326.183 -0.705278 0.260934 0
M  V30 3582 H 328.154 -2.38567 1.79244 0
M  V30 3583 C 326.903 -3.45661 0.376018 0
M  V30 3584 H 326.226 -3.82604 1.15992 0
M  V30 3585 H 327.666 -4.23504 0.204951 0
M  V30 3586 C 326.125 -3.24546 -0.903954 0
M  V30 3587 O 326.655 -3.49865 -1.97377 0
M  V30 3588 N 324.861 -2.77992 -0.846679 0
M  V30 3589 H 324.408 -2.57589 0.0241017 0
M  V30 3590 H 324.366 -2.64244 -1.70359 0
M  V30 3591 N 328.138 -0.959301 -1.25041 0
M  V30 3592 C 329.384 -0.617525 -1.9317 0
M  V30 3593 C 329.717 0.843981 -1.74902 0
M  V30 3594 O 328.992 1.60615 -1.09696 0
M  V30 3595 C 329.275 -0.982736 -3.46431 0
M  V30 3596 C 329.128 -2.50032 -3.73904 0
M  V30 3597 C 330.447 -0.511176 -4.37121 0
M  V30 3598 H 327.566 -0.22582 -0.701552 0
M  V30 3599 H 330.208 -1.19679 -1.4757 0
M  V30 3600 H 328.358 -0.489806 -3.854 0
M  V30 3601 H 330.03 -3.06737 -3.44544 0
M  V30 3602 H 328.273 -2.93598 -3.19348 0
M  V30 3603 H 328.944 -2.70635 -4.81103 0
M  V30 3604 H 331.42 -0.934075 -4.0548 0
M  V30 3605 H 330.296 -0.795361 -5.43107 0
M  V30 3606 H 330.557 0.588834 -4.38161 0
M  V30 3607 N 329.616 1.39756 -0.72842 0
M  V30 3608 C 330.846 2.04651 -0.283117 0
M  V30 3609 C 331.254 1.5502 1.08469 0
M  V30 3610 O 330.597 0.707343 1.69536 0
M  V30 3611 C 330.659 3.58947 -0.199309 0
M  V30 3612 C 330.323 4.31525 -1.5045 0
M  V30 3613 C 331.32 4.5861 -2.44894 0
M  V30 3614 C 329.005 4.70195 -1.76698 0
M  V30 3615 C 330.999 5.23366 -3.63822 0
M  V30 3616 C 328.686 5.3468 -2.95906 0
M  V30 3617 C 329.684 5.61198 -3.89289 0
M  V30 3618 O 329.372 6.24347 -5.06404 0
M  V30 3619 H 329.104 0.664777 -0.122666 0
M  V30 3620 H 331.658 1.79913 -0.990987 0
M  V30 3621 H 329.888 3.82556 0.56461 0
M  V30 3622 H 331.577 4.0534 0.213125 0
M  V30 3623 H 332.343 4.29187 -2.25883 0
M  V30 3624 H 328.222 4.48916 -1.04859 0
M  V30 3625 H 331.766 5.4398 -4.36728 0
M  V30 3626 H 327.663 5.63524 -3.14819 0
M  V30 3627 H 328.431 6.42842 -5.06652 0
M  V30 3628 N 331.094 0.475555 1.50254 0
M  V30 3629 C 332.505 0.0215174 1.86688 0
M  V30 3630 C 332.856 -1.38467 1.39001 0
M  V30 3631 O 331.981 -2.02732 0.756894 0
M  V30 3632 C 332.576 0.0322715 3.38785 0
M  V30 3633 C 331.135 -0.366314 3.74613 0
M  V30 3634 C 330.282 0.415832 2.74164 0
M  V30 3635 H 333.233 0.689612 1.42934 0
M  V30 3636 H 333.254 -0.76889 3.7265 0
M  V30 3637 H 332.766 1.05584 3.73462 0
M  V30 3638 H 330.867 -1.39406 3.45538 0
M  V30 3639 H 330.98 -0.064555 4.79057 0
M  V30 3640 H 329.344 -0.131048 2.54363 0
M  V30 3641 H 330.127 1.43899 3.11686 0
M  V30 3642 N 332.573 -1.56217 0.208337 0
M  V30 3643 C 333.803 -2.02043 -0.431523 0
M  V30 3644 C 334.211 -1.08755 -1.54819 0
M  V30 3645 O 333.554 -0.0870009 -1.83494 0
M  V30 3646 C 333.616 -3.44239 -1.03633 0
M  V30 3647 C 333.28 -4.56965 -0.0567502 0
M  V30 3648 C 334.277 -5.14624 0.738773 0
M  V30 3649 C 331.962 -5.02266 0.0581736 0
M  V30 3650 C 333.956 -6.16045 1.63605 0
M  V30 3651 C 331.643 -6.03528 0.959001 0
M  V30 3652 C 332.641 -6.60293 1.7465 0
M  V30 3653 O 332.329 -7.59586 2.6322 0
M  V30 3654 H 332.061 -0.666772 -0.111313 0
M  V30 3655 H 334.615 -2.02919 0.318277 0
M  V30 3656 H 332.845 -3.40391 -1.83497 0
M  V30 3657 H 334.534 -3.73793 -1.58221 0
M  V30 3658 H 335.3 -4.80483 0.660364 0
M  V30 3659 H 331.179 -4.57771 -0.544633 0
M  V30 3660 H 334.723 -6.60279 2.25116 0
M  V30 3661 H 330.62 -6.37092 1.03848 0
M  V30 3662 H 331.388 -7.77057 2.57148 0
M  V30 3663 N 334.051 0.0651679 -1.57465 0
M  V30 3664 C 335.328 0.79644 -1.78651 0
M  V30 3665 C 335.708 1.95454 -0.797566 0
M  V30 3666 O 335.056 2.27882 0.167946 0
M  V30 3667 C 335.266 1.26322 -3.25337 0
M  V30 3668 C 336.614 1.6939 -3.89348 0
M  V30 3669 O 337.638 1.35872 -3.29268 0
M  V30 3670 O 336.497 2.31471 -4.95059 0
M  V30 3671 H 333.591 0.382157 -0.733407 0
M  V30 3672 H 336.137 0.0447311 -1.69641 0
M  V30 3673 H 334.909 0.434859 -3.88876 0
M  V30 3674 H 334.532 2.07604 -3.39096 0
M  V30 3675 N 335.529 1.53961 0.336706 0
M  V30 3676 C 336.94 1.62914 0.911925 0
M  V30 3677 C 337.291 0.514795 1.89326 0
M  V30 3678 O 336.416 -0.354395 2.13478 0
M  V30 3679 C 337.011 2.95304 1.66076 0
M  V30 3680 C 335.57 3.06496 2.18489 0
M  V30 3681 C 334.717 2.58403 1.00613 0
M  V30 3682 H 337.668 1.58285 0.114649 0
M  V30 3683 H 337.689 2.84727 2.5241 0
M  V30 3684 H 337.201 3.76387 0.946276 0
M  V30 3685 H 335.302 2.3006 2.93092 0
M  V30 3686 H 335.415 4.1208 2.44391 0
M  V30 3687 H 333.779 2.13977 1.38152 0
M  V30 3688 H 334.562 3.41932 0.306179 0
M  V30 3689 N 337.007 -0.598083 1.45811 0
M  V30 3690 C 337.939 -1.72231 1.51225 0
M  V30 3691 C 338.952 -1.57757 0.402059 0
M  V30 3692 O 340.141 -1.65464 0.669624 0
M  V30 3693 C 337.241 -3.10331 1.3619 0
M  V30 3694 C 336.414 -3.50955 2.61054 0
M  V30 3695 C 335.473 -4.68055 2.40439 0
M  V30 3696 O 334.499 -4.74691 3.14097 0
M  V30 3697 N 335.701 -5.61941 1.45612 0
M  V30 3698 H 338.466 -1.68046 2.48154 0
M  V30 3699 H 336.027 -0.783637 1.41671 0
M  V30 3700 H 338.019 -3.86439 1.20195 0
M  V30 3701 H 336.589 -3.0897 0.475015 0
M  V30 3702 H 335.809 -2.64711 2.92099 0
M  V30 3703 H 337.097 -3.74858 3.44034 0
M  V30 3704 H 336.495 -5.59301 0.848431 0
M  V30 3705 H 335.052 -6.37542 1.35585 0
M  V30 3706 N 338.485 -1.33259 -0.841409 0
M  V30 3707 C 339.432 -1.23302 -1.95103 0
M  V30 3708 C 340.402 -0.112204 -1.65721 0
M  V30 3709 O 341.587 -0.290038 -1.88583 0
M  V30 3710 C 338.727 -0.975583 -3.31023 0
M  V30 3711 C 337.84 -2.18243 -3.72819 0
M  V30 3712 C 336.975 -1.85936 -4.97595 0
M  V30 3713 C 336.014 -3.02866 -5.3192 0
M  V30 3714 N 335.151 -2.70565 -6.47873 0
M  V30 3715 H 339.991 -2.18207 -2.02952 0
M  V30 3716 H 337.528 -1.0851 -0.993173 0
M  V30 3717 H 339.486 -0.80677 -4.09325 0
M  V30 3718 H 338.116 -0.0632755 -3.22738 0
M  V30 3719 H 337.168 -2.46107 -2.90061 0
M  V30 3720 H 338.48 -3.05666 -3.94169 0
M  V30 3721 H 337.634 -1.65684 -5.83638 0
M  V30 3722 H 336.373 -0.957452 -4.78209 0
M  V30 3723 H 335.378 -3.23736 -4.44382 0
M  V30 3724 H 336.603 -3.93809 -5.53255 0
M  V30 3725 H 334.549 -1.8293 -6.29978 0
M  V30 3726 H 334.466 -3.51519 -6.69306 0
M  V30 3727 H 335.734 -2.53774 -7.37034 0
M  V30 3728 N 339.963 1.05934 -1.16686 0
M  V30 3729 C 341.209 1.79065 -0.95203 0
M  V30 3730 C 341.542 1.87147 0.518629 0
M  V30 3731 O 340.817 1.36574 1.38484 0
M  V30 3732 C 341.1 3.23359 -1.58464 0
M  V30 3733 C 340.953 3.23336 -3.12689 0
M  V30 3734 C 342.272 4.21004 -1.28232 0
M  V30 3735 H 339.391 0.65005 -0.34728 0
M  V30 3736 H 342.033 1.23868 -1.44072 0
M  V30 3737 H 340.183 3.70493 -1.16908 0
M  V30 3738 H 341.855 2.84336 -3.6325 0
M  V30 3739 H 340.098 2.61886 -3.4583 0
M  V30 3740 H 340.769 4.25144 -3.52075 0
M  V30 3741 H 343.245 3.8233 -1.64203 0
M  V30 3742 H 342.121 5.20225 -1.75092 0
M  V30 3743 H 342.382 4.41639 -0.201791 0
M  V30 3744 N 341.441 0.965919 1.2453 0
M  V30 3745 C 342.391 0.465731 2.23193 0
M  V30 3746 C 343.375 -0.451277 1.54442 0
M  V30 3747 O 344.567 -0.282489 1.74731 0
M  V30 3748 C 341.696 -0.244511 3.42428 0
M  V30 3749 C 340.782 0.691222 4.18429 0
M  V30 3750 N 341.173 1.82771 4.71623 0
M  V30 3751 C 339.471 0.501649 4.4317 0
M  V30 3752 C 340.172 2.41285 5.29298 0
M  V30 3753 N 339.148 1.69819 5.16394 0
M  V30 3754 H 342.95 1.33291 2.61937 0
M  V30 3755 H 340.464 0.824789 1.39896 0
M  V30 3756 H 342.461 -0.620056 4.12263 0
M  V30 3757 H 341.121 -1.10815 3.05205 0
M  V30 3758 H 342.132 2.20929 4.68413 0
M  V30 3759 H 338.809 -0.318177 4.16286 0
M  V30 3760 H 340.199 3.37181 5.8117 0
M  V30 3761 N 342.919 -1.39368 0.735821 0
M  V30 3762 C 344.167 -2.00101 0.283562 0
M  V30 3763 C 344.488 -1.5868 -1.13338 0
M  V30 3764 O 343.758 -0.835423 -1.77193 0
M  V30 3765 H 342.338 -0.740024 0.101851 0
M  V30 3766 H 345 -1.70404 0.945962 0
M  V30 3767 H 344.096 -3.10323 0.332604 0
M  V30 3768 N 344.397 -0.483516 -1.5 0
M  V30 3769 C 345.344 0.304164 -2.28787 0
M  V30 3770 C 346.314 0.976114 -1.34392 0
M  V30 3771 O 347.499 0.986156 -1.63339 0
M  V30 3772 C 344.639 1.37298 -3.16612 0
M  V30 3773 C 343.752 0.714561 -4.26049 0
M  V30 3774 C 342.887 1.76232 -5.01114 0
M  V30 3775 C 341.926 1.08483 -6.0241 0
M  V30 3776 N 341.063 2.076 -6.70706 0
M  V30 3777 H 345.903 -0.373981 -2.95644 0
M  V30 3778 H 343.44 -0.196275 -1.45785 0
M  V30 3779 H 345.398 2.00445 -3.65893 0
M  V30 3780 H 344.028 2.02012 -2.51776 0
M  V30 3781 H 343.08 -0.0297798 -3.80388 0
M  V30 3782 H 344.392 0.180383 -4.98474 0
M  V30 3783 H 343.546 2.46929 -5.54176 0
M  V30 3784 H 342.285 2.33033 -4.28424 0
M  V30 3785 H 341.29 0.363545 -5.48597 0
M  V30 3786 H 342.515 0.523551 -6.77079 0
M  V30 3787 H 340.461 2.63394 -6.00799 0
M  V30 3788 H 340.378 1.59201 -7.39047 0
M  V30 3789 H 341.646 2.77639 -7.2838 0
M  V30 3790 N 345.875 1.56104 -0.216619 0
M  V30 3791 C 347.121 1.98466 0.417033 0
M  V30 3792 C 347.454 1.10403 1.59765 0
M  V30 3793 O 346.729 0.160632 1.93836 0
M  V30 3794 C 347.012 3.49769 0.85637 0
M  V30 3795 C 346.865 4.48606 -0.327546 0
M  V30 3796 C 348.184 4.05339 1.7143 0
M  V30 3797 H 345.303 0.721551 0.150112 0
M  V30 3798 H 347.945 1.87423 -0.311864 0
M  V30 3799 H 346.095 3.5931 1.47745 0
M  V30 3800 H 347.767 4.5108 -0.965618 0
M  V30 3801 H 346.01 4.22682 -0.975805 0
M  V30 3802 H 346.681 5.51995 0.0227149 0
M  V30 3803 H 349.157 3.98712 1.19031 0
M  V30 3804 H 348.033 5.11533 1.99061 0
M  V30 3805 H 348.294 3.51918 2.67593 0
M  V30 3806 N 347.353 -0.0568162 1.57498 0
M  V30 3807 C 348.283 -1.06593 2.0775 0
M  V30 3808 C 349.264 -1.39448 0.974082 0
M  V30 3809 O 350.449 -1.48815 1.24771 0
M  V30 3810 C 347.579 -2.37509 2.5339 0
M  V30 3811 C 346.533 -2.1897 3.67745 0
M  V30 3812 C 345.859 -3.55402 3.99492 0
M  V30 3813 C 347.159 -1.59859 4.97235 0
M  V30 3814 H 348.853 -0.647706 2.9231 0
M  V30 3815 H 346.399 -0.310116 1.40621 0
M  V30 3816 H 348.352 -3.08409 2.87162 0
M  V30 3817 H 347.076 -2.8134 1.65878 0
M  V30 3818 H 345.735 -1.50508 3.3428 0
M  V30 3819 H 345.383 -3.9683 3.09088 0
M  V30 3820 H 345.083 -3.43831 4.76502 0
M  V30 3821 H 346.607 -4.27708 4.35773 0
M  V30 3822 H 348.021 -2.20642 5.29141 0
M  V30 3823 H 346.418 -1.58942 5.78669 0
M  V30 3824 H 347.488 -0.561506 4.81638 0
M  V30 3825 N 348.832 -1.54138 -0.328536 0
M  V30 3826 C 350.06 -1.76062 -1.08673 0
M  V30 3827 C 350.475 -0.506852 -1.81869 0
M  V30 3828 O 349.832 0.522223 -1.74869 0
M  V30 3829 C 349.883 -2.95054 -2.08866 0
M  V30 3830 O 349.604 -4.15583 -1.38644 0
M  V30 3831 C 351.105 -3.2915 -2.96943 0
M  V30 3832 H 348.325 -0.587889 -0.323461 0
M  V30 3833 H 350.869 -2.0101 -0.376175 0
M  V30 3834 H 349.024 -2.72394 -2.75464 0
M  V30 3835 H 349.438 -4.82481 -2.05699 0
M  V30 3836 H 350.912 -4.15723 -3.63151 0
M  V30 3837 H 351.389 -2.461 -3.63774 0
M  V30 3838 H 351.995 -3.53871 -2.35914 0
M  V30 3839 N 350.31 0.590341 -1.46126 0
M  V30 3840 C 351.54 1.37304 -1.54373 0
M  V30 3841 C 351.948 1.88332 -0.181071 0
M  V30 3842 O 351.291 1.63852 0.830559 0
M  V30 3843 C 351.353 2.6012 -2.48149 0
M  V30 3844 C 351.017 2.30613 -3.94546 0
M  V30 3845 C 352.014 1.89915 -4.83971 0
M  V30 3846 C 349.699 2.42993 -4.39613 0
M  V30 3847 C 351.693 1.61981 -6.16475 0
M  V30 3848 C 349.38 2.14672 -5.72153 0
M  V30 3849 C 350.378 1.7423 -6.60404 0
M  V30 3850 O 350.066 1.46251 -7.90485 0
M  V30 3851 H 349.798 0.426086 -0.524811 0
M  V30 3852 H 352.352 0.72539 -1.92165 0
M  V30 3853 H 350.582 3.27664 -2.05361 0
M  V30 3854 H 352.271 3.22182 -2.46887 0
M  V30 3855 H 353.037 1.79872 -4.50412 0
M  V30 3856 H 348.916 2.73435 -3.71153 0
M  V30 3857 H 352.46 1.30341 -6.85315 0
M  V30 3858 H 348.357 2.24337 -6.05263 0
M  V30 3859 H 349.125 1.6016 -8.02677 0
M  V30 3860 N 351.788 1.33704 0.83433 0
M  V30 3861 C 353.036 1.25169 1.58673 0
M  V30 3862 C 353.357 -0.18127 1.94156 0
M  V30 3863 O 352.627 -1.11113 1.6134 0
M  V30 3864 H 351.207 0.4603 0.58833 0
M  V30 3865 H 353.869 1.67478 0.996847 0
M  V30 3866 H 352.965 1.84856 2.51465 0
M  V30 3867 N 353.266 -1.05314 1.17247 0
M  V30 3868 C 354.198 -2.13023 0.845812 0
M  V30 3869 C 355.211 -1.62096 -0.151246 0
M  V30 3870 O 356.4 -1.78343 0.0748818 0
M  V30 3871 C 353.5 -3.38047 0.240292 0
M  V30 3872 C 352.673 -4.18255 1.27991 0
M  V30 3873 C 351.732 -5.21625 0.692375 0
M  V30 3874 O 350.758 -5.52619 1.36385 0
M  V30 3875 N 351.96 -5.78201 -0.516178 0
M  V30 3876 H 354.725 -2.41642 1.77283 0
M  V30 3877 H 352.286 -1.21401 1.07115 0
M  V30 3878 H 354.278 -4.04359 -0.16603 0
M  V30 3879 H 352.848 -3.06972 -0.590487 0
M  V30 3880 H 352.068 -3.47451 1.86203 0
M  V30 3881 H 353.356 -4.68643 1.98119 0
M  V30 3882 H 352.754 -5.55301 -1.07969 0
M  V30 3883 H 351.311 -6.4604 -0.86458 0
M  V30 3884 N 354.744 -0.972509 -1.24016 0
M  V30 3885 C 355.993 -0.632603 -1.91523 0
M  V30 3886 C 356.306 0.836641 -1.76804 0
M  V30 3887 O 357.512 1.28728 -2.39043 0
M  V30 3888 C 355.968 -1.08082 -3.43287 0
M  V30 3889 C 355.576 -2.57386 -3.66683 0
M  V30 3890 C 357.32 -0.814288 -4.16617 0
M  V30 3891 C 355.227 -2.95915 -5.12043 0
M  V30 3892 H 354.157 -0.232898 -0.717129 0
M  V30 3893 H 356.808 -1.17936 -1.40582 0
M  V30 3894 H 355.19 -0.462339 -3.93292 0
M  V30 3895 H 356.364 -3.24405 -3.27258 0
M  V30 3896 H 354.679 -2.81701 -3.06649 0
M  V30 3897 H 357.276 -1.0781 -5.23718 0
M  V30 3898 H 357.619 0.24955 -4.15551 0
M  V30 3899 H 358.152 -1.39397 -3.72577 0
M  V30 3900 H 354.891 -4.0139 -5.18234 0
M  V30 3901 H 354.411 -2.33584 -5.52448 0
M  V30 3902 H 356.09 -2.86086 -5.80314 0
M  V30 3903 N 356.222 1.38976 -0.743202 0
M  V30 3904 C 357.169 2.30544 -0.10861 0
M  V30 3905 C 358.139 1.49642 0.720869 0
M  V30 3906 O 359.324 1.78304 0.679142 0
M  V30 3907 C 356.464 3.36018 0.786496 0
M  V30 3908 C 355.577 4.31963 -0.0564849 0
M  V30 3909 C 354.712 5.24506 0.840657 0
M  V30 3910 C 353.751 6.121 -0.00658363 0
M  V30 3911 N 352.888 6.96973 0.846943 0
M  V30 3912 H 357.728 2.8424 -0.895088 0
M  V30 3913 H 355.265 1.3995 -0.453048 0
M  V30 3914 H 357.223 3.95768 1.31999 0
M  V30 3915 H 355.853 2.83758 1.53887 0
M  V30 3916 H 354.905 3.73763 -0.707492 0
M  V30 3917 H 356.217 4.93703 -0.711229 0
M  V30 3918 H 355.371 5.89322 1.4417 0
M  V30 3919 H 354.11 4.63107 1.52916 0
M  V30 3920 H 353.115 5.46289 -0.620366 0
M  V30 3921 H 354.34 6.75565 -0.691992 0
M  V30 3922 H 352.286 6.38133 1.52059 0
M  V30 3923 H 352.203 7.5559 0.248864 0
M  V30 3924 H 353.471 7.6621 1.43328 0
M  V30 3925 N 357.7 0.491464 1.49741 0
M  V30 3926 C 358.647 -0.292027 2.28945 0
M  V30 3927 C 359.617 -0.968973 1.34908 0
M  V30 3928 O 360.802 -0.97748 1.6386 0
M  V30 3929 C 357.942 -1.35617 3.17336 0
M  V30 3930 C 357.055 -0.691957 4.26422 0
M  V30 3931 C 356.19 -1.73572 5.02042 0
M  V30 3932 C 355.229 -1.05286 6.02977 0
M  V30 3933 N 354.366 -2.0404 6.71798 0
M  V30 3934 H 359.206 0.389654 2.95442 0
M  V30 3935 H 356.743 0.204003 1.45679 0
M  V30 3936 H 358.701 -1.98502 3.66951 0
M  V30 3937 H 357.331 -2.00674 2.52844 0
M  V30 3938 H 356.383 0.0499523 3.80367 0
M  V30 3939 H 357.695 -0.153946 4.98562 0
M  V30 3940 H 356.849 -2.43987 5.55478 0
M  V30 3941 H 355.588 -2.30757 4.29654 0
M  V30 3942 H 354.593 -0.334446 5.48782 0
M  V30 3943 H 355.818 -0.487636 6.77347 0
M  V30 3944 H 353.764 -2.60205 6.02187 0
M  V30 3945 H 353.681 -1.55279 7.39881 0
M  V30 3946 H 354.949 -2.73772 7.29842 0
M  V30 3947 N 359.178 -1.55987 0.224894 0
M  V30 3948 C 360.424 -1.99433 -0.39973 0
M  V30 3949 C 360.779 -1.11004 -1.57149 0
M  V30 3950 O 360.072 -0.160725 -1.90925 0
M  V30 3951 C 360.266 -3.46394 -0.880106 0
M  V30 3952 C 360.095 -4.4904 0.243565 0
M  V30 3953 C 358.865 -5.00272 0.711056 0
M  V30 3954 C 361.063 -5.03195 1.06299 0
M  V30 3955 N 359.045 -5.86628 1.80944 0
M  V30 3956 C 360.416 -5.86508 2.01017 0
M  V30 3957 C 362.471 -4.8555 1.10205 0
M  V30 3958 C 361.174 -6.54062 2.99324 0
M  V30 3959 C 363.2 -5.53866 2.07332 0
M  V30 3960 C 362.562 -6.3695 3.00789 0
M  V30 3961 H 358.661 -0.773815 -0.112847 0
M  V30 3962 H 361.245 -1.91754 0.337432 0
M  V30 3963 H 359.416 -3.54515 -1.58662 0
M  V30 3964 H 361.148 -3.76752 -1.47783 0
M  V30 3965 H 357.903 -4.72655 0.29906 0
M  V30 3966 H 358.327 -6.34507 2.36073 0
M  V30 3967 H 362.969 -4.20966 0.39343 0
M  V30 3968 H 360.687 -7.17827 3.71147 0
M  V30 3969 H 364.273 -5.42178 2.11032 0
M  V30 3970 H 363.153 -6.8888 3.74718 0
M  V30 3971 N 360.656 0.0484629 -1.57525 0
M  V30 3972 C 361.903 0.743125 -1.88372 0
M  V30 3973 C 362.231 1.76383 -0.819715 0
M  V30 3974 O 361.486 1.94855 0.181659 0
M  V30 3975 C 361.785 1.46632 -3.25935 0
M  V30 3976 C 361.451 0.583427 -4.4711 0
M  V30 3977 C 360.113 0.340191 -4.79996 0
M  V30 3978 C 362.465 -0.0273345 -5.21193 0
M  V30 3979 C 359.793 -0.522903 -5.84365 0
M  V30 3980 C 362.145 -0.878017 -6.26477 0
M  V30 3981 C 360.809 -1.1309 -6.5785 0
M  V30 3982 H 360.079 0.271929 -0.689301 0
M  V30 3983 H 362.726 0.00336166 -1.915 0
M  V30 3984 H 361.031 2.2789 -3.18706 0
M  V30 3985 H 362.728 2.00902 -3.47044 0
M  V30 3986 H 359.318 0.783151 -4.21384 0
M  V30 3987 H 363.502 0.147654 -4.9608 0
M  V30 3988 H 358.758 -0.727335 -6.07058 0
M  V30 3989 H 362.932 -1.35789 -6.83033 0
M  V30 3990 H 360.559 -1.80144 -7.38547 0
M  V30 3991 N 362.134 1.5431 0.320358 0
M  V30 3992 C 363.411 1.63322 1.07635 0
M  V30 3993 C 363.791 0.46912 2.05821 0
M  V30 3994 O 363.139 -0.536274 2.22118 0
M  V30 3995 C 363.349 3.00465 1.77544 0
M  V30 3996 C 364.697 3.56621 2.30449 0
M  V30 3997 O 365.721 3.02791 1.87606 0
M  V30 3998 O 364.58 4.5083 3.08892 0
M  V30 3999 H 361.674 0.661502 0.496331 0
M  V30 4000 H 364.22 1.66656 0.319992 0
M  V30 4001 H 362.992 3.76629 1.06143 0
M  V30 4002 H 362.615 3.00824 2.59982 0
M  V30 4003 N 363.613 -0.582584 1.46437 0
M  V30 4004 C 364.841 -1.36682 1.55324 0
M  V30 4005 C 365.256 -1.87796 0.194409 0
M  V30 4006 O 364.613 -1.63623 -0.808318 0
M  V30 4007 C 364.664 -2.55426 2.55812 0
M  V30 4008 O 364.385 -2.0643 3.86417 0
M  V30 4009 C 365.886 -3.47976 2.74641 0
M  V30 4010 H 363.106 -0.417545 0.525259 0
M  V30 4011 H 365.65 -0.708219 1.91845 0
M  V30 4012 H 363.805 -3.17275 2.22295 0
M  V30 4013 H 364.219 -2.83762 4.41111 0
M  V30 4014 H 365.693 -4.27775 3.48874 0
M  V30 4015 H 366.17 -3.99919 1.81553 0
M  V30 4016 H 366.776 -2.91962 3.09255 0
M  V30 4017 N 365.091 -1.34144 -0.827227 0
M  V30 4018 C 366.338 -1.26258 -1.58319 0
M  V30 4019 C 366.666 0.168595 -1.93768 0
M  V30 4020 O 365.921 1.12877 -1.59866 0
M  V30 4021 C 366.22 -2.09464 -2.89585 0
M  V30 4022 C 365.886 -3.58521 -2.73448 0
M  V30 4023 C 364.548 -3.99155 -2.68754 0
M  V30 4024 C 366.9 -4.53189 -2.57428 0
M  V30 4025 C 364.228 -5.32656 -2.45957 0
M  V30 4026 C 366.58 -5.86864 -2.36163 0
M  V30 4027 C 365.244 -6.26667 -2.29879 0
M  V30 4028 H 364.514 -0.462013 -0.579332 0
M  V30 4029 H 367.161 -1.65845 -0.95748 0
M  V30 4030 H 365.466 -1.62692 -3.56425 0
M  V30 4031 H 367.163 -2.00712 -3.47154 0
M  V30 4032 H 363.753 -3.26264 -2.77939 0
M  V30 4033 H 367.937 -4.22696 -2.60081 0
M  V30 4034 H 363.193 -5.62519 -2.39546 0
M  V30 4035 H 367.367 -6.59813 -2.22754 0
M  V30 4036 H 364.994 -7.30049 -2.11975 0
M  V30 4037 N 366.569 1.04691 -1.17803 0
M  V30 4038 C 367.516 2.12557 -0.899343 0
M  V30 4039 C 368.486 1.65339 0.158771 0
M  V30 4040 O 369.671 1.90789 0.0204797 0
M  V30 4041 C 366.811 3.42481 -0.424315 0
M  V30 4042 C 365.924 4.03346 -1.54713 0
M  V30 4043 C 365.059 5.21208 -1.02546 0
M  V30 4044 C 364.098 5.74089 -2.12339 0
M  V30 4045 N 363.235 6.83247 -1.61612 0
M  V30 4046 H 368.075 2.35734 -1.823 0
M  V30 4047 H 365.612 1.1564 -0.909159 0
M  V30 4048 H 367.57 4.16996 -0.130421 0
M  V30 4049 H 366.2 3.19471 0.462377 0
M  V30 4050 H 365.252 3.2622 -1.95664 0
M  V30 4051 H 366.564 4.38628 -2.37501 0
M  V30 4052 H 365.718 6.02812 -0.685718 0
M  V30 4053 H 364.457 4.87414 -0.167084 0
M  V30 4054 H 363.462 4.91111 -2.47165 0
M  V30 4055 H 364.687 6.0993 -2.98601 0
M  V30 4056 H 362.633 6.5134 -0.780533 0
M  V30 4057 H 362.55 7.17559 -2.38003 0
M  V30 4058 H 363.818 7.68491 -1.30545 0
M  V30 4059 N 368.047 0.979072 1.23499 0
M  V30 4060 C 368.957 0.526431 2.28617 0
M  V30 4061 C 369.973 -0.418126 1.68901 0
M  V30 4062 O 371.149 -0.288372 1.99325 0
M  V30 4063 C 368.214 -0.165235 3.46306 0
M  V30 4064 C 367.275 0.82056 4.21385 0
M  V30 4065 C 366.508 0.161807 5.33455 0
M  V30 4066 O 366.731 -1.04742 5.60701 0
M  V30 4067 O 365.665 0.859708 5.95729 0
M  V30 4068 H 369.491 1.4006 2.69475 0
M  V30 4069 H 367.076 0.746643 1.29405 0
M  V30 4070 H 368.958 -0.553287 4.17752 0
M  V30 4071 H 367.633 -1.01419 3.07402 0
M  V30 4072 H 366.54 1.25929 3.52268 0
M  V30 4073 H 367.873 1.63828 4.64135 0
M  V30 4074 N 369.525 -1.3858 0.750561 0
M  V30 4075 C 370.774 -1.99424 0.302172 0
M  V30 4076 C 371.087 -1.60254 -1.12152 0
M  V30 4077 O 372.293 -2.14046 -1.67023 0
M  V30 4078 C 370.749 -3.56558 0.489307 0
M  V30 4079 C 370.357 -4.04682 1.92189 0
M  V30 4080 C 372.101 -4.24374 0.103478 0
M  V30 4081 C 370.008 -5.54446 2.05775 0
M  V30 4082 H 368.938 -0.746046 0.10923 0
M  V30 4083 H 371.589 -1.58383 0.92667 0
M  V30 4084 H 369.971 -3.95472 -0.204329 0
M  V30 4085 H 371.145 -3.77065 2.64875 0
M  V30 4086 H 369.46 -3.4958 2.26236 0
M  V30 4087 H 372.057 -5.34384 0.183787 0
M  V30 4088 H 372.4 -4.05468 -0.943481 0
M  V30 4089 H 372.933 -3.90688 0.748854 0
M  V30 4090 H 369.672 -5.78252 3.08714 0
M  V30 4091 H 369.192 -5.83816 1.37546 0
M  V30 4092 H 370.871 -6.20099 1.84626 0
M  V30 4093 N 371.003 -0.499398 -1.49478 0
M  V30 4094 C 372.414 -0.051215 -1.8663 0
M  V30 4095 C 372.765 1.36238 -1.41186 0
M  V30 4096 O 371.89 2.01502 -0.789051 0
M  V30 4097 C 372.485 -0.0861651 -3.3869 0
M  V30 4098 C 371.044 0.30667 -3.75149 0
M  V30 4099 C 370.191 -0.459397 -2.73468 0
M  V30 4100 H 373.142 -0.712264 -1.41818 0
M  V30 4101 H 373.163 0.709507 -3.73826 0
M  V30 4102 H 372.675 -1.11512 -3.71735 0
M  V30 4103 H 370.776 1.33892 -3.47712 0
M  V30 4104 H 370.889 -0.0116669 -4.79099 0
M  V30 4105 H 369.253 0.0905645 -2.54539 0
M  V30 4106 H 370.036 -1.4884 -3.09357 0
M  V30 4107 N 372.481 1.55866 -0.233164 0
M  V30 4108 C 373.706 2.03449 0.402906 0
M  V30 4109 C 374.131 1.11166 1.51736 0
M  V30 4110 O 373.489 0.101996 1.81013 0
M  V30 4111 C 373.537 3.49165 0.9009 0
M  V30 4112 O 372.641 3.60019 2.01147 0
M  V30 4113 H 371.982 0.657913 0.0897025 0
M  V30 4114 H 374.512 2.01493 -0.355201 0
M  V30 4115 H 374.522 3.89716 1.2077 0
M  V30 4116 H 373.197 4.15813 0.0852889 0
M  V30 4117 H 371.774 3.3136 1.71042 0
M  V30 4118 N 373.959 -0.0401083 1.57549 0
M  V30 4119 C 374.869 -1.06133 2.0922 0
M  V30 4120 C 375.885 -1.40356 1.0284 0
M  V30 4121 O 377.061 -1.49897 1.34509 0
M  V30 4122 C 374.126 -2.34658 2.55218 0
M  V30 4123 C 373.187 -2.07117 3.76033 0
M  V30 4124 C 372.42 -3.29514 4.19829 0
M  V30 4125 O 372.643 -4.39794 3.63232 0
M  V30 4126 O 371.577 -3.15863 5.12362 0
M  V30 4127 H 375.403 -0.652244 2.96613 0
M  V30 4128 H 372.988 -0.256368 1.47184 0
M  V30 4129 H 374.87 -3.10239 2.85184 0
M  V30 4130 H 373.545 -2.74883 1.70941 0
M  V30 4131 H 372.452 -1.29139 3.51104 0
M  V30 4132 H 373.785 -1.71754 4.61261 0
M  V30 4133 N 375.437 -1.54477 -0.31217 0
M  V30 4134 C 376.347 -1.87695 -1.4074 0
M  V30 4135 C 377.363 -0.769975 -1.56036 0
M  V30 4136 O 378.539 -1.06537 -1.70915 0
M  V30 4137 C 375.604 -2.10755 -2.75287 0
M  V30 4138 C 374.665 -3.34514 -2.69071 0
M  V30 4139 C 373.898 -3.56465 -3.97201 0
M  V30 4140 O 374.121 -2.81637 -4.96021 0
M  V30 4141 O 373.055 -4.49964 -3.9977 0
M  V30 4142 H 376.881 -2.80849 -1.15574 0
M  V30 4143 H 374.466 -1.40526 -0.507228 0
M  V30 4144 H 376.348 -2.27188 -3.54913 0
M  V30 4145 H 375.023 -1.20788 -3.0032 0
M  V30 4146 H 373.93 -3.23456 -1.87955 0
M  V30 4147 H 375.263 -4.24575 -2.48992 0
M  V30 4148 N 376.915 0.57481 -1.46744 0
M  V30 4149 C 378.331 0.898981 -1.31873 0
M  V30 4150 C 378.531 1.99313 -0.29605 0
M  V30 4151 O 377.587 2.50728 0.298621 0
M  V30 4152 C 378.9 1.30886 -2.7072 0
M  V30 4153 C 380.448 1.42127 -2.78871 0
M  V30 4154 C 380.923 1.86478 -4.18318 0
M  V30 4155 N 382.414 1.93658 -4.20774 0
M  V30 4156 C 383.149 2.29267 -5.2557 0
M  V30 4157 N 382.645 2.63612 -6.40688 0
M  V30 4158 N 384.438 2.29889 -5.1294 0
M  V30 4159 H 376.589 -0.147839 -2.11885 0
M  V30 4160 H 378.852 -0.00347013 -0.947994 0
M  V30 4161 H 378.558 0.578853 -3.46904 0
M  V30 4162 H 378.432 2.26874 -3.01343 0
M  V30 4163 H 380.819 2.14213 -2.0297 0
M  V30 4164 H 380.9 0.443705 -2.51922 0
M  V30 4165 H 380.544 1.14968 -4.94717 0
M  V30 4166 H 380.474 2.85207 -4.42679 0
M  V30 4167 H 382.965 1.69574 -3.37718 0
M  V30 4168 H 383.278 2.89759 -7.16421 0
M  V30 4169 H 381.623 2.61232 -6.44036 0
M  V30 4170 H 384.814 2.02485 -4.22039 0
M  V30 4171 H 384.987 2.57312 -5.94722 0
M  V30 4172 N 378.394 1.34581 0.820102 0
M  V30 4173 C 379.619 1.30333 1.61332 0
M  V30 4174 C 380.044 -0.119339 1.87721 0
M  V30 4175 O 379.402 -1.08197 1.45475 0
M  V30 4176 C 379.45 2.10258 2.92957 0
M  V30 4177 O 378.554 1.47404 3.85157 0
M  V30 4178 H 377.895 0.447488 0.490561 0
M  V30 4179 H 380.425 1.77425 1.01889 0
M  V30 4180 H 380.435 2.21718 3.42498 0
M  V30 4181 H 379.11 3.13693 2.73074 0
M  V30 4182 H 377.687 1.44703 3.43679 0
M  V30 4183 N 379.872 -1.04064 1.18357 0
M  V30 4184 C 380.819 -2.12077 0.910603 0
M  V30 4185 C 381.789 -1.65421 -0.15 0
M  V30 4186 O 382.974 -1.90797 -0.0103614 0
M  V30 4187 C 380.114 -3.42252 0.442472 0
M  V30 4188 C 379.227 -4.0252 1.5685 0
M  V30 4189 C 378.362 -5.20657 1.05309 0
M  V30 4190 C 377.401 -5.72955 2.1538 0
M  V30 4191 N 376.538 -6.8238 1.65233 0
M  V30 4192 H 381.378 -2.34764 1.83548 0
M  V30 4193 H 378.915 -1.15157 0.915279 0
M  V30 4194 H 380.873 -4.16921 0.152534 0
M  V30 4195 H 379.503 -3.19712 -0.445428 0
M  V30 4196 H 378.555 -3.25178 1.97391 0
M  V30 4197 H 379.867 -4.37362 2.39824 0
M  V30 4198 H 379.021 -6.0244 0.717677 0
M  V30 4199 H 377.76 -4.87318 0.19293 0
M  V30 4200 H 376.765 -4.89793 2.49766 0
M  V30 4201 H 377.99 -6.08337 3.01832 0
M  V30 4202 H 375.936 -6.50917 0.815064 0
M  V30 4203 H 375.853 -7.16286 2.41805 0
M  V30 4204 H 377.121 -7.67788 1.34619 0
M  V30 4205 N 381.35 -0.985608 -1.22978 0
M  V30 4206 C 382.766 -0.695104 -1.43668 0
M  V30 4207 C 382.966 0.736866 -1.87543 0
M  V30 4208 O 382.022 1.50868 -2.02473 0
M  V30 4209 C 383.335 -1.69447 -2.48412 0
M  V30 4210 C 384.883 -1.70909 -2.62219 0
M  V30 4211 C 385.358 -2.6969 -3.70178 0
M  V30 4212 N 386.849 -2.6824 -3.77626 0
M  V30 4213 C 387.584 -3.41339 -4.60733 0
M  V30 4214 N 387.08 -4.24015 -5.4789 0
M  V30 4215 N 388.873 -3.30079 -4.54977 0
M  V30 4216 H 381.024 -1.91054 -0.928016 0
M  V30 4217 H 383.287 -0.823553 -0.469536 0
M  V30 4218 H 382.993 -2.7188 -2.23102 0
M  V30 4219 H 382.867 -1.48147 -3.46889 0
M  V30 4220 H 385.254 -0.691785 -2.86877 0
M  V30 4221 H 385.335 -1.96276 -1.6404 0
M  V30 4222 H 384.979 -3.71566 -3.46268 0
M  V30 4223 H 384.909 -2.41595 -4.67909 0
M  V30 4224 H 387.4 -2.08243 -3.15346 0
M  V30 4225 H 387.713 -4.76636 -6.08308 0
M  V30 4226 H 386.058 -4.28104 -5.47496 0
M  V30 4227 H 389.249 -2.64937 -3.85909 0
M  V30 4228 H 389.422 -3.87308 -5.19516 0
M  V30 4229 N 382.828 1.3818 -0.7579 0
M  V30 4230 C 384.075 2.00019 -0.315985 0
M  V30 4231 C 384.403 1.60163 1.10355 0
M  V30 4232 O 383.658 0.83264 1.77103 0
M  V30 4233 C 383.957 3.55252 -0.391218 0
M  V30 4234 C 383.623 4.14834 -1.76702 0
M  V30 4235 C 382.285 4.30821 -2.14353 0
M  V30 4236 C 384.637 4.47658 -2.66931 0
M  V30 4237 C 381.965 4.76928 -3.41696 0
M  V30 4238 C 384.317 4.95184 -3.93669 0
M  V30 4239 C 382.981 5.09377 -4.31383 0
M  V30 4240 H 382.251 0.731923 -0.115627 0
M  V30 4241 H 384.898 1.65161 -0.969223 0
M  V30 4242 H 383.203 3.90273 0.34558 0
M  V30 4243 H 384.9 4.00988 -0.030805 0
M  V30 4244 H 381.49 4.02808 -1.46435 0
M  V30 4245 H 385.674 4.34904 -2.39106 0
M  V30 4246 H 380.93 4.86103 -3.70829 0
M  V30 4247 H 385.104 5.19551 -4.63724 0
M  V30 4248 H 382.731 5.44865 -5.30119 0
M  V30 4249 N 384.306 0.507319 1.49211 0
M  V30 4250 C 385.722 0.163682 1.58758 0
M  V30 4251 C 385.922 -1.33208 1.51188 0
M  V30 4252 O 384.978 -2.10855 1.38911 0
M  V30 4253 C 386.291 0.746095 2.91297 0
M  V30 4254 C 387.839 0.712773 3.04776 0
M  V30 4255 C 388.314 1.27336 4.39943 0
M  V30 4256 N 389.805 1.23433 4.46451 0
M  V30 4257 C 390.54 1.63821 5.495 0
M  V30 4258 N 390.036 2.11832 6.5962 0
M  V30 4259 N 391.829 1.55198 5.4025 0
M  V30 4260 H 383.98 1.47972 1.52375 0
M  V30 4261 H 386.243 0.614147 0.722168 0
M  V30 4262 H 385.949 1.79534 3.02424 0
M  V30 4263 H 385.823 0.210137 3.76614 0
M  V30 4264 H 388.21 -0.327656 2.93275 0
M  V30 4265 H 388.291 1.28595 2.21127 0
M  V30 4266 H 387.935 2.3126 4.52196 0
M  V30 4267 H 387.865 0.676066 5.22242 0
M  V30 4268 H 390.356 0.882627 3.67448 0
M  V30 4269 H 390.669 2.40703 7.34358 0
M  V30 4270 H 389.014 2.1581 6.60644 0
M  V30 4271 H 392.205 1.17505 4.53112 0
M  V30 4272 H 392.378 1.86997 6.20432 0
M  V30 4273 N 385.784 -1.5574 0.241426 0
M  V30 4274 C 386.716 -2.18469 -0.693091 0
M  V30 4275 C 387.729 -1.15942 -1.14286 0
M  V30 4276 O 388.918 -1.42832 -1.07058 0
M  V30 4277 C 386.018 -2.7696 -1.95311 0
M  V30 4278 C 385.191 -4.04853 -1.65568 0
M  V30 4279 C 384.25 -4.47715 -2.76474 0
M  V30 4280 O 383.276 -5.14205 -2.44094 0
M  V30 4281 N 384.478 -4.15044 -4.05855 0
M  V30 4282 H 387.243 -2.99292 -0.156388 0
M  V30 4283 H 384.804 -1.61784 0.0611752 0
M  V30 4284 H 386.796 -3.02594 -2.68736 0
M  V30 4285 H 385.366 -2.00326 -2.39975 0
M  V30 4286 H 384.586 -3.86865 -0.756886 0
M  V30 4287 H 385.874 -4.88246 -1.43153 0
M  V30 4288 H 385.272 -3.61654 -4.34998 0
M  V30 4289 H 383.829 -4.45526 -4.75762 0
M  V30 4290 N 387.262 0.0317525 -1.57568 0
M  V30 4291 C 388.508 0.724175 -1.8943 0
M  V30 4292 C 388.841 1.75149 -0.838836 0
M  V30 4293 O 388.116 1.93948 0.146422 0
M  V30 4294 C 388.399 1.39615 -3.31933 0
M  V30 4295 C 388.252 0.382537 -4.4817 0
M  V30 4296 C 389.571 2.33084 -3.73309 0
M  V30 4297 H 386.69 0.261797 -0.688935 0
M  V30 4298 H 389.332 -0.013017 -1.89996 0
M  V30 4299 H 387.482 2.02451 -3.31581 0
M  V30 4300 H 389.154 -0.243689 -4.60656 0
M  V30 4301 H 387.397 -0.29844 -4.32772 0
M  V30 4302 H 388.068 0.891145 -5.44759 0
M  V30 4303 H 390.544 1.80295 -3.7501 0
M  V30 4304 H 389.42 2.77084 -4.73831 0
M  V30 4305 H 389.681 3.19643 -3.05419 0
M  V30 4306 N 388.74 1.54641 0.303973 0
M  V30 4307 C 389.65 1.88439 1.39743 0
M  V30 4308 C 390.666 0.778239 1.55626 0
M  V30 4309 O 391.842 1.07442 1.70347 0
M  V30 4310 C 388.907 2.12212 2.74166 0
M  V30 4311 C 387.968 3.35936 2.67293 0
M  V30 4312 C 387.201 3.58566 3.95305 0
M  V30 4313 O 387.424 2.84263 4.9452 0
M  V30 4314 O 386.358 4.52078 3.97378 0
M  V30 4315 H 390.184 2.81458 1.14083 0
M  V30 4316 H 387.769 1.40793 0.499768 0
M  V30 4317 H 389.651 2.29067 3.53704 0
M  V30 4318 H 388.326 1.22379 2.99675 0
M  V30 4319 H 387.233 3.24448 1.86237 0
M  V30 4320 H 388.566 4.2589 2.46736 0
M  V30 4321 N 390.218 -0.567019 1.47046 0
M  V30 4322 C 391.495 -1.3276 1.43646 0
M  V30 4323 C 391.875 -2.1071 0.128186 0
M  V30 4324 O 391.223 -2.10441 -0.890326 0
M  V30 4325 C 391.433 -2.2404 2.67595 0
M  V30 4326 C 392.781 -2.85372 3.14401 0
M  V30 4327 O 393.805 -2.34346 2.68254 0
M  V30 4328 O 392.664 -3.78091 3.946 0
M  V30 4329 H 389.758 -0.597293 0.571988 0
M  V30 4330 H 392.304 -0.586735 1.59234 0
M  V30 4331 H 391.076 -1.65975 3.54356 0
M  V30 4332 H 390.699 -3.05439 2.54544 0
M  V30 4333 N 391.696 -1.35014 -0.812953 0
M  V30 4334 C 393.112 -1.14914 -1.10757 0
M  V30 4335 C 393.312 0.0426818 -2.01455 0
M  V30 4336 O 392.368 0.715212 -2.42159 0
M  V30 4337 C 393.681 -2.44911 -1.74468 0
M  V30 4338 C 395.229 -2.5106 -1.86917 0
M  V30 4339 C 395.704 -3.81085 -2.54044 0
M  V30 4340 N 397.195 -3.82301 -2.61535 0
M  V30 4341 C 397.93 -4.79634 -3.14227 0
M  V30 4342 N 397.426 -5.87353 -3.67407 0
M  V30 4343 N 399.219 -4.67078 -3.12721 0
M  V30 4344 H 391.37 -2.1136 -0.20989 0
M  V30 4345 H 393.633 -0.935128 -0.155692 0
M  V30 4346 H 393.339 -3.32267 -1.15289 0
M  V30 4347 H 393.213 -2.58989 -2.74234 0
M  V30 4348 H 395.6 -1.64137 -2.45241 0
M  V30 4349 H 395.681 -2.40901 -0.860242 0
M  V30 4350 H 395.325 -4.68402 -1.96372 0
M  V30 4351 H 395.255 -3.88529 -3.55461 0
M  V30 4352 H 397.746 -3.04465 -2.23851 0
M  V30 4353 H 398.059 -6.57624 -4.05894 0
M  V30 4354 H 396.404 -5.91054 -3.65623 0
M  V30 4355 H 399.595 -3.82067 -2.70449 0
M  V30 4356 H 399.768 -5.43098 -3.53481 0
M  V30 4357 N 393.175 1.03435 -1.18907 0
M  V30 4358 C 394.591 1.28973 -0.940111 0
M  V30 4359 C 394.791 1.97676 0.390691 0
M  V30 4360 O 393.847 2.26127 1.12352 0
M  V30 4361 C 395.16 2.14221 -2.11021 0
M  V30 4362 C 396.708 2.27547 -2.14922 0
M  V30 4363 C 397.183 3.16164 -3.31367 0
M  V30 4364 N 398.674 3.23752 -3.31269 0
M  V30 4365 C 399.409 3.92495 -4.18014 0
M  V30 4366 N 398.905 4.63515 -5.14904 0
M  V30 4367 N 400.698 3.88838 -4.05908 0
M  V30 4368 H 392.849 0.57252 -2.04538 0
M  V30 4369 H 395.112 0.315184 -0.894071 0
M  V30 4370 H 394.818 1.71054 -3.073 0
M  V30 4371 H 394.692 3.14919 -2.0762 0
M  V30 4372 H 397.079 2.69947 -1.19217 0
M  V30 4373 H 397.16 1.26418 -2.22378 0
M  V30 4374 H 396.804 2.74474 -4.27348 0
M  V30 4375 H 396.734 4.17339 -3.21148 0
M  V30 4376 H 399.225 2.73167 -2.61129 0
M  V30 4377 H 399.538 5.13583 -5.77453 0
M  V30 4378 H 397.883 4.62398 -5.18857 0
M  V30 4379 H 401.074 3.32491 -3.29495 0
M  V30 4380 H 401.247 4.4214 -4.73726 0
M  V30 4381 N 394.653 0.992116 1.22453 0
M  V30 4382 C 395.616 0.546883 2.2258 0
M  V30 4383 C 396.616 -0.369829 1.56489 0
M  V30 4384 O 397.806 -0.161896 1.73446 0
M  V30 4385 C 394.938 -0.204659 3.40285 0
M  V30 4386 H 396.131 1.43234 2.63484 0
M  V30 4387 H 393.684 0.779239 1.3549 0
M  V30 4388 H 394.419 -1.10614 3.04853 0
M  V30 4389 H 394.204 0.45354 3.89468 0
M  V30 4390 H 395.694 -0.504358 4.14543 0
M  V30 4391 N 396.131 -1.37776 0.765217 0
M  V30 4392 C 397.078 -2.30342 0.145274 0
M  V30 4393 C 398.048 -1.5077 -0.696971 0
M  V30 4394 O 399.233 -1.79362 -0.650689 0
M  V30 4395 C 396.373 -3.37227 -0.732939 0
M  V30 4396 C 395.486 -4.31819 0.125199 0
M  V30 4397 C 394.621 -5.25777 -0.757107 0
M  V30 4398 C 393.66 -6.12012 0.103963 0
M  V30 4399 N 392.797 -6.98232 -0.735953 0
M  V30 4400 H 397.637 -2.8278 0.940195 0
M  V30 4401 H 395.174 -1.39211 0.475255 0
M  V30 4402 H 397.132 -3.97818 -1.25686 0
M  V30 4403 H 395.762 -2.86171 -1.49353 0
M  V30 4404 H 394.814 -3.7259 0.766865 0
M  V30 4405 H 396.126 -4.92509 0.789683 0
M  V30 4406 H 395.28 -5.91541 -1.34776 0
M  V30 4407 H 394.019 -4.65481 -1.45529 0
M  V30 4408 H 393.024 -5.45233 0.707197 0
M  V30 4409 H 394.249 -6.74379 0.799381 0
M  V30 4410 H 392.195 -6.40472 -1.41887 0
M  V30 4411 H 392.112 -7.55891 -0.128624 0
M  V30 4412 H 393.38 -7.68393 -1.31121 0
M  V30 4413 N 397.609 -0.515225 -1.4894 0
M  V30 4414 C 398.855 0.0242508 -2.02785 0
M  V30 4415 C 399.188 1.35323 -1.39289 0
M  V30 4416 O 398.463 1.87041 -0.533469 0
M  V30 4417 C 398.746 0.16184 -3.59736 0
M  V30 4418 C 398.599 -1.19127 -4.33738 0
M  V30 4419 C 399.918 0.895719 -4.30888 0
M  V30 4420 H 397.037 0.00733914 -0.736963 0
M  V30 4421 H 399.679 -0.669395 -1.77818 0
M  V30 4422 H 397.829 0.752624 -3.8114 0
M  V30 4423 H 399.501 -1.82202 -4.23792 0
M  V30 4424 H 397.744 -1.77695 -3.95736 0
M  V30 4425 H 398.415 -1.04815 -5.41957 0
M  V30 4426 H 400.891 0.394528 -4.14225 0
M  V30 4427 H 399.767 0.960859 -5.40425 0
M  V30 4428 H 400.028 1.9427 -3.97129 0
M  V30 4429 N 399.087 1.5561 -0.249682 0
M  V30 4430 C 400.336 1.98187 0.37479 0
M  V30 4431 C 400.649 1.14111 1.58865 0
M  V30 4432 O 401.855 1.46714 2.28445 0
M  V30 4433 C 400.311 3.52661 0.718192 0
M  V30 4434 C 399.919 4.45481 -0.474428 0
M  V30 4435 C 401.663 4.03888 1.3067 0
M  V30 4436 C 399.57 5.91303 -0.107026 0
M  V30 4437 H 398.5 0.740159 0.143808 0
M  V30 4438 H 401.151 1.80125 -0.350336 0
M  V30 4439 H 399.533 3.66429 1.50152 0
M  V30 4440 H 400.707 4.43473 -1.25172 0
M  V30 4441 H 399.022 4.04751 -0.978052 0
M  V30 4442 H 401.619 5.10358 1.59496 0
M  V30 4443 H 401.962 3.51401 2.23211 0
M  V30 4444 H 402.495 3.93457 0.586211 0
M  V30 4445 H 399.234 6.47833 -0.999642 0
M  V30 4446 H 398.754 5.9644 0.634013 0
M  V30 4447 H 400.433 6.46258 0.309807 0
M  V30 4448 N 400.565 -0.0233959 1.57583 0
M  V30 4449 C 401.495 -1.02162 2.09965 0
M  V30 4450 C 402.476 -1.3735 1.00344 0
M  V30 4451 O 403.661 -1.46135 1.27899 0
M  V30 4452 C 400.791 -2.32081 2.58371 0
M  V30 4453 C 399.745 -2.1112 3.72307 0
M  V30 4454 C 399.071 -3.46848 4.06941 0
M  V30 4455 C 400.371 -1.49276 5.00514 0
M  V30 4456 H 402.065 -0.585557 2.93618 0
M  V30 4457 H 399.611 -0.280218 1.41247 0
M  V30 4458 H 401.564 -3.02249 2.93639 0
M  V30 4459 H 400.288 -2.77758 1.71808 0
M  V30 4460 H 398.947 -1.43384 3.37397 0
M  V30 4461 H 398.595 -3.90184 3.17436 0
M  V30 4462 H 398.295 -3.33646 4.83688 0
M  V30 4463 H 399.819 -4.18369 4.44747 0
M  V30 4464 H 401.233 -2.09368 5.33702 0
M  V30 4465 H 399.63 -1.46632 5.8191 0
M  V30 4466 H 400.7 -0.459217 4.82721 0
M  V30 4467 N 402.043 -1.548 -0.295768 0
M  V30 4468 C 403.006 -1.85363 -1.34808 0
M  V30 4469 C 404.006 -0.726817 -1.43436 0
M  V30 4470 O 405.196 -0.995088 -1.42981 0
M  V30 4471 C 402.328 -2.03859 -2.73229 0
M  V30 4472 H 403.521 -2.7941 -1.08949 0
M  V30 4473 H 401.074 -1.46942 -0.532702 0
M  V30 4474 H 401.809 -1.12117 -3.04303 0
M  V30 4475 H 401.594 -2.8588 -2.68356 0
M  V30 4476 H 403.084 -2.28857 -3.49305 0
M  V30 4477 N 403.521 0.559213 -1.47345 0
M  V30 4478 C 404.769 1.31388 -1.53563 0
M  V30 4479 C 405.09 1.93985 -0.198678 0
M  V30 4480 O 404.36 1.79825 0.777167 0
M  V30 4481 H 402.94 0.487901 -0.565652 0
M  V30 4482 H 405.602 0.65315 -1.8363 0
M  V30 4483 H 404.698 2.10844 -2.30111 0
M  V30 4484 N 404.999 1.35443 0.805782 0
M  V30 4485 C 406.248 1.28097 1.55801 0
M  V30 4486 C 406.561 -0.142428 1.95081 0
M  V30 4487 O 407.767 -0.33817 2.69386 0
M  V30 4488 C 406.223 2.24653 2.81174 0
M  V30 4489 C 405.831 3.72342 2.49129 0
M  V30 4490 C 407.575 2.2625 3.59181 0
M  V30 4491 C 405.482 4.60719 3.70799 0
M  V30 4492 H 404.412 0.475937 0.584808 0
M  V30 4493 H 407.063 1.60712 0.885661 0
M  V30 4494 H 405.445 1.85011 3.50124 0
M  V30 4495 H 406.619 4.20624 1.88181 0
M  V30 4496 H 404.934 3.73361 1.84366 0
M  V30 4497 H 407.531 2.89495 4.49552 0
M  V30 4498 H 407.874 1.26647 3.96568 0
M  V30 4499 H 408.407 2.64426 2.97193 0
M  V30 4500 H 405.146 5.61324 3.3852 0
M  V30 4501 H 404.666 4.17163 4.3097 0
M  V30 4502 H 406.345 4.76182 4.38018 0
M  V30 4503 N 406.477 -1.02803 1.19454 0
M  V30 4504 C 407.725 -1.75869 0.995722 0
M  V30 4505 C 408.046 -1.89138 -0.474543 0
M  V30 4506 O 407.316 -1.42558 -1.34366 0
M  V30 4507 H 405.896 -0.651511 0.365435 0
M  V30 4508 H 408.558 -1.24004 1.50363 0
M  V30 4509 H 407.654 -2.76661 1.44447 0
M  V30 4510 N 407.956 -0.998596 -1.21925 0
M  V30 4511 C 409.205 -0.673085 -1.90138 0
M  V30 4512 C 409.518 0.79895 -1.78539 0
M  V30 4513 O 410.724 1.23628 -2.4172 0
M  V30 4514 C 409.18 -1.15339 -3.40918 0
M  V30 4515 C 408.788 -2.65106 -3.61141 0
M  V30 4516 C 410.532 -0.902476 -4.14796 0
M  V30 4517 C 408.439 -3.0671 -5.05651 0
M  V30 4518 H 407.369 -0.248057 -0.712028 0
M  V30 4519 H 410.02 -1.20891 -1.38049 0
M  V30 4520 H 408.402 -0.545658 -3.92223 0
M  V30 4521 H 409.576 -3.31274 -3.20304 0
M  V30 4522 H 407.891 -2.88142 -3.00605 0
M  V30 4523 H 410.488 -1.18895 -5.21314 0
M  V30 4524 H 410.831 0.161349 -4.15987 0
M  V30 4525 H 411.364 -1.47269 -3.69536 0
M  V30 4526 H 408.103 -4.12292 -5.09603 0
M  V30 4527 H 407.623 -2.45249 -5.47369 0
M  V30 4528 H 409.302 -2.9833 -5.74115 0
M  V30 4529 N 409.434 1.37368 -0.772513 0
M  V30 4530 C 410.681 1.99673 -0.337182 0
M  V30 4531 C 411.009 1.61324 1.0865 0
M  V30 4532 O 410.264 0.851377 1.7621 0
M  V30 4533 C 410.563 3.54817 -0.428876 0
M  V30 4534 C 410.229 4.12936 -1.81092 0
M  V30 4535 C 408.891 4.28523 -2.1891 0
M  V30 4536 C 411.243 4.44801 -2.71664 0
M  V30 4537 C 408.571 4.73277 -3.46735 0
M  V30 4538 C 410.923 4.90981 -3.98899 0
M  V30 4539 C 409.587 5.04773 -4.36761 0
M  V30 4540 H 408.857 0.730656 -0.123384 0
M  V30 4541 H 411.504 1.64124 -0.986686 0
M  V30 4542 H 409.809 3.90618 0.304167 0
M  V30 4543 H 411.506 4.00933 -0.0733334 0
M  V30 4544 H 408.096 4.01233 -1.50699 0
M  V30 4545 H 412.28 4.32344 -2.43706 0
M  V30 4546 H 407.536 4.82142 -3.75964 0
M  V30 4547 H 411.71 5.14603 -4.69208 0
M  V30 4548 H 409.337 5.39211 -5.35868 0
M  V30 4549 N 410.912 0.523116 1.48665 0
M  V30 4550 C 411.842 -0.23231 2.32342 0
M  V30 4551 C 412.823 -0.941637 1.41659 0
M  V30 4552 O 414.008 -0.928751 1.70552 0
M  V30 4553 C 411.138 -1.28387 3.22698 0
M  V30 4554 C 410.092 -0.693098 4.22351 0
M  V30 4555 C 409.418 -1.8468 5.01794 0
M  V30 4556 C 410.718 0.33063 5.21252 0
M  V30 4557 H 412.412 0.466192 2.95748 0
M  V30 4558 H 409.958 0.225643 1.42221 0
M  V30 4559 H 411.911 -1.82024 3.80059 0
M  V30 4560 H 410.635 -2.01186 2.57278 0
M  V30 4561 H 409.294 -0.178299 3.66166 0
M  V30 4562 H 408.942 -2.56301 4.32804 0
M  V30 4563 H 408.642 -1.45747 5.69238 0
M  V30 4564 H 410.166 -2.38709 5.62006 0
M  V30 4565 H 411.58 -0.118407 5.73178 0
M  V30 4566 H 409.977 0.636974 5.9671 0
M  V30 4567 H 411.047 1.23883 4.68808 0
M  V30 4568 N 412.39 -1.55475 0.257931 0
M  V30 4569 C 413.337 -2.21837 -0.636939 0
M  V30 4570 C 414.307 -1.18596 -1.16294 0
M  V30 4571 O 415.492 -1.47081 -1.21539 0
M  V30 4572 C 412.632 -2.9301 -1.82317 0
M  V30 4573 C 411.745 -4.10931 -1.33265 0
M  V30 4574 C 410.88 -4.69791 -2.47931 0
M  V30 4575 C 409.919 -5.7994 -1.95796 0
M  V30 4576 N 409.056 -6.32935 -3.0387 0
M  V30 4577 H 413.896 -2.9793 -0.0643591 0
M  V30 4578 H 411.433 -1.47086 -0.0200031 0
M  V30 4579 H 413.391 -3.3248 -2.52018 0
M  V30 4580 H 412.021 -2.1937 -2.36805 0
M  V30 4581 H 411.073 -3.76699 -0.52931 0
M  V30 4582 H 412.385 -4.90417 -0.910654 0
M  V30 4583 H 411.539 -5.11892 -3.25656 0
M  V30 4584 H 410.278 -3.89545 -2.93438 0
M  V30 4585 H 409.283 -5.37305 -1.16546 0
M  V30 4586 H 410.508 -6.62043 -1.51246 0
M  V30 4587 H 408.454 -5.55591 -3.48791 0
M  V30 4588 H 408.371 -7.07645 -2.66035 0
M  V30 4589 H 409.639 -6.79695 -3.81621 0
M  V30 4590 N 413.868 0.0150385 -1.57593 0
M  V30 4591 C 415.096 0.714395 -1.94175 0
M  V30 4592 C 415.511 1.68135 -0.858841 0
M  V30 4593 O 414.868 1.81766 0.163567 0
M  V30 4594 C 414.919 1.45933 -3.30735 0
M  V30 4595 O 414.64 0.531167 -4.34868 0
M  V30 4596 C 416.141 2.25456 -3.81686 0
M  V30 4597 H 413.361 0.199923 -0.640525 0
M  V30 4598 H 415.905 -0.0316096 -2.04476 0
M  V30 4599 H 414.06 2.15709 -3.21789 0
M  V30 4600 H 414.474 1.05509 -5.13778 0
M  V30 4601 H 415.948 2.731 -4.79709 0
M  V30 4602 H 416.425 3.07485 -3.13607 0
M  V30 4603 H 417.031 1.60727 -3.9376 0
M  V30 4604 N 415.346 1.54954 0.287554 0
M  V30 4605 C 416.276 1.89839 1.35954 0
M  V30 4606 C 417.257 0.758675 1.52244 0
M  V30 4607 O 418.442 1.01557 1.65529 0
M  V30 4608 C 415.572 2.15753 2.72154 0
M  V30 4609 C 414.526 3.3159 2.70614 0
M  V30 4610 C 413.852 3.42952 4.10229 0
M  V30 4611 C 415.152 4.68359 2.31165 0
M  V30 4612 H 416.846 2.79625 1.07007 0
M  V30 4613 H 414.392 1.3454 0.513316 0
M  V30 4614 H 416.345 2.38743 3.47246 0
M  V30 4615 H 415.069 1.22752 3.02654 0
M  V30 4616 H 413.728 3.08545 1.97979 0
M  V30 4617 H 413.376 2.47443 4.37928 0
M  V30 4618 H 413.076 4.20826 4.10097 0
M  V30 4619 H 414.6 3.68218 4.87081 0
M  V30 4620 H 416.014 4.9099 2.95976 0
M  V30 4621 H 414.411 5.49044 2.42221 0
M  V30 4622 H 415.481 4.68165 1.26291 0
M  V30 4623 N 416.824 -0.551391 1.4764 0
M  V30 4624 C 417.734 -1.68525 1.63207 0
M  V30 4625 C 418.75 -1.6621 0.514815 0
M  V30 4626 O 419.926 -1.85551 0.783113 0
M  V30 4627 C 416.991 -3.05025 1.64805 0
M  V30 4628 C 416.052 -3.18362 2.88 0
M  V30 4629 C 415.285 -4.4835 2.89513 0
M  V30 4630 O 415.508 -5.34163 2.00065 0
M  V30 4631 O 414.442 -4.65602 3.81443 0
M  V30 4632 H 418.268 -1.58333 2.59161 0
M  V30 4633 H 415.853 -0.722063 1.30792 0
M  V30 4634 H 417.735 -3.86245 1.68502 0
M  V30 4635 H 416.41 -3.15587 0.720197 0
M  V30 4636 H 415.317 -2.36518 2.89845 0
M  V30 4637 H 416.65 -3.12707 3.80099 0
M  V30 4638 N 418.302 -1.35869 -0.798587 0
M  V30 4639 C 419.551 -1.28921 -1.5512 0
M  V30 4640 C 419.864 0.13208 -1.95154 0
M  V30 4641 O 421.07 0.323879 -2.69561 0
M  V30 4642 C 419.526 -2.26141 -2.79979 0
M  V30 4643 C 419.134 -3.73658 -2.47151 0
M  V30 4644 C 420.878 -2.28152 -3.57976 0
M  V30 4645 C 418.785 -4.62679 -3.6835 0
M  V30 4646 H 417.715 -0.479031 -0.582276 0
M  V30 4647 H 420.366 -1.61179 -0.877125 0
M  V30 4648 H 418.748 -1.86865 -3.49138 0
M  V30 4649 H 419.922 -4.21616 -1.85947 0
M  V30 4650 H 418.237 -3.74333 -1.82383 0
M  V30 4651 H 420.834 -2.91875 -4.4801 0
M  V30 4652 H 421.177 -1.28748 -3.95891 0
M  V30 4653 H 421.71 -2.65998 -2.95787 0
M  V30 4654 H 418.449 -5.63111 -3.35538 0
M  V30 4655 H 417.969 -4.19442 -4.28752 0
M  V30 4656 H 419.648 -4.78498 -4.35487 0
M  V30 4657 N 419.78 1.02168 -1.19998 0
M  V30 4658 C 421.027 1.75685 -1.00702 0
M  V30 4659 C 421.355 1.88947 0.461426 0
M  V30 4660 O 420.61 1.40832 1.35885 0
M  V30 4661 C 420.909 3.18081 -1.62969 0
M  V30 4662 C 420.575 3.24809 -3.12746 0
M  V30 4663 C 419.237 3.26352 -3.53621 0
M  V30 4664 C 421.589 3.23379 -4.08749 0
M  V30 4665 C 418.917 3.2413 -4.89036 0
M  V30 4666 C 421.269 3.22698 -5.44104 0
M  V30 4667 C 419.933 3.22542 -5.84399 0
M  V30 4668 H 419.203 0.642877 -0.368496 0
M  V30 4669 H 421.85 1.19865 -1.49348 0
M  V30 4670 H 420.155 3.77027 -1.06573 0
M  V30 4671 H 421.852 3.73648 -1.45561 0
M  V30 4672 H 418.442 3.2434 -2.80181 0
M  V30 4673 H 422.626 3.21361 -3.78207 0
M  V30 4674 H 417.882 3.22338 -5.19527 0
M  V30 4675 H 422.056 3.20543 -6.18244 0
M  V30 4676 H 419.683 3.20575 -6.89301 0
M  V30 4677 N 421.258 1.00505 1.21394 0
M  V30 4678 C 422.168 0.574806 2.27449 0
M  V30 4679 C 423.184 -0.382206 1.6975 0
M  V30 4680 O 424.36 -0.246027 1.99892 0
M  V30 4681 C 421.425 -0.0917414 3.46579 0
M  V30 4682 C 420.486 0.909758 4.1955 0
M  V30 4683 C 419.719 0.274924 5.32991 0
M  V30 4684 O 419.942 -0.928254 5.62796 0
M  V30 4685 O 418.876 0.985877 5.93771 0
M  V30 4686 H 422.702 1.45744 2.66444 0
M  V30 4687 H 420.287 0.773923 1.27792 0
M  V30 4688 H 422.169 -0.464551 4.18832 0
M  V30 4689 H 420.844 -0.948755 3.09484 0
M  V30 4690 H 419.751 1.33372 3.49518 0
M  V30 4691 H 421.084 1.73636 4.60555 0
M  V30 4692 N 422.737 -1.36956 0.779787 0
M  V30 4693 C 423.684 -2.30175 0.169697 0
M  V30 4694 C 424.654 -1.51501 -0.68094 0
M  V30 4695 O 425.839 -1.80042 -0.631629 0
M  V30 4696 C 422.979 -3.37985 -0.697131 0
M  V30 4697 C 422.092 -4.31661 0.170992 0
M  V30 4698 C 421.227 -5.2655 -0.701298 0
M  V30 4699 C 420.266 -6.11867 0.168869 0
M  V30 4700 N 419.403 -6.98973 -0.661855 0
M  V30 4701 H 424.243 -2.81767 0.970135 0
M  V30 4702 H 421.78 -1.38699 0.489994 0
M  V30 4703 H 423.738 -3.99128 -1.2146 0
M  V30 4704 H 422.368 -2.87739 -1.46309 0
M  V30 4705 H 421.42 -3.71756 0.80634 0
M  V30 4706 H 422.732 -4.91644 0.841875 0
M  V30 4707 H 421.886 -5.92937 -1.28494 0
M  V30 4708 H 420.625 -4.66998 -1.40584 0
M  V30 4709 H 419.63 -5.44452 0.764986 0
M  V30 4710 H 420.855 -6.73493 0.870863 0
M  V30 4711 H 418.801 -6.41941 -1.35086 0
M  V30 4712 H 418.718 -7.55984 -0.0484447 0
M  V30 4713 H 419.986 -7.6974 -1.22963 0
M  V30 4714 N 424.215 -0.530993 -1.48385 0
M  V30 4715 C 425.492 0.0671788 -1.95485 0
M  V30 4716 C 425.872 1.51191 -1.47324 0
M  V30 4717 O 425.22 2.17507 -0.700202 0
M  V30 4718 C 425.43 -0.0511206 -3.48963 0
M  V30 4719 C 426.778 0.107632 -4.24464 0
M  V30 4720 O 427.802 0.0226248 -3.56193 0
M  V30 4721 O 426.661 0.285972 -5.45751 0
M  V30 4722 H 423.755 0.0787365 -0.823243 0
M  V30 4723 H 426.301 -0.595662 -1.58902 0
M  V30 4724 H 425.073 -1.05747 -3.7674 0
M  V30 4725 H 424.696 0.650525 -3.92242 0
M  V30 4726 N 425.693 1.55336 -0.266172 0
M  V30 4727 C 426.933 2.01303 0.354459 0
M  V30 4728 C 427.297 1.15046 1.53715 0
M  V30 4729 O 428.498 1.50554 2.22681 0
M  V30 4730 C 426.769 3.49748 0.735579 0
M  V30 4731 S 428.328 4.1771 1.34401 0
M  V30 4732 H 425.146 0.702333 0.110674 0
M  V30 4733 H 427.748 1.91653 -0.385916 0
M  V30 4734 H 426.452 4.10181 -0.134196 0
M  V30 4735 H 425.983 3.63364 1.50764 0
M  V30 4736 H 427.998 4.20594 2.63278 0
M  V30 4737 N 427.171 -0.0066808 1.57599 0
M  V30 4738 C 428.101 -0.999296 2.11036 0
M  V30 4739 C 429.082 -1.36278 1.01795 0
M  V30 4740 O 430.267 -1.4477 1.29442 0
M  V30 4741 C 427.397 -2.29328 2.60818 0
M  V30 4742 C 426.351 -2.07159 3.74525 0
M  V30 4743 C 425.677 -3.42512 4.10596 0
M  V30 4744 C 426.977 -1.43959 5.02069 0
M  V30 4745 H 428.671 -0.554382 2.94223 0
M  V30 4746 H 426.217 -0.265221 1.41536 0
M  V30 4747 H 428.17 -2.99117 2.96828 0
M  V30 4748 H 426.894 -2.7592 1.74745 0
M  V30 4749 H 425.553 -1.39797 3.38899 0
M  V30 4750 H 425.201 -3.86795 3.21556 0
M  V30 4751 H 424.901 -3.28498 4.87199 0
M  V30 4752 H 426.425 -4.13628 4.4916 0
M  V30 4753 H 427.839 -2.03696 5.35893 0
M  V30 4754 H 426.236 -1.40452 5.83432 0
M  V30 4755 H 427.306 -0.407992 4.83181 0
M  V30 4756 N 428.649 -1.55105 -0.279332 0
M  V30 4757 C 429.898 -1.74618 -1.00952 0
M  V30 4758 C 430.211 -0.551096 -1.87676 0
M  V30 4759 O 431.417 -0.628507 -2.64125 0
M  V30 4760 C 429.873 -3.09025 -1.84476 0
M  V30 4761 C 429.481 -4.36081 -1.0265 0
M  V30 4762 C 431.225 -3.37891 -2.56963 0
M  V30 4763 C 429.132 -5.6153 -1.85576 0
M  V30 4764 H 428.062 -0.650868 -0.38064 0
M  V30 4765 H 430.713 -1.81569 -0.265475 0
M  V30 4766 H 429.095 -2.96095 -2.62952 0
M  V30 4767 H 430.269 -4.59909 -0.286354 0
M  V30 4768 H 428.584 -4.14312 -0.416464 0
M  V30 4769 H 431.181 -4.28822 -3.19399 0
M  V30 4770 H 431.524 -2.57737 -3.26921 0
M  V30 4771 H 432.057 -3.5189 -1.85522 0
M  V30 4772 H 428.796 -6.44413 -1.2005 0
M  V30 4773 H 428.316 -5.41854 -2.57204 0
M  V30 4774 H 429.995 -5.99594 -2.43096 0
M  V30 4775 N 430.127 0.543554 -1.4793 0
M  V30 4776 C 431.373 1.30201 -1.55485 0
M  V30 4777 C 431.706 1.92925 -0.222201 0
M  V30 4778 O 430.981 1.78586 0.77053 0
M  V30 4779 C 431.264 2.40174 -2.68307 0
M  V30 4780 C 431.117 1.8223 -4.11233 0
M  V30 4781 C 432.436 3.42024 -2.76961 0
M  V30 4782 H 429.555 0.472036 -0.565996 0
M  V30 4783 H 432.197 0.606914 -1.80046 0
M  V30 4784 H 430.347 2.99463 -2.47495 0
M  V30 4785 H 432.019 1.27096 -4.43446 0
M  V30 4786 H 430.262 1.12832 -4.18869 0
M  V30 4787 H 430.933 2.61793 -4.85972 0
M  V30 4788 H 433.409 2.92672 -2.95774 0
M  V30 4789 H 432.285 4.16383 -3.57654 0
M  V30 4790 H 432.546 4.0173 -1.84568 0
M  V30 4791 N 431.605 1.3629 0.791371 0
M  V30 4792 C 432.83 1.33726 1.58531 0
M  V30 4793 C 433.255 -0.0794933 1.87932 0
M  V30 4794 O 432.613 -1.05087 1.47738 0
M  V30 4795 C 432.661 2.16425 2.88431 0
M  V30 4796 O 431.765 1.5554 3.81944 0
M  V30 4797 H 431.106 0.457793 0.480959 0
M  V30 4798 H 433.636 1.79547 0.981031 0
M  V30 4799 H 433.646 2.28933 3.37718 0
M  V30 4800 H 432.321 3.19415 2.66359 0
M  V30 4801 H 430.898 1.51961 3.40532 0
M  V30 4802 N 433.083 -1.0153 1.20538 0
M  V30 4803 C 434.36 -1.72327 0.925343 0
M  V30 4804 C 434.74 -2.03383 -0.565547 0
M  V30 4805 O 434.088 -1.69934 -1.52757 0
M  V30 4806 C 434.298 -2.9902 1.79967 0
M  V30 4807 C 435.646 -3.72258 2.04228 0
M  V30 4808 O 436.67 -3.08979 1.77231 0
M  V30 4809 O 435.529 -4.86053 2.4983 0
M  V30 4810 H 432.623 -0.751099 0.346092 0
M  V30 4811 H 435.169 -1.07366 1.31417 0
M  V30 4812 H 433.941 -2.72402 2.80915 0
M  V30 4813 H 433.564 -3.71721 1.41099 0
M  V30 4814 N 434.561 -1.01147 -1.20859 0
M  V30 4815 C 435.807 -0.708598 -1.90658 0
M  V30 4816 C 436.162 0.753069 -1.7705 0
M  V30 4817 O 435.455 1.53952 -1.14059 0
M  V30 4818 C 435.649 -1.0727 -3.40922 0
M  V30 4819 C 435.478 -2.56821 -3.69152 0
M  V30 4820 C 434.248 -3.23524 -3.8815 0
M  V30 4821 C 436.446 -3.54997 -3.72131 0
M  V30 4822 N 434.428 -4.62359 -4.03853 0
M  V30 4823 C 435.799 -4.79371 -3.93196 0
M  V30 4824 C 437.854 -3.49042 -3.55069 0
M  V30 4825 C 436.557 -5.98512 -3.98969 0
M  V30 4826 C 438.583 -4.67579 -3.6211 0
M  V30 4827 C 437.945 -5.9076 -3.83643 0
M  V30 4828 H 434.044 -0.31088 -0.71755 0
M  V30 4829 H 436.628 -1.29526 -1.45366 0
M  V30 4830 H 434.799 -0.51443 -3.84978 0
M  V30 4831 H 436.531 -0.723891 -3.98173 0
M  V30 4832 H 433.286 -2.73958 -3.86321 0
M  V30 4833 H 433.71 -5.34427 -4.15592 0
M  V30 4834 H 438.352 -2.54808 -3.37391 0
M  V30 4835 H 436.07 -6.93132 -4.15444 0
M  V30 4836 H 439.656 -4.64581 -3.50222 0
M  V30 4837 H 438.536 -6.8095 -3.88944 0
M  V30 4838 N 436.039 1.36541 -0.78704 0
M  V30 4839 C 437.287 1.98911 -0.357633 0
M  V30 4840 C 437.608 1.62778 1.07371 0
M  V30 4841 O 436.878 0.900612 1.73971 0
M  V30 4842 H 435.458 0.735734 -0.129246 0
M  V30 4843 H 438.12 1.66776 -1.00855 0
M  V30 4844 H 437.216 3.08874 -0.447549 0
M  V30 4845 N 437.518 0.538854 1.48102 0
M  V30 4846 C 438.448 -0.207654 2.32575 0
M  V30 4847 C 439.429 -0.926559 1.4265 0
M  V30 4848 O 440.614 -0.91061 1.71527 0
M  V30 4849 C 437.744 -1.24957 3.24042 0
M  V30 4850 C 436.698 -0.648263 4.23062 0
M  V30 4851 C 436.024 -1.79348 5.03725 0
M  V30 4852 C 437.324 0.385897 5.20872 0
M  V30 4853 H 439.018 0.497534 2.95237 0
M  V30 4854 H 436.564 0.240715 1.41974 0
M  V30 4855 H 438.517 -1.77983 3.81969 0
M  V30 4856 H 437.241 -1.98446 2.59397 0
M  V30 4857 H 435.9 -0.139452 3.66335 0
M  V30 4858 H 435.548 -2.51696 4.35498 0
M  V30 4859 H 435.248 -1.39702 5.70751 0
M  V30 4860 H 436.772 -2.32735 5.64506 0
M  V30 4861 H 438.186 -0.057607 5.73271 0
M  V30 4862 H 436.583 0.700227 5.96001 0
M  V30 4863 H 437.653 1.28848 4.67468 0
M  V30 4864 N 438.996 -1.55193 0.274407 0
M  V30 4865 C 440.412 -1.59401 -0.0797543 0
M  V30 4866 C 440.612 -1.29162 -1.54659 0
M  V30 4867 O 439.668 -1.05215 -2.29534 0
M  V30 4868 C 440.981 -2.99257 0.294238 0
M  V30 4869 C 442.529 -3.12072 0.240796 0
M  V30 4870 C 443.004 -4.54194 0.589218 0
M  V30 4871 N 444.495 -4.60033 0.540744 0
M  V30 4872 C 445.23 -5.68027 0.783147 0
M  V30 4873 N 444.726 -6.8417 1.09013 0
M  V30 4874 N 446.519 -5.57572 0.711993 0
M  V30 4875 H 438.67 -1.73113 1.23067 0
M  V30 4876 H 440.933 -0.807197 0.497129 0
M  V30 4877 H 440.639 -3.26217 1.31435 0
M  V30 4878 H 440.513 -3.75427 -0.365281 0
M  V30 4879 H 442.9 -2.84877 -0.770024 0
M  V30 4880 H 442.981 -2.38117 0.934563 0
M  V30 4881 H 442.625 -4.82115 1.59772 0
M  V30 4882 H 442.555 -5.26448 -0.126331 0
M  V30 4883 H 445.046 -3.76599 0.313327 0
M  V30 4884 H 445.359 -7.6243 1.26178 0
M  V30 4885 H 443.704 -6.85787 1.12789 0
M  V30 4886 H 446.895 -4.65714 0.472014 0
M  V30 4887 H 447.068 -6.41659 0.90429 0
M  V30 4888 N 440.474 -0.00167713 -1.576 0
M  V30 4889 C 441.384 1.00548 -2.1196 0
M  V30 4890 C 442.4 1.3758 -1.06526 0
M  V30 4891 O 443.576 1.46278 -1.38436 0
M  V30 4892 C 440.641 2.27809 -2.6135 0
M  V30 4893 C 439.702 1.97074 -3.81393 0
M  V30 4894 C 438.935 3.18267 -4.28417 0
M  V30 4895 O 439.158 4.30009 -3.74765 0
M  V30 4896 O 438.092 3.02167 -5.20556 0
M  V30 4897 H 441.918 0.573373 -2.98238 0
M  V30 4898 H 439.503 0.217255 -1.47812 0
M  V30 4899 H 441.385 3.02568 -2.93309 0
M  V30 4900 H 440.06 2.70254 -1.78169 0
M  V30 4901 H 438.967 1.19785 -3.54404 0
M  V30 4902 H 440.3 1.59464 -4.65652 0
M  V30 4903 N 441.952 1.55251 0.271103 0
M  V30 4904 C 443.2 1.75599 1.00047 0
M  V30 4905 C 443.521 0.561188 1.8675 0
M  V30 4906 O 442.791 -0.423846 1.9126 0
M  V30 4907 H 441.371 0.647562 0.372387 0
M  V30 4908 H 444.033 1.92656 0.294876 0
M  V30 4909 H 443.129 2.65766 1.6363 0
M  V30 4910 N 443.43 -0.535701 1.48216 0
M  V30 4911 C 444.676 -1.29375 1.56173 0
M  V30 4912 C 445.009 -1.92804 0.232429 0
M  V30 4913 O 444.284 -1.78992 -0.761048 0
M  V30 4914 C 444.567 -2.38747 2.69577 0
M  V30 4915 C 444.42 -1.80046 4.12193 0
M  V30 4916 C 445.739 -3.40551 2.78771 0
M  V30 4917 H 442.858 -0.469027 0.568491 0
M  V30 4918 H 445.5 -0.597358 1.80365 0
M  V30 4919 H 443.65 -2.98147 2.4908 0
M  V30 4920 H 445.322 -1.24742 4.44114 0
M  V30 4921 H 443.565 -1.10609 4.19462 0
M  V30 4922 H 444.236 -2.59212 4.87353 0
M  V30 4923 H 446.712 -2.91099 2.97322 0
M  V30 4924 H 445.588 -4.1448 3.59857 0
M  V30 4925 H 445.849 -4.00746 1.86696 0
M  V30 4926 N 444.908 -1.36708 -0.784132 0
M  V30 4927 C 445.838 -1.34153 -1.91116 0
M  V30 4928 C 446.819 -0.212121 -1.68772 0
M  V30 4929 O 448.004 -0.410581 -1.8981 0
M  V30 4930 C 445.134 -1.13535 -3.28218 0
M  V30 4931 C 444.088 -2.23356 -3.65097 0
M  V30 4932 C 443.414 -1.87875 -5.00607 0
M  V30 4933 C 444.714 -3.65473 -3.73131 0
M  V30 4934 H 446.408 -2.28459 -1.93512 0
M  V30 4935 H 443.954 -1.09973 -0.929618 0
M  V30 4936 H 445.907 -1.10381 -4.06687 0
M  V30 4937 H 444.631 -0.156804 -3.26223 0
M  V30 4938 H 443.29 -2.25645 -2.88929 0
M  V30 4939 H 442.938 -0.885814 -4.95139 0
M  V30 4940 H 442.638 -2.61406 -5.26252 0
M  V30 4941 H 444.162 -1.86286 -5.81489 0
M  V30 4942 H 445.576 -3.65382 -4.41779 0
M  V30 4943 H 443.973 -4.37953 -4.10265 0
M  V30 4944 H 445.043 -3.99995 -2.74102 0
M  V30 4945 N 446.386 1.0089 -1.21074 0
M  V30 4946 C 447.632 1.74866 -1.02712 0
M  V30 4947 C 447.965 1.89178 0.438787 0
M  V30 4948 O 447.24 1.42325 1.32567 0
M  V30 4949 C 447.523 3.16347 -1.72036 0
M  V30 4950 C 447.376 3.09782 -3.26121 0
M  V30 4951 C 448.695 4.15187 -1.45973 0
M  V30 4952 H 445.814 0.634736 -0.374539 0
M  V30 4953 H 448.456 1.17646 -1.49196 0
M  V30 4954 H 446.606 3.65201 -1.32517 0
M  V30 4955 H 448.278 2.68673 -3.74983 0
M  V30 4956 H 446.521 2.46982 -3.56626 0
M  V30 4957 H 447.192 4.09829 -3.6979 0
M  V30 4958 H 449.668 3.75022 -1.80272 0
M  V30 4959 H 448.544 5.12331 -1.96999 0
M  V30 4960 H 448.805 4.40386 -0.388924 0
M  V30 4961 N 447.864 1.01787 1.20321 0
M  V30 4962 C 449.089 0.727009 1.9424 0
M  V30 4963 C 449.514 -0.706179 1.74341 0
M  V30 4964 O 448.872 -1.48609 1.03852 0
M  V30 4965 C 448.92 1.06958 3.44372 0
M  V30 4966 O 448.024 0.181983 4.11998 0
M  V30 4967 H 447.365 0.269626 0.606793 0
M  V30 4968 H 449.895 1.36158 1.52716 0
M  V30 4969 H 449.905 1.02182 3.94997 0
M  V30 4970 H 448.58 2.11378 3.58179 0
M  V30 4971 H 447.157 0.287378 3.71791 0
M  V30 4972 N 449.342 -1.36122 0.79427 0
M  V30 4973 C 450.252 -2.33769 0.197296 0
M  V30 4974 C 451.268 -1.61276 -0.653153 0
M  V30 4975 O 452.444 -1.9323 -0.5678 0
M  V30 4976 C 449.509 -3.40474 -0.654098 0
M  V30 4977 C 448.57 -4.28759 0.215411 0
M  V30 4978 C 447.803 -5.30368 -0.595443 0
M  V30 4979 O 448.026 -5.40211 -1.83107 0
M  V30 4980 O 446.96 -6.019 0.00721351 0
M  V30 4981 H 450.786 -2.86597 1.00478 0
M  V30 4982 H 448.371 -1.38676 0.555818 0
M  V30 4983 H 450.253 -4.05703 -1.13944 0
M  V30 4984 H 448.928 -2.89937 -1.43938 0
M  V30 4985 H 447.835 -3.66554 0.747615 0
M  V30 4986 H 449.168 -4.82661 0.964332 0
M  V30 4987 N 450.82 -0.546701 -1.47814 0
M  V30 4988 C 452.066 -0.0187684 -2.02791 0
M  V30 4989 C 452.399 1.32338 -1.42128 0
M  V30 4990 O 451.674 1.85867 -0.573023 0
M  V30 4991 C 451.957 0.0854985 -3.59998 0
M  V30 4992 C 451.81 -1.283 -4.31114 0
M  V30 4993 C 453.129 0.80412 -4.32691 0
M  V30 4994 H 450.248 -0.0082946 -0.736953 0
M  V30 4995 H 452.89 -0.706962 -1.76358 0
M  V30 4996 H 451.04 0.671609 -3.82651 0
M  V30 4997 H 452.712 -1.91151 -4.19832 0
M  V30 4998 H 450.955 -1.86049 -3.91878 0
M  V30 4999 H 451.626 -1.16287 -5.39612 0
M  V30 5000 H 454.102 0.306576 -4.14969 0
M  V30 5001 H 452.978 0.846011 -5.42341 0
M  V30 5002 H 453.239 1.85802 -4.01161 0
M  V30 5003 N 452.299 1.55045 -0.282633 0
M  V30 5004 C 453.229 2.2579 0.595066 0
M  V30 5005 C 454.21 1.25074 1.15284 0
M  V30 5006 O 455.395 1.5381 1.18559 0
M  V30 5007 C 452.525 2.98472 1.77572 0
M  V30 5008 C 451.479 4.0618 1.34914 0
M  V30 5009 C 450.805 4.66477 2.6135 0
M  V30 5010 C 452.105 5.1996 0.493821 0
M  V30 5011 H 453.799 2.994 0.00505653 0
M  V30 5012 H 451.345 1.44 0.000992001 0
M  V30 5013 H 453.298 3.46677 2.39568 0
M  V30 5014 H 452.022 2.2241 2.39168 0
M  V30 5015 H 450.681 3.58797 0.752338 0
M  V30 5016 H 450.329 3.87074 3.2122 0
M  V30 5017 H 450.029 5.39207 2.33516 0
M  V30 5018 H 451.553 5.17435 3.24181 0
M  V30 5019 H 452.967 5.64172 1.01898 0
M  V30 5020 H 451.364 5.99299 0.310047 0
M  V30 5021 H 452.434 4.82462 -0.485593 0
M  V30 5022 N 453.777 0.010035 1.57597 0
M  V30 5023 C 454.724 -0.978122 2.09049 0
M  V30 5024 C 455.694 -1.33509 0.988159 0
M  V30 5025 O 456.879 -1.43172 1.26121 0
M  V30 5026 C 454.019 -2.26158 2.60666 0
M  V30 5027 C 453.132 -1.96275 3.84838 0
M  V30 5028 C 452.267 -3.18776 4.24918 0
M  V30 5029 C 451.306 -2.84625 5.41899 0
M  V30 5030 N 450.443 -3.99693 5.77226 0
M  V30 5031 H 455.283 -0.532431 2.93205 0
M  V30 5032 H 452.82 -0.251234 1.44939 0
M  V30 5033 H 454.778 -3.01202 2.88675 0
M  V30 5034 H 453.408 -2.68378 1.79369 0
M  V30 5035 H 452.46 -1.11555 3.63675 0
M  V30 5036 H 453.772 -1.67111 4.69974 0
M  V30 5037 H 452.926 -4.02157 4.54262 0
M  V30 5038 H 451.665 -3.51087 3.38511 0
M  V30 5039 H 450.67 -1.99653 5.12268 0
M  V30 5040 H 451.895 -2.53551 6.29991 0
M  V30 5041 H 449.841 -4.31882 4.93776 0
M  V30 5042 H 449.758 -3.74087 6.56959 0
M  V30 5043 H 451.026 -4.83834 6.11167 0
M  V30 5044 N 455.255 -1.55392 -0.262866 0
M  V30 5045 C 456.165 -1.92077 -1.34698 0
M  V30 5046 C 457.181 -0.819227 -1.53508 0
M  V30 5047 O 458.357 -1.11921 -1.67439 0
M  V30 5048 C 455.422 -2.19407 -2.68443 0
M  V30 5049 C 454.483 -3.42905 -2.58292 0
M  V30 5050 C 453.716 -3.68921 -3.85659 0
M  V30 5051 O 453.939 -2.97275 -4.8681 0
M  V30 5052 O 452.873 -4.62455 -3.85252 0
M  V30 5053 H 456.699 -2.84384 -1.06581 0
M  V30 5054 H 454.284 -1.42069 -0.462264 0
M  V30 5055 H 456.166 -2.38365 -3.47506 0
M  V30 5056 H 454.841 -1.30282 -2.96325 0
M  V30 5057 H 453.748 -3.29272 -1.7757 0
M  V30 5058 H 455.081 -4.32282 -2.35358 0
M  V30 5059 N 456.733 0.527833 -1.48498 0
M  V30 5060 C 457.681 1.65313 -1.63628 0
M  V30 5061 C 458.675 1.6177 -0.502676 0
M  V30 5062 O 459.881 1.66601 -0.681469 0
M  V30 5063 H 456.256 0.547518 -0.515488 0
M  V30 5064 H 458.227 1.49696 -2.58135 0
M  V30 5065 C 456.976 3.03576 -1.6952 0
M  V30 5066 H 456.299 3.06997 -2.56111 0
M  V30 5067 H 457.739 3.81923 -1.84149 0
M  V30 5068 C 456.198 3.34089 -0.43432 0
M  V30 5069 O 456.728 3.99151 0.451852 0
M  V30 5070 N 454.934 2.88991 -0.305368 0
M  V30 5071 H 454.481 2.36222 -1.02747 0
M  V30 5072 H 454.439 3.09776 0.537249 0
M  V30 5073 N 458.211 1.37122 0.776871 0
M  V30 5074 C 459.161 1.28989 1.88005 0
M  V30 5075 C 460.145 0.178765 1.59904 0
M  V30 5076 O 461.337 0.412705 1.72121 0
M  V30 5077 C 458.466 1.09402 3.25402 0
M  V30 5078 C 457.552 2.25036 3.59471 0
M  V30 5079 N 457.943 3.50407 3.64759 0
M  V30 5080 C 456.241 2.17078 3.89607 0
M  V30 5081 C 456.942 4.26628 3.95428 0
M  V30 5082 N 455.918 3.55709 4.11062 0
M  V30 5083 H 459.72 2.2394 1.90337 0
M  V30 5084 H 457.234 1.30021 0.973052 0
M  V30 5085 H 459.231 1.01661 4.04315 0
M  V30 5086 H 457.891 0.153632 3.24336 0
M  V30 5087 H 458.902 3.8438 3.47091 0
M  V30 5088 H 455.579 1.31067 3.96393 0
M  V30 5089 H 456.969 5.35107 4.06338 0
M  V30 5090 N 459.689 -1.00246 1.21608 0
M  V30 5091 C 460.914 -1.78167 1.06167 0
M  V30 5092 C 461.339 -1.84138 -0.384035 0
M  V30 5093 O 460.697 -1.28683 -1.27712 0
M  V30 5094 C 460.745 -3.19786 1.66642 0
M  V30 5095 O 459.849 -4.02153 0.913613 0
M  V30 5096 H 459.19 -0.549 0.37349 0
M  V30 5097 H 461.72 -1.25994 1.61204 0
M  V30 5098 H 461.73 -3.70451 1.70969 0
M  V30 5099 H 460.405 -3.14754 2.7185 0
M  V30 5100 H 458.982 -3.60711 0.945635 0
M  V30 5101 O 461.206 -1.15084 -1.13305 0
M  V30 5102 H 461.897 -0.875834 -1.72768 0
M  V30 END ATOM
M  V30 BEGIN BOND
M  V30 END BOND
M  V30 END CTAB
M  END
$$$$
