drugbank_target|O67135 Acetoin utilization protein (DB02546; DB04297)
 OpenBabel12092120253D

  0  0  0     0  0            999 V3000
M  V30 BEGIN CTAB
M  V30 COUNTS 6002 6073 0 0 0
M  V30 BEGIN ATOM
M  V30 1 H -0.908 1.98254 -0.117106 0
M  V30 2 N 0 1.576 0 0
M  V30 3 C 0.933 2.03868 1.02534 0
M  V30 4 C 1.911 0.928543 1.3348 0
M  V30 5 O 3.095 1.19667 1.45644 0
M  V30 6 C 0.222 2.43627 2.35294 0
M  V30 7 C -0.732 3.65373 2.2001 0
M  V30 8 S 0.101 5.13292 1.52614 0
M  V30 9 C 1.257 5.56322 2.86805 0
M  V30 10 H 1.49 2.90518 0.631377 0
M  V30 11 H -0.977 1.52953 0.210867 0
M  V30 12 H 0.981 2.67203 3.11629 0
M  V30 13 H -0.358 1.57376 2.7183 0
M  V30 14 H -1.165 3.90944 3.18086 0
M  V30 15 H -1.563 3.418 1.51819 0
M  V30 16 H 0.729 5.58782 3.83104 0
M  V30 17 H 1.672 6.56266 2.65933 0
M  V30 18 H 2.08 4.83886 2.90714 0
M  V30 19 N 1.4781 -0.272755 1.55222 0
M  V30 20 C 2.4251 -1.33716 1.88119 0
M  V30 21 C 3.3951 -1.49066 0.73271 0
M  V30 22 O 4.5801 -1.63469 0.984002 0
M  V30 23 C 1.7201 -2.69238 2.15882 0
M  V30 24 C 0.8331 -2.62108 3.43399 0
M  V30 25 C -0.0319 -3.89811 3.60861 0
M  V30 26 C -0.9929 -3.77193 4.8207 0
M  V30 27 N -1.8559 -4.9673 4.96189 0
M  V30 28 H 2.9841 -1.04962 2.78903 0
M  V30 29 H 0.5211 -0.507088 1.38083 0
M  V30 30 H 2.4791 -3.48089 2.29978 0
M  V30 31 H 1.1091 -2.96194 1.28331 0
M  V30 32 H 0.1611 -1.74967 3.37773 0
M  V30 33 H 1.4731 -2.48685 4.32386 0
M  V30 34 H 0.6271 -4.77103 3.74777 0
M  V30 35 H -0.6339 -4.06102 2.7006 0
M  V30 36 H -1.6289 -2.88284 4.68159 0
M  V30 37 H -0.4039 -3.62421 5.74307 0
M  V30 38 H -2.4579 -5.13431 4.08319 0
M  V30 39 H -2.5409 -4.85839 5.79221 0
M  V30 40 H -1.2729 -5.85594 5.1449 0
M  V30 41 N 2.9562 -1.48159 -0.537278 0
M  V30 42 C 3.9032 -1.62138 -1.64256 0
M  V30 43 C 4.8732 -0.463668 -1.59497 0
M  V30 44 O 6.0582 -0.686241 -1.78032 0
M  V30 45 C 3.1982 -1.66028 -3.02537 0
M  V30 46 C 2.3112 -2.92855 -3.17585 0
M  V30 47 C 1.4462 -2.87952 -4.46382 0
M  V30 48 C 0.4852 -4.09516 -4.54932 0
M  V30 49 N -0.3778 -4.02733 -5.75109 0
M  V30 50 H 4.4622 -2.56529 -1.51647 0
M  V30 51 H 1.9992 -1.27224 -0.738414 0
M  V30 52 H 3.9572 -1.66265 -3.82638 0
M  V30 53 H 2.5872 -0.751331 -3.13934 0
M  V30 54 H 1.6392 -3.02395 -2.30784 0
M  V30 55 H 2.9512 -3.82822 -3.19764 0
M  V30 56 H 2.1052 -2.8655 -5.34765 0
M  V30 57 H 0.8442 -1.95702 -4.46712 0
M  V30 58 H -0.1508 -4.11201 -3.64957 0
M  V30 59 H 1.0742 -5.02917 -4.56346 0
M  V30 60 H -0.9798 -3.13299 -5.76351 0
M  V30 61 H -1.0628 -4.86397 -5.78752 0
M  V30 62 H 0.2052 -4.05379 -6.65799 0
M  V30 63 N 4.4343 0.785586 -1.36625 0
M  V30 64 C 5.6803 1.54591 -1.31261 0
M  V30 65 C 6.0133 1.93906 0.106823 0
M  V30 66 O 5.2883 1.63007 1.06108 0
M  V30 67 C 5.5713 2.82038 -2.23889 0
M  V30 68 C 5.4243 2.49066 -3.74548 0
M  V30 69 C 6.7433 3.83887 -2.15217 0
M  V30 70 H 3.8623 0.560846 -0.478143 0
M  V30 71 H 6.5043 0.902278 -1.67209 0
M  V30 72 H 4.6543 3.36961 -1.93363 0
M  V30 73 H 6.3263 2.00164 -4.15611 0
M  V30 74 H 4.5693 1.81954 -3.93796 0
M  V30 75 H 5.2403 3.40109 -4.34776 0
M  V30 76 H 7.7163 3.38421 -2.42096 0
M  V30 77 H 6.5923 4.70806 -2.82193 0
M  V30 78 H 6.8533 4.27131 -1.14068 0
M  V30 79 N 5.9124 1.20967 1.01018 0
M  V30 80 C 6.8594 0.964281 2.09691 0
M  V30 81 C 7.8294 -0.107853 1.65749 0
M  V30 82 O 9.0144 0.0381987 1.90762 0
M  V30 83 C 6.1544 0.52943 3.41015 0
M  V30 84 C 5.2674 1.67043 3.98398 0
M  V30 85 C 4.4024 1.18525 5.17808 0
M  V30 86 C 3.4414 2.29892 5.67288 0
M  V30 87 N 2.5784 1.82546 6.77954 0
M  V30 88 H 7.4184 1.89463 2.30017 0
M  V30 89 H 4.9554 0.944289 1.1279 0
M  V30 90 H 6.9134 0.258588 4.16398 0
M  V30 91 H 5.5434 -0.363919 3.20742 0
M  V30 92 H 4.5954 2.05603 3.20049 0
M  V30 93 H 5.9074 2.50877 4.31117 0
M  V30 94 H 5.0614 0.870762 6.00419 0
M  V30 95 H 3.8004 0.316887 4.86669 0
M  V30 96 H 2.8054 2.6215 4.83278 0
M  V30 97 H 4.0304 3.17216 6.00459 0
M  V30 98 H 1.9764 0.980454 6.48632 0
M  V30 99 H 1.8934 2.59956 7.09901 0
M  V30 100 H 3.1614 1.54115 7.64113 0
M  V30 101 N 7.3905 -1.2043 1.01659 0
M  V30 102 C 8.3205 -2.25466 0.607226 0
M  V30 103 C 9.3015 -1.65853 -0.377716 0
M  V30 104 O 10.4865 -1.92409 -0.263149 0
M  V30 105 C 7.6165 -3.47256 -0.0552949 0
M  V30 106 C 6.5705 -4.19462 0.850632 0
M  V30 107 C 5.8965 -5.34673 0.0538859 0
M  V30 108 C 7.1965 -4.75603 2.15868 0
M  V30 109 H 8.8905 -2.59962 1.48526 0
M  V30 110 H 6.4365 -1.2496 0.715605 0
M  V30 111 H 8.3895 -4.19917 -0.353233 0
M  V30 112 H 7.1135 -3.11924 -0.968045 0
M  V30 113 H 5.7725 -3.48667 1.13257 0
M  V30 114 H 5.4205 -4.95585 -0.860514 0
M  V30 115 H 5.1205 -5.83913 0.657192 0
M  V30 116 H 6.6445 -6.10138 -0.237598 0
M  V30 117 H 8.0585 -5.40083 1.92311 0
M  V30 118 H 6.4555 -5.3528 2.71284 0
M  V30 119 H 7.5255 -3.94346 2.82169 0
M  V30 120 N 8.8686 -0.792821 -1.36206 0
M  V30 121 C 10.1176 -0.363353 -1.984 0
M  V30 122 C 10.4306 1.07172 -1.63626 0
M  V30 123 O 11.6366 1.60362 -2.19081 0
M  V30 124 C 10.0926 -0.59872 -3.54885 0
M  V30 125 C 9.7006 -2.04543 -3.9858 0
M  V30 126 C 11.4446 -0.233926 -4.23855 0
M  V30 127 C 9.3516 -2.22727 -5.47856 0
M  V30 128 H 8.2816 -0.13212 -0.742334 0
M  V30 129 H 10.9326 -0.974935 -1.55458 0
M  V30 130 H 9.3146 0.0826222 -3.95914 0
M  V30 131 H 10.4886 -2.76345 -3.68741 0
M  V30 132 H 8.8036 -2.36879 -3.42458 0
M  V30 133 H 11.4006 -0.348027 -5.33566 0
M  V30 134 H 11.7436 0.818351 -4.08177 0
M  V30 135 H 12.2766 -0.868639 -3.882 0
M  V30 136 H 9.0156 -3.2635 -5.68486 0
M  V30 137 H 8.5356 -1.55434 -5.7931 0
M  V30 138 H 10.2146 -2.03607 -6.14128 0
M  V30 139 N 10.3467 1.47872 -0.545128 0
M  V30 140 C 11.5947 2.02093 -0.016553 0
M  V30 141 C 11.9157 1.42305 1.3332 0
M  V30 142 O 11.1857 0.593853 1.86682 0
M  V30 143 H 9.7657 0.746993 -0.00313038 0
M  V30 144 H 12.4277 1.81414 -0.712397 0
M  V30 145 H 11.5237 3.11996 0.0805422 0
M  V30 146 N 11.8248 0.280983 1.55075 0
M  V30 147 C 13.0528 -0.337293 2.04132 0
M  V30 148 C 13.4678 -1.4903 1.15912 0
M  V30 149 O 12.8248 -1.81606 0.180459 0
M  V30 150 C 12.8758 -0.812706 3.52246 0
M  V30 151 O 12.5968 0.294387 4.3711 0
M  V30 152 C 14.0978 -1.4982 4.17216 0
M  V30 153 H 11.3178 -0.0761638 0.666663 0
M  V30 154 H 13.8618 0.414787 2.00249 0
M  V30 155 H 12.0168 -1.51486 3.56554 0
M  V30 156 H 12.4308 -0.0721325 5.2445 0
M  V30 157 H 13.9048 -1.7822 5.22438 0
M  V30 158 H 14.3818 -2.43168 3.65741 0
M  V30 159 H 14.9878 -0.839742 4.16927 0
M  V30 160 N 13.3029 -1.57598 0.00835791 0
M  V30 161 C 14.2329 -2.1198 -0.979113 0
M  V30 162 C 15.2139 -1.03091 -1.35301 0
M  V30 163 O 16.3989 -1.30818 -1.43528 0
M  V30 164 C 13.5289 -2.62995 -2.26828 0
M  V30 165 C 12.4829 -3.76485 -2.03576 0
M  V30 166 C 11.8089 -4.13846 -3.38579 0
M  V30 167 C 13.1089 -5.0342 -1.39161 0
M  V30 168 H 14.8029 -2.94738 -0.526281 0
M  V30 169 H 12.3489 -1.41783 -0.251704 0
M  V30 170 H 14.3019 -2.99669 -2.96271 0
M  V30 171 H 13.0259 -1.7737 -2.7424 0
M  V30 172 H 11.6849 -3.40217 -1.36557 0
M  V30 173 H 11.3329 -3.25232 -3.83709 0
M  V30 174 H 11.0329 -4.90312 -3.23834 0
M  V30 175 H 12.5569 -4.53086 -4.09323 0
M  V30 176 H 13.9709 -5.37812 -1.98573 0
M  V30 177 H 12.3679 -5.84746 -1.34878 0
M  V30 178 H 13.4379 -4.83548 -0.361868 0
M  V30 179 N 14.781 0.264519 -1.55364 0
M  V30 180 C 16.058 1.01677 -1.67096 0
M  V30 181 C 16.438 2.03996 -0.543015 0
M  V30 182 O 15.786 2.23907 0.45585 0
M  V30 183 C 15.996 1.66596 -3.0667 0
M  V30 184 C 17.344 2.17442 -3.64697 0
M  V30 185 O 18.368 1.76568 -3.09358 0
M  V30 186 O 17.227 2.92439 -4.61673 0
M  V30 187 H 14.321 0.472161 -0.678965 0
M  V30 188 H 16.867 0.259703 -1.67701 0
M  V30 189 H 15.639 0.924962 -3.80211 0
M  V30 190 H 15.262 2.48968 -3.10001 0
M  V30 191 N 16.2591 1.48442 0.529413 0
M  V30 192 C 17.4891 1.59919 1.30804 0
M  V30 193 C 17.8971 0.258792 1.87422 0
M  V30 194 O 17.2401 -0.762096 1.67146 0
M  V30 195 C 17.3021 2.58693 2.49636 0
M  V30 196 C 16.9661 4.03745 2.14101 0
M  V30 197 C 17.9631 4.9141 1.6974 0
M  V30 198 C 15.6481 4.49285 2.24607 0
M  V30 199 C 17.6421 6.22645 1.36351 0
M  V30 200 C 15.3291 5.8054 1.9083 0
M  V30 201 C 16.3271 6.67043 1.46773 0
M  V30 202 O 16.0151 7.95856 1.1344 0
M  V30 203 H 15.7471 0.541981 0.404021 0
M  V30 204 H 18.3011 1.95 0.645309 0
M  V30 205 H 16.5311 2.18734 3.18892 0
M  V30 206 H 18.2201 2.59999 3.11698 0
M  V30 207 H 18.9861 4.57465 1.61094 0
M  V30 208 H 14.8651 3.82142 2.57854 0
M  V30 209 H 18.4091 6.90119 1.01891 0
M  V30 210 H 14.3061 6.14022 1.99117 0
M  V30 211 H 15.0741 8.08613 1.26832 0
M  V30 212 N 17.7372 -0.778329 1.37039 0
M  V30 213 C 18.9852 -1.53361 1.31623 0
M  V30 214 C 19.3062 -1.94739 -0.100831 0
M  V30 215 O 18.5762 -1.65797 -1.04347 0
M  V30 216 H 17.1562 -0.568794 0.484234 0
M  V30 217 H 19.8182 -0.926742 1.71457 0
M  V30 218 H 18.9142 -2.43606 1.95096 0
M  V30 219 N 19.2153 -1.21501 -1.00376 0
M  V30 220 C 20.1623 -0.975387 -2.09177 0
M  V30 221 C 21.1323 0.0990615 -1.65804 0
M  V30 222 O 22.3173 -0.0483147 -1.90739 0
M  V30 223 C 19.4573 -0.547507 -3.40729 0
M  V30 224 C 18.5703 -1.69153 -3.97506 0
M  V30 225 C 17.7053 -1.2127 -5.17172 0
M  V30 226 C 16.7443 -2.32897 -5.66061 0
M  V30 227 N 15.8813 -1.86138 -6.76976 0
M  V30 228 H 20.7213 -1.9068 -2.29009 0
M  V30 229 H 18.2583 -0.950257 -1.12288 0
M  V30 230 H 20.2163 -0.280667 -4.16255 0
M  V30 231 H 18.8463 0.346904 -3.20931 0
M  V30 232 H 17.8983 -2.07298 -3.18954 0
M  V30 233 H 19.2103 -2.5316 -4.29781 0
M  V30 234 H 18.3643 -0.902591 -5.99948 0
M  V30 235 H 17.1033 -0.342692 -4.86495 0
M  V30 236 H 16.1083 -2.64709 -4.81881 0
M  V30 237 H 17.3333 -3.20396 -5.98768 0
M  V30 238 H 15.2793 -1.01484 -6.48103 0
M  V30 239 H 15.1963 -2.63717 -7.08512 0
M  V30 240 H 16.4643 -1.58165 -7.63285 0
M  V30 241 N 20.6934 1.19889 -1.02296 0
M  V30 242 C 21.9234 1.93109 -0.734332 0
M  V30 243 C 22.3314 1.75377 0.709889 0
M  V30 244 O 21.6744 1.06912 1.49384 0
M  V30 245 C 21.7364 3.45362 -0.99827 0
M  V30 246 C 21.4004 3.8686 -2.43287 0
M  V30 247 C 22.3974 3.92102 -3.41397 0
M  V30 248 C 20.0824 4.18668 -2.77529 0
M  V30 249 C 22.0764 4.28573 -4.71809 0
M  V30 250 C 19.7634 4.54813 -4.08153 0
M  V30 251 C 20.7614 4.59739 -5.05103 0
M  V30 252 O 20.4494 4.95051 -6.33388 0
M  V30 253 H 20.1814 0.620409 -0.268456 0
M  V30 254 H 22.7354 1.53144 -1.3688 0
M  V30 255 H 20.9654 3.85482 -0.306645 0
M  V30 256 H 22.6544 3.99814 -0.700234 0
M  V30 257 H 23.4204 3.67685 -3.1628 0
M  V30 258 H 19.2994 4.14021 -2.0275 0
M  V30 259 H 22.8434 4.32333 -5.4748 0
M  V30 260 H 18.7404 4.78687 -4.33047 0
M  V30 261 H 19.5084 5.1302 -6.37772 0
M  V30 262 N 22.1715 0.800033 1.35784 0
M  V30 263 C 23.5875 0.482977 1.52117 0
M  V30 264 C 23.7875 -0.996948 1.75109 0
M  V30 265 O 22.8435 -1.78216 1.78872 0
M  V30 266 C 24.1565 1.32264 2.70049 0
M  V30 267 C 25.7045 1.31742 2.83924 0
M  V30 268 C 26.1795 2.14106 4.04874 0
M  V30 269 N 27.6705 2.11607 4.12039 0
M  V30 270 C 28.4055 2.72099 5.04727 0
M  V30 271 N 27.9015 3.41492 6.02789 0
M  V30 272 N 29.6945 2.61776 4.97423 0
M  V30 273 H 21.8455 1.75856 1.19115 0
M  V30 274 H 24.1085 0.748122 0.582252 0
M  V30 275 H 23.8145 2.37261 2.59616 0
M  V30 276 H 23.6885 0.971303 3.6448 0
M  V30 277 H 26.0755 0.275333 2.93813 0
M  V30 278 H 26.1565 1.70859 1.9037 0
M  V30 279 H 25.8005 3.18351 3.95746 0
M  V30 280 H 25.7305 1.72353 4.97596 0
M  V30 281 H 28.2215 1.61112 3.41835 0
M  V30 282 H 28.5345 3.84953 6.70098 0
M  V30 283 H 26.8795 3.45596 6.02983 0
M  V30 284 H 30.0705 2.07157 4.19766 0
M  V30 285 H 30.2435 3.0921 5.69468 0
M  V30 286 N 23.6496 -1.47581 0.552962 0
M  V30 287 C 24.8796 -2.06575 0.0320091 0
M  V30 288 C 25.2876 -1.4067 -1.26525 0
M  V30 289 O 24.6306 -0.495808 -1.76883 0
M  V30 290 C 24.6926 -3.58705 -0.238913 0
M  V30 291 C 24.3566 -4.46625 0.968272 0
M  V30 292 C 25.3536 -4.85 1.87274 0
M  V30 293 C 23.0386 -4.88201 1.18175 0
M  V30 294 C 25.0326 -5.63745 2.9744 0
M  V30 295 C 22.7196 -5.66712 2.28651 0
M  V30 296 C 23.7176 -6.04394 3.18114 0
M  V30 297 O 23.4056 -6.81324 4.26676 0
M  V30 298 H 23.1376 -0.674763 0.0408689 0
M  V30 299 H 25.6916 -1.90634 0.764719 0
M  V30 300 H 23.9216 -3.72844 -1.02588 0
M  V30 301 H 25.6106 -3.99735 -0.704731 0
M  V30 302 H 26.3766 -4.53482 1.71984 0
M  V30 303 H 22.2556 -4.58339 0.494593 0
M  V30 304 H 25.7996 -5.93077 3.67296 0
M  V30 305 H 21.6966 -5.97642 2.43915 0
M  V30 306 H 22.4646 -6.99712 4.24671 0
M  V30 307 N 25.1277 -0.289203 -1.54924 0
M  V30 308 C 26.5387 0.205791 -1.85562 0
M  V30 309 C 26.8897 1.54351 -1.2112 0
M  V30 310 O 26.0147 2.10435 -0.504601 0
M  V30 311 C 26.6097 0.380177 -3.3666 0
M  V30 312 C 25.1687 0.819395 -3.67373 0
M  V30 313 C 24.3157 -0.079159 -2.77187 0
M  V30 314 H 27.2667 -0.510577 -1.50262 0
M  V30 315 H 27.2877 1.21659 -3.60526 0
M  V30 316 H 26.7997 -0.593589 -3.83534 0
M  V30 317 H 24.9007 1.80413 -3.26009 0
M  V30 318 H 25.0137 0.646957 -4.74712 0
M  V30 319 H 23.3777 0.439565 -2.50878 0
M  V30 320 H 24.1607 -1.04906 -3.26878 0
M  V30 321 N 26.6058 1.57591 -0.0167156 0
M  V30 322 C 27.5528 2.09462 0.969251 0
M  V30 323 C 28.5228 0.99381 1.33089 0
M  V30 324 O 29.7078 1.26726 1.42636 0
M  V30 325 C 26.8478 2.61622 2.25051 0
M  V30 326 C 25.9608 3.85666 1.94642 0
M  V30 327 C 25.0958 4.26266 3.16972 0
M  V30 328 C 24.1348 5.43101 2.82326 0
M  V30 329 N 23.2718 5.78915 3.97243 0
M  V30 330 H 28.1118 2.93428 0.519997 0
M  V30 331 H 25.6488 1.45044 0.245087 0
M  V30 332 H 27.6068 2.89949 2.99976 0
M  V30 333 H 26.2368 1.80505 2.67615 0
M  V30 334 H 25.2888 3.64145 1.10013 0
M  V30 335 H 26.6008 4.70678 1.65117 0
M  V30 336 H 25.7548 4.55963 4.00228 0
M  V30 337 H 24.4938 3.39996 3.49648 0
M  V30 338 H 23.4988 5.1311 1.97479 0
M  V30 339 H 24.7238 6.3106 2.50879 0
M  V30 340 H 22.6698 4.95602 4.29785 0
M  V30 341 H 22.5868 6.58539 3.71299 0
M  V30 342 H 23.8548 6.13212 4.81239 0
M  V30 343 N 28.0839 -0.256276 1.55502 0
M  V30 344 C 29.0319 -1.33694 1.90338 0
M  V30 345 C 30.0259 -1.50299 0.781441 0
M  V30 346 O 31.2319 -1.51885 0.965966 0
M  V30 347 H 27.6069 -0.447483 0.60437 0
M  V30 348 H 29.5779 -1.01574 2.8058 0
M  V30 349 C 28.3269 -2.68724 2.20642 0
M  V30 350 H 27.6499 -2.56743 3.06469 0
M  V30 351 H 29.0899 -3.43237 2.48926 0
M  V30 352 C 27.5489 -3.21101 1.01959 0
M  V30 353 O 28.0789 -4.0084 0.262762 0
M  V30 354 N 26.2849 -2.79003 0.812746 0
M  V30 355 H 25.8319 -2.14271 1.42989 0
M  V30 356 H 25.7899 -3.14393 0.0203076 0
M  V30 357 N 29.562 -1.4872 -0.521534 0
M  V30 358 C 30.512 -1.60269 -1.62166 0
M  V30 359 C 31.496 -0.45935 -1.54204 0
M  V30 360 O 32.688 -0.711241 -1.62081 0
M  V30 361 C 29.817 -1.65344 -3.00859 0
M  V30 362 C 28.903 -2.85187 -3.13894 0
M  V30 363 N 29.294 -4.09509 -2.96877 0
M  V30 364 C 27.592 -2.82695 -3.44963 0
M  V30 365 C 28.293 -4.89959 -3.13552 0
M  V30 366 N 27.269 -4.22934 -3.41508 0
M  V30 367 H 31.071 -2.5413 -1.47632 0
M  V30 368 H 28.585 -1.45209 -0.727194 0
M  V30 369 H 30.582 -1.71713 -3.79895 0
M  V30 370 H 29.242 -0.726058 -3.16478 0
M  V30 371 H 30.253 -4.39814 -2.73467 0
M  V30 372 H 26.93 -1.99249 -3.66887 0
M  V30 373 H 28.32 -5.98654 -3.05061 0
M  V30 374 N 31.0401 0.771051 -1.3745 0
M  V30 375 C 32.4511 1.34737 -1.29239 0
M  V30 376 C 32.8021 1.96109 0.0596908 0
M  V30 377 O 31.9271 1.93865 0.961534 0
M  V30 378 C 32.5221 2.44973 -2.34037 0
M  V30 379 C 31.0811 2.98372 -2.29458 0
M  V30 380 C 30.2281 1.71595 -2.17831 0
M  V30 381 H 33.1791 0.571256 -1.48062 0
M  V30 382 H 33.2001 3.24471 -1.98744 0
M  V30 383 H 32.7121 2.00276 -3.32432 0
M  V30 384 H 30.8131 3.47443 -1.34589 0
M  V30 385 H 30.9261 3.53939 -3.229 0
M  V30 386 H 29.2901 1.94547 -1.64388 0
M  V30 387 H 30.0731 1.29001 -3.18141 0
M  V30 388 N 32.5182 1.22032 0.997298 0
M  V30 389 C 33.4482 1.01065 2.10495 0
M  V30 390 C 34.4292 -0.0669542 1.69968 0
M  V30 391 O 35.6142 0.0943987 1.9397 0
M  V30 392 C 32.7442 0.582874 3.42374 0
M  V30 393 C 31.6982 1.60592 3.96729 0
M  V30 394 C 31.0242 1.03412 5.24605 0
M  V30 395 C 32.3242 2.99478 4.27914 0
M  V30 396 H 34.0182 1.93708 2.28292 0
M  V30 397 H 31.5642 0.932761 1.09707 0
M  V30 398 H 33.5172 0.423332 4.19268 0
M  V30 399 H 32.2412 -0.379213 3.24391 0
M  V30 400 H 30.9002 1.75316 3.21963 0
M  V30 401 H 30.5482 0.063518 5.0296 0
M  V30 402 H 30.2482 1.71754 5.61938 0
M  V30 403 H 31.7722 0.886066 6.04137 0
M  V30 404 H 33.1862 2.88153 4.95622 0
M  V30 405 H 31.5832 3.64903 4.76409 0
M  V30 406 H 32.6532 3.49742 3.3587 0
M  V30 407 N 33.9963 -1.19345 1.0293 0
M  V30 408 C 34.9433 -2.2258 0.610464 0
M  V30 409 C 35.9133 -1.6179 -0.375946 0
M  V30 410 O 37.0983 -1.88844 -0.272511 0
M  V30 411 C 34.2383 -3.45085 -0.0321473 0
M  V30 412 C 33.3513 -4.20258 1.00035 0
M  V30 413 C 32.4863 -5.3019 0.32746 0
M  V30 414 C 31.5253 -5.97121 1.34584 0
M  V30 415 N 30.6623 -6.98615 0.698726 0
M  V30 416 H 35.5023 -2.57764 1.49538 0
M  V30 417 H 33.0393 -1.26644 0.748311 0
M  V30 418 H 34.9973 -4.15061 -0.421966 0
M  V30 419 H 33.6273 -3.10555 -0.88064 0
M  V30 420 H 32.6793 -3.49223 1.50823 0
M  V30 421 H 33.9913 -4.66175 1.77433 0
M  V30 422 H 33.1453 -6.06587 -0.11718 0
M  V30 423 H 31.8843 -4.85345 -0.478713 0
M  V30 424 H 30.8893 -5.19474 1.80074 0
M  V30 425 H 32.1143 -6.4405 2.15352 0
M  V30 426 H 30.0603 -6.55942 -0.0873471 0
M  V30 427 H 29.9773 -7.42724 1.41058 0
M  V30 428 H 31.2453 -7.79004 0.278102 0
M  V30 429 N 35.4744 -0.807222 -1.35358 0
M  V30 430 C 36.7234 -0.384376 -1.98004 0
M  V30 431 C 37.0364 1.0543 -1.64754 0
M  V30 432 O 38.2424 1.58029 -2.20769 0
M  V30 433 C 36.6984 -0.636326 -3.5423 0
M  V30 434 C 36.3064 -2.08759 -3.96388 0
M  V30 435 C 38.0504 -0.278869 -4.23583 0
M  V30 436 C 35.9574 -2.28525 -5.45463 0
M  V30 437 H 34.8874 -0.139986 -0.740891 0
M  V30 438 H 37.5384 -0.991369 -1.54415 0
M  V30 439 H 35.9204 0.0406256 -3.95979 0
M  V30 440 H 37.0944 -2.8024 -3.6579 0
M  V30 441 H 35.4094 -2.40497 -3.39926 0
M  V30 442 H 38.0064 -0.404599 -5.33167 0
M  V30 443 H 38.3494 0.775012 -4.09022 0
M  V30 444 H 38.8824 -0.909764 -3.87257 0
M  V30 445 H 35.6214 -3.32361 -5.64992 0
M  V30 446 H 35.1414 -1.61569 -5.77629 0
M  V30 447 H 36.8204 -2.10109 -6.11934 0
M  V30 448 N 36.9525 1.47285 -0.560781 0
M  V30 449 C 38.3635 1.86258 -0.128343 0
M  V30 450 C 38.7145 1.46699 1.30284 0
M  V30 451 O 37.8395 0.871698 1.98067 0
M  V30 452 C 38.4345 3.38044 -0.22614 0
M  V30 453 C 36.9935 3.76096 0.151283 0
M  V30 454 C 36.1405 2.71335 -0.572084 0
M  V30 455 H 39.0915 1.38752 -0.770297 0
M  V30 456 H 39.1125 3.76441 0.554322 0
M  V30 457 H 38.6245 3.66806 -1.26788 0
M  V30 458 H 36.7255 3.52951 1.19399 0
M  V30 459 H 36.8385 4.78641 -0.209765 0
M  V30 460 H 35.2025 2.54696 -0.0147653 0
M  V30 461 H 35.9855 3.02938 -1.61504 0
M  V30 462 N 38.4306 0.297415 1.54768 0
M  V30 463 C 39.8466 -0.0560823 1.59501 0
M  V30 464 C 40.0466 -1.52725 1.31444 0
M  V30 465 O 39.1026 -2.27947 1.08611 0
M  V30 466 C 40.4156 0.338631 2.98787 0
M  V30 467 C 41.9636 0.287097 3.11681 0
M  V30 468 C 42.4386 0.656579 4.53269 0
M  V30 469 N 43.9296 0.608977 4.59179 0
M  V30 470 C 44.6646 0.867385 5.66802 0
M  V30 471 N 44.1606 1.19157 6.82476 0
M  V30 472 N 45.9536 0.794687 5.56454 0
M  V30 473 H 38.1046 1.25624 1.71267 0
M  V30 474 H 40.3676 0.509057 0.799728 0
M  V30 475 H 40.0736 1.36263 3.2423 0
M  V30 476 H 39.9476 -0.309508 3.75928 0
M  V30 477 H 42.3346 -0.727649 2.85988 0
M  V30 478 H 42.4156 0.969809 2.36703 0
M  V30 479 H 42.0596 1.66912 4.7969 0
M  V30 480 H 41.9896 -0.0481649 5.26578 0
M  V30 481 H 44.4806 0.369198 3.76092 0
M  V30 482 H 44.7936 1.37482 7.60473 0
M  V30 483 H 43.1386 1.22958 6.84037 0
M  V30 484 H 46.3296 0.541098 4.64962 0
M  V30 485 H 46.5026 0.999445 6.40246 0
M  V30 486 N 39.9087 -1.5758 0.0250728 0
M  V30 487 C 41.1547 -1.91917 -0.655413 0
M  V30 488 C 41.4877 -0.901433 -1.72011 0
M  V30 489 O 40.7627 0.0764069 -1.9435 0
M  V30 490 C 41.0457 -3.36751 -1.27558 0
M  V30 491 C 40.8987 -4.49258 -0.220719 0
M  V30 492 C 42.2177 -3.81469 -2.19475 0
M  V30 493 H 39.3367 -0.697925 -0.23679 0
M  V30 494 H 41.9787 -1.89825 0.0815036 0
M  V30 495 H 40.1287 -3.38664 -1.90365 0
M  V30 496 H 41.8007 -4.59478 0.409601 0
M  V30 497 H 40.0437 -4.31415 0.454264 0
M  V30 498 H 40.7147 -5.47618 -0.694175 0
M  V30 499 H 43.1907 -3.81266 -1.66659 0
M  V30 500 H 42.0667 -4.83512 -2.59822 0
M  V30 501 H 42.3277 -3.16744 -3.08424 0
M  V30 502 N 41.3868 0.248026 -1.55636 0
M  V30 503 C 42.6118 0.998028 -1.81808 0
M  V30 504 C 43.0368 1.78207 -0.601979 0
M  V30 505 O 42.3948 1.75653 0.448961 0
M  V30 506 C 42.4428 1.9125 -3.05705 0
M  V30 507 O 41.5468 3.00406 -2.82542 0
M  V30 508 H 40.8878 0.284045 -0.600179 0
M  V30 509 H 43.4178 0.269357 -2.02819 0
M  V30 510 H 43.4278 2.32737 -3.35108 0
M  V30 511 H 42.1028 1.33602 -3.93857 0
M  V30 512 H 40.6798 2.63056 -2.64303 0
M  V30 513 N 42.8649 1.48995 0.513639 0
M  V30 514 C 43.7949 1.67636 1.62544 0
M  V30 515 C 44.7759 0.525087 1.61793 0
M  V30 516 O 45.9609 0.759502 1.78732 0
M  V30 517 C 43.0909 1.73114 3.01079 0
M  V30 518 C 42.0449 2.87905 3.16693 0
M  V30 519 C 41.3709 2.78486 4.56453 0
M  V30 520 C 42.6709 4.29005 2.97913 0
M  V30 521 H 44.3649 2.60716 1.47198 0
M  V30 522 H 41.9109 1.25465 0.706714 0
M  V30 523 H 43.8639 1.84742 3.78746 0
M  V30 524 H 42.5879 0.766241 3.17484 0
M  V30 525 H 41.2469 2.75859 2.41448 0
M  V30 526 H 40.8949 1.7993 4.69717 0
M  V30 527 H 40.5949 3.55523 4.67843 0
M  V30 528 H 42.1189 2.92104 5.36197 0
M  V30 529 H 43.5329 4.41798 3.65359 0
M  V30 530 H 41.9299 5.07166 3.20785 0
M  V30 531 H 42.9999 4.44329 1.94165 0
M  V30 532 N 44.343 -0.763751 1.37857 0
M  V30 533 C 45.273 -1.89103 1.36975 0
M  V30 534 C 46.254 -1.68439 0.237152 0
M  V30 535 O 47.439 -1.8918 0.438713 0
M  V30 536 C 44.569 -3.26496 1.18395 0
M  V30 537 C 43.523 -3.61741 2.28751 0
M  V30 538 C 42.849 -4.97762 1.95286 0
M  V30 539 C 44.149 -3.67665 3.70972 0
M  V30 540 H 45.843 -1.90099 2.31307 0
M  V30 541 H 43.389 -0.91319 1.11341 0
M  V30 542 H 45.342 -4.05003 1.16406 0
M  V30 543 H 44.066 -3.25955 0.205215 0
M  V30 544 H 42.725 -2.85547 2.29909 0
M  V30 545 H 42.373 -4.93769 0.959221 0
M  V30 546 H 42.073 -5.22313 2.69189 0
M  V30 547 H 43.597 -5.7866 1.94898 0
M  V30 548 H 45.011 -4.36307 3.719 0
M  V30 549 H 43.408 -4.03718 4.43995 0
M  V30 550 H 44.478 -2.68134 4.0402 0
M  V30 551 N 45.8211 -1.22559 -0.990812 0
M  V30 552 C 46.7511 -1.0218 -2.09956 0
M  V30 553 C 47.7321 0.0579394 -1.70001 0
M  V30 554 O 48.9171 -0.104684 -1.93918 0
M  V30 555 C 46.0471 -0.601023 -3.4206 0
M  V30 556 C 45.0011 -1.62694 -3.95872 0
M  V30 557 C 44.3271 -1.06193 -5.24049 0
M  V30 558 C 45.6271 -3.01743 -4.2632 0
M  V30 559 H 47.3211 -1.94916 -2.27262 0
M  V30 560 H 44.8671 -0.938566 -1.09211 0
M  V30 561 H 46.8201 -0.445561 -4.19038 0
M  V30 562 H 45.5441 0.362005 -3.24588 0
M  V30 563 H 44.2031 -1.77021 -3.21028 0
M  V30 564 H 43.8511 -0.0901903 -5.02919 0
M  V30 565 H 43.5511 -1.74732 -5.61019 0
M  V30 566 H 45.0751 -0.918092 -6.03658 0
M  V30 567 H 46.4891 -2.90777 -4.94087 0
M  V30 568 H 44.8861 -3.67425 -4.74467 0
M  V30 569 H 45.9561 -3.51518 -3.34011 0
M  V30 570 N 47.2992 1.18797 -1.03562 0
M  V30 571 C 48.7152 1.40671 -0.753917 0
M  V30 572 C 48.9152 1.9043 0.658686 0
M  V30 573 O 47.9712 2.08538 1.42366 0
M  V30 574 C 49.2842 2.41192 -1.79574 0
M  V30 575 C 50.8322 2.54928 -1.81606 0
M  V30 576 C 51.3072 3.58709 -2.84766 0
M  V30 577 N 52.7982 3.66212 -2.83625 0
M  V30 578 C 53.5332 4.46225 -3.60098 0
M  V30 579 N 53.0292 5.29888 -4.46308 0
M  V30 580 N 54.8222 4.40939 -3.4861 0
M  V30 581 H 46.9732 0.848221 -1.94728 0
M  V30 582 H 49.2362 0.435081 -0.842264 0
M  V30 583 H 48.9422 2.11669 -2.80872 0
M  V30 584 H 48.8162 3.40467 -1.62365 0
M  V30 585 H 51.2032 2.83771 -0.809817 0
M  V30 586 H 51.2842 1.55784 -2.02891 0
M  V30 587 H 50.9282 3.30607 -3.85566 0
M  V30 588 H 50.8582 4.57519 -2.60737 0
M  V30 589 H 53.3492 3.06466 -2.21105 0
M  V30 590 H 53.6622 5.88078 -5.01382 0
M  V30 591 H 52.0072 5.29326 -4.50377 0
M  V30 592 H 55.1982 3.74624 -2.80668 0
M  V30 593 H 55.3712 5.03056 -4.08459 0
M  V30 594 N 48.7773 0.814389 1.34928 0
M  V30 595 C 50.0243 0.398423 1.98542 0
M  V30 596 C 50.3523 -1.03638 1.64589 0
M  V30 597 O 49.6073 -1.73509 0.90516 0
M  V30 598 C 49.9063 0.537781 3.53331 0
M  V30 599 C 49.5723 1.93704 4.07172 0
M  V30 600 C 48.2343 2.31984 4.21589 0
M  V30 601 C 50.5863 2.85213 4.36237 0
M  V30 602 C 47.9143 3.61125 4.62391 0
M  V30 603 C 50.2663 4.13809 4.78482 0
M  V30 604 C 48.9303 4.52077 4.91104 0
M  V30 605 H 48.2003 0.145793 0.726516 0
M  V30 606 H 50.8473 1.03669 1.61012 0
M  V30 607 H 49.1523 -0.183906 3.91368 0
M  V30 608 H 50.8493 0.196588 4.00518 0
M  V30 609 H 47.4393 1.62966 3.96409 0
M  V30 610 H 51.6233 2.56885 4.24645 0
M  V30 611 H 46.8793 3.90612 4.70353 0
M  V30 612 H 51.0533 4.84811 4.99932 0
M  V30 613 H 48.6803 5.52196 5.22478 0
M  V30 614 N 50.2554 -1.46986 0.568584 0
M  V30 615 C 51.1854 -2.32946 -0.160753 0
M  V30 616 C 52.1664 -1.44487 -0.897631 0
M  V30 617 O 53.3514 -1.73327 -0.875867 0
M  V30 618 C 50.4814 -3.26494 -1.18403 0
M  V30 619 C 49.4354 -4.24282 -0.562895 0
M  V30 620 C 48.7614 -5.07236 -1.69163 0
M  V30 621 C 50.0614 -5.19989 0.490761 0
M  V30 622 H 51.7554 -2.94175 0.556916 0
M  V30 623 H 49.3014 -1.4146 0.26927 0
M  V30 624 H 51.2544 -3.85477 -1.70251 0
M  V30 625 H 49.9784 -2.63343 -1.93179 0
M  V30 626 H 48.6374 -3.66541 -0.0656164 0
M  V30 627 H 48.2854 -4.4048 -2.42871 0
M  V30 628 H 47.9854 -5.7345 -1.28174 0
M  V30 629 H 49.5094 -5.6908 -2.21314 0
M  V30 630 H 50.9234 -5.73271 0.0579047 0
M  V30 631 H 49.3204 -5.94469 0.820165 0
M  V30 632 H 50.3904 -4.64777 1.3824 0
M  V30 633 N 51.7335 -0.305618 -1.54608 0
M  V30 634 C 53.0105 0.355652 -1.92339 0
M  V30 635 C 53.3905 1.71324 -1.23335 0
M  V30 636 O 52.7385 2.25473 -0.370702 0
M  V30 637 C 52.9485 0.46572 -3.45879 0
M  V30 638 C 54.2965 0.734426 -4.182 0
M  V30 639 O 55.3205 0.54935 -3.51938 0
M  V30 640 O 54.1795 1.09024 -5.35515 0
M  V30 641 H 51.2735 0.199666 -0.802535 0
M  V30 642 H 53.8195 -0.354017 -1.65966 0
M  V30 643 H 52.5915 -0.488461 -3.88239 0
M  V30 644 H 52.2145 1.22367 -3.78301 0
M  V30 645 N 53.2116 1.57565 -0.0334293 0
M  V30 646 C 54.1746 2.09393 0.932048 0
M  V30 647 C 55.1746 1.00986 1.25134 0
M  V30 648 O 56.3646 1.27129 1.19096 0
M  V30 649 C 53.4966 2.56338 2.2473 0
M  V30 650 H 54.6896 2.95984 0.483085 0
M  V30 651 H 52.2426 1.54819 0.21468 0
M  V30 652 H 52.9776 1.7309 2.74245 0
M  V30 653 H 52.7626 3.35542 2.02865 0
M  V30 654 H 54.2526 2.96646 2.93923 0
M  V30 655 N 54.6897 -0.239769 1.55765 0
M  V30 656 C 55.6227 -1.32356 1.85895 0
M  V30 657 C 56.6007 -1.46053 0.714662 0
M  V30 658 O 57.7847 -1.62154 0.961157 0
M  V30 659 C 54.9117 -2.6962 2.04994 0
M  V30 660 C 53.9577 -2.73036 3.27648 0
M  V30 661 S 54.7907 -2.28929 4.84099 0
M  V30 662 C 55.9467 -3.68103 5.06212 0
M  V30 663 H 56.1797 -1.06601 2.77531 0
M  V30 664 H 53.7127 -0.441112 1.47965 0
M  V30 665 H 55.6707 -3.48653 2.16682 0
M  V30 666 H 54.3317 -2.92609 1.14188 0
M  V30 667 H 53.5247 -3.7386 3.38 0
M  V30 668 H 53.1267 -2.02052 3.14723 0
M  V30 669 H 55.4187 -4.63656 4.93993 0
M  V30 670 H 56.3617 -3.6268 6.08168 0
M  V30 671 H 56.7697 -3.60947 4.34025 0
M  V30 672 N 56.1678 -1.49265 -0.50573 0
M  V30 673 C 57.1158 -1.66065 -1.62866 0
M  V30 674 C 58.1098 -0.526636 -1.61006 0
M  V30 675 O 59.3158 -0.706126 -1.65571 0
M  V30 676 H 55.6908 -0.52356 -0.539805 0
M  V30 677 H 57.6618 -2.60329 -1.45848 0
M  V30 678 C 56.4108 -1.74008 -3.01026 0
M  V30 679 H 55.7338 -2.6064 -3.03161 0
M  V30 680 H 57.1738 -1.89798 -3.79147 0
M  V30 681 C 55.6328 -0.483868 -3.33407 0
M  V30 682 O 56.1628 0.392548 -3.99777 0
M  V30 683 N 54.3688 -0.348236 -2.88506 0
M  V30 684 H 53.9158 -1.06242 -2.34671 0
M  V30 685 H 53.8738 0.491204 -3.10539 0
M  V30 686 N 57.6459 0.756429 -1.3826 0
M  V30 687 C 58.5759 1.88374 -1.37976 0
M  V30 688 C 59.5569 1.68311 -0.246082 0
M  V30 689 O 60.7419 1.88944 -0.44874 0
M  V30 690 C 57.8719 3.25864 -1.20125 0
M  V30 691 C 56.8259 3.60523 -2.30666 0
M  V30 692 C 56.1519 4.9672 -1.97923 0
M  V30 693 C 57.4519 3.65692 -3.72916 0
M  V30 694 H 59.1459 1.88869 -2.32312 0
M  V30 695 H 56.6919 0.907272 -1.11824 0
M  V30 696 H 58.6449 4.0438 -1.18552 0
M  V30 697 H 57.3689 3.25841 -0.222498 0
M  V30 698 H 56.0279 2.84324 -2.3142 0
M  V30 699 H 55.6759 4.93253 -0.985393 0
M  V30 700 H 55.3759 5.20878 -2.71955 0
M  V30 701 H 56.8999 5.77618 -1.97964 0
M  V30 702 H 58.3139 4.34328 -3.74208 0
M  V30 703 H 56.7109 4.01358 -4.4613 0
M  V30 704 H 57.7809 2.65987 -4.05436 0
M  V30 705 N 59.124 1.23083 0.984299 0
M  V30 706 C 60.373 1.05466 1.71929 0
M  V30 707 C 60.686 -0.409211 1.91272 0
M  V30 708 O 61.892 -0.705226 2.62181 0
M  V30 709 C 60.348 1.83874 3.09384 0
M  V30 710 C 59.956 3.34566 2.97943 0
M  V30 711 C 61.7 1.74734 3.8687 0
M  V30 712 C 59.607 4.05381 4.30605 0
M  V30 713 H 58.537 0.391039 0.644674 0
M  V30 714 H 61.188 1.47013 1.09815 0
M  V30 715 H 59.57 1.35131 3.72231 0
M  V30 716 H 60.744 3.90767 2.44209 0
M  V30 717 H 59.059 3.44476 2.33934 0
M  V30 718 H 61.656 2.24957 4.85076 0
M  V30 719 H 61.999 0.709372 4.10212 0
M  V30 720 H 62.532 2.21067 3.30717 0
M  V30 721 H 59.271 5.09467 4.1246 0
M  V30 722 H 58.791 3.53967 4.84218 0
M  V30 723 H 60.47 4.11458 4.99311 0
M  V30 724 N 60.6021 -1.18246 1.0419 0
M  V30 725 C 61.8791 -1.84121 0.660208 0
M  V30 726 C 62.2591 -1.92778 -0.860221 0
M  V30 727 O 61.6071 -1.45464 -1.76217 0
M  V30 728 C 61.8171 -3.22355 1.33747 0
M  V30 729 C 63.1651 -3.98376 1.46906 0
M  V30 730 O 64.1891 -3.31799 1.29568 0
M  V30 731 O 63.0481 -5.17665 1.75171 0
M  V30 732 H 60.1421 -0.794036 0.231161 0
M  V30 733 H 62.6881 -1.25628 1.14087 0
M  V30 734 H 61.4601 -3.10964 2.37522 0
M  V30 735 H 61.0831 -3.88506 0.845515 0
M  V30 736 N 62.0802 -0.821533 -1.34494 0
M  V30 737 C 62.9902 -0.244355 -2.33324 0
M  V30 738 C 64.0062 0.620527 -1.62559 0
M  V30 739 O 65.1822 0.528754 -1.94335 0
M  V30 740 C 62.2472 0.585368 -3.41723 0
M  V30 741 C 61.3082 -0.301752 -4.28238 0
M  V30 742 C 60.5412 0.488466 -5.3146 0
M  V30 743 O 60.7642 1.72186 -5.4379 0
M  V30 744 O 59.6982 -0.12848 -6.01763 0
M  V30 745 H 63.5242 -1.06231 -2.84515 0
M  V30 746 H 61.1092 -0.583645 -1.37528 0
M  V30 747 H 62.9912 1.05747 -4.07916 0
M  V30 748 H 61.6662 1.38068 -2.92778 0
M  V30 749 H 60.5732 -0.821315 -3.64973 0
M  V30 750 H 61.9062 -1.06138 -4.8062 0
M  V30 751 N 63.5583 1.46682 -0.576371 0
M  V30 752 C 64.5053 2.30241 0.160499 0
M  V30 753 C 65.4753 1.40233 0.890162 0
M  V30 754 O 66.6603 1.69186 0.882084 0
M  V30 755 C 63.8003 3.24578 1.1723 0
M  V30 756 C 62.9133 4.29684 0.446736 0
M  V30 757 C 62.0483 5.11154 1.44551 0
M  V30 758 C 61.0873 6.08015 0.70599 0
M  V30 759 N 60.2243 6.82376 1.65251 0
M  V30 760 H 65.0643 2.92727 -0.558127 0
M  V30 761 H 62.6013 1.44272 -0.287056 0
M  V30 762 H 64.5593 3.77711 1.77172 0
M  V30 763 H 63.1893 2.63916 1.85872 0
M  V30 764 H 62.2413 3.79458 -0.267594 0
M  V30 765 H 63.5533 4.98626 -0.131686 0
M  V30 766 H 62.7073 5.68533 2.11791 0
M  V30 767 H 61.4463 4.42158 2.05786 0
M  V30 768 H 60.4513 5.49796 0.0197725 0
M  V30 769 H 61.6763 6.79028 0.09912 0
M  V30 770 H 59.6223 6.16094 2.25308 0
M  V30 771 H 59.5393 7.47556 1.12673 0
M  V30 772 H 60.8073 7.44316 2.31546 0
M  V30 773 N 65.0364 0.313813 1.54444 0
M  V30 774 C 65.9464 -0.565714 2.27677 0
M  V30 775 C 66.9624 -1.13754 1.31666 0
M  V30 776 O 68.1384 -1.15959 1.64668 0
M  V30 777 C 65.2034 -1.71528 3.01296 0
M  V30 778 C 64.2644 -1.17624 4.12872 0
M  V30 779 C 63.4974 -2.27102 4.8297 0
M  V30 780 O 63.7204 -3.47256 4.52514 0
M  V30 781 O 62.6544 -1.9307 5.70094 0
M  V30 782 H 66.4804 0.0287296 3.03686 0
M  V30 783 H 64.0654 0.0798312 1.49187 0
M  V30 784 H 65.9474 -2.38476 3.4743 0
M  V30 785 H 64.6224 -2.29608 2.2817 0
M  V30 786 H 63.5294 -0.472124 3.71109 0
M  V30 787 H 64.8624 -0.640695 4.88012 0
M  V30 788 N 66.5145 -1.57545 0.0417849 0
M  V30 789 C 67.4445 -2.14009 -0.933929 0
M  V30 790 C 68.4255 -1.05938 -1.33083 0
M  V30 791 O 69.6105 -1.33833 -1.40721 0
M  V30 792 C 66.7405 -2.67747 -2.21199 0
M  V30 793 C 65.6945 -3.80718 -1.95544 0
M  V30 794 C 65.0205 -4.20935 -3.29724 0
M  V30 795 C 66.3205 -5.06258 -1.28452 0
M  V30 796 H 68.0145 -2.95788 -0.463645 0
M  V30 797 H 65.5605 -1.42285 -0.221573 0
M  V30 798 H 67.5135 -3.05886 -2.89848 0
M  V30 799 H 66.2375 -1.83147 -2.70416 0
M  V30 800 H 64.8965 -3.43037 -1.2931 0
M  V30 801 H 64.5445 -3.33298 -3.76724 0
M  V30 802 H 64.2445 -4.9707 -3.13361 0
M  V30 803 H 65.7685 -4.61666 -3.9962 0
M  V30 804 H 67.1825 -5.41903 -1.8712 0
M  V30 805 H 65.5795 -5.87475 -1.22445 0
M  V30 806 H 66.6495 -4.84207 -0.259219 0
M  V30 807 N 67.9926 0.231505 -1.5589 0
M  V30 808 C 69.2416 0.955346 -1.7764 0
M  V30 809 C 69.5546 1.85893 -0.608546 0
M  V30 810 O 70.7606 2.62067 -0.70943 0
M  V30 811 C 69.2166 1.74886 -3.14552 0
M  V30 812 C 68.8246 0.891915 -4.39032 0
M  V30 813 C 70.5686 2.46452 -3.45633 0
M  V30 814 C 68.4756 1.68221 -5.66971 0
M  V30 815 H 67.4056 0.360446 -0.662265 0
M  V30 816 H 70.0566 0.209516 -1.823 0
M  V30 817 H 68.4386 2.53723 -3.04041 0
M  V30 818 H 69.6126 0.144793 -4.60572 0
M  V30 819 H 67.9276 0.288863 -4.15397 0
M  V30 820 H 70.5246 3.06061 -4.38441 0
M  V30 821 H 70.8676 3.18841 -2.67668 0
M  V30 822 H 71.4006 1.74613 -3.57428 0
M  V30 823 H 68.1396 1.00178 -6.478 0
M  V30 824 H 67.6596 2.4042 -5.49507 0
M  V30 825 H 69.3386 2.24544 -6.06786 0
M  V30 826 N 69.4707 1.49531 0.497807 0
M  V30 827 C 70.4177 1.66436 1.59899 0
M  V30 828 C 71.3877 0.505793 1.58212 0
M  V30 829 O 72.5727 0.733202 1.7615 0
M  V30 830 C 69.7127 1.7399 2.98029 0
M  V30 831 C 68.8257 3.01172 3.09708 0
M  V30 832 C 67.9607 2.99686 4.38591 0
M  V30 833 C 66.9997 4.21434 4.43914 0
M  V30 834 N 66.1367 4.1784 5.64229 0
M  V30 835 H 70.9767 2.60459 1.44793 0
M  V30 836 H 68.5137 1.29137 0.704423 0
M  V30 837 H 70.4717 1.76352 3.78095 0
M  V30 838 H 69.1017 0.834301 3.11832 0
M  V30 839 H 68.1537 3.08408 2.22685 0
M  V30 840 H 69.4657 3.91165 3.09502 0
M  V30 841 H 68.6197 3.00628 5.2698 0
M  V30 842 H 67.3587 2.07477 4.41367 0
M  V30 843 H 66.3637 4.20733 3.53926 0
M  V30 844 H 67.5887 5.14839 4.42851 0
M  V30 845 H 65.5347 3.28469 5.67841 0
M  V30 846 H 65.4517 5.01571 5.65652 0
M  V30 847 H 66.7197 4.22889 6.54817 0
M  V30 848 N 70.9488 -0.749086 1.3866 0
M  V30 849 C 72.1738 -1.54344 1.38538 0
M  V30 850 C 72.5988 -1.88088 -0.0216655 0
M  V30 851 O 71.9568 -1.50899 -1.00494 0
M  V30 852 C 72.0048 -2.8164 2.25192 0
M  V30 853 O 71.1088 -3.7698 1.67212 0
M  V30 854 H 70.4498 -0.466654 0.472367 0
M  V30 855 H 72.9798 -0.925355 1.82478 0
M  V30 856 H 72.9898 -3.30519 2.3921 0
M  V30 857 H 71.6648 -2.56411 3.27454 0
M  V30 858 H 70.2418 -3.35699 1.6236 0
M  V30 859 N 72.4269 -1.23603 -0.977757 0
M  V30 860 C 73.8429 -0.999251 -1.24447 0
M  V30 861 C 74.0429 0.298053 -1.99283 0
M  V30 862 O 73.0989 1.01681 -2.31122 0
M  V30 863 C 74.4119 -2.20784 -2.04144 0
M  V30 864 C 75.9599 -2.25303 -2.17273 0
M  V30 865 C 76.4349 -3.45755 -3.00362 0
M  V30 866 N 77.9259 -3.4601 -3.07947 0
M  V30 867 C 78.6609 -4.35868 -3.72568 0
M  V30 868 N 78.1569 -5.35966 -4.38991 0
M  V30 869 N 79.9499 -4.23605 -3.6948 0
M  V30 870 H 72.1009 -2.06986 -0.476483 0
M  V30 871 H 74.3639 -0.907801 -0.273134 0
M  V30 872 H 74.0699 -3.14945 -1.56533 0
M  V30 873 H 73.9439 -2.22085 -3.04891 0
M  V30 874 H 76.3309 -1.3168 -2.64092 0
M  V30 875 H 76.4119 -2.28033 -1.15907 0
M  V30 876 H 76.0559 -4.39687 -2.5424 0
M  V30 877 H 75.9859 -3.40266 -4.01904 0
M  V30 878 H 78.4769 -2.73588 -2.60688 0
M  V30 879 H 78.7899 -6.00783 -4.86086 0
M  V30 880 H 77.1349 -5.39863 -4.37691 0
M  V30 881 H 80.3259 -3.44647 -3.16759 0
M  V30 882 H 80.4989 -4.93836 -4.1956 0
M  V30 883 N 73.905 1.17692 -1.04816 0
M  V30 884 C 75.316 1.69501 -0.782698 0
M  V30 885 C 75.667 1.83456 0.695577 0
M  V30 886 O 74.792 1.51942 1.54086 0
M  V30 887 C 75.387 3.07874 -1.41419 0
M  V30 888 C 73.946 3.56864 -1.19686 0
M  V30 889 C 73.093 2.3322 -1.50012 0
M  V30 890 H 76.044 1.02262 -1.2136 0
M  V30 891 H 76.065 3.71528 -0.821428 0
M  V30 892 H 75.577 2.97685 -2.49009 0
M  V30 893 H 73.678 3.72337 -0.140043 0
M  V30 894 H 73.791 4.39851 -1.89916 0
M  V30 895 H 72.155 2.37501 -0.920071 0
M  V30 896 H 72.938 2.25644 -2.58727 0
M  V30 897 N 75.3831 0.828654 1.34056 0
M  V30 898 C 76.3461 0.259927 2.27721 0
M  V30 899 C 77.3461 -0.565478 1.50529 0
M  V30 900 O 78.5361 -0.38075 1.69988 0
M  V30 901 C 75.6681 -0.634944 3.34935 0
M  V30 902 H 76.8611 1.0863 2.79534 0
M  V30 903 H 74.4141 0.600951 1.44285 0
M  V30 904 H 75.1491 -1.48416 2.88346 0
M  V30 905 H 74.9341 -0.0444999 3.92075 0
M  V30 906 H 76.4241 -1.02648 4.04788 0
M  V30 907 N 76.8612 -1.46375 0.584142 0
M  V30 908 C 78.0892 -2.06761 0.0759296 0
M  V30 909 C 78.5042 -1.43266 -1.22965 0
M  V30 910 O 77.8612 -0.538458 -1.74376 0
M  V30 911 C 77.9122 -3.61375 -0.0950384 0
M  V30 912 O 77.6332 -4.22495 1.15887 0
M  V30 913 C 79.1342 -4.38693 -0.637434 0
M  V30 914 H 76.3542 -0.668479 0.0581075 0
M  V30 915 H 78.8982 -1.8798 0.805218 0
M  V30 916 H 77.0532 -3.79578 -0.774554 0
M  V30 917 H 77.4672 -5.15385 0.973598 0
M  V30 918 H 78.9412 -5.47464 -0.706237 0
M  V30 919 H 79.4182 -4.06836 -1.65472 0
M  V30 920 H 80.0242 -4.25299 0.00725967 0
M  V30 921 N 78.3393 -0.321999 -1.54275 0
M  V30 922 C 79.2863 0.544664 -2.24281 0
M  V30 923 C 80.2563 1.1129 -1.23303 0
M  V30 924 O 81.4413 1.15354 -1.51981 0
M  V30 925 C 78.5813 1.70045 -3.00298 0
M  V30 926 C 77.6943 1.16159 -4.1609 0
M  V30 927 C 76.8293 2.28293 -4.79641 0
M  V30 928 C 75.8683 1.71648 -5.8754 0
M  V30 929 N 75.0053 2.77438 -6.44959 0
M  V30 930 H 79.8453 -0.0588907 -2.97942 0
M  V30 931 H 77.3823 -0.0408345 -1.47043 0
M  V30 932 H 79.3403 2.38054 -3.42616 0
M  V30 933 H 77.9703 2.27531 -2.28975 0
M  V30 934 H 77.0223 0.373092 -3.78566 0
M  V30 935 H 78.3343 0.707087 -4.93763 0
M  V30 936 H 77.4883 3.0421 -5.2492 0
M  V30 937 H 76.2273 2.77079 -4.01346 0
M  V30 938 H 75.2323 0.942282 -5.41665 0
M  V30 939 H 76.4573 1.23741 -6.67731 0
M  V30 940 H 74.4033 3.25519 -5.69538 0
M  V30 941 H 74.3203 2.36547 -7.1804 0
M  V30 942 H 75.5883 3.53189 -6.94894 0
M  V30 943 N 79.8174 1.5752 -0.0501392 0
M  V30 944 C 80.7274 2.14952 0.939827 0
M  V30 945 C 81.7434 1.10706 1.34239 0
M  V30 946 O 82.9194 1.42869 1.41952 0
M  V30 947 C 79.9844 2.68232 2.19665 0
M  V30 948 C 79.0454 3.87272 1.85253 0
M  V30 949 C 78.2784 4.38002 3.04943 0
M  V30 950 O 78.5014 3.87811 4.18281 0
M  V30 951 O 77.4354 5.29602 2.86017 0
M  V30 952 H 81.2614 2.9986 0.481392 0
M  V30 953 H 78.8464 1.4841 0.171699 0
M  V30 954 H 80.7284 3.02475 2.93406 0
M  V30 955 H 79.4034 1.86395 2.64648 0
M  V30 956 H 78.3104 3.5792 1.0883 0
M  V30 957 H 79.6434 4.70336 1.4507 0
M  V30 958 N 81.2955 -0.223234 1.56011 0
M  V30 959 C 82.2055 -1.29766 1.95443 0
M  V30 960 C 83.2215 -1.51373 0.858028 0
M  V30 961 O 84.3975 -1.64536 1.16146 0
M  V30 962 C 81.4625 -2.62772 2.26167 0
M  V30 963 C 80.5235 -2.49482 3.49367 0
M  V30 964 C 79.7565 -3.76145 3.78616 0
M  V30 965 O 79.9795 -4.79087 3.09568 0
M  V30 966 O 78.9135 -3.73358 4.72109 0
M  V30 967 H 82.7395 -0.99309 2.87004 0
M  V30 968 H 80.3245 -0.425958 1.43199 0
M  V30 969 H 82.2065 -3.41327 2.47131 0
M  V30 970 H 80.8815 -2.92913 1.37781 0
M  V30 971 H 79.7885 -1.69133 3.33684 0
M  V30 972 H 81.1215 -2.2428 4.38131 0
M  V30 973 N 82.7736 -1.49793 -0.48987 0
M  V30 974 C 83.7036 -1.70201 -1.59856 0
M  V30 975 C 84.6846 -0.55076 -1.60937 0
M  V30 976 O 85.8696 -0.787841 -1.77501 0
M  V30 977 C 82.9996 -1.77882 -2.98287 0
M  V30 978 C 81.9536 -2.92907 -3.12073 0
M  V30 979 C 81.2796 -2.85712 -4.51965 0
M  V30 980 C 82.5796 -4.3369 -2.91051 0
M  V30 981 H 84.2736 -2.63025 -1.43032 0
M  V30 982 H 81.8196 -1.26574 -0.686664 0
M  V30 983 H 83.7726 -1.90744 -3.75759 0
M  V30 984 H 82.4966 -0.816653 -3.16225 0
M  V30 985 H 81.1556 -2.79665 -2.37029 0
M  V30 986 H 80.8036 -1.8738 -4.66795 0
M  V30 987 H 80.5036 -3.62921 -4.62128 0
M  V30 988 H 82.0276 -3.00598 -5.31482 0
M  V30 989 H 83.4416 -4.47555 -3.58284 0
M  V30 990 H 81.8386 -5.12205 -3.12675 0
M  V30 991 H 82.9086 -4.47362 -1.87071 0
M  V30 992 N 84.2517 0.741722 -1.39055 0
M  V30 993 C 85.1817 1.869 -1.39966 0
M  V30 994 C 86.1627 1.6804 -0.26392 0
M  V30 995 O 87.3477 1.88458 -0.468755 0
M  V30 996 C 84.4777 3.24572 -1.23574 0
M  V30 997 C 83.4317 3.58056 -2.34477 0
M  V30 998 C 82.7577 4.94593 -2.0318 0
M  V30 999 C 84.0577 3.61716 -3.76774 0
M  V30 1000 H 85.7517 1.86395 -2.34302 0
M  V30 1001 H 83.2977 0.895361 -1.1278 0
M  V30 1002 H 85.2507 4.031 -1.22834 0
M  V30 1003 H 83.9747 3.25587 -0.257045 0
M  V30 1004 H 82.6337 2.81854 -2.34423 0
M  V30 1005 H 82.2817 4.92181 -1.03765 0
M  V30 1006 H 81.9817 5.17964 -2.77465 0
M  V30 1007 H 83.5057 5.75486 -2.04079 0
M  V30 1008 H 84.9197 4.30335 -3.78794 0
M  V30 1009 H 83.3167 3.96603 -4.50362 0
M  V30 1010 H 84.3867 2.61672 -4.08235 0
M  V30 1011 N 85.7298 1.2412 0.971189 0
M  V30 1012 C 86.6598 1.05508 2.08304 0
M  V30 1013 C 87.6408 -0.0308864 1.70072 0
M  V30 1014 O 88.8258 0.135521 1.93727 0
M  V30 1015 C 85.9558 0.655365 3.4106 0
M  V30 1016 C 84.9098 1.68971 3.93234 0
M  V30 1017 C 84.2358 1.14516 5.22293 0
M  V30 1018 C 85.5358 3.08487 4.21465 0
M  V30 1019 H 87.2298 1.98507 2.24132 0
M  V30 1020 H 84.7758 0.955821 1.07704 0
M  V30 1021 H 86.7288 0.51217 4.18276 0
M  V30 1022 H 85.4528 -0.31032 3.25122 0
M  V30 1023 H 84.1118 1.82106 3.18171 0
M  V30 1024 H 83.7598 0.170189 5.02712 0
M  V30 1025 H 83.4598 1.83635 5.58168 0
M  V30 1026 H 84.9838 1.01401 6.02121 0
M  V30 1027 H 86.3978 2.98601 4.89398 0
M  V30 1028 H 84.7948 3.74926 4.68562 0
M  V30 1029 H 85.8648 3.56787 3.28376 0
M  V30 1030 N 87.2079 -1.17134 1.05439 0
M  V30 1031 C 88.4549 -1.87456 0.765942 0
M  V30 1032 C 88.7829 -1.81189 -0.707153 0
M  V30 1033 O 88.0379 -1.21633 -1.5331 0
M  V30 1034 C 88.3369 -3.36833 1.19491 0
M  V30 1035 C 88.0029 -3.63301 2.67063 0
M  V30 1036 C 86.6649 -3.70234 3.07376 0
M  V30 1037 C 89.0169 -3.74575 3.62413 0
M  V30 1038 C 86.3449 -3.85933 4.41896 0
M  V30 1039 C 88.6969 -3.91793 4.9667 0
M  V30 1040 C 87.3609 -3.96966 5.36633 0
M  V30 1041 H 86.6309 -0.685948 0.280278 0
M  V30 1042 H 89.2779 -1.38556 1.32192 0
M  V30 1043 H 87.5829 -3.87807 0.557969 0
M  V30 1044 H 89.2799 -3.89611 0.948893 0
M  V30 1045 H 85.8699 -3.58532 2.34846 0
M  V30 1046 H 90.0539 -3.68537 3.32406 0
M  V30 1047 H 85.3099 -3.88187 4.72357 0
M  V30 1048 H 89.4839 -3.99458 5.70444 0
M  V30 1049 H 87.1109 -4.08883 6.40874 0
M  V30 1050 N 88.686 -0.835752 -1.33615 0
M  V30 1051 C 89.636 -0.238856 -2.26745 0
M  V30 1052 C 90.62 0.604343 -1.49119 0
M  V30 1053 O 91.812 0.456822 -1.71003 0
M  V30 1054 C 88.941 0.587725 -3.38232 0
M  V30 1055 C 88.027 -0.266811 -4.2326 0
M  V30 1056 N 88.418 -1.34403 -4.87616 0
M  V30 1057 C 86.716 -0.0533131 -4.45968 0
M  V30 1058 C 87.417 -1.86819 -5.50884 0
M  V30 1059 N 86.393 -1.17013 -5.30857 0
M  V30 1060 H 90.195 -1.06266 -2.74016 0
M  V30 1061 H 87.709 -0.679881 -1.47483 0
M  V30 1062 H 89.706 1.03161 -4.03935 0
M  V30 1063 H 88.366 1.40954 -2.9251 0
M  V30 1064 H 89.377 -1.7269 -4.88261 0
M  V30 1065 H 86.054 0.735312 -4.10974 0
M  V30 1066 H 87.444 -2.7701 -6.1214 0
M  V30 1067 N 90.1641 1.46063 -0.591896 0
M  V30 1068 C 91.3921 2.06717 -0.0868936 0
M  V30 1069 C 91.8071 1.43916 1.22203 0
M  V30 1070 O 91.1641 0.547698 1.74088 0
M  V30 1071 C 91.2151 3.6142 0.0758725 0
M  V30 1072 O 90.9361 4.21874 -1.18126 0
M  V30 1073 C 92.4371 4.39025 0.61416 0
M  V30 1074 H 89.6571 0.668162 -0.0616518 0
M  V30 1075 H 92.2011 1.8755 -0.815175 0
M  V30 1076 H 90.3561 3.79983 0.754413 0
M  V30 1077 H 90.7701 5.14861 -1.00092 0
M  V30 1078 H 92.2441 5.4783 0.677193 0
M  V30 1079 H 92.7211 4.07708 1.63312 0
M  V30 1080 H 93.3271 4.2529 -0.0298142 0
M  V30 1081 N 91.6422 0.330177 1.54103 0
M  V30 1082 C 92.5522 -0.541534 2.28264 0
M  V30 1083 C 93.5682 -1.12351 1.32866 0
M  V30 1084 O 94.7442 -1.14206 1.65888 0
M  V30 1085 C 91.8092 -1.68322 3.03098 0
M  V30 1086 C 90.8702 -1.13238 4.14096 0
M  V30 1087 C 90.1032 -2.21966 4.85352 0
M  V30 1088 O 90.3262 -3.42437 4.56172 0
M  V30 1089 O 89.2602 -1.87013 5.7211 0
M  V30 1090 H 93.0862 0.060938 3.03639 0
M  V30 1091 H 90.6712 0.09565 1.49093 0
M  V30 1092 H 92.5532 -2.34777 3.49939 0
M  V30 1093 H 91.2282 -2.27176 2.30593 0
M  V30 1094 H 90.1352 -0.432736 3.71589 0
M  V30 1095 H 91.4682 -0.588898 4.88664 0
M  V30 1096 N 93.1203 -1.57491 0.0584922 0
M  V30 1097 C 94.3973 -1.84346 -0.653918 0
M  V30 1098 C 94.7773 -0.948355 -1.88599 0
M  V30 1099 O 94.1253 -0.0112403 -2.28497 0
M  V30 1100 C 94.3353 -3.34239 -1.00425 0
M  V30 1101 C 95.6833 -4.01431 -1.38342 0
M  V30 1102 O 96.7073 -3.38907 -1.09637 0
M  V30 1103 O 95.5663 -5.11683 -1.91943 0
M  V30 1104 H 92.6603 -0.761112 -0.323478 0
M  V30 1105 H 95.2063 -1.6947 0.0884125 0
M  V30 1106 H 93.9783 -3.91089 -0.128625 0
M  V30 1107 H 93.6013 -3.54329 -1.80378 0
M  V30 1108 N 94.5984 0.214957 -1.56127 0
M  V30 1109 C 95.8284 0.953707 -1.8327 0
M  V30 1110 C 96.2364 1.78181 -0.636262 0
M  V30 1111 O 95.5794 1.79191 0.404516 0
M  V30 1112 C 95.6414 1.91516 -3.0424 0
M  V30 1113 C 95.3054 1.27094 -4.38972 0
M  V30 1114 C 96.3024 0.657575 -5.15725 0
M  V30 1115 C 93.9874 1.28073 -4.85698 0
M  V30 1116 C 95.9814 0.0625968 -6.37369 0
M  V30 1117 C 93.6684 0.681914 -6.07283 0
M  V30 1118 C 94.6664 0.0739046 -6.8296 0
M  V30 1119 O 94.3544 -0.515582 -8.02245 0
M  V30 1120 H 94.0864 0.284764 -0.613095 0
M  V30 1121 H 96.6404 0.233283 -2.04071 0
M  V30 1122 H 94.8704 2.67475 -2.79274 0
M  V30 1123 H 96.5594 2.52001 -3.18198 0
M  V30 1124 H 97.3254 0.642288 -4.80728 0
M  V30 1125 H 93.2044 1.74337 -4.26764 0
M  V30 1126 H 96.7484 -0.412593 -6.96379 0
M  V30 1127 H 92.6454 0.694636 -6.41752 0
M  V30 1128 H 93.4134 -0.410544 -8.1747 0
M  V30 1129 N 96.0765 1.50051 0.48192 0
M  V30 1130 C 97.3255 1.59741 1.23149 0
M  V30 1131 C 97.6385 0.298163 1.93314 0
M  V30 1132 O 98.8445 0.273835 2.70116 0
M  V30 1133 C 97.3005 2.81926 2.23708 0
M  V30 1134 C 96.9085 4.18685 1.59396 0
M  V30 1135 C 98.6525 3.00956 2.99375 0
M  V30 1136 C 96.5595 5.3207 2.58178 0
M  V30 1137 H 95.4895 0.594838 0.46334 0
M  V30 1138 H 98.1405 1.76467 0.503169 0
M  V30 1139 H 96.5225 2.58736 2.99786 0
M  V30 1140 H 97.6965 4.52088 0.891811 0
M  V30 1141 H 96.0115 4.05171 0.960503 0
M  V30 1142 H 98.6085 3.82836 3.73283 0
M  V30 1143 H 98.9515 2.12258 3.58123 0
M  V30 1144 H 99.4845 3.24277 2.30411 0
M  V30 1145 H 96.2235 6.22888 2.04184 0
M  V30 1146 H 95.7435 5.03098 3.26577 0
M  V30 1147 H 97.4225 5.62196 3.20225 0
M  V30 1148 N 97.5546 -0.734337 1.39446 0
M  V30 1149 C 98.5026 -1.86971 1.38364 0
M  V30 1150 C 99.4966 -1.67288 0.266687 0
M  V30 1151 O 100.703 -1.74621 0.436755 0
M  V30 1152 H 97.0776 -0.615474 0.432082 0
M  V30 1153 H 99.0486 -1.85 2.34132 0
M  V30 1154 C 97.7976 -3.2466 1.24465 0
M  V30 1155 H 97.1206 -3.40402 2.09682 0
M  V30 1156 H 98.5606 -4.04292 1.27764 0
M  V30 1157 C 97.0196 -3.36867 -0.0468674 0
M  V30 1158 O 97.5496 -3.88618 -1.01681 0
M  V30 1159 N 95.7556 -2.90391 -0.110145 0
M  V30 1160 H 95.3026 -2.48466 0.679868 0
M  V30 1161 H 95.2606 -2.98939 -0.973799 0
M  V30 1162 N 99.0327 -1.24633 -0.964593 0
M  V30 1163 C 100.261 -1.11501 -1.74285 0
M  V30 1164 C 100.676 0.332165 -1.85855 0
M  V30 1165 O 100.033 1.22903 -1.34911 0
M  V30 1166 C 100.084 -1.75258 -3.16175 0
M  V30 1167 O 99.8047 -3.14318 -3.05182 0
M  V30 1168 C 101.306 -1.67776 -4.10324 0
M  V30 1169 H 98.5257 -0.389407 -0.546446 0
M  V30 1170 H 101.07 -1.64801 -1.21083 0
M  V30 1171 H 99.2247 -1.25954 -3.66353 0
M  V30 1172 H 99.6387 -3.4551 -3.94618 0
M  V30 1173 H 101.113 -2.17064 -5.0753 0
M  V30 1174 H 101.59 -0.639584 -4.34518 0
M  V30 1175 H 102.196 -2.16522 -3.66058 0
M  V30 1176 N 100.511 1.16574 -1.06058 0
M  V30 1177 C 101.441 2.23057 -0.690488 0
M  V30 1178 C 102.422 1.67141 0.315901 0
M  V30 1179 O 103.607 1.93253 0.191556 0
M  V30 1180 C 100.737 3.47222 -0.073625 0
M  V30 1181 C 99.6908 4.16016 -1.00573 0
M  V30 1182 C 99.0168 5.34104 -0.252289 0
M  V30 1183 C 100.317 4.67264 -2.33371 0
M  V30 1184 H 102.011 2.54271 -1.58072 0
M  V30 1185 H 99.5568 1.22218 -0.76149 0
M  V30 1186 H 101.51 4.20939 0.19714 0
M  V30 1187 H 100.234 3.15302 0.85161 0
M  V30 1188 H 98.8928 3.44223 -1.2612 0
M  V30 1189 H 98.5408 4.98437 0.675988 0
M  V30 1190 H 98.2408 5.81072 -0.873455 0
M  V30 1191 H 99.7648 6.10599 0.0109857 0
M  V30 1192 H 101.179 5.32573 -2.12223 0
M  V30 1193 H 99.5758 5.24843 -2.90963 0
M  V30 1194 H 100.646 3.83602 -2.96611 0
M  V30 1195 N 101.989 0.842826 1.3317 0
M  V30 1196 C 102.922 0.223862 2.27099 0
M  V30 1197 C 103.9 -0.631311 1.49844 0
M  V30 1198 O 105.084 -0.590708 1.79005 0
M  V30 1199 C 102.211 -0.685313 3.31694 0
M  V30 1200 C 101.257 0.094919 4.26394 0
M  V30 1201 S 102.09 1.45546 5.15341 0
M  V30 1202 C 103.246 0.551685 6.23464 0
M  V30 1203 H 103.479 1.02015 2.79249 0
M  V30 1204 H 101.012 0.639797 1.4052 0
M  V30 1205 H 102.97 -1.20426 3.92438 0
M  V30 1206 H 101.631 -1.4553 2.78352 0
M  V30 1207 H 100.824 -0.597059 5.00451 0
M  V30 1208 H 100.426 0.545054 3.70007 0
M  V30 1209 H 102.718 -0.248877 6.77043 0
M  V30 1210 H 103.661 1.26253 6.96754 0
M  V30 1211 H 104.069 0.131275 5.64347 0
M  V30 1212 N 103.467 -1.45747 0.599634 0
M  V30 1213 C 104.377 -2.34262 -0.125888 0
M  V30 1214 C 105.393 -1.50768 -0.868625 0
M  V30 1215 O 106.569 -1.83592 -0.828003 0
M  V30 1216 C 103.634 -3.28252 -1.11587 0
M  V30 1217 C 102.695 -4.27651 -0.375956 0
M  V30 1218 C 101.928 -5.1715 -1.31877 0
M  V30 1219 O 102.151 -5.09916 -2.55621 0
M  V30 1220 O 101.085 -5.96286 -0.820157 0
M  V30 1221 H 104.911 -2.97688 0.601315 0
M  V30 1222 H 102.496 -1.44999 0.359934 0
M  V30 1223 H 104.378 -3.86191 -1.68626 0
M  V30 1224 H 103.053 -2.67401 -1.82424 0
M  V30 1225 H 101.96 -3.7335 0.236698 0
M  V30 1226 H 103.293 -4.91334 0.29177 0
M  V30 1227 N 104.945 -0.338344 -1.53925 0
M  V30 1228 C 105.908 0.508299 -2.23493 0
M  V30 1229 C 106.908 1.03175 -1.23335 0
M  V30 1230 O 108.098 0.921826 -1.47811 0
M  V30 1231 C 105.23 1.70754 -2.95052 0
M  V30 1232 H 106.423 -0.100058 -2.99733 0
M  V30 1233 H 103.976 -0.0896198 -1.56043 0
M  V30 1234 H 104.711 2.35474 -2.22986 0
M  V30 1235 H 104.496 1.33946 -3.68512 0
M  V30 1236 H 105.986 2.30818 -3.48013 0
M  V30 1237 N 106.423 1.57458 -0.0668435 0
M  V30 1238 C 107.333 2.15937 0.916975 0
M  V30 1239 C 108.349 1.12123 1.33058 0
M  V30 1240 O 109.525 1.44366 1.40429 0
M  V30 1241 C 106.59 2.70547 2.16807 0
M  V30 1242 C 105.651 3.89215 1.81135 0
M  V30 1243 C 104.884 4.41211 3.0028 0
M  V30 1244 O 105.107 3.92225 4.14144 0
M  V30 1245 O 104.041 5.32605 2.80384 0
M  V30 1246 H 107.867 3.00354 0.449561 0
M  V30 1247 H 105.452 1.48584 0.155949 0
M  V30 1248 H 107.334 3.0557 2.90181 0
M  V30 1249 H 106.009 1.89192 2.62656 0
M  V30 1250 H 104.916 3.59054 1.05028 0
M  V30 1251 H 106.249 4.71848 1.40073 0
M  V30 1252 N 107.901 -0.206675 1.56239 0
M  V30 1253 C 109.317 -0.557025 1.49564 0
M  V30 1254 C 109.517 -1.86424 0.764735 0
M  V30 1255 O 108.573 -2.50584 0.310491 0
M  V30 1256 C 109.886 -0.622478 2.94186 0
M  V30 1257 C 111.434 -0.712099 3.04792 0
M  V30 1258 C 111.909 -0.808767 4.50803 0
M  V30 1259 N 113.4 -0.8726 4.54907 0
M  V30 1260 C 114.135 -0.967365 5.65181 0
M  V30 1261 N 113.631 -1.02515 6.85173 0
M  V30 1262 N 115.424 -1.00366 5.53067 0
M  V30 1263 H 107.575 0.650943 2.02179 0
M  V30 1264 H 109.838 0.230387 0.919579 0
M  V30 1265 H 109.544 0.268727 3.50672 0
M  V30 1266 H 109.418 -1.4811 3.46905 0
M  V30 1267 H 111.805 -1.59374 2.48363 0
M  V30 1268 H 111.886 0.172489 2.55218 0
M  V30 1269 H 111.53 0.0684754 5.07854 0
M  V30 1270 H 111.46 -1.70899 4.98098 0
M  V30 1271 H 113.951 -0.837657 3.68499 0
M  V30 1272 H 114.264 -1.09765 7.64965 0
M  V30 1273 H 112.609 -0.994026 6.87855 0
M  V30 1274 H 115.8 -0.95527 4.58249 0
M  V30 1275 H 115.973 -1.07405 6.39037 0
M  V30 1276 N 109.379 -1.50304 -0.473955 0
M  V30 1277 C 110.619 -1.62786 -1.23612 0
M  V30 1278 C 110.983 -0.319786 -1.89318 0
M  V30 1279 O 112.184 -0.320012 -2.66888 0
M  V30 1280 C 110.455 -2.77351 -2.25414 0
M  V30 1281 S 112.014 -3.09948 -3.10608 0
M  V30 1282 H 108.832 -0.573895 -0.419721 0
M  V30 1283 H 111.434 -1.88076 -0.533623 0
M  V30 1284 H 110.138 -3.70879 -1.75719 0
M  V30 1285 H 109.669 -2.54137 -3.00296 0
M  V30 1286 H 111.684 -2.53553 -4.26527 0
M  V30 1287 N 110.857 0.726932 -1.39834 0
M  V30 1288 C 111.789 1.85147 -1.35104 0
M  V30 1289 C 112.802 1.60736 -0.258392 0
M  V30 1290 O 113.991 1.70821 -0.517931 0
M  V30 1291 C 111.091 3.21332 -1.07697 0
M  V30 1292 C 110.264 3.73033 -2.28396 0
M  V30 1293 C 109.323 4.87802 -1.97322 0
M  V30 1294 O 108.349 5.01043 -2.70083 0
M  V30 1295 N 109.551 5.72768 -0.944273 0
M  V30 1296 H 112.316 1.89706 -2.32017 0
M  V30 1297 H 109.877 0.908006 -1.3404 0
M  V30 1298 H 111.869 3.95691 -0.849144 0
M  V30 1299 H 110.439 3.11992 -0.194909 0
M  V30 1300 H 109.659 2.89934 -2.6708 0
M  V30 1301 H 110.947 4.0431 -3.08887 0
M  V30 1302 H 110.345 5.64669 -0.341427 0
M  V30 1303 H 108.902 6.4716 -0.776346 0
M  V30 1304 N 112.336 1.25143 0.95797 0
M  V30 1305 C 113.576 1.10893 1.71703 0
M  V30 1306 C 113.94 -0.34478 1.88879 0
M  V30 1307 O 115.141 -0.609014 2.6181 0
M  V30 1308 C 113.412 1.83889 3.06463 0
M  V30 1309 S 114.971 1.85491 3.97666 0
M  V30 1310 H 111.789 0.396428 0.590226 0
M  V30 1311 H 114.391 1.58618 1.14283 0
M  V30 1312 H 113.095 2.88756 2.9163 0
M  V30 1313 H 112.626 1.36538 3.68946 0
M  V30 1314 H 114.641 0.929553 4.87415 0
M  V30 1315 N 113.814 -1.1601 1.06675 0
M  V30 1316 C 115.06 -1.86909 0.786945 0
M  V30 1317 C 115.393 -1.81717 -0.685018 0
M  V30 1318 O 114.668 -1.23551 -1.50218 0
M  V30 1319 C 114.951 -3.36313 1.28707 0
M  V30 1320 C 114.804 -3.50175 2.82308 0
M  V30 1321 C 116.123 -4.3084 0.898071 0
M  V30 1322 H 113.242 -0.678677 0.287343 0
M  V30 1323 H 115.884 -1.36336 1.32334 0
M  V30 1324 H 114.034 -3.79513 0.830768 0
M  V30 1325 H 115.706 -3.15886 3.36175 0
M  V30 1326 H 113.949 -2.91959 3.20847 0
M  V30 1327 H 114.62 -4.55116 3.12368 0
M  V30 1328 H 117.096 -3.95561 1.29114 0
M  V30 1329 H 115.972 -5.33876 1.27543 0
M  V30 1330 H 116.233 -4.41662 -0.196651 0
M  V30 1331 N 115.292 -0.849877 -1.32721 0
M  V30 1332 C 116.703 -0.506188 -1.79707 0
M  V30 1333 C 117.054 0.975627 -1.70223 0
M  V30 1334 O 116.179 1.76078 -1.25799 0
M  V30 1335 C 116.774 -0.912044 -3.26293 0
M  V30 1336 C 115.333 -0.620326 -3.71253 0
M  V30 1337 C 114.48 -1.11439 -2.53922 0
M  V30 1338 H 117.431 -1.03754 -1.20087 0
M  V30 1339 H 117.452 -0.226493 -3.79825 0
M  V30 1340 H 116.964 -1.99057 -3.33164 0
M  V30 1341 H 115.065 0.447674 -3.69901 0
M  V30 1342 H 115.178 -1.18327 -4.64258 0
M  V30 1343 H 113.542 -0.534834 -2.49021 0
M  V30 1344 H 114.325 -2.19992 -2.6355 0
M  V30 1345 N 116.77 1.45427 -0.607355 0
M  V30 1346 C 117.717 2.3053 0.111625 0
M  V30 1347 C 118.687 1.4209 0.860216 0
M  V30 1348 O 119.872 1.71019 0.845998 0
M  V30 1349 C 117.012 3.26992 1.10319 0
M  V30 1350 C 116.125 4.30535 0.355493 0
M  V30 1351 C 115.26 5.14105 1.33676 0
M  V30 1352 C 114.299 6.09376 0.576862 0
M  V30 1353 N 113.436 6.85727 1.5074 0
M  V30 1354 H 118.276 2.91477 -0.620093 0
M  V30 1355 H 115.813 1.43631 -0.317594 0
M  V30 1356 H 117.771 3.81385 1.6912 0
M  V30 1357 H 116.401 2.67799 1.80232 0
M  V30 1358 H 115.453 3.78805 -0.348023 0
M  V30 1359 H 116.765 4.98235 -0.237423 0
M  V30 1360 H 115.919 5.72897 1.99684 0
M  V30 1361 H 114.658 4.46423 1.9636 0
M  V30 1362 H 113.663 5.49715 -0.0968519 0
M  V30 1363 H 114.888 6.79085 -0.0449341 0
M  V30 1364 H 112.834 6.20735 2.12189 0
M  V30 1365 H 112.751 7.49778 0.967913 0
M  V30 1366 H 114.019 7.4906 2.15706 0
M  V30 1367 N 118.248 0.346503 1.53744 0
M  V30 1368 C 119.496 -0.248612 2.00565 0
M  V30 1369 C 119.817 -1.5083 1.23593 0
M  V30 1370 O 119.087 -1.92858 0.343912 0
M  V30 1371 H 117.667 -0.0948564 0.740953 0
M  V30 1372 H 120.329 0.468341 1.89189 0
M  V30 1373 H 119.425 -0.488994 3.08245 0
M  V30 1374 N 119.726 -1.57421 0.075193 0
M  V30 1375 C 120.689 -2.11791 -0.876203 0
M  V30 1376 C 121.689 -1.04268 -1.22412 0
M  V30 1377 O 122.879 -1.30242 -1.15684 0
M  V30 1378 C 120.011 -2.62207 -2.17854 0
M  V30 1379 H 121.204 -2.9716 -0.40444 0
M  V30 1380 H 118.757 -1.55333 -0.173557 0
M  V30 1381 H 119.492 -1.803 -2.6956 0
M  V30 1382 H 119.277 -3.40802 -1.93897 0
M  V30 1383 H 120.767 -3.04335 -2.85955 0
M  V30 1384 N 121.204 0.198386 -1.56346 0
M  V30 1385 C 122.62 0.549085 -1.49857 0
M  V30 1386 C 122.82 1.86016 -0.774611 0
M  V30 1387 O 121.876 2.50416 -0.323776 0
M  V30 1388 C 123.189 0.606868 -2.94512 0
M  V30 1389 C 124.737 0.695925 -3.05165 0
M  V30 1390 C 125.212 0.784848 -4.51225 0
M  V30 1391 N 126.703 0.848463 -4.55363 0
M  V30 1392 C 127.438 0.937378 -5.65686 0
M  V30 1393 N 126.934 0.9888 -6.85707 0
M  V30 1394 N 128.727 0.974312 -5.53592 0
M  V30 1395 H 120.878 -0.661655 -2.01831 0
M  V30 1396 H 123.141 -0.235261 -0.918344 0
M  V30 1397 H 122.847 -0.28732 -3.50524 0
M  V30 1398 H 122.721 1.46268 -3.47686 0
M  V30 1399 H 125.108 1.58055 -2.49204 0
M  V30 1400 H 125.189 -0.186022 -2.55123 0
M  V30 1401 H 124.833 -0.0954072 -5.0781 0
M  V30 1402 H 124.763 1.68255 -4.98997 0
M  V30 1403 H 127.254 0.818103 -3.68938 0
M  V30 1404 H 127.567 1.05707 -7.65536 0
M  V30 1405 H 125.912 0.957534 -6.88372 0
M  V30 1406 H 129.103 0.930954 -4.58749 0
M  V30 1407 H 129.276 1.04015 -6.39597 0
M  V30 1408 N 122.682 1.50554 0.465978 0
M  V30 1409 C 123.592 1.72585 1.58907 0
M  V30 1410 C 124.608 0.60911 1.6299 0
M  V30 1411 O 125.784 0.88804 1.80765 0
M  V30 1412 C 122.849 1.81995 2.95091 0
M  V30 1413 C 121.91 3.05751 3.01355 0
M  V30 1414 C 121.143 3.14702 4.31043 0
M  V30 1415 O 121.366 2.30313 5.21835 0
M  V30 1416 O 120.3 4.07468 4.43005 0
M  V30 1417 H 124.126 2.67799 1.43239 0
M  V30 1418 H 121.711 1.34711 0.646013 0
M  V30 1419 H 123.593 1.90335 3.75966 0
M  V30 1420 H 122.268 0.899659 3.10947 0
M  V30 1421 H 121.175 3.02908 2.19539 0
M  V30 1422 H 122.508 3.97375 2.90437 0
M  V30 1423 N 124.16 -0.719506 1.40217 0
M  V30 1424 C 125.107 -1.83359 1.40172 0
M  V30 1425 C 126.077 -1.64065 0.259206 0
M  V30 1426 O 127.262 -1.85254 0.456677 0
M  V30 1427 C 124.402 -3.2103 1.26624 0
M  V30 1428 C 123.515 -3.51923 2.50548 0
M  V30 1429 C 122.65 -4.79079 2.29471 0
M  V30 1430 C 121.689 -5.02863 3.48992 0
M  V30 1431 N 120.826 -6.2123 3.27135 0
M  V30 1432 H 125.666 -1.82733 2.35399 0
M  V30 1433 H 123.203 -0.892688 1.16917 0
M  V30 1434 H 125.161 -4.00524 1.16776 0
M  V30 1435 H 123.791 -3.20895 0.350176 0
M  V30 1436 H 122.843 -2.67014 2.70939 0
M  V30 1437 H 124.155 -3.6541 3.39525 0
M  V30 1438 H 123.309 -5.66582 2.16955 0
M  V30 1439 H 122.048 -4.67794 1.37913 0
M  V30 1440 H 121.053 -4.13816 3.6199 0
M  V30 1441 H 122.278 -5.16023 4.41472 0
M  V30 1442 H 120.224 -6.11204 2.38256 0
M  V30 1443 H 120.141 -6.35375 4.09675 0
M  V30 1444 H 121.409 -7.11532 3.18344 0
M  V30 1445 N 125.638 -1.25649 -0.95132 0
M  V30 1446 C 126.868 -1.13179 -1.72841 0
M  V30 1447 C 127.276 0.316827 -1.86528 0
M  V30 1448 O 126.619 1.22948 -1.3649 0
M  V30 1449 C 126.681 -1.71644 -3.15878 0
M  V30 1450 C 126.345 -3.20667 -3.25609 0
M  V30 1451 C 127.342 -4.17616 -3.09666 0
M  V30 1452 C 125.027 -3.6094 -3.49324 0
M  V30 1453 C 127.021 -5.52817 -3.17289 0
M  V30 1454 C 124.708 -4.96278 -3.56584 0
M  V30 1455 C 125.706 -5.92025 -3.40581 0
M  V30 1456 O 125.394 -7.24899 -3.47528 0
M  V30 1457 H 125.126 -0.395389 -0.54831 0
M  V30 1458 H 127.68 -1.66566 -1.20187 0
M  V30 1459 H 125.91 -1.12707 -3.69911 0
M  V30 1460 H 127.599 -1.54225 -3.75459 0
M  V30 1461 H 128.365 -3.87842 -2.91211 0
M  V30 1462 H 124.244 -2.86907 -3.6084 0
M  V30 1463 H 127.788 -6.2753 -3.04716 0
M  V30 1464 H 123.685 -5.25716 -3.74556 0
M  V30 1465 H 124.453 -7.33039 -3.64138 0
M  V30 1466 N 127.117 1.15442 -1.07289 0
M  V30 1467 C 128.065 2.22225 -0.686952 0
M  V30 1468 C 129.059 1.66688 0.30193 0
M  V30 1469 O 130.265 1.79236 0.165712 0
M  V30 1470 H 126.64 0.723783 -0.204064 0
M  V30 1471 H 128.611 2.52056 -1.5972 0
M  V30 1472 C 127.36 3.47556 -0.100149 0
M  V30 1473 H 126.683 3.90612 -0.852211 0
M  V30 1474 H 128.123 4.23794 0.132235 0
M  V30 1475 C 126.582 3.16337 1.159 0
M  V30 1476 O 127.112 3.33074 2.24555 0
M  V30 1477 N 125.318 2.70385 1.06491 0
M  V30 1478 H 124.865 2.56966 0.180668 0
M  V30 1479 H 124.823 2.49871 1.90819 0
M  V30 1480 N 128.595 0.856903 1.32268 0
M  V30 1481 C 129.844 0.457599 1.96441 0
M  V30 1482 C 130.157 -0.992426 1.68553 0
M  V30 1483 O 131.363 -1.49727 2.26482 0
M  V30 1484 C 129.819 0.767358 3.51624 0
M  V30 1485 C 129.427 2.23326 3.88367 0
M  V30 1486 C 131.171 0.435887 4.22256 0
M  V30 1487 C 129.078 2.48613 5.36606 0
M  V30 1488 H 128.008 0.167387 0.735185 0
M  V30 1489 H 130.659 1.048 1.5063 0
M  V30 1490 H 129.041 0.106367 3.95857 0
M  V30 1491 H 130.215 2.93623 3.55137 0
M  V30 1492 H 128.53 2.52948 3.30766 0
M  V30 1493 H 131.127 0.602202 5.31298 0
M  V30 1494 H 131.47 -0.622672 4.11617 0
M  V30 1495 H 132.003 1.05286 3.83614 0
M  V30 1496 H 128.742 3.53101 5.52268 0
M  V30 1497 H 128.262 1.82896 5.71235 0
M  V30 1498 H 129.941 2.32676 6.03714 0
M  V30 1499 N 130.073 -1.45103 0.615059 0
M  V30 1500 C 131.321 -2.01784 0.112955 0
M  V30 1501 C 131.642 -1.48504 -1.26378 0
M  V30 1502 O 130.912 -0.682245 -1.83636 0
M  V30 1503 H 129.492 -0.745993 0.0387668 0
M  V30 1504 H 132.154 -1.77808 0.798141 0
M  V30 1505 H 131.25 -3.12025 0.0684069 0
M  V30 1506 N 131.551 -0.354651 -1.53558 0
M  V30 1507 C 132.799 0.237972 -2.00694 0
M  V30 1508 C 133.12 1.50173 -1.24391 0
M  V30 1509 O 132.39 1.92673 -0.354135 0
M  V30 1510 H 130.97 0.0909256 -0.741446 0
M  V30 1511 H 133.632 -0.478368 -1.88938 0
M  V30 1512 H 132.728 0.47264 -3.085 0
M  V30 1513 N 133.029 1.57378 -0.0835403 0
M  V30 1514 C 134.259 1.97975 0.590713 0
M  V30 1515 C 134.667 0.961083 1.62972 0
M  V30 1516 O 134.01 -0.0590879 1.83605 0
M  V30 1517 C 134.072 3.34915 1.3066 0
M  V30 1518 C 133.736 4.55069 0.419698 0
M  V30 1519 C 134.733 5.18868 -0.32749 0
M  V30 1520 C 132.418 5.0114 0.341137 0
M  V30 1521 C 134.412 6.27098 -1.14134 0
M  V30 1522 C 132.099 6.0924 -0.476374 0
M  V30 1523 C 133.097 6.72083 -1.21627 0
M  V30 1524 O 132.785 7.781 -2.02028 0
M  V30 1525 H 132.517 0.655818 0.163947 0
M  V30 1526 H 135.071 2.04807 -0.156021 0
M  V30 1527 H 133.301 3.24733 2.09966 0
M  V30 1528 H 134.99 3.60037 1.87424 0
M  V30 1529 H 135.756 4.84211 -0.276459 0
M  V30 1530 H 131.635 4.51996 0.90668 0
M  V30 1531 H 135.179 6.7608 -1.71935 0
M  V30 1532 H 131.076 6.43329 -0.528927 0
M  V30 1533 H 131.844 7.95034 -1.94586 0
M  V30 1534 N 134.507 -0.190092 1.56449 0
M  V30 1535 C 135.417 -1.25591 1.98152 0
M  V30 1536 C 136.433 -1.49519 0.889944 0
M  V30 1537 O 137.609 -1.62036 1.19609 0
M  V30 1538 C 134.674 -2.57916 2.3169 0
M  V30 1539 C 133.735 -2.42015 3.5458 0
M  V30 1540 C 132.968 -3.6803 3.8651 0
M  V30 1541 O 133.191 -4.72413 3.1966 0
M  V30 1542 O 132.125 -3.6326 4.79923 0
M  V30 1543 H 135.951 -0.931988 2.89046 0
M  V30 1544 H 133.536 -0.395488 1.4407 0
M  V30 1545 H 135.418 -3.36008 2.54316 0
M  V30 1546 H 134.093 -2.89925 1.43963 0
M  V30 1547 H 133 -1.62017 3.37196 0
M  V30 1548 H 134.333 -2.14937 4.4279 0
M  V30 1549 N 135.985 -1.50799 -0.457987 0
M  V30 1550 C 136.933 -1.71162 -1.575 0
M  V30 1551 C 137.927 -0.577592 -1.59249 0
M  V30 1552 O 139.133 -0.758443 -1.63241 0
M  V30 1553 H 135.508 -0.540468 -0.522875 0
M  V30 1554 H 137.479 -2.64837 -1.37492 0
M  V30 1555 C 136.228 -1.83496 -2.95338 0
M  V30 1556 H 135.551 -2.70153 -2.94716 0
M  V30 1557 H 136.991 -2.01765 -3.72917 0
M  V30 1558 C 135.45 -0.589694 -3.31699 0
M  V30 1559 O 135.98 0.265163 -4.00824 0
M  V30 1560 N 134.186 -0.439845 -2.87252 0
M  V30 1561 H 133.733 -1.13655 -2.31172 0
M  V30 1562 H 133.691 0.392159 -3.11945 0
M  V30 1563 N 137.463 0.71206 -1.40597 0
M  V30 1564 C 138.874 1.29135 -1.34837 0
M  V30 1565 C 139.225 1.96186 -0.0235395 0
M  V30 1566 O 138.35 1.97768 0.878444 0
M  V30 1567 C 138.945 2.34827 -2.44217 0
M  V30 1568 C 137.504 2.88371 -2.41907 0
M  V30 1569 C 136.651 1.62202 -2.24913 0
M  V30 1570 H 139.602 0.507944 -1.50352 0
M  V30 1571 H 139.623 3.15749 -2.12327 0
M  V30 1572 H 139.135 1.85996 -3.40627 0
M  V30 1573 H 137.236 3.41422 -1.49204 0
M  V30 1574 H 137.349 3.39925 -3.37621 0
M  V30 1575 H 135.713 1.874 -1.72492 0
M  V30 1576 H 136.496 1.15391 -3.23326 0
M  V30 1577 N 138.941 1.26152 0.944643 0
M  V30 1578 C 140.187 1.11657 1.69294 0
M  V30 1579 C 140.52 -0.339926 1.91202 0
M  V30 1580 O 139.795 -1.24994 1.49019 0
M  V30 1581 C 140.078 1.88236 3.06984 0
M  V30 1582 C 139.931 3.41772 2.92424 0
M  V30 1583 C 141.25 1.67343 4.07043 0
M  V30 1584 H 138.369 0.407004 0.614424 0
M  V30 1585 H 141.011 1.55106 1.09737 0
M  V30 1586 H 139.161 1.51308 3.57824 0
M  V30 1587 H 140.833 3.88433 2.48832 0
M  V30 1588 H 139.076 3.68974 2.28124 0
M  V30 1589 H 139.747 3.90579 3.90067 0
M  V30 1590 H 142.223 1.99509 3.65151 0
M  V30 1591 H 141.099 2.23346 5.01406 0
M  V30 1592 H 141.36 0.617158 4.37771 0
M  V30 1593 N 140.419 -1.14872 1.07899 0
M  V30 1594 C 141.644 -1.90202 0.826926 0
M  V30 1595 C 142.069 -1.77774 -0.614664 0
M  V30 1596 O 141.427 -1.11431 -1.43013 0
M  V30 1597 C 141.475 -3.38352 1.24702 0
M  V30 1598 O 140.579 -4.10497 0.39575 0
M  V30 1599 H 139.92 -0.591968 0.300782 0
M  V30 1600 H 142.45 -1.45437 1.43907 0
M  V30 1601 H 142.46 -3.89156 1.22563 0
M  V30 1602 H 141.135 -3.46715 2.29698 0
M  V30 1603 H 139.712 -3.69796 0.480117 0
M  V30 1604 N 141.898 -0.863906 -1.31812 0
M  V30 1605 C 143.128 -0.485406 -2.00817 0
M  V30 1606 C 143.536 0.925007 -1.65046 0
M  V30 1607 O 142.879 1.61653 -0.872574 0
M  V30 1608 C 142.941 -0.555589 -3.55181 0
M  V30 1609 C 142.605 -1.92654 -4.14407 0
M  V30 1610 C 143.602 -2.89324 -4.31958 0
M  V30 1611 C 141.287 -2.2262 -4.50273 0
M  V30 1612 C 143.281 -4.14108 -4.84555 0
M  V30 1613 C 140.968 -3.47654 -5.02573 0
M  V30 1614 C 141.966 -4.43214 -5.19664 0
M  V30 1615 O 141.654 -5.66033 -5.70843 0
M  V30 1616 H 141.386 -0.188224 -0.649267 0
M  V30 1617 H 143.94 -1.16514 -1.69156 0
M  V30 1618 H 142.17 0.181037 -3.86276 0
M  V30 1619 H 143.859 -0.19138 -4.05449 0
M  V30 1620 H 144.625 -2.6748 -4.04573 0
M  V30 1621 H 140.504 -1.4902 -4.3625 0
M  V30 1622 H 144.048 -4.88703 -4.9781 0
M  V30 1623 H 139.945 -3.69345 -5.29391 0
M  V30 1624 H 140.713 -5.6812 -5.89222 0
M  V30 1625 N 143.376 1.44774 -0.622745 0
M  V30 1626 C 144.339 2.29069 0.0774015 0
M  V30 1627 C 145.339 1.4059 0.780461 0
M  V30 1628 O 146.529 1.62551 0.626322 0
M  V30 1629 C 143.661 3.21974 1.12006 0
M  V30 1630 H 144.854 2.92459 -0.663901 0
M  V30 1631 H 142.407 1.51548 -0.382486 0
M  V30 1632 H 143.142 2.63417 1.89162 0
M  V30 1633 H 142.927 3.87168 0.619951 0
M  V30 1634 H 144.417 3.85318 1.60995 0
M  V30 1635 N 144.854 0.36279 1.53368 0
M  V30 1636 C 145.787 -0.528507 2.21996 0
M  V30 1637 C 146.765 -1.0852 1.21087 0
M  V30 1638 O 147.949 -1.14186 1.4998 0
M  V30 1639 C 145.076 -1.72893 2.91249 0
M  V30 1640 C 144.122 -1.29994 4.06207 0
M  V30 1641 S 144.955 -0.303575 5.34639 0
M  V30 1642 C 146.111 -1.51039 6.07403 0
M  V30 1643 H 146.344 0.0543423 2.9725 0
M  V30 1644 H 143.877 0.146889 1.537 0
M  V30 1645 H 145.835 -2.41751 3.31763 0
M  V30 1646 H 144.496 -2.28303 2.15724 0
M  V30 1647 H 143.689 -2.19549 4.53667 0
M  V30 1648 H 143.291 -0.690608 3.67569 0
M  V30 1649 H 145.583 -2.44186 6.31965 0
M  V30 1650 H 146.526 -1.07721 6.99858 0
M  V30 1651 H 146.934 -1.71518 5.37812 0
M  V30 1652 N 146.332 -1.57332 0.0918853 0
M  V30 1653 C 147.579 -1.94236 -0.572577 0
M  V30 1654 C 147.907 -0.973398 -1.6839 0
M  V30 1655 O 147.162 0.00756912 -1.95699 0
M  V30 1656 C 147.461 -3.37689 -1.17051 0
M  V30 1657 C 147.127 -4.50527 -0.183304 0
M  V30 1658 C 145.789 -4.81119 0.0882276 0
M  V30 1659 C 148.141 -5.18883 0.49095 0
M  V30 1660 C 145.469 -5.77395 1.04076 0
M  V30 1661 C 147.821 -6.1618 1.43193 0
M  V30 1662 C 146.485 -6.45179 1.71173 0
M  V30 1663 H 145.755 -0.710762 -0.209521 0
M  V30 1664 H 148.402 -1.9077 0.167036 0
M  V30 1665 H 146.707 -3.37718 -1.9863 0
M  V30 1666 H 148.404 -3.63543 -1.69227 0
M  V30 1667 H 144.994 -4.26681 -0.405124 0
M  V30 1668 H 149.178 -4.95427 0.294312 0
M  V30 1669 H 144.434 -5.98179 1.26457 0
M  V30 1670 H 148.608 -6.68243 1.96023 0
M  V30 1671 H 146.235 -7.1959 2.4514 0
M  V30 1672 N 147.81 0.181792 -1.56548 0
M  V30 1673 C 149.038 0.915947 -1.85521 0
M  V30 1674 C 149.453 1.76282 -0.676016 0
M  V30 1675 O 148.81 1.79012 0.355077 0
M  V30 1676 C 148.861 1.80126 -3.13427 0
M  V30 1677 O 148.582 0.988562 -4.26801 0
M  V30 1678 C 150.083 2.64597 -3.55673 0
M  V30 1679 H 147.303 0.26661 -0.61576 0
M  V30 1680 H 149.847 0.185039 -2.03661 0
M  V30 1681 H 148.002 2.48563 -2.97145 0
M  V30 1682 H 148.416 1.59308 -4.99721 0
M  V30 1683 H 149.89 3.2235 -4.48101 0
M  V30 1684 H 150.367 3.38958 -2.79292 0
M  V30 1685 H 150.973 2.0151 -3.74532 0
M  V30 1686 N 149.288 1.51039 0.449983 0
M  V30 1687 C 150.536 1.62759 1.19808 0
M  V30 1688 C 150.857 0.339981 1.92013 0
M  V30 1689 O 150.127 -0.643606 1.85026 0
M  V30 1690 H 148.707 0.599811 0.445237 0
M  V30 1691 H 151.369 1.87914 0.517138 0
M  V30 1692 H 150.465 2.44911 1.93455 0
M  V30 1693 N 150.766 -0.704594 1.40972 0
M  V30 1694 C 151.991 -1.49858 1.43378 0
M  V30 1695 C 152.416 -1.88061 0.038184 0
M  V30 1696 O 151.774 -1.5402 -0.956425 0
M  V30 1697 C 151.822 -2.74333 2.34038 0
M  V30 1698 O 150.926 -3.7147 1.7912 0
M  V30 1699 H 150.267 -0.45139 0.486974 0
M  V30 1700 H 152.797 -0.866832 1.8533 0
M  V30 1701 H 152.807 -3.22741 2.49604 0
M  V30 1702 H 151.482 -2.45863 3.35446 0
M  V30 1703 H 150.059 -3.30363 1.72958 0
M  V30 1704 N 152.244 -1.26651 -0.937939 0
M  V30 1705 C 153.469 -1.15279 -1.72411 0
M  V30 1706 C 153.894 0.287866 -1.85884 0
M  V30 1707 O 153.252 1.20855 -1.35143 0
M  V30 1708 C 153.3 -1.83028 -3.10698 0
M  V30 1709 O 152.404 -1.12128 -3.96864 0
M  V30 1710 H 151.745 -0.401504 -0.528858 0
M  V30 1711 H 154.275 -1.67531 -1.1745 0
M  V30 1712 H 154.285 -1.89981 -3.6107 0
M  V30 1713 H 152.96 -2.87833 -3.00208 0
M  V30 1714 H 151.537 -1.13173 -3.55312 0
M  V30 1715 N 153.722 1.14298 -1.08507 0
M  V30 1716 C 154.652 2.21542 -0.737646 0
M  V30 1717 C 155.633 1.67773 0.280377 0
M  V30 1718 O 156.818 1.93616 0.150521 0
M  V30 1719 C 153.948 3.46988 -0.147259 0
M  V30 1720 C 152.902 4.13789 -1.09374 0
M  V30 1721 C 152.228 5.33449 -0.365524 0
M  V30 1722 C 153.528 4.62208 -2.4323 0
M  V30 1723 H 155.222 2.5086 -1.6343 0
M  V30 1724 H 152.768 1.20576 -0.787243 0
M  V30 1725 H 154.721 4.21262 0.107808 0
M  V30 1726 H 153.445 3.17037 0.784538 0
M  V30 1727 H 152.104 3.4147 -1.33393 0
M  V30 1728 H 151.752 4.99759 0.57011 0
M  V30 1729 H 151.452 5.79088 -0.996512 0
M  V30 1730 H 152.976 6.10485 -0.118534 0
M  V30 1731 H 154.39 5.27952 -2.23472 0
M  V30 1732 H 152.787 5.18553 -3.02031 0
M  V30 1733 H 153.857 3.77224 -3.04681 0
M  V30 1734 N 155.201 0.870884 1.31352 0
M  V30 1735 C 156.164 0.332243 2.26779 0
M  V30 1736 C 157.164 -0.517302 1.52252 0
M  V30 1737 O 158.354 -0.326477 1.71113 0
M  V30 1738 C 155.486 -0.528066 3.36785 0
M  V30 1739 H 156.679 1.17469 2.75937 0
M  V30 1740 H 154.232 0.64655 1.423 0
M  V30 1741 H 154.967 -1.39167 2.92922 0
M  V30 1742 H 154.752 0.0802582 3.92018 0
M  V30 1743 H 156.242 -0.897179 4.07849 0
M  V30 1744 N 156.679 -1.44442 0.630414 0
M  V30 1745 C 157.907 -2.06414 0.141671 0
M  V30 1746 C 158.322 -1.47105 -1.18345 0
M  V30 1747 O 157.679 -0.593662 -1.72574 0
M  V30 1748 C 157.73 -3.61494 0.0199784 0
M  V30 1749 O 157.451 -4.18594 1.29269 0
M  V30 1750 C 158.952 -4.40499 -0.497544 0
M  V30 1751 H 156.172 -0.666292 0.0793452 0
M  V30 1752 H 158.716 -1.85323 0.864614 0
M  V30 1753 H 156.871 -3.8185 -0.653402 0
M  V30 1754 H 157.285 -5.12026 1.13707 0
M  V30 1755 H 158.759 -5.49433 -0.531708 0
M  V30 1756 H 159.236 -4.11895 -1.52445 0
M  V30 1757 H 159.842 -4.25061 0.142562 0
M  V30 1758 N 158.157 -0.370918 -1.53173 0
M  V30 1759 C 159.405 0.216673 -2.00935 0
M  V30 1760 C 159.726 1.48845 -1.25977 0
M  V30 1761 O 158.996 1.92286 -0.374551 0
M  V30 1762 H 157.576 0.0830565 -0.742368 0
M  V30 1763 H 160.238 -0.49838 -1.8842 0
M  V30 1764 H 159.334 0.439893 -3.08984 0
M  V30 1765 N 159.635 1.57281 -0.100228 0
M  V30 1766 C 160.86 1.99302 0.573881 0
M  V30 1767 C 161.285 0.979059 1.60611 0
M  V30 1768 O 160.643 -0.0517803 1.81226 0
M  V30 1769 C 160.691 3.40274 1.19358 0
M  V30 1770 O 159.795 3.41676 2.30935 0
M  V30 1771 H 159.136 0.647944 0.145138 0
M  V30 1772 H 161.666 2.03779 -0.183156 0
M  V30 1773 H 161.676 3.78078 1.53365 0
M  V30 1774 H 160.351 4.13594 0.437385 0
M  V30 1775 H 158.928 3.15672 1.98509 0
M  V30 1776 N 161.113 -0.173488 1.56642 0
M  V30 1777 C 162.341 -0.906095 1.86004 0
M  V30 1778 C 162.756 -1.75921 0.685355 0
M  V30 1779 O 162.113 -1.79198 -0.345578 0
M  V30 1780 C 162.164 -1.78462 3.14378 0
M  V30 1781 O 161.885 -0.965914 4.27319 0
M  V30 1782 C 163.386 -2.62707 3.57071 0
M  V30 1783 H 160.606 -0.263341 0.617165 0
M  V30 1784 H 163.15 -0.174236 2.03756 0
M  V30 1785 H 161.305 -2.46984 2.98459 0
M  V30 1786 H 161.719 -1.56655 5.00559 0
M  V30 1787 H 163.193 -3.19969 4.49804 0
M  V30 1788 H 163.67 -3.37472 2.81086 0
M  V30 1789 H 164.276 -1.99521 3.75595 0
M  V30 1790 N 162.591 -1.51276 -0.441967 0
M  V30 1791 C 163.837 -1.63958 -1.19355 0
M  V30 1792 C 164.17 -0.352543 -1.90973 0
M  V30 1793 O 163.445 0.647627 -1.83401 0
M  V30 1794 C 163.728 -2.83979 -2.21422 0
M  V30 1795 C 163.581 -4.22646 -1.53918 0
M  V30 1796 C 164.9 -2.99521 -3.22451 0
M  V30 1797 H 162.019 -0.596709 -0.432559 0
M  V30 1798 H 164.661 -1.83748 -0.483398 0
M  V30 1799 H 162.811 -2.67237 -2.81987 0
M  V30 1800 H 164.483 -4.51045 -0.967256 0
M  V30 1801 H 162.726 -4.25558 -0.841615 0
M  V30 1802 H 163.397 -5.02609 -2.28229 0
M  V30 1803 H 165.873 -3.14944 -2.71937 0
M  V30 1804 H 164.749 -3.85072 -3.91166 0
M  V30 1805 H 165.01 -2.11391 -3.88287 0
M  V30 1806 N 164.069 0.697108 -1.41344 0
M  V30 1807 C 165.001 1.8224 -1.39001 0
M  V30 1808 C 166.014 1.60152 -0.292428 0
M  V30 1809 O 167.203 1.69684 -0.554048 0
M  V30 1810 C 164.303 3.18976 -1.14489 0
M  V30 1811 C 163.476 3.68105 -2.36258 0
M  V30 1812 C 162.535 4.83506 -2.07625 0
M  V30 1813 O 161.561 4.95201 -2.8065 0
M  V30 1814 N 162.763 5.70637 -1.06555 0
M  V30 1815 H 165.528 1.84742 -2.35988 0
M  V30 1816 H 163.089 0.87937 -1.35936 0
M  V30 1817 H 165.081 3.93801 -0.932885 0
M  V30 1818 H 163.651 3.11508 -0.261043 0
M  V30 1819 H 162.871 2.84204 -2.7317 0
M  V30 1820 H 164.159 3.97667 -3.17393 0
M  V30 1821 H 163.557 5.63817 -0.461125 0
M  V30 1822 H 162.114 6.45368 -0.913444 0
M  V30 1823 N 165.547 1.27147 0.931209 0
M  V30 1824 C 166.51 1.09615 2.01289 0
M  V30 1825 C 167.51 0.0412581 1.60747 0
M  V30 1826 O 168.7 0.285545 1.71844 0
M  V30 1827 C 165.832 0.669447 3.34262 0
M  V30 1828 H 167.025 2.05662 2.18273 0
M  V30 1829 H 164.578 1.09885 1.11153 0
M  V30 1830 H 165.313 -0.292572 3.22978 0
M  V30 1831 H 165.098 1.43127 3.65044 0
M  V30 1832 H 166.588 0.568921 4.13706 0
M  V30 1833 N 167.025 -1.13721 1.09112 0
M  V30 1834 C 168.274 -1.84275 0.82009 0
M  V30 1835 C 168.587 -1.84253 -0.656509 0
M  V30 1836 O 169.793 -2.50668 -1.04296 0
M  V30 1837 C 168.249 -3.30825 1.41714 0
M  V30 1838 C 167.857 -3.39244 2.92605 0
M  V30 1839 C 169.601 -4.06443 1.22492 0
M  V30 1840 C 167.508 -4.80047 3.45411 0
M  V30 1841 H 166.438 -0.690387 0.30312 0
M  V30 1842 H 169.089 -1.28146 1.31343 0
M  V30 1843 H 167.471 -3.86737 0.851498 0
M  V30 1844 H 168.645 -2.93344 3.55367 0
M  V30 1845 H 166.96 -2.77088 3.10823 0
M  V30 1846 H 169.557 -5.10387 1.59402 0
M  V30 1847 H 169.9 -4.15972 0.165299 0
M  V30 1848 H 170.433 -3.56852 1.75788 0
M  V30 1849 H 167.172 -4.75709 4.50978 0
M  V30 1850 H 166.692 -5.26455 2.87411 0
M  V30 1851 H 168.371 -5.48957 3.42425 0
M  V30 1852 N 168.503 -0.877838 -1.30888 0
M  V30 1853 C 169.413 -0.343096 -2.32078 0
M  V30 1854 C 170.429 0.551022 -1.65045 0
M  V30 1855 O 171.605 0.445854 -1.96403 0
M  V30 1856 C 168.67 0.439905 -3.43898 0
M  V30 1857 C 167.731 -0.483111 -4.26573 0
M  V30 1858 C 166.964 0.262616 -5.33053 0
M  V30 1859 O 167.187 1.48967 -5.50604 0
M  V30 1860 O 166.121 -0.383593 -6.00676 0
M  V30 1861 H 169.947 -1.18203 -2.79753 0
M  V30 1862 H 167.532 -0.64145 -1.34929 0
M  V30 1863 H 169.414 0.883504 -4.12034 0
M  V30 1864 H 168.089 1.25526 -2.98371 0
M  V30 1865 H 166.996 -0.975374 -3.61161 0
M  V30 1866 H 168.329 -1.26427 -4.75686 0
M  V30 1867 N 169.982 1.44106 -0.638065 0
M  V30 1868 C 170.892 2.34513 0.0637334 0
M  V30 1869 C 171.908 1.53018 0.828346 0
M  V30 1870 O 173.084 1.85723 0.779036 0
M  V30 1871 C 170.149 3.31095 1.02844 0
M  V30 1872 C 169.21 4.28497 0.26244 0
M  V30 1873 C 168.443 5.20465 1.1812 0
M  V30 1874 O 168.666 5.16514 2.42011 0
M  V30 1875 O 167.6 5.98251 0.661774 0
M  V30 1876 H 171.426 2.95989 -0.68003 0
M  V30 1877 H 169.011 1.43994 -0.398252 0
M  V30 1878 H 170.893 3.90526 1.58327 0
M  V30 1879 H 169.568 2.72144 1.7527 0
M  V30 1880 H 168.475 3.72592 -0.335602 0
M  V30 1881 H 169.808 4.90388 -0.421936 0
M  V30 1882 N 171.46 0.379036 1.52974 0
M  V30 1883 C 172.707 -0.206421 2.01445 0
M  V30 1884 C 173.035 -1.47668 1.26587 0
M  V30 1885 O 172.29 -1.92514 0.351675 0
M  V30 1886 C 172.589 -0.53096 3.53434 0
M  V30 1887 C 172.255 0.646546 4.46241 0
M  V30 1888 C 170.917 0.969604 4.7133 0
M  V30 1889 C 173.269 1.43479 5.01062 0
M  V30 1890 C 170.597 2.08263 5.48492 0
M  V30 1891 C 172.949 2.53834 5.7944 0
M  V30 1892 C 171.613 2.86659 6.02812 0
M  V30 1893 H 170.883 -0.0755349 0.73714 0
M  V30 1894 H 173.53 0.514271 1.84465 0
M  V30 1895 H 171.835 -1.33285 3.68432 0
M  V30 1896 H 173.532 -0.996417 3.88423 0
M  V30 1897 H 170.122 0.384734 4.2687 0
M  V30 1898 H 174.306 1.19844 4.81613 0
M  V30 1899 H 169.562 2.34078 5.64816 0
M  V30 1900 H 173.736 3.15319 6.20924 0
M  V30 1901 H 171.363 3.73026 6.62387 0
M  V30 1902 N 172.938 -1.57226 0.108567 0
M  V30 1903 C 173.868 -2.17778 -0.84232 0
M  V30 1904 C 174.849 -1.11487 -1.2847 0
M  V30 1905 O 176.034 -1.39681 -1.34918 0
M  V30 1906 C 173.164 -2.76888 -2.09644 0
M  V30 1907 C 172.118 -3.88669 -1.79221 0
M  V30 1908 C 171.444 -4.34541 -3.11574 0
M  V30 1909 C 172.744 -5.11251 -1.06864 0
M  V30 1910 H 174.438 -2.97489 -0.337774 0
M  V30 1911 H 171.984 -1.43097 -0.161025 0
M  V30 1912 H 173.937 -3.17904 -2.76614 0
M  V30 1913 H 172.661 -1.94451 -2.62405 0
M  V30 1914 H 171.32 -3.48213 -1.14644 0
M  V30 1915 H 170.968 -3.48977 -3.62249 0
M  V30 1916 H 170.668 -5.09914 -2.91996 0
M  V30 1917 H 172.192 -4.782 -3.7968 0
M  V30 1918 H 173.606 -5.49352 -1.63968 0
M  V30 1919 H 172.003 -5.9214 -0.974178 0
M  V30 1920 H 173.073 -4.8487 -0.0536168 0
M  V30 1921 N 174.416 0.165178 -1.56732 0
M  V30 1922 C 175.363 1.2044 -1.96883 0
M  V30 1923 C 176.333 1.43664 -0.833657 0
M  V30 1924 O 177.518 1.56302 -1.09427 0
M  V30 1925 C 174.658 2.53727 -2.33916 0
M  V30 1926 C 173.771 2.3783 -3.6064 0
M  V30 1927 C 172.906 3.64026 -3.86857 0
M  V30 1928 C 171.945 3.43088 -5.06909 0
M  V30 1929 N 171.082 4.61369 -5.29229 0
M  V30 1930 H 175.922 0.854996 -2.85471 0
M  V30 1931 H 173.459 0.41076 -1.41249 0
M  V30 1932 H 175.417 3.31419 -2.53411 0
M  V30 1933 H 174.047 2.8665 -1.48431 0
M  V30 1934 H 173.099 1.51282 -3.49024 0
M  V30 1935 H 174.411 2.18308 -4.4849 0
M  V30 1936 H 173.565 4.50152 -4.06753 0
M  V30 1937 H 172.304 3.86533 -2.97394 0
M  V30 1938 H 171.309 2.55349 -4.86906 0
M  V30 1939 H 172.534 3.21997 -5.97909 0
M  V30 1940 H 170.48 4.84084 -4.42718 0
M  V30 1941 H 170.397 4.44783 -6.11313 0
M  V30 1942 H 171.665 5.48761 -5.53608 0
M  V30 1943 N 175.894 1.51508 0.433938 0
M  V30 1944 C 177.142 1.6402 1.18075 0
M  V30 1945 C 177.463 0.360328 1.91642 0
M  V30 1946 O 176.733 -0.623945 1.85698 0
M  V30 1947 H 175.313 0.6045 0.43885 0
M  V30 1948 H 177.975 1.88452 0.497178 0
M  V30 1949 H 177.071 2.46949 1.90847 0
M  V30 1950 N 177.372 -0.689602 1.41712 0
M  V30 1951 C 178.32 -1.82475 1.44242 0
M  V30 1952 C 179.314 -1.66354 0.319774 0
M  V30 1953 O 180.52 -1.73143 0.492089 0
M  V30 1954 H 176.895 -0.601416 0.451445 0
M  V30 1955 H 178.866 -1.77458 2.39899 0
M  V30 1956 C 177.615 -3.20535 1.3473 0
M  V30 1957 H 176.938 -3.33559 2.20405 0
M  V30 1958 H 178.378 -4.00023 1.40562 0
M  V30 1959 C 176.837 -3.36846 0.0603281 0
M  V30 1960 O 177.367 -3.91656 -0.892663 0
M  V30 1961 N 175.573 -2.90595 -0.0177039 0
M  V30 1962 H 175.12 -2.46178 0.758572 0
M  V30 1963 H 175.078 -3.01886 -0.878201 0
M  V30 1964 N 178.85 -1.27639 -0.924453 0
M  V30 1965 C 180.096 -1.14336 -1.67497 0
M  V30 1966 C 180.429 0.309465 -1.91718 0
M  V30 1967 O 179.704 1.22608 -1.50989 0
M  V30 1968 C 179.987 -1.93096 -3.0395 0
M  V30 1969 C 179.84 -3.46381 -2.8695 0
M  V30 1970 C 181.159 -1.73798 -4.0433 0
M  V30 1971 H 178.278 -0.416728 -0.607871 0
M  V30 1972 H 180.92 -1.56832 -1.07256 0
M  V30 1973 H 179.07 -1.56982 -3.55372 0
M  V30 1974 H 180.742 -3.92343 -2.42621 0
M  V30 1975 H 178.985 -3.72557 -2.22225 0
M  V30 1976 H 179.656 -3.96735 -3.83804 0
M  V30 1977 H 182.132 -2.05293 -3.61931 0
M  V30 1978 H 181.008 -2.31294 -4.97789 0
M  V30 1979 H 181.269 -0.686725 -4.36734 0
M  V30 1980 N 180.328 1.1314 -1.09713 0
M  V30 1981 C 181.291 2.16831 -0.742751 0
M  V30 1982 C 182.291 1.59159 0.229129 0
M  V30 1983 O 183.481 1.74199 0.00693237 0
M  V30 1984 C 180.613 3.40756 -0.0989168 0
M  V30 1985 H 181.806 2.49695 -1.66109 0
M  V30 1986 H 179.359 1.2802 -0.896699 0
M  V30 1987 H 180.094 3.13485 0.830514 0
M  V30 1988 H 179.879 3.83888 -0.798265 0
M  V30 1989 H 181.369 4.17386 0.133524 0
M  V30 1990 N 181.806 0.884767 1.30421 0
M  V30 1991 C 183.053 0.503105 1.96151 0
M  V30 1992 C 183.381 -0.947676 1.69851 0
M  V30 1993 O 182.636 -1.68467 0.995861 0
M  V30 1994 C 182.935 0.724318 3.49983 0
M  V30 1995 C 182.601 2.15015 3.96332 0
M  V30 1996 C 181.263 2.54005 4.08699 0
M  V30 1997 C 183.615 3.07936 4.20505 0
M  V30 1998 C 180.943 3.85128 4.42599 0
M  V30 1999 C 183.295 4.3859 4.55874 0
M  V30 2000 C 181.959 4.77474 4.66449 0
M  V30 2001 H 181.229 0.184099 0.717766 0
M  V30 2002 H 183.876 1.12058 1.55291 0
M  V30 2003 H 182.181 0.0238086 3.91793 0
M  V30 2004 H 183.878 0.408617 3.98913 0
M  V30 2005 H 180.468 1.8375 3.87213 0
M  V30 2006 H 184.652 2.79033 4.10431 0
M  V30 2007 H 179.908 4.14996 4.48986 0
M  V30 2008 H 184.082 5.10629 4.7353 0
M  V30 2009 H 181.709 5.79115 4.92473 0
M  V30 2010 N 183.284 -1.43765 0.645699 0
M  V30 2011 C 184.232 -2.32516 -0.0624849 0
M  V30 2012 C 185.226 -1.48183 -0.820855 0
M  V30 2013 O 186.432 -1.64439 -0.732106 0
M  V30 2014 H 182.807 -0.750989 -0.0389864 0
M  V30 2015 H 184.778 -2.89979 0.703892 0
M  V30 2016 C 183.527 -3.32389 -1.02044 0
M  V30 2017 H 182.85 -3.97301 -0.446312 0
M  V30 2018 H 184.29 -3.97138 -1.48517 0
M  V30 2019 C 182.749 -2.62416 -2.11281 0
M  V30 2020 O 183.279 -2.434 -3.19561 0
M  V30 2021 N 181.485 -2.21913 -1.87624 0
M  V30 2022 H 181.032 -2.37578 -0.995703 0
M  V30 2023 H 180.99 -1.75424 -2.6091 0
M  V30 2024 N 184.763 -0.387143 -1.52771 0
M  V30 2025 C 186.174 0.0873634 -1.86495 0
M  V30 2026 C 186.525 1.46336 -1.30691 0
M  V30 2027 O 185.65 2.068 -0.637409 0
M  V30 2028 C 186.245 0.165305 -3.38396 0
M  V30 2029 C 184.804 0.584101 -3.7184 0
M  V30 2030 C 183.951 -0.255279 -2.76122 0
M  V30 2031 H 186.902 -0.605104 -1.46711 0
M  V30 2032 H 186.923 0.984848 -3.67534 0
M  V30 2033 H 186.435 -0.836301 -3.78982 0
M  V30 2034 H 184.536 1.59315 -3.36823 0
M  V30 2035 H 184.649 0.343749 -4.77865 0
M  V30 2036 H 183.013 0.279126 -2.53166 0
M  V30 2037 H 183.796 -1.25482 -3.19545 0
M  V30 2038 N 186.241 1.57166 -0.116904 0
M  V30 2039 C 187.204 2.14039 0.819742 0
M  V30 2040 C 188.204 1.07477 1.19605 0
M  V30 2041 O 189.394 1.33263 1.1219 0
M  V30 2042 C 186.526 2.67891 2.10826 0
M  V30 2043 H 187.719 2.98128 0.325511 0
M  V30 2044 H 185.272 1.55739 0.132312 0
M  V30 2045 H 186.007 1.87384 2.64685 0
M  V30 2046 H 185.792 3.45823 1.84793 0
M  V30 2047 H 187.282 3.11809 2.77785 0
M  V30 2048 N 187.719 -0.156864 1.56817 0
M  V30 2049 C 188.967 -0.869404 1.82444 0
M  V30 2050 C 189.288 -1.82147 0.69623 0
M  V30 2051 O 188.558 -1.93847 -0.28287 0
M  V30 2052 H 187.138 -0.324043 0.673056 0
M  V30 2053 H 189.8 -0.153224 1.94297 0
M  V30 2054 H 188.896 -1.43761 2.77019 0
M  V30 2055 N 189.197 -1.51736 -0.425897 0
M  V30 2056 C 190.445 -1.64644 -1.17204 0
M  V30 2057 C 190.766 -0.370486 -1.91448 0
M  V30 2058 O 190.036 0.614088 -1.86026 0
M  V30 2059 H 188.616 -0.606819 -0.435638 0
M  V30 2060 H 191.278 -1.88713 -0.487177 0
M  V30 2061 H 190.374 -2.47958 -1.89534 0
M  V30 2062 N 190.675 0.682077 -1.42076 0
M  V30 2063 C 191.608 1.80666 -1.3941 0
M  V30 2064 C 192.586 1.60518 -0.25939 0
M  V30 2065 O 193.77 1.83088 -0.448456 0
M  V30 2066 C 190.897 3.17556 -1.17796 0
M  V30 2067 C 189.943 3.56468 -2.34164 0
M  V30 2068 S 190.776 3.59729 -3.96681 0
M  V30 2069 C 191.932 4.99323 -3.77395 0
M  V30 2070 H 192.165 1.82652 -2.34575 0
M  V30 2071 H 189.698 0.852062 -1.2876 0
M  V30 2072 H 191.656 3.96575 -1.06012 0
M  V30 2073 H 190.317 3.13164 -0.242279 0
M  V30 2074 H 189.51 4.5595 -2.1477 0
M  V30 2075 H 189.112 2.84792 -2.42425 0
M  V30 2076 H 191.404 5.87202 -3.37935 0
M  V30 2077 H 192.347 5.23763 -4.76527 0
M  V30 2078 H 192.755 4.71498 -3.10403 0
M  V30 2079 N 192.153 1.28127 0.917671 0
M  V30 2080 C 193.103 1.08361 2.00604 0
M  V30 2081 C 194.087 0.00847518 1.60898 0
M  V30 2082 O 195.279 0.228167 1.75523 0
M  V30 2083 C 192.408 0.743376 3.35155 0
M  V30 2084 C 191.494 1.85716 3.81275 0
M  V30 2085 N 191.885 3.09822 3.99805 0
M  V30 2086 C 190.183 1.74612 4.10398 0
M  V30 2087 C 190.884 3.82368 4.38372 0
M  V30 2088 N 189.86 3.10192 4.4641 0
M  V30 2089 H 193.662 2.02531 2.12975 0
M  V30 2090 H 191.176 1.18989 1.10523 0
M  V30 2091 H 193.173 0.582859 4.12805 0
M  V30 2092 H 191.833 -0.190595 3.2414 0
M  V30 2093 H 192.844 3.45475 3.85833 0
M  V30 2094 H 189.521 0.883657 4.08041 0
M  V30 2095 H 190.911 4.89082 4.60704 0
M  V30 2096 N 193.631 -1.12557 1.10312 0
M  V30 2097 C 194.581 -2.16331 0.720076 0
M  V30 2098 C 195.565 -1.58616 -0.270115 0
M  V30 2099 O 196.757 -1.76823 -0.0790507 0
M  V30 2100 C 193.886 -3.42963 0.152113 0
M  V30 2101 C 192.972 -4.07663 1.16927 0
M  V30 2102 N 193.363 -4.47392 2.35953 0
M  V30 2103 C 191.661 -4.34425 1.0095 0
M  V30 2104 C 192.362 -4.97932 3.0073 0
M  V30 2105 N 191.338 -4.93358 2.28252 0
M  V30 2106 H 195.14 -2.44813 1.62616 0
M  V30 2107 H 192.654 -1.29449 0.980654 0
M  V30 2108 H 194.651 -4.16664 -0.14037 0
M  V30 2109 H 193.311 -3.1595 -0.748701 0
M  V30 2110 H 194.322 -4.39802 2.73486 0
M  V30 2111 H 190.999 -4.17177 0.164134 0
M  V30 2112 H 192.389 -5.38397 4.01969 0
M  V30 2113 N 195.109 -0.891671 -1.2995 0
M  V30 2114 C 196.072 -0.36828 -2.26222 0
M  V30 2115 C 197.072 0.493014 -1.53056 0
M  V30 2116 O 198.262 0.299213 -1.71611 0
M  V30 2117 C 195.394 0.47442 -3.37583 0
M  V30 2118 H 196.587 -1.21844 -2.74033 0
M  V30 2119 H 194.14 -0.669107 -1.41254 0
M  V30 2120 H 194.875 1.34489 -2.95099 0
M  V30 2121 H 194.66 -0.142615 -3.91841 0
M  V30 2122 H 196.15 0.83218 -4.09224 0
M  V30 2123 N 196.587 1.43421 -0.653314 0
M  V30 2124 C 197.834 2.01812 -0.166745 0
M  V30 2125 C 198.162 1.51535 1.21931 0
M  V30 2126 O 197.417 0.698975 1.82792 0
M  V30 2127 C 197.716 3.57176 -0.126623 0
M  V30 2128 C 197.382 4.26798 -1.45444 0
M  V30 2129 C 196.044 4.45534 -1.81805 0
M  V30 2130 C 198.396 4.66225 -2.32989 0
M  V30 2131 C 195.724 5.00961 -3.05377 0
M  V30 2132 C 198.076 5.23021 -3.55853 0
M  V30 2133 C 196.74 5.39973 -3.9241 0
M  V30 2134 H 196.01 0.738484 -0.0610162 0
M  V30 2135 H 198.657 1.71896 -0.84404 0
M  V30 2136 H 196.962 3.86634 0.634123 0
M  V30 2137 H 198.659 4.00112 0.266723 0
M  V30 2138 H 195.249 4.12561 -1.16153 0
M  V30 2139 H 199.433 4.51443 -2.06187 0
M  V30 2140 H 194.689 5.12271 -3.3375 0
M  V30 2141 H 198.863 5.52518 -4.23907 0
M  V30 2142 H 196.49 5.82687 -4.88242 0
M  V30 2143 N 198.065 0.39524 1.52563 0
M  V30 2144 C 199.012 -0.437036 2.26624 0
M  V30 2145 C 199.982 -1.05281 1.28472 0
M  V30 2146 O 201.167 -1.07971 1.57311 0
M  V30 2147 C 198.307 -1.55524 3.08069 0
M  V30 2148 C 197.42 -0.961745 4.21158 0
M  V30 2149 C 196.555 -2.05149 4.89987 0
M  V30 2150 C 195.594 -1.4342 5.95061 0
M  V30 2151 N 194.731 -2.46351 6.57462 0
M  V30 2152 H 199.571 0.200976 2.97322 0
M  V30 2153 H 197.108 0.110944 1.46681 0
M  V30 2154 H 199.066 -2.21437 3.53584 0
M  V30 2155 H 197.696 -2.16348 2.3957 0
M  V30 2156 H 196.748 -0.192048 3.79915 0
M  V30 2157 H 198.06 -0.470701 4.96574 0
M  V30 2158 H 197.214 -2.78819 5.38837 0
M  V30 2159 H 195.953 -2.57615 4.14109 0
M  V30 2160 H 194.958 -0.682774 5.45544 0
M  V30 2161 H 196.183 -0.917416 6.72875 0
M  V30 2162 H 194.129 -2.97975 5.8442 0
M  V30 2163 H 194.046 -2.02019 7.28508 0
M  V30 2164 H 195.314 -3.19633 7.10954 0
M  V30 2165 N 199.544 -1.57102 0.125237 0
M  V30 2166 C 200.769 -2.0019 -0.542101 0
M  V30 2167 C 201.194 -1.00449 -1.59034 0
M  V30 2168 O 200.552 0.0229423 -1.81285 0
M  V30 2169 C 200.6 -3.42129 -1.13929 0
M  V30 2170 O 199.704 -3.45307 -2.2547 0
M  V30 2171 H 199.045 -0.650171 -0.134812 0
M  V30 2172 H 201.575 -2.03461 0.215553 0
M  V30 2173 H 201.585 -3.80471 -1.4733 0
M  V30 2174 H 200.26 -4.14237 -0.371531 0
M  V30 2175 H 198.837 -3.1879 -1.93462 0
M  V30 2176 N 201.022 0.148545 -1.56898 0
M  V30 2177 C 202.438 0.501131 -1.51528 0
M  V30 2178 C 202.638 1.83458 -0.833399 0
M  V30 2179 O 201.694 2.49259 -0.40328 0
M  V30 2180 C 203.007 0.512864 -2.96294 0
M  V30 2181 C 204.555 0.598487 -3.07225 0
M  V30 2182 C 205.03 0.640897 -4.53494 0
M  V30 2183 N 206.521 0.703163 -4.57832 0
M  V30 2184 C 207.256 0.756935 -5.68382 0
M  V30 2185 N 206.752 0.770147 -6.88506 0
M  V30 2186 N 208.545 0.797698 -5.56411 0
M  V30 2187 H 200.696 -0.725532 -1.99624 0
M  V30 2188 H 202.959 -0.264358 -0.910395 0
M  V30 2189 H 202.665 -0.398691 -3.49433 0
M  V30 2190 H 202.539 1.35133 -3.52163 0
M  V30 2191 H 204.926 1.50046 -2.54106 0
M  V30 2192 H 205.007 -0.267093 -2.54402 0
M  V30 2193 H 204.651 -0.256915 -5.0725 0
M  V30 2194 H 204.581 1.52295 -5.04097 0
M  V30 2195 H 207.072 0.700314 -3.71354 0
M  V30 2196 H 207.385 0.812983 -7.68512 0
M  V30 2197 H 205.73 0.738049 -6.9107 0
M  V30 2198 H 208.921 0.784535 -4.61479 0
M  V30 2199 H 209.094 0.83614 -6.42583 0
M  V30 2200 N 202.5 1.5196 0.417844 0
M  V30 2201 C 203.463 1.74065 1.49111 0
M  V30 2202 C 204.463 0.610537 1.48758 0
M  V30 2203 O 205.653 0.87832 1.50437 0
M  V30 2204 C 202.785 1.81502 2.88565 0
M  V30 2205 H 203.978 2.69869 1.30807 0
M  V30 2206 H 201.531 1.42244 0.647785 0
M  V30 2207 H 202.266 0.875813 3.1225 0
M  V30 2208 H 202.051 2.63651 2.90225 0
M  V30 2209 H 203.541 2.00376 3.66387 0
M  V30 2210 N 203.978 -0.674533 1.42435 0
M  V30 2211 C 204.926 -1.80934 1.46169 0
M  V30 2212 C 205.92 -1.66006 0.3374 0
M  V30 2213 O 207.126 -1.72611 0.510425 0
M  V30 2214 H 203.501 -0.596594 0.457798 0
M  V30 2215 H 205.472 -1.74903 2.41767 0
M  V30 2216 C 204.221 -3.19088 1.38123 0
M  V30 2217 H 203.544 -3.31203 2.23931 0
M  V30 2218 H 204.984 -3.9851 1.44797 0
M  V30 2219 C 203.443 -3.36763 0.0960517 0
M  V30 2220 O 203.973 -3.92581 -0.851073 0
M  V30 2221 N 202.179 -2.90597 0.0131186 0
M  V30 2222 H 201.726 -2.45359 0.784639 0
M  V30 2223 H 201.684 -3.028 -0.846133 0
M  V30 2224 N 205.456 -1.28612 -0.910864 0
M  V30 2225 C 206.704 -1.15705 -1.65701 0
M  V30 2226 C 207.025 0.29416 -1.92769 0
M  V30 2227 O 206.295 1.20331 -1.54588 0
M  V30 2228 H 204.875 -0.425216 -0.614167 0
M  V30 2229 H 207.537 -1.61381 -1.0928 0
M  V30 2230 H 206.633 -1.6988 -2.61815 0
M  V30 2231 N 206.934 1.1197 -1.10907 0
M  V30 2232 C 208.181 1.83588 -0.854507 0
M  V30 2233 C 208.509 1.84357 0.6199 0
M  V30 2234 O 207.764 1.28809 1.47332 0
M  V30 2235 C 208.063 3.30749 -1.35425 0
M  V30 2236 C 207.729 3.50146 -2.84093 0
M  V30 2237 C 206.391 3.55148 -3.2469 0
M  V30 2238 C 208.743 3.56857 -3.79872 0
M  V30 2239 C 206.071 3.6441 -4.59806 0
M  V30 2240 C 208.423 3.6765 -5.14797 0
M  V30 2241 C 207.087 3.7091 -5.54961 0
M  V30 2242 H 206.357 0.671795 -0.312686 0
M  V30 2243 H 209.004 1.32091 -1.38652 0
M  V30 2244 H 207.309 3.84703 -0.742361 0
M  V30 2245 H 209.006 3.8464 -1.1337 0
M  V30 2246 H 205.596 3.46919 -2.51685 0
M  V30 2247 H 209.78 3.52258 -3.49611 0
M  V30 2248 H 205.036 3.65208 -4.9034 0
M  V30 2249 H 209.21 3.71786 -5.88853 0
M  V30 2250 H 206.837 3.7784 -6.59652 0
M  V30 2251 N 208.412 0.89855 1.29475 0
M  V30 2252 C 209.652 0.530771 1.97388 0
M  V30 2253 C 210.016 -0.905832 1.69289 0
M  V30 2254 O 211.217 -1.38042 2.30646 0
M  V30 2255 C 209.488 0.81369 3.48014 0
M  V30 2256 S 211.047 0.550048 4.35339 0
M  V30 2257 H 207.865 0.196956 0.683176 0
M  V30 2258 H 210.467 1.16074 1.57312 0
M  V30 2259 H 209.171 1.85749 3.65958 0
M  V30 2260 H 208.702 0.171795 3.93025 0
M  V30 2261 H 210.717 -0.605423 4.92493 0
M  V30 2262 N 209.89 -1.43072 0.660911 0
M  V30 2263 C 211.12 -2.05769 0.185153 0
M  V30 2264 C 211.528 -1.49668 -1.15742 0
M  V30 2265 O 210.871 -0.625649 -1.72717 0
M  V30 2266 C 210.933 -3.59489 0.0278237 0
M  V30 2267 C 210.597 -4.38212 1.2969 0
M  V30 2268 C 211.594 -4.69772 2.22734 0
M  V30 2269 C 209.279 -4.7809 1.54063 0
M  V30 2270 C 211.273 -5.40129 3.38437 0
M  V30 2271 C 208.96 -5.4819 2.70058 0
M  V30 2272 C 209.958 -5.79132 3.62071 0
M  V30 2273 O 209.646 -6.47798 4.76039 0
M  V30 2274 H 209.378 -0.669873 0.0908086 0
M  V30 2275 H 211.932 -1.84436 0.90402 0
M  V30 2276 H 210.162 -3.79426 -0.746489 0
M  V30 2277 H 211.851 -4.03862 -0.406275 0
M  V30 2278 H 212.617 -4.39476 2.05149 0
M  V30 2279 H 208.496 -4.53408 0.833215 0
M  V30 2280 H 212.04 -5.64198 4.10277 0
M  V30 2281 H 207.937 -5.77902 2.87574 0
M  V30 2282 H 208.705 -6.66283 4.75404 0
M  V30 2283 N 211.368 -0.403325 -1.52352 0
M  V30 2284 C 212.617 0.175668 -2.00934 0
M  V30 2285 C 212.93 1.46718 -1.29356 0
M  V30 2286 O 214.136 2.12708 -1.68724 0
M  V30 2287 C 212.592 0.363612 -3.58058 0
M  V30 2288 C 212.2 -0.915472 -4.38547 0
M  V30 2289 C 213.944 0.89821 -4.14888 0
M  V30 2290 C 211.851 -0.695035 -5.87302 0
M  V30 2291 H 210.781 0.0694234 -0.750797 0
M  V30 2292 H 213.432 -0.527879 -1.75743 0
M  V30 2293 H 211.814 1.12935 -3.79555 0
M  V30 2294 H 212.988 -1.68691 -4.28812 0
M  V30 2295 H 211.303 -1.37606 -3.93006 0
M  V30 2296 H 213.9 1.07907 -5.23699 0
M  V30 2297 H 214.243 1.87126 -3.71873 0
M  V30 2298 H 214.776 0.191681 -3.97338 0
M  V30 2299 H 211.515 -1.63948 -6.34666 0
M  V30 2300 H 211.035 0.0372116 -5.99788 0
M  V30 2301 H 212.714 -0.33497 -6.46132 0
M  V30 2302 N 212.846 1.57033 -0.133567 0
M  V30 2303 C 213.794 2.17348 0.828412 0
M  V30 2304 C 214.788 1.12671 1.26498 0
M  V30 2305 O 215.994 1.30947 1.23502 0
M  V30 2306 H 212.369 0.695775 0.285309 0
M  V30 2307 H 214.34 2.96935 0.295372 0
M  V30 2308 C 213.089 2.79893 2.06289 0
M  V30 2309 H 212.412 3.60147 1.73592 0
M  V30 2310 H 213.852 3.25615 2.71572 0
M  V30 2311 C 212.311 1.77713 2.86216 0
M  V30 2312 O 212.841 1.23937 3.82103 0
M  V30 2313 N 211.047 1.47321 2.50489 0
M  V30 2314 H 210.594 1.91243 1.7258 0
M  V30 2315 H 210.552 0.79199 3.04261 0
M  V30 2316 N 214.325 -0.140222 1.56975 0
M  V30 2317 C 215.602 -0.880769 1.74648 0
M  V30 2318 C 215.982 -1.99036 0.703404 0
M  V30 2319 O 215.33 -2.26821 -0.27648 0
M  V30 2320 C 215.54 -1.417 3.18939 0
M  V30 2321 C 216.888 -1.87774 3.80823 0
M  V30 2322 O 217.912 -1.51427 3.2241 0
M  V30 2323 O 216.771 -2.54827 4.83452 0
M  V30 2324 H 213.865 -0.416713 0.714338 0
M  V30 2325 H 216.411 -0.125618 1.69234 0
M  V30 2326 H 215.183 -0.619902 3.86359 0
M  V30 2327 H 214.806 -2.23546 3.28805 0
M  V30 2328 N 215.803 -1.52179 -0.40978 0
M  V30 2329 C 217.214 -1.58377 -0.988615 0
M  V30 2330 C 217.565 -0.423879 -1.91566 0
M  V30 2331 O 216.69 0.455844 -2.11544 0
M  V30 2332 C 217.285 -2.87044 -1.79976 0
M  V30 2333 C 215.844 -2.95722 -2.32863 0
M  V30 2334 C 214.991 -2.53309 -1.12828 0
M  V30 2335 H 217.942 -1.57558 -0.190039 0
M  V30 2336 H 217.963 -2.7236 -2.65707 0
M  V30 2337 H 217.475 -3.71444 -1.12478 0
M  V30 2338 H 215.576 -2.15814 -3.03735 0
M  V30 2339 H 215.689 -3.99951 -2.63773 0
M  V30 2340 H 214.053 -2.07142 -1.48204 0
M  V30 2341 H 214.836 -3.40082 -0.46897 0
M  V30 2342 N 217.281 0.66697 -1.42791 0
M  V30 2343 C 218.244 1.76211 -1.46568 0
M  V30 2344 C 219.244 1.56896 -0.352196 0
M  V30 2345 O 220.434 1.63044 -0.613364 0
M  V30 2346 C 217.566 3.14935 -1.30494 0
M  V30 2347 H 218.759 1.74247 -2.44086 0
M  V30 2348 H 216.312 0.877342 -1.29354 0
M  V30 2349 H 217.047 3.2252 -0.339301 0
M  V30 2350 H 216.832 3.30359 -2.11199 0
M  V30 2351 H 218.322 3.94821 -1.36038 0
M  V30 2352 N 218.759 1.29093 0.90403 0
M  V30 2353 C 220.005 1.16986 1.65656 0
M  V30 2354 C 220.338 -0.278925 1.92186 0
M  V30 2355 O 219.613 -1.2019 1.5292 0
M  V30 2356 C 219.896 1.97908 3.0084 0
M  V30 2357 C 219.749 3.50903 2.81403 0
M  V30 2358 C 221.068 1.80208 4.01513 0
M  V30 2359 H 218.187 0.426346 0.601164 0
M  V30 2360 H 220.829 1.58518 1.04747 0
M  V30 2361 H 218.979 1.62616 3.52829 0
M  V30 2362 H 220.651 3.96153 2.36348 0
M  V30 2363 H 218.894 3.76045 2.1627 0
M  V30 2364 H 219.565 4.02791 3.77443 0
M  V30 2365 H 222.041 2.11025 3.58619 0
M  V30 2366 H 220.917 2.39184 4.94047 0
M  V30 2367 H 221.178 0.756119 4.35586 0
M  V30 2368 N 220.237 -1.11381 1.11499 0
M  V30 2369 C 221.485 -1.8277 0.862524 0
M  V30 2370 C 221.806 -1.85097 -0.613534 0
M  V30 2371 O 221.076 -1.32198 -1.4457 0
M  V30 2372 H 219.656 -0.676823 0.316101 0
M  V30 2373 H 222.318 -1.34816 1.4075 0
M  V30 2374 H 221.414 -2.86614 1.23527 0
M  V30 2375 N 221.715 -0.905404 -1.28997 0
M  V30 2376 C 222.964 -0.530191 -1.94607 0
M  V30 2377 C 223.277 0.929185 -1.72121 0
M  V30 2378 O 224.483 1.41218 -2.31883 0
M  V30 2379 C 222.939 -0.897333 -3.48534 0
M  V30 2380 C 222.547 -2.37587 -3.79811 0
M  V30 2381 C 224.291 -0.592304 -4.20347 0
M  V30 2382 C 222.198 -2.68357 -5.27009 0
M  V30 2383 H 221.128 -0.194558 -0.728466 0
M  V30 2384 H 223.779 -1.10318 -1.46636 0
M  V30 2385 H 222.161 -0.253214 -3.9519 0
M  V30 2386 H 223.335 -3.06602 -3.43994 0
M  V30 2387 H 221.65 -2.6505 -3.2115 0
M  V30 2388 H 224.247 -0.798975 -5.28697 0
M  V30 2389 H 224.59 0.469474 -4.13644 0
M  V30 2390 H 225.123 -1.19452 -3.79442 0
M  V30 2391 H 221.862 -3.73355 -5.38782 0
M  V30 2392 H 221.382 -2.03971 -5.64053 0
M  V30 2393 H 223.061 -2.54922 -5.94663 0
M  V30 2394 N 223.193 1.4272 -0.668489 0
M  V30 2395 C 224.103 2.34596 0.0139753 0
M  V30 2396 C 225.119 1.5474 0.795703 0
M  V30 2397 O 226.295 1.87334 0.739466 0
M  V30 2398 C 223.36 3.33202 0.957982 0
M  V30 2399 C 222.421 4.28957 0.17149 0
M  V30 2400 C 221.654 5.22853 1.07053 0
M  V30 2401 O 221.877 5.21531 2.31001 0
M  V30 2402 O 220.811 5.9952 0.534727 0
M  V30 2403 H 224.637 2.9448 -0.742661 0
M  V30 2404 H 222.222 1.43117 -0.428705 0
M  V30 2405 H 224.104 3.93796 1.50008 0
M  V30 2406 H 222.779 2.758 1.69458 0
M  V30 2407 H 221.686 3.71796 -0.414558 0
M  V30 2408 H 223.019 4.89383 -0.52586 0
M  V30 2409 N 224.671 0.411399 1.52136 0
M  V30 2410 C 225.901 -0.16284 2.05957 0
M  V30 2411 C 226.309 -1.3922 1.28119 0
M  V30 2412 O 225.652 -1.80768 0.326881 0
M  V30 2413 C 225.714 -0.575946 3.54856 0
M  V30 2414 C 225.378 0.542998 4.53763 0
M  V30 2415 C 226.375 1.40726 5.00492 0
M  V30 2416 C 224.06 0.716337 4.97166 0
M  V30 2417 C 226.054 2.4298 5.8927 0
M  V30 2418 C 223.741 1.74218 5.8574 0
M  V30 2419 C 224.739 2.59731 6.31687 0
M  V30 2420 O 224.427 3.60558 7.18507 0
M  V30 2421 H 224.159 -0.0229125 0.675612 0
M  V30 2422 H 226.713 0.581634 1.96993 0
M  V30 2423 H 224.943 -1.37274 3.61515 0
M  V30 2424 H 226.632 -1.07836 3.91313 0
M  V30 2425 H 227.398 1.28476 4.67674 0
M  V30 2426 H 223.277 0.0603857 4.6096 0
M  V30 2427 H 226.821 3.0976 6.25055 0
M  V30 2428 H 222.718 1.86498 6.17971 0
M  V30 2429 H 223.486 3.56829 7.36624 0
M  V30 2430 N 226.149 -1.5696 0.141893 0
M  V30 2431 C 227.079 -2.19516 -0.795936 0
M  V30 2432 C 228.06 -1.14187 -1.26077 0
M  V30 2433 O 229.245 -1.42511 -1.31925 0
M  V30 2434 C 226.375 -2.81272 -2.03723 0
M  V30 2435 C 225.329 -3.92384 -1.70936 0
M  V30 2436 C 224.655 -4.41052 -3.02287 0
M  V30 2437 C 225.955 -5.13403 -0.959954 0
M  V30 2438 H 227.649 -2.98138 -0.274596 0
M  V30 2439 H 225.195 -1.43406 -0.130636 0
M  V30 2440 H 227.148 -3.237 -2.69808 0
M  V30 2441 H 225.872 -1.99973 -2.58221 0
M  V30 2442 H 224.531 -3.50566 -1.07232 0
M  V30 2443 H 224.179 -3.56582 -3.54765 0
M  V30 2444 H 223.879 -5.15993 -2.81114 0
M  V30 2445 H 225.403 -4.86146 -3.69451 0
M  V30 2446 H 226.817 -5.52706 -1.52279 0
M  V30 2447 H 225.214 -5.94073 -0.848357 0
M  V30 2448 H 226.284 -4.84875 0.0492434 0
M  V30 2449 N 227.627 0.131896 -1.57047 0
M  V30 2450 C 229.043 0.485031 -1.52051 0
M  V30 2451 C 229.243 1.82563 -0.85281 0
M  V30 2452 O 228.299 2.48817 -0.429694 0
M  V30 2453 C 229.612 0.481409 -2.96821 0
M  V30 2454 C 231.16 0.565868 -3.07842 0
M  V30 2455 C 231.635 0.592762 -4.54148 0
M  V30 2456 N 233.126 0.654564 -4.58552 0
M  V30 2457 C 233.861 0.696608 -5.69153 0
M  V30 2458 N 233.357 0.697078 -6.89284 0
M  V30 2459 N 235.15 0.738639 -5.57226 0
M  V30 2460 H 227.301 -0.746664 -1.98843 0
M  V30 2461 H 229.564 -0.273999 -0.90754 0
M  V30 2462 H 229.27 -0.435731 -3.4899 0
M  V30 2463 H 229.144 1.3139 -3.53577 0
M  V30 2464 H 231.531 1.47343 -2.55684 0
M  V30 2465 H 231.612 -0.29406 -2.54104 0
M  V30 2466 H 231.256 -0.310701 -5.06949 0
M  V30 2467 H 231.186 1.46939 -5.05684 0
M  V30 2468 H 233.677 0.660887 -3.72076 0
M  V30 2469 H 233.99 0.731426 -7.69331 0
M  V30 2470 H 232.335 0.66471 -6.91814 0
M  V30 2471 H 235.526 0.735545 -4.62285 0
M  V30 2472 H 235.699 0.767938 -6.43434 0
M  V30 2473 N 229.106 1.52395 0.401703 0
M  V30 2474 C 230.053 1.76268 1.48991 0
M  V30 2475 C 231.023 0.605386 1.54675 0
M  V30 2476 O 232.208 0.843742 1.7113 0
M  V30 2477 C 229.348 1.92592 2.86361 0
M  V30 2478 C 228.461 3.20259 2.89928 0
M  V30 2479 C 227.596 3.26972 4.18644 0
M  V30 2480 C 226.635 4.48812 4.16214 0
M  V30 2481 N 225.772 4.52877 5.36514 0
M  V30 2482 H 230.612 2.6914 1.27935 0
M  V30 2483 H 228.149 1.33355 0.620871 0
M  V30 2484 H 230.107 2.0004 3.66115 0
M  V30 2485 H 228.737 1.03093 3.05895 0
M  V30 2486 H 227.789 3.21945 2.02621 0
M  V30 2487 H 229.101 4.10056 2.83999 0
M  V30 2488 H 228.255 3.33533 5.06794 0
M  V30 2489 H 226.994 2.35126 4.27278 0
M  V30 2490 H 225.999 4.4239 3.26453 0
M  V30 2491 H 227.224 5.41961 4.09213 0
M  V30 2492 H 225.17 3.63917 5.45802 0
M  V30 2493 H 225.087 5.36529 5.32609 0
M  V30 2494 H 226.355 4.63676 6.26597 0
M  V30 2495 N 230.584 -0.659388 1.43143 0
M  V30 2496 C 231.531 -1.77249 1.47822 0
M  V30 2497 C 232.501 -1.62818 0.328558 0
M  V30 2498 O 233.686 -1.83151 0.534838 0
M  V30 2499 C 230.826 -3.15371 1.40126 0
M  V30 2500 C 229.939 -3.4098 2.65249 0
M  V30 2501 C 229.074 -4.68915 2.49584 0
M  V30 2502 C 228.113 -4.87608 3.70006 0
M  V30 2503 N 227.25 -6.06796 3.53189 0
M  V30 2504 H 232.09 -1.72584 2.42938 0
M  V30 2505 H 229.627 -0.842297 1.20598 0
M  V30 2506 H 231.585 -3.9521 1.33659 0
M  V30 2507 H 230.215 -3.19121 0.485964 0
M  V30 2508 H 229.267 -2.55282 2.8202 0
M  V30 2509 H 230.579 -3.50681 3.54717 0
M  V30 2510 H 229.733 -5.56871 2.4079 0
M  V30 2511 H 228.472 -4.61524 1.5763 0
M  V30 2512 H 227.477 -3.9809 3.79215 0
M  V30 2513 H 228.702 -4.96834 4.62961 0
M  V30 2514 H 226.648 -6.00549 2.63965 0
M  V30 2515 H 226.565 -6.17428 4.36255 0
M  V30 2516 H 227.833 -6.9739 3.48236 0
M  V30 2517 N 232.062 -1.29571 -0.897171 0
M  V30 2518 C 233.31 -1.17456 -1.64464 0
M  V30 2519 C 233.631 0.273698 -1.9307 0
M  V30 2520 O 232.901 1.18684 -1.55855 0
M  V30 2521 H 231.481 -0.431706 -0.609622 0
M  V30 2522 H 234.143 -1.62531 -1.07562 0
M  V30 2523 H 233.239 -1.72648 -2.59998 0
M  V30 2524 N 233.54 1.10788 -1.12088 0
M  V30 2525 C 234.787 1.82671 -0.873931 0
M  V30 2526 C 235.115 1.85004 0.600311 0
M  V30 2527 O 234.37 1.30365 1.45957 0
M  V30 2528 C 234.669 3.29294 -1.38926 0
M  V30 2529 C 234.335 3.47113 -2.87791 0
M  V30 2530 C 232.997 3.51684 -3.28439 0
M  V30 2531 C 235.349 3.52808 -3.83635 0
M  V30 2532 C 232.677 3.59513 -4.63646 0
M  V30 2533 C 235.029 3.62169 -5.18668 0
M  V30 2534 C 233.693 3.65003 -5.58864 0
M  V30 2535 H 232.963 0.668441 -0.319794 0
M  V30 2536 H 235.61 1.30613 -1.40045 0
M  V30 2537 H 233.915 3.83894 -0.783122 0
M  V30 2538 H 235.612 3.83416 -1.17443 0
M  V30 2539 H 232.202 3.4423 -2.5535 0
M  V30 2540 H 236.386 3.4853 -3.53328 0
M  V30 2541 H 231.642 3.59987 -4.94185 0
M  V30 2542 H 235.816 3.6552 -5.92763 0
M  V30 2543 H 233.443 3.70822 -6.63623 0
M  V30 2544 N 235.018 0.912232 1.28515 0
M  V30 2545 C 235.965 0.397954 2.27343 0
M  V30 2546 C 236.935 -0.526766 1.57526 0
M  V30 2547 O 238.12 -0.449292 1.85435 0
M  V30 2548 C 235.26 -0.357263 3.43246 0
M  V30 2549 C 234.373 0.599788 4.27816 0
M  V30 2550 C 233.508 -0.173725 5.30916 0
M  V30 2551 C 232.547 0.777039 6.07148 0
M  V30 2552 N 231.684 0.0371398 7.0209 0
M  V30 2553 H 236.524 1.24577 2.70711 0
M  V30 2554 H 234.061 0.625612 1.33133 0
M  V30 2555 H 236.019 -0.8113 4.09236 0
M  V30 2556 H 234.649 -1.16943 3.00872 0
M  V30 2557 H 233.701 1.17235 3.61884 0
M  V30 2558 H 235.013 1.32704 4.80823 0
M  V30 2559 H 234.167 -0.688394 6.02782 0
M  V30 2560 H 232.906 -0.934041 4.78672 0
M  V30 2561 H 231.911 1.3031 5.34134 0
M  V30 2562 H 233.136 1.53689 6.61481 0
M  V30 2563 H 231.082 -0.705213 6.52198 0
M  V30 2564 H 230.999 0.704249 7.52713 0
M  V30 2565 H 232.267 -0.457383 7.78157 0
M  V30 2566 N 236.496 -1.42363 0.676048 0
M  V30 2567 C 237.912 -1.55811 0.345718 0
M  V30 2568 C 238.112 -1.65544 -1.14879 0
M  V30 2569 O 237.168 -1.62306 -1.93424 0
M  V30 2570 C 238.481 -2.80746 1.07713 0
M  V30 2571 C 240.029 -2.9452 1.05958 0
M  V30 2572 C 240.504 -4.22318 1.77233 0
M  V30 2573 N 241.995 -4.29233 1.74108 0
M  V30 2574 C 242.73 -5.26935 2.26113 0
M  V30 2575 N 242.226 -6.30783 2.86505 0
M  V30 2576 N 244.019 -5.18741 2.1648 0
M  V30 2577 H 236.17 -1.34289 1.6456 0
M  V30 2578 H 238.433 -0.646506 0.69335 0
M  V30 2579 H 238.139 -2.79696 2.13221 0
M  V30 2580 H 238.013 -3.71676 0.64316 0
M  V30 2581 H 240.4 -2.95097 0.0128255 0
M  V30 2582 H 240.481 -2.04817 1.53244 0
M  V30 2583 H 240.125 -4.22502 2.81877 0
M  V30 2584 H 240.055 -5.10958 1.27396 0
M  V30 2585 H 242.546 -3.54814 1.30059 0
M  V30 2586 H 242.859 -7.01691 3.23805 0
M  V30 2587 H 241.204 -6.31341 2.90575 0
M  V30 2588 H 244.395 -4.36533 1.68987 0
M  V30 2589 H 244.568 -5.94721 2.57316 0
M  V30 2590 N 237.974 -0.419461 -1.51915 0
M  V30 2591 C 239.223 0.154346 -2.01109 0
M  V30 2592 C 239.536 1.45338 -1.30905 0
M  V30 2593 O 240.742 2.10906 -1.7097 0
M  V30 2594 C 239.198 0.325615 -3.58424 0
M  V30 2595 C 238.806 -0.961934 -4.37551 0
M  V30 2596 C 240.55 0.854155 -4.15818 0
M  V30 2597 C 238.457 -0.757287 -5.86531 0
M  V30 2598 H 237.387 0.0614563 -0.751491 0
M  V30 2599 H 240.038 -0.54649 -1.75173 0
M  V30 2600 H 238.42 1.08903 -3.80731 0
M  V30 2601 H 239.594 -1.7323 -4.26999 0
M  V30 2602 H 237.909 -1.41766 -3.91524 0
M  V30 2603 H 240.506 1.02346 -5.24814 0
M  V30 2604 H 240.849 1.83172 -3.73837 0
M  V30 2605 H 241.382 0.149528 -3.97519 0
M  V30 2606 H 238.121 -1.70671 -6.32892 0
M  V30 2607 H 237.641 -0.0264061 -5.99794 0
M  V30 2608 H 239.32 -0.403482 -6.45741 0
M  V30 2609 N 239.452 1.56882 -0.150215 0
M  V30 2610 C 240.382 2.19935 0.784284 0
M  V30 2611 C 241.363 1.14854 1.25469 0
M  V30 2612 O 242.548 1.43209 1.31168 0
M  V30 2613 C 239.678 2.82349 2.02229 0
M  V30 2614 C 238.632 3.93285 1.68853 0
M  V30 2615 C 237.958 4.42649 2.99944 0
M  V30 2616 C 239.258 5.13904 0.932714 0
M  V30 2617 H 240.952 2.9828 0.258781 0
M  V30 2618 H 238.498 1.43473 0.123029 0
M  V30 2619 H 240.451 3.25126 2.68088 0
M  V30 2620 H 239.175 2.0134 2.57157 0
M  V30 2621 H 237.834 3.5113 1.05371 0
M  V30 2622 H 237.482 3.58458 3.52869 0
M  V30 2623 H 237.182 5.17476 2.78374 0
M  V30 2624 H 238.706 4.88099 3.66868 0
M  V30 2625 H 240.12 5.53506 1.49345 0
M  V30 2626 H 238.517 5.94515 0.81684 0
M  V30 2627 H 239.587 4.84842 -0.0749568 0
M  V30 2628 N 240.93 -0.123565 1.57115 0
M  V30 2629 C 242.16 -0.845233 1.88519 0
M  V30 2630 C 242.568 -1.74168 0.739064 0
M  V30 2631 O 241.911 -1.81244 -0.299355 0
M  V30 2632 C 241.973 -1.73452 3.14888 0
M  V30 2633 C 241.637 -1.01285 4.45635 0
M  V30 2634 C 242.634 -0.355774 5.18681 0
M  V30 2635 C 240.319 -0.99538 4.92339 0
M  V30 2636 C 242.313 0.309114 6.3665 0
M  V30 2637 C 240 -0.32669 6.10226 0
M  V30 2638 C 240.998 0.324406 6.82229 0
M  V30 2639 O 240.686 0.982437 7.97874 0
M  V30 2640 H 240.418 -0.248534 0.628655 0
M  V30 2641 H 242.972 -0.113907 2.05084 0
M  V30 2642 H 241.202 -2.50737 2.94394 0
M  V30 2643 H 242.891 -2.33021 3.32349 0
M  V30 2644 H 243.657 -0.360918 4.83655 0
M  V30 2645 H 239.536 -1.49159 4.36202 0
M  V30 2646 H 243.08 0.8179 6.92789 0
M  V30 2647 H 238.977 -0.319294 6.4471 0
M  V30 2648 H 239.745 0.886454 8.13686 0
M  V30 2649 N 242.408 -1.52605 -0.393616 0
M  V30 2650 C 243.657 -1.66649 -1.13627 0
M  V30 2651 C 243.97 -0.410364 -1.91247 0
M  V30 2652 O 245.176 -0.430854 -2.68059 0
M  V30 2653 C 243.632 -2.9449 -2.06891 0
M  V30 2654 C 243.24 -4.27266 -1.34714 0
M  V30 2655 C 244.984 -3.17899 -2.81319 0
M  V30 2656 C 242.891 -5.46217 -2.26717 0
M  V30 2657 H 241.821 -0.62084 -0.427871 0
M  V30 2658 H 244.472 -1.791 -0.399428 0
M  V30 2659 H 242.854 -2.75774 -2.84191 0
M  V30 2660 H 244.028 -4.56518 -0.626714 0
M  V30 2661 H 242.343 -4.10081 -0.722643 0
M  V30 2662 H 244.94 -4.03949 -3.50328 0
M  V30 2663 H 245.283 -2.32777 -3.45139 0
M  V30 2664 H 245.816 -3.37159 -2.11113 0
M  V30 2665 H 242.555 -6.33733 -1.67521 0
M  V30 2666 H 242.075 -5.21283 -2.96689 0
M  V30 2667 H 243.754 -5.7991 -2.86903 0
M  V30 2668 N 243.887 0.651787 -1.4349 0
M  V30 2669 C 245.164 1.40909 -1.35661 0
M  V30 2670 C 245.544 2.11099 -0.00511733 0
M  V30 2671 O 244.892 2.04892 1.0115 0
M  V30 2672 C 245.102 2.3926 -2.54078 0
M  V30 2673 C 246.45 3.03217 -2.97228 0
M  V30 2674 O 247.474 2.49588 -2.54135 0
M  V30 2675 O 246.333 4.00455 -3.71885 0
M  V30 2676 H 243.427 0.629625 -0.536191 0
M  V30 2677 H 245.973 0.678575 -1.55542 0
M  V30 2678 H 244.745 1.86352 -3.44076 0
M  V30 2679 H 244.368 3.1976 -2.36303 0
M  V30 2680 N 245.365 1.30045 0.890287 0
M  V30 2681 C 246.295 1.18541 2.01172 0
M  V30 2682 C 247.276 0.0773356 1.69924 0
M  V30 2683 O 248.461 0.25845 1.92473 0
M  V30 2684 C 245.591 0.870941 3.36202 0
M  V30 2685 C 244.545 1.93637 3.81692 0
M  V30 2686 C 243.871 1.475 5.13953 0
M  V30 2687 C 245.171 3.34666 4.00994 0
M  V30 2688 H 246.865 2.12359 2.11054 0
M  V30 2689 H 244.411 1.02238 1.01407 0
M  V30 2690 H 246.364 0.777141 4.14172 0
M  V30 2691 H 245.088 -0.102926 3.26438 0
M  V30 2692 H 243.747 2.01972 3.05946 0
M  V30 2693 H 243.395 0.489551 5.00612 0
M  V30 2694 H 243.095 2.1876 5.4536 0
M  V30 2695 H 244.619 1.39489 5.94454 0
M  V30 2696 H 246.033 3.2912 4.69417 0
M  V30 2697 H 244.43 4.03966 4.43769 0
M  V30 2698 H 245.5 3.76949 3.05021 0
M  V30 2699 N 246.843 -1.10192 1.12674 0
M  V30 2700 C 248.12 -1.78717 0.794965 0
M  V30 2701 C 248.5 -1.98628 -0.714853 0
M  V30 2702 O 247.848 -1.58135 -1.64941 0
M  V30 2703 C 248.058 -3.11546 1.5729 0
M  V30 2704 C 249.406 -3.86382 1.76052 0
M  V30 2705 O 250.43 -3.21274 1.53823 0
M  V30 2706 O 249.289 -5.03246 2.13087 0
M  V30 2707 H 246.383 -0.774702 0.289423 0
M  V30 2708 H 248.929 -1.16819 1.23091 0
M  V30 2709 H 247.701 -2.92489 2.59935 0
M  V30 2710 H 247.324 -3.81164 1.13137 0
M  V30 2711 N 248.321 -0.919034 -1.28029 0
M  V30 2712 C 249.284 -0.416182 -2.2539 0
M  V30 2713 C 250.284 0.460438 -1.54067 0
M  V30 2714 O 251.474 0.262744 -1.72207 0
M  V30 2715 C 248.606 0.402707 -3.38513 0
M  V30 2716 H 249.799 -1.27629 -2.71387 0
M  V30 2717 H 247.352 -0.698919 -1.39803 0
M  V30 2718 H 248.087 1.282 -2.97885 0
M  V30 2719 H 247.872 -0.225698 -3.9145 0
M  V30 2720 H 249.362 0.745191 -4.10897 0
M  V30 2721 N 249.799 1.42003 -0.683588 0
M  V30 2722 C 250.749 2.27997 0.0121992 0
M  V30 2723 C 251.733 1.4156 0.764822 0
M  V30 2724 O 252.925 1.64935 0.642287 0
M  V30 2725 C 250.054 3.29706 0.956482 0
M  V30 2726 C 249.14 4.23625 0.200739 0
M  V30 2727 N 249.531 4.99448 -0.799087 0
M  V30 2728 C 247.829 4.43845 0.437937 0
M  V30 2729 C 248.53 5.68102 -1.25041 0
M  V30 2730 N 247.506 5.40511 -0.578648 0
M  V30 2731 H 251.308 2.84048 -0.754564 0
M  V30 2732 H 248.822 1.54071 -0.513398 0
M  V30 2733 H 250.819 3.90124 1.47 0
M  V30 2734 H 249.479 2.75216 1.72297 0
M  V30 2735 H 250.49 5.04303 -1.17893 0
M  V30 2736 H 247.167 4.00382 1.18325 0
M  V30 2737 H 248.557 6.38913 -2.07942 0
M  V30 2738 N 251.277 0.427512 1.51691 0
M  V30 2739 C 252.227 -0.406604 2.24345 0
M  V30 2740 C 253.211 -0.998276 1.26187 0
M  V30 2741 O 254.403 -0.918045 1.51331 0
M  V30 2742 C 251.532 -1.51266 3.08177 0
M  V30 2743 C 250.618 -0.930868 4.13758 0
M  V30 2744 N 251.009 -0.0773552 5.05741 0
M  V30 2745 C 249.307 -1.19948 4.29568 0
M  V30 2746 C 250.008 0.248344 5.8117 0
M  V30 2747 N 248.984 -0.365535 5.4237 0
M  V30 2748 H 252.786 0.251581 2.92821 0
M  V30 2749 H 250.3 0.239003 1.60632 0
M  V30 2750 H 252.297 -2.123 3.58796 0
M  V30 2751 H 250.957 -2.17328 2.41244 0
M  V30 2752 H 251.968 0.288351 5.17097 0
M  V30 2753 H 248.645 -1.85832 3.73862 0
M  V30 2754 H 250.035 0.942286 6.6526 0
M  V30 2755 N 252.755 -1.56801 0.158532 0
M  V30 2756 C 253.995 -1.98383 -0.49229 0
M  V30 2757 C 254.359 -1.04184 -1.61275 0
M  V30 2758 O 255.56 -1.34856 -2.32524 0
M  V30 2759 C 253.831 -3.4385 -0.974766 0
M  V30 2760 S 255.39 -4.07459 -1.62857 0
M  V30 2761 H 252.208 -0.693041 -0.158794 0
M  V30 2762 H 254.81 -1.93856 0.252974 0
M  V30 2763 H 253.514 -4.10131 -0.148688 0
M  V30 2764 H 253.045 -3.52115 -1.75438 0
M  V30 2765 H 255.06 -4.01458 -2.91627 0
M  V30 2766 N 254.233 0.115231 -1.57178 0
M  V30 2767 C 255.51 0.852873 -1.76027 0
M  V30 2768 C 255.89 1.97892 -0.73498 0
M  V30 2769 O 255.238 2.27232 0.24036 0
M  V30 2770 C 255.448 1.36608 -3.21153 0
M  V30 2771 C 256.796 1.81692 -3.83762 0
M  V30 2772 O 257.82 1.46278 -3.24779 0
M  V30 2773 O 256.679 2.47104 -4.87444 0
M  V30 2774 H 253.773 0.405296 -0.720877 0
M  V30 2775 H 256.319 0.0986785 -1.69413 0
M  V30 2776 H 255.091 0.558357 -3.87296 0
M  V30 2777 H 254.714 2.18287 -3.3232 0
M  V30 2778 N 255.711 1.52812 0.385517 0
M  V30 2779 C 256.959 1.67694 1.12797 0
M  V30 2780 C 257.28 0.421115 1.90399 0
M  V30 2781 O 256.55 -0.564551 1.87589 0
M  V30 2782 H 255.13 0.618155 0.419396 0
M  V30 2783 H 257.792 1.89938 0.436972 0
M  V30 2784 H 256.888 2.52896 1.82894 0
M  V30 2785 N 257.189 -0.644168 1.43834 0
M  V30 2786 C 258.435 -1.40603 1.46146 0
M  V30 2787 C 258.768 -1.93997 0.0887717 0
M  V30 2788 O 258.043 -1.72854 -0.891724 0
M  V30 2789 C 258.326 -2.58086 2.51124 0
M  V30 2790 C 258.179 -2.10126 3.97702 0
M  V30 2791 C 259.498 -3.60291 2.52742 0
M  V30 2792 H 256.617 -0.509905 0.532134 0
M  V30 2793 H 259.259 -0.729502 1.75437 0
M  V30 2794 H 257.409 -3.15801 2.26278 0
M  V30 2795 H 259.081 -1.57342 4.33637 0
M  V30 2796 H 257.324 -1.41419 4.10101 0
M  V30 2797 H 257.995 -2.94649 4.66783 0
M  V30 2798 H 260.471 -3.12352 2.7491 0
M  V30 2799 H 259.347 -4.40032 3.28121 0
M  V30 2800 H 259.608 -4.1349 1.56455 0
M  V30 2801 N 258.668 -1.30515 -0.883378 0
M  V30 2802 C 259.6 -1.12846 -1.99496 0
M  V30 2803 C 260.613 -0.0712571 -1.62644 0
M  V30 2804 O 261.802 -0.317432 -1.75655 0
M  V30 2805 C 258.902 -0.699123 -3.3161 0
M  V30 2806 C 258.075 -1.83842 -3.96889 0
M  V30 2807 C 257.134 -1.39737 -5.07307 0
M  V30 2808 O 256.16 -2.10485 -5.28852 0
M  V30 2809 N 257.362 -0.277279 -5.79837 0
M  V30 2810 H 260.127 -2.08585 -2.15203 0
M  V30 2811 H 257.688 -1.22672 -1.05656 0
M  V30 2812 H 259.68 -0.387044 -4.02845 0
M  V30 2813 H 258.25 0.166276 -3.12157 0
M  V30 2814 H 257.47 -2.31853 -3.18807 0
M  V30 2815 H 258.758 -2.60187 -4.37241 0
M  V30 2816 H 258.156 0.3122 -5.64838 0
M  V30 2817 H 256.713 -0.0246623 -6.51795 0
M  V30 2818 N 260.146 1.09593 -1.13257 0
M  V30 2819 C 261.056 2.19739 -0.821691 0
M  V30 2820 C 262.072 1.72926 0.19302 0
M  V30 2821 O 263.248 2.01385 0.0244895 0
M  V30 2822 C 260.313 3.45482 -0.290333 0
M  V30 2823 C 259.374 4.06985 -1.36607 0
M  V30 2824 C 258.607 5.26726 -0.859975 0
M  V30 2825 O 258.83 5.69594 0.303082 0
M  V30 2826 O 257.764 5.7931 -1.63351 0
M  V30 2827 H 261.59 2.48781 -1.74189 0
M  V30 2828 H 259.175 1.18496 -0.909894 0
M  V30 2829 H 261.057 4.214 0.000674022 0
M  V30 2830 H 259.732 3.18047 0.602306 0
M  V30 2831 H 258.639 3.32712 -1.71037 0
M  V30 2832 H 259.972 4.38643 -2.23279 0
M  V30 2833 N 261.624 0.925811 1.2754 0
M  V30 2834 C 262.587 0.428129 2.25166 0
M  V30 2835 C 263.587 -0.452261 1.54309 0
M  V30 2836 O 264.777 -0.253608 1.72344 0
M  V30 2837 C 261.909 -0.384749 3.38722 0
M  V30 2838 H 263.102 1.29066 2.70706 0
M  V30 2839 H 260.655 0.706323 1.3943 0
M  V30 2840 H 261.39 -1.26618 2.98561 0
M  V30 2841 H 261.175 0.246454 3.91325 0
M  V30 2842 H 262.665 -0.723389 4.11287 0
M  V30 2843 N 263.102 -1.41638 0.69111 0
M  V30 2844 C 264.349 -2.01299 0.220193 0
M  V30 2845 C 264.677 -1.54715 -1.17871 0
M  V30 2846 O 263.932 -0.747193 -1.80874 0
M  V30 2847 C 264.231 -3.56714 0.221277 0
M  V30 2848 C 263.897 -4.22792 1.56709 0
M  V30 2849 C 262.559 -4.40557 1.93554 0
M  V30 2850 C 264.911 -4.59883 2.45268 0
M  V30 2851 C 262.239 -4.92688 3.18552 0
M  V30 2852 C 264.591 -5.13403 3.69595 0
M  V30 2853 C 263.255 -5.29379 4.06589 0
M  V30 2854 H 262.525 -0.736606 0.0805743 0
M  V30 2855 H 265.172 -1.69598 0.889319 0
M  V30 2856 H 263.477 -3.8818 -0.531391 0
M  V30 2857 H 265.174 -4.00678 -0.160547 0
M  V30 2858 H 261.764 -4.09336 1.2705 0
M  V30 2859 H 265.948 -4.45817 2.18084 0
M  V30 2860 H 261.204 -5.03242 3.47214 0
M  V30 2861 H 265.378 -5.41084 4.38407 0
M  V30 2862 H 263.005 -5.69537 5.03519 0
M  V30 2863 N 264.58 -0.43555 -1.51462 0
M  V30 2864 C 265.81 0.130053 -2.0619 0
M  V30 2865 C 266.218 1.37164 -1.30317 0
M  V30 2866 O 265.561 1.80225 -0.355598 0
M  V30 2867 C 265.623 0.519418 -3.55728 0
M  V30 2868 C 265.287 -0.615119 -4.52841 0
M  V30 2869 C 266.284 -1.48671 -4.9819 0
M  V30 2870 C 263.969 -0.795341 -4.95963 0
M  V30 2871 C 265.963 -2.52324 -5.8533 0
M  V30 2872 C 263.65 -1.83514 -5.82894 0
M  V30 2873 C 264.648 -2.69748 -6.27475 0
M  V30 2874 O 264.336 -3.71944 -7.1268 0
M  V30 2875 H 264.068 0.0121612 -0.675891 0
M  V30 2876 H 266.622 -0.6129 -1.96043 0
M  V30 2877 H 264.852 1.31505 -3.63653 0
M  V30 2878 H 266.541 1.01597 -3.92979 0
M  V30 2879 H 267.307 -1.359 -4.65571 0
M  V30 2880 H 263.186 -0.133713 -4.60806 0
M  V30 2881 H 266.73 -3.19665 -6.20048 0
M  V30 2882 H 262.627 -1.96306 -6.14926 0
M  V30 2883 H 263.395 -3.68503 -7.30854 0
M  V30 2884 N 266.058 1.56714 -0.166846 0
M  V30 2885 C 267.335 1.88412 0.525373 0
M  V30 2886 C 267.715 1.07602 1.81618 0
M  V30 2887 O 267.063 0.168621 2.27877 0
M  V30 2888 C 267.273 3.40363 0.771613 0
M  V30 2889 C 268.621 4.10007 1.1036 0
M  V30 2890 O 269.645 3.45655 0.860304 0
M  V30 2891 O 268.504 5.2369 1.56239 0
M  V30 2892 H 265.598 0.781587 0.270278 0
M  V30 2893 H 268.144 1.68458 -0.204946 0
M  V30 2894 H 266.916 3.91046 -0.141093 0
M  V30 2895 H 266.539 3.65914 1.55541 0
M  V30 2896 N 267.536 -0.106894 1.57237 0
M  V30 2897 C 268.764 -0.826389 1.8968 0
M  V30 2898 C 269.179 -1.72856 0.759353 0
M  V30 2899 O 268.536 -1.80503 -0.269263 0
M  V30 2900 C 268.587 -1.64967 3.21665 0
M  V30 2901 O 268.308 -0.783804 4.31031 0
M  V30 2902 C 269.809 -2.47326 3.67892 0
M  V30 2903 H 267.029 -0.236927 0.627779 0
M  V30 2904 H 269.573 -0.0876593 2.04312 0
M  V30 2905 H 267.728 -2.34103 3.08666 0
M  V30 2906 H 268.142 -1.35284 5.06753 0
M  V30 2907 H 269.616 -3.00604 4.6297 0
M  V30 2908 H 270.093 -3.25247 2.95146 0
M  V30 2909 H 270.699 -1.83411 3.83719 0
M  V30 2910 N 269.014 -1.53014 -0.377408 0
M  V30 2911 C 270.291 -1.59215 -1.13622 0
M  V30 2912 C 270.671 -0.392407 -2.07421 0
M  V30 2913 O 270.019 0.618342 -2.19975 0
M  V30 2914 C 270.229 -2.93669 -1.88573 0
M  V30 2915 C 271.577 -3.47822 -2.43526 0
M  V30 2916 O 272.601 -2.9562 -1.98715 0
M  V30 2917 O 271.46 -4.39055 -3.25412 0
M  V30 2918 H 268.554 -0.642625 -0.52054 0
M  V30 2919 H 271.1 -1.65353 -0.381625 0
M  V30 2920 H 269.872 -3.7243 -1.20048 0
M  V30 2921 H 269.495 -2.90968 -2.70968 0
M  V30 2922 N 270.492 0.636531 -1.44174 0
M  V30 2923 C 271.424 1.7618 -1.46606 0
M  V30 2924 C 272.437 1.58768 -0.360091 0
M  V30 2925 O 273.626 1.67181 -0.625518 0
M  V30 2926 C 270.726 3.13833 -1.27915 0
M  V30 2927 C 269.899 3.57753 -2.51658 0
M  V30 2928 C 268.958 4.74265 -2.27945 0
M  V30 2929 O 267.984 4.82852 -3.01401 0
M  V30 2930 N 269.186 5.65604 -1.30662 0
M  V30 2931 H 271.951 1.74567 -2.43612 0
M  V30 2932 H 269.512 0.820924 -1.39544 0
M  V30 2933 H 271.504 3.8949 -1.09907 0
M  V30 2934 H 270.074 3.10121 -0.39293 0
M  V30 2935 H 269.294 2.72362 -2.84978 0
M  V30 2936 H 270.582 3.83847 -3.33974 0
M  V30 2937 H 269.98 5.61354 -0.699844 0
M  V30 2938 H 268.537 6.40913 -1.18634 0
M  V30 2939 N 271.97 1.30982 0.876444 0
M  V30 2940 C 273.216 1.20474 1.63138 0
M  V30 2941 C 273.549 -0.238096 1.92735 0
M  V30 2942 O 272.824 -1.1692 1.55435 0
M  V30 2943 C 273.107 2.04244 2.96574 0
M  V30 2944 C 272.96 3.56793 2.73896 0
M  V30 2945 C 274.279 1.88684 3.97601 0
M  V30 2946 H 271.398 0.439001 0.591985 0
M  V30 2947 H 274.04 1.60704 1.01361 0
M  V30 2948 H 272.19 1.70063 3.493 0
M  V30 2949 H 273.862 4.01077 2.27892 0
M  V30 2950 H 272.105 3.80548 2.08245 0
M  V30 2951 H 272.776 4.10706 3.68815 0
M  V30 2952 H 275.252 2.18584 3.54062 0
M  V30 2953 H 274.128 2.4961 4.88862 0
M  V30 2954 H 274.389 0.848343 4.33884 0
M  V30 2955 N 273.449 -1.08991 1.13837 0
M  V30 2956 C 274.696 -1.81258 0.902882 0
M  V30 2957 C 275.024 -1.85936 -0.570803 0
M  V30 2958 O 274.279 -1.3267 -1.43865 0
M  V30 2959 C 274.578 -3.27042 1.44147 0
M  V30 2960 C 274.244 -3.4249 2.93276 0
M  V30 2961 C 272.906 -3.46414 3.33992 0
M  V30 2962 C 275.258 -3.4666 3.892 0
M  V30 2963 C 272.586 -3.52091 4.69307 0
M  V30 2964 C 274.938 -3.53872 5.24364 0
M  V30 2965 C 273.602 -3.56066 5.646 0
M  V30 2966 H 272.872 -0.663268 0.330388 0
M  V30 2967 H 275.519 -1.28368 1.42105 0
M  V30 2968 H 273.824 -3.82599 0.844097 0
M  V30 2969 H 275.521 -3.81499 1.23528 0
M  V30 2970 H 272.111 -3.40124 2.60794 0
M  V30 2971 H 276.295 -3.42865 3.58828 0
M  V30 2972 H 271.551 -3.52079 4.9985 0
M  V30 2973 H 275.725 -3.56043 5.98503 0
M  V30 2974 H 273.352 -3.60218 6.69438 0
M  V30 2975 N 274.927 -0.932562 -1.27047 0
M  V30 2976 C 276.173 -0.576412 -1.94436 0
M  V30 2977 C 276.506 0.880891 -1.73072 0
M  V30 2978 O 275.781 1.62905 -1.06264 0
M  V30 2979 C 276.064 -0.909031 -3.48437 0
M  V30 2980 C 275.917 -2.42044 -3.79123 0
M  V30 2981 C 277.236 -0.418341 -4.38107 0
M  V30 2982 H 274.355 -0.210888 -0.706184 0
M  V30 2983 H 276.997 -1.16522 -1.50075 0
M  V30 2984 H 275.147 -0.407947 -3.86352 0
M  V30 2985 H 276.819 -2.99359 -3.50973 0
M  V30 2986 H 275.062 -2.86758 -3.25503 0
M  V30 2987 H 275.733 -2.6037 -4.86736 0
M  V30 2988 H 278.209 -0.847856 -4.0737 0
M  V30 2989 H 277.085 -0.679981 -5.44672 0
M  V30 2990 H 277.346 0.681642 -4.36814 0
M  V30 2991 N 276.405 1.4127 -0.698611 0
M  V30 2992 C 277.335 2.33447 -0.049629 0
M  V30 2993 C 278.316 1.51982 0.763898 0
M  V30 2994 O 279.501 1.80509 0.716257 0
M  V30 2995 C 276.631 3.35828 0.885267 0
M  V30 2996 C 275.585 4.27627 0.178613 0
M  V30 2997 C 274.911 5.20406 1.22807 0
M  V30 2998 C 276.211 5.13459 -0.956933 0
M  V30 2999 H 277.905 2.87966 -0.81951 0
M  V30 3000 H 275.451 1.38461 -0.395538 0
M  V30 3001 H 277.404 3.9924 1.34854 0
M  V30 3002 H 276.128 2.79666 1.68685 0
M  V30 3003 H 274.787 3.65643 -0.26466 0
M  V30 3004 H 274.435 4.60558 2.02226 0
M  V30 3005 H 274.135 5.82661 0.760239 0
M  V30 3006 H 275.659 5.86695 1.69179 0
M  V30 3007 H 277.073 5.70421 -0.573805 0
M  V30 3008 H 275.47 5.8467 -1.35205 0
M  V30 3009 H 276.54 4.50443 -1.79524 0
M  V30 3010 N 277.883 0.443576 1.51229 0
M  V30 3011 C 279.108 -0.121648 2.07043 0
M  V30 3012 C 279.533 -1.35156 1.30823 0
M  V30 3013 O 278.891 -1.7793 0.347934 0
M  V30 3014 C 278.939 -0.41624 3.5819 0
M  V30 3015 O 278.043 -1.50163 3.8409 0
M  V30 3016 H 277.384 0.000871367 0.663999 0
M  V30 3017 H 279.914 0.626706 1.94765 0
M  V30 3018 H 279.924 -0.664867 4.02546 0
M  V30 3019 H 278.599 0.482653 4.1309 0
M  V30 3020 H 277.176 -1.24248 3.51592 0
M  V30 3021 N 279.361 -1.56624 0.175154 0
M  V30 3022 C 280.291 -2.21155 -0.749195 0
M  V30 3023 C 281.272 -1.16836 -1.23626 0
M  V30 3024 O 282.457 -1.45277 -1.28873 0
M  V30 3025 C 279.587 -2.8553 -1.97711 0
M  V30 3026 C 278.541 -3.95921 -1.62575 0
M  V30 3027 C 277.867 -4.47365 -2.92864 0
M  V30 3028 C 279.167 -5.15323 -0.850838 0
M  V30 3029 H 280.861 -2.98653 -0.211295 0
M  V30 3030 H 278.407 -1.43651 -0.100188 0
M  V30 3031 H 280.36 -3.2935 -2.62881 0
M  V30 3032 H 279.084 -2.05406 -2.53921 0
M  V30 3033 H 277.743 -3.52762 -0.997719 0
M  V30 3034 H 277.391 -3.64027 -3.47122 0
M  V30 3035 H 277.091 -5.21839 -2.70106 0
M  V30 3036 H 278.615 -4.93873 -3.59056 0
M  V30 3037 H 280.029 -5.55812 -1.40521 0
M  V30 3038 H 278.426 -5.95739 -0.722154 0
M  V30 3039 H 279.496 -4.84661 0.152082 0
M  V30 3040 N 280.839 0.0985539 -1.57292 0
M  V30 3041 C 281.789 1.1261 -1.9825 0
M  V30 3042 C 282.773 1.35961 -0.860426 0
M  V30 3043 O 283.965 1.36711 -1.12424 0
M  V30 3044 C 281.094 2.44727 -2.40757 0
M  V30 3045 C 280.18 2.24764 -3.59642 0
M  V30 3046 N 280.571 1.74661 -4.74687 0
M  V30 3047 C 278.869 2.55344 -3.65672 0
M  V30 3048 C 279.57 1.68887 -5.56644 0
M  V30 3049 N 278.546 2.13976 -4.99715 0
M  V30 3050 H 282.348 0.731604 -2.84648 0
M  V30 3051 H 279.862 0.306029 -1.59491 0
M  V30 3052 H 281.859 3.19072 -2.68326 0
M  V30 3053 H 280.519 2.84917 -1.55733 0
M  V30 3054 H 281.53 1.43908 -4.97505 0
M  V30 3055 H 278.207 2.99081 -2.91302 0
M  V30 3056 H 279.597 1.3123 -6.5896 0
M  V30 3057 N 282.317 1.53212 0.369288 0
M  V30 3058 C 283.249 1.75668 1.47219 0
M  V30 3059 C 284.262 0.637387 1.49804 0
M  V30 3060 O 285.451 0.913561 1.5335 0
M  V30 3061 C 282.551 1.81818 2.85999 0
M  V30 3062 C 281.724 3.11409 3.07153 0
M  V30 3063 C 280.783 3.08849 4.26026 0
M  V30 3064 O 279.809 3.82659 4.2138 0
M  V30 3065 N 281.011 2.29409 5.33246 0
M  V30 3066 H 283.776 2.70832 1.28337 0
M  V30 3067 H 281.337 1.51944 0.55898 0
M  V30 3068 H 283.329 1.77588 3.63655 0
M  V30 3069 H 281.899 0.939544 2.98146 0
M  V30 3070 H 281.119 3.28971 2.1719 0
M  V30 3071 H 282.407 3.97059 3.18154 0
M  V30 3072 H 281.805 1.68946 5.39883 0
M  V30 3073 H 280.362 2.31001 6.09493 0
M  V30 3074 N 283.795 -0.628877 1.44509 0
M  V30 3075 C 285.02 -1.42048 1.5112 0
M  V30 3076 C 285.445 -1.87594 0.137818 0
M  V30 3077 O 284.803 -1.58873 -0.873437 0
M  V30 3078 C 284.851 -2.61541 2.48251 0
M  V30 3079 O 283.955 -3.61453 1.98559 0
M  V30 3080 H 283.296 -0.424942 0.510216 0
M  V30 3081 H 285.826 -0.767374 1.89664 0
M  V30 3082 H 285.836 -3.09057 2.66361 0
M  V30 3083 H 284.511 -2.27736 3.48007 0
M  V30 3084 H 283.088 -3.20731 1.90227 0
M  V30 3085 N 285.273 -1.31445 -0.869486 0
M  V30 3086 C 286.684 -1.19042 -1.43826 0
M  V30 3087 C 287.035 0.202919 -1.95148 0
M  V30 3088 O 286.16 1.10071 -1.86315 0
M  V30 3089 C 286.755 -2.15499 -2.6143 0
M  V30 3090 C 285.314 -2.07028 -3.14351 0
M  V30 3091 C 284.461 -2.04701 -1.87063 0
M  V30 3092 H 287.412 -1.43489 -0.677984 0
M  V30 3093 H 287.433 -1.74488 -3.38134 0
M  V30 3094 H 286.945 -3.16899 -2.24046 0
M  V30 3095 H 285.046 -1.08825 -3.56354 0
M  V30 3096 H 285.159 -2.96157 -3.766 0
M  V30 3097 H 283.523 -1.49724 -2.06046 0
M  V30 3098 H 284.306 -3.07857 -1.51917 0
M  V30 3099 N 286.751 1.08385 -1.14413 0
M  V30 3100 C 287.661 2.18856 -0.844951 0
M  V30 3101 C 288.677 1.73121 0.174668 0
M  V30 3102 O 289.853 2.014 0.00312857 0
M  V30 3103 C 286.918 3.45155 -0.32696 0
M  V30 3104 C 285.979 4.05513 -1.40916 0
M  V30 3105 C 285.212 5.25784 -0.915793 0
M  V30 3106 O 285.435 5.69884 0.242651 0
M  V30 3107 O 284.369 5.77545 -1.69487 0
M  V30 3108 H 288.195 2.46919 -1.76818 0
M  V30 3109 H 285.78 1.17524 -0.922411 0
M  V30 3110 H 287.662 4.21377 -0.0440211 0
M  V30 3111 H 286.337 3.18668 0.568539 0
M  V30 3112 H 285.244 3.30879 -1.74556 0
M  V30 3113 H 286.577 4.3625 -2.27919 0
M  V30 3114 N 288.23 0.939286 1.26551 0
M  V30 3115 C 289.46 0.601663 1.97645 0
M  V30 3116 C 289.868 -0.827206 1.70159 0
M  V30 3117 O 289.211 -1.56291 0.965338 0
M  V30 3118 C 289.273 0.761725 3.51337 0
M  V30 3119 C 288.937 2.16487 4.0247 0
M  V30 3120 C 289.934 3.14016 4.14355 0
M  V30 3121 C 287.619 2.48494 4.36527 0
M  V30 3122 C 289.613 4.41654 4.59587 0
M  V30 3123 C 287.3 3.76364 4.81449 0
M  V30 3124 C 288.298 4.72758 4.92939 0
M  V30 3125 O 287.986 5.98352 5.36871 0
M  V30 3126 H 287.718 0.225758 0.637189 0
M  V30 3127 H 290.272 1.26178 1.62075 0
M  V30 3128 H 288.502 0.0444808 3.86674 0
M  V30 3129 H 290.191 0.427442 4.03643 0
M  V30 3130 H 290.957 2.90613 3.8829 0
M  V30 3131 H 286.836 1.74202 4.26819 0
M  V30 3132 H 290.38 5.16896 4.68471 0
M  V30 3133 H 286.277 3.99582 5.06956 0
M  V30 3134 H 287.045 6.01507 5.55096 0
M  V30 3135 N 289.708 -1.40897 0.706093 0
M  V30 3136 C 290.671 -2.29131 0.0562841 0
M  V30 3137 C 291.671 -1.44901 -0.697166 0
M  V30 3138 O 292.861 -1.65926 -0.530484 0
M  V30 3139 C 289.993 -3.27957 -0.93043 0
M  V30 3140 H 291.186 -2.88091 0.833284 0
M  V30 3141 H 288.739 -1.4906 0.470192 0
M  V30 3142 H 289.474 -2.73997 -1.73482 0
M  V30 3143 H 289.259 -3.90124 -0.393166 0
M  V30 3144 H 290.749 -3.94049 -1.38256 0
M  V30 3145 N 291.186 -0.45159 -1.50991 0
M  V30 3146 C 292.433 0.110074 -2.02201 0
M  V30 3147 C 292.761 1.4146 -1.33489 0
M  V30 3148 O 292.016 1.90617 -0.443125 0
M  V30 3149 C 292.315 0.361728 -3.55565 0
M  V30 3150 C 291.981 -0.858717 -4.42648 0
M  V30 3151 C 290.643 -1.19338 -4.66167 0
M  V30 3152 C 292.995 -1.67221 -4.93646 0
M  V30 3153 C 290.323 -2.34195 -5.37931 0
M  V30 3154 C 292.675 -2.8119 -5.6667 0
M  V30 3155 C 291.339 -3.15094 -5.88449 0
M  V30 3156 H 290.609 0.040279 -0.739904 0
M  V30 3157 H 293.256 -0.601696 -1.81802 0
M  V30 3158 H 291.561 1.15554 -3.74372 0
M  V30 3159 H 293.258 0.80996 -3.92735 0
M  V30 3160 H 289.848 -0.58796 -4.24548 0
M  V30 3161 H 294.032 -1.42686 -4.75347 0
M  V30 3162 H 289.288 -2.6076 -5.53005 0
M  V30 3163 H 293.462 -3.44585 -6.05173 0
M  V30 3164 H 291.089 -4.04204 -6.43835 0
M  V30 3165 N 292.664 1.56529 -0.183458 0
M  V30 3166 C 294.075 1.83739 0.331177 0
M  V30 3167 C 294.426 1.10373 1.62211 0
M  V30 3168 O 293.551 0.36071 2.13373 0
M  V30 3169 C 294.146 3.33306 0.607646 0
M  V30 3170 C 292.705 3.60969 1.06668 0
M  V30 3171 C 291.852 2.77086 0.109029 0
M  V30 3172 H 294.803 1.53379 -0.407484 0
M  V30 3173 H 294.824 3.51444 1.45832 0
M  V30 3174 H 294.336 3.86677 -0.332086 0
M  V30 3175 H 292.437 3.13021 2.0211 0
M  V30 3176 H 292.55 4.69231 0.967447 0
M  V30 3177 H 290.914 2.47319 0.608714 0
M  V30 3178 H 291.697 3.33241 -0.82494 0
M  V30 3179 N 294.142 -0.090211 1.57342 0
M  V30 3180 C 295.389 -0.792807 1.86335 0
M  V30 3181 C 295.717 -1.78494 0.772662 0
M  V30 3182 O 294.972 -1.94305 -0.233258 0
M  V30 3183 C 295.271 -1.55222 3.21933 0
M  V30 3184 C 294.937 -0.701765 4.45406 0
M  V30 3185 C 293.599 -0.467334 4.78925 0
M  V30 3186 C 295.951 -0.11086 5.21082 0
M  V30 3187 C 293.279 0.367785 5.85546 0
M  V30 3188 C 295.631 0.711609 6.28585 0
M  V30 3189 C 294.295 0.956086 6.60617 0
M  V30 3190 H 293.565 -0.290109 0.681849 0
M  V30 3191 H 296.212 -0.0541332 1.91423 0
M  V30 3192 H 294.517 -2.3626 3.12551 0
M  V30 3193 H 296.214 -2.10032 3.41595 0
M  V30 3194 H 292.804 -0.894598 4.1916 0
M  V30 3195 H 296.988 -0.279129 4.95514 0
M  V30 3196 H 292.244 0.566128 6.08773 0
M  V30 3197 H 296.418 1.17632 6.86393 0
M  V30 3198 H 294.045 1.60499 7.43064 0
M  V30 3199 N 295.62 -1.53406 -0.361157 0
M  V30 3200 C 296.53 -1.83122 -1.4664 0
M  V30 3201 C 297.546 -0.719943 -1.58407 0
M  V30 3202 O 298.722 -1.01046 -1.74218 0
M  V30 3203 C 295.787 -2.01891 -2.81853 0
M  V30 3204 C 294.848 -3.25784 -2.79577 0
M  V30 3205 C 294.081 -3.43648 -4.0834 0
M  V30 3206 O 294.304 -2.65714 -5.0473 0
M  V30 3207 O 293.238 -4.37018 -4.13883 0
M  V30 3208 H 297.064 -2.7703 -1.24451 0
M  V30 3209 H 294.649 -1.38841 -0.551678 0
M  V30 3210 H 296.531 -2.15782 -3.61962 0
M  V30 3211 H 295.206 -1.11173 -3.0401 0
M  V30 3212 H 294.113 -3.17312 -1.98151 0
M  V30 3213 H 295.446 -4.16439 -2.62373 0
M  V30 3214 N 297.098 0.621204 -1.44841 0
M  V30 3215 C 298.045 1.73267 -1.5247 0
M  V30 3216 C 299.015 1.6189 -0.371611 0
M  V30 3217 O 300.2 1.81668 -0.58321 0
M  V30 3218 C 297.34 3.11545 -1.48438 0
M  V30 3219 C 296.453 3.33827 -2.74196 0
M  V30 3220 C 295.588 4.62133 -2.61929 0
M  V30 3221 C 294.627 4.77627 -3.82804 0
M  V30 3222 N 293.764 5.97219 -3.69153 0
M  V30 3223 H 298.604 1.66082 -2.47428 0
M  V30 3224 H 296.141 0.810026 -1.22788 0
M  V30 3225 H 298.099 3.91528 -1.4409 0
M  V30 3226 H 296.729 3.1772 -0.570402 0
M  V30 3227 H 295.781 2.47715 -2.88689 0
M  V30 3228 H 297.093 3.41153 -3.6389 0
M  V30 3229 H 296.247 5.50291 -2.5547 0
M  V30 3230 H 294.986 4.57182 -1.69811 0
M  V30 3231 H 293.991 3.87896 -3.89637 0
M  V30 3232 H 295.216 4.84385 -4.75971 0
M  V30 3233 H 293.162 5.93339 -2.79794 0
M  V30 3234 H 293.079 6.05644 -4.52472 0
M  V30 3235 H 294.347 6.87912 -3.66603 0
M  V30 3236 N 298.576 1.31904 0.862503 0
M  V30 3237 C 299.824 1.21776 1.61292 0
M  V30 3238 C 300.145 -0.222413 1.93727 0
M  V30 3239 O 299.415 -1.1451 1.58947 0
M  V30 3240 H 297.995 0.447717 0.597962 0
M  V30 3241 H 300.657 1.65326 1.03215 0
M  V30 3242 H 299.753 1.7948 2.5533 0
M  V30 3243 N 300.054 -1.07777 1.14986 0
M  V30 3244 C 301.301 -1.8029 0.922056 0
M  V30 3245 C 301.629 -1.86531 -0.55105 0
M  V30 3246 O 300.884 -1.34189 -1.42449 0
M  V30 3247 C 301.183 -3.25495 1.47608 0
M  V30 3248 C 300.849 -3.39361 2.96893 0
M  V30 3249 C 299.511 -3.42852 3.37647 0
M  V30 3250 C 301.863 -3.42512 3.92854 0
M  V30 3251 C 299.191 -3.47094 4.73015 0
M  V30 3252 C 301.543 -3.4829 5.28088 0
M  V30 3253 C 300.207 -3.50058 5.68345 0
M  V30 3254 H 299.477 -0.659727 0.337404 0
M  V30 3255 H 302.124 -1.26854 1.43459 0
M  V30 3256 H 300.429 -3.81683 0.88463 0
M  V30 3257 H 302.126 -3.80168 1.27568 0
M  V30 3258 H 298.716 -3.37339 2.64387 0
M  V30 3259 H 302.9 -3.3904 3.62444 0
M  V30 3260 H 298.156 -3.46758 5.03556 0
M  V30 3261 H 302.33 -3.49675 6.02246 0
M  V30 3262 H 299.957 -3.53097 6.73221 0
M  V30 3263 N 301.532 -0.945985 -1.26051 0
M  V30 3264 C 302.462 -0.477172 -2.28572 0
M  V30 3265 C 303.443 0.472032 -1.63419 0
M  V30 3266 O 304.628 0.372853 -1.90587 0
M  V30 3267 C 301.758 0.253975 -3.4637 0
M  V30 3268 C 300.712 -0.609135 -4.23643 0
M  V30 3269 C 300.038 0.252252 -5.34105 0
M  V30 3270 C 301.338 -1.8829 -4.8718 0
M  V30 3271 H 303.032 -1.33402 -2.68038 0
M  V30 3272 H 300.578 -0.642904 -1.28852 0
M  V30 3273 H 302.531 0.593016 -4.17207 0
M  V30 3274 H 301.255 1.145 -3.05871 0
M  V30 3275 H 299.914 -0.931138 -3.54578 0
M  V30 3276 H 299.562 1.14278 -4.89846 0
M  V30 3277 H 299.262 -0.32188 -5.86718 0
M  V30 3278 H 300.786 0.586454 -6.07777 0
M  V30 3279 H 302.2 -1.61081 -5.50205 0
M  V30 3280 H 300.597 -2.40199 -5.49931 0
M  V30 3281 H 301.667 -2.59134 -4.09851 0
M  V30 3282 N 303.011 1.40521 -0.713556 0
M  V30 3283 C 303.921 2.34522 -0.0606667 0
M  V30 3284 C 304.937 1.57193 0.74607 0
M  V30 3285 O 306.113 1.89591 0.679493 0
M  V30 3286 C 303.178 3.36081 0.851491 0
M  V30 3287 C 302.239 4.29286 0.0349339 0
M  V30 3288 C 301.472 5.25994 0.903649 0
M  V30 3289 O 301.695 5.28616 2.14292 0
M  V30 3290 O 300.629 6.00918 0.343723 0
M  V30 3291 H 304.455 2.91968 -0.835972 0
M  V30 3292 H 302.04 1.41681 -0.47402 0
M  V30 3293 H 303.922 3.98369 1.37404 0
M  V30 3294 H 302.597 2.81052 1.60598 0
M  V30 3295 H 301.504 3.70289 -0.532633 0
M  V30 3296 H 302.837 4.87462 -0.681287 0
M  V30 3297 N 304.489 0.459591 1.5075 0
M  V30 3298 C 305.399 -0.34613 2.32033 0
M  V30 3299 C 306.415 -1.00686 1.41909 0
M  V30 3300 O 307.591 -0.997361 1.7497 0
M  V30 3301 C 304.656 -1.42029 3.16273 0
M  V30 3302 C 303.717 -0.777362 4.22203 0
M  V30 3303 C 302.95 -1.80034 5.02418 0
M  V30 3304 O 303.173 -3.02544 4.83553 0
M  V30 3305 O 302.107 -1.37853 5.85901 0
M  V30 3306 H 305.933 0.318054 3.0203 0
M  V30 3307 H 303.518 0.221663 1.47746 0
M  V30 3308 H 305.4 -2.04275 3.68578 0
M  V30 3309 H 304.075 -2.06815 2.49016 0
M  V30 3310 H 302.982 -0.116256 3.73919 0
M  V30 3311 H 304.315 -0.172634 4.91897 0
M  V30 3312 N 305.967 -1.56429 0.191757 0
M  V30 3313 C 307.216 -1.9666 -0.448088 0
M  V30 3314 C 307.529 -1.08136 -1.62991 0
M  V30 3315 O 308.735 -1.38135 -2.33733 0
M  V30 3316 C 307.191 -3.49753 -0.848585 0
M  V30 3317 C 306.799 -4.46935 0.308764 0
M  V30 3318 C 308.543 -3.9876 -1.4557 0
M  V30 3319 C 306.45 -5.91293 -0.112506 0
M  V30 3320 H 305.38 -0.734312 -0.171179 0
M  V30 3321 H 308.031 -1.81301 0.283242 0
M  V30 3322 H 306.413 -3.60604 -1.63649 0
M  V30 3323 H 307.587 -4.47813 1.08627 0
M  V30 3324 H 305.902 -4.08102 0.827158 0
M  V30 3325 H 308.499 -5.04086 -1.78328 0
M  V30 3326 H 308.842 -3.42875 -2.36099 0
M  V30 3327 H 309.375 -3.9101 -0.731836 0
M  V30 3328 H 306.114 -6.51097 0.758514 0
M  V30 3329 H 305.634 -5.93676 -0.854941 0
M  V30 3330 H 307.313 -6.44663 -0.549448 0
M  V30 3331 N 307.445 0.0818655 -1.57387 0
M  V30 3332 C 308.693 0.781368 -1.86384 0
M  V30 3333 C 309.014 1.78618 -0.782342 0
M  V30 3334 O 308.284 1.94976 0.190061 0
M  V30 3335 H 306.864 0.291562 -0.687751 0
M  V30 3336 H 309.526 0.060348 -1.94807 0
M  V30 3337 H 308.622 1.3038 -2.83562 0
M  V30 3338 N 308.923 1.53595 0.353017 0
M  V30 3339 C 309.833 1.83897 1.45667 0
M  V30 3340 C 310.849 0.728334 1.58023 0
M  V30 3341 O 312.025 1.01968 1.73679 0
M  V30 3342 C 309.09 2.03383 2.80778 0
M  V30 3343 C 308.151 3.27262 2.77845 0
M  V30 3344 C 307.384 3.45809 4.06512 0
M  V30 3345 O 307.607 2.68387 5.03314 0
M  V30 3346 O 306.541 4.39207 4.11559 0
M  V30 3347 H 310.367 2.77686 1.2298 0
M  V30 3348 H 307.952 1.39132 0.544308 0
M  V30 3349 H 309.834 2.17698 3.60812 0
M  V30 3350 H 308.509 1.12783 3.03417 0
M  V30 3351 H 307.416 3.18359 1.96465 0
M  V30 3352 H 308.749 4.17824 2.60161 0
M  V30 3353 N 310.401 -0.613514 1.45168 0
M  V30 3354 C 311.649 -1.36997 1.48581 0
M  V30 3355 C 311.97 -1.94589 0.126545 0
M  V30 3356 O 311.24 -1.76816 -0.843372 0
M  V30 3357 H 309.82 -0.508558 0.547154 0
M  V30 3358 H 312.482 -0.720853 1.81079 0
M  V30 3359 H 311.578 -2.1924 2.22127 0
M  V30 3360 N 311.879 -1.3236 -0.855495 0
M  V30 3361 C 312.826 -1.21225 -1.964 0
M  V30 3362 C 313.796 -0.0946204 -1.6583 0
M  V30 3363 O 314.981 -0.27002 -1.8888 0
M  V30 3364 C 312.121 -0.940419 -3.32039 0
M  V30 3365 C 311.234 -2.14276 -3.75113 0
M  V30 3366 C 310.369 -1.80648 -4.9954 0
M  V30 3367 C 309.408 -2.97208 -5.35102 0
M  V30 3368 N 308.545 -2.63678 -6.50706 0
M  V30 3369 H 313.385 -2.16042 -2.05255 0
M  V30 3370 H 310.922 -1.07451 -1.00463 0
M  V30 3371 H 312.88 -0.763311 -4.10158 0
M  V30 3372 H 311.51 -0.0290413 -3.22787 0
M  V30 3373 H 310.562 -2.43017 -2.92655 0
M  V30 3374 H 311.874 -3.01468 -3.97389 0
M  V30 3375 H 311.028 -1.59484 -5.85363 0
M  V30 3376 H 309.767 -0.906678 -4.79198 0
M  V30 3377 H 308.772 -3.19004 -4.47791 0
M  V30 3378 H 309.997 -3.87918 -5.57401 0
M  V30 3379 H 307.943 -1.76238 -6.31883 0
M  V30 3380 H 307.86 -3.444 -6.72997 0
M  V30 3381 H 309.128 -2.45942 -7.39684 0
M  V30 3382 N 313.357 1.07166 -1.15556 0
M  V30 3383 C 314.605 1.79443 -0.929764 0
M  V30 3384 C 314.926 1.87246 0.544414 0
M  V30 3385 O 314.196 1.37473 1.39564 0
M  V30 3386 H 312.776 0.664625 -0.341003 0
M  V30 3387 H 315.438 1.29499 -1.45657 0
M  V30 3388 H 314.534 2.81832 -1.34079 0
M  V30 3389 N 314.835 0.952656 1.25548 0
M  V30 3390 C 315.782 0.47008 2.25962 0
M  V30 3391 C 316.752 -0.476384 1.59122 0
M  V30 3392 O 317.937 -0.39007 1.8677 0
M  V30 3393 C 315.077 -0.247881 3.44209 0
M  V30 3394 C 314.19 0.735591 4.25691 0
M  V30 3395 C 313.325 -0.0047306 5.312 0
M  V30 3396 C 312.364 0.969805 6.04368 0
M  V30 3397 N 311.501 0.260486 7.01617 0
M  V30 3398 H 316.341 1.33126 2.66611 0
M  V30 3399 H 313.878 0.66765 1.31076 0
M  V30 3400 H 315.836 -0.680695 4.1161 0
M  V30 3401 H 314.466 -1.07312 3.0444 0
M  V30 3402 H 313.518 1.28689 3.57971 0
M  V30 3403 H 314.83 1.47934 4.76358 0
M  V30 3404 H 313.984 -0.496275 6.04667 0
M  V30 3405 H 312.723 -0.781282 4.81401 0
M  V30 3406 H 311.728 1.47237 5.29718 0
M  V30 3407 H 312.953 1.74655 6.56256 0
M  V30 3408 H 310.899 -0.497364 6.54112 0
M  V30 3409 H 310.816 0.943362 7.50091 0
M  V30 3410 H 312.084 -0.209587 7.79218 0
M  V30 3411 N 316.313 -1.40141 0.720998 0
M  V30 3412 C 317.561 -2.0039 0.262323 0
M  V30 3413 C 317.882 -1.57469 -1.15015 0
M  V30 3414 O 317.152 -0.816582 -1.78069 0
M  V30 3415 H 315.732 -0.741063 0.093996 0
M  V30 3416 H 318.394 -1.71398 0.927835 0
M  V30 3417 H 317.49 -3.10658 0.299671 0
M  V30 3418 N 317.792 -0.46758 -1.50504 0
M  V30 3419 C 319.022 0.086288 -2.0642 0
M  V30 3420 C 319.43 1.34369 -1.33197 0
M  V30 3421 O 318.773 1.79431 -0.393747 0
M  V30 3422 C 318.835 0.443846 -3.5675 0
M  V30 3423 C 318.499 -0.711035 -4.51435 0
M  V30 3424 C 319.496 -1.59205 -4.94924 0
M  V30 3425 C 317.181 -0.900363 -4.94165 0
M  V30 3426 C 319.175 -2.64683 -5.79846 0
M  V30 3427 C 316.862 -1.95837 -5.7887 0
M  V30 3428 C 317.86 -2.82997 -6.21612 0
M  V30 3429 O 317.548 -3.86977 -7.0463 0
M  V30 3430 H 317.28 -0.00217814 -0.675996 0
M  V30 3431 H 319.834 -0.654346 -1.94698 0
M  V30 3432 H 318.064 1.23762 -3.6636 0
M  V30 3433 H 319.753 0.932386 -3.95046 0
M  V30 3434 H 320.519 -1.45745 -4.62583 0
M  V30 3435 H 316.398 -0.231427 -4.60419 0
M  V30 3436 H 319.942 -3.32745 -6.13128 0
M  V30 3437 H 315.839 -2.09305 -6.10624 0
M  V30 3438 H 316.607 -3.83923 -7.22873 0
M  V30 3439 N 319.27 1.56325 -0.20005 0
M  V30 3440 C 320.218 2.20666 0.735482 0
M  V30 3441 C 321.212 1.17934 1.21605 0
M  V30 3442 O 322.418 1.36068 1.17837 0
M  V30 3443 H 318.793 0.70725 0.255542 0
M  V30 3444 H 320.764 2.9792 0.169166 0
M  V30 3445 C 319.513 2.88391 1.94232 0
M  V30 3446 H 318.836 3.67185 1.58161 0
M  V30 3447 H 320.276 3.3684 2.57517 0
M  V30 3448 C 318.735 1.89692 2.78421 0
M  V30 3449 O 319.265 1.40032 3.76502 0
M  V30 3450 N 317.471 1.57813 2.44015 0
M  V30 3451 H 317.018 1.9839 1.64314 0
M  V30 3452 H 316.976 0.920325 3.00628 0
M  V30 3453 N 320.748 -0.0735177 1.57428 0
M  V30 3454 C 321.678 -1.0879 2.06608 0
M  V30 3455 C 322.659 -1.40473 0.959237 0
M  V30 3456 O 323.844 -1.5013 1.23185 0
M  V30 3457 C 320.974 -2.40183 2.50857 0
M  V30 3458 C 319.928 -2.22858 3.65402 0
M  V30 3459 C 319.254 -3.59619 3.957 0
M  V30 3460 C 320.554 -1.65123 4.95511 0
M  V30 3461 H 322.248 -0.678673 2.91607 0
M  V30 3462 H 319.794 -0.325013 1.40284 0
M  V30 3463 H 321.747 -3.11437 2.83874 0
M  V30 3464 H 320.471 -2.83083 1.62885 0
M  V30 3465 H 319.13 -1.54045 3.32664 0
M  V30 3466 H 318.778 -4.00086 3.04861 0
M  V30 3467 H 318.478 -3.48866 4.72828 0
M  V30 3468 H 320.002 -4.32306 4.31212 0
M  V30 3469 H 321.416 -2.26241 5.26771 0
M  V30 3470 H 319.813 -1.65071 5.7695 0
M  V30 3471 H 320.883 -0.612559 4.81015 0
M  V30 3472 N 322.226 -1.5378 -0.344866 0
M  V30 3473 C 323.174 -1.82373 -1.4437 0
M  V30 3474 C 324.168 -0.694128 -1.54526 0
M  V30 3475 O 325.374 -0.877442 -1.57165 0
M  V30 3476 H 321.749 -0.577765 -0.481344 0
M  V30 3477 H 323.72 -2.74306 -1.17468 0
M  V30 3478 C 322.469 -2.04898 -2.80913 0
M  V30 3479 H 321.792 -2.9127 -2.73865 0
M  V30 3480 H 323.232 -2.28871 -3.56923 0
M  V30 3481 C 321.691 -0.834116 -3.26411 0
M  V30 3482 O 322.221 -0.0328885 -4.01687 0
M  V30 3483 N 320.427 -0.65171 -2.83198 0
M  V30 3484 H 319.974 -1.30489 -2.22104 0
M  V30 3485 H 319.932 0.159686 -3.13994 0
M  V30 3486 N 323.704 0.605807 -1.45491 0
M  V30 3487 C 324.953 1.36086 -1.48874 0
M  V30 3488 C 325.266 1.95131 -0.135333 0
M  V30 3489 O 326.472 2.7146 -0.0468144 0
M  V30 3490 C 324.928 2.46518 -2.62215 0
M  V30 3491 C 324.536 1.93877 -4.03876 0
M  V30 3492 C 326.28 3.23512 -2.74846 0
M  V30 3493 C 324.187 3.01801 -5.08596 0
M  V30 3494 H 323.117 0.511497 -0.553974 0
M  V30 3495 H 325.768 0.649089 -1.71636 0
M  V30 3496 H 324.15 3.20388 -2.32739 0
M  V30 3497 H 325.324 1.26704 -4.43038 0
M  V30 3498 H 323.639 1.29622 -3.95711 0
M  V30 3499 H 326.236 4.04013 -3.50253 0
M  V30 3500 H 326.579 3.74631 -1.81542 0
M  V30 3501 H 327.112 2.56742 -3.03856 0
M  V30 3502 H 323.851 2.55597 -6.03614 0
M  V30 3503 H 323.371 3.67535 -4.74002 0
M  V30 3504 H 325.05 3.66152 -5.33424 0
M  V30 3505 N 325.182 1.32811 0.848464 0
M  V30 3506 C 326.593 1.21315 1.41914 0
M  V30 3507 C 326.944 -0.171847 1.95446 0
M  V30 3508 O 326.069 -1.07093 1.88043 0
M  V30 3509 C 326.664 2.19631 2.57968 0
M  V30 3510 C 325.223 2.12003 3.11017 0
M  V30 3511 C 324.37 2.07651 1.83783 0
M  V30 3512 H 327.321 1.44549 0.655071 0
M  V30 3513 H 327.342 1.79845 3.35315 0
M  V30 3514 H 326.854 3.20423 2.18976 0
M  V30 3515 H 324.955 1.14481 3.54577 0
M  V30 3516 H 325.068 3.02111 3.71841 0
M  V30 3517 H 323.432 1.52983 2.03638 0
M  V30 3518 H 324.215 3.10235 1.47 0
M  V30 3519 N 326.66 -1.06551 1.16123 0
M  V30 3520 C 327.59 -2.15935 0.88851 0
M  V30 3521 C 328.571 -1.69306 -0.164135 0
M  V30 3522 O 329.756 -1.94193 -0.0167857 0
M  V30 3523 C 326.886 -3.45149 0.385942 0
M  V30 3524 C 325.84 -4.05271 1.3762 0
M  V30 3525 C 325.166 -5.29664 0.732137 0
M  V30 3526 C 326.466 -4.44355 2.74493 0
M  V30 3527 H 328.16 -2.39006 1.80323 0
M  V30 3528 H 325.706 -1.14866 0.868435 0
M  V30 3529 H 327.659 -4.21004 0.182647 0
M  V30 3530 H 326.383 -3.21689 -0.564274 0
M  V30 3531 H 325.042 -3.3147 1.56599 0
M  V30 3532 H 324.69 -5.02499 -0.224483 0
M  V30 3533 H 324.39 -5.70848 1.39307 0
M  V30 3534 H 325.914 -6.08218 0.538802 0
M  V30 3535 H 327.328 -5.11303 2.59311 0
M  V30 3536 H 325.725 -4.96515 3.37035 0
M  V30 3537 H 326.795 -3.55339 3.29943 0
M  V30 3538 N 328.138 -0.959301 -1.25041 0
M  V30 3539 C 329.549 -0.65667 -1.74771 0
M  V30 3540 C 329.9 0.827852 -1.77879 0
M  V30 3541 O 329.025 1.64783 -1.40269 0
M  V30 3542 C 329.62 -1.1853 -3.1739 0
M  V30 3543 C 328.179 -0.932734 -3.6466 0
M  V30 3544 C 327.326 -1.32558 -2.43564 0
M  V30 3545 H 330.277 -1.13558 -1.10862 0
M  V30 3546 H 330.298 -0.547582 -3.76539 0
M  V30 3547 H 329.81 -2.26576 -3.15095 0
M  V30 3548 H 327.911 0.13257 -3.72364 0
M  V30 3549 H 328.024 -1.57248 -4.52559 0
M  V30 3550 H 326.388 -0.743956 -2.43593 0
M  V30 3551 H 327.171 -2.41537 -2.43957 0
M  V30 3552 N 329.616 1.39756 -0.72842 0
M  V30 3553 C 330.563 2.30647 -0.0841519 0
M  V30 3554 C 331.533 1.48869 0.7367 0
M  V30 3555 O 332.718 1.77574 0.698015 0
M  V30 3556 C 329.858 3.35165 0.822091 0
M  V30 3557 C 328.971 4.31999 -0.0106663 0
M  V30 3558 C 328.106 5.23585 0.896241 0
M  V30 3559 C 327.145 6.12072 0.0583381 0
M  V30 3560 N 326.282 6.96035 0.920818 0
M  V30 3561 H 331.122 2.85173 -0.864891 0
M  V30 3562 H 328.659 1.40422 -0.438179 0
M  V30 3563 H 330.617 3.94345 1.36189 0
M  V30 3564 H 329.247 2.8211 1.56888 0
M  V30 3565 H 328.299 3.74492 -0.66781 0
M  V30 3566 H 329.611 4.9443 -0.658825 0
M  V30 3567 H 328.765 5.87759 1.50412 0
M  V30 3568 H 327.504 4.61459 1.57819 0
M  V30 3569 H 326.509 5.46916 -0.562389 0
M  V30 3570 H 327.734 6.76261 -0.6203 0
M  V30 3571 H 325.68 6.36485 1.58818 0
M  V30 3572 H 325.597 7.55284 0.32899 0
M  V30 3573 H 326.865 7.64646 1.51447 0
M  V30 3574 N 331.094 0.475555 1.50254 0
M  V30 3575 C 332.342 -0.077738 2.0195 0
M  V30 3576 C 332.663 -1.39813 1.35931 0
M  V30 3577 O 331.933 -1.89249 0.506123 0
M  V30 3578 H 330.513 -0.031719 0.746326 0
M  V30 3579 H 333.175 0.626995 1.84539 0
M  V30 3580 H 332.271 -0.225995 3.11281 0
M  V30 3581 N 332.573 -1.56217 0.208337 0
M  V30 3582 C 333.503 -2.22694 -0.702116 0
M  V30 3583 C 334.484 -1.19432 -1.2112 0
M  V30 3584 O 335.669 -1.47978 -1.25762 0
M  V30 3585 C 332.799 -2.8966 -1.9161 0
M  V30 3586 C 331.753 -3.9928 -1.5414 0
M  V30 3587 C 331.079 -4.53476 -2.83308 0
M  V30 3588 C 332.379 -5.17012 -0.741339 0
M  V30 3589 H 334.073 -2.99034 -0.147898 0
M  V30 3590 H 331.619 -1.43831 -0.0696951 0
M  V30 3591 H 333.572 -3.34852 -2.55836 0
M  V30 3592 H 332.296 -2.10746 -2.49507 0
M  V30 3593 H 330.955 -3.54799 -0.922668 0
M  V30 3594 H 330.603 -3.71308 -3.39322 0
M  V30 3595 H 330.303 -5.27451 -2.58976 0
M  V30 3596 H 331.827 -5.01378 -3.485 0
M  V30 3597 H 333.241 -5.58667 -1.28699 0
M  V30 3598 H 331.638 -5.97137 -0.595627 0
M  V30 3599 H 332.708 -4.8423 0.254851 0
M  V30 3600 N 334.051 0.0651679 -1.57465 0
M  V30 3601 C 334.999 1.09542 -2.05191 0
M  V30 3602 C 335.993 1.39675 -0.958509 0
M  V30 3603 O 337.199 1.39003 -1.14359 0
M  V30 3604 H 333.574 0.370623 -0.654326 0
M  V30 3605 H 335.545 0.666802 -2.90854 0
M  V30 3606 C 334.294 2.39881 -2.51699 0
M  V30 3607 H 333.617 2.17547 -3.3543 0
M  V30 3608 H 335.057 3.104 -2.88839 0
M  V30 3609 C 333.516 3.0631 -1.40271 0
M  V30 3610 O 334.046 3.94664 -0.748523 0
M  V30 3611 N 332.252 2.67041 -1.14618 0
M  V30 3612 H 331.799 1.95281 -1.67997 0
M  V30 3613 H 331.757 3.1181 -0.402688 0
M  V30 3614 N 335.529 1.53961 0.336706 0
M  V30 3615 C 336.806 1.62171 1.09361 0
M  V30 3616 C 337.186 0.447263 2.06307 0
M  V30 3617 O 336.534 -0.559802 2.21537 0
M  V30 3618 C 336.744 2.98565 1.80721 0
M  V30 3619 C 338.092 3.54157 2.34218 0
M  V30 3620 O 339.116 3.00784 1.90807 0
M  V30 3621 O 337.975 4.47528 3.13657 0
M  V30 3622 H 335.069 0.6562 0.503319 0
M  V30 3623 H 337.615 1.66307 0.33765 0
M  V30 3624 H 336.387 3.75482 1.10132 0
M  V30 3625 H 336.01 2.9805 2.63158 0
M  V30 3626 N 337.007 -0.598083 1.45811 0
M  V30 3627 C 337.955 -1.72932 1.55555 0
M  V30 3628 C 338.949 -1.63984 0.424921 0
M  V30 3629 O 340.155 -1.69663 0.601205 0
M  V30 3630 H 336.53 -0.571489 0.488779 0
M  V30 3631 H 338.501 -1.61842 2.50699 0
M  V30 3632 C 337.25 -3.11318 1.54843 0
M  V30 3633 H 336.573 -3.18867 2.41172 0
M  V30 3634 H 338.013 -3.90274 1.65717 0
M  V30 3635 C 336.472 -3.3578 0.274427 0
M  V30 3636 O 337.002 -3.9654 -0.641778 0
M  V30 3637 N 335.208 -2.90119 0.167139 0
M  V30 3638 H 334.755 -2.40855 0.913596 0
M  V30 3639 H 334.713 -3.0686 -0.684435 0
M  V30 3640 N 338.485 -1.33259 -0.841409 0
M  V30 3641 C 339.395 -1.25332 -1.98316 0
M  V30 3642 C 340.411 -0.164364 -1.73222 0
M  V30 3643 O 341.587 -0.387486 -1.97637 0
M  V30 3644 C 338.652 -0.990078 -3.32262 0
M  V30 3645 C 337.713 -2.16879 -3.70489 0
M  V30 3646 C 336.946 -1.91801 -4.98044 0
M  V30 3647 O 337.169 -0.867075 -5.63771 0
M  V30 3648 O 336.103 -2.78267 -5.33714 0
M  V30 3649 H 339.929 -2.21344 -2.07944 0
M  V30 3650 H 337.514 -1.1328 -0.974058 0
M  V30 3651 H 339.396 -0.860321 -4.12524 0
M  V30 3652 H 338.071 -0.0602155 -3.23644 0
M  V30 3653 H 336.978 -2.35407 -2.90748 0
M  V30 3654 H 338.311 -3.0819 -3.8377 0
M  V30 3655 N 339.963 1.05934 -1.16686 0
M  V30 3656 C 341.21 1.788 -0.950622 0
M  V30 3657 C 341.538 1.87384 0.521305 0
M  V30 3658 O 340.793 1.36438 1.40297 0
M  V30 3659 C 341.092 3.23105 -1.52767 0
M  V30 3660 C 340.758 3.34594 -3.02254 0
M  V30 3661 C 339.42 3.37437 -3.43059 0
M  V30 3662 C 341.772 3.36219 -3.98254 0
M  V30 3663 C 339.1 3.39525 -4.78477 0
M  V30 3664 C 341.452 3.39845 -5.33562 0
M  V30 3665 C 340.116 3.40971 -5.73842 0
M  V30 3666 H 339.386 0.654275 -0.347857 0
M  V30 3667 H 342.033 1.24555 -1.45459 0
M  V30 3668 H 340.338 3.80227 -0.94524 0
M  V30 3669 H 342.035 3.7809 -1.336 0
M  V30 3670 H 338.625 3.3309 -2.6972 0
M  V30 3671 H 342.809 3.33231 -3.67792 0
M  V30 3672 H 338.065 3.38703 -5.09009 0
M  V30 3673 H 342.239 3.4005 -6.07733 0
M  V30 3674 H 339.866 3.42342 -6.78753 0
M  V30 3675 N 341.441 0.965919 1.2453 0
M  V30 3676 C 342.371 0.513476 2.27784 0
M  V30 3677 C 343.352 -0.445974 1.6415 0
M  V30 3678 O 344.537 -0.342485 1.91156 0
M  V30 3679 C 341.667 -0.198839 3.4673 0
M  V30 3680 C 340.621 0.676456 4.2262 0
M  V30 3681 C 339.947 -0.167248 5.34438 0
M  V30 3682 C 341.247 1.96017 4.84123 0
M  V30 3683 H 342.941 1.3765 2.65881 0
M  V30 3684 H 340.487 0.663321 1.27813 0
M  V30 3685 H 342.44 -0.526567 4.18097 0
M  V30 3686 H 341.164 -1.0962 3.07654 0
M  V30 3687 H 339.823 0.98743 3.53052 0
M  V30 3688 H 339.471 -1.0647 4.91603 0
M  V30 3689 H 339.171 0.415181 5.86131 0
M  V30 3690 H 340.695 -0.489688 6.08633 0
M  V30 3691 H 342.109 1.69814 5.47573 0
M  V30 3692 H 340.506 2.48918 5.4604 0
M  V30 3693 H 341.576 2.65622 4.05676 0
M  V30 3694 N 342.919 -1.39368 0.735821 0
M  V30 3695 C 344.166 -2.00497 0.284123 0
M  V30 3696 C 344.494 -1.58387 -1.12889 0
M  V30 3697 O 343.749 -0.804359 -1.78406 0
M  V30 3698 C 344.048 -3.5583 0.334651 0
M  V30 3699 C 343.714 -4.17593 1.7008 0
M  V30 3700 C 342.376 -4.34176 2.07472 0
M  V30 3701 C 344.728 -4.51848 2.59775 0
M  V30 3702 C 342.056 -4.82304 3.34065 0
M  V30 3703 C 344.408 -5.01384 3.85741 0
M  V30 3704 C 343.072 -5.16175 4.23225 0
M  V30 3705 H 342.342 -0.73367 0.103968 0
M  V30 3706 H 344.989 -1.66683 0.942825 0
M  V30 3707 H 343.294 -3.89674 -0.407625 0
M  V30 3708 H 344.991 -4.00986 -0.0329927 0
M  V30 3709 H 341.581 -4.05087 1.40008 0
M  V30 3710 H 345.765 -4.38653 2.32157 0
M  V30 3711 H 341.021 -4.91941 3.63049 0
M  V30 3712 H 345.195 -5.26863 4.55399 0
M  V30 3713 H 342.822 -5.5323 5.21384 0
M  V30 3714 N 344.397 -0.483516 -1.5 0
M  V30 3715 C 345.36 0.292965 -2.2732 0
M  V30 3716 C 346.36 0.909499 -1.32608 0
M  V30 3717 O 347.55 0.776745 -1.55924 0
M  V30 3718 C 344.682 1.41854 -3.09984 0
M  V30 3719 H 345.875 -0.385289 -2.97415 0
M  V30 3720 H 343.428 -0.237942 -1.54478 0
M  V30 3721 H 344.163 2.13148 -2.44414 0
M  V30 3722 H 343.948 0.982114 -3.79601 0
M  V30 3723 H 345.438 1.96597 -3.68429 0
M  V30 3724 N 345.875 1.56104 -0.216619 0
M  V30 3725 C 346.805 2.23063 0.690296 0
M  V30 3726 C 347.786 1.20072 1.20485 0
M  V30 3727 O 348.971 1.48643 1.24976 0
M  V30 3728 C 346.101 2.90672 1.90072 0
M  V30 3729 C 345.055 4.00092 1.5202 0
M  V30 3730 C 344.381 4.54972 2.80899 0
M  V30 3731 C 345.681 5.17398 0.71391 0
M  V30 3732 H 347.375 2.99109 0.132038 0
M  V30 3733 H 344.921 1.43866 0.0620664 0
M  V30 3734 H 346.874 3.36204 2.54057 0
M  V30 3735 H 345.598 2.12066 2.48386 0
M  V30 3736 H 344.257 3.55283 0.903839 0
M  V30 3737 H 343.905 3.73102 3.37348 0
M  V30 3738 H 343.605 5.28817 2.56176 0
M  V30 3739 H 345.129 5.0322 3.45836 0
M  V30 3740 H 346.543 5.59342 1.25735 0
M  V30 3741 H 344.94 5.97444 0.563951 0
M  V30 3742 H 346.01 4.84088 -0.280527 0
M  V30 3743 N 347.353 -0.0568162 1.57498 0
M  V30 3744 C 348.263 -1.08346 2.08083 0
M  V30 3745 C 349.279 -1.41439 1.01346 0
M  V30 3746 O 350.455 -1.51316 1.32912 0
M  V30 3747 C 347.52 -2.37352 2.52715 0
M  V30 3748 C 346.581 -2.11093 3.73816 0
M  V30 3749 C 345.814 -3.33949 4.1631 0
M  V30 3750 O 346.037 -4.43622 3.58547 0
M  V30 3751 O 344.971 -3.21279 5.08983 0
M  V30 3752 H 348.797 -0.683667 2.95905 0
M  V30 3753 H 346.382 -0.271965 1.46904 0
M  V30 3754 H 348.264 -3.13246 2.81877 0
M  V30 3755 H 346.939 -2.76681 1.68016 0
M  V30 3756 H 345.846 -1.32856 3.49714 0
M  V30 3757 H 347.179 -1.76637 4.59413 0
M  V30 3758 N 348.832 -1.54138 -0.328536 0
M  V30 3759 C 349.779 -1.83176 -1.40411 0
M  V30 3760 C 350.749 -0.678494 -1.5161 0
M  V30 3761 O 351.934 -0.92443 -1.6691 0
M  V30 3762 C 349.074 -2.06035 -2.76846 0
M  V30 3763 C 348.187 -3.33727 -2.74318 0
M  V30 3764 C 347.322 -3.46574 -4.02567 0
M  V30 3765 C 346.361 -4.68159 -3.94327 0
M  V30 3766 N 345.498 -4.77959 -5.14296 0
M  V30 3767 H 350.338 -2.74938 -1.14948 0
M  V30 3768 H 347.875 -1.36166 -0.556538 0
M  V30 3769 H 349.833 -2.1728 -3.56153 0
M  V30 3770 H 348.463 -1.1757 -3.00628 0
M  V30 3771 H 347.515 -3.31246 -1.8703 0
M  V30 3772 H 348.827 -4.23139 -2.64111 0
M  V30 3773 H 347.981 -3.57333 -4.90304 0
M  V30 3774 H 346.72 -2.55245 -4.15574 0
M  V30 3775 H 345.725 -4.57461 -3.04974 0
M  V30 3776 H 346.95 -5.60868 -3.82889 0
M  V30 3777 H 344.896 -3.89544 -5.27818 0
M  V30 3778 H 344.813 -5.6133 -5.06404 0
M  V30 3779 H 346.081 -4.93044 -6.03761 0
M  V30 3780 N 350.31 0.590341 -1.46126 0
M  V30 3781 C 351.535 1.37991 -1.54833 0
M  V30 3782 C 351.96 1.87163 -0.187506 0
M  V30 3783 O 351.318 1.61133 0.831008 0
M  V30 3784 C 351.366 2.54867 -2.55098 0
M  V30 3785 O 350.47 3.56061 -2.08073 0
M  V30 3786 H 349.811 0.411265 -0.521303 0
M  V30 3787 H 352.341 0.716819 -1.91632 0
M  V30 3788 H 352.351 3.01886 -2.74461 0
M  V30 3789 H 351.026 2.18429 -3.53923 0
M  V30 3790 H 349.603 3.15574 -1.98664 0
M  V30 3791 N 351.788 1.33704 0.83433 0
M  V30 3792 C 352.718 1.26967 1.95963 0
M  V30 3793 C 353.699 0.149337 1.69443 0
M  V30 3794 O 354.884 0.339852 1.91203 0
M  V30 3795 C 352.014 1.01275 3.32206 0
M  V30 3796 C 350.968 2.09652 3.73136 0
M  V30 3797 C 350.294 1.69166 5.07235 0
M  V30 3798 C 351.594 3.51372 3.86439 0
M  V30 3799 H 353.288 2.2112 2.01857 0
M  V30 3800 H 350.834 1.06447 0.969793 0
M  V30 3801 H 352.787 0.952106 4.10503 0
M  V30 3802 H 351.511 0.0356203 3.26581 0
M  V30 3803 H 350.17 2.14766 2.97104 0
M  V30 3804 H 349.818 0.701437 4.98085 0
M  V30 3805 H 349.518 2.41694 5.35591 0
M  V30 3806 H 351.042 1.64576 5.88003 0
M  V30 3807 H 352.456 3.48734 4.55036 0
M  V30 3808 H 350.853 4.22425 4.26236 0
M  V30 3809 H 351.923 3.89546 2.88759 0
M  V30 3810 N 353.266 -1.05314 1.17247 0
M  V30 3811 C 354.176 -2.16538 0.90268 0
M  V30 3812 C 355.192 -1.73523 -0.128707 0
M  V30 3813 O 356.368 -2.01337 0.0502701 0
M  V30 3814 C 353.433 -3.44167 0.418356 0
M  V30 3815 C 352.494 -4.01635 1.51618 0
M  V30 3816 C 351.727 -5.23171 1.05487 0
M  V30 3817 O 351.95 -5.70327 -0.0914715 0
M  V30 3818 O 350.884 -5.72848 1.8474 0
M  V30 3819 H 354.71 -2.42145 1.83302 0
M  V30 3820 H 352.295 -1.15037 0.953246 0
M  V30 3821 H 354.177 -4.21112 0.155726 0
M  V30 3822 H 352.852 -3.20063 -0.48385 0
M  V30 3823 H 351.759 -3.26135 1.83268 0
M  V30 3824 H 353.092 -4.30053 2.39405 0
M  V30 3825 N 354.744 -0.972509 -1.24016 0
M  V30 3826 C 355.993 -0.632603 -1.91523 0
M  V30 3827 C 356.306 0.836641 -1.76804 0
M  V30 3828 O 357.512 1.28728 -2.39043 0
M  V30 3829 C 355.968 -1.08082 -3.43287 0
M  V30 3830 C 355.576 -2.57386 -3.66683 0
M  V30 3831 C 357.32 -0.814288 -4.16617 0
M  V30 3832 C 355.227 -2.95915 -5.12043 0
M  V30 3833 H 354.157 -0.232898 -0.717129 0
M  V30 3834 H 356.808 -1.17936 -1.40582 0
M  V30 3835 H 355.19 -0.462339 -3.93292 0
M  V30 3836 H 356.364 -3.24405 -3.27258 0
M  V30 3837 H 354.679 -2.81701 -3.06649 0
M  V30 3838 H 357.276 -1.0781 -5.23718 0
M  V30 3839 H 357.619 0.24955 -4.15551 0
M  V30 3840 H 358.152 -1.39397 -3.72577 0
M  V30 3841 H 354.891 -4.0139 -5.18234 0
M  V30 3842 H 354.411 -2.33584 -5.52448 0
M  V30 3843 H 356.09 -2.86086 -5.80314 0
M  V30 3844 N 356.222 1.38976 -0.743202 0
M  V30 3845 C 357.468 2.0064 -0.295189 0
M  V30 3846 C 357.801 1.5885 1.11716 0
M  V30 3847 O 357.076 0.821181 1.76315 0
M  V30 3848 C 357.359 3.578 -0.406318 0
M  V30 3849 C 357.212 4.09586 -1.85903 0
M  V30 3850 C 358.531 4.39616 0.206439 0
M  V30 3851 H 355.65 0.728935 -0.108733 0
M  V30 3852 H 358.292 1.65067 -0.940897 0
M  V30 3853 H 356.442 3.88235 0.143419 0
M  V30 3854 H 358.114 3.89837 -2.46627 0
M  V30 3855 H 356.357 3.6284 -2.3776 0
M  V30 3856 H 357.028 5.18708 -1.888 0
M  V30 3857 H 359.504 4.15273 -0.262283 0
M  V30 3858 H 358.38 5.48812 0.0983819 0
M  V30 3859 H 358.641 4.22754 1.2935 0
M  V30 3860 N 357.7 0.491464 1.49741 0
M  V30 3861 C 358.647 -0.292027 2.28945 0
M  V30 3862 C 359.617 -0.968973 1.34908 0
M  V30 3863 O 360.802 -0.97748 1.6386 0
M  V30 3864 C 357.942 -1.35617 3.17336 0
M  V30 3865 C 357.055 -0.691957 4.26422 0
M  V30 3866 C 356.19 -1.73572 5.02042 0
M  V30 3867 C 355.229 -1.05286 6.02977 0
M  V30 3868 N 354.366 -2.0404 6.71798 0
M  V30 3869 H 359.206 0.389654 2.95442 0
M  V30 3870 H 356.743 0.204003 1.45679 0
M  V30 3871 H 358.701 -1.98502 3.66951 0
M  V30 3872 H 357.331 -2.00674 2.52844 0
M  V30 3873 H 356.383 0.0499523 3.80367 0
M  V30 3874 H 357.695 -0.153946 4.98562 0
M  V30 3875 H 356.849 -2.43987 5.55478 0
M  V30 3876 H 355.588 -2.30757 4.29654 0
M  V30 3877 H 354.593 -0.334446 5.48782 0
M  V30 3878 H 355.818 -0.487636 6.77347 0
M  V30 3879 H 353.764 -2.60205 6.02187 0
M  V30 3880 H 353.681 -1.55279 7.39881 0
M  V30 3881 H 354.949 -2.73772 7.29842 0
M  V30 3882 N 359.178 -1.55987 0.224894 0
M  V30 3883 C 360.088 -2.24066 -0.69511 0
M  V30 3884 C 361.104 -1.24939 -1.21104 0
M  V30 3885 O 362.28 -1.5776 -1.25195 0
M  V30 3886 C 359.345 -2.90983 -1.88493 0
M  V30 3887 C 358.406 -4.05462 -1.41064 0
M  V30 3888 C 357.639 -4.69179 -2.54375 0
M  V30 3889 O 357.862 -4.31895 -3.72589 0
M  V30 3890 O 356.796 -5.58108 -2.25386 0
M  V30 3891 H 360.622 -3.03353 -0.145149 0
M  V30 3892 H 358.207 -1.49399 -0.00569476 0
M  V30 3893 H 360.089 -3.33209 -2.57972 0
M  V30 3894 H 358.764 -2.14653 -2.42293 0
M  V30 3895 H 357.671 -3.67798 -0.683774 0
M  V30 3896 H 359.004 -4.83545 -0.918985 0
M  V30 3897 N 360.656 0.0484629 -1.57525 0
M  V30 3898 C 361.902 0.744226 -1.88651 0
M  V30 3899 C 362.235 1.76029 -0.820212 0
M  V30 3900 O 361.51 1.93782 0.166985 0
M  V30 3901 C 361.793 1.43128 -3.30434 0
M  V30 3902 C 361.646 0.43005 -4.47739 0
M  V30 3903 C 362.965 2.37031 -3.70816 0
M  V30 3904 H 360.084 0.269089 -0.68612 0
M  V30 3905 H 362.726 0.00713532 -1.89999 0
M  V30 3906 H 360.876 2.05956 -3.29415 0
M  V30 3907 H 362.548 -0.194816 -4.60888 0
M  V30 3908 H 360.791 -0.252522 -4.33064 0
M  V30 3909 H 361.462 0.948874 -5.43783 0
M  V30 3910 H 363.938 1.84263 -3.73077 0
M  V30 3911 H 362.814 2.82094 -4.70865 0
M  V30 3912 H 363.075 3.22864 -3.02012 0
M  V30 3913 N 362.134 1.5431 0.320358 0
M  V30 3914 C 363.381 1.72668 1.05792 0
M  V30 3915 C 363.709 0.502084 1.87908 0
M  V30 3916 O 362.964 -0.516149 1.88771 0
M  V30 3917 C 363.263 2.95639 2.00828 0
M  V30 3918 C 362.929 4.30265 1.34843 0
M  V30 3919 C 361.591 4.66865 1.16578 0
M  V30 3920 C 363.943 5.13801 0.875095 0
M  V30 3921 C 361.271 5.84597 0.496336 0
M  V30 3922 C 363.623 6.32219 0.219463 0
M  V30 3923 C 362.287 6.67495 0.0246915 0
M  V30 3924 H 361.557 0.631837 0.387121 0
M  V30 3925 H 364.204 1.88552 0.334735 0
M  V30 3926 H 362.509 2.74456 2.79609 0
M  V30 3927 H 364.206 3.07038 2.57932 0
M  V30 3928 H 360.796 4.01472 1.50061 0
M  V30 3929 H 364.98 4.86039 1.00398 0
M  V30 3930 H 360.236 6.10486 0.334264 0
M  V30 3931 H 364.41 6.96227 -0.155291 0
M  V30 3932 H 362.037 7.5858 -0.496065 0
M  V30 3933 N 363.613 -0.582584 1.46437 0
M  V30 3934 C 364.523 -1.71949 1.59595 0
M  V30 3935 C 365.539 -1.67264 0.479443 0
M  V30 3936 O 366.715 -1.87171 0.743579 0
M  V30 3937 C 363.78 -3.08452 1.58298 0
M  V30 3938 C 362.841 -3.244 2.81182 0
M  V30 3939 C 362.074 -4.54391 2.79937 0
M  V30 3940 O 362.297 -5.38287 1.8869 0
M  V30 3941 O 361.231 -4.73588 3.71481 0
M  V30 3942 H 365.057 -1.63795 2.55744 0
M  V30 3943 H 362.642 -0.749643 1.29231 0
M  V30 3944 H 364.524 -3.89732 1.60271 0
M  V30 3945 H 363.199 -3.17043 0.653094 0
M  V30 3946 H 362.106 -2.42613 2.84763 0
M  V30 3947 H 363.439 -3.20699 3.7338 0
M  V30 3948 N 365.091 -1.34144 -0.827227 0
M  V30 3949 C 366.502 -1.23557 -1.39966 0
M  V30 3950 C 366.853 0.140731 -1.95695 0
M  V30 3951 O 365.978 1.04087 -1.89723 0
M  V30 3952 C 366.573 -2.23708 -2.54441 0
M  V30 3953 C 365.132 -2.16924 -3.07605 0
M  V30 3954 C 364.279 -2.10549 -1.80456 0
M  V30 3955 H 367.23 -1.45573 -0.631991 0
M  V30 3956 H 367.251 -1.85157 -3.32411 0
M  V30 3957 H 366.763 -3.23866 -2.13851 0
M  V30 3958 H 364.864 -1.20107 -3.52711 0
M  V30 3959 H 364.977 -3.07988 -3.66988 0
M  V30 3960 H 363.341 -1.56203 -2.01178 0
M  V30 3961 H 364.124 -3.12535 -1.42046 0
M  V30 3962 N 366.569 1.04691 -1.17803 0
M  V30 3963 C 367.479 2.16057 -0.914151 0
M  V30 3964 C 368.495 1.73589 0.119503 0
M  V30 3965 O 369.671 2.01308 -0.0609468 0
M  V30 3966 C 366.736 3.4394 -0.436603 0
M  V30 3967 C 365.797 4.00825 -1.53746 0
M  V30 3968 C 365.03 5.22604 -1.0826 0
M  V30 3969 O 365.253 5.70367 0.0612244 0
M  V30 3970 O 364.187 5.7186 -1.87775 0
M  V30 3971 H 368.013 2.41169 -1.84584 0
M  V30 3972 H 365.598 1.1453 -0.959334 0
M  V30 3973 H 367.48 4.21024 -0.178057 0
M  V30 3974 H 366.155 3.20316 0.466869 0
M  V30 3975 H 365.062 3.25158 -1.84995 0
M  V30 3976 H 366.395 4.28778 -2.41683 0
M  V30 3977 N 368.047 0.979072 1.23499 0
M  V30 3978 C 369.293 0.648178 1.92163 0
M  V30 3979 C 369.626 -0.816049 1.76222 0
M  V30 3980 O 368.901 -1.58849 1.12237 0
M  V30 3981 C 369.184 1.03773 3.44824 0
M  V30 3982 C 369.037 2.55948 3.69879 0
M  V30 3983 C 370.356 0.580653 4.36253 0
M  V30 3984 H 367.475 0.236952 0.69787 0
M  V30 3985 H 370.117 1.22012 1.45647 0
M  V30 3986 H 368.267 0.551058 3.84572 0
M  V30 3987 H 369.939 3.12179 3.3962 0
M  V30 3988 H 368.182 2.98641 3.14636 0
M  V30 3989 H 368.853 2.78255 4.76737 0
M  V30 3990 H 371.329 0.998465 4.03943 0
M  V30 3991 H 370.205 0.881663 5.41773 0
M  V30 3992 H 370.466 -0.519052 4.39042 0
M  V30 3993 N 369.525 -1.3858 0.750561 0
M  V30 3994 C 370.755 -2.04175 0.31564 0
M  V30 3995 C 371.163 -1.56726 -1.05989 0
M  V30 3996 O 370.506 -0.734225 -1.68389 0
M  V30 3997 C 370.568 -3.58585 0.256389 0
M  V30 3998 C 370.232 -4.29077 1.57296 0
M  V30 3999 C 371.229 -4.54656 2.52159 0
M  V30 4000 C 368.914 -4.67324 1.84156 0
M  V30 4001 C 370.908 -5.17512 3.72103 0
M  V30 4002 C 368.595 -5.29905 3.04374 0
M  V30 4003 C 369.593 -5.54933 3.98168 0
M  V30 4004 O 369.281 -6.16212 5.16273 0
M  V30 4005 H 369.013 -0.662742 0.133226 0
M  V30 4006 H 371.567 -1.78313 1.01948 0
M  V30 4007 H 369.797 -3.83406 -0.503677 0
M  V30 4008 H 371.486 -4.05628 -0.148612 0
M  V30 4009 H 372.252 -4.25539 2.32683 0
M  V30 4010 H 368.131 -4.47191 1.11988 0
M  V30 4011 H 371.675 -5.36963 4.45327 0
M  V30 4012 H 367.572 -5.58444 3.23745 0
M  V30 4013 H 368.34 -6.34701 5.16815 0
M  V30 4014 N 371.003 -0.499398 -1.49478 0
M  V30 4015 C 371.933 0.269244 -2.31943 0
M  V30 4016 C 372.914 0.964054 -1.40143 0
M  V30 4017 O 374.099 0.955767 -1.69052 0
M  V30 4018 C 371.229 1.33504 -3.20615 0
M  V30 4019 C 370.183 0.760202 -4.21195 0
M  V30 4020 C 369.509 1.9264 -4.98792 0
M  V30 4021 C 370.809 -0.247661 -5.21712 0
M  V30 4022 H 372.503 -0.419082 -2.96452 0
M  V30 4023 H 370.049 -0.202988 -1.42562 0
M  V30 4024 H 372.002 1.88048 -3.77115 0
M  V30 4025 H 370.726 2.05253 -2.54045 0
M  V30 4026 H 369.385 0.23653 -3.65836 0
M  V30 4027 H 369.033 2.63154 -4.28671 0
M  V30 4028 H 368.733 1.54785 -5.66847 0
M  V30 4029 H 370.257 2.4762 -5.58137 0
M  V30 4030 H 371.671 0.209579 -5.72917 0
M  V30 4031 H 370.068 -0.541962 -5.97648 0
M  V30 4032 H 371.138 -1.16409 -4.7072 0
M  V30 4033 N 372.481 1.55866 -0.233164 0
M  V30 4034 C 373.411 2.23783 0.666599 0
M  V30 4035 C 374.392 1.21343 1.19205 0
M  V30 4036 O 375.577 1.4996 1.23392 0
M  V30 4037 C 372.707 2.92671 1.86978 0
M  V30 4038 C 371.661 4.01682 1.47768 0
M  V30 4039 C 370.987 4.57926 2.76058 0
M  V30 4040 C 372.287 5.18126 0.658993 0
M  V30 4041 H 373.981 2.99232 0.100306 0
M  V30 4042 H 371.527 1.43924 0.046804 0
M  V30 4043 H 373.48 3.3888 2.50476 0
M  V30 4044 H 372.204 2.14688 2.46123 0
M  V30 4045 H 370.863 3.56222 0.866106 0
M  V30 4046 H 370.511 3.76659 3.33372 0
M  V30 4047 H 370.211 5.31505 2.50552 0
M  V30 4048 H 371.735 5.06859 3.40479 0
M  V30 4049 H 373.149 5.60644 1.19795 0
M  V30 4050 H 371.546 5.98009 0.500552 0
M  V30 4051 H 372.616 4.83763 -0.331856 0
M  V30 4052 N 373.959 -0.0401083 1.57549 0
M  V30 4053 C 374.891 -1.07149 2.02612 0
M  V30 4054 C 375.904 -1.33126 0.937085 0
M  V30 4055 O 377.093 -1.30808 1.21456 0
M  V30 4056 C 374.193 -2.41561 2.37701 0
M  V30 4057 C 373.366 -2.35096 3.68848 0
M  V30 4058 C 372.425 -3.51867 3.91249 0
M  V30 4059 O 371.451 -3.3186 4.62447 0
M  V30 4060 N 372.653 -4.73351 3.36035 0
M  V30 4061 H 375.418 -0.687485 2.91708 0
M  V30 4062 H 372.979 -0.228248 1.60283 0
M  V30 4063 H 374.971 -3.18379 2.49833 0
M  V30 4064 H 373.541 -2.71846 1.54332 0
M  V30 4065 H 372.761 -1.4345 3.67173 0
M  V30 4066 H 374.049 -2.27908 4.54901 0
M  V30 4067 H 373.447 -4.92507 2.78304 0
M  V30 4068 H 372.004 -5.47572 3.53565 0
M  V30 4069 N 375.437 -1.54477 -0.31217 0
M  V30 4070 C 376.367 -1.87652 -1.38957 0
M  V30 4071 C 377.348 -0.734358 -1.53431 0
M  V30 4072 O 378.533 -0.98911 -1.67123 0
M  V30 4073 C 375.663 -2.11396 -2.75552 0
M  V30 4074 C 374.617 -3.27243 -2.75855 0
M  V30 4075 C 373.943 -3.36382 -4.15633 0
M  V30 4076 C 375.243 -4.64622 -2.38587 0
M  V30 4077 H 376.937 -2.77887 -1.11442 0
M  V30 4078 H 374.483 -1.33707 -0.534655 0
M  V30 4079 H 376.436 -2.33189 -3.51 0
M  V30 4080 H 375.16 -1.17921 -3.04569 0
M  V30 4081 H 373.819 -3.05356 -2.02863 0
M  V30 4082 H 373.467 -2.40445 -4.41809 0
M  V30 4083 H 373.167 -4.14249 -4.1674 0
M  V30 4084 H 374.691 -3.60422 -4.92877 0
M  V30 4085 H 376.105 -4.86219 -3.03749 0
M  V30 4086 H 374.502 -5.45121 -2.50925 0
M  V30 4087 H 375.572 -4.66097 -1.33723 0
M  V30 4088 N 376.915 0.57481 -1.46744 0
M  V30 4089 C 378.163 1.33009 -1.52161 0
M  V30 4090 C 378.484 1.94185 -0.178092 0
M  V30 4091 O 377.754 1.7899 0.796196 0
M  V30 4092 H 376.334 0.493873 -0.560445 0
M  V30 4093 H 378.996 0.672589 -1.82927 0
M  V30 4094 H 378.092 2.13273 -2.27862 0
M  V30 4095 N 378.394 1.34581 0.820102 0
M  V30 4096 C 379.622 1.3018 1.60813 0
M  V30 4097 C 380.037 -0.123551 1.88395 0
M  V30 4098 O 379.394 -1.07148 1.47735 0
M  V30 4099 C 379.445 2.09312 2.94739 0
M  V30 4100 O 379.166 3.46288 2.68358 0
M  V30 4101 C 380.667 2.1234 3.89136 0
M  V30 4102 H 377.887 0.447726 0.499782 0
M  V30 4103 H 380.431 1.77237 1.02017 0
M  V30 4104 H 378.586 1.65889 3.50085 0
M  V30 4105 H 379 3.87227 3.53774 0
M  V30 4106 H 380.474 2.72126 4.80262 0
M  V30 4107 H 380.951 1.11854 4.24718 0
M  V30 4108 H 381.557 2.55864 3.39726 0
M  V30 4109 N 379.872 -1.04064 1.18357 0
M  V30 4110 C 381.149 -1.74252 0.888581 0
M  V30 4111 C 381.529 -2.02138 -0.60856 0
M  V30 4112 O 380.877 -1.66656 -1.56327 0
M  V30 4113 C 381.087 -3.0277 1.73584 0
M  V30 4114 C 382.435 -3.76506 1.96286 0
M  V30 4115 O 383.459 -3.12668 1.70637 0
M  V30 4116 O 382.318 -4.91243 2.39464 0
M  V30 4117 H 379.412 -0.758271 0.330082 0
M  V30 4118 H 381.958 -1.1013 1.2911 0
M  V30 4119 H 380.73 -2.78299 2.75073 0
M  V30 4120 H 380.353 -3.74631 1.33183 0
M  V30 4121 N 381.35 -0.985608 -1.22978 0
M  V30 4122 C 382.761 -0.693593 -1.73338 0
M  V30 4123 C 383.112 0.789935 -1.79595 0
M  V30 4124 O 382.237 1.61771 -1.43733 0
M  V30 4125 C 382.832 -1.25235 -3.14804 0
M  V30 4126 C 381.391 -1.00987 -3.626 0
M  V30 4127 C 380.538 -1.37695 -2.40698 0
M  V30 4128 H 383.489 -1.15884 -1.08428 0
M  V30 4129 H 383.51 -0.627329 -3.75293 0
M  V30 4130 H 383.022 -2.33209 -3.10218 0
M  V30 4131 H 381.123 0.0535565 -3.72562 0
M  V30 4132 H 381.236 -1.66812 -4.49122 0
M  V30 4133 H 379.6 -0.795459 -2.4196 0
M  V30 4134 H 380.383 -2.46657 -2.38779 0
M  V30 4135 N 382.828 1.3818 -0.7579 0
M  V30 4136 C 383.758 2.33027 -0.148597 0
M  V30 4137 C 384.739 1.55085 0.69875 0
M  V30 4138 O 385.924 1.83384 0.639053 0
M  V30 4139 C 383.054 3.3928 0.742034 0
M  V30 4140 C 382.008 4.28 -0.00291946 0
M  V30 4141 C 381.334 5.25146 1.00625 0
M  V30 4142 C 382.634 5.08938 -1.17385 0
M  V30 4143 H 384.328 2.84231 -0.940909 0
M  V30 4144 H 381.874 1.36659 -0.453908 0
M  V30 4145 H 383.827 4.046 1.17799 0
M  V30 4146 H 382.551 2.86569 1.56671 0
M  V30 4147 H 381.21 3.64192 -0.419504 0
M  V30 4148 H 380.858 4.68721 1.8251 0
M  V30 4149 H 380.558 5.85361 0.512428 0
M  V30 4150 H 382.082 5.93342 1.44143 0
M  V30 4151 H 383.496 5.67474 -0.815224 0
M  V30 4152 H 381.893 5.7841 -1.59882 0
M  V30 4153 H 382.963 4.42424 -1.98468 0
M  V30 4154 N 384.306 0.507319 1.49211 0
M  V30 4155 C 385.236 -0.256939 2.32082 0
M  V30 4156 C 386.217 -0.956609 1.40652 0
M  V30 4157 O 387.402 -0.946788 1.69557 0
M  V30 4158 C 384.532 -1.31802 3.21318 0
M  V30 4159 C 383.486 -0.737855 4.21592 0
M  V30 4160 C 382.812 -1.89992 4.99807 0
M  V30 4161 C 384.112 0.275325 5.21574 0
M  V30 4162 H 385.806 0.434798 2.96226 0
M  V30 4163 H 383.352 0.210546 1.42452 0
M  V30 4164 H 385.305 -1.86045 3.78107 0
M  V30 4165 H 384.029 -2.03903 2.5513 0
M  V30 4166 H 382.688 -0.217126 3.65956 0
M  V30 4167 H 382.336 -2.60877 4.30061 0
M  V30 4168 H 382.036 -1.51777 5.6766 0
M  V30 4169 H 383.56 -2.44657 5.59442 0
M  V30 4170 H 384.974 -0.179193 5.7302 0
M  V30 4171 H 383.371 0.573649 5.97352 0
M  V30 4172 H 384.441 1.18903 4.70096 0
M  V30 4173 N 385.784 -1.5574 0.241426 0
M  V30 4174 C 386.694 -2.2479 -0.671305 0
M  V30 4175 C 387.71 -1.26217 -1.19772 0
M  V30 4176 O 388.886 -1.59079 -1.23514 0
M  V30 4177 C 385.951 -2.92966 -1.85396 0
M  V30 4178 C 385.012 -4.06935 -1.36756 0
M  V30 4179 C 384.245 -4.71851 -2.49384 0
M  V30 4180 O 384.468 -4.35823 -3.67987 0
M  V30 4181 O 383.402 -5.60467 -2.19454 0
M  V30 4182 H 387.228 -3.0349 -0.112966 0
M  V30 4183 H 384.813 -1.49397 0.0101513 0
M  V30 4184 H 386.695 -3.35927 -2.54423 0
M  V30 4185 H 385.37 -2.17211 -2.40002 0
M  V30 4186 H 384.277 -3.68503 -0.644726 0
M  V30 4187 H 385.61 -4.84492 -0.867647 0
M  V30 4188 N 387.262 0.0317525 -1.57568 0
M  V30 4189 C 388.539 0.758366 -1.803 0
M  V30 4190 C 388.919 1.93718 -0.838845 0
M  V30 4191 O 388.267 2.28187 0.119571 0
M  V30 4192 C 388.477 1.19392 -3.27943 0
M  V30 4193 C 389.825 1.61094 -3.92854 0
M  V30 4194 O 390.849 1.28857 -3.32076 0
M  V30 4195 O 389.708 2.20918 -4.99858 0
M  V30 4196 H 386.802 0.366514 -0.741348 0
M  V30 4197 H 389.348 0.00873765 -1.69698 0
M  V30 4198 H 388.12 0.352275 -3.89711 0
M  V30 4199 H 387.743 2.00365 -3.43424 0
M  V30 4200 N 388.74 1.54641 0.303973 0
M  V30 4201 C 389.97 1.77511 1.05705 0
M  V30 4202 C 390.378 0.533228 1.81531 0
M  V30 4203 O 389.721 -0.506423 1.76582 0
M  V30 4204 C 389.783 2.92779 2.08617 0
M  V30 4205 C 389.447 4.30977 1.52013 0
M  V30 4206 C 390.444 5.11115 0.9517 0
M  V30 4207 C 388.129 4.77571 1.55665 0
M  V30 4208 C 390.123 6.35966 0.427327 0
M  V30 4209 C 387.81 6.02384 1.02841 0
M  V30 4210 C 388.808 6.81417 0.464713 0
M  V30 4211 O 388.496 8.03881 -0.0555283 0
M  V30 4212 H 388.228 0.59579 0.319391 0
M  V30 4213 H 390.782 2.02401 0.349712 0
M  V30 4214 H 389.012 2.63506 2.83022 0
M  V30 4215 H 390.701 3.03252 2.69802 0
M  V30 4216 H 391.467 4.76264 0.916407 0
M  V30 4217 H 387.346 4.16085 1.9848 0
M  V30 4218 H 390.89 6.97599 -0.0133062 0
M  V30 4219 H 386.787 6.36723 1.06084 0
M  V30 4220 H 387.555 8.18479 0.0580522 0
M  V30 4221 N 390.218 -0.567019 1.47046 0
M  V30 4222 C 391.148 -1.68482 1.61667 0
M  V30 4223 C 392.129 -1.6358 0.466418 0
M  V30 4224 O 393.314 -1.81354 0.694574 0
M  V30 4225 C 390.444 -3.07124 1.62148 0
M  V30 4226 C 389.398 -3.26867 2.76301 0
M  V30 4227 C 388.724 -4.66196 2.61849 0
M  V30 4228 C 390.024 -3.13186 4.17986 0
M  V30 4229 H 391.718 -1.56502 2.5524 0
M  V30 4230 H 389.264 -0.751486 1.22836 0
M  V30 4231 H 391.217 -3.8516 1.70968 0
M  V30 4232 H 389.941 -3.2004 0.651287 0
M  V30 4233 H 388.6 -2.51237 2.66975 0
M  V30 4234 H 388.248 -4.75898 1.62879 0
M  V30 4235 H 387.948 -4.80356 3.38425 0
M  V30 4236 H 389.472 -5.46379 2.72584 0
M  V30 4237 H 390.886 -3.81049 4.2834 0
M  V30 4238 H 389.283 -3.3886 4.95272 0
M  V30 4239 H 390.353 -2.10057 4.3704 0
M  V30 4240 N 391.696 -1.35014 -0.812953 0
M  V30 4241 C 392.921 -1.31187 -1.60639 0
M  V30 4242 C 393.346 0.109382 -1.87782 0
M  V30 4243 O 392.704 1.07424 -1.46047 0
M  V30 4244 C 392.752 -2.11809 -2.91838 0
M  V30 4245 O 391.856 -1.49444 -3.8437 0
M  V30 4246 H 391.197 -0.450084 -0.488181 0
M  V30 4247 H 393.727 -1.77963 -1.00947 0
M  V30 4248 H 393.737 -2.23531 -3.41318 0
M  V30 4249 H 392.412 -3.15137 -2.71407 0
M  V30 4250 H 390.989 -1.46524 -3.42907 0
M  V30 4251 N 393.175 1.03435 -1.18907 0
M  V30 4252 C 394.122 2.11591 -0.921837 0
M  V30 4253 C 395.092 1.65499 0.141226 0
M  V30 4254 O 396.277 1.908 0.000242829 0
M  V30 4255 C 393.417 3.42012 -0.460616 0
M  V30 4256 C 392.53 4.01682 -1.58982 0
M  V30 4257 C 391.665 5.20091 -1.08069 0
M  V30 4258 C 390.704 5.71805 -2.18416 0
M  V30 4259 N 389.841 6.81494 -1.68849 0
M  V30 4260 H 394.681 2.33787 -1.8479 0
M  V30 4261 H 392.218 1.1467 -0.921373 0
M  V30 4262 H 394.176 4.16834 -0.174642 0
M  V30 4263 H 392.806 3.19944 0.428467 0
M  V30 4264 H 391.858 3.24127 -1.99113 0
M  V30 4265 H 393.17 4.36084 -2.4214 0
M  V30 4266 H 392.324 6.02051 -0.749615 0
M  V30 4267 H 391.063 4.87209 -0.218771 0
M  V30 4268 H 390.068 4.88461 -2.5236 0
M  V30 4269 H 391.293 6.06728 -3.05054 0
M  V30 4270 H 389.239 6.50475 -0.849572 0
M  V30 4271 H 389.156 7.14994 -2.45601 0
M  V30 4272 H 390.424 7.67063 -1.38689 0
M  V30 4273 N 394.653 0.992116 1.22453 0
M  V30 4274 C 395.9 0.667534 1.91181 0
M  V30 4275 C 396.228 -0.800317 1.77271 0
M  V30 4276 O 395.483 -1.59421 1.13505 0
M  V30 4277 C 395.782 1.01832 3.42586 0
M  V30 4278 C 395.448 2.47831 3.76684 0
M  V30 4279 C 394.11 2.87729 3.85701 0
M  V30 4280 C 396.462 3.42466 3.92895 0
M  V30 4281 C 393.79 4.21252 4.08367 0
M  V30 4282 C 396.142 4.75648 4.17064 0
M  V30 4283 C 394.806 5.15288 4.24305 0
M  V30 4284 H 394.076 0.244268 0.699581 0
M  V30 4285 H 396.723 1.24816 1.45235 0
M  V30 4286 H 395.028 0.355769 3.90181 0
M  V30 4287 H 396.725 0.745228 3.94014 0
M  V30 4288 H 393.315 2.15905 3.70247 0
M  V30 4289 H 397.499 3.12814 3.85307 0
M  V30 4290 H 392.755 4.51554 4.122 0
M  V30 4291 H 396.929 5.48924 4.2855 0
M  V30 4292 H 394.556 6.18769 4.41621 0
M  V30 4293 N 396.131 -1.37776 0.765217 0
M  V30 4294 C 397.079 -2.32209 0.134798 0
M  V30 4295 C 398.073 -1.54607 -0.692315 0
M  V30 4296 O 399.279 -1.70052 -0.590109 0
M  V30 4297 H 395.654 -0.751591 0.0248005 0
M  V30 4298 H 397.625 -2.8297 0.947119 0
M  V30 4299 C 396.374 -3.39841 -0.735063 0
M  V30 4300 H 395.697 -3.99654 -0.107991 0
M  V30 4301 H 397.137 -4.08296 -1.14326 0
M  V30 4302 C 395.596 -2.79378 -1.88281 0
M  V30 4303 O 396.126 -2.69608 -2.97783 0
M  V30 4304 N 394.332 -2.37016 -1.68142 0
M  V30 4305 H 393.879 -2.45162 -0.790772 0
M  V30 4306 H 393.837 -1.96905 -2.45104 0
M  V30 4307 N 397.609 -0.515225 -1.4894 0
M  V30 4308 C 398.539 0.244628 -2.32215 0
M  V30 4309 C 399.52 0.949136 -1.41157 0
M  V30 4310 O 400.705 0.937783 -1.70057 0
M  V30 4311 C 397.835 1.30096 -3.22013 0
M  V30 4312 C 396.789 0.715486 -4.21977 0
M  V30 4313 C 396.115 1.87339 -5.00808 0
M  V30 4314 C 397.415 -0.302982 -5.2142 0
M  V30 4315 H 399.109 -0.450501 -2.95991 0
M  V30 4316 H 396.655 -0.218098 -1.42339 0
M  V30 4317 H 398.608 1.84037 -3.79089 0
M  V30 4318 H 397.332 2.02547 -2.56207 0
M  V30 4319 H 395.991 0.197715 -3.66066 0
M  V30 4320 H 395.639 2.58592 -4.31438 0
M  V30 4321 H 395.339 1.48764 -5.68457 0
M  V30 4322 H 396.863 2.41686 -5.60732 0
M  V30 4323 H 398.277 0.148802 -5.73107 0
M  V30 4324 H 396.674 -0.60532 -5.97039 0
M  V30 4325 H 397.744 -1.21395 -4.69459 0
M  V30 4326 N 399.087 1.5561 -0.249682 0
M  V30 4327 C 400.312 2.03865 0.381305 0
M  V30 4328 C 400.737 1.12769 1.50548 0
M  V30 4329 O 400.095 0.121189 1.80895 0
M  V30 4330 C 400.143 3.50101 0.863816 0
M  V30 4331 O 399.247 3.62132 1.97318 0
M  V30 4332 H 398.588 0.658827 0.0827194 0
M  V30 4333 H 401.118 2.01105 -0.376552 0
M  V30 4334 H 401.128 3.90975 1.1663 0
M  V30 4335 H 399.803 4.1588 0.0411816 0
M  V30 4336 H 398.38 3.33155 1.67517 0
M  V30 4337 N 400.565 -0.0233959 1.57583 0
M  V30 4338 C 401.513 -1.04063 2.08023 0
M  V30 4339 C 402.507 -1.37084 0.995204 0
M  V30 4340 O 403.713 -1.35923 1.18004 0
M  V30 4341 H 400.088 -0.353144 0.663922 0
M  V30 4342 H 402.059 -0.589453 2.9252 0
M  V30 4343 C 400.808 -2.33123 2.57971 0
M  V30 4344 H 400.131 -2.08577 3.4108 0
M  V30 4345 H 401.571 -3.02632 2.96967 0
M  V30 4346 C 400.03 -3.02483 1.48342 0
M  V30 4347 O 400.56 -3.92541 0.852898 0
M  V30 4348 N 398.766 -2.63909 1.21658 0
M  V30 4349 H 398.313 -1.90758 1.73116 0
M  V30 4350 H 398.271 -3.10633 0.485218 0
M  V30 4351 N 402.043 -1.548 -0.295768 0
M  V30 4352 C 403.289 -1.74588 -1.03184 0
M  V30 4353 C 403.622 -0.532962 -1.86744 0
M  V30 4354 O 402.897 0.469872 -1.88739 0
M  V30 4355 C 403.18 -3.03791 -1.93347 0
M  V30 4356 C 403.033 -4.35392 -1.12933 0
M  V30 4357 C 404.352 -3.28892 -2.92435 0
M  V30 4358 H 401.471 -0.635221 -0.373715 0
M  V30 4359 H 404.113 -1.87519 -0.30606 0
M  V30 4360 H 402.263 -2.92898 -2.55232 0
M  V30 4361 H 403.935 -4.58211 -0.532943 0
M  V30 4362 H 402.178 -4.31642 -0.432168 0
M  V30 4363 H 402.849 -5.22074 -1.79284 0
M  V30 4364 H 405.325 -3.39429 -2.4068 0
M  V30 4365 H 404.201 -4.20603 -3.52682 0
M  V30 4366 H 404.462 -2.47437 -3.6637 0
M  V30 4367 N 403.521 0.559213 -1.47345 0
M  V30 4368 C 404.484 1.64854 -1.59235 0
M  V30 4369 C 405.484 1.53851 -0.467607 0
M  V30 4370 O 406.674 1.58045 -0.732617 0
M  V30 4371 C 403.806 3.04388 -1.53496 0
M  V30 4372 H 404.999 1.55662 -2.56339 0
M  V30 4373 H 402.552 0.778973 -1.35505 0
M  V30 4374 H 403.287 3.19115 -0.577604 0
M  V30 4375 H 403.072 3.13783 -2.35123 0
M  V30 4376 H 404.562 3.83642 -1.6495 0
M  V30 4377 N 404.999 1.35443 0.805782 0
M  V30 4378 C 406.246 1.28761 1.56291 0
M  V30 4379 C 406.574 -0.137747 1.94012 0
M  V30 4380 O 405.829 -1.1032 1.61642 0
M  V30 4381 C 406.128 2.14045 2.86216 0
M  V30 4382 C 405.794 3.62826 2.67709 0
M  V30 4383 C 404.456 4.0338 2.6237 0
M  V30 4384 C 406.808 4.57227 2.50186 0
M  V30 4385 C 404.136 5.36501 2.37451 0
M  V30 4386 C 406.488 5.90547 2.26797 0
M  V30 4387 C 405.152 6.30245 2.1988 0
M  V30 4388 H 404.422 0.471171 0.571908 0
M  V30 4389 H 407.069 1.67347 0.930974 0
M  V30 4390 H 405.374 1.68342 3.53791 0
M  V30 4391 H 407.071 2.0621 3.43917 0
M  V30 4392 H 403.661 3.30644 2.72713 0
M  V30 4393 H 407.845 4.2678 2.53323 0
M  V30 4394 H 403.101 5.66259 2.30567 0
M  V30 4395 H 407.275 6.63274 2.12228 0
M  V30 4396 H 404.902 7.33328 2.00333 0
M  V30 4397 N 406.477 -1.02803 1.19454 0
M  V30 4398 C 407.407 -2.12999 0.956758 0
M  V30 4399 C 408.388 -1.69743 -0.110188 0
M  V30 4400 O 409.573 -1.94148 0.0450038 0
M  V30 4401 C 406.703 -3.43746 0.495553 0
M  V30 4402 C 405.657 -4.00688 1.50443 0
M  V30 4403 C 404.983 -5.27067 0.900275 0
M  V30 4404 C 406.283 -4.35397 2.8849 0
M  V30 4405 H 407.977 -2.33148 1.87836 0
M  V30 4406 H 405.523 -1.12045 0.904539 0
M  V30 4407 H 407.476 -4.2021 0.316493 0
M  V30 4408 H 406.2 -3.23321 -0.461646 0
M  V30 4409 H 404.859 -3.2632 1.67065 0
M  V30 4410 H 404.507 -5.02959 -0.064503 0
M  V30 4411 H 404.207 -5.66127 1.57397 0
M  V30 4412 H 405.731 -6.06196 0.73203 0
M  V30 4413 H 407.145 -5.02795 2.75446 0
M  V30 4414 H 405.542 -4.85541 3.52661 0
M  V30 4415 H 406.612 -3.44662 3.41081 0
M  V30 4416 N 407.956 -0.998596 -1.21925 0
M  V30 4417 C 408.903 -0.553621 -2.24062 0
M  V30 4418 C 409.873 0.416999 -1.6078 0
M  V30 4419 O 411.058 0.320482 -1.88089 0
M  V30 4420 C 408.198 0.119959 -3.44891 0
M  V30 4421 C 407.311 -0.893077 -4.22668 0
M  V30 4422 C 406.446 -0.192424 -5.30851 0
M  V30 4423 C 405.485 -1.19344 -6.00353 0
M  V30 4424 N 404.622 -0.520707 -7.00166 0
M  V30 4425 H 409.462 -1.4293 -2.61486 0
M  V30 4426 H 406.999 -0.715838 -1.28507 0
M  V30 4427 H 408.957 0.527459 -4.13852 0
M  V30 4428 H 407.587 0.959389 -3.08214 0
M  V30 4429 H 406.639 -1.41886 -3.52948 0
M  V30 4430 H 407.951 -1.65512 -4.70539 0
M  V30 4431 H 407.105 0.271515 -6.06092 0
M  V30 4432 H 405.844 0.602075 -4.83969 0
M  V30 4433 H 404.849 -1.66795 -5.23889 0
M  V30 4434 H 406.074 -1.98891 -6.49322 0
M  V30 4435 H 404.02 0.254252 -6.55507 0
M  V30 4436 H 403.937 -1.2211 -7.46073 0
M  V30 4437 H 405.205 -0.0797596 -7.79459 0
M  V30 4438 N 409.434 1.37368 -0.772513 0
M  V30 4439 C 410.397 2.28601 -0.165541 0
M  V30 4440 C 411.397 1.48062 0.627238 0
M  V30 4441 O 412.587 1.68268 0.450715 0
M  V30 4442 C 409.719 3.32023 0.772897 0
M  V30 4443 H 410.912 2.83787 -0.969787 0
M  V30 4444 H 408.465 1.46647 -0.540775 0
M  V30 4445 H 409.2 2.81962 1.60212 0
M  V30 4446 H 408.985 3.91555 0.206585 0
M  V30 4447 H 410.475 4.00197 1.19298 0
M  V30 4448 N 410.912 0.523116 1.48665 0
M  V30 4449 C 412.159 -0.0134763 2.02496 0
M  V30 4450 C 412.487 -1.3493 1.40086 0
M  V30 4451 O 411.742 -1.88286 0.533567 0
M  V30 4452 C 412.041 -0.191671 3.56886 0
M  V30 4453 C 411.707 1.06893 4.38046 0
M  V30 4454 C 410.369 1.41443 4.59943 0
M  V30 4455 C 412.721 1.90584 4.85106 0
M  V30 4456 C 410.049 2.59594 5.26144 0
M  V30 4457 C 412.401 3.07907 5.52609 0
M  V30 4458 C 411.065 3.42811 5.72745 0
M  V30 4459 H 410.335 -0.00493133 0.740984 0
M  V30 4460 H 412.982 0.687751 1.78724 0
M  V30 4461 H 411.287 -0.97561 3.79459 0
M  V30 4462 H 412.984 -0.621659 3.96152 0
M  V30 4463 H 409.574 0.789848 4.21259 0
M  V30 4464 H 413.758 1.65203 4.67997 0
M  V30 4465 H 409.014 2.86847 5.39934 0
M  V30 4466 H 413.188 3.73066 5.88043 0
M  V30 4467 H 410.815 4.34462 6.23816 0
M  V30 4468 N 412.39 -1.55475 0.257931 0
M  V30 4469 C 413.338 -2.23244 -0.653076 0
M  V30 4470 C 414.332 -1.22366 -1.17144 0
M  V30 4471 O 415.538 -1.40347 -1.12706 0
M  V30 4472 H 411.913 -0.716247 -0.229117 0
M  V30 4473 H 413.884 -2.98343 -0.0584788 0
M  V30 4474 C 412.633 -2.95401 -1.83395 0
M  V30 4475 H 411.956 -3.72802 -1.44424 0
M  V30 4476 H 413.396 -3.46165 -2.44838 0
M  V30 4477 C 411.855 -1.99895 -2.71189 0
M  V30 4478 O 412.385 -1.53909 -3.71046 0
M  V30 4479 N 410.591 -1.6676 -2.3799 0
M  V30 4480 H 410.138 -2.04352 -1.56837 0
M  V30 4481 H 410.096 -1.03127 -2.97005 0
M  V30 4482 N 413.868 0.0150385 -1.57593 0
M  V30 4483 C 415.117 0.702115 -1.89085 0
M  V30 4484 C 415.43 1.75764 -0.858277 0
M  V30 4485 O 416.636 2.49829 -1.0629 0
M  V30 4486 C 415.092 1.29992 -3.35604 0
M  V30 4487 C 414.7 0.280007 -4.47124 0
M  V30 4488 C 416.444 1.96606 -3.76227 0
M  V30 4489 C 414.351 0.886949 -5.84711 0
M  V30 4490 H 413.281 0.265997 -0.705522 0
M  V30 4491 H 415.932 -0.0430408 -1.8345 0
M  V30 4492 H 414.314 2.09525 -3.36029 0
M  V30 4493 H 415.488 -0.489631 -4.58191 0
M  V30 4494 H 413.803 -0.284835 -4.15425 0
M  V30 4495 H 416.4 2.42893 -4.76347 0
M  V30 4496 H 416.743 2.79024 -3.08952 0
M  V30 4497 H 417.276 1.23828 -3.78036 0
M  V30 4498 H 414.015 0.101876 -6.55421 0
M  V30 4499 H 413.535 1.6261 -5.77337 0
M  V30 4500 H 415.214 1.39011 -6.3189 0
M  V30 4501 N 415.346 1.54954 0.287554 0
M  V30 4502 C 416.592 1.75132 1.02257 0
M  V30 4503 C 416.925 0.542858 1.86458 0
M  V30 4504 O 416.2 -0.459856 1.88986 0
M  V30 4505 C 416.483 3.04812 1.91733 0
M  V30 4506 C 416.336 4.35985 1.10622 0
M  V30 4507 C 417.655 3.30438 2.90687 0
M  V30 4508 H 414.774 0.637194 0.370341 0
M  V30 4509 H 417.416 1.87678 0.296111 0
M  V30 4510 H 415.566 2.94247 2.53675 0
M  V30 4511 H 417.238 4.58487 0.508636 0
M  V30 4512 H 415.481 4.31865 0.409271 0
M  V30 4513 H 416.152 5.23017 1.76513 0
M  V30 4514 H 418.628 3.40701 2.38877 0
M  V30 4515 H 417.504 4.22467 3.50447 0
M  V30 4516 H 417.765 2.49377 3.65053 0
M  V30 4517 N 416.824 -0.551391 1.4764 0
M  V30 4518 C 418.24 -0.877887 1.33287 0
M  V30 4519 C 418.44 -1.98817 0.327721 0
M  V30 4520 O 417.496 -2.51171 -0.258695 0
M  V30 4521 C 418.809 -1.26563 2.72768 0
M  V30 4522 C 420.357 -1.37673 2.81097 0
M  V30 4523 C 420.832 -1.79799 4.21232 0
M  V30 4524 N 422.323 -1.8694 4.23802 0
M  V30 4525 C 423.058 -2.20876 5.29151 0
M  V30 4526 N 422.554 -2.53386 6.448 0
M  V30 4527 N 424.347 -2.217 5.16532 0
M  V30 4528 H 416.498 0.18153 2.11623 0
M  V30 4529 H 418.761 0.0185514 0.947818 0
M  V30 4530 H 418.467 -0.523591 3.47781 0
M  V30 4531 H 418.341 -2.22052 3.04915 0
M  V30 4532 H 420.728 -2.10956 2.06353 0
M  V30 4533 H 420.809 -0.40357 2.52596 0
M  V30 4534 H 420.453 -1.07083 4.96483 0
M  V30 4535 H 420.383 -2.78128 4.4716 0
M  V30 4536 H 422.874 -1.64179 3.40373 0
M  V30 4537 H 423.187 -2.78325 7.20941 0
M  V30 4538 H 421.532 -2.50953 6.48111 0
M  V30 4539 H 424.723 -1.95745 4.25207 0
M  V30 4540 H 424.896 -2.47818 5.98741 0
M  V30 4541 N 418.302 -1.35869 -0.798587 0
M  V30 4542 C 419.212 -1.31578 -1.94228 0
M  V30 4543 C 420.228 -0.21939 -1.72611 0
M  V30 4544 O 421.404 -0.450167 -1.96305 0
M  V30 4545 C 418.469 -1.09528 -3.28944 0
M  V30 4546 C 417.53 -2.28556 -3.63402 0
M  V30 4547 C 416.763 -2.07549 -4.9169 0
M  V30 4548 O 416.986 -1.046 -5.60727 0
M  V30 4549 O 415.92 -2.95106 -5.24591 0
M  V30 4550 H 419.746 -2.27847 -2.00796 0
M  V30 4551 H 417.331 -1.16322 -0.937526 0
M  V30 4552 H 419.213 -0.991127 -4.09579 0
M  V30 4553 H 417.888 -0.16315 -3.23289 0
M  V30 4554 H 416.795 -2.44538 -2.83112 0
M  V30 4555 H 418.128 -3.20244 -3.73771 0
M  V30 4556 N 419.78 1.02168 -1.19998 0
M  V30 4557 C 421.026 1.75945 -1.00852 0
M  V30 4558 C 421.359 1.88702 0.458828 0
M  V30 4559 O 420.634 1.40911 1.34069 0
M  V30 4560 C 420.917 3.18154 -1.68671 0
M  V30 4561 C 420.77 3.13224 -3.22817 0
M  V30 4562 C 422.089 4.16711 -1.41561 0
M  V30 4563 H 419.208 0.638673 -0.367785 0
M  V30 4564 H 421.85 1.19222 -1.4794 0
M  V30 4565 H 420 3.66586 -1.28636 0
M  V30 4566 H 421.672 2.72635 -3.72112 0
M  V30 4567 H 419.915 2.50751 -3.53986 0
M  V30 4568 H 420.586 4.13728 -3.65422 0
M  V30 4569 H 423.062 3.76913 -1.76284 0
M  V30 4570 H 421.938 5.14391 -1.91553 0
M  V30 4571 H 422.199 4.40774 -0.342193 0
M  V30 4572 N 421.258 1.00505 1.21394 0
M  V30 4573 C 422.505 0.687774 1.90462 0
M  V30 4574 C 422.833 -0.78147 1.7811 0
M  V30 4575 O 422.088 -1.58208 1.1519 0
M  V30 4576 C 422.387 1.0546 3.41486 0
M  V30 4577 C 422.053 2.51812 3.74034 0
M  V30 4578 C 420.715 2.91804 3.82628 0
M  V30 4579 C 423.067 3.46614 3.8924 0
M  V30 4580 C 420.395 4.2556 4.03876 0
M  V30 4581 C 422.747 4.80044 4.11995 0
M  V30 4582 C 421.411 5.19759 4.18816 0
M  V30 4583 H 420.681 0.251674 0.696951 0
M  V30 4584 H 423.328 1.26349 1.43903 0
M  V30 4585 H 421.633 0.397133 3.89782 0
M  V30 4586 H 423.33 0.786976 3.93202 0
M  V30 4587 H 419.92 2.1982 3.67936 0
M  V30 4588 H 424.104 3.16883 3.81967 0
M  V30 4589 H 419.36 4.55901 4.07387 0
M  V30 4590 H 423.534 5.53439 4.22704 0
M  V30 4591 H 421.161 6.23418 4.35033 0
M  V30 4592 N 422.737 -1.36956 0.779787 0
M  V30 4593 C 423.985 -1.99097 0.347079 0
M  V30 4594 C 424.306 -1.62206 -1.08232 0
M  V30 4595 O 423.576 -0.891373 -1.74446 0
M  V30 4596 H 422.156 -0.736409 0.125342 0
M  V30 4597 H 424.818 -1.67308 0.999696 0
M  V30 4598 H 423.914 -3.09107 0.431162 0
M  V30 4599 N 424.215 -0.530993 -1.48385 0
M  V30 4600 C 425.125 0.23503 -2.3342 0
M  V30 4601 C 426.141 0.93801 -1.46552 0
M  V30 4602 O 427.317 0.912745 -1.7953 0
M  V30 4603 C 424.382 1.26778 -3.22689 0
M  V30 4604 C 423.443 0.575038 -4.25431 0
M  V30 4605 C 422.676 1.55858 -5.10435 0
M  V30 4606 O 422.899 2.79129 -4.97437 0
M  V30 4607 O 421.833 1.09742 -5.91811 0
M  V30 4608 H 425.659 -0.461794 -3.00169 0
M  V30 4609 H 423.244 -0.291903 -1.46521 0
M  V30 4610 H 425.126 1.86457 -3.77904 0
M  V30 4611 H 423.801 1.94699 -2.586 0
M  V30 4612 H 422.708 -0.0622782 -3.74048 0
M  V30 4613 H 424.041 -0.062253 -4.92161 0
M  V30 4614 N 425.693 1.55336 -0.266172 0
M  V30 4615 C 426.941 1.99003 0.35246 0
M  V30 4616 C 427.262 1.15591 1.57047 0
M  V30 4617 O 426.532 0.243268 1.94384 0
M  V30 4618 H 425.112 0.735025 0.133217 0
M  V30 4619 H 427.774 1.91367 -0.369434 0
M  V30 4620 H 426.87 3.05289 0.648453 0
M  V30 4621 N 427.171 -0.0066808 1.57599 0
M  V30 4622 C 428.417 -0.693947 1.90558 0
M  V30 4623 C 428.75 -1.73792 0.866594 0
M  V30 4624 O 428.025 -1.94156 -0.115548 0
M  V30 4625 C 428.308 -1.34317 3.34112 0
M  V30 4626 C 428.161 -0.311189 4.48722 0
M  V30 4627 C 429.48 -2.27116 3.7697 0
M  V30 4628 H 426.599 -0.250803 0.693013 0
M  V30 4629 H 429.241 0.043242 1.89951 0
M  V30 4630 H 427.391 -1.9715 3.3476 0
M  V30 4631 H 429.063 0.316944 4.6021 0
M  V30 4632 H 427.306 0.367253 4.32243 0
M  V30 4633 H 427.977 -0.804366 5.46108 0
M  V30 4634 H 430.453 -1.74306 3.77831 0
M  V30 4635 H 429.329 -2.69511 4.78179 0
M  V30 4636 H 429.59 -3.14743 3.10466 0
M  V30 4637 N 428.649 -1.55105 -0.279332 0
M  V30 4638 C 429.879 -1.7917 -1.02867 0
M  V30 4639 C 430.287 -0.56204 -1.80659 0
M  V30 4640 O 429.63 0.478266 -1.77365 0
M  V30 4641 C 429.692 -2.96061 -2.03932 0
M  V30 4642 C 429.356 -4.33341 -1.45137 0
M  V30 4643 C 430.353 -5.12565 -0.870266 0
M  V30 4644 C 428.038 -4.79987 -1.48048 0
M  V30 4645 C 430.032 -6.36565 -0.326097 0
M  V30 4646 C 427.719 -6.03944 -0.932443 0
M  V30 4647 C 428.717 -6.8207 -0.356247 0
M  V30 4648 O 428.405 -8.03691 0.183412 0
M  V30 4649 H 428.137 -0.600796 -0.309872 0
M  V30 4650 H 430.691 -2.02932 -0.317468 0
M  V30 4651 H 428.921 -2.67975 -2.78794 0
M  V30 4652 H 430.61 -3.07506 -2.64943 0
M  V30 4653 H 431.376 -4.77661 -0.840521 0
M  V30 4654 H 427.255 -4.1919 -1.91835 0
M  V30 4655 H 430.799 -6.97489 0.124286 0
M  V30 4656 H 426.696 -6.3833 -0.959407 0
M  V30 4657 H 427.464 -8.18468 0.0721681 0
M  V30 4658 N 430.127 0.543554 -1.4793 0
M  V30 4659 C 431.057 1.65888 -1.64327 0
M  V30 4660 C 432.038 1.62818 -0.492383 0
M  V30 4661 O 433.223 1.80226 -0.723338 0
M  V30 4662 C 430.353 3.04506 -1.67013 0
M  V30 4663 C 429.307 3.2243 -2.81466 0
M  V30 4664 C 428.633 4.61972 -2.69233 0
M  V30 4665 C 429.933 3.06496 -4.22915 0
M  V30 4666 H 431.627 1.52421 -2.57698 0
M  V30 4667 H 429.173 0.731849 -1.24016 0
M  V30 4668 H 431.126 3.82391 -1.77074 0
M  V30 4669 H 429.85 3.18964 -0.70212 0
M  V30 4670 H 428.509 2.46957 -2.70938 0
M  V30 4671 H 428.157 4.73247 -1.7043 0
M  V30 4672 H 427.857 4.74911 -3.46025 0
M  V30 4673 H 429.381 5.41974 -2.81242 0
M  V30 4674 H 430.795 3.74186 -4.34348 0
M  V30 4675 H 429.192 3.30938 -5.006 0
M  V30 4676 H 430.262 2.03077 -4.40327 0
M  V30 4677 N 431.605 1.3629 0.791371 0
M  V30 4678 C 432.853 1.30154 1.5461 0
M  V30 4679 C 433.174 -0.119409 1.94634 0
M  V30 4680 O 432.444 -1.05924 1.64794 0
M  V30 4681 H 431.024 0.478784 0.573389 0
M  V30 4682 H 433.686 1.70565 0.94306 0
M  V30 4683 H 432.782 1.92762 2.45457 0
M  V30 4684 N 433.083 -1.0153 1.20538 0
M  V30 4685 C 434.331 -1.74803 1.01432 0
M  V30 4686 C 434.652 -1.8963 -0.454456 0
M  V30 4687 O 433.922 -1.43975 -1.32846 0
M  V30 4688 H 432.502 -0.647598 0.372324 0
M  V30 4689 H 435.164 -1.22402 1.5167 0
M  V30 4690 H 434.26 -2.75114 1.47373 0
M  V30 4691 N 434.561 -1.01147 -1.20859 0
M  V30 4692 C 435.809 -0.696486 -1.89719 0
M  V30 4693 C 436.13 0.775788 -1.78904 0
M  V30 4694 O 435.4 1.55759 -1.18811 0
M  V30 4695 H 433.98 -0.254628 -0.702263 0
M  V30 4696 H 436.642 -1.28197 -1.46804 0
M  V30 4697 H 435.738 -0.975357 -2.96468 0
M  V30 4698 N 436.039 1.36541 -0.78704 0
M  V30 4699 C 437.287 1.98911 -0.357633 0
M  V30 4700 C 437.608 1.62778 1.07371 0
M  V30 4701 O 436.878 0.900612 1.73971 0
M  V30 4702 H 435.458 0.735734 -0.129246 0
M  V30 4703 H 438.12 1.66776 -1.00855 0
M  V30 4704 H 437.216 3.08874 -0.447549 0
M  V30 4705 N 437.518 0.538854 1.48102 0
M  V30 4706 C 438.748 0.0122958 2.06596 0
M  V30 4707 C 439.156 -1.27861 1.39457 0
M  V30 4708 O 438.499 -1.77348 0.478907 0
M  V30 4709 C 438.561 -0.273131 3.58461 0
M  V30 4710 C 438.225 0.92561 4.47528 0
M  V30 4711 C 439.222 1.82637 4.86765 0
M  V30 4712 C 436.907 1.13511 4.89306 0
M  V30 4713 C 438.901 2.92047 5.66558 0
M  V30 4714 C 436.588 2.23233 5.68868 0
M  V30 4715 C 437.586 3.12333 6.07402 0
M  V30 4716 O 437.274 4.20155 6.85365 0
M  V30 4717 H 437.006 0.0344283 0.675123 0
M  V30 4718 H 439.56 0.746494 1.91355 0
M  V30 4719 H 437.79 -1.06141 3.71848 0
M  V30 4720 H 439.479 -0.742842 3.99045 0
M  V30 4721 H 440.245 1.67649 4.55103 0
M  V30 4722 H 436.124 0.450835 4.5879 0
M  V30 4723 H 439.668 3.6162 5.96554 0
M  V30 4724 H 435.565 2.38201 5.99942 0
M  V30 4725 H 436.333 4.17975 7.03732 0
M  V30 4726 N 438.996 -1.55193 0.274407 0
M  V30 4727 C 439.946 -2.19184 -0.627882 0
M  V30 4728 C 440.93 -1.15625 -1.11892 0
M  V30 4729 O 442.122 -1.41441 -1.06411 0
M  V30 4730 C 439.251 -2.91591 -1.81189 0
M  V30 4731 C 438.337 -4.02438 -1.33807 0
M  V30 4732 N 438.728 -5.0246 -0.580349 0
M  V30 4733 C 437.026 -4.15496 -1.62109 0
M  V30 4734 C 437.727 -5.80756 -0.331344 0
M  V30 4735 N 436.703 -5.36038 -0.903556 0
M  V30 4736 H 440.505 -2.93871 -0.0411216 0
M  V30 4737 H 438.019 -1.62213 0.0779348 0
M  V30 4738 H 440.016 -3.35883 -2.46957 0
M  V30 4739 H 438.676 -2.18414 -2.40261 0
M  V30 4740 H 439.687 -5.17399 -0.227762 0
M  V30 4741 H 436.364 -3.53509 -2.22121 0
M  V30 4742 H 437.754 -6.71335 0.275454 0
M  V30 4743 N 440.474 -0.00167713 -1.576 0
M  V30 4744 C 441.885 0.54091 -1.78693 0
M  V30 4745 C 442.236 1.7386 -0.909247 0
M  V30 4746 O 441.361 2.16109 -0.112176 0
M  V30 4747 C 441.956 0.98806 -3.24072 0
M  V30 4748 C 440.515 1.47594 -3.46256 0
M  V30 4749 C 439.662 0.42792 -2.73978 0
M  V30 4750 H 442.613 -0.22784 -1.57056 0
M  V30 4751 H 442.634 1.85398 -3.32277 0
M  V30 4752 H 442.146 0.116164 -3.87926 0
M  V30 4753 H 440.247 2.36868 -2.87618 0
M  V30 4754 H 440.36 1.50225 -4.54939 0
M  V30 4755 H 438.724 0.889934 -2.38647 0
M  V30 4756 H 439.507 -0.435038 -3.40532 0
M  V30 4757 N 441.952 1.55251 0.271103 0
M  V30 4758 C 443.182 1.79713 1.01916 0
M  V30 4759 C 443.59 0.571613 1.80359 0
M  V30 4760 O 442.933 -0.468853 1.77616 0
M  V30 4761 C 442.995 2.97138 2.02359 0
M  V30 4762 C 442.659 4.34104 1.42837 0
M  V30 4763 C 443.656 5.13019 0.843071 0
M  V30 4764 C 441.341 4.80765 1.455 0
M  V30 4765 C 443.335 6.36729 0.292333 0
M  V30 4766 C 441.022 6.0443 0.900402 0
M  V30 4767 C 442.02 6.8225 0.32007 0
M  V30 4768 O 441.708 8.03582 -0.226031 0
M  V30 4769 H 441.44 0.602431 0.306681 0
M  V30 4770 H 443.994 2.03097 0.306701 0
M  V30 4771 H 442.224 2.6945 2.77369 0
M  V30 4772 H 443.913 3.08907 2.63309 0
M  V30 4773 H 444.679 4.781 0.815178 0
M  V30 4774 H 440.558 4.20202 1.89609 0
M  V30 4775 H 444.102 6.97414 -0.161274 0
M  V30 4776 H 439.999 6.3883 0.925541 0
M  V30 4777 H 440.767 8.18418 -0.115572 0
M  V30 4778 N 443.43 -0.535701 1.48216 0
M  V30 4779 C 444.393 -1.623 1.61838 0
M  V30 4780 C 445.393 -1.53087 0.492024 0
M  V30 4781 O 446.583 -1.5686 0.757668 0
M  V30 4782 C 443.715 -3.01907 1.58319 0
M  V30 4783 H 444.908 -1.51564 2.58783 0
M  V30 4784 H 442.461 -0.757317 1.36727 0
M  V30 4785 H 443.196 -3.18155 0.628299 0
M  V30 4786 H 442.981 -3.10003 2.40085 0
M  V30 4787 H 444.471 -3.80969 1.71033 0
M  V30 4788 N 444.908 -1.36708 -0.784132 0
M  V30 4789 C 445.838 -1.34153 -1.91116 0
M  V30 4790 C 446.819 -0.212121 -1.68772 0
M  V30 4791 O 448.004 -0.410581 -1.8981 0
M  V30 4792 C 445.134 -1.13535 -3.28218 0
M  V30 4793 C 444.088 -2.23356 -3.65097 0
M  V30 4794 C 443.414 -1.87875 -5.00607 0
M  V30 4795 C 444.714 -3.65473 -3.73131 0
M  V30 4796 H 446.408 -2.28459 -1.93512 0
M  V30 4797 H 443.954 -1.09973 -0.929618 0
M  V30 4798 H 445.907 -1.10381 -4.06687 0
M  V30 4799 H 444.631 -0.156804 -3.26223 0
M  V30 4800 H 443.29 -2.25645 -2.88929 0
M  V30 4801 H 442.938 -0.885814 -4.95139 0
M  V30 4802 H 442.638 -2.61406 -5.26252 0
M  V30 4803 H 444.162 -1.86286 -5.81489 0
M  V30 4804 H 445.576 -3.65382 -4.41779 0
M  V30 4805 H 443.973 -4.37953 -4.10265 0
M  V30 4806 H 445.043 -3.99995 -2.74102 0
M  V30 4807 N 446.386 1.0089 -1.21074 0
M  V30 4808 C 447.349 2.0775 -0.968129 0
M  V30 4809 C 448.349 1.6069 0.0593445 0
M  V30 4810 O 449.539 1.73293 -0.177525 0
M  V30 4811 C 446.671 3.37794 -0.459108 0
M  V30 4812 H 447.864 2.30707 -1.9161 0
M  V30 4813 H 445.417 1.17807 -1.02719 0
M  V30 4814 H 446.152 3.20516 0.49397 0
M  V30 4815 H 445.937 3.7328 -1.20019 0
M  V30 4816 H 447.427 4.16454 -0.309099 0
M  V30 4817 N 447.864 1.01787 1.20321 0
M  V30 4818 C 449.28 0.732951 1.41774 0
M  V30 4819 C 449.48 -0.686883 1.89431 0
M  V30 4820 O 448.536 -1.45446 2.06402 0
M  V30 4821 C 449.849 1.75973 2.43832 0
M  V30 4822 C 451.397 1.77802 2.57596 0
M  V30 4823 C 451.872 2.7941 3.62897 0
M  V30 4824 N 453.363 2.78157 3.70382 0
M  V30 4825 C 454.098 3.53434 4.51521 0
M  V30 4826 N 453.594 4.38392 5.36455 0
M  V30 4827 N 455.387 3.42026 4.46066 0
M  V30 4828 H 447.538 1.93447 0.877035 0
M  V30 4829 H 449.801 0.835712 0.447536 0
M  V30 4830 H 449.507 2.77699 2.15815 0
M  V30 4831 H 449.381 1.57292 3.4284 0
M  V30 4832 H 451.768 0.767602 2.84942 0
M  V30 4833 H 451.849 2.00557 1.58779 0
M  V30 4834 H 451.493 3.80616 3.36295 0
M  V30 4835 H 451.423 2.53916 4.61339 0
M  V30 4836 H 453.914 2.16531 3.09714 0
M  V30 4837 H 454.227 4.92596 5.95457 0
M  V30 4838 H 452.572 4.4247 5.35953 0
M  V30 4839 H 455.763 2.75075 3.78749 0
M  V30 4840 H 455.936 4.00946 5.09064 0
M  V30 4841 N 449.342 -1.36122 0.79427 0
M  V30 4842 C 450.305 -2.28309 0.201889 0
M  V30 4843 C 451.305 -1.49041 -0.603603 0
M  V30 4844 O 452.495 -1.68964 -0.423888 0
M  V30 4845 C 449.627 -3.3321 -0.719978 0
M  V30 4846 H 450.82 -2.82208 1.01481 0
M  V30 4847 H 448.373 -1.45768 0.564037 0
M  V30 4848 H 449.108 -2.84475 -1.55706 0
M  V30 4849 H 448.893 -3.91835 -0.144266 0
M  V30 4850 H 450.383 -4.02044 -1.12916 0
M  V30 4851 N 450.82 -0.546701 -1.47814 0
M  V30 4852 C 452.066 -0.0269594 -2.03382 0
M  V30 4853 C 452.421 1.30406 -1.41464 0
M  V30 4854 O 451.714 1.8332 -0.557151 0
M  V30 4855 C 451.908 0.134869 -3.57145 0
M  V30 4856 C 451.737 -1.17891 -4.33972 0
M  V30 4857 C 450.507 -1.74336 -4.74273 0
M  V30 4858 C 452.705 -2.09361 -4.69758 0
M  V30 4859 N 450.687 -2.99829 -5.35701 0
M  V30 4860 C 452.058 -3.19431 -5.31379 0
M  V30 4861 C 454.113 -2.09484 -4.51687 0
M  V30 4862 C 452.816 -4.2971 -5.76838 0
M  V30 4863 C 454.842 -3.18767 -4.98138 0
M  V30 4864 C 454.204 -4.27557 -5.59799 0
M  V30 4865 H 450.303 -0.0517733 -0.780284 0
M  V30 4866 H 452.887 -0.731673 -1.80429 0
M  V30 4867 H 451.058 0.80869 -3.79888 0
M  V30 4868 H 452.79 0.655726 -3.99352 0
M  V30 4869 H 449.545 -1.28265 -4.559 0
M  V30 4870 H 449.969 -3.63765 -5.70968 0
M  V30 4871 H 454.611 -1.26663 -4.03381 0
M  V30 4872 H 452.329 -5.13297 -6.24141 0
M  V30 4873 H 455.915 -3.19937 -4.85934 0
M  V30 4874 H 454.795 -5.10725 -5.95088 0
M  V30 4875 N 452.299 1.55045 -0.282633 0
M  V30 4876 C 453.527 2.04168 0.33512 0
M  V30 4877 C 453.942 1.16071 1.48906 0
M  V30 4878 O 453.299 0.182391 1.81586 0
M  V30 4879 C 453.35 3.52332 0.808957 0
M  V30 4880 O 453.071 4.37078 -0.299038 0
M  V30 4881 C 454.572 4.17375 1.49375 0
M  V30 4882 H 451.792 0.666744 0.0754543 0
M  V30 4883 H 454.336 2.00205 -0.416918 0
M  V30 4884 H 452.491 3.56715 1.51106 0
M  V30 4885 H 452.905 5.24458 0.0665514 0
M  V30 4886 H 454.379 5.22627 1.77664 0
M  V30 4887 H 454.856 3.65999 2.42778 0
M  V30 4888 H 455.462 4.17016 0.835305 0
M  V30 4889 N 453.777 0.010035 1.57597 0
M  V30 4890 C 454.707 -0.976857 2.12084 0
M  V30 4891 C 455.688 -1.35191 1.03235 0
M  V30 4892 O 456.873 -1.43389 1.3097 0
M  V30 4893 C 454.003 -2.26548 2.63236 0
M  V30 4894 C 452.957 -2.03175 3.76701 0
M  V30 4895 C 452.283 -3.38138 4.14206 0
M  V30 4896 C 453.583 -1.38625 5.03568 0
M  V30 4897 H 455.277 -0.523145 2.94794 0
M  V30 4898 H 452.823 -0.250195 1.4181 0
M  V30 4899 H 454.776 -2.95952 2.99984 0
M  V30 4900 H 453.5 -2.74051 1.77661 0
M  V30 4901 H 452.159 -1.36195 3.40362 0
M  V30 4902 H 451.807 -3.83363 3.25641 0
M  V30 4903 H 451.507 -3.23312 4.90656 0
M  V30 4904 H 453.031 -4.08841 4.53521 0
M  V30 4905 H 454.445 -1.98 5.38023 0
M  V30 4906 H 452.842 -1.34256 5.84889 0
M  V30 4907 H 453.912 -0.356722 4.83586 0
M  V30 4908 N 455.255 -1.55392 -0.262866 0
M  V30 4909 C 456.504 -1.75679 -0.990943 0
M  V30 4910 C 456.817 -0.57097 -1.87081 0
M  V30 4911 O 458.023 -0.656486 -2.63444 0
M  V30 4912 C 456.479 -3.10964 -1.81188 0
M  V30 4913 C 456.087 -4.37146 -0.980188 0
M  V30 4914 C 457.831 -3.40597 -2.53365 0
M  V30 4915 C 455.738 -5.63466 -1.7961 0
M  V30 4916 H 454.668 -0.654868 -0.373716 0
M  V30 4917 H 457.319 -1.81841 -0.246203 0
M  V30 4918 H 455.701 -2.98867 -2.59797 0
M  V30 4919 H 456.875 -4.60187 -0.237558 0
M  V30 4920 H 455.19 -4.14731 -0.372497 0
M  V30 4921 H 457.787 -4.32186 -3.14833 0
M  V30 4922 H 458.13 -2.6119 -3.24169 0
M  V30 4923 H 458.663 -3.53838 -1.81779 0
M  V30 4924 H 455.402 -6.4565 -1.13209 0
M  V30 4925 H 454.922 -5.44552 -2.51443 0
M  V30 4926 H 456.601 -6.02139 -2.36723 0
M  V30 4927 N 456.733 0.527833 -1.48498 0
M  V30 4928 C 457.979 1.28295 -1.57836 0
M  V30 4929 C 458.334 1.9077 -0.249943 0
M  V30 4930 O 457.627 1.76421 0.747402 0
M  V30 4931 C 457.821 2.39275 -2.65485 0
M  V30 4932 C 457.65 1.87679 -4.08664 0
M  V30 4933 C 456.42 1.70187 -4.75778 0
M  V30 4934 C 458.618 1.40409 -4.94762 0
M  V30 4935 N 456.6 1.13238 -6.03366 0
M  V30 4936 C 457.971 0.954216 -6.12613 0
M  V30 4937 C 460.026 1.28732 -4.8097 0
M  V30 4938 C 458.729 0.39915 -7.18192 0
M  V30 4939 C 460.755 0.746244 -5.86673 0
M  V30 4940 C 460.117 0.306457 -7.03733 0
M  V30 4941 H 456.216 0.460408 -0.632099 0
M  V30 4942 H 458.8 0.594913 -1.85388 0
M  V30 4943 H 456.971 3.05572 -2.3975 0
M  V30 4944 H 458.703 3.06308 -2.64495 0
M  V30 4945 H 455.458 1.93772 -4.32145 0
M  V30 4946 H 455.882 0.867687 -6.71417 0
M  V30 4947 H 460.524 1.61338 -3.90807 0
M  V30 4948 H 458.242 0.0607678 -8.08077 0
M  V30 4949 H 461.828 0.659041 -5.78055 0
M  V30 4950 H 460.708 -0.105708 -7.84129 0
M  V30 4951 N 458.211 1.37122 0.776871 0
M  V30 4952 C 459.451 1.33441 1.54831 0
M  V30 4953 C 459.815 -0.0818963 1.91825 0
M  V30 4954 O 461.016 -0.24338 2.67696 0
M  V30 4955 C 459.287 2.24267 2.78279 0
M  V30 4956 S 460.846 2.38389 3.68397 0
M  V30 4957 H 457.664 0.473791 0.530135 0
M  V30 4958 H 460.266 1.7282 0.913968 0
M  V30 4959 H 458.97 3.261 2.49173 0
M  V30 4960 H 458.501 1.85953 3.46677 0
M  V30 4961 H 460.516 1.59068 4.70013 0
M  V30 4962 N 459.689 -1.00246 1.21608 0
M  V30 4963 C 460.599 -2.12515 0.993709 0
M  V30 4964 C 461.615 -1.73913 -0.0549939 0
M  V30 4965 O 462.791 -2.00943 0.135619 0
M  V30 4966 C 459.856 -3.42083 0.563953 0
M  V30 4967 C 458.917 -3.94843 1.68516 0
M  V30 4968 C 458.15 -5.18226 1.27582 0
M  V30 4969 O 458.373 -5.70201 0.150506 0
M  V30 4970 O 457.307 -5.64497 2.0887 0
M  V30 4971 H 461.133 -2.34152 1.93407 0
M  V30 4972 H 458.718 -1.10891 1.00118 0
M  V30 4973 H 460.6 -4.20073 0.334194 0
M  V30 4974 H 459.275 -3.21828 -0.347665 0
M  V30 4975 H 458.182 -3.18068 1.96935 0
M  V30 4976 H 459.515 -4.19512 2.5743 0
M  V30 4977 N 461.167 -1.02423 -1.1978 0
M  V30 4978 C 462.097 -0.62157 -2.25075 0
M  V30 4979 C 463.078 0.367148 -1.6609 0
M  V30 4980 O 464.263 0.250892 -1.92573 0
M  V30 4981 C 461.393 0.0331826 -3.47284 0
M  V30 4982 C 460.347 -0.877323 -4.18912 0
M  V30 4983 C 459.673 -0.0879296 -5.34628 0
M  V30 4984 C 460.973 -2.18892 -4.74219 0
M  V30 4985 H 462.667 -1.50179 -2.59011 0
M  V30 4986 H 460.213 -0.723547 -1.24502 0
M  V30 4987 H 462.166 0.326488 -4.20133 0
M  V30 4988 H 460.89 0.948164 -3.12534 0
M  V30 4989 H 459.549 -1.15475 -3.47938 0
M  V30 4990 H 459.197 0.828941 -4.96123 0
M  V30 4991 H 458.897 -0.694359 -5.83483 0
M  V30 4992 H 460.421 0.198743 -6.10276 0
M  V30 4993 H 461.835 -1.95746 -5.38847 0
M  V30 4994 H 460.232 -2.74686 -5.33542 0
M  V30 4995 H 461.302 -2.84674 -3.92541 0
M  V30 4996 N 462.645 1.35699 -0.801477 0
M  V30 4997 C 463.87 2.03687 -0.390678 0
M  V30 4998 C 464.295 1.60015 0.988778 0
M  V30 4999 O 463.653 0.774357 1.63931 0
M  V30 5000 C 463.701 3.57439 -0.476404 0
M  V30 5001 O 462.805 4.09208 0.512106 0
M  V30 5002 H 462.146 0.64344 -0.163956 0
M  V30 5003 H 464.676 1.73403 -1.08594 0
M  V30 5004 H 464.686 4.06544 -0.344357 0
M  V30 5005 H 463.361 3.88576 -1.48262 0
M  V30 5006 H 461.938 3.7134 0.340721 0
M  V30 5007 N 464.123 0.554532 1.47522 0
M  V30 5008 C 465.371 0.0294208 2.02079 0
M  V30 5009 C 465.692 -1.32411 1.43151 0
M  V30 5010 O 464.962 -1.863 0.605728 0
M  V30 5011 H 463.542 0.00788672 0.746958 0
M  V30 5012 H 466.204 0.723934 1.80956 0
M  V30 5013 H 465.3 -0.0606745 3.12041 0
M  V30 5014 N 465.601 -1.54893 0.290851 0
M  V30 5015 C 467.017 -1.59476 -0.0628432 0
M  V30 5016 C 467.217 -1.30795 -1.5328 0
M  V30 5017 O 466.273 -1.07644 -2.28406 0
M  V30 5018 C 467.586 -2.98928 0.325962 0
M  V30 5019 C 469.134 -3.11799 0.273882 0
M  V30 5020 C 469.609 -4.53544 0.637359 0
M  V30 5021 N 471.1 -4.59433 0.589507 0
M  V30 5022 C 471.835 -5.67164 0.84335 0
M  V30 5023 N 471.331 -6.82975 1.16263 0
M  V30 5024 N 473.124 -5.56786 0.771091 0
M  V30 5025 H 465.275 -1.71798 1.24896 0
M  V30 5026 H 467.538 -0.801879 0.505663 0
M  V30 5027 H 467.244 -3.24805 1.34887 0
M  V30 5028 H 467.118 -3.75793 -0.325441 0
M  V30 5029 H 469.505 -2.85677 -0.739765 0
M  V30 5030 H 469.586 -2.37112 0.959766 0
M  V30 5031 H 469.23 -4.80394 1.64877 0
M  V30 5032 H 469.16 -5.26553 -0.0704866 0
M  V30 5033 H 471.651 -3.76245 0.353252 0
M  V30 5034 H 471.964 -7.61048 1.34257 0
M  V30 5035 H 470.309 -6.84552 1.20057 0
M  V30 5036 H 473.5 -4.65187 0.521383 0
M  V30 5037 H 473.673 -6.40664 0.972295 0
M  V30 5038 N 467.08 -0.0183926 -1.57589 0
M  V30 5039 C 467.99 0.982943 -2.13015 0
M  V30 5040 C 469.006 1.36443 -1.07979 0
M  V30 5041 O 470.182 1.44802 -1.3998 0
M  V30 5042 C 467.247 2.25024 -2.63752 0
M  V30 5043 C 466.308 1.93018 -3.83461 0
M  V30 5044 C 465.541 3.13706 -4.31769 0
M  V30 5045 O 465.764 4.2601 -3.79305 0
M  V30 5046 O 464.698 2.96629 -5.23732 0
M  V30 5047 H 468.524 0.541709 -2.9883 0
M  V30 5048 H 466.109 0.201565 -1.48034 0
M  V30 5049 H 467.991 2.99441 -2.96502 0
M  V30 5050 H 466.666 2.68349 -1.81026 0
M  V30 5051 H 465.573 1.16019 -3.55655 0
M  V30 5052 H 466.906 1.54516 -4.67317 0
M  V30 5053 N 468.558 1.5553 0.254621 0
M  V30 5054 C 469.804 1.77262 0.985193 0
M  V30 5055 C 470.137 0.582286 1.85265 0
M  V30 5056 O 469.412 -0.419666 1.89919 0
M  V30 5057 C 469.695 3.0881 1.85225 0
M  V30 5058 C 469.548 4.38233 1.0135 0
M  V30 5059 C 470.867 3.3653 2.83612 0
M  V30 5060 H 467.986 0.644906 0.356742 0
M  V30 5061 H 470.628 1.88264 0.256236 0
M  V30 5062 H 468.778 2.99562 2.47376 0
M  V30 5063 H 470.45 4.59463 0.411269 0
M  V30 5064 H 468.693 4.32636 0.317574 0
M  V30 5065 H 469.364 5.26644 1.65379 0
M  V30 5066 H 471.84 3.45691 2.31596 0
M  V30 5067 H 470.716 4.29805 3.41407 0
M  V30 5068 H 470.977 2.57064 3.59681 0
M  V30 5069 N 470.036 -0.519951 1.48776 0
M  V30 5070 C 471.447 -1.10177 1.50725 0
M  V30 5071 C 471.798 -1.94153 0.282678 0
M  V30 5072 O 470.923 -2.07645 -0.609298 0
M  V30 5073 C 471.518 -2.00482 2.73116 0
M  V30 5074 C 470.077 -2.53862 2.77905 0
M  V30 5075 C 469.224 -1.31047 2.44381 0
M  V30 5076 H 472.175 -0.30473 1.55747 0
M  V30 5077 H 472.196 -2.8491 2.52203 0
M  V30 5078 H 471.708 -1.39335 3.62225 0
M  V30 5079 H 469.809 -3.18702 1.93029 0
M  V30 5080 H 469.922 -2.9231 3.79594 0
M  V30 5081 H 468.286 -1.62953 1.95751 0
M  V30 5082 H 469.069 -0.71637 3.35743 0
M  V30 5083 N 471.514 -1.37532 -0.769588 0
M  V30 5084 C 472.424 -1.35668 -1.91393 0
M  V30 5085 C 473.44 -0.255954 -1.72107 0
M  V30 5086 O 474.616 -0.491704 -1.95305 0
M  V30 5087 C 471.681 -1.16481 -3.26547 0
M  V30 5088 C 470.742 -2.36212 -3.58472 0
M  V30 5089 C 469.975 -2.17932 -4.87177 0
M  V30 5090 O 470.198 -1.1647 -5.58382 0
M  V30 5091 O 469.132 -3.06167 -5.18214 0
M  V30 5092 H 472.958 -2.32055 -1.95918 0
M  V30 5093 H 470.543 -1.18284 -0.912641 0
M  V30 5094 H 472.425 -1.07778 -4.07384 0
M  V30 5095 H 471.1 -0.231687 -3.2287 0
M  V30 5096 H 470.007 -2.50488 -2.77861 0
M  V30 5097 H 471.34 -3.281 -3.66894 0
M  V30 5098 N 472.992 0.995999 -1.22138 0
M  V30 5099 C 473.939 2.08551 -0.988687 0
M  V30 5100 C 474.909 1.65864 0.0885021 0
M  V30 5101 O 476.094 1.90704 -0.0604589 0
M  V30 5102 C 473.234 3.40374 -0.569191 0
M  V30 5103 C 472.347 3.96421 -1.71681 0
M  V30 5104 C 471.482 5.1639 -1.2456 0
M  V30 5105 C 470.521 5.64567 -2.36497 0
M  V30 5106 N 469.658 6.75777 -1.90445 0
M  V30 5107 H 474.498 2.2779 -1.92135 0
M  V30 5108 H 472.035 1.1168 -0.957388 0
M  V30 5109 H 473.993 4.16068 -0.307166 0
M  V30 5110 H 472.623 3.21145 0.326462 0
M  V30 5111 H 471.675 3.17628 -2.09324 0
M  V30 5112 H 472.987 4.2816 -2.55891 0
M  V30 5113 H 472.141 5.99362 -0.940774 0
M  V30 5114 H 470.88 4.86266 -0.373662 0
M  V30 5115 H 469.885 4.80185 -2.67772 0
M  V30 5116 H 471.11 5.96716 -3.24202 0
M  V30 5117 H 469.056 6.47443 -1.05609 0
M  V30 5118 H 468.973 7.06818 -2.68223 0
M  V30 5119 H 470.241 7.62262 -1.63022 0
M  V30 5120 N 474.47 1.03057 1.19235 0
M  V30 5121 C 475.4 0.633497 2.24742 0
M  V30 5122 C 476.381 -0.358335 1.66283 0
M  V30 5123 O 477.566 -0.240676 1.92703 0
M  V30 5124 C 474.696 -0.0147648 3.47297 0
M  V30 5125 C 473.65 0.899527 4.18441 0
M  V30 5126 C 472.976 0.116281 5.34574 0
M  V30 5127 C 474.276 2.21404 4.73051 0
M  V30 5128 H 475.97 1.5155 2.58211 0
M  V30 5129 H 473.516 0.73014 1.24117 0
M  V30 5130 H 475.469 -0.304202 4.20301 0
M  V30 5131 H 474.193 -0.931577 3.13032 0
M  V30 5132 H 472.852 1.17319 3.47321 0
M  V30 5133 H 472.5 -0.802619 4.96555 0
M  V30 5134 H 472.2 0.725293 5.83107 0
M  V30 5135 H 473.724 -0.166376 6.10373 0
M  V30 5136 H 475.138 1.98601 5.37802 0
M  V30 5137 H 473.535 2.77512 5.32078 0
M  V30 5138 H 474.605 2.86752 3.91026 0
M  V30 5139 N 475.948 -1.35272 0.808662 0
M  V30 5140 C 476.896 -2.31663 0.208606 0
M  V30 5141 C 477.89 -1.56731 -0.642778 0
M  V30 5142 O 479.096 -1.71843 -0.53571 0
M  V30 5143 H 475.471 -0.750421 0.0486993 0
M  V30 5144 H 477.442 -2.79814 1.03666 0
M  V30 5145 C 476.191 -3.42008 -0.626573 0
M  V30 5146 H 475.514 -3.99795 0.0192103 0
M  V30 5147 H 476.954 -4.11727 -1.01278 0
M  V30 5148 C 475.413 -2.85226 -1.79298 0
M  V30 5149 O 475.943 -2.78945 -2.89055 0
M  V30 5150 N 474.149 -2.42245 -1.60516 0
M  V30 5151 H 473.696 -2.47554 -0.712375 0
M  V30 5152 H 473.654 -2.04603 -2.38715 0
M  V30 5153 N 477.426 -0.562348 -1.47226 0
M  V30 5154 C 478.374 0.195476 -2.31777 0
M  V30 5155 C 479.368 0.90433 -1.43242 0
M  V30 5156 O 480.574 0.825031 -1.59979 0
M  V30 5157 H 476.949 0.0819095 -0.747526 0
M  V30 5158 H 478.92 -0.536753 -2.93533 0
M  V30 5159 C 477.669 1.20902 -3.26003 0
M  V30 5160 H 476.992 0.672997 -3.94095 0
M  V30 5161 H 478.432 1.71006 -3.87986 0
M  V30 5162 C 476.891 2.25955 -2.49891 0
M  V30 5163 O 477.421 3.32969 -2.2471 0
M  V30 5164 N 475.627 2.00019 -2.1081 0
M  V30 5165 H 475.174 1.13006 -2.31489 0
M  V30 5166 H 475.132 2.70523 -1.60201 0
M  V30 5167 N 478.904 1.54736 -0.299062 0
M  V30 5168 C 479.851 2.23448 0.577899 0
M  V30 5169 C 480.821 1.21637 1.13109 0
M  V30 5170 O 482.006 1.50252 1.17597 0
M  V30 5171 C 479.146 2.9774 1.74484 0
M  V30 5172 C 478.259 4.1432 1.22323 0
M  V30 5173 C 477.394 4.76199 2.35388 0
M  V30 5174 C 476.433 5.84927 1.80351 0
M  V30 5175 N 475.57 6.4077 2.86982 0
M  V30 5176 H 480.41 2.97996 -0.0146545 0
M  V30 5177 H 477.947 1.47088 -0.0190013 0
M  V30 5178 H 479.905 3.39045 2.43114 0
M  V30 5179 H 478.535 2.25572 2.30905 0
M  V30 5180 H 477.587 3.7797 0.429249 0
M  V30 5181 H 478.899 4.92659 0.780309 0
M  V30 5182 H 478.053 5.20346 3.11969 0
M  V30 5183 H 476.792 3.97188 2.83006 0
M  V30 5184 H 475.797 5.40207 1.02259 0
M  V30 5185 H 477.022 6.65821 1.3364 0
M  V30 5186 H 474.968 5.64643 3.33938 0
M  V30 5187 H 474.885 7.1445 2.4718 0
M  V30 5188 H 476.153 6.89574 3.63466 0
M  V30 5189 N 480.382 0.0267497 1.57577 0
M  V30 5190 C 481.345 -0.940916 2.08996 0
M  V30 5191 C 482.345 -1.25561 1.00455 0
M  V30 5192 O 483.535 -1.19634 1.26623 0
M  V30 5193 C 480.667 -2.25814 2.55384 0
M  V30 5194 H 481.86 -0.495628 2.95776 0
M  V30 5195 H 479.413 -0.221241 1.54726 0
M  V30 5196 H 480.148 -2.74976 1.71926 0
M  V30 5197 H 479.933 -2.04285 3.34679 0
M  V30 5198 H 481.423 -2.95178 2.95398 0
M  V30 5199 N 481.861 -1.55662 -0.24637 0
M  V30 5200 C 482.808 -1.90361 -1.30504 0
M  V30 5201 C 483.778 -0.757905 -1.47801 0
M  V30 5202 O 484.963 -1.01161 -1.61775 0
M  V30 5203 C 482.103 -2.2042 -2.65535 0
M  V30 5204 C 481.216 -3.47799 -2.56242 0
M  V30 5205 C 480.351 -3.67426 -3.8363 0
M  V30 5206 C 479.39 -4.88403 -3.68956 0
M  V30 5207 N 478.527 -5.04548 -4.88237 0
M  V30 5208 H 483.367 -2.80645 -1.00213 0
M  V30 5209 H 480.904 -1.38924 -0.483577 0
M  V30 5210 H 482.862 -2.35853 -3.44135 0
M  V30 5211 H 481.492 -1.3334 -2.93973 0
M  V30 5212 H 480.544 -3.40694 -1.69208 0
M  V30 5213 H 481.856 -4.36544 -2.4131 0
M  V30 5214 H 481.01 -3.82821 -4.70673 0
M  V30 5215 H 479.749 -2.76914 -4.01459 0
M  V30 5216 H 478.754 -4.72984 -2.80296 0
M  V30 5217 H 479.979 -5.80375 -3.52621 0
M  V30 5218 H 477.925 -4.16974 -5.06427 0
M  V30 5219 H 477.842 -5.87384 -4.75937 0
M  V30 5220 H 479.11 -5.24355 -5.76777 0
M  V30 5221 N 483.339 0.512053 -1.4905 0
M  V30 5222 C 484.249 1.64139 -1.67617 0
M  V30 5223 C 485.265 1.64786 -0.558701 0
M  V30 5224 O 486.441 1.8341 -0.832034 0
M  V30 5225 C 483.506 3.00548 -1.72835 0
M  V30 5226 C 482.567 3.10615 -2.96339 0
M  V30 5227 C 481.8 4.40517 -3.01298 0
M  V30 5228 O 482.023 5.28671 -2.14157 0
M  V30 5229 O 480.957 4.55325 -3.93653 0
M  V30 5230 H 484.783 1.51407 -2.63267 0
M  V30 5231 H 482.368 0.687131 -1.32661 0
M  V30 5232 H 484.25 3.81641 -1.78683 0
M  V30 5233 H 482.925 3.13566 -0.803616 0
M  V30 5234 H 481.832 2.2875 -2.96014 0
M  V30 5235 H 483.165 3.0252 -3.88256 0
M  V30 5236 N 484.817 1.37938 0.762283 0
M  V30 5237 C 485.747 1.37176 1.88958 0
M  V30 5238 C 486.728 0.238945 1.68413 0
M  V30 5239 O 487.913 0.440726 1.89133 0
M  V30 5240 C 485.043 1.18742 3.2637 0
M  V30 5241 C 483.997 2.29136 3.61498 0
M  V30 5242 C 483.323 1.95816 4.97554 0
M  V30 5243 C 484.623 3.71363 3.6727 0
M  V30 5244 H 486.317 2.31509 1.89853 0
M  V30 5245 H 483.863 1.11438 0.912005 0
M  V30 5246 H 485.816 1.16837 4.04879 0
M  V30 5247 H 484.54 0.208683 3.25933 0
M  V30 5248 H 483.199 2.30213 2.85303 0
M  V30 5249 H 482.847 0.964475 4.93667 0
M  V30 5250 H 482.547 2.69745 5.22026 0
M  V30 5251 H 484.071 1.95513 5.78452 0
M  V30 5252 H 485.485 3.72364 4.35911 0
M  V30 5253 H 483.882 4.44425 4.03245 0
M  V30 5254 H 484.952 4.04305 2.67704 0
M  V30 5255 N 486.295 -0.989507 1.22664 0
M  V30 5256 C 487.225 -2.09847 1.02404 0
M  V30 5257 C 488.206 -1.70007 -0.0561303 0
M  V30 5258 O 489.391 -1.93906 0.106748 0
M  V30 5259 C 486.521 -3.41996 0.604663 0
M  V30 5260 C 485.475 -3.95699 1.63115 0
M  V30 5261 C 484.801 -5.23936 1.0675 0
M  V30 5262 C 486.101 -4.25999 3.02196 0
M  V30 5263 H 487.795 -2.27054 1.95158 0
M  V30 5264 H 485.341 -1.09111 0.939727 0
M  V30 5265 H 487.294 -4.1899 0.45002 0
M  V30 5266 H 486.018 -3.24626 -0.35855 0
M  V30 5267 H 484.677 -3.2084 1.77362 0
M  V30 5268 H 484.325 -5.02909 0.0955422 0
M  V30 5269 H 484.025 -5.60833 1.75328 0
M  V30 5270 H 485.549 -6.0356 0.924516 0
M  V30 5271 H 486.963 -4.93777 2.91303 0
M  V30 5272 H 485.36 -4.74076 3.67929 0
M  V30 5273 H 486.43 -3.33636 3.51873 0
M  V30 5274 N 487.773 -1.03688 -1.18687 0
M  V30 5275 C 488.72 -0.624624 -2.22187 0
M  V30 5276 C 489.69 0.365636 -1.62026 0
M  V30 5277 O 490.875 0.260481 -1.89014 0
M  V30 5278 C 488.015 0.0101738 -3.45099 0
M  V30 5279 C 487.128 -1.02709 -4.19613 0
M  V30 5280 C 486.263 -0.361213 -5.2997 0
M  V30 5281 C 485.302 -1.38384 -5.96252 0
M  V30 5282 N 484.439 -0.743196 -6.98155 0
M  V30 5283 H 489.279 -1.51176 -2.56807 0
M  V30 5284 H 486.816 -0.75636 -1.26165 0
M  V30 5285 H 488.774 0.395528 -4.15321 0
M  V30 5286 H 487.404 0.860848 -3.1111 0
M  V30 5287 H 486.456 -1.53043 -3.48256 0
M  V30 5288 H 487.768 -1.80398 -4.65036 0
M  V30 5289 H 486.922 0.0785537 -6.06649 0
M  V30 5290 H 485.661 0.447799 -4.8564 0
M  V30 5291 H 484.666 -1.83378 -5.18317 0
M  V30 5292 H 485.891 -2.19448 -6.42666 0
M  V30 5293 H 483.837 0.0455789 -6.55984 0
M  V30 5294 H 483.754 -1.45784 -7.41811 0
M  V30 5295 H 485.022 -0.327698 -7.78811 0
M  V30 5296 N 489.251 1.34841 -0.815825 0
M  V30 5297 C 490.476 2.03261 -0.41226 0
M  V30 5298 C 490.901 1.61055 0.971751 0
M  V30 5299 O 490.259 0.7917 1.63101 0
M  V30 5300 C 490.307 3.56914 -0.514289 0
M  V30 5301 O 489.411 4.09728 0.468675 0
M  V30 5302 H 488.752 0.641664 -0.170771 0
M  V30 5303 H 491.282 1.72241 -1.10427 0
M  V30 5304 H 491.292 4.06156 -0.387457 0
M  V30 5305 H 489.967 3.86982 -1.52375 0
M  V30 5306 H 488.544 3.71681 0.301316 0
M  V30 5307 N 490.729 0.570148 1.46925 0
M  V30 5308 C 491.978 0.0487352 2.01641 0
M  V30 5309 C 492.291 -1.31433 1.44861 0
M  V30 5310 O 493.497 -1.92638 1.91318 0
M  V30 5311 C 491.953 0.0365817 3.59881 0
M  V30 5312 C 491.561 1.39719 4.25655 0
M  V30 5313 C 493.305 -0.431545 4.22301 0
M  V30 5314 C 491.212 1.34345 5.75939 0
M  V30 5315 H 490.142 0.0144492 0.753862 0
M  V30 5316 H 492.793 0.719928 1.68788 0
M  V30 5317 H 491.175 -0.700522 3.89755 0
M  V30 5318 H 492.349 2.15303 4.07408 0
M  V30 5319 H 490.664 1.80431 3.75278 0
M  V30 5320 H 493.261 -0.490354 5.32447 0
M  V30 5321 H 493.604 -1.44638 3.90366 0
M  V30 5322 H 494.137 0.251102 3.97007 0
M  V30 5323 H 490.876 2.33469 6.12513 0
M  V30 5324 H 490.396 0.629615 5.96486 0
M  V30 5325 H 492.075 1.051 6.38407 0
M  V30 5326 N 492.207 -1.54576 0.307264 0
M  V30 5327 C 493.484 -1.92377 -0.353605 0
M  V30 5328 C 493.864 -1.23517 -1.71192 0
M  V30 5329 O 493.212 -0.373101 -2.25433 0
M  V30 5330 C 493.422 -3.45928 -0.462039 0
M  V30 5331 C 494.77 -4.18278 -0.729975 0
M  V30 5332 O 495.794 -3.51997 -0.545605 0
M  V30 5333 O 494.653 -5.3563 -1.08454 0
M  V30 5334 H 491.747 -0.802747 -0.198812 0
M  V30 5335 H 494.293 -1.65929 0.355783 0
M  V30 5336 H 493.065 -3.88187 0.492592 0
M  V30 5337 H 492.688 -3.78431 -1.21965 0
M  V30 5338 N 493.685 -0.035106 -1.57561 0
M  V30 5339 C 494.932 0.642229 -1.92046 0
M  V30 5340 C 495.26 1.7179 -0.91206 0
M  V30 5341 O 494.515 1.95544 0.0781153 0
M  V30 5342 C 494.814 1.29149 -3.3325 0
M  V30 5343 C 494.48 0.345604 -4.49574 0
M  V30 5344 C 493.142 0.0852775 -4.81124 0
M  V30 5345 C 495.494 -0.303569 -5.20315 0
M  V30 5346 C 492.822 -0.831927 -5.80772 0
M  V30 5347 C 495.174 -1.20886 -6.20942 0
M  V30 5348 C 493.838 -1.47802 -6.50931 0
M  V30 5349 H 493.108 0.235008 -0.702746 0
M  V30 5350 H 495.755 -0.0981529 -1.91248 0
M  V30 5351 H 494.06 2.10676 -3.30337 0
M  V30 5352 H 495.757 1.82223 -3.57205 0
M  V30 5353 H 492.347 0.558683 -4.24943 0
M  V30 5354 H 496.531 -0.115515 -4.96166 0
M  V30 5355 H 491.787 -1.0481 -6.02349 0
M  V30 5356 H 495.961 -1.71804 -6.74875 0
M  V30 5357 H 493.588 -2.19039 -7.2796 0
M  V30 5358 N 495.163 1.55791 0.238111 0
M  V30 5359 C 496.073 1.94196 1.31625 0
M  V30 5360 C 497.089 0.843545 1.52185 0
M  V30 5361 O 498.265 1.1457 1.65637 0
M  V30 5362 C 495.33 2.2365 2.64918 0
M  V30 5363 C 494.391 3.46971 2.52804 0
M  V30 5364 C 493.624 3.7501 3.79741 0
M  V30 5365 O 493.847 3.04982 4.82019 0
M  V30 5366 O 492.781 4.68525 3.77846 0
M  V30 5367 H 496.607 2.86044 1.02043 0
M  V30 5368 H 494.192 1.42786 0.439603 0
M  V30 5369 H 496.074 2.43863 3.4367 0
M  V30 5370 H 494.749 1.34979 2.94215 0
M  V30 5371 H 493.656 3.32055 1.72309 0
M  V30 5372 H 494.989 4.35971 2.28451 0
M  V30 5373 N 496.642 -0.504142 1.49319 0
M  V30 5374 C 497.552 -1.63248 1.68486 0
M  V30 5375 C 498.568 -1.64488 0.567432 0
M  V30 5376 O 499.744 -1.82966 0.841749 0
M  V30 5377 C 496.809 -2.99627 1.74426 0
M  V30 5378 C 495.87 -3.09039 2.97982 0
M  V30 5379 C 495.103 -4.38913 3.0363 0
M  V30 5380 O 495.326 -5.27528 2.16958 0
M  V30 5381 O 494.26 -4.53231 3.96062 0
M  V30 5382 H 498.086 -1.50008 2.64067 0
M  V30 5383 H 495.671 -0.680086 1.33023 0
M  V30 5384 H 497.553 -3.80689 1.80705 0
M  V30 5385 H 496.228 -3.13136 0.820233 0
M  V30 5386 H 495.135 -2.27177 2.97223 0
M  V30 5387 H 496.468 -3.00456 3.89855 0
M  V30 5388 N 498.12 -1.38341 -0.754957 0
M  V30 5389 C 499.367 -1.34473 -1.51404 0
M  V30 5390 C 499.695 0.0656458 -1.94389 0
M  V30 5391 O 498.95 1.04244 -1.65625 0
M  V30 5392 C 499.249 -2.2452 -2.78075 0
M  V30 5393 C 498.915 -3.72512 -2.54059 0
M  V30 5394 C 497.577 -4.1284 -2.47218 0
M  V30 5395 C 499.929 -4.66197 -2.33044 0
M  V30 5396 C 497.257 -5.44945 -2.17376 0
M  V30 5397 C 499.609 -5.98558 -2.04723 0
M  V30 5398 C 498.273 -6.37972 -1.96337 0
M  V30 5399 H 497.543 -0.492072 -0.554027 0
M  V30 5400 H 500.19 -1.70687 -0.868223 0
M  V30 5401 H 498.495 -1.81357 -3.473 0
M  V30 5402 H 500.192 -2.18832 -3.36026 0
M  V30 5403 H 496.782 -3.40538 -2.60253 0
M  V30 5404 H 500.966 -4.35888 -2.37309 0
M  V30 5405 H 496.222 -5.74426 -2.09391 0
M  V30 5406 H 500.396 -6.70693 -1.87465 0
M  V30 5407 H 498.023 -7.40258 -1.72978 0
M  V30 5408 N 499.598 0.982988 -1.23187 0
M  V30 5409 C 500.875 1.69814 -0.970707 0
M  V30 5410 C 501.255 2.04811 0.511424 0
M  V30 5411 O 500.603 1.73924 1.48198 0
M  V30 5412 C 500.813 2.94143 -1.87831 0
M  V30 5413 C 502.161 3.66712 -2.14026 0
M  V30 5414 O 503.185 3.04171 -1.8536 0
M  V30 5415 O 502.044 4.79258 -2.62629 0
M  V30 5416 H 499.138 0.741659 -0.365884 0
M  V30 5417 H 501.684 1.03844 -1.34218 0
M  V30 5418 H 500.456 2.64858 -2.88038 0
M  V30 5419 H 500.079 3.6785 -1.50905 0
M  V30 5420 N 501.076 1.04316 1.18135 0
M  V30 5421 C 502.353 0.662166 1.84051 0
M  V30 5422 C 502.733 -0.858169 1.9287 0
M  V30 5423 O 502.081 -1.76062 1.45652 0
M  V30 5424 C 502.291 1.3409 3.22212 0
M  V30 5425 C 503.639 1.4733 3.9822 0
M  V30 5426 O 504.663 1.29921 3.31661 0
M  V30 5427 O 503.522 1.75722 5.17479 0
M  V30 5428 H 500.616 0.232005 0.79379 0
M  V30 5429 H 503.162 1.1422 1.25506 0
M  V30 5430 H 501.934 2.37853 3.10711 0
M  V30 5431 H 501.557 0.849649 3.88416 0
M  V30 5432 N 502.554 -1.34406 0.822964 0
M  V30 5433 C 503.464 -2.33298 0.246838 0
M  V30 5434 C 504.48 -1.62625 -0.618797 0
M  V30 5435 O 505.656 -1.94391 -0.526685 0
M  V30 5436 C 502.721 -3.41785 -0.581731 0
M  V30 5437 C 501.782 -4.28206 0.306309 0
M  V30 5438 C 501.015 -5.31512 -0.48281 0
M  V30 5439 O 501.238 -5.43973 -1.71607 0
M  V30 5440 O 500.172 -6.01749 0.134884 0
M  V30 5441 H 503.998 -2.84401 1.06534 0
M  V30 5442 H 501.583 -1.37466 0.585108 0
M  V30 5443 H 503.465 -4.08028 -1.05313 0
M  V30 5444 H 502.14 -2.92925 -1.37756 0
M  V30 5445 H 501.047 -3.64885 0.825199 0
M  V30 5446 H 502.38 -4.80507 1.06649 0
M  V30 5447 N 504.032 -0.577932 -1.46621 0
M  V30 5448 C 505.278 -0.0617793 -2.02706 0
M  V30 5449 C 505.611 1.29294 -1.44903 0
M  V30 5450 O 504.886 1.8461 -0.61232 0
M  V30 5451 C 505.169 0.00911824 -3.60099 0
M  V30 5452 C 505.022 -1.37416 -4.28295 0
M  V30 5453 C 506.341 0.712159 -4.343 0
M  V30 5454 H 503.46 -0.0239246 -0.736612 0
M  V30 5455 H 506.102 -0.744211 -1.74818 0
M  V30 5456 H 504.252 0.590292 -3.83989 0
M  V30 5457 H 505.924 -2.00013 -4.15683 0
M  V30 5458 H 504.167 -1.94319 -3.87843 0
M  V30 5459 H 504.838 -1.27707 -5.37024 0
M  V30 5460 H 507.314 0.218486 -4.15526 0
M  V30 5461 H 506.19 0.730782 -5.44014 0
M  V30 5462 H 506.451 1.77251 -4.05012 0
M  V30 5463 N 505.51 1.54411 -0.315457 0
M  V30 5464 C 506.787 1.92562 0.343398 0
M  V30 5465 C 507.167 1.24423 1.70535 0
M  V30 5466 O 506.515 0.385051 2.25232 0
M  V30 5467 C 506.725 3.46168 0.443687 0
M  V30 5468 C 508.073 4.18659 0.707783 0
M  V30 5469 O 509.097 3.52281 0.52693 0
M  V30 5470 O 507.956 5.36198 1.05612 0
M  V30 5471 H 505.05 0.80379 0.194552 0
M  V30 5472 H 507.596 1.65738 -0.364577 0
M  V30 5473 H 506.368 3.8792 -0.513172 0
M  V30 5474 H 505.991 3.79073 1.19956 0
M  V30 5475 N 506.988 0.0434614 1.5754 0
M  V30 5476 C 508.404 -0.313039 1.565 0
M  V30 5477 C 508.604 -1.71954 1.05043 0
M  V30 5478 O 507.66 -2.425 0.703564 0
M  V30 5479 C 508.973 -0.148544 3.00333 0
M  V30 5480 C 510.521 -0.220231 3.12224 0
M  V30 5481 C 510.996 -0.0843565 4.57922 0
M  V30 5482 N 512.487 -0.140881 4.62986 0
M  V30 5483 C 513.222 -0.0597443 5.73369 0
M  V30 5484 N 512.718 0.0733004 6.92761 0
M  V30 5485 N 514.511 -0.11477 5.61983 0
M  V30 5486 H 506.662 0.96303 1.89313 0
M  V30 5487 H 508.925 0.373164 0.871466 0
M  V30 5488 H 508.631 0.820894 3.41986 0
M  V30 5489 H 508.505 -0.912798 3.65989 0
M  V30 5490 H 510.892 -1.18014 2.70475 0
M  V30 5491 H 510.973 0.574646 2.49262 0
M  V30 5492 H 510.617 0.872192 5.00355 0
M  V30 5493 H 510.547 -0.898281 5.18882 0
M  V30 5494 H 513.038 -0.243273 3.77116 0
M  V30 5495 H 513.351 0.128128 7.72694 0
M  V30 5496 H 511.696 0.10828 6.94916 0
M  V30 5497 H 514.887 -0.217212 4.67596 0
M  V30 5498 H 515.06 -0.0480779 6.47982 0
M  V30 5499 N 508.466 -1.55915 -0.229846 0
M  V30 5500 C 509.691 -1.8296 -0.976743 0
M  V30 5501 C 510.116 -0.622735 -1.77493 0
M  V30 5502 O 509.474 0.428431 -1.76165 0
M  V30 5503 C 509.522 -3.07916 -1.8767 0
M  V30 5504 O 508.626 -2.86028 -2.97088 0
M  V30 5505 H 507.967 -0.603453 -0.277021 0
M  V30 5506 H 510.497 -2.0312 -0.245669 0
M  V30 5507 H 510.507 -3.37802 -2.2881 0
M  V30 5508 H 509.182 -3.95389 -1.28996 0
M  V30 5509 H 507.759 -2.67355 -2.59954 0
M  V30 5510 N 509.944 0.496216 -1.49584 0
M  V30 5511 C 511.174 1.27209 -1.62793 0
M  V30 5512 C 511.582 1.86799 -0.300476 0
M  V30 5513 O 510.925 1.68802 0.724674 0
M  V30 5514 C 510.987 2.43812 -2.64189 0
M  V30 5515 C 510.651 2.05055 -4.08414 0
M  V30 5516 C 511.648 1.58752 -4.9507 0
M  V30 5517 C 509.333 2.14543 -4.54177 0
M  V30 5518 C 511.327 1.22448 -6.25528 0
M  V30 5519 C 509.014 1.77851 -5.84647 0
M  V30 5520 C 510.012 1.31878 -6.70147 0
M  V30 5521 O 509.7 0.956834 -7.98185 0
M  V30 5522 H 509.432 0.391848 -0.550846 0
M  V30 5523 H 511.986 0.601712 -1.96389 0
M  V30 5524 H 510.216 3.13941 -2.25783 0
M  V30 5525 H 511.905 3.05829 -2.66877 0
M  V30 5526 H 512.671 1.50863 -4.60939 0
M  V30 5527 H 508.55 2.49277 -3.87791 0
M  V30 5528 H 512.094 0.864933 -6.92217 0
M  V30 5529 H 507.991 1.8539 -6.18305 0
M  V30 5530 H 508.759 1.08789 -8.11238 0
M  V30 5531 N 511.423 1.38739 0.74761 0
M  V30 5532 C 512.356 1.3083 1.86972 0
M  V30 5533 C 513.334 0.184229 1.61553 0
M  V30 5534 O 514.518 0.36256 1.8498 0
M  V30 5535 C 511.645 1.02854 3.22705 0
M  V30 5536 C 510.691 2.17281 3.67003 0
M  V30 5537 S 511.524 3.79468 3.77842 0
M  V30 5538 C 512.68 3.53692 5.16385 0
M  V30 5539 H 512.913 2.258 1.93395 0
M  V30 5540 H 510.446 1.24646 0.911199 0
M  V30 5541 H 512.404 0.87397 4.01089 0
M  V30 5542 H 511.065 0.0959295 3.13953 0
M  V30 5543 H 510.258 1.93267 4.65472 0
M  V30 5544 H 509.86 2.28876 2.9579 0
M  V30 5545 H 512.152 3.10176 6.02327 0
M  V30 5546 H 513.095 4.51576 5.45422 0
M  V30 5547 H 513.503 2.8807 4.85464 0
M  V30 5548 N 512.901 -0.976442 1.23707 0
M  V30 5549 C 513.831 -2.08749 1.04624 0
M  V30 5550 C 514.812 -1.70057 -0.0380956 0
M  V30 5551 O 515.997 -1.93782 0.127308 0
M  V30 5552 C 513.127 -3.41335 0.640902 0
M  V30 5553 C 512.081 -3.93947 1.67302 0
M  V30 5554 C 511.407 -5.22774 1.12301 0
M  V30 5555 C 512.707 -4.22769 3.06697 0
M  V30 5556 H 514.401 -2.24972 1.97555 0
M  V30 5557 H 511.947 -1.08108 0.951247 0
M  V30 5558 H 513.9 -4.18489 0.494434 0
M  V30 5559 H 512.624 -3.24988 -0.324099 0
M  V30 5560 H 511.283 -3.18941 1.80755 0
M  V30 5561 H 510.931 -5.0278 0.148877 0
M  V30 5562 H 510.631 -5.58942 1.81267 0
M  V30 5563 H 512.155 -6.02546 0.988479 0
M  V30 5564 H 513.569 -4.90659 2.96524 0
M  V30 5565 H 511.966 -4.70147 3.72937 0
M  V30 5566 H 513.036 -3.29885 3.55392 0
M  V30 5567 N 514.379 -1.04941 -1.1758 0
M  V30 5568 C 515.289 -0.658826 -2.25159 0
M  V30 5569 C 516.305 0.318941 -1.71052 0
M  V30 5570 O 517.481 0.171669 -2.00667 0
M  V30 5571 C 514.546 -0.0369522 -3.4668 0
M  V30 5572 C 513.607 -1.06484 -4.15884 0
M  V30 5573 C 512.84 -0.472551 -5.31604 0
M  V30 5574 O 513.063 0.718736 -5.65854 0
M  V30 5575 O 511.997 -1.20557 -5.89703 0
M  V30 5576 H 515.823 -1.55533 -2.60851 0
M  V30 5577 H 513.408 -0.820819 -1.24832 0
M  V30 5578 H 515.29 0.308784 -4.20267 0
M  V30 5579 H 513.965 0.833238 -3.12792 0
M  V30 5580 H 512.872 -1.46253 -3.44327 0
M  V30 5581 H 514.205 -1.9061 -4.53794 0
M  V30 5582 N 515.857 1.33968 -0.830081 0
M  V30 5583 C 517.085 2.0228 -0.434773 0
M  V30 5584 C 517.5 1.62487 0.961419 0
M  V30 5585 O 516.857 0.833849 1.62337 0
M  V30 5586 C 516.908 3.5751 -0.535625 0
M  V30 5587 O 516.629 3.95864 -1.87679 0
M  V30 5588 C 518.13 4.43091 -0.136137 0
M  V30 5589 H 515.35 0.648151 -0.173613 0
M  V30 5590 H 517.894 1.71089 -1.12022 0
M  V30 5591 H 516.049 3.87266 0.101817 0
M  V30 5592 H 516.463 4.9056 -1.85609 0
M  V30 5593 H 517.937 5.51398 -0.257772 0
M  V30 5594 H 518.414 4.29433 0.921076 0
M  V30 5595 H 519.02 4.18677 -0.747662 0
M  V30 5596 N 517.335 0.585699 1.46312 0
M  V30 5597 C 518.265 -0.133556 2.33118 0
M  V30 5598 C 519.246 -0.880707 1.45525 0
M  V30 5599 O 520.431 -0.855579 1.74337 0
M  V30 5600 C 517.561 -1.14585 3.27853 0
M  V30 5601 C 516.515 -0.513341 4.2491 0
M  V30 5602 C 515.841 -1.63231 5.09175 0
M  V30 5603 C 517.141 0.551413 5.19381 0
M  V30 5604 H 518.835 0.59121 2.93505 0
M  V30 5605 H 516.381 0.285761 1.41136 0
M  V30 5606 H 518.334 -1.65741 3.87438 0
M  V30 5607 H 517.058 -1.90093 2.65579 0
M  V30 5608 H 515.717 -0.0228349 3.66593 0
M  V30 5609 H 515.365 -2.37713 4.43285 0
M  V30 5610 H 515.065 -1.21473 5.74907 0
M  V30 5611 H 516.589 -2.14658 5.71624 0
M  V30 5612 H 518.003 0.124804 5.73164 0
M  V30 5613 H 516.4 0.889486 5.93471 0
M  V30 5614 H 517.47 1.43655 4.63132 0
M  V30 5615 N 518.813 -1.54241 0.323641 0
M  V30 5616 C 519.76 -2.24339 -0.542277 0
M  V30 5617 C 520.73 -1.23421 -1.11159 0
M  V30 5618 O 521.915 -1.52104 -1.15192 0
M  V30 5619 C 519.055 -3.00479 -1.69725 0
M  V30 5620 C 518.168 -4.16214 -1.15716 0
M  V30 5621 C 517.303 -4.79884 -2.27783 0
M  V30 5622 C 516.342 -5.87722 -1.71023 0
M  V30 5623 N 515.479 -6.45254 -2.76752 0
M  V30 5624 H 520.319 -2.97935 0.0620613 0
M  V30 5625 H 517.856 -1.47039 0.0423993 0
M  V30 5626 H 519.814 -3.42869 -2.3769 0
M  V30 5627 H 518.444 -2.29217 -2.27288 0
M  V30 5628 H 517.496 -3.78605 -0.369063 0
M  V30 5629 H 518.808 -4.93838 -0.701832 0
M  V30 5630 H 517.962 -5.25243 -3.03651 0
M  V30 5631 H 516.701 -4.01641 -2.76652 0
M  V30 5632 H 515.706 -5.41765 -0.936518 0
M  V30 5633 H 516.931 -6.67863 -1.2303 0
M  V30 5634 H 514.877 -5.69884 -3.24912 0
M  V30 5635 H 514.794 -7.18292 -2.35782 0
M  V30 5636 H 516.062 -6.95269 -3.5245 0
M  V30 5637 N 520.291 -0.0518155 -1.57515 0
M  V30 5638 C 521.568 0.661727 -1.84067 0
M  V30 5639 C 521.948 1.88999 -0.940351 0
M  V30 5640 O 521.296 2.285 -0.00155404 0
M  V30 5641 C 521.506 1.01841 -3.3381 0
M  V30 5642 C 522.854 1.40043 -4.00841 0
M  V30 5643 O 523.878 1.11073 -3.38439 0
M  V30 5644 O 522.737 1.94111 -5.10865 0
M  V30 5645 H 519.831 0.326702 -0.759733 0
M  V30 5646 H 522.377 -0.0812277 -1.69505 0
M  V30 5647 H 521.149 0.145202 -3.91031 0
M  V30 5648 H 520.772 1.81879 -3.53562 0
M  V30 5649 N 521.769 1.56035 0.221574 0
M  V30 5650 C 523.18 1.69229 0.788567 0
M  V30 5651 C 523.531 0.653814 1.84986 0
M  V30 5652 O 522.656 -0.195065 2.15519 0
M  V30 5653 C 523.251 3.06809 1.43713 0
M  V30 5654 C 521.81 3.21858 1.95152 0
M  V30 5655 C 520.957 2.65155 0.811685 0
M  V30 5656 H 523.908 1.587 -0.00307894 0
M  V30 5657 H 523.929 3.02666 2.30594 0
M  V30 5658 H 523.441 3.82369 0.664475 0
M  V30 5659 H 521.542 2.51167 2.7522 0
M  V30 5660 H 521.655 4.29073 2.1315 0
M  V30 5661 H 520.019 2.23635 1.21899 0
M  V30 5662 H 520.802 3.43261 0.0516987 0
M  V30 5663 N 523.247 -0.488276 1.49845 0
M  V30 5664 C 524.493 -1.24065 1.61182 0
M  V30 5665 C 524.848 -1.9004 0.300435 0
M  V30 5666 O 524.141 -1.78341 -0.700365 0
M  V30 5667 C 524.335 -2.32152 2.71735 0
M  V30 5668 C 524.164 -1.76778 4.13497 0
M  V30 5669 C 522.934 -1.57513 4.80123 0
M  V30 5670 C 525.132 -1.27242 4.98311 0
M  V30 5671 N 523.114 -0.972015 6.06156 0
M  V30 5672 C 524.485 -0.791457 6.14928 0
M  V30 5673 C 526.54 -1.15934 4.84214 0
M  V30 5674 C 525.243 -0.208593 7.18997 0
M  V30 5675 C 527.269 -0.590436 5.88445 0
M  V30 5676 C 526.631 -0.119767 7.04298 0
M  V30 5677 H 522.73 -0.443487 0.644083 0
M  V30 5678 H 525.314 -0.545551 1.86901 0
M  V30 5679 H 523.485 -2.99108 2.47768 0
M  V30 5680 H 525.217 -2.99187 2.72523 0
M  V30 5681 H 521.972 -1.82247 4.37131 0
M  V30 5682 H 522.396 -0.689367 6.73481 0
M  V30 5683 H 527.038 -1.5092 3.94947 0
M  V30 5684 H 524.756 0.153501 8.07954 0
M  V30 5685 H 528.342 -0.505548 5.79599 0
M  V30 5686 H 527.222 0.313568 7.83573 0
M  V30 5687 N 524.725 -1.39134 -0.740242 0
M  V30 5688 C 526.141 -1.20623 -1.0451 0
M  V30 5689 C 526.341 -0.0641651 -2.01398 0
M  V30 5690 O 525.397 0.585843 -2.4561 0
M  V30 5691 C 526.71 -2.53815 -1.6124 0
M  V30 5692 C 528.258 -2.60615 -1.73346 0
M  V30 5693 C 528.733 -3.94015 -2.33486 0
M  V30 5694 N 530.224 -3.95627 -2.40902 0
M  V30 5695 C 530.959 -4.95616 -2.88361 0
M  V30 5696 N 530.455 -6.06003 -3.35756 0
M  V30 5697 N 532.248 -4.82998 -2.87523 0
M  V30 5698 H 524.399 -2.12176 -0.0975576 0
M  V30 5699 H 526.662 -0.942066 -0.105904 0
M  V30 5700 H 526.368 -3.37911 -0.975144 0
M  V30 5701 H 526.242 -2.73162 -2.6012 0
M  V30 5702 H 528.629 -1.76906 -2.36195 0
M  V30 5703 H 528.71 -2.45123 -0.731336 0
M  V30 5704 H 528.354 -4.78153 -1.71267 0
M  V30 5705 H 528.284 -4.06825 -3.34366 0
M  V30 5706 H 530.775 -3.15903 -2.07398 0
M  V30 5707 H 531.088 -6.78215 -3.70464 0
M  V30 5708 H 529.433 -6.09604 -3.33778 0
M  V30 5709 H 532.624 -3.95866 -2.49816 0
M  V30 5710 H 532.797 -5.61072 -3.24196 0
M  V30 5711 N 526.204 0.969867 -1.24223 0
M  V30 5712 C 527.452 1.70918 -1.0785 0
M  V30 5713 C 527.773 1.91186 0.383763 0
M  V30 5714 O 527.043 1.48806 1.27411 0
M  V30 5715 H 525.623 0.633334 -0.396103 0
M  V30 5716 H 528.285 1.16689 -1.56108 0
M  V30 5717 H 527.381 2.69455 -1.57482 0
M  V30 5718 N 527.682 1.05563 1.17022 0
M  V30 5719 C 528.93 0.76642 1.87004 0
M  V30 5720 C 529.251 -0.708854 1.8166 0
M  V30 5721 O 528.521 -1.51242 1.2451 0
M  V30 5722 H 527.101 0.280516 0.692329 0
M  V30 5723 H 529.763 1.33557 1.41945 0
M  V30 5724 H 528.859 1.08472 2.92644 0
M  V30 5725 N 529.16 -1.33526 0.837174 0
M  V30 5726 C 530.07 -2.33023 0.271568 0
M  V30 5727 C 531.086 -1.63272 -0.601514 0
M  V30 5728 O 532.262 -1.94939 -0.506038 0
M  V30 5729 C 529.327 -3.42382 -0.545448 0
M  V30 5730 C 528.388 -4.27857 0.351709 0
M  V30 5731 C 527.621 -5.31994 -0.426409 0
M  V30 5732 O 527.844 -5.45763 -1.65828 0
M  V30 5733 O 526.778 -6.01572 0.1987 0
M  V30 5734 H 530.604 -2.83256 1.09545 0
M  V30 5735 H 528.189 -1.36837 0.599655 0
M  V30 5736 H 530.071 -4.09122 -1.00979 0
M  V30 5737 H 528.746 -2.94369 -1.34641 0
M  V30 5738 H 527.653 -3.6399 0.863853 0
M  V30 5739 H 528.986 -4.79349 1.1174 0
M  V30 5740 N 530.638 -0.59345 -1.46 0
M  V30 5741 C 531.884 -0.0832754 -2.02629 0
M  V30 5742 C 532.217 1.27749 -1.46266 0
M  V30 5743 O 531.492 1.8395 -0.631866 0
M  V30 5744 C 531.775 -0.0290756 -3.60088 0
M  V30 5745 C 531.628 -1.41951 -4.26814 0
M  V30 5746 C 532.947 0.666055 -4.35031 0
M  V30 5747 H 530.066 -0.031736 -0.736316 0
M  V30 5748 H 532.708 -0.762711 -1.74019 0
M  V30 5749 H 530.858 0.549532 -3.84594 0
M  V30 5750 H 532.53 -2.04411 -4.13538 0
M  V30 5751 H 530.773 -1.98422 -3.8576 0
M  V30 5752 H 531.444 -1.33395 -5.3564 0
M  V30 5753 H 533.92 0.174401 -4.15734 0
M  V30 5754 H 532.796 0.673041 -5.44758 0
M  V30 5755 H 533.057 1.72946 -4.06869 0
M  V30 5756 N 532.116 1.54067 -0.331816 0
M  V30 5757 C 533.532 1.59587 0.0205388 0
M  V30 5758 C 533.732 1.34813 1.49759 0
M  V30 5759 O 532.788 1.13661 2.25471 0
M  V30 5760 C 534.101 2.97959 -0.405103 0
M  V30 5761 C 535.649 3.10964 -0.356454 0
M  V30 5762 C 536.124 4.51694 -0.757384 0
M  V30 5763 N 537.615 4.57709 -0.71111 0
M  V30 5764 C 538.35 5.64729 -0.993427 0
M  V30 5765 N 537.846 6.79652 -1.3433 0
M  V30 5766 N 539.639 5.54546 -0.918442 0
M  V30 5767 H 531.79 1.68426 -1.29407 0
M  V30 5768 H 534.053 0.78819 -0.526745 0
M  V30 5769 H 533.759 3.21115 -1.43451 0
M  V30 5770 H 533.633 3.76524 0.225692 0
M  V30 5771 H 536.02 2.87538 0.663763 0
M  V30 5772 H 536.101 2.34484 -1.02229 0
M  V30 5773 H 535.745 4.75853 -1.77555 0
M  V30 5774 H 535.675 5.26555 -0.0691444 0
M  V30 5775 H 538.166 3.75176 -0.452883 0
M  V30 5776 H 538.479 7.57221 -1.54388 0
M  V30 5777 H 536.824 6.81128 -1.38164 0
M  V30 5778 H 540.015 4.63641 -0.644536 0
M  V30 5779 H 540.188 6.37861 -1.14181 0
M  V30 5780 N 533.594 0.0601682 1.57485 0
M  V30 5781 C 534.541 -0.91112 2.12055 0
M  V30 5782 C 535.511 -1.30298 1.03013 0
M  V30 5783 O 536.696 -1.39087 1.30612 0
M  V30 5784 C 533.836 -2.1775 2.67729 0
M  V30 5785 C 532.949 -1.83933 3.90887 0
M  V30 5786 C 532.084 -3.05096 4.34845 0
M  V30 5787 C 531.123 -2.67241 5.5068 0
M  V30 5788 N 530.26 -3.81127 5.8965 0
M  V30 5789 H 535.1 -0.43888 2.9475 0
M  V30 5790 H 532.637 -0.204995 1.45665 0
M  V30 5791 H 534.595 -2.91866 2.98111 0
M  V30 5792 H 533.225 -2.62535 1.87816 0
M  V30 5793 H 532.277 -0.999287 3.6704 0
M  V30 5794 H 533.589 -1.52074 4.75052 0
M  V30 5795 H 532.743 -3.87502 4.66827 0
M  V30 5796 H 531.482 -3.40139 3.49509 0
M  V30 5797 H 530.487 -1.83254 5.18361 0
M  V30 5798 H 531.712 -2.3338 6.37738 0
M  V30 5799 H 529.658 -4.15954 5.07266 0
M  V30 5800 H 529.575 -3.52997 6.68528 0
M  V30 5801 H 530.843 -4.64145 6.2625 0
M  V30 5802 N 535.072 -1.5615 -0.213296 0
M  V30 5803 C 535.982 -1.96265 -1.28519 0
M  V30 5804 C 536.998 -0.86765 -1.50824 0
M  V30 5805 O 538.174 -1.17191 -1.63793 0
M  V30 5806 C 535.239 -2.27836 -2.61327 0
M  V30 5807 C 534.3 -3.50949 -2.47252 0
M  V30 5808 C 533.533 -3.81004 -3.73727 0
M  V30 5809 O 533.756 -3.12612 -4.77106 0
M  V30 5810 O 532.69 -4.74477 -3.70344 0
M  V30 5811 H 536.516 -2.87631 -0.974795 0
M  V30 5812 H 534.101 -1.43467 -0.416832 0
M  V30 5813 H 535.983 -2.49299 -3.39747 0
M  V30 5814 H 534.658 -1.39643 -2.9203 0
M  V30 5815 H 533.565 -3.34754 -1.67004 0
M  V30 5816 H 534.898 -4.39551 -2.21486 0
M  V30 5817 N 536.55 0.480323 -1.50102 0
M  V30 5818 C 537.796 1.23489 -1.60867 0
M  V30 5819 C 538.129 1.91809 -0.303827 0
M  V30 5820 O 537.404 1.81694 0.694092 0
M  V30 5821 C 537.687 2.28578 -2.78252 0
M  V30 5822 C 537.54 1.64624 -4.18592 0
M  V30 5823 C 538.859 3.2997 -2.91218 0
M  V30 5824 H 535.978 0.447605 -0.585507 0
M  V30 5825 H 538.62 0.530005 -1.82458 0
M  V30 5826 H 536.77 2.88697 -2.59974 0
M  V30 5827 H 538.442 1.08173 -4.48438 0
M  V30 5828 H 536.685 0.949645 -4.23278 0
M  V30 5829 H 537.356 2.40946 -4.96638 0
M  V30 5830 H 539.832 2.79864 -3.07921 0
M  V30 5831 H 538.708 4.00839 -3.74993 0
M  V30 5832 H 538.969 3.93541 -2.0144 0
M  V30 5833 N 538.028 1.39524 0.732853 0
M  V30 5834 C 538.975 1.38416 1.84688 0
M  V30 5835 C 539.945 0.243539 1.64305 0
M  V30 5836 O 541.13 0.438979 1.85681 0
M  V30 5837 C 538.27 1.23555 3.22224 0
M  V30 5838 C 537.383 2.47179 3.54298 0
M  V30 5839 C 536.518 2.2489 4.81246 0
M  V30 5840 C 535.557 3.44178 5.0617 0
M  V30 5841 N 534.694 3.21192 6.24323 0
M  V30 5842 H 539.534 2.33645 1.84971 0
M  V30 5843 H 537.071 1.16059 0.903804 0
M  V30 5844 H 539.029 1.12949 4.0162 0
M  V30 5845 H 537.659 0.31954 3.21215 0
M  V30 5846 H 536.711 2.68379 2.69587 0
M  V30 5847 H 538.023 3.36022 3.68633 0
M  V30 5848 H 537.177 2.11538 5.68627 0
M  V30 5849 H 535.916 1.33443 4.69089 0
M  V30 5850 H 534.921 3.58025 4.17251 0
M  V30 5851 H 536.146 4.36528 5.20212 0
M  V30 5852 H 534.092 2.32413 6.1345 0
M  V30 5853 H 534.009 4.03594 6.39256 0
M  V30 5854 H 535.277 3.1154 7.14537 0
M  V30 5855 N 539.506 -0.963266 1.24736 0
M  V30 5856 C 540.783 -1.68248 0.9976 0
M  V30 5857 C 541.163 -2.05599 -0.478776 0
M  V30 5858 O 540.511 -1.7626 -1.45412 0
M  V30 5859 C 540.721 -2.91118 1.92487 0
M  V30 5860 C 542.069 -3.63261 2.19833 0
M  V30 5861 O 543.093 -3.01184 1.90176 0
M  V30 5862 O 541.952 -4.75019 2.7022 0
M  V30 5863 H 539.046 -0.735744 0.377637 0
M  V30 5864 H 541.592 -1.01696 1.35853 0
M  V30 5865 H 540.364 -2.60242 2.92215 0
M  V30 5866 H 539.987 -3.65402 1.56738 0
M  V30 5867 N 540.985 -1.06182 -1.16461 0
M  V30 5868 C 542.213 -0.798583 -1.90867 0
M  V30 5869 C 542.628 0.646921 -1.77371 0
M  V30 5870 O 541.985 1.44279 -1.11758 0
M  V30 5871 C 542.036 -1.18258 -3.4161 0
M  V30 5872 O 541.757 -2.57135 -3.54701 0
M  V30 5873 C 543.258 -0.946917 -4.33069 0
M  V30 5874 H 540.478 -0.289603 -0.605286 0
M  V30 5875 H 543.022 -1.41515 -1.47627 0
M  V30 5876 H 541.177 -0.610562 -3.82558 0
M  V30 5877 H 541.591 -2.72477 -4.4817 0
M  V30 5878 H 543.065 -1.26523 -5.37304 0
M  V30 5879 H 543.542 0.117406 -4.39043 0
M  V30 5880 H 544.148 -1.50326 -3.97847 0
M  V30 5881 N 542.463 1.3308 -0.844243 0
M  V30 5882 C 543.393 2.3161 -0.296493 0
M  V30 5883 C 544.374 1.59215 0.598707 0
M  V30 5884 O 545.559 1.87077 0.521134 0
M  V30 5885 C 542.689 3.43313 0.524762 0
M  V30 5886 C 541.643 4.27115 -0.275106 0
M  V30 5887 C 540.969 5.30483 0.670236 0
M  V30 5888 C 542.269 5.00443 -1.49514 0
M  V30 5889 H 543.963 2.77672 -1.11976 0
M  V30 5890 H 541.509 1.33496 -0.539899 0
M  V30 5891 H 543.462 4.11273 0.918298 0
M  V30 5892 H 542.186 2.95952 1.3813 0
M  V30 5893 H 540.845 3.60787 -0.650267 0
M  V30 5894 H 540.493 4.79379 1.52332 0
M  V30 5895 H 540.193 5.87435 0.139123 0
M  V30 5896 H 541.717 6.01308 1.06117 0
M  V30 5897 H 543.131 5.61141 -1.17447 0
M  V30 5898 H 541.528 5.67071 -1.96343 0
M  V30 5899 H 542.598 4.28906 -2.26202 0
M  V30 5900 N 543.941 0.601185 1.45683 0
M  V30 5901 C 544.851 -0.123395 2.34275 0
M  V30 5902 C 545.867 -0.86702 1.5086 0
M  V30 5903 O 547.043 -0.826049 1.8368 0
M  V30 5904 C 544.108 -1.11237 3.2837 0
M  V30 5905 C 543.169 -0.371405 4.2769 0
M  V30 5906 C 542.402 -1.31327 5.1729 0
M  V30 5907 O 542.625 -2.55078 5.10188 0
M  V30 5908 O 541.559 -0.813811 5.96373 0
M  V30 5909 H 545.385 0.604483 2.97623 0
M  V30 5910 H 542.97 0.361477 1.44961 0
M  V30 5911 H 544.852 -1.68214 3.8637 0
M  V30 5912 H 543.527 -1.82139 2.67595 0
M  V30 5913 H 542.434 0.24067 3.73325 0
M  V30 5914 H 543.767 0.296998 4.91303 0
M  V30 5915 N 545.419 -1.53889 0.339982 0
M  V30 5916 C 546.366 -2.24902 -0.518452 0
M  V30 5917 C 547.336 -1.24593 -1.09844 0
M  V30 5918 O 548.521 -1.53317 -1.13572 0
M  V30 5919 C 545.661 -3.02262 -1.66529 0
M  V30 5920 C 544.774 -4.17418 -1.11295 0
M  V30 5921 C 543.909 -4.82273 -2.2268 0
M  V30 5922 C 542.948 -5.89503 -1.6478 0
M  V30 5923 N 542.085 -6.48153 -2.69893 0
M  V30 5924 H 546.925 -2.97853 0.0936579 0
M  V30 5925 H 544.462 -1.46986 0.0579924 0
M  V30 5926 H 546.42 -3.45371 -2.3404 0
M  V30 5927 H 545.05 -2.31614 -2.24844 0
M  V30 5928 H 544.102 -3.78976 -0.328886 0
M  V30 5929 H 545.414 -4.94554 -0.649414 0
M  V30 5930 H 544.568 -5.28435 -2.98063 0
M  V30 5931 H 543.307 -4.04552 -2.72376 0
M  V30 5932 H 542.312 -5.42728 -0.879004 0
M  V30 5933 H 543.537 -6.6913 -1.1594 0
M  V30 5934 H 541.483 -5.73298 -3.1885 0
M  V30 5935 H 541.4 -7.20752 -2.28151 0
M  V30 5936 H 542.668 -6.98968 -3.45056 0
M  V30 5937 N 546.897 -0.0685191 -1.57451 0
M  V30 5938 C 547.86 0.885173 -2.11417 0
M  V30 5939 C 548.86 1.22853 -1.03748 0
M  V30 5940 O 550.05 1.16235 -1.2975 0
M  V30 5941 C 547.182 2.18964 -2.61281 0
M  V30 5942 H 548.375 0.417034 -2.96986 0
M  V30 5943 H 545.928 0.18014 -1.55258 0
M  V30 5944 H 546.663 2.70321 -1.79156 0
M  V30 5945 H 546.448 1.9534 -3.39977 0
M  V30 5946 H 547.938 2.87242 -3.0312 0
M  V30 5947 N 548.375 1.56261 0.205012 0
M  V30 5948 C 549.322 1.93754 1.25411 0
M  V30 5949 C 550.292 0.796826 1.45739 0
M  V30 5950 O 551.477 1.05414 1.59036 0
M  V30 5951 C 548.617 2.27383 2.59598 0
M  V30 5952 C 547.73 3.5447 2.46931 0
M  V30 5953 C 546.865 3.77468 3.73753 0
M  V30 5954 C 545.904 4.98014 3.55877 0
M  V30 5955 N 545.041 5.17316 4.74688 0
M  V30 5956 H 549.881 2.83203 0.92737 0
M  V30 5957 H 547.418 1.40158 0.446574 0
M  V30 5958 H 549.376 2.44895 3.37761 0
M  V30 5959 H 548.006 1.41088 2.90335 0
M  V30 5960 H 547.058 3.45061 1.60116 0
M  V30 5961 H 548.37 4.42789 2.29651 0
M  V30 5962 H 547.524 3.95165 4.60358 0
M  V30 5963 H 546.263 2.87461 3.93976 0
M  V30 5964 H 545.268 4.80249 2.67657 0
M  V30 5965 H 546.493 5.8952 3.37109 0
M  V30 5966 H 544.439 4.30255 4.95194 0
M  V30 5967 H 544.356 5.99796 4.60197 0
M  V30 5968 H 545.624 5.39463 5.62672 0
M  V30 5969 N 549.853 -0.472356 1.50355 0
M  V30 5970 C 550.816 -1.5529 1.68576 0
M  V30 5971 C 551.816 -1.50863 0.556511 0
M  V30 5972 O 553.006 -1.53505 0.823516 0
M  V30 5973 C 550.138 -2.94921 1.70981 0
M  V30 5974 H 551.331 -1.40451 2.64978 0
M  V30 5975 H 548.884 -0.698645 1.39816 0
M  V30 5976 H 549.619 -3.15204 0.762675 0
M  V30 5977 H 549.404 -2.99541 2.53017 0
M  V30 5978 H 550.894 -3.73372 1.87037 0
M  V30 5979 N 551.331 -1.39911 -0.725443 0
M  V30 5980 C 552.556 -1.41137 -1.5197 0
M  V30 5981 C 552.981 -0.010262 -1.88097 0
M  V30 5982 O 552.339 0.979184 -1.52583 0
M  V30 5983 C 552.387 -2.2994 -2.77777 0
M  V30 5984 O 551.491 -1.73586 -3.74088 0
M  V30 5985 H 550.832 -0.480219 -0.458569 0
M  V30 5986 H 553.362 -1.84023 -0.894249 0
M  V30 5987 H 553.372 -2.44785 -3.26411 0
M  V30 5988 H 552.047 -3.31759 -2.50816 0
M  V30 5989 H 550.624 -1.68035 -3.32894 0
M  V30 5990 N 552.809 0.956637 -1.25245 0
M  V30 5991 C 554.034 1.74104 -1.12706 0
M  V30 5992 C 554.459 1.85436 0.315429 0
M  V30 5993 O 553.817 1.33334 1.22848 0
M  V30 5994 C 553.865 3.1338 -1.78396 0
M  V30 5995 O 552.969 3.98485 -1.06224 0
M  V30 5996 H 552.31 0.53476 -0.393609 0
M  V30 5997 H 554.84 1.19924 -1.65769 0
M  V30 5998 H 554.85 3.6385 -1.846 0
M  V30 5999 H 553.525 3.04448 -2.83345 0
M  V30 6000 H 552.102 3.56952 -1.07886 0
M  V30 6001 O 554.326 1.1921 1.08956 0
M  V30 6002 H 555.017 0.939352 1.69399 0
M  V30 END ATOM
M  V30 BEGIN BOND
M  V30 END BOND
M  V30 END CTAB
M  END
$$$$
