drugbank_target|O67854 Transporter (DB08472; DB08544)
 OpenBabel12092120433D

  0  0  0     0  0            999 V3000
M  V30 BEGIN CTAB
M  V30 COUNTS 8255 8383 0 0 0
M  V30 BEGIN ATOM
M  V30 1 H -0.908 1.98254 -0.117106 0
M  V30 2 N 0 1.576 0 0
M  V30 3 C 0.933 2.03868 1.02534 0
M  V30 4 C 1.911 0.928543 1.3348 0
M  V30 5 O 3.095 1.19667 1.45644 0
M  V30 6 C 0.222 2.43627 2.35294 0
M  V30 7 C -0.732 3.65373 2.2001 0
M  V30 8 S 0.101 5.13292 1.52614 0
M  V30 9 C 1.257 5.56322 2.86805 0
M  V30 10 H 1.49 2.90518 0.631377 0
M  V30 11 H -0.977 1.52953 0.210867 0
M  V30 12 H 0.981 2.67203 3.11629 0
M  V30 13 H -0.358 1.57376 2.7183 0
M  V30 14 H -1.165 3.90944 3.18086 0
M  V30 15 H -1.563 3.418 1.51819 0
M  V30 16 H 0.729 5.58782 3.83104 0
M  V30 17 H 1.672 6.56266 2.65933 0
M  V30 18 H 2.08 4.83886 2.90714 0
M  V30 19 N 1.4781 -0.272755 1.55222 0
M  V30 20 C 2.3881 -1.35918 1.91216 0
M  V30 21 C 3.4041 -1.54026 0.809436 0
M  V30 22 O 4.5801 -1.68148 1.10852 0
M  V30 23 C 1.6451 -2.69834 2.17693 0
M  V30 24 C 0.7061 -2.6047 3.41253 0
M  V30 25 C -0.0609 -3.88 3.66458 0
M  V30 26 O 0.1621 -4.88693 2.94169 0
M  V30 27 O -0.9039 -3.88189 4.59992 0
M  V30 28 H 2.9221 -1.0839 2.83699 0
M  V30 29 H 0.5071 -0.471301 1.41771 0
M  V30 30 H 2.3891 -3.49017 2.36147 0
M  V30 31 H 1.0641 -2.97148 1.28392 0
M  V30 32 H -0.0289 -1.79663 3.28134 0
M  V30 33 H 1.3041 -2.38106 4.30774 0
M  V30 34 N 2.9562 -1.48159 -0.537278 0
M  V30 35 C 4.2022 -1.56035 -1.29541 0
M  V30 36 C 4.5352 -0.230377 -1.92829 0
M  V30 37 O 3.8102 0.762952 -1.78911 0
M  V30 38 C 4.0932 -2.69323 -2.39034 0
M  V30 39 C 3.9462 -4.12002 -1.80485 0
M  V30 40 C 5.2652 -2.78408 -3.40847 0
M  V30 41 H 2.3842 -0.567992 -0.469632 0
M  V30 42 H 5.0262 -1.80302 -0.599277 0
M  V30 43 H 3.1762 -2.48763 -2.98412 0
M  V30 44 H 4.8482 -4.43981 -1.25215 0
M  V30 45 H 3.0912 -4.19344 -1.11055 0
M  V30 46 H 3.7622 -4.87077 -2.59731 0
M  V30 47 H 6.2382 -2.97012 -2.91416 0
M  V30 48 H 5.1142 -3.59416 -4.14863 0
M  V30 49 H 5.3752 -1.86269 -4.00944 0
M  V30 50 N 4.4343 0.785586 -1.36625 0
M  V30 51 C 5.3813 1.89838 -1.31264 0
M  V30 52 C 6.3513 1.65115 -0.180633 0
M  V30 53 O 7.5363 1.87222 -0.36777 0
M  V30 54 C 4.6763 3.26706 -1.11163 0
M  V30 55 C 3.7893 3.63476 -2.33472 0
M  V30 56 C 2.9243 4.89481 -2.06353 0
M  V30 57 C 1.9633 5.18941 -3.24602 0
M  V30 58 N 1.1003 6.36131 -2.97123 0
M  V30 59 H 5.9403 1.93756 -2.26413 0
M  V30 60 H 3.4773 0.947454 -1.12524 0
M  V30 61 H 5.4353 4.05639 -0.975337 0
M  V30 62 H 4.0653 3.222 -0.196674 0
M  V30 63 H 3.1173 2.79636 -2.57891 0
M  V30 64 H 4.4293 3.81193 -3.21704 0
M  V30 65 H 3.5833 5.76288 -1.89675 0
M  V30 66 H 2.3223 4.73841 -1.15437 0
M  V30 67 H 1.3273 4.30615 -3.41834 0
M  V30 68 H 2.5523 5.36498 -4.16349 0
M  V30 69 H 0.4983 6.21875 -2.08823 0
M  V30 70 H 0.4153 6.54198 -3.78894 0
M  V30 71 H 1.6833 7.2591 -2.84033 0
M  V30 72 N 5.9124 1.20967 1.01018 0
M  V30 73 C 7.3284 0.965905 1.27053 0
M  V30 74 C 7.5284 -0.350785 1.98423 0
M  V30 75 O 6.5844 -1.07773 2.28344 0
M  V30 76 C 7.8974 2.15294 2.09926 0
M  V30 77 C 9.4454 2.19463 2.23171 0
M  V30 78 C 9.9204 3.3767 3.09424 0
M  V30 79 N 11.4114 3.37724 3.17012 0
M  V30 80 C 12.1464 4.25837 3.83993 0
M  V30 81 N 11.6424 5.24138 4.53047 0
M  V30 82 N 13.4354 4.1366 3.80581 0
M  V30 83 H 5.5864 2.0565 0.531194 0
M  V30 84 H 7.8494 0.90024 0.297106 0
M  V30 85 H 7.5554 3.10684 1.64828 0
M  V30 86 H 7.4294 2.13923 3.10672 0
M  V30 87 H 9.8164 1.24632 2.6749 0
M  V30 88 H 9.8974 2.2488 1.21912 0
M  V30 89 H 9.5414 4.32791 2.65808 0
M  V30 90 H 9.4714 3.29491 4.10784 0
M  V30 91 H 11.9624 2.6658 2.6785 0
M  V30 92 H 12.2754 5.87684 5.01844 0
M  V30 93 H 10.6204 5.28068 4.5185 0
M  V30 94 H 13.8114 3.36127 3.25785 0
M  V30 95 H 13.9844 4.82538 4.32505 0
M  V30 96 N 7.3905 -1.2043 1.01659 0
M  V30 97 C 8.3005 -2.2689 0.596484 0
M  V30 98 C 9.3165 -1.70107 -0.36599 0
M  V30 99 O 10.4925 -2.00117 -0.226942 0
M  V30 100 C 7.5575 -3.4665 -0.0586659 0
M  V30 101 C 6.6185 -4.18662 0.949751 0
M  V30 102 C 5.8515 -5.32705 0.32577 0
M  V30 103 O 6.0745 -5.63656 -0.874509 0
M  V30 104 O 5.0085 -5.92803 1.04249 0
M  V30 105 H 8.8345 -2.65041 1.4828 0
M  V30 106 H 6.4195 -1.27048 0.786082 0
M  V30 107 H 8.3015 -4.19256 -0.424564 0
M  V30 108 H 6.9765 -3.10375 -0.91918 0
M  V30 109 H 5.8835 -3.48229 1.36702 0
M  V30 110 H 7.2165 -4.58878 1.78023 0
M  V30 111 N 8.8686 -0.792821 -1.36206 0
M  V30 112 C 9.8186 -0.166598 -2.27391 0
M  V30 113 C 10.8026 0.651479 -1.47121 0
M  V30 114 O 11.9946 0.510994 -1.69463 0
M  V30 115 C 9.1236 0.695033 -3.36191 0
M  V30 116 C 8.2096 -0.132019 -4.23894 0
M  V30 117 N 8.6006 -1.18822 -4.91645 0
M  V30 118 C 6.8986 0.0885952 -4.45912 0
M  V30 119 C 7.5996 -1.69198 -5.56549 0
M  V30 120 N 6.5756 -1.00065 -5.34311 0
M  V30 121 H 10.3776 -0.974947 -2.77258 0
M  V30 122 H 7.8916 -0.632616 -1.49572 0
M  V30 123 H 9.8886 1.1596 -4.00448 0
M  V30 124 H 8.5486 1.50189 -2.87877 0
M  V30 125 H 9.5596 -1.57069 -4.93507 0
M  V30 126 H 6.2366 0.865688 -4.08426 0
M  V30 127 H 7.6266 -2.57395 -6.20643 0
M  V30 128 N 10.3467 1.47872 -0.545128 0
M  V30 129 C 11.5927 2.03385 -0.0247951 0
M  V30 130 C 11.9477 1.41325 1.30556 0
M  V30 131 O 11.2407 0.5552 1.8338 0
M  V30 132 C 11.4347 3.57131 0.13867 0
M  V30 133 C 11.2637 4.34097 -1.17429 0
M  V30 134 C 10.0337 4.74458 -1.73831 0
M  V30 135 C 12.2317 4.6998 -2.08861 0
M  V30 136 N 10.2137 5.3602 -2.99258 0
M  V30 137 C 11.5847 5.31719 -3.18866 0
M  V30 138 C 13.6397 4.5191 -2.09003 0
M  V30 139 C 12.3427 5.77295 -4.29096 0
M  V30 140 C 14.3687 4.98477 -3.18237 0
M  V30 141 C 13.7307 5.60253 -4.26961 0
M  V30 142 H 9.8297 0.780339 -0.050943 0
M  V30 143 H 12.4137 1.80507 -0.729753 0
M  V30 144 H 10.5847 3.79802 0.812733 0
M  V30 145 H 12.3167 3.99282 0.659976 0
M  V30 146 H 9.0717 4.56037 -1.2778 0
M  V30 147 H 9.4957 5.71355 -3.63157 0
M  V30 148 H 14.1377 4.03516 -1.26234 0
M  V30 149 H 11.8557 6.24687 -5.12633 0
M  V30 150 H 15.4417 4.86274 -3.1942 0
M  V30 151 H 14.3217 5.95631 -5.10091 0
M  V30 152 N 11.8248 0.280983 1.55075 0
M  V30 153 C 12.7878 -0.590896 2.21452 0
M  V30 154 C 13.7878 -1.07682 1.19421 0
M  V30 155 O 14.9778 -0.97605 1.44288 0
M  V30 156 C 12.1098 -1.81587 2.88511 0
M  V30 157 H 13.3028 -0.0112554 2.99898 0
M  V30 158 H 10.8558 0.0316438 1.56268 0
M  V30 159 H 11.5908 -2.43587 2.14093 0
M  V30 160 H 11.3758 -1.4753 3.63287 0
M  V30 161 H 12.8658 -2.43575 3.39206 0
M  V30 162 N 13.3029 -1.57598 0.00835791 0
M  V30 163 C 14.5309 -1.95214 -0.68549 0
M  V30 164 C 14.9459 -0.883706 -1.66841 0
M  V30 165 O 14.3029 0.136565 -1.81988 0
M  V30 166 C 14.3539 -3.32865 -1.41007 0
M  V30 167 O 14.0749 -4.35609 -0.466552 0
M  V30 168 C 15.5759 -3.84991 -2.19765 0
M  V30 169 H 12.7959 -0.643422 -0.190392 0
M  V30 170 H 15.3399 -2.04406 0.0619607 0
M  V30 171 H 13.4949 -3.24956 -2.10908 0
M  V30 172 H 13.9089 -5.15288 -0.978699 0
M  V30 173 H 15.3829 -4.8371 -2.65948 0
M  V30 174 H 15.8599 -3.18137 -3.02796 0
M  V30 175 H 16.4659 -3.96103 -1.54864 0
M  V30 176 N 14.781 0.264519 -1.55364 0
M  V30 177 C 16.197 0.61215 -1.47394 0
M  V30 178 C 16.397 1.89134 -0.695018 0
M  V30 179 O 15.453 2.51563 -0.217275 0
M  V30 180 C 16.766 0.731235 -2.91674 0
M  V30 181 C 18.314 0.82473 -3.01939 0
M  V30 182 C 18.789 0.975522 -4.4749 0
M  V30 183 N 20.28 1.04083 -4.51354 0
M  V30 184 C 21.015 1.17646 -5.61201 0
M  V30 185 N 20.511 1.27874 -6.80896 0
M  V30 186 N 22.304 1.20823 -5.48961 0
M  V30 187 H 14.455 -0.575456 -2.04456 0
M  V30 188 H 16.718 -0.196099 -0.927496 0
M  V30 189 H 16.424 -0.138392 -3.51428 0
M  V30 190 H 16.298 1.60883 -3.41169 0
M  V30 191 H 18.685 1.68482 -2.42276 0
M  V30 192 H 18.766 -0.0776479 -2.55682 0
M  V30 193 H 18.41 0.120058 -5.07758 0
M  V30 194 H 18.34 1.89268 -4.91412 0
M  V30 195 H 20.831 0.973846 -3.65136 0
M  V30 196 H 21.144 1.38081 -7.60364 0
M  V30 197 H 19.489 1.24863 -6.83692 0
M  V30 198 H 22.68 1.12469 -4.54388 0
M  V30 199 H 22.853 1.31049 -6.3461 0
M  V30 200 N 16.2591 1.48442 0.529413 0
M  V30 201 C 17.1891 1.65902 1.64313 0
M  V30 202 C 18.1701 0.507897 1.6234 0
M  V30 203 O 19.3551 0.740503 1.79528 0
M  V30 204 C 16.4851 1.69911 3.02898 0
M  V30 205 C 15.4391 2.8453 3.19729 0
M  V30 206 C 14.7651 2.73629 4.59381 0
M  V30 207 C 16.0651 4.25821 3.02447 0
M  V30 208 H 17.7591 2.5914 1.49955 0
M  V30 209 H 15.3051 1.24709 0.719982 0
M  V30 210 H 17.2581 1.80715 3.80684 0
M  V30 211 H 15.9821 0.732524 3.18279 0
M  V30 212 H 14.6411 2.73283 2.44361 0
M  V30 213 H 14.2891 1.74938 4.71599 0
M  V30 214 H 13.9891 3.50541 4.71588 0
M  V30 215 H 15.5131 2.86401 5.39265 0
M  V30 216 H 16.9271 4.37898 3.70024 0
M  V30 217 H 15.3241 5.03735 3.26146 0
M  V30 218 H 16.3941 4.42244 1.98867 0
M  V30 219 N 17.7372 -0.778329 1.37039 0
M  V30 220 C 18.9852 -1.53361 1.31623 0
M  V30 221 C 19.3062 -1.94739 -0.100831 0
M  V30 222 O 18.5762 -1.65797 -1.04347 0
M  V30 223 H 17.1562 -0.568794 0.484234 0
M  V30 224 H 19.8182 -0.926742 1.71457 0
M  V30 225 H 18.9142 -2.43606 1.95096 0
M  V30 226 N 19.2153 -1.21501 -1.00376 0
M  V30 227 C 20.1453 -0.999478 -2.11028 0
M  V30 228 C 21.1263 0.0759671 -1.6993 0
M  V30 229 O 22.3113 -0.0841106 -1.94018 0
M  V30 230 C 19.4413 -0.564709 -3.42678 0
M  V30 231 C 18.3953 -1.58486 -3.97576 0
M  V30 232 C 17.7213 -1.00628 -5.25146 0
M  V30 233 C 19.0213 -2.97204 -4.29496 0
M  V30 234 H 20.7153 -1.92495 -2.29317 0
M  V30 235 H 18.2613 -0.92693 -1.102 0
M  V30 236 H 20.2143 -0.401091 -4.19487 0
M  V30 237 H 18.9383 0.396411 -3.24185 0
M  V30 238 H 17.5973 -1.73606 -3.22888 0
M  V30 239 H 17.2453 -0.0368439 -5.02987 0
M  V30 240 H 16.9453 -1.68771 -5.62841 0
M  V30 241 H 18.4693 -0.854015 -6.04598 0
M  V30 242 H 19.8833 -2.8552 -4.97143 0
M  V30 243 H 18.2803 -3.62372 -4.78338 0
M  V30 244 H 19.3503 -3.47956 -3.3772 0
M  V30 245 N 20.6934 1.19889 -1.02296 0
M  V30 246 C 21.9424 1.88743 -0.711257 0
M  V30 247 C 22.2554 1.80112 0.762817 0
M  V30 248 O 23.4614 2.44161 1.18733 0
M  V30 249 C 21.9174 3.38525 -1.22185 0
M  V30 250 C 21.5254 3.55727 -2.72328 0
M  V30 251 C 23.2694 4.12893 -0.985864 0
M  V30 252 C 21.1764 4.99369 -3.16835 0
M  V30 253 H 20.1064 0.706885 -0.262353 0
M  V30 254 H 22.7574 1.35586 -1.23648 0
M  V30 255 H 21.1394 3.91044 -0.624571 0
M  V30 256 H 22.3134 3.13564 -3.3766 0
M  V30 257 H 20.6284 2.94739 -2.9414 0
M  V30 258 H 23.2254 5.18813 -1.29374 0
M  V30 259 H 23.5684 4.16228 0.0775055 0
M  V30 260 H 24.1014 3.66494 -1.54684 0
M  V30 261 H 20.8404 5.01193 -4.22476 0
M  V30 262 H 20.3604 5.42317 -2.56228 0
M  V30 263 H 22.0394 5.67988 -3.09837 0
M  V30 264 N 22.1715 0.800033 1.35784 0
M  V30 265 C 23.1015 0.220184 2.3246 0
M  V30 266 C 24.0825 -0.65073 1.57161 0
M  V30 267 O 25.2675 -0.582359 1.85263 0
M  V30 268 C 22.3975 -0.637353 3.41402 0
M  V30 269 C 21.3515 0.134531 4.27789 0
M  V30 270 C 20.6775 -0.844285 5.27992 0
M  V30 271 C 21.9775 1.32979 5.05088 0
M  V30 272 H 23.6715 1.02787 2.81203 0
M  V30 273 H 21.2175 0.495717 1.35199 0
M  V30 274 H 23.1705 -1.05302 4.08031 0
M  V30 275 H 21.8945 -1.47785 2.91251 0
M  V30 276 H 20.5535 0.531296 3.6273 0
M  V30 277 H 20.2015 -1.68011 4.74111 0
M  V30 278 H 19.9015 -0.332184 5.8666 0
M  V30 279 H 21.4255 -1.2583 5.97494 0
M  V30 280 H 22.8395 0.98934 5.64699 0
M  V30 281 H 21.2365 1.77593 5.7322 0
M  V30 282 H 22.3065 2.11978 4.36111 0
M  V30 283 N 23.6496 -1.47581 0.552962 0
M  V30 284 C 24.6126 -2.28439 -0.186605 0
M  V30 285 C 25.6126 -1.36706 -0.84665 0
M  V30 286 O 26.8026 -1.59378 -0.703164 0
M  V30 287 C 23.9346 -3.16264 -1.2724 0
M  V30 288 H 25.1276 -2.95294 0.523609 0
M  V30 289 H 22.6806 -1.532 0.309745 0
M  V30 290 H 23.4156 -2.54091 -2.01514 0
M  V30 291 H 23.2006 -3.83769 -0.803968 0
M  V30 292 H 24.6906 -3.77198 -1.79196 0
M  V30 293 N 25.1277 -0.289203 -1.54924 0
M  V30 294 C 26.0607 0.633823 -2.19221 0
M  V30 295 C 27.0387 1.14174 -1.15772 0
M  V30 296 O 28.2227 1.21211 -1.44361 0
M  V30 297 C 25.3497 1.86592 -2.82668 0
M  V30 298 C 24.3957 1.49227 -3.99542 0
M  V30 299 S 25.2287 0.558312 -5.32582 0
M  V30 300 C 26.3847 1.79847 -5.99505 0
M  V30 301 H 26.6177 0.0875416 -2.97171 0
M  V30 302 H 24.1507 -0.0733899 -1.54225 0
M  V30 303 H 26.1087 2.57305 -3.19851 0
M  V30 304 H 24.7697 2.38335 -2.04585 0
M  V30 305 H 23.9627 2.40945 -4.42676 0
M  V30 306 H 23.5647 0.865193 -3.63855 0
M  V30 307 H 25.8567 2.7406 -6.19595 0
M  V30 308 H 26.7997 1.4099 -6.93922 0
M  V30 309 H 27.2077 1.96982 -5.29016 0
M  V30 310 N 26.6058 1.57591 -0.0167156 0
M  V30 311 C 27.5688 2.08393 0.954204 0
M  V30 312 C 28.5688 0.996531 1.26198 0
M  V30 313 O 29.7588 1.25858 1.20438 0
M  V30 314 C 26.8908 2.5394 2.27436 0
M  V30 315 H 28.0838 2.95455 0.514451 0
M  V30 316 H 25.6368 1.54582 0.231089 0
M  V30 317 H 26.3718 1.70171 2.76066 0
M  V30 318 H 26.1568 3.33371 2.06412 0
M  V30 319 H 27.6468 2.93512 2.97053 0
M  V30 320 N 28.0839 -0.256276 1.55502 0
M  V30 321 C 29.3319 -0.983672 1.76545 0
M  V30 322 C 29.6529 -1.86206 0.578982 0
M  V30 323 O 28.9229 -1.91656 -0.405577 0
M  V30 324 H 27.5029 -0.366191 0.651086 0
M  V30 325 H 30.1649 -0.276479 1.92929 0
M  V30 326 H 29.2609 -1.61087 2.67315 0
M  V30 327 N 29.562 -1.4872 -0.521534 0
M  V30 328 C 30.51 -1.64328 -1.64618 0
M  V30 329 C 31.504 -0.50953 -1.61555 0
M  V30 330 O 32.71 -0.688525 -1.66311 0
M  V30 331 H 29.085 -0.517805 -0.545328 0
M  V30 332 H 31.056 -2.58767 -1.48601 0
M  V30 333 C 29.805 -1.70805 -3.02855 0
M  V30 334 H 29.128 -2.5741 -3.05909 0
M  V30 335 H 30.568 -1.85766 -3.81139 0
M  V30 336 C 29.027 -0.448479 -3.33902 0
M  V30 337 O 29.557 0.434928 -3.99339 0
M  V30 338 N 27.763 -0.317616 -2.88859 0
M  V30 339 H 27.31 -1.03748 -2.35784 0
M  V30 340 H 27.268 0.524113 -3.10001 0
M  V30 341 N 31.0401 0.771051 -1.3745 0
M  V30 342 C 32.0031 1.86598 -1.33093 0
M  V30 343 C 33.0031 1.59076 -0.234845 0
M  V30 344 O 34.1931 1.67145 -0.490732 0
M  V30 345 C 31.3251 3.23747 -1.06773 0
M  V30 346 H 32.5181 1.91873 -2.30488 0
M  V30 347 H 30.0711 0.970876 -1.2249 0
M  V30 348 H 30.8061 3.24148 -0.099129 0
M  V30 349 H 30.5911 3.45115 -1.86112 0
M  V30 350 H 32.0811 4.03824 -1.06377 0
M  V30 351 N 32.5182 1.22032 0.997298 0
M  V30 352 C 33.7642 1.04376 1.73878 0
M  V30 353 C 34.0972 -0.420716 1.89588 0
M  V30 354 O 33.3722 -1.31202 1.43583 0
M  V30 355 C 33.6552 1.75047 3.14691 0
M  V30 356 C 33.5082 3.29062 3.06656 0
M  V30 357 C 34.8272 1.49928 4.13775 0
M  V30 358 H 31.9462 0.380578 0.631133 0
M  V30 359 H 34.5882 1.50312 1.16217 0
M  V30 360 H 32.7382 1.35996 3.63919 0
M  V30 361 H 34.4102 3.7753 2.65083 0
M  V30 362 H 32.6532 3.58967 2.43568 0
M  V30 363 H 33.3242 3.73683 4.06282 0
M  V30 364 H 35.8002 1.83842 3.73285 0
M  V30 365 H 34.6762 2.01878 5.10428 0
M  V30 366 H 34.9372 0.430929 4.39995 0
M  V30 367 N 33.9963 -1.19345 1.0293 0
M  V30 368 C 35.2443 -1.88665 0.724574 0
M  V30 369 C 35.5653 -1.80036 -0.749144 0
M  V30 370 O 34.8353 -1.2111 -1.53978 0
M  V30 371 H 33.4153 -0.698406 0.265025 0
M  V30 372 H 36.0773 -1.44885 1.30362 0
M  V30 373 H 35.1733 -2.94987 1.01926 0
M  V30 374 N 35.4744 -0.807222 -1.35358 0
M  V30 375 C 36.4044 -0.232509 -2.3234 0
M  V30 376 C 37.3854 0.642386 -1.57504 0
M  V30 377 O 38.5704 0.572526 -1.85569 0
M  V30 378 C 35.7004 0.619238 -3.41735 0
M  V30 379 C 34.6544 -0.157215 -4.27711 0
M  V30 380 C 33.9804 0.816273 -5.28433 0
M  V30 381 C 35.2804 -1.35656 -5.04376 0
M  V30 382 H 36.9744 -1.04276 -2.80654 0
M  V30 383 H 34.5204 -0.50288 -1.34934 0
M  V30 384 H 36.4734 1.03137 -4.08584 0
M  V30 385 H 35.1974 1.46239 -2.92031 0
M  V30 386 H 33.8564 -0.550525 -3.62443 0
M  V30 387 H 33.5044 1.65494 -4.74996 0
M  V30 388 H 33.2044 0.301067 -5.86828 0
M  V30 389 H 34.7284 1.22659 -5.98153 0
M  V30 390 H 36.1424 -1.01927 -5.64166 0
M  V30 391 H 34.5394 -1.8063 -5.7227 0
M  V30 392 H 35.6094 -2.14288 -4.34981 0
M  V30 393 N 36.9525 1.47285 -0.560781 0
M  V30 394 C 38.2005 2.02064 -0.0379868 0
M  V30 395 C 38.5215 1.43711 1.31803 0
M  V30 396 O 37.7915 0.61362 1.86042 0
M  V30 397 H 36.3715 0.746918 -0.0110531 0
M  V30 398 H 39.0335 1.80648 -0.731598 0
M  V30 399 H 38.1295 3.12064 0.0474463 0
M  V30 400 N 38.4306 0.297415 1.54768 0
M  V30 401 C 39.3786 -0.596051 2.24833 0
M  V30 402 C 40.3726 -1.13992 1.25308 0
M  V30 403 O 41.5786 -1.09098 1.4317 0
M  V30 404 H 37.9536 -0.210814 0.721846 0
M  V30 405 H 39.9246 0.0174667 2.98395 0
M  V30 406 C 38.6736 -1.75818 2.99972 0
M  V30 407 H 37.9966 -1.3489 3.76357 0
M  V30 408 H 39.4366 -2.35949 3.52284 0
M  V30 409 C 37.8956 -2.66014 2.06732 0
M  V30 410 O 38.4256 -3.67009 1.63302 0
M  V30 411 N 36.6316 -2.33669 1.72763 0
M  V30 412 H 36.1786 -1.51586 2.08277 0
M  V30 413 H 36.1366 -2.94285 1.10652 0
M  V30 414 N 39.9087 -1.5758 0.0250728 0
M  V30 415 C 41.1557 -1.91633 -0.654444 0
M  V30 416 C 41.4837 -0.901103 -1.72367 0
M  V30 417 O 40.7387 0.0905647 -1.9549 0
M  V30 418 C 41.0377 -3.32421 -1.31268 0
M  V30 419 C 40.7037 -4.49344 -0.374223 0
M  V30 420 C 39.3657 -4.8106 -0.115911 0
M  V30 421 C 41.7177 -5.20498 0.270432 0
M  V30 422 C 39.0457 -5.8129 0.79493 0
M  V30 423 C 41.3977 -6.21699 1.1693 0
M  V30 424 C 40.0617 -6.51859 1.43655 0
M  V30 425 H 39.3317 -0.701236 -0.239478 0
M  V30 426 H 41.9787 -1.91307 0.0859734 0
M  V30 427 H 40.2837 -3.28989 -2.12775 0
M  V30 428 H 41.9807 -3.56038 -1.84494 0
M  V30 429 H 38.5707 -4.24579 -0.58573 0
M  V30 430 H 42.7547 -4.96229 0.0839194 0
M  V30 431 H 38.0107 -6.03005 1.00973 0
M  V30 432 H 42.1847 -6.75955 1.67504 0
M  V30 433 H 39.8117 -7.2934 2.144 0
M  V30 434 N 41.3868 0.248026 -1.55636 0
M  V30 435 C 42.3168 1.31079 -1.93237 0
M  V30 436 C 43.2978 1.50264 -0.797174 0
M  V30 437 O 44.4828 1.62891 -1.05737 0
M  V30 438 C 41.6128 2.66575 -2.22609 0
M  V30 439 C 40.5668 2.62087 -3.3837 0
M  V30 440 C 39.8928 4.01369 -3.53281 0
M  V30 441 C 41.1928 2.19171 -4.7409 0
M  V30 442 H 42.8868 0.998556 -2.82257 0
M  V30 443 H 40.4328 0.47891 -1.35803 0
M  V30 444 H 42.3858 3.41057 -2.47503 0
M  V30 445 H 41.1098 2.99432 -1.30414 0
M  V30 446 H 39.7688 1.90063 -3.13483 0
M  V30 447 H 39.4168 4.31489 -2.58508 0
M  V30 448 H 39.1168 3.99254 -4.31127 0
M  V30 449 H 40.6408 4.77552 -3.80495 0
M  V30 450 H 42.0548 2.83384 -4.98363 0
M  V30 451 H 40.4518 2.2817 -5.5503 0
M  V30 452 H 41.5218 1.14336 -4.71227 0
M  V30 453 N 42.8649 1.48995 0.513639 0
M  V30 454 C 44.2809 1.35478 0.843682 0
M  V30 455 C 44.4809 0.378213 1.97919 0
M  V30 456 O 43.5369 -0.194689 2.51748 0
M  V30 457 C 44.8499 2.75901 1.1958 0
M  V30 458 C 46.3979 2.84509 1.30474 0
M  V30 459 C 46.8729 4.25671 1.69021 0
M  V30 460 N 48.3639 4.28422 1.76094 0
M  V30 461 C 49.0989 5.34601 2.07338 0
M  V30 462 N 48.5949 6.5104 2.36894 0
M  V30 463 N 50.3879 5.22007 2.08483 0
M  V30 464 H 42.5389 2.11092 -0.235328 0
M  V30 465 H 44.8019 0.947039 -0.0426669 0
M  V30 466 H 44.5079 3.49001 0.434913 0
M  V30 467 H 44.3819 3.10467 2.1422 0
M  V30 468 H 46.7689 2.11655 2.05637 0
M  V30 469 H 46.8499 2.53542 0.339155 0
M  V30 470 H 46.4939 4.99048 0.944135 0
M  V30 471 H 46.4239 4.54094 2.66658 0
M  V30 472 H 48.9149 3.44441 1.55464 0
M  V30 473 H 49.2279 7.2779 2.59887 0
M  V30 474 H 47.5729 6.54287 2.34378 0
M  V30 475 H 50.7639 4.30051 1.84861 0
M  V30 476 H 50.9369 6.04854 2.325 0
M  V30 477 N 44.343 -0.763751 1.37857 0
M  V30 478 C 45.59 -1.52257 1.33506 0
M  V30 479 C 45.918 -1.94343 -0.078022 0
M  V30 480 O 45.173 -1.64958 -1.05297 0
M  V30 481 C 45.472 -2.79499 2.22745 0
M  V30 482 C 45.138 -2.56426 3.70886 0
M  V30 483 C 43.8 -2.49842 4.11257 0
M  V30 484 C 46.152 -2.36008 4.64704 0
M  V30 485 C 43.48 -2.20841 5.43549 0
M  V30 486 C 45.832 -2.0853 5.97242 0
M  V30 487 C 44.496 -2.00396 6.36709 0
M  V30 488 H 43.766 -0.557149 0.488534 0
M  V30 489 H 46.413 -0.879073 1.70131 0
M  V30 490 H 44.718 -3.48447 1.79142 0
M  V30 491 H 46.415 -3.37413 2.16688 0
M  V30 492 H 43.005 -2.62416 3.38874 0
M  V30 493 H 47.189 -2.40079 4.34368 0
M  V30 494 H 42.445 -2.13045 5.73081 0
M  V30 495 H 46.619 -1.91732 6.69486 0
M  V30 496 H 44.246 -1.77688 7.39142 0
M  V30 497 N 45.8211 -1.22559 -0.990812 0
M  V30 498 C 47.2321 -1.04791 -1.54518 0
M  V30 499 C 47.5831 0.387998 -1.92325 0
M  V30 500 O 46.7081 1.27328 -1.74976 0
M  V30 501 C 47.3031 -1.896 -2.80779 0
M  V30 502 C 45.8621 -1.76124 -3.32652 0
M  V30 503 C 45.0091 -1.8594 -2.05722 0
M  V30 504 H 47.9601 -1.36374 -0.811662 0
M  V30 505 H 47.9811 -1.41464 -3.53225 0
M  V30 506 H 47.4931 -2.94101 -2.53231 0
M  V30 507 H 45.5941 -0.743643 -3.65104 0
M  V30 508 H 45.7071 -2.58913 -4.03114 0
M  V30 509 H 44.0711 -1.29403 -2.19379 0
M  V30 510 H 44.8541 -2.91976 -1.80568 0
M  V30 511 N 47.2992 1.18797 -1.03562 0
M  V30 512 C 48.5452 1.8893 -0.737113 0
M  V30 513 C 48.8782 1.79837 0.732956 0
M  V30 514 O 48.1532 1.19525 1.5344 0
M  V30 515 C 48.4362 3.39607 -1.19745 0
M  V30 516 C 48.2892 3.57537 -2.72924 0
M  V30 517 C 49.6082 4.33069 -0.783526 0
M  V30 518 H 46.7272 0.686057 -0.269249 0
M  V30 519 H 49.3692 1.39797 -1.28673 0
M  V30 520 H 47.5192 3.81583 -0.729855 0
M  V30 521 H 49.1912 3.24688 -3.27682 0
M  V30 522 H 47.4342 3.00363 -3.12993 0
M  V30 523 H 48.1052 4.63238 -3.00191 0
M  V30 524 H 50.5812 3.98846 -1.18581 0
M  V30 525 H 49.4572 5.3707 -1.13343 0
M  V30 526 H 49.7182 4.40986 0.313681 0
M  V30 527 N 48.7773 0.814389 1.34928 0
M  V30 528 C 49.7093 0.187834 2.28429 0
M  V30 529 C 50.7223 -0.617374 1.5064 0
M  V30 530 O 51.9113 -0.448454 1.72775 0
M  V30 531 C 49.0113 -0.755962 3.30361 0
M  V30 532 C 48.1843 0.00456686 4.374 0
M  V30 533 C 47.2433 -0.858876 5.19143 0
M  V30 534 O 46.2693 -0.306968 5.68372 0
M  V30 535 N 47.4713 -2.17988 5.38016 0
M  V30 536 H 50.2363 0.991105 2.82838 0
M  V30 537 H 47.7973 0.670561 1.4736 0
M  V30 538 H 49.7893 -1.338 3.81942 0
M  V30 539 H 48.3593 -1.46001 2.7641 0
M  V30 540 H 47.5793 0.767865 3.86649 0
M  V30 541 H 48.8673 0.528422 5.06049 0
M  V30 542 H 48.2653 -2.65212 4.99679 0
M  V30 543 H 46.8223 -2.71098 5.92747 0
M  V30 544 N 50.2554 -1.46986 0.568584 0
M  V30 545 C 51.2184 -2.28624 -0.162366 0
M  V30 546 C 52.2184 -1.37596 -0.832103 0
M  V30 547 O 53.4084 -1.60115 -0.68622 0
M  V30 548 C 50.5404 -3.17596 -1.23878 0
M  V30 549 H 51.7334 -2.94722 0.554899 0
M  V30 550 H 49.2864 -1.52863 0.325976 0
M  V30 551 H 50.0214 -2.56214 -1.98808 0
M  V30 552 H 49.8064 -3.846 -0.763219 0
M  V30 553 H 51.2964 -3.79078 -1.75185 0
M  V30 554 N 51.7335 -0.305618 -1.54608 0
M  V30 555 C 52.6965 0.555591 -2.22364 0
M  V30 556 C 53.6965 1.05768 -1.21119 0
M  V30 557 O 54.8865 0.952972 -1.45822 0
M  V30 558 C 52.0185 1.76974 -2.91364 0
M  V30 559 H 53.2115 -0.0364572 -2.99878 0
M  V30 560 H 50.7645 -0.0565007 -1.56198 0
M  V30 561 H 51.4995 2.40151 -2.17941 0
M  V30 562 H 51.2845 1.41732 -3.65588 0
M  V30 563 H 52.7745 2.38148 -3.43038 0
M  V30 564 N 53.2116 1.57565 -0.0334293 0
M  V30 565 C 54.1216 2.13943 0.962572 0
M  V30 566 C 55.1376 1.09276 1.35406 0
M  V30 567 O 56.3136 1.41355 1.4346 0
M  V30 568 C 53.3786 2.65887 2.22497 0
M  V30 569 C 52.4396 3.85286 1.8935 0
M  V30 570 C 51.6726 4.34743 3.09571 0
M  V30 571 O 51.8956 3.83352 4.22371 0
M  V30 572 O 50.8296 5.26538 2.91618 0
M  V30 573 H 54.6556 2.99333 0.513169 0
M  V30 574 H 52.2406 1.4822 0.18743 0
M  V30 575 H 54.1226 2.99346 2.96598 0
M  V30 576 H 52.7976 1.83578 2.6661 0
M  V30 577 H 51.7046 3.56746 1.1262 0
M  V30 578 H 53.0376 4.68771 1.5005 0
M  V30 579 N 54.6897 -0.239769 1.55765 0
M  V30 580 C 55.6377 -1.31668 1.91745 0
M  V30 581 C 56.6317 -1.49462 0.797338 0
M  V30 582 O 57.8377 -1.50852 0.982021 0
M  V30 583 H 54.2127 -0.441048 0.609082 0
M  V30 584 H 56.1837 -0.985923 2.81642 0
M  V30 585 C 54.9327 -2.66368 2.2348 0
M  V30 586 H 54.2557 -2.53478 3.09175 0
M  V30 587 H 55.6957 -3.40578 2.52553 0
M  V30 588 C 54.1547 -3.20002 1.05359 0
M  V30 589 O 54.6847 -4.00538 0.305261 0
M  V30 590 N 52.8907 -2.78126 0.842292 0
M  V30 591 H 52.4377 -2.12742 1.45253 0
M  V30 592 H 52.3957 -3.14354 0.053652 0
M  V30 593 N 56.1678 -1.49265 -0.50573 0
M  V30 594 C 57.4158 -1.582 -1.25766 0
M  V30 595 C 57.7368 -0.268482 -1.93143 0
M  V30 596 O 57.0068 0.711833 -1.8251 0
M  V30 597 H 55.5868 -0.582873 -0.467191 0
M  V30 598 H 58.2488 -1.85865 -0.586525 0
M  V30 599 H 57.3448 -2.37563 -2.02412 0
M  V30 600 N 57.6459 0.756429 -1.3826 0
M  V30 601 C 58.8939 1.51248 -1.34047 0
M  V30 602 C 59.2149 1.94875 0.0698372 0
M  V30 603 O 58.4849 1.67436 1.01696 0
M  V30 604 H 57.0649 0.561018 -0.493222 0
M  V30 605 H 59.7269 0.899347 -1.7291 0
M  V30 606 H 58.8229 2.40472 -1.98947 0
M  V30 607 N 59.124 1.23083 0.984299 0
M  V30 608 C 60.372 1.05848 1.72165 0
M  V30 609 C 60.693 -0.406049 1.90726 0
M  V30 610 O 59.963 -1.29139 1.47309 0
M  V30 611 H 58.543 0.388685 0.637913 0
M  V30 612 H 61.205 1.54736 1.18503 0
M  V30 613 H 60.301 1.54327 2.71274 0
M  V30 614 N 60.6021 -1.18246 1.0419 0
M  V30 615 C 61.5651 -2.20128 0.638452 0
M  V30 616 C 62.5651 -1.57885 -0.304805 0
M  V30 617 O 63.7551 -1.73967 -0.0900369 0
M  V30 618 C 60.8871 -3.4084 -0.0637751 0
M  V30 619 H 62.0801 -2.57336 1.54007 0
M  V30 620 H 59.6331 -1.32152 0.834598 0
M  V30 621 H 60.3681 -3.09166 -0.979136 0
M  V30 622 H 60.1531 -3.8726 0.614198 0
M  V30 623 H 61.6431 -4.16274 -0.332512 0
M  V30 624 N 62.0802 -0.821533 -1.34494 0
M  V30 625 C 63.3272 -0.408946 -1.98328 0
M  V30 626 C 63.6552 1.02764 -1.65136 0
M  V30 627 O 62.9102 1.73026 -0.914349 0
M  V30 628 C 63.2092 -0.556512 -3.53041 0
M  V30 629 C 62.8752 -1.95861 -4.0614 0
M  V30 630 C 61.5372 -2.34217 -4.20352 0
M  V30 631 C 63.8892 -2.87523 -4.34718 0
M  V30 632 C 61.2172 -3.63572 -4.6047 0
M  V30 633 C 63.5692 -4.1634 -4.76281 0
M  V30 634 C 62.2332 -4.54675 -4.88699 0
M  V30 635 H 61.5032 -0.149644 -0.725732 0
M  V30 636 H 64.1502 -1.04521 -1.6046 0
M  V30 637 H 62.4552 0.163148 -3.9146 0
M  V30 638 H 64.1522 -0.217826 -4.00408 0
M  V30 639 H 60.7422 -1.65066 -3.95539 0
M  V30 640 H 64.9262 -2.59133 -4.23277 0
M  V30 641 H 60.1822 -3.93101 -4.68275 0
M  V30 642 H 64.3562 -4.87455 -4.97354 0
M  V30 643 H 61.9832 -5.54959 -5.19542 0
M  V30 644 N 63.5583 1.46682 -0.576371 0
M  V30 645 C 64.4913 2.27243 0.208731 0
M  V30 646 C 65.4693 1.35238 0.902746 0
M  V30 647 O 66.6533 1.64641 0.917904 0
M  V30 648 C 63.7803 3.12802 1.29896 0
M  V30 649 C 62.8263 4.20524 0.711457 0
M  V30 650 S 63.6593 5.33548 -0.456781 0
M  V30 651 C 64.8153 6.22673 0.634798 0
M  V30 652 H 65.0483 2.93484 -0.474838 0
M  V30 653 H 62.5813 1.50069 -0.363118 0
M  V30 654 H 64.5393 3.62661 1.92321 0
M  V30 655 H 63.2003 2.45887 1.95444 0
M  V30 656 H 62.3933 4.80191 1.53076 0
M  V30 657 H 61.9953 3.73645 0.162999 0
M  V30 658 H 64.2873 6.60181 1.52209 0
M  V30 659 H 65.2303 7.0806 0.0750311 0
M  V30 660 H 65.6383 5.56684 0.936092 0
M  V30 661 N 65.0364 0.313813 1.54444 0
M  V30 662 C 66.2854 -0.292519 1.99568 0
M  V30 663 C 66.5984 -1.54011 1.20582 0
M  V30 664 O 67.8044 -2.22183 1.56035 0
M  V30 665 C 66.2604 -0.571752 3.55329 0
M  V30 666 C 65.8684 0.658229 4.43138 0
M  V30 667 C 67.6124 -1.13857 4.08946 0
M  V30 668 C 65.5194 0.351439 5.90355 0
M  V30 669 H 64.4494 -0.113079 0.745472 0
M  V30 670 H 67.1004 0.424518 1.78522 0
M  V30 671 H 65.4824 -1.34872 3.72325 0
M  V30 672 H 66.6564 1.43403 4.37918 0
M  V30 673 H 64.9714 1.14458 4.0036 0
M  V30 674 H 67.5684 -1.38257 5.16516 0
M  V30 675 H 67.9114 -2.08489 3.6033 0
M  V30 676 H 68.4444 -0.423015 3.95544 0
M  V30 677 H 65.1834 1.26667 6.43145 0
M  V30 678 H 64.7034 -0.386842 5.98551 0
M  V30 679 H 66.3824 -0.0423134 6.46986 0
M  V30 680 N 66.5145 -1.57545 0.0417849 0
M  V30 681 C 67.9255 -1.80011 -0.495259 0
M  V30 682 C 68.2765 -0.953199 -1.71489 0
M  V30 683 O 67.4015 -0.167138 -2.15754 0
M  V30 684 C 67.9965 -3.26482 -0.905265 0
M  V30 685 C 66.5555 -3.499 -1.38734 0
M  V30 686 C 65.7025 -2.74979 -0.358056 0
M  V30 687 H 68.6535 -1.56425 0.267736 0
M  V30 688 H 68.6745 -3.36887 -1.76882 0
M  V30 689 H 68.1865 -3.88096 -0.017401 0
M  V30 690 H 66.2875 -2.93553 -2.29471 0
M  V30 691 H 66.4005 -4.58615 -1.38598 0
M  V30 692 H 64.7645 -2.40834 -0.828912 0
M  V30 693 H 65.5475 -3.39315 0.521561 0
M  V30 694 N 67.9926 0.231505 -1.5589 0
M  V30 695 C 69.2226 0.973092 -1.82248 0
M  V30 696 C 69.6306 1.78845 -0.617328 0
M  V30 697 O 68.9736 1.78752 0.423499 0
M  V30 698 C 69.0356 1.94732 -3.02192 0
M  V30 699 C 68.6996 1.31743 -4.37599 0
M  V30 700 C 69.6966 0.712238 -5.14998 0
M  V30 701 C 67.3816 1.33218 -4.84312 0
M  V30 702 C 69.3756 0.130195 -6.37267 0
M  V30 703 C 67.0626 0.746286 -6.06526 0
M  V30 704 C 68.0606 0.146337 -6.82843 0
M  V30 705 O 67.7486 -0.430465 -8.02747 0
M  V30 706 H 67.4806 0.29125 -0.61004 0
M  V30 707 H 70.0346 0.254915 -2.03812 0
M  V30 708 H 68.2646 2.70422 -2.76422 0
M  V30 709 H 69.9536 2.55362 -3.15508 0
M  V30 710 H 70.7196 0.69324 -4.8002 0
M  V30 711 H 66.5986 1.78854 -4.24891 0
M  V30 712 H 70.1426 -0.33871 -6.96777 0
M  V30 713 H 66.0396 0.762663 -6.40979 0
M  V30 714 H 66.8076 -0.323818 -8.17859 0
M  V30 715 N 69.4707 1.49531 0.497807 0
M  V30 716 C 70.7197 1.58426 1.24837 0
M  V30 717 C 71.0327 0.277643 1.93619 0
M  V30 718 O 72.2387 0.24517 2.70391 0
M  V30 719 C 70.6947 2.79538 2.26686 0
M  V30 720 C 70.3027 4.16971 1.63828 0
M  V30 721 C 72.0467 2.97764 3.0255 0
M  V30 722 C 69.9537 5.29301 2.63807 0
M  V30 723 H 68.8837 0.58989 0.469623 0
M  V30 724 H 71.5347 1.75923 0.521857 0
M  V30 725 H 69.9167 2.55542 3.02514 0
M  V30 726 H 71.0907 4.51116 0.939711 0
M  V30 727 H 69.4057 4.04129 1.00342 0
M  V30 728 H 72.0027 3.78856 3.77323 0
M  V30 729 H 72.3457 2.08448 3.60354 0
M  V30 730 H 72.8787 3.21815 2.33838 0
M  V30 731 H 69.6177 6.20687 2.10779 0
M  V30 732 H 69.1377 4.99606 3.31894 0
M  V30 733 H 70.8167 5.58768 3.2617 0
M  V30 734 N 70.9488 -0.749086 1.3866 0
M  V30 735 C 72.1978 -1.50371 1.3443 0
M  V30 736 C 72.5108 -1.95503 -0.0616397 0
M  V30 737 O 73.7168 -2.70554 -0.226489 0
M  V30 738 C 72.1728 -2.71644 2.36088 0
M  V30 739 C 71.7808 -2.3352 3.82325 0
M  V30 740 C 73.5248 -3.49518 2.40909 0
M  V30 741 C 71.4318 -3.51431 4.75658 0
M  V30 742 H 70.3618 -0.564628 0.499712 0
M  V30 743 H 73.0128 -0.818449 1.64237 0
M  V30 744 H 71.3948 -3.42175 1.9933 0
M  V30 745 H 72.5688 -1.70627 4.28046 0
M  V30 746 H 70.8838 -1.6877 3.80665 0
M  V30 747 H 73.4808 -4.37197 3.07836 0
M  V30 748 H 73.8238 -3.90992 1.42937 0
M  V30 749 H 74.3568 -2.86005 2.76489 0
M  V30 750 H 71.0958 -3.15019 5.74842 0
M  V30 751 H 70.6158 -4.13352 4.34627 0
M  V30 752 H 72.2948 -4.17953 4.93887 0
M  V30 753 N 72.4269 -1.23603 -0.977757 0
M  V30 754 C 73.3899 -1.02069 -2.05218 0
M  V30 755 C 74.3899 0.0184305 -1.60789 0
M  V30 756 O 75.5799 -0.221569 -1.72785 0
M  V30 757 C 72.7119 -0.544926 -3.36517 0
M  V30 758 H 73.9049 -1.9742 -2.25755 0
M  V30 759 H 71.4579 -1.05684 -1.15155 0
M  V30 760 H 72.1929 0.412241 -3.21669 0
M  V30 761 H 71.9779 -1.2948 -3.70105 0
M  V30 762 H 73.4679 -0.414985 -4.15533 0
M  V30 763 N 73.905 1.17692 -1.04816 0
M  V30 764 C 75.152 1.87859 -0.75599 0
M  V30 765 C 75.48 1.80812 0.716752 0
M  V30 766 O 74.735 1.20819 1.53952 0
M  V30 767 C 75.034 3.37462 -1.17703 0
M  V30 768 C 74.7 3.64713 -2.65133 0
M  V30 769 C 73.362 3.71859 -3.05408 0
M  V30 770 C 75.714 3.76492 -3.60421 0
M  V30 771 C 73.042 3.88271 -4.39843 0
M  V30 772 C 75.394 3.94421 -4.94585 0
M  V30 773 C 74.058 3.99806 -5.3452 0
M  V30 774 H 73.328 0.687425 -0.276636 0
M  V30 775 H 75.975 1.39255 -1.31455 0
M  V30 776 H 74.28 3.88097 -0.537395 0
M  V30 777 H 75.977 3.90109 -0.928218 0
M  V30 778 H 72.567 3.59772 -2.32942 0
M  V30 779 H 76.751 3.70295 -3.30447 0
M  V30 780 H 72.007 3.90687 -4.70291 0
M  V30 781 H 76.181 4.02477 -5.68318 0
M  V30 782 H 73.808 4.12276 -6.38696 0
M  V30 783 N 75.3831 0.828654 1.34056 0
M  V30 784 C 76.3131 0.269443 2.3194 0
M  V30 785 C 77.2941 -0.617247 1.58506 0
M  V30 786 O 78.4791 -0.542931 1.86456 0
M  V30 787 C 75.6091 -0.564793 3.42677 0
M  V30 788 C 74.5631 0.225241 4.27407 0
M  V30 789 C 73.8891 -0.7321 5.29664 0
M  V30 790 C 75.1891 1.43663 5.02154 0
M  V30 791 H 76.8831 1.08728 2.7896 0
M  V30 792 H 74.4291 0.524283 1.34117 0
M  V30 793 H 76.3821 -0.966233 4.10173 0
M  V30 794 H 75.1061 -1.41574 2.9432 0
M  V30 795 H 73.7651 0.608117 3.61521 0
M  V30 796 H 73.4131 -1.57916 4.77568 0
M  V30 797 H 73.1131 -0.20767 5.87233 0
M  V30 798 H 74.6371 -1.13128 6.00029 0
M  V30 799 H 76.0511 1.1089 5.62473 0
M  V30 800 H 74.4481 1.89711 5.69324 0
M  V30 801 H 75.5181 2.21181 4.31517 0
M  V30 802 N 76.8612 -1.46375 0.584142 0
M  V30 803 C 77.7912 -2.33103 -0.136037 0
M  V30 804 C 78.7722 -1.45431 -0.882255 0
M  V30 805 O 79.9572 -1.74246 -0.857434 0
M  V30 806 C 77.0872 -3.27731 -1.14933 0
M  V30 807 C 76.0412 -4.24855 -0.517862 0
M  V30 808 C 75.3672 -5.09001 -1.63773 0
M  V30 809 C 76.6672 -5.19439 0.545886 0
M  V30 810 H 78.3612 -2.93568 0.588086 0
M  V30 811 H 75.9072 -1.41166 0.284259 0
M  V30 812 H 77.8602 -3.87261 -1.66153 0
M  V30 813 H 76.5842 -2.65377 -1.90375 0
M  V30 814 H 75.2432 -3.6659 -0.0267361 0
M  V30 815 H 74.8912 -4.43031 -2.38185 0
M  V30 816 H 74.5912 -5.74777 -1.22085 0
M  V30 817 H 76.1152 -5.71396 -2.15266 0
M  V30 818 H 77.5292 -5.73177 0.118704 0
M  V30 819 H 75.9262 -5.93566 0.88317 0
M  V30 820 H 76.9962 -4.63285 1.43162 0
M  V30 821 N 78.3393 -0.321999 -1.54275 0
M  V30 822 C 79.5853 0.281461 -2.00837 0
M  V30 823 C 79.9183 1.51909 -1.20985 0
M  V30 824 O 79.1933 1.923 -0.291733 0
M  V30 825 C 79.4763 0.617162 -3.54772 0
M  V30 826 C 79.3293 -0.631064 -4.45351 0
M  V30 827 C 80.6483 1.43542 -4.16033 0
M  V30 828 H 77.7673 0.100826 -0.730071 0
M  V30 829 H 80.4093 -0.438268 -1.84876 0
M  V30 830 H 78.5593 1.23034 -3.68504 0
M  V30 831 H 80.2313 -1.26934 -4.43492 0
M  V30 832 H 78.4743 -1.26025 -4.15091 0
M  V30 833 H 79.1453 -0.351735 -5.50878 0
M  V30 834 H 81.6213 0.917134 -4.05867 0
M  V30 835 H 80.4973 1.63907 -5.23856 0
M  V30 836 H 80.7583 2.43108 -3.69257 0
M  V30 837 N 79.8174 1.5752 -0.0501392 0
M  V30 838 C 81.0654 1.9227 0.622642 0
M  V30 839 C 81.3864 0.929083 1.71444 0
M  V30 840 O 80.6564 -0.0262186 1.95882 0
M  V30 841 H 79.2364 0.709739 0.232981 0
M  V30 842 H 81.8984 1.94628 -0.102898 0
M  V30 843 H 80.9944 2.93479 1.06191 0
M  V30 844 N 81.2955 -0.223234 1.56011 0
M  V30 845 C 82.5445 -0.945912 1.78144 0
M  V30 846 C 82.8575 -1.85567 0.618396 0
M  V30 847 O 84.0635 -2.61688 0.723318 0
M  V30 848 C 82.5195 -1.73216 3.15475 0
M  V30 849 C 82.1275 -0.868619 4.39499 0
M  V30 850 C 83.8715 -2.44615 3.46935 0
M  V30 851 C 81.7785 -1.65212 5.67855 0
M  V30 852 H 80.7085 -0.356929 0.664167 0
M  V30 853 H 83.3595 -0.199845 1.82409 0
M  V30 854 H 81.7415 -2.52107 3.05382 0
M  V30 855 H 82.9155 -0.120366 4.60643 0
M  V30 856 H 81.2305 -0.26683 4.15544 0
M  V30 857 H 83.8275 -3.03732 4.40058 0
M  V30 858 H 84.1705 -3.17417 2.69355 0
M  V30 859 H 84.7035 -1.72715 3.58349 0
M  V30 860 H 81.4425 -0.967407 6.48322 0
M  V30 861 H 80.9625 -2.37503 5.50774 0
M  V30 862 H 82.6415 -2.21322 6.07968 0
M  V30 863 N 82.7736 -1.49793 -0.48987 0
M  V30 864 C 84.1846 -1.52914 -1.07118 0
M  V30 865 C 84.5356 -0.321738 -1.93544 0
M  V30 866 O 83.6606 0.567338 -2.08831 0
M  V30 867 C 84.2556 -2.771 -1.94938 0
M  V30 868 C 82.8146 -2.82963 -2.48212 0
M  V30 869 C 81.9616 -2.46972 -1.26096 0
M  V30 870 H 84.9126 -1.56329 -0.273289 0
M  V30 871 H 84.9336 -2.57892 -2.79771 0
M  V30 872 H 84.4456 -3.64959 -1.32009 0
M  V30 873 H 82.5466 -1.99411 -3.14748 0
M  V30 874 H 82.6596 -3.85406 -2.84603 0
M  V30 875 H 81.0236 -1.98994 -1.58976 0
M  V30 876 H 81.8066 -3.37118 -0.648581 0
M  V30 877 N 84.2517 0.741722 -1.39055 0
M  V30 878 C 85.1817 1.869 -1.39966 0
M  V30 879 C 86.1627 1.6804 -0.26392 0
M  V30 880 O 87.3477 1.88458 -0.468755 0
M  V30 881 C 84.4777 3.24572 -1.23574 0
M  V30 882 C 83.4317 3.58056 -2.34477 0
M  V30 883 C 82.7577 4.94593 -2.0318 0
M  V30 884 C 84.0577 3.61716 -3.76774 0
M  V30 885 H 85.7517 1.86395 -2.34302 0
M  V30 886 H 83.2977 0.895361 -1.1278 0
M  V30 887 H 85.2507 4.031 -1.22834 0
M  V30 888 H 83.9747 3.25587 -0.257045 0
M  V30 889 H 82.6337 2.81854 -2.34423 0
M  V30 890 H 82.2817 4.92181 -1.03765 0
M  V30 891 H 81.9817 5.17964 -2.77465 0
M  V30 892 H 83.5057 5.75486 -2.04079 0
M  V30 893 H 84.9197 4.30335 -3.78794 0
M  V30 894 H 83.3167 3.96603 -4.50362 0
M  V30 895 H 84.3867 2.61672 -4.08235 0
M  V30 896 N 85.7298 1.2412 0.971189 0
M  V30 897 C 86.6628 0.97373 2.06382 0
M  V30 898 C 87.6408 -0.0912662 1.62344 0
M  V30 899 O 88.8248 0.0449365 1.88446 0
M  V30 900 C 85.9518 0.468746 3.35441 0
M  V30 901 C 84.9978 1.52176 3.98428 0
M  V30 902 S 85.8308 3.10203 4.36503 0
M  V30 903 C 86.9868 2.61398 5.68702 0
M  V30 904 H 87.2198 1.89893 2.28753 0
M  V30 905 H 84.7528 1.07466 1.10862 0
M  V30 906 H 86.7108 0.184012 4.10087 0
M  V30 907 H 85.3718 -0.435688 3.11064 0
M  V30 908 H 84.5648 1.11876 4.91426 0
M  V30 909 H 84.1668 1.75632 3.30196 0
M  V30 910 H 86.4588 2.03992 6.4606 0
M  V30 911 H 87.4018 3.52972 6.13854 0
M  V30 912 H 87.8098 2.01941 5.27143 0
M  V30 913 N 87.2079 -1.17134 1.05439 0
M  V30 914 C 88.4539 -1.87979 0.776872 0
M  V30 915 C 88.8089 -1.7965 -0.688751 0
M  V30 916 O 88.1019 -1.19535 -1.4974 0
M  V30 917 C 88.2959 -3.36833 1.19491 0
M  V30 918 C 88.1249 -3.59653 2.69963 0
M  V30 919 C 86.8949 -3.76234 3.37307 0
M  V30 920 C 89.0929 -3.59091 3.68182 0
M  V30 921 N 87.0749 -3.86922 4.76618 0
M  V30 922 C 88.4459 -3.75659 4.93235 0
M  V30 923 C 90.5009 -3.42255 3.61616 0
M  V30 924 C 89.2039 -3.77133 6.12506 0
M  V30 925 C 91.2299 -3.45018 4.8033 0
M  V30 926 C 90.5919 -3.62096 6.04207 0
M  V30 927 H 86.6909 -0.705876 0.336546 0
M  V30 928 H 89.2749 -1.40602 1.34682 0
M  V30 929 H 87.4459 -3.82873 0.652884 0
M  V30 930 H 89.1779 -3.95305 0.866966 0
M  V30 931 H 85.9329 -3.76193 2.87708 0
M  V30 932 H 86.3569 -3.96055 5.49062 0
M  V30 933 H 90.9989 -3.27986 2.66805 0
M  V30 934 H 88.7169 -3.90186 7.07659 0
M  V30 935 H 92.3029 -3.33246 4.76905 0
M  V30 936 H 91.1829 -3.64142 6.94529 0
M  V30 937 N 88.686 -0.835752 -1.33615 0
M  V30 938 C 89.935 -0.426289 -1.97144 0
M  V30 939 C 90.248 1.01912 -1.66953 0
M  V30 940 O 91.454 1.53311 -2.24072 0
M  V30 941 C 89.91 -0.711321 -3.52801 0
M  V30 942 C 89.518 -2.1712 -3.91871 0
M  V30 943 C 91.262 -0.368654 -4.22896 0
M  V30 944 C 89.169 -2.40044 -5.40493 0
M  V30 945 H 88.099 -0.15567 -0.737755 0
M  V30 946 H 90.75 -1.0239 -1.52278 0
M  V30 947 H 89.132 -0.0433766 -3.95976 0
M  V30 948 H 90.306 -2.87936 -3.59763 0
M  V30 949 H 88.621 -2.47654 -3.34749 0
M  V30 950 H 91.218 -0.517601 -5.32189 0
M  V30 951 H 91.561 0.688078 -4.10574 0
M  V30 952 H 92.094 -0.991702 -3.8524 0
M  V30 953 H 88.833 -3.44271 -5.57815 0
M  V30 954 H 88.353 -1.73785 -5.74072 0
M  V30 955 H 90.032 -2.23042 -6.0734 0
M  V30 956 N 90.1641 1.46063 -0.591896 0
M  V30 957 C 91.0741 2.34192 0.13831 0
M  V30 958 C 92.0901 1.50305 0.876608 0
M  V30 959 O 93.2661 1.8315 0.837728 0
M  V30 960 C 90.3311 3.27656 1.13326 0
M  V30 961 C 89.3921 4.27445 0.39863 0
M  V30 962 C 88.6251 5.16443 1.34618 0
M  V30 963 O 88.8481 5.08553 2.58321 0
M  V30 964 O 87.7821 5.95843 0.851768 0
M  V30 965 H 91.6081 2.98002 -0.58552 0
M  V30 966 H 89.1931 1.45188 -0.352239 0
M  V30 967 H 91.0751 3.85291 1.70671 0
M  V30 968 H 89.7501 2.6643 1.83839 0
M  V30 969 H 88.6571 3.73471 -0.216895 0
M  V30 970 H 89.9901 4.91482 -0.265709 0
M  V30 971 N 91.6422 0.330177 1.54103 0
M  V30 972 C 92.8882 -0.263542 2.01685 0
M  V30 973 C 93.2432 -1.49258 1.21408 0
M  V30 974 O 92.5362 -1.89395 0.289852 0
M  V30 975 C 92.7302 -0.643134 3.51566 0
M  V30 976 C 92.5592 0.547571 4.46354 0
M  V30 977 C 91.3292 1.04873 4.94297 0
M  V30 978 C 93.5272 1.40184 4.94826 0
M  V30 979 N 91.5092 2.20316 5.73005 0
M  V30 980 C 92.8802 2.40335 5.71524 0
M  V30 981 C 94.9352 1.42884 4.76958 0
M  V30 982 C 93.6382 3.42998 6.32254 0
M  V30 983 C 95.6642 2.44421 5.38528 0
M  V30 984 C 95.0262 3.43298 6.15082 0
M  V30 985 H 91.1252 -0.0601026 0.779687 0
M  V30 986 H 93.7092 0.466714 1.89023 0
M  V30 987 H 91.8802 -1.34251 3.6446 0
M  V30 988 H 93.6122 -1.21889 3.85908 0
M  V30 989 H 90.3672 0.618956 4.69538 0
M  V30 990 H 90.7912 2.78565 6.17034 0
M  V30 991 H 95.4332 0.678049 4.17328 0
M  V30 992 H 93.1512 4.1898 6.91 0
M  V30 993 H 96.7372 2.4732 5.26616 0
M  V30 994 H 95.6172 4.20579 6.61878 0
M  V30 995 N 93.1203 -1.57491 0.0584922 0
M  V30 996 C 94.0833 -2.1085 -0.898617 0
M  V30 997 C 95.0833 -1.02964 -1.23511 0
M  V30 998 O 96.2733 -1.29007 -1.17059 0
M  V30 999 C 93.4053 -2.59881 -2.20623 0
M  V30 1000 H 94.5983 -2.96715 -0.435936 0
M  V30 1001 H 92.1513 -1.55141 -0.190023 0
M  V30 1002 H 92.8863 -1.77431 -2.71457 0
M  V30 1003 H 92.6713 -3.38727 -1.97501 0
M  V30 1004 H 94.1613 -3.01285 -2.89166 0
M  V30 1005 N 94.5984 0.214957 -1.56127 0
M  V30 1006 C 95.5314 1.29382 -1.87977 0
M  V30 1007 C 96.5094 1.44897 -0.737807 0
M  V30 1008 O 97.6934 1.60605 -0.986833 0
M  V30 1009 C 94.8204 2.66325 -2.09258 0
M  V30 1010 C 93.8664 2.67789 -3.31951 0
M  V30 1011 S 94.6994 2.21198 -4.8768 0
M  V30 1012 C 95.8554 3.60003 -5.12004 0
M  V30 1013 H 96.0884 1.02173 -2.79192 0
M  V30 1014 H 93.6214 0.417516 -1.48648 0
M  V30 1015 H 95.5794 3.45162 -2.22201 0
M  V30 1016 H 94.2404 2.90755 -1.18829 0
M  V30 1017 H 93.4334 3.68436 -3.43906 0
M  V30 1018 H 93.0354 1.9702 -3.17898 0
M  V30 1019 H 95.3274 4.55739 -5.01307 0
M  V30 1020 H 96.2704 3.52959 -6.13861 0
M  V30 1021 H 96.6784 3.53996 -4.39712 0
M  V30 1022 N 96.0765 1.50051 0.48192 0
M  V30 1023 C 97.3245 1.60181 1.23234 0
M  V30 1024 C 97.6455 0.299176 1.92691 0
M  V30 1025 O 96.9155 -0.682708 1.83619 0
M  V30 1026 H 95.4955 0.590232 0.457859 0
M  V30 1027 H 98.1575 1.86775 0.556881 0
M  V30 1028 H 97.2535 2.40753 1.98607 0
M  V30 1029 N 97.5546 -0.734337 1.39446 0
M  V30 1030 C 98.9706 -1.03997 1.21065 0
M  V30 1031 C 99.1706 -2.01369 0.0727019 0
M  V30 1032 O 98.2266 -2.45856 -0.575426 0
M  V30 1033 C 99.5396 -1.60163 2.54496 0
M  V30 1034 C 101.088 -1.7224 2.61347 0
M  V30 1035 C 101.563 -2.31814 3.95002 0
M  V30 1036 N 103.054 -2.39223 3.96644 0
M  V30 1037 C 103.789 -2.86258 4.96834 0
M  V30 1038 N 103.285 -3.33184 6.07421 0
M  V30 1039 N 105.078 -2.85473 4.84213 0
M  V30 1040 H 97.2286 -0.0885624 2.12215 0
M  V30 1041 H 99.4916 -0.10191 0.942506 0
M  V30 1042 H 99.1976 -0.960811 3.38321 0
M  V30 1043 H 99.0716 -2.5896 2.74262 0
M  V30 1044 H 101.459 -2.35443 1.77906 0
M  V30 1045 H 101.54 -0.720939 2.4543 0
M  V30 1046 H 101.184 -1.69238 4.78875 0
M  V30 1047 H 101.114 -3.32638 4.08239 0
M  V30 1048 H 103.605 -2.06057 3.16779 0
M  V30 1049 H 103.918 -3.67586 6.7978 0
M  V30 1050 H 102.263 -3.31191 6.11013 0
M  V30 1051 H 105.454 -2.48136 3.96921 0
M  V30 1052 H 105.627 -3.21814 5.62441 0
M  V30 1053 N 99.0327 -1.24633 -0.964593 0
M  V30 1054 C 100.263 -1.11339 -1.74032 0
M  V30 1055 C 100.671 0.336593 -1.86182 0
M  V30 1056 O 100.014 1.24389 -1.35178 0
M  V30 1057 C 100.076 -1.68284 -3.1768 0
M  V30 1058 C 99.7397 -3.17196 -3.28992 0
M  V30 1059 C 100.737 -4.14308 -3.14078 0
M  V30 1060 C 98.4217 -3.57215 -3.53133 0
M  V30 1061 C 100.416 -5.4942 -3.23135 0
M  V30 1062 C 98.1027 -4.92468 -3.61827 0
M  V30 1063 C 99.1007 -5.8838 -3.46841 0
M  V30 1064 O 98.7887 -7.21173 -3.55197 0
M  V30 1065 H 98.5207 -0.389551 -0.552472 0
M  V30 1066 H 101.075 -1.65282 -1.21946 0
M  V30 1067 H 99.3047 -1.08777 -3.71085 0
M  V30 1068 H 100.994 -1.50234 -3.77074 0
M  V30 1069 H 101.76 -3.84731 -2.95308 0
M  V30 1070 H 97.6387 -2.83063 -3.63863 0
M  V30 1071 H 101.183 -6.24263 -3.11355 0
M  V30 1072 H 97.0797 -5.21714 -3.80111 0
M  V30 1073 H 97.8477 -7.29135 -3.71892 0
M  V30 1074 N 100.511 1.16574 -1.06058 0
M  V30 1075 C 101.759 1.86677 -0.77434 0
M  V30 1076 C 102.08 1.81959 0.701147 0
M  V30 1077 O 101.35 1.2515 1.50713 0
M  V30 1078 H 99.9298 0.691134 -0.283449 0
M  V30 1079 H 102.592 1.41378 -1.34158 0
M  V30 1080 H 101.688 2.92181 -1.09711 0
M  V30 1081 N 101.989 0.842826 1.3317 0
M  V30 1082 C 103.237 0.439577 1.97262 0
M  V30 1083 C 103.558 -1.00548 1.67078 0
M  V30 1084 O 102.828 -1.70098 0.971779 0
M  V30 1085 H 101.408 0.159558 0.72976 0
M  V30 1086 H 104.07 1.07665 1.62463 0
M  V30 1087 H 103.166 0.574886 3.0676 0
M  V30 1088 N 103.467 -1.45747 0.599634 0
M  V30 1089 C 104.43 -2.28917 -0.113835 0
M  V30 1090 C 105.43 -1.3933 -0.802729 0
M  V30 1091 O 106.62 -1.61534 -0.652103 0
M  V30 1092 C 103.752 -3.20152 -1.17114 0
M  V30 1093 H 104.945 -2.93478 0.617289 0
M  V30 1094 H 102.498 -1.52137 0.358327 0
M  V30 1095 H 103.233 -2.60374 -1.93329 0
M  V30 1096 H 103.018 -3.86133 -0.681468 0
M  V30 1097 H 104.508 -3.82708 -1.67105 0
M  V30 1098 N 104.945 -0.338344 -1.53925 0
M  V30 1099 C 105.877 0.555117 -2.22376 0
M  V30 1100 C 106.89 1.06812 -1.22862 0
M  V30 1101 O 108.079 0.979163 -1.49247 0
M  V30 1102 C 105.179 1.77609 -2.88631 0
M  V30 1103 C 104.352 1.39927 -4.14414 0
M  V30 1104 C 103.411 2.47936 -4.64127 0
M  V30 1105 O 102.437 2.11461 -5.28463 0
M  V30 1106 N 103.639 3.79107 -4.39612 0
M  V30 1107 H 106.404 -0.0310778 -2.99684 0
M  V30 1108 H 103.965 -0.162226 -1.61085 0
M  V30 1109 H 105.957 2.49287 -3.18807 0
M  V30 1110 H 104.527 2.26978 -2.14941 0
M  V30 1111 H 103.747 0.513481 -3.90841 0
M  V30 1112 H 105.035 1.12341 -4.96243 0
M  V30 1113 H 104.433 4.11531 -3.88148 0
M  V30 1114 H 102.99 4.4697 -4.74406 0
M  V30 1115 N 106.423 1.57458 -0.0668435 0
M  V30 1116 C 107.671 1.92919 0.602214 0
M  V30 1117 C 107.992 0.947215 1.70449 0
M  V30 1118 O 107.262 -0.00544117 1.95899 0
M  V30 1119 H 105.842 0.71217 0.22544 0
M  V30 1120 H 108.504 1.94508 -0.123535 0
M  V30 1121 H 107.6 2.94589 1.03073 0
M  V30 1122 N 107.901 -0.206675 1.56239 0
M  V30 1123 C 108.851 -1.26 1.90021 0
M  V30 1124 C 109.835 -1.41566 0.764721 0
M  V30 1125 O 111.027 -1.44131 1.02739 0
M  V30 1126 C 108.156 -2.6073 2.23326 0
M  V30 1127 C 107.242 -2.49005 3.43304 0
M  V30 1128 N 107.633 -2.06946 4.61527 0
M  V30 1129 C 105.931 -2.79927 3.47213 0
M  V30 1130 C 106.632 -2.06832 5.43687 0
M  V30 1131 N 105.608 -2.47892 4.83788 0
M  V30 1132 H 109.41 -0.925955 2.78932 0
M  V30 1133 H 106.924 -0.415172 1.57003 0
M  V30 1134 H 108.921 -3.36798 2.45708 0
M  V30 1135 H 107.581 -2.94968 1.35735 0
M  V30 1136 H 108.592 -1.77839 4.86409 0
M  V30 1137 H 105.269 -3.18438 2.70006 0
M  V30 1138 H 106.659 -1.76312 6.48354 0
M  V30 1139 N 109.379 -1.50304 -0.473955 0
M  V30 1140 C 110.627 -1.60832 -1.22382 0
M  V30 1141 C 110.948 -0.30939 -1.9253 0
M  V30 1142 O 110.218 0.67296 -1.83978 0
M  V30 1143 H 108.798 -0.592652 -0.454723 0
M  V30 1144 H 111.46 -1.87068 -0.546968 0
M  V30 1145 H 110.556 -2.41803 -1.97327 0
M  V30 1146 N 110.857 0.726932 -1.39834 0
M  V30 1147 C 112.085 1.51613 -1.40787 0
M  V30 1148 C 112.5 1.88799 -0.00451505 0
M  V30 1149 O 111.857 1.54662 0.968809 0
M  V30 1150 C 111.908 2.79863 -2.28821 0
M  V30 1151 O 111.629 2.44253 -3.63692 0
M  V30 1152 C 113.13 3.73837 -2.38245 0
M  V30 1153 H 110.35 0.468264 -0.480593 0
M  V30 1154 H 112.894 0.897607 -1.83748 0
M  V30 1155 H 111.049 3.38027 -1.89252 0
M  V30 1156 H 111.463 3.26695 -4.1033 0
M  V30 1157 H 112.937 4.60699 -3.04073 0
M  V30 1158 H 113.414 4.16153 -1.40403 0
M  V30 1159 H 114.02 3.21589 -2.78317 0
M  V30 1160 N 112.336 1.25143 0.95797 0
M  V30 1161 C 113.564 1.12424 1.73691 0
M  V30 1162 C 113.979 -0.322304 1.86029 0
M  V30 1163 O 113.336 -1.22186 1.35561 0
M  V30 1164 C 113.387 1.76933 3.15241 0
M  V30 1165 O 113.108 3.15932 3.03511 0
M  V30 1166 C 114.609 1.6995 4.09429 0
M  V30 1167 H 111.829 0.3923 0.544373 0
M  V30 1168 H 114.373 1.6544 1.20207 0
M  V30 1169 H 112.528 1.27895 3.6568 0
M  V30 1170 H 112.942 3.47598 3.9278 0
M  V30 1171 H 114.416 2.19753 5.06372 0
M  V30 1172 H 114.893 0.662619 4.34173 0
M  V30 1173 H 115.499 2.18461 3.64904 0
M  V30 1174 N 113.814 -1.1601 1.06675 0
M  V30 1175 C 115.225 -1.68235 0.809565 0
M  V30 1176 C 115.576 -1.8454 -0.666303 0
M  V30 1177 O 114.701 -1.54374 -1.5165 0
M  V30 1178 C 115.296 -3.05585 1.46299 0
M  V30 1179 C 113.855 -3.54915 1.25349 0
M  V30 1180 C 113.002 -2.30804 1.53703 0
M  V30 1181 H 115.953 -1.00318 1.22971 0
M  V30 1182 H 115.974 -3.70174 0.880431 0
M  V30 1183 H 115.486 -2.93686 2.53713 0
M  V30 1184 H 113.587 -3.72067 0.199261 0
M  V30 1185 H 113.7 -4.36774 1.9689 0
M  V30 1186 H 112.064 -2.36007 0.957739 0
M  V30 1187 H 112.847 -2.21499 2.62284 0
M  V30 1188 N 115.292 -0.849877 -1.32721 0
M  V30 1189 C 116.255 -0.296122 -2.27279 0
M  V30 1190 C 117.255 0.541458 -1.5141 0
M  V30 1191 O 118.445 0.353658 -1.70572 0
M  V30 1192 C 115.577 0.581579 -3.35902 0
M  V30 1193 H 116.77 -1.13064 -2.77771 0
M  V30 1194 H 114.323 -0.62383 -1.43311 0
M  V30 1195 H 115.058 1.43809 -2.9067 0
M  V30 1196 H 114.843 -0.0178814 -3.92096 0
M  V30 1197 H 116.333 0.961951 -4.0637 0
M  V30 1198 N 116.77 1.45427 -0.607355 0
M  V30 1199 C 118.019 2.01452 -0.100036 0
M  V30 1200 C 118.332 1.48159 1.27704 0
M  V30 1201 O 119.538 1.96159 1.87707 0
M  V30 1202 C 117.994 3.59672 -0.128158 0
M  V30 1203 C 117.602 4.21962 -1.50507 0
M  V30 1204 C 119.346 4.23262 0.323932 0
M  V30 1205 C 117.253 5.72333 -1.48959 0
M  V30 1206 H 116.183 0.75325 -0.0336299 0
M  V30 1207 H 118.834 1.66901 -0.76265 0
M  V30 1208 H 117.216 3.91411 0.601105 0
M  V30 1209 H 118.39 4.01796 -2.25602 0
M  V30 1210 H 116.705 3.70565 -1.89923 0
M  V30 1211 H 119.302 5.33522 0.354691 0
M  V30 1212 H 119.645 3.93921 1.34656 0
M  V30 1213 H 120.178 3.96239 -0.352056 0
M  V30 1214 H 116.917 6.06373 -2.48981 0
M  V30 1215 H 116.437 5.94691 -0.781214 0
M  V30 1216 H 118.116 6.35525 -1.21313 0
M  V30 1217 N 118.248 0.346503 1.53744 0
M  V30 1218 C 119.495 -0.249104 2.00962 0
M  V30 1219 C 119.823 -1.5032 1.23426 0
M  V30 1220 O 119.078 -1.93217 0.310761 0
M  V30 1221 C 119.377 -0.605809 3.52228 0
M  V30 1222 C 119.043 0.551747 4.47512 0
M  V30 1223 C 117.705 0.86941 4.73281 0
M  V30 1224 C 120.057 1.32818 5.03993 0
M  V30 1225 C 117.385 1.96582 5.52786 0
M  V30 1226 C 119.737 2.41486 5.84694 0
M  V30 1227 C 118.401 2.73808 6.08757 0
M  V30 1228 H 117.671 -0.0911538 0.735372 0
M  V30 1229 H 120.318 0.475027 1.85515 0
M  V30 1230 H 118.623 -1.4107 3.65522 0
M  V30 1231 H 120.32 -1.07858 3.86222 0
M  V30 1232 H 116.91 0.294102 4.2759 0
M  V30 1233 H 121.094 1.09602 4.84047 0
M  V30 1234 H 116.35 2.22045 5.69654 0
M  V30 1235 H 120.524 3.02078 6.27473 0
M  V30 1236 H 118.151 3.58892 6.7015 0
M  V30 1237 N 119.726 -1.57421 0.075193 0
M  V30 1238 C 120.956 -1.97659 -0.601203 0
M  V30 1239 C 121.364 -0.952427 -1.63479 0
M  V30 1240 O 120.707 0.0688241 -1.83571 0
M  V30 1241 C 120.769 -3.34218 -1.32434 0
M  V30 1242 C 120.433 -4.5484 -0.443826 0
M  V30 1243 C 121.43 -5.19034 0.299969 0
M  V30 1244 C 119.115 -5.00952 -0.367709 0
M  V30 1245 C 121.109 -6.27695 1.10807 0
M  V30 1246 C 118.796 -6.09484 0.444058 0
M  V30 1247 C 119.794 -6.72719 1.18061 0
M  V30 1248 O 119.482 -7.79161 1.97898 0
M  V30 1249 H 119.214 -0.65494 -0.167422 0
M  V30 1250 H 121.768 -2.04886 0.145157 0
M  V30 1251 H 119.998 -3.23615 -2.11685 0
M  V30 1252 H 121.687 -3.59038 -1.89331 0
M  V30 1253 H 122.453 -4.84351 0.250776 0
M  V30 1254 H 118.332 -4.51509 -0.930638 0
M  V30 1255 H 121.876 -6.76982 1.68347 0
M  V30 1256 H 117.773 -6.43601 0.494803 0
M  V30 1257 H 118.541 -7.96055 1.90367 0
M  V30 1258 N 121.204 0.198386 -1.56346 0
M  V30 1259 C 122.134 1.24865 -1.9731 0
M  V30 1260 C 123.115 1.47651 -0.844576 0
M  V30 1261 O 124.3 1.59444 -1.10866 0
M  V30 1262 C 121.43 2.59358 -2.30977 0
M  V30 1263 C 120.384 2.5119 -3.46537 0
M  V30 1264 C 119.71 3.89926 -3.65871 0
M  V30 1265 C 121.01 2.03977 -4.80823 0
M  V30 1266 H 122.704 0.908252 -2.85291 0
M  V30 1267 H 120.25 0.435462 -1.37258 0
M  V30 1268 H 122.203 3.33011 -2.58228 0
M  V30 1269 H 120.927 2.95132 -1.39874 0
M  V30 1270 H 119.586 1.79993 -3.19371 0
M  V30 1271 H 119.234 4.23046 -2.72105 0
M  V30 1272 H 118.934 3.85336 -4.4361 0
M  V30 1273 H 120.458 4.65205 -3.95495 0
M  V30 1274 H 121.872 2.67386 -5.07127 0
M  V30 1275 H 120.269 2.10397 -5.62008 0
M  V30 1276 H 121.339 0.992861 -4.74626 0
M  V30 1277 N 122.682 1.50554 0.465978 0
M  V30 1278 C 123.612 1.72722 1.57128 0
M  V30 1279 C 124.593 0.576294 1.6004 0
M  V30 1280 O 125.778 0.81598 1.76225 0
M  V30 1281 C 122.908 1.82605 2.95419 0
M  V30 1282 C 121.862 2.97835 3.07373 0
M  V30 1283 C 121.188 2.92867 4.47363 0
M  V30 1284 C 122.488 4.38265 2.84114 0
M  V30 1285 H 124.182 2.65267 1.38829 0
M  V30 1286 H 121.728 1.2765 0.666441 0
M  V30 1287 H 123.681 1.96698 3.72677 0
M  V30 1288 H 122.405 0.866858 3.14886 0
M  V30 1289 H 121.064 2.83401 2.3255 0
M  V30 1290 H 120.712 1.94783 4.63755 0
M  V30 1291 H 120.412 3.70227 4.56296 0
M  V30 1292 H 121.936 3.09015 5.26633 0
M  V30 1293 H 123.35 4.53198 3.51118 0
M  V30 1294 H 121.747 5.17115 3.04487 0
M  V30 1295 H 122.817 4.50281 1.7993 0
M  V30 1296 N 124.16 -0.719506 1.40217 0
M  V30 1297 C 125.406 -1.48034 1.39491 0
M  V30 1298 C 125.761 -1.92399 -0.00443536 0
M  V30 1299 O 125.054 -1.64993 -0.974061 0
M  V30 1300 C 125.248 -2.72271 2.31524 0
M  V30 1301 C 125.077 -2.40055 3.80268 0
M  V30 1302 C 123.847 -2.31588 4.49105 0
M  V30 1303 C 126.045 -2.04581 4.71859 0
M  V30 1304 N 124.027 -1.92006 5.83101 0
M  V30 1305 C 125.398 -1.75568 5.94623 0
M  V30 1306 C 127.453 -1.91183 4.59732 0
M  V30 1307 C 126.156 -1.34505 7.06612 0
M  V30 1308 C 128.182 -1.51524 5.71659 0
M  V30 1309 C 127.544 -1.23406 6.93506 0
M  V30 1310 H 123.643 -0.539927 0.565688 0
M  V30 1311 H 126.227 -0.834764 1.75897 0
M  V30 1312 H 124.398 -3.34584 1.97251 0
M  V30 1313 H 126.13 -3.38584 2.21682 0
M  V30 1314 H 122.885 -2.49199 4.02737 0
M  V30 1315 H 123.309 -1.74764 6.54054 0
M  V30 1316 H 127.951 -2.11584 3.66049 0
M  V30 1317 H 125.669 -1.12846 8.00182 0
M  V30 1318 H 129.255 -1.41741 5.6427 0
M  V30 1319 H 128.135 -0.931788 7.78645 0
M  V30 1320 N 125.638 -1.25649 -0.95132 0
M  V30 1321 C 127.054 -1.02542 -1.223 0
M  V30 1322 C 127.254 0.255715 -1.99871 0
M  V30 1323 O 126.31 0.967558 -2.33226 0
M  V30 1324 C 127.623 -2.25065 -1.99415 0
M  V30 1325 C 129.171 -2.29861 -2.12446 0
M  V30 1326 C 129.646 -3.52048 -2.92961 0
M  V30 1327 N 131.137 -3.52465 -3.00538 0
M  V30 1328 C 131.872 -4.43672 -3.63239 0
M  V30 1329 N 131.368 -5.45157 -4.27523 0
M  V30 1330 N 133.161 -4.31346 -3.60412 0
M  V30 1331 H 125.312 -2.07951 -0.432471 0
M  V30 1332 H 127.575 -0.91339 -0.253816 0
M  V30 1333 H 127.281 -3.18194 -1.49817 0
M  V30 1334 H 127.155 -2.28502 -3.00111 0
M  V30 1335 H 129.542 -1.37252 -2.61239 0
M  V30 1336 H 129.623 -2.3044 -1.11044 0
M  V30 1337 H 129.267 -4.44981 -2.44856 0
M  V30 1338 H 129.197 -3.48715 -3.94596 0
M  V30 1339 H 131.688 -2.79056 -2.54826 0
M  V30 1340 H 132.001 -6.10958 -4.73234 0
M  V30 1341 H 130.346 -5.49025 -4.26141 0
M  V30 1342 H 133.537 -3.51288 -3.09377 0
M  V30 1343 H 133.71 -5.02624 -4.0899 0
M  V30 1344 N 127.117 1.15442 -1.07289 0
M  V30 1345 C 128.065 2.22225 -0.686952 0
M  V30 1346 C 129.059 1.66688 0.30193 0
M  V30 1347 O 130.265 1.79236 0.165712 0
M  V30 1348 H 126.64 0.723783 -0.204064 0
M  V30 1349 H 128.611 2.52056 -1.5972 0
M  V30 1350 C 127.36 3.47556 -0.100149 0
M  V30 1351 H 126.683 3.90612 -0.852211 0
M  V30 1352 H 128.123 4.23794 0.132235 0
M  V30 1353 C 126.582 3.16337 1.159 0
M  V30 1354 O 127.112 3.33074 2.24555 0
M  V30 1355 N 125.318 2.70385 1.06491 0
M  V30 1356 H 124.865 2.56966 0.180668 0
M  V30 1357 H 124.823 2.49871 1.90819 0
M  V30 1358 N 128.595 0.856903 1.32268 0
M  V30 1359 C 130.011 0.547061 1.49931 0
M  V30 1360 C 130.211 -0.921781 1.7918 0
M  V30 1361 O 129.267 -1.70469 1.8627 0
M  V30 1362 C 130.58 1.43599 2.64196 0
M  V30 1363 C 132.128 1.43665 2.78081 0
M  V30 1364 C 132.603 2.31085 3.95428 0
M  V30 1365 N 134.094 2.28893 4.02694 0
M  V30 1366 C 134.829 2.93262 4.92732 0
M  V30 1367 N 134.325 3.66751 5.87763 0
M  V30 1368 N 136.118 2.82638 4.85873 0
M  V30 1369 H 128.269 1.8075 1.11549 0
M  V30 1370 H 130.532 0.772144 0.549997 0
M  V30 1371 H 130.238 2.48058 2.49319 0
M  V30 1372 H 130.112 1.12502 3.60032 0
M  V30 1373 H 132.499 0.399701 2.92381 0
M  V30 1374 H 132.58 1.7878 1.82952 0
M  V30 1375 H 132.224 3.34849 3.81888 0
M  V30 1376 H 132.154 1.93302 4.89839 0
M  V30 1377 H 134.645 1.75466 3.34694 0
M  V30 1378 H 134.958 4.13027 6.53168 0
M  V30 1379 H 133.303 3.70859 5.87783 0
M  V30 1380 H 136.494 2.24774 4.10602 0
M  V30 1381 H 136.667 3.33084 5.55841 0
M  V30 1382 N 130.073 -1.45103 0.615059 0
M  V30 1383 C 131.32 -2.02183 0.113179 0
M  V30 1384 C 131.648 -1.48249 -1.25906 0
M  V30 1385 O 130.903 -0.650265 -1.84581 0
M  V30 1386 C 131.202 -3.57386 0.0318797 0
M  V30 1387 C 130.868 -4.30505 1.34077 0
M  V30 1388 C 129.53 -4.50197 1.69929 0
M  V30 1389 C 131.882 -4.72238 2.20546 0
M  V30 1390 C 129.21 -5.08881 2.91988 0
M  V30 1391 C 131.562 -5.32272 3.41861 0
M  V30 1392 C 130.226 -5.50187 3.77956 0
M  V30 1393 H 129.496 -0.739842 0.0414151 0
M  V30 1394 H 132.143 -1.74073 0.798168 0
M  V30 1395 H 130.448 -3.84817 -0.736409 0
M  V30 1396 H 132.145 -3.99264 -0.372712 0
M  V30 1397 H 128.735 -4.15496 1.05173 0
M  V30 1398 H 132.919 -4.56751 1.94146 0
M  V30 1399 H 128.175 -5.20939 3.2005 0
M  V30 1400 H 132.349 -5.63563 4.09109 0
M  V30 1401 H 129.976 -5.95427 4.72622 0
M  V30 1402 N 131.551 -0.354651 -1.53558 0
M  V30 1403 C 132.514 0.484566 -2.24019 0
M  V30 1404 C 133.514 1.01861 -1.24422 0
M  V30 1405 O 134.704 0.906097 -1.4878 0
M  V30 1406 C 131.836 1.67615 -2.96847 0
M  V30 1407 H 133.029 -0.131843 -2.9961 0
M  V30 1408 H 130.582 -0.106165 -1.55939 0
M  V30 1409 H 131.317 2.33095 -2.25471 0
M  V30 1410 H 131.102 1.30029 -3.69912 0
M  V30 1411 H 132.592 2.27114 -3.50441 0
M  V30 1412 N 133.029 1.57378 -0.0835403 0
M  V30 1413 C 133.976 2.13384 0.879539 0
M  V30 1414 C 134.946 1.04936 1.28754 0
M  V30 1415 O 136.131 1.32662 1.37133 0
M  V30 1416 C 133.271 2.70932 2.13752 0
M  V30 1417 C 132.384 3.93575 1.7811 0
M  V30 1418 C 131.519 4.39326 2.98607 0
M  V30 1419 C 130.558 5.54587 2.59037 0
M  V30 1420 N 129.695 5.95243 3.72331 0
M  V30 1421 H 134.535 2.9537 0.395076 0
M  V30 1422 H 132.072 1.45953 0.183349 0
M  V30 1423 H 134.03 3.02411 2.87408 0
M  V30 1424 H 132.66 1.91693 2.59718 0
M  V30 1425 H 131.712 3.68483 0.94469 0
M  V30 1426 H 133.024 4.77258 1.45005 0
M  V30 1427 H 132.178 4.72528 3.80529 0
M  V30 1428 H 130.917 3.5452 3.34913 0
M  V30 1429 H 129.922 5.21024 1.75539 0
M  V30 1430 H 131.147 6.41133 2.23887 0
M  V30 1431 H 129.093 5.13385 4.08378 0
M  V30 1432 H 129.01 6.73694 3.43034 0
M  V30 1433 H 130.278 6.33072 4.54797 0
M  V30 1434 N 134.507 -0.190092 1.56449 0
M  V30 1435 C 135.756 -0.907912 1.80111 0
M  V30 1436 C 136.069 -1.84214 0.657619 0
M  V30 1437 O 137.275 -2.60094 0.778663 0
M  V30 1438 C 135.731 -1.66485 3.19078 0
M  V30 1439 C 135.339 -0.7752 4.41242 0
M  V30 1440 C 137.083 -2.37201 3.52045 0
M  V30 1441 C 134.99 -1.53129 5.71231 0
M  V30 1442 H 133.92 -0.34276 0.671589 0
M  V30 1443 H 136.571 -0.161109 1.82791 0
M  V30 1444 H 134.953 -2.45572 3.10661 0
M  V30 1445 H 136.127 -0.0226298 4.60794 0
M  V30 1446 H 134.442 -0.178627 4.16017 0
M  V30 1447 H 137.039 -2.94329 4.46402 0
M  V30 1448 H 137.382 -3.11632 2.76028 0
M  V30 1449 H 137.915 -1.65075 3.61932 0
M  V30 1450 H 134.654 -0.82967 6.50228 0
M  V30 1451 H 134.174 -2.25767 5.55688 0
M  V30 1452 H 135.853 -2.08377 6.12526 0
M  V30 1453 N 135.985 -1.50799 -0.457987 0
M  V30 1454 C 136.915 -1.73553 -1.5621 0
M  V30 1455 C 137.896 -0.584774 -1.59732 0
M  V30 1456 O 139.081 -0.825314 -1.7579 0
M  V30 1457 C 136.211 -1.84169 -2.94447 0
M  V30 1458 C 135.165 -2.99461 -3.0579 0
M  V30 1459 C 134.491 -2.95235 -4.45803 0
M  V30 1460 C 135.791 -4.39766 -2.81786 0
M  V30 1461 H 137.485 -2.66 -1.37421 0
M  V30 1462 H 135.031 -1.28002 -0.659662 0
M  V30 1463 H 136.984 -1.98672 -3.71628 0
M  V30 1464 H 135.708 -0.883545 -3.14422 0
M  V30 1465 H 134.367 -2.8463 -2.31044 0
M  V30 1466 H 134.015 -1.97239 -4.62715 0
M  V30 1467 H 133.715 -3.72642 -4.54326 0
M  V30 1468 H 135.239 -3.11803 -5.24987 0
M  V30 1469 H 136.653 -4.55054 -3.4871 0
M  V30 1470 H 135.05 -5.18722 -3.0174 0
M  V30 1471 H 136.12 -4.51229 -1.7754 0
M  V30 1472 N 137.463 0.71206 -1.40597 0
M  V30 1473 C 138.711 1.46907 -1.38791 0
M  V30 1474 C 139.032 1.94998 0.00780391 0
M  V30 1475 O 138.302 1.70587 0.963174 0
M  V30 1476 H 136.882 0.545043 -0.51082 0
M  V30 1477 H 139.544 0.843882 -1.75683 0
M  V30 1478 H 138.64 2.34021 -2.06496 0
M  V30 1479 N 138.941 1.26152 0.944643 0
M  V30 1480 C 140.187 1.11657 1.69294 0
M  V30 1481 C 140.52 -0.339926 1.91202 0
M  V30 1482 O 139.795 -1.24994 1.49019 0
M  V30 1483 C 140.078 1.88236 3.06984 0
M  V30 1484 C 139.931 3.41772 2.92424 0
M  V30 1485 C 141.25 1.67343 4.07043 0
M  V30 1486 H 138.369 0.407004 0.614424 0
M  V30 1487 H 141.011 1.55106 1.09737 0
M  V30 1488 H 139.161 1.51308 3.57824 0
M  V30 1489 H 140.833 3.88433 2.48832 0
M  V30 1490 H 139.076 3.68974 2.28124 0
M  V30 1491 H 139.747 3.90579 3.90067 0
M  V30 1492 H 142.223 1.99509 3.65151 0
M  V30 1493 H 141.099 2.23346 5.01406 0
M  V30 1494 H 141.36 0.617158 4.37771 0
M  V30 1495 N 140.419 -1.14872 1.07899 0
M  V30 1496 C 141.666 -1.85789 0.805532 0
M  V30 1497 C 141.994 -1.82649 -0.668561 0
M  V30 1498 O 141.249 -1.24858 -1.50695 0
M  V30 1499 C 141.548 -3.34223 1.26609 0
M  V30 1500 C 141.214 -3.57555 2.74709 0
M  V30 1501 C 139.876 -3.63631 3.1516 0
M  V30 1502 C 142.228 -3.66803 3.70277 0
M  V30 1503 C 139.556 -3.76473 4.49983 0
M  V30 1504 C 141.908 -3.8117 5.04869 0
M  V30 1505 C 140.572 -3.85494 5.44932 0
M  V30 1506 H 139.842 -0.679849 0.294765 0
M  V30 1507 H 142.489 -1.3572 1.35101 0
M  V30 1508 H 140.794 -3.86536 0.640103 0
M  V30 1509 H 142.491 -3.87511 1.03132 0
M  V30 1510 H 139.081 -3.5347 2.42398 0
M  V30 1511 H 143.265 -3.61404 3.40149 0
M  V30 1512 H 138.521 -3.7808 4.80484 0
M  V30 1513 H 142.695 -3.87268 5.78789 0
M  V30 1514 H 140.322 -3.95197 6.49403 0
M  V30 1515 N 141.898 -0.863906 -1.31812 0
M  V30 1516 C 143.146 -0.470904 -1.96537 0
M  V30 1517 C 143.467 0.978771 -1.68657 0
M  V30 1518 O 142.737 1.6853 -0.998717 0
M  V30 1519 H 141.317 -0.171148 -0.72713 0
M  V30 1520 H 143.979 -1.10236 -1.60729 0
M  V30 1521 H 143.075 -0.623616 -3.05806 0
M  V30 1522 N 143.376 1.44774 -0.622745 0
M  V30 1523 C 144.306 2.33382 0.0741861 0
M  V30 1524 C 145.287 1.47719 0.843387 0
M  V30 1525 O 146.472 1.76458 0.810934 0
M  V30 1526 C 143.602 3.30663 1.06204 0
M  V30 1527 C 142.556 4.26079 0.405037 0
M  V30 1528 C 141.882 5.13165 1.5022 0
M  V30 1529 C 143.182 5.1781 -0.683414 0
M  V30 1530 H 144.876 2.91905 -0.665713 0
M  V30 1531 H 142.422 1.40363 -0.321587 0
M  V30 1532 H 144.375 3.9153 1.55827 0
M  V30 1533 H 143.099 2.70331 1.83272 0
M  V30 1534 H 141.758 3.66532 -0.0704683 0
M  V30 1535 H 141.406 4.49191 2.26355 0
M  V30 1536 H 141.106 5.77812 1.06803 0
M  V30 1537 H 142.63 5.76902 2.00041 0
M  V30 1538 H 144.044 5.72661 -0.270631 0
M  V30 1539 H 142.441 5.91015 -1.04023 0
M  V30 1540 H 143.511 4.59326 -1.55395 0
M  V30 1541 N 144.854 0.36279 1.53368 0
M  V30 1542 C 146.1 -0.220702 2.02199 0
M  V30 1543 C 146.455 -1.46649 1.24546 0
M  V30 1544 O 145.748 -1.88737 0.32996 0
M  V30 1545 C 145.942 -0.568417 3.52851 0
M  V30 1546 C 145.771 0.642126 4.45092 0
M  V30 1547 C 144.541 1.15335 4.91961 0
M  V30 1548 C 146.739 1.50649 4.91741 0
M  V30 1549 N 144.721 2.3242 5.68202 0
M  V30 1550 C 146.092 2.52404 5.66297 0
M  V30 1551 C 148.147 1.52969 4.73819 0
M  V30 1552 C 146.85 3.56331 6.24836 0
M  V30 1553 C 148.876 2.55789 5.33222 0
M  V30 1554 C 148.238 3.56268 6.07662 0
M  V30 1555 H 144.337 -0.0435508 0.780786 0
M  V30 1556 H 146.921 0.506704 1.87991 0
M  V30 1557 H 145.092 -1.2649 3.67226 0
M  V30 1558 H 146.824 -1.13676 3.88407 0
M  V30 1559 H 143.579 0.718412 4.68119 0
M  V30 1560 H 144.003 2.91591 6.10986 0
M  V30 1561 H 148.645 0.766418 4.15795 0
M  V30 1562 H 146.363 4.33543 6.81958 0
M  V30 1563 H 149.949 2.58435 5.21251 0
M  V30 1564 H 148.829 4.34524 6.52808 0
M  V30 1565 N 146.332 -1.57332 0.0918853 0
M  V30 1566 C 147.581 -1.93412 -0.572249 0
M  V30 1567 C 147.894 -0.975515 -1.69538 0
M  V30 1568 O 149.1 -1.22991 -2.42045 0
M  V30 1569 C 147.556 -3.43648 -1.0693 0
M  V30 1570 C 147.164 -4.47994 0.0239049 0
M  V30 1571 C 148.908 -3.88695 -1.70635 0
M  V30 1572 C 146.815 -5.89381 -0.488319 0
M  V30 1573 H 145.745 -0.721939 -0.217532 0
M  V30 1574 H 148.396 -1.82735 0.167369 0
M  V30 1575 H 146.778 -3.49466 -1.8625 0
M  V30 1576 H 147.952 -4.53815 0.799277 0
M  V30 1577 H 146.267 -4.12536 0.565946 0
M  V30 1578 H 148.864 -4.91725 -2.10025 0
M  V30 1579 H 149.207 -3.27166 -2.57426 0
M  V30 1580 H 149.74 -3.85564 -0.979023 0
M  V30 1581 H 146.479 -6.54602 0.342906 0
M  V30 1582 H 145.999 -5.87037 -1.23077 0
M  V30 1583 H 147.678 -6.39863 -0.958317 0
M  V30 1584 N 147.81 0.181792 -1.56548 0
M  V30 1585 C 149.221 0.745244 -1.71181 0
M  V30 1586 C 149.572 1.83262 -0.70068 0
M  V30 1587 O 148.697 2.15946 0.140154 0
M  V30 1588 C 149.292 1.35859 -3.10367 0
M  V30 1589 C 147.851 1.86898 -3.2672 0
M  V30 1590 C 146.998 0.743942 -2.67134 0
M  V30 1591 H 149.949 -0.0434661 -1.5864 0
M  V30 1592 H 149.97 2.22817 -3.08436 0
M  V30 1593 H 149.482 0.566948 -3.83937 0
M  V30 1594 H 147.583 2.68738 -2.5809 0
M  V30 1595 H 147.696 2.02162 -4.34359 0
M  V30 1596 H 146.06 1.16169 -2.26665 0
M  V30 1597 H 146.843 -0.035676 -3.43281 0
M  V30 1598 N 149.288 1.51039 0.449983 0
M  V30 1599 C 150.218 1.74379 1.55288 0
M  V30 1600 C 151.199 0.593236 1.5942 0
M  V30 1601 O 152.384 0.834625 1.7535 0
M  V30 1602 C 149.514 1.85728 2.93466 0
M  V30 1603 C 148.468 3.01078 3.04197 0
M  V30 1604 C 147.794 2.97595 4.44231 0
M  V30 1605 C 149.094 4.41254 2.7945 0
M  V30 1606 H 150.788 2.66725 1.36008 0
M  V30 1607 H 148.334 1.2835 0.652864 0
M  V30 1608 H 150.287 2.0064 3.70569 0
M  V30 1609 H 149.011 0.900207 3.13949 0
M  V30 1610 H 147.67 2.85851 2.29531 0
M  V30 1611 H 147.318 1.99691 4.61663 0
M  V30 1612 H 147.018 3.75046 4.52343 0
M  V30 1613 H 148.542 3.14583 5.23326 0
M  V30 1614 H 149.956 4.56897 3.46292 0
M  V30 1615 H 148.353 5.20315 2.98985 0
M  V30 1616 H 149.423 4.52164 1.75144 0
M  V30 1617 N 150.766 -0.704594 1.40972 0
M  V30 1618 C 152.012 -1.46675 1.40051 0
M  V30 1619 C 152.345 -1.94199 0.00641102 0
M  V30 1620 O 151.62 -1.68916 -0.964235 0
M  V30 1621 C 151.903 -2.68505 2.39952 0
M  V30 1622 C 151.756 -2.26805 3.88432 0
M  V30 1623 C 153.075 -3.70686 2.37233 0
M  V30 1624 H 150.194 -0.532015 0.510028 0
M  V30 1625 H 152.836 -0.803255 1.72185 0
M  V30 1626 H 150.986 -3.25114 2.1268 0
M  V30 1627 H 152.658 -1.75592 4.26574 0
M  V30 1628 H 150.901 -1.58685 4.03734 0
M  V30 1629 H 151.572 -3.14181 4.53866 0
M  V30 1630 H 154.048 -3.23731 2.61415 0
M  V30 1631 H 152.924 -4.53553 3.09162 0
M  V30 1632 H 153.185 -4.19754 1.38777 0
M  V30 1633 N 152.244 -1.26651 -0.937939 0
M  V30 1634 C 153.49 -1.12553 -1.687 0
M  V30 1635 C 153.823 0.329782 -1.91379 0
M  V30 1636 O 153.098 1.24202 -1.4968 0
M  V30 1637 C 153.381 -1.89862 -3.05981 0
M  V30 1638 C 153.234 -3.43318 -2.90607 0
M  V30 1639 C 154.553 -1.69499 -4.0615 0
M  V30 1640 H 151.672 -0.410257 -0.612257 0
M  V30 1641 H 154.314 -1.55685 -1.08913 0
M  V30 1642 H 152.464 -1.53204 -3.57017 0
M  V30 1643 H 154.136 -3.89747 -2.46769 0
M  V30 1644 H 152.379 -3.70179 -2.26164 0
M  V30 1645 H 153.05 -3.92642 -3.8799 0
M  V30 1646 H 155.526 -2.01442 -3.64088 0
M  V30 1647 H 154.402 -2.26002 -5.00214 0
M  V30 1648 H 154.663 -0.640365 -4.37438 0
M  V30 1649 N 153.722 1.14298 -1.08507 0
M  V30 1650 C 154.685 2.17607 -0.719711 0
M  V30 1651 C 155.685 1.58907 0.245997 0
M  V30 1652 O 156.875 1.74181 0.0254081 0
M  V30 1653 C 154.007 3.40842 -0.0627695 0
M  V30 1654 H 155.2 2.51443 -1.63452 0
M  V30 1655 H 152.753 1.28963 -0.88307 0
M  V30 1656 H 153.488 3.12587 0.863716 0
M  V30 1657 H 153.273 3.84713 -0.757504 0
M  V30 1658 H 154.763 4.17221 0.177786 0
M  V30 1659 N 155.201 0.870884 1.31352 0
M  V30 1660 C 156.45 0.478408 1.95944 0
M  V30 1661 C 156.763 -0.974493 1.69597 0
M  V30 1662 O 157.969 -1.47316 2.28058 0
M  V30 1663 C 156.425 0.804609 3.50791 0
M  V30 1664 C 156.033 2.27433 3.85977 0
M  V30 1665 C 157.777 0.480648 4.2177 0
M  V30 1666 C 155.684 2.5429 5.33939 0
M  V30 1667 H 154.614 0.175175 0.733369 0
M  V30 1668 H 157.265 1.06391 1.4951 0
M  V30 1669 H 155.647 0.148347 3.95722 0
M  V30 1670 H 156.821 2.97373 3.52002 0
M  V30 1671 H 155.136 2.56442 3.28065 0
M  V30 1672 H 157.733 0.658519 5.30629 0
M  V30 1673 H 158.076 -0.578979 4.12254 0
M  V30 1674 H 158.609 1.09349 3.82476 0
M  V30 1675 H 155.348 3.58939 5.48491 0
M  V30 1676 H 154.868 1.88945 5.69263 0
M  V30 1677 H 156.547 2.39066 6.01212 0
M  V30 1678 N 156.679 -1.44442 0.630414 0
M  V30 1679 C 157.909 -2.06115 0.141465 0
M  V30 1680 C 158.317 -1.47179 -1.1889 0
M  V30 1681 O 157.66 -0.588873 -1.74006 0
M  V30 1682 C 157.722 -3.59467 -0.0484355 0
M  V30 1683 C 157.386 -4.40864 1.20366 0
M  V30 1684 C 158.383 -4.74391 2.12719 0
M  V30 1685 C 156.068 -4.8125 1.43887 0
M  V30 1686 C 158.062 -5.47186 3.26904 0
M  V30 1687 C 155.749 -5.53795 2.5837 0
M  V30 1688 C 156.747 -5.86682 3.49705 0
M  V30 1689 O 156.435 -6.57749 4.62191 0
M  V30 1690 H 156.167 -0.671648 0.0765792 0
M  V30 1691 H 158.721 -1.86312 0.864695 0
M  V30 1692 H 156.951 -3.77758 -0.826803 0
M  V30 1693 H 158.64 -4.02909 -0.491849 0
M  V30 1694 H 159.406 -4.43728 1.95781 0
M  V30 1695 H 155.285 -4.55073 0.736853 0
M  V30 1696 H 158.829 -5.72773 3.98217 0
M  V30 1697 H 154.726 -5.83872 2.75251 0
M  V30 1698 H 155.494 -6.76217 4.61164 0
M  V30 1699 N 158.157 -0.370918 -1.53173 0
M  V30 1700 C 159.387 0.217389 -2.05453 0
M  V30 1701 C 159.795 1.42568 -1.24382 0
M  V30 1702 O 159.138 1.81571 -0.278839 0
M  V30 1703 C 159.2 0.669827 -3.53205 0
M  V30 1704 C 158.864 -0.4225 -4.55043 0
M  V30 1705 C 159.861 -1.27407 -5.04047 0
M  V30 1706 C 157.546 -0.58427 -4.9889 0
M  V30 1707 C 159.54 -2.27271 -5.95505 0
M  V30 1708 C 157.227 -1.58627 -5.90153 0
M  V30 1709 C 158.225 -2.42892 -6.38351 0
M  V30 1710 O 157.913 -3.41382 -7.27814 0
M  V30 1711 H 157.645 0.0408171 -0.674767 0
M  V30 1712 H 160.199 -0.5292 -1.98466 0
M  V30 1713 H 158.429 1.4681 -3.57748 0
M  V30 1714 H 160.118 1.18173 -3.88317 0
M  V30 1715 H 160.884 -1.16031 -4.70916 0
M  V30 1716 H 156.763 0.061851 -4.60959 0
M  V30 1717 H 160.307 -2.93079 -6.33049 0
M  V30 1718 H 156.204 -1.70048 -6.22699 0
M  V30 1719 H 156.972 -3.37173 -7.45826 0
M  V30 1720 N 159.635 1.57281 -0.100228 0
M  V30 1721 C 160.881 1.94826 0.563101 0
M  V30 1722 C 161.214 0.982475 1.67514 0
M  V30 1723 O 160.489 0.0164069 1.94493 0
M  V30 1724 C 160.772 3.42453 1.11346 0
M  V30 1725 C 160.625 4.498 0.00612081 0
M  V30 1726 C 161.944 3.91506 2.01024 0
M  V30 1727 H 159.063 0.708428 0.203221 0
M  V30 1728 H 161.705 1.8922 -0.171979 0
M  V30 1729 H 159.855 3.47361 1.7399 0
M  V30 1730 H 161.527 4.57 -0.628357 0
M  V30 1731 H 159.77 4.28756 -0.659581 0
M  V30 1732 H 160.441 5.50306 0.432109 0
M  V30 1733 H 162.917 3.88784 1.48278 0
M  V30 1734 H 161.793 4.95358 2.36457 0
M  V30 1735 H 162.054 3.31099 2.92961 0
M  V30 1736 N 161.113 -0.173488 1.56642 0
M  V30 1737 C 162.343 -0.904781 1.85734 0
M  V30 1738 C 162.751 -1.76431 0.68328 0
M  V30 1739 O 162.094 -1.802 -0.356865 0
M  V30 1740 C 162.156 -1.83382 3.09211 0
M  V30 1741 C 161.82 -1.15411 4.42187 0
M  V30 1742 C 162.817 -0.520609 5.17287 0
M  V30 1743 C 160.502 -1.15151 4.88923 0
M  V30 1744 C 162.496 0.106412 6.37311 0
M  V30 1745 C 160.183 -0.520664 6.08878 0
M  V30 1746 C 161.181 0.107196 6.82916 0
M  V30 1747 O 160.869 0.728102 8.00596 0
M  V30 1748 H 160.601 -0.268408 0.62043 0
M  V30 1749 H 163.155 -0.179096 2.04618 0
M  V30 1750 H 161.385 -2.59976 2.86268 0
M  V30 1751 H 163.074 -2.43476 3.24768 0
M  V30 1752 H 163.84 -0.514606 4.82262 0
M  V30 1753 H 159.719 -1.62961 4.31236 0
M  V30 1754 H 163.263 0.597081 6.9504 0
M  V30 1755 H 159.16 -0.524242 6.43368 0
M  V30 1756 H 159.928 0.627138 8.16094 0
M  V30 1757 N 162.591 -1.51276 -0.441967 0
M  V30 1758 C 163.84 -1.6295 -1.18871 0
M  V30 1759 C 164.153 -0.349312 -1.92456 0
M  V30 1760 O 165.359 -0.345355 -2.69295 0
M  V30 1761 C 163.815 -2.87759 -2.16155 0
M  V30 1762 C 163.423 -4.22764 -1.48239 0
M  V30 1763 C 165.167 -3.08788 -2.91291 0
M  V30 1764 C 163.074 -5.38728 -2.4398 0
M  V30 1765 H 162.004 -0.606913 -0.447406 0
M  V30 1766 H 164.655 -1.77739 -0.456205 0
M  V30 1767 H 163.037 -2.66593 -2.92821 0
M  V30 1768 H 164.211 -4.54293 -0.771635 0
M  V30 1769 H 162.526 -4.07575 -0.852741 0
M  V30 1770 H 165.123 -3.92599 -3.63002 0
M  V30 1771 H 165.466 -2.21679 -3.5237 0
M  V30 1772 H 165.999 -3.30272 -2.21733 0
M  V30 1773 H 162.738 -6.28082 -1.87598 0
M  V30 1774 H 162.258 -5.1158 -3.13123 0
M  V30 1775 H 163.937 -5.70489 -3.05207 0
M  V30 1776 N 164.069 0.697108 -1.41344 0
M  V30 1777 C 164.979 1.84088 -1.45427 0
M  V30 1778 C 165.995 1.70545 -0.34501 0
M  V30 1779 O 167.171 1.92488 -0.592492 0
M  V30 1780 C 164.236 3.20056 -1.33286 0
M  V30 1781 C 163.297 3.45718 -2.54514 0
M  V30 1782 C 162.53 4.75199 -2.42944 0
M  V30 1783 O 162.753 5.51579 -1.45318 0
M  V30 1784 O 161.687 5.0161 -3.32672 0
M  V30 1785 H 165.513 1.836 -2.41919 0
M  V30 1786 H 163.098 0.849966 -1.22866 0
M  V30 1787 H 164.98 4.01236 -1.28794 0
M  V30 1788 H 163.655 3.2123 -0.39909 0
M  V30 1789 H 162.562 2.64474 -2.64583 0
M  V30 1790 H 163.895 3.49356 -3.46715 0
M  V30 1791 N 165.547 1.27147 0.931209 0
M  V30 1792 C 166.772 1.16191 1.71797 0
M  V30 1793 C 167.197 -0.278004 1.86034 0
M  V30 1794 O 166.555 -1.20137 1.35782 0
M  V30 1795 C 166.603 1.84673 3.09723 0
M  V30 1796 O 165.707 1.14231 3.96264 0
M  V30 1797 H 165.048 0.404303 0.526721 0
M  V30 1798 H 167.578 1.68152 1.1656 0
M  V30 1799 H 167.588 1.91893 3.60057 0
M  V30 1800 H 166.263 2.89421 2.98677 0
M  V30 1801 H 164.84 1.15056 3.54706 0
M  V30 1802 N 167.025 -1.13721 1.09112 0
M  V30 1803 C 168.271 -1.85413 0.836283 0
M  V30 1804 C 168.626 -1.8175 -0.631249 0
M  V30 1805 O 167.919 -1.24238 -1.45861 0
M  V30 1806 C 168.113 -3.32861 1.30146 0
M  V30 1807 C 167.942 -3.50882 2.81268 0
M  V30 1808 C 166.712 -3.65312 3.49106 0
M  V30 1809 C 168.91 -3.47196 3.7942 0
M  V30 1810 N 166.892 -3.71563 4.88686 0
M  V30 1811 C 168.263 -3.59777 5.04936 0
M  V30 1812 C 170.318 -3.30577 3.72321 0
M  V30 1813 C 169.021 -3.57455 6.24194 0
M  V30 1814 C 171.047 -3.29562 4.91063 0
M  V30 1815 C 170.409 -3.42691 6.15421 0
M  V30 1816 H 166.508 -0.694812 0.358832 0
M  V30 1817 H 169.092 -1.36246 1.39087 0
M  V30 1818 H 167.263 -3.80602 0.774361 0
M  V30 1819 H 168.995 -3.92346 0.99229 0
M  V30 1820 H 165.75 -3.6685 2.9953 0
M  V30 1821 H 166.174 -3.78387 5.61384 0
M  V30 1822 H 170.816 -3.19332 2.77105 0
M  V30 1823 H 168.534 -3.67475 7.19714 0
M  V30 1824 H 172.12 -3.17905 4.87266 0
M  V30 1825 H 171 -3.41862 7.05762 0
M  V30 1826 N 168.503 -0.877838 -1.30888 0
M  V30 1827 C 169.731 -0.507414 -2.00581 0
M  V30 1828 C 170.146 0.902216 -1.65848 0
M  V30 1829 O 169.503 1.59225 -0.891831 0
M  V30 1830 C 169.554 -0.664162 -3.55347 0
M  V30 1831 O 169.275 -2.01829 -3.8884 0
M  V30 1832 C 170.776 -0.295787 -4.42312 0
M  V30 1833 H 167.996 -0.196866 -0.641471 0
M  V30 1834 H 170.54 -1.18117 -1.66939 0
M  V30 1835 H 168.695 -0.0378619 -3.87381 0
M  V30 1836 H 169.109 -2.03174 -4.8355 0
M  V30 1837 H 170.583 -0.456388 -5.5011 0
M  V30 1838 H 171.06 0.765663 -4.32475 0
M  V30 1839 H 171.666 -0.898113 -4.15709 0
M  V30 1840 N 169.982 1.44106 -0.638065 0
M  V30 1841 C 170.912 2.33448 0.0494287 0
M  V30 1842 C 171.893 1.48606 0.827672 0
M  V30 1843 O 173.078 1.77308 0.792173 0
M  V30 1844 C 170.208 3.31771 1.02691 0
M  V30 1845 C 169.162 4.26485 0.359823 0
M  V30 1846 C 168.488 5.14729 1.44769 0
M  V30 1847 C 169.788 5.17056 -0.738296 0
M  V30 1848 H 171.482 2.91183 -0.696636 0
M  V30 1849 H 169.028 1.40014 -0.336456 0
M  V30 1850 H 170.981 3.93161 1.51666 0
M  V30 1851 H 169.705 2.7226 1.80395 0
M  V30 1852 H 168.364 3.66437 -0.10934 0
M  V30 1853 H 168.012 4.51566 2.21578 0
M  V30 1854 H 167.712 5.78913 1.00668 0
M  V30 1855 H 169.236 5.78991 1.93911 0
M  V30 1856 H 170.65 5.72342 -0.331354 0
M  V30 1857 H 169.047 5.89879 -1.10286 0
M  V30 1858 H 170.117 4.57652 -1.60258 0
M  V30 1859 N 171.46 0.379036 1.52974 0
M  V30 1860 C 172.708 -0.206014 2.01047 0
M  V30 1861 C 173.029 -1.48175 1.26765 0
M  V30 1862 O 172.299 -1.92085 0.384743 0
M  V30 1863 H 170.879 -0.0791184 0.742798 0
M  V30 1864 H 173.541 0.508366 1.88153 0
M  V30 1865 H 172.637 -0.423501 3.09213 0
M  V30 1866 N 172.938 -1.57226 0.108567 0
M  V30 1867 C 174.185 -1.94833 -0.551943 0
M  V30 1868 C 174.513 -0.991204 -1.67348 0
M  V30 1869 O 173.768 -0.0131878 -1.95696 0
M  V30 1870 C 174.067 -3.38911 -1.13463 0
M  V30 1871 C 173.733 -4.50696 -0.135509 0
M  V30 1872 C 172.395 -4.80998 0.139252 0
M  V30 1873 C 174.747 -5.18333 0.545957 0
M  V30 1874 C 172.075 -5.76259 1.10194 0
M  V30 1875 C 174.427 -6.14627 1.49721 0
M  V30 1876 C 173.091 -6.43327 1.78006 0
M  V30 1877 H 172.361 -0.712944 -0.20197 0
M  V30 1878 H 175.008 -1.90582 0.18726 0
M  V30 1879 H 173.313 -3.39805 -1.95037 0
M  V30 1880 H 175.01 -3.65317 -1.65362 0
M  V30 1881 H 171.6 -4.27087 -0.359846 0
M  V30 1882 H 175.784 -4.95087 0.346842 0
M  V30 1883 H 171.04 -5.96804 1.32795 0
M  V30 1884 H 175.214 -6.66126 2.03099 0
M  V30 1885 H 172.841 -7.1695 2.52759 0
M  V30 1886 N 174.416 0.165178 -1.56732 0
M  V30 1887 C 175.379 1.18822 -1.95995 0
M  V30 1888 C 176.379 1.3685 -0.84431 0
M  V30 1889 O 177.569 1.34152 -1.11126 0
M  V30 1890 C 174.701 2.5521 -2.26011 0
M  V30 1891 H 175.894 0.851825 -2.87548 0
M  V30 1892 H 173.447 0.407857 -1.50885 0
M  V30 1893 H 174.182 2.93852 -1.37191 0
M  V30 1894 H 173.967 2.43489 -3.07336 0
M  V30 1895 H 175.457 3.28927 -2.57288 0
M  V30 1896 N 175.894 1.51508 0.433938 0
M  V30 1897 C 177.143 1.63578 1.18005 0
M  V30 1898 C 177.456 0.359514 1.92268 0
M  V30 1899 O 178.662 0.359632 2.69108 0
M  V30 1900 C 177.118 2.88901 2.14626 0
M  V30 1901 C 176.726 4.23544 1.45995 0
M  V30 1902 C 178.47 3.10328 2.89649 0
M  V30 1903 C 176.377 5.40014 2.4112 0
M  V30 1904 H 175.307 0.609277 0.444182 0
M  V30 1905 H 177.958 1.77978 0.446773 0
M  V30 1906 H 176.34 2.68142 2.91403 0
M  V30 1907 H 177.514 4.54696 0.747532 0
M  V30 1908 H 175.829 4.08021 0.831115 0
M  V30 1909 H 178.426 3.94518 3.60915 0
M  V30 1910 H 178.769 2.23544 3.51189 0
M  V30 1911 H 179.302 3.31443 2.19978 0
M  V30 1912 H 176.041 6.29068 1.84264 0
M  V30 1913 H 175.561 5.13233 3.10406 0
M  V30 1914 H 177.24 5.72099 3.02177 0
M  V30 1915 N 177.372 -0.689602 1.41712 0
M  V30 1916 C 178.319 -1.80345 1.44029 0
M  V30 1917 C 179.289 -1.63478 0.293948 0
M  V30 1918 O 180.474 -1.84244 0.495869 0
M  V30 1919 C 177.614 -3.18272 1.33405 0
M  V30 1920 C 176.727 -3.46529 2.57956 0
M  V30 1921 C 175.862 -4.74103 2.39582 0
M  V30 1922 C 174.901 -4.95347 3.5958 0
M  V30 1923 N 174.038 -6.14151 3.40239 0
M  V30 1924 H 178.878 -1.77698 2.39222 0
M  V30 1925 H 176.415 -0.867688 1.18784 0
M  V30 1926 H 178.373 -3.97956 1.25246 0
M  V30 1927 H 177.003 -3.2008 0.418164 0
M  V30 1928 H 176.055 -2.61207 2.76542 0
M  V30 1929 H 177.367 -3.58126 3.47199 0
M  V30 1930 H 176.521 -5.61853 2.28924 0
M  V30 1931 H 175.26 -4.64763 1.47805 0
M  V30 1932 H 174.265 -4.06044 3.70686 0
M  V30 1933 H 175.49 -5.06542 4.52318 0
M  V30 1934 H 173.436 -6.06013 2.51167 0
M  V30 1935 H 173.353 -6.26543 4.23061 0
M  V30 1936 H 174.621 -7.04619 3.33365 0
M  V30 1937 N 178.85 -1.27639 -0.924453 0
M  V30 1938 C 180.097 -1.14167 -1.67249 0
M  V30 1939 C 180.425 0.311863 -1.91984 0
M  V30 1940 O 179.68 1.24425 -1.51053 0
M  V30 1941 C 179.979 -1.87407 -3.04325 0
M  V30 1942 C 179.645 -3.37249 -2.99289 0
M  V30 1943 C 178.307 -3.7812 -2.97622 0
M  V30 1944 C 180.659 -4.32845 -2.90336 0
M  V30 1945 C 177.987 -5.12944 -2.8479 0
M  V30 1946 C 180.339 -5.6773 -2.79045 0
M  V30 1947 C 179.003 -6.07889 -2.7573 0
M  V30 1948 H 178.273 -0.417766 -0.612007 0
M  V30 1949 H 180.92 -1.58286 -1.07786 0
M  V30 1950 H 179.225 -1.35805 -3.67511 0
M  V30 1951 H 180.922 -1.74408 -3.61086 0
M  V30 1952 H 177.512 -3.04748 -3.01374 0
M  V30 1953 H 181.696 -4.02239 -2.90719 0
M  V30 1954 H 176.952 -5.432 -2.80612 0
M  V30 1955 H 181.126 -6.41472 -2.71083 0
M  V30 1956 H 178.753 -7.12314 -2.65544 0
M  V30 1957 N 180.328 1.1314 -1.09713 0
M  V30 1958 C 181.258 2.20748 -0.761102 0
M  V30 1959 C 182.239 1.68061 0.262566 0
M  V30 1960 O 183.424 1.93765 0.129977 0
M  V30 1961 C 180.554 3.46812 -0.184054 0
M  V30 1962 C 179.508 4.12606 -1.13757 0
M  V30 1963 C 178.834 5.33031 -0.422083 0
M  V30 1964 C 180.134 4.59603 -2.48118 0
M  V30 1965 H 181.828 2.49113 -1.66082 0
M  V30 1966 H 179.374 1.19734 -0.799987 0
M  V30 1967 H 181.327 4.21353 0.0631215 0
M  V30 1968 H 180.051 3.17851 0.750868 0
M  V30 1969 H 178.71 3.40036 -1.37007 0
M  V30 1970 H 178.358 5.00335 0.517072 0
M  V30 1971 H 178.058 5.77999 -1.05788 0
M  V30 1972 H 179.582 6.10325 -0.183277 0
M  V30 1973 H 180.996 5.25552 -2.29059 0
M  V30 1974 H 179.393 5.15321 -3.07514 0
M  V30 1975 H 180.463 3.73971 -3.08665 0
M  V30 1976 N 181.806 0.884767 1.30421 0
M  V30 1977 C 183.052 0.503851 1.96441 0
M  V30 1978 C 183.385 -0.944518 1.69684 0
M  V30 1979 O 182.66 -1.66737 1.00145 0
M  V30 1980 C 182.943 0.779085 3.51571 0
M  V30 1981 C 182.796 2.27807 3.87846 0
M  V30 1982 C 184.115 0.255452 4.39358 0
M  V30 1983 H 181.234 0.184533 0.713524 0
M  V30 1984 H 183.876 1.10872 1.54297 0
M  V30 1985 H 182.026 0.264274 3.876 0
M  V30 1986 H 183.698 2.86127 3.61841 0
M  V30 1987 H 181.941 2.74479 3.35922 0
M  V30 1988 H 182.612 2.42125 4.96064 0
M  V30 1989 H 185.088 0.696079 4.10236 0
M  V30 1990 H 183.964 0.477361 5.4682 0
M  V30 1991 H 184.225 -0.843293 4.33983 0
M  V30 1992 N 183.284 -1.43765 0.645699 0
M  V30 1993 C 184.532 -2.01499 0.155731 0
M  V30 1994 C 184.853 -1.51151 -1.232 0
M  V30 1995 O 184.123 -0.721044 -1.82148 0
M  V30 1996 H 182.703 -0.745003 0.0545817 0
M  V30 1997 H 185.365 -1.76075 0.835677 0
M  V30 1998 H 184.461 -3.1181 0.134577 0
M  V30 1999 N 184.763 -0.387143 -1.52771 0
M  V30 2000 C 185.693 0.440551 -2.29306 0
M  V30 2001 C 186.674 1.06535 -1.32606 0
M  V30 2002 O 187.859 1.07853 -1.61497 0
M  V30 2003 C 184.989 1.56919 -3.09829 0
M  V30 2004 C 183.943 1.07054 -4.14395 0
M  V30 2005 C 183.269 2.29109 -4.83129 0
M  V30 2006 C 184.569 0.140015 -5.22112 0
M  V30 2007 H 186.263 -0.198026 -2.98744 0
M  V30 2008 H 183.809 -0.09668 -1.43675 0
M  V30 2009 H 185.762 2.15503 -3.62128 0
M  V30 2010 H 184.486 2.23532 -2.3812 0
M  V30 2011 H 183.145 0.507247 -3.63074 0
M  V30 2012 H 182.793 2.94227 -4.0797 0
M  V30 2013 H 182.493 1.96406 -5.53804 0
M  V30 2014 H 184.017 2.88339 -5.38231 0
M  V30 2015 H 185.431 0.633978 -5.69784 0
M  V30 2016 H 183.828 -0.0971485 -6.00021 0
M  V30 2017 H 184.898 -0.811711 -4.78058 0
M  V30 2018 N 186.241 1.57166 -0.116904 0
M  V30 2019 C 187.487 1.95412 0.542405 0
M  V30 2020 C 187.82 1.00019 1.66463 0
M  V30 2021 O 187.095 0.0370346 1.94465 0
M  V30 2022 C 187.378 3.43615 1.07708 0
M  V30 2023 C 187.231 4.49781 -0.0415868 0
M  V30 2024 C 188.55 3.93616 1.96861 0
M  V30 2025 H 185.669 0.710543 0.195696 0
M  V30 2026 H 188.311 1.89027 -0.192038 0
M  V30 2027 H 186.461 3.49187 1.70296 0
M  V30 2028 H 188.133 4.56308 -0.676793 0
M  V30 2029 H 186.376 4.28033 -0.705019 0
M  V30 2030 H 187.047 5.50733 0.373717 0
M  V30 2031 H 189.523 3.90335 1.44146 0
M  V30 2032 H 188.399 4.97838 2.3119 0
M  V30 2033 H 188.66 3.34188 2.89432 0
M  V30 2034 N 187.719 -0.156864 1.56817 0
M  V30 2035 C 189.13 -0.717916 1.72345 0
M  V30 2036 C 189.481 -1.82124 0.729747 0
M  V30 2037 O 188.606 -2.16141 -0.105781 0
M  V30 2038 C 189.201 -1.30904 3.12489 0
M  V30 2039 C 187.76 -1.81676 3.29653 0
M  V30 2040 C 186.907 -0.701349 2.68284 0
M  V30 2041 H 189.858 0.0686989 1.58551 0
M  V30 2042 H 189.879 -2.17882 3.11942 0
M  V30 2043 H 189.391 -0.505796 3.8479 0
M  V30 2044 H 187.492 -2.64598 2.62333 0
M  V30 2045 H 187.605 -1.95226 4.3752 0
M  V30 2046 H 185.969 -1.12548 2.28484 0
M  V30 2047 H 186.752 0.0902846 3.43181 0
M  V30 2048 N 189.197 -1.51736 -0.425897 0
M  V30 2049 C 190.107 -1.76738 -1.54275 0
M  V30 2050 C 191.123 -0.65211 -1.61318 0
M  V30 2051 O 192.299 -0.935654 -1.78346 0
M  V30 2052 C 189.364 -1.89755 -2.90162 0
M  V30 2053 C 188.425 -3.13633 -2.93143 0
M  V30 2054 C 187.658 -3.2602 -4.22548 0
M  V30 2055 O 187.881 -2.44067 -5.15546 0
M  V30 2056 O 186.815 -4.19071 -4.32046 0
M  V30 2057 H 190.641 -2.71502 -1.36089 0
M  V30 2058 H 188.226 -1.36376 -0.610069 0
M  V30 2059 H 190.108 -2.00236 -3.70788 0
M  V30 2060 H 188.783 -0.981785 -3.08452 0
M  V30 2061 H 187.69 -3.08622 -2.11431 0
M  V30 2062 H 189.023 -4.04936 -2.798 0
M  V30 2063 N 190.675 0.682077 -1.42076 0
M  V30 2064 C 192.086 1.26246 -1.37546 0
M  V30 2065 C 192.437 1.96092 -0.0651481 0
M  V30 2066 O 191.562 1.99587 0.836297 0
M  V30 2067 C 192.157 2.29594 -2.49143 0
M  V30 2068 C 190.716 2.83175 -2.47969 0
M  V30 2069 C 189.863 1.57395 -2.28303 0
M  V30 2070 H 192.814 0.475937 -1.51395 0
M  V30 2071 H 192.835 3.11175 -2.18976 0
M  V30 2072 H 192.347 1.78729 -3.44496 0
M  V30 2073 H 190.448 3.3818 -1.56413 0
M  V30 2074 H 190.561 3.32687 -3.44755 0
M  V30 2075 H 188.925 1.83699 -1.76428 0
M  V30 2076 H 189.708 1.08507 -3.25701 0
M  V30 2077 N 192.153 1.28127 0.917671 0
M  V30 2078 C 193.564 1.13622 1.48145 0
M  V30 2079 C 193.915 -0.275207 1.9426 0
M  V30 2080 O 193.04 -1.1691 1.82102 0
M  V30 2081 C 193.635 2.05648 2.69248 0
M  V30 2082 C 192.194 1.95219 3.21818 0
M  V30 2083 C 191.341 1.97618 1.94532 0
M  V30 2084 H 194.292 1.40874 0.730772 0
M  V30 2085 H 194.313 1.61818 3.44377 0
M  V30 2086 H 193.825 3.08365 2.35653 0
M  V30 2087 H 191.926 0.955244 3.60147 0
M  V30 2088 H 192.039 2.81976 3.87333 0
M  V30 2089 H 190.403 1.41973 2.11461 0
M  V30 2090 H 191.186 3.02007 1.63238 0
M  V30 2091 N 193.631 -1.12557 1.10312 0
M  V30 2092 C 195.042 -1.65574 0.862678 0
M  V30 2093 C 195.393 -1.86566 -0.607256 0
M  V30 2094 O 194.518 -1.59121 -1.46662 0
M  V30 2095 C 195.113 -3.00776 1.55947 0
M  V30 2096 C 193.672 -3.50748 1.36576 0
M  V30 2097 C 192.819 -2.25797 1.60968 0
M  V30 2098 H 195.77 -0.963552 1.26101 0
M  V30 2099 H 195.791 -3.67185 0.997753 0
M  V30 2100 H 195.303 -2.85465 2.62928 0
M  V30 2101 H 193.404 -3.71245 0.317531 0
M  V30 2102 H 193.517 -4.30289 2.10686 0
M  V30 2103 H 191.881 -2.32841 1.03234 0
M  V30 2104 H 192.664 -2.13043 2.69198 0
M  V30 2105 N 195.109 -0.891671 -1.2995 0
M  V30 2106 C 196.057 -0.353066 -2.29905 0
M  V30 2107 C 197.051 0.543509 -1.60444 0
M  V30 2108 O 198.257 0.4272 -1.74857 0
M  V30 2109 H 194.632 -0.095531 -0.745907 0
M  V30 2110 H 196.603 -1.20961 -2.72784 0
M  V30 2111 C 195.352 0.411475 -3.45257 0
M  V30 2112 H 194.675 -0.269182 -3.98893 0
M  V30 2113 H 196.115 0.753328 -4.17254 0
M  V30 2114 C 194.574 1.6111 -2.9588 0
M  V30 2115 O 195.104 2.71045 -2.96475 0
M  V30 2116 N 193.31 1.45054 -2.51809 0
M  V30 2117 H 192.857 0.556175 -2.51524 0
M  V30 2118 H 192.815 2.25453 -2.1913 0
M  V30 2119 N 196.587 1.43421 -0.653314 0
M  V30 2120 C 197.55 2.29182 0.0287951 0
M  V30 2121 C 198.55 1.42213 0.750465 0
M  V30 2122 O 199.74 1.63843 0.591701 0
M  V30 2123 C 196.872 3.24278 1.05151 0
M  V30 2124 H 198.065 2.90985 -0.725786 0
M  V30 2125 H 195.618 1.50702 -0.414545 0
M  V30 2126 H 196.353 2.6737 1.83532 0
M  V30 2127 H 196.138 3.88396 0.537687 0
M  V30 2128 H 197.628 3.88647 1.52786 0
M  V30 2129 N 198.065 0.39524 1.52563 0
M  V30 2130 C 199.293 -0.184943 2.06072 0
M  V30 2131 C 199.708 -1.40021 1.26647 0
M  V30 2132 O 199.065 -1.79767 0.314672 0
M  V30 2133 C 199.116 -0.549179 3.57304 0
M  V30 2134 O 198.837 0.617813 4.33722 0
M  V30 2135 C 200.338 -1.18459 4.2718 0
M  V30 2136 H 197.558 -0.0265025 0.670476 0
M  V30 2137 H 200.102 0.562184 1.96621 0
M  V30 2138 H 198.257 -1.2462 3.66809 0
M  V30 2139 H 198.671 0.317091 5.23541 0
M  V30 2140 H 200.145 -1.38976 5.34219 0
M  V30 2141 H 200.622 -2.15368 3.82771 0
M  V30 2142 H 201.228 -0.528163 4.22008 0
M  V30 2143 N 199.544 -1.57102 0.125237 0
M  V30 2144 C 200.821 -1.86953 -0.575142 0
M  V30 2145 C 201.201 -1.02749 -1.84407 0
M  V30 2146 O 200.549 -0.108144 -2.28244 0
M  V30 2147 C 200.759 -3.38198 -0.861583 0
M  V30 2148 C 202.107 -4.06937 -1.21192 0
M  V30 2149 O 203.131 -3.43252 -0.951645 0
M  V30 2150 O 201.99 -5.19364 -1.70068 0
M  V30 2151 H 199.084 -0.774147 -0.290906 0
M  V30 2152 H 201.63 -1.68942 0.160211 0
M  V30 2153 H 200.402 -3.91282 0.0373647 0
M  V30 2154 H 200.025 -3.61661 -1.65188 0
M  V30 2155 N 201.022 0.148545 -1.56898 0
M  V30 2156 C 202.433 0.708766 -1.72723 0
M  V30 2157 C 202.784 1.81734 -0.739395 0
M  V30 2158 O 201.909 2.16194 0.0943169 0
M  V30 2159 C 202.504 1.29245 -3.13179 0
M  V30 2160 C 201.063 1.79925 -3.30611 0
M  V30 2161 C 200.21 0.687111 -2.68652 0
M  V30 2162 H 203.161 -0.0771063 -1.58513 0
M  V30 2163 H 203.182 2.16224 -3.13093 0
M  V30 2164 H 202.694 0.485382 -3.85053 0
M  V30 2165 H 200.795 2.63203 -2.63732 0
M  V30 2166 H 200.908 1.92903 -4.38549 0
M  V30 2167 H 199.272 1.11335 -2.29078 0
M  V30 2168 H 200.055 -0.108483 -3.43129 0
M  V30 2169 N 202.5 1.5196 0.417844 0
M  V30 2170 C 203.777 1.56146 1.17803 0
M  V30 2171 C 204.157 0.337275 2.08388 0
M  V30 2172 O 203.505 -0.676447 2.18258 0
M  V30 2173 C 203.715 2.88566 1.96293 0
M  V30 2174 C 205.063 3.41244 2.52662 0
M  V30 2175 O 206.087 2.90247 2.06483 0
M  V30 2176 O 204.946 4.30273 3.36938 0
M  V30 2177 H 202.04 0.628598 0.537395 0
M  V30 2178 H 204.586 1.64283 0.425331 0
M  V30 2179 H 203.358 3.69116 1.2988 0
M  V30 2180 H 202.981 2.83681 2.78587 0
M  V30 2181 N 203.978 -0.674533 1.42435 0
M  V30 2182 C 205.203 -1.46784 1.46524 0
M  V30 2183 C 205.628 -1.87938 0.078066 0
M  V30 2184 O 204.986 -1.56014 -0.92354 0
M  V30 2185 C 205.034 -2.69307 2.39805 0
M  V30 2186 O 204.138 -3.67587 1.86959 0
M  V30 2187 H 203.479 -0.440959 0.496439 0
M  V30 2188 H 206.009 -0.827326 1.87127 0
M  V30 2189 H 206.019 -3.17374 2.56393 0
M  V30 2190 H 204.694 -2.38692 3.40586 0
M  V30 2191 H 203.271 -3.2662 1.79927 0
M  V30 2192 N 205.456 -1.28612 -0.910864 0
M  V30 2193 C 206.705 -1.15311 -1.65488 0
M  V30 2194 C 207.018 0.296999 -1.93332 0
M  V30 2195 O 208.224 0.551168 -2.65847 0
M  V30 2196 C 206.68 -2.01599 -2.98137 0
M  V30 2197 C 206.288 -3.51367 -2.7793 0
M  V30 2198 C 208.032 -1.96993 -3.76024 0
M  V30 2199 C 205.939 -4.29797 -4.06237 0
M  V30 2200 H 204.869 -0.42796 -0.620779 0
M  V30 2201 H 207.52 -1.53166 -1.01057 0
M  V30 2202 H 205.902 -1.56603 -3.63719 0
M  V30 2203 H 207.076 -4.0434 -2.21011 0
M  V30 2204 H 205.391 -3.57529 -2.13452 0
M  V30 2205 H 207.988 -2.52856 -4.71135 0
M  V30 2206 H 208.331 -0.94733 -4.05378 0
M  V30 2207 H 208.864 -2.39973 -3.17266 0
M  V30 2208 H 205.603 -5.32648 -3.82055 0
M  V30 2209 H 205.123 -3.81596 -4.62757 0
M  V30 2210 H 206.802 -4.39869 -4.74473 0
M  V30 2211 N 206.934 1.1197 -1.10907 0
M  V30 2212 C 207.864 2.19928 -0.784473 0
M  V30 2213 C 208.845 1.6833 0.244726 0
M  V30 2214 O 210.03 1.93892 0.109418 0
M  V30 2215 C 207.16 3.46597 -0.220827 0
M  V30 2216 C 206.114 4.11376 -1.18127 0
M  V30 2217 C 205.44 5.32554 -0.478594 0
M  V30 2218 C 206.74 4.56945 -2.52979 0
M  V30 2219 H 208.434 2.47337 -1.68715 0
M  V30 2220 H 205.98 1.18879 -0.812642 0
M  V30 2221 H 207.933 4.21396 0.0184278 0
M  V30 2222 H 206.657 3.1863 0.717113 0
M  V30 2223 H 205.316 3.38564 -1.40606 0
M  V30 2224 H 204.964 5.00856 0.463976 0
M  V30 2225 H 204.664 5.76844 -1.11912 0
M  V30 2226 H 206.188 6.10096 -0.248 0
M  V30 2227 H 207.602 5.23093 -2.3462 0
M  V30 2228 H 205.999 5.1203 -3.12962 0
M  V30 2229 H 207.069 3.70676 -3.12614 0
M  V30 2230 N 208.412 0.89855 1.29475 0
M  V30 2231 C 209.828 0.594483 1.48115 0
M  V30 2232 C 210.028 -0.86431 1.82022 0
M  V30 2233 O 209.084 -1.64457 1.91599 0
M  V30 2234 C 210.397 1.51932 2.59494 0
M  V30 2235 C 211.945 1.5244 2.7337 0
M  V30 2236 C 212.42 2.43548 3.87877 0
M  V30 2237 N 213.911 2.41589 3.95208 0
M  V30 2238 C 214.646 3.08789 4.83153 0
M  V30 2239 N 214.142 3.85265 5.75798 0
M  V30 2240 N 215.935 2.97952 4.76635 0
M  V30 2241 H 208.086 1.84207 1.05742 0
M  V30 2242 H 210.349 0.789251 0.525154 0
M  V30 2243 H 210.055 2.55865 2.41301 0
M  V30 2244 H 209.929 1.23899 3.56271 0
M  V30 2245 H 212.316 0.492518 2.90961 0
M  V30 2246 H 212.397 1.8451 1.77172 0
M  V30 2247 H 212.041 3.46829 3.71041 0
M  V30 2248 H 211.971 2.08788 4.83441 0
M  V30 2249 H 214.462 1.86025 3.28943 0
M  V30 2250 H 214.775 4.33598 6.39697 0
M  V30 2251 H 213.12 3.89371 5.75687 0
M  V30 2252 H 216.311 2.37723 4.03244 0
M  V30 2253 H 216.484 3.50599 5.44962 0
M  V30 2254 N 209.89 -1.43072 0.660911 0
M  V30 2255 C 211.301 -1.84932 0.256348 0
M  V30 2256 C 211.652 -1.55325 -1.19868 0
M  V30 2257 O 210.777 -1.00607 -1.91591 0
M  V30 2258 C 211.372 -3.35684 0.458475 0
M  V30 2259 C 209.931 -3.76245 0.108161 0
M  V30 2260 C 209.078 -2.66749 0.757641 0
M  V30 2261 H 212.029 -1.33116 0.864051 0
M  V30 2262 H 212.05 -3.79365 -0.293683 0
M  V30 2263 H 211.562 -3.572 1.51755 0
M  V30 2264 H 209.663 -3.60338 -0.948014 0
M  V30 2265 H 209.776 -4.76058 0.538992 0
M  V30 2266 H 208.14 -2.53989 0.190185 0
M  V30 2267 H 208.923 -2.91092 1.81989 0
M  V30 2268 N 211.368 -0.403325 -1.52352 0
M  V30 2269 C 212.615 0.174347 -2.01748 0
M  V30 2270 C 212.943 1.45636 -1.2892 0
M  V30 2271 O 212.198 1.9193 -0.382258 0
M  V30 2272 C 212.497 0.474665 -3.54234 0
M  V30 2273 C 212.163 -0.717458 -4.45155 0
M  V30 2274 C 210.825 -1.04447 -4.69728 0
M  V30 2275 C 213.177 -1.51432 -4.98716 0
M  V30 2276 C 210.505 -2.16963 -5.45109 0
M  V30 2277 C 212.857 -2.6302 -5.75329 0
M  V30 2278 C 211.521 -2.96213 -5.98175 0
M  V30 2279 H 210.791 0.0637981 -0.738248 0
M  V30 2280 H 213.438 -0.543553 -1.83624 0
M  V30 2281 H 211.743 1.27406 -3.70506 0
M  V30 2282 H 213.44 0.934496 -3.89959 0
M  V30 2283 H 210.03 -0.452596 -4.26204 0
M  V30 2284 H 214.214 -1.27491 -4.79645 0
M  V30 2285 H 209.47 -2.43034 -5.61021 0
M  V30 2286 H 213.644 -3.25158 -6.15829 0
M  V30 2287 H 211.271 -3.83516 -6.56368 0
M  V30 2288 N 212.846 1.57033 -0.133567 0
M  V30 2289 C 213.793 2.16074 0.811208 0
M  V30 2290 C 214.763 1.08979 1.2535 0
M  V30 2291 O 215.948 1.36958 1.32843 0
M  V30 2292 C 213.088 2.77595 2.05024 0
M  V30 2293 C 212.201 3.99042 1.65498 0
M  V30 2294 C 211.336 4.48603 2.84479 0
M  V30 2295 C 210.375 5.62547 2.41262 0
M  V30 2296 N 209.512 6.06787 3.53206 0
M  V30 2297 H 214.352 2.96477 0.300906 0
M  V30 2298 H 211.889 1.46462 0.136822 0
M  V30 2299 H 213.847 3.11402 2.77642 0
M  V30 2300 H 212.477 1.99859 2.53488 0
M  V30 2301 H 211.529 3.71302 0.826981 0
M  V30 2302 H 212.841 4.81629 1.29748 0
M  V30 2303 H 211.995 4.84395 3.65303 0
M  V30 2304 H 210.734 3.64995 3.23465 0
M  V30 2305 H 209.739 5.26345 1.58874 0
M  V30 2306 H 210.964 6.47931 2.03377 0
M  V30 2307 H 208.91 5.26117 3.91838 0
M  V30 2308 H 208.827 6.84266 3.21427 0
M  V30 2309 H 210.095 6.4722 4.34427 0
M  V30 2310 N 214.325 -0.140222 1.56975 0
M  V30 2311 C 215.235 -1.19223 2.02047 0
M  V30 2312 C 216.251 -1.46612 0.937062 0
M  V30 2313 O 217.427 -1.58148 1.24704 0
M  V30 2314 C 214.492 -2.50414 2.39778 0
M  V30 2315 C 213.553 -2.30612 3.621 0
M  V30 2316 C 212.786 -3.55547 3.98023 0
M  V30 2317 O 213.009 -4.62004 3.34528 0
M  V30 2318 O 211.943 -3.47808 4.91237 0
M  V30 2319 H 215.769 -0.839559 2.91865 0
M  V30 2320 H 213.354 -0.349453 1.45256 0
M  V30 2321 H 215.236 -3.27747 2.64877 0
M  V30 2322 H 213.911 -2.85198 1.53114 0
M  V30 2323 H 212.818 -1.51207 3.4218 0
M  V30 2324 H 214.151 -2.00741 4.49404 0
M  V30 2325 N 215.803 -1.52179 -0.40978 0
M  V30 2326 C 217.05 -1.66206 -1.15679 0
M  V30 2327 C 217.378 -0.391674 -1.90516 0
M  V30 2328 O 216.633 0.62533 -1.8544 0
M  V30 2329 C 216.932 -2.83428 -2.17723 0
M  V30 2330 C 216.598 -4.21672 -1.59699 0
M  V30 2331 C 215.26 -4.59274 -1.43599 0
M  V30 2332 C 217.612 -5.07825 -1.17317 0
M  V30 2333 C 214.94 -5.80709 -0.836328 0
M  V30 2334 C 217.292 -6.29864 -0.587691 0
M  V30 2335 C 215.956 -6.66216 -0.413818 0
M  V30 2336 H 215.226 -0.608192 -0.423301 0
M  V30 2337 H 217.873 -1.86279 -0.444097 0
M  V30 2338 H 216.178 -2.57687 -2.95135 0
M  V30 2339 H 217.875 -2.91477 -2.75394 0
M  V30 2340 H 214.465 -3.9204 -1.73213 0
M  V30 2341 H 218.649 -4.79359 -1.28565 0
M  V30 2342 H 213.905 -6.07498 -0.689626 0
M  V30 2343 H 218.079 -6.95948 -0.250894 0
M  V30 2344 H 215.706 -7.60182 0.0529471 0
M  V30 2345 N 217.281 0.66697 -1.42791 0
M  V30 2346 C 218.211 1.79218 -1.49677 0
M  V30 2347 C 219.192 1.66405 -0.352623 0
M  V30 2348 O 220.377 1.85708 -0.567993 0
M  V30 2349 C 217.507 3.17565 -1.40605 0
M  V30 2350 C 216.461 3.45124 -2.53127 0
M  V30 2351 C 215.787 4.83127 -2.29112 0
M  V30 2352 C 217.087 3.41236 -3.95418 0
M  V30 2353 H 218.781 1.73713 -2.43853 0
M  V30 2354 H 216.327 0.83432 -1.17367 0
M  V30 2355 H 218.28 3.96022 -1.44029 0
M  V30 2356 H 217.004 3.23767 -0.429271 0
M  V30 2357 H 215.663 2.69031 -2.49034 0
M  V30 2358 H 215.311 4.85988 -1.29709 0
M  V30 2359 H 215.011 5.02528 -3.04531 0
M  V30 2360 H 216.535 5.63859 -2.34297 0
M  V30 2361 H 217.949 4.09651 -4.01073 0
M  V30 2362 H 216.346 3.72173 -4.70752 0
M  V30 2363 H 217.416 2.39665 -4.21532 0
M  V30 2364 N 218.759 1.29093 0.90403 0
M  V30 2365 C 219.989 1.19516 1.68522 0
M  V30 2366 C 220.397 -0.24738 1.87576 0
M  V30 2367 O 219.74 -1.17798 1.40959 0
M  V30 2368 C 219.802 1.83249 3.0929 0
M  V30 2369 C 219.466 3.32531 3.13484 0
M  V30 2370 C 220.463 4.28821 2.93953 0
M  V30 2371 C 218.148 3.73656 3.35688 0
M  V30 2372 C 220.142 5.64212 2.96553 0
M  V30 2373 C 217.829 5.0917 3.37919 0
M  V30 2374 C 218.827 6.04258 3.18373 0
M  V30 2375 O 218.515 7.37298 3.20385 0
M  V30 2376 H 218.247 0.415467 0.533257 0
M  V30 2377 H 220.801 1.70912 1.13922 0
M  V30 2378 H 219.031 1.26358 3.65473 0
M  V30 2379 H 220.72 1.68054 3.69476 0
M  V30 2380 H 221.486 3.98382 2.76616 0
M  V30 2381 H 217.365 3.00101 3.49943 0
M  V30 2382 H 220.909 6.38407 2.81216 0
M  V30 2383 H 216.806 5.39256 3.54787 0
M  V30 2384 H 217.574 7.46048 3.36681 0
M  V30 2385 N 220.237 -1.11381 1.11499 0
M  V30 2386 C 221.462 -1.87475 0.887019 0
M  V30 2387 C 221.887 -1.79639 -0.557796 0
M  V30 2388 O 221.245 -1.15924 -1.39396 0
M  V30 2389 C 221.293 -3.34213 1.35403 0
M  V30 2390 O 220.397 -4.0903 0.526146 0
M  V30 2391 H 219.738 -0.582099 0.319463 0
M  V30 2392 H 222.268 -1.40785 1.48461 0
M  V30 2393 H 222.278 -3.8506 1.34881 0
M  V30 2394 H 220.953 -3.39232 2.40612 0
M  V30 2395 H 219.53 -3.68082 0.597522 0
M  V30 2396 N 221.715 -0.905404 -1.28997 0
M  V30 2397 C 222.945 -0.549049 -1.99171 0
M  V30 2398 C 223.353 0.87203 -1.67906 0
M  V30 2399 O 222.696 1.58796 -0.923561 0
M  V30 2400 C 222.758 -0.668306 -3.53234 0
M  V30 2401 C 222.422 -2.0574 -4.08069 0
M  V30 2402 C 223.419 -3.0292 -4.22534 0
M  V30 2403 C 221.104 -2.36833 -4.42962 0
M  V30 2404 C 223.098 -4.29314 -4.71135 0
M  V30 2405 C 220.785 -3.63467 -4.91258 0
M  V30 2406 C 221.783 -4.59522 -5.053 0
M  V30 2407 O 221.471 -5.83907 -5.52546 0
M  V30 2408 H 221.203 -0.208784 -0.64295 0
M  V30 2409 H 223.757 -1.21836 -1.65363 0
M  V30 2410 H 221.987 0.0580547 -3.86656 0
M  V30 2411 H 223.676 -0.320273 -4.04634 0
M  V30 2412 H 224.442 -2.80216 -3.95859 0
M  V30 2413 H 220.321 -1.62824 -4.31288 0
M  V30 2414 H 223.865 -5.04293 -4.8201 0
M  V30 2415 H 219.762 -3.86 -5.17372 0
M  V30 2416 H 220.53 -5.86578 -5.70849 0
M  V30 2417 N 223.193 1.4272 -0.668489 0
M  V30 2418 C 224.442 2.00846 -0.185389 0
M  V30 2419 C 224.755 1.53442 1.21305 0
M  V30 2420 O 225.961 2.03944 1.79218 0
M  V30 2421 C 224.417 3.58805 -0.280591 0
M  V30 2422 C 224.025 4.15198 -1.68268 0
M  V30 2423 C 225.769 4.24255 0.14412 0
M  V30 2424 C 223.676 5.655 -1.73099 0
M  V30 2425 H 222.606 0.751145 -0.0655475 0
M  V30 2426 H 225.257 1.63516 -0.832752 0
M  V30 2427 H 223.639 3.93608 0.434553 0
M  V30 2428 H 224.813 3.91866 -2.42441 0
M  V30 2429 H 223.128 3.62176 -2.05469 0
M  V30 2430 H 225.725 5.34547 0.128086 0
M  V30 2431 H 226.068 3.99277 1.17827 0
M  V30 2432 H 226.601 3.94389 -0.519798 0
M  V30 2433 H 223.34 5.95268 -2.74475 0
M  V30 2434 H 222.86 5.90842 -1.03274 0
M  V30 2435 H 224.539 6.29808 -1.48158 0
M  V30 2436 N 224.671 0.411399 1.52136 0
M  V30 2437 C 225.919 -0.163322 2.01439 0
M  V30 2438 C 226.24 -1.45453 1.29879 0
M  V30 2439 O 225.51 -1.91225 0.4254 0
M  V30 2440 H 224.09 -0.0633447 0.744309 0
M  V30 2441 H 226.752 0.548161 1.87033 0
M  V30 2442 H 225.848 -0.357817 3.10042 0
M  V30 2443 N 226.149 -1.5696 0.141893 0
M  V30 2444 C 227.395 -1.9625 -0.511248 0
M  V30 2445 C 227.728 -1.02654 -1.64851 0
M  V30 2446 O 227.003 -0.0679676 -1.94381 0
M  V30 2447 C 227.286 -3.45285 -1.02227 0
M  V30 2448 C 227.139 -4.49658 0.113138 0
M  V30 2449 C 228.458 -3.96698 -1.90574 0
M  V30 2450 H 225.577 -0.713567 -0.184367 0
M  V30 2451 H 228.219 -1.88698 0.222087 0
M  V30 2452 H 226.369 -3.51852 -1.64719 0
M  V30 2453 H 228.041 -4.55174 0.749302 0
M  V30 2454 H 226.284 -4.26857 0.773026 0
M  V30 2455 H 226.955 -5.51258 -0.286053 0
M  V30 2456 H 229.431 -3.92578 -1.37918 0
M  V30 2457 H 228.307 -5.01453 -2.2324 0
M  V30 2458 H 228.568 -3.3875 -2.84079 0
M  V30 2459 N 227.627 0.131896 -1.57047 0
M  V30 2460 C 229.038 0.690407 -1.73465 0
M  V30 2461 C 229.389 1.8094 -0.758629 0
M  V30 2462 O 228.514 2.16282 0.0713813 0
M  V30 2463 C 229.109 1.25916 -3.14532 0
M  V30 2464 C 227.668 1.76409 -3.32501 0
M  V30 2465 C 226.815 0.658579 -2.69366 0
M  V30 2466 H 229.766 -0.0939144 -1.58422 0
M  V30 2467 H 229.787 2.12892 -3.15369 0
M  V30 2468 H 229.299 0.444515 -3.85546 0
M  V30 2469 H 227.4 2.60391 -2.66509 0
M  V30 2470 H 227.513 1.88241 -4.4057 0
M  V30 2471 H 225.877 1.08899 -2.30246 0
M  V30 2472 H 226.66 -0.14487 -3.42994 0
M  V30 2473 N 229.106 1.52395 0.401703 0
M  V30 2474 C 230.053 1.76268 1.48991 0
M  V30 2475 C 231.023 0.605386 1.54675 0
M  V30 2476 O 232.208 0.843742 1.7113 0
M  V30 2477 C 229.348 1.92592 2.86361 0
M  V30 2478 C 228.461 3.20259 2.89928 0
M  V30 2479 C 227.596 3.26972 4.18644 0
M  V30 2480 C 226.635 4.48812 4.16214 0
M  V30 2481 N 225.772 4.52877 5.36514 0
M  V30 2482 H 230.612 2.6914 1.27935 0
M  V30 2483 H 228.149 1.33355 0.620871 0
M  V30 2484 H 230.107 2.0004 3.66115 0
M  V30 2485 H 228.737 1.03093 3.05895 0
M  V30 2486 H 227.789 3.21945 2.02621 0
M  V30 2487 H 229.101 4.10056 2.83999 0
M  V30 2488 H 228.255 3.33533 5.06794 0
M  V30 2489 H 226.994 2.35126 4.27278 0
M  V30 2490 H 225.999 4.4239 3.26453 0
M  V30 2491 H 227.224 5.41961 4.09213 0
M  V30 2492 H 225.17 3.63917 5.45802 0
M  V30 2493 H 225.087 5.36529 5.32609 0
M  V30 2494 H 226.355 4.63676 6.26597 0
M  V30 2495 N 230.584 -0.659388 1.43143 0
M  V30 2496 C 231.832 -1.41654 1.44147 0
M  V30 2497 C 232.153 -1.94893 0.0645739 0
M  V30 2498 O 231.423 -1.74044 -0.899198 0
M  V30 2499 H 230.003 -0.525708 0.530697 0
M  V30 2500 H 232.665 -0.778097 1.78694 0
M  V30 2501 H 231.761 -2.26195 2.1504 0
M  V30 2502 N 232.062 -1.29571 -0.897171 0
M  V30 2503 C 233.339 -1.08365 -1.62839 0
M  V30 2504 C 233.719 0.371331 -2.07808 0
M  V30 2505 O 233.067 1.3606 -1.83576 0
M  V30 2506 C 233.277 -2.0735 -2.80726 0
M  V30 2507 C 234.625 -2.38406 -3.51351 0
M  V30 2508 O 235.649 -2.05564 -2.90898 0
M  V30 2509 O 234.508 -2.9453 -4.60341 0
M  V30 2510 H 231.602 -0.415345 -0.715134 0
M  V30 2511 H 234.148 -1.40952 -0.945018 0
M  V30 2512 H 232.92 -3.05339 -2.44711 0
M  V30 2513 H 232.543 -1.75507 -3.56767 0
M  V30 2514 N 233.54 1.10788 -1.12088 0
M  V30 2515 C 234.45 2.20599 -0.798338 0
M  V30 2516 C 235.466 1.72712 0.21135 0
M  V30 2517 O 236.642 2.01348 0.0458477 0
M  V30 2518 C 233.707 3.45771 -0.253674 0
M  V30 2519 C 232.768 4.08411 -1.32283 0
M  V30 2520 C 232.001 5.27608 -0.80406 0
M  V30 2521 O 232.224 5.69241 0.363478 0
M  V30 2522 O 231.158 5.8101 -1.57198 0
M  V30 2523 H 234.984 2.50614 -1.7154 0
M  V30 2524 H 232.569 1.19454 -0.897275 0
M  V30 2525 H 234.451 4.21376 0.0453691 0
M  V30 2526 H 233.126 3.1739 0.636005 0
M  V30 2527 H 232.033 3.34507 -1.67499 0
M  V30 2528 H 233.366 4.40986 -2.18614 0
M  V30 2529 N 235.018 0.912232 1.28515 0
M  V30 2530 C 236.429 0.591352 1.77087 0
M  V30 2531 C 236.78 -0.8933 1.74684 0
M  V30 2532 O 235.905 -1.69876 1.34056 0
M  V30 2533 C 236.5 1.06668 3.2157 0
M  V30 2534 C 235.059 0.79675 3.67871 0
M  V30 2535 C 234.206 1.23427 2.48316 0
M  V30 2536 H 237.157 1.09365 1.15 0
M  V30 2537 H 237.178 0.407455 3.78312 0
M  V30 2538 H 236.69 2.14726 3.23287 0
M  V30 2539 H 234.791 -0.270679 3.71616 0
M  V30 2540 H 234.904 1.40343 4.58084 0
M  V30 2541 H 233.268 0.653036 2.46186 0
M  V30 2542 H 234.051 2.32316 2.52753 0
M  V30 2543 N 236.496 -1.42363 0.676048 0
M  V30 2544 C 237.745 -2.00745 0.196037 0
M  V30 2545 C 238.058 -1.54083 -1.20489 0
M  V30 2546 O 239.264 -2.04891 -1.78134 0
M  V30 2547 C 237.72 -3.58651 0.299616 0
M  V30 2548 C 237.328 -4.143 1.70468 0
M  V30 2549 C 239.072 -4.24326 -0.121619 0
M  V30 2550 C 236.979 -5.64574 1.76096 0
M  V30 2551 H 235.909 -0.750787 0.0695301 0
M  V30 2552 H 238.56 -1.63072 0.841412 0
M  V30 2553 H 236.942 -3.93833 -0.413673 0
M  V30 2554 H 238.116 -3.90575 2.44515 0
M  V30 2555 H 236.431 -3.61081 2.07387 0
M  V30 2556 H 239.028 -5.34607 -0.0997362 0
M  V30 2557 H 239.371 -3.99897 -1.15708 0
M  V30 2558 H 239.904 -3.94108 0.540706 0
M  V30 2559 H 236.643 -5.93804 2.77628 0
M  V30 2560 H 236.163 -5.90286 1.06406 0
M  V30 2561 H 237.842 -6.29013 1.51496 0
M  V30 2562 N 237.974 -0.419461 -1.51915 0
M  V30 2563 C 238.904 0.391813 -2.30189 0
M  V30 2564 C 239.885 1.03699 -1.34836 0
M  V30 2565 O 241.07 1.04403 -1.63748 0
M  V30 2566 C 238.2 1.50312 -3.13087 0
M  V30 2567 C 237.154 0.9824 -4.16573 0
M  V30 2568 C 236.48 2.18809 -4.8788 0
M  V30 2569 C 237.78 0.0292356 -5.22292 0
M  V30 2570 H 239.474 -0.26135 -2.98257 0
M  V30 2571 H 237.02 -0.127134 -1.43438 0
M  V30 2572 H 238.973 2.07773 -3.66617 0
M  V30 2573 H 237.697 2.18431 -2.42807 0
M  V30 2574 H 236.356 0.430119 -3.64068 0
M  V30 2575 H 236.004 2.85507 -4.14119 0
M  V30 2576 H 235.704 1.84615 -5.57845 0
M  V30 2577 H 237.228 2.76858 -5.44226 0
M  V30 2578 H 238.642 0.512976 -5.71 0
M  V30 2579 H 237.039 -0.2244 -5.9968 0
M  V30 2580 H 238.109 -0.912931 -4.76228 0
M  V30 2581 N 239.452 1.56882 -0.150215 0
M  V30 2582 C 240.399 2.16922 0.788244 0
M  V30 2583 C 241.369 1.10303 1.24187 0
M  V30 2584 O 242.554 1.38359 1.31383 0
M  V30 2585 C 239.694 2.79754 2.02068 0
M  V30 2586 C 238.807 4.00775 1.61257 0
M  V30 2587 C 237.942 4.51595 2.79705 0
M  V30 2588 C 236.981 5.65074 2.35282 0
M  V30 2589 N 236.118 6.10499 3.4675 0
M  V30 2590 H 240.958 2.96779 0.269444 0
M  V30 2591 H 238.495 1.46599 0.12128 0
M  V30 2592 H 240.453 3.14329 2.74323 0
M  V30 2593 H 239.083 2.02536 2.51354 0
M  V30 2594 H 238.135 3.72158 0.787553 0
M  V30 2595 H 239.447 4.82978 1.24633 0
M  V30 2596 H 238.601 4.88242 3.60145 0
M  V30 2597 H 237.34 3.68406 3.19576 0
M  V30 2598 H 236.345 5.28 1.53283 0
M  V30 2599 H 237.57 6.50052 1.96493 0
M  V30 2600 H 235.516 5.30243 3.86236 0
M  V30 2601 H 235.433 6.87637 3.14152 0
M  V30 2602 H 236.701 6.51791 4.27537 0
M  V30 2603 N 240.93 -0.123565 1.57115 0
M  V30 2604 C 242.341 -0.681198 1.73829 0
M  V30 2605 C 242.692 -1.80535 0.768214 0
M  V30 2606 O 241.817 -2.16317 -0.0599103 0
M  V30 2607 C 242.412 -1.24246 3.15196 0
M  V30 2608 C 240.971 -1.74643 3.33432 0
M  V30 2609 C 240.118 -0.644284 2.69711 0
M  V30 2610 H 243.069 0.102315 1.5837 0
M  V30 2611 H 243.09 -2.11216 3.16493 0
M  V30 2612 H 242.602 -0.424062 3.85776 0
M  V30 2613 H 240.703 -2.58974 2.67886 0
M  V30 2614 H 240.816 -1.85902 4.41562 0
M  V30 2615 H 239.18 -1.07676 2.3082 0
M  V30 2616 H 239.963 0.163058 3.42913 0
M  V30 2617 N 242.408 -1.52605 -0.393616 0
M  V30 2618 C 243.633 -1.71592 -1.16495 0
M  V30 2619 C 244.058 -0.43133 -1.83088 0
M  V30 2620 O 243.416 0.612523 -1.7064 0
M  V30 2621 C 243.464 -2.86318 -2.19213 0
M  V30 2622 O 242.568 -2.52969 -3.257 0
M  V30 2623 H 241.909 -0.570734 -0.33935 0
M  V30 2624 H 244.439 -1.99377 -0.459324 0
M  V30 2625 H 244.449 -3.1168 -2.63286 0
M  V30 2626 H 243.124 -3.79511 -1.7013 0
M  V30 2627 H 241.701 -2.38332 -2.86797 0
M  V30 2628 N 243.887 0.651787 -1.4349 0
M  V30 2629 C 244.817 1.77621 -1.51569 0
M  V30 2630 C 245.798 1.66022 -0.370253 0
M  V30 2631 O 246.983 1.85095 -0.587658 0
M  V30 2632 C 244.113 3.16056 -1.43966 0
M  V30 2633 C 243.067 3.4242 -2.56774 0
M  V30 2634 C 242.393 4.8067 -2.34223 0
M  V30 2635 C 243.693 3.37023 -3.99015 0
M  V30 2636 H 245.387 1.71117 -2.45681 0
M  V30 2637 H 242.933 0.821825 -1.18246 0
M  V30 2638 H 244.886 3.94472 -1.48221 0
M  V30 2639 H 243.61 3.23293 -0.463586 0
M  V30 2640 H 242.269 2.66375 -2.51873 0
M  V30 2641 H 241.917 4.84585 -1.34856 0
M  V30 2642 H 241.617 4.9927 -3.09844 0
M  V30 2643 H 243.141 5.61342 -2.40265 0
M  V30 2644 H 244.555 4.05374 -4.05395 0
M  V30 2645 H 242.952 3.67159 -4.74673 0
M  V30 2646 H 244.022 2.3518 -4.2405 0
M  V30 2647 N 245.365 1.30045 0.890287 0
M  V30 2648 C 246.612 1.18561 1.64163 0
M  V30 2649 C 246.94 -0.260852 1.92743 0
M  V30 2650 O 246.195 -1.20376 1.54299 0
M  V30 2651 C 246.494 1.95409 2.99249 0
M  V30 2652 C 246.16 3.45066 2.90242 0
M  V30 2653 C 244.822 3.85878 2.87492 0
M  V30 2654 C 247.174 4.4039 2.78758 0
M  V30 2655 C 244.502 5.20314 2.7109 0
M  V30 2656 C 246.854 5.74928 2.63894 0
M  V30 2657 C 245.518 6.14986 2.59516 0
M  V30 2658 H 244.788 0.433846 0.600715 0
M  V30 2659 H 247.435 1.61088 1.03552 0
M  V30 2660 H 245.74 1.45501 3.63781 0
M  V30 2661 H 247.437 1.8392 3.56334 0
M  V30 2662 H 244.027 3.12631 2.93189 0
M  V30 2663 H 248.211 4.09806 2.79952 0
M  V30 2664 H 243.467 5.50449 2.66112 0
M  V30 2665 H 247.641 6.48434 2.53981 0
M  V30 2666 H 245.268 7.19104 2.46565 0
M  V30 2667 N 246.843 -1.10192 1.12674 0
M  V30 2668 C 247.806 -2.14786 0.799979 0
M  V30 2669 C 248.806 -1.59711 -0.18685 0
M  V30 2670 O 249.996 -1.74156 0.0392558 0
M  V30 2671 C 247.128 -3.40374 0.189228 0
M  V30 2672 H 248.321 -2.45203 1.72671 0
M  V30 2673 H 245.874 -1.25597 0.930326 0
M  V30 2674 H 246.609 -3.15577 -0.747107 0
M  V30 2675 H 246.394 -3.81637 0.899766 0
M  V30 2676 H 247.884 -4.17594 -0.0228143 0
M  V30 2677 N 248.321 -0.919034 -1.28029 0
M  V30 2678 C 249.551 -0.570143 -1.98577 0
M  V30 2679 C 249.959 0.854172 -1.68821 0
M  V30 2680 O 249.302 1.57807 -0.940351 0
M  V30 2681 C 249.364 -0.705734 -3.52505 0
M  V30 2682 C 249.028 -2.10057 -4.05863 0
M  V30 2683 C 250.025 -3.07385 -4.19298 0
M  V30 2684 C 247.71 -2.41517 -4.40426 0
M  V30 2685 C 249.704 -4.34287 -4.66555 0
M  V30 2686 C 247.391 -3.68657 -4.87376 0
M  V30 2687 C 248.389 -4.64856 -5.00398 0
M  V30 2688 O 248.077 -5.89735 -5.46322 0
M  V30 2689 H 247.809 -0.215592 -0.6407 0
M  V30 2690 H 250.363 -1.23583 -1.64062 0
M  V30 2691 H 248.593 0.0170414 -3.86696 0
M  V30 2692 H 250.282 -0.363172 -4.04272 0
M  V30 2693 H 251.048 -2.84398 -3.92865 0
M  V30 2694 H 246.927 -1.67389 -4.29537 0
M  V30 2695 H 250.471 -5.09377 -4.76635 0
M  V30 2696 H 246.368 -3.91466 -5.13249 0
M  V30 2697 H 247.136 -5.92599 -5.64596 0
M  V30 2698 N 249.799 1.42003 -0.683588 0
M  V30 2699 C 251.048 2.00638 -0.206681 0
M  V30 2700 C 251.361 1.5472 1.19671 0
M  V30 2701 O 252.567 2.05833 1.77045 0
M  V30 2702 C 251.023 3.58487 -0.318632 0
M  V30 2703 C 250.631 4.1339 -1.72663 0
M  V30 2704 C 252.375 4.24384 0.0991141 0
M  V30 2705 C 250.282 5.63633 -1.79087 0
M  V30 2706 H 249.212 0.750408 -0.0735107 0
M  V30 2707 H 251.863 1.62624 -0.850048 0
M  V30 2708 H 250.245 3.94047 0.392781 0
M  V30 2709 H 251.419 3.89273 -2.46583 0
M  V30 2710 H 249.734 3.59976 -2.09299 0
M  V30 2711 H 252.331 5.34652 0.0713833 0
M  V30 2712 H 252.674 4.00505 1.13586 0
M  V30 2713 H 253.207 3.93816 -0.561599 0
M  V30 2714 H 249.946 5.92323 -2.80774 0
M  V30 2715 H 249.466 5.89714 -1.09535 0
M  V30 2716 H 251.145 6.28201 -1.5483 0
M  V30 2717 N 251.277 0.427512 1.51691 0
M  V30 2718 C 252.523 -0.142439 2.02299 0
M  V30 2719 C 252.856 -1.43214 1.31162 0
M  V30 2720 O 252.131 -1.89833 0.423511 0
M  V30 2721 C 252.414 -0.371301 3.58181 0
M  V30 2722 C 252.267 0.936358 4.39946 0
M  V30 2723 C 253.586 -1.14542 4.24933 0
M  V30 2724 H 250.705 -0.0502937 0.735282 0
M  V30 2725 H 253.347 0.564584 1.81418 0
M  V30 2726 H 251.497 -0.973559 3.76104 0
M  V30 2727 H 253.169 1.57184 4.33694 0
M  V30 2728 H 251.412 1.5432 4.05423 0
M  V30 2729 H 252.083 0.730388 5.47147 0
M  V30 2730 H 254.559 -0.635362 4.11221 0
M  V30 2731 H 253.435 -1.27431 5.33903 0
M  V30 2732 H 253.696 -2.17093 3.85127 0
M  V30 2733 N 252.755 -1.56801 0.158532 0
M  V30 2734 C 254.002 -1.9649 -0.489679 0
M  V30 2735 C 254.33 -1.04394 -1.6411 0
M  V30 2736 O 253.585 -0.0754401 -1.95555 0
M  V30 2737 C 253.884 -3.4235 -1.02623 0
M  V30 2738 C 253.55 -4.50899 0.00794526 0
M  V30 2739 C 252.212 -4.80312 0.292207 0
M  V30 2740 C 254.564 -5.16333 0.710584 0
M  V30 2741 C 251.892 -5.72461 1.28472 0
M  V30 2742 C 254.244 -6.09553 1.69199 0
M  V30 2743 C 252.908 -6.37339 1.98383 0
M  V30 2744 H 252.178 -0.719009 -0.179186 0
M  V30 2745 H 254.825 -1.8989 0.247798 0
M  V30 2746 H 253.13 -3.45838 -1.84128 0
M  V30 2747 H 254.827 -3.70393 -1.53656 0
M  V30 2748 H 251.417 -4.28015 -0.22379 0
M  V30 2749 H 255.601 -4.93732 0.504174 0
M  V30 2750 H 250.857 -5.92278 1.51714 0
M  V30 2751 H 255.031 -6.59327 2.24189 0
M  V30 2752 H 252.658 -7.08546 2.7544 0
M  V30 2753 N 254.233 0.115231 -1.57178 0
M  V30 2754 C 255.163 1.1423 -2.03651 0
M  V30 2755 C 256.144 1.42967 -0.921655 0
M  V30 2756 O 257.329 1.53343 -1.19162 0
M  V30 2757 C 254.459 2.4675 -2.44401 0
M  V30 2758 C 253.413 2.32467 -3.59365 0
M  V30 2759 C 252.739 3.69984 -3.86026 0
M  V30 2760 C 254.039 1.78203 -4.90959 0
M  V30 2761 H 255.733 0.755749 -2.89705 0
M  V30 2762 H 253.279 0.362093 -1.39373 0
M  V30 2763 H 255.232 3.18854 -2.75517 0
M  V30 2764 H 253.956 2.87302 -1.55322 0
M  V30 2765 H 252.615 1.62811 -3.28463 0
M  V30 2766 H 252.263 4.08028 -2.94147 0
M  V30 2767 H 251.963 3.61279 -4.63412 0
M  V30 2768 H 253.487 4.43587 -4.19599 0
M  V30 2769 H 254.901 2.40128 -5.20587 0
M  V30 2770 H 253.298 1.8031 -5.72371 0
M  V30 2771 H 254.368 0.739876 -4.79222 0
M  V30 2772 N 255.711 1.52812 0.385517 0
M  V30 2773 C 256.96 1.67249 1.12741 0
M  V30 2774 C 257.273 0.4205 1.91027 0
M  V30 2775 O 258.479 0.445064 2.67827 0
M  V30 2776 C 256.935 2.95583 2.05326 0
M  V30 2777 C 256.543 4.27974 1.32447 0
M  V30 2778 C 258.287 3.19386 2.7963 0
M  V30 2779 C 256.194 5.47412 2.23818 0
M  V30 2780 H 255.124 0.6231 0.424573 0
M  V30 2781 H 257.775 1.79309 0.389924 0
M  V30 2782 H 256.157 2.77277 2.82725 0
M  V30 2783 H 257.331 4.56844 0.602495 0
M  V30 2784 H 255.646 4.10459 0.700885 0
M  V30 2785 H 258.243 4.05801 3.48181 0
M  V30 2786 H 258.586 2.34604 3.43899 0
M  V30 2787 H 259.119 3.38274 2.09322 0
M  V30 2788 H 255.858 6.34612 1.64157 0
M  V30 2789 H 255.378 5.22849 2.93921 0
M  V30 2790 H 257.057 5.81423 2.83824 0
M  V30 2791 N 257.189 -0.644168 1.43834 0
M  V30 2792 C 258.417 -1.43147 1.49387 0
M  V30 2793 C 258.832 -1.88452 0.114583 0
M  V30 2794 O 258.189 -1.60047 -0.876989 0
M  V30 2795 C 258.24 -2.66046 2.44748 0
M  V30 2796 O 257.961 -2.22633 3.77314 0
M  V30 2797 C 259.462 -3.59311 2.59635 0
M  V30 2798 H 256.682 -0.439447 0.507077 0
M  V30 2799 H 259.226 -0.78895 1.88669 0
M  V30 2800 H 257.381 -3.26418 2.08638 0
M  V30 2801 H 257.795 -3.02216 4.28679 0
M  V30 2802 H 259.269 -4.42187 3.30416 0
M  V30 2803 H 259.746 -4.07259 1.64427 0
M  V30 2804 H 260.352 -3.04816 2.96593 0
M  V30 2805 N 258.668 -1.30515 -0.883378 0
M  V30 2806 C 259.601 -1.11359 -1.99184 0
M  V30 2807 C 260.579 -0.0207858 -1.62587 0
M  V30 2808 O 261.763 -0.174646 -1.87689 0
M  V30 2809 C 258.89 -0.69871 -3.31415 0
M  V30 2810 C 257.936 -1.79261 -3.86998 0
M  V30 2811 S 258.769 -3.39536 -4.14096 0
M  V30 2812 C 259.925 -2.99954 -5.49344 0
M  V30 2813 H 260.158 -2.052 -2.15128 0
M  V30 2814 H 257.691 -1.14847 -1.03196 0
M  V30 2815 H 259.649 -0.466075 -4.07846 0
M  V30 2816 H 258.31 0.220368 -3.13326 0
M  V30 2817 H 257.503 -1.45464 -4.82552 0
M  V30 2818 H 257.105 -1.97961 -3.17313 0
M  V30 2819 H 259.397 -2.48013 -6.30473 0
M  V30 2820 H 260.34 -3.9442 -5.8808 0
M  V30 2821 H 260.748 -2.37775 -5.1198 0
M  V30 2822 N 260.146 1.09593 -1.13257 0
M  V30 2823 C 261.393 1.81734 -0.893257 0
M  V30 2824 C 261.721 1.8563 0.580656 0
M  V30 2825 O 260.976 1.31906 1.44566 0
M  V30 2826 C 261.275 3.27802 -1.42411 0
M  V30 2827 C 260.941 3.44041 -2.91456 0
M  V30 2828 C 259.603 3.48181 -3.3215 0
M  V30 2829 C 261.955 3.48719 -3.87356 0
M  V30 2830 C 259.283 3.54575 -4.67433 0
M  V30 2831 C 261.635 3.56648 -5.2248 0
M  V30 2832 C 260.299 3.59055 -5.62704 0
M  V30 2833 H 259.569 0.665011 -0.326866 0
M  V30 2834 H 262.216 1.2912 -1.41422 0
M  V30 2835 H 260.521 3.83042 -0.823795 0
M  V30 2836 H 262.218 3.82149 -1.21503 0
M  V30 2837 H 258.808 3.41502 -2.58987 0
M  V30 2838 H 262.992 3.44763 -3.57004 0
M  V30 2839 H 258.248 3.54725 -4.97976 0
M  V30 2840 H 262.422 3.59212 -5.96607 0
M  V30 2841 H 260.049 3.63763 -6.67518 0
M  V30 2842 N 261.624 0.925811 1.2754 0
M  V30 2843 C 262.873 0.561084 1.93739 0
M  V30 2844 C 263.186 -0.901685 1.73577 0
M  V30 2845 O 264.392 -1.37511 2.34101 0
M  V30 2846 C 262.848 0.952668 3.47062 0
M  V30 2847 C 262.456 2.43599 3.75983 0
M  V30 2848 C 264.2 0.659103 4.19352 0
M  V30 2849 C 262.107 2.76707 5.22673 0
M  V30 2850 H 261.037 0.206122 0.725279 0
M  V30 2851 H 263.688 1.12637 1.44863 0
M  V30 2852 H 262.07 0.316053 3.94737 0
M  V30 2853 H 263.244 3.12035 3.39073 0
M  V30 2854 H 261.559 2.70125 3.16893 0
M  V30 2855 H 264.156 0.882985 5.27359 0
M  V30 2856 H 264.499 -0.403607 4.14339 0
M  V30 2857 H 265.032 1.25473 3.77494 0
M  V30 2858 H 261.771 3.8188 5.32774 0
M  V30 2859 H 261.291 2.12919 5.60737 0
M  V30 2860 H 262.97 2.6435 5.90532 0
M  V30 2861 N 263.102 -1.41638 0.69111 0
M  V30 2862 C 264.05 -2.32597 0.0115199 0
M  V30 2863 C 265.044 -1.5072 -0.773296 0
M  V30 2864 O 266.25 -1.66685 -0.67942 0
M  V30 2865 H 262.625 -0.751849 -0.0150746 0
M  V30 2866 H 264.596 -2.87593 0.795791 0
M  V30 2867 C 263.345 -3.35467 -0.914172 0
M  V30 2868 H 262.668 -3.9852 -0.319687 0
M  V30 2869 H 264.108 -4.01662 -1.35808 0
M  V30 2870 C 262.567 -2.69004 -2.02826 0
M  V30 2871 O 263.097 -2.53444 -3.11655 0
M  V30 2872 N 261.303 -2.2777 -1.80469 0
M  V30 2873 H 260.85 -2.40626 -0.919615 0
M  V30 2874 H 260.808 -1.83635 -2.55197 0
M  V30 2875 N 264.58 -0.43555 -1.51462 0
M  V30 2876 C 265.826 0.131709 -2.02372 0
M  V30 2877 C 266.159 1.42516 -1.3192 0
M  V30 2878 O 265.434 1.89606 -0.433573 0
M  V30 2879 C 265.717 0.352301 -3.58373 0
M  V30 2880 C 265.57 -0.959676 -4.39443 0
M  V30 2881 C 266.889 1.12286 -4.25535 0
M  V30 2882 H 264.008 0.0463936 -0.735538 0
M  V30 2883 H 266.65 -0.574197 -1.81116 0
M  V30 2884 H 264.8 0.9536 -3.76615 0
M  V30 2885 H 266.472 -1.59482 -4.32855 0
M  V30 2886 H 264.715 -1.56468 -4.04599 0
M  V30 2887 H 265.386 -0.759394 -5.46752 0
M  V30 2888 H 267.862 0.613545 -4.11552 0
M  V30 2889 H 266.738 1.24598 -5.34571 0
M  V30 2890 H 266.999 2.15048 -3.86273 0
M  V30 2891 N 266.058 1.56714 -0.166846 0
M  V30 2892 C 267.283 2.01557 0.488833 0
M  V30 2893 C 267.708 1.0463 1.56314 0
M  V30 2894 O 267.066 0.0251304 1.81283 0
M  V30 2895 C 267.114 3.4503 1.04818 0
M  V30 2896 O 266.218 3.51163 2.16236 0
M  V30 2897 H 265.559 0.653516 0.117526 0
M  V30 2898 H 268.089 2.02818 -0.269421 0
M  V30 2899 H 268.099 3.84243 1.37191 0
M  V30 2900 H 266.774 4.15077 0.261572 0
M  V30 2901 H 265.351 3.23807 1.84942 0
M  V30 2902 N 267.536 -0.106894 1.57237 0
M  V30 2903 C 268.785 -0.811163 1.8467 0
M  V30 2904 C 269.098 -1.80469 0.754342 0
M  V30 2905 O 270.304 -2.55601 0.915439 0
M  V30 2906 C 268.76 -1.49337 3.27454 0
M  V30 2907 C 268.368 -0.540217 4.44731 0
M  V30 2908 C 270.112 -2.18206 3.64124 0
M  V30 2909 C 268.019 -1.22634 5.78545 0
M  V30 2910 H 266.949 -0.306679 0.688813 0
M  V30 2911 H 269.6 -0.0639887 1.83388 0
M  V30 2912 H 267.982 -2.2876 3.23241 0
M  V30 2913 H 269.156 0.221659 4.60267 0
M  V30 2914 H 267.471 0.042146 4.16379 0
M  V30 2915 H 270.068 -2.70253 4.61376 0
M  V30 2916 H 270.411 -2.96562 2.92158 0
M  V30 2917 H 270.944 -1.45658 3.70174 0
M  V30 2918 H 267.683 -0.483832 6.53712 0
M  V30 2919 H 267.203 -1.95993 5.66874 0
M  V30 2920 H 268.882 -1.75615 6.2271 0
M  V30 2921 N 269.014 -1.53014 -0.377408 0
M  V30 2922 C 269.944 -1.81589 -1.46791 0
M  V30 2923 C 270.925 -0.668622 -1.56408 0
M  V30 2924 O 272.11 -0.917337 -1.71168 0
M  V30 2925 C 269.24 -1.99519 -2.8427 0
M  V30 2926 C 268.194 -3.15249 -2.89486 0
M  V30 2927 C 267.52 -3.18451 -4.29527 0
M  V30 2928 C 268.82 -4.54084 -2.58079 0
M  V30 2929 H 270.514 -2.7291 -1.23127 0
M  V30 2930 H 268.06 -1.31319 -0.590883 0
M  V30 2931 H 270.013 -2.18092 -3.60575 0
M  V30 2932 H 268.737 -1.04897 -3.09296 0
M  V30 2933 H 267.396 -2.96477 -2.15631 0
M  V30 2934 H 267.044 -2.2149 -4.5161 0
M  V30 2935 H 266.744 -3.962 -4.33934 0
M  V30 2936 H 268.268 -3.39193 -5.07721 0
M  V30 2937 H 269.682 -4.72899 -3.24098 0
M  V30 2938 H 268.079 -5.33987 -2.7382 0
M  V30 2939 H 269.149 -4.60006 -1.53372 0
M  V30 2940 N 270.492 0.636531 -1.44174 0
M  V30 2941 C 271.741 1.39213 -1.45954 0
M  V30 2942 C 272.054 1.95374 -0.0939119 0
M  V30 2943 O 273.26 2.71498 0.0107767 0
M  V30 2944 C 271.716 2.52025 -2.56927 0
M  V30 2945 C 271.324 2.024 -3.99673 0
M  V30 2946 C 273.068 3.29269 -2.67922 0
M  V30 2947 C 270.975 3.12521 -5.0208 0
M  V30 2948 H 269.905 0.523132 -0.542999 0
M  V30 2949 H 272.556 0.685349 -1.70221 0
M  V30 2950 H 270.938 3.25253 -2.25891 0
M  V30 2951 H 272.112 1.36073 -4.40251 0
M  V30 2952 H 270.427 1.37987 -3.92872 0
M  V30 2953 H 273.024 4.11352 -3.41605 0
M  V30 2954 H 273.367 3.78397 -1.73555 0
M  V30 2955 H 273.9 2.63129 -2.98342 0
M  V30 2956 H 270.639 2.68343 -5.98057 0
M  V30 2957 H 270.159 3.77507 -4.66099 0
M  V30 2958 H 271.838 3.77385 -5.25538 0
M  V30 2959 N 271.97 1.30982 0.876444 0
M  V30 2960 C 273.386 1.09498 1.16113 0
M  V30 2961 C 273.586 -0.13875 2.01022 0
M  V30 2962 O 272.642 -0.829935 2.38471 0
M  V30 2963 C 273.955 2.36308 1.85954 0
M  V30 2964 C 275.503 2.41856 1.98683 0
M  V30 2965 C 275.978 3.6853 2.71937 0
M  V30 2966 N 277.469 3.69387 2.79477 0
M  V30 2967 C 278.204 4.64096 3.36753 0
M  V30 2968 N 277.7 5.69155 3.95012 0
M  V30 2969 N 279.493 4.51626 3.3465 0
M  V30 2970 H 271.644 2.10118 0.310494 0
M  V30 2971 H 273.907 0.926634 0.200131 0
M  V30 2972 H 273.613 3.26388 1.31011 0
M  V30 2973 H 273.487 2.4561 2.86278 0
M  V30 2974 H 275.874 1.52249 2.52793 0
M  V30 2975 H 275.955 2.36523 0.9742 0
M  V30 2976 H 275.599 4.58499 2.18496 0
M  V30 2977 H 275.529 3.71127 3.73593 0
M  V30 2978 H 278.02 2.93438 2.38123 0
M  V30 2979 H 278.333 6.3751 4.36808 0
M  V30 2980 H 276.678 5.72937 3.93406 0
M  V30 2981 H 279.869 3.68728 2.8837 0
M  V30 2982 H 280.042 5.25614 3.7899 0
M  V30 2983 N 273.449 -1.08991 1.13837 0
M  V30 2984 C 274.697 -1.80899 0.901098 0
M  V30 2985 C 275.018 -1.86356 -0.574134 0
M  V30 2986 O 274.288 -1.35235 -1.41733 0
M  V30 2987 H 272.868 -0.669966 0.330386 0
M  V30 2988 H 275.53 -1.318 1.43578 0
M  V30 2989 H 274.626 -2.83929 1.29578 0
M  V30 2990 N 274.927 -0.932562 -1.27047 0
M  V30 2991 C 276.176 -0.571351 -1.93439 0
M  V30 2992 C 276.489 0.892467 -1.74053 0
M  V30 2993 O 277.695 1.36267 -2.34826 0
M  V30 2994 C 276.151 -0.97106 -3.46552 0
M  V30 2995 C 275.759 -2.4559 -3.74686 0
M  V30 2996 C 277.503 -0.681333 -4.18997 0
M  V30 2997 C 275.41 -2.79475 -5.21198 0
M  V30 2998 H 274.34 -0.209966 -0.724176 0
M  V30 2999 H 276.991 -1.13403 -1.44263 0
M  V30 3000 H 275.373 -0.336983 -3.94564 0
M  V30 3001 H 276.547 -3.13829 -3.37414 0
M  V30 3002 H 274.862 -2.71802 -3.15456 0
M  V30 3003 H 277.459 -0.910939 -5.26883 0
M  V30 3004 H 277.802 0.381628 -4.14547 0
M  V30 3005 H 278.335 -1.27473 -3.76823 0
M  V30 3006 H 275.074 -3.847 -5.30741 0
M  V30 3007 H 274.594 -2.1589 -5.596 0
M  V30 3008 H 276.273 -2.67478 -5.89122 0
M  V30 3009 N 276.405 1.4127 -0.698611 0
M  V30 3010 C 277.63 2.06024 -0.238512 0
M  V30 3011 C 278.055 1.5224 1.10475 0
M  V30 3012 O 277.413 0.650623 1.69223 0
M  V30 3013 C 277.461 3.59988 -0.209952 0
M  V30 3014 O 276.565 4.04282 0.814235 0
M  V30 3015 H 275.906 0.653829 -0.115775 0
M  V30 3016 H 278.436 1.8098 -0.954326 0
M  V30 3017 H 278.446 4.07979 -0.0418436 0
M  V30 3018 H 277.121 3.98503 -1.1903 0
M  V30 3019 H 275.698 3.6779 0.615234 0
M  V30 3020 N 277.883 0.443576 1.51229 0
M  V30 3021 C 278.83 -0.364716 2.279 0
M  V30 3022 C 279.8 -1.0114 1.31757 0
M  V30 3023 O 280.985 -1.02912 1.60667 0
M  V30 3024 C 278.125 -1.45644 3.12861 0
M  V30 3025 C 277.238 -0.827269 4.24005 0
M  V30 3026 C 276.373 -1.89456 4.96266 0
M  V30 3027 C 275.412 -1.24416 5.99322 0
M  V30 3028 N 274.549 -2.25309 6.64966 0
M  V30 3029 H 279.389 0.295464 2.96532 0
M  V30 3030 H 276.926 0.157554 1.46254 0
M  V30 3031 H 278.884 -2.10076 3.6045 0
M  V30 3032 H 277.514 -2.08616 2.46331 0
M  V30 3033 H 276.566 -0.0710839 3.80334 0
M  V30 3034 H 277.878 -0.312481 4.9782 0
M  V30 3035 H 277.032 -2.61535 5.47434 0
M  V30 3036 H 275.771 -2.4431 4.22095 0
M  V30 3037 H 274.776 -0.508868 5.4744 0
M  V30 3038 H 276.001 -0.702882 6.75453 0
M  V30 3039 H 273.947 -2.79231 5.93604 0
M  V30 3040 H 273.864 -1.78739 7.34567 0
M  V30 3041 H 275.132 -2.96853 7.20763 0
M  V30 3042 N 279.361 -1.56624 0.175154 0
M  V30 3043 C 280.609 -1.96609 -0.467885 0
M  V30 3044 C 280.93 -1.06238 -1.63519 0
M  V30 3045 O 280.2 -0.129523 -1.95471 0
M  V30 3046 H 278.78 -0.726008 -0.175845 0
M  V30 3047 H 281.442 -1.93195 0.257234 0
M  V30 3048 H 280.538 -3.00989 -0.825342 0
M  V30 3049 N 280.839 0.0985539 -1.57292 0
M  V30 3050 C 282.088 0.801358 -1.85098 0
M  V30 3051 C 282.401 1.80066 -0.763902 0
M  V30 3052 O 283.607 2.55112 -0.928981 0
M  V30 3053 C 282.063 1.47599 -3.28242 0
M  V30 3054 C 281.671 0.516624 -4.45011 0
M  V30 3055 C 283.415 2.16272 -3.65276 0
M  V30 3056 C 281.322 1.19564 -5.79188 0
M  V30 3057 H 280.252 0.303022 -0.69043 0
M  V30 3058 H 282.903 0.0542623 -1.8342 0
M  V30 3059 H 281.285 2.27042 -3.2445 0
M  V30 3060 H 282.459 -0.246065 -4.60143 0
M  V30 3061 H 280.774 -0.064227 -4.1635 0
M  V30 3062 H 283.371 2.67802 -4.62803 0
M  V30 3063 H 283.714 2.95009 -2.93727 0
M  V30 3064 H 284.247 1.43693 -3.70941 0
M  V30 3065 H 280.986 0.449157 -6.53959 0
M  V30 3066 H 280.506 1.92984 -5.67906 0
M  V30 3067 H 282.185 1.7231 -6.23633 0
M  V30 3068 N 282.317 1.53212 0.369288 0
M  V30 3069 C 283.227 1.82342 1.47609 0
M  V30 3070 C 284.243 0.711532 1.58787 0
M  V30 3071 O 285.419 1.0012 1.74751 0
M  V30 3072 C 282.484 2.00393 2.8292 0
M  V30 3073 C 281.545 3.24297 2.81301 0
M  V30 3074 C 280.778 3.41478 4.10157 0
M  V30 3075 O 281.001 2.63033 5.06132 0
M  V30 3076 O 279.935 4.34817 4.16194 0
M  V30 3077 H 283.761 2.76366 1.25918 0
M  V30 3078 H 281.346 1.38547 0.559034 0
M  V30 3079 H 283.228 2.13859 3.63101 0
M  V30 3080 H 281.903 1.09559 3.04596 0
M  V30 3081 H 280.81 3.16257 1.99831 0
M  V30 3082 H 282.143 4.15041 2.64578 0
M  V30 3083 N 283.795 -0.628877 1.44509 0
M  V30 3084 C 285.211 -0.947305 1.28446 0
M  V30 3085 C 285.411 -2.00275 0.221872 0
M  V30 3086 O 284.467 -2.49447 -0.391471 0
M  V30 3087 C 285.78 -1.40843 2.65676 0
M  V30 3088 C 287.328 -1.52379 2.73404 0
M  V30 3089 C 287.803 -2.01875 4.11109 0
M  V30 3090 N 289.294 -2.09142 4.13296 0
M  V30 3091 C 290.029 -2.48615 5.16699 0
M  V30 3092 N 289.525 -2.87209 6.30462 0
M  V30 3093 N 291.318 -2.48768 5.04054 0
M  V30 3094 H 283.469 0.0690977 2.12288 0
M  V30 3095 H 285.732 -0.0317164 0.947469 0
M  V30 3096 H 285.438 -0.707206 3.44516 0
M  V30 3097 H 285.312 -2.37902 2.92716 0
M  V30 3098 H 287.699 -2.21598 1.9488 0
M  V30 3099 H 287.78 -0.536898 2.50102 0
M  V30 3100 H 287.424 -1.3325 4.90109 0
M  V30 3101 H 287.354 -3.0144 4.31789 0
M  V30 3102 H 289.845 -1.81991 3.31191 0
M  V30 3103 H 290.158 -3.16149 7.05174 0
M  V30 3104 H 288.503 -2.84955 6.33897 0
M  V30 3105 H 291.694 -2.18009 4.14234 0
M  V30 3106 H 291.867 -2.79207 5.84763 0
M  V30 3107 N 285.273 -1.31445 -0.869486 0
M  V30 3108 C 286.52 -1.21158 -1.62256 0
M  V30 3109 C 286.848 0.230155 -1.93133 0
M  V30 3110 O 286.103 1.17906 -1.56194 0
M  V30 3111 C 286.402 -2.00145 -2.96102 0
M  V30 3112 C 286.068 -3.4964 -2.84715 0
M  V30 3113 C 284.73 -3.90403 -2.81317 0
M  V30 3114 C 287.082 -4.44769 -2.71716 0
M  V30 3115 C 284.41 -5.24561 -2.62778 0
M  V30 3116 C 286.762 -5.79054 -2.54714 0
M  V30 3117 C 285.426 -6.19037 -2.49699 0
M  V30 3118 H 284.696 -0.443348 -0.593737 0
M  V30 3119 H 287.343 -1.62715 -1.00976 0
M  V30 3120 H 285.648 -1.5127 -3.6142 0
M  V30 3121 H 287.345 -1.89566 -3.53363 0
M  V30 3122 H 283.935 -3.17256 -2.88178 0
M  V30 3123 H 288.119 -4.14208 -2.73397 0
M  V30 3124 H 283.375 -5.54613 -2.57321 0
M  V30 3125 H 287.549 -6.52393 -2.43632 0
M  V30 3126 H 285.176 -7.22935 -2.35093 0
M  V30 3127 N 286.751 1.08385 -1.14413 0
M  V30 3128 C 287.714 2.13486 -0.834048 0
M  V30 3129 C 288.714 1.59988 0.161418 0
M  V30 3130 O 289.904 1.74071 -0.0669575 0
M  V30 3131 C 287.036 3.4003 -0.243354 0
M  V30 3132 H 288.229 2.42425 -1.7655 0
M  V30 3133 H 285.782 1.24101 -0.950189 0
M  V30 3134 H 286.517 3.16726 0.696807 0
M  V30 3135 H 286.302 3.80157 -0.960367 0
M  V30 3136 H 287.792 4.17577 -0.0436242 0
M  V30 3137 N 288.23 0.939286 1.26551 0
M  V30 3138 C 289.177 0.446088 2.26448 0
M  V30 3139 C 290.147 -0.493234 1.58608 0
M  V30 3140 O 291.332 -0.409857 1.86346 0
M  V30 3141 C 288.472 -0.284375 3.43926 0
M  V30 3142 C 287.585 0.690399 4.26448 0
M  V30 3143 C 286.72 -0.0610712 5.31165 0
M  V30 3144 C 285.759 0.905649 6.05363 0
M  V30 3145 N 284.896 0.186055 7.01853 0
M  V30 3146 H 289.736 1.30291 2.68008 0
M  V30 3147 H 287.273 0.65371 1.31776 0
M  V30 3148 H 289.231 -0.724313 4.10864 0
M  V30 3149 H 287.861 -1.10535 3.03285 0
M  V30 3150 H 286.913 1.24885 3.59316 0
M  V30 3151 H 288.225 1.42873 4.779 0
M  V30 3152 H 287.379 -0.56038 6.04106 0
M  V30 3153 H 286.118 -0.832297 4.80546 0
M  V30 3154 H 285.123 1.4161 5.3125 0
M  V30 3155 H 286.348 1.67685 6.58072 0
M  V30 3156 H 284.294 -0.566714 6.53548 0
M  V30 3157 H 284.211 0.863752 7.51049 0
M  V30 3158 H 285.479 -0.292221 7.78952 0
M  V30 3159 N 289.708 -1.40897 0.706093 0
M  V30 3160 C 290.957 -2.00284 0.238574 0
M  V30 3161 C 291.27 -1.56604 -1.17194 0
M  V30 3162 O 292.476 -2.08624 -1.73748 0
M  V30 3163 C 290.932 -3.57934 0.375623 0
M  V30 3164 C 290.54 -4.10591 1.79217 0
M  V30 3165 C 292.284 -4.24488 -0.0315857 0
M  V30 3166 C 290.191 -5.60712 1.88032 0
M  V30 3167 H 289.121 -0.749144 0.0854398 0
M  V30 3168 H 291.772 -1.61251 0.875813 0
M  V30 3169 H 290.154 -3.94622 -0.330042 0
M  V30 3170 H 291.328 -3.85301 2.52745 0
M  V30 3171 H 289.643 -3.56601 2.15 0
M  V30 3172 H 292.24 -5.34698 0.0136842 0
M  V30 3173 H 292.583 -4.02261 -1.072 0
M  V30 3174 H 293.116 -3.92873 0.624181 0
M  V30 3175 H 289.855 -5.87781 2.90161 0
M  V30 3176 H 289.375 -5.87896 1.18903 0
M  V30 3177 H 291.054 -6.25658 1.64805 0
M  V30 3178 N 291.186 -0.45159 -1.50991 0
M  V30 3179 C 292.149 0.341117 -2.26647 0
M  V30 3180 C 293.149 0.937422 -1.30649 0
M  V30 3181 O 294.339 0.809644 -1.54241 0
M  V30 3182 C 291.471 1.48398 -3.06905 0
M  V30 3183 H 292.664 -0.322117 -2.98165 0
M  V30 3184 H 290.217 -0.205122 -1.54948 0
M  V30 3185 H 290.952 2.18284 -2.39838 0
M  V30 3186 H 290.737 1.06241 -3.77432 0
M  V30 3187 H 292.227 2.04367 -3.64176 0
M  V30 3188 N 292.664 1.56529 -0.183458 0
M  V30 3189 C 293.597 2.14417 0.781052 0
M  V30 3190 C 294.575 1.07761 1.21763 0
M  V30 3191 O 295.759 1.35807 1.30724 0
M  V30 3192 C 292.886 2.69361 2.05335 0
M  V30 3193 C 291.932 3.885 1.75982 0
M  V30 3194 S 292.765 5.27568 0.918256 0
M  V30 3195 C 293.921 5.85926 2.20095 0
M  V30 3196 H 294.154 2.95893 0.2889 0
M  V30 3197 H 291.687 1.54368 0.0313844 0
M  V30 3198 H 293.645 3.01662 2.78406 0
M  V30 3199 H 292.306 1.87949 2.51663 0
M  V30 3200 H 291.499 4.25314 2.70415 0
M  V30 3201 H 291.101 3.57149 1.10999 0
M  V30 3202 H 293.393 5.99579 3.15453 0
M  V30 3203 H 294.336 6.82761 1.87731 0
M  V30 3204 H 294.744 5.14438 2.32409 0
M  V30 3205 N 294.142 -0.090211 1.57342 0
M  V30 3206 C 295.553 -0.644173 1.75235 0
M  V30 3207 C 295.904 -1.78865 0.806335 0
M  V30 3208 O 295.029 -2.16395 -0.0140128 0
M  V30 3209 C 295.624 -1.17532 3.1776 0
M  V30 3210 C 294.183 -1.67531 3.37061 0
M  V30 3211 C 293.33 -0.58693 2.71017 0
M  V30 3212 H 296.281 0.135884 1.58117 0
M  V30 3213 H 296.302 -2.04455 3.20902 0
M  V30 3214 H 295.814 -0.342138 3.86589 0
M  V30 3215 H 293.915 -2.53234 2.73319 0
M  V30 3216 H 294.028 -1.76493 4.45406 0
M  V30 3217 H 292.392 -1.02756 2.33052 0
M  V30 3218 H 293.175 0.235758 3.4249 0
M  V30 3219 N 295.62 -1.53406 -0.361157 0
M  V30 3220 C 296.848 -1.73717 -1.12383 0
M  V30 3221 C 297.263 -0.468161 -1.82904 0
M  V30 3222 O 296.62 0.559198 -1.73722 0
M  V30 3223 C 296.671 -2.90558 -2.15078 0
M  V30 3224 O 296.392 -4.12549 -1.47428 0
M  V30 3225 C 297.893 -3.22777 -3.03858 0
M  V30 3226 H 295.113 -0.580896 -0.335858 0
M  V30 3227 H 297.657 -2.00167 -0.418728 0
M  V30 3228 H 295.812 -2.66489 -2.8118 0
M  V30 3229 H 296.226 -4.78009 -2.15887 0
M  V30 3230 H 297.7 -4.07927 -3.71887 0
M  V30 3231 H 298.177 -2.38329 -3.68912 0
M  V30 3232 H 298.783 -3.48787 -2.43367 0
M  V30 3233 N 297.098 0.621204 -1.44841 0
M  V30 3234 C 298.028 1.74366 -1.55303 0
M  V30 3235 C 299.009 1.65199 -0.405385 0
M  V30 3236 O 300.194 1.83807 -0.626787 0
M  V30 3237 C 297.324 3.12931 -1.50637 0
M  V30 3238 C 296.278 3.36896 -2.63979 0
M  V30 3239 C 295.604 4.75594 -2.44366 0
M  V30 3240 C 296.904 3.28483 -4.06074 0
M  V30 3241 H 298.598 1.65867 -2.49256 0
M  V30 3242 H 296.144 0.796558 -1.19962 0
M  V30 3243 H 298.097 3.9124 -1.56555 0
M  V30 3244 H 296.821 3.22237 -0.532057 0
M  V30 3245 H 295.48 2.60972 -2.57467 0
M  V30 3246 H 295.128 4.81616 -1.45105 0
M  V30 3247 H 294.828 4.92586 -3.20364 0
M  V30 3248 H 296.352 5.5612 -2.52117 0
M  V30 3249 H 297.766 3.96684 -4.13902 0
M  V30 3250 H 296.163 3.57008 -4.82354 0
M  V30 3251 H 297.233 2.26133 -4.28943 0
M  V30 3252 N 298.576 1.31904 0.862503 0
M  V30 3253 C 299.823 1.22017 1.61611 0
M  V30 3254 C 300.151 -0.21991 1.93253 0
M  V30 3255 O 299.406 -1.17076 1.56817 0
M  V30 3256 C 299.705 2.01713 2.95037 0
M  V30 3257 C 299.371 3.51145 2.82857 0
M  V30 3258 C 298.033 3.91889 2.79243 0
M  V30 3259 C 300.385 4.46204 2.69353 0
M  V30 3260 C 297.713 5.25947 2.59993 0
M  V30 3261 C 300.065 5.80397 2.5164 0
M  V30 3262 C 298.729 6.20352 2.46413 0
M  V30 3263 H 297.999 0.44649 0.591378 0
M  V30 3264 H 300.646 1.63248 1.00111 0
M  V30 3265 H 298.951 1.53185 3.60613 0
M  V30 3266 H 300.648 1.91437 3.52353 0
M  V30 3267 H 297.238 3.1878 2.86491 0
M  V30 3268 H 301.422 4.15652 2.71196 0
M  V30 3269 H 296.678 5.5597 2.54376 0
M  V30 3270 H 300.852 6.53676 2.40169 0
M  V30 3271 H 298.479 7.24172 2.31256 0
M  V30 3272 N 300.054 -1.07777 1.14986 0
M  V30 3273 C 301.303 -1.79669 0.916617 0
M  V30 3274 C 301.616 -1.87474 -0.557917 0
M  V30 3275 O 302.822 -2.55845 -0.908617 0
M  V30 3276 C 301.278 -3.22848 1.59051 0
M  V30 3277 C 300.886 -3.23257 3.10176 0
M  V30 3278 C 302.63 -3.99379 1.43864 0
M  V30 3279 C 300.537 -4.61063 3.70372 0
M  V30 3280 H 299.467 -0.673349 0.33929 0
M  V30 3281 H 302.118 -1.21003 1.37951 0
M  V30 3282 H 300.5 -3.8168 1.0553 0
M  V30 3283 H 301.674 -2.74095 3.70417 0
M  V30 3284 H 299.989 -2.60222 3.25074 0
M  V30 3285 H 302.586 -5.0122 1.86232 0
M  V30 3286 H 302.929 -4.14511 0.385564 0
M  V30 3287 H 303.462 -3.47032 1.94457 0
M  V30 3288 H 300.201 -4.51135 4.7556 0
M  V30 3289 H 299.721 -5.1048 3.14913 0
M  V30 3290 H 301.4 -5.30034 3.71043 0
M  V30 3291 N 301.532 -0.945985 -1.26051 0
M  V30 3292 C 302.462 -0.477172 -2.28572 0
M  V30 3293 C 303.443 0.472032 -1.63419 0
M  V30 3294 O 304.628 0.372853 -1.90587 0
M  V30 3295 C 301.758 0.253975 -3.4637 0
M  V30 3296 C 300.712 -0.609135 -4.23643 0
M  V30 3297 C 300.038 0.252252 -5.34105 0
M  V30 3298 C 301.338 -1.8829 -4.8718 0
M  V30 3299 H 303.032 -1.33402 -2.68038 0
M  V30 3300 H 300.578 -0.642904 -1.28852 0
M  V30 3301 H 302.531 0.593016 -4.17207 0
M  V30 3302 H 301.255 1.145 -3.05871 0
M  V30 3303 H 299.914 -0.931138 -3.54578 0
M  V30 3304 H 299.562 1.14278 -4.89846 0
M  V30 3305 H 299.262 -0.32188 -5.86718 0
M  V30 3306 H 300.786 0.586454 -6.07777 0
M  V30 3307 H 302.2 -1.61081 -5.50205 0
M  V30 3308 H 300.597 -2.40199 -5.49931 0
M  V30 3309 H 301.667 -2.59134 -4.09851 0
M  V30 3310 N 303.011 1.40521 -0.713556 0
M  V30 3311 C 303.974 2.29098 -0.0684347 0
M  V30 3312 C 304.974 1.45268 0.689472 0
M  V30 3313 O 306.164 1.66205 0.521677 0
M  V30 3314 C 303.296 3.28446 0.913024 0
M  V30 3315 H 304.489 2.87645 -0.84855 0
M  V30 3316 H 302.042 1.48809 -0.47809 0
M  V30 3317 H 302.777 2.74913 1.72027 0
M  V30 3318 H 302.562 3.90327 0.372472 0
M  V30 3319 H 304.052 3.94777 1.36165 0
M  V30 3320 N 304.489 0.459591 1.5075 0
M  V30 3321 C 305.735 -0.0994966 2.02556 0
M  V30 3322 C 306.068 -1.40399 1.3417 0
M  V30 3323 O 305.343 -1.88892 0.463683 0
M  V30 3324 C 305.626 -0.295242 3.58888 0
M  V30 3325 C 305.479 1.02947 4.37861 0
M  V30 3326 C 306.798 -1.05502 4.27267 0
M  V30 3327 H 303.917 -0.034686 0.736183 0
M  V30 3328 H 306.559 0.602938 1.8018 0
M  V30 3329 H 304.709 -0.893563 3.78084 0
M  V30 3330 H 306.381 1.66348 4.30263 0
M  V30 3331 H 304.624 1.62885 4.02058 0
M  V30 3332 H 305.295 0.846281 5.45474 0
M  V30 3333 H 307.771 -0.547993 4.12476 0
M  V30 3334 H 306.647 -1.16077 5.36486 0
M  V30 3335 H 306.908 -2.08875 3.89645 0
M  V30 3336 N 305.967 -1.56429 0.191757 0
M  V30 3337 C 307.214 -1.97485 -0.447891 0
M  V30 3338 C 307.542 -1.07852 -1.61859 0
M  V30 3339 O 306.797 -0.116903 -1.95351 0
M  V30 3340 C 307.096 -3.44449 -0.953384 0
M  V30 3341 C 306.762 -4.50781 0.103586 0
M  V30 3342 C 305.424 -4.79584 0.394023 0
M  V30 3343 C 307.776 -5.1471 0.819946 0
M  V30 3344 C 305.104 -5.69607 1.40585 0
M  V30 3345 C 307.456 -6.05827 1.8209 0
M  V30 3346 C 306.12 -6.32987 2.11857 0
M  V30 3347 H 305.39 -0.722648 -0.163895 0
M  V30 3348 H 308.037 -1.89322 0.28802 0
M  V30 3349 H 306.342 -3.49666 -1.76751 0
M  V30 3350 H 308.039 -3.73569 -1.45765 0
M  V30 3351 H 304.629 -4.28394 -0.132951 0
M  V30 3352 H 308.813 -4.92552 0.608789 0
M  V30 3353 H 304.069 -5.88926 1.64243 0
M  V30 3354 H 308.243 -6.54424 2.38123 0
M  V30 3355 H 305.87 -7.02544 2.90407 0
M  V30 3356 N 307.445 0.0818655 -1.57387 0
M  V30 3357 C 308.375 1.09885 -2.06028 0
M  V30 3358 C 309.356 1.4098 -0.951774 0
M  V30 3359 O 310.541 1.50781 -1.22387 0
M  V30 3360 C 307.671 2.4151 -2.4958 0
M  V30 3361 C 306.625 2.24792 -3.64215 0
M  V30 3362 C 305.951 3.61712 -3.93787 0
M  V30 3363 C 307.251 1.67749 -4.94629 0
M  V30 3364 H 308.945 0.694128 -2.91243 0
M  V30 3365 H 306.491 0.332448 -1.4011 0
M  V30 3366 H 308.444 3.12939 -2.82219 0
M  V30 3367 H 307.168 2.83943 -1.61381 0
M  V30 3368 H 305.827 1.55807 -3.31843 0
M  V30 3369 H 305.475 4.01697 -3.02735 0
M  V30 3370 H 305.175 3.51368 -4.70971 0
M  V30 3371 H 306.699 4.34587 -4.28913 0
M  V30 3372 H 308.113 2.29032 -5.25564 0
M  V30 3373 H 306.51 1.68128 -5.76067 0
M  V30 3374 H 307.58 0.638059 -4.80684 0
M  V30 3375 N 308.923 1.53595 0.353017 0
M  V30 3376 C 310.169 1.70638 1.09593 0
M  V30 3377 C 310.502 0.463286 1.88593 0
M  V30 3378 O 309.777 -0.539597 1.86865 0
M  V30 3379 C 310.06 2.96406 2.04489 0
M  V30 3380 C 309.913 4.30901 1.29014 0
M  V30 3381 C 311.232 3.17812 3.0444 0
M  V30 3382 H 308.351 0.620913 0.397034 0
M  V30 3383 H 310.993 1.86254 0.375446 0
M  V30 3384 H 309.143 2.83223 2.65927 0
M  V30 3385 H 310.815 4.55917 0.702638 0
M  V30 3386 H 309.058 4.29741 0.592071 0
M  V30 3387 H 309.729 5.1506 1.98537 0
M  V30 3388 H 312.205 3.30263 2.53112 0
M  V30 3389 H 311.081 4.07223 3.6805 0
M  V30 3390 H 311.342 2.33669 3.75301 0
M  V30 3391 N 310.401 -0.613514 1.45168 0
M  V30 3392 C 311.65 -1.36874 1.4815 0
M  V30 3393 C 311.963 -1.952 0.124982 0
M  V30 3394 O 313.169 -2.71481 0.0324176 0
M  V30 3395 C 311.625 -2.47905 2.60904 0
M  V30 3396 C 311.233 -1.96016 4.02842 0
M  V30 3397 C 312.977 -3.24965 2.73126 0
M  V30 3398 C 310.884 -3.04494 5.06988 0
M  V30 3399 H 309.814 -0.514428 0.551253 0
M  V30 3400 H 312.465 -0.658182 1.7129 0
M  V30 3401 H 310.847 -3.21618 2.31037 0
M  V30 3402 H 312.021 -1.29051 4.4236 0
M  V30 3403 H 310.336 -1.31719 3.95018 0
M  V30 3404 H 312.933 -4.05865 3.48106 0
M  V30 3405 H 313.276 -3.75588 1.79553 0
M  V30 3406 H 313.809 -2.5835 3.0249 0
M  V30 3407 H 310.548 -2.58795 6.0225 0
M  V30 3408 H 310.068 -3.70044 4.72046 0
M  V30 3409 H 311.747 -3.68976 5.31475 0
M  V30 3410 N 311.879 -1.3236 -0.855495 0
M  V30 3411 C 313.295 -1.11332 -1.14356 0
M  V30 3412 C 313.495 0.106751 -2.01217 0
M  V30 3413 O 312.551 0.791891 -2.39761 0
M  V30 3414 C 313.864 -2.39237 -1.82171 0
M  V30 3415 C 315.412 -2.44986 -1.9481 0
M  V30 3416 C 315.887 -3.7281 -2.66039 0
M  V30 3417 N 317.378 -3.73787 -2.73565 0
M  V30 3418 C 318.113 -4.69394 -3.29327 0
M  V30 3419 N 317.609 -5.75367 -3.85907 0
M  V30 3420 N 319.402 -4.56893 -3.27423 0
M  V30 3421 H 311.553 -2.10586 -0.277027 0
M  V30 3422 H 313.816 -0.929701 -0.185364 0
M  V30 3423 H 313.522 -3.28431 -1.25802 0
M  V30 3424 H 313.396 -2.50134 -2.82335 0
M  V30 3425 H 315.783 -1.56252 -2.50338 0
M  V30 3426 H 315.864 -2.38043 -0.936448 0
M  V30 3427 H 315.508 -4.61918 -2.11174 0
M  V30 3428 H 315.438 -3.77024 -3.67642 0
M  V30 3429 H 317.929 -2.97189 -2.33424 0
M  V30 3430 H 318.242 -6.44378 -4.26611 0
M  V30 3431 H 316.587 -5.79123 -3.84242 0
M  V30 3432 H 319.778 -3.73269 -2.82467 0
M  V30 3433 H 319.951 -5.31577 -3.7058 0
M  V30 3434 N 313.357 1.07166 -1.15556 0
M  V30 3435 C 314.603 1.80065 -0.932984 0
M  V30 3436 C 314.936 1.86586 0.53845 0
M  V30 3437 O 314.211 1.35098 1.39924 0
M  V30 3438 C 314.494 3.25022 -1.55025 0
M  V30 3439 C 314.347 3.26634 -3.09242 0
M  V30 3440 C 315.666 4.22341 -1.2376 0
M  V30 3441 H 312.785 0.653697 -0.340366 0
M  V30 3442 H 315.427 1.25389 -1.4275 0
M  V30 3443 H 313.577 3.71712 -1.12972 0
M  V30 3444 H 315.249 2.88173 -3.60214 0
M  V30 3445 H 313.492 2.65539 -3.43033 0
M  V30 3446 H 314.163 4.28854 -3.47546 0
M  V30 3447 H 316.639 3.8405 -1.60139 0
M  V30 3448 H 315.515 5.22053 -1.69564 0
M  V30 3449 H 315.776 4.41828 -0.154938 0
M  V30 3450 N 314.835 0.952656 1.25548 0
M  V30 3451 C 316.082 0.606373 1.93208 0
M  V30 3452 C 316.41 -0.85631 1.74636 0
M  V30 3453 O 315.665 -1.62951 1.08376 0
M  V30 3454 C 315.964 0.908818 3.45652 0
M  V30 3455 C 315.63 2.35722 3.84378 0
M  V30 3456 C 314.292 2.75312 3.9466 0
M  V30 3457 C 316.644 3.29793 4.03591 0
M  V30 3458 C 313.972 4.08047 4.21562 0
M  V30 3459 C 316.324 4.62138 4.31985 0
M  V30 3460 C 314.988 5.01528 4.40484 0
M  V30 3461 H 314.258 0.221888 0.706998 0
M  V30 3462 H 316.905 1.20132 1.49133 0
M  V30 3463 H 315.21 0.231456 3.91116 0
M  V30 3464 H 316.907 0.619498 3.96186 0
M  V30 3465 H 313.497 2.04017 3.76928 0
M  V30 3466 H 317.681 3.00397 3.95064 0
M  V30 3467 H 312.937 4.38212 4.26357 0
M  V30 3468 H 317.111 5.35012 4.45797 0
M  V30 3469 H 314.738 6.04406 4.61083 0
M  V30 3470 N 316.313 -1.40141 0.720998 0
M  V30 3471 C 317.243 -2.33339 0.0867621 0
M  V30 3472 C 318.224 -1.53178 -0.739622 0
M  V30 3473 O 319.409 -1.81625 -0.687449 0
M  V30 3474 C 316.539 -3.37194 -0.831728 0
M  V30 3475 C 315.493 -4.27857 -0.110558 0
M  V30 3476 C 314.819 -5.22294 -1.14513 0
M  V30 3477 C 316.119 -5.11872 1.0385 0
M  V30 3478 H 317.813 -2.86626 0.865219 0
M  V30 3479 H 315.359 -1.37814 0.417516 0
M  V30 3480 H 317.312 -4.01335 -1.28485 0
M  V30 3481 H 316.036 -2.82314 -1.64214 0
M  V30 3482 H 314.695 -3.65176 0.322797 0
M  V30 3483 H 314.343 -4.63717 -1.94874 0
M  V30 3484 H 314.043 -5.83797 -0.667446 0
M  V30 3485 H 315.567 -5.89312 -1.59824 0
M  V30 3486 H 316.981 -5.69436 0.664482 0
M  V30 3487 H 315.378 -5.82445 1.4449 0
M  V30 3488 H 316.448 -4.4753 1.86668 0
M  V30 3489 N 317.792 -0.46758 -1.50504 0
M  V30 3490 C 318.722 0.318381 -2.31319 0
M  V30 3491 C 319.703 0.993564 -1.38066 0
M  V30 3492 O 320.888 0.991411 -1.66987 0
M  V30 3493 C 318.018 1.40275 -3.17711 0
M  V30 3494 C 316.972 0.849373 -4.19487 0
M  V30 3495 C 316.298 2.03177 -4.94594 0
M  V30 3496 C 317.598 -0.136942 -5.2212 0
M  V30 3497 H 319.292 -0.356106 -2.97275 0
M  V30 3498 H 316.838 -0.172703 -1.42961 0
M  V30 3499 H 318.791 1.96004 -3.73042 0
M  V30 3500 H 317.515 2.10596 -2.49634 0
M  V30 3501 H 316.174 0.314076 -3.65252 0
M  V30 3502 H 315.822 2.72187 -4.22993 0
M  V30 3503 H 315.522 1.66774 -5.63436 0
M  V30 3504 H 317.046 2.59403 -5.52759 0
M  V30 3505 H 318.46 0.331056 -5.72343 0
M  V30 3506 H 316.857 -0.41507 -5.98663 0
M  V30 3507 H 317.927 -1.06398 -4.73083 0
M  V30 3508 N 319.27 1.56325 -0.20005 0
M  V30 3509 C 320.18 2.22931 0.730668 0
M  V30 3510 C 321.196 1.22997 1.23076 0
M  V30 3511 O 322.372 1.55748 1.27689 0
M  V30 3512 C 319.437 2.87948 1.93098 0
M  V30 3513 C 318.498 4.03166 1.47497 0
M  V30 3514 C 317.731 4.65073 2.61807 0
M  V30 3515 O 317.954 4.25913 3.79413 0
M  V30 3516 O 316.888 5.54452 2.34237 0
M  V30 3517 H 320.714 3.03084 0.193391 0
M  V30 3518 H 318.299 1.49371 0.0294621 0
M  V30 3519 H 320.181 3.29063 2.6324 0
M  V30 3520 H 318.856 2.10771 2.45677 0
M  V30 3521 H 317.763 3.66664 0.742201 0
M  V30 3522 H 319.096 4.82022 0.995796 0
M  V30 3523 N 320.748 -0.0735177 1.57428 0
M  V30 3524 C 321.976 -0.785969 1.9139 0
M  V30 3525 C 322.391 -1.71207 0.795847 0
M  V30 3526 O 321.748 -1.81033 -0.230915 0
M  V30 3527 C 321.799 -1.58107 3.25091 0
M  V30 3528 O 321.52 -0.6922 4.32597 0
M  V30 3529 C 323.021 -2.39467 3.73055 0
M  V30 3530 H 320.241 -0.223558 0.632663 0
M  V30 3531 H 322.785 -0.044302 2.04452 0
M  V30 3532 H 320.94 -2.27503 3.13562 0
M  V30 3533 H 321.354 -1.24504 5.09508 0
M  V30 3534 H 322.828 -2.90716 4.69242 0
M  V30 3535 H 323.305 -3.18913 3.01979 0
M  V30 3536 H 323.911 -1.7523 3.87523 0
M  V30 3537 N 322.226 -1.5378 -0.344866 0
M  V30 3538 C 323.637 -1.62428 -0.920552 0
M  V30 3539 C 323.988 -0.504747 -1.89596 0
M  V30 3540 O 323.113 0.365711 -2.13287 0
M  V30 3541 C 323.708 -2.94419 -1.67639 0
M  V30 3542 C 322.267 -3.05333 -2.20111 0
M  V30 3543 C 321.414 -2.57866 -1.01982 0
M  V30 3544 H 324.365 -1.58222 -0.123042 0
M  V30 3545 H 324.386 -2.83384 -2.53917 0
M  V30 3546 H 323.898 -3.7588 -0.966224 0
M  V30 3547 H 321.999 -2.28502 -2.94308 0
M  V30 3548 H 322.112 -4.10778 -2.46573 0
M  V30 3549 H 320.476 -2.13241 -1.39285 0
M  V30 3550 H 321.259 -3.41765 -0.324308 0
M  V30 3551 N 323.704 0.605807 -1.45491 0
M  V30 3552 C 324.652 1.73754 -1.54636 0
M  V30 3553 C 325.646 1.64207 -0.416219 0
M  V30 3554 O 326.852 1.69979 -0.592199 0
M  V30 3555 H 323.227 0.574073 -0.485741 0
M  V30 3556 H 325.198 1.63169 -2.49837 0
M  V30 3557 C 323.947 3.12135 -1.53189 0
M  V30 3558 H 323.27 3.20141 -2.39478 0
M  V30 3559 H 324.71 3.91147 -1.63645 0
M  V30 3560 C 323.169 3.35921 -0.256616 0
M  V30 3561 O 323.699 3.96194 0.662798 0
M  V30 3562 N 321.905 2.90204 -0.151751 0
M  V30 3563 H 321.452 2.41336 -0.90081 0
M  V30 3564 H 321.41 3.06492 0.700699 0
M  V30 3565 N 325.182 1.32811 0.848464 0
M  V30 3566 C 326.43 1.23479 1.59991 0
M  V30 3567 C 326.751 -0.201853 1.93952 0
M  V30 3568 O 326.021 -1.12818 1.60153 0
M  V30 3569 H 324.601 0.454034 0.593179 0
M  V30 3570 H 327.263 1.66412 1.01455 0
M  V30 3571 H 326.359 1.82178 2.53412 0
M  V30 3572 N 326.66 -1.06551 1.16123 0
M  V30 3573 C 327.888 -1.83005 0.965237 0
M  V30 3574 C 328.303 -1.82423 -0.486542 0
M  V30 3575 O 327.66 -1.24152 -1.33763 0
M  V30 3576 C 327.711 -3.29733 1.48183 0
M  V30 3577 O 327.432 -3.30416 2.87674 0
M  V30 3578 C 328.933 -4.22926 1.32848 0
M  V30 3579 H 326.153 -0.577118 0.342309 0
M  V30 3580 H 328.697 -1.3445 1.54089 0
M  V30 3581 H 326.852 -3.75609 0.948517 0
M  V30 3582 H 327.266 -4.22149 3.11272 0
M  V30 3583 H 328.74 -5.23916 1.73827 0
M  V30 3584 H 329.217 -4.38346 0.273692 0
M  V30 3585 H 329.823 -3.82894 1.85127 0
M  V30 3586 N 328.138 -0.959301 -1.25041 0
M  V30 3587 C 329.101 -0.487677 -2.23952 0
M  V30 3588 C 330.101 0.41119 -1.55454 0
M  V30 3589 O 331.291 0.207825 -1.72956 0
M  V30 3590 C 328.423 0.294807 -3.39623 0
M  V30 3591 H 329.616 -1.36198 -2.67189 0
M  V30 3592 H 327.169 -0.743042 -1.37508 0
M  V30 3593 H 327.904 1.18658 -3.01813 0
M  V30 3594 H 327.689 -0.35012 -3.90534 0
M  V30 3595 H 329.179 0.614089 -4.1306 0
M  V30 3596 N 329.616 1.39756 -0.72842 0
M  V30 3597 C 330.579 2.29012 -0.0927297 0
M  V30 3598 C 331.579 1.45992 0.674025 0
M  V30 3599 O 332.769 1.66749 0.50402 0
M  V30 3600 C 329.901 3.29396 0.878137 0
M  V30 3601 H 331.094 2.86729 -0.879011 0
M  V30 3602 H 328.647 1.48293 -0.493847 0
M  V30 3603 H 329.382 2.76722 1.69101 0
M  V30 3604 H 329.167 3.907 0.331051 0
M  V30 3605 H 330.657 3.96199 1.3197 0
M  V30 3606 N 331.094 0.475555 1.50254 0
M  V30 3607 C 332.371 -0.139685 1.95101 0
M  V30 3608 C 332.751 -1.56555 1.41611 0
M  V30 3609 O 332.099 -2.19956 0.618993 0
M  V30 3610 C 332.309 -0.0784298 3.48912 0
M  V30 3611 C 333.657 -0.265095 4.23772 0
M  V30 3612 O 334.681 -0.154808 3.55863 0
M  V30 3613 O 333.54 -0.488327 5.44314 0
M  V30 3614 H 330.634 -0.109236 0.819754 0
M  V30 3615 H 333.18 0.536276 1.61004 0
M  V30 3616 H 331.952 0.916918 3.80405 0
M  V30 3617 H 331.575 -0.795655 3.89558 0
M  V30 3618 N 332.573 -1.56217 0.208337 0
M  V30 3619 C 333.821 -1.97558 -0.426076 0
M  V30 3620 C 334.142 -1.09683 -1.61229 0
M  V30 3621 O 333.412 -0.170956 -1.95153 0
M  V30 3622 H 331.992 -0.729575 -0.160405 0
M  V30 3623 H 334.654 -1.92606 0.298155 0
M  V30 3624 H 333.75 -3.02672 -0.761312 0
M  V30 3625 N 334.051 0.0651679 -1.57465 0
M  V30 3626 C 334.981 1.07693 -2.07182 0
M  V30 3627 C 335.962 1.39962 -0.966673 0
M  V30 3628 O 337.147 1.49475 -1.2398 0
M  V30 3629 C 334.277 2.3885 -2.52127 0
M  V30 3630 C 333.231 2.20917 -3.66579 0
M  V30 3631 C 332.557 3.57515 -3.97601 0
M  V30 3632 C 333.857 1.62493 -4.9638 0
M  V30 3633 H 335.551 0.663199 -2.91962 0
M  V30 3634 H 333.097 0.317569 -1.40455 0
M  V30 3635 H 335.05 3.09928 -2.85522 0
M  V30 3636 H 333.774 2.82215 -1.64384 0
M  V30 3637 H 332.433 1.52279 -3.33477 0
M  V30 3638 H 332.081 3.98463 -3.06979 0
M  V30 3639 H 331.781 3.46353 -4.74672 0
M  V30 3640 H 333.305 4.30013 -4.33499 0
M  V30 3641 H 334.719 2.23445 -5.27963 0
M  V30 3642 H 333.116 1.62009 -5.77818 0
M  V30 3643 H 334.186 0.587041 -4.81333 0
M  V30 3644 N 335.529 1.53961 0.336706 0
M  V30 3645 C 336.477 1.83136 1.43401 0
M  V30 3646 C 337.471 0.702313 1.54156 0
M  V30 3647 O 338.677 0.885765 1.56698 0
M  V30 3648 H 335.052 0.580309 0.478273 0
M  V30 3649 H 337.023 2.74925 1.16012 0
M  V30 3650 C 335.772 2.06385 2.79822 0
M  V30 3651 H 335.095 2.92718 2.72316 0
M  V30 3652 H 336.535 2.30761 3.55704 0
M  V30 3653 C 334.994 0.851414 3.25964 0
M  V30 3654 O 335.524 0.0541904 4.01663 0
M  V30 3655 N 333.73 0.66672 2.82848 0
M  V30 3656 H 333.277 1.31665 2.21409 0
M  V30 3657 H 333.235 -0.143032 3.14074 0
M  V30 3658 N 337.007 -0.598083 1.45811 0
M  V30 3659 C 338.254 -1.35681 1.50323 0
M  V30 3660 C 338.582 -1.9393 0.148739 0
M  V30 3661 O 337.837 -1.76094 -0.853787 0
M  V30 3662 C 338.136 -2.51669 2.53766 0
M  V30 3663 C 337.802 -2.11508 3.98215 0
M  V30 3664 C 336.464 -2.0027 4.37545 0
M  V30 3665 C 338.816 -1.80308 4.89018 0
M  V30 3666 C 336.144 -1.56067 5.65562 0
M  V30 3667 C 338.496 -1.37589 6.17456 0
M  V30 3668 C 337.16 -1.24916 6.55708 0
M  V30 3669 H 336.43 -0.496492 0.550069 0
M  V30 3670 H 339.077 -0.675052 1.79207 0
M  V30 3671 H 337.382 -3.25225 2.18486 0
M  V30 3672 H 339.079 -3.09895 2.54492 0
M  V30 3673 H 335.669 -2.21185 3.67117 0
M  V30 3674 H 339.853 -1.87884 4.59362 0
M  V30 3675 H 335.109 -1.44886 5.93985 0
M  V30 3676 H 339.283 -1.12495 6.87254 0
M  V30 3677 H 336.91 -0.904386 7.54801 0
M  V30 3678 N 338.485 -1.33259 -0.841409 0
M  V30 3679 C 339.415 -1.25926 -1.96634 0
M  V30 3680 C 340.396 -0.140349 -1.6952 0
M  V30 3681 O 341.581 -0.329707 -1.91381 0
M  V30 3682 C 338.711 -0.99512 -3.32738 0
M  V30 3683 C 337.665 -2.0767 -3.74242 0
M  V30 3684 C 336.991 -1.66474 -5.08125 0
M  V30 3685 C 338.291 -3.49318 -3.88297 0
M  V30 3686 H 339.985 -2.20046 -2.03027 0
M  V30 3687 H 337.531 -1.05931 -0.975425 0
M  V30 3688 H 339.484 -0.930323 -4.11002 0
M  V30 3689 H 338.208 -0.0183004 -3.26595 0
M  V30 3690 H 336.867 -2.13187 -2.98239 0
M  V30 3691 H 336.515 -0.675012 -4.9845 0
M  V30 3692 H 336.215 -2.3885 -5.36865 0
M  V30 3693 H 337.739 -1.61455 -5.88867 0
M  V30 3694 H 339.153 -3.46316 -4.56879 0
M  V30 3695 H 337.55 -4.20158 -4.28471 0
M  V30 3696 H 338.62 -3.8801 -2.9082 0
M  V30 3697 N 339.963 1.05934 -1.16686 0
M  V30 3698 C 341.209 1.79211 -0.962023 0
M  V30 3699 C 341.564 1.85667 0.504545 0
M  V30 3700 O 340.857 1.33991 1.36956 0
M  V30 3701 C 341.051 3.23105 -1.52767 0
M  V30 3702 C 340.88 3.30673 -3.04771 0
M  V30 3703 C 339.65 3.40395 -3.73442 0
M  V30 3704 C 341.848 3.20234 -4.02436 0
M  V30 3705 N 339.83 3.37015 -5.13122 0
M  V30 3706 C 341.201 3.24138 -5.28521 0
M  V30 3707 C 343.256 3.04143 -3.9421 0
M  V30 3708 C 341.959 3.13607 -6.47336 0
M  V30 3709 C 343.985 2.94951 -5.12599 0
M  V30 3710 C 343.347 2.99481 -6.37566 0
M  V30 3711 H 339.446 0.668442 -0.405844 0
M  V30 3712 H 342.03 1.26341 -1.48142 0
M  V30 3713 H 340.201 3.74364 -1.03471 0
M  V30 3714 H 341.933 3.84579 -1.26021 0
M  V30 3715 H 338.688 3.45344 -3.2409 0
M  V30 3716 H 339.112 3.38815 -5.86117 0
M  V30 3717 H 343.754 2.99484 -2.98445 0
M  V30 3718 H 341.472 3.17022 -7.43319 0
M  V30 3719 H 345.058 2.83583 -5.08008 0
M  V30 3720 H 343.938 2.92431 -7.27636 0
M  V30 3721 N 341.441 0.965919 1.2453 0
M  V30 3722 C 342.669 0.644385 1.96609 0
M  V30 3723 C 343.084 -0.785823 1.71669 0
M  V30 3724 O 342.441 -1.52703 0.999399 0
M  V30 3725 C 342.492 0.907375 3.49927 0
M  V30 3726 O 342.213 2.28136 3.74013 0
M  V30 3727 C 343.714 0.599784 4.39224 0
M  V30 3728 H 340.934 0.240588 0.626385 0
M  V30 3729 H 343.478 1.29337 1.58405 0
M  V30 3730 H 341.633 0.304631 3.862 0
M  V30 3731 H 342.047 2.36002 4.68405 0
M  V30 3732 H 343.521 0.834263 5.45659 0
M  V30 3733 H 343.998 -0.465921 4.36722 0
M  V30 3734 H 344.604 1.18235 4.08535 0
M  V30 3735 N 342.919 -1.39368 0.735821 0
M  V30 3736 C 344.33 -1.83313 0.354015 0
M  V30 3737 C 344.681 -1.61461 -1.11466 0
M  V30 3738 O 343.806 -1.10621 -1.85989 0
M  V30 3739 C 344.401 -3.32781 0.635769 0
M  V30 3740 C 342.96 -3.75142 0.307448 0
M  V30 3741 C 342.107 -2.62358 0.897974 0
M  V30 3742 H 345.058 -1.28349 0.933398 0
M  V30 3743 H 345.079 -3.80388 -0.0921773 0
M  V30 3744 H 344.591 -3.48654 1.70476 0
M  V30 3745 H 342.692 -3.64857 -0.755674 0
M  V30 3746 H 342.805 -4.72532 0.790583 0
M  V30 3747 H 341.169 -2.52624 0.324551 0
M  V30 3748 H 341.952 -2.81036 1.97164 0
M  V30 3749 N 344.397 -0.483516 -1.5 0
M  V30 3750 C 345.674 0.129337 -1.95172 0
M  V30 3751 C 346.054 1.55802 -1.4244 0
M  V30 3752 O 345.402 2.19625 -0.630649 0
M  V30 3753 C 345.612 0.0599251 -3.48949 0
M  V30 3754 C 346.96 0.242617 -4.23906 0
M  V30 3755 O 347.984 0.135933 -3.55941 0
M  V30 3756 O 346.843 0.459454 -5.44565 0
M  V30 3757 H 343.937 0.104887 -0.820322 0
M  V30 3758 H 346.483 -0.544807 -1.60717 0
M  V30 3759 H 345.255 -0.937079 -3.79914 0
M  V30 3760 H 344.878 0.774984 -3.89974 0
M  V30 3761 N 345.875 1.56104 -0.216619 0
M  V30 3762 C 347.122 1.98172 0.416416 0
M  V30 3763 C 347.45 1.10413 1.60122 0
M  V30 3764 O 346.705 0.147967 1.9514 0
M  V30 3765 C 347.004 3.45923 0.898464 0
M  V30 3766 C 346.67 4.50559 -0.175288 0
M  V30 3767 C 345.332 4.78897 -0.470271 0
M  V30 3768 C 347.684 5.1334 -0.901728 0
M  V30 3769 C 345.012 5.67299 -1.4963 0
M  V30 3770 C 347.364 6.02853 -1.91705 0
M  V30 3771 C 346.028 6.29537 -2.21901 0
M  V30 3772 H 345.298 0.725164 0.152377 0
M  V30 3773 H 347.945 1.88839 -0.318103 0
M  V30 3774 H 346.25 3.52434 1.71165 0
M  V30 3775 H 347.947 3.75841 1.39803 0
M  V30 3776 H 344.537 4.28551 0.0647806 0
M  V30 3777 H 348.721 4.91521 -0.687072 0
M  V30 3778 H 343.977 5.86239 -1.73592 0
M  V30 3779 H 348.151 6.50552 -2.48505 0
M  V30 3780 H 345.778 6.97835 -3.01548 0
M  V30 3781 N 347.353 -0.0568162 1.57498 0
M  V30 3782 C 348.263 -1.08346 2.08083 0
M  V30 3783 C 349.279 -1.41439 1.01346 0
M  V30 3784 O 350.455 -1.51316 1.32912 0
M  V30 3785 C 347.52 -2.37352 2.52715 0
M  V30 3786 C 346.581 -2.11093 3.73816 0
M  V30 3787 C 345.814 -3.33949 4.1631 0
M  V30 3788 O 346.037 -4.43622 3.58547 0
M  V30 3789 O 344.971 -3.21279 5.08983 0
M  V30 3790 H 348.797 -0.683667 2.95905 0
M  V30 3791 H 346.382 -0.271965 1.46904 0
M  V30 3792 H 348.264 -3.13246 2.81877 0
M  V30 3793 H 346.939 -2.76681 1.68016 0
M  V30 3794 H 345.846 -1.32856 3.49714 0
M  V30 3795 H 347.179 -1.76637 4.59413 0
M  V30 3796 N 348.832 -1.54138 -0.328536 0
M  V30 3797 C 349.779 -1.83176 -1.40411 0
M  V30 3798 C 350.749 -0.678494 -1.5161 0
M  V30 3799 O 351.934 -0.92443 -1.6691 0
M  V30 3800 C 349.074 -2.06035 -2.76846 0
M  V30 3801 C 348.187 -3.33727 -2.74318 0
M  V30 3802 C 347.322 -3.46574 -4.02567 0
M  V30 3803 C 346.361 -4.68159 -3.94327 0
M  V30 3804 N 345.498 -4.77959 -5.14296 0
M  V30 3805 H 350.338 -2.74938 -1.14948 0
M  V30 3806 H 347.875 -1.36166 -0.556538 0
M  V30 3807 H 349.833 -2.1728 -3.56153 0
M  V30 3808 H 348.463 -1.1757 -3.00628 0
M  V30 3809 H 347.515 -3.31246 -1.8703 0
M  V30 3810 H 348.827 -4.23139 -2.64111 0
M  V30 3811 H 347.981 -3.57333 -4.90304 0
M  V30 3812 H 346.72 -2.55245 -4.15574 0
M  V30 3813 H 345.725 -4.57461 -3.04974 0
M  V30 3814 H 346.95 -5.60868 -3.82889 0
M  V30 3815 H 344.896 -3.89544 -5.27818 0
M  V30 3816 H 344.813 -5.6133 -5.06404 0
M  V30 3817 H 346.081 -4.93044 -6.03761 0
M  V30 3818 N 350.31 0.590341 -1.46126 0
M  V30 3819 C 351.24 1.71032 -1.58966 0
M  V30 3820 C 352.221 1.64302 -0.440335 0
M  V30 3821 O 353.406 1.82436 -0.665634 0
M  V30 3822 C 350.536 3.09665 -1.57241 0
M  V30 3823 C 349.49 3.31221 -2.71066 0
M  V30 3824 C 348.816 4.70303 -2.54399 0
M  V30 3825 C 350.116 3.19796 -4.1295 0
M  V30 3826 H 351.81 1.60543 -2.52718 0
M  V30 3827 H 349.356 0.770933 -1.21625 0
M  V30 3828 H 351.309 3.87831 -1.64819 0
M  V30 3829 H 350.033 3.21036 -0.600289 0
M  V30 3830 H 348.692 2.55452 -2.62944 0
M  V30 3831 H 348.34 4.78429 -1.55288 0
M  V30 3832 H 348.04 4.85679 -3.30741 0
M  V30 3833 H 349.564 5.50647 -2.63857 0
M  V30 3834 H 350.978 3.87815 -4.22223 0
M  V30 3835 H 349.375 3.46696 -4.89818 0
M  V30 3836 H 350.445 2.16983 -4.33643 0
M  V30 3837 N 351.788 1.33704 0.83433 0
M  V30 3838 C 352.735 1.24335 1.94447 0
M  V30 3839 C 353.705 0.120991 1.65659 0
M  V30 3840 O 354.89 0.300035 1.88426 0
M  V30 3841 C 352.03 0.993124 3.30501 0
M  V30 3842 C 351.143 2.20217 3.71657 0
M  V30 3843 C 350.278 1.88572 4.96602 0
M  V30 3844 C 349.317 3.05683 5.30306 0
M  V30 3845 N 348.454 2.73997 6.46429 0
M  V30 3846 H 353.294 2.1928 2.01792 0
M  V30 3847 H 350.831 1.09035 0.987404 0
M  V30 3848 H 352.789 0.828467 4.08892 0
M  V30 3849 H 351.419 0.0803902 3.227 0
M  V30 3850 H 350.471 2.47642 2.88752 0
M  V30 3851 H 351.783 3.07752 3.92543 0
M  V30 3852 H 350.937 1.68776 5.82752 0
M  V30 3853 H 349.676 0.982799 4.77695 0
M  V30 3854 H 348.681 3.26088 4.42659 0
M  V30 3855 H 349.906 3.96737 5.51159 0
M  V30 3856 H 347.852 1.86268 6.28999 0
M  V30 3857 H 347.769 3.55064 6.67432 0
M  V30 3858 H 349.037 2.57679 7.35678 0
M  V30 3859 N 353.266 -1.05314 1.17247 0
M  V30 3860 C 354.543 -1.75184 0.87005 0
M  V30 3861 C 354.923 -2.01481 -0.629965 0
M  V30 3862 O 354.271 -1.64988 -1.58086 0
M  V30 3863 C 354.481 -3.04594 1.70363 0
M  V30 3864 C 355.829 -3.78567 1.92281 0
M  V30 3865 O 356.853 -3.14461 1.67311 0
M  V30 3866 O 355.712 -4.93755 2.3424 0
M  V30 3867 H 352.806 -0.761729 0.322021 0
M  V30 3868 H 355.352 -1.11493 1.27935 0
M  V30 3869 H 354.124 -2.81201 2.72106 0
M  V30 3870 H 353.747 -3.76022 1.29202 0
M  V30 3871 N 354.744 -0.972509 -1.24016 0
M  V30 3872 C 356.155 -0.67517 -1.74064 0
M  V30 3873 C 356.506 0.808939 -1.78747 0
M  V30 3874 O 355.631 1.63286 -1.42009 0
M  V30 3875 C 356.226 -1.21889 -3.16115 0
M  V30 3876 C 354.785 -0.971358 -3.6365 0
M  V30 3877 C 353.932 -1.35134 -2.42145 0
M  V30 3878 H 356.883 -1.14727 -1.09651 0
M  V30 3879 H 356.904 -0.587489 -3.75937 0
M  V30 3880 H 356.416 -2.29906 -3.12674 0
M  V30 3881 H 354.517 0.0930686 -3.72484 0
M  V30 3882 H 354.63 -1.62039 -4.50866 0
M  V30 3883 H 352.994 -0.769751 -2.4279 0
M  V30 3884 H 353.777 -2.4411 -2.41381 0
M  V30 3885 N 356.222 1.38976 -0.743202 0
M  V30 3886 C 357.47 1.99948 -0.29417 0
M  V30 3887 C 357.791 1.59279 1.12495 0
M  V30 3888 O 357.061 0.844808 1.76748 0
M  V30 3889 H 355.641 0.739473 -0.105774 0
M  V30 3890 H 358.303 1.699 -0.954986 0
M  V30 3891 H 357.399 3.10142 -0.349056 0
M  V30 3892 N 357.7 0.491464 1.49741 0
M  V30 3893 C 358.946 -0.0565092 2.02721 0
M  V30 3894 C 359.279 -1.37522 1.37118 0
M  V30 3895 O 358.554 -1.87866 0.503645 0
M  V30 3896 C 358.837 -0.219051 3.59433 0
M  V30 3897 C 358.69 1.12211 4.35579 0
M  V30 3898 C 360.009 -0.964157 4.29409 0
M  V30 3899 H 357.128 -0.0190627 0.736753 0
M  V30 3900 H 359.77 0.641021 1.7886 0
M  V30 3901 H 357.92 -0.813165 3.79895 0
M  V30 3902 H 359.592 1.75437 4.26637 0
M  V30 3903 H 357.835 1.71377 3.98513 0
M  V30 3904 H 358.506 0.961794 5.43556 0
M  V30 3905 H 360.982 -0.460378 4.13545 0
M  V30 3906 H 359.858 -1.04671 5.38828 0
M  V30 3907 H 360.119 -2.00563 3.93988 0
M  V30 3908 N 359.178 -1.55987 0.224894 0
M  V30 3909 C 360.424 -1.99433 -0.39973 0
M  V30 3910 C 360.779 -1.11004 -1.57149 0
M  V30 3911 O 360.072 -0.160725 -1.90925 0
M  V30 3912 C 360.266 -3.46394 -0.880106 0
M  V30 3913 C 360.095 -4.4904 0.243565 0
M  V30 3914 C 358.865 -5.00272 0.711056 0
M  V30 3915 C 361.063 -5.03195 1.06299 0
M  V30 3916 N 359.045 -5.86628 1.80944 0
M  V30 3917 C 360.416 -5.86508 2.01017 0
M  V30 3918 C 362.471 -4.8555 1.10205 0
M  V30 3919 C 361.174 -6.54062 2.99324 0
M  V30 3920 C 363.2 -5.53866 2.07332 0
M  V30 3921 C 362.562 -6.3695 3.00789 0
M  V30 3922 H 358.661 -0.773815 -0.112847 0
M  V30 3923 H 361.245 -1.91754 0.337432 0
M  V30 3924 H 359.416 -3.54515 -1.58662 0
M  V30 3925 H 361.148 -3.76752 -1.47783 0
M  V30 3926 H 357.903 -4.72655 0.29906 0
M  V30 3927 H 358.327 -6.34507 2.36073 0
M  V30 3928 H 362.969 -4.20966 0.39343 0
M  V30 3929 H 360.687 -7.17827 3.71147 0
M  V30 3930 H 364.273 -5.42178 2.11032 0
M  V30 3931 H 363.153 -6.8888 3.74718 0
M  V30 3932 N 360.656 0.0484629 -1.57525 0
M  V30 3933 C 361.905 0.742065 -1.87553 0
M  V30 3934 C 362.218 1.77545 -0.820802 0
M  V30 3935 O 363.424 2.52027 -1.00967 0
M  V30 3936 C 361.88 1.37081 -3.32771 0
M  V30 3937 C 361.488 0.374786 -4.4643 0
M  V30 3938 C 363.232 2.04542 -3.71972 0
M  V30 3939 C 361.139 1.01077 -5.82698 0
M  V30 3940 H 360.069 0.280903 -0.699721 0
M  V30 3941 H 362.72 -0.00411877 -1.835 0
M  V30 3942 H 361.102 2.16605 -3.31509 0
M  V30 3943 H 362.276 -0.392331 -4.59127 0
M  V30 3944 H 360.591 -0.196653 -4.15935 0
M  V30 3945 H 363.188 2.52943 -4.71088 0
M  V30 3946 H 363.531 2.85515 -3.02964 0
M  V30 3947 H 364.064 1.31819 -3.75325 0
M  V30 3948 H 360.803 0.240878 -6.55057 0
M  V30 3949 H 360.323 1.74819 -5.73758 0
M  V30 3950 H 362.002 1.52383 -6.28799 0
M  V30 3951 N 362.134 1.5431 0.320358 0
M  V30 3952 C 363.097 1.83195 1.3774 0
M  V30 3953 C 364.097 0.703906 1.44575 0
M  V30 3954 O 365.287 0.972214 1.44546 0
M  V30 3955 C 362.419 1.99487 2.76438 0
M  V30 3956 H 363.612 2.77642 1.1338 0
M  V30 3957 H 361.165 1.46076 0.556012 0
M  V30 3958 H 361.9 1.07262 3.06048 0
M  V30 3959 H 361.685 2.81575 2.7287 0
M  V30 3960 H 363.175 2.23271 3.52902 0
M  V30 3961 N 363.613 -0.582584 1.46437 0
M  V30 3962 C 364.576 -1.67366 1.56592 0
M  V30 3963 C 365.576 -1.54575 0.443072 0
M  V30 3964 O 366.766 -1.59191 0.707381 0
M  V30 3965 C 363.898 -3.06791 1.48634 0
M  V30 3966 H 365.091 -1.5972 2.5383 0
M  V30 3967 H 362.644 -0.800432 1.34249 0
M  V30 3968 H 363.379 -3.19993 0.526763 0
M  V30 3969 H 363.164 -3.17484 2.30101 0
M  V30 3970 H 364.654 -3.86218 1.58826 0
M  V30 3971 N 365.091 -1.34144 -0.827227 0
M  V30 3972 C 366.337 -1.26446 -1.58554 0
M  V30 3973 C 366.67 0.1664 -1.93486 0
M  V30 3974 O 365.945 1.1107 -1.59667 0
M  V30 3975 C 366.228 -2.15111 -2.8879 0
M  V30 3976 C 366.081 -3.66712 -2.60465 0
M  V30 3977 C 367.4 -2.03311 -3.90324 0
M  V30 3978 H 364.519 -0.46067 -0.575284 0
M  V30 3979 H 367.161 -1.64356 -0.953269 0
M  V30 3980 H 365.311 -1.8291 -3.42748 0
M  V30 3981 H 366.983 -4.09259 -2.1285 0
M  V30 3982 H 365.226 -3.88014 -1.93978 0
M  V30 3983 H 365.897 -4.24112 -3.53317 0
M  V30 3984 H 368.373 -2.31574 -3.45706 0
M  V30 3985 H 367.249 -2.67582 -4.79261 0
M  V30 3986 H 367.51 -1.00879 -4.30437 0
M  V30 3987 N 366.569 1.04691 -1.17803 0
M  V30 3988 C 367.817 1.7743 -0.967617 0
M  V30 3989 C 368.138 1.88359 0.504574 0
M  V30 3990 O 367.408 1.40402 1.36617 0
M  V30 3991 H 365.988 0.657242 -0.355024 0
M  V30 3992 H 368.65 1.2638 -1.48371 0
M  V30 3993 H 367.746 2.78924 -1.40027 0
M  V30 3994 N 368.047 0.979072 1.23499 0
M  V30 3995 C 368.979 0.476271 2.24197 0
M  V30 3996 C 369.992 -0.421166 1.57258 0
M  V30 3997 O 371.181 -0.225515 1.7707 0
M  V30 3998 C 368.281 -0.330503 3.37285 0
M  V30 3999 C 367.454 0.559744 4.33804 0
M  V30 4000 C 366.513 -0.192954 5.25846 0
M  V30 4001 O 365.539 0.416978 5.67671 0
M  V30 4002 N 366.741 -1.47932 5.61334 0
M  V30 4003 H 369.506 1.34211 2.67969 0
M  V30 4004 H 367.067 0.852189 1.37657 0
M  V30 4005 H 369.059 -0.842361 3.95836 0
M  V30 4006 H 367.629 -1.09734 2.92707 0
M  V30 4007 H 366.849 1.25245 3.73775 0
M  V30 4008 H 368.137 1.1665 4.95248 0
M  V30 4009 H 367.535 -1.9964 5.29302 0
M  V30 4010 H 366.092 -1.93664 6.22364 0
M  V30 4011 N 369.525 -1.3858 0.750561 0
M  V30 4012 C 370.774 -1.99424 0.302172 0
M  V30 4013 C 371.087 -1.60254 -1.12152 0
M  V30 4014 O 372.293 -2.14046 -1.67023 0
M  V30 4015 C 370.749 -3.56558 0.489307 0
M  V30 4016 C 370.357 -4.04682 1.92189 0
M  V30 4017 C 372.101 -4.24374 0.103478 0
M  V30 4018 C 370.008 -5.54446 2.05775 0
M  V30 4019 H 368.938 -0.746046 0.10923 0
M  V30 4020 H 371.589 -1.58383 0.92667 0
M  V30 4021 H 369.971 -3.95472 -0.204329 0
M  V30 4022 H 371.145 -3.77065 2.64875 0
M  V30 4023 H 369.46 -3.4958 2.26236 0
M  V30 4024 H 372.057 -5.34384 0.183787 0
M  V30 4025 H 372.4 -4.05468 -0.943481 0
M  V30 4026 H 372.933 -3.90688 0.748854 0
M  V30 4027 H 369.672 -5.78252 3.08714 0
M  V30 4028 H 369.192 -5.83816 1.37546 0
M  V30 4029 H 370.871 -6.20099 1.84626 0
M  V30 4030 N 371.003 -0.499398 -1.49478 0
M  V30 4031 C 372.25 0.0456899 -2.02448 0
M  V30 4032 C 372.578 1.37142 -1.37921 0
M  V30 4033 O 371.833 1.89111 -0.503544 0
M  V30 4034 C 372.132 0.248424 -3.56536 0
M  V30 4035 C 371.798 -0.999107 -4.39692 0
M  V30 4036 C 370.46 -1.34108 -4.62135 0
M  V30 4037 C 372.812 -1.82842 -4.88076 0
M  V30 4038 C 370.14 -2.51191 -5.30208 0
M  V30 4039 C 372.492 -2.99076 -5.57437 0
M  V30 4040 C 371.156 -3.33655 -5.78127 0
M  V30 4041 H 370.426 0.0167191 -0.740811 0
M  V30 4042 H 373.073 -0.65923 -1.79795 0
M  V30 4043 H 371.378 1.03586 -3.77859 0
M  V30 4044 H 373.075 0.684605 -3.95113 0
M  V30 4045 H 369.665 -0.722729 -4.22463 0
M  V30 4046 H 373.849 -1.57737 -4.70566 0
M  V30 4047 H 369.105 -2.78221 -5.44429 0
M  V30 4048 H 373.279 -3.63664 -5.93904 0
M  V30 4049 H 370.906 -4.24483 -6.30649 0
M  V30 4050 N 372.481 1.55866 -0.233164 0
M  V30 4051 C 373.728 1.98603 0.395374 0
M  V30 4052 C 374.056 1.12105 1.58942 0
M  V30 4053 O 373.311 0.168656 1.94972 0
M  V30 4054 C 373.61 3.46856 0.861724 0
M  V30 4055 C 373.276 4.50348 -0.223066 0
M  V30 4056 C 371.938 4.78371 -0.521038 0
M  V30 4057 C 374.29 5.12355 -0.956124 0
M  V30 4058 C 371.618 5.6568 -1.55638 0
M  V30 4059 C 373.97 6.00786 -1.98089 0
M  V30 4060 C 372.634 6.27148 -2.28565 0
M  V30 4061 H 371.904 0.726739 0.144677 0
M  V30 4062 H 374.551 1.88491 -0.338114 0
M  V30 4063 H 372.856 3.5423 1.67418 0
M  V30 4064 H 374.553 3.77302 1.35809 0
M  V30 4065 H 371.143 4.28596 0.0193234 0
M  V30 4066 H 375.327 4.90765 -0.739166 0
M  V30 4067 H 370.583 5.84365 -1.798 0
M  V30 4068 H 374.757 6.4788 -2.55391 0
M  V30 4069 H 372.384 6.94597 -3.08932 0
M  V30 4070 N 373.959 -0.0401083 1.57549 0
M  V30 4071 C 375.187 -0.745196 1.93014 0
M  V30 4072 C 375.602 -1.6948 0.831984 0
M  V30 4073 O 374.959 -1.81482 -0.192463 0
M  V30 4074 C 375.01 -1.51176 3.28372 0
M  V30 4075 O 374.731 -0.600284 4.33968 0
M  V30 4076 C 376.232 -2.315 3.78051 0
M  V30 4077 H 373.452 -0.210088 0.637263 0
M  V30 4078 H 375.996 -0.000924689 2.045 0
M  V30 4079 H 374.151 -2.20801 3.18317 0
M  V30 4080 H 374.565 -1.13669 5.12035 0
M  V30 4081 H 376.039 -2.80697 4.75303 0
M  V30 4082 H 376.516 -3.12436 3.08675 0
M  V30 4083 H 377.122 -1.66971 3.91153 0
M  V30 4084 N 375.437 -1.54477 -0.31217 0
M  V30 4085 C 376.367 -1.87652 -1.38957 0
M  V30 4086 C 377.348 -0.734358 -1.53431 0
M  V30 4087 O 378.533 -0.98911 -1.67123 0
M  V30 4088 C 375.663 -2.11396 -2.75552 0
M  V30 4089 C 374.617 -3.27243 -2.75855 0
M  V30 4090 C 373.943 -3.36382 -4.15633 0
M  V30 4091 C 375.243 -4.64622 -2.38587 0
M  V30 4092 H 376.937 -2.77887 -1.11442 0
M  V30 4093 H 374.483 -1.33707 -0.534655 0
M  V30 4094 H 376.436 -2.33189 -3.51 0
M  V30 4095 H 375.16 -1.17921 -3.04569 0
M  V30 4096 H 373.819 -3.05356 -2.02863 0
M  V30 4097 H 373.467 -2.40445 -4.41809 0
M  V30 4098 H 373.167 -4.14249 -4.1674 0
M  V30 4099 H 374.691 -3.60422 -4.92877 0
M  V30 4100 H 376.105 -4.86219 -3.03749 0
M  V30 4101 H 374.502 -5.45121 -2.50925 0
M  V30 4102 H 375.572 -4.66097 -1.33723 0
M  V30 4103 N 376.915 0.57481 -1.46744 0
M  V30 4104 C 378.14 1.36341 -1.56288 0
M  V30 4105 C 378.565 1.86954 -0.207347 0
M  V30 4106 O 377.923 1.62006 0.813871 0
M  V30 4107 C 377.971 2.52147 -2.57787 0
M  V30 4108 O 377.075 3.53834 -2.11838 0
M  V30 4109 H 376.416 0.405713 -0.525636 0
M  V30 4110 H 378.946 0.696453 -1.92382 0
M  V30 4111 H 378.956 2.98958 -2.77648 0
M  V30 4112 H 377.631 2.14663 -3.5622 0
M  V30 4113 H 376.208 3.1345 -2.01999 0
M  V30 4114 N 378.394 1.34581 0.820102 0
M  V30 4115 C 379.324 1.29038 1.94606 0
M  V30 4116 C 380.305 0.1673 1.69275 0
M  V30 4117 O 381.49 0.360112 1.90832 0
M  V30 4118 C 378.62 1.04793 3.31113 0
M  V30 4119 C 377.574 2.13597 3.70891 0
M  V30 4120 C 376.9 1.74537 5.05412 0
M  V30 4121 C 378.2 3.55451 3.8269 0
M  V30 4122 H 379.894 2.23248 1.99501 0
M  V30 4123 H 377.44 1.0747 0.958449 0
M  V30 4124 H 379.393 0.995592 4.0947 0
M  V30 4125 H 378.117 0.0702565 3.26524 0
M  V30 4126 H 376.776 2.17905 2.9481 0
M  V30 4127 H 376.424 0.754226 4.97313 0
M  V30 4128 H 376.124 2.47361 5.32997 0
M  V30 4129 H 377.648 1.70803 5.86224 0
M  V30 4130 H 379.062 3.5354 4.51312 0
M  V30 4131 H 377.459 4.26922 4.21732 0
M  V30 4132 H 378.529 3.92587 2.84611 0
M  V30 4133 N 379.872 -1.04064 1.18357 0
M  V30 4134 C 381.12 -1.76915 0.977013 0
M  V30 4135 C 381.441 -1.88624 -0.494577 0
M  V30 4136 O 380.711 -1.41125 -1.3587 0
M  V30 4137 H 379.291 -0.65535 0.358504 0
M  V30 4138 H 381.953 -1.25592 1.49039 0
M  V30 4139 H 381.049 -2.78178 1.41504 0
M  V30 4140 N 381.35 -0.985608 -1.22978 0
M  V30 4141 C 382.597 -0.657386 -1.91532 0
M  V30 4142 C 382.925 0.809707 -1.76845 0
M  V30 4143 O 382.18 1.60021 -1.12658 0
M  V30 4144 C 382.479 -1.00014 -3.43121 0
M  V30 4145 C 382.145 -2.4583 -3.77993 0
M  V30 4146 C 380.807 -2.85679 -3.87222 0
M  V30 4147 C 383.159 -3.40378 -3.94705 0
M  V30 4148 C 380.487 -4.19081 -4.10595 0
M  V30 4149 C 382.839 -4.73429 -4.1958 0
M  V30 4150 C 381.503 -5.1303 -4.27032 0
M  V30 4151 H 380.773 -0.240555 -0.700867 0
M  V30 4152 H 383.42 -1.24044 -1.45895 0
M  V30 4153 H 381.725 -0.335072 -3.90365 0
M  V30 4154 H 383.422 -0.724322 -3.94404 0
M  V30 4155 H 380.012 -2.13939 -3.71387 0
M  V30 4156 H 384.196 -3.10766 -3.8696 0
M  V30 4157 H 379.452 -4.49362 -4.14589 0
M  V30 4158 H 383.626 -5.46644 -4.31455 0
M  V30 4159 H 381.253 -6.16418 -4.44896 0
M  V30 4160 N 382.828 1.3818 -0.7579 0
M  V30 4161 C 384.076 1.99624 -0.315361 0
M  V30 4162 C 384.397 1.60464 1.10799 0
M  V30 4163 O 383.667 0.863507 1.75842 0
M  V30 4164 H 382.247 0.73831 -0.113611 0
M  V30 4165 H 384.909 1.68878 -0.972952 0
M  V30 4166 H 384.005 3.09754 -0.381931 0
M  V30 4167 N 384.306 0.507319 1.49211 0
M  V30 4168 C 385.269 -0.256763 2.27757 0
M  V30 4169 C 386.269 -0.888287 1.34038 0
M  V30 4170 O 387.459 -0.751841 1.5714 0
M  V30 4171 C 384.591 -1.36905 3.12202 0
M  V30 4172 H 385.784 0.432557 2.96764 0
M  V30 4173 H 383.337 0.262488 1.5408 0
M  V30 4174 H 384.072 -2.09233 2.47775 0
M  V30 4175 H 383.857 -0.921599 3.81115 0
M  V30 4176 H 385.347 -1.9071 3.7151 0
M  V30 4177 N 385.784 -1.5574 0.241426 0
M  V30 4178 C 387.033 -1.97986 -0.385295 0
M  V30 4179 C 387.346 -1.13267 -1.59468 0
M  V30 4180 O 388.552 -1.45501 -2.2922 0
M  V30 4181 C 387.008 -3.52275 -0.736884 0
M  V30 4182 C 386.616 -4.45726 0.450796 0
M  V30 4183 C 388.36 -4.03189 -1.3281 0
M  V30 4184 C 386.267 -5.91352 0.0756662 0
M  V30 4185 H 385.197 -0.739386 -0.147731 0
M  V30 4186 H 387.848 -1.80308 0.340779 0
M  V30 4187 H 386.23 -3.65628 -1.52094 0
M  V30 4188 H 387.404 -4.44131 1.22819 0
M  V30 4189 H 385.719 -4.05264 0.956573 0
M  V30 4190 H 388.316 -5.09505 -1.62201 0
M  V30 4191 H 388.659 -3.50212 -2.25071 0
M  V30 4192 H 389.192 -3.93141 -0.607069 0
M  V30 4193 H 385.931 -6.48354 0.965272 0
M  V30 4194 H 385.451 -5.96095 -0.665635 0
M  V30 4195 H 387.13 -6.46084 -0.344075 0
M  V30 4196 N 387.262 0.0317525 -1.57568 0
M  V30 4197 C 388.511 0.722131 -1.8833 0
M  V30 4198 C 388.824 1.76664 -0.839587 0
M  V30 4199 O 390.03 2.50942 -1.03635 0
M  V30 4200 C 388.486 1.33544 -3.34207 0
M  V30 4201 C 388.094 0.327415 -4.46802 0
M  V30 4202 C 389.838 2.00585 -3.7412 0
M  V30 4203 C 387.745 0.948915 -5.83738 0
M  V30 4204 H 386.675 0.273466 -0.702661 0
M  V30 4205 H 389.326 -0.0235811 -1.83485 0
M  V30 4206 H 387.708 2.13077 -3.33788 0
M  V30 4207 H 388.882 -0.441006 -4.58685 0
M  V30 4208 H 387.197 -0.240758 -4.15703 0
M  V30 4209 H 389.794 2.47932 -4.73744 0
M  V30 4210 H 390.137 2.82285 -3.05975 0
M  V30 4211 H 390.67 1.27831 -3.76702 0
M  V30 4212 H 387.409 0.171387 -6.55276 0
M  V30 4213 H 386.929 1.68724 -5.7558 0
M  V30 4214 H 388.608 1.45705 -6.3038 0
M  V30 4215 N 388.74 1.54641 0.303973 0
M  V30 4216 C 389.968 1.77768 1.05858 0
M  V30 4217 C 390.383 0.535722 1.8104 0
M  V30 4218 O 389.74 -0.494337 1.75677 0
M  V30 4219 C 389.791 2.9834 2.04146 0
M  V30 4220 O 389.512 4.17736 1.32015 0
M  V30 4221 C 391.013 3.33832 2.91669 0
M  V30 4222 H 388.233 0.592961 0.314067 0
M  V30 4223 H 390.777 2.01583 0.344149 0
M  V30 4224 H 388.932 2.76742 2.71096 0
M  V30 4225 H 389.346 4.85693 1.97998 0
M  V30 4226 H 390.82 4.21448 3.56491 0
M  V30 4227 H 391.297 2.51857 3.59812 0
M  V30 4228 H 391.903 3.57579 2.30254 0
M  V30 4229 N 390.218 -0.567019 1.47046 0
M  V30 4230 C 391.448 -1.34831 1.56538 0
M  V30 4231 C 391.856 -1.8802 0.21101 0
M  V30 4232 O 391.199 -1.65152 -0.804387 0
M  V30 4233 C 391.261 -2.56139 2.52256 0
M  V30 4234 C 390.925 -2.24307 3.98165 0
M  V30 4235 C 391.922 -1.82192 4.86931 0
M  V30 4236 C 389.607 -2.35968 4.43423 0
M  V30 4237 C 391.601 -1.52153 6.18973 0
M  V30 4238 C 389.288 -2.05542 5.75496 0
M  V30 4239 C 390.286 -1.63701 6.63092 0
M  V30 4240 O 389.974 -1.33657 7.92711 0
M  V30 4241 H 389.706 -0.417683 0.531523 0
M  V30 4242 H 392.26 -0.694726 1.93294 0
M  V30 4243 H 390.49 -3.24356 2.10548 0
M  V30 4244 H 392.179 -3.18214 2.51982 0
M  V30 4245 H 392.945 -1.72684 4.53217 0
M  V30 4246 H 388.824 -2.67495 3.75456 0
M  V30 4247 H 392.368 -1.19421 6.87302 0
M  V30 4248 H 388.265 -2.14679 6.08755 0
M  V30 4249 H 389.033 -1.4737 8.05124 0
M  V30 4250 N 391.696 -1.35014 -0.812953 0
M  V30 4251 C 392.659 -1.27292 -1.90602 0
M  V30 4252 C 393.659 -0.185817 -1.59723 0
M  V30 4253 O 394.849 -0.439102 -1.68575 0
M  V30 4254 C 391.981 -0.967676 -3.26877 0
M  V30 4255 H 393.174 -2.24479 -1.9887 0
M  V30 4256 H 390.727 -1.19446 -1.00808 0
M  V30 4257 H 391.462 0.0005954 -3.243 0
M  V30 4258 H 391.247 -1.75412 -3.50675 0
M  V30 4259 H 392.737 -0.939085 -4.06904 0
M  V30 4260 N 393.175 1.03435 -1.18907 0
M  V30 4261 C 394.4 1.80919 -1.01406 0
M  V30 4262 C 394.825 1.83055 0.432721 0
M  V30 4263 O 394.183 1.25252 1.31079 0
M  V30 4264 C 394.231 3.24091 -1.58105 0
M  V30 4265 O 393.335 4.04434 -0.806669 0
M  V30 4266 H 392.676 0.558709 -0.358803 0
M  V30 4267 H 395.206 1.30223 -1.57807 0
M  V30 4268 H 395.216 3.74853 -1.61087 0
M  V30 4269 H 393.891 3.21851 -2.6341 0
M  V30 4270 H 392.468 3.63091 -0.849666 0
M  V30 4271 N 394.653 0.992116 1.22453 0
M  V30 4272 C 395.883 0.684949 1.94915 0
M  V30 4273 C 396.291 -0.754292 1.73514 0
M  V30 4274 O 395.634 -1.52056 1.03076 0
M  V30 4275 C 395.696 0.910054 3.47791 0
M  V30 4276 C 395.36 2.33363 3.92926 0
M  V30 4277 C 396.357 3.31308 4.00663 0
M  V30 4278 C 394.042 2.66785 4.25595 0
M  V30 4279 C 396.036 4.6075 4.40441 0
M  V30 4280 C 393.723 3.96446 4.65053 0
M  V30 4281 C 394.721 4.9324 4.72444 0
M  V30 4282 O 394.409 6.20584 5.1101 0
M  V30 4283 H 394.141 0.25258 0.62704 0
M  V30 4284 H 396.695 1.32939 1.56577 0
M  V30 4285 H 394.925 0.208443 3.86138 0
M  V30 4286 H 396.614 0.598257 4.01467 0
M  V30 4287 H 397.38 3.0682 3.75615 0
M  V30 4288 H 393.259 1.92148 4.19047 0
M  V30 4289 H 396.803 5.363 4.46126 0
M  V30 4290 H 392.7 4.20724 4.89552 0
M  V30 4291 H 393.468 6.24509 5.29085 0
M  V30 4292 N 396.131 -1.37776 0.765217 0
M  V30 4293 C 397.377 -2.00145 0.327072 0
M  V30 4294 C 397.71 -1.60607 -1.09175 0
M  V30 4295 O 396.985 -0.849127 -1.74986 0
M  V30 4296 C 397.268 -3.57109 0.46319 0
M  V30 4297 C 397.121 -4.06576 1.92395 0
M  V30 4298 C 398.44 -4.39888 -0.136473 0
M  V30 4299 H 395.559 -0.727113 0.120316 0
M  V30 4300 H 398.201 -1.63549 0.967039 0
M  V30 4301 H 396.351 -3.88414 -0.0816358 0
M  V30 4302 H 398.023 -3.85864 2.52798 0
M  V30 4303 H 396.266 -3.59011 2.43503 0
M  V30 4304 H 396.937 -5.15639 1.97028 0
M  V30 4305 H 399.413 -4.14803 0.328317 0
M  V30 4306 H 398.289 -5.48899 -0.0110582 0
M  V30 4307 H 398.55 -4.24758 -1.22608 0
M  V30 4308 N 397.609 -0.515225 -1.4894 0
M  V30 4309 C 399.025 -0.172099 -1.58669 0
M  V30 4310 C 399.225 1.32405 -1.51892 0
M  V30 4311 O 398.281 2.10116 -1.40027 0
M  V30 4312 C 399.594 -0.761533 -2.90897 0
M  V30 4313 C 401.142 -0.728926 -3.04394 0
M  V30 4314 C 401.617 -1.29667 -4.39261 0
M  V30 4315 N 403.108 -1.25799 -4.4579 0
M  V30 4316 C 403.843 -1.66733 -5.48623 0
M  V30 4317 N 403.339 -2.15327 -6.58488 0
M  V30 4318 N 405.132 -1.58061 -5.39419 0
M  V30 4319 H 397.283 -1.48778 -1.51588 0
M  V30 4320 H 399.546 -0.617968 -0.718901 0
M  V30 4321 H 399.252 -1.81136 -3.01468 0
M  V30 4322 H 399.126 -0.230106 -3.76497 0
M  V30 4323 H 401.513 0.312098 -2.93445 0
M  V30 4324 H 401.594 -1.29766 -2.20442 0
M  V30 4325 H 401.238 -2.33655 -4.50963 0
M  V30 4326 H 401.168 -0.703752 -5.21876 0
M  V30 4327 H 403.659 -0.902102 -3.66975 0
M  V30 4328 H 403.972 -2.44594 -7.33071 0
M  V30 4329 H 402.317 -2.19311 -6.59491 0
M  V30 4330 H 405.508 -1.19906 -4.52482 0
M  V30 4331 H 405.681 -1.90284 -6.19432 0
M  V30 4332 N 399.087 1.5561 -0.249682 0
M  V30 4333 C 400.034 2.21496 0.648694 0
M  V30 4334 C 401.004 1.17977 1.16921 0
M  V30 4335 O 402.189 1.46434 1.22318 0
M  V30 4336 C 399.329 2.92039 1.83868 0
M  V30 4337 C 398.442 4.10219 1.35442 0
M  V30 4338 C 397.577 4.6847 2.50419 0
M  V30 4339 C 396.616 5.78893 1.98869 0
M  V30 4340 N 395.753 6.31315 3.07223 0
M  V30 4341 H 400.593 2.97892 0.0801582 0
M  V30 4342 H 398.13 1.47074 0.0278031 0
M  V30 4343 H 400.088 3.31138 2.53778 0
M  V30 4344 H 398.718 2.18111 2.37965 0
M  V30 4345 H 397.77 3.76413 0.54928 0
M  V30 4346 H 399.082 4.89927 0.936649 0
M  V30 4347 H 398.236 5.10158 3.28366 0
M  V30 4348 H 396.975 3.87984 2.95499 0
M  V30 4349 H 395.98 5.3668 1.19393 0
M  V30 4350 H 397.205 6.61232 1.54755 0
M  V30 4351 H 395.151 5.53733 3.51732 0
M  V30 4352 H 395.068 7.06224 2.69784 0
M  V30 4353 H 396.336 6.77662 3.8522 0
M  V30 4354 N 400.565 -0.0233959 1.57583 0
M  V30 4355 C 401.842 -0.748794 1.807 0
M  V30 4356 C 402.222 -1.9327 0.849106 0
M  V30 4357 O 401.57 -2.28247 -0.107468 0
M  V30 4358 C 401.78 -1.17651 3.28571 0
M  V30 4359 C 403.128 -1.59008 3.93702 0
M  V30 4360 O 404.152 -1.27094 3.32755 0
M  V30 4361 O 403.011 -2.18264 5.01022 0
M  V30 4362 H 400.105 -0.362578 0.743281 0
M  V30 4363 H 402.651 0.000261958 1.697 0
M  V30 4364 H 401.423 -0.331603 3.89892 0
M  V30 4365 H 401.046 -1.98541 3.44481 0
M  V30 4366 N 402.043 -1.548 -0.295768 0
M  V30 4367 C 402.975 -1.82492 -1.3867 0
M  V30 4368 C 403.988 -0.708134 -1.46592 0
M  V30 4369 O 405.177 -0.985686 -1.48817 0
M  V30 4370 C 402.277 -1.95256 -2.76999 0
M  V30 4371 C 401.45 -3.25709 -2.91946 0
M  V30 4372 C 400.509 -3.28824 -4.10806 0
M  V30 4373 O 399.535 -4.02328 -4.02643 0
M  V30 4374 N 400.737 -2.5459 -5.21694 0
M  V30 4375 H 403.502 -2.76646 -1.15269 0
M  V30 4376 H 401.063 -1.54438 -0.485849 0
M  V30 4377 H 403.055 -1.94736 -3.54768 0
M  V30 4378 H 401.625 -1.08072 -2.93324 0
M  V30 4379 H 400.845 -3.38959 -2.01247 0
M  V30 4380 H 402.133 -4.11786 -2.98847 0
M  V30 4381 H 401.531 -1.94512 -5.31208 0
M  V30 4382 H 400.088 -2.59818 -5.97778 0
M  V30 4383 N 403.521 0.559213 -1.47345 0
M  V30 4384 C 404.798 1.31997 -1.44348 0
M  V30 4385 C 405.178 2.1064 -0.139358 0
M  V30 4386 O 404.526 2.1091 0.879153 0
M  V30 4387 C 404.736 2.22618 -2.68779 0
M  V30 4388 C 406.084 2.83701 -3.1591 0
M  V30 4389 O 407.108 2.32921 -2.69493 0
M  V30 4390 O 405.967 3.75993 -3.966 0
M  V30 4391 H 403.061 0.594251 -0.575147 0
M  V30 4392 H 405.607 0.578282 -1.59543 0
M  V30 4393 H 404.379 1.64093 -3.55231 0
M  V30 4394 H 404.002 3.04085 -2.5616 0
M  V30 4395 N 404.999 1.35443 0.805782 0
M  V30 4396 C 406.248 1.28097 1.55801 0
M  V30 4397 C 406.561 -0.142428 1.95081 0
M  V30 4398 O 407.767 -0.33817 2.69386 0
M  V30 4399 C 406.223 2.24653 2.81174 0
M  V30 4400 C 405.831 3.72342 2.49129 0
M  V30 4401 C 407.575 2.2625 3.59181 0
M  V30 4402 C 405.482 4.60719 3.70799 0
M  V30 4403 H 404.412 0.475937 0.584808 0
M  V30 4404 H 407.063 1.60712 0.885661 0
M  V30 4405 H 405.445 1.85011 3.50124 0
M  V30 4406 H 406.619 4.20624 1.88181 0
M  V30 4407 H 404.934 3.73361 1.84366 0
M  V30 4408 H 407.531 2.89495 4.49552 0
M  V30 4409 H 407.874 1.26647 3.96568 0
M  V30 4410 H 408.407 2.64426 2.97193 0
M  V30 4411 H 405.146 5.61324 3.3852 0
M  V30 4412 H 404.666 4.17163 4.3097 0
M  V30 4413 H 406.345 4.76182 4.38018 0
M  V30 4414 N 406.477 -1.02803 1.19454 0
M  V30 4415 C 407.723 -1.76478 0.999171 0
M  V30 4416 C 408.056 -1.88456 -0.468828 0
M  V30 4417 O 407.331 -1.40198 -1.34814 0
M  V30 4418 C 407.614 -3.19044 1.66981 0
M  V30 4419 C 407.467 -3.14932 3.21151 0
M  V30 4420 C 408.786 -4.17456 1.39349 0
M  V30 4421 H 405.905 -0.640614 0.364393 0
M  V30 4422 H 408.547 -1.20005 1.47305 0
M  V30 4423 H 406.697 -3.67263 1.2669 0
M  V30 4424 H 408.369 -2.74605 3.70661 0
M  V30 4425 H 406.612 -2.52625 3.52652 0
M  V30 4426 H 407.283 -4.1566 3.63223 0
M  V30 4427 H 409.759 -3.77842 1.74283 0
M  V30 4428 H 408.635 -5.154 1.88823 0
M  V30 4429 H 408.896 -4.40949 0.318813 0
M  V30 4430 N 407.956 -0.998596 -1.21925 0
M  V30 4431 C 408.886 -0.573688 -2.26343 0
M  V30 4432 C 409.867 0.402296 -1.65274 0
M  V30 4433 O 411.052 0.291683 -1.91997 0
M  V30 4434 C 408.182 0.106839 -3.47136 0
M  V30 4435 C 407.136 -0.788269 -4.20678 0
M  V30 4436 C 406.462 0.0254927 -5.34694 0
M  V30 4437 C 407.762 -2.08784 -4.78755 0
M  V30 4438 H 409.456 -1.44651 -2.62138 0
M  V30 4439 H 407.002 -0.696975 -1.26009 0
M  V30 4440 H 408.955 0.415531 -4.19346 0
M  V30 4441 H 407.679 1.01424 -3.10452 0
M  V30 4442 H 406.338 -1.08069 -3.50309 0
M  V30 4443 H 405.986 0.933989 -4.94253 0
M  V30 4444 H 405.686 -0.570437 -5.84825 0
M  V30 4445 H 407.21 0.328147 -6.09718 0
M  V30 4446 H 408.624 -1.84272 -5.42878 0
M  V30 4447 H 407.021 -2.63307 -5.39249 0
M  V30 4448 H 408.091 -2.76284 -3.98491 0
M  V30 4449 N 409.434 1.37368 -0.772513 0
M  V30 4450 C 410.659 2.0447 -0.347386 0
M  V30 4451 C 411.084 1.57882 1.0225 0
M  V30 4452 O 410.442 0.73941 1.65537 0
M  V30 4453 C 410.49 3.58369 -0.400479 0
M  V30 4454 O 409.594 4.0803 0.598789 0
M  V30 4455 H 408.935 0.646773 -0.15027 0
M  V30 4456 H 411.465 1.75667 -1.04892 0
M  V30 4457 H 411.475 4.07183 -0.258045 0
M  V30 4458 H 410.15 3.91633 -1.39986 0
M  V30 4459 H 408.727 3.70534 0.419411 0
M  V30 4460 N 410.912 0.523116 1.48665 0
M  V30 4461 C 412.16 -0.0134497 2.02096 0
M  V30 4462 C 412.481 -1.35418 1.40311 0
M  V30 4463 O 411.751 -1.87543 0.566074 0
M  V30 4464 H 410.331 -0.00795915 0.746958 0
M  V30 4465 H 412.993 0.685388 1.82451 0
M  V30 4466 H 412.089 -0.126849 3.11842 0
M  V30 4467 N 412.39 -1.55475 0.257931 0
M  V30 4468 C 413.32 -2.24815 -0.630912 0
M  V30 4469 C 414.301 -1.23224 -1.17259 0
M  V30 4470 O 415.486 -1.51904 -1.20991 0
M  V30 4471 C 412.616 -2.95609 -1.82298 0
M  V30 4472 C 411.57 -4.03982 -1.41359 0
M  V30 4473 C 410.896 -4.6226 -2.68738 0
M  V30 4474 C 412.196 -5.19109 -0.57648 0
M  V30 4475 H 413.89 -2.99354 -0.0526878 0
M  V30 4476 H 411.436 -1.4398 -0.023901 0
M  V30 4477 H 413.389 -3.42822 -2.45054 0
M  V30 4478 H 412.113 -2.18577 -2.42676 0
M  V30 4479 H 410.772 -3.57555 -0.809324 0
M  V30 4480 H 410.42 -3.81915 -3.27338 0
M  V30 4481 H 410.12 -5.35424 -2.42065 0
M  V30 4482 H 411.644 -5.12212 -3.32372 0
M  V30 4483 H 413.058 -5.62479 -1.10861 0
M  V30 4484 H 411.455 -5.98729 -0.405351 0
M  V30 4485 H 412.525 -4.83174 0.408776 0
M  V30 4486 N 413.868 0.0150385 -1.57593 0
M  V30 4487 C 415.096 0.714395 -1.94175 0
M  V30 4488 C 415.511 1.68135 -0.858841 0
M  V30 4489 O 414.868 1.81766 0.163567 0
M  V30 4490 C 414.919 1.45933 -3.30735 0
M  V30 4491 O 414.64 0.531167 -4.34868 0
M  V30 4492 C 416.141 2.25456 -3.81686 0
M  V30 4493 H 413.361 0.199923 -0.640525 0
M  V30 4494 H 415.905 -0.0316096 -2.04476 0
M  V30 4495 H 414.06 2.15709 -3.21789 0
M  V30 4496 H 414.474 1.05509 -5.13778 0
M  V30 4497 H 415.948 2.731 -4.79709 0
M  V30 4498 H 416.425 3.07485 -3.13607 0
M  V30 4499 H 417.031 1.60727 -3.9376 0
M  V30 4500 N 415.346 1.54954 0.287554 0
M  V30 4501 C 416.309 1.86076 1.33823 0
M  V30 4502 C 417.309 0.734414 1.43049 0
M  V30 4503 O 418.499 1.00266 1.42452 0
M  V30 4504 C 415.631 2.05305 2.72144 0
M  V30 4505 H 416.824 2.79984 1.07465 0
M  V30 4506 H 414.377 1.47223 0.524902 0
M  V30 4507 H 415.112 1.1373 3.03704 0
M  V30 4508 H 414.897 2.873 2.66836 0
M  V30 4509 H 416.387 2.30706 3.48087 0
M  V30 4510 N 416.824 -0.551391 1.4764 0
M  V30 4511 C 417.787 -1.64007 1.60107 0
M  V30 4512 C 418.787 -1.53601 0.47576 0
M  V30 4513 O 419.977 -1.57655 0.740988 0
M  V30 4514 C 417.109 -3.03569 1.55108 0
M  V30 4515 H 418.302 -1.543 2.57161 0
M  V30 4516 H 415.855 -0.771776 1.35917 0
M  V30 4517 H 416.59 -3.18804 0.594519 0
M  V30 4518 H 416.375 -3.12532 2.36783 0
M  V30 4519 H 417.865 -3.82762 1.66982 0
M  V30 4520 N 418.302 -1.35869 -0.798587 0
M  V30 4521 C 419.53 -1.32722 -1.58722 0
M  V30 4522 C 419.945 0.0935631 -1.88568 0
M  V30 4523 O 419.302 1.04784 -1.49421 0
M  V30 4524 C 419.353 -2.13974 -2.91371 0
M  V30 4525 O 419.074 -3.50514 -2.62815 0
M  V30 4526 C 420.575 -2.18504 -3.85708 0
M  V30 4527 H 417.795 -0.45562 -0.492596 0
M  V30 4528 H 420.339 -1.78837 -0.991843 0
M  V30 4529 H 418.494 -1.71438 -3.47402 0
M  V30 4530 H 418.908 -3.92806 -3.47568 0
M  V30 4531 H 420.382 -2.79732 -4.75872 0
M  V30 4532 H 420.859 -1.18597 -4.22885 0
M  V30 4533 H 421.465 -2.61236 -3.35612 0
M  V30 4534 N 419.78 1.02168 -1.19998 0
M  V30 4535 C 420.71 2.12488 -0.96804 0
M  V30 4536 C 421.691 1.69799 0.101185 0
M  V30 4537 O 422.876 1.94121 -0.0552993 0
M  V30 4538 C 420.006 3.43479 -0.513776 0
M  V30 4539 C 418.96 3.99884 -1.52566 0
M  V30 4540 C 418.286 5.26582 -0.928214 0
M  V30 4541 C 419.586 4.33861 -2.90795 0
M  V30 4542 H 421.28 2.32149 -1.89069 0
M  V30 4543 H 418.826 1.11564 -0.910468 0
M  V30 4544 H 420.779 4.20036 -0.338774 0
M  V30 4545 H 419.503 3.23561 0.444493 0
M  V30 4546 H 418.162 3.25429 -1.68794 0
M  V30 4547 H 417.81 5.02986 0.0378289 0
M  V30 4548 H 417.51 5.65284 -1.60397 0
M  V30 4549 H 419.034 6.05799 -0.764167 0
M  V30 4550 H 420.448 5.01327 -2.78109 0
M  V30 4551 H 418.845 4.83664 -3.55231 0
M  V30 4552 H 419.915 3.42848 -3.42904 0
M  V30 4553 N 421.258 1.00505 1.21394 0
M  V30 4554 C 422.206 0.558623 2.25792 0
M  V30 4555 C 423.2 -0.396848 1.64686 0
M  V30 4556 O 424.406 -0.268035 1.77993 0
M  V30 4557 H 420.781 0.1623 0.734277 0
M  V30 4558 H 422.752 1.4503 2.60785 0
M  V30 4559 C 421.501 -0.0989574 3.47559 0
M  V30 4560 H 420.824 0.627225 3.94849 0
M  V30 4561 H 422.264 -0.3746 4.22342 0
M  V30 4562 C 420.723 -1.33817 3.09184 0
M  V30 4563 O 421.253 -2.43252 3.19674 0
M  V30 4564 N 419.459 -1.21793 2.63846 0
M  V30 4565 H 419.006 -0.32746 2.5551 0
M  V30 4566 H 418.964 -2.04809 2.38539 0
M  V30 4567 N 422.737 -1.36956 0.779787 0
M  V30 4568 C 423.647 -2.33965 0.172491 0
M  V30 4569 C 424.663 -1.60574 -0.670222 0
M  V30 4570 O 425.839 -1.92617 -0.588263 0
M  V30 4571 C 422.904 -3.39761 -0.690173 0
M  V30 4572 C 421.965 -4.28964 0.169924 0
M  V30 4573 C 421.198 -5.29707 -0.651662 0
M  V30 4574 O 421.421 -5.38238 -1.88827 0
M  V30 4575 O 420.355 -6.01873 -0.0566264 0
M  V30 4576 H 424.181 -2.87647 0.974321 0
M  V30 4577 H 421.766 -1.39258 0.541078 0
M  V30 4578 H 423.648 -4.04471 -1.1824 0
M  V30 4579 H 422.323 -2.88394 -1.47006 0
M  V30 4580 H 421.23 -3.67326 0.708696 0
M  V30 4581 H 422.563 -4.83656 0.913085 0
M  V30 4582 N 424.215 -0.530993 -1.48385 0
M  V30 4583 C 425.162 0.231223 -2.29639 0
M  V30 4584 C 426.132 0.932864 -1.37429 0
M  V30 4585 O 427.317 0.933692 -1.66394 0
M  V30 4586 C 424.457 1.27155 -3.2082 0
M  V30 4587 C 423.57 0.578655 -4.28107 0
M  V30 4588 C 422.705 1.602 -5.06467 0
M  V30 4589 C 421.744 0.892625 -6.05556 0
M  V30 4590 N 420.881 1.86157 -6.76971 0
M  V30 4591 H 425.721 -0.467848 -2.94305 0
M  V30 4592 H 423.258 -0.242556 -1.45086 0
M  V30 4593 H 425.216 1.88703 -3.72085 0
M  V30 4594 H 423.846 1.939 -2.58075 0
M  V30 4595 H 422.898 -0.150782 -3.80101 0
M  V30 4596 H 424.21 0.0217065 -4.98795 0
M  V30 4597 H 423.364 2.29173 -5.61751 0
M  V30 4598 H 422.103 2.19285 -4.35621 0
M  V30 4599 H 421.108 0.188829 -5.49476 0
M  V30 4600 H 422.333 0.307878 -6.78402 0
M  V30 4601 H 420.279 2.44147 -6.08875 0
M  V30 4602 H 420.196 1.35608 -7.43738 0
M  V30 4603 H 421.464 2.54325 -7.36844 0
M  V30 4604 N 425.693 1.55336 -0.266172 0
M  V30 4605 C 426.656 2.20878 0.612001 0
M  V30 4606 C 427.656 1.18388 1.08816 0
M  V30 4607 O 428.846 1.4335 0.989774 0
M  V30 4608 C 425.978 2.86765 1.84332 0
M  V30 4609 H 427.171 2.99873 0.0398718 0
M  V30 4610 H 424.724 1.56291 -0.0167309 0
M  V30 4611 H 425.459 2.11759 2.45619 0
M  V30 4612 H 425.244 3.61862 1.5099 0
M  V30 4613 H 426.734 3.36867 2.46801 0
M  V30 4614 N 427.171 -0.0066808 1.57599 0
M  V30 4615 C 428.081 -1.01671 2.11424 0
M  V30 4616 C 429.097 -1.38143 1.05795 0
M  V30 4617 O 430.273 -1.47011 1.37658 0
M  V30 4618 C 427.338 -2.29192 2.60139 0
M  V30 4619 C 426.399 -1.99094 3.80342 0
M  V30 4620 C 425.632 -3.20535 4.26724 0
M  V30 4621 O 425.855 -4.3199 3.72479 0
M  V30 4622 O 424.789 -3.04924 5.18946 0
M  V30 4623 H 428.615 -0.589181 2.9793 0
M  V30 4624 H 426.2 -0.225091 1.47695 0
M  V30 4625 H 428.082 -3.0412 2.917 0
M  V30 4626 H 426.757 -2.71195 1.76733 0
M  V30 4627 H 425.664 -1.21663 3.53764 0
M  V30 4628 H 426.997 -1.61931 4.648 0
M  V30 4629 N 428.649 -1.55105 -0.279332 0
M  V30 4630 C 429.895 -1.75672 -1.01327 0
M  V30 4631 C 430.228 -0.552739 -1.86168 0
M  V30 4632 O 429.503 0.449827 -1.89227 0
M  V30 4633 C 429.786 -3.05825 -1.90114 0
M  V30 4634 C 429.639 -4.36565 -1.08309 0
M  V30 4635 C 430.958 -3.31975 -2.8893 0
M  V30 4636 H 428.077 -0.639149 -0.366957 0
M  V30 4637 H 430.719 -1.87833 -0.286154 0
M  V30 4638 H 428.869 -2.95588 -2.52111 0
M  V30 4639 H 430.541 -4.58751 -0.484314 0
M  V30 4640 H 428.784 -4.32076 -0.386362 0
M  V30 4641 H 429.455 -5.23946 -1.73737 0
M  V30 4642 H 431.931 -3.41963 -2.37067 0
M  V30 4643 H 430.807 -4.2432 -3.48201 0
M  V30 4644 H 431.068 -2.51309 -3.63725 0
M  V30 4645 N 430.127 0.543554 -1.4793 0
M  V30 4646 C 431.376 1.29649 -1.54512 0
M  V30 4647 C 431.689 1.94382 -0.217973 0
M  V30 4648 O 432.895 2.71017 -0.161908 0
M  V30 4649 C 431.351 2.35175 -2.72435 0
M  V30 4650 C 430.959 1.76572 -4.11736 0
M  V30 4651 C 432.703 3.11564 -2.8832 0
M  V30 4652 C 430.61 2.79958 -5.20939 0
M  V30 4653 H 429.54 0.487541 -0.57517 0
M  V30 4654 H 432.191 0.575708 -1.74235 0
M  V30 4655 H 430.573 3.10229 -2.46118 0
M  V30 4656 H 431.747 1.07799 -4.48013 0
M  V30 4657 H 430.062 1.12722 -4.00852 0
M  V30 4658 H 432.659 3.88794 -3.67074 0
M  V30 4659 H 433.002 3.66594 -1.97268 0
M  V30 4660 H 433.535 2.43623 -3.14472 0
M  V30 4661 H 430.274 2.29766 -6.13912 0
M  V30 4662 H 429.794 3.47101 -4.89164 0
M  V30 4663 H 431.473 3.43198 -5.48474 0
M  V30 4664 N 431.605 1.3629 0.791371 0
M  V30 4665 C 432.535 1.33137 1.91825 0
M  V30 4666 C 433.516 0.203168 1.68882 0
M  V30 4667 O 434.701 0.400509 1.90025 0
M  V30 4668 C 431.831 1.11793 3.28816 0
M  V30 4669 C 430.785 2.21417 3.66277 0
M  V30 4670 C 430.111 1.85218 5.01596 0
M  V30 4671 C 431.411 3.63489 3.75064 0
M  V30 4672 H 433.105 2.2743 1.9472 0
M  V30 4673 H 430.651 1.09479 0.935437 0
M  V30 4674 H 432.604 1.08222 4.07266 0
M  V30 4675 H 431.328 0.139501 3.26302 0
M  V30 4676 H 429.987 2.2411 2.90121 0
M  V30 4677 H 429.635 0.859544 4.95602 0
M  V30 4678 H 429.335 2.58611 5.27631 0
M  V30 4679 H 430.859 1.832 5.82469 0
M  V30 4680 H 432.273 3.63034 4.43711 0
M  V30 4681 H 430.67 4.35771 4.12582 0
M  V30 4682 H 431.74 3.98536 2.76219 0
M  V30 4683 N 433.083 -1.0153 1.20538 0
M  V30 4684 C 434.331 -1.74803 1.01432 0
M  V30 4685 C 434.652 -1.8963 -0.454456 0
M  V30 4686 O 433.922 -1.43975 -1.32846 0
M  V30 4687 H 432.502 -0.647598 0.372324 0
M  V30 4688 H 435.164 -1.22402 1.5167 0
M  V30 4689 H 434.26 -2.75114 1.47373 0
M  V30 4690 N 434.561 -1.01147 -1.20859 0
M  V30 4691 C 435.809 -0.696486 -1.89719 0
M  V30 4692 C 436.13 0.775788 -1.78904 0
M  V30 4693 O 435.4 1.55759 -1.18811 0
M  V30 4694 H 433.98 -0.254628 -0.702263 0
M  V30 4695 H 436.642 -1.28197 -1.46804 0
M  V30 4696 H 435.738 -0.975357 -2.96468 0
M  V30 4697 N 436.039 1.36541 -0.78704 0
M  V30 4698 C 437.264 2.0409 -0.369053 0
M  V30 4699 C 437.689 1.58957 1.00569 0
M  V30 4700 O 437.047 0.756926 1.64743 0
M  V30 4701 C 437.095 3.57924 -0.438466 0
M  V30 4702 O 436.199 4.08642 0.555479 0
M  V30 4703 H 435.54 0.645142 -0.157122 0
M  V30 4704 H 438.07 1.74545 -1.06749 0
M  V30 4705 H 438.08 4.06887 -0.301218 0
M  V30 4706 H 436.755 3.90127 -1.44132 0
M  V30 4707 H 435.332 3.70958 0.380088 0
M  V30 4708 N 437.518 0.538854 1.48102 0
M  V30 4709 C 438.767 0.0059532 2.01699 0
M  V30 4710 C 439.08 -1.34476 1.42041 0
M  V30 4711 O 440.286 -1.96653 1.87189 0
M  V30 4712 C 438.742 -0.0397627 3.59878 0
M  V30 4713 C 438.35 1.30659 4.28523 0
M  V30 4714 C 440.094 -0.521024 4.2129 0
M  V30 4715 C 438.001 1.22098 5.78659 0
M  V30 4716 H 436.931 -0.00154456 0.753998 0
M  V30 4717 H 439.582 0.683963 1.70277 0
M  V30 4718 H 437.964 -0.783037 3.88181 0
M  V30 4719 H 439.138 2.06613 4.11883 0
M  V30 4720 H 437.453 1.7243 3.79021 0
M  V30 4721 H 440.05 -0.603184 5.31287 0
M  V30 4722 H 440.393 -1.52885 3.8721 0
M  V30 4723 H 440.926 0.166834 3.9745 0
M  V30 4724 H 437.665 2.20424 6.17328 0
M  V30 4725 H 437.185 0.50295 5.97688 0
M  V30 4726 H 438.864 0.915345 6.40492 0
M  V30 4727 N 438.996 -1.55193 0.274407 0
M  V30 4728 C 440.221 -2.04446 -0.348824 0
M  V30 4729 C 440.646 -1.15149 -1.48735 0
M  V30 4730 O 440.004 -0.149952 -1.80679 0
M  V30 4731 C 440.052 -3.51431 -0.808009 0
M  V30 4732 O 439.156 -3.65225 -1.91531 0
M  V30 4733 H 438.497 -0.66006 -0.0722276 0
M  V30 4734 H 441.027 -2.00481 0.408498 0
M  V30 4735 H 441.037 -3.92781 -1.10395 0
M  V30 4736 H 439.712 -4.15892 0.0249865 0
M  V30 4737 H 438.289 -3.35778 -1.62196 0
M  V30 4738 N 440.474 -0.00167713 -1.576 0
M  V30 4739 C 441.723 0.682021 -1.89819 0
M  V30 4740 C 442.036 1.74844 -0.876871 0
M  V30 4741 O 443.242 2.48688 -1.08934 0
M  V30 4742 C 441.698 1.26425 -3.36964 0
M  V30 4743 C 441.306 0.232568 -4.47396 0
M  V30 4744 C 443.05 1.92604 -3.78291 0
M  V30 4745 C 440.957 0.824882 -5.85619 0
M  V30 4746 H 439.887 0.258499 -0.708304 0
M  V30 4747 H 442.538 -0.0624957 -1.83394 0
M  V30 4748 H 440.92 2.05949 -3.38232 0
M  V30 4749 H 442.094 -0.5382 -4.57646 0
M  V30 4750 H 440.409 -0.32888 -4.15099 0
M  V30 4751 H 443.006 2.37827 -4.78897 0
M  V30 4752 H 443.349 2.75732 -3.11894 0
M  V30 4753 H 443.882 1.19812 -3.79328 0
M  V30 4754 H 440.621 0.0323542 -6.55492 0
M  V30 4755 H 440.141 1.56477 -5.79029 0
M  V30 4756 H 441.82 1.32301 -6.33329 0
M  V30 4757 N 441.952 1.55251 0.271103 0
M  V30 4758 C 443.363 1.66635 0.842007 0
M  V30 4759 C 443.714 0.594631 1.86972 0
M  V30 4760 O 442.839 -0.263532 2.14789 0
M  V30 4761 C 443.434 3.02082 1.53401 0
M  V30 4762 C 441.993 3.15487 2.05293 0
M  V30 4763 C 441.14 2.62438 0.895631 0
M  V30 4764 H 444.091 1.58629 0.0474117 0
M  V30 4765 H 444.112 2.95176 2.40107 0
M  V30 4766 H 443.624 3.80062 0.785786 0
M  V30 4767 H 441.725 2.42284 2.83071 0
M  V30 4768 H 441.838 4.22075 2.26693 0
M  V30 4769 H 440.202 2.19644 1.28953 0
M  V30 4770 H 440.985 3.42923 0.160878 0
M  V30 4771 N 443.43 -0.535701 1.48216 0
M  V30 4772 C 444.393 -1.623 1.61838 0
M  V30 4773 C 445.393 -1.53087 0.492024 0
M  V30 4774 O 446.583 -1.5686 0.757668 0
M  V30 4775 C 443.715 -3.01907 1.58319 0
M  V30 4776 H 444.908 -1.51564 2.58783 0
M  V30 4777 H 442.461 -0.757317 1.36727 0
M  V30 4778 H 443.196 -3.18155 0.628299 0
M  V30 4779 H 442.981 -3.10003 2.40085 0
M  V30 4780 H 444.471 -3.80969 1.71033 0
M  V30 4781 N 444.908 -1.36708 -0.784132 0
M  V30 4782 C 445.871 -1.31307 -1.87859 0
M  V30 4783 C 446.871 -0.219654 -1.59293 0
M  V30 4784 O 448.061 -0.47476 -1.67606 0
M  V30 4785 C 445.193 -1.03679 -3.24751 0
M  V30 4786 H 446.386 -2.28647 -1.94064 0
M  V30 4787 H 443.939 -1.21558 -0.98252 0
M  V30 4788 H 444.674 -0.0681936 -3.24228 0
M  V30 4789 H 444.459 -1.82811 -3.46876 0
M  V30 4790 H 445.949 -1.02518 -4.04821 0
M  V30 4791 N 446.386 1.0089 -1.21074 0
M  V30 4792 C 447.632 1.74866 -1.02712 0
M  V30 4793 C 447.965 1.89178 0.438787 0
M  V30 4794 O 447.24 1.42325 1.32567 0
M  V30 4795 C 447.523 3.16347 -1.72036 0
M  V30 4796 C 447.376 3.09782 -3.26121 0
M  V30 4797 C 448.695 4.15187 -1.45973 0
M  V30 4798 H 445.814 0.634736 -0.374539 0
M  V30 4799 H 448.456 1.17646 -1.49196 0
M  V30 4800 H 446.606 3.65201 -1.32517 0
M  V30 4801 H 448.278 2.68673 -3.74983 0
M  V30 4802 H 446.521 2.46982 -3.56626 0
M  V30 4803 H 447.192 4.09829 -3.6979 0
M  V30 4804 H 449.668 3.75022 -1.80272 0
M  V30 4805 H 448.544 5.12331 -1.96999 0
M  V30 4806 H 448.805 4.40386 -0.388924 0
M  V30 4807 N 447.864 1.01787 1.20321 0
M  V30 4808 C 448.827 0.593972 2.2137 0
M  V30 4809 C 449.827 -0.336553 1.57239 0
M  V30 4810 O 451.017 -0.125069 1.7375 0
M  V30 4811 C 448.149 -0.132433 3.40643 0
M  V30 4812 H 449.342 1.48791 2.60387 0
M  V30 4813 H 446.895 0.807803 1.33807 0
M  V30 4814 H 447.63 -1.04123 3.0713 0
M  V30 4815 H 447.415 0.53605 3.88418 0
M  V30 4816 H 448.905 -0.416314 4.1552 0
M  V30 4817 N 449.342 -1.36122 0.79427 0
M  V30 4818 C 450.589 -1.99111 0.368905 0
M  V30 4819 C 450.917 -1.63032 -1.0607 0
M  V30 4820 O 450.172 -0.879303 -1.74833 0
M  V30 4821 C 450.471 -3.5409 0.48527 0
M  V30 4822 C 450.137 -4.10003 1.87638 0
M  V30 4823 C 448.799 -4.24986 2.257 0
M  V30 4824 C 451.151 -4.40423 2.78706 0
M  V30 4825 C 448.479 -4.67701 3.54221 0
M  V30 4826 C 450.831 -4.84573 4.0666 0
M  V30 4827 C 449.495 -4.97761 4.44737 0
M  V30 4828 H 448.765 -0.7286 0.134992 0
M  V30 4829 H 451.412 -1.62534 1.01267 0
M  V30 4830 H 449.717 -3.91052 -0.241984 0
M  V30 4831 H 451.414 -4.00766 0.137109 0
M  V30 4832 H 448.004 -3.98784 1.57064 0
M  V30 4833 H 452.188 -4.28412 2.50553 0
M  V30 4834 H 447.444 -4.761 3.83587 0
M  V30 4835 H 451.618 -5.07074 4.77336 0
M  V30 4836 H 449.245 -5.30618 5.44379 0
M  V30 4837 N 450.82 -0.546701 -1.47814 0
M  V30 4838 C 452.067 -0.0187407 -2.02491 0
M  V30 4839 C 452.395 1.32685 -1.42215 0
M  V30 4840 O 451.65 1.87413 -0.563454 0
M  V30 4841 C 451.949 0.134869 -3.57145 0
M  V30 4842 C 451.615 -1.13849 -4.3629 0
M  V30 4843 C 450.277 -1.48743 -4.57634 0
M  V30 4844 C 452.629 -1.98277 -4.82012 0
M  V30 4845 C 449.957 -2.67932 -5.21948 0
M  V30 4846 C 452.309 -3.16659 -5.4764 0
M  V30 4847 C 450.973 -3.51879 -5.67219 0
M  V30 4848 H 450.243 -0.0068577 -0.740968 0
M  V30 4849 H 452.89 -0.716097 -1.77607 0
M  V30 4850 H 451.195 0.915118 -3.80963 0
M  V30 4851 H 452.892 0.558556 -3.97091 0
M  V30 4852 H 449.482 -0.856767 -4.19949 0
M  V30 4853 H 453.666 -1.72628 -4.6531 0
M  V30 4854 H 448.922 -2.95401 -5.35302 0
M  V30 4855 H 453.096 -3.82374 -5.82033 0
M  V30 4856 H 450.723 -4.44331 -6.16825 0
M  V30 4857 N 452.299 1.55045 -0.282633 0
M  V30 4858 C 453.547 1.99365 0.331334 0
M  V30 4859 C 453.868 1.1725 1.55812 0
M  V30 4860 O 453.138 0.263871 1.94115 0
M  V30 4861 H 451.718 0.736397 0.125414 0
M  V30 4862 H 454.38 1.90964 -0.389711 0
M  V30 4863 H 453.476 3.0596 0.616036 0
M  V30 4864 N 453.777 0.010035 1.57597 0
M  V30 4865 C 455.023 -0.673697 1.91283 0
M  V30 4866 C 455.356 -1.72863 0.884979 0
M  V30 4867 O 454.631 -1.94268 -0.0949487 0
M  V30 4868 C 454.914 -1.30766 3.35518 0
M  V30 4869 C 454.767 -0.263578 4.49027 0
M  V30 4870 C 456.086 -2.23105 3.79358 0
M  V30 4871 H 453.205 -0.243439 0.695634 0
M  V30 4872 H 455.847 0.0633864 1.89894 0
M  V30 4873 H 453.997 -1.93588 3.36832 0
M  V30 4874 H 455.669 0.365738 4.59848 0
M  V30 4875 H 453.912 0.413077 4.31829 0
M  V30 4876 H 454.583 -0.746398 5.4693 0
M  V30 4877 H 457.059 -1.70289 3.79659 0
M  V30 4878 H 455.935 -2.64424 4.81011 0
M  V30 4879 H 456.196 -3.11433 3.13787 0
M  V30 4880 N 455.255 -1.55392 -0.262866 0
M  V30 4881 C 456.218 -1.88181 -1.30846 0
M  V30 4882 C 457.218 -0.757079 -1.41862 0
M  V30 4883 O 458.408 -1.02519 -1.40838 0
M  V30 4884 C 455.54 -2.09609 -2.68844 0
M  V30 4885 H 456.733 -2.81659 -1.02997 0
M  V30 4886 H 454.286 -1.48039 -0.501414 0
M  V30 4887 H 455.021 -1.18547 -3.01856 0
M  V30 4888 H 454.806 -2.91508 -2.62231 0
M  V30 4889 H 456.296 -2.36215 -3.44372 0
M  V30 4890 N 456.733 0.527833 -1.48498 0
M  V30 4891 C 457.681 1.65313 -1.63628 0
M  V30 4892 C 458.675 1.6177 -0.502676 0
M  V30 4893 O 459.881 1.66601 -0.681469 0
M  V30 4894 H 456.256 0.547518 -0.515488 0
M  V30 4895 H 458.227 1.49696 -2.58135 0
M  V30 4896 C 456.976 3.03576 -1.6952 0
M  V30 4897 H 456.299 3.06997 -2.56111 0
M  V30 4898 H 457.739 3.81923 -1.84149 0
M  V30 4899 C 456.198 3.34089 -0.43432 0
M  V30 4900 O 456.728 3.99151 0.451852 0
M  V30 4901 N 454.934 2.88991 -0.305368 0
M  V30 4902 H 454.481 2.36222 -1.02747 0
M  V30 4903 H 454.439 3.09776 0.537249 0
M  V30 4904 N 458.211 1.37122 0.776871 0
M  V30 4905 C 459.174 1.32301 1.8716 0
M  V30 4906 C 460.174 0.228099 1.59174 0
M  V30 4907 O 461.364 0.483642 1.67352 0
M  V30 4908 C 458.496 1.054 3.24197 0
M  V30 4909 H 459.689 2.29673 1.92848 0
M  V30 4910 H 457.242 1.22077 0.97606 0
M  V30 4911 H 457.977 0.0853872 3.24188 0
M  V30 4912 H 457.762 1.84648 3.45901 0
M  V30 4913 H 459.252 1.04664 4.04271 0
M  V30 4914 N 459.689 -1.00246 1.21608 0
M  V30 4915 C 460.935 -1.74319 1.03638 0
M  V30 4916 C 461.268 -1.89408 -0.428749 0
M  V30 4917 O 460.543 -1.43026 -1.3181 0
M  V30 4918 C 460.826 -3.15431 1.73711 0
M  V30 4919 C 460.679 -3.08049 3.27759 0
M  V30 4920 C 461.998 -4.14407 1.48173 0
M  V30 4921 H 459.117 -0.632741 0.377899 0
M  V30 4922 H 461.759 -1.16853 1.49818 0
M  V30 4923 H 459.909 -3.64493 1.34452 0
M  V30 4924 H 461.581 -2.66681 3.76403 0
M  V30 4925 H 459.824 -2.45088 3.57931 0
M  V30 4926 H 460.495 -4.07862 3.71958 0
M  V30 4927 H 462.971 -3.74061 1.82258 0
M  V30 4928 H 461.847 -5.11279 1.99713 0
M  V30 4929 H 462.108 -4.40174 0.412273 0
M  V30 4930 N 461.167 -1.02423 -1.1978 0
M  V30 4931 C 462.13 -0.605703 -2.21052 0
M  V30 4932 C 463.13 0.328209 -1.57415 0
M  V30 4933 O 464.32 0.115853 -1.73814 0
M  V30 4934 C 461.452 0.114366 -3.40708 0
M  V30 4935 H 462.645 -1.5017 -2.59594 0
M  V30 4936 H 460.198 -0.814888 -1.33376 0
M  V30 4937 H 460.933 1.02492 -3.07678 0
M  V30 4938 H 460.718 -0.556641 -3.88129 0
M  V30 4939 H 462.208 0.394272 -4.15735 0
M  V30 4940 N 462.645 1.35699 -0.801477 0
M  V30 4941 C 463.894 1.98165 -0.375979 0
M  V30 4942 C 464.207 1.64306 1.06127 0
M  V30 4943 O 465.413 2.20097 1.58964 0
M  V30 4944 C 463.869 3.54497 -0.621305 0
M  V30 4945 C 463.477 3.9727 -2.07076 0
M  V30 4946 C 465.221 4.23697 -0.26091 0
M  V30 4947 C 463.128 5.46427 -2.26211 0
M  V30 4948 H 462.058 0.741478 -0.136844 0
M  V30 4949 H 464.709 1.54834 -0.984814 0
M  V30 4950 H 463.091 3.95958 0.0574112 0
M  V30 4951 H 464.265 3.66974 -2.78687 0
M  V30 4952 H 462.58 3.40943 -2.39054 0
M  V30 4953 H 465.177 5.33334 -0.381994 0
M  V30 4954 H 465.52 4.0869 0.792344 0
M  V30 4955 H 466.053 3.87639 -0.893339 0
M  V30 4956 H 462.792 5.66396 -3.29963 0
M  V30 4957 H 462.312 5.78309 -1.59119 0
M  V30 4958 H 463.991 6.12819 -2.07513 0
M  V30 4959 N 464.123 0.554532 1.47522 0
M  V30 4960 C 465.086 -0.184174 2.28459 0
M  V30 4961 C 466.086 -0.845195 1.36796 0
M  V30 4962 O 467.276 -0.701467 1.59452 0
M  V30 4963 C 464.408 -1.26903 3.16399 0
M  V30 4964 H 465.601 0.526751 2.95238 0
M  V30 4965 H 463.154 0.311375 1.53167 0
M  V30 4966 H 463.889 -2.01244 2.54306 0
M  V30 4967 H 463.674 -0.799883 3.83854 0
M  V30 4968 H 465.164 -1.78794 3.77389 0
M  V30 4969 N 465.601 -1.54893 0.290851 0
M  V30 4970 C 466.548 -2.23138 -0.58974 0
M  V30 4971 C 467.518 -1.21036 -1.13752 0
M  V30 4972 O 468.703 -1.49626 -1.18392 0
M  V30 4973 C 465.843 -2.96811 -1.76061 0
M  V30 4974 C 464.956 -4.13665 -1.24519 0
M  V30 4975 C 464.091 -4.74944 -2.3791 0
M  V30 4976 C 463.13 -5.83963 -1.83451 0
M  V30 4977 N 462.267 -6.39239 -2.90376 0
M  V30 4978 H 467.107 -2.98 -0.00114915 0
M  V30 4979 H 464.644 -1.47096 0.0112006 0
M  V30 4980 H 466.602 -3.37751 -2.44909 0
M  V30 4981 H 465.232 -2.24344 -2.32098 0
M  V30 4982 H 464.284 -3.77737 -0.449288 0
M  V30 4983 H 465.596 -4.92238 -0.806424 0
M  V30 4984 H 464.75 -5.18684 -3.14724 0
M  V30 4985 H 463.489 -3.95682 -2.85109 0
M  V30 4986 H 462.494 -5.39657 -1.05122 0
M  V30 4987 H 463.719 -6.65103 -1.37169 0
M  V30 4988 H 461.665 -5.62864 -3.36927 0
M  V30 4989 H 461.582 -7.13129 -2.50965 0
M  V30 4990 H 462.85 -6.87637 -3.67118 0
M  V30 4991 N 467.08 -0.0183926 -1.57589 0
M  V30 4992 C 468.043 0.951986 -2.08494 0
M  V30 4993 C 469.043 1.26092 -0.997874 0
M  V30 4994 O 470.233 1.20304 -1.25987 0
M  V30 4995 C 467.365 2.27165 -2.54182 0
M  V30 4996 H 468.558 0.511307 -2.95509 0
M  V30 4997 H 466.111 0.229444 -1.54607 0
M  V30 4998 H 466.846 2.75884 -1.70465 0
M  V30 4999 H 466.631 2.06057 -3.33591 0
M  V30 5000 H 468.121 2.9674 -2.93828 0
M  V30 5001 N 468.558 1.5553 0.254621 0
M  V30 5002 C 469.806 1.7665 0.981793 0
M  V30 5003 C 470.127 0.580963 1.86145 0
M  V30 5004 O 469.397 -0.403537 1.91699 0
M  V30 5005 H 467.977 0.651475 0.365498 0
M  V30 5006 H 470.639 1.92958 0.274426 0
M  V30 5007 H 469.735 2.67486 1.60802 0
M  V30 5008 N 470.036 -0.519951 1.48776 0
M  V30 5009 C 470.999 -1.60574 1.6355 0
M  V30 5010 C 471.999 -1.52557 0.508234 0
M  V30 5011 O 473.189 -1.56047 0.774262 0
M  V30 5012 C 470.321 -3.00211 1.61512 0
M  V30 5013 H 471.514 -1.4881 2.60376 0
M  V30 5014 H 469.067 -0.742772 1.37523 0
M  V30 5015 H 469.802 -3.17471 0.662009 0
M  V30 5016 H 469.587 -3.07439 2.43359 0
M  V30 5017 H 471.077 -3.79134 1.75064 0
M  V30 5018 N 471.514 -1.37532 -0.769588 0
M  V30 5019 C 472.761 -1.3286 -1.52822 0
M  V30 5020 C 473.089 0.0862597 -1.94309 0
M  V30 5021 O 472.344 1.05995 -1.6451 0
M  V30 5022 C 472.643 -2.21558 -2.8044 0
M  V30 5023 C 472.309 -3.69796 -2.57996 0
M  V30 5024 C 470.971 -4.10194 -2.51583 0
M  V30 5025 C 473.323 -4.63699 -2.37976 0
M  V30 5026 C 470.651 -5.42608 -2.23144 0
M  V30 5027 C 473.003 -5.96353 -2.1106 0
M  V30 5028 C 471.667 -6.35853 -2.03093 0
M  V30 5029 H 470.937 -0.486168 -0.559215 0
M  V30 5030 H 473.584 -1.69757 -0.886277 0
M  V30 5031 H 471.889 -1.77663 -3.49204 0
M  V30 5032 H 473.586 -2.15256 -3.38328 0
M  V30 5033 H 470.176 -3.37759 -2.63851 0
M  V30 5034 H 474.36 -4.33346 -2.41919 0
M  V30 5035 H 469.616 -5.72173 -2.15472 0
M  V30 5036 H 473.79 -6.68667 -1.94568 0
M  V30 5037 H 471.417 -7.38382 -1.8082 0
M  V30 5038 N 472.992 0.995999 -1.22138 0
M  V30 5039 C 473.94 2.10673 -0.985876 0
M  V30 5040 C 474.934 1.69255 0.0699553 0
M  V30 5041 O 476.14 1.79812 -0.0822176 0
M  V30 5042 H 472.515 0.688865 -0.30161 0
M  V30 5043 H 474.486 2.27711 -1.92848 0
M  V30 5044 C 473.235 3.42881 -0.576909 0
M  V30 5045 H 472.558 3.75191 -1.38101 0
M  V30 5046 H 473.998 4.21589 -0.451518 0
M  V30 5047 C 472.457 3.29265 0.713196 0
M  V30 5048 O 472.987 3.60777 1.76643 0
M  V30 5049 N 471.193 2.82456 0.683162 0
M  V30 5050 H 470.74 2.5701 -0.174242 0
M  V30 5051 H 470.698 2.73727 1.54663 0
M  V30 5052 N 474.47 1.03057 1.19235 0
M  V30 5053 C 475.4 0.633497 2.24742 0
M  V30 5054 C 476.381 -0.358335 1.66283 0
M  V30 5055 O 477.566 -0.240676 1.92703 0
M  V30 5056 C 474.696 -0.0147648 3.47297 0
M  V30 5057 C 473.65 0.899527 4.18441 0
M  V30 5058 C 472.976 0.116281 5.34574 0
M  V30 5059 C 474.276 2.21404 4.73051 0
M  V30 5060 H 475.97 1.5155 2.58211 0
M  V30 5061 H 473.516 0.73014 1.24117 0
M  V30 5062 H 475.469 -0.304202 4.20301 0
M  V30 5063 H 474.193 -0.931577 3.13032 0
M  V30 5064 H 472.852 1.17319 3.47321 0
M  V30 5065 H 472.5 -0.802619 4.96555 0
M  V30 5066 H 472.2 0.725293 5.83107 0
M  V30 5067 H 473.724 -0.166376 6.10373 0
M  V30 5068 H 475.138 1.98601 5.37802 0
M  V30 5069 H 473.535 2.77512 5.32078 0
M  V30 5070 H 474.605 2.86752 3.91026 0
M  V30 5071 N 475.948 -1.35272 0.808662 0
M  V30 5072 C 477.196 -1.98316 0.389233 0
M  V30 5073 C 477.517 -1.64465 -1.04767 0
M  V30 5074 O 476.787 -0.928175 -1.72516 0
M  V30 5075 H 475.367 -0.733585 0.140935 0
M  V30 5076 H 478.029 -1.6515 1.03496 0
M  V30 5077 H 477.125 -3.08123 0.496631 0
M  V30 5078 N 477.426 -0.562348 -1.47226 0
M  V30 5079 C 478.673 -0.0402165 -2.0246 0
M  V30 5080 C 479.001 1.31169 -1.43614 0
M  V30 5081 O 478.256 1.86805 -0.5833 0
M  V30 5082 C 478.555 0.0969817 -3.57268 0
M  V30 5083 C 478.221 -1.1847 -4.35058 0
M  V30 5084 C 476.883 -1.53588 -4.56031 0
M  V30 5085 C 479.235 -2.03378 -4.79882 0
M  V30 5086 C 476.563 -2.73452 -5.19077 0
M  V30 5087 C 478.915 -3.2245 -5.44251 0
M  V30 5088 C 477.579 -3.57876 -5.63455 0
M  V30 5089 H 476.849 -0.0147163 -0.740854 0
M  V30 5090 H 479.496 -0.734895 -1.76838 0
M  V30 5091 H 477.801 0.87466 -3.81912 0
M  V30 5092 H 479.498 0.516408 -3.97661 0
M  V30 5093 H 476.088 -0.90126 -4.19017 0
M  V30 5094 H 480.272 -1.77553 -4.63453 0
M  V30 5095 H 475.528 -3.01062 -5.32139 0
M  V30 5096 H 479.702 -3.88526 -5.77945 0
M  V30 5097 H 477.329 -4.50849 -6.12078 0
M  V30 5098 N 478.904 1.54736 -0.299062 0
M  V30 5099 C 480.153 1.99279 0.311549 0
M  V30 5100 C 480.466 1.19107 1.55154 0
M  V30 5101 O 481.672 1.53908 2.23662 0
M  V30 5102 C 480.128 3.54768 0.605632 0
M  V30 5103 C 479.736 4.43746 -0.615914 0
M  V30 5104 C 481.48 4.07841 1.17754 0
M  V30 5105 C 479.387 5.90663 -0.29509 0
M  V30 5106 H 478.317 0.744359 0.120187 0
M  V30 5107 H 480.968 1.78919 -0.407464 0
M  V30 5108 H 479.35 3.71021 1.38419 0
M  V30 5109 H 480.524 4.39267 -1.39218 0
M  V30 5110 H 478.839 4.01434 -1.10633 0
M  V30 5111 H 481.436 5.15174 1.43179 0
M  V30 5112 H 481.779 3.58324 2.11918 0
M  V30 5113 H 482.312 3.95123 0.460739 0
M  V30 5114 H 479.051 6.44325 -1.20524 0
M  V30 5115 H 478.571 5.98155 0.44394 0
M  V30 5116 H 480.25 6.46916 0.104048 0
M  V30 5117 N 480.382 0.0267497 1.57577 0
M  V30 5118 C 481.61 -0.662661 1.96001 0
M  V30 5119 C 482.025 -1.65799 0.903117 0
M  V30 5120 O 481.382 -1.82135 -0.115317 0
M  V30 5121 C 481.433 -1.37112 3.34488 0
M  V30 5122 O 481.154 -0.415683 4.36123 0
M  V30 5123 C 482.655 -2.15257 3.8753 0
M  V30 5124 H 479.875 -0.18287 0.6456 0
M  V30 5125 H 482.419 0.0858116 2.0432 0
M  V30 5126 H 480.574 -2.07101 3.27395 0
M  V30 5127 H 480.988 -0.918496 5.16395 0
M  V30 5128 H 482.462 -2.60285 4.86781 0
M  V30 5129 H 482.939 -2.99063 3.21649 0
M  V30 5130 H 483.545 -1.50231 3.97883 0
M  V30 5131 N 481.861 -1.55662 -0.24637 0
M  V30 5132 C 482.791 -1.93377 -1.30873 0
M  V30 5133 C 483.772 -0.798773 -1.50179 0
M  V30 5134 O 484.957 -1.0591 -1.62778 0
M  V30 5135 C 482.087 -2.22893 -2.66338 0
M  V30 5136 C 481.041 -3.38649 -2.61727 0
M  V30 5137 C 480.367 -3.53708 -4.00992 0
M  V30 5138 C 481.667 -4.74323 -2.18666 0
M  V30 5139 H 483.361 -2.82363 -0.995552 0
M  V30 5140 H 480.907 -1.35854 -0.477464 0
M  V30 5141 H 482.86 -2.47866 -3.40794 0
M  V30 5142 H 481.584 -1.30733 -2.99293 0
M  V30 5143 H 480.243 -3.13685 -1.89729 0
M  V30 5144 H 479.891 -2.58967 -4.31214 0
M  V30 5145 H 479.591 -4.31551 -3.98795 0
M  V30 5146 H 481.115 -3.81003 -4.77147 0
M  V30 5147 H 482.529 -4.98665 -2.82854 0
M  V30 5148 H 480.926 -5.55273 -2.27579 0
M  V30 5149 H 481.996 -4.71349 -1.13834 0
M  V30 5150 N 483.339 0.512053 -1.4905 0
M  V30 5151 C 484.75 1.09376 -1.51307 0
M  V30 5152 C 485.101 1.94 -0.292971 0
M  V30 5153 O 484.226 2.07965 0.598277 0
M  V30 5154 C 484.821 1.99031 -2.74176 0
M  V30 5155 C 483.38 2.52385 -2.79247 0
M  V30 5156 C 482.527 1.29749 -2.45073 0
M  V30 5157 H 485.478 0.296467 -1.55906 0
M  V30 5158 H 485.499 2.83569 -2.53711 0
M  V30 5159 H 485.011 1.37412 -3.62959 0
M  V30 5160 H 483.112 3.17673 -1.94716 0
M  V30 5161 H 483.225 2.90293 -3.81139 0
M  V30 5162 H 481.589 1.61912 -1.96612 0
M  V30 5163 H 482.372 0.698555 -3.36118 0
M  V30 5164 N 484.817 1.37938 0.762283 0
M  V30 5165 C 485.78 1.34279 1.85747 0
M  V30 5166 C 486.78 0.244969 1.58923 0
M  V30 5167 O 487.97 0.501365 1.66829 0
M  V30 5168 C 485.102 1.08833 3.23061 0
M  V30 5169 H 486.295 2.31705 1.90401 0
M  V30 5170 H 483.848 1.23105 0.963057 0
M  V30 5171 H 484.583 0.119767 3.24079 0
M  V30 5172 H 484.368 1.88306 3.43923 0
M  V30 5173 H 485.858 1.08946 4.03138 0
M  V30 5174 N 486.295 -0.989507 1.22664 0
M  V30 5175 C 487.544 -1.72375 1.04737 0
M  V30 5176 C 487.857 -1.91096 -0.417316 0
M  V30 5177 O 489.063 -2.6188 -0.716334 0
M  V30 5178 C 487.519 -3.10161 1.82561 0
M  V30 5179 C 487.127 -2.99358 3.333 0
M  V30 5180 C 488.871 -3.87607 1.73093 0
M  V30 5181 C 486.778 -4.32319 4.03552 0
M  V30 5182 H 485.708 -0.646326 0.388302 0
M  V30 5183 H 488.359 -1.10437 1.46546 0
M  V30 5184 H 486.741 -3.728 1.33552 0
M  V30 5185 H 487.915 -2.45863 3.89728 0
M  V30 5186 H 486.23 -2.35392 3.43481 0
M  V30 5187 H 488.827 -4.86025 2.22899 0
M  V30 5188 H 489.17 -4.10509 0.691976 0
M  V30 5189 H 489.703 -3.31652 2.19663 0
M  V30 5190 H 486.442 -4.14616 5.07714 0
M  V30 5191 H 485.962 -4.85714 3.51911 0
M  V30 5192 H 487.641 -5.01051 4.09337 0
M  V30 5193 N 487.773 -1.03688 -1.18687 0
M  V30 5194 C 489.02 -0.73803 -1.88572 0
M  V30 5195 C 489.348 0.733973 -1.8012 0
M  V30 5196 O 488.603 1.55098 -1.19344 0
M  V30 5197 C 488.902 -1.14477 -3.3857 0
M  V30 5198 C 488.568 -2.61641 -3.67226 0
M  V30 5199 C 487.23 -3.01846 -3.74757 0
M  V30 5200 C 489.582 -3.56812 -3.79914 0
M  V30 5201 C 486.91 -4.36118 -3.92451 0
M  V30 5202 C 489.262 -4.90799 -3.99123 0
M  V30 5203 C 487.926 -5.3068 -4.04888 0
M  V30 5204 H 487.196 -0.270064 -0.690034 0
M  V30 5205 H 489.843 -1.3012 -1.40503 0
M  V30 5206 H 488.148 -0.500337 -3.88592 0
M  V30 5207 H 489.845 -0.89095 -3.90977 0
M  V30 5208 H 486.435 -2.29498 -3.61979 0
M  V30 5209 H 490.619 -3.26899 -3.73431 0
M  V30 5210 H 485.875 -4.66542 -3.95157 0
M  V30 5211 H 490.049 -5.64451 -4.07882 0
M  V30 5212 H 487.676 -6.34733 -4.18351 0
M  V30 5213 N 489.251 1.34841 -0.815825 0
M  V30 5214 C 490.476 2.03261 -0.41226 0
M  V30 5215 C 490.901 1.61055 0.971751 0
M  V30 5216 O 490.259 0.7917 1.63101 0
M  V30 5217 C 490.307 3.56914 -0.514289 0
M  V30 5218 O 489.411 4.09728 0.468675 0
M  V30 5219 H 488.752 0.641664 -0.170771 0
M  V30 5220 H 491.282 1.72241 -1.10427 0
M  V30 5221 H 491.292 4.06156 -0.387457 0
M  V30 5222 H 489.967 3.86982 -1.52375 0
M  V30 5223 H 488.544 3.71681 0.301316 0
M  V30 5224 N 490.729 0.570148 1.46925 0
M  V30 5225 C 491.661 -0.207909 2.28255 0
M  V30 5226 C 492.674 -0.867301 1.37774 0
M  V30 5227 O 493.863 -0.738976 1.62485 0
M  V30 5228 C 490.963 -1.31298 3.12433 0
M  V30 5229 C 490.136 -0.747915 4.30958 0
M  V30 5230 C 489.195 -1.7391 4.9663 0
M  V30 5231 O 488.221 -1.2801 5.54619 0
M  V30 5232 N 489.423 -3.07288 4.92498 0
M  V30 5233 H 492.188 0.489794 2.95671 0
M  V30 5234 H 489.749 0.407076 1.56699 0
M  V30 5235 H 491.741 -1.97507 3.53232 0
M  V30 5236 H 490.311 -1.91373 2.47175 0
M  V30 5237 H 489.531 0.0913066 3.94094 0
M  V30 5238 H 490.819 -0.349958 5.07595 0
M  V30 5239 H 490.217 -3.47213 4.46609 0
M  V30 5240 H 488.774 -3.69021 5.37277 0
M  V30 5241 N 492.207 -1.54576 0.307264 0
M  V30 5242 C 493.435 -2.04675 -0.302597 0
M  V30 5243 C 493.85 -1.18425 -1.47041 0
M  V30 5244 O 493.207 -0.211257 -1.81273 0
M  V30 5245 C 493.258 -3.53575 -0.752801 0
M  V30 5246 O 492.979 -4.36547 0.368536 0
M  V30 5247 C 494.48 -4.19699 -1.42717 0
M  V30 5248 H 491.7 -0.66786 -0.0648374 0
M  V30 5249 H 494.244 -1.99516 0.448716 0
M  V30 5250 H 492.399 -3.59074 -1.45412 0
M  V30 5251 H 492.813 -5.24497 0.0168937 0
M  V30 5252 H 494.287 -5.25388 -1.69327 0
M  V30 5253 H 494.764 -3.69815 -2.36925 0
M  V30 5254 H 495.37 -4.18293 -0.768856 0
M  V30 5255 N 493.685 -0.035106 -1.57561 0
M  V30 5256 C 494.648 0.929819 -2.09492 0
M  V30 5257 C 495.648 1.25026 -1.01119 0
M  V30 5258 O 496.838 1.18961 -1.27255 0
M  V30 5259 C 493.97 2.24457 -2.56577 0
M  V30 5260 H 495.163 0.479935 -2.96035 0
M  V30 5261 H 492.716 0.213033 -1.54841 0
M  V30 5262 H 493.451 2.74061 -1.73382 0
M  V30 5263 H 493.236 2.02508 -3.35757 0
M  V30 5264 H 494.726 2.93607 -2.96959 0
M  V30 5265 N 495.163 1.55791 0.238111 0
M  V30 5266 C 496.411 1.77681 0.963001 0
M  V30 5267 C 496.732 0.600674 1.85518 0
M  V30 5268 O 496.002 -0.383182 1.92116 0
M  V30 5269 H 494.582 0.655315 0.358568 0
M  V30 5270 H 497.244 1.93239 0.253945 0
M  V30 5271 H 496.34 2.69177 1.57956 0
M  V30 5272 N 496.642 -0.504142 1.49319 0
M  V30 5273 C 497.89 -1.25598 1.58334 0
M  V30 5274 C 498.211 -1.93114 0.270538 0
M  V30 5275 O 497.481 -1.82585 -0.709891 0
M  V30 5276 H 496.061 -0.466571 0.58337 0
M  V30 5277 H 498.723 -0.584547 1.85928 0
M  V30 5278 H 497.819 -2.02159 2.37778 0
M  V30 5279 N 498.12 -1.38341 -0.754957 0
M  V30 5280 C 499.348 -1.37704 -1.54419 0
M  V30 5281 C 499.763 0.0335243 -1.8877 0
M  V30 5282 O 499.12 0.999773 -1.52679 0
M  V30 5283 C 499.171 -2.23136 -2.84416 0
M  V30 5284 O 498.892 -3.58697 -2.51531 0
M  V30 5285 C 500.393 -2.30664 -3.78562 0
M  V30 5286 H 497.613 -0.471061 -0.477852 0
M  V30 5287 H 500.157 -1.81902 -0.934446 0
M  V30 5288 H 498.312 -1.82403 -3.41772 0
M  V30 5289 H 498.726 -4.03665 -3.34896 0
M  V30 5290 H 500.2 -2.9473 -4.66732 0
M  V30 5291 H 500.677 -1.3199 -4.18898 0
M  V30 5292 H 501.283 -2.71781 -3.27131 0
M  V30 5293 N 499.598 0.982988 -1.23187 0
M  V30 5294 C 500.845 1.72392 -1.06241 0
M  V30 5295 C 501.173 1.9032 0.40108 0
M  V30 5296 O 500.428 1.45084 1.31336 0
M  V30 5297 C 500.727 3.12736 -1.73006 0
M  V30 5298 C 500.393 3.14695 -3.22921 0
M  V30 5299 C 499.055 3.14937 -3.63824 0
M  V30 5300 C 501.407 3.10211 -4.1883 0
M  V30 5301 C 498.735 3.08408 -4.99101 0
M  V30 5302 C 501.087 3.05224 -5.54095 0
M  V30 5303 C 499.751 3.03787 -5.94365 0
M  V30 5304 H 499.021 0.630829 -0.388762 0
M  V30 5305 H 501.668 1.15053 -1.53085 0
M  V30 5306 H 499.973 3.73446 -1.18514 0
M  V30 5307 H 501.67 3.68828 -1.57374 0
M  V30 5308 H 498.26 3.15262 -2.90358 0
M  V30 5309 H 502.444 3.09166 -3.8824 0
M  V30 5310 H 497.7 3.05646 -5.29519 0
M  V30 5311 H 501.874 3.00712 -6.28128 0
M  V30 5312 H 499.501 2.98483 -6.99151 0
M  V30 5313 N 501.076 1.04316 1.18135 0
M  V30 5314 C 502.006 0.657299 2.24058 0
M  V30 5315 C 502.987 -0.340678 1.66654 0
M  V30 5316 O 504.172 -0.220223 1.92947 0
M  V30 5317 C 501.302 0.0220715 3.47293 0
M  V30 5318 C 500.256 0.943857 4.17463 0
M  V30 5319 C 499.582 0.172973 5.3442 0
M  V30 5320 C 500.882 2.26409 4.70677 0
M  V30 5321 H 502.576 1.5428 2.56589 0
M  V30 5322 H 500.122 0.743263 1.23335 0
M  V30 5323 H 502.075 -0.259607 4.206 0
M  V30 5324 H 500.799 -0.898323 3.14003 0
M  V30 5325 H 499.458 1.20996 3.46057 0
M  V30 5326 H 499.106 -0.749907 4.97379 0
M  V30 5327 H 498.806 0.787098 5.82304 0
M  V30 5328 H 500.33 -0.101628 6.10515 0
M  V30 5329 H 501.744 2.04294 5.35665 0
M  V30 5330 H 500.141 2.8314 5.29105 0
M  V30 5331 H 501.211 2.90883 3.87962 0
M  V30 5332 N 502.554 -1.34406 0.822964 0
M  V30 5333 C 503.802 -1.97892 0.410245 0
M  V30 5334 C 504.123 -1.65567 -1.03017 0
M  V30 5335 O 503.393 -0.94642 -1.71522 0
M  V30 5336 H 501.973 -0.732049 0.148707 0
M  V30 5337 H 504.635 -1.64043 1.05242 0
M  V30 5338 H 503.731 -3.07579 0.529284 0
M  V30 5339 N 504.032 -0.577932 -1.46621 0
M  V30 5340 C 505.279 -0.0616879 -2.02406 0
M  V30 5341 C 505.607 1.29638 -1.44997 0
M  V30 5342 O 504.862 1.86176 -0.60308 0
M  V30 5343 C 505.161 0.0590832 -3.57351 0
M  V30 5344 C 504.827 -1.23077 -4.33777 0
M  V30 5345 C 503.489 -1.58416 -4.54376 0
M  V30 5346 C 505.841 -2.08457 -4.77698 0
M  V30 5347 C 503.169 -2.78943 -5.16147 0
M  V30 5348 C 505.521 -3.28204 -5.408 0
M  V30 5349 C 504.185 -3.63832 -5.59627 0
M  V30 5350 H 503.455 -0.0225732 -0.740656 0
M  V30 5351 H 506.102 -0.753609 -1.76048 0
M  V30 5352 H 504.407 0.834104 -3.82818 0
M  V30 5353 H 506.104 0.474202 -3.98186 0
M  V30 5354 H 502.694 -0.945652 -4.18038 0
M  V30 5355 H 506.878 -1.82459 -4.61544 0
M  V30 5356 H 502.134 -3.06689 -5.28916 0
M  V30 5357 H 506.308 -3.94634 -5.73792 0
M  V30 5358 H 503.935 -4.57315 -6.07262 0
M  V30 5359 N 505.51 1.54411 -0.315457 0
M  V30 5360 C 506.44 2.27002 0.547039 0
M  V30 5361 C 507.421 1.27492 1.12605 0
M  V30 5362 O 508.606 1.5629 1.15269 0
M  V30 5363 C 505.736 3.02171 1.71201 0
M  V30 5364 C 504.69 4.0895 1.26268 0
M  V30 5365 C 504.016 4.71915 2.51396 0
M  V30 5366 C 505.316 5.20891 0.383419 0
M  V30 5367 H 507.01 2.99343 -0.0584517 0
M  V30 5368 H 504.556 1.4397 -0.0295527 0
M  V30 5369 H 506.509 3.51681 2.32161 0
M  V30 5370 H 505.233 2.27433 2.34397 0
M  V30 5371 H 503.892 3.60312 0.676062 0
M  V30 5372 H 503.54 3.93801 3.12937 0
M  V30 5373 H 503.24 5.44039 2.22026 0
M  V30 5374 H 504.764 5.24195 3.13133 0
M  V30 5375 H 506.178 5.66206 0.899082 0
M  V30 5376 H 504.575 5.99821 0.182857 0
M  V30 5377 H 505.645 4.81324 -0.587821 0
M  V30 5378 N 506.988 0.0434614 1.5754 0
M  V30 5379 C 508.234 -0.627109 1.93491 0
M  V30 5380 C 508.589 -1.68904 0.921362 0
M  V30 5381 O 507.882 -1.91504 -0.0605799 0
M  V30 5382 C 508.076 -1.2738 3.3393 0
M  V30 5383 C 507.905 -0.27603 4.48852 0
M  V30 5384 C 506.675 0.129244 5.05135 0
M  V30 5385 C 508.873 0.475462 5.12098 0
M  V30 5386 N 506.855 1.12068 6.03584 0
M  V30 5387 C 508.226 1.32021 6.05781 0
M  V30 5388 C 510.281 0.534611 4.95022 0
M  V30 5389 C 508.984 2.2188 6.84223 0
M  V30 5390 C 511.01 1.42059 5.74085 0
M  V30 5391 C 510.372 2.25309 6.67394 0
M  V30 5392 H 506.471 -0.201354 0.755633 0
M  V30 5393 H 509.055 0.113991 1.94366 0
M  V30 5394 H 507.226 -1.98496 3.33847 0
M  V30 5395 H 508.958 -1.90255 3.57191 0
M  V30 5396 H 505.713 -0.248145 4.72949 0
M  V30 5397 H 506.137 1.61306 6.57502 0
M  V30 5398 H 510.779 -0.0947817 4.22694 0
M  V30 5399 H 508.497 2.85868 7.55847 0
M  V30 5400 H 512.083 1.47083 5.62901 0
M  V30 5401 H 510.963 2.92754 7.27506 0
M  V30 5402 N 508.466 -1.55915 -0.229846 0
M  V30 5403 C 509.713 -1.78542 -0.955452 0
M  V30 5404 C 510.041 -0.610785 -1.84661 0
M  V30 5405 O 509.296 0.405213 -1.91459 0
M  V30 5406 C 509.595 -3.06845 -1.8325 0
M  V30 5407 C 509.261 -4.37395 -1.09528 0
M  V30 5408 C 507.923 -4.72868 -0.891598 0
M  V30 5409 C 510.275 -5.18029 -0.574046 0
M  V30 5410 C 507.603 -5.86496 -0.154655 0
M  V30 5411 C 509.955 -6.32423 0.149513 0
M  V30 5412 C 508.619 -6.66504 0.364519 0
M  V30 5413 H 507.889 -0.653333 -0.349625 0
M  V30 5414 H 510.536 -1.90183 -0.224235 0
M  V30 5415 H 508.841 -2.90291 -2.63132 0
M  V30 5416 H 510.538 -3.21553 -2.39592 0
M  V30 5417 H 507.128 -4.09538 -1.26399 0
M  V30 5418 H 511.312 -4.91066 -0.718899 0
M  V30 5419 H 506.568 -6.11396 0.0222356 0
M  V30 5420 H 510.742 -6.94137 0.560947 0
M  V30 5421 H 508.369 -7.54397 0.937495 0
M  V30 5422 N 509.944 0.496216 -1.49584 0
M  V30 5423 C 511.191 1.25003 -1.59312 0
M  V30 5424 C 511.519 1.92445 -0.28198 0
M  V30 5425 O 510.774 1.81557 0.730452 0
M  V30 5426 C 511.073 2.3359 -2.705 0
M  V30 5427 C 510.739 1.83574 -4.11839 0
M  V30 5428 C 509.401 1.69653 -4.50302 0
M  V30 5429 C 511.753 1.46193 -5.00277 0
M  V30 5430 C 509.081 1.16736 -5.74969 0
M  V30 5431 C 511.433 0.947265 -6.25468 0
M  V30 5432 C 510.097 0.794485 -6.62755 0
M  V30 5433 H 509.367 0.45742 -0.582965 0
M  V30 5434 H 512.014 0.549996 -1.83432 0
M  V30 5435 H 510.319 3.09401 -2.40371 0
M  V30 5436 H 512.016 2.91627 -2.75235 0
M  V30 5437 H 508.606 1.9537 -3.81482 0
M  V30 5438 H 512.79 1.55793 -4.71214 0
M  V30 5439 H 508.046 1.03623 -6.02555 0
M  V30 5440 H 512.22 0.648846 -6.93371 0
M  V30 5441 H 509.847 0.382271 -7.59238 0
M  V30 5442 N 511.423 1.38739 0.74761 0
M  V30 5443 C 512.353 1.39173 1.87492 0
M  V30 5444 C 513.334 0.256794 1.6815 0
M  V30 5445 O 514.519 0.460762 1.88655 0
M  V30 5446 C 511.649 1.22197 3.25093 0
M  V30 5447 C 510.603 2.32957 3.59047 0
M  V30 5448 C 509.929 2.01082 4.95449 0
M  V30 5449 C 511.229 3.75237 3.6331 0
M  V30 5450 H 512.923 2.3351 1.87386 0
M  V30 5451 H 510.469 1.12399 0.900134 0
M  V30 5452 H 512.422 1.21124 4.03617 0
M  V30 5453 H 511.146 0.243241 3.25693 0
M  V30 5454 H 509.805 2.33226 2.82845 0
M  V30 5455 H 509.453 1.01678 4.92616 0
M  V30 5456 H 509.153 2.75267 5.19136 0
M  V30 5457 H 510.677 2.01638 5.76346 0
M  V30 5458 H 512.091 3.76966 4.31937 0
M  V30 5459 H 510.488 4.48677 3.98509 0
M  V30 5460 H 511.558 4.07122 2.634 0
M  V30 5461 N 512.901 -0.976442 1.23707 0
M  V30 5462 C 513.831 -2.08749 1.04624 0
M  V30 5463 C 514.812 -1.70057 -0.0380956 0
M  V30 5464 O 515.997 -1.93782 0.127308 0
M  V30 5465 C 513.127 -3.41335 0.640902 0
M  V30 5466 C 512.081 -3.93947 1.67302 0
M  V30 5467 C 511.407 -5.22774 1.12301 0
M  V30 5468 C 512.707 -4.22769 3.06697 0
M  V30 5469 H 514.401 -2.24972 1.97555 0
M  V30 5470 H 511.947 -1.08108 0.951247 0
M  V30 5471 H 513.9 -4.18489 0.494434 0
M  V30 5472 H 512.624 -3.24988 -0.324099 0
M  V30 5473 H 511.283 -3.18941 1.80755 0
M  V30 5474 H 510.931 -5.0278 0.148877 0
M  V30 5475 H 510.631 -5.58942 1.81267 0
M  V30 5476 H 512.155 -6.02546 0.988479 0
M  V30 5477 H 513.569 -4.90659 2.96524 0
M  V30 5478 H 511.966 -4.70147 3.72937 0
M  V30 5479 H 513.036 -3.29885 3.55392 0
M  V30 5480 N 514.379 -1.04941 -1.1758 0
M  V30 5481 C 515.626 -0.757989 -1.87779 0
M  V30 5482 C 515.954 0.714827 -1.80888 0
M  V30 5483 O 515.209 1.53824 -1.20982 0
M  V30 5484 C 515.508 -1.18062 -3.37337 0
M  V30 5485 C 515.174 -2.65521 -3.6443 0
M  V30 5486 C 513.836 -3.05804 -3.71534 0
M  V30 5487 C 516.188 -3.60822 -3.76108 0
M  V30 5488 C 513.516 -4.40256 -3.87803 0
M  V30 5489 C 515.868 -4.95005 -3.93895 0
M  V30 5490 C 514.532 -5.34945 -3.99237 0
M  V30 5491 H 513.802 -0.277368 -0.68713 0
M  V30 5492 H 516.449 -1.31603 -1.39115 0
M  V30 5493 H 514.754 -0.541525 -3.8804 0
M  V30 5494 H 516.451 -0.932368 -3.9001 0
M  V30 5495 H 513.041 -2.33324 -3.59524 0
M  V30 5496 H 517.225 -3.30841 -3.69943 0
M  V30 5497 H 512.481 -4.70707 -3.90186 0
M  V30 5498 H 516.655 -5.68746 -4.01872 0
M  V30 5499 H 514.282 -6.39135 -4.11596 0
M  V30 5500 N 515.857 1.33968 -0.830081 0
M  V30 5501 C 517.104 1.98063 -0.421566 0
M  V30 5502 C 517.432 1.65787 1.0171 0
M  V30 5503 O 516.687 0.925348 1.72441 0
M  V30 5504 C 516.986 3.52679 -0.57898 0
M  V30 5505 C 516.652 4.04884 -1.98443 0
M  V30 5506 C 515.314 4.18852 -2.36888 0
M  V30 5507 C 517.666 4.32879 -2.90285 0
M  V30 5508 C 514.994 4.58145 -3.66497 0
M  V30 5509 C 517.346 4.7362 -4.19364 0
M  V30 5510 C 516.01 4.85794 -4.57778 0
M  V30 5511 H 515.28 0.724765 -0.154262 0
M  V30 5512 H 517.927 1.59792 -1.05541 0
M  V30 5513 H 516.232 3.91556 0.138219 0
M  V30 5514 H 517.929 4.00261 -0.243317 0
M  V30 5515 H 514.519 3.9448 -1.67581 0
M  V30 5516 H 518.703 4.21619 -2.61823 0
M  V30 5517 H 513.959 4.65762 -3.96075 0
M  V30 5518 H 518.133 4.9424 -4.90612 0
M  V30 5519 H 515.76 5.15998 -5.58256 0
M  V30 5520 N 517.335 0.585699 1.46312 0
M  V30 5521 C 518.298 -0.135673 2.28798 0
M  V30 5522 C 519.298 -0.815988 1.38558 0
M  V30 5523 O 520.488 -0.667487 1.60904 0
M  V30 5524 C 517.62 -1.20163 3.1902 0
M  V30 5525 H 518.813 0.589257 2.94054 0
M  V30 5526 H 516.366 0.343794 1.52472 0
M  V30 5527 H 517.101 -1.95804 2.58517 0
M  V30 5528 H 516.886 -0.718282 3.85465 0
M  V30 5529 H 518.376 -1.70749 3.81096 0
M  V30 5530 N 518.813 -1.54241 0.323641 0
M  V30 5531 C 520.061 -2.00174 -0.278359 0
M  V30 5532 C 520.382 -1.2134 -1.52648 0
M  V30 5533 O 519.652 -0.315244 -1.93347 0
M  V30 5534 H 518.232 -0.739463 -0.105845 0
M  V30 5535 H 520.894 -1.89864 0.440204 0
M  V30 5536 H 519.99 -3.07486 -0.5347 0
M  V30 5537 N 520.291 -0.0518155 -1.57515 0
M  V30 5538 C 521.221 0.920283 -2.146 0
M  V30 5539 C 522.202 1.32406 -1.06783 0
M  V30 5540 O 523.387 1.39866 -1.34726 0
M  V30 5541 C 520.517 2.1949 -2.6915 0
M  V30 5542 C 519.471 1.93116 -3.81956 0
M  V30 5543 C 518.797 3.27037 -4.23026 0
M  V30 5544 C 520.097 1.25225 -5.07066 0
M  V30 5545 H 521.791 0.444801 -2.96077 0
M  V30 5546 H 519.337 0.212508 -1.42423 0
M  V30 5547 H 521.29 2.87894 -3.07725 0
M  V30 5548 H 520.014 2.69244 -1.84865 0
M  V30 5549 H 518.673 1.27123 -3.43854 0
M  V30 5550 H 518.321 3.74595 -3.3569 0
M  V30 5551 H 518.021 3.10189 -4.99056 0
M  V30 5552 H 519.545 3.96673 -4.64202 0
M  V30 5553 H 520.959 1.83666 -5.43083 0
M  V30 5554 H 519.356 1.18702 -5.88243 0
M  V30 5555 H 520.426 0.228382 -4.84362 0
M  V30 5556 N 521.769 1.56035 0.221574 0
M  V30 5557 C 522.997 1.8313 0.962864 0
M  V30 5558 C 523.412 0.630934 1.77946 0
M  V30 5559 O 522.769 -0.400519 1.78051 0
M  V30 5560 C 522.82 3.08742 1.88045 0
M  V30 5561 O 522.541 4.24147 1.09686 0
M  V30 5562 C 524.042 3.48824 2.73563 0
M  V30 5563 H 521.262 0.608775 0.282194 0
M  V30 5564 H 523.806 2.03124 0.23681 0
M  V30 5565 H 521.961 2.90723 2.56045 0
M  V30 5566 H 522.375 4.95505 1.71974 0
M  V30 5567 H 523.849 4.39752 3.3365 0
M  V30 5568 H 524.326 2.70575 3.45956 0
M  V30 5569 H 524.932 3.69282 2.10976 0
M  V30 5570 N 523.247 -0.488276 1.49845 0
M  V30 5571 C 524.472 -1.26997 1.63971 0
M  V30 5572 C 524.897 -1.85427 0.315994 0
M  V30 5573 O 524.255 -1.66475 -0.718032 0
M  V30 5574 C 524.303 -2.36689 2.72049 0
M  V30 5575 O 523.407 -3.40882 2.32107 0
M  V30 5576 H 522.748 -0.374376 0.548396 0
M  V30 5577 H 525.278 -0.583104 1.96115 0
M  V30 5578 H 525.288 -2.82262 2.94605 0
M  V30 5579 H 523.963 -1.93529 3.68129 0
M  V30 5580 H 522.54 -3.01139 2.19931 0
M  V30 5581 N 524.725 -1.39134 -0.740242 0
M  V30 5582 C 525.95 -1.39518 -1.53459 0
M  V30 5583 C 526.375 0.00968883 -1.88098 0
M  V30 5584 O 525.733 0.995312 -1.51536 0
M  V30 5585 C 525.781 -2.26981 -2.802 0
M  V30 5586 O 524.885 -1.69609 -3.75908 0
M  V30 5587 H 524.226 -0.475328 -0.463637 0
M  V30 5588 H 526.756 -1.83064 -0.913717 0
M  V30 5589 H 526.766 -2.41309 -3.28989 0
M  V30 5590 H 525.441 -3.29081 -2.5432 0
M  V30 5591 H 524.018 -1.64495 -3.34658 0
M  V30 5592 N 526.204 0.969867 -1.24223 0
M  V30 5593 C 527.453 1.70687 -1.07466 0
M  V30 5594 C 527.766 1.91736 0.386861 0
M  V30 5595 O 528.972 2.62986 0.674581 0
M  V30 5596 C 527.428 3.07217 -1.87472 0
M  V30 5597 C 527.036 2.94018 -3.3802 0
M  V30 5598 C 528.78 3.84804 -1.79237 0
M  V30 5599 C 526.687 4.25844 -4.10379 0
M  V30 5600 H 525.617 0.640067 -0.398536 0
M  V30 5601 H 528.268 1.08092 -1.48285 0
M  V30 5602 H 526.65 3.70628 -1.39466 0
M  V30 5603 H 527.824 2.39632 -3.9359 0
M  V30 5604 H 526.139 2.29898 -3.47183 0
M  V30 5605 H 528.736 4.82417 -2.30603 0
M  V30 5606 H 529.079 4.09356 -0.757197 0
M  V30 5607 H 529.612 3.28115 -2.24912 0
M  V30 5608 H 526.351 4.06486 -5.14246 0
M  V30 5609 H 525.871 4.80054 -3.59594 0
M  V30 5610 H 527.55 4.94475 -4.17257 0
M  V30 5611 N 527.682 1.05563 1.17022 0
M  V30 5612 C 528.645 0.664098 2.19368 0
M  V30 5613 C 529.645 -0.286358 1.5823 0
M  V30 5614 O 530.835 -0.069728 1.7406 0
M  V30 5615 C 527.967 -0.0239932 3.40892 0
M  V30 5616 H 529.16 1.57 2.55521 0
M  V30 5617 H 526.713 0.849964 1.31169 0
M  V30 5618 H 527.448 -0.942988 3.10287 0
M  V30 5619 H 527.233 0.659351 3.86516 0
M  V30 5620 H 528.723 -0.283909 4.16634 0
M  V30 5621 N 529.16 -1.33526 0.837174 0
M  V30 5622 C 530.409 -1.97098 0.428387 0
M  V30 5623 C 530.722 -1.67062 -1.01734 0
M  V30 5624 O 531.928 -2.24235 -1.53072 0
M  V30 5625 C 530.384 -3.52725 0.715075 0
M  V30 5626 C 529.992 -3.9164 2.17537 0
M  V30 5627 C 531.736 -4.22857 0.373154 0
M  V30 5628 C 529.643 -5.40237 2.40619 0
M  V30 5629 H 528.573 -0.737589 0.156455 0
M  V30 5630 H 531.224 -1.52169 1.02552 0
M  V30 5631 H 529.606 -3.95971 0.0475904 0
M  V30 5632 H 530.78 -3.59456 2.88319 0
M  V30 5633 H 529.095 -3.34485 2.4801 0
M  V30 5634 H 531.692 -5.32133 0.523264 0
M  V30 5635 H 532.035 -4.10647 -0.683708 0
M  V30 5636 H 532.568 -3.85135 0.995801 0
M  V30 5637 H 529.307 -5.57449 3.44864 0
M  V30 5638 H 528.827 -5.73887 1.74396 0
M  V30 5639 H 530.506 -6.07102 2.23688 0
M  V30 5640 N 530.638 -0.59345 -1.46 0
M  V30 5641 C 531.571 0.182196 -2.27472 0
M  V30 5642 C 532.549 0.886901 -1.36282 0
M  V30 5643 O 533.733 0.898627 -1.65701 0
M  V30 5644 C 530.86 1.26236 -3.14296 0
M  V30 5645 C 529.906 0.662331 -4.21326 0
M  V30 5646 S 530.739 -0.519017 -5.32979 0
M  V30 5647 C 531.895 0.562086 -6.23371 0
M  V30 5648 H 532.128 -0.509056 -2.92909 0
M  V30 5649 H 529.661 -0.380607 -1.49635 0
M  V30 5650 H 531.619 1.88075 -3.64881 0
M  V30 5651 H 530.28 1.92562 -2.48151 0
M  V30 5652 H 529.473 1.47461 -4.81945 0
M  V30 5653 H 529.075 0.119381 -3.73809 0
M  V30 5654 H 531.367 1.44494 -6.61912 0
M  V30 5655 H 532.31 -0.00760776 -7.081 0
M  V30 5656 H 532.718 0.871061 -5.57739 0
M  V30 5657 N 532.116 1.54067 -0.331816 0
M  V30 5658 C 533.048 2.22139 0.564538 0
M  V30 5659 C 534.061 1.22408 1.07332 0
M  V30 5660 O 535.25 1.4883 0.985481 0
M  V30 5661 C 532.35 2.87876 1.78831 0
M  V30 5662 C 531.523 4.13817 1.41682 0
M  V30 5663 C 530.582 4.63072 2.49901 0
M  V30 5664 O 529.608 5.27562 2.13699 0
M  V30 5665 N 530.81 4.38001 3.80967 0
M  V30 5666 H 533.575 2.99694 -0.0183736 0
M  V30 5667 H 531.136 1.61153 -0.155396 0
M  V30 5668 H 533.128 3.17747 2.50637 0
M  V30 5669 H 531.698 2.13977 2.27887 0
M  V30 5670 H 530.918 3.9062 0.530044 0
M  V30 5671 H 532.206 4.95762 1.14443 0
M  V30 5672 H 531.604 3.864 4.13173 0
M  V30 5673 H 530.161 4.72507 4.48977 0
M  V30 5674 N 533.594 0.0601682 1.57485 0
M  V30 5675 C 535.005 -0.474217 1.80577 0
M  V30 5676 C 535.356 -1.70365 0.973147 0
M  V30 5677 O 534.481 -2.15544 0.192306 0
M  V30 5678 C 535.076 -0.867102 3.27516 0
M  V30 5679 C 533.635 -1.34642 3.51495 0
M  V30 5680 C 532.782 -0.32594 2.75378 0
M  V30 5681 H 535.733 0.285973 1.56102 0
M  V30 5682 H 535.754 -1.72938 3.38929 0
M  V30 5683 H 535.266 0.0278927 3.8809 0
M  V30 5684 H 533.367 -2.2603 2.96212 0
M  V30 5685 H 533.48 -1.33237 4.60201 0
M  V30 5686 H 531.844 -0.800749 2.41785 0
M  V30 5687 H 532.627 0.561125 3.38683 0
M  V30 5688 N 535.072 -1.5615 -0.213296 0
M  V30 5689 C 536.005 -1.88115 -1.29182 0
M  V30 5690 C 536.983 -0.739348 -1.44819 0
M  V30 5691 O 538.167 -0.988541 -1.605 0
M  V30 5692 C 535.294 -2.09541 -2.66102 0
M  V30 5693 C 534.34 -3.32236 -2.67436 0
M  V30 5694 S 535.173 -4.87915 -2.20679 0
M  V30 5695 C 536.329 -5.12387 -3.59458 0
M  V30 5696 H 536.562 -2.793 -1.01876 0
M  V30 5697 H 534.095 -1.48692 -0.415934 0
M  V30 5698 H 536.053 -2.22568 -3.44925 0
M  V30 5699 H 534.714 -1.19138 -2.90628 0
M  V30 5700 H 533.907 -3.44297 -3.6807 0
M  V30 5701 H 533.509 -3.18108 -1.96681 0
M  V30 5702 H 535.801 -5.01791 -4.55205 0
M  V30 5703 H 536.744 -6.14236 -3.52306 0
M  V30 5704 H 537.152 -4.40089 -3.53528 0
M  V30 5705 N 536.55 0.480323 -1.50102 0
M  V30 5706 C 537.799 1.22979 -1.59872 0
M  V30 5707 C 538.112 1.93282 -0.30022 0
M  V30 5708 O 539.318 2.70086 -0.276709 0
M  V30 5709 C 537.774 2.23408 -2.82164 0
M  V30 5710 C 537.382 1.5895 -4.18854 0
M  V30 5711 C 539.126 2.99055 -3.01275 0
M  V30 5712 C 537.033 2.57611 -5.32344 0
M  V30 5713 H 535.963 0.462707 -0.59533 0
M  V30 5714 H 538.614 0.501291 -1.7652 0
M  V30 5715 H 536.996 2.99511 -2.59055 0
M  V30 5716 H 538.17 0.887 -4.52182 0
M  V30 5717 H 536.485 0.956191 -4.05273 0
M  V30 5718 H 539.082 3.72876 -3.83233 0
M  V30 5719 H 539.425 3.57897 -2.12639 0
M  V30 5720 H 539.958 2.30066 -3.24522 0
M  V30 5721 H 536.697 2.03521 -6.23105 0
M  V30 5722 H 536.217 3.26041 -5.03445 0
M  V30 5723 H 537.896 3.19627 -5.62537 0
M  V30 5724 N 538.028 1.39524 0.732853 0
M  V30 5725 C 538.991 1.38189 1.82857 0
M  V30 5726 C 539.991 0.278624 1.58368 0
M  V30 5727 O 541.181 0.536639 1.65728 0
M  V30 5728 C 538.313 1.15661 3.2068 0
M  V30 5729 H 539.506 2.35692 1.85444 0
M  V30 5730 H 537.059 1.2512 0.936728 0
M  V30 5731 H 537.794 0.188482 3.23752 0
M  V30 5732 H 537.579 1.95559 3.39852 0
M  V30 5733 H 539.069 1.17472 4.00737 0
M  V30 5734 N 539.506 -0.963266 1.24736 0
M  V30 5735 C 540.753 -1.7068 1.0897 0
M  V30 5736 C 541.081 -1.90934 -0.370751 0
M  V30 5737 O 540.336 -1.47155 -1.29011 0
M  V30 5738 C 540.635 -3.09944 1.7796 0
M  V30 5739 C 540.301 -3.09518 3.27887 0
M  V30 5740 C 538.963 -3.09109 3.68789 0
M  V30 5741 C 541.315 -3.03509 4.23712 0
M  V30 5742 C 538.643 -3.00429 5.03944 0
M  V30 5743 C 540.995 -2.96371 5.5888 0
M  V30 5744 C 539.659 -2.94293 5.99123 0
M  V30 5745 H 538.929 -0.624564 0.398749 0
M  V30 5746 H 541.576 -1.12603 1.54896 0
M  V30 5747 H 539.881 -3.71513 1.2444 0
M  V30 5748 H 541.578 -3.66278 1.63222 0
M  V30 5749 H 538.168 -3.10603 2.95337 0
M  V30 5750 H 542.352 -3.0295 3.93109 0
M  V30 5751 H 537.608 -2.97183 5.34314 0
M  V30 5752 H 541.782 -2.90681 6.32833 0
M  V30 5753 H 539.409 -2.87322 7.03811 0
M  V30 5754 N 540.985 -1.06182 -1.16461 0
M  V30 5755 C 541.915 -0.692861 -2.22984 0
M  V30 5756 C 542.896 0.314122 -1.67174 0
M  V30 5757 O 544.081 0.189499 -1.93273 0
M  V30 5758 C 541.211 -0.07732 -3.47214 0
M  V30 5759 C 540.165 -1.01015 -4.15909 0
M  V30 5760 C 539.491 -0.257973 -5.34077 0
M  V30 5761 C 540.791 -2.33868 -4.67015 0
M  V30 5762 H 542.485 -1.58343 -2.54102 0
M  V30 5763 H 540.031 -0.76279 -1.22137 0
M  V30 5764 H 541.984 0.19266 -4.20959 0
M  V30 5765 H 540.708 0.848254 -3.15392 0
M  V30 5766 H 539.367 -1.26486 -3.44088 0
M  V30 5767 H 539.015 0.670684 -4.98509 0
M  V30 5768 H 538.715 -0.879638 -5.80979 0
M  V30 5769 H 540.239 0.00448788 -6.106 0
M  V30 5770 H 541.653 -2.1279 -5.32347 0
M  V30 5771 H 540.05 -2.91522 -5.24533 0
M  V30 5772 H 541.12 -2.97019 -3.83286 0
M  V30 5773 N 542.463 1.3308 -0.844243 0
M  V30 5774 C 543.373 2.32876 -0.283922 0
M  V30 5775 C 544.389 1.63589 0.592846 0
M  V30 5776 O 545.565 1.95205 0.495693 0
M  V30 5777 C 542.63 3.42667 0.527283 0
M  V30 5778 C 541.691 4.27664 -0.374394 0
M  V30 5779 C 540.924 5.32212 0.39819 0
M  V30 5780 O 541.147 5.46635 1.62932 0
M  V30 5781 O 540.081 6.01458 -0.2306 0
M  V30 5782 H 543.907 2.82671 -1.11045 0
M  V30 5783 H 541.492 1.36518 -0.606903 0
M  V30 5784 H 543.374 4.09652 0.988078 0
M  V30 5785 H 542.049 2.95079 1.33078 0
M  V30 5786 H 540.956 3.63526 -0.883144 0
M  V30 5787 H 542.289 4.78749 -1.1428 0
M  V30 5788 N 543.941 0.601185 1.45683 0
M  V30 5789 C 545.218 0.0261659 1.95582 0
M  V30 5790 C 545.598 -1.4399 1.5437 0
M  V30 5791 O 544.946 -2.13919 0.80318 0
M  V30 5792 C 545.156 0.217557 3.48321 0
M  V30 5793 C 546.504 0.0950076 4.24494 0
M  V30 5794 O 547.528 0.147345 3.55895 0
M  V30 5795 O 546.387 -0.025261 5.46494 0
M  V30 5796 H 543.481 -0.0393688 0.826062 0
M  V30 5797 H 546.027 0.670798 1.55879 0
M  V30 5798 H 544.799 1.23601 3.71266 0
M  V30 5799 H 544.422 -0.46264 3.94899 0
M  V30 5800 N 545.419 -1.53889 0.339982 0
M  V30 5801 C 546.329 -2.28604 -0.526988 0
M  V30 5802 C 547.345 -1.33578 -1.11503 0
M  V30 5803 O 548.521 -1.66612 -1.13148 0
M  V30 5804 C 545.586 -3.04164 -1.66389 0
M  V30 5805 C 544.647 -4.14809 -1.10599 0
M  V30 5806 C 543.88 -4.86756 -2.18871 0
M  V30 5807 O 544.103 -4.58343 -3.39526 0
M  V30 5808 O 543.037 -5.73289 -1.83366 0
M  V30 5809 H 546.863 -3.03594 0.0802707 0
M  V30 5810 H 544.448 -1.4903 0.105141 0
M  V30 5811 H 546.33 -3.51427 -2.32544 0
M  V30 5812 H 545.005 -2.32035 -2.25703 0
M  V30 5813 H 543.912 -3.71857 -0.409067 0
M  V30 5814 H 545.245 -4.89029 -0.557771 0
M  V30 5815 N 546.897 -0.0685191 -1.57451 0
M  V30 5816 C 547.827 0.89747 -2.15564 0
M  V30 5817 C 548.808 1.31266 -1.08181 0
M  V30 5818 O 549.993 1.38429 -1.36202 0
M  V30 5819 C 547.123 2.16623 -2.71463 0
M  V30 5820 C 546.077 1.89054 -3.83982 0
M  V30 5821 C 545.403 3.22532 -4.26471 0
M  V30 5822 C 546.703 1.1984 -5.08366 0
M  V30 5823 H 548.397 0.413373 -2.96533 0
M  V30 5824 H 545.943 0.197391 -1.42641 0
M  V30 5825 H 547.896 2.84614 -3.10761 0
M  V30 5826 H 546.62 2.67269 -1.8771 0
M  V30 5827 H 545.279 1.23469 -3.45183 0
M  V30 5828 H 544.927 3.71013 -3.39644 0
M  V30 5829 H 544.627 3.04879 -5.02317 0
M  V30 5830 H 546.151 3.91727 -4.68383 0
M  V30 5831 H 547.565 1.77896 -5.45001 0
M  V30 5832 H 545.962 1.12456 -5.89469 0
M  V30 5833 H 547.032 0.176996 -4.84577 0
M  V30 5834 N 548.375 1.56261 0.205012 0
M  V30 5835 C 549.322 1.93754 1.25411 0
M  V30 5836 C 550.292 0.796826 1.45739 0
M  V30 5837 O 551.477 1.05414 1.59036 0
M  V30 5838 C 548.617 2.27383 2.59598 0
M  V30 5839 C 547.73 3.5447 2.46931 0
M  V30 5840 C 546.865 3.77468 3.73753 0
M  V30 5841 C 545.904 4.98014 3.55877 0
M  V30 5842 N 545.041 5.17316 4.74688 0
M  V30 5843 H 549.881 2.83203 0.92737 0
M  V30 5844 H 547.418 1.40158 0.446574 0
M  V30 5845 H 549.376 2.44895 3.37761 0
M  V30 5846 H 548.006 1.41088 2.90335 0
M  V30 5847 H 547.058 3.45061 1.60116 0
M  V30 5848 H 548.37 4.42789 2.29651 0
M  V30 5849 H 547.524 3.95165 4.60358 0
M  V30 5850 H 546.263 2.87461 3.93976 0
M  V30 5851 H 545.268 4.80249 2.67657 0
M  V30 5852 H 546.493 5.8952 3.37109 0
M  V30 5853 H 544.439 4.30255 4.95194 0
M  V30 5854 H 544.356 5.99796 4.60197 0
M  V30 5855 H 545.624 5.39463 5.62672 0
M  V30 5856 N 549.853 -0.472356 1.50355 0
M  V30 5857 C 550.783 -1.57859 1.72055 0
M  V30 5858 C 551.764 -1.60283 0.569505 0
M  V30 5859 O 552.949 -1.7657 0.808503 0
M  V30 5860 C 550.079 -2.96191 1.81351 0
M  V30 5861 C 549.033 -3.08633 2.96529 0
M  V30 5862 C 548.359 -4.486 2.90968 0
M  V30 5863 C 549.659 -2.85969 4.37057 0
M  V30 5864 H 551.353 -1.39953 2.64676 0
M  V30 5865 H 548.899 -0.671846 1.27367 0
M  V30 5866 H 550.852 -3.73507 1.95117 0
M  V30 5867 H 549.576 -3.15251 0.853502 0
M  V30 5868 H 548.235 -2.33749 2.82413 0
M  V30 5869 H 547.883 -4.64577 1.92815 0
M  V30 5870 H 547.583 -4.57861 3.68289 0
M  V30 5871 H 549.107 -5.27938 3.0678 0
M  V30 5872 H 550.521 -3.53036 4.51706 0
M  V30 5873 H 548.918 -3.06677 5.15819 0
M  V30 5874 H 549.988 -1.81838 4.49514 0
M  V30 5875 N 551.331 -1.39911 -0.725443 0
M  V30 5876 C 552.556 -1.41137 -1.5197 0
M  V30 5877 C 552.981 -0.010262 -1.88097 0
M  V30 5878 O 552.339 0.979184 -1.52583 0
M  V30 5879 C 552.387 -2.2994 -2.77777 0
M  V30 5880 O 551.491 -1.73586 -3.74088 0
M  V30 5881 H 550.832 -0.480219 -0.458569 0
M  V30 5882 H 553.362 -1.84023 -0.894249 0
M  V30 5883 H 553.372 -2.44785 -3.26411 0
M  V30 5884 H 552.047 -3.31759 -2.50816 0
M  V30 5885 H 550.624 -1.68035 -3.32894 0
M  V30 5886 N 552.809 0.956637 -1.25245 0
M  V30 5887 C 554.225 1.22733 -1.02023 0
M  V30 5888 C 554.425 1.99761 0.264186 0
M  V30 5889 O 553.481 2.32814 0.977436 0
M  V30 5890 C 554.794 2.00367 -2.24217 0
M  V30 5891 C 556.342 2.13418 -2.28958 0
M  V30 5892 C 556.817 2.9445 -3.50803 0
M  V30 5893 N 558.308 3.02029 -3.51187 0
M  V30 5894 C 559.043 3.65116 -4.42129 0
M  V30 5895 N 558.539 4.2983 -5.43339 0
M  V30 5896 N 560.332 3.62237 -4.29815 0
M  V30 5897 H 552.483 0.441282 -2.07765 0
M  V30 5898 H 554.746 0.257686 -0.912306 0
M  V30 5899 H 554.452 1.51165 -3.17556 0
M  V30 5900 H 554.326 3.01077 -2.27228 0
M  V30 5901 H 556.713 2.61819 -1.36143 0
M  V30 5902 H 556.794 1.1202 -2.29968 0
M  V30 5903 H 556.438 2.46741 -4.43939 0
M  V30 5904 H 556.368 3.9607 -3.47039 0
M  V30 5905 H 558.859 2.56007 -2.77973 0
M  V30 5906 H 559.172 4.75819 -6.08947 0
M  V30 5907 H 557.517 4.28465 -5.47214 0
M  V30 5908 H 560.708 3.10863 -3.49974 0
M  V30 5909 H 560.881 4.11117 -5.00886 0
M  V30 5910 N 554.287 1.06798 1.15896 0
M  V30 5911 C 555.234 0.683314 2.20453 0
M  V30 5912 C 556.204 -0.32255 1.62938 0
M  V30 5913 O 557.389 -0.210276 1.89638 0
M  V30 5914 C 554.529 0.0813266 3.45004 0
M  V30 5915 C 553.642 1.13799 4.16742 0
M  V30 5916 C 552.777 0.501598 5.28826 0
M  V30 5917 C 551.816 1.54144 5.92373 0
M  V30 5918 N 550.953 0.928038 6.9594 0
M  V30 5919 H 555.793 1.57932 2.52708 0
M  V30 5920 H 553.33 0.789544 1.24115 0
M  V30 5921 H 555.288 -0.285274 4.16224 0
M  V30 5922 H 553.918 -0.77806 3.13283 0
M  V30 5923 H 552.97 1.62223 3.44075 0
M  V30 5924 H 554.282 1.92664 4.60089 0
M  V30 5925 H 553.436 0.0823162 6.06644 0
M  V30 5926 H 552.175 -0.318883 4.86656 0
M  V30 5927 H 551.18 1.97056 5.13273 0
M  V30 5928 H 552.405 2.3641 6.36621 0
M  V30 5929 H 550.351 0.12836 6.55874 0
M  V30 5930 H 550.268 1.65401 7.37685 0
M  V30 5931 H 551.536 0.534071 7.77668 0
M  V30 5932 N 555.766 -1.3263 0.851289 0
M  V30 5933 C 556.716 -2.26451 0.265302 0
M  V30 5934 C 557.7 -1.49814 -0.586899 0
M  V30 5935 O 558.892 -1.71525 -0.436834 0
M  V30 5936 C 556.021 -3.38895 -0.548212 0
M  V30 5937 C 555.107 -4.2292 0.316189 0
M  V30 5938 N 555.498 -4.86014 1.40084 0
M  V30 5939 C 553.796 -4.45876 0.105356 0
M  V30 5940 C 554.497 -5.48667 1.93235 0
M  V30 5941 N 553.473 -5.29455 1.232 0
M  V30 5942 H 557.275 -2.72757 1.09457 0
M  V30 5943 H 554.789 -1.4668 0.697047 0
M  V30 5944 H 556.786 -4.05111 -0.984402 0
M  V30 5945 H 555.446 -2.94135 -1.37531 0
M  V30 5946 H 556.457 -4.86212 1.78377 0
M  V30 5947 H 553.134 -4.11804 -0.687299 0
M  V30 5948 H 554.524 -6.08865 2.84135 0
M  V30 5949 N 557.244 -0.608902 -1.45362 0
M  V30 5950 C 558.207 0.0992563 -2.28985 0
M  V30 5951 C 559.207 0.793841 -1.39838 0
M  V30 5952 O 560.397 0.641804 -1.61946 0
M  V30 5953 C 557.529 1.15073 -3.20891 0
M  V30 5954 H 558.722 -0.635964 -2.93079 0
M  V30 5955 H 556.275 -0.368007 -1.51906 0
M  V30 5956 H 557.01 1.91667 -2.616 0
M  V30 5957 H 556.795 0.656867 -3.86559 0
M  V30 5958 H 558.285 1.64665 -3.83765 0
M  V30 5959 N 558.722 1.53707 -0.348139 0
M  V30 5960 C 559.968 2.01286 0.247332 0
M  V30 5961 C 560.301 1.23546 1.49834 0
M  V30 5962 O 559.576 0.324331 1.91777 0
M  V30 5963 C 559.859 3.55768 0.556858 0
M  V30 5964 C 559.712 4.44216 -0.706564 0
M  V30 5965 C 561.031 4.1841 1.3646 0
M  V30 5966 H 558.15 0.731677 0.0884201 0
M  V30 5967 H 560.792 1.84106 -0.469584 0
M  V30 5968 H 558.942 3.70539 1.16761 0
M  V30 5969 H 560.614 4.41274 -1.34444 0
M  V30 5970 H 558.857 4.12892 -1.33052 0
M  V30 5971 H 559.528 5.50202 -0.445186 0
M  V30 5972 H 562.004 4.07365 0.848113 0
M  V30 5973 H 560.88 5.26563 1.54992 0
M  V30 5974 H 561.141 3.7333 2.36805 0
M  V30 5975 N 560.2 0.0768682 1.57412 0
M  V30 5976 C 561.13 -0.886026 2.16037 0
M  V30 5977 C 562.111 -1.30691 1.08876 0
M  V30 5978 O 563.296 -1.37705 1.36934 0
M  V30 5979 C 560.426 -2.1518 2.72608 0
M  V30 5980 C 559.38 -1.87015 3.8498 0
M  V30 5981 C 558.706 -3.20266 4.28175 0
M  V30 5982 C 560.006 -1.17143 5.08994 0
M  V30 5983 H 561.7 -0.397642 2.96748 0
M  V30 5984 H 559.246 -0.189823 1.42743 0
M  V30 5985 H 561.199 -2.82962 3.12266 0
M  V30 5986 H 559.923 -2.66269 1.89125 0
M  V30 5987 H 558.582 -1.21636 3.45833 0
M  V30 5988 H 558.23 -3.69207 3.41607 0
M  V30 5989 H 557.93 -3.0221 5.03927 0
M  V30 5990 H 559.454 -3.89237 4.70454 0
M  V30 5991 H 560.868 -1.75003 5.45937 0
M  V30 5992 H 559.265 -1.09328 5.90057 0
M  V30 5993 H 560.335 -0.151295 4.84664 0
M  V30 5994 N 561.678 -1.56367 -0.196722 0
M  V30 5995 C 562.924 -1.81698 -0.914182 0
M  V30 5996 C 563.279 -0.65367 -1.80956 0
M  V30 5997 O 562.572 0.351224 -1.88353 0
M  V30 5998 C 562.766 -3.10663 -1.767 0
M  V30 5999 C 562.595 -4.39428 -0.955689 0
M  V30 6000 C 561.365 -5.01221 -0.64076 0
M  V30 6001 C 563.563 -5.1337 -0.309165 0
M  V30 6002 N 561.545 -6.13608 0.189358 0
M  V30 6003 C 562.916 -6.18815 0.383225 0
M  V30 6004 C 564.971 -4.97393 -0.224726 0
M  V30 6005 C 563.674 -7.10015 1.15201 0
M  V30 6006 C 565.7 -5.89014 0.530658 0
M  V30 6007 C 565.062 -6.93903 1.2115 0
M  V30 6008 H 561.161 -0.716203 -0.31397 0
M  V30 6009 H 563.745 -1.93838 -0.18304 0
M  V30 6010 H 561.916 -2.99762 -2.46976 0
M  V30 6011 H 563.648 -3.24088 -2.42382 0
M  V30 6012 H 560.403 -4.63669 -0.96479 0
M  V30 6013 H 560.827 -6.74389 0.593979 0
M  V30 6014 H 565.469 -4.16331 -0.736754 0
M  V30 6015 H 563.187 -7.9054 1.67547 0
M  V30 6016 H 566.773 -5.78726 0.597326 0
M  V30 6017 H 565.653 -7.63576 1.78665 0
M  V30 6018 N 563.156 0.464375 -1.50603 0
M  V30 6019 C 564.384 1.23907 -1.65695 0
M  V30 6020 C 564.799 1.85658 -0.343027 0
M  V30 6021 O 564.156 1.69529 0.675739 0
M  V30 6022 C 564.207 2.3429 -2.75301 0
M  V30 6023 O 563.928 1.7507 -4.01599 0
M  V30 6024 C 565.429 3.25051 -3.01424 0
M  V30 6025 H 562.649 0.374485 -0.556778 0
M  V30 6026 H 565.193 0.55353 -1.96866 0
M  V30 6027 H 563.348 2.98607 -2.46804 0
M  V30 6028 H 563.762 2.47812 -4.62266 0
M  V30 6029 H 565.236 3.98699 -3.81763 0
M  V30 6030 H 565.713 3.84227 -2.12758 0
M  V30 6031 H 566.319 2.66463 -3.31477 0
M  V30 6032 N 564.634 1.40294 0.718013 0
M  V30 6033 C 565.597 1.4012 1.81381 0
M  V30 6034 C 566.597 0.295405 1.58063 0
M  V30 6035 O 567.787 0.554187 1.6515 0
M  V30 6036 C 564.919 1.19056 3.19435 0
M  V30 6037 H 566.112 2.37645 1.82933 0
M  V30 6038 H 563.665 1.26107 0.923405 0
M  V30 6039 H 564.4 0.222809 3.23534 0
M  V30 6040 H 564.185 1.99152 3.37758 0
M  V30 6041 H 565.675 1.21716 3.99468 0
M  V30 6042 N 566.112 -0.949982 1.2575 0
M  V30 6043 C 567.075 -2.02894 1.06615 0
M  V30 6044 C 568.075 -1.60791 0.0173905 0
M  V30 6045 O 569.265 -1.72249 0.260003 0
M  V30 6046 C 566.397 -3.35219 0.619751 0
M  V30 6047 H 567.59 -2.21302 2.02399 0
M  V30 6048 H 565.143 -1.12772 1.08223 0
M  V30 6049 H 565.878 -3.22508 -0.340486 0
M  V30 6050 H 565.663 -3.67129 1.37692 0
M  V30 6051 H 567.153 -4.14505 0.507443 0
M  V30 6052 N 567.59 -1.07411 -1.15328 0
M  V30 6053 C 568.839 -0.792643 -1.85473 0
M  V30 6054 C 569.152 0.683789 -1.83259 0
M  V30 6055 O 570.358 1.08005 -2.49093 0
M  V30 6056 C 568.814 -1.36787 -3.32892 0
M  V30 6057 C 568.422 -2.87536 -3.43551 0
M  V30 6058 C 570.166 -1.16444 -4.08217 0
M  V30 6059 C 568.073 -3.38247 -4.85122 0
M  V30 6060 H 567.003 -0.292838 -0.694811 0
M  V30 6061 H 569.654 -1.29426 -1.30082 0
M  V30 6062 H 568.036 -0.793993 -3.87958 0
M  V30 6063 H 569.21 -3.50973 -2.98588 0
M  V30 6064 H 567.525 -3.06676 -2.81672 0
M  V30 6065 H 570.122 -1.51808 -5.12697 0
M  V30 6066 H 570.465 -0.10353 -4.16171 0
M  V30 6067 H 570.998 -1.70472 -3.59422 0
M  V30 6068 H 567.737 -4.43866 -4.82351 0
M  V30 6069 H 567.257 -2.79564 -5.30664 0
M  V30 6070 H 568.936 -3.34238 -5.5398 0
M  V30 6071 N 569.068 1.32177 -0.85831 0
M  V30 6072 C 570.314 1.97417 -0.46417 0
M  V30 6073 C 570.647 1.67746 0.978514 0
M  V30 6074 O 569.922 0.967654 1.68721 0
M  V30 6075 C 570.205 3.53069 -0.708094 0
M  V30 6076 C 570.058 3.92357 -2.19946 0
M  V30 6077 C 571.377 4.39783 -0.166881 0
M  V30 6078 H 568.496 0.717097 -0.17012 0
M  V30 6079 H 571.138 1.56499 -1.07741 0
M  V30 6080 H 569.288 3.88054 -0.186128 0
M  V30 6081 H 570.96 3.67533 -2.78779 0
M  V30 6082 H 569.203 3.41384 -2.67656 0
M  V30 6083 H 569.874 5.00841 -2.32082 0
M  V30 6084 H 572.35 4.11556 -0.613285 0
M  V30 6085 H 571.226 5.47671 -0.367093 0
M  V30 6086 H 571.487 4.32196 0.930559 0
M  V30 6087 N 570.547 0.616602 1.45037 0
M  V30 6088 C 571.794 0.115331 2.02171 0
M  V30 6089 C 572.122 -1.25748 1.48383 0
M  V30 6090 O 571.377 -1.84511 0.652229 0
M  V30 6091 C 571.676 0.0356829 3.57382 0
M  V30 6092 C 571.342 1.34535 4.30362 0
M  V30 6093 C 570.004 1.70408 4.50016 0
M  V30 6094 C 572.356 2.21049 4.72003 0
M  V30 6095 C 569.684 2.92529 5.0857 0
M  V30 6096 C 572.036 3.42427 5.31908 0
M  V30 6097 C 570.7 3.78541 5.49784 0
M  V30 6098 H 569.97 0.0422024 0.739797 0
M  V30 6099 H 572.617 0.80002 1.73988 0
M  V30 6100 H 570.922 -0.732314 3.84895 0
M  V30 6101 H 572.619 -0.368463 3.99304 0
M  V30 6102 H 569.209 1.05615 4.15383 0
M  V30 6103 H 573.393 1.94632 4.56544 0
M  V30 6104 H 568.649 3.20605 5.20598 0
M  V30 6105 H 572.823 4.09709 5.63127 0
M  V30 6106 H 570.45 4.73255 5.94923 0
M  V30 6107 N 572.025 -1.5352 0.356285 0
M  V30 6108 C 573.272 -2.01117 -0.236303 0
M  V30 6109 C 573.6 -1.24381 -1.49531 0
M  V30 6110 O 572.855 -0.323057 -1.93015 0
M  V30 6111 C 573.154 -3.52607 -0.583369 0
M  V30 6112 C 572.82 -4.47151 0.58023 0
M  V30 6113 C 571.482 -4.72718 0.899528 0
M  V30 6114 C 573.834 -5.03137 1.36024 0
M  V30 6115 C 571.162 -5.51523 2.00098 0
M  V30 6116 C 573.514 -5.83145 2.45204 0
M  V30 6117 C 572.178 -6.07001 2.77679 0
M  V30 6118 H 571.448 -0.735938 -0.0864695 0
M  V30 6119 H 574.095 -1.85209 0.48683 0
M  V30 6120 H 572.4 -3.66413 -1.38739 0
M  V30 6121 H 574.097 -3.86901 -1.05397 0
M  V30 6122 H 570.687 -4.27394 0.321322 0
M  V30 6123 H 574.871 -4.83339 1.12682 0
M  V30 6124 H 570.127 -5.68229 2.25668 0
M  V30 6125 H 574.301 -6.25537 3.06067 0
M  V30 6126 H 571.928 -6.67851 3.63151 0
M  V30 6127 N 573.503 -0.0852151 -1.57369 0
M  V30 6128 C 574.728 0.592872 -1.98746 0
M  V30 6129 C 575.153 1.61538 -0.963689 0
M  V30 6130 O 574.511 1.81168 0.069071 0
M  V30 6131 C 574.559 1.22599 -3.39119 0
M  V30 6132 O 573.663 2.34185 -3.39457 0
M  V30 6133 H 573.004 0.151314 -0.646529 0
M  V30 6134 H 575.534 -0.163703 -2.03944 0
M  V30 6135 H 575.544 1.56965 -3.76598 0
M  V30 6136 H 574.219 0.476831 -4.13158 0
M  V30 6137 H 572.796 2.01512 -3.13763 0
M  V30 6138 N 574.981 1.5647 0.188427 0
M  V30 6139 C 575.944 1.9421 1.21718 0
M  V30 6140 C 576.944 0.823901 1.38089 0
M  V30 6141 O 578.134 1.09122 1.35787 0
M  V30 6142 C 575.266 2.22197 2.58537 0
M  V30 6143 H 576.459 2.86252 0.894418 0
M  V30 6144 H 574.012 1.50263 0.430211 0
M  V30 6145 H 574.747 1.32814 2.95856 0
M  V30 6146 H 574.532 3.03688 2.48025 0
M  V30 6147 H 576.022 2.52376 3.3271 0
M  V30 6148 N 576.459 -0.456382 1.50847 0
M  V30 6149 C 577.409 -1.55045 1.67168 0
M  V30 6150 C 578.393 -1.52061 0.525958 0
M  V30 6151 O 579.585 -1.58836 0.781036 0
M  V30 6152 C 576.714 -2.93386 1.78268 0
M  V30 6153 C 575.8 -3.01198 2.98564 0
M  V30 6154 N 576.191 -2.78792 4.22029 0
M  V30 6155 C 574.489 -3.32346 2.97426 0
M  V30 6156 C 575.19 -2.91953 5.03128 0
M  V30 6157 N 574.166 -3.22797 4.37382 0
M  V30 6158 H 577.968 -1.36444 2.60308 0
M  V30 6159 H 575.482 -0.663375 1.48233 0
M  V30 6160 H 577.479 -3.72071 1.88067 0
M  V30 6161 H 576.139 -3.13022 0.862965 0
M  V30 6162 H 577.15 -2.54087 4.51287 0
M  V30 6163 H 573.827 -3.57877 2.15012 0
M  V30 6164 H 575.217 -2.78745 6.11351 0
M  V30 6165 N 577.937 -1.40673 -0.710563 0
M  V30 6166 C 578.867 -1.44095 -1.83736 0
M  V30 6167 C 579.848 -0.301286 -1.67411 0
M  V30 6168 O 581.033 -0.510618 -1.87367 0
M  V30 6169 C 578.163 -1.30773 -3.21738 0
M  V30 6170 C 577.117 -2.42395 -3.52745 0
M  V30 6171 C 576.443 -2.14147 -4.89944 0
M  V30 6172 C 577.743 -3.84738 -3.53234 0
M  V30 6173 H 579.437 -2.38396 -1.81129 0
M  V30 6174 H 576.983 -1.14746 -0.870017 0
M  V30 6175 H 578.936 -1.31783 -4.00264 0
M  V30 6176 H 577.66 -0.329507 -3.24934 0
M  V30 6177 H 576.319 -2.40643 -2.76562 0
M  V30 6178 H 575.967 -1.14703 -4.89747 0
M  V30 6179 H 575.667 -2.88934 -5.11655 0
M  V30 6180 H 577.191 -2.16848 -5.70797 0
M  V30 6181 H 578.605 -3.88286 -4.2179 0
M  V30 6182 H 577.002 -4.59085 -3.86473 0
M  V30 6183 H 578.072 -4.13962 -2.52514 0
M  V30 6184 N 579.415 0.9433 -1.26252 0
M  V30 6185 C 580.661 1.69175 -1.11837 0
M  V30 6186 C 580.994 1.91238 0.337891 0
M  V30 6187 O 580.269 1.49152 1.24836 0
M  V30 6188 C 580.552 3.06783 -1.88563 0
M  V30 6189 C 580.405 2.9206 -3.42083 0
M  V30 6190 C 581.724 4.06865 -1.67776 0
M  V30 6191 H 578.843 0.61399 -0.407658 0
M  V30 6192 H 581.485 1.09572 -1.55222 0
M  V30 6193 H 579.635 3.57663 -1.51689 0
M  V30 6194 H 581.307 2.48419 -3.88698 0
M  V30 6195 H 579.55 2.27731 -3.69217 0
M  V30 6196 H 580.221 3.89651 -3.90994 0
M  V30 6197 H 582.697 3.64939 -1.99897 0
M  V30 6198 H 581.573 5.01168 -2.23879 0
M  V30 6199 H 581.834 4.37705 -0.621816 0
M  V30 6200 N 580.893 1.08022 1.14757 0
M  V30 6201 C 581.826 0.650738 2.18725 0
M  V30 6202 C 582.804 -0.335496 1.59101 0
M  V30 6203 O 583.988 -0.240295 1.86962 0
M  V30 6204 C 581.115 -0.0434377 3.38672 0
M  V30 6205 C 580.161 0.90232 4.16846 0
M  V30 6206 S 580.994 2.40693 4.78359 0
M  V30 6207 C 582.15 1.72475 6.01667 0
M  V30 6208 H 582.383 1.53152 2.54817 0
M  V30 6209 H 579.916 0.894823 1.25826 0
M  V30 6210 H 581.874 -0.437684 4.0816 0
M  V30 6211 H 580.535 -0.900659 3.0091 0
M  V30 6212 H 579.728 0.363445 5.02688 0
M  V30 6213 H 579.33 1.23728 3.52941 0
M  V30 6214 H 581.622 1.0404 6.69464 0
M  V30 6215 H 582.565 2.56175 6.60136 0
M  V30 6216 H 582.973 1.19979 5.51602 0
M  V30 6217 N 582.371 -1.3172 0.865308 0
M  V30 6218 C 583.618 -1.96876 0.473931 0
M  V30 6219 C 583.946 -1.68425 -0.972786 0
M  V30 6220 O 583.201 -0.970742 -1.69927 0
M  V30 6221 C 583.5 -3.5102 0.672283 0
M  V30 6222 C 583.166 -3.9948 2.09108 0
M  V30 6223 C 581.828 -4.12425 2.4791 0
M  V30 6224 C 584.18 -4.2503 3.0166 0
M  V30 6225 C 581.508 -4.48267 3.78515 0
M  V30 6226 C 583.86 -4.62335 4.31774 0
M  V30 6227 C 582.524 -4.73486 4.70497 0
M  V30 6228 H 581.794 -0.72042 0.173424 0
M  V30 6229 H 584.441 -1.56937 1.0974 0
M  V30 6230 H 582.746 -3.91785 -0.034356 0
M  V30 6231 H 584.443 -3.99475 0.349353 0
M  V30 6232 H 581.033 -3.89898 1.77981 0
M  V30 6233 H 585.217 -4.14529 2.7291 0
M  V30 6234 H 580.473 -4.55097 4.08285 0
M  V30 6235 H 584.647 -4.81058 5.03543 0
M  V30 6236 H 582.274 -5.01016 5.71741 0
M  V30 6237 N 583.85 -0.624285 -1.44708 0
M  V30 6238 C 584.779 0.0717025 -2.3339 0
M  V30 6239 C 585.76 0.841814 -1.47809 0
M  V30 6240 O 586.946 0.809056 -1.76544 0
M  V30 6241 C 584.076 1.05852 -3.30776 0
M  V30 6242 C 583.029 0.400503 -4.26122 0
M  V30 6243 C 582.356 1.49674 -5.13324 0
M  V30 6244 C 583.656 -0.688924 -5.17737 0
M  V30 6245 H 585.35 -0.668819 -2.91834 0
M  V30 6246 H 582.896 -0.32308 -1.40329 0
M  V30 6247 H 584.849 1.5541 -3.91696 0
M  V30 6248 H 583.572 1.82984 -2.70526 0
M  V30 6249 H 582.231 -0.0743687 -3.66525 0
M  V30 6250 H 581.88 2.25877 -4.49431 0
M  V30 6251 H 581.58 1.06188 -5.77926 0
M  V30 6252 H 583.104 1.99427 -5.77115 0
M  V30 6253 H 584.518 -0.276724 -5.72632 0
M  V30 6254 H 582.915 -1.04652 -5.90904 0
M  V30 6255 H 583.985 -1.55884 -4.5916 0
M  V30 6256 N 585.328 1.53329 -0.364422 0
M  V30 6257 C 586.276 2.27212 0.497737 0
M  V30 6258 C 587.27 1.30146 1.08437 0
M  V30 6259 O 588.476 1.47778 1.0277 0
M  V30 6260 H 584.851 0.730329 0.179232 0
M  V30 6261 H 586.822 2.98037 -0.147182 0
M  V30 6262 C 585.571 3.07333 1.6261 0
M  V30 6263 H 584.894 3.81866 1.184 0
M  V30 6264 H 586.334 3.62209 2.20409 0
M  V30 6265 C 584.793 2.18102 2.56775 0
M  V30 6266 O 585.323 1.79104 3.59562 0
M  V30 6267 N 583.529 1.82759 2.25937 0
M  V30 6268 H 583.076 2.14671 1.42387 0
M  V30 6269 H 583.034 1.23342 2.89196 0
M  V30 6270 N 586.806 0.0935595 1.57322 0
M  V30 6271 C 587.753 -0.865935 2.1394 0
M  V30 6272 C 588.723 -1.28083 1.05754 0
M  V30 6273 O 589.908 -1.36285 1.33533 0
M  V30 6274 C 587.048 -2.12023 2.72287 0
M  V30 6275 C 586.161 -1.756 3.94701 0
M  V30 6276 C 585.296 -2.95804 4.41218 0
M  V30 6277 C 584.335 -2.555 5.56225 0
M  V30 6278 N 583.472 -3.68534 5.97601 0
M  V30 6279 H 588.312 -0.376261 2.95615 0
M  V30 6280 H 585.849 -0.174052 1.46067 0
M  V30 6281 H 587.807 -2.85477 3.04235 0
M  V30 6282 H 586.437 -2.58492 1.93343 0
M  V30 6283 H 585.489 -0.921208 3.69077 0
M  V30 6284 H 586.801 -1.41964 4.78171 0
M  V30 6285 H 585.955 -3.77513 4.74941 0
M  V30 6286 H 584.694 -3.32649 3.56645 0
M  V30 6287 H 583.699 -1.72218 5.22131 0
M  V30 6288 H 584.924 -2.19801 6.42545 0
M  V30 6289 H 582.87 -4.051 5.15974 0
M  V30 6290 H 582.787 -3.38737 6.75865 0
M  V30 6291 H 584.055 -4.50757 6.35955 0
M  V30 6292 N 588.284 -1.56567 -0.180126 0
M  V30 6293 C 589.509 -1.85975 -0.918041 0
M  V30 6294 C 589.934 -0.678888 -1.75422 0
M  V30 6295 O 589.292 0.372168 -1.77439 0
M  V30 6296 C 589.34 -3.13731 -1.77779 0
M  V30 6297 O 588.444 -2.95335 -2.87838 0
M  V30 6298 H 587.785 -0.61196 -0.257683 0
M  V30 6299 H 590.315 -2.03798 -0.180923 0
M  V30 6300 H 590.325 -3.4491 -2.17948 0
M  V30 6301 H 589 -3.99293 -1.16352 0
M  V30 6302 H 587.577 -2.7549 -2.51316 0
M  V30 6303 N 589.762 0.448376 -1.51087 0
M  V30 6304 C 590.692 1.55102 -1.74544 0
M  V30 6305 C 591.673 1.59357 -0.594932 0
M  V30 6306 O 592.858 1.75261 -0.836491 0
M  V30 6307 C 589.988 2.93268 -1.86041 0
M  V30 6308 C 588.942 3.03877 -3.01402 0
M  V30 6309 C 588.268 4.43914 -2.98068 0
M  V30 6310 C 589.568 2.7898 -4.41551 0
M  V30 6311 H 591.262 1.35724 -2.66869 0
M  V30 6312 H 588.808 0.651498 -1.28419 0
M  V30 6313 H 590.761 3.70356 -2.01034 0
M  V30 6314 H 589.485 3.13853 -0.903548 0
M  V30 6315 H 588.144 2.29227 -2.86096 0
M  V30 6316 H 587.792 4.6145 -2.00182 0
M  V30 6317 H 587.492 4.51944 -3.75527 0
M  V30 6318 H 589.016 5.22991 -3.1514 0
M  V30 6319 H 590.43 3.45805 -4.57265 0
M  V30 6320 H 588.827 2.98431 -5.20633 0
M  V30 6321 H 589.897 1.74663 -4.5235 0
M  V30 6322 N 591.24 1.41047 0.703093 0
M  V30 6323 C 592.517 1.30493 1.45708 0
M  V30 6324 C 592.897 -0.0709892 2.10981 0
M  V30 6325 O 592.245 -1.08471 2.01113 0
M  V30 6326 C 592.455 2.45287 2.48265 0
M  V30 6327 C 593.803 2.86104 3.13735 0
M  V30 6328 O 594.827 2.44971 2.58587 0
M  V30 6329 O 593.686 3.57206 4.13601 0
M  V30 6330 H 590.78 0.513144 0.648546 0
M  V30 6331 H 593.326 1.52995 0.734208 0
M  V30 6332 H 592.098 3.37135 1.98635 0
M  V30 6333 H 591.721 2.24622 3.28071 0
M  V30 6334 N 592.718 -0.936591 1.26751 0
M  V30 6335 C 593.628 -2.06949 1.10496 0
M  V30 6336 C 594.644 -1.7396 0.037271 0
M  V30 6337 O 595.82 -1.99941 0.241944 0
M  V30 6338 C 592.885 -3.38612 0.744491 0
M  V30 6339 C 591.946 -3.85355 1.89209 0
M  V30 6340 C 591.179 -5.10735 1.54873 0
M  V30 6341 O 591.402 -5.68602 0.452546 0
M  V30 6342 O 590.336 -5.52632 2.38499 0
M  V30 6343 H 594.162 -2.23571 2.05547 0
M  V30 6344 H 591.747 -1.05428 1.05855 0
M  V30 6345 H 593.629 -4.17711 0.556396 0
M  V30 6346 H 592.304 -3.23218 -0.176582 0
M  V30 6347 H 591.211 -3.07182 2.13518 0
M  V30 6348 H 592.544 -4.05277 2.79305 0
M  V30 6349 N 594.196 -1.08629 -1.14182 0
M  V30 6350 C 595.129 -0.662329 -2.18377 0
M  V30 6351 C 596.107 0.327054 -1.59277 0
M  V30 6352 O 597.291 0.230376 -1.87087 0
M  V30 6353 C 594.418 0.0254765 -3.3869 0
M  V30 6354 C 593.464 -0.924414 -4.16361 0
M  V30 6355 S 594.297 -2.43226 -4.77076 0
M  V30 6356 C 595.453 -1.75663 -6.00744 0
M  V30 6357 H 595.686 -1.54501 -2.54001 0
M  V30 6358 H 593.219 -0.901484 -1.2535 0
M  V30 6359 H 595.177 0.416032 -4.08386 0
M  V30 6360 H 593.838 0.884689 -3.01384 0
M  V30 6361 H 593.031 -0.390099 -5.02488 0
M  V30 6362 H 592.633 -1.25598 -3.5228 0
M  V30 6363 H 594.925 -1.07589 -6.68903 0
M  V30 6364 H 595.868 -2.59673 -6.58768 0
M  V30 6365 H 596.276 -1.22903 -5.50958 0
M  V30 6366 N 595.674 1.31259 -0.872281 0
M  V30 6367 C 596.951 1.91362 -0.404943 0
M  V30 6368 C 597.331 1.79362 1.11321 0
M  V30 6369 O 596.679 1.20277 1.94283 0
M  V30 6370 C 596.889 3.3749 -0.888893 0
M  V30 6371 C 598.237 4.14593 -0.916384 0
M  V30 6372 O 599.261 3.46282 -0.834701 0
M  V30 6373 O 598.12 5.3661 -1.03498 0
M  V30 6374 H 595.214 0.818016 -0.121569 0
M  V30 6375 H 597.76 1.39912 -0.960346 0
M  V30 6376 H 596.532 3.40249 -1.93251 0
M  V30 6377 H 596.155 3.96375 -0.311932 0
M  V30 6378 N 597.152 0.631951 1.44375 0
M  V30 6379 C 598.399 0.136767 2.02038 0
M  V30 6380 C 598.727 -1.24168 1.49709 0
M  V30 6381 O 597.982 -1.83809 0.671763 0
M  V30 6382 C 598.281 0.0735861 3.57324 0
M  V30 6383 C 597.947 1.39092 4.28911 0
M  V30 6384 C 596.609 1.75171 4.48184 0
M  V30 6385 C 598.961 2.26042 4.69632 0
M  V30 6386 C 596.289 2.97907 5.05439 0
M  V30 6387 C 598.641 3.4805 5.28246 0
M  V30 6388 C 597.305 3.84351 5.45738 0
M  V30 6389 H 596.575 0.0500466 0.739308 0
M  V30 6390 H 599.222 0.818429 1.7313 0
M  V30 6391 H 597.527 -0.691449 3.8565 0
M  V30 6392 H 599.224 -0.326091 3.99672 0
M  V30 6393 H 595.814 1.10015 4.1424 0
M  V30 6394 H 599.998 1.99463 4.54454 0
M  V30 6395 H 595.254 3.26108 5.17169 0
M  V30 6396 H 599.428 4.15658 5.5875 0
M  V30 6397 H 597.055 4.79538 5.8987 0
M  V30 6398 N 598.631 -1.53133 0.372548 0
M  V30 6399 C 599.877 -2.02336 -0.207823 0
M  V30 6400 C 600.232 -1.25477 -1.45853 0
M  V30 6401 O 599.525 -0.341971 -1.88524 0
M  V30 6402 C 599.719 -3.53206 -0.545938 0
M  V30 6403 C 599.548 -4.44674 0.670454 0
M  V30 6404 C 598.318 -4.91217 1.18465 0
M  V30 6405 C 600.516 -4.90772 1.53777 0
M  V30 6406 N 598.498 -5.66711 2.36034 0
M  V30 6407 C 599.869 -5.64678 2.56004 0
M  V30 6408 C 601.924 -4.72836 1.55983 0
M  V30 6409 C 600.627 -6.22555 3.60303 0
M  V30 6410 C 602.653 -5.31583 2.59179 0
M  V30 6411 C 602.015 -6.05381 3.6013 0
M  V30 6412 H 598.114 -0.781048 -0.0385783 0
M  V30 6413 H 600.698 -1.87665 0.518664 0
M  V30 6414 H 598.869 -3.68024 -1.24149 0
M  V30 6415 H 600.601 -3.89123 -1.112 0
M  V30 6416 H 597.356 -4.67652 0.748205 0
M  V30 6417 H 597.78 -6.09117 2.95475 0
M  V30 6418 H 602.422 -4.15299 0.792877 0
M  V30 6419 H 600.14 -6.79183 4.37876 0
M  V30 6420 H 603.726 -5.19595 2.61749 0
M  V30 6421 H 602.606 -6.50028 4.38672 0
M  V30 6422 N 600.109 -0.101901 -1.5727 0
M  V30 6423 C 601.072 0.840129 -2.13247 0
M  V30 6424 C 602.072 1.20625 -1.06331 0
M  V30 6425 O 603.262 1.13456 -1.32186 0
M  V30 6426 C 600.394 2.13372 -2.65867 0
M  V30 6427 H 601.587 0.353945 -2.97804 0
M  V30 6428 H 599.14 0.147167 -1.55606 0
M  V30 6429 H 599.875 2.66461 -1.84849 0
M  V30 6430 H 599.66 1.88085 -3.44044 0
M  V30 6431 H 601.15 2.80748 -3.09145 0
M  V30 6432 N 601.587 1.56661 0.17182 0
M  V30 6433 C 602.835 1.81606 0.886774 0
M  V30 6434 C 603.156 0.678818 1.82803 0
M  V30 6435 O 602.426 -0.301354 1.93568 0
M  V30 6436 H 601.006 0.669934 0.330451 0
M  V30 6437 H 603.668 1.94142 0.171757 0
M  V30 6438 H 602.764 2.75634 1.46398 0
M  V30 6439 N 603.065 -0.440357 1.51323 0
M  V30 6440 C 604.293 -1.21255 1.67645 0
M  V30 6441 C 604.708 -1.85088 0.37252 0
M  V30 6442 O 604.065 -1.70582 -0.648683 0
M  V30 6443 C 604.116 -2.29881 2.78993 0
M  V30 6444 O 603.837 -1.68659 4.04334 0
M  V30 6445 C 605.338 -3.20214 3.06558 0
M  V30 6446 H 602.558 -0.36558 0.562666 0
M  V30 6447 H 605.102 -0.52214 1.97722 0
M  V30 6448 H 603.257 -2.94643 2.51524 0
M  V30 6449 H 603.671 -2.40426 4.6615 0
M  V30 6450 H 605.145 -3.92575 3.88058 0
M  V30 6451 H 605.622 -3.80794 2.18844 0
M  V30 6452 H 606.228 -2.61156 3.35675 0
M  V30 6453 N 604.543 -1.41418 -0.695603 0
M  V30 6454 C 605.792 -1.40073 -1.4513 0
M  V30 6455 C 606.105 -0.0130439 -1.95596 0
M  V30 6456 O 607.311 0.123032 -2.71221 0
M  V30 6457 C 605.767 -2.46286 -2.62433 0
M  V30 6458 C 605.375 -3.90962 -2.18753 0
M  V30 6459 C 607.119 -2.54077 -3.40066 0
M  V30 6460 C 605.026 -4.88728 -3.33015 0
M  V30 6461 H 603.956 -0.520903 -0.545138 0
M  V30 6462 H 606.607 -1.67242 -0.75515 0
M  V30 6463 H 604.989 -2.12248 -3.34315 0
M  V30 6464 H 606.163 -4.34248 -1.54161 0
M  V30 6465 H 604.478 -3.86831 -1.54114 0
M  V30 6466 H 607.075 -3.24303 -4.25125 0
M  V30 6467 H 607.418 -1.5776 -3.8525 0
M  V30 6468 H 607.951 -2.87206 -2.75241 0
M  V30 6469 H 604.69 -5.86449 -2.92844 0
M  V30 6470 H 604.21 -4.50091 -3.96457 0
M  V30 6471 H 605.889 -5.09483 -3.98793 0
M  V30 6472 N 606.021 0.929856 -1.27246 0
M  V30 6473 C 607.269 1.674 -1.13233 0
M  V30 6474 C 607.59 1.92311 0.322744 0
M  V30 6475 O 606.86 1.52784 1.22612 0
M  V30 6476 H 605.44 0.620411 -0.416052 0
M  V30 6477 H 608.102 1.11663 -1.59741 0
M  V30 6478 H 607.198 2.64308 -1.65975 0
M  V30 6479 N 607.499 1.09233 1.13605 0
M  V30 6480 C 608.745 0.828385 1.8511 0
M  V30 6481 C 609.078 -0.64437 1.83198 0
M  V30 6482 O 608.353 -1.47428 1.26867 0
M  V30 6483 C 608.636 1.36167 3.33363 0
M  V30 6484 C 608.489 2.90038 3.438 0
M  V30 6485 C 609.808 0.993819 4.28732 0
M  V30 6486 H 606.927 0.30239 0.672108 0
M  V30 6487 H 609.569 1.35339 1.33355 0
M  V30 6488 H 607.719 0.9151 3.77569 0
M  V30 6489 H 609.391 3.43128 3.08319 0
M  V30 6490 H 607.634 3.27271 2.84739 0
M  V30 6491 H 608.305 3.22428 4.48045 0
M  V30 6492 H 610.781 1.37893 3.92587 0
M  V30 6493 H 609.657 1.39403 5.30903 0
M  V30 6494 H 609.918 -0.0982206 4.41991 0
M  V30 6495 N 608.977 -1.30795 0.87923 0
M  V30 6496 C 610.223 -1.96653 0.495519 0
M  V30 6497 C 610.556 -1.69282 -0.951703 0
M  V30 6498 O 609.831 -0.994374 -1.6716 0
M  V30 6499 C 610.114 -3.51898 0.764174 0
M  V30 6500 C 609.967 -3.88808 2.2616 0
M  V30 6501 C 611.286 -4.39462 0.236825 0
M  V30 6502 H 608.405 -0.7143 0.181507 0
M  V30 6503 H 611.047 -1.54765 1.10217 0
M  V30 6504 H 609.197 -3.87709 0.247841 0
M  V30 6505 H 610.869 -3.63051 2.8459 0
M  V30 6506 H 609.112 -3.37082 2.73053 0
M  V30 6507 H 609.783 -4.97086 2.4002 0
M  V30 6508 H 612.259 -4.10528 0.678683 0
M  V30 6509 H 611.135 -5.47018 0.454176 0
M  V30 6510 H 611.396 -4.33621 -0.861683 0
M  V30 6511 N 610.455 -0.639598 -1.44038 0
M  V30 6512 C 611.702 -0.14748 -2.01962 0
M  V30 6513 C 612.03 1.23372 -1.50365 0
M  V30 6514 O 611.285 1.8345 -0.681501 0
M  V30 6515 C 611.584 -0.0925348 -3.5728 0
M  V30 6516 C 611.25 -1.41365 -4.28167 0
M  V30 6517 C 609.912 -1.77545 -4.47248 0
M  V30 6518 C 612.264 -2.2853 -4.68427 0
M  V30 6519 C 609.592 -3.00583 -5.03852 0
M  V30 6520 C 611.944 -3.50846 -5.26393 0
M  V30 6521 C 610.608 -3.8724 -5.43692 0
M  V30 6522 H 609.878 -0.0539666 -0.739032 0
M  V30 6523 H 612.525 -0.827599 -1.72694 0
M  V30 6524 H 610.83 0.670987 -3.86012 0
M  V30 6525 H 612.527 0.304891 -3.99839 0
M  V30 6526 H 609.117 -1.1221 -4.13651 0
M  V30 6527 H 613.301 -2.0187 -4.5339 0
M  V30 6528 H 608.557 -3.28846 -5.15432 0
M  V30 6529 H 612.731 -4.18616 -5.56537 0
M  V30 6530 H 610.358 -4.8266 -5.87319 0
M  V30 6531 N 611.933 1.52934 -0.380664 0
M  V30 6532 C 613.18 2.01467 0.204278 0
M  V30 6533 C 613.508 1.26744 1.47533 0
M  V30 6534 O 612.763 0.353723 1.92477 0
M  V30 6535 C 613.062 3.5349 0.527199 0
M  V30 6536 C 612.728 4.46171 -0.651295 0
M  V30 6537 C 611.39 4.71227 -0.974619 0
M  V30 6538 C 613.742 5.00909 -1.44012 0
M  V30 6539 C 611.07 5.4827 -2.08847 0
M  V30 6540 C 613.422 5.7917 -2.5445 0
M  V30 6541 C 612.086 6.02507 -2.87301 0
M  V30 6542 H 611.356 0.73722 0.0747504 0
M  V30 6543 H 614.003 1.84411 -0.516234 0
M  V30 6544 H 612.308 3.68574 1.32892 0
M  V30 6545 H 614.005 3.88529 0.992283 0
M  V30 6546 H 610.595 4.26829 -0.389276 0
M  V30 6547 H 614.779 4.81485 -1.20357 0
M  V30 6548 H 610.035 5.64567 -2.34679 0
M  V30 6549 H 614.209 6.20588 -3.1598 0
M  V30 6550 H 611.836 6.61989 -3.7373 0
M  V30 6551 N 613.412 0.11024 1.57214 0
M  V30 6552 C 614.66 -0.548783 1.94506 0
M  V30 6553 C 614.981 -1.67772 0.99386 0
M  V30 6554 O 614.251 -1.9584 0.0485841 0
M  V30 6555 H 612.831 -0.205715 0.718116 0
M  V30 6556 H 615.493 0.177127 1.94093 0
M  V30 6557 H 614.589 -0.949096 2.97319 0
M  V30 6558 N 614.89 -1.56749 -0.16351 0
M  V30 6559 C 615.82 -2.00042 -1.20438 0
M  V30 6560 C 616.801 -0.877256 -1.45733 0
M  V30 6561 O 617.986 -1.1439 -1.56935 0
M  V30 6562 C 615.116 -2.36697 -2.54149 0
M  V30 6563 C 614.07 -3.52046 -2.43408 0
M  V30 6564 C 613.396 -3.74466 -3.81679 0
M  V30 6565 C 614.696 -4.85247 -1.93216 0
M  V30 6566 H 616.39 -2.87244 -0.844477 0
M  V30 6567 H 613.936 -1.38194 -0.40478 0
M  V30 6568 H 615.889 -2.65582 -3.27176 0
M  V30 6569 H 614.613 -1.46414 -2.91943 0
M  V30 6570 H 613.272 -3.23301 -1.72834 0
M  V30 6571 H 612.92 -2.81461 -4.1688 0
M  V30 6572 H 612.62 -4.52084 -3.75359 0
M  V30 6573 H 614.144 -4.0576 -4.5628 0
M  V30 6574 H 615.558 -5.12957 -2.56023 0
M  V30 6575 H 613.955 -5.66556 -1.97825 0
M  V30 6576 H 615.025 -4.7672 -0.88689 0
M  V30 6577 N 616.368 0.432326 -1.51554 0
M  V30 6578 C 617.596 1.20364 -1.68286 0
M  V30 6579 C 618.011 1.84888 -0.38233 0
M  V30 6580 O 617.368 1.70924 0.639627 0
M  V30 6581 C 617.419 2.28398 -2.80208 0
M  V30 6582 O 617.14 1.66512 -4.05223 0
M  V30 6583 C 618.641 3.18584 -3.08251 0
M  V30 6584 H 615.861 0.36259 -0.564596 0
M  V30 6585 H 618.405 0.511647 -1.97996 0
M  V30 6586 H 616.56 2.93305 -2.53083 0
M  V30 6587 H 616.974 2.37951 -4.67418 0
M  V30 6588 H 618.448 3.90511 -3.90135 0
M  V30 6589 H 618.925 3.79628 -2.2086 0
M  V30 6590 H 619.531 2.59372 -3.37055 0
M  V30 6591 N 617.846 1.41785 0.688094 0
M  V30 6592 C 618.756 1.46596 1.83158 0
M  V30 6593 C 619.772 0.355862 1.70322 0
M  V30 6594 O 620.948 0.604737 1.92106 0
M  V30 6595 C 618.013 1.35322 3.192 0
M  V30 6596 C 617.074 2.56711 3.4409 0
M  V30 6597 C 616.307 2.45965 4.73642 0
M  V30 6598 O 616.53 1.48827 5.50642 0
M  V30 6599 O 615.464 3.35859 4.99482 0
M  V30 6600 H 619.29 2.43083 1.82056 0
M  V30 6601 H 616.875 1.23404 0.842126 0
M  V30 6602 H 618.757 1.31347 4.00407 0
M  V30 6603 H 617.432 0.419536 3.2097 0
M  V30 6604 H 616.339 2.66262 2.62784 0
M  V30 6605 H 617.672 3.48933 3.47141 0
M  V30 6606 N 619.324 -0.923095 1.27737 0
M  V30 6607 C 620.254 -2.04124 1.13383 0
M  V30 6608 C 621.235 -1.70066 0.0340658 0
M  V30 6609 O 622.42 -1.93068 0.209383 0
M  V30 6610 C 619.55 -3.3831 0.785097 0
M  V30 6611 C 618.504 -3.86496 1.8386 0
M  V30 6612 C 617.83 -5.1754 1.34373 0
M  V30 6613 C 619.13 -4.09381 3.24353 0
M  V30 6614 H 620.824 -2.1639 2.06919 0
M  V30 6615 H 618.37 -1.03976 0.996243 0
M  V30 6616 H 620.323 -4.16016 0.671485 0
M  V30 6617 H 619.047 -3.2607 -0.185969 0
M  V30 6618 H 617.706 -3.10987 1.9412 0
M  V30 6619 H 617.354 -5.01696 0.361989 0
M  V30 6620 H 617.054 -5.50751 2.04811 0
M  V30 6621 H 618.578 -5.97811 1.24315 0
M  V30 6622 H 619.992 -4.77641 3.17067 0
M  V30 6623 H 618.389 -4.53906 3.92542 0
M  V30 6624 H 619.459 -3.14515 3.69064 0
M  V30 6625 N 620.802 -1.09834 -1.13024 0
M  V30 6626 C 622.051 -0.831806 -1.83749 0
M  V30 6627 C 622.364 0.644763 -1.84668 0
M  V30 6628 O 623.57 1.02697 -2.51327 0
M  V30 6629 C 622.026 -1.43817 -3.29916 0
M  V30 6630 C 621.634 -2.94759 -3.37374 0
M  V30 6631 C 623.378 -1.25077 -4.05655 0
M  V30 6632 C 621.285 -3.48461 -4.77838 0
M  V30 6633 H 620.215 -0.30751 -0.688443 0
M  V30 6634 H 622.866 -1.32156 -1.27307 0
M  V30 6635 H 621.248 -0.876106 -3.86187 0
M  V30 6636 H 622.422 -3.57228 -2.91076 0
M  V30 6637 H 620.737 -3.12581 -2.75103 0
M  V30 6638 H 623.334 -1.62649 -5.09362 0
M  V30 6639 H 623.677 -0.191782 -4.15858 0
M  V30 6640 H 624.21 -1.78057 -3.55725 0
M  V30 6641 H 620.949 -4.53998 -4.72828 0
M  V30 6642 H 620.469 -2.90757 -5.24615 0
M  V30 6643 H 622.148 -3.45914 -5.46766 0
M  V30 6644 N 622.28 1.30327 -0.886154 0
M  V30 6645 C 623.529 1.95373 -0.501243 0
M  V30 6646 C 623.842 1.70722 0.954634 0
M  V30 6647 O 625.048 2.29761 1.44644 0
M  V30 6648 C 623.504 3.49828 -0.845493 0
M  V30 6649 C 623.112 3.83296 -2.31922 0
M  V30 6650 C 624.856 4.2118 -0.529838 0
M  V30 6651 C 622.763 5.30935 -2.60504 0
M  V30 6652 H 621.693 0.731274 -0.183722 0
M  V30 6653 H 624.344 1.48258 -1.08129 0
M  V30 6654 H 622.726 3.95522 -0.19452 0
M  V30 6655 H 623.9 3.48508 -3.01461 0
M  V30 6656 H 622.215 3.2505 -2.60253 0
M  V30 6657 H 624.812 5.29825 -0.720401 0
M  V30 6658 H 625.155 4.12902 0.530828 0
M  V30 6659 H 625.688 3.81173 -1.13806 0
M  V30 6660 H 622.427 5.44265 -3.65316 0
M  V30 6661 H 621.947 5.67019 -1.95575 0
M  V30 6662 H 623.626 5.98381 -2.46066 0
M  V30 6663 N 623.758 0.647228 1.43697 0
M  V30 6664 C 625.005 0.158188 2.01881 0
M  V30 6665 C 625.333 -1.22573 1.51017 0
M  V30 6666 O 624.588 -1.83086 0.69122 0
M  V30 6667 C 624.887 0.111481 3.57226 0
M  V30 6668 C 624.553 1.43633 4.27411 0
M  V30 6669 C 623.215 1.79915 4.463 0
M  V30 6670 C 625.567 2.31011 4.67208 0
M  V30 6671 C 622.895 3.03251 5.02251 0
M  V30 6672 C 625.247 3.53633 5.24525 0
M  V30 6673 C 623.911 3.90118 5.41631 0
M  V30 6674 H 623.181 0.0578851 0.738736 0
M  V30 6675 H 625.828 0.836746 1.72252 0
M  V30 6676 H 624.133 -0.650507 3.86362 0
M  V30 6677 H 625.83 -0.283682 3.99995 0
M  V30 6678 H 622.42 1.14403 4.1305 0
M  V30 6679 H 626.604 2.04272 4.52313 0
M  V30 6680 H 621.86 3.31575 5.13681 0
M  V30 6681 H 626.034 4.21561 5.5431 0
M  V30 6682 H 623.661 4.85768 5.84751 0
M  V30 6683 N 625.236 -1.5273 0.388769 0
M  V30 6684 C 626.483 -2.01573 -0.19359 0
M  V30 6685 C 626.811 -1.27525 -1.46859 0
M  V30 6686 O 626.066 -0.363926 -1.92286 0
M  V30 6687 C 626.365 -3.53765 -0.508445 0
M  V30 6688 C 626.031 -4.4582 0.674947 0
M  V30 6689 C 624.693 -4.70703 0.999596 0
M  V30 6690 C 627.045 -5.00138 1.46666 0
M  V30 6691 C 624.373 -5.47155 2.11751 0
M  V30 6692 C 626.725 -5.77812 2.57518 0
M  V30 6693 C 625.389 -6.00975 2.90492 0
M  V30 6694 H 624.659 -0.737606 -0.0708397 0
M  V30 6695 H 627.306 -1.84134 0.526006 0
M  V30 6696 H 625.611 -3.69274 -1.30936 0
M  V30 6697 H 627.308 -3.8905 -0.971664 0
M  V30 6698 H 623.898 -4.26616 0.411906 0
M  V30 6699 H 628.082 -4.8084 1.22909 0
M  V30 6700 H 623.338 -5.63314 2.3767 0
M  V30 6701 H 627.512 -6.18904 3.19267 0
M  V30 6702 H 625.139 -6.59998 3.77236 0
M  V30 6703 N 626.714 -0.118576 -1.57153 0
M  V30 6704 C 627.96 0.534078 -1.96263 0
M  V30 6705 C 628.315 1.64316 -1.0009 0
M  V30 6706 O 627.608 1.91575 -0.0308582 0
M  V30 6707 C 627.802 1.11303 -3.39627 0
M  V30 6708 C 627.631 0.0615624 -4.49658 0
M  V30 6709 C 626.401 -0.370103 -5.03943 0
M  V30 6710 C 628.599 -0.719249 -5.09246 0
M  V30 6711 N 626.581 -1.40738 -5.9755 0
M  V30 6712 C 627.952 -1.60774 -5.98792 0
M  V30 6713 C 630.007 -0.770183 -4.91907 0
M  V30 6714 C 628.71 -2.54272 -6.72858 0
M  V30 6715 C 630.736 -1.69288 -5.66653 0
M  V30 6716 C 630.098 -2.56894 -6.55885 0
M  V30 6717 H 626.197 0.165072 -0.764379 0
M  V30 6718 H 628.781 -0.206596 -1.93601 0
M  V30 6719 H 626.952 1.82342 -3.42937 0
M  V30 6720 H 628.684 1.72996 -3.65861 0
M  V30 6721 H 625.439 0.0222121 -4.73595 0
M  V30 6722 H 625.863 -1.92493 -6.49057 0
M  V30 6723 H 630.505 -0.106999 -4.22665 0
M  V30 6724 H 628.223 -3.21605 -7.41347 0
M  V30 6725 H 631.809 -1.73772 -5.55243 0
M  V30 6726 H 630.689 -3.27131 -7.1271 0
M  V30 6727 N 628.193 1.56834 0.155195 0
M  V30 6728 C 629.442 1.82088 0.867567 0
M  V30 6729 C 629.755 0.69849 1.82703 0
M  V30 6730 O 630.961 0.836407 2.58295 0
M  V30 6731 C 629.417 3.22707 1.59336 0
M  V30 6732 C 629.025 4.42859 0.676719 0
M  V30 6733 C 630.769 3.57242 2.293 0
M  V30 6734 C 628.676 5.74501 1.40367 0
M  V30 6735 H 627.606 0.679057 0.327715 0
M  V30 6736 H 630.257 1.83105 0.120351 0
M  V30 6737 H 628.639 3.16054 2.38591 0
M  V30 6738 H 629.813 4.60731 -0.0800196 0
M  V30 6739 H 628.128 4.16311 0.0859129 0
M  V30 6740 H 630.725 4.52847 2.84312 0
M  V30 6741 H 631.068 2.82901 3.05406 0
M  V30 6742 H 631.601 3.6552 1.56972 0
M  V30 6743 H 628.34 6.51915 0.684623 0
M  V30 6744 H 627.86 5.60579 2.13332 0
M  V30 6745 H 629.539 6.17016 1.94681 0
M  V30 6746 N 629.671 -0.424282 1.51781 0
M  V30 6747 C 630.918 -1.1726 1.65095 0
M  V30 6748 C 631.246 -1.90881 0.373477 0
M  V30 6749 O 630.501 -1.84835 -0.642997 0
M  V30 6750 C 630.8 -2.20418 2.81337 0
M  V30 6751 C 630.466 -1.63715 4.20129 0
M  V30 6752 C 629.128 -1.47975 4.57883 0
M  V30 6753 C 631.48 -1.22157 5.06682 0
M  V30 6754 C 628.808 -0.891703 5.79884 0
M  V30 6755 C 631.16 -0.647767 6.29275 0
M  V30 6756 C 629.824 -0.477371 6.65791 0
M  V30 6757 H 629.094 -0.429085 0.604125 0
M  V30 6758 H 631.741 -0.461852 1.85847 0
M  V30 6759 H 630.046 -2.97581 2.54859 0
M  V30 6760 H 631.743 -2.78163 2.88836 0
M  V30 6761 H 628.333 -1.76946 3.90369 0
M  V30 6762 H 632.517 -1.33133 4.7811 0
M  V30 6763 H 627.773 -0.747563 6.06813 0
M  V30 6764 H 631.947 -0.317291 6.95677 0
M  V30 6765 H 629.574 -0.0195936 7.60197 0
M  V30 6766 N 631.149 -1.42148 -0.680565 0
M  V30 6767 C 632.397 -1.42029 -1.43779 0
M  V30 6768 C 632.718 -0.0356347 -1.94967 0
M  V30 6769 O 631.988 0.924936 -1.7269 0
M  V30 6770 H 630.568 -0.522835 -0.533529 0
M  V30 6771 H 633.23 -1.7752 -0.804538 0
M  V30 6772 H 632.326 -2.11658 -2.29363 0
M  V30 6773 N 632.627 0.916307 -1.28225 0
M  V30 6774 C 633.59 1.99996 -1.11957 0
M  V30 6775 C 634.59 1.60688 -0.0600152 0
M  V30 6776 O 635.78 1.71499 -0.30558 0
M  V30 6777 C 632.912 3.33458 -0.708411 0
M  V30 6778 H 634.105 2.15858 -2.08196 0
M  V30 6779 H 631.658 1.09863 -1.11175 0
M  V30 6780 H 632.393 3.23297 0.254859 0
M  V30 6781 H 632.178 3.63349 -1.47377 0
M  V30 6782 H 633.668 4.13014 -0.617164 0
M  V30 6783 N 634.105 1.10431 1.1244 0
M  V30 6784 C 635.382 0.758797 1.80282 0
M  V30 6785 C 635.762 -0.754727 1.97147 0
M  V30 6786 O 635.11 -1.68094 1.54779 0
M  V30 6787 C 635.32 1.50982 3.14651 0
M  V30 6788 C 636.668 1.68232 3.8985 0
M  V30 6789 O 637.692 1.47319 3.24308 0
M  V30 6790 O 636.551 2.02905 5.07437 0
M  V30 6791 H 633.645 0.273756 0.780376 0
M  V30 6792 H 636.191 1.20713 1.19275 0
M  V30 6793 H 634.963 2.53989 2.97666 0
M  V30 6794 H 634.586 1.05435 3.83366 0
M  V30 6795 N 635.583 -1.29855 0.893053 0
M  V30 6796 C 636.53 -2.27909 0.364161 0
M  V30 6797 C 637.5 -1.56726 -0.550093 0
M  V30 6798 O 638.685 -1.84747 -0.47677 0
M  V30 6799 C 635.825 -3.42678 -0.408178 0
M  V30 6800 C 634.938 -4.28659 0.536212 0
M  V30 6801 C 634.073 -5.30599 -0.252521 0
M  V30 6802 C 633.112 -6.08234 0.686822 0
M  V30 6803 N 632.249 -7.02068 -0.0670902 0
M  V30 6804 H 637.089 -2.72531 1.20544 0
M  V30 6805 H 634.626 -1.34047 0.605779 0
M  V30 6806 H 636.584 -4.07986 -0.871962 0
M  V30 6807 H 635.214 -2.99103 -1.21397 0
M  V30 6808 H 634.266 -3.63584 1.1185 0
M  V30 6809 H 635.578 -4.8274 1.25552 0
M  V30 6810 H 634.732 -6.01694 -0.777801 0
M  V30 6811 H 633.471 -4.77233 -1.005 0
M  V30 6812 H 632.476 -5.3601 1.22366 0
M  V30 6813 H 633.701 -6.63689 1.43852 0
M  V30 6814 H 631.647 -6.5108 -0.801955 0
M  V30 6815 H 631.564 -7.53675 0.59243 0
M  V30 6816 H 632.832 -7.77392 -0.572851 0
M  V30 6817 N 637.061 -0.65484 -1.43351 0
M  V30 6818 C 638.024 0.0263562 -2.29185 0
M  V30 6819 C 639.024 0.748951 -1.42293 0
M  V30 6820 O 640.214 0.589957 -1.63906 0
M  V30 6821 C 637.346 1.04806 -3.2439 0
M  V30 6822 H 638.539 -0.728883 -2.90908 0
M  V30 6823 H 636.092 -0.416149 -1.50658 0
M  V30 6824 H 636.827 1.83247 -2.67565 0
M  V30 6825 H 636.612 0.533554 -3.88453 0
M  V30 6826 H 638.102 1.52372 -3.88809 0
M  V30 6827 N 638.539 1.52521 -0.396863 0
M  V30 6828 C 639.785 2.02641 0.175606 0
M  V30 6829 C 640.14 1.27782 1.43839 0
M  V30 6830 O 639.433 0.371921 1.87956 0
M  V30 6831 C 639.627 3.5403 0.489677 0
M  V30 6832 C 639.456 4.43551 -0.741113 0
M  V30 6833 C 638.226 4.8927 -1.26265 0
M  V30 6834 C 640.424 4.88263 -1.61565 0
M  V30 6835 N 638.406 5.62884 -2.4502 0
M  V30 6836 C 639.777 5.60534 -2.64955 0
M  V30 6837 C 641.832 4.70294 -1.63486 0
M  V30 6838 C 640.535 6.16744 -3.70162 0
M  V30 6839 C 642.561 5.27392 -2.67603 0
M  V30 6840 C 641.923 5.99575 -3.69715 0
M  V30 6841 H 638.022 0.781563 0.0261477 0
M  V30 6842 H 640.606 1.86816 -0.548454 0
M  V30 6843 H 638.777 3.69952 1.18279 0
M  V30 6844 H 640.509 3.90843 1.04996 0
M  V30 6845 H 637.264 4.66403 -0.822509 0
M  V30 6846 H 637.688 6.04339 -3.05128 0
M  V30 6847 H 642.33 4.13985 -0.858848 0
M  V30 6848 H 640.048 6.72131 -4.48626 0
M  V30 6849 H 643.634 5.15365 -2.69982 0
M  V30 6850 H 642.514 6.42967 -4.48958 0
M  V30 6851 N 640.017 0.126909 1.57088 0
M  V30 6852 C 640.927 -0.833867 2.1928 0
M  V30 6853 C 641.943 -1.2868 1.17122 0
M  V30 6854 O 643.119 -1.34815 1.49622 0
M  V30 6855 C 640.184 -2.0632 2.78627 0
M  V30 6856 C 639.245 -1.66143 3.95847 0
M  V30 6857 C 638.478 -2.83217 4.52354 0
M  V30 6858 O 638.701 -3.98868 4.0775 0
M  V30 6859 O 637.635 -2.59846 5.42922 0
M  V30 6860 H 641.461 -0.334564 3.01852 0
M  V30 6861 H 639.046 -0.0991091 1.49071 0
M  V30 6862 H 640.928 -2.78304 3.16425 0
M  V30 6863 H 639.603 -2.55242 1.99082 0
M  V30 6864 H 638.51 -0.912435 3.62802 0
M  V30 6865 H 639.843 -1.21957 4.76852 0
M  V30 6866 N 641.495 -1.56914 -0.146875 0
M  V30 6867 C 642.405 -2.0154 -1.20079 0
M  V30 6868 C 643.421 -0.930838 -1.47008 0
M  V30 6869 O 644.597 -1.24032 -1.58676 0
M  V30 6870 C 641.662 -2.38715 -2.51428 0
M  V30 6871 C 640.723 -3.6112 -2.32145 0
M  V30 6872 C 639.956 -3.96512 -3.57231 0
M  V30 6873 O 640.179 -3.32566 -4.63418 0
M  V30 6874 O 639.113 -4.89758 -3.49887 0
M  V30 6875 H 642.939 -2.91506 -0.851924 0
M  V30 6876 H 640.524 -1.45106 -0.355607 0
M  V30 6877 H 642.406 -2.63485 -3.28867 0
M  V30 6878 H 641.081 -1.51903 -2.85845 0
M  V30 6879 H 639.988 -3.41536 -1.52656 0
M  V30 6880 H 641.321 -4.48549 -2.02644 0
M  V30 6881 N 642.974 0.416227 -1.52004 0
M  V30 6882 C 644.223 1.16088 -1.64944 0
M  V30 6883 C 644.536 1.91835 -0.381928 0
M  V30 6884 O 645.742 2.6867 -0.391013 0
M  V30 6885 C 644.198 2.1124 -2.91386 0
M  V30 6886 C 643.806 1.41042 -4.25219 0
M  V30 6887 C 645.55 2.86008 -3.13688 0
M  V30 6888 C 643.457 2.34801 -5.42791 0
M  V30 6889 H 642.387 0.437041 -0.61442 0
M  V30 6890 H 645.038 0.425971 -1.78487 0
M  V30 6891 H 643.42 2.88254 -2.71525 0
M  V30 6892 H 644.594 0.694416 -4.55538 0
M  V30 6893 H 642.909 0.78344 -4.08964 0
M  V30 6894 H 645.506 3.56286 -3.98703 0
M  V30 6895 H 645.849 3.48556 -2.27628 0
M  V30 6896 H 646.382 2.16095 -3.33988 0
M  V30 6897 H 643.121 1.7691 -6.31176 0
M  V30 6898 H 642.641 3.04395 -5.16821 0
M  V30 6899 H 644.32 2.9548 -5.75587 0
M  V30 6900 N 644.452 1.42507 0.673017 0
M  V30 6901 C 645.4 1.46362 1.80779 0
M  V30 6902 C 646.394 0.339166 1.6597 0
M  V30 6903 O 647.6 0.512262 1.72557 0
M  V30 6904 H 643.975 0.458433 0.596107 0
M  V30 6905 H 645.946 2.41953 1.74646 0
M  V30 6906 C 644.695 1.38462 3.18941 0
M  V30 6907 H 644.018 2.24283 3.30964 0
M  V30 6908 H 645.458 1.45221 3.98355 0
M  V30 6909 C 643.917 0.0996354 3.36753 0
M  V30 6910 O 644.447 -0.846894 3.92671 0
M  V30 6911 N 642.653 0.016211 2.90595 0
M  V30 6912 H 642.2 0.78725 2.45276 0
M  V30 6913 H 642.158 -0.84291 3.0289 0
M  V30 6914 N 645.93 -0.909495 1.28709 0
M  V30 6915 C 647.346 -1.18862 1.06508 0
M  V30 6916 C 647.546 -2.00604 -0.189864 0
M  V30 6917 O 646.602 -2.36281 -0.890355 0
M  V30 6918 C 647.915 -1.91908 2.31499 0
M  V30 6919 C 649.463 -2.04773 2.36721 0
M  V30 6920 C 649.938 -2.81228 3.6149 0
M  V30 6921 N 651.429 -2.88787 3.62155 0
M  V30 6922 C 652.164 -3.48455 4.55375 0
M  V30 6923 N 651.66 -4.09369 5.58918 0
M  V30 6924 N 653.453 -3.46035 4.42963 0
M  V30 6925 H 645.604 -0.363867 2.0926 0
M  V30 6926 H 647.867 -0.223649 0.921241 0
M  V30 6927 H 647.573 -1.39275 3.22948 0
M  V30 6928 H 647.447 -2.92436 2.38245 0
M  V30 6929 H 649.834 -2.56585 1.45767 0
M  V30 6930 H 649.915 -1.03408 2.33967 0
M  V30 6931 H 649.559 -2.30094 4.5279 0
M  V30 6932 H 649.489 -3.82917 3.61499 0
M  V30 6933 H 651.98 -2.45514 2.87283 0
M  V30 6934 H 652.293 -4.52891 6.26187 0
M  V30 6935 H 650.638 -4.0786 5.62739 0
M  V30 6936 H 653.829 -2.9766 3.6127 0
M  V30 6937 H 654.002 -3.92244 5.15799 0
M  V30 6938 N 647.408 -1.11026 -1.11852 0
M  V30 6939 C 648.656 -0.854769 -1.83134 0
M  V30 6940 C 648.977 0.621375 -1.84835 0
M  V30 6941 O 648.247 1.45129 -1.31584 0
M  V30 6942 H 646.827 -0.313229 -0.678157 0
M  V30 6943 H 649.489 -1.40178 -1.35411 0
M  V30 6944 H 648.585 -1.22311 -2.87135 0
M  V30 6945 N 648.886 1.2938 -0.899927 0
M  V30 6946 C 650.134 1.95164 -0.524924 0
M  V30 6947 C 650.455 1.71292 0.931888 0
M  V30 6948 O 649.725 1.04481 1.65712 0
M  V30 6949 H 648.305 0.722133 -0.191135 0
M  V30 6950 H 650.967 1.57628 -1.14627 0
M  V30 6951 H 650.063 3.0397 -0.707711 0
M  V30 6952 N 650.364 0.662433 1.43002 0
M  V30 6953 C 651.613 0.176873 2.00923 0
M  V30 6954 C 651.926 -1.21954 1.52927 0
M  V30 6955 O 653.132 -1.80081 2.03182 0
M  V30 6956 C 651.588 0.265379 3.5892 0
M  V30 6957 C 651.196 1.66507 4.15908 0
M  V30 6958 C 652.94 -0.162103 4.2419 0
M  V30 6959 C 650.847 1.707 5.66229 0
M  V30 6960 H 649.777 0.0623627 0.751417 0
M  V30 6961 H 652.428 0.825813 1.63868 0
M  V30 6962 H 650.81 -0.451235 3.93421 0
M  V30 6963 H 651.984 2.40777 3.92891 0
M  V30 6964 H 650.299 2.03932 3.63044 0
M  V30 6965 H 652.896 -0.150745 5.34487 0
M  V30 6966 H 653.239 -1.19519 3.98774 0
M  V30 6967 H 653.772 0.503075 3.94606 0
M  V30 6968 H 650.511 2.7195 5.96426 0
M  V30 6969 H 650.031 1.00768 5.91275 0
M  V30 6970 H 651.71 1.45487 6.3043 0
M  V30 6971 N 651.842 -1.52309 0.404946 0
M  V30 6972 C 653.091 -2.00952 -0.173529 0
M  V30 6973 C 653.404 -1.29512 -1.46581 0
M  V30 6974 O 654.61 -1.6895 -2.12528 0
M  V30 6975 C 653.066 -3.58097 -0.359801 0
M  V30 6976 C 652.674 -4.38449 0.920138 0
M  V30 6977 C 654.418 -4.14984 -0.893794 0
M  V30 6978 C 652.325 -5.87227 0.701285 0
M  V30 6979 H 651.255 -0.750871 -0.0686244 0
M  V30 6980 H 653.906 -1.75687 0.529749 0
M  V30 6981 H 652.288 -3.79675 -1.12531 0
M  V30 6982 H 653.462 -4.28633 1.69147 0
M  V30 6983 H 651.777 -3.92859 1.38024 0
M  V30 6984 H 654.374 -5.23813 -1.0735 0
M  V30 6985 H 654.717 -3.72072 -1.8673 0
M  V30 6986 H 655.25 -3.97358 -0.187453 0
M  V30 6987 H 651.989 -6.34491 1.64624 0
M  V30 6988 H 651.509 -5.99792 -0.0308288 0
M  V30 6989 H 653.188 -6.46096 0.341846 0
M  V30 6990 N 653.32 -0.135238 -1.57019 0
M  V30 6991 C 654.267 0.808908 -2.1616 0
M  V30 6992 C 655.237 1.25234 -1.09113 0
M  V30 6993 O 656.422 1.32697 -1.37099 0
M  V30 6994 C 653.562 2.04729 -2.77813 0
M  V30 6995 C 652.675 1.65074 -3.99218 0
M  V30 6996 C 651.81 2.84002 -4.48906 0
M  V30 6997 C 650.849 2.40663 -5.62803 0
M  V30 6998 N 649.986 3.5256 -6.07162 0
M  V30 6999 H 654.826 0.297751 -2.96509 0
M  V30 7000 H 652.363 0.135264 -1.46477 0
M  V30 7001 H 654.321 2.7731 -3.11697 0
M  V30 7002 H 652.951 2.53275 -2.00128 0
M  V30 7003 H 652.003 0.823029 -3.7139 0
M  V30 7004 H 653.315 1.29236 -4.81767 0
M  V30 7005 H 652.469 3.64788 -4.84783 0
M  V30 7006 H 651.208 3.23076 -3.65339 0
M  V30 7007 H 650.213 1.58314 -5.26514 0
M  V30 7008 H 651.438 2.02687 -6.48147 0
M  V30 7009 H 649.384 3.91278 -5.26534 0
M  V30 7010 H 649.301 3.20699 -6.84608 0
M  V30 7011 H 650.569 4.33738 -6.47682 0
M  V30 7012 N 654.798 1.5699 0.138552 0
M  V30 7013 C 656.044 1.84081 0.85099 0
M  V30 7014 C 656.377 0.718107 1.80435 0
M  V30 7015 O 655.652 -0.277633 1.92508 0
M  V30 7016 C 655.935 3.21699 1.61808 0
M  V30 7017 C 655.788 4.44544 0.685633 0
M  V30 7018 C 657.107 3.5664 2.57868 0
M  V30 7019 H 654.226 0.669592 0.307922 0
M  V30 7020 H 656.868 1.89646 0.11588 0
M  V30 7021 H 655.018 3.17086 2.24474 0
M  V30 7022 H 656.69 4.61248 0.0693179 0
M  V30 7023 H 654.933 4.338 -0.00421993 0
M  V30 7024 H 655.604 5.3746 1.25858 0
M  V30 7025 H 658.08 3.61918 2.05316 0
M  V30 7026 H 656.956 4.53946 3.08584 0
M  V30 7027 H 657.217 2.83036 3.39622 0
M  V30 7028 N 656.276 -0.40816 1.52223 0
M  V30 7029 C 657.687 -0.986929 1.58482 0
M  V30 7030 C 658.038 -1.91521 0.425917 0
M  V30 7031 O 657.163 -2.11593 -0.453593 0
M  V30 7032 C 657.758 -1.7967 2.87235 0
M  V30 7033 C 656.317 -2.32549 2.9597 0
M  V30 7034 C 655.464 -1.12558 2.53428 0
M  V30 7035 H 658.415 -0.188362 1.57578 0
M  V30 7036 H 658.436 -2.65417 2.72642 0
M  V30 7037 H 657.948 -1.12082 3.71563 0
M  V30 7038 H 656.049 -3.03505 2.16137 0
M  V30 7039 H 656.162 -2.63348 4.00231 0
M  V30 7040 H 654.526 -1.47984 2.07299 0
M  V30 7041 H 655.309 -0.465351 3.40131 0
M  V30 7042 N 657.755 -1.42862 -0.66545 0
M  V30 7043 C 659.171 -1.25993 -0.979687 0
M  V30 7044 C 659.371 -0.170831 -2.00775 0
M  V30 7045 O 658.427 0.454827 -2.4837 0
M  V30 7046 C 659.74 -2.62005 -1.47559 0
M  V30 7047 C 661.288 -2.69437 -1.59288 0
M  V30 7048 C 661.763 -4.05838 -2.12272 0
M  V30 7049 N 663.254 -4.0784 -2.19592 0
M  V30 7050 C 663.989 -5.10205 -2.61684 0
M  V30 7051 N 663.485 -6.22949 -3.03161 0
M  V30 7052 N 665.278 -4.9756 -2.61516 0
M  V30 7053 H 657.429 -2.12395 0.0150493 0
M  V30 7054 H 659.692 -0.946355 -0.0558187 0
M  V30 7055 H 659.398 -3.42605 -0.794654 0
M  V30 7056 H 659.272 -2.86566 -2.45275 0
M  V30 7057 H 661.659 -1.89178 -2.26486 0
M  V30 7058 H 661.74 -2.48655 -0.600374 0
M  V30 7059 H 661.384 -4.86559 -1.4568 0
M  V30 7060 H 661.314 -4.23977 -3.12331 0
M  V30 7061 H 663.805 -3.26452 -1.90361 0
M  V30 7062 H 664.118 -6.96899 -3.33993 0
M  V30 7063 H 662.463 -6.2644 -3.00995 0
M  V30 7064 H 665.654 -4.08551 -2.28481 0
M  V30 7065 H 665.827 -5.77468 -2.93999 0
M  V30 7066 N 659.233 0.902656 -1.29189 0
M  V30 7067 C 660.482 1.6475 -1.16362 0
M  V30 7068 C 660.795 1.93517 0.284682 0
M  V30 7069 O 662.001 2.66192 0.534229 0
M  V30 7070 C 660.457 2.96848 -2.03493 0
M  V30 7071 C 660.065 2.75687 -3.5313 0
M  V30 7072 C 661.809 3.74762 -1.99383 0
M  V30 7073 C 659.716 4.03492 -4.32375 0
M  V30 7074 H 658.646 0.618041 -0.431904 0
M  V30 7075 H 661.297 1.0008 -1.53806 0
M  V30 7076 H 659.679 3.62715 -1.58916 0
M  V30 7077 H 660.853 2.18431 -4.05739 0
M  V30 7078 H 659.168 2.11171 -3.58881 0
M  V30 7079 H 661.765 4.69515 -2.5585 0
M  V30 7080 H 662.108 4.04767 -0.973123 0
M  V30 7081 H 662.641 3.15732 -2.41988 0
M  V30 7082 H 659.38 3.78656 -5.3507 0
M  V30 7083 H 658.9 4.60318 -3.84535 0
M  V30 7084 H 660.579 4.71662 -4.42881 0
M  V30 7085 N 660.711 1.11618 1.11262 0
M  V30 7086 C 661.941 0.88745 1.86569 0
M  V30 7087 C 662.349 -0.56636 1.80524 0
M  V30 7088 O 661.692 -1.40289 1.18594 0
M  V30 7089 C 661.754 1.27313 3.36202 0
M  V30 7090 C 661.418 2.73649 3.66013 0
M  V30 7091 C 662.415 3.71863 3.63337 0
M  V30 7092 C 660.1 3.10342 3.9496 0
M  V30 7093 C 662.094 5.04788 3.89188 0
M  V30 7094 C 659.781 4.43451 4.20469 0
M  V30 7095 C 660.779 5.40484 4.17572 0
M  V30 7096 O 660.467 6.71195 4.42439 0
M  V30 7097 H 660.199 0.317543 0.596777 0
M  V30 7098 H 662.753 1.48768 1.41624 0
M  V30 7099 H 660.983 0.616062 3.81761 0
M  V30 7100 H 662.672 1.01991 3.92877 0
M  V30 7101 H 663.438 3.44861 3.41022 0
M  V30 7102 H 659.317 2.35431 3.9635 0
M  V30 7103 H 662.861 5.80516 3.86842 0
M  V30 7104 H 658.758 4.70187 4.42261 0
M  V30 7105 H 659.526 6.77012 4.59997 0
M  V30 7106 N 662.189 -1.289 0.906776 0
M  V30 7107 C 663.419 -1.99112 0.551168 0
M  V30 7108 C 663.827 -1.67998 -0.870243 0
M  V30 7109 O 663.17 -0.92525 -1.58697 0
M  V30 7110 C 663.232 -3.53162 0.672065 0
M  V30 7111 C 662.896 -4.07849 2.06174 0
M  V30 7112 C 663.893 -4.22212 3.0337 0
M  V30 7113 C 661.578 -4.4271 2.37304 0
M  V30 7114 C 663.572 -4.70678 4.29815 0
M  V30 7115 C 661.259 -4.90871 3.6399 0
M  V30 7116 C 662.257 -5.04811 4.6006 0
M  V30 7117 O 661.945 -5.51925 5.84495 0
M  V30 7118 H 661.677 -0.642728 0.209469 0
M  V30 7119 H 664.231 -1.65234 1.22012 0
M  V30 7120 H 662.461 -3.86662 -0.05394 0
M  V30 7121 H 664.15 -4.046 0.324579 0
M  V30 7122 H 664.916 -3.9556 2.80637 0
M  V30 7123 H 660.795 -4.31114 1.63283 0
M  V30 7124 H 664.339 -4.81474 5.04806 0
M  V30 7125 H 660.236 -5.16961 3.86551 0
M  V30 7126 H 661.004 -5.70225 5.87185 0
M  V30 7127 N 663.667 -0.670007 -1.42649 0
M  V30 7128 C 664.897 -0.198252 -2.05647 0
M  V30 7129 C 665.305 1.14786 -1.50402 0
M  V30 7130 O 664.648 1.72316 -0.636634 0
M  V30 7131 C 664.71 -0.0507132 -3.59464 0
M  V30 7132 C 664.374 -1.32478 -4.37377 0
M  V30 7133 C 665.371 -2.2572 -4.68344 0
M  V30 7134 C 663.056 -1.57104 -4.77099 0
M  V30 7135 C 665.05 -3.4187 -5.37963 0
M  V30 7136 C 662.737 -2.73543 -5.46459 0
M  V30 7137 C 663.735 -3.65751 -5.76815 0
M  V30 7138 O 663.423 -4.80154 -6.44753 0
M  V30 7139 H 663.155 -0.0950721 -0.669281 0
M  V30 7140 H 665.709 -0.915745 -1.83857 0
M  V30 7141 H 663.939 0.722314 -3.79894 0
M  V30 7142 H 665.628 0.380552 -4.04112 0
M  V30 7143 H 666.394 -2.07943 -4.38161 0
M  V30 7144 H 662.273 -0.862069 -4.52868 0
M  V30 7145 H 665.817 -4.13861 -5.61574 0
M  V30 7146 H 661.714 -2.91248 -5.7606 0
M  V30 7147 H 662.482 -4.79637 -6.63243 0
M  V30 7148 N 665.145 1.52092 -0.413018 0
M  V30 7149 C 666.391 2.02154 0.161737 0
M  V30 7150 C 666.724 1.29789 1.44459 0
M  V30 7151 O 665.999 0.405378 1.90229 0
M  V30 7152 C 666.282 3.5781 0.405463 0
M  V30 7153 C 666.135 4.40819 -0.894335 0
M  V30 7154 C 667.454 4.23821 1.18591 0
M  V30 7155 H 664.573 0.734769 0.0573077 0
M  V30 7156 H 667.215 1.81948 -0.547247 0
M  V30 7157 H 665.365 3.75158 1.0094 0
M  V30 7158 H 667.037 4.35175 -1.53039 0
M  V30 7159 H 665.28 4.06877 -1.50444 0
M  V30 7160 H 665.951 5.47819 -0.678144 0
M  V30 7161 H 668.427 4.10596 0.674573 0
M  V30 7162 H 667.303 5.32663 1.3252 0
M  V30 7163 H 667.564 3.83038 2.20758 0
M  V30 7164 N 666.623 0.143563 1.56945 0
M  V30 7165 C 667.556 -0.835367 2.1236 0
M  V30 7166 C 668.534 -1.24466 1.04627 0
M  V30 7167 O 669.718 -1.34138 1.32436 0
M  V30 7168 C 666.845 -2.12123 2.64048 0
M  V30 7169 C 665.891 -1.85812 3.83896 0
M  V30 7170 S 666.724 -1.05222 5.25061 0
M  V30 7171 C 667.88 -2.34935 5.80135 0
M  V30 7172 H 668.113 -0.364109 2.95062 0
M  V30 7173 H 665.646 -0.0706601 1.54238 0
M  V30 7174 H 667.604 -2.85993 2.94479 0
M  V30 7175 H 666.265 -2.56364 1.81483 0
M  V30 7176 H 665.458 -2.81151 4.18294 0
M  V30 7177 H 665.06 -1.20052 3.54208 0
M  V30 7178 H 667.352 -3.3061 5.91357 0
M  V30 7179 H 668.295 -2.05046 6.77762 0
M  V30 7180 H 668.703 -2.45426 5.08356 0
M  V30 7181 N 668.101 -1.57061 -0.130224 0
M  V30 7182 C 669.517 -1.52103 -0.483413 0
M  V30 7183 C 669.717 -0.854752 -1.82473 0
M  V30 7184 O 668.773 -0.432342 -2.48771 0
M  V30 7185 C 670.086 -2.96872 -0.47825 0
M  V30 7186 C 671.634 -3.07902 -0.562592 0
M  V30 7187 C 672.109 -4.54211 -0.587929 0
M  V30 7188 N 673.6 -4.58621 -0.649684 0
M  V30 7189 C 674.335 -5.69227 -0.690551 0
M  V30 7190 N 673.831 -6.89358 -0.689743 0
M  V30 7191 N 675.624 -5.57304 -0.732708 0
M  V30 7192 H 667.775 -1.98764 0.748779 0
M  V30 7193 H 670.038 -0.907248 0.274965 0
M  V30 7194 H 669.744 -3.48944 0.439444 0
M  V30 7195 H 669.618 -3.53716 -1.31013 0
M  V30 7196 H 672.005 -2.5584 -1.47071 0
M  V30 7197 H 672.086 -2.54073 0.296764 0
M  V30 7198 H 671.73 -5.06915 0.316096 0
M  V30 7199 H 671.66 -5.0584 -1.46401 0
M  V30 7200 H 674.151 -3.72146 -0.656927 0
M  V30 7201 H 674.464 -7.69408 -0.723239 0
M  V30 7202 H 672.809 -6.91884 -0.657347 0
M  V30 7203 H 676 -4.62363 -0.730625 0
M  V30 7204 H 676.173 -6.43515 -0.76109 0
M  V30 7205 N 669.579 0.400081 -1.52437 0
M  V30 7206 C 670.809 1.16598 -1.70553 0
M  V30 7207 C 671.217 1.8451 -0.418665 0
M  V30 7208 O 670.56 1.73069 0.615855 0
M  V30 7209 C 670.622 2.26517 -2.7916 0
M  V30 7210 C 670.286 1.78666 -4.20628 0
M  V30 7211 C 671.283 1.26946 -5.04163 0
M  V30 7212 C 668.968 1.85225 -4.66902 0
M  V30 7213 C 670.962 0.824187 -6.32049 0
M  V30 7214 C 668.649 1.40309 -5.94774 0
M  V30 7215 C 669.647 0.889922 -6.77178 0
M  V30 7216 O 669.335 0.447281 -8.02655 0
M  V30 7217 H 669.067 0.356023 -0.574651 0
M  V30 7218 H 671.621 0.475598 -1.99818 0
M  V30 7219 H 669.851 2.98946 -2.45292 0
M  V30 7220 H 671.54 2.88237 -2.85787 0
M  V30 7221 H 672.306 1.21244 -4.69601 0
M  V30 7222 H 668.185 2.24111 -4.02859 0
M  V30 7223 H 671.729 0.422958 -6.96317 0
M  V30 7224 H 667.626 1.45693 -6.28843 0
M  V30 7225 H 668.394 0.569768 -8.16514 0
M  V30 7226 N 671.057 1.43213 0.657864 0
M  V30 7227 C 672.306 1.43871 1.41365 0
M  V30 7228 C 672.619 0.064898 1.95492 0
M  V30 7229 O 673.825 -0.0510796 2.71452 0
M  V30 7230 C 672.281 2.53158 2.55811 0
M  V30 7231 C 671.889 3.96624 2.08311 0
M  V30 7232 C 673.633 2.63004 3.3321 0
M  V30 7233 C 671.54 4.97385 3.1994 0
M  V30 7234 H 670.47 0.535174 0.531136 0
M  V30 7235 H 673.121 1.69185 0.710543 0
M  V30 7236 H 671.503 2.21037 3.2857 0
M  V30 7237 H 672.677 4.38182 1.42593 0
M  V30 7238 H 670.992 3.90781 1.43804 0
M  V30 7239 H 673.589 3.3546 4.16378 0
M  V30 7240 H 673.932 1.67918 3.80932 0
M  V30 7241 H 674.465 2.94403 2.67529 0
M  V30 7242 H 671.204 5.94007 2.77192 0
M  V30 7243 H 670.724 4.60444 3.84385 0
M  V30 7244 H 672.403 5.19877 3.85145 0
M  V30 7245 N 672.536 -0.895792 1.29666 0
M  V30 7246 C 673.764 -1.68001 1.20761 0
M  V30 7247 C 674.179 -1.87379 -0.231187 0
M  V30 7248 O 673.536 -1.41359 -1.15429 0
M  V30 7249 C 673.587 -3.06236 1.92098 0
M  V30 7250 O 673.308 -2.8774 3.30359 0
M  V30 7251 C 674.809 -4.00652 1.89717 0
M  V30 7252 H 672.029 -0.524591 0.418384 0
M  V30 7253 H 674.573 -1.11995 1.71106 0
M  V30 7254 H 672.728 -3.59007 1.45578 0
M  V30 7255 H 673.142 -3.75359 3.66342 0
M  V30 7256 H 674.616 -4.95051 2.44189 0
M  V30 7257 H 675.093 -4.30424 0.873595 0
M  V30 7258 H 675.699 -3.53815 2.35998 0
M  V30 7259 N 674.014 -1.12206 -1.10668 0
M  V30 7260 C 675.425 -0.890657 -1.64086 0
M  V30 7261 C 675.776 0.575502 -1.8757 0
M  V30 7262 O 674.901 1.4394 -1.61587 0
M  V30 7263 C 675.496 -1.61029 -2.98085 0
M  V30 7264 C 674.055 -1.4251 -3.48379 0
M  V30 7265 C 673.202 -1.64778 -2.23033 0
M  V30 7266 H 676.153 -1.27718 -0.94201 0
M  V30 7267 H 676.174 -1.05993 -3.65439 0
M  V30 7268 H 675.686 -2.67735 -2.80962 0
M  V30 7269 H 673.787 -0.380497 -3.70652 0
M  V30 7270 H 673.9 -2.17959 -4.26651 0
M  V30 7271 H 672.264 -1.07171 -2.31055 0
M  V30 7272 H 673.047 -2.72776 -2.08443 0
M  V30 7273 N 675.492 1.28418 -0.913599 0
M  V30 7274 C 676.455 2.25564 -0.406624 0
M  V30 7275 C 677.455 1.5387 0.466965 0
M  V30 7276 O 678.645 1.72094 0.270042 0
M  V30 7277 C 675.777 3.38339 0.417053 0
M  V30 7278 H 676.97 2.71926 -1.26477 0
M  V30 7279 H 674.523 1.40098 -0.692986 0
M  V30 7280 H 675.258 2.97339 1.29461 0
M  V30 7281 H 675.043 3.91542 -0.209102 0
M  V30 7282 H 676.533 4.10578 0.762602 0
M  V30 7283 N 676.97 0.677563 1.42291 0
M  V30 7284 C 678.217 0.200975 2.015 0
M  V30 7285 C 678.545 -1.19342 1.53583 0
M  V30 7286 O 677.8 -1.81579 0.7299 0
M  V30 7287 C 678.099 0.187229 3.56909 0
M  V30 7288 C 677.765 1.52667 4.24268 0
M  V30 7289 C 676.427 1.89341 4.42384 0
M  V30 7290 C 678.779 2.40869 4.62203 0
M  V30 7291 C 676.107 3.13836 4.95705 0
M  V30 7292 C 678.459 3.64679 5.16906 0
M  V30 7293 C 677.123 4.01519 5.33234 0
M  V30 7294 H 676.393 0.0735418 0.737342 0
M  V30 7295 H 679.04 0.873095 1.70439 0
M  V30 7296 H 677.345 -0.568407 3.87655 0
M  V30 7297 H 679.042 -0.198773 4.00507 0
M  V30 7298 H 675.632 1.23138 4.1053 0
M  V30 7299 H 679.816 2.1382 4.47878 0
M  V30 7300 H 675.072 3.42396 5.06532 0
M  V30 7301 H 679.246 4.33224 5.45243 0
M  V30 7302 H 676.873 4.98062 5.74316 0
M  V30 7303 N 678.448 -1.51871 0.421078 0
M  V30 7304 C 679.378 -2.30231 -0.389363 0
M  V30 7305 C 680.359 -1.34946 -1.03555 0
M  V30 7306 O 681.544 -1.63859 -1.04229 0
M  V30 7307 C 678.674 -3.13247 -1.49979 0
M  V30 7308 C 677.628 -4.16677 -0.977966 0
M  V30 7309 C 676.954 -4.88112 -2.1829 0
M  V30 7310 C 678.254 -5.22295 -0.0236775 0
M  V30 7311 H 679.948 -2.98229 0.264524 0
M  V30 7312 H 677.494 -1.43424 0.12866 0
M  V30 7313 H 679.447 -3.66838 -2.07383 0
M  V30 7314 H 678.171 -2.4304 -2.18173 0
M  V30 7315 H 676.83 -3.64114 -0.426245 0
M  V30 7316 H 676.478 -4.14423 -2.85066 0
M  V30 7317 H 676.178 -5.58041 -1.84021 0
M  V30 7318 H 677.702 -5.44521 -2.76278 0
M  V30 7319 H 679.116 -5.71055 -0.506899 0
M  V30 7320 H 677.513 -5.99656 0.230782 0
M  V30 7321 H 678.583 -4.76131 0.917999 0
M  V30 7322 N 679.926 -0.151884 -1.56866 0
M  V30 7323 C 680.889 0.771861 -2.15812 0
M  V30 7324 C 681.889 1.17181 -1.10115 0
M  V30 7325 O 683.079 1.09194 -1.35729 0
M  V30 7326 C 680.211 2.04806 -2.7252 0
M  V30 7327 H 681.404 0.259021 -2.98779 0
M  V30 7328 H 678.957 0.097588 -1.55995 0
M  V30 7329 H 679.692 2.60445 -1.93233 0
M  V30 7330 H 679.477 1.77044 -3.49854 0
M  V30 7331 H 680.967 2.70771 -3.1792 0
M  V30 7332 N 681.404 1.57128 0.121893 0
M  V30 7333 C 682.65 1.84974 0.831418 0
M  V30 7334 C 682.983 0.737204 1.79663 0
M  V30 7335 O 682.258 -0.257199 1.92792 0
M  V30 7336 C 682.541 3.23397 1.58386 0
M  V30 7337 C 682.394 4.45246 0.638445 0
M  V30 7338 C 683.713 3.59355 2.54071 0
M  V30 7339 H 680.832 0.67282 0.300803 0
M  V30 7340 H 683.474 1.89759 0.0957587 0
M  V30 7341 H 681.624 3.19449 2.21098 0
M  V30 7342 H 683.296 4.61295 0.0203925 0
M  V30 7343 H 681.539 4.33771 -0.05023 0
M  V30 7344 H 682.21 5.38765 1.20151 0
M  V30 7345 H 684.686 3.64075 2.01465 0
M  V30 7346 H 683.562 4.57193 3.03752 0
M  V30 7347 H 683.823 2.86622 3.36601 0
M  V30 7348 N 682.882 -0.391992 1.52647 0
M  V30 7349 C 683.812 -1.48517 1.8018 0
M  V30 7350 C 684.793 -1.57039 0.653667 0
M  V30 7351 O 685.978 -1.72036 0.900962 0
M  V30 7352 C 683.108 -2.86161 1.96797 0
M  V30 7353 C 682.062 -2.92481 3.12472 0
M  V30 7354 C 681.388 -4.32546 3.14338 0
M  V30 7355 C 682.688 -2.624 4.51601 0
M  V30 7356 H 684.382 -1.25726 2.71723 0
M  V30 7357 H 681.928 -0.603387 1.30749 0
M  V30 7358 H 683.881 -3.62639 2.14641 0
M  V30 7359 H 682.605 -3.10283 1.01941 0
M  V30 7360 H 681.264 -2.18451 2.94406 0
M  V30 7361 H 680.912 -4.53703 2.1717 0
M  V30 7362 H 680.612 -4.37695 3.92042 0
M  V30 7363 H 682.136 -5.10934 3.34333 0
M  V30 7364 H 683.55 -3.28596 4.69785 0
M  V30 7365 H 681.947 -2.78903 5.3135 0
M  V30 7366 H 683.017 -1.57754 4.58521 0
M  V30 7367 N 684.36 -1.4356 -0.65026 0
M  V30 7368 C 685.29 -1.51758 -1.77459 0
M  V30 7369 C 686.271 -0.372019 -1.65982 0
M  V30 7370 O 687.456 -0.589627 -1.85033 0
M  V30 7371 C 684.586 -1.44302 -3.15902 0
M  V30 7372 C 683.54 -2.57138 -3.42146 0
M  V30 7373 C 682.866 -2.34735 -4.8042 0
M  V30 7374 C 684.166 -3.99373 -3.36598 0
M  V30 7375 H 685.86 -2.45863 -1.70855 0
M  V30 7376 H 683.406 -1.18333 -0.820566 0
M  V30 7377 H 685.359 -1.48641 -3.94314 0
M  V30 7378 H 684.083 -0.467026 -3.23244 0
M  V30 7379 H 682.742 -2.52157 -2.66106 0
M  V30 7380 H 682.39 -1.35372 -4.84441 0
M  V30 7381 H 682.09 -3.10375 -4.9894 0
M  V30 7382 H 683.614 -2.40862 -5.61086 0
M  V30 7383 H 685.028 -4.05826 -4.04942 0
M  V30 7384 H 683.425 -4.75063 -3.66654 0
M  V30 7385 H 684.495 -4.243 -2.34729 0
M  V30 7386 N 685.838 0.888903 -1.30139 0
M  V30 7387 C 687.084 1.6428 -1.18912 0
M  V30 7388 C 687.417 1.92499 0.256477 0
M  V30 7389 O 686.692 1.54312 1.18397 0
M  V30 7390 C 686.975 2.9851 -2.01405 0
M  V30 7391 C 686.828 2.77288 -3.54163 0
M  V30 7392 C 688.147 3.99383 -1.84882 0
M  V30 7393 H 685.266 0.596148 -0.433333 0
M  V30 7394 H 687.908 1.0289 -1.5973 0
M  V30 7395 H 686.058 3.50907 -1.66722 0
M  V30 7396 H 687.73 2.31709 -3.98884 0
M  V30 7397 H 685.973 2.11867 -3.78543 0
M  V30 7398 H 686.644 3.72717 -4.07168 0
M  V30 7399 H 689.12 3.56132 -2.15196 0
M  V30 7400 H 687.996 4.91222 -2.44934 0
M  V30 7401 H 688.257 4.34674 -0.806902 0
M  V30 7402 N 687.317 1.12792 1.10072 0
M  V30 7403 C 688.563 0.886857 1.82381 0
M  V30 7404 C 688.896 -0.58576 1.85155 0
M  V30 7405 O 688.171 -1.43317 1.31493 0
M  V30 7406 C 688.454 1.46703 3.28862 0
M  V30 7407 C 688.307 3.00829 3.34398 0
M  V30 7408 C 689.626 1.12971 4.25353 0
M  V30 7409 H 686.745 0.32362 0.662148 0
M  V30 7410 H 689.387 1.39513 1.28982 0
M  V30 7411 H 687.537 1.03476 3.74466 0
M  V30 7412 H 689.209 3.52764 2.97247 0
M  V30 7413 H 687.452 3.36164 2.74183 0
M  V30 7414 H 688.123 3.36519 4.3756 0
M  V30 7415 H 690.599 1.50313 3.88001 0
M  V30 7416 H 689.475 1.56223 5.26199 0
M  V30 7417 H 689.736 0.0424452 4.4208 0
M  V30 7418 N 688.795 -1.27931 0.920396 0
M  V30 7419 C 690.041 -1.95329 0.5673 0
M  V30 7420 C 690.396 -1.7107 -0.880506 0
M  V30 7421 O 689.689 -1.02497 -1.61879 0
M  V30 7422 C 689.883 -3.47853 0.820558 0
M  V30 7423 C 689.712 -3.86941 2.29143 0
M  V30 7424 C 688.482 -4.10766 2.94278 0
M  V30 7425 C 690.68 -3.97091 3.26838 0
M  V30 7426 N 688.662 -4.36578 4.31594 0
M  V30 7427 C 690.033 -4.27194 4.49339 0
M  V30 7428 C 692.088 -3.79639 3.22147 0
M  V30 7429 C 690.791 -4.41662 5.67739 0
M  V30 7430 C 692.817 -3.95328 4.39852 0
M  V30 7431 C 692.179 -4.2581 5.61128 0
M  V30 7432 H 688.278 -0.73836 0.257583 0
M  V30 7433 H 690.862 -1.54447 1.1855 0
M  V30 7434 H 689.033 -3.87709 0.231571 0
M  V30 7435 H 690.765 -4.024 0.430824 0
M  V30 7436 H 687.52 -4.05318 2.44979 0
M  V30 7437 H 687.944 -4.53555 5.0261 0
M  V30 7438 H 692.586 -3.55119 2.29457 0
M  V30 7439 H 690.304 -4.65011 6.60901 0
M  V30 7440 H 693.89 -3.83253 4.37731 0
M  V30 7441 H 692.77 -4.37691 6.50689 0
M  V30 7442 N 690.273 -0.685099 -1.4193 0
M  V30 7443 C 691.236 -0.0222632 -2.29189 0
M  V30 7444 C 692.236 0.7186 -1.4385 0
M  V30 7445 O 693.426 0.555058 -1.6512 0
M  V30 7446 C 690.558 0.979013 -3.2654 0
M  V30 7447 H 691.751 -0.790424 -2.89296 0
M  V30 7448 H 689.304 -0.448012 -1.49742 0
M  V30 7449 H 690.039 1.77531 -2.71392 0
M  V30 7450 H 689.824 0.451037 -3.89497 0
M  V30 7451 H 691.314 1.44091 -3.91954 0
M  V30 7452 N 691.751 1.51645 -0.429126 0
M  V30 7453 C 693.167 1.59394 -0.080994 0
M  V30 7454 C 693.367 1.44064 1.40882 0
M  V30 7455 O 692.423 1.27771 2.17786 0
M  V30 7456 C 693.736 2.94779 -0.593773 0
M  V30 7457 C 695.284 3.08067 -0.553494 0
M  V30 7458 C 695.759 4.45963 -1.04311 0
M  V30 7459 N 697.25 4.5226 -1.00076 0
M  V30 7460 C 697.985 5.57268 -1.35056 0
M  V30 7461 N 697.481 6.69734 -1.77282 0
M  V30 7462 N 699.274 5.47582 -1.26925 0
M  V30 7463 H 691.425 1.59856 -1.39857 0
M  V30 7464 H 693.688 0.753095 -0.575805 0
M  V30 7465 H 693.394 3.11342 -1.63583 0
M  V30 7466 H 693.268 3.77197 -0.0142202 0
M  V30 7467 H 695.655 2.91177 0.479556 0
M  V30 7468 H 695.736 2.27508 -1.16935 0
M  V30 7469 H 695.38 4.63598 -2.07459 0
M  V30 7470 H 695.31 5.25049 -0.403873 0
M  V30 7471 H 697.801 3.71537 -0.690564 0
M  V30 7472 H 698.114 7.4587 -2.02232 0
M  V30 7473 H 696.459 6.70963 -1.81202 0
M  V30 7474 H 699.65 4.58604 -0.93809 0
M  V30 7475 H 699.823 6.29308 -1.54516 0
M  V30 7476 N 693.229 0.160201 1.56784 0
M  V30 7477 C 694.139 -0.787167 2.21 0
M  V30 7478 C 695.155 -1.26167 1.19825 0
M  V30 7479 O 696.331 -1.31611 1.52448 0
M  V30 7480 C 693.396 -2.00364 2.8294 0
M  V30 7481 C 692.457 -1.5771 3.99282 0
M  V30 7482 C 691.69 -2.73558 4.58259 0
M  V30 7483 O 691.913 -3.90129 4.16119 0
M  V30 7484 O 690.847 -2.48271 5.48311 0
M  V30 7485 H 694.673 -0.270462 3.02493 0
M  V30 7486 H 692.258 -0.0674666 1.49248 0
M  V30 7487 H 694.14 -2.71529 3.22257 0
M  V30 7488 H 692.815 -2.50961 2.04451 0
M  V30 7489 H 691.722 -0.835274 3.64656 0
M  V30 7490 H 693.055 -1.11815 4.79331 0
M  V30 7491 N 694.707 -1.5719 -0.113559 0
M  V30 7492 C 695.937 -1.89053 -0.833212 0
M  V30 7493 C 696.345 -0.750139 -1.73694 0
M  V30 7494 O 695.688 0.287808 -1.81431 0
M  V30 7495 C 695.75 -3.15986 -1.71443 0
M  V30 7496 C 695.414 -4.46271 -0.984449 0
M  V30 7497 C 696.411 -5.18897 -0.322741 0
M  V30 7498 C 694.096 -4.92963 -0.964011 0
M  V30 7499 C 696.09 -6.3644 0.349646 0
M  V30 7500 C 693.777 -6.10422 -0.287828 0
M  V30 7501 C 694.775 -6.82009 0.36784 0
M  V30 7502 O 694.463 -7.97233 1.03322 0
M  V30 7503 H 694.195 -0.630225 -0.244526 0
M  V30 7504 H 696.749 -2.05152 -0.100847 0
M  V30 7505 H 694.979 -2.95984 -2.48858 0
M  V30 7506 H 696.668 -3.33826 -2.309 0
M  V30 7507 H 697.434 -4.83875 -0.330114 0
M  V30 7508 H 693.313 -4.37143 -1.46379 0
M  V30 7509 H 696.857 -6.92254 0.861996 0
M  V30 7510 H 692.754 -6.449 -0.278237 0
M  V30 7511 H 693.522 -8.13105 0.938247 0
M  V30 7512 N 696.185 0.383891 -1.52853 0
M  V30 7513 C 697.434 1.12563 -1.67369 0
M  V30 7514 C 697.747 1.90982 -0.422533 0
M  V30 7515 O 698.953 2.6778 -0.447914 0
M  V30 7516 C 697.409 2.05011 -2.95801 0
M  V30 7517 C 697.017 1.31991 -4.28115 0
M  V30 7518 C 698.761 2.79289 -3.19684 0
M  V30 7519 C 696.668 2.23235 -5.4765 0
M  V30 7520 H 695.598 0.42391 -0.623552 0
M  V30 7521 H 698.249 0.388016 -1.79351 0
M  V30 7522 H 696.631 2.82429 -2.77578 0
M  V30 7523 H 697.805 0.597633 -4.56908 0
M  V30 7524 H 696.12 0.696517 -4.10533 0
M  V30 7525 H 698.717 3.47749 -4.06171 0
M  V30 7526 H 699.06 3.43649 -2.3497 0
M  V30 7527 H 699.593 2.08962 -3.38496 0
M  V30 7528 H 696.332 1.63482 -6.34786 0
M  V30 7529 H 695.852 2.93364 -5.23161 0
M  V30 7530 H 697.531 2.83205 -5.81725 0
M  V30 7531 N 697.663 1.43903 0.642637 0
M  V30 7532 C 699.074 1.40975 1.22404 0
M  V30 7533 C 699.425 0.1192 1.95838 0
M  V30 7534 O 698.55 -0.780939 2.01818 0
M  V30 7535 C 699.145 2.5538 2.22636 0
M  V30 7536 C 697.704 2.55684 2.76229 0
M  V30 7537 C 696.851 2.32556 1.51039 0
M  V30 7538 H 699.802 1.5265 0.434006 0
M  V30 7539 H 699.823 2.27474 3.05017 0
M  V30 7540 H 699.335 3.49294 1.69161 0
M  V30 7541 H 697.436 1.65679 3.33738 0
M  V30 7542 H 697.549 3.53799 3.23053 0
M  V30 7543 H 695.913 1.81427 1.78764 0
M  V30 7544 H 696.696 3.28569 0.99484 0
M  V30 7545 N 699.141 -0.881989 1.30609 0
M  V30 7546 C 700.088 -1.98803 1.17244 0
M  V30 7547 C 701.058 -1.65987 0.0611905 0
M  V30 7548 O 702.243 -1.89385 0.231911 0
M  V30 7549 C 699.383 -3.33867 0.87333 0
M  V30 7550 C 698.496 -3.79354 2.06675 0
M  V30 7551 C 697.631 -5.03078 1.70547 0
M  V30 7552 C 696.67 -5.40981 2.86366 0
M  V30 7553 N 695.807 -6.55886 2.50514 0
M  V30 7554 H 700.647 -2.09566 2.11863 0
M  V30 7555 H 698.184 -1.02607 1.05405 0
M  V30 7556 H 700.142 -4.11612 0.680519 0
M  V30 7557 H 698.772 -3.2278 -0.0359983 0
M  V30 7558 H 697.824 -2.97492 2.37071 0
M  V30 7559 H 699.136 -4.03382 2.93401 0
M  V30 7560 H 698.29 -5.88457 1.47658 0
M  V30 7561 H 697.029 -4.80927 0.809947 0
M  V30 7562 H 696.034 -4.54127 3.09917 0
M  V30 7563 H 697.259 -5.65104 3.76609 0
M  V30 7564 H 695.205 -6.35306 1.63471 0
M  V30 7565 H 695.122 -6.79799 3.30771 0
M  V30 7566 H 696.39 -7.44489 2.30989 0
M  V30 7567 N 700.619 -1.13374 -1.09472 0
M  V30 7568 C 701.868 -0.889844 -1.8101 0
M  V30 7569 C 702.181 0.585686 -1.86625 0
M  V30 7570 O 703.387 0.946497 -2.54467 0
M  V30 7571 C 701.843 -1.54241 -3.25174 0
M  V30 7572 C 701.451 -3.05343 -3.27826 0
M  V30 7573 C 703.195 -1.37919 -4.0147 0
M  V30 7574 C 701.102 -3.63486 -4.6651 0
M  V30 7575 H 700.032 -0.329256 -0.678311 0
M  V30 7576 H 702.683 -1.36139 -1.23038 0
M  V30 7577 H 701.065 -0.998525 -3.83204 0
M  V30 7578 H 702.239 -3.66307 -2.79563 0
M  V30 7579 H 700.554 -3.21175 -2.65019 0
M  V30 7580 H 703.151 -1.78771 -5.03929 0
M  V30 7581 H 703.494 -0.323987 -4.15037 0
M  V30 7582 H 704.027 -1.89284 -3.49881 0
M  V30 7583 H 700.766 -4.68811 -4.58145 0
M  V30 7584 H 700.286 -3.073 -5.15099 0
M  V30 7585 H 701.965 -3.63134 -5.35484 0
M  V30 7586 N 702.098 1.27442 -0.927168 0
M  V30 7587 C 703.031 2.25177 -0.370232 0
M  V30 7588 C 704.009 1.53612 0.533103 0
M  V30 7589 O 705.193 1.8245 0.47373 0
M  V30 7590 C 702.32 3.35431 0.469411 0
M  V30 7591 C 701.366 4.24888 -0.370419 0
M  V30 7592 S 702.199 5.04852 -1.78562 0
M  V30 7593 C 703.355 6.18592 -0.953651 0
M  V30 7594 H 703.588 2.72069 -1.19858 0
M  V30 7595 H 701.121 1.36089 -0.729316 0
M  V30 7596 H 703.079 3.99404 0.947992 0
M  V30 7597 H 701.74 2.87179 1.27228 0
M  V30 7598 H 700.933 5.03264 0.272226 0
M  V30 7599 H 700.535 3.65709 -0.783153 0
M  V30 7600 H 702.827 6.77235 -0.189408 0
M  V30 7601 H 703.77 6.87132 -1.7104 0
M  V30 7602 H 704.178 5.62318 -0.495897 0
M  V30 7603 N 703.576 0.692616 1.41565 0
M  V30 7604 C 704.486 0.0258451 2.34586 0
M  V30 7605 C 705.502 -0.769324 1.56069 0
M  V30 7606 O 706.678 -0.707563 1.88562 0
M  V30 7607 C 703.743 -0.901289 3.3478 0
M  V30 7608 C 702.804 -0.0986579 4.29187 0
M  V30 7609 C 702.037 -0.981634 5.24595 0
M  V30 7610 O 702.26 -2.22115 5.25377 0
M  V30 7611 O 701.194 -0.432892 6.00341 0
M  V30 7612 H 705.02 0.792537 2.93177 0
M  V30 7613 H 702.605 0.452935 1.42369 0
M  V30 7614 H 704.487 -1.43302 3.96286 0
M  V30 7615 H 703.162 -1.64752 2.78637 0
M  V30 7616 H 702.069 0.477604 3.71039 0
M  V30 7617 H 703.402 0.608848 4.8842 0
M  V30 7618 N 705.054 -1.51416 0.437162 0
M  V30 7619 C 705.964 -2.31493 -0.380537 0
M  V30 7620 C 706.98 -1.40399 -1.02782 0
M  V30 7621 O 708.156 -1.73471 -1.02323 0
M  V30 7622 C 705.221 -3.1413 -1.46709 0
M  V30 7623 C 704.282 -4.21003 -0.839953 0
M  V30 7624 C 703.515 -4.9969 -1.87473 0
M  V30 7625 O 703.738 -4.79008 -3.09689 0
M  V30 7626 O 702.672 -5.8379 -1.46536 0
M  V30 7627 H 706.498 -3.02469 0.273183 0
M  V30 7628 H 704.083 -1.48059 0.199706 0
M  V30 7629 H 705.965 -3.65505 -2.09724 0
M  V30 7630 H 704.64 -2.45919 -2.10489 0
M  V30 7631 H 703.547 -3.73706 -0.171752 0
M  V30 7632 H 704.88 -4.91587 -0.245638 0
M  V30 7633 N 706.532 -0.168513 -1.56696 0
M  V30 7634 C 707.76 0.483503 -2.01171 0
M  V30 7635 C 708.175 1.56994 -1.04872 0
M  V30 7636 O 707.532 1.82434 -0.0491337 0
M  V30 7637 C 707.583 1.0644 -3.45475 0
M  V30 7638 O 707.304 0.0213375 -4.38095 0
M  V30 7639 C 708.805 1.79493 -4.05336 0
M  V30 7640 H 706.025 0.124002 -0.659443 0
M  V30 7641 H 708.569 -0.269419 -2.02717 0
M  V30 7642 H 706.724 1.76784 -3.44712 0
M  V30 7643 H 707.138 0.449837 -5.22567 0
M  V30 7644 H 708.612 2.15401 -5.08238 0
M  V30 7645 H 709.089 2.68889 -3.47269 0
M  V30 7646 H 709.695 1.13798 -4.09793 0
M  V30 7647 N 708.01 1.57248 0.105221 0
M  V30 7648 C 708.96 1.9777 1.1345 0
M  V30 7649 C 709.944 0.854654 1.36325 0
M  V30 7650 O 711.136 1.11844 1.37186 0
M  V30 7651 C 708.265 2.39717 2.45745 0
M  V30 7652 C 707.351 3.58686 2.26286 0
M  V30 7653 N 707.742 4.73942 1.76671 0
M  V30 7654 C 706.04 3.64586 2.56891 0
M  V30 7655 C 706.741 5.55923 1.71245 0
M  V30 7656 N 705.717 4.98803 2.16093 0
M  V30 7657 H 709.519 2.84336 0.743664 0
M  V30 7658 H 707.033 1.59359 0.312787 0
M  V30 7659 H 709.03 2.66971 3.20206 0
M  V30 7660 H 707.69 1.54523 2.85574 0
M  V30 7661 H 708.701 4.9689 1.46016 0
M  V30 7662 H 705.378 2.90031 3.00314 0
M  V30 7663 H 706.768 6.58398 1.34022 0
M  V30 7664 N 709.488 -0.375779 1.53054 0
M  V30 7665 C 710.734 -1.11767 1.6994 0
M  V30 7666 C 711.089 -1.87288 0.440574 0
M  V30 7667 O 710.382 -1.83045 -0.566146 0
M  V30 7668 C 710.576 -2.11356 2.88207 0
M  V30 7669 C 710.405 -1.45619 4.25471 0
M  V30 7670 C 709.175 -1.21464 4.90484 0
M  V30 7671 C 711.373 -0.899276 5.06377 0
M  V30 7672 N 709.355 -0.519705 6.11696 0
M  V30 7673 C 710.726 -0.333138 6.19104 0
M  V30 7674 C 712.781 -0.79697 4.9148 0
M  V30 7675 C 711.484 0.325316 7.18564 0
M  V30 7676 C 713.51 -0.152315 5.91204 0
M  V30 7677 C 712.872 0.402994 7.03246 0
M  V30 7678 H 708.971 -0.394489 0.675206 0
M  V30 7679 H 711.555 -0.40541 1.90432 0
M  V30 7680 H 709.726 -2.79905 2.69272 0
M  V30 7681 H 711.458 -2.78148 2.93966 0
M  V30 7682 H 708.213 -1.49319 4.49445 0
M  V30 7683 H 708.637 -0.187896 6.76739 0
M  V30 7684 H 713.279 -1.21208 4.05054 0
M  V30 7685 H 710.997 0.752399 8.0459 0
M  V30 7686 H 714.583 -0.074223 5.81753 0
M  V30 7687 H 713.463 0.89394 7.79088 0
M  V30 7688 N 710.966 -1.44241 -0.634997 0
M  V30 7689 C 712.194 -1.50296 -1.42193 0
M  V30 7690 C 712.609 -0.12658 -1.88375 0
M  V30 7691 O 711.966 0.86678 -1.60603 0
M  V30 7692 C 712.017 -2.46437 -2.64482 0
M  V30 7693 O 711.738 -3.78724 -2.20226 0
M  V30 7694 C 713.239 -2.61918 -3.57651 0
M  V30 7695 H 710.459 -0.509865 -0.43621 0
M  V30 7696 H 713.003 -1.89167 -0.776921 0
M  V30 7697 H 711.158 -2.10712 -3.25083 0
M  V30 7698 H 711.572 -4.30595 -2.9948 0
M  V30 7699 H 713.046 -3.33225 -4.40074 0
M  V30 7700 H 713.523 -1.67017 -4.06204 0
M  V30 7701 H 714.129 -2.98528 -3.02921 0
M  V30 7702 N 712.444 0.87505 -1.31075 0
M  V30 7703 C 713.69 1.63009 -1.20647 0
M  V30 7704 C 714.023 1.9276 0.236045 0
M  V30 7705 O 713.298 1.55559 1.16754 0
M  V30 7706 C 713.581 2.96357 -2.0456 0
M  V30 7707 C 713.434 2.73516 -3.57084 0
M  V30 7708 C 714.753 3.974 -1.89107 0
M  V30 7709 H 711.872 0.591518 -0.439631 0
M  V30 7710 H 714.514 1.0119 -1.60812 0
M  V30 7711 H 712.664 3.49119 -1.70435 0
M  V30 7712 H 714.336 2.27465 -4.01319 0
M  V30 7713 H 712.579 2.0784 -3.80769 0
M  V30 7714 H 713.25 3.68377 -4.11099 0
M  V30 7715 H 715.726 3.5383 -2.18961 0
M  V30 7716 H 714.602 4.88596 -2.5013 0
M  V30 7717 H 714.863 4.33794 -0.85296 0
M  V30 7718 N 713.922 1.13953 1.08869 0
M  V30 7719 C 715.168 0.916103 1.81602 0
M  V30 7720 C 715.523 -0.551633 1.84322 0
M  V30 7721 O 714.816 -1.40322 1.30462 0
M  V30 7722 C 715.01 1.44495 3.26888 0
M  V30 7723 C 714.839 2.96257 3.38322 0
M  V30 7724 C 713.609 3.64658 3.49789 0
M  V30 7725 C 715.807 3.94156 3.30372 0
M  V30 7726 N 713.789 5.04379 3.49965 0
M  V30 7727 C 715.16 5.20101 3.37484 0
M  V30 7728 C 717.215 3.86342 3.14077 0
M  V30 7729 C 715.918 6.39145 3.29979 0
M  V30 7730 C 717.944 5.04927 3.07901 0
M  V30 7731 C 717.306 6.29738 3.1561 0
M  V30 7732 H 713.405 0.388701 0.678554 0
M  V30 7733 H 715.989 1.44879 1.3007 0
M  V30 7734 H 714.16 0.939102 3.76876 0
M  V30 7735 H 715.892 1.16193 3.87661 0
M  V30 7736 H 712.647 3.15196 3.5348 0
M  V30 7737 H 713.071 5.77305 3.53622 0
M  V30 7738 H 717.713 2.90726 3.06982 0
M  V30 7739 H 715.431 7.3501 3.35836 0
M  V30 7740 H 719.017 5.00626 2.9642 0
M  V30 7741 H 717.897 7.19958 3.10854 0
M  V30 7742 N 715.4 -1.26948 0.933913 0
M  V30 7743 C 716.649 -1.93378 0.573409 0
M  V30 7744 C 716.962 -1.74148 -0.890614 0
M  V30 7745 O 718.168 -2.34971 -1.36017 0
M  V30 7746 C 716.624 -3.46449 0.974747 0
M  V30 7747 C 716.232 -3.74425 2.45988 0
M  V30 7748 C 717.976 -4.18924 0.685791 0
M  V30 7749 C 715.883 -5.209 2.8003 0
M  V30 7750 H 714.813 -0.723952 0.210736 0
M  V30 7751 H 717.464 -1.44143 1.13557 0
M  V30 7752 H 715.846 -3.94528 0.341181 0
M  V30 7753 H 717.02 -3.37079 3.14188 0
M  V30 7754 H 715.335 -3.15167 2.72138 0
M  V30 7755 H 717.932 -5.26786 0.916546 0
M  V30 7756 H 718.275 -4.14587 -0.377217 0
M  V30 7757 H 718.808 -3.76687 1.27874 0
M  V30 7758 H 715.547 -5.30332 3.85264 0
M  V30 7759 H 715.067 -5.59369 2.16485 0
M  V30 7760 H 716.746 -5.88837 2.68105 0
M  V30 7761 N 716.879 -0.700114 -1.41195 0
M  V30 7762 C 718.107 -0.242179 -2.05478 0
M  V30 7763 C 718.522 1.11029 -1.52702 0
M  V30 7764 O 717.879 1.69473 -0.677127 0
M  V30 7765 C 717.93 -0.196271 -3.60967 0
M  V30 7766 O 717.651 -1.49532 -4.11791 0
M  V30 7767 C 719.152 0.282102 -4.42401 0
M  V30 7768 H 716.372 -0.111749 -0.661629 0
M  V30 7769 H 718.916 -0.953975 -1.80885 0
M  V30 7770 H 717.071 0.46638 -3.84582 0
M  V30 7771 H 717.485 -1.38545 -5.05871 0
M  V30 7772 H 718.959 0.263093 -5.51373 0
M  V30 7773 H 719.436 1.32174 -4.1884 0
M  V30 7774 H 720.042 -0.349712 -4.2386 0
M  V30 7775 N 718.357 1.51182 -0.445186 0
M  V30 7776 C 719.773 1.59299 -0.0978954 0
M  V30 7777 C 719.973 1.4555 1.39346 0
M  V30 7778 O 719.029 1.30073 2.16419 0
M  V30 7779 C 720.342 2.94133 -0.625005 0
M  V30 7780 C 721.89 3.07463 -0.586137 0
M  V30 7781 C 722.365 4.44832 -1.09035 0
M  V30 7782 N 723.856 4.51173 -1.04867 0
M  V30 7783 C 724.591 5.55804 -1.40959 0
M  V30 7784 N 724.087 6.67816 -1.84375 0
M  V30 7785 N 725.88 5.46205 -1.32726 0
M  V30 7786 H 718.031 1.58363 -1.41544 0
M  V30 7787 H 720.294 0.746946 -0.58376 0
M  V30 7788 H 720 3.09589 -1.66876 0
M  V30 7789 H 719.874 3.77161 -0.0542262 0
M  V30 7790 H 722.261 2.9167 0.448646 0
M  V30 7791 H 722.342 2.26255 -1.19341 0
M  V30 7792 H 721.986 4.61372 -2.12364 0
M  V30 7793 H 721.916 5.24591 -0.459539 0
M  V30 7794 H 724.407 3.70783 -0.729932 0
M  V30 7795 H 724.72 7.43683 -2.10131 0
M  V30 7796 H 723.065 6.69003 -1.88308 0
M  V30 7797 H 726.256 4.57583 -0.986678 0
M  V30 7798 H 726.429 6.27634 -1.61182 0
M  V30 7799 N 719.835 0.176821 1.56605 0
M  V30 7800 C 721.082 -0.466715 1.97048 0
M  V30 7801 C 721.41 -1.6288 1.06302 0
M  V30 7802 O 720.665 -1.95453 0.0982571 0
M  V30 7803 C 720.964 -0.986208 3.43524 0
M  V30 7804 C 720.63 0.0605667 4.50859 0
M  V30 7805 C 719.292 0.348242 4.79938 0
M  V30 7806 C 721.644 0.770794 5.15469 0
M  V30 7807 C 718.972 1.35144 5.70923 0
M  V30 7808 C 721.324 1.76301 6.07537 0
M  V30 7809 C 719.988 2.05808 6.3498 0
M  V30 7810 H 719.258 -0.170783 0.721051 0
M  V30 7811 H 721.905 0.269942 1.89588 0
M  V30 7812 H 720.21 -1.80079 3.47964 0
M  V30 7813 H 721.907 -1.49323 3.72161 0
M  V30 7814 H 718.497 -0.173823 4.28247 0
M  V30 7815 H 722.681 0.56176 4.9311 0
M  V30 7816 H 717.937 1.58616 5.90467 0
M  V30 7817 H 722.111 2.31868 6.56666 0
M  V30 7818 H 719.738 2.8369 7.05283 0
M  V30 7819 N 721.313 -1.57302 -0.09688 0
M  V30 7820 C 722.543 -1.89926 -0.813114 0
M  V30 7821 C 722.951 -0.76852 -1.72888 0
M  V30 7822 O 722.294 0.268549 -1.81726 0
M  V30 7823 C 722.356 -3.17787 -1.68082 0
M  V30 7824 C 722.02 -4.4729 -0.937061 0
M  V30 7825 C 723.017 -5.1921 -0.267687 0
M  V30 7826 C 720.702 -4.93957 -0.911671 0
M  V30 7827 C 722.696 -6.36034 0.417129 0
M  V30 7828 C 720.383 -6.10693 -0.223068 0
M  V30 7829 C 721.381 -6.8158 0.440155 0
M  V30 7830 O 721.069 -7.96092 1.11772 0
M  V30 7831 H 720.801 -0.632783 -0.237828 0
M  V30 7832 H 723.355 -2.05248 -0.0790818 0
M  V30 7833 H 721.585 -2.98607 -2.45705 0
M  V30 7834 H 723.274 -3.36257 -2.27346 0
M  V30 7835 H 724.04 -4.84198 -0.278774 0
M  V30 7836 H 719.919 -4.38671 -1.41734 0
M  V30 7837 H 723.463 -6.91301 0.93537 0
M  V30 7838 H 719.36 -6.45159 -0.209821 0
M  V30 7839 H 720.128 -8.12064 1.02443 0
M  V30 7840 N 722.791 0.367657 -1.53252 0
M  V30 7841 C 724.04 1.10782 -1.68554 0
M  V30 7842 C 724.353 1.90523 -0.442765 0
M  V30 7843 O 725.559 2.6729 -0.47629 0
M  V30 7844 C 724.015 2.01863 -2.97959 0
M  V30 7845 C 723.623 1.27443 -4.29491 0
M  V30 7846 C 725.367 2.75883 -3.22628 0
M  V30 7847 C 723.274 2.17414 -5.49987 0
M  V30 7848 H 722.204 0.417272 -0.628013 0
M  V30 7849 H 724.855 0.368971 -1.79752 0
M  V30 7850 H 723.237 2.7947 -2.80558 0
M  V30 7851 H 724.411 0.549138 -4.57516 0
M  V30 7852 H 722.726 0.652935 -4.11249 0
M  V30 7853 H 725.323 3.43421 -4.09837 0
M  V30 7854 H 725.666 3.41138 -2.38601 0
M  V30 7855 H 726.199 2.0536 -3.40693 0
M  V30 7856 H 722.938 1.5674 -6.36485 0
M  V30 7857 H 722.458 2.87799 -5.26243 0
M  V30 7858 H 724.137 2.77019 -5.84696 0
M  V30 7859 N 724.269 1.44576 0.627338 0
M  V30 7860 C 725.518 1.46837 1.38281 0
M  V30 7861 C 725.831 0.10635 1.95311 0
M  V30 7862 O 727.037 0.00651084 2.71499 0
M  V30 7863 C 725.493 2.58527 2.50384 0
M  V30 7864 C 725.101 4.00953 1.99851 0
M  V30 7865 C 726.845 2.70013 3.27557 0
M  V30 7866 C 724.752 5.0406 3.09318 0
M  V30 7867 H 723.682 0.546319 0.519664 0
M  V30 7868 H 726.333 1.70654 0.674497 0
M  V30 7869 H 724.715 2.27957 3.23808 0
M  V30 7870 H 725.889 4.41108 1.33267 0
M  V30 7871 H 724.204 3.93743 1.35482 0
M  V30 7872 H 726.801 3.44217 4.09168 0
M  V30 7873 H 727.144 1.75961 3.77284 0
M  V30 7874 H 727.677 3.00011 2.61224 0
M  V30 7875 H 724.416 5.99753 2.6453 0
M  V30 7876 H 723.936 4.68493 3.74532 0
M  V30 7877 H 725.615 5.2793 3.74031 0
M  V30 7878 N 725.747 -0.868086 1.31537 0
M  V30 7879 C 726.995 -1.61807 1.21091 0
M  V30 7880 C 727.316 -1.93631 -0.230623 0
M  V30 7881 O 726.586 -1.5846 -1.15183 0
M  V30 7882 H 725.166 -0.599854 0.445178 0
M  V30 7883 H 727.828 -1.03915 1.64887 0
M  V30 7884 H 726.924 -2.56088 1.78396 0
M  V30 7885 N 727.225 -1.14528 -1.08264 0
M  V30 7886 C 728.155 -0.856356 -2.1723 0
M  V30 7887 C 729.136 0.189251 -1.69044 0
M  V30 7888 O 730.321 0.0456119 -1.94146 0
M  V30 7889 C 727.451 -0.334662 -3.45684 0
M  V30 7890 C 726.405 -1.31588 -4.0727 0
M  V30 7891 C 725.731 -0.653428 -5.30692 0
M  V30 7892 C 727.031 -2.67866 -4.48381 0
M  V30 7893 H 728.725 -1.76755 -2.41657 0
M  V30 7894 H 726.271 -0.851287 -1.16143 0
M  V30 7895 H 728.224 -0.120128 -4.21229 0
M  V30 7896 H 726.948 0.611967 -3.20815 0
M  V30 7897 H 725.607 -1.51661 -3.33758 0
M  V30 7898 H 725.255 0.299054 -5.0211 0
M  V30 7899 H 724.955 -1.30817 -5.72853 0
M  V30 7900 H 726.479 -0.448453 -6.08951 0
M  V30 7901 H 727.893 -2.51692 -5.15096 0
M  V30 7902 H 726.29 -3.29627 -5.01464 0
M  V30 7903 H 727.36 -3.24632 -3.60198 0
M  V30 7904 N 728.703 1.26451 -0.940633 0
M  V30 7905 C 729.95 1.93778 -0.587909 0
M  V30 7906 C 730.278 1.73811 0.872935 0
M  V30 7907 O 729.533 1.06816 1.63978 0
M  V30 7908 C 729.832 3.46503 -0.875794 0
M  V30 7909 C 729.498 3.86609 -2.32043 0
M  V30 7910 C 728.16 3.97269 -2.71534 0
M  V30 7911 C 730.512 4.0672 -3.25927 0
M  V30 7912 C 727.84 4.25436 -4.04006 0
M  V30 7913 C 730.192 4.36375 -4.57995 0
M  V30 7914 C 728.856 4.45249 -4.97302 0
M  V30 7915 H 728.126 0.709084 -0.215131 0
M  V30 7916 H 730.773 1.50272 -1.18704 0
M  V30 7917 H 729.078 3.91319 -0.194124 0
M  V30 7918 H 730.775 3.96759 -0.581665 0
M  V30 7919 H 727.365 3.78858 -2.00411 0
M  V30 7920 H 731.549 3.97912 -2.96614 0
M  V30 7921 H 726.805 4.30519 -4.34124 0
M  V30 7922 H 730.979 4.50882 -5.30734 0
M  V30 7923 H 728.606 4.66829 -5.99979 0
M  V30 7924 N 730.181 0.707592 1.40822 0
M  V30 7925 C 731.111 0.0644925 2.33411 0
M  V30 7926 C 732.092 -0.754205 1.52466 0
M  V30 7927 O 733.277 -0.704749 1.80961 0
M  V30 7928 C 730.407 -0.863865 3.36385 0
M  V30 7929 C 729.361 -0.15138 4.27732 0
M  V30 7930 C 728.687 -1.19491 5.21177 0
M  V30 7931 C 729.987 0.989607 5.12839 0
M  V30 7932 H 731.681 0.837829 2.87438 0
M  V30 7933 H 729.227 0.404346 1.38207 0
M  V30 7934 H 731.18 -1.32309 4.0009 0
M  V30 7935 H 729.904 -1.66901 2.80734 0
M  V30 7936 H 728.563 0.287937 3.65467 0
M  V30 7937 H 728.211 -1.9929 4.61836 0
M  V30 7938 H 727.911 -0.723123 5.83134 0
M  V30 7939 H 729.435 -1.6544 5.8776 0
M  V30 7940 H 730.849 0.610114 5.70044 0
M  V30 7941 H 729.246 1.38926 5.83798 0
M  V30 7942 H 730.316 1.82389 4.49291 0
M  V30 7943 N 731.66 -1.50943 0.453197 0
M  V30 7944 C 732.907 -2.02212 -0.107922 0
M  V30 7945 C 733.235 -1.33639 -1.41318 0
M  V30 7946 O 732.49 -0.445154 -1.9057 0
M  V30 7947 C 732.789 -3.55603 -0.357944 0
M  V30 7948 C 732.455 -4.42556 0.863427 0
M  V30 7949 C 731.117 -4.6604 1.19834 0
M  V30 7950 C 733.469 -4.93468 1.67747 0
M  V30 7951 C 730.797 -5.37681 2.34768 0
M  V30 7952 C 733.149 -5.6637 2.81793 0
M  V30 7953 C 731.813 -5.88113 3.1572 0
M  V30 7954 H 731.083 -0.739947 -0.0394916 0
M  V30 7955 H 733.73 -1.81738 0.60363 0
M  V30 7956 H 732.035 -3.74495 -1.15156 0
M  V30 7957 H 733.732 -3.92821 -0.805781 0
M  V30 7958 H 730.322 -4.24485 0.592478 0
M  V30 7959 H 734.506 -4.75194 1.43192 0
M  V30 7960 H 729.762 -5.52727 2.61348 0
M  V30 7961 H 733.936 -6.04806 3.45229 0
M  V30 7962 H 731.563 -6.43404 4.04889 0
M  V30 7963 N 733.138 -0.185124 -1.56509 0
M  V30 7964 C 734.068 0.735098 -2.21627 0
M  V30 7965 C 735.049 1.2288 -1.1762 0
M  V30 7966 O 736.234 1.27945 -1.46095 0
M  V30 7967 C 733.364 1.95889 -2.86783 0
M  V30 7968 C 732.318 1.6005 -3.96948 0
M  V30 7969 C 731.644 2.90009 -4.4922 0
M  V30 7970 C 732.944 0.818008 -5.15855 0
M  V30 7971 H 734.638 0.192274 -2.98782 0
M  V30 7972 H 732.184 0.0910393 -1.43712 0
M  V30 7973 H 734.137 2.60779 -3.31017 0
M  V30 7974 H 732.861 2.52608 -2.07018 0
M  V30 7975 H 731.52 0.975237 -3.5339 0
M  V30 7976 H 731.168 3.44797 -3.6623 0
M  V30 7977 H 730.868 2.66778 -5.23549 0
M  V30 7978 H 732.392 3.55904 -4.9615 0
M  V30 7979 H 733.806 1.36979 -5.56695 0
M  V30 7980 H 732.203 0.684207 -5.96187 0
M  V30 7981 H 733.273 -0.182939 -4.84555 0
M  V30 7982 N 734.616 1.57351 0.0885366 0
M  V30 7983 C 735.844 1.90631 0.804196 0
M  V30 7984 C 736.259 0.779474 1.71958 0
M  V30 7985 O 735.616 -0.248179 1.80805 0
M  V30 7986 C 735.667 3.23568 1.61202 0
M  V30 7987 O 735.388 4.31917 0.733447 0
M  V30 7988 C 736.889 3.70753 2.43016 0
M  V30 7989 H 734.109 0.630501 0.229585 0
M  V30 7990 H 736.653 2.044 0.0638092 0
M  V30 7991 H 734.808 3.11377 2.30485 0
M  V30 7992 H 735.222 5.08297 1.29361 0
M  V30 7993 H 736.696 4.66447 2.9518 0
M  V30 7994 H 737.173 2.98922 3.2178 0
M  V30 7995 H 737.779 3.85834 1.7892 0
M  V30 7996 N 736.094 -0.359525 1.53444 0
M  V30 7997 C 737.341 -1.10152 1.6992 0
M  V30 7998 C 737.669 -1.89125 0.4541 0
M  V30 7999 O 736.924 -1.87396 -0.564023 0
M  V30 8000 C 737.223 -2.08287 2.90433 0
M  V30 8001 C 736.889 -1.45749 4.26694 0
M  V30 8002 C 735.551 -1.28421 4.63747 0
M  V30 8003 C 737.903 -1.00557 5.11408 0
M  V30 8004 C 735.231 -0.644951 5.83144 0
M  V30 8005 C 737.583 -0.380288 6.31456 0
M  V30 8006 C 736.247 -0.194557 6.67216 0
M  V30 8007 H 735.517 -0.403076 0.621781 0
M  V30 8008 H 738.164 -0.382612 1.87639 0
M  V30 8009 H 736.469 -2.86503 2.67251 0
M  V30 8010 H 738.166 -2.65662 3.00374 0
M  V30 8011 H 734.756 -1.6023 3.97523 0
M  V30 8012 H 738.94 -1.12735 4.83326 0
M  V30 8013 H 734.196 -0.48952 6.09437 0
M  V30 8014 H 738.37 -0.0219455 6.96397 0
M  V30 8015 H 735.997 0.30285 7.59597 0
M  V30 8016 N 737.572 -1.44907 -0.619662 0
M  V30 8017 C 738.502 -1.55488 -1.742 0
M  V30 8018 C 739.483 -0.407143 -1.65156 0
M  V30 8019 O 740.668 -0.628743 -1.8374 0
M  V30 8020 C 737.798 -1.5097 -3.1277 0
M  V30 8021 C 736.752 -2.64337 -3.36615 0
M  V30 8022 C 736.078 -2.44872 -4.75333 0
M  V30 8023 C 737.378 -4.06423 -3.28051 0
M  V30 8024 H 739.072 -2.49432 -1.65602 0
M  V30 8025 H 736.618 -1.20047 -0.795281 0
M  V30 8026 H 738.571 -1.56971 -3.91073 0
M  V30 8027 H 737.295 -0.535486 -3.2218 0
M  V30 8028 H 735.954 -2.57744 -2.60698 0
M  V30 8029 H 735.602 -1.45617 -4.81461 0
M  V30 8030 H 735.302 -3.20888 -4.92244 0
M  V30 8031 H 736.826 -2.52709 -5.55851 0
M  V30 8032 H 738.24 -4.14324 -3.96243 0
M  V30 8033 H 736.637 -4.82733 -3.56495 0
M  V30 8034 H 737.707 -4.29183 -2.25676 0
M  V30 8035 N 739.05 0.861098 -1.31996 0
M  V30 8036 C 740.296 1.61721 -1.22369 0
M  V30 8037 C 740.629 1.93 0.215587 0
M  V30 8038 O 739.904 1.56789 1.15098 0
M  V30 8039 C 740.187 2.9417 -2.07691 0
M  V30 8040 C 740.04 2.69714 -3.59965 0
M  V30 8041 C 741.359 3.95372 -1.93312 0
M  V30 8042 H 738.478 0.586822 -0.44588 0
M  V30 8043 H 741.12 0.994788 -1.61876 0
M  V30 8044 H 739.27 3.47292 -1.74128 0
M  V30 8045 H 740.942 2.23196 -4.03709 0
M  V30 8046 H 739.185 2.03789 -3.82952 0
M  V30 8047 H 739.856 3.63996 -4.14983 0
M  V30 8048 H 742.332 3.51487 -2.22701 0
M  V30 8049 H 741.208 4.85916 -2.55298 0
M  V30 8050 H 741.469 4.32865 -0.898922 0
M  V30 8051 N 740.528 1.15101 1.07655 0
M  V30 8052 C 741.775 0.923974 1.80191 0
M  V30 8053 C 742.103 -0.549065 1.86589 0
M  V30 8054 O 741.358 -1.42307 1.3434 0
M  V30 8055 C 741.657 1.47954 3.25337 0
M  V30 8056 C 741.323 2.97253 3.39044 0
M  V30 8057 C 739.985 3.38012 3.42493 0
M  V30 8058 C 742.337 3.93219 3.42094 0
M  V30 8059 C 739.665 4.73384 3.4659 0
M  V30 8060 C 742.017 5.28458 3.47728 0
M  V30 8061 C 740.681 5.68717 3.49453 0
M  V30 8062 H 739.951 0.338106 0.659367 0
M  V30 8063 H 742.598 1.43594 1.26701 0
M  V30 8064 H 740.903 0.888691 3.81588 0
M  V30 8065 H 742.6 1.27972 3.80032 0
M  V30 8066 H 739.19 2.64746 3.37057 0
M  V30 8067 H 743.374 3.62805 3.38654 0
M  V30 8068 H 738.63 5.03925 3.46222 0
M  V30 8069 H 742.804 6.02618 3.49034 0
M  V30 8070 H 740.431 6.73596 3.5238 0
M  V30 8071 N 742.006 -1.2595 0.947325 0
M  V30 8072 C 742.936 -2.28521 0.479604 0
M  V30 8073 C 743.917 -1.63469 -0.470293 0
M  V30 8074 O 745.102 -1.90627 -0.370824 0
M  V30 8075 C 742.232 -3.46397 -0.250289 0
M  V30 8076 C 741.186 -4.23578 0.613643 0
M  V30 8077 C 740.512 -5.34131 -0.246568 0
M  V30 8078 C 741.812 -4.86979 1.88809 0
M  V30 8079 H 743.506 -2.67895 1.33688 0
M  V30 8080 H 741.052 -1.28783 0.644274 0
M  V30 8081 H 743.005 -4.17269 -0.588576 0
M  V30 8082 H 741.729 -3.05993 -1.14175 0
M  V30 8083 H 740.388 -3.54478 0.93491 0
M  V30 8084 H 740.036 -4.89968 -1.13756 0
M  V30 8085 H 739.736 -5.86683 0.328123 0
M  V30 8086 H 741.26 -6.07839 -0.579986 0
M  V30 8087 H 742.674 -5.50034 1.61666 0
M  V30 8088 H 741.071 -5.49675 2.40784 0
M  V30 8089 H 742.141 -4.09575 2.5957 0
M  V30 8090 N 743.484 -0.715051 -1.40445 0
M  V30 8091 C 744.447 -0.0708726 -2.2909 0
M  V30 8092 C 745.447 0.687926 -1.45342 0
M  V30 8093 O 746.637 0.519908 -1.66261 0
M  V30 8094 C 743.769 0.909528 -3.28543 0
M  V30 8095 H 744.962 -0.851611 -2.87555 0
M  V30 8096 H 742.515 -0.479674 -1.48758 0
M  V30 8097 H 743.25 1.71734 -2.75096 0
M  V30 8098 H 743.035 0.368318 -3.90366 0
M  V30 8099 H 744.525 1.35744 -3.94922 0
M  V30 8100 N 744.962 1.50701 -0.461195 0
M  V30 8101 C 745.872 2.32069 0.343661 0
M  V30 8102 C 746.888 1.42016 1.00535 0
M  V30 8103 O 748.064 1.75077 0.995498 0
M  V30 8104 C 745.129 3.16424 1.41692 0
M  V30 8105 C 744.19 4.22286 0.772869 0
M  V30 8106 C 743.423 5.02609 1.79499 0
M  V30 8107 O 743.646 4.83874 3.0203 0
M  V30 8108 O 742.58 5.86047 1.3723 0
M  V30 8109 H 746.406 3.01996 -0.321268 0
M  V30 8110 H 743.991 1.47723 -0.223235 0
M  V30 8111 H 745.873 3.68795 2.03883 0
M  V30 8112 H 744.548 2.49236 2.0655 0
M  V30 8113 H 743.455 3.73931 0.112277 0
M  V30 8114 H 744.788 4.91915 0.167399 0
M  V30 8115 N 746.441 0.193421 1.56409 0
M  V30 8116 C 747.857 -0.162447 1.58771 0
M  V30 8117 C 748.057 -1.6116 1.20954 0
M  V30 8118 O 747.113 -2.3469 0.931497 0
M  V30 8119 C 748.426 0.138391 3.00381 0
M  V30 8120 C 749.974 0.0783649 3.12902 0
M  V30 8121 C 750.449 0.352491 4.56642 0
M  V30 8122 N 751.94 0.30105 4.62221 0
M  V30 8123 C 752.675 0.487028 5.71328 0
M  V30 8124 N 752.171 0.733265 6.88909 0
M  V30 8125 N 753.964 0.4214 5.60518 0
M  V30 8126 H 746.115 1.13909 1.79272 0
M  V30 8127 H 748.378 0.454528 0.83193 0
M  V30 8128 H 748.084 1.14312 3.32604 0
M  V30 8129 H 747.958 -0.559804 3.73023 0
M  V30 8130 H 750.345 -0.916963 2.80492 0
M  V30 8131 H 750.426 0.809611 2.4265 0
M  V30 8132 H 750.07 1.34513 4.89764 0
M  V30 8133 H 750 -0.399624 5.25081 0
M  V30 8134 H 752.491 0.117279 3.77718 0
M  V30 8135 H 752.804 0.86403 7.67955 0
M  V30 8136 H 751.149 0.770138 6.9072 0
M  V30 8137 H 754.34 0.229461 4.67537 0
M  V30 8138 H 754.513 0.569758 6.4549 0
M  V30 8139 N 747.919 -1.57396 -0.0801906 0
M  V30 8140 C 749.335 -1.53564 -0.434778 0
M  V30 8141 C 749.535 -0.912372 -1.79661 0
M  V30 8142 O 748.591 -0.511268 -2.4727 0
M  V30 8143 C 749.904 -2.98244 -0.383561 0
M  V30 8144 C 751.452 -3.09536 -0.46435 0
M  V30 8145 C 751.927 -4.55851 -0.443128 0
M  V30 8146 N 753.418 -4.60456 -0.503448 0
M  V30 8147 C 754.153 -5.71135 -0.509106 0
M  V30 8148 N 753.649 -6.91203 -0.47008 0
M  V30 8149 N 755.442 -5.59353 -0.555035 0
M  V30 8150 H 747.593 -1.96281 0.811635 0
M  V30 8151 H 749.856 -0.898041 0.303689 0
M  V30 8152 H 749.562 -3.47369 0.550236 0
M  V30 8153 H 749.436 -3.57705 -1.19694 0
M  V30 8154 H 751.823 -2.6039 -1.38857 0
M  V30 8155 H 751.904 -2.53 0.377445 0
M  V30 8156 H 751.548 -5.05653 0.477207 0
M  V30 8157 H 751.478 -5.10242 -1.30234 0
M  V30 8158 H 753.969 -3.74048 -0.538199 0
M  V30 8159 H 754.282 -7.7132 -0.478091 0
M  V30 8160 H 752.627 -6.93625 -0.436897 0
M  V30 8161 H 755.818 -4.64453 -0.583158 0
M  V30 8162 H 755.991 -6.4561 -0.555976 0
M  V30 8163 N 749.397 0.351382 -1.53633 0
M  V30 8164 C 750.813 0.693987 -1.43722 0
M  V30 8165 C 751.013 1.9274 -0.587669 0
M  V30 8166 O 750.069 2.52387 -0.0756082 0
M  V30 8167 C 751.382 0.893937 -2.87105 0
M  V30 8168 C 752.93 0.993051 -2.96829 0
M  V30 8169 C 753.405 1.22537 -4.41303 0
M  V30 8170 N 754.896 1.29275 -4.44795 0
M  V30 8171 C 755.631 1.48988 -5.53706 0
M  V30 8172 N 755.127 1.65924 -6.72637 0
M  V30 8173 N 756.92 1.51472 -5.41306 0
M  V30 8174 H 749.071 -0.459688 -2.07366 0
M  V30 8175 H 751.334 -0.143684 -0.937048 0
M  V30 8176 H 751.04 0.0592517 -3.5165 0
M  V30 8177 H 750.914 1.79795 -3.31592 0
M  V30 8178 H 753.301 1.81827 -2.32429 0
M  V30 8179 H 753.382 0.0661119 -2.55715 0
M  V30 8180 H 753.026 0.405117 -5.06282 0
M  V30 8181 H 752.956 2.16575 -4.80003 0
M  V30 8182 H 755.447 1.17743 -3.59089 0
M  V30 8183 H 755.76 1.80578 -7.51406 0
M  V30 8184 H 754.105 1.63075 -6.75597 0
M  V30 8185 H 757.296 1.37818 -4.47352 0
M  V30 8186 H 757.469 1.66493 -6.26246 0
M  V30 8187 N 750.875 1.45233 0.611969 0
M  V30 8188 C 751.823 1.53898 1.74408 0
M  V30 8189 C 752.817 0.409254 1.64382 0
M  V30 8190 O 754.023 0.584988 1.70229 0
M  V30 8191 H 750.398 0.483303 0.576127 0
M  V30 8192 H 752.369 2.49143 1.64227 0
M  V30 8193 C 751.118 1.51865 3.12782 0
M  V30 8194 H 750.441 2.38118 3.21154 0
M  V30 8195 H 751.881 1.61986 3.91838 0
M  V30 8196 C 750.34 0.242374 3.36027 0
M  V30 8197 O 750.87 -0.679587 3.9591 0
M  V30 8198 N 749.076 0.139448 2.90265 0
M  V30 8199 H 748.623 0.890571 2.41716 0
M  V30 8200 H 748.581 -0.713686 3.06193 0
M  V30 8201 N 752.353 -0.854086 1.3245 0
M  V30 8202 C 753.303 -1.9508 1.18016 0
M  V30 8203 C 754.287 -1.60665 0.0869417 0
M  V30 8204 O 755.479 -1.74201 0.313505 0
M  V30 8205 C 752.608 -3.3113 0.905961 0
M  V30 8206 C 751.694 -3.71763 2.04091 0
M  V30 8207 N 752.085 -3.84218 3.28953 0
M  V30 8208 C 750.383 -4.01393 1.94421 0
M  V30 8209 C 751.084 -4.192 4.03294 0
M  V30 8210 N 750.06 -4.30749 3.31596 0
M  V30 8211 H 753.862 -2.02843 2.12678 0
M  V30 8212 H 751.376 -1.04588 1.24238 0
M  V30 8213 H 753.373 -4.09471 0.783508 0
M  V30 8214 H 752.033 -3.24684 -0.0322715 0
M  V30 8215 H 753.044 -3.68524 3.63883 0
M  V30 8216 H 749.721 -4.03246 1.08162 0
M  V30 8217 H 751.111 -4.36301 5.1097 0
M  V30 8218 N 753.831 -1.1567 -1.07043 0
M  V30 8219 C 754.741 -0.870435 -2.17855 0
M  V30 8220 C 755.757 0.154452 -1.73313 0
M  V30 8221 O 756.933 -0.0203759 -2.0139 0
M  V30 8222 C 753.998 -0.367219 -3.4475 0
M  V30 8223 C 753.059 -1.45639 -4.03841 0
M  V30 8224 C 752.292 -0.977092 -5.2468 0
M  V30 8225 O 752.515 0.176127 -5.70128 0
M  V30 8226 O 751.449 -1.76215 -5.75527 0
M  V30 8227 H 755.275 -1.79687 -2.44839 0
M  V30 8228 H 752.86 -0.936064 -1.1644 0
M  V30 8229 H 754.742 -0.0931947 -4.21297 0
M  V30 8230 H 753.417 0.53131 -3.1931 0
M  V30 8231 H 752.324 -1.78406 -3.28819 0
M  V30 8232 H 753.657 -2.32995 -4.3356 0
M  V30 8233 N 755.309 1.25446 -0.953992 0
M  V30 8234 C 756.534 1.97755 -0.625129 0
M  V30 8235 C 756.959 1.70437 0.795787 0
M  V30 8236 O 756.317 0.95992 1.53803 0
M  V30 8237 C 756.365 3.49463 -0.889251 0
M  V30 8238 O 755.469 4.12387 0.0322757 0
M  V30 8239 H 754.81 0.61998 -0.237742 0
M  V30 8240 H 757.34 1.59582 -1.28041 0
M  V30 8241 H 757.35 3.99772 -0.815263 0
M  V30 8242 H 756.025 3.68676 -1.92487 0
M  V30 8243 H 754.602 3.72782 -0.0938625 0
M  V30 8244 N 756.787 0.722489 1.40064 0
M  V30 8245 C 757.75 0.0830209 2.2905 0
M  V30 8246 C 758.75 -0.680208 1.45705 0
M  V30 8247 O 759.94 -0.511084 1.66534 0
M  V30 8248 C 757.072 -0.892092 3.29021 0
M  V30 8249 H 758.265 0.866848 2.87099 0
M  V30 8250 H 755.818 0.487556 1.48501 0
M  V30 8251 H 756.553 -1.70273 2.76003 0
M  V30 8252 H 756.338 -0.34761 3.90556 0
M  V30 8253 H 757.828 -1.33648 3.95636 0
M  V30 8254 O 758.304 -1.49494 0.611055 0
M  V30 8255 H 758.995 -1.93303 0.123934 0
M  V30 END ATOM
M  V30 BEGIN BOND
M  V30 END BOND
M  V30 END CTAB
M  END
$$$$
