drugbank_target|O68541 Beta-xylanase (DB03389; DB04303)
 OpenBabel12092120253D

  0  0  0     0  0            999 V3000
M  V30 BEGIN CTAB
M  V30 COUNTS 6040 6111 0 0 0
M  V30 BEGIN ATOM
M  V30 1 H -0.908 1.98254 -0.117106 0
M  V30 2 N 0 1.576 0 0
M  V30 3 C 0.933 2.03868 1.02534 0
M  V30 4 C 1.911 0.928543 1.3348 0
M  V30 5 O 3.095 1.19667 1.45644 0
M  V30 6 C 0.222 2.43627 2.35294 0
M  V30 7 C -0.732 3.65373 2.2001 0
M  V30 8 S 0.101 5.13292 1.52614 0
M  V30 9 C 1.257 5.56322 2.86805 0
M  V30 10 H 1.49 2.90518 0.631377 0
M  V30 11 H -0.977 1.52953 0.210867 0
M  V30 12 H 0.981 2.67203 3.11629 0
M  V30 13 H -0.358 1.57376 2.7183 0
M  V30 14 H -1.165 3.90944 3.18086 0
M  V30 15 H -1.563 3.418 1.51819 0
M  V30 16 H 0.729 5.58782 3.83104 0
M  V30 17 H 1.672 6.56266 2.65933 0
M  V30 18 H 2.08 4.83886 2.90714 0
M  V30 19 N 1.4781 -0.272755 1.55222 0
M  V30 20 C 2.4261 -1.35705 1.88909 0
M  V30 21 C 3.4201 -1.5112 0.765456 0
M  V30 22 O 4.6261 -1.52901 0.949802 0
M  V30 23 H 1.0011 -0.453868 0.59959 0
M  V30 24 H 2.9721 -1.04544 2.79487 0
M  V30 25 C 1.7211 -2.71049 2.17779 0
M  V30 26 H 1.0441 -2.59979 3.03728 0
M  V30 27 H 2.4841 -3.45858 2.45272 0
M  V30 28 C 0.9431 -3.22165 0.985473 0
M  V30 29 O 1.4731 -4.01096 0.220233 0
M  V30 30 N -0.3209 -2.7985 0.783108 0
M  V30 31 H -0.7739 -2.15775 1.40708 0
M  V30 32 H -0.8159 -3.14397 -0.0130392 0
M  V30 33 N 2.9562 -1.48159 -0.537278 0
M  V30 34 C 3.8862 -1.65029 -1.6519 0
M  V30 35 C 4.8672 -0.499281 -1.62607 0
M  V30 36 O 6.0522 -0.730972 -1.79918 0
M  V30 37 C 3.1822 -1.68303 -3.03795 0
M  V30 38 C 2.1362 -2.8283 -3.21234 0
M  V30 39 C 1.4622 -2.71189 -4.60826 0
M  V30 40 C 2.7622 -4.24211 -3.04701 0
M  V30 41 H 4.4562 -2.58341 -1.51328 0
M  V30 42 H 2.0022 -1.24325 -0.726585 0
M  V30 43 H 3.9552 -1.78693 -3.81637 0
M  V30 44 H 2.6792 -0.715635 -3.18663 0
M  V30 45 H 1.3382 -2.71983 -2.45807 0
M  V30 46 H 0.9862 -1.72435 -4.7252 0
M  V30 47 H 0.6862 -3.48035 -4.7344 0
M  V30 48 H 2.2102 -2.83537 -5.40777 0
M  V30 49 H 3.6242 -4.3593 -3.72341 0
M  V30 50 H 2.0212 -5.01998 -3.28813 0
M  V30 51 H 3.0912 -4.41184 -2.01209 0
M  V30 52 N 4.4343 0.785586 -1.36625 0
M  V30 53 C 5.6593 1.57963 -1.34397 0
M  V30 54 C 6.0843 1.87964 0.071526 0
M  V30 55 O 5.4423 1.48182 1.0446 0
M  V30 56 C 5.4903 2.87511 -2.17646 0
M  V30 57 O 4.5943 3.81281 -1.57158 0
M  V30 58 H 3.9353 0.479014 -0.459828 0
M  V30 59 H 6.4653 0.973411 -1.79961 0
M  V30 60 H 6.4753 3.36745 -2.30362 0
M  V30 61 H 5.1503 2.65002 -3.20541 0
M  V30 62 H 3.7273 3.39885 -1.53403 0
M  V30 63 N 5.9124 1.20967 1.01018 0
M  V30 64 C 7.3284 0.965905 1.27053 0
M  V30 65 C 7.5284 -0.350785 1.98423 0
M  V30 66 O 6.5844 -1.07773 2.28344 0
M  V30 67 C 7.8974 2.15294 2.09926 0
M  V30 68 C 9.4454 2.19463 2.23171 0
M  V30 69 C 9.9204 3.3767 3.09424 0
M  V30 70 N 11.4114 3.37724 3.17012 0
M  V30 71 C 12.1464 4.25837 3.83993 0
M  V30 72 N 11.6424 5.24138 4.53047 0
M  V30 73 N 13.4354 4.1366 3.80581 0
M  V30 74 H 5.5864 2.0565 0.531194 0
M  V30 75 H 7.8494 0.90024 0.297106 0
M  V30 76 H 7.5554 3.10684 1.64828 0
M  V30 77 H 7.4294 2.13923 3.10672 0
M  V30 78 H 9.8164 1.24632 2.6749 0
M  V30 79 H 9.8974 2.2488 1.21912 0
M  V30 80 H 9.5414 4.32791 2.65808 0
M  V30 81 H 9.4714 3.29491 4.10784 0
M  V30 82 H 11.9624 2.6658 2.6785 0
M  V30 83 H 12.2754 5.87684 5.01844 0
M  V30 84 H 10.6204 5.28068 4.5185 0
M  V30 85 H 13.8114 3.36127 3.25785 0
M  V30 86 H 13.9844 4.82538 4.32505 0
M  V30 87 N 7.3905 -1.2043 1.01659 0
M  V30 88 C 8.8065 -1.41852 0.731442 0
M  V30 89 C 9.0065 -1.89358 -0.688898 0
M  V30 90 O 8.0625 -2.06247 -1.45666 0
M  V30 91 C 9.3755 -2.44019 1.75714 0
M  V30 92 C 10.9235 -2.57785 1.77527 0
M  V30 93 C 11.3985 -3.63194 2.79023 0
M  V30 94 N 12.8895 -3.70678 2.77763 0
M  V30 95 C 13.6245 -4.51897 3.52954 0
M  V30 96 N 13.1205 -5.36921 4.37821 0
M  V30 97 N 14.9135 -4.4643 3.41551 0
M  V30 98 H 7.0645 -0.879093 1.93354 0
M  V30 99 H 9.3275 -0.448425 0.835236 0
M  V30 100 H 9.0335 -2.1611 2.77469 0
M  V30 101 H 8.9075 -3.43007 1.56927 0
M  V30 102 H 11.2945 -2.85023 0.764569 0
M  V30 103 H 11.3755 -1.58992 2.00387 0
M  V30 104 H 11.0195 -3.36699 3.80258 0
M  V30 105 H 10.9495 -4.61609 2.53425 0
M  V30 106 H 13.4405 -3.09944 2.16201 0
M  V30 107 H 13.7535 -5.95981 4.91962 0
M  V30 108 H 12.0985 -5.36424 4.41899 0
M  V30 109 H 15.2895 -3.79042 2.74672 0
M  V30 110 H 15.4625 -5.09491 4.00404 0
M  V30 111 N 8.8686 -0.792821 -1.36206 0
M  V30 112 C 9.8006 -0.151469 -2.28699 0
M  V30 113 C 10.8136 0.641262 -1.49638 0
M  V30 114 O 12.0026 0.475885 -1.72039 0
M  V30 115 C 9.1026 0.808424 -3.29117 0
M  V30 116 C 8.2756 0.0650202 -4.37352 0
M  V30 117 C 7.3346 0.941358 -5.17711 0
M  V30 118 O 6.3606 0.397352 -5.67811 0
M  V30 119 N 7.5626 2.2652 -5.3448 0
M  V30 120 H 10.3276 -0.945982 -2.84379 0
M  V30 121 H 7.8886 -0.647032 -1.48409 0
M  V30 122 H 9.8806 1.3986 -3.79765 0
M  V30 123 H 8.4506 1.5038 -2.74052 0
M  V30 124 H 7.6706 -0.706255 -3.87822 0
M  V30 125 H 8.9586 -0.447847 -5.06825 0
M  V30 126 H 8.3566 2.73128 -4.95396 0
M  V30 127 H 6.9136 2.80493 -5.88359 0
M  V30 128 N 10.3467 1.47872 -0.545128 0
M  V30 129 C 11.2767 2.32661 0.197793 0
M  V30 130 C 12.2577 1.43041 0.920504 0
M  V30 131 O 13.4427 1.71912 0.90333 0
M  V30 132 C 10.5727 3.24569 1.23582 0
M  V30 133 C 9.5267 4.23333 0.630323 0
M  V30 134 C 8.8527 5.0448 1.77211 0
M  V30 135 C 10.1527 5.20704 -0.407974 0
M  V30 136 H 11.8467 2.95024 -0.510045 0
M  V30 137 H 9.3927 1.4187 -0.246731 0
M  V30 138 H 11.3457 3.8272 1.76362 0
M  V30 139 H 10.0697 2.60236 1.97344 0
M  V30 140 H 8.7287 3.6639 0.123922 0
M  V30 141 H 8.3767 4.36561 2.49847 0
M  V30 142 H 8.0767 5.71339 1.37281 0
M  V30 143 H 9.6007 5.65487 2.3034 0
M  V30 144 H 11.0147 5.7329 0.033305 0
M  V30 145 H 9.4117 5.95699 -0.725486 0
M  V30 146 H 10.4817 4.66917 -1.30828 0
M  V30 147 N 11.8248 0.280983 1.55075 0
M  V30 148 C 12.7548 -0.597469 2.25727 0
M  V30 149 C 13.7358 -1.15417 1.24952 0
M  V30 150 O 14.9208 -1.18722 1.53684 0
M  V30 151 C 12.0508 -1.7789 2.98283 0
M  V30 152 C 11.0048 -1.35347 4.06036 0
M  V30 153 C 10.3308 -2.61846 4.66198 0
M  V30 154 C 11.6308 -0.499354 5.19907 0
M  V30 155 H 13.3248 -0.00824265 2.99399 0
M  V30 156 H 10.8708 -0.0025244 1.44 0
M  V30 157 H 12.8238 -2.39937 3.46422 0
M  V30 158 H 11.5478 -2.39405 2.22155 0
M  V30 159 H 10.2068 -0.756156 3.58717 0
M  V30 160 H 9.8548 -3.21632 3.86732 0
M  V30 161 H 9.5548 -2.3409 5.38958 0
M  V30 162 H 11.0788 -3.24732 5.1709 0
M  V30 163 H 12.4928 -1.02498 5.64063 0
M  V30 164 H 10.8898 -0.316424 5.99265 0
M  V30 165 H 11.9598 0.480459 4.82514 0
M  V30 166 N 13.3029 -1.57598 0.00835791 0
M  V30 167 C 14.2659 -2.07884 -0.965242 0
M  V30 168 C 15.2659 -0.989825 -1.26725 0
M  V30 169 O 16.4559 -1.25218 -1.21104 0
M  V30 170 C 13.5879 -2.52731 -2.28779 0
M  V30 171 H 14.7809 -2.95178 -0.530112 0
M  V30 172 H 12.3339 -1.54458 -0.239283 0
M  V30 173 H 13.0689 -1.68705 -2.76964 0
M  V30 174 H 12.8539 -3.32272 -2.08177 0
M  V30 175 H 14.3439 -2.91933 -2.98605 0
M  V30 176 N 14.781 0.264519 -1.55364 0
M  V30 177 C 15.711 1.33121 -1.91836 0
M  V30 178 C 16.692 1.51101 -0.781192 0
M  V30 179 O 17.877 1.64003 -1.04003 0
M  V30 180 C 15.007 2.68921 -2.19769 0
M  V30 181 C 13.961 2.65661 -3.35571 0
M  V30 182 C 13.287 4.05093 -3.49004 0
M  V30 183 C 14.587 2.24187 -4.71739 0
M  V30 184 H 16.281 1.02844 -2.81182 0
M  V30 185 H 13.827 0.493286 -1.35287 0
M  V30 186 H 15.78 3.43663 -2.43872 0
M  V30 187 H 14.504 3.00799 -1.27231 0
M  V30 188 H 13.163 1.93377 -3.1145 0
M  V30 189 H 12.811 4.34206 -2.53917 0
M  V30 190 H 12.511 4.03804 -4.26868 0
M  V30 191 H 14.035 4.81561 -3.75408 0
M  V30 192 H 15.449 2.88654 -4.9533 0
M  V30 193 H 13.846 2.34044 -5.52579 0
M  V30 194 H 14.916 1.19327 -4.69988 0
M  V30 195 N 16.2591 1.48442 0.529413 0
M  V30 196 C 17.4871 1.60151 1.30994 0
M  V30 197 C 17.9021 0.261985 1.86973 0
M  V30 198 O 17.2591 -0.748805 1.66431 0
M  V30 199 C 17.3101 2.64854 2.46038 0
M  V30 200 O 17.0311 3.93608 1.92365 0
M  V30 201 C 18.5321 2.87007 3.37849 0
M  V30 202 H 15.7521 0.539971 0.398338 0
M  V30 203 H 18.2961 1.94273 0.638597 0
M  V30 204 H 16.4511 2.33589 3.09055 0
M  V30 205 H 16.8651 4.51055 2.67675 0
M  V30 206 H 18.3391 3.64068 4.14919 0
M  V30 207 H 18.8161 1.95852 3.93114 0
M  V30 208 H 19.4221 3.19579 2.80623 0
M  V30 209 N 17.7372 -0.778329 1.37039 0
M  V30 210 C 18.9622 -1.57248 1.35233 0
M  V30 211 C 19.3872 -1.87999 -0.0615568 0
M  V30 212 O 18.7452 -1.48734 -1.03672 0
M  V30 213 C 18.7932 -2.86353 2.19167 0
M  V30 214 O 17.8972 -3.80442 1.59178 0
M  V30 215 H 17.2382 -0.476569 0.462362 0
M  V30 216 H 19.7682 -0.963853 1.80474 0
M  V30 217 H 19.7782 -3.35519 2.32145 0
M  V30 218 H 18.4532 -2.63299 3.21942 0
M  V30 219 H 17.0302 -3.39067 1.55203 0
M  V30 220 N 19.2153 -1.21501 -1.00376 0
M  V30 221 C 20.1783 -0.976927 -2.07337 0
M  V30 222 C 21.1783 0.0525322 -1.60714 0
M  V30 223 O 22.3683 -0.184869 -1.73216 0
M  V30 224 C 19.5003 -0.473423 -3.37597 0
M  V30 225 H 20.6933 -1.92587 -2.29892 0
M  V30 226 H 18.2463 -1.03217 -1.17371 0
M  V30 227 H 18.9813 0.480379 -3.20722 0
M  V30 228 H 18.7663 -1.216 -3.72768 0
M  V30 229 H 20.2563 -0.32675 -4.1632 0
M  V30 230 N 20.6934 1.19889 -1.02296 0
M  V30 231 C 21.9414 1.89046 -0.714558 0
M  V30 232 C 22.2624 1.79636 0.758681 0
M  V30 233 O 21.5324 1.20292 1.54618 0
M  V30 234 H 20.1124 0.699802 -0.261317 0
M  V30 235 H 22.7744 1.45574 -1.29592 0
M  V30 236 H 21.8704 2.95524 -1.0036 0
M  V30 237 N 22.1715 0.800033 1.35784 0
M  V30 238 C 23.4205 0.37387 1.98205 0
M  V30 239 C 23.7335 -1.06302 1.64193 0
M  V30 240 O 24.9395 -1.59198 2.19928 0
M  V30 241 C 23.3955 0.617532 3.54562 0
M  V30 242 C 23.0035 2.06654 3.9749 0
M  V30 243 C 24.7475 0.256401 4.23725 0
M  V30 244 C 22.6545 2.2563 5.46667 0
M  V30 245 H 21.5845 0.136055 0.741623 0
M  V30 246 H 24.2355 0.983166 1.54939 0
M  V30 247 H 22.6175 -0.0616248 3.95952 0
M  V30 248 H 23.7915 2.78296 3.67271 0
M  V30 249 H 22.1065 2.38691 3.41197 0
M  V30 250 H 24.7035 0.376318 5.33374 0
M  V30 251 H 25.0465 -0.796692 4.08606 0
M  V30 252 H 25.5795 0.889214 3.87734 0
M  V30 253 H 22.3185 3.2936 5.66747 0
M  V30 254 H 21.8385 1.58504 5.78478 0
M  V30 255 H 23.5175 2.06861 6.1304 0
M  V30 256 N 23.6496 -1.47581 0.552962 0
M  V30 257 C 24.6126 -2.28439 -0.186605 0
M  V30 258 C 25.6126 -1.36706 -0.84665 0
M  V30 259 O 26.8026 -1.59378 -0.703164 0
M  V30 260 C 23.9346 -3.16264 -1.2724 0
M  V30 261 H 25.1276 -2.95294 0.523609 0
M  V30 262 H 22.6806 -1.532 0.309745 0
M  V30 263 H 23.4156 -2.54091 -2.01514 0
M  V30 264 H 23.2006 -3.83769 -0.803968 0
M  V30 265 H 24.6906 -3.77198 -1.79196 0
M  V30 266 N 25.1277 -0.289203 -1.54924 0
M  V30 267 C 26.0607 0.633823 -2.19221 0
M  V30 268 C 27.0387 1.14174 -1.15772 0
M  V30 269 O 28.2227 1.21211 -1.44361 0
M  V30 270 C 25.3497 1.86592 -2.82668 0
M  V30 271 C 24.3957 1.49227 -3.99542 0
M  V30 272 S 25.2287 0.558312 -5.32582 0
M  V30 273 C 26.3847 1.79847 -5.99505 0
M  V30 274 H 26.6177 0.0875416 -2.97171 0
M  V30 275 H 24.1507 -0.0733899 -1.54225 0
M  V30 276 H 26.1087 2.57305 -3.19851 0
M  V30 277 H 24.7697 2.38335 -2.04585 0
M  V30 278 H 23.9627 2.40945 -4.42676 0
M  V30 279 H 23.5647 0.865193 -3.63855 0
M  V30 280 H 25.8567 2.7406 -6.19595 0
M  V30 281 H 26.7997 1.4099 -6.93922 0
M  V30 282 H 27.2077 1.96982 -5.29016 0
M  V30 283 N 26.6058 1.57591 -0.0167156 0
M  V30 284 C 27.8538 1.90906 0.663285 0
M  V30 285 C 28.1748 0.892509 1.73376 0
M  V30 286 O 27.4448 -0.0677623 1.95783 0
M  V30 287 H 26.0248 0.704637 0.247983 0
M  V30 288 H 28.6868 1.94803 -0.0615909 0
M  V30 289 H 27.7828 2.9116 1.12393 0
M  V30 290 N 28.0839 -0.256276 1.55502 0
M  V30 291 C 29.0159 -1.33981 1.85962 0
M  V30 292 C 30.0289 -1.44743 0.745212 0
M  V30 293 O 31.2179 -1.4626 1.02324 0
M  V30 294 C 28.3179 -2.7194 2.02242 0
M  V30 295 C 27.4909 -2.83562 3.33033 0
M  V30 296 C 26.5499 -4.02304 3.39172 0
M  V30 297 O 25.5759 -3.92273 4.12444 0
M  V30 298 N 26.7779 -5.15045 2.67784 0
M  V30 299 H 29.5429 -1.08191 2.7949 0
M  V30 300 H 27.1039 -0.446388 1.55624 0
M  V30 301 H 29.0959 -3.49697 2.03701 0
M  V30 302 H 27.6659 -2.90479 1.15502 0
M  V30 303 H 26.8859 -1.92555 3.43971 0
M  V30 304 H 28.1739 -2.88271 4.19258 0
M  V30 305 H 27.5719 -5.26085 2.07968 0
M  V30 306 H 26.1289 -5.90972 2.74947 0
M  V30 307 N 29.562 -1.4872 -0.521534 0
M  V30 308 C 30.525 -1.63379 -1.60748 0
M  V30 309 C 31.525 -0.50661 -1.52611 0
M  V30 310 O 32.715 -0.772601 -1.5613 0
M  V30 311 C 29.847 -1.61192 -3.00383 0
M  V30 312 H 31.04 -2.60217 -1.49087 0
M  V30 313 H 28.593 -1.37444 -0.744235 0
M  V30 314 H 29.328 -0.65863 -3.17541 0
M  V30 315 H 29.113 -2.43032 -3.07698 0
M  V30 316 H 30.603 -1.7466 -3.7932 0
M  V30 317 N 31.0401 0.771051 -1.3745 0
M  V30 318 C 32.2651 1.56529 -1.36065 0
M  V30 319 C 32.6901 1.88029 0.0515859 0
M  V30 320 O 32.0481 1.49282 1.02882 0
M  V30 321 C 32.0961 2.85187 -2.20683 0
M  V30 322 O 31.2001 3.79593 -1.61193 0
M  V30 323 H 30.5411 0.47411 -0.464883 0
M  V30 324 H 33.0711 0.954269 -1.80983 0
M  V30 325 H 33.0811 3.34283 -2.33921 0
M  V30 326 H 31.7561 2.61588 -3.23334 0
M  V30 327 H 30.3331 3.38239 -1.56999 0
M  V30 328 N 32.5182 1.22032 0.997298 0
M  V30 329 C 33.4652 0.986467 2.08656 0
M  V30 330 C 34.4352 -0.0902671 1.65855 0
M  V30 331 O 35.6202 0.0584294 1.90711 0
M  V30 332 C 32.7602 0.565569 3.40434 0
M  V30 333 C 31.8732 1.71259 3.96604 0
M  V30 334 C 31.0082 1.24011 5.16522 0
M  V30 335 C 30.0472 2.35896 5.64818 0
M  V30 336 N 29.1842 1.89726 6.7598 0
M  V30 337 H 34.0242 1.91892 2.27994 0
M  V30 338 H 31.5612 0.956199 1.11782 0
M  V30 339 H 33.5192 0.302738 4.161 0
M  V30 340 H 32.1492 -0.329879 3.2111 0
M  V30 341 H 31.2012 2.08986 3.17851 0
M  V30 342 H 32.5132 2.55436 4.28432 0
M  V30 343 H 31.6672 0.934395 5.99461 0
M  V30 344 H 30.4062 0.368487 4.86306 0
M  V30 345 H 29.4112 2.67261 4.8047 0
M  V30 346 H 30.6362 3.23567 5.97061 0
M  V30 347 H 28.5822 1.0492 6.47555 0
M  V30 348 H 28.4992 2.67471 7.07103 0
M  V30 349 H 29.7672 1.62211 7.62435 0
M  V30 350 N 33.9963 -1.19345 1.0293 0
M  V30 351 C 34.9263 -2.2481 0.631105 0
M  V30 352 C 35.9073 -1.66245 -0.360104 0
M  V30 353 O 37.0923 -1.92677 -0.242726 0
M  V30 354 C 34.2223 -3.47295 -0.0184607 0
M  V30 355 C 33.1763 -4.18536 0.895073 0
M  V30 356 C 32.5023 -5.34586 0.110592 0
M  V30 357 C 33.8023 -4.73287 2.209 0
M  V30 358 H 35.4963 -2.58372 1.51275 0
M  V30 359 H 33.0423 -1.24194 0.728818 0
M  V30 360 H 34.9953 -4.20268 -0.308675 0
M  V30 361 H 33.7193 -3.12933 -0.934907 0
M  V30 362 H 32.3783 -3.47446 1.16949 0
M  V30 363 H 32.0263 -4.96469 -0.807902 0
M  V30 364 H 31.7263 -5.83183 0.719087 0
M  V30 365 H 33.2503 -6.10355 -0.172871 0
M  V30 366 H 34.6643 -5.38013 1.98028 0
M  V30 367 H 33.0613 -5.32373 2.76946 0
M  V30 368 H 34.1313 -3.91331 2.86336 0
M  V30 369 N 35.4744 -0.807222 -1.35358 0
M  V30 370 C 36.4374 -0.223665 -2.28106 0
M  V30 371 C 37.4374 0.589354 -1.4961 0
M  V30 372 O 38.6274 0.407745 -1.69361 0
M  V30 373 C 35.7594 0.688149 -3.33882 0
M  V30 374 H 36.9524 -1.04169 -2.81227 0
M  V30 375 H 34.5054 -0.577921 -1.45223 0
M  V30 376 H 35.2404 1.52984 -2.85948 0
M  V30 377 H 35.0254 0.10687 -3.91954 0
M  V30 378 H 36.5154 1.09075 -4.03104 0
M  V30 379 N 36.9525 1.47285 -0.560781 0
M  V30 380 C 37.9155 2.28535 0.174488 0
M  V30 381 C 38.9155 1.37153 0.839388 0
M  V30 382 O 40.1055 1.59748 0.694702 0
M  V30 383 C 37.2375 3.16934 1.25561 0
M  V30 384 H 38.4305 2.95012 -0.539262 0
M  V30 385 H 35.9835 1.53034 -0.317865 0
M  V30 386 H 36.7185 2.55157 2.00164 0
M  V30 387 H 36.5035 3.8419 0.783604 0
M  V30 388 H 37.9935 3.78143 1.77193 0
M  V30 389 N 38.4306 0.297415 1.54768 0
M  V30 390 C 39.3936 -0.567375 2.22066 0
M  V30 391 C 40.3936 -1.06409 1.20556 0
M  V30 392 O 41.5836 -0.960691 1.45315 0
M  V30 393 C 38.7156 -1.78517 2.90421 0
M  V30 394 H 39.9086 0.0205534 2.99893 0
M  V30 395 H 37.4616 0.0482163 1.56226 0
M  V30 396 H 38.1966 -2.41303 2.16664 0
M  V30 397 H 37.9816 -1.43669 3.64831 0
M  V30 398 H 39.4716 -2.39964 3.41771 0
M  V30 399 N 39.9087 -1.5758 0.0250728 0
M  V30 400 C 41.1367 -1.9593 -0.664747 0
M  V30 401 C 41.5517 -0.901352 -1.65895 0
M  V30 402 O 40.9087 0.117255 -1.82123 0
M  V30 403 C 40.9597 -3.34342 -1.37468 0
M  V30 404 O 40.6807 -4.36079 -0.420324 0
M  V30 405 C 42.1817 -3.873 -2.1567 0
M  V30 406 H 39.4017 -0.645405 -0.183557 0
M  V30 407 H 41.9457 -2.04329 0.0836372 0
M  V30 408 H 40.1007 -3.27175 -2.0745 0
M  V30 409 H 40.5147 -5.16297 -0.923991 0
M  V30 410 H 41.9887 -4.86504 -2.60803 0
M  V30 411 H 42.4657 -3.21331 -2.99405 0
M  V30 412 H 43.0717 -3.97723 -1.50654 0
M  V30 413 N 41.3868 0.248026 -1.55636 0
M  V30 414 C 42.3338 1.30707 -1.90222 0
M  V30 415 C 43.3038 1.47881 -0.756332 0
M  V30 416 O 44.4888 1.61883 -1.00988 0
M  V30 417 C 41.6288 2.65769 -2.20138 0
M  V30 418 C 40.7418 2.56612 -3.47526 0
M  V30 419 C 39.8768 3.8402 -3.67017 0
M  V30 420 C 38.9158 3.69476 -4.8801 0
M  V30 421 N 38.0528 4.88774 -5.04029 0
M  V30 422 H 42.8928 1.00512 -2.80538 0
M  V30 423 H 40.4298 0.485055 -1.38873 0
M  V30 424 H 42.3878 3.44386 -2.35487 0
M  V30 425 H 41.0178 2.94115 -1.33027 0
M  V30 426 H 40.0698 1.69571 -3.40514 0
M  V30 427 H 41.3818 2.41774 -4.36287 0
M  V30 428 H 40.5358 4.7108 -3.8232 0
M  V30 429 H 39.2748 4.01754 -2.76487 0
M  V30 430 H 38.2798 2.80799 -4.72686 0
M  V30 431 H 39.5048 3.53238 -5.8 0
M  V30 432 H 37.4508 5.0687 -4.16435 0
M  V30 433 H 37.3678 4.76562 -5.86877 0
M  V30 434 H 38.6358 5.77335 -5.23741 0
M  V30 435 N 42.8649 1.48995 0.513639 0
M  V30 436 C 43.8279 1.64229 1.59879 0
M  V30 437 C 44.8279 0.514696 1.5234 0
M  V30 438 O 46.0179 0.78087 1.55718 0
M  V30 439 C 43.1499 1.62783 2.99524 0
M  V30 440 H 44.3429 2.61004 1.47705 0
M  V30 441 H 41.8959 1.37837 0.736936 0
M  V30 442 H 42.6309 0.675461 3.17188 0
M  V30 443 H 42.4159 2.4466 3.06404 0
M  V30 444 H 43.9059 1.76669 3.78388 0
M  V30 445 N 44.343 -0.763751 1.37857 0
M  V30 446 C 45.306 -1.85889 1.34081 0
M  V30 447 C 46.306 -1.58949 0.243277 0
M  V30 448 O 47.496 -1.66882 0.499589 0
M  V30 449 C 44.628 -3.23176 1.08489 0
M  V30 450 H 45.821 -1.90648 2.31502 0
M  V30 451 H 43.374 -0.964367 1.23003 0
M  V30 452 H 44.109 -3.24091 0.116318 0
M  V30 453 H 43.894 -3.44124 1.8794 0
M  V30 454 H 45.384 -4.03254 1.08517 0
M  V30 455 N 45.8211 -1.22559 -0.990812 0
M  V30 456 C 46.7311 -1.01394 -2.11557 0
M  V30 457 C 47.7471 0.0383962 -1.73958 0
M  V30 458 O 48.9231 -0.154787 -2.00804 0
M  V30 459 C 45.9881 -0.596569 -3.41529 0
M  V30 460 C 45.0491 -1.72276 -3.93217 0
M  V30 461 C 44.2821 -1.32521 -5.16985 0
M  V30 462 O 44.5051 -0.204909 -5.70032 0
M  V30 463 O 43.4391 -2.14247 -5.62478 0
M  V30 464 H 47.2651 -1.95633 -2.32296 0
M  V30 465 H 44.8501 -1.01172 -1.0993 0
M  V30 466 H 46.7321 -0.374263 -4.19735 0
M  V30 467 H 45.4071 0.316939 -3.22145 0
M  V30 468 H 44.3141 -1.99961 -3.16174 0
M  V30 469 H 45.6471 -2.61421 -4.17037 0
M  V30 470 N 47.2992 1.18797 -1.03562 0
M  V30 471 C 48.2312 2.21731 -0.580337 0
M  V30 472 C 49.2442 1.59051 0.347349 0
M  V30 473 O 50.4332 1.77929 0.142669 0
M  V30 474 C 47.5332 3.38459 0.172805 0
M  V30 475 C 46.7062 4.3072 -0.761496 0
M  V30 476 C 45.7652 5.26174 -0.0525547 0
M  V30 477 O 44.7912 5.65108 -0.681333 0
M  V30 478 N 45.9932 5.67624 1.21586 0
M  V30 479 H 48.7582 2.61417 -1.46565 0
M  V30 480 H 46.3192 1.33531 -0.915476 0
M  V30 481 H 48.3112 3.99335 0.656793 0
M  V30 482 H 46.8812 2.97507 0.959602 0
M  V30 483 H 46.1012 3.67525 -1.42544 0
M  V30 484 H 47.3892 4.89267 -1.39626 0
M  V30 485 H 46.7872 5.38038 1.74732 0
M  V30 486 H 45.3442 6.30721 1.64421 0
M  V30 487 N 48.7773 0.814389 1.34928 0
M  V30 488 C 50.0053 0.411136 2.02774 0
M  V30 489 C 50.4203 -0.980316 1.61354 0
M  V30 490 O 49.7773 -1.63299 0.814847 0
M  V30 491 C 49.8283 0.493865 3.58111 0
M  V30 492 O 49.5493 1.83047 3.98027 0
M  V30 493 C 51.0503 0.0844174 4.4322 0
M  V30 494 H 48.2703 0.166037 0.650133 0
M  V30 495 H 50.8143 1.10018 1.72384 0
M  V30 496 H 48.9693 -0.147006 3.87121 0
M  V30 497 H 49.3833 1.79872 4.92693 0
M  V30 498 H 50.8573 0.193404 5.51661 0
M  V30 499 H 51.3343 -0.97113 4.28329 0
M  V30 500 H 51.9403 0.69875 4.19521 0
M  V30 501 N 50.2554 -1.46986 0.568584 0
M  V30 502 C 51.5034 -2.02041 0.0487022 0
M  V30 503 C 51.8244 -1.44408 -1.31039 0
M  V30 504 O 51.0944 -0.623477 -1.85714 0
M  V30 505 H 49.6744 -0.746849 0.015014 0
M  V30 506 H 52.3364 -1.80257 0.741168 0
M  V30 507 H 51.4324 -3.12085 -0.0308961 0
M  V30 508 N 51.7335 -0.305618 -1.54608 0
M  V30 509 C 52.6635 0.561482 -2.26649 0
M  V30 510 C 53.6445 1.13415 -1.26772 0
M  V30 511 O 54.8295 1.16262 -1.55553 0
M  V30 512 C 51.9595 1.73122 -3.01075 0
M  V30 513 C 50.9135 1.2887 -4.08138 0
M  V30 514 C 50.2395 2.54396 -4.70305 0
M  V30 515 C 51.5395 0.416578 -5.20636 0
M  V30 516 H 53.2335 -0.0393902 -2.99374 0
M  V30 517 H 50.7795 -0.020385 -1.43986 0
M  V30 518 H 52.7325 2.34396 -3.50195 0
M  V30 519 H 51.4565 2.3584 -2.25936 0
M  V30 520 H 50.1155 0.698991 -3.59875 0
M  V30 521 H 49.7635 3.15439 -3.918 0
M  V30 522 H 49.4635 2.25486 -5.42614 0
M  V30 523 H 50.9875 3.16464 -5.2219 0
M  V30 524 H 52.4015 0.935116 -5.65622 0
M  V30 525 H 50.7985 0.221046 -5.99693 0
M  V30 526 H 51.8685 -0.557162 -4.81688 0
M  V30 527 N 53.2116 1.57565 -0.0334293 0
M  V30 528 C 54.1586 2.10478 0.946981 0
M  V30 529 C 55.1286 1.00787 1.32027 0
M  V30 530 O 56.3136 1.28232 1.41284 0
M  V30 531 C 53.4536 2.63994 2.22263 0
M  V30 532 C 52.5666 3.87709 1.90541 0
M  V30 533 C 51.7016 4.29604 3.12433 0
M  V30 534 C 50.7406 5.46065 2.76549 0
M  V30 535 N 49.8776 5.83096 3.9108 0
M  V30 536 H 54.7176 2.93963 0.488846 0
M  V30 537 H 52.2546 1.45296 0.22969 0
M  V30 538 H 54.2126 2.93114 2.96884 0
M  V30 539 H 52.8426 1.83333 2.65685 0
M  V30 540 H 51.8946 3.65291 1.06144 0
M  V30 541 H 53.2066 4.72403 1.60116 0
M  V30 542 H 52.3606 4.60182 3.9537 0
M  V30 543 H 51.0996 3.43685 3.46023 0
M  V30 544 H 50.1046 5.15176 1.92026 0
M  V30 545 H 51.3296 6.33685 2.44171 0
M  V30 546 H 49.2756 5.00132 4.24504 0
M  V30 547 H 49.1926 6.6244 3.64293 0
M  V30 548 H 50.4606 6.18282 4.74708 0
M  V30 549 N 54.6897 -0.239769 1.55765 0
M  V30 550 C 55.9147 -0.988373 1.82335 0
M  V30 551 C 56.3397 -1.77886 0.611421 0
M  V30 552 O 55.6977 -1.75889 -0.439639 0
M  V30 553 C 55.7457 -1.89627 3.06715 0
M  V30 554 O 54.8497 -2.98904 2.84131 0
M  V30 555 H 54.1907 -0.280858 0.601677 0
M  V30 556 H 56.7207 -0.258597 2.02959 0
M  V30 557 H 56.7307 -2.30957 3.36338 0
M  V30 558 H 55.4057 -1.31511 3.9456 0
M  V30 559 H 53.9827 -2.61651 2.65694 0
M  V30 560 N 56.1678 -1.49265 -0.50573 0
M  V30 561 C 57.1308 -1.65075 -1.59006 0
M  V30 562 C 58.1308 -0.522768 -1.52065 0
M  V30 563 O 59.3208 -0.789117 -1.55302 0
M  V30 564 C 56.4528 -1.64369 -2.98656 0
M  V30 565 H 57.6458 -2.61784 -1.46319 0
M  V30 566 H 55.1988 -1.38226 -0.729616 0
M  V30 567 H 55.9338 -0.692272 -3.16825 0
M  V30 568 H 55.7188 -2.46282 -3.05103 0
M  V30 569 H 57.2088 -1.78674 -3.77446 0
M  V30 570 N 57.6459 0.756429 -1.3826 0
M  V30 571 C 58.8759 1.54341 -1.3734 0
M  V30 572 C 59.2839 1.89159 0.0393917 0
M  V30 573 O 58.6269 1.5307 1.01565 0
M  V30 574 C 58.6889 2.87238 -2.16182 0
M  V30 575 C 58.3529 2.74973 -3.65019 0
M  V30 576 C 59.3499 2.44962 -4.58574 0
M  V30 577 C 57.0349 2.92515 -4.08338 0
M  V30 578 C 59.0289 2.32642 -5.93428 0
M  V30 579 C 56.7159 2.79815 -5.43274 0
M  V30 580 C 57.7139 2.49921 -6.35632 0
M  V30 581 O 57.4019 2.37275 -7.68086 0
M  V30 582 H 57.1339 0.484281 -0.471643 0
M  V30 583 H 59.6879 0.944152 -1.82414 0
M  V30 584 H 57.9179 3.49342 -1.65822 0
M  V30 585 H 59.6069 3.48731 -2.07705 0
M  V30 586 H 60.3729 2.31081 -4.26412 0
M  V30 587 H 56.2519 3.14781 -3.368 0
M  V30 588 H 59.7959 2.0923 -6.65484 0
M  V30 589 H 55.6929 2.93269 -5.75034 0
M  V30 590 H 56.4609 2.52509 -7.78577 0
M  V30 591 N 59.124 1.23083 0.984299 0
M  V30 592 C 60.071 1.00854 2.07598 0
M  V30 593 C 61.041 -0.0726709 1.65941 0
M  V30 594 O 62.226 0.0786535 1.90638 0
M  V30 595 C 59.366 0.601645 3.39815 0
M  V30 596 C 58.479 1.75456 3.94765 0
M  V30 597 C 57.614 1.29482 5.15177 0
M  V30 598 C 56.653 2.41873 5.62284 0
M  V30 599 N 55.79 1.96885 6.73929 0
M  V30 600 H 60.63 1.943 2.25946 0
M  V30 601 H 58.167 0.968001 1.10762 0
M  V30 602 H 60.125 0.346854 4.15756 0
M  V30 603 H 58.755 -0.295803 3.21442 0
M  V30 604 H 57.807 2.12346 3.15616 0
M  V30 605 H 59.119 2.59965 4.25699 0
M  V30 606 H 58.273 0.997923 5.98437 0
M  V30 607 H 57.012 0.420046 4.85888 0
M  V30 608 H 56.017 2.72342 4.77608 0
M  V30 609 H 57.242 3.29881 5.93595 0
M  V30 610 H 55.188 1.11782 6.46406 0
M  V30 611 H 55.105 2.74956 7.04227 0
M  V30 612 H 56.373 1.70289 7.60672 0
M  V30 613 N 60.6021 -1.18246 1.0419 0
M  V30 614 C 61.8791 -1.84121 0.660208 0
M  V30 615 C 62.2591 -1.92778 -0.860221 0
M  V30 616 O 61.6071 -1.45464 -1.76217 0
M  V30 617 C 61.8171 -3.22355 1.33747 0
M  V30 618 C 63.1651 -3.98376 1.46906 0
M  V30 619 O 64.1891 -3.31799 1.29568 0
M  V30 620 O 63.0481 -5.17665 1.75171 0
M  V30 621 H 60.1421 -0.794036 0.231161 0
M  V30 622 H 62.6881 -1.25628 1.14087 0
M  V30 623 H 61.4601 -3.10964 2.37522 0
M  V30 624 H 61.0831 -3.88506 0.845515 0
M  V30 625 N 62.0802 -0.821533 -1.34494 0
M  V30 626 C 63.0282 -0.230702 -2.31453 0
M  V30 627 C 64.0222 0.627793 -1.57338 0
M  V30 628 O 65.2282 0.519288 -1.72347 0
M  V30 629 H 61.6032 -0.0558577 -0.749923 0
M  V30 630 H 63.5742 -1.06332 -2.78812 0
M  V30 631 C 62.3232 0.59391 -3.4259 0
M  V30 632 H 61.6462 -0.0573588 -3.99759 0
M  V30 633 H 63.0862 0.973446 -4.12674 0
M  V30 634 C 61.5452 1.76568 -2.86924 0
M  V30 635 O 62.0752 2.8638 -2.81691 0
M  V30 636 N 60.2812 1.58198 -2.43766 0
M  V30 637 H 59.8282 0.68872 -2.48222 0
M  V30 638 H 59.7862 2.36752 -2.06871 0
M  V30 639 N 63.5583 1.46682 -0.576371 0
M  V30 640 C 64.8053 2.02412 -0.0595339 0
M  V30 641 C 65.1333 1.44859 1.29793 0
M  V30 642 O 64.3883 0.601099 1.8624 0
M  V30 643 C 64.6873 3.57345 0.062886 0
M  V30 644 C 64.3533 4.33908 -1.22616 0
M  V30 645 C 63.0153 4.54544 -1.57933 0
M  V30 646 C 65.3673 4.77919 -2.07948 0
M  V30 647 C 62.6953 5.16444 -2.78393 0
M  V30 648 C 65.0473 5.41149 -3.27629 0
M  V30 649 C 63.7113 5.60014 -3.63236 0
M  V30 650 H 62.9813 0.74068 -0.021785 0
M  V30 651 H 65.6283 1.76128 -0.751735 0
M  V30 652 H 63.9333 3.82729 0.838178 0
M  V30 653 H 65.6303 3.98136 0.478439 0
M  V30 654 H 62.2203 4.18138 -0.941202 0
M  V30 655 H 66.4043 4.61738 -1.81967 0
M  V30 656 H 61.6603 5.29242 -3.06126 0
M  V30 657 H 65.8343 5.74211 -3.94023 0
M  V30 658 H 63.4613 6.07748 -4.56669 0
M  V30 659 N 65.0364 0.313813 1.54444 0
M  V30 660 C 65.9664 -0.549454 2.26943 0
M  V30 661 C 66.9474 -1.12741 1.27372 0
M  V30 662 O 68.1324 -1.15436 1.56167 0
M  V30 663 C 65.2624 -1.71523 3.01989 0
M  V30 664 C 64.2164 -1.26703 4.08816 0
M  V30 665 C 63.5424 -2.51898 4.71647 0
M  V30 666 C 64.8424 -0.388962 5.2085 0
M  V30 667 H 66.5364 0.0552661 2.99349 0
M  V30 668 H 64.0824 0.0280207 1.43973 0
M  V30 669 H 66.0354 -2.32535 3.51433 0
M  V30 670 H 64.7594 -2.34639 2.27183 0
M  V30 671 H 63.4184 -0.679896 3.6024 0
M  V30 672 H 63.0664 -3.13356 3.93468 0
M  V30 673 H 62.7664 -2.22605 5.43802 0
M  V30 674 H 64.2904 -3.1369 5.23861 0
M  V30 675 H 65.7044 -0.905107 5.6611 0
M  V30 676 H 64.1014 -0.18924 5.99802 0
M  V30 677 H 65.1714 0.582699 4.81386 0
M  V30 678 N 66.5145 -1.57545 0.0417849 0
M  V30 679 C 67.7635 -1.91494 -0.633492 0
M  V30 680 C 68.0765 -0.921084 -1.72556 0
M  V30 681 O 69.2825 -1.15228 -2.45835 0
M  V30 682 C 67.7385 -3.40072 -1.17808 0
M  V30 683 C 67.3465 -4.47843 -0.118633 0
M  V30 684 C 69.0905 -3.8307 -1.82915 0
M  V30 685 C 66.9975 -5.87529 -0.675578 0
M  V30 686 H 65.9275 -0.714653 -0.24039 0
M  V30 687 H 68.5785 -1.83175 0.109148 0
M  V30 688 H 66.9605 -3.43364 -1.97274 0
M  V30 689 H 68.1345 -4.56128 0.654494 0
M  V30 690 H 66.4495 -4.14128 0.434414 0
M  V30 691 H 69.0465 -4.84794 -2.25563 0
M  V30 692 H 69.3895 -3.1881 -2.67705 0
M  V30 693 H 69.9225 -3.82255 -1.10119 0
M  V30 694 H 66.6615 -6.55362 0.134475 0
M  V30 695 H 66.1815 -5.82824 -1.4169 0
M  V30 696 H 67.8605 -6.36491 -1.1614 0
M  V30 697 N 67.9926 0.231505 -1.5589 0
M  V30 698 C 69.2406 0.955461 -1.78088 0
M  V30 699 C 69.5616 1.85262 -0.608533 0
M  V30 700 O 68.8316 1.92277 0.375035 0
M  V30 701 H 67.4116 0.355787 -0.656829 0
M  V30 702 H 70.0736 0.245751 -1.93344 0
M  V30 703 H 69.1696 1.56814 -2.69844 0
M  V30 704 N 69.4707 1.49531 0.497807 0
M  V30 705 C 70.4337 1.65916 1.58128 0
M  V30 706 C 71.4337 0.530825 1.51786 0
M  V30 707 O 72.6237 0.797342 1.54881 0
M  V30 708 C 69.7557 1.65951 2.9778 0
M  V30 709 H 70.9487 2.62556 1.44929 0
M  V30 710 H 68.5017 1.38611 0.722275 0
M  V30 711 H 69.2367 0.709065 3.16453 0
M  V30 712 H 69.0217 2.47897 3.03792 0
M  V30 713 H 70.5117 1.80673 3.76493 0
M  V30 714 N 70.9488 -0.749086 1.3866 0
M  V30 715 C 71.9118 -1.84457 1.36045 0
M  V30 716 C 72.9118 -1.58682 0.260122 0
M  V30 717 O 74.1018 -1.66343 0.517261 0
M  V30 718 C 71.2338 -3.22008 1.11911 0
M  V30 719 H 72.4268 -1.88182 2.33512 0
M  V30 720 H 69.9798 -0.951266 1.24019 0
M  V30 721 H 70.7148 -3.2395 0.150686 0
M  V30 722 H 70.4998 -3.42111 1.91579 0
M  V30 723 H 71.9898 -4.0208 1.12788 0
M  V30 724 N 72.4269 -1.23603 -0.977757 0
M  V30 725 C 73.3569 -1.04401 -2.0886 0
M  V30 726 C 74.3379 0.0399052 -1.70053 0
M  V30 727 O 75.5229 -0.125246 -1.93796 0
M  V30 728 C 72.6529 -0.637269 -3.41403 0
M  V30 729 C 71.6069 -1.66883 -3.94124 0
M  V30 730 C 70.9329 -1.11745 -5.22893 0
M  V30 731 C 72.2329 -3.06247 -4.23096 0
M  V30 732 H 73.9269 -1.97316 -2.25182 0
M  V30 733 H 71.4729 -0.950096 -1.08209 0
M  V30 734 H 73.4259 -0.48998 -4.18542 0
M  V30 735 H 72.1499 0.327557 -3.24953 0
M  V30 736 H 70.8089 -1.80416 -3.19133 0
M  V30 737 H 70.4569 -0.143527 -5.02795 0
M  V30 738 H 70.1569 -1.80672 -5.59134 0
M  V30 739 H 71.6809 -0.982067 -6.02651 0
M  V30 740 H 73.0949 -2.96001 -4.90975 0
M  V30 741 H 71.4919 -3.72436 -4.70544 0
M  V30 742 H 72.5619 -3.55041 -3.30263 0
M  V30 743 N 73.905 1.17692 -1.04816 0
M  V30 744 C 74.853 2.23632 -0.63966 0
M  V30 745 C 75.847 1.6601 0.337219 0
M  V30 746 O 77.053 1.78844 0.203693 0
M  V30 747 H 73.428 0.727949 -0.188665 0
M  V30 748 H 75.399 2.55387 -1.54337 0
M  V30 749 C 74.148 3.4769 -0.0264051 0
M  V30 750 H 73.471 3.92331 -0.769164 0
M  V30 751 H 74.911 4.23418 0.222098 0
M  V30 752 C 73.37 3.13807 1.22584 0
M  V30 753 O 73.9 3.28236 2.31569 0
M  V30 754 N 72.106 2.68065 1.12202 0
M  V30 755 H 71.653 2.56525 0.235133 0
M  V30 756 H 71.611 2.45767 1.96076 0
M  V30 757 N 75.3831 0.828654 1.34056 0
M  V30 758 C 76.3461 0.259927 2.27721 0
M  V30 759 C 77.3461 -0.565478 1.50529 0
M  V30 760 O 78.5361 -0.38075 1.69988 0
M  V30 761 C 75.6681 -0.634944 3.34935 0
M  V30 762 H 76.8611 1.0863 2.79534 0
M  V30 763 H 74.4141 0.600951 1.44285 0
M  V30 764 H 75.1491 -1.48416 2.88346 0
M  V30 765 H 74.9341 -0.0444999 3.92075 0
M  V30 766 H 76.4241 -1.02648 4.04788 0
M  V30 767 N 76.8612 -1.46375 0.584142 0
M  V30 768 C 78.0892 -2.06761 0.0759296 0
M  V30 769 C 78.5042 -1.43266 -1.22965 0
M  V30 770 O 77.8612 -0.538458 -1.74376 0
M  V30 771 C 77.9122 -3.61375 -0.0950384 0
M  V30 772 O 77.6332 -4.22495 1.15887 0
M  V30 773 C 79.1342 -4.38693 -0.637434 0
M  V30 774 H 76.3542 -0.668479 0.0581075 0
M  V30 775 H 78.8982 -1.8798 0.805218 0
M  V30 776 H 77.0532 -3.79578 -0.774554 0
M  V30 777 H 77.4672 -5.15385 0.973598 0
M  V30 778 H 78.9412 -5.47464 -0.706237 0
M  V30 779 H 79.4182 -4.06836 -1.65472 0
M  V30 780 H 80.0242 -4.25299 0.00725967 0
M  V30 781 N 78.3393 -0.321999 -1.54275 0
M  V30 782 C 79.5883 0.281931 -1.9972 0
M  V30 783 C 79.9013 1.53369 -1.21397 0
M  V30 784 O 81.1073 2.21352 -1.57211 0
M  V30 785 C 79.5633 0.5529 -3.55628 0
M  V30 786 C 79.1713 -0.681721 -4.42783 0
M  V30 787 C 80.9153 1.11687 -4.09544 0
M  V30 788 C 78.8223 -0.382742 -5.9016 0
M  V30 789 H 77.7523 0.109124 -0.746062 0
M  V30 790 H 80.4033 -0.43398 -1.78294 0
M  V30 791 H 78.7853 1.32896 -3.73035 0
M  V30 792 H 79.9593 -1.45723 -4.37151 0
M  V30 793 H 78.2743 -1.1658 -3.99748 0
M  V30 794 H 80.8713 1.35515 -5.17242 0
M  V30 795 H 81.2143 2.06575 -3.61431 0
M  V30 796 H 81.7473 0.402032 -3.95763 0
M  V30 797 H 78.4863 -1.30076 -6.42464 0
M  V30 798 H 78.0063 0.355094 -5.98748 0
M  V30 799 H 79.6853 0.00800157 -6.47 0
M  V30 800 N 79.8174 1.5752 -0.0501392 0
M  V30 801 C 80.7804 2.1037 0.909786 0
M  V30 802 C 81.7804 1.02308 1.24056 0
M  V30 803 O 82.9704 1.28385 1.17741 0
M  V30 804 C 80.1024 2.58708 2.21998 0
M  V30 805 H 81.2954 2.96479 0.451665 0
M  V30 806 H 78.8484 1.55038 0.198248 0
M  V30 807 H 79.5834 1.75989 2.72394 0
M  V30 808 H 79.3684 3.37675 1.99295 0
M  V30 809 H 80.8584 2.99747 2.9076 0
M  V30 810 N 81.2955 -0.223234 1.56011 0
M  V30 811 C 82.5205 -0.968978 1.83373 0
M  V30 812 C 82.9455 -1.77227 0.630254 0
M  V30 813 O 82.3035 -1.76345 -0.420959 0
M  V30 814 C 82.3515 -1.86363 3.08709 0
M  V30 815 O 81.4555 -2.95873 2.87285 0
M  V30 816 H 80.7965 -0.274461 0.604622 0
M  V30 817 H 83.3265 -0.237056 2.03222 0
M  V30 818 H 83.3365 -2.27376 3.38768 0
M  V30 819 H 82.0115 -1.27319 3.95933 0
M  V30 820 H 80.5885 -2.58818 2.68454 0
M  V30 821 N 82.7736 -1.49793 -0.48987 0
M  V30 822 C 84.0216 -1.59525 -1.24081 0
M  V30 823 C 84.3426 -0.288953 -1.92847 0
M  V30 824 O 83.6126 0.692436 -1.83254 0
M  V30 825 H 82.1926 -0.587796 -0.460983 0
M  V30 826 H 84.8546 -1.86477 -0.566778 0
M  V30 827 H 83.9506 -2.39696 -1.99881 0
M  V30 828 N 84.2517 0.741722 -1.39055 0
M  V30 829 C 85.2147 1.83733 -1.37021 0
M  V30 830 C 86.2147 1.58542 -0.268534 0
M  V30 831 O 87.4047 1.66067 -0.526076 0
M  V30 832 C 84.5367 3.2141 -1.13617 0
M  V30 833 H 85.7297 1.86941 -2.34506 0
M  V30 834 H 83.2827 0.944676 -1.24521 0
M  V30 835 H 84.0177 3.23865 -0.167863 0
M  V30 836 H 83.8027 3.4109 -1.93391 0
M  V30 837 H 85.2927 4.01477 -1.14918 0
M  V30 838 N 85.7298 1.2412 0.971189 0
M  V30 839 C 87.0068 0.986867 1.6888 0
M  V30 840 C 87.3868 -0.491857 2.0529 0
M  V30 841 O 86.7348 -1.46531 1.75331 0
M  V30 842 C 86.9448 1.9063 2.92338 0
M  V30 843 C 88.2928 2.17515 3.64654 0
M  V30 844 O 89.3168 1.88254 3.02388 0
M  V30 845 O 88.1758 2.6719 4.7673 0
M  V30 846 H 85.2698 0.372944 0.738134 0
M  V30 847 H 87.8158 1.35203 1.02559 0
M  V30 848 H 86.5878 2.90552 2.62097 0
M  V30 849 H 86.2108 1.54408 3.66393 0
M  V30 850 N 87.2079 -1.17134 1.05439 0
M  V30 851 C 88.1179 -2.24878 0.668365 0
M  V30 852 C 89.1339 -1.71186 -0.311687 0
M  V30 853 O 90.3099 -2.00738 -0.163161 0
M  V30 854 C 87.3749 -3.46662 0.051648 0
M  V30 855 C 86.4359 -4.15429 1.08246 0
M  V30 856 C 85.6689 -5.31399 0.495082 0
M  V30 857 O 85.8919 -5.66153 -0.694743 0
M  V30 858 O 84.8259 -5.89187 1.23056 0
M  V30 859 H 88.6519 -2.60189 1.56637 0
M  V30 860 H 86.2369 -1.24482 0.826104 0
M  V30 861 H 88.1189 -4.20394 -0.290966 0
M  V30 862 H 86.7939 -3.13142 -0.819971 0
M  V30 863 H 85.7009 -3.43704 1.47711 0
M  V30 864 H 87.0339 -4.52982 1.92532 0
M  V30 865 N 88.686 -0.835752 -1.33615 0
M  V30 866 C 90.102 -0.523139 -1.50783 0
M  V30 867 C 90.302 0.950171 -1.77691 0
M  V30 868 O 89.358 1.73411 -1.83534 0
M  V30 869 C 90.671 -1.39378 -2.66448 0
M  V30 870 C 92.219 -1.39223 -2.80332 0
M  V30 871 C 92.694 -2.24765 -3.99055 0
M  V30 872 N 94.185 -2.22458 -4.06284 0
M  V30 873 C 94.92 -2.85386 -4.97336 0
M  V30 874 N 94.416 -3.57354 -5.93523 0
M  V30 875 N 96.209 -2.74872 -4.90308 0
M  V30 876 H 88.36 -1.78952 -1.14411 0
M  V30 877 H 90.623 -0.763297 -0.562212 0
M  V30 878 H 90.329 -2.44061 -2.53234 0
M  V30 879 H 90.203 -1.0676 -3.61776 0
M  V30 880 H 92.59 -0.353136 -2.92979 0
M  V30 881 H 92.671 -1.75846 -1.85773 0
M  V30 882 H 92.315 -3.28732 -3.87167 0
M  V30 883 H 92.245 -1.85485 -4.92852 0
M  V30 884 H 94.736 -1.70119 -3.37443 0
M  V30 885 H 95.049 -4.02584 -6.59656 0
M  V30 886 H 93.394 -3.61461 -5.93608 0
M  V30 887 H 96.585 -2.18213 -4.14126 0
M  V30 888 H 96.758 -3.24199 -5.61069 0
M  V30 889 N 90.1641 1.46063 -0.591896 0
M  V30 890 C 91.0941 2.33172 0.123673 0
M  V30 891 C 92.0751 1.45897 0.87453 0
M  V30 892 O 93.2601 1.74698 0.848181 0
M  V30 893 C 90.3901 3.28336 1.13194 0
M  V30 894 C 89.3441 4.25124 0.495324 0
M  V30 895 C 88.6701 5.09863 1.61071 0
M  V30 896 C 89.9701 5.19143 -0.573425 0
M  V30 897 H 91.6641 2.93252 -0.603646 0
M  V30 898 H 89.2101 1.41014 -0.291741 0
M  V30 899 H 91.1631 3.88137 1.64097 0
M  V30 900 H 89.8871 2.66383 1.88965 0
M  V30 901 H 88.5461 3.66599 0.00729452 0
M  V30 902 H 88.1941 4.44288 2.35832 0
M  V30 903 H 87.8941 5.75417 1.19035 0
M  V30 904 H 89.4181 5.72529 2.12233 0
M  V30 905 H 90.8321 5.73106 -0.1491 0
M  V30 906 H 89.2291 5.93089 -0.914636 0
M  V30 907 H 90.2991 4.62519 -1.45617 0
M  V30 908 N 91.6422 0.330177 1.54103 0
M  V30 909 C 92.5902 -0.548226 2.26047 0
M  V30 910 C 93.5842 -1.11309 1.27698 0
M  V30 911 O 94.7902 -1.06036 1.45452 0
M  V30 912 H 91.1652 -0.195456 0.726155 0
M  V30 913 H 93.1362 0.0807567 2.98291 0
M  V30 914 C 91.8852 -1.69415 3.03634 0
M  V30 915 H 91.2082 -1.26876 3.79134 0
M  V30 916 H 92.6482 -2.28423 3.5721 0
M  V30 917 C 91.1072 -2.61569 2.12328 0
M  V30 918 O 91.6372 -3.63462 1.7105 0
M  V30 919 N 89.8432 -2.29952 1.77681 0
M  V30 920 H 89.3902 -1.47134 2.11446 0
M  V30 921 H 89.3482 -2.91871 1.16869 0
M  V30 922 N 93.1203 -1.57491 0.0584922 0
M  V30 923 C 94.3483 -1.97296 -0.623037 0
M  V30 924 C 94.7633 -0.936338 -1.63946 0
M  V30 925 O 94.1203 0.0785981 -1.82331 0
M  V30 926 C 94.1713 -3.37183 -1.30345 0
M  V30 927 O 93.8923 -4.36872 -0.32773 0
M  V30 928 C 95.3933 -3.91788 -2.07406 0
M  V30 929 H 92.6133 -0.649153 -0.169826 0
M  V30 930 H 95.1573 -2.04106 0.12696 0
M  V30 931 H 93.3123 -3.31502 -2.00463 0
M  V30 932 H 93.7263 -5.18141 -0.814269 0
M  V30 933 H 95.2003 -4.91926 -2.50425 0
M  V30 934 H 95.6773 -3.27609 -2.92521 0
M  V30 935 H 96.2833 -4.00829 -1.42184 0
M  V30 936 N 94.5984 0.214957 -1.56127 0
M  V30 937 C 95.5284 1.2695 -1.95974 0
M  V30 938 C 96.5094 1.48539 -0.828868 0
M  V30 939 O 97.6944 1.60611 -1.09168 0
M  V30 940 C 94.8244 2.61794 -2.28214 0
M  V30 941 C 93.7784 2.54851 -3.43853 0
M  V30 942 C 93.1044 3.93785 -3.61715 0
M  V30 943 C 94.4044 2.09065 -4.78632 0
M  V30 944 H 96.0984 0.93846 -2.84312 0
M  V30 945 H 93.6444 0.449996 -1.36788 0
M  V30 946 H 95.5974 3.35731 -2.54682 0
M  V30 947 H 94.3214 2.96599 -1.36736 0
M  V30 948 H 92.9804 1.8337 -3.17444 0
M  V30 949 H 92.6284 4.25908 -2.67602 0
M  V30 950 H 92.3284 3.90019 -4.39498 0
M  V30 951 H 93.8524 4.69374 -3.90539 0
M  V30 952 H 95.2664 2.7275 -5.04262 0
M  V30 953 H 93.6634 2.16346 -5.59745 0
M  V30 954 H 94.7334 1.04315 -4.73547 0
M  V30 955 N 96.0765 1.50051 0.48192 0
M  V30 956 C 97.3255 1.59741 1.23149 0
M  V30 957 C 97.6385 0.298163 1.93314 0
M  V30 958 O 98.8445 0.273835 2.70116 0
M  V30 959 C 97.3005 2.81926 2.23708 0
M  V30 960 C 96.9085 4.18685 1.59396 0
M  V30 961 C 98.6525 3.00956 2.99375 0
M  V30 962 C 96.5595 5.3207 2.58178 0
M  V30 963 H 95.4895 0.594838 0.46334 0
M  V30 964 H 98.1405 1.76467 0.503169 0
M  V30 965 H 96.5225 2.58736 2.99786 0
M  V30 966 H 97.6965 4.52088 0.891811 0
M  V30 967 H 96.0115 4.05171 0.960503 0
M  V30 968 H 98.6085 3.82836 3.73283 0
M  V30 969 H 98.9515 2.12258 3.58123 0
M  V30 970 H 99.4845 3.24277 2.30411 0
M  V30 971 H 96.2235 6.22888 2.04184 0
M  V30 972 H 95.7435 5.03098 3.26577 0
M  V30 973 H 97.4225 5.62196 3.20225 0
M  V30 974 N 97.5546 -0.734337 1.39446 0
M  V30 975 C 98.5176 -1.83004 1.37994 0
M  V30 976 C 99.5176 -1.58397 0.276938 0
M  V30 977 O 100.708 -1.65785 0.534875 0
M  V30 978 C 97.8396 -3.20802 1.1532 0
M  V30 979 H 99.0326 -1.85694 2.35494 0
M  V30 980 H 96.5856 -0.938059 1.25021 0
M  V30 981 H 97.3206 -3.23772 0.185036 0
M  V30 982 H 97.1056 -3.4006 1.95197 0
M  V30 983 H 98.5956 -4.00862 1.17046 0
M  V30 984 N 99.0327 -1.24633 -0.964593 0
M  V30 985 C 99.9797 -1.04144 -2.05968 0
M  V30 986 C 100.95 0.046262 -1.66036 0
M  V30 987 O 102.135 -0.108972 -1.90489 0
M  V30 988 C 99.2747 -0.65563 -3.38815 0
M  V30 989 C 98.3877 -1.81714 -3.91923 0
M  V30 990 C 97.5227 -1.37662 -5.13052 0
M  V30 991 C 96.5617 -2.50788 -5.58365 0
M  V30 992 N 95.6987 -2.07582 -6.70712 0
M  V30 993 H 100.539 -1.9787 -2.22827 0
M  V30 994 H 98.0757 -0.9855 -1.09208 0
M  V30 995 H 100.034 -0.412954 -4.15151 0
M  V30 996 H 98.6637 0.244627 -3.21872 0
M  V30 997 H 97.7157 -2.1734 -3.12198 0
M  V30 998 H 99.0277 -2.66705 -4.21509 0
M  V30 999 H 98.1817 -1.093 -5.96773 0
M  V30 1000 H 96.9207 -0.497293 -4.85158 0
M  V30 1001 H 95.9257 -2.79906 -4.73215 0
M  V30 1002 H 97.1507 -3.39283 -5.88272 0
M  V30 1003 H 95.0967 -1.22051 -6.44546 0
M  V30 1004 H 95.0137 -2.86125 -6.99763 0
M  V30 1005 H 96.2817 -1.82369 -7.57867 0
M  V30 1006 N 100.511 1.16574 -1.06058 0
M  V30 1007 C 101.421 2.2452 -0.680282 0
M  V30 1008 C 102.437 1.71348 0.302604 0
M  V30 1009 O 103.613 2.00822 0.152513 0
M  V30 1010 C 100.678 3.46629 -0.0700315 0
M  V30 1011 C 99.7388 4.14849 -1.10448 0
M  V30 1012 C 98.9718 5.31129 -0.523256 0
M  V30 1013 O 99.1948 5.66514 0.664709 0
M  V30 1014 O 98.1288 5.88526 -1.26179 0
M  V30 1015 H 101.955 2.59355 -1.58015 0
M  V30 1016 H 99.5398 1.24043 -0.832694 0
M  V30 1017 H 101.422 4.20543 0.268667 0
M  V30 1018 H 100.097 3.13573 0.803353 0
M  V30 1019 H 99.0038 3.42916 -1.49532 0
M  V30 1020 H 100.337 4.51954 -1.94931 0
M  V30 1021 N 101.989 0.842826 1.3317 0
M  V30 1022 C 103.236 0.440447 1.97652 0
M  V30 1023 C 103.564 -1.00123 1.6675 0
M  V30 1024 O 102.819 -1.7155 0.941761 0
M  V30 1025 C 103.118 0.612607 3.52111 0
M  V30 1026 C 102.784 2.02297 4.02972 0
M  V30 1027 C 101.446 2.40874 4.16573 0
M  V30 1028 C 103.798 2.94402 4.30089 0
M  V30 1029 C 101.126 3.70852 4.54627 0
M  V30 1030 C 103.478 4.23865 4.69597 0
M  V30 1031 C 102.142 4.62392 4.81404 0
M  V30 1032 H 101.412 0.161171 0.72326 0
M  V30 1033 H 104.059 1.07061 1.58777 0
M  V30 1034 H 102.364 -0.100849 3.9167 0
M  V30 1035 H 104.061 0.2815 4.00011 0
M  V30 1036 H 100.651 1.71338 3.92863 0
M  V30 1037 H 104.835 2.65835 4.19101 0
M  V30 1038 H 100.091 4.00501 4.61962 0
M  V30 1039 H 104.265 4.95306 4.89536 0
M  V30 1040 H 101.892 5.63154 5.10648 0
M  V30 1041 N 103.467 -1.45747 0.599634 0
M  V30 1042 C 104.415 -2.322 -0.136426 0
M  V30 1043 C 105.409 -1.45497 -0.867583 0
M  V30 1044 O 106.615 -1.62027 -0.78405 0
M  V30 1045 H 102.99 -0.749368 -0.0628588 0
M  V30 1046 H 104.961 -2.92072 0.611281 0
M  V30 1047 C 103.71 -3.28974 -1.12567 0
M  V30 1048 H 103.033 -3.9568 -0.572484 0
M  V30 1049 H 104.473 -3.92212 -1.61077 0
M  V30 1050 C 102.932 -2.55561 -2.19523 0
M  V30 1051 O 103.462 -2.33111 -3.27143 0
M  V30 1052 N 101.668 -2.15832 -1.94589 0
M  V30 1053 H 101.215 -2.3429 -1.07078 0
M  V30 1054 H 101.173 -1.67034 -2.66359 0
M  V30 1055 N 104.945 -0.338344 -1.53925 0
M  V30 1056 C 106.17 0.263987 -2.05713 0
M  V30 1057 C 106.595 1.43847 -1.21201 0
M  V30 1058 O 105.953 1.79904 -0.224535 0
M  V30 1059 C 106.001 0.662 -3.54471 0
M  V30 1060 O 105.105 1.76265 -3.72833 0
M  V30 1061 H 104.446 0.0448722 -0.662482 0
M  V30 1062 H 106.976 -0.491048 -1.9862 0
M  V30 1063 H 106.986 0.940594 -3.9701 0
M  V30 1064 H 105.661 -0.196937 -4.15433 0
M  V30 1065 H 104.238 1.48173 -3.42198 0
M  V30 1066 N 106.423 1.57458 -0.0668435 0
M  V30 1067 C 107.672 1.92477 0.602947 0
M  V30 1068 C 107.985 0.948419 1.71068 0
M  V30 1069 O 109.191 1.19124 2.43971 0
M  V30 1070 C 107.647 3.41903 1.12383 0
M  V30 1071 C 107.255 4.47975 0.04737 0
M  V30 1072 C 108.999 3.85931 1.76797 0
M  V30 1073 C 106.906 5.88529 0.582022 0
M  V30 1074 H 105.836 0.718387 0.22899 0
M  V30 1075 H 108.487 1.82978 -0.138276 0
M  V30 1076 H 106.869 3.46459 1.91787 0
M  V30 1077 H 108.043 4.55029 -0.726978 0
M  V30 1078 H 106.358 4.13384 -0.500243 0
M  V30 1079 H 108.955 4.88322 2.17821 0
M  V30 1080 H 109.298 3.23029 2.62599 0
M  V30 1081 H 109.831 3.83958 1.04024 0
M  V30 1082 H 106.57 6.55065 -0.238721 0
M  V30 1083 H 106.09 5.85004 1.324 0
M  V30 1084 H 107.769 6.38258 1.05999 0
M  V30 1085 N 107.901 -0.206675 1.56239 0
M  V30 1086 C 109.129 -0.945345 1.8404 0
M  V30 1087 C 109.544 -1.77336 0.647885 0
M  V30 1088 O 108.901 -1.78425 -0.383511 0
M  V30 1089 C 108.952 -1.8509 3.10522 0
M  V30 1090 O 108.673 -1.05634 4.25174 0
M  V30 1091 C 110.174 -2.70222 3.51418 0
M  V30 1092 H 107.394 -0.276372 0.61144 0
M  V30 1093 H 109.938 -0.217417 2.03341 0
M  V30 1094 H 108.093 -2.53259 2.93153 0
M  V30 1095 H 108.507 -1.67238 4.97124 0
M  V30 1096 H 109.981 -3.29438 4.42916 0
M  V30 1097 H 110.458 -3.43358 2.73864 0
M  V30 1098 H 111.064 -2.07443 3.71278 0
M  V30 1099 N 109.379 -1.50304 -0.473955 0
M  V30 1100 C 110.79 -1.54042 -1.0549 0
M  V30 1101 C 111.141 -0.342248 -1.93192 0
M  V30 1102 O 110.266 0.545157 -2.09421 0
M  V30 1103 C 110.861 -2.79152 -1.91989 0
M  V30 1104 C 109.42 -2.8558 -2.45196 0
M  V30 1105 C 108.567 -2.48295 -1.2347 0
M  V30 1106 H 111.518 -1.5661 -0.256693 0
M  V30 1107 H 111.539 -2.60845 -2.7702 0
M  V30 1108 H 111.051 -3.66339 -1.28131 0
M  V30 1109 H 109.152 -2.02738 -3.12615 0
M  V30 1110 H 109.265 -3.88403 -2.80499 0
M  V30 1111 H 107.629 -2.00669 -1.56856 0
M  V30 1112 H 108.412 -3.37787 -0.612789 0
M  V30 1113 N 110.857 0.726932 -1.39834 0
M  V30 1114 C 111.767 1.87131 -1.41489 0
M  V30 1115 C 112.783 1.71239 -0.308757 0
M  V30 1116 O 113.959 1.93701 -0.551529 0
M  V30 1117 C 111.024 3.22811 -1.26468 0
M  V30 1118 C 110.085 3.51039 -2.47124 0
M  V30 1119 C 109.318 4.80245 -2.3281 0
M  V30 1120 O 109.541 5.54537 -1.33585 0
M  V30 1121 O 108.475 5.08554 -3.21957 0
M  V30 1122 H 112.301 1.8869 -2.3797 0
M  V30 1123 H 109.886 0.875837 -1.21035 0
M  V30 1124 H 111.768 4.03877 -1.20255 0
M  V30 1125 H 110.443 3.22005 -0.330862 0
M  V30 1126 H 109.35 2.70027 -2.58914 0
M  V30 1127 H 110.683 3.56632 -3.39227 0
M  V30 1128 N 112.336 1.25143 0.95797 0
M  V30 1129 C 113.284 1.05019 2.07542 0
M  V30 1130 C 114.278 -0.0178751 1.69391 0
M  V30 1131 O 115.484 0.137472 1.79474 0
M  V30 1132 H 111.859 0.32265 0.679265 0
M  V30 1133 H 113.83 1.99759 2.21673 0
M  V30 1134 C 112.579 0.682074 3.40944 0
M  V30 1135 H 111.902 1.49573 3.70767 0
M  V30 1136 H 113.342 0.580945 4.20001 0
M  V30 1137 C 111.801 -0.611608 3.31302 0
M  V30 1138 O 112.331 -1.65465 3.66038 0
M  V30 1139 N 110.537 -0.595982 2.84423 0
M  V30 1140 H 110.084 0.253192 2.56353 0
M  V30 1141 H 110.042 -1.46173 2.78354 0
M  V30 1142 N 113.814 -1.1601 1.06675 0
M  V30 1143 C 115.054 -1.88304 0.795037 0
M  V30 1144 C 115.418 -1.80062 -0.666466 0
M  V30 1145 O 116.619 -2.47319 -1.05293 0
M  V30 1146 C 114.89 -3.33664 1.28076 0
M  V30 1147 S 116.449 -4.23768 1.13868 0
M  V30 1148 H 113.267 -0.649928 0.288296 0
M  V30 1149 H 115.869 -1.4001 1.36445 0
M  V30 1150 H 114.573 -3.37203 2.33927 0
M  V30 1151 H 114.104 -3.87009 0.706253 0
M  V30 1152 H 116.119 -4.96148 0.0719668 0
M  V30 1153 N 115.292 -0.849877 -1.32721 0
M  V30 1154 C 116.225 -0.235903 -2.26977 0
M  V30 1155 C 117.203 0.623355 -1.50177 0
M  V30 1156 O 118.387 0.581207 -1.79316 0
M  V30 1157 C 115.514 0.667712 -3.32053 0
M  V30 1158 C 114.56 -0.11753 -4.26338 0
M  V30 1159 S 115.393 -1.48277 -5.14562 0
M  V30 1160 C 116.549 -0.584741 -6.23163 0
M  V30 1161 H 116.782 -1.03495 -2.78704 0
M  V30 1162 H 114.315 -0.64724 -1.40179 0
M  V30 1163 H 116.273 1.18343 -3.93072 0
M  V30 1164 H 114.934 1.44052 -2.7912 0
M  V30 1165 H 114.127 0.57051 -5.00761 0
M  V30 1166 H 113.729 -0.564668 -3.69713 0
M  V30 1167 H 116.021 0.212968 -6.77165 0
M  V30 1168 H 116.964 -1.29947 -6.96074 0
M  V30 1169 H 117.372 -0.161202 -5.6427 0
M  V30 1170 N 116.77 1.45427 -0.607355 0
M  V30 1171 C 117.717 2.3053 0.111625 0
M  V30 1172 C 118.687 1.4209 0.860216 0
M  V30 1173 O 119.872 1.71019 0.845998 0
M  V30 1174 C 117.012 3.26992 1.10319 0
M  V30 1175 C 116.125 4.30535 0.355493 0
M  V30 1176 C 115.26 5.14105 1.33676 0
M  V30 1177 C 114.299 6.09376 0.576862 0
M  V30 1178 N 113.436 6.85727 1.5074 0
M  V30 1179 H 118.276 2.91477 -0.620093 0
M  V30 1180 H 115.813 1.43631 -0.317594 0
M  V30 1181 H 117.771 3.81385 1.6912 0
M  V30 1182 H 116.401 2.67799 1.80232 0
M  V30 1183 H 115.453 3.78805 -0.348023 0
M  V30 1184 H 116.765 4.98235 -0.237423 0
M  V30 1185 H 115.919 5.72897 1.99684 0
M  V30 1186 H 114.658 4.46423 1.9636 0
M  V30 1187 H 113.663 5.49715 -0.0968519 0
M  V30 1188 H 114.888 6.79085 -0.0449341 0
M  V30 1189 H 112.834 6.20735 2.12189 0
M  V30 1190 H 112.751 7.49778 0.967913 0
M  V30 1191 H 114.019 7.4906 2.15706 0
M  V30 1192 N 118.248 0.346503 1.53744 0
M  V30 1193 C 119.494 -0.242135 2.01954 0
M  V30 1194 C 119.849 -1.47962 1.22984 0
M  V30 1195 O 119.142 -1.89077 0.309924 0
M  V30 1196 C 119.336 -0.605809 3.52228 0
M  V30 1197 C 119.165 0.594882 4.45748 0
M  V30 1198 C 117.935 1.1011 4.93157 0
M  V30 1199 C 120.133 1.45425 4.93311 0
M  V30 1200 N 118.115 2.26381 5.70636 0
M  V30 1201 C 119.486 2.46383 5.68942 0
M  V30 1202 C 121.541 1.47935 4.75415 0
M  V30 1203 C 120.244 3.49684 6.28581 0
M  V30 1204 C 122.27 2.50119 5.35905 0
M  V30 1205 C 121.632 3.49803 6.11406 0
M  V30 1206 H 117.731 -0.0518296 0.780281 0
M  V30 1207 H 120.315 0.486736 1.88518 0
M  V30 1208 H 118.486 -1.30378 3.65864 0
M  V30 1209 H 120.218 -1.17789 3.87179 0
M  V30 1210 H 116.973 0.668721 4.68855 0
M  V30 1211 H 117.397 2.85094 6.14044 0
M  V30 1212 H 122.039 0.722274 4.16585 0
M  V30 1213 H 119.757 4.26285 6.86518 0
M  V30 1214 H 123.343 2.52892 5.23963 0
M  V30 1215 H 122.223 4.27576 6.5738 0
M  V30 1216 N 119.726 -1.57421 0.075193 0
M  V30 1217 C 120.974 -1.93236 -0.591974 0
M  V30 1218 C 121.295 -0.956241 -1.69944 0
M  V30 1219 O 120.565 -0.00494792 -1.95899 0
M  V30 1220 H 119.145 -0.713355 -0.22166 0
M  V30 1221 H 121.807 -1.9444 0.133848 0
M  V30 1222 H 120.903 -2.95131 -1.01509 0
M  V30 1223 N 121.204 0.198386 -1.56346 0
M  V30 1224 C 122.45 0.920648 -1.80698 0
M  V30 1225 C 122.783 1.83045 -0.648697 0
M  V30 1226 O 122.058 1.91308 0.350925 0
M  V30 1227 C 122.341 1.73971 -3.15287 0
M  V30 1228 C 122.194 0.85485 -4.41602 0
M  V30 1229 C 123.513 2.71296 -3.46535 0
M  V30 1230 H 120.632 0.333261 -0.657348 0
M  V30 1231 H 123.274 0.188198 -1.89066 0
M  V30 1232 H 121.424 2.36416 -3.08285 0
M  V30 1233 H 123.096 0.245362 -4.60647 0
M  V30 1234 H 121.339 0.161398 -4.335 0
M  V30 1235 H 122.01 1.46286 -5.32264 0
M  V30 1236 H 124.486 2.18983 -3.53816 0
M  V30 1237 H 123.362 3.2569 -4.41834 0
M  V30 1238 H 123.623 3.5018 -2.69864 0
M  V30 1239 N 122.682 1.50554 0.465978 0
M  V30 1240 C 123.612 1.72722 1.57128 0
M  V30 1241 C 124.593 0.576294 1.6004 0
M  V30 1242 O 125.778 0.81598 1.76225 0
M  V30 1243 C 122.908 1.82605 2.95419 0
M  V30 1244 C 121.862 2.97835 3.07373 0
M  V30 1245 C 121.188 2.92867 4.47363 0
M  V30 1246 C 122.488 4.38265 2.84114 0
M  V30 1247 H 124.182 2.65267 1.38829 0
M  V30 1248 H 121.728 1.2765 0.666441 0
M  V30 1249 H 123.681 1.96698 3.72677 0
M  V30 1250 H 122.405 0.866858 3.14886 0
M  V30 1251 H 121.064 2.83401 2.3255 0
M  V30 1252 H 120.712 1.94783 4.63755 0
M  V30 1253 H 120.412 3.70227 4.56296 0
M  V30 1254 H 121.936 3.09015 5.26633 0
M  V30 1255 H 123.35 4.53198 3.51118 0
M  V30 1256 H 121.747 5.17115 3.04487 0
M  V30 1257 H 122.817 4.50281 1.7993 0
M  V30 1258 N 124.16 -0.719506 1.40217 0
M  V30 1259 C 125.576 -1.02707 1.22161 0
M  V30 1260 C 125.776 -2.0128 0.0940557 0
M  V30 1261 O 124.832 -2.46452 -0.549318 0
M  V30 1262 C 126.145 -1.57454 2.56181 0
M  V30 1263 C 127.693 -1.69458 2.63159 0
M  V30 1264 C 128.168 -2.27611 3.97438 0
M  V30 1265 N 129.659 -2.35002 3.99159 0
M  V30 1266 C 130.394 -2.80972 4.99842 0
M  V30 1267 N 129.89 -3.26723 6.10921 0
M  V30 1268 N 131.683 -2.80321 4.87213 0
M  V30 1269 H 123.834 -0.0660492 2.12297 0
M  V30 1270 H 126.097 -0.0919077 0.943534 0
M  V30 1271 H 125.803 -0.924873 3.39321 0
M  V30 1272 H 125.677 -2.56036 2.76993 0
M  V30 1273 H 128.064 -2.33543 1.80393 0
M  V30 1274 H 128.145 -0.694867 2.46181 0
M  V30 1275 H 127.789 -1.6415 4.80643 0
M  V30 1276 H 127.719 -3.2829 4.11744 0
M  V30 1277 H 130.21 -2.02685 3.18947 0
M  V30 1278 H 130.523 -3.60355 6.8364 0
M  V30 1279 H 128.868 -3.24692 6.14492 0
M  V30 1280 H 132.059 -2.43912 3.9953 0
M  V30 1281 H 132.232 -3.15831 5.65822 0
M  V30 1282 N 125.638 -1.25649 -0.95132 0
M  V30 1283 C 126.915 -1.01361 -1.67288 0
M  V30 1284 C 127.295 0.459135 -2.06046 0
M  V30 1285 O 126.643 1.43723 -1.7764 0
M  V30 1286 C 126.853 -1.95256 -2.89268 0
M  V30 1287 C 128.201 -2.23289 -3.61147 0
M  V30 1288 O 129.225 -1.93041 -2.99355 0
M  V30 1289 O 128.084 -2.74741 -4.72419 0
M  V30 1290 H 125.178 -0.38464 -0.732107 0
M  V30 1291 H 127.724 -1.36817 -1.00395 0
M  V30 1292 H 126.496 -2.94685 -2.57442 0
M  V30 1293 H 126.119 -1.60218 -3.6389 0
M  V30 1294 N 127.117 1.15442 -1.07289 0
M  V30 1295 C 128.08 2.18358 -0.696591 0
M  V30 1296 C 129.08 1.58637 0.262837 0
M  V30 1297 O 130.27 1.74145 0.0438809 0
M  V30 1298 C 127.402 3.4089 -0.0266151 0
M  V30 1299 H 128.595 2.53162 -1.60776 0
M  V30 1300 H 126.148 1.29893 -0.869342 0
M  V30 1301 H 126.883 3.11653 0.896822 0
M  V30 1302 H 126.668 3.85495 -0.716657 0
M  V30 1303 H 128.158 4.17009 0.222028 0
M  V30 1304 N 128.595 0.856903 1.32268 0
M  V30 1305 C 129.527 0.260412 2.27716 0
M  V30 1306 C 130.54 -0.569137 1.52528 0
M  V30 1307 O 131.729 -0.39326 1.74114 0
M  V30 1308 C 128.829 -0.650477 3.32599 0
M  V30 1309 C 128.002 0.14372 4.37164 0
M  V30 1310 C 127.061 -0.69328 5.21613 0
M  V30 1311 O 126.087 -0.12599 5.69061 0
M  V30 1312 N 127.289 -2.00761 5.44679 0
M  V30 1313 H 130.054 1.08059 2.79541 0
M  V30 1314 H 127.615 0.717103 1.45152 0
M  V30 1315 H 129.607 -1.21581 3.86005 0
M  V30 1316 H 128.177 -1.37133 2.80915 0
M  V30 1317 H 127.397 0.890486 3.8401 0
M  V30 1318 H 128.685 0.68915 5.04111 0
M  V30 1319 H 128.083 -2.49181 5.07863 0
M  V30 1320 H 126.64 -2.52103 6.01072 0
M  V30 1321 N 130.073 -1.45103 0.615059 0
M  V30 1322 C 131.321 -2.01784 0.112955 0
M  V30 1323 C 131.642 -1.48504 -1.26378 0
M  V30 1324 O 130.912 -0.682245 -1.83636 0
M  V30 1325 H 129.492 -0.745993 0.0387668 0
M  V30 1326 H 132.154 -1.77808 0.798141 0
M  V30 1327 H 131.25 -3.12025 0.0684069 0
M  V30 1328 N 131.551 -0.354651 -1.53558 0
M  V30 1329 C 132.483 0.5315 -2.22952 0
M  V30 1330 C 133.496 1.05503 -1.23988 0
M  V30 1331 O 134.685 0.963279 -1.50277 0
M  V30 1332 C 131.785 1.74538 -2.90499 0
M  V30 1333 C 130.958 1.35524 -4.15875 0
M  V30 1334 C 130.017 2.42999 -4.66731 0
M  V30 1335 O 129.043 2.05844 -5.30676 0
M  V30 1336 N 130.245 3.74423 -4.43608 0
M  V30 1337 H 133.01 -0.0628615 -2.99634 0
M  V30 1338 H 130.571 -0.179302 -1.60904 0
M  V30 1339 H 132.563 2.45892 -3.21433 0
M  V30 1340 H 131.133 2.24686 -2.17336 0
M  V30 1341 H 130.353 0.471998 -3.91364 0
M  V30 1342 H 131.641 1.07071 -4.97406 0
M  V30 1343 H 131.039 4.07391 -3.92491 0
M  V30 1344 H 129.596 4.41913 -4.7912 0
M  V30 1345 N 133.029 1.57378 -0.0835403 0
M  V30 1346 C 134.275 1.95025 0.577664 0
M  V30 1347 C 134.63 0.964049 1.66505 0
M  V30 1348 O 133.923 -0.0118235 1.91596 0
M  V30 1349 C 134.117 3.37063 1.1884 0
M  V30 1350 C 133.946 4.49409 0.16171 0
M  V30 1351 C 132.716 5.04642 -0.257756 0
M  V30 1352 C 134.914 5.10722 -0.605634 0
M  V30 1353 N 132.896 6.00537 -1.27393 0
M  V30 1354 C 134.267 6.02225 -1.47395 0
M  V30 1355 C 136.322 4.93501 -0.660418 0
M  V30 1356 C 135.025 6.78355 -2.39221 0
M  V30 1357 C 137.051 5.70283 -1.56623 0
M  V30 1358 C 136.413 6.61444 -2.4222 0
M  V30 1359 H 132.512 0.760512 0.182058 0
M  V30 1360 H 135.096 1.94013 -0.163419 0
M  V30 1361 H 133.267 3.3879 1.89936 0
M  V30 1362 H 134.999 3.61917 1.81103 0
M  V30 1363 H 131.754 4.73428 0.127702 0
M  V30 1364 H 132.178 6.53184 -1.77987 0
M  V30 1365 H 136.82 4.22798 -0.0128221 0
M  V30 1366 H 134.538 7.48327 -3.05011 0
M  V30 1367 H 138.124 5.58976 -1.61361 0
M  V30 1368 H 137.004 7.1982 -3.11174 0
M  V30 1369 N 134.507 -0.190092 1.56449 0
M  V30 1370 C 135.455 -1.25501 1.95837 0
M  V30 1371 C 136.449 -1.4685 0.844485 0
M  V30 1372 O 137.655 -1.47651 1.02952 0
M  V30 1373 H 134.03 -0.421447 0.622805 0
M  V30 1374 H 136.001 -0.895821 2.84636 0
M  V30 1375 C 134.75 -2.59124 2.31841 0
M  V30 1376 H 134.073 -2.43514 3.17082 0
M  V30 1377 H 135.513 -3.32371 2.6326 0
M  V30 1378 C 133.972 -3.16488 1.15486 0
M  V30 1379 O 134.502 -3.99365 0.432535 0
M  V30 1380 N 132.708 -2.75305 0.930349 0
M  V30 1381 H 132.255 -2.08013 1.51948 0
M  V30 1382 H 132.213 -3.14024 0.153634 0
M  V30 1383 N 135.985 -1.50799 -0.457987 0
M  V30 1384 C 137.231 -1.63648 -1.20792 0
M  V30 1385 C 137.586 -0.338662 -1.89396 0
M  V30 1386 O 136.879 0.664291 -1.79716 0
M  V30 1387 C 137.073 -2.76358 -2.2663 0
M  V30 1388 C 136.902 -4.16974 -1.68411 0
M  V30 1389 C 135.672 -4.83199 -1.47807 0
M  V30 1390 C 137.87 -5.00774 -1.17176 0
M  V30 1391 N 135.852 -6.07991 -0.849692 0
M  V30 1392 C 137.223 -6.16397 -0.667403 0
M  V30 1393 C 139.278 -4.86452 -1.06155 0
M  V30 1394 C 137.981 -7.19272 -0.0636908 0
M  V30 1395 C 140.007 -5.89515 -0.471759 0
M  V30 1396 C 139.369 -7.04397 0.0221557 0
M  V30 1397 H 135.468 -0.652888 -0.43042 0
M  V30 1398 H 138.052 -1.87962 -0.507785 0
M  V30 1399 H 136.223 -2.53744 -2.94056 0
M  V30 1400 H 137.955 -2.78496 -2.93636 0
M  V30 1401 H 134.71 -4.40714 -1.73403 0
M  V30 1402 H 135.134 -6.74733 -0.553537 0
M  V30 1403 H 139.776 -3.97907 -1.42932 0
M  V30 1404 H 137.494 -8.07481 0.316253 0
M  V30 1405 H 141.08 -5.805 -0.388671 0
M  V30 1406 H 139.96 -7.82782 0.471375 0
M  V30 1407 N 137.463 0.71206 -1.40597 0
M  V30 1408 C 138.41 1.82613 -1.41142 0
M  V30 1409 C 139.38 1.63925 -0.267903 0
M  V30 1410 O 140.565 1.85009 -0.466495 0
M  V30 1411 C 137.705 3.20354 -1.28324 0
M  V30 1412 C 136.818 3.50589 -2.52411 0
M  V30 1413 C 135.953 4.77855 -2.32009 0
M  V30 1414 C 134.992 5.01005 -3.51654 0
M  V30 1415 N 134.129 6.19487 -3.30425 0
M  V30 1416 H 138.969 1.81482 -2.36365 0
M  V30 1417 H 136.506 0.886475 -1.17388 0
M  V30 1418 H 138.464 3.99899 -1.18899 0
M  V30 1419 H 137.094 3.20705 -0.367189 0
M  V30 1420 H 136.146 2.65573 -2.72351 0
M  V30 1421 H 137.458 3.63604 -3.41458 0
M  V30 1422 H 136.612 5.65424 -2.19956 0
M  V30 1423 H 135.351 4.67056 -1.40392 0
M  V30 1424 H 134.356 4.1189 -3.64179 0
M  V30 1425 H 135.581 5.13674 -4.44202 0
M  V30 1426 H 133.527 6.09932 -2.41494 0
M  V30 1427 H 133.444 6.33194 -4.13039 0
M  V30 1428 H 134.712 7.09834 -3.22113 0
M  V30 1429 N 138.941 1.26152 0.944643 0
M  V30 1430 C 140.218 1.02247 1.66748 0
M  V30 1431 C 140.598 -0.448202 2.06287 0
M  V30 1432 O 139.946 -1.42779 1.78399 0
M  V30 1433 C 140.156 1.96788 2.88228 0
M  V30 1434 C 141.504 2.25201 3.59958 0
M  V30 1435 O 142.528 1.94626 2.98327 0
M  V30 1436 O 141.387 2.77242 4.70956 0
M  V30 1437 H 138.481 0.388517 0.730057 0
M  V30 1438 H 141.027 1.37348 0.99668 0
M  V30 1439 H 139.799 2.96047 2.55875 0
M  V30 1440 H 139.422 1.62145 3.63035 0
M  V30 1441 N 140.419 -1.14872 1.07899 0
M  V30 1442 C 141.382 -2.17986 0.708161 0
M  V30 1443 C 142.382 -1.58775 -0.25442 0
M  V30 1444 O 143.572 -1.74166 -0.034645 0
M  V30 1445 C 140.704 -3.40871 0.0446929 0
M  V30 1446 H 141.897 -2.52306 1.62116 0
M  V30 1447 H 139.45 -1.2943 0.876218 0
M  V30 1448 H 140.185 -3.12124 -0.880281 0
M  V30 1449 H 139.97 -3.8511 0.737091 0
M  V30 1450 H 141.46 -4.17121 -0.19991 0
M  V30 1451 N 141.898 -0.863906 -1.31812 0
M  V30 1452 C 143.175 -0.39275 -1.91616 0
M  V30 1453 C 143.555 1.12461 -1.7865 0
M  V30 1454 O 142.903 1.95045 -1.19037 0
M  V30 1455 C 143.113 -0.867385 -3.38049 0
M  V30 1456 C 144.461 -0.889966 -4.15168 0
M  V30 1457 O 145.485 -0.812635 -3.46806 0
M  V30 1458 O 144.344 -1.00079 -5.37258 0
M  V30 1459 H 141.438 -0.116358 -0.818773 0
M  V30 1460 H 143.984 -0.951418 -1.40521 0
M  V30 1461 H 142.756 -1.91081 -3.41473 0
M  V30 1462 H 142.379 -0.286687 -3.96565 0
M  V30 1463 N 143.376 1.44774 -0.622745 0
M  V30 1464 C 144.339 2.29069 0.0774015 0
M  V30 1465 C 145.339 1.4059 0.780461 0
M  V30 1466 O 146.529 1.62551 0.626322 0
M  V30 1467 C 143.661 3.21974 1.12006 0
M  V30 1468 H 144.854 2.92459 -0.663901 0
M  V30 1469 H 142.407 1.51548 -0.382486 0
M  V30 1470 H 143.142 2.63417 1.89162 0
M  V30 1471 H 142.927 3.87168 0.619951 0
M  V30 1472 H 144.417 3.85318 1.60995 0
M  V30 1473 N 144.854 0.36279 1.53368 0
M  V30 1474 C 146.101 -0.227776 2.01215 0
M  V30 1475 C 146.429 -1.49003 1.25014 0
M  V30 1476 O 145.684 -1.92876 0.331236 0
M  V30 1477 C 145.983 -0.568417 3.52851 0
M  V30 1478 C 145.649 0.59918 4.46901 0
M  V30 1479 C 144.311 0.919559 4.72332 0
M  V30 1480 C 146.663 1.38156 5.02556 0
M  V30 1481 C 143.991 2.02434 5.5067 0
M  V30 1482 C 146.343 2.47674 5.821 0
M  V30 1483 C 145.007 2.8025 6.05819 0
M  V30 1484 H 144.277 -0.083349 0.736297 0
M  V30 1485 H 146.924 0.494677 1.85001 0
M  V30 1486 H 145.229 -1.37185 3.66998 0
M  V30 1487 H 146.926 -1.03756 3.87344 0
M  V30 1488 H 143.516 0.339437 4.27254 0
M  V30 1489 H 147.7 1.14729 4.82857 0
M  V30 1490 H 142.956 2.28075 5.67267 0
M  V30 1491 H 147.13 3.08716 6.24234 0
M  V30 1492 H 144.757 3.65979 6.66306 0
M  V30 1493 N 146.332 -1.57332 0.0918853 0
M  V30 1494 C 147.578 -1.94524 -0.573425 0
M  V30 1495 C 147.911 -0.973578 -1.68033 0
M  V30 1496 O 147.186 -0.00609226 -1.94499 0
M  V30 1497 C 147.469 -3.41858 -1.13161 0
M  V30 1498 C 147.322 -4.4979 -0.0299747 0
M  V30 1499 C 148.641 -3.90435 -2.03098 0
M  V30 1500 H 145.76 -0.70734 -0.206975 0
M  V30 1501 H 148.402 -1.89309 0.161942 0
M  V30 1502 H 146.552 -3.46433 -1.7583 0
M  V30 1503 H 148.224 -4.57327 0.604112 0
M  V30 1504 H 146.467 -4.291 0.636833 0
M  V30 1505 H 147.138 -5.50069 -0.461287 0
M  V30 1506 H 149.614 -3.87992 -1.50338 0
M  V30 1507 H 148.49 -4.94097 -2.39081 0
M  V30 1508 H 148.751 -3.29541 -2.94712 0
M  V30 1509 N 147.81 0.181792 -1.56548 0
M  V30 1510 C 148.773 1.20894 -1.94724 0
M  V30 1511 C 149.773 1.37738 -0.829747 0
M  V30 1512 O 150.963 1.35323 -1.09697 0
M  V30 1513 C 148.095 2.57593 -2.23291 0
M  V30 1514 H 149.288 0.882275 -2.86629 0
M  V30 1515 H 146.841 0.423838 -1.50444 0
M  V30 1516 H 147.576 2.95291 -1.34067 0
M  V30 1517 H 147.361 2.46735 -3.04736 0
M  V30 1518 H 148.851 3.31637 -2.53785 0
M  V30 1519 N 149.288 1.51039 0.449983 0
M  V30 1520 C 150.535 1.63081 1.20045 0
M  V30 1521 C 150.863 0.341024 1.91487 0
M  V30 1522 O 150.118 -0.674276 1.83717 0
M  V30 1523 C 150.417 2.77556 2.25161 0
M  V30 1524 C 150.083 4.17289 1.70823 0
M  V30 1525 C 148.745 4.55305 1.55725 0
M  V30 1526 C 151.097 5.04536 1.3074 0
M  V30 1527 C 148.425 5.78287 0.989999 0
M  V30 1528 C 150.777 6.28085 0.754482 0
M  V30 1529 C 149.441 6.64885 0.590308 0
M  V30 1530 H 148.711 0.596755 0.439277 0
M  V30 1531 H 151.358 1.85037 0.49333 0
M  V30 1532 H 149.663 2.49771 3.01863 0
M  V30 1533 H 151.36 2.84073 2.83026 0
M  V30 1534 H 147.95 3.8731 1.83546 0
M  V30 1535 H 152.134 4.75782 1.41229 0
M  V30 1536 H 147.39 6.05456 0.850451 0
M  V30 1537 H 151.564 6.95038 0.435324 0
M  V30 1538 H 149.191 7.60055 0.14862 0
M  V30 1539 N 150.766 -0.704594 1.40972 0
M  V30 1540 C 152.014 -1.46169 1.39568 0
M  V30 1541 C 152.335 -1.95 0.00253745 0
M  V30 1542 O 151.605 -1.71095 -0.954114 0
M  V30 1543 H 150.185 -0.542326 0.513704 0
M  V30 1544 H 152.847 -0.834553 1.76128 0
M  V30 1545 H 151.943 -2.32922 2.07735 0
M  V30 1546 N 152.244 -1.26651 -0.937939 0
M  V30 1547 C 153.472 -1.15173 -1.7188 0
M  V30 1548 C 153.887 0.292668 -1.86518 0
M  V30 1549 O 153.244 1.20014 -1.37488 0
M  V30 1550 C 153.295 -1.81925 -3.12387 0
M  V30 1551 O 153.016 -3.2072 -2.98446 0
M  V30 1552 C 154.517 -1.76442 -4.06673 0
M  V30 1553 H 151.737 -0.400911 -0.538063 0
M  V30 1554 H 154.281 -1.67332 -1.1756 0
M  V30 1555 H 152.436 -1.33696 -3.63599 0
M  V30 1556 H 152.85 -3.53802 -3.872 0
M  V30 1557 H 154.324 -2.27781 -5.02812 0
M  V30 1558 H 154.801 -0.731608 -4.33064 0
M  V30 1559 H 155.407 -2.24238 -3.61382 0
M  V30 1560 N 153.722 1.14298 -1.08507 0
M  V30 1561 C 154.669 2.19414 -0.715965 0
M  V30 1562 C 155.639 1.63399 0.298326 0
M  V30 1563 O 156.824 1.89929 0.182101 0
M  V30 1564 C 153.964 3.44845 -0.132534 0
M  V30 1565 C 153.077 4.15007 -1.19973 0
M  V30 1566 C 152.212 5.28024 -0.580048 0
M  V30 1567 C 151.251 5.9002 -1.62921 0
M  V30 1568 N 150.388 6.94485 -1.03125 0
M  V30 1569 H 155.228 2.50336 -1.61666 0
M  V30 1570 H 152.765 1.2293 -0.807882 0
M  V30 1571 H 154.723 4.16601 0.223454 0
M  V30 1572 H 153.353 3.14403 0.731467 0
M  V30 1573 H 152.405 3.41629 -1.67313 0
M  V30 1574 H 153.717 4.57178 -1.99473 0
M  V30 1575 H 152.871 6.06455 -0.172364 0
M  V30 1576 H 151.61 4.87076 0.246603 0
M  V30 1577 H 150.615 5.10291 -2.04654 0
M  V30 1578 H 151.84 6.33042 -2.45835 0
M  V30 1579 H 149.786 6.55612 -0.225711 0
M  V30 1580 H 149.703 7.35148 -1.76334 0
M  V30 1581 H 150.971 7.7679 -0.649458 0
M  V30 1582 N 155.201 0.870884 1.31352 0
M  V30 1583 C 156.151 0.298889 2.26032 0
M  V30 1584 C 157.135 -0.564595 1.50669 0
M  V30 1585 O 158.327 -0.411323 1.72154 0
M  V30 1586 C 155.456 -0.497842 3.39671 0
M  V30 1587 C 154.542 0.378937 4.22404 0
M  V30 1588 N 154.933 1.47284 4.83881 0
M  V30 1589 C 153.231 0.171535 4.4567 0
M  V30 1590 C 153.932 2.01359 5.45738 0
M  V30 1591 N 152.908 1.31047 5.27568 0
M  V30 1592 H 156.71 1.13494 2.71102 0
M  V30 1593 H 154.224 0.718745 1.45629 0
M  V30 1594 H 156.221 -0.924155 4.06528 0
M  V30 1595 H 154.881 -1.33149 2.96144 0
M  V30 1596 H 155.892 1.85575 4.8351 0
M  V30 1597 H 152.569 -0.626091 4.12779 0
M  V30 1598 H 153.959 2.93143 6.0458 0
M  V30 1599 N 156.679 -1.44442 0.630414 0
M  V30 1600 C 157.627 -2.32437 -0.0871428 0
M  V30 1601 C 158.621 -1.47304 -0.836525 0
M  V30 1602 O 159.827 -1.63653 -0.749506 0
M  V30 1603 H 156.202 -0.750533 -0.0469495 0
M  V30 1604 H 158.173 -2.90709 0.673096 0
M  V30 1605 C 156.922 -3.31288 -1.05563 0
M  V30 1606 H 156.245 -3.96805 -0.488426 0
M  V30 1607 H 157.685 -3.9554 -1.52721 0
M  V30 1608 C 156.144 -2.6016 -2.14052 0
M  V30 1609 O 156.674 -2.39997 -3.22124 0
M  V30 1610 N 154.88 -2.19911 -1.89967 0
M  V30 1611 H 154.427 -2.36509 -1.02085 0
M  V30 1612 H 154.385 -1.72646 -2.62756 0
M  V30 1613 N 158.157 -0.370918 -1.53173 0
M  V30 1614 C 159.087 0.464847 -2.28826 0
M  V30 1615 C 160.068 1.07936 -1.31468 0
M  V30 1616 O 161.253 1.0956 -1.60344 0
M  V30 1617 C 158.383 1.60196 -3.08147 0
M  V30 1618 C 157.337 1.11443 -4.13237 0
M  V30 1619 C 156.663 2.3422 -4.80672 0
M  V30 1620 C 157.963 0.195384 -5.21934 0
M  V30 1621 H 159.657 -0.166329 -2.98938 0
M  V30 1622 H 157.203 -0.0814359 -1.4377 0
M  V30 1623 H 159.156 2.19332 -3.59822 0
M  V30 1624 H 157.88 2.26045 -2.35735 0
M  V30 1625 H 156.539 0.545727 -3.62515 0
M  V30 1626 H 156.187 2.98537 -4.04827 0
M  V30 1627 H 155.887 2.02269 -5.51689 0
M  V30 1628 H 157.411 2.94032 -5.35143 0
M  V30 1629 H 158.825 0.694375 -5.69079 0
M  V30 1630 H 157.222 -0.0335027 -6.00091 0
M  V30 1631 H 158.292 -0.760961 -4.78892 0
M  V30 1632 N 159.635 1.57281 -0.100228 0
M  V30 1633 C 160.585 2.10848 0.86759 0
M  V30 1634 C 161.569 1.02473 1.24049 0
M  V30 1635 O 162.761 1.28739 1.21471 0
M  V30 1636 C 159.89 2.69648 2.12474 0
M  V30 1637 C 158.976 3.85074 1.77704 0
M  V30 1638 N 159.367 4.92897 1.13518 0
M  V30 1639 C 157.665 3.94905 2.07282 0
M  V30 1640 C 158.366 5.73475 0.974735 0
M  V30 1641 N 157.342 5.22675 1.4937 0
M  V30 1642 H 161.144 2.91594 0.367471 0
M  V30 1643 H 158.658 1.62074 0.102829 0
M  V30 1644 H 160.655 3.06356 2.82757 0
M  V30 1645 H 159.315 1.90359 2.63047 0
M  V30 1646 H 160.326 5.11662 0.801381 0
M  V30 1647 H 157.003 3.26633 2.60033 0
M  V30 1648 H 158.393 6.70238 0.472364 0
M  V30 1649 N 161.113 -0.173488 1.56642 0
M  V30 1650 C 162.046 -1.24353 1.91342 0
M  V30 1651 C 163.024 -1.4289 0.775965 0
M  V30 1652 O 164.208 -1.57932 1.02907 0
M  V30 1653 C 161.335 -2.60683 2.16245 0
M  V30 1654 C 160.381 -2.58894 3.38934 0
M  V30 1655 S 161.214 -2.0819 4.93373 0
M  V30 1656 C 162.37 -3.46302 5.21369 0
M  V30 1657 H 162.603 -0.947345 2.81803 0
M  V30 1658 H 160.136 -0.377958 1.49703 0
M  V30 1659 H 162.094 -3.39149 2.31275 0
M  V30 1660 H 160.755 -2.87502 1.26496 0
M  V30 1661 H 159.948 -3.59188 3.53553 0
M  V30 1662 H 159.55 -1.88522 3.2301 0
M  V30 1663 H 161.842 -4.42287 5.13214 0
M  V30 1664 H 162.785 -3.3656 6.23003 0
M  V30 1665 H 163.193 -3.42214 4.48943 0
M  V30 1666 N 162.591 -1.51276 -0.441967 0
M  V30 1667 C 163.837 -1.63958 -1.19355 0
M  V30 1668 C 164.17 -0.352543 -1.90973 0
M  V30 1669 O 163.445 0.647627 -1.83401 0
M  V30 1670 C 163.728 -2.83979 -2.21422 0
M  V30 1671 C 163.581 -4.22646 -1.53918 0
M  V30 1672 C 164.9 -2.99521 -3.22451 0
M  V30 1673 H 162.019 -0.596709 -0.432559 0
M  V30 1674 H 164.661 -1.83748 -0.483398 0
M  V30 1675 H 162.811 -2.67237 -2.81987 0
M  V30 1676 H 164.483 -4.51045 -0.967256 0
M  V30 1677 H 162.726 -4.25558 -0.841615 0
M  V30 1678 H 163.397 -5.02609 -2.28229 0
M  V30 1679 H 165.873 -3.14944 -2.71937 0
M  V30 1680 H 164.749 -3.85072 -3.91166 0
M  V30 1681 H 165.01 -2.11391 -3.88287 0
M  V30 1682 N 164.069 0.697108 -1.41344 0
M  V30 1683 C 165.317 1.45426 -1.40341 0
M  V30 1684 C 165.638 1.94996 -0.0128787 0
M  V30 1685 O 164.908 1.71599 0.945027 0
M  V30 1686 H 163.488 0.539594 -0.516573 0
M  V30 1687 H 166.15 0.825201 -1.76569 0
M  V30 1688 H 165.246 2.31817 -2.08967 0
M  V30 1689 N 165.547 1.27147 0.931209 0
M  V30 1690 C 166.497 1.06227 2.01742 0
M  V30 1691 C 167.481 -0.00859065 1.60898 0
M  V30 1692 O 168.673 0.209537 1.75755 0
M  V30 1693 C 165.802 0.707787 3.35924 0
M  V30 1694 C 164.888 1.81661 3.83223 0
M  V30 1695 N 165.279 3.05564 4.03069 0
M  V30 1696 C 163.577 1.70249 4.12227 0
M  V30 1697 C 164.278 3.77697 4.42403 0
M  V30 1698 N 163.254 3.0544 4.49675 0
M  V30 1699 H 167.056 2.00261 2.15111 0
M  V30 1700 H 164.57 1.1781 1.11779 0
M  V30 1701 H 166.567 0.539043 4.134 0
M  V30 1702 H 165.227 -0.224964 3.2392 0
M  V30 1703 H 166.238 3.41363 3.89476 0
M  V30 1704 H 162.915 0.840329 4.08956 0
M  V30 1705 H 164.305 4.84168 4.65866 0
M  V30 1706 N 167.025 -1.13721 1.09112 0
M  V30 1707 C 168.253 -1.88773 0.846899 0
M  V30 1708 C 168.668 -1.7896 -0.601572 0
M  V30 1709 O 168.025 -1.15394 -1.41388 0
M  V30 1710 C 168.076 -3.3849 1.26913 0
M  V30 1711 O 167.797 -3.48043 2.66079 0
M  V30 1712 C 169.298 -4.30518 1.05682 0
M  V30 1713 H 166.518 -0.59772 0.304914 0
M  V30 1714 H 169.062 -1.43977 1.45227 0
M  V30 1715 H 167.217 -3.80881 0.707723 0
M  V30 1716 H 167.631 -4.4109 2.83795 0
M  V30 1717 H 169.105 -5.3391 1.40156 0
M  V30 1718 H 169.582 -4.392 -0.00563416 0
M  V30 1719 H 170.188 -3.93893 1.60402 0
M  V30 1720 N 168.503 -0.877838 -1.30888 0
M  V30 1721 C 169.433 -0.35534 -2.3078 0
M  V30 1722 C 170.414 0.557994 -1.60687 0
M  V30 1723 O 171.599 0.473355 -1.88343 0
M  V30 1724 C 168.729 0.437221 -3.44537 0
M  V30 1725 C 167.683 -0.383715 -4.26276 0
M  V30 1726 C 167.009 0.535014 -5.32017 0
M  V30 1727 C 168.309 -1.62201 -4.96476 0
M  V30 1728 H 170.003 -1.19007 -2.74732 0
M  V30 1729 H 167.549 -0.573698 -1.32078 0
M  V30 1730 H 169.502 0.813334 -4.13477 0
M  V30 1731 H 168.226 1.30553 -2.99372 0
M  V30 1732 H 166.885 -0.741874 -3.59015 0
M  V30 1733 H 166.533 1.40083 -4.831 0
M  V30 1734 H 166.233 -0.0104211 -5.87599 0
M  V30 1735 H 167.757 0.907799 -6.03814 0
M  V30 1736 H 169.171 -1.31689 -5.5797 0
M  V30 1737 H 167.568 -2.10711 -5.61891 0
M  V30 1738 H 168.638 -2.37044 -4.23011 0
M  V30 1739 N 169.982 1.44106 -0.638065 0
M  V30 1740 C 171.228 2.02277 -0.145546 0
M  V30 1741 C 171.561 1.50125 1.23191 0
M  V30 1742 O 170.836 0.688133 1.8192 0
M  V30 1743 C 171.119 3.59829 -0.139791 0
M  V30 1744 C 170.972 4.22247 -1.55008 0
M  V30 1745 C 172.291 4.36873 0.531966 0
M  V30 1746 H 169.41 0.734992 -0.0543632 0
M  V30 1747 H 172.052 1.71592 -0.815863 0
M  V30 1748 H 170.202 3.86102 0.431007 0
M  V30 1749 H 171.874 4.07057 -2.1703 0
M  V30 1750 H 170.117 3.79476 -2.10191 0
M  V30 1751 H 170.788 5.31284 -1.49804 0
M  V30 1752 H 173.264 4.16074 0.0464781 0
M  V30 1753 H 172.14 5.4657 0.505206 0
M  V30 1754 H 172.401 4.11995 1.60352 0
M  V30 1755 N 171.46 0.379036 1.52974 0
M  V30 1756 C 172.706 -0.199244 2.02422 0
M  V30 1757 C 173.061 -1.4532 1.26095 0
M  V30 1758 O 172.354 -1.88377 0.34996 0
M  V30 1759 C 172.548 -0.53096 3.53434 0
M  V30 1760 C 172.377 0.689298 4.44386 0
M  V30 1761 C 171.147 1.20546 4.9071 0
M  V30 1762 C 173.345 1.55856 4.90116 0
M  V30 1763 N 171.327 2.38434 5.65705 0
M  V30 1764 C 172.698 2.58396 5.63588 0
M  V30 1765 C 174.753 1.57986 4.7217 0
M  V30 1766 C 173.456 3.62939 6.21022 0
M  V30 1767 C 175.482 2.6143 5.30479 0
M  V30 1768 C 174.844 3.62693 6.03849 0
M  V30 1769 H 170.943 -0.0352671 0.781204 0
M  V30 1770 H 173.527 0.526614 1.87443 0
M  V30 1771 H 171.698 -1.22588 3.68547 0
M  V30 1772 H 173.43 -1.0955 3.89591 0
M  V30 1773 H 170.185 0.768022 4.67331 0
M  V30 1774 H 170.609 2.98055 6.07859 0
M  V30 1775 H 175.251 0.810475 4.14959 0
M  V30 1776 H 172.969 4.40751 6.77321 0
M  V30 1777 H 176.555 2.63949 5.18481 0
M  V30 1778 H 175.435 4.41424 6.48163 0
M  V30 1779 N 172.938 -1.57226 0.108567 0
M  V30 1780 C 173.888 -2.11305 -0.856396 0
M  V30 1781 C 174.872 -1.03129 -1.23504 0
M  V30 1782 O 176.064 -1.29381 -1.20787 0
M  V30 1783 C 173.193 -2.70771 -2.11041 0
M  V30 1784 C 172.279 -3.86011 -1.7566 0
M  V30 1785 N 172.67 -4.93492 -1.10902 0
M  V30 1786 C 170.968 -3.95999 -2.05185 0
M  V30 1787 C 171.669 -5.73984 -0.944308 0
M  V30 1788 N 170.645 -5.2346 -1.46596 0
M  V30 1789 H 174.447 -2.91784 -0.352002 0
M  V30 1790 H 171.961 -1.62126 -0.0942324 0
M  V30 1791 H 173.958 -3.07851 -2.81128 0
M  V30 1792 H 172.618 -1.91751 -2.62034 0
M  V30 1793 H 173.629 -5.1208 -0.774235 0
M  V30 1794 H 170.306 -3.28007 -2.58298 0
M  V30 1795 H 171.696 -6.70479 -0.436813 0
M  V30 1796 N 174.416 0.165178 -1.56732 0
M  V30 1797 C 175.641 0.900253 -1.86843 0
M  V30 1798 C 176.066 1.74766 -0.695596 0
M  V30 1799 O 175.424 1.77786 0.35522 0
M  V30 1800 C 175.472 1.74777 -3.15413 0
M  V30 1801 O 174.576 2.85007 -2.98068 0
M  V30 1802 H 173.917 0.251832 -0.614391 0
M  V30 1803 H 176.447 0.161468 -2.03962 0
M  V30 1804 H 176.457 2.14646 -3.46974 0
M  V30 1805 H 175.132 1.12537 -4.00385 0
M  V30 1806 H 173.709 2.48676 -2.77875 0
M  V30 1807 N 175.894 1.51508 0.433938 0
M  V30 1808 C 176.826 1.69266 1.54537 0
M  V30 1809 C 177.839 0.573276 1.52373 0
M  V30 1810 O 179.028 0.847698 1.57087 0
M  V30 1811 C 176.128 1.69524 2.93453 0
M  V30 1812 C 175.301 2.98101 3.20085 0
M  V30 1813 C 174.36 2.90502 4.38742 0
M  V30 1814 O 173.386 3.64442 4.3723 0
M  V30 1815 N 174.588 2.06586 5.42496 0
M  V30 1816 H 177.353 2.65145 1.39708 0
M  V30 1817 H 174.914 1.49437 0.622922 0
M  V30 1818 H 176.906 1.62004 3.70859 0
M  V30 1819 H 175.476 0.812245 3.01863 0
M  V30 1820 H 174.696 3.19464 2.30947 0
M  V30 1821 H 175.984 3.83207 3.34708 0
M  V30 1822 H 175.382 1.45896 5.46563 0
M  V30 1823 H 173.939 2.04943 6.18742 0
M  V30 1824 N 177.372 -0.689602 1.41712 0
M  V30 1825 C 178.621 -1.44534 1.40686 0
M  V30 1826 C 178.934 -1.95588 0.0213352 0
M  V30 1827 O 180.14 -2.71271 -0.111534 0
M  V30 1828 C 178.596 -2.61387 2.47396 0
M  V30 1829 C 178.204 -2.17094 3.91885 0
M  V30 1830 C 179.948 -3.38986 2.55517 0
M  V30 1831 C 177.855 -3.3094 4.90135 0
M  V30 1832 H 176.785 -0.542925 0.52321 0
M  V30 1833 H 179.436 -0.748054 1.6756 0
M  V30 1834 H 177.818 -3.33412 2.13664 0
M  V30 1835 H 178.992 -1.52318 4.34897 0
M  V30 1836 H 177.307 -1.52473 3.8748 0
M  V30 1837 H 179.904 -4.23747 3.26102 0
M  V30 1838 H 180.247 -3.84578 1.59391 0
M  V30 1839 H 180.78 -2.74021 2.8837 0
M  V30 1840 H 177.519 -2.90355 5.87685 0
M  V30 1841 H 177.039 -3.94546 4.51767 0
M  V30 1842 H 178.718 -3.9663 5.11169 0
M  V30 1843 N 178.85 -1.27639 -0.924453 0
M  V30 1844 C 179.8 -1.07295 -2.01176 0
M  V30 1845 C 180.784 5.77352e-05 -1.609 0
M  V30 1846 O 181.976 -0.218855 -1.75642 0
M  V30 1847 C 179.105 -0.725592 -3.35544 0
M  V30 1848 C 178.191 -1.83691 -3.82254 0
M  V30 1849 N 178.582 -3.07697 -4.01443 0
M  V30 1850 C 176.88 -1.72433 -4.11319 0
M  V30 1851 C 177.581 -3.80037 -4.40394 0
M  V30 1852 N 176.557 -3.0782 -4.48049 0
M  V30 1853 H 180.359 -2.01399 -2.14046 0
M  V30 1854 H 177.873 -1.18401 -1.11153 0
M  V30 1855 H 179.87 -0.560959 -4.13109 0
M  V30 1856 H 178.53 0.207782 -3.24034 0
M  V30 1857 H 179.541 -3.43424 -3.8766 0
M  V30 1858 H 176.218 -0.862005 -4.08504 0
M  V30 1859 H 177.608 -4.86632 -4.63291 0
M  V30 1860 N 180.328 1.1314 -1.09713 0
M  V30 1861 C 181.605 1.80762 -0.747302 0
M  V30 1862 C 181.985 1.96663 0.767265 0
M  V30 1863 O 181.333 1.53706 1.69076 0
M  V30 1864 C 181.543 3.15606 -1.48975 0
M  V30 1865 C 182.891 3.90914 -1.65746 0
M  V30 1866 O 183.915 3.25239 -1.45251 0
M  V30 1867 O 182.774 5.08718 -1.9967 0
M  V30 1868 H 179.868 0.782103 -0.268782 0
M  V30 1869 H 182.414 1.20041 -1.19951 0
M  V30 1870 H 181.186 2.99278 -2.52088 0
M  V30 1871 H 180.809 3.84029 -1.02991 0
M  V30 1872 N 181.806 0.884767 1.30421 0
M  V30 1873 C 182.716 0.355398 2.31892 0
M  V30 1874 C 183.732 -0.542261 1.65335 0
M  V30 1875 O 184.908 -0.435432 1.96637 0
M  V30 1876 C 181.973 -0.421661 3.44126 0
M  V30 1877 C 181.034 0.505727 4.26311 0
M  V30 1878 C 180.267 -0.234343 5.33185 0
M  V30 1879 O 180.49 -1.46045 5.51386 0
M  V30 1880 O 179.424 0.415443 6.00465 0
M  V30 1881 H 183.25 1.19685 2.79122 0
M  V30 1882 H 180.835 0.648596 1.34587 0
M  V30 1883 H 182.717 -0.861641 4.12497 0
M  V30 1884 H 181.392 -1.23942 2.99032 0
M  V30 1885 H 180.299 0.994513 3.60639 0
M  V30 1886 H 181.632 1.28948 4.75009 0
M  V30 1887 N 183.284 -1.43765 0.645699 0
M  V30 1888 C 184.53 -2.02197 0.156271 0
M  V30 1889 C 184.863 -1.50776 -1.22393 0
M  V30 1890 O 184.138 -0.697771 -1.81553 0
M  V30 1891 C 184.421 -3.59749 0.158872 0
M  V30 1892 C 184.274 -4.21419 1.57245 0
M  V30 1893 C 185.593 -4.37149 -0.50879 0
M  V30 1894 H 182.712 -0.734694 0.0582602 0
M  V30 1895 H 185.354 -1.71157 0.824951 0
M  V30 1896 H 183.504 -3.86325 -0.410525 0
M  V30 1897 H 185.176 -4.059 2.19186 0
M  V30 1898 H 183.419 -3.78356 2.122 0
M  V30 1899 H 184.09 -5.30482 1.52619 0
M  V30 1900 H 186.566 -4.16093 -0.024412 0
M  V30 1901 H 185.442 -5.4683 -0.476213 0
M  V30 1902 H 185.703 -4.12839 -1.58165 0
M  V30 1903 N 184.763 -0.387143 -1.52771 0
M  V30 1904 C 186.01 0.195735 -2.01552 0
M  V30 1905 C 186.338 1.46995 -1.27369 0
M  V30 1906 O 185.593 1.92325 -0.361879 0
M  V30 1907 C 185.892 0.512209 -3.53711 0
M  V30 1908 C 185.558 -0.670202 -4.45891 0
M  V30 1909 C 184.22 -0.994586 -4.70809 0
M  V30 1910 C 186.572 -1.46134 -5.00294 0
M  V30 1911 C 183.9 -2.11169 -5.4738 0
M  V30 1912 C 186.252 -2.56903 -5.78086 0
M  V30 1913 C 184.916 -2.89852 -6.01284 0
M  V30 1914 H 184.186 0.0716246 -0.73753 0
M  V30 1915 H 186.833 -0.524046 -1.8419 0
M  V30 1916 H 185.138 1.31329 -3.69134 0
M  V30 1917 H 186.835 0.975804 -3.88946 0
M  V30 1918 H 183.425 -0.407366 -4.2666 0
M  V30 1919 H 187.609 -1.22397 -4.80971 0
M  V30 1920 H 182.865 -2.3707 -5.63567 0
M  V30 1921 H 187.039 -3.18608 -6.19243 0
M  V30 1922 H 184.666 -3.76533 -6.60399 0
M  V30 1923 N 186.241 1.57166 -0.116904 0
M  V30 1924 C 187.188 2.15202 0.83408 0
M  V30 1925 C 188.158 1.07644 1.26499 0
M  V30 1926 O 189.343 1.35541 1.34288 0
M  V30 1927 C 186.483 2.75405 2.07957 0
M  V30 1928 C 185.596 3.97264 1.69721 0
M  V30 1929 C 184.731 4.45561 2.89221 0
M  V30 1930 C 183.77 5.59956 2.47215 0
M  V30 1931 N 182.907 6.03006 3.59622 0
M  V30 1932 H 187.747 2.96141 0.332335 0
M  V30 1933 H 185.284 1.46309 0.152349 0
M  V30 1934 H 187.242 3.08439 2.80929 0
M  V30 1935 H 185.872 1.97159 2.55594 0
M  V30 1936 H 184.924 3.70404 0.866316 0
M  V30 1937 H 186.236 4.80226 1.34849 0
M  V30 1938 H 185.39 4.80493 3.7042 0
M  V30 1939 H 184.129 3.61544 3.27318 0
M  V30 1940 H 183.134 5.2463 1.64448 0
M  V30 1941 H 184.359 6.45738 2.10238 0
M  V30 1942 H 182.305 5.21931 3.97396 0
M  V30 1943 H 182.222 6.80819 3.28667 0
M  V30 1944 H 183.49 6.42576 4.41267 0
M  V30 1945 N 187.719 -0.156864 1.56817 0
M  V30 1946 C 188.667 -1.21319 1.98455 0
M  V30 1947 C 189.661 -1.45025 0.875444 0
M  V30 1948 O 190.867 -1.45435 1.0606 0
M  V30 1949 H 187.242 -0.408142 0.631605 0
M  V30 1950 H 189.213 -0.835244 2.86472 0
M  V30 1951 C 187.962 -2.54148 2.37285 0
M  V30 1952 H 187.285 -2.36733 3.22176 0
M  V30 1953 H 188.725 -3.26712 2.70251 0
M  V30 1954 C 187.184 -3.13967 1.22173 0
M  V30 1955 O 187.714 -3.98357 0.517149 0
M  V30 1956 N 185.92 -2.7327 0.988536 0
M  V30 1957 H 185.467 -2.04744 1.56326 0
M  V30 1958 H 185.425 -3.13628 0.220209 0
M  V30 1959 N 189.197 -1.51736 -0.425897 0
M  V30 1960 C 190.16 -1.73271 -1.50032 0
M  V30 1961 C 191.16 -0.602639 -1.4908 0
M  V30 1962 O 192.35 -0.87033 -1.509 0
M  V30 1963 C 189.482 -1.79969 -2.89523 0
M  V30 1964 H 190.675 -2.69172 -1.32237 0
M  V30 1965 H 188.228 -1.41899 -0.65532 0
M  V30 1966 H 188.963 -0.859241 -3.1271 0
M  V30 1967 H 188.748 -2.62109 -2.91619 0
M  V30 1968 H 190.238 -1.9843 -3.67444 0
M  V30 1969 N 190.675 0.682077 -1.42076 0
M  V30 1970 C 191.952 1.43755 -1.32642 0
M  V30 1971 C 192.332 2.11063 0.0396611 0
M  V30 1972 O 191.68 2.02701 1.05474 0
M  V30 1973 C 191.89 2.44596 -2.48946 0
M  V30 1974 C 193.238 3.09454 -2.9073 0
M  V30 1975 O 194.262 2.54922 -2.48783 0
M  V30 1976 O 193.121 4.08253 -3.63307 0
M  V30 1977 H 190.215 0.640857 -0.522715 0
M  V30 1978 H 192.761 0.711415 -1.54068 0
M  V30 1979 H 191.533 1.93609 -3.40046 0
M  V30 1980 H 191.156 3.24701 -2.29467 0
M  V30 1981 N 192.153 1.28127 0.917671 0
M  V30 1982 C 193.401 1.14825 1.66312 0
M  V30 1983 C 193.722 -0.304379 1.9261 0
M  V30 1984 O 192.992 -1.21149 1.53947 0
M  V30 1985 H 191.572 0.421953 0.616413 0
M  V30 1986 H 194.234 1.608 1.10134 0
M  V30 1987 H 193.33 1.68489 2.62712 0
M  V30 1988 N 193.631 -1.12557 1.10312 0
M  V30 1989 C 194.856 -1.88405 0.867085 0
M  V30 1990 C 195.281 -1.79038 -0.576817 0
M  V30 1991 O 194.639 -1.14439 -1.40618 0
M  V30 1992 C 194.687 -3.3563 1.31851 0
M  V30 1993 O 193.791 -4.09565 0.482734 0
M  V30 1994 H 193.132 -0.585455 0.313271 0
M  V30 1995 H 195.662 -1.42352 1.4696 0
M  V30 1996 H 195.672 -3.86469 1.3079 0
M  V30 1997 H 194.347 -3.41765 2.37001 0
M  V30 1998 H 192.924 -3.68695 0.558448 0
M  V30 1999 N 195.109 -0.891671 -1.2995 0
M  V30 2000 C 196.339 -0.527893 -1.99742 0
M  V30 2001 C 196.747 0.88979 -1.66971 0
M  V30 2002 O 196.09 1.59766 -0.906667 0
M  V30 2003 C 196.152 -0.630804 -3.53922 0
M  V30 2004 C 195.816 -2.01401 -4.10228 0
M  V30 2005 C 196.813 -2.98422 -4.25724 0
M  V30 2006 C 194.498 -2.32121 -4.45449 0
M  V30 2007 C 196.492 -4.24293 -4.75662 0
M  V30 2008 C 194.179 -3.58237 -4.95086 0
M  V30 2009 C 195.177 -4.54137 -5.10146 0
M  V30 2010 O 194.865 -5.78014 -5.58708 0
M  V30 2011 H 194.597 -0.201953 -0.645129 0
M  V30 2012 H 197.151 -1.20076 -1.66646 0
M  V30 2013 H 195.381 0.0990616 -3.86573 0
M  V30 2014 H 197.07 -0.277338 -4.04951 0
M  V30 2015 H 197.836 -2.76001 -3.98809 0
M  V30 2016 H 193.715 -1.5824 -4.32991 0
M  V30 2017 H 197.259 -4.99153 -4.87332 0
M  V30 2018 H 193.156 -3.80491 -5.21437 0
M  V30 2019 H 193.924 -5.8049 -5.77039 0
M  V30 2020 N 196.587 1.43421 -0.653314 0
M  V30 2021 C 197.836 2.01032 -0.164076 0
M  V30 2022 C 198.149 1.52147 1.22926 0
M  V30 2023 O 199.355 2.02031 1.81371 0
M  V30 2024 C 197.811 3.59082 -0.24252 0
M  V30 2025 C 197.419 4.1696 -1.63855 0
M  V30 2026 C 199.163 4.24079 0.18911 0
M  V30 2027 C 197.07 5.67304 -1.67092 0
M  V30 2028 H 196 0.751798 -0.0575769 0
M  V30 2029 H 198.651 1.6439 -0.815362 0
M  V30 2030 H 197.033 3.93125 0.476276 0
M  V30 2031 H 198.207 3.94416 -2.38271 0
M  V30 2032 H 196.522 3.64335 -2.01616 0
M  V30 2033 H 199.119 5.34381 0.184775 0
M  V30 2034 H 199.462 3.98005 1.22056 0
M  V30 2035 H 199.995 3.94918 -0.477938 0
M  V30 2036 H 196.734 5.98145 -2.68146 0
M  V30 2037 H 196.254 5.91904 -0.970014 0
M  V30 2038 H 197.933 6.31344 -1.4147 0
M  V30 2039 N 198.065 0.39524 1.52563 0
M  V30 2040 C 199.29 -0.187456 2.06551 0
M  V30 2041 C 199.715 -1.39249 1.26457 0
M  V30 2042 O 199.073 -1.78947 0.291151 0
M  V30 2043 C 199.121 -0.529985 3.56684 0
M  V30 2044 O 198.225 -1.62307 3.79118 0
M  V30 2045 H 197.566 -0.0202537 0.663691 0
M  V30 2046 H 200.096 0.564426 1.96661 0
M  V30 2047 H 200.106 -0.792598 4.00227 0
M  V30 2048 H 198.781 0.350987 4.14416 0
M  V30 2049 H 197.358 -1.3537 3.47461 0
M  V30 2050 N 199.544 -1.57102 0.125237 0
M  V30 2051 C 200.491 -2.15641 -0.822655 0
M  V30 2052 C 201.461 -1.08313 -1.25927 0
M  V30 2053 O 202.646 -1.36251 -1.33567 0
M  V30 2054 C 199.786 -2.76504 -2.06494 0
M  V30 2055 C 198.899 -3.98158 -1.67612 0
M  V30 2056 C 198.034 -4.47088 -2.86854 0
M  V30 2057 C 197.073 -5.6126 -2.44242 0
M  V30 2058 N 196.21 -6.04905 -3.56419 0
M  V30 2059 H 201.05 -2.96313 -0.316625 0
M  V30 2060 H 198.587 -1.46388 -0.144588 0
M  V30 2061 H 200.545 -3.09925 -2.79289 0
M  V30 2062 H 199.175 -1.98512 -2.54545 0
M  V30 2063 H 198.227 -3.70858 -0.846661 0
M  V30 2064 H 199.539 -4.80934 -1.32301 0
M  V30 2065 H 198.693 -4.82451 -3.67867 0
M  V30 2066 H 197.432 -3.63275 -3.25396 0
M  V30 2067 H 196.437 -5.25495 -1.61663 0
M  V30 2068 H 197.662 -6.46843 -2.0681 0
M  V30 2069 H 195.608 -5.24032 -3.94623 0
M  V30 2070 H 195.525 -6.82552 -3.25051 0
M  V30 2071 H 196.793 -6.44907 -4.37853 0
M  V30 2072 N 201.022 0.148545 -1.56898 0
M  V30 2073 C 201.985 1.16736 -1.97244 0
M  V30 2074 C 202.985 1.35947 -0.858777 0
M  V30 2075 O 204.175 1.32966 -1.12542 0
M  V30 2076 C 201.307 2.52798 -2.28705 0
M  V30 2077 H 202.5 0.821279 -2.88435 0
M  V30 2078 H 200.053 0.391831 -1.51309 0
M  V30 2079 H 200.788 2.92381 -1.403 0
M  V30 2080 H 200.573 2.40216 -3.09901 0
M  V30 2081 H 202.063 3.26179 -2.60762 0
M  V30 2082 N 202.5 1.5196 0.417844 0
M  V30 2083 C 203.463 1.74065 1.49111 0
M  V30 2084 C 204.463 0.610537 1.48758 0
M  V30 2085 O 205.653 0.87832 1.50437 0
M  V30 2086 C 202.785 1.81502 2.88565 0
M  V30 2087 H 203.978 2.69869 1.30807 0
M  V30 2088 H 201.531 1.42244 0.647785 0
M  V30 2089 H 202.266 0.875813 3.1225 0
M  V30 2090 H 202.051 2.63651 2.90225 0
M  V30 2091 H 203.541 2.00376 3.66387 0
M  V30 2092 N 203.978 -0.674533 1.42435 0
M  V30 2093 C 204.908 -1.80009 1.48724 0
M  V30 2094 C 205.889 -1.6659 0.343793 0
M  V30 2095 O 207.074 -1.86007 0.558137 0
M  V30 2096 C 204.204 -3.18306 1.38919 0
M  V30 2097 C 203.158 -3.46461 2.51294 0
M  V30 2098 C 202.484 -4.84335 2.26547 0
M  V30 2099 C 203.784 -3.43328 3.93603 0
M  V30 2100 H 205.478 -1.75004 2.42928 0
M  V30 2101 H 203.024 -0.840533 1.16923 0
M  V30 2102 H 204.977 -3.9678 1.41927 0
M  V30 2103 H 203.701 -3.2399 0.412094 0
M  V30 2104 H 202.36 -2.70348 2.47604 0
M  V30 2105 H 202.008 -4.86669 1.2713 0
M  V30 2106 H 201.708 -5.04136 3.01861 0
M  V30 2107 H 203.232 -5.65094 2.31304 0
M  V30 2108 H 204.646 -4.11772 3.98894 0
M  V30 2109 H 203.043 -3.74664 4.68771 0
M  V30 2110 H 204.113 -2.41897 4.20255 0
M  V30 2111 N 205.456 -1.28612 -0.910864 0
M  V30 2112 C 206.388 -1.08589 -2.01844 0
M  V30 2113 C 207.401 -0.0367419 -1.62759 0
M  V30 2114 O 208.59 -0.280101 -1.76289 0
M  V30 2115 C 205.69 -0.628626 -3.33019 0
M  V30 2116 C 204.863 -1.75382 -4.00699 0
M  V30 2117 C 203.922 -1.28945 -5.10156 0
M  V30 2118 O 202.948 -1.9922 -5.33198 0
M  V30 2119 N 204.15 -0.154224 -5.80295 0
M  V30 2120 H 206.915 -2.03973 -2.19579 0
M  V30 2121 H 204.476 -1.20403 -1.08234 0
M  V30 2122 H 206.468 -0.301508 -4.03575 0
M  V30 2123 H 205.038 0.232451 -3.11735 0
M  V30 2124 H 204.258 -2.25039 -3.23653 0
M  V30 2125 H 205.546 -2.50854 -4.42662 0
M  V30 2126 H 204.944 0.43194 -5.64049 0
M  V30 2127 H 203.501 0.113599 -6.51701 0
M  V30 2128 N 206.934 1.1197 -1.10907 0
M  V30 2129 C 207.881 2.17846 -0.762345 0
M  V30 2130 C 208.851 1.63995 0.263599 0
M  V30 2131 O 210.036 1.90273 0.141773 0
M  V30 2132 C 207.176 3.44487 -0.205651 0
M  V30 2133 C 206.289 4.12369 -1.28748 0
M  V30 2134 C 205.424 5.26674 -0.691919 0
M  V30 2135 C 204.463 5.86431 -1.75399 0
M  V30 2136 N 203.6 6.92142 -1.17833 0
M  V30 2137 H 208.44 2.46851 -1.6694 0
M  V30 2138 H 205.977 1.21188 -0.833776 0
M  V30 2139 H 207.935 4.16981 0.135037 0
M  V30 2140 H 206.565 3.15884 0.664613 0
M  V30 2141 H 205.617 3.38003 -1.74522 0
M  V30 2142 H 206.929 4.52844 -2.09125 0
M  V30 2143 H 206.083 6.05953 -0.300963 0
M  V30 2144 H 204.822 4.8749 0.143232 0
M  V30 2145 H 203.827 5.05835 -2.15432 0
M  V30 2146 H 205.052 6.27685 -2.59208 0
M  V30 2147 H 202.998 6.54985 -0.364725 0
M  V30 2148 H 202.915 7.31242 -1.91887 0
M  V30 2149 H 204.183 7.75237 -0.81408 0
M  V30 2150 N 208.412 0.89855 1.29475 0
M  V30 2151 C 209.359 0.373819 2.27753 0
M  V30 2152 C 210.329 -0.543444 1.56958 0
M  V30 2153 O 211.514 -0.468934 1.84948 0
M  V30 2154 C 208.654 -0.393648 3.42848 0
M  V30 2155 C 207.767 0.554379 4.28428 0
M  V30 2156 C 206.902 -0.230026 5.30702 0
M  V30 2157 C 205.941 0.712599 6.07938 0
M  V30 2158 N 205.078 -0.0373283 7.0209 0
M  V30 2159 H 209.918 1.21699 2.72017 0
M  V30 2160 H 207.455 0.611456 1.33789 0
M  V30 2161 H 209.413 -0.85466 4.08352 0
M  V30 2162 H 208.043 -1.20128 2.99615 0
M  V30 2163 H 207.095 1.13391 3.63107 0
M  V30 2164 H 208.407 1.27597 4.82204 0
M  V30 2165 H 207.561 -0.752288 6.02018 0
M  V30 2166 H 206.3 -0.984758 4.77654 0
M  V30 2167 H 205.305 1.24637 5.35486 0
M  V30 2168 H 206.53 1.46664 6.63074 0
M  V30 2169 H 204.476 -0.774348 6.51414 0
M  V30 2170 H 204.393 0.624374 7.53417 0
M  V30 2171 H 205.661 -0.539891 7.77628 0
M  V30 2172 N 209.89 -1.43072 0.660911 0
M  V30 2173 C 210.823 -2.28074 -0.0758862 0
M  V30 2174 C 211.801 -1.40271 -0.822362 0
M  V30 2175 O 212.985 -1.69713 -0.820352 0
M  V30 2176 C 210.112 -3.19843 -1.11437 0
M  V30 2177 C 209.158 -4.23957 -0.465069 0
M  V30 2178 S 209.991 -5.29978 0.767078 0
M  V30 2179 C 211.147 -6.25314 -0.270682 0
M  V30 2180 H 211.38 -2.90216 0.645139 0
M  V30 2181 H 208.913 -1.47697 0.449995 0
M  V30 2182 H 210.871 -3.73257 -1.70849 0
M  V30 2183 H 209.532 -2.56863 -1.80776 0
M  V30 2184 H 208.725 -4.88299 -1.24819 0
M  V30 2185 H 208.327 -3.73959 0.0551242 0
M  V30 2186 H 210.619 -6.67932 -1.13459 0
M  V30 2187 H 211.562 -7.07293 0.337916 0
M  V30 2188 H 211.97 -5.61195 -0.609937 0
M  V30 2189 N 211.368 -0.403325 -1.52352 0
M  V30 2190 C 212.278 0.432009 -2.30588 0
M  V30 2191 C 213.294 1.05884 -1.38075 0
M  V30 2192 O 214.47 1.06161 -1.71148 0
M  V30 2193 C 211.535 1.53669 -3.10784 0
M  V30 2194 C 210.596 0.933525 -4.19027 0
M  V30 2195 C 209.829 1.98557 -4.9539 0
M  V30 2196 O 210.052 3.20283 -4.71991 0
M  V30 2197 O 208.986 1.59504 -5.80381 0
M  V30 2198 H 212.812 -0.205739 -3.03002 0
M  V30 2199 H 210.397 -0.166675 -1.48467 0
M  V30 2200 H 212.279 2.17814 -3.60742 0
M  V30 2201 H 210.954 2.15915 -2.41169 0
M  V30 2202 H 209.861 0.254954 -3.7323 0
M  V30 2203 H 211.194 0.35508 -4.90918 0
M  V30 2204 N 212.846 1.57033 -0.133567 0
M  V30 2205 C 213.756 2.19632 0.824564 0
M  V30 2206 C 214.772 1.17666 1.28182 0
M  V30 2207 O 215.948 1.50193 1.3418 0
M  V30 2208 C 213.013 2.79499 2.05137 0
M  V30 2209 C 212.074 3.96548 1.64464 0
M  V30 2210 C 211.307 4.5355 2.81297 0
M  V30 2211 O 211.53 4.09438 3.97136 0
M  V30 2212 O 210.464 5.44018 2.57542 0
M  V30 2213 H 214.29 3.01991 0.321766 0
M  V30 2214 H 211.875 1.49112 0.0927889 0
M  V30 2215 H 213.757 3.17602 2.7696 0
M  V30 2216 H 212.432 2.00162 2.54395 0
M  V30 2217 H 211.339 3.63186 0.897048 0
M  V30 2218 H 212.672 4.77364 1.19934 0
M  V30 2219 N 214.325 -0.140222 1.56975 0
M  V30 2220 C 215.275 -1.17827 1.95194 0
M  V30 2221 C 216.259 -1.38195 0.824075 0
M  V30 2222 O 217.451 -1.39643 1.0876 0
M  V30 2223 C 214.58 -2.51024 2.34184 0
M  V30 2224 C 213.666 -2.3422 3.53556 0
M  V30 2225 N 214.057 -1.87185 4.69889 0
M  V30 2226 C 212.355 -2.64949 3.58773 0
M  V30 2227 C 213.056 -1.83586 5.5197 0
M  V30 2228 N 212.032 -2.2715 4.93866 0
M  V30 2229 H 215.834 -0.806817 2.82609 0
M  V30 2230 H 213.348 -0.348208 1.58623 0
M  V30 2231 H 215.345 -3.26074 2.59772 0
M  V30 2232 H 214.005 -2.88945 1.48124 0
M  V30 2233 H 215.016 -1.57048 4.93514 0
M  V30 2234 H 211.693 -3.067 2.8327 0
M  V30 2235 H 213.083 -1.48655 6.55249 0
M  V30 2236 N 215.803 -1.52179 -0.40978 0
M  V30 2237 C 217.052 -1.65434 -1.15388 0
M  V30 2238 C 217.365 -0.390056 -1.91671 0
M  V30 2239 O 218.571 -0.402399 -2.68501 0
M  V30 2240 C 217.027 -2.92279 -2.10003 0
M  V30 2241 C 216.635 -4.25813 -1.39239 0
M  V30 2242 C 218.379 -3.14897 -2.84675 0
M  V30 2243 C 216.286 -5.43782 -2.32498 0
M  V30 2244 H 215.216 -0.616267 -0.434432 0
M  V30 2245 H 217.867 -1.78666 -0.418401 0
M  V30 2246 H 216.249 -2.72744 -2.871 0
M  V30 2247 H 217.423 -4.55828 -0.675099 0
M  V30 2248 H 215.738 -4.09292 -0.766097 0
M  V30 2249 H 218.335 -4.0021 -3.54593 0
M  V30 2250 H 218.678 -2.29103 -3.47588 0
M  V30 2251 H 219.211 -3.34901 -2.14677 0
M  V30 2252 H 215.95 -6.3192 -1.74233 0
M  V30 2253 H 215.47 -5.18106 -3.02201 0
M  V30 2254 H 217.149 -5.76834 -2.93038 0
M  V30 2255 N 217.281 0.66697 -1.42791 0
M  V30 2256 C 218.509 1.45505 -1.47091 0
M  V30 2257 C 218.924 1.8861 -0.0845873 0
M  V30 2258 O 218.281 1.58632 0.90234 0
M  V30 2259 C 218.332 2.69906 -2.40485 0
M  V30 2260 O 218.053 2.28608 -3.73725 0
M  V30 2261 C 219.554 3.63396 -2.53886 0
M  V30 2262 H 216.774 0.447459 -0.500022 0
M  V30 2263 H 219.318 0.818866 -1.8739 0
M  V30 2264 H 217.473 3.29696 -2.03419 0
M  V30 2265 H 217.887 3.08997 -4.23817 0
M  V30 2266 H 219.361 4.47387 -3.2334 0
M  V30 2267 H 219.838 4.09824 -1.57927 0
M  V30 2268 H 220.444 3.09495 -2.91706 0
M  V30 2269 N 218.759 1.29093 0.90403 0
M  V30 2270 C 219.987 1.19689 1.68766 0
M  V30 2271 C 220.402 -0.243113 1.87228 0
M  V30 2272 O 219.759 -1.16326 1.40621 0
M  V30 2273 C 219.81 1.90144 3.07453 0
M  V30 2274 O 219.531 3.2852 2.89838 0
M  V30 2275 C 221.032 1.87162 4.01852 0
M  V30 2276 H 218.252 0.415035 0.527244 0
M  V30 2277 H 220.796 1.7039 1.13082 0
M  V30 2278 H 218.951 1.43289 3.59926 0
M  V30 2279 H 219.365 3.63944 3.77684 0
M  V30 2280 H 220.839 2.41032 4.96596 0
M  V30 2281 H 221.316 0.84617 4.30972 0
M  V30 2282 H 221.922 2.33741 3.5531 0
M  V30 2283 N 220.237 -1.11381 1.11499 0
M  V30 2284 C 221.167 -2.19509 0.796125 0
M  V30 2285 C 222.148 -1.68458 -0.235796 0
M  V30 2286 O 223.333 -1.93947 -0.0991344 0
M  V30 2287 C 220.463 -3.46475 0.239205 0
M  V30 2288 C 219.417 -4.10744 1.20307 0
M  V30 2289 C 218.743 -5.32293 0.50683 0
M  V30 2290 C 220.043 -4.55597 2.55399 0
M  V30 2291 H 221.737 -2.46439 1.70024 0
M  V30 2292 H 219.283 -1.18446 0.818935 0
M  V30 2293 H 221.236 -4.214 0.00392006 0
M  V30 2294 H 219.96 -3.19006 -0.700206 0
M  V30 2295 H 218.619 -3.37813 1.42399 0
M  V30 2296 H 218.267 -5.01095 -0.437408 0
M  V30 2297 H 217.967 -5.76243 1.1497 0
M  V30 2298 H 219.491 -6.09956 0.280351 0
M  V30 2299 H 220.905 -5.21841 2.37391 0
M  V30 2300 H 219.302 -5.10363 3.15673 0
M  V30 2301 H 220.372 -3.69013 3.14575 0
M  V30 2302 N 221.715 -0.905404 -1.28997 0
M  V30 2303 C 222.678 -0.392253 -2.25819 0
M  V30 2304 C 223.678 0.476753 -1.5357 0
M  V30 2305 O 224.868 0.280994 -1.71919 0
M  V30 2306 C 222 0.438588 -3.38067 0
M  V30 2307 H 223.193 -1.24743 -2.72725 0
M  V30 2308 H 220.746 -0.684051 -1.40536 0
M  V30 2309 H 221.481 1.31352 -2.96508 0
M  V30 2310 H 221.266 -0.184167 -3.91667 0
M  V30 2311 H 222.756 0.78873 -4.10084 0
M  V30 2312 N 223.193 1.4272 -0.668489 0
M  V30 2313 C 224.441 2.01226 -0.187769 0
M  V30 2314 C 224.762 1.53092 1.2078 0
M  V30 2315 O 224.032 0.74993 1.80977 0
M  V30 2316 H 222.612 0.744041 -0.0664272 0
M  V30 2317 H 225.274 1.74723 -0.863583 0
M  V30 2318 H 224.37 3.11556 -0.184166 0
M  V30 2319 N 224.671 0.411399 1.52136 0
M  V30 2320 C 226.087 0.0623865 1.59478 0
M  V30 2321 C 226.287 -1.42554 1.4241 0
M  V30 2322 O 225.343 -2.19263 1.2522 0
M  V30 2323 C 226.656 0.559331 2.95452 0
M  V30 2324 C 228.204 0.517503 3.08692 0
M  V30 2325 C 228.679 0.990994 4.4715 0
M  V30 2326 N 230.17 0.947908 4.53397 0
M  V30 2327 C 230.905 1.28544 5.58806 0
M  V30 2328 N 230.401 1.69454 6.71757 0
M  V30 2329 N 232.194 1.20526 5.49026 0
M  V30 2330 H 224.345 1.37982 1.61477 0
M  V30 2331 H 226.608 0.566977 0.759764 0
M  V30 2332 H 226.314 1.59938 3.1323 0
M  V30 2333 H 226.188 -0.0298014 3.77188 0
M  V30 2334 H 228.575 -0.513505 2.90598 0
M  V30 2335 H 228.656 1.14272 2.28857 0
M  V30 2336 H 228.3 2.02034 4.65988 0
M  V30 2337 H 228.23 0.34257 5.25485 0
M  V30 2338 H 230.721 0.647157 3.72317 0
M  V30 2339 H 231.034 1.93513 7.48179 0
M  V30 2340 H 229.379 1.73359 6.73032 0
M  V30 2341 H 232.57 0.884505 4.59667 0
M  V30 2342 H 232.743 1.47161 6.31069 0
M  V30 2343 N 226.149 -1.5696 0.141893 0
M  V30 2344 C 227.379 -2.00031 -0.516828 0
M  V30 2345 C 227.787 -1.02091 -1.59293 0
M  V30 2346 O 227.13 -0.00909657 -1.83698 0
M  V30 2347 C 227.192 -3.39534 -1.1814 0
M  V30 2348 C 226.856 -4.56313 -0.250513 0
M  V30 2349 C 227.853 -5.17295 0.519839 0
M  V30 2350 C 225.538 -5.02061 -0.154907 0
M  V30 2351 C 227.532 -6.2243 1.3733 0
M  V30 2352 C 225.219 -6.07053 0.702161 0
M  V30 2353 C 226.217 -6.67106 1.46487 0
M  V30 2354 O 225.905 -7.70066 2.30767 0
M  V30 2355 H 225.637 -0.661451 -0.139493 0
M  V30 2356 H 228.191 -2.04086 0.231926 0
M  V30 2357 H 226.421 -3.32302 -1.97769 0
M  V30 2358 H 228.11 -3.66745 -1.73933 0
M  V30 2359 H 228.876 -4.82852 0.45598 0
M  V30 2360 H 224.755 -4.5505 -0.7383 0
M  V30 2361 H 228.299 -6.69233 1.96909 0
M  V30 2362 H 224.196 -6.40923 0.76733 0
M  V30 2363 H 224.964 -7.87264 2.23959 0
M  V30 2364 N 227.627 0.131896 -1.57047 0
M  V30 2365 C 228.574 1.16236 -1.99393 0
M  V30 2366 C 229.544 1.41863 -0.863943 0
M  V30 2367 O 230.729 1.53946 -1.12718 0
M  V30 2368 C 227.869 2.48708 -2.39245 0
M  V30 2369 C 226.982 2.30127 -3.65603 0
M  V30 2370 C 226.117 3.55738 -3.94492 0
M  V30 2371 C 225.156 3.32259 -5.14073 0
M  V30 2372 N 224.293 4.50039 -5.38896 0
M  V30 2373 H 229.133 0.794251 -2.87221 0
M  V30 2374 H 226.67 0.380707 -1.42088 0
M  V30 2375 H 228.628 3.25969 -2.60384 0
M  V30 2376 H 227.258 2.83437 -1.54478 0
M  V30 2377 H 226.31 1.43845 -3.52154 0
M  V30 2378 H 227.622 2.08746 -4.5302 0
M  V30 2379 H 226.776 4.41423 -4.1621 0
M  V30 2380 H 225.515 3.80138 -3.05526 0
M  V30 2381 H 224.52 2.44963 -4.92212 0
M  V30 2382 H 225.745 3.09242 -6.04604 0
M  V30 2383 H 223.691 4.74584 -4.52886 0
M  V30 2384 H 223.608 4.31716 -6.2061 0
M  V30 2385 H 224.876 5.36895 -5.65123 0
M  V30 2386 N 229.106 1.52395 0.401703 0
M  V30 2387 C 230.354 1.66488 1.14569 0
M  V30 2388 C 230.675 0.400897 1.90835 0
M  V30 2389 O 229.945 -0.584415 1.8698 0
M  V30 2390 H 228.525 0.613672 0.425929 0
M  V30 2391 H 231.187 1.89464 0.457093 0
M  V30 2392 H 230.283 2.50942 1.85566 0
M  V30 2393 N 230.584 -0.659388 1.43143 0
M  V30 2394 C 231.531 -1.77249 1.47822 0
M  V30 2395 C 232.501 -1.62818 0.328558 0
M  V30 2396 O 233.686 -1.83151 0.534838 0
M  V30 2397 C 230.826 -3.15371 1.40126 0
M  V30 2398 C 229.939 -3.4098 2.65249 0
M  V30 2399 C 229.074 -4.68915 2.49584 0
M  V30 2400 C 228.113 -4.87608 3.70006 0
M  V30 2401 N 227.25 -6.06796 3.53189 0
M  V30 2402 H 232.09 -1.72584 2.42938 0
M  V30 2403 H 229.627 -0.842297 1.20598 0
M  V30 2404 H 231.585 -3.9521 1.33659 0
M  V30 2405 H 230.215 -3.19121 0.485964 0
M  V30 2406 H 229.267 -2.55282 2.8202 0
M  V30 2407 H 230.579 -3.50681 3.54717 0
M  V30 2408 H 229.733 -5.56871 2.4079 0
M  V30 2409 H 228.472 -4.61524 1.5763 0
M  V30 2410 H 227.477 -3.9809 3.79215 0
M  V30 2411 H 228.702 -4.96834 4.62961 0
M  V30 2412 H 226.648 -6.00549 2.63965 0
M  V30 2413 H 226.565 -6.17428 4.36255 0
M  V30 2414 H 227.833 -6.9739 3.48236 0
M  V30 2415 N 232.062 -1.29571 -0.897171 0
M  V30 2416 C 232.992 -1.17473 -2.01798 0
M  V30 2417 C 233.973 -0.068323 -1.69963 0
M  V30 2418 O 235.158 -0.248239 -1.92607 0
M  V30 2419 C 232.288 -0.853099 -3.36659 0
M  V30 2420 C 231.242 -1.9161 -3.82713 0
M  V30 2421 C 230.568 -1.44773 -5.14728 0
M  V30 2422 C 231.868 -3.32535 -4.02763 0
M  V30 2423 H 233.562 -2.11237 -2.12177 0
M  V30 2424 H 231.108 -1.01699 -1.01948 0
M  V30 2425 H 233.061 -0.755165 -4.14578 0
M  V30 2426 H 231.785 0.120236 -3.26379 0
M  V30 2427 H 230.444 -2.00346 -3.07013 0
M  V30 2428 H 230.092 -0.462995 -5.00865 0
M  V30 2429 H 229.792 -2.15865 -5.46513 0
M  V30 2430 H 231.316 -1.36334 -5.95185 0
M  V30 2431 H 232.73 -3.26626 -4.71156 0
M  V30 2432 H 231.127 -4.01607 -4.45905 0
M  V30 2433 H 232.197 -3.75326 -3.07016 0
M  V30 2434 N 233.54 1.10788 -1.12088 0
M  V30 2435 C 234.503 2.15207 -0.788577 0
M  V30 2436 C 235.503 1.59609 0.195317 0
M  V30 2437 O 236.693 1.74174 -0.0300193 0
M  V30 2438 C 233.825 3.4047 -0.171174 0
M  V30 2439 H 235.018 2.46116 -1.71368 0
M  V30 2440 H 232.571 1.26089 -0.923652 0
M  V30 2441 H 233.306 3.15176 0.763832 0
M  V30 2442 H 233.091 3.82109 -0.879514 0
M  V30 2443 H 234.581 4.17576 0.04496 0
M  V30 2444 N 235.018 0.912232 1.28515 0
M  V30 2445 C 235.981 0.404223 2.25607 0
M  V30 2446 C 236.981 -0.468602 1.53821 0
M  V30 2447 O 238.171 -0.271873 1.72065 0
M  V30 2448 C 235.303 -0.420653 3.38295 0
M  V30 2449 H 236.496 1.26188 2.7206 0
M  V30 2450 H 234.049 0.691495 1.40171 0
M  V30 2451 H 234.784 -1.29777 2.97201 0
M  V30 2452 H 234.569 0.204935 3.91564 0
M  V30 2453 H 236.059 -0.766971 4.10496 0
M  V30 2454 N 236.496 -1.42363 0.676048 0
M  V30 2455 C 237.742 -2.02336 0.207809 0
M  V30 2456 C 238.097 -1.52506 -1.17302 0
M  V30 2457 O 237.39 -0.718048 -1.77636 0
M  V30 2458 C 237.584 -3.56929 0.183431 0
M  V30 2459 C 237.413 -4.21762 1.56036 0
M  V30 2460 C 236.183 -4.56881 2.15842 0
M  V30 2461 C 238.381 -4.49267 2.50327 0
M  V30 2462 N 236.363 -5.069 3.46303 0
M  V30 2463 C 237.734 -5.00851 3.65443 0
M  V30 2464 C 239.789 -4.31257 2.48841 0
M  V30 2465 C 238.492 -5.36317 4.79329 0
M  V30 2466 C 240.518 -4.678 3.61824 0
M  V30 2467 C 239.88 -5.19537 4.75668 0
M  V30 2468 H 235.979 -0.772583 0.120993 0
M  V30 2469 H 238.563 -1.73203 0.889306 0
M  V30 2470 H 236.734 -3.85576 -0.467483 0
M  V30 2471 H 238.466 -4.03603 -0.297808 0
M  V30 2472 H 235.221 -4.4268 1.68319 0
M  V30 2473 H 235.645 -5.36338 4.13123 0
M  V30 2474 H 240.287 -3.90511 1.62051 0
M  V30 2475 H 238.005 -5.75995 5.66794 0
M  V30 2476 H 241.591 -4.55541 3.61903 0
M  V30 2477 H 240.471 -5.47287 5.61646 0
M  V30 2478 N 237.974 -0.419461 -1.51915 0
M  V30 2479 C 239.251 0.211999 -1.94448 0
M  V30 2480 C 239.631 1.61703 -1.35703 0
M  V30 2481 O 238.979 2.22102 -0.536931 0
M  V30 2482 C 239.189 0.207872 -3.4838 0
M  V30 2483 C 240.537 0.422192 -4.22496 0
M  V30 2484 O 241.561 0.286778 -3.55044 0
M  V30 2485 O 240.42 0.690009 -5.42126 0
M  V30 2486 H 237.514 0.139586 -0.815135 0
M  V30 2487 H 240.06 -0.476151 -1.62883 0
M  V30 2488 H 238.832 -0.775102 -3.83546 0
M  V30 2489 H 238.455 0.939688 -3.86336 0
M  V30 2490 N 239.452 1.56882 -0.150215 0
M  V30 2491 C 240.698 1.96518 0.500834 0
M  V30 2492 C 241.031 1.03527 1.64304 0
M  V30 2493 O 240.306 0.0782751 1.94342 0
M  V30 2494 C 240.589 3.45822 1.00395 0
M  V30 2495 C 240.442 4.49591 -0.136983 0
M  V30 2496 C 241.761 3.97704 1.88467 0
M  V30 2497 H 238.88 0.714535 0.18058 0
M  V30 2498 H 241.522 1.88577 -0.232091 0
M  V30 2499 H 239.672 3.5272 1.62851 0
M  V30 2500 H 241.344 4.5477 -0.77343 0
M  V30 2501 H 239.587 4.26441 -0.795652 0
M  V30 2502 H 240.258 5.51402 0.256815 0
M  V30 2503 H 242.734 3.93304 1.35834 0
M  V30 2504 H 241.61 5.0263 2.20578 0
M  V30 2505 H 241.871 3.40252 2.82279 0
M  V30 2506 N 240.93 -0.123565 1.57115 0
M  V30 2507 C 242.176 -0.833386 1.84885 0
M  V30 2508 C 242.509 -1.79742 0.735292 0
M  V30 2509 O 241.784 -1.92764 -0.25925 0
M  V30 2510 C 242.067 -1.5873 3.23228 0
M  V30 2511 C 241.92 -0.643183 4.45178 0
M  V30 2512 C 243.239 -2.54453 3.59085 0
M  V30 2513 H 240.358 -0.301518 0.6725 0
M  V30 2514 H 243 -0.097778 1.89748 0
M  V30 2515 H 241.15 -2.21438 3.19214 0
M  V30 2516 H 242.822 -0.0253015 4.61293 0
M  V30 2517 H 241.065 0.0456139 4.33776 0
M  V30 2518 H 241.736 -1.20724 5.38637 0
M  V30 2519 H 244.212 -2.01853 3.63861 0
M  V30 2520 H 243.088 -3.04238 4.5687 0
M  V30 2521 H 243.349 -3.36906 2.86264 0
M  V30 2522 N 242.408 -1.52605 -0.393616 0
M  V30 2523 C 243.356 -1.77688 -1.50099 0
M  V30 2524 C 244.35 -0.644615 -1.56656 0
M  V30 2525 O 245.556 -0.826997 -1.59877 0
M  V30 2526 H 241.931 -0.562159 -0.499481 0
M  V30 2527 H 243.902 -2.7043 -1.26135 0
M  V30 2528 C 242.651 -1.95858 -2.87289 0
M  V30 2529 H 241.974 -2.8241 -2.82992 0
M  V30 2530 H 243.414 -2.174 -3.64024 0
M  V30 2531 C 241.873 -0.729848 -3.28899 0
M  V30 2532 O 242.403 0.0949217 -4.01588 0
M  V30 2533 N 240.609 -0.561283 -2.85128 0
M  V30 2534 H 240.156 -1.23357 -2.26143 0
M  V30 2535 H 240.114 0.2595 -3.13327 0
M  V30 2536 N 243.887 0.651787 -1.4349 0
M  V30 2537 C 244.797 1.79368 -1.5121 0
M  V30 2538 C 245.813 1.69361 -0.399093 0
M  V30 2539 O 246.989 1.90505 -0.653431 0
M  V30 2540 C 244.054 3.15653 -1.43401 0
M  V30 2541 C 243.115 3.37446 -2.65384 0
M  V30 2542 C 242.348 4.67229 -2.57939 0
M  V30 2543 O 242.571 5.46676 -1.62792 0
M  V30 2544 O 241.505 4.90773 -3.48462 0
M  V30 2545 H 245.331 1.7581 -2.47638 0
M  V30 2546 H 242.916 0.810447 -1.25507 0
M  V30 2547 H 244.798 3.96935 -1.41494 0
M  V30 2548 H 243.473 3.19798 -0.501085 0
M  V30 2549 H 242.38 2.55923 -2.72863 0
M  V30 2550 H 243.713 3.38148 -3.57654 0
M  V30 2551 N 245.365 1.30045 0.890287 0
M  V30 2552 C 246.328 1.15963 1.977 0
M  V30 2553 C 247.328 0.0923777 1.60534 0
M  V30 2554 O 248.518 0.340071 1.70848 0
M  V30 2555 C 245.65 0.775451 3.31963 0
M  V30 2556 H 246.843 2.12502 2.11619 0
M  V30 2557 H 244.396 1.13366 1.07601 0
M  V30 2558 H 245.131 -0.189671 3.23745 0
M  V30 2559 H 244.916 1.54668 3.60306 0
M  V30 2560 H 246.406 0.700251 4.11687 0
M  V30 2561 N 246.843 -1.10192 1.12674 0
M  V30 2562 C 248.089 -1.82475 0.884915 0
M  V30 2563 C 248.422 -1.85093 -0.58773 0
M  V30 2564 O 247.697 -1.3134 -1.43457 0
M  V30 2565 C 247.98 -3.29018 1.46353 0
M  V30 2566 C 247.833 -3.34718 3.00473 0
M  V30 2567 C 249.152 -4.25473 1.12519 0
M  V30 2568 H 246.271 -0.662492 0.322915 0
M  V30 2569 H 248.913 -1.2913 1.39375 0
M  V30 2570 H 247.063 -3.74576 1.03077 0
M  V30 2571 H 248.735 -2.97622 3.52447 0
M  V30 2572 H 246.978 -2.74541 3.35872 0
M  V30 2573 H 247.649 -4.37918 3.36053 0
M  V30 2574 H 250.125 -3.88161 1.499 0
M  V30 2575 H 249.001 -5.26365 1.55663 0
M  V30 2576 H 249.262 -4.42084 0.0377407 0
M  V30 2577 N 248.321 -0.919034 -1.28029 0
M  V30 2578 C 249.569 -0.553838 -1.94363 0
M  V30 2579 C 249.89 0.906357 -1.72656 0
M  V30 2580 O 249.16 1.64143 -1.0693 0
M  V30 2581 H 247.74 -0.201834 -0.719216 0
M  V30 2582 H 250.402 -1.16954 -1.55909 0
M  V30 2583 H 249.498 -0.752758 -3.02886 0
M  V30 2584 N 249.799 1.42003 -0.683588 0
M  V30 2585 C 251.076 1.95112 -0.138075 0
M  V30 2586 C 251.456 1.62359 1.34918 0
M  V30 2587 O 250.804 0.924311 2.08971 0
M  V30 2588 C 251.014 3.46505 -0.416581 0
M  V30 2589 C 252.362 4.23254 -0.337834 0
M  V30 2590 O 253.386 3.54468 -0.35082 0
M  V30 2591 O 252.245 5.45743 -0.287596 0
M  V30 2592 H 249.339 0.826961 -0.00797996 0
M  V30 2593 H 251.885 1.51784 -0.758924 0
M  V30 2594 H 250.657 3.63582 -1.4465 0
M  V30 2595 H 250.28 3.969 0.235839 0
M  V30 2596 N 251.277 0.427512 1.51691 0
M  V30 2597 C 252.554 -0.201684 1.94557 0
M  V30 2598 C 252.934 -1.60981 1.36559 0
M  V30 2599 O 252.282 -2.21814 0.548702 0
M  V30 2600 C 252.492 -0.189394 3.48486 0
M  V30 2601 C 253.84 -0.39978 4.22714 0
M  V30 2602 O 254.864 -0.267945 3.55191 0
M  V30 2603 O 253.723 -0.661249 5.42485 0
M  V30 2604 H 250.817 -0.135261 0.815864 0
M  V30 2605 H 253.363 0.484782 1.62628 0
M  V30 2606 H 252.135 0.795431 3.8313 0
M  V30 2607 H 251.758 -0.919187 3.86829 0
M  V30 2608 N 252.755 -1.56801 0.158532 0
M  V30 2609 C 253.685 -2.20347 -0.772609 0
M  V30 2610 C 254.666 -1.15518 -1.24859 0
M  V30 2611 O 255.851 -1.43902 -1.30406 0
M  V30 2612 C 252.981 -2.83417 -2.00729 0
M  V30 2613 C 251.935 -3.94174 -1.66765 0
M  V30 2614 C 251.261 -4.44233 -2.97592 0
M  V30 2615 C 252.561 -5.14392 -0.905447 0
M  V30 2616 H 254.255 -2.98413 -0.242959 0
M  V30 2617 H 251.801 -1.43537 -0.115419 0
M  V30 2618 H 253.754 -3.26543 -2.6636 0
M  V30 2619 H 252.478 -2.02701 -2.56086 0
M  V30 2620 H 251.137 -3.51684 -1.03508 0
M  V30 2621 H 250.785 -3.60325 -3.50963 0
M  V30 2622 H 250.485 -5.18945 -2.75626 0
M  V30 2623 H 252.009 -4.90037 -3.64274 0
M  V30 2624 H 253.423 -5.5429 -1.46408 0
M  V30 2625 H 251.82 -5.9494 -0.7853 0
M  V30 2626 H 252.89 -4.84795 0.100668 0
M  V30 2627 N 254.233 0.115231 -1.57178 0
M  V30 2628 C 255.18 1.14115 -2.00615 0
M  V30 2629 C 256.15 1.40939 -0.878941 0
M  V30 2630 O 257.335 1.52741 -1.14345 0
M  V30 2631 C 254.475 2.46156 -2.4187 0
M  V30 2632 C 253.588 2.26236 -3.68024 0
M  V30 2633 C 252.723 3.51534 -3.98243 0
M  V30 2634 C 251.762 3.26787 -5.17568 0
M  V30 2635 N 250.899 4.44298 -5.43639 0
M  V30 2636 H 255.739 0.763743 -2.88047 0
M  V30 2637 H 253.276 0.365615 -1.42484 0
M  V30 2638 H 255.234 3.23189 -2.63827 0
M  V30 2639 H 253.864 2.81783 -1.57475 0
M  V30 2640 H 252.916 1.40102 -3.5366 0
M  V30 2641 H 254.228 2.03929 -4.55208 0
M  V30 2642 H 253.382 4.36984 -4.20868 0
M  V30 2643 H 252.121 3.76876 -3.09541 0
M  V30 2644 H 251.126 2.39729 -4.94783 0
M  V30 2645 H 252.351 3.02812 -6.0785 0
M  V30 2646 H 250.297 4.69754 -4.57895 0
M  V30 2647 H 250.214 4.25109 -6.25154 0
M  V30 2648 H 251.482 5.3087 -5.70786 0
M  V30 2649 N 255.711 1.52812 0.385517 0
M  V30 2650 C 256.644 1.72592 1.49289 0
M  V30 2651 C 257.622 0.573819 1.52138 0
M  V30 2652 O 258.806 0.80404 1.70492 0
M  V30 2653 C 255.933 1.78669 2.87741 0
M  V30 2654 C 254.979 3.00455 3.02703 0
M  V30 2655 S 255.812 4.60366 2.73538 0
M  V30 2656 C 256.968 4.69263 4.14177 0
M  V30 2657 H 257.201 2.66248 1.32285 0
M  V30 2658 H 254.734 1.43148 0.578611 0
M  V30 2659 H 256.692 1.82855 3.67524 0
M  V30 2660 H 255.353 0.861 3.02069 0
M  V30 2661 H 254.546 3.01258 4.04054 0
M  V30 2662 H 254.148 2.94278 2.30817 0
M  V30 2663 H 256.44 4.48092 5.08153 0
M  V30 2664 H 257.383 5.71276 4.18388 0
M  V30 2665 H 257.791 3.98072 4.00249 0
M  V30 2666 N 257.189 -0.644168 1.43834 0
M  V30 2667 C 258.605 -0.960875 1.27434 0
M  V30 2668 C 258.805 -2.00499 0.200618 0
M  V30 2669 O 257.861 -2.49018 -0.417906 0
M  V30 2670 C 259.174 -1.43653 2.64167 0
M  V30 2671 C 260.722 -1.55271 2.71772 0
M  V30 2672 C 261.197 -2.06224 4.08944 0
M  V30 2673 N 262.688 -2.13513 4.11055 0
M  V30 2674 C 263.423 -2.54081 5.14033 0
M  V30 2675 N 262.919 -2.9388 6.27381 0
M  V30 2676 N 264.712 -2.54101 5.01387 0
M  V30 2677 H 256.863 0.0465779 2.12349 0
M  V30 2678 H 259.126 -0.0417638 0.94708 0
M  V30 2679 H 258.832 -0.743706 3.43747 0
M  V30 2680 H 258.706 -2.40993 2.90176 0
M  V30 2681 H 261.093 -2.23653 1.92519 0
M  V30 2682 H 261.174 -0.563395 2.49519 0
M  V30 2683 H 260.818 -1.38441 4.88668 0
M  V30 2684 H 260.748 -3.06003 4.28567 0
M  V30 2685 H 263.239 -1.85493 3.29242 0
M  V30 2686 H 263.552 -3.2361 7.01781 0
M  V30 2687 H 261.897 -2.91663 6.30839 0
M  V30 2688 H 265.088 -2.22391 4.11898 0
M  V30 2689 H 265.261 -2.85394 5.81768 0
M  V30 2690 N 258.668 -1.30515 -0.883378 0
M  V30 2691 C 259.945 -1.10086 -1.6168 0
M  V30 2692 C 260.325 0.349269 -2.08191 0
M  V30 2693 O 259.673 1.34105 -1.85008 0
M  V30 2694 C 259.883 -2.10315 -2.78511 0
M  V30 2695 C 261.231 -2.42119 -3.48803 0
M  V30 2696 O 262.255 -2.08638 -2.88702 0
M  V30 2697 O 261.114 -2.99396 -4.57192 0
M  V30 2698 H 258.208 -0.422907 -0.710689 0
M  V30 2699 H 260.754 -1.41947 -0.930015 0
M  V30 2700 H 259.526 -3.07917 -2.41459 0
M  V30 2701 H 259.149 -1.79282 -3.54886 0
M  V30 2702 N 260.146 1.09593 -1.13257 0
M  V30 2703 C 261.371 1.8604 -0.916732 0
M  V30 2704 C 261.796 1.80504 0.529146 0
M  V30 2705 O 261.154 1.18127 1.37534 0
M  V30 2706 C 261.202 3.32017 -1.40703 0
M  V30 2707 O 260.306 4.08141 -0.591153 0
M  V30 2708 H 259.647 0.576943 -0.328683 0
M  V30 2709 H 262.177 1.38405 -1.50682 0
M  V30 2710 H 262.187 3.82865 -1.4099 0
M  V30 2711 H 260.862 3.35361 -2.45979 0
M  V30 2712 H 259.439 3.67084 -0.656005 0
M  V30 2713 N 261.624 0.925811 1.2754 0
M  V30 2714 C 262.574 0.394488 2.24561 0
M  V30 2715 C 263.558 -0.500183 1.52928 0
M  V30 2716 O 264.75 -0.337936 1.73744 0
M  V30 2717 C 261.879 -0.353328 3.41477 0
M  V30 2718 C 260.965 0.557752 4.20416 0
M  V30 2719 N 261.356 1.67674 4.77199 0
M  V30 2720 C 259.654 0.360404 4.44541 0
M  V30 2721 C 260.355 2.24324 5.36706 0
M  V30 2722 N 259.331 1.53305 5.21535 0
M  V30 2723 H 263.133 1.2489 2.66045 0
M  V30 2724 H 260.647 0.779864 1.4245 0
M  V30 2725 H 262.644 -0.7509 4.10082 0
M  V30 2726 H 261.304 -1.20469 3.01525 0
M  V30 2727 H 262.315 2.05915 4.75204 0
M  V30 2728 H 258.992 -0.450454 4.15063 0
M  V30 2729 H 260.382 3.18521 5.91603 0
M  V30 2730 N 263.102 -1.41638 0.69111 0
M  V30 2731 C 264.348 -2.02104 0.229258 0
M  V30 2732 C 264.703 -1.53741 -1.15678 0
M  V30 2733 O 263.996 -0.736849 -1.76865 0
M  V30 2734 C 264.19 -3.56714 0.221277 0
M  V30 2735 C 264.019 -4.20083 1.605 0
M  V30 2736 C 262.789 -4.54566 2.20676 0
M  V30 2737 C 264.987 -4.46587 2.55078 0
M  V30 2738 N 262.969 -5.03199 3.5166 0
M  V30 2739 C 264.34 -4.96946 3.70735 0
M  V30 2740 C 266.395 -4.28593 2.53401 0
M  V30 2741 C 265.098 -5.31203 4.8499 0
M  V30 2742 C 267.124 -4.63936 3.66765 0
M  V30 2743 C 266.486 -5.14463 4.81152 0
M  V30 2744 H 262.585 -0.771256 0.12918 0
M  V30 2745 H 265.169 -1.72251 0.907626 0
M  V30 2746 H 263.34 -3.86051 -0.426562 0
M  V30 2747 H 265.072 -4.03896 -0.254983 0
M  V30 2748 H 261.827 -4.4087 1.73005 0
M  V30 2749 H 262.251 -5.31926 4.18789 0
M  V30 2750 H 266.893 -3.88771 1.66184 0
M  V30 2751 H 264.611 -5.69951 5.72871 0
M  V30 2752 H 268.197 -4.51677 3.66714 0
M  V30 2753 H 267.077 -5.41299 5.67419 0
M  V30 2754 N 264.58 -0.43555 -1.51462 0
M  V30 2755 C 265.81 0.130053 -2.0619 0
M  V30 2756 C 266.218 1.37164 -1.30317 0
M  V30 2757 O 265.561 1.80225 -0.355598 0
M  V30 2758 C 265.623 0.519418 -3.55728 0
M  V30 2759 C 265.287 -0.615119 -4.52841 0
M  V30 2760 C 266.284 -1.48671 -4.9819 0
M  V30 2761 C 263.969 -0.795341 -4.95963 0
M  V30 2762 C 265.963 -2.52324 -5.8533 0
M  V30 2763 C 263.65 -1.83514 -5.82894 0
M  V30 2764 C 264.648 -2.69748 -6.27475 0
M  V30 2765 O 264.336 -3.71944 -7.1268 0
M  V30 2766 H 264.068 0.0121612 -0.675891 0
M  V30 2767 H 266.622 -0.6129 -1.96043 0
M  V30 2768 H 264.852 1.31505 -3.63653 0
M  V30 2769 H 266.541 1.01597 -3.92979 0
M  V30 2770 H 267.307 -1.359 -4.65571 0
M  V30 2771 H 263.186 -0.133713 -4.60806 0
M  V30 2772 H 266.73 -3.19665 -6.20048 0
M  V30 2773 H 262.627 -1.96306 -6.14926 0
M  V30 2774 H 263.395 -3.68503 -7.30854 0
M  V30 2775 N 266.058 1.56714 -0.166846 0
M  V30 2776 C 267.005 2.17746 0.765193 0
M  V30 2777 C 267.975 1.11614 1.23011 0
M  V30 2778 O 269.16 1.39745 1.29908 0
M  V30 2779 C 266.3 2.81882 1.9909 0
M  V30 2780 C 265.413 4.02462 1.56997 0
M  V30 2781 C 264.548 4.54537 2.749 0
M  V30 2782 C 263.587 5.67538 2.29275 0
M  V30 2783 N 262.724 6.14142 3.40255 0
M  V30 2784 H 267.564 2.97048 0.237952 0
M  V30 2785 H 265.101 1.4672 0.105725 0
M  V30 2786 H 267.059 3.17221 2.70974 0
M  V30 2787 H 265.689 2.05191 2.49192 0
M  V30 2788 H 264.741 3.72973 0.748037 0
M  V30 2789 H 266.053 4.84273 1.19503 0
M  V30 2790 H 265.207 4.92035 3.54946 0
M  V30 2791 H 263.946 3.71774 3.1565 0
M  V30 2792 H 262.951 5.29597 1.47674 0
M  V30 2793 H 264.176 6.52099 1.89588 0
M  V30 2794 H 262.122 5.3431 3.8059 0
M  V30 2795 H 262.039 6.9093 3.06841 0
M  V30 2796 H 263.307 6.56289 4.206 0
M  V30 2797 N 267.536 -0.106894 1.57237 0
M  V30 2798 C 268.785 -0.811163 1.8467 0
M  V30 2799 C 269.098 -1.80469 0.754342 0
M  V30 2800 O 270.304 -2.55601 0.915439 0
M  V30 2801 C 268.76 -1.49337 3.27454 0
M  V30 2802 C 268.368 -0.540217 4.44731 0
M  V30 2803 C 270.112 -2.18206 3.64124 0
M  V30 2804 C 268.019 -1.22634 5.78545 0
M  V30 2805 H 266.949 -0.306679 0.688813 0
M  V30 2806 H 269.6 -0.0639887 1.83388 0
M  V30 2807 H 267.982 -2.2876 3.23241 0
M  V30 2808 H 269.156 0.221659 4.60267 0
M  V30 2809 H 267.471 0.042146 4.16379 0
M  V30 2810 H 270.068 -2.70253 4.61376 0
M  V30 2811 H 270.411 -2.96562 2.92158 0
M  V30 2812 H 270.944 -1.45658 3.70174 0
M  V30 2813 H 267.683 -0.483832 6.53712 0
M  V30 2814 H 267.203 -1.95993 5.66874 0
M  V30 2815 H 268.882 -1.75615 6.2271 0
M  V30 2816 N 269.014 -1.53014 -0.377408 0
M  V30 2817 C 269.947 -1.73382 -1.48371 0
M  V30 2818 C 270.925 -0.581879 -1.51832 0
M  V30 2819 O 272.109 -0.81307 -1.70063 0
M  V30 2820 C 269.236 -1.80192 -2.8679 0
M  V30 2821 C 268.282 -3.02056 -3.01105 0
M  V30 2822 S 269.115 -4.61811 -2.71093 0
M  V30 2823 C 270.271 -4.71453 -4.11683 0
M  V30 2824 H 270.504 -2.66946 -1.30872 0
M  V30 2825 H 268.037 -1.43453 -0.571012 0
M  V30 2826 H 269.995 -1.84802 -3.6655 0
M  V30 2827 H 268.656 -0.877008 -3.01608 0
M  V30 2828 H 267.849 -3.03396 -4.02451 0
M  V30 2829 H 267.451 -2.95498 -2.29253 0
M  V30 2830 H 269.743 -4.50781 -5.0577 0
M  V30 2831 H 270.686 -5.73487 -4.15353 0
M  V30 2832 H 271.094 -4.00189 -3.98132 0
M  V30 2833 N 270.492 0.636531 -1.44174 0
M  V30 2834 C 271.74 1.39343 -1.46383 0
M  V30 2835 C 272.061 1.94766 -0.0955715 0
M  V30 2836 O 271.331 1.75452 0.871395 0
M  V30 2837 H 269.911 0.517199 -0.538994 0
M  V30 2838 H 272.573 0.74957 -1.7991 0
M  V30 2839 H 271.669 2.22746 -2.18611 0
M  V30 2840 N 271.97 1.30982 0.876444 0
M  V30 2841 C 273.247 1.10942 1.61094 0
M  V30 2842 C 273.627 -0.338223 2.08373 0
M  V30 2843 O 272.975 -1.33122 1.85717 0
M  V30 2844 C 273.185 2.11789 2.77392 0
M  V30 2845 C 274.533 2.43965 3.47514 0
M  V30 2846 O 275.557 2.10166 2.87591 0
M  V30 2847 O 274.416 3.01817 4.55597 0
M  V30 2848 H 271.51 0.42667 0.708436 0
M  V30 2849 H 274.056 1.42438 0.922474 0
M  V30 2850 H 272.828 3.09194 2.39823 0
M  V30 2851 H 272.451 1.81161 3.5393 0
M  V30 2852 N 273.449 -1.08991 1.13837 0
M  V30 2853 C 274.726 -1.77863 0.813876 0
M  V30 2854 C 275.106 -1.99375 -0.693746 0
M  V30 2855 O 274.454 -1.59875 -1.63255 0
M  V30 2856 C 274.664 -3.0986 1.60586 0
M  V30 2857 C 276.012 -3.84493 1.8014 0
M  V30 2858 O 277.036 -3.19624 1.57222 0
M  V30 2859 O 275.895 -5.00957 2.18413 0
M  V30 2860 H 272.989 -0.771589 0.297624 0
M  V30 2861 H 275.535 -1.15507 1.24323 0
M  V30 2862 H 274.307 -2.89715 2.63022 0
M  V30 2863 H 273.93 -3.79942 1.17173 0
M  V30 2864 N 274.927 -0.932562 -1.27047 0
M  V30 2865 C 276.174 -0.575559 -1.94148 0
M  V30 2866 C 276.502 0.883984 -1.73251 0
M  V30 2867 O 275.757 1.64655 -1.0577 0
M  V30 2868 C 276.056 -0.853713 -3.47054 0
M  V30 2869 C 275.722 -2.29577 -3.88079 0
M  V30 2870 C 274.384 -2.68999 -3.9899 0
M  V30 2871 C 276.736 -3.23331 -4.08787 0
M  V30 2872 C 274.064 -4.01289 -4.28 0
M  V30 2873 C 276.416 -4.55207 -4.39282 0
M  V30 2874 C 275.08 -4.94457 -4.48407 0
M  V30 2875 H 274.35 -0.210612 -0.710439 0
M  V30 2876 H 276.997 -1.17744 -1.51025 0
M  V30 2877 H 275.302 -0.169204 -3.91434 0
M  V30 2878 H 276.999 -0.55639 -3.97121 0
M  V30 2879 H 273.589 -1.97994 -3.80127 0
M  V30 2880 H 277.773 -2.94074 -3.99793 0
M  V30 2881 H 273.029 -4.31374 -4.33275 0
M  V30 2882 H 277.203 -5.27852 -4.54252 0
M  V30 2883 H 274.83 -5.96994 -4.7064 0
M  V30 2884 N 276.405 1.4127 -0.698611 0
M  V30 2885 C 277.654 2.00408 -0.227949 0
M  V30 2886 C 277.967 1.55981 1.18023 0
M  V30 2887 O 279.173 2.07699 1.74852 0
M  V30 2888 C 277.629 3.58129 -0.356636 0
M  V30 2889 C 277.237 4.11536 -1.77037 0
M  V30 2890 C 278.981 4.24466 0.0540969 0
M  V30 2891 C 276.888 5.61701 -1.85055 0
M  V30 2892 H 275.818 0.749586 -0.0814657 0
M  V30 2893 H 278.469 1.61713 -0.867249 0
M  V30 2894 H 276.851 3.94442 0.350965 0
M  V30 2895 H 278.025 3.86636 -2.50698 0
M  V30 2896 H 276.34 3.57736 -2.13105 0
M  V30 2897 H 278.937 5.34698 0.0146723 0
M  V30 2898 H 279.28 4.01687 1.09332 0
M  V30 2899 H 279.813 3.93198 -0.603337 0
M  V30 2900 H 276.552 5.89312 -2.8704 0
M  V30 2901 H 276.072 5.88519 -1.15783 0
M  V30 2902 H 277.751 6.26524 -1.61484 0
M  V30 2903 N 277.883 0.443576 1.51229 0
M  V30 2904 C 279.113 -0.119117 2.06256 0
M  V30 2905 C 279.521 -1.36471 1.31043 0
M  V30 2906 O 278.864 -1.80034 0.365151 0
M  V30 2907 C 278.926 -0.500546 3.55998 0
M  V30 2908 C 278.59 0.639125 4.52509 0
M  V30 2909 C 279.587 1.51311 4.97394 0
M  V30 2910 C 277.272 0.821632 4.95535 0
M  V30 2911 C 279.266 2.55425 5.83984 0
M  V30 2912 C 276.953 1.86603 5.81913 0
M  V30 2913 C 277.951 2.73072 6.26036 0
M  V30 2914 O 277.639 3.75718 7.10698 0
M  V30 2915 H 277.371 -0.00857665 0.675946 0
M  V30 2916 H 279.925 0.623288 1.95715 0
M  V30 2917 H 278.155 -1.29575 3.64345 0
M  V30 2918 H 279.844 -0.995116 3.93513 0
M  V30 2919 H 280.61 1.38367 4.64844 0
M  V30 2920 H 276.489 0.158149 4.60729 0
M  V30 2921 H 280.033 3.22949 6.18344 0
M  V30 2922 H 275.93 1.99564 6.13876 0
M  V30 2923 H 276.698 3.72374 7.2889 0
M  V30 2924 N 279.361 -1.56624 0.175154 0
M  V30 2925 C 280.309 -2.19468 -0.770495 0
M  V30 2926 C 281.303 -1.15985 -1.23466 0
M  V30 2927 O 282.509 -1.34176 -1.19987 0
M  V30 2928 H 278.884 -0.703095 -0.266761 0
M  V30 2929 H 280.855 -2.97613 -0.216542 0
M  V30 2930 C 279.604 -2.85264 -1.98796 0
M  V30 2931 H 278.927 -3.64623 -1.63983 0
M  V30 2932 H 280.367 -3.327 -2.62843 0
M  V30 2933 C 278.826 -1.85239 -2.81404 0
M  V30 2934 O 279.356 -1.34024 -3.78682 0
M  V30 2935 N 277.562 -1.53911 -2.46495 0
M  V30 2936 H 277.109 -1.95751 -1.67449 0
M  V30 2937 H 277.067 -0.872382 -3.02054 0
M  V30 2938 N 280.839 0.0985539 -1.57292 0
M  V30 2939 C 281.802 1.10402 -2.00858 0
M  V30 2940 C 282.802 1.33146 -0.901593 0
M  V30 2941 O 283.992 1.29318 -1.16716 0
M  V30 2942 C 281.124 2.45394 -2.36632 0
M  V30 2943 H 282.317 0.729099 -2.90902 0
M  V30 2944 H 279.87 0.343495 -1.52479 0
M  V30 2945 H 280.605 2.87769 -1.49531 0
M  V30 2946 H 280.39 2.30235 -3.17387 0
M  V30 2947 H 281.88 3.17718 -2.71007 0
M  V30 2948 N 282.317 1.53212 0.369288 0
M  V30 2949 C 283.564 1.69215 1.11232 0
M  V30 2950 C 283.892 0.442048 1.8941 0
M  V30 2951 O 283.147 -0.575944 1.87033 0
M  V30 2952 C 283.446 2.89101 2.10132 0
M  V30 2953 C 283.112 4.25758 1.48463 0
M  V30 2954 C 281.774 4.6292 1.31372 0
M  V30 2955 C 284.126 5.10757 1.03811 0
M  V30 2956 C 281.454 5.82722 0.68207 0
M  V30 2957 C 283.806 6.31201 0.420487 0
M  V30 2958 C 282.47 6.67079 0.237038 0
M  V30 2959 H 281.74 0.619201 0.407027 0
M  V30 2960 H 284.387 1.87391 0.394552 0
M  V30 2961 H 282.692 2.65421 2.88199 0
M  V30 2962 H 284.389 2.98676 2.6757 0
M  V30 2963 H 280.979 3.96494 1.62758 0
M  V30 2964 H 285.163 4.82599 1.1581 0
M  V30 2965 H 280.419 6.09113 0.528316 0
M  V30 2966 H 284.593 6.96368 0.0662874 0
M  V30 2967 H 282.22 7.59774 -0.254477 0
M  V30 2968 N 283.795 -0.628877 1.44509 0
M  V30 2969 C 285.023 -1.41554 1.50897 0
M  V30 2970 C 285.438 -1.8832 0.134564 0
M  V30 2971 O 284.795 -1.60969 -0.859965 0
M  V30 2972 C 284.846 -2.63435 2.47556 0
M  V30 2973 O 284.567 -2.18619 3.79654 0
M  V30 2974 C 286.068 -3.56537 2.63431 0
M  V30 2975 H 283.288 -0.434044 0.511709 0
M  V30 2976 H 285.832 -0.768895 1.89495 0
M  V30 2977 H 283.987 -3.24187 2.12089 0
M  V30 2978 H 284.401 -2.97652 4.31861 0
M  V30 2979 H 285.875 -4.38657 3.35088 0
M  V30 2980 H 286.352 -4.05493 1.68738 0
M  V30 2981 H 286.958 -3.01653 2.9981 0
M  V30 2982 N 285.273 -1.31445 -0.869486 0
M  V30 2983 C 286.203 -1.21727 -1.99261 0
M  V30 2984 C 287.184 -0.104359 -1.6978 0
M  V30 2985 O 288.369 -0.289038 -1.92037 0
M  V30 2986 C 285.499 -0.924317 -3.34774 0
M  V30 2987 C 284.453 -1.99685 -3.78563 0
M  V30 2988 C 283.779 -1.55658 -5.11541 0
M  V30 2989 C 285.079 -3.41003 -3.95619 0
M  V30 2990 H 286.773 -2.1569 -2.07649 0
M  V30 2991 H 284.319 -1.03839 -0.997675 0
M  V30 2992 H 286.272 -0.842934 -4.12883 0
M  V30 2993 H 284.996 0.0509793 -3.2656 0
M  V30 2994 H 283.655 -2.06813 -3.02694 0
M  V30 2995 H 283.303 -0.569132 -4.9977 0
M  V30 2996 H 283.003 -2.27409 -5.41811 0
M  V30 2997 H 284.527 -1.48928 -5.92159 0
M  V30 2998 H 285.941 -3.36547 -4.64122 0
M  V30 2999 H 284.338 -4.10975 -4.37286 0
M  V30 3000 H 285.408 -3.81754 -2.98985 0
M  V30 3001 N 286.751 1.08385 -1.14413 0
M  V30 3002 C 287.714 2.13486 -0.834048 0
M  V30 3003 C 288.714 1.59988 0.161418 0
M  V30 3004 O 289.904 1.74071 -0.0669575 0
M  V30 3005 C 287.036 3.4003 -0.243354 0
M  V30 3006 H 288.229 2.42425 -1.7655 0
M  V30 3007 H 285.782 1.24101 -0.950189 0
M  V30 3008 H 286.517 3.16726 0.696807 0
M  V30 3009 H 286.302 3.80157 -0.960367 0
M  V30 3010 H 287.792 4.17577 -0.0436242 0
M  V30 3011 N 288.23 0.939286 1.26551 0
M  V30 3012 C 289.178 0.43815 2.28436 0
M  V30 3013 C 290.172 -0.483587 1.62351 0
M  V30 3014 O 291.378 -0.362009 1.76322 0
M  V30 3015 H 287.753 0.123149 0.741848 0
M  V30 3016 H 289.724 1.31002 2.68106 0
M  V30 3017 C 288.473 -0.283052 3.46546 0
M  V30 3018 H 287.796 0.417043 3.97619 0
M  V30 3019 H 289.236 -0.597948 4.19763 0
M  V30 3020 C 287.695 -1.50018 3.01656 0
M  V30 3021 O 288.225 -2.59855 3.0633 0
M  V30 3022 N 286.431 -1.35608 2.57019 0
M  V30 3023 H 285.978 -0.46244 2.53415 0
M  V30 3024 H 285.936 -2.17165 2.27347 0
M  V30 3025 N 289.708 -1.40897 0.706093 0
M  V30 3026 C 290.618 -2.3455 0.0482286 0
M  V30 3027 C 291.634 -1.56796 -0.754396 0
M  V30 3028 O 292.81 -1.89228 -0.689538 0
M  V30 3029 C 289.875 -3.35625 -0.869303 0
M  V30 3030 C 288.936 -4.29261 -0.0576994 0
M  V30 3031 C 288.169 -5.25508 -0.931531 0
M  V30 3032 O 288.392 -5.27472 -2.17092 0
M  V30 3033 O 287.326 -6.00727 -0.375587 0
M  V30 3034 H 291.152 -2.92407 0.820476 0
M  V30 3035 H 288.737 -1.4193 0.4665 0
M  V30 3036 H 290.619 -3.97635 -1.39514 0
M  V30 3037 H 289.294 -2.80196 -1.62086 0
M  V30 3038 H 288.201 -3.70566 0.512988 0
M  V30 3039 H 289.534 -4.87817 0.655426 0
M  V30 3040 N 291.186 -0.45159 -1.50991 0
M  V30 3041 C 292.432 0.110237 -2.025 0
M  V30 3042 C 292.765 1.41109 -1.33424 0
M  V30 3043 O 292.04 1.89135 -0.453659 0
M  V30 3044 C 292.323 0.314271 -3.58726 0
M  V30 3045 C 292.176 -1.00623 -4.38401 0
M  V30 3046 C 293.495 1.07767 -4.26702 0
M  V30 3047 H 290.614 0.0385897 -0.735989 0
M  V30 3048 H 293.256 -0.593374 -1.80497 0
M  V30 3049 H 291.406 0.913601 -3.77605 0
M  V30 3050 H 293.078 -1.64064 -4.31139 0
M  V30 3051 H 291.321 -1.6075 -4.02917 0
M  V30 3052 H 291.992 -0.817341 -5.45915 0
M  V30 3053 H 294.468 0.56986 -4.12179 0
M  V30 3054 H 293.344 1.18921 -5.35863 0
M  V30 3055 H 293.605 2.10939 -3.88532 0
M  V30 3056 N 292.664 1.56529 -0.183458 0
M  V30 3057 C 293.941 1.88959 0.50536 0
M  V30 3058 C 294.321 1.09523 1.80466 0
M  V30 3059 O 293.669 0.19278 2.27685 0
M  V30 3060 C 293.879 3.41162 0.73547 0
M  V30 3061 C 295.227 4.11155 1.06005 0
M  V30 3062 O 296.251 3.46548 0.823594 0
M  V30 3063 O 295.11 5.25318 1.50675 0
M  V30 3064 H 292.204 0.78441 0.261973 0
M  V30 3065 H 294.75 1.68231 -0.222802 0
M  V30 3066 H 293.522 3.90874 -0.182561 0
M  V30 3067 H 293.145 3.67543 1.51651 0
M  V30 3068 N 294.142 -0.090211 1.57342 0
M  V30 3069 C 295.553 -0.644173 1.75235 0
M  V30 3070 C 295.904 -1.78865 0.806335 0
M  V30 3071 O 295.029 -2.16395 -0.0140128 0
M  V30 3072 C 295.624 -1.17532 3.1776 0
M  V30 3073 C 294.183 -1.67531 3.37061 0
M  V30 3074 C 293.33 -0.58693 2.71017 0
M  V30 3075 H 296.281 0.135884 1.58117 0
M  V30 3076 H 296.302 -2.04455 3.20902 0
M  V30 3077 H 295.814 -0.342138 3.86589 0
M  V30 3078 H 293.915 -2.53234 2.73319 0
M  V30 3079 H 294.028 -1.76493 4.45406 0
M  V30 3080 H 292.392 -1.02756 2.33052 0
M  V30 3081 H 293.175 0.235758 3.4249 0
M  V30 3082 N 295.62 -1.53406 -0.361157 0
M  V30 3083 C 296.567 -1.80156 -1.44265 0
M  V30 3084 C 297.537 -0.646183 -1.53015 0
M  V30 3085 O 298.722 -0.888818 -1.68833 0
M  V30 3086 C 295.862 -2.00116 -2.81154 0
M  V30 3087 C 294.975 -3.27833 -2.81335 0
M  V30 3088 C 294.11 -3.37957 -4.09828 0
M  V30 3089 C 293.149 -4.59689 -4.04168 0
M  V30 3090 N 292.286 -4.66942 -5.24318 0
M  V30 3091 H 297.126 -2.72438 -1.20754 0
M  V30 3092 H 294.663 -1.34954 -0.585296 0
M  V30 3093 H 296.621 -2.09677 -3.60682 0
M  V30 3094 H 295.251 -1.11167 -3.03054 0
M  V30 3095 H 294.303 -3.27204 -1.94014 0
M  V30 3096 H 295.615 -4.17442 -2.73027 0
M  V30 3097 H 294.769 -3.46853 -4.97773 0
M  V30 3098 H 293.508 -2.46372 -4.20894 0
M  V30 3099 H 292.513 -4.50889 -3.14609 0
M  V30 3100 H 293.738 -5.5262 -3.947 0
M  V30 3101 H 291.684 -3.7826 -5.35962 0
M  V30 3102 H 291.601 -5.50462 -5.18197 0
M  V30 3103 H 292.869 -4.80127 -6.14084 0
M  V30 3104 N 297.098 0.621204 -1.44841 0
M  V30 3105 C 298.061 1.71459 -1.521 0
M  V30 3106 C 299.061 1.55696 -0.401933 0
M  V30 3107 O 300.251 1.61011 -0.664925 0
M  V30 3108 C 297.383 3.10624 -1.40447 0
M  V30 3109 H 298.576 1.66394 -2.49506 0
M  V30 3110 H 296.129 0.835745 -1.3208 0
M  V30 3111 H 296.864 3.21277 -0.441737 0
M  V30 3112 H 296.649 3.23473 -2.21602 0
M  V30 3113 H 298.139 3.90293 -1.4853 0
M  V30 3114 N 298.576 1.31904 0.862503 0
M  V30 3115 C 299.526 1.16772 1.95827 0
M  V30 3116 C 300.51 0.0767098 1.60717 0
M  V30 3117 O 301.702 0.302407 1.74398 0
M  V30 3118 C 298.831 0.884858 3.317 0
M  V30 3119 C 297.917 2.0172 3.73055 0
M  V30 3120 N 298.308 3.265 3.86305 0
M  V30 3121 C 296.606 1.91861 4.02623 0
M  V30 3122 C 297.307 4.00616 4.2176 0
M  V30 3123 N 296.283 3.28847 4.32852 0
M  V30 3124 H 300.085 2.11382 2.04193 0
M  V30 3125 H 297.599 1.2357 1.05377 0
M  V30 3126 H 299.596 0.757419 4.09962 0
M  V30 3127 H 298.256 -0.0529448 3.24657 0
M  V30 3128 H 299.267 3.61529 3.70833 0
M  V30 3129 H 295.944 1.05593 4.03926 0
M  V30 3130 H 297.334 5.08182 4.39546 0
M  V30 3131 N 300.054 -1.07777 1.14986 0
M  V30 3132 C 300.984 -2.16865 0.865557 0
M  V30 3133 C 301.965 -1.69123 -0.182083 0
M  V30 3134 O 303.15 -1.94164 -0.0373815 0
M  V30 3135 C 300.28 -3.45539 0.349313 0
M  V30 3136 C 299.234 -4.06708 1.33313 0
M  V30 3137 C 298.56 -5.30411 0.675918 0
M  V30 3138 C 299.86 -4.47241 2.69764 0
M  V30 3139 H 301.554 -2.40905 1.77778 0
M  V30 3140 H 299.1 -1.15781 0.856203 0
M  V30 3141 H 301.053 -4.21174 0.137983 0
M  V30 3142 H 299.777 -3.21072 -0.598362 0
M  V30 3143 H 298.436 -3.33112 1.53075 0
M  V30 3144 H 298.084 -5.02232 -0.277767 0
M  V30 3145 H 297.784 -5.72293 1.33244 0
M  V30 3146 H 299.308 -6.08755 0.474262 0
M  V30 3147 H 300.722 -5.14025 2.53873 0
M  V30 3148 H 299.119 -5.00062 3.3175 0
M  V30 3149 H 300.189 -3.58818 3.26156 0
M  V30 3150 N 301.532 -0.945985 -1.26051 0
M  V30 3151 C 302.465 -0.403619 -2.24602 0
M  V30 3152 C 303.443 0.510241 -1.54387 0
M  V30 3153 O 304.627 0.446593 -1.83133 0
M  V30 3154 C 301.754 0.419564 -3.36091 0
M  V30 3155 C 300.8 -0.433454 -4.24292 0
M  V30 3156 S 301.633 -1.86037 -5.02146 0
M  V30 3157 C 302.789 -1.04538 -6.17108 0
M  V30 3158 H 303.022 -1.23883 -2.7026 0
M  V30 3159 H 300.555 -0.749438 -1.34992 0
M  V30 3160 H 302.513 0.888595 -4.00767 0
M  V30 3161 H 301.174 1.22951 -2.89036 0
M  V30 3162 H 300.367 0.197486 -5.03613 0
M  V30 3163 H 299.969 -0.837357 -3.64506 0
M  V30 3164 H 302.261 -0.289923 -6.76879 0
M  V30 3165 H 303.204 -1.81222 -6.84518 0
M  V30 3166 H 303.612 -0.579319 -5.61519 0
M  V30 3167 N 303.011 1.40521 -0.713556 0
M  V30 3168 C 304.241 2.0494 -0.261395 0
M  V30 3169 C 304.649 1.53861 1.10107 0
M  V30 3170 O 303.992 0.689321 1.70276 0
M  V30 3171 C 304.054 3.59138 -0.161227 0
M  V30 3172 C 303.718 4.33096 -1.45865 0
M  V30 3173 C 304.715 4.61182 -2.40016 0
M  V30 3174 C 302.4 4.72043 -1.71701 0
M  V30 3175 C 304.394 5.27196 -3.58251 0
M  V30 3176 C 302.081 5.37789 -2.90218 0
M  V30 3177 C 303.079 5.65295 -3.83315 0
M  V30 3178 O 302.767 6.29683 -4.99754 0
M  V30 3179 H 302.499 0.666041 -0.115608 0
M  V30 3180 H 305.053 1.80954 -0.971849 0
M  V30 3181 H 303.283 3.81936 0.605153 0
M  V30 3182 H 304.972 4.05091 0.256105 0
M  V30 3183 H 305.738 4.31559 -2.21318 0
M  V30 3184 H 301.617 4.50003 -1.00092 0
M  V30 3185 H 305.161 5.48582 -4.30934 0
M  V30 3186 H 301.058 5.66831 -3.08825 0
M  V30 3187 H 301.826 6.4818 -4.99805 0
M  V30 3188 N 304.489 0.459591 1.5075 0
M  V30 3189 C 305.437 -0.354678 2.2988 0
M  V30 3190 C 306.431 -1.00086 1.36672 0
M  V30 3191 O 307.637 -0.933277 1.53915 0
M  V30 3192 H 304.012 -0.13321 0.740107 0
M  V30 3193 H 305.983 0.333269 2.96533 0
M  V30 3194 C 304.732 -1.43073 3.169 0
M  V30 3195 H 304.055 -0.942882 3.88523 0
M  V30 3196 H 305.495 -1.97328 3.75284 0
M  V30 3197 C 303.954 -2.42633 2.33732 0
M  V30 3198 O 304.484 -3.47658 2.01238 0
M  V30 3199 N 302.69 -2.14066 1.9653 0
M  V30 3200 H 302.237 -1.28685 2.23155 0
M  V30 3201 H 302.195 -2.80917 1.41185 0
M  V30 3202 N 305.967 -1.56429 0.191757 0
M  V30 3203 C 307.244 -1.89224 -0.495332 0
M  V30 3204 C 307.624 -1.10478 -1.79883 0
M  V30 3205 O 306.972 -0.204852 -2.2758 0
M  V30 3206 C 307.182 -3.41548 -0.717367 0
M  V30 3207 C 308.53 -4.11711 -1.03823 0
M  V30 3208 O 309.554 -3.4698 -0.805204 0
M  V30 3209 O 308.413 -5.2611 -1.47887 0
M  V30 3210 H 305.507 -0.785788 -0.25781 0
M  V30 3211 H 308.053 -1.68111 0.231721 0
M  V30 3212 H 306.825 -3.90772 0.203287 0
M  V30 3213 H 306.448 -3.68342 -1.497 0
M  V30 3214 N 307.445 0.0818655 -1.57387 0
M  V30 3215 C 308.675 0.794954 -1.90694 0
M  V30 3216 C 309.083 1.72147 -0.784982 0
M  V30 3217 O 308.426 1.81974 0.251196 0
M  V30 3218 C 308.488 1.65042 -3.19376 0
M  V30 3219 C 308.152 0.894337 -4.48164 0
M  V30 3220 C 309.149 0.21813 -5.19442 0
M  V30 3221 C 306.834 0.864495 -4.94805 0
M  V30 3222 C 308.828 -0.477802 -6.35607 0
M  V30 3223 C 306.515 0.164785 -6.10878 0
M  V30 3224 C 307.513 -0.505173 -6.81129 0
M  V30 3225 O 307.201 -1.19363 -7.94989 0
M  V30 3226 H 306.933 0.231779 -0.635023 0
M  V30 3227 H 309.487 0.059493 -2.05314 0
M  V30 3228 H 307.717 2.42844 -3.00938 0
M  V30 3229 H 309.406 2.24127 -3.38411 0
M  V30 3230 H 310.172 0.232558 -4.84442 0
M  V30 3231 H 306.051 1.37542 -4.40004 0
M  V30 3232 H 309.595 -1.00129 -6.90377 0
M  V30 3233 H 305.492 0.148249 -6.4533 0
M  V30 3234 H 306.26 -1.10188 -8.11049 0
M  V30 3235 N 308.923 1.53595 0.353017 0
M  V30 3236 C 309.871 1.81605 1.45335 0
M  V30 3237 C 310.865 0.685923 1.54892 0
M  V30 3238 O 312.071 0.869095 1.57628 0
M  V30 3239 H 308.446 0.575204 0.484401 0
M  V30 3240 H 310.417 2.73679 1.18921 0
M  V30 3241 C 309.166 2.03406 2.81995 0
M  V30 3242 H 308.489 2.89814 2.75405 0
M  V30 3243 H 309.929 2.26975 3.58132 0
M  V30 3244 C 308.388 0.816794 3.26849 0
M  V30 3245 O 308.918 0.0115856 4.01698 0
M  V30 3246 N 307.124 0.636682 2.8354 0
M  V30 3247 H 306.671 1.2931 2.22793 0
M  V30 3248 H 306.629 -0.176336 3.13905 0
M  V30 3249 N 310.401 -0.613514 1.45168 0
M  V30 3250 C 311.65 -1.36874 1.4815 0
M  V30 3251 C 311.963 -1.952 0.124982 0
M  V30 3252 O 313.169 -2.71481 0.0324176 0
M  V30 3253 C 311.625 -2.47905 2.60904 0
M  V30 3254 C 311.233 -1.96016 4.02842 0
M  V30 3255 C 312.977 -3.24965 2.73126 0
M  V30 3256 C 310.884 -3.04494 5.06988 0
M  V30 3257 H 309.814 -0.514428 0.551253 0
M  V30 3258 H 312.465 -0.658182 1.7129 0
M  V30 3259 H 310.847 -3.21618 2.31037 0
M  V30 3260 H 312.021 -1.29051 4.4236 0
M  V30 3261 H 310.336 -1.31719 3.95018 0
M  V30 3262 H 312.933 -4.05865 3.48106 0
M  V30 3263 H 313.276 -3.75588 1.79553 0
M  V30 3264 H 313.809 -2.5835 3.0249 0
M  V30 3265 H 310.548 -2.58795 6.0225 0
M  V30 3266 H 310.068 -3.70044 4.72046 0
M  V30 3267 H 311.747 -3.68976 5.31475 0
M  V30 3268 N 311.879 -1.3236 -0.855495 0
M  V30 3269 C 312.789 -1.23221 -1.99634 0
M  V30 3270 C 313.805 -0.145983 -1.73387 0
M  V30 3271 O 314.981 -0.366502 -1.98037 0
M  V30 3272 C 312.046 -0.954782 -3.33294 0
M  V30 3273 C 311.107 -2.12937 -3.72769 0
M  V30 3274 C 310.34 -1.86508 -5.00051 0
M  V30 3275 O 310.563 -0.807231 -5.64659 0
M  V30 3276 O 309.497 -2.72591 -5.36636 0
M  V30 3277 H 313.323 -2.19126 -2.1028 0
M  V30 3278 H 310.908 -1.12241 -0.986018 0
M  V30 3279 H 312.79 -0.816519 -4.13414 0
M  V30 3280 H 311.465 -0.0258854 -3.2369 0
M  V30 3281 H 310.372 -2.3231 -2.93228 0
M  V30 3282 H 311.705 -3.04102 -3.87018 0
M  V30 3283 N 313.357 1.07166 -1.15556 0
M  V30 3284 C 314.773 1.31899 -0.898603 0
M  V30 3285 C 314.973 1.96333 0.453383 0
M  V30 3286 O 314.029 2.22438 1.19489 0
M  V30 3287 C 315.342 2.20826 -2.04099 0
M  V30 3288 C 316.89 2.34269 -2.07574 0
M  V30 3289 C 317.365 3.26546 -3.21141 0
M  V30 3290 N 318.856 3.34127 -3.20801 0
M  V30 3291 C 319.591 4.05595 -4.05315 0
M  V30 3292 N 319.087 4.79661 -4.99897 0
M  V30 3293 N 320.88 4.01555 -3.93332 0
M  V30 3294 H 313.031 0.637302 -2.02613 0
M  V30 3295 H 315.294 0.343468 -0.883591 0
M  V30 3296 H 315 1.80744 -3.01703 0
M  V30 3297 H 314.874 3.21364 -1.97496 0
M  V30 3298 H 317.261 2.73603 -1.10568 0
M  V30 3299 H 317.342 1.33429 -2.18244 0
M  V30 3300 H 316.986 2.87931 -4.184 0
M  V30 3301 H 316.916 4.27345 -3.07708 0
M  V30 3302 H 319.407 2.81336 -2.52306 0
M  V30 3303 H 319.72 5.31694 -5.60822 0
M  V30 3304 H 318.065 4.78671 -5.03884 0
M  V30 3305 H 321.256 3.42806 -3.18751 0
M  V30 3306 H 321.429 4.56987 -4.5942 0
M  V30 3307 N 314.835 0.952656 1.25548 0
M  V30 3308 C 316.063 0.623496 1.97282 0
M  V30 3309 C 316.478 -0.803987 1.70826 0
M  V30 3310 O 315.835 -1.53755 0.983147 0
M  V30 3311 C 315.886 0.870209 3.5087 0
M  V30 3312 O 315.607 2.24156 3.76412 0
M  V30 3313 C 317.108 0.553164 4.39835 0
M  V30 3314 H 314.328 0.233931 0.628902 0
M  V30 3315 H 316.872 1.27649 1.59768 0
M  V30 3316 H 315.027 0.263652 3.86502 0
M  V30 3317 H 315.441 2.31021 4.70882 0
M  V30 3318 H 316.915 0.776342 5.46513 0
M  V30 3319 H 317.392 -0.512215 4.36203 0
M  V30 3320 H 317.998 1.13896 4.09766 0
M  V30 3321 N 316.313 -1.40141 0.720998 0
M  V30 3322 C 317.561 -2.0039 0.262323 0
M  V30 3323 C 317.882 -1.57469 -1.15015 0
M  V30 3324 O 317.152 -0.816582 -1.78069 0
M  V30 3325 H 315.732 -0.741063 0.093996 0
M  V30 3326 H 318.394 -1.71398 0.927835 0
M  V30 3327 H 317.49 -3.10658 0.299671 0
M  V30 3328 N 317.792 -0.46758 -1.50504 0
M  V30 3329 C 318.739 0.328413 -2.28452 0
M  V30 3330 C 319.709 0.990313 -1.33349 0
M  V30 3331 O 320.894 1.00343 -1.62284 0
M  V30 3332 C 318.034 1.40648 -3.15138 0
M  V30 3333 C 317.147 0.759709 -4.25267 0
M  V30 3334 C 316.282 1.81537 -4.99217 0
M  V30 3335 C 315.321 1.14866 -6.01226 0
M  V30 3336 N 314.458 2.14702 -6.68467 0
M  V30 3337 H 319.298 -0.342603 -2.96024 0
M  V30 3338 H 316.835 -0.180801 -1.45985 0
M  V30 3339 H 318.793 2.04315 -3.63746 0
M  V30 3340 H 317.423 2.04671 -2.49619 0
M  V30 3341 H 316.475 0.0105671 -3.80399 0
M  V30 3342 H 317.787 0.233243 -4.98254 0
M  V30 3343 H 316.941 2.52793 -5.51526 0
M  V30 3344 H 315.68 2.37564 -4.25928 0
M  V30 3345 H 314.685 0.42171 -5.4818 0
M  V30 3346 H 315.91 0.595334 -6.76485 0
M  V30 3347 H 313.856 2.69752 -5.97972 0
M  V30 3348 H 313.773 1.6703 -7.37317 0
M  V30 3349 H 315.041 2.85348 -7.25394 0
M  V30 3350 N 319.27 1.56325 -0.20005 0
M  V30 3351 C 320.686 1.58839 0.155716 0
M  V30 3352 C 320.886 1.21636 1.60645 0
M  V30 3353 O 319.942 0.941437 2.34293 0
M  V30 3354 C 321.255 3.0032 -0.151124 0
M  V30 3355 C 322.803 3.12866 -0.0916284 0
M  V30 3356 C 323.278 4.56488 -0.371845 0
M  V30 3357 N 324.769 4.62089 -0.320641 0
M  V30 3358 C 325.504 5.71116 -0.511243 0
M  V30 3359 N 325 6.88592 -0.762461 0
M  V30 3360 N 326.793 5.60335 -0.445157 0
M  V30 3361 H 318.944 1.78788 -1.14668 0
M  V30 3362 H 321.207 0.829996 -0.458051 0
M  V30 3363 H 320.913 3.32117 -1.15721 0
M  V30 3364 H 320.787 3.73257 0.543986 0
M  V30 3365 H 323.174 2.80878 0.905065 0
M  V30 3366 H 323.255 2.42304 -0.81989 0
M  V30 3367 H 322.899 4.89189 -1.36588 0
M  V30 3368 H 322.829 5.25246 0.377362 0
M  V30 3369 H 325.32 3.77665 -0.13329 0
M  V30 3370 H 325.633 7.67581 -0.896576 0
M  V30 3371 H 323.978 6.90387 -0.799412 0
M  V30 3372 H 327.169 4.67436 -0.249278 0
M  V30 3373 H 327.342 6.45243 -0.597116 0
M  V30 3374 N 320.748 -0.0735177 1.57428 0
M  V30 3375 C 321.658 -1.10547 2.06922 0
M  V30 3376 C 322.674 -1.42506 0.998402 0
M  V30 3377 O 323.85 -1.52717 1.31299 0
M  V30 3378 C 320.915 -2.40019 2.50184 0
M  V30 3379 C 319.976 -2.15046 3.71556 0
M  V30 3380 C 319.209 -3.38345 4.12745 0
M  V30 3381 O 319.432 -4.47399 3.53822 0
M  V30 3382 O 318.366 -3.2666 5.05546 0
M  V30 3383 H 322.192 -0.715013 2.95163 0
M  V30 3384 H 319.777 -0.287531 1.46607 0
M  V30 3385 H 321.659 -3.16218 2.78539 0
M  V30 3386 H 320.334 -2.78447 1.65072 0
M  V30 3387 H 319.241 -1.36558 3.48285 0
M  V30 3388 H 320.574 -1.81499 4.57514 0
M  V30 3389 N 322.226 -1.5378 -0.344866 0
M  V30 3390 C 323.189 -1.80981 -1.40637 0
M  V30 3391 C 324.189 -0.680816 -1.45676 0
M  V30 3392 O 325.379 -0.949095 -1.46075 0
M  V30 3393 C 322.511 -1.95063 -2.79577 0
M  V30 3394 H 323.704 -2.75803 -1.17783 0
M  V30 3395 H 321.257 -1.45173 -0.579181 0
M  V30 3396 H 321.992 -1.02379 -3.07716 0
M  V30 3397 H 321.777 -2.77198 -2.77315 0
M  V30 3398 H 323.267 -2.17629 -3.56409 0
M  V30 3399 N 323.704 0.605807 -1.45491 0
M  V30 3400 C 324.932 1.39136 -1.5313 0
M  V30 3401 C 325.347 1.88082 -0.164507 0
M  V30 3402 O 324.704 1.62316 0.834247 0
M  V30 3403 C 324.755 2.59463 -2.51716 0
M  V30 3404 O 324.476 2.12551 -3.83084 0
M  V30 3405 C 325.977 3.52301 -2.6907 0
M  V30 3406 H 323.197 0.425849 -0.51855 0
M  V30 3407 H 325.741 0.73865 -1.90694 0
M  V30 3408 H 323.896 3.20772 -2.17219 0
M  V30 3409 H 324.31 2.90744 -4.36541 0
M  V30 3410 H 325.784 4.33271 -3.42024 0
M  V30 3411 H 326.261 4.02757 -1.75167 0
M  V30 3412 H 326.867 2.96845 -3.04571 0
M  V30 3413 N 325.182 1.32811 0.848464 0
M  V30 3414 C 326.428 1.23907 1.60546 0
M  V30 3415 C 326.761 -0.197161 1.93197 0
M  V30 3416 O 326.036 -1.13596 1.5788 0
M  V30 3417 C 326.319 2.10489 2.92175 0
M  V30 3418 C 326.172 3.62522 2.66266 0
M  V30 3419 C 327.491 1.97075 3.93509 0
M  V30 3420 H 324.61 0.451459 0.58254 0
M  V30 3421 H 327.252 1.62818 0.979296 0
M  V30 3422 H 325.402 1.77434 3.45614 0
M  V30 3423 H 327.074 4.05821 2.19334 0
M  V30 3424 H 325.317 3.84879 2.00126 0
M  V30 3425 H 325.988 4.18437 3.6002 0
M  V30 3426 H 328.464 2.26045 3.49346 0
M  V30 3427 H 327.34 2.59923 4.83457 0
M  V30 3428 H 327.601 0.940186 4.31987 0
M  V30 3429 N 326.66 -1.06551 1.16123 0
M  V30 3430 C 327.57 -2.17484 0.879662 0
M  V30 3431 C 328.586 -1.73377 -0.147104 0
M  V30 3432 O 329.762 -2.01379 0.0289128 0
M  V30 3433 C 326.827 -3.44591 0.381829 0
M  V30 3434 C 325.888 -4.0322 1.4735 0
M  V30 3435 C 325.121 -5.24261 0.999324 0
M  V30 3436 O 325.344 -5.70198 -0.151957 0
M  V30 3437 O 324.278 -5.74775 1.78653 0
M  V30 3438 H 328.104 -2.44075 1.80724 0
M  V30 3439 H 325.689 -1.16042 0.940992 0
M  V30 3440 H 327.571 -4.21254 0.111053 0
M  V30 3441 H 326.246 -3.19532 -0.51777 0
M  V30 3442 H 325.153 -3.2806 1.79798 0
M  V30 3443 H 326.486 -4.32568 2.34831 0
M  V30 3444 N 328.138 -0.959301 -1.25041 0
M  V30 3445 C 329.071 -0.427418 -2.24161 0
M  V30 3446 C 330.049 0.493837 -1.54919 0
M  V30 3447 O 331.233 0.427144 -1.83597 0
M  V30 3448 C 328.36 0.383893 -3.36517 0
M  V30 3449 C 327.406 -0.478431 -4.23808 0
M  V30 3450 S 328.239 -1.91353 -5.00144 0
M  V30 3451 C 329.395 -1.11077 -6.15965 0
M  V30 3452 H 329.628 -1.26743 -2.6893 0
M  V30 3453 H 327.161 -0.763714 -1.34189 0
M  V30 3454 H 329.119 0.846039 -4.01687 0
M  V30 3455 H 327.78 1.19878 -2.90324 0
M  V30 3456 H 326.973 0.14406 -5.03794 0
M  V30 3457 H 326.575 -0.87597 -3.63597 0
M  V30 3458 H 328.867 -0.361699 -6.76534 0
M  V30 3459 H 329.81 -1.88472 -6.82557 0
M  V30 3460 H 330.218 -0.638843 -5.60873 0
M  V30 3461 N 329.616 1.39756 -0.72842 0
M  V30 3462 C 330.865 1.99879 -0.270407 0
M  V30 3463 C 331.178 1.58449 1.14688 0
M  V30 3464 O 332.384 2.11362 1.70407 0
M  V30 3465 C 330.84 3.57292 -0.43252 0
M  V30 3466 C 330.448 4.07688 -1.85727 0
M  V30 3467 C 332.192 4.24485 -0.0359507 0
M  V30 3468 C 330.099 5.5765 -1.96928 0
M  V30 3469 H 329.029 0.747689 -0.0973472 0
M  V30 3470 H 331.68 1.59837 -0.901355 0
M  V30 3471 H 330.062 3.95097 0.267219 0
M  V30 3472 H 331.236 3.81231 -2.58843 0
M  V30 3473 H 329.551 3.53135 -2.20646 0
M  V30 3474 H 332.148 5.34609 -0.0987484 0
M  V30 3475 H 332.491 4.03915 1.00787 0
M  V30 3476 H 333.024 3.9183 -0.686604 0
M  V30 3477 H 329.763 5.8309 -2.99476 0
M  V30 3478 H 329.283 5.8593 -1.28241 0
M  V30 3479 H 330.962 6.22957 -1.74737 0
M  V30 3480 N 331.094 0.475555 1.50254 0
M  V30 3481 C 332.004 -0.321501 2.32387 0
M  V30 3482 C 333.02 -0.991755 1.42969 0
M  V30 3483 O 334.196 -0.978747 1.76018 0
M  V30 3484 C 331.261 -1.38667 3.17762 0
M  V30 3485 C 330.322 -0.732538 4.23004 0
M  V30 3486 C 329.555 -1.74695 5.04299 0
M  V30 3487 O 329.778 -2.97399 4.86734 0
M  V30 3488 O 328.712 -1.31631 5.8733 0
M  V30 3489 H 332.538 0.350071 3.01676 0
M  V30 3490 H 330.123 0.237321 1.47503 0
M  V30 3491 H 332.005 -2.00354 3.70724 0
M  V30 3492 H 330.68 -2.04163 2.51196 0
M  V30 3493 H 329.587 -0.0765902 3.74022 0
M  V30 3494 H 330.92 -0.120452 4.92053 0
M  V30 3495 N 332.573 -1.56217 0.208337 0
M  V30 3496 C 333.989 -1.58919 -0.14729 0
M  V30 3497 C 334.189 -1.22486 -1.59998 0
M  V30 3498 O 333.245 -0.953849 -2.3379 0
M  V30 3499 C 334.558 -3.00236 0.167048 0
M  V30 3500 C 336.106 -3.12813 0.108219 0
M  V30 3501 C 336.581 -4.56284 0.396049 0
M  V30 3502 N 338.072 -4.61912 0.345142 0
M  V30 3503 C 338.807 -5.70837 0.541523 0
M  V30 3504 N 338.303 -6.88178 0.798968 0
M  V30 3505 N 340.096 -5.60091 0.474867 0
M  V30 3506 H 332.247 -1.78177 1.15614 0
M  V30 3507 H 334.51 -0.827555 0.462446 0
M  V30 3508 H 334.216 -3.31499 1.1748 0
M  V30 3509 H 334.09 -3.7354 -0.524184 0
M  V30 3510 H 336.477 -2.81354 -0.890157 0
M  V30 3511 H 336.558 -2.41866 0.832729 0
M  V30 3512 H 336.202 -4.88458 1.3918 0
M  V30 3513 H 336.132 -5.25439 -0.349502 0
M  V30 3514 H 338.623 -3.77589 0.153316 0
M  V30 3515 H 338.936 -7.67095 0.93727 0
M  V30 3516 H 337.281 -6.89953 0.836013 0
M  V30 3517 H 340.472 -4.67297 0.274064 0
M  V30 3518 H 340.645 -6.44917 0.631326 0
M  V30 3519 N 334.051 0.0651679 -1.57465 0
M  V30 3520 C 334.981 1.07693 -2.07182 0
M  V30 3521 C 335.962 1.39962 -0.966673 0
M  V30 3522 O 337.147 1.49475 -1.2398 0
M  V30 3523 C 334.277 2.3885 -2.52127 0
M  V30 3524 C 333.231 2.20917 -3.66579 0
M  V30 3525 C 332.557 3.57515 -3.97601 0
M  V30 3526 C 333.857 1.62493 -4.9638 0
M  V30 3527 H 335.551 0.663199 -2.91962 0
M  V30 3528 H 333.097 0.317569 -1.40455 0
M  V30 3529 H 335.05 3.09928 -2.85522 0
M  V30 3530 H 333.774 2.82215 -1.64384 0
M  V30 3531 H 332.433 1.52279 -3.33477 0
M  V30 3532 H 332.081 3.98463 -3.06979 0
M  V30 3533 H 331.781 3.46353 -4.74672 0
M  V30 3534 H 333.305 4.30013 -4.33499 0
M  V30 3535 H 334.719 2.23445 -5.27963 0
M  V30 3536 H 333.116 1.62009 -5.77818 0
M  V30 3537 H 334.186 0.587041 -4.81333 0
M  V30 3538 N 335.529 1.53961 0.336706 0
M  V30 3539 C 336.461 1.78751 1.4346 0
M  V30 3540 C 337.474 0.669019 1.48418 0
M  V30 3541 O 338.663 0.945884 1.51378 0
M  V30 3542 C 335.763 1.87844 2.82078 0
M  V30 3543 C 334.936 3.17854 3.00479 0
M  V30 3544 C 333.995 3.17816 4.19379 0
M  V30 3545 O 333.021 3.91511 4.13168 0
M  V30 3546 N 334.223 2.40669 5.2826 0
M  V30 3547 H 336.988 2.73493 1.22563 0
M  V30 3548 H 334.549 1.53096 0.526625 0
M  V30 3549 H 336.541 1.85261 3.59806 0
M  V30 3550 H 335.111 1.00257 2.96086 0
M  V30 3551 H 334.331 3.33504 2.10163 0
M  V30 3552 H 335.619 4.03718 3.0966 0
M  V30 3553 H 335.017 1.8036 5.36178 0
M  V30 3554 H 333.574 2.43877 6.04456 0
M  V30 3555 N 337.007 -0.598083 1.45811 0
M  V30 3556 C 337.954 -1.7082 1.55207 0
M  V30 3557 C 338.924 -1.61278 0.39732 0
M  V30 3558 O 340.109 -1.80717 0.612038 0
M  V30 3559 C 337.249 -3.09144 1.53376 0
M  V30 3560 C 336.362 -3.29423 2.79472 0
M  V30 3561 C 335.497 -4.57907 2.69248 0
M  V30 3562 C 334.536 -4.71476 3.90354 0
M  V30 3563 N 333.673 -5.9127 3.78608 0
M  V30 3564 H 338.513 -1.62125 2.50039 0
M  V30 3565 H 336.05 -0.790389 1.24062 0
M  V30 3566 H 338.008 -3.89186 1.50301 0
M  V30 3567 H 336.638 -3.16773 0.620876 0
M  V30 3568 H 335.69 -2.43091 2.92594 0
M  V30 3569 H 337.002 -3.3532 3.69272 0
M  V30 3570 H 336.156 -5.46157 2.64192 0
M  V30 3571 H 334.895 -4.54423 1.77063 0
M  V30 3572 H 333.9 -3.81648 3.95759 0
M  V30 3573 H 335.125 -4.76751 4.83617 0
M  V30 3574 H 333.071 -5.88813 2.89199 0
M  V30 3575 H 332.988 -5.98369 4.6205 0
M  V30 3576 H 334.256 -6.81992 3.77501 0
M  V30 3577 N 338.485 -1.33259 -0.841409 0
M  V30 3578 C 339.901 -1.12538 -1.13169 0
M  V30 3579 C 340.101 0.0854037 -2.01319 0
M  V30 3580 O 339.157 0.766417 -2.40587 0
M  V30 3581 C 340.47 -2.41156 -1.79623 0
M  V30 3582 C 342.018 -2.47038 -1.922 0
M  V30 3583 C 342.493 -3.7561 -2.6207 0
M  V30 3584 N 343.984 -3.76667 -2.69585 0
M  V30 3585 C 344.719 -4.72861 -3.2433 0
M  V30 3586 N 344.215 -5.79428 -3.79783 0
M  V30 3587 N 346.008 -4.6034 -3.22558 0
M  V30 3588 H 338.159 -2.10868 -0.254676 0
M  V30 3589 H 340.422 -0.931615 -0.175493 0
M  V30 3590 H 340.128 -3.29747 -1.22311 0
M  V30 3591 H 340.002 -2.53114 -2.79666 0
M  V30 3592 H 342.389 -1.58898 -2.48667 0
M  V30 3593 H 342.47 -2.39022 -0.911148 0
M  V30 3594 H 342.114 -4.64131 -2.06263 0
M  V30 3595 H 342.044 -3.80902 -3.63622 0
M  V30 3596 H 344.535 -2.99648 -2.30259 0
M  V30 3597 H 344.848 -6.48867 -4.19752 0
M  V30 3598 H 343.193 -5.83166 -3.78078 0
M  V30 3599 H 346.384 -3.76244 -2.78492 0
M  V30 3600 H 346.557 -5.35478 -3.64921 0
M  V30 3601 N 339.963 1.05934 -1.16686 0
M  V30 3602 C 341.211 1.78447 -0.948744 0
M  V30 3603 C 341.532 1.87813 0.524523 0
M  V30 3604 O 340.802 1.38945 1.38098 0
M  V30 3605 H 339.382 0.660971 -0.348033 0
M  V30 3606 H 342.044 1.27947 -1.47022 0
M  V30 3607 H 341.14 2.80394 -1.37061 0
M  V30 3608 N 341.441 0.965919 1.2453 0
M  V30 3609 C 342.374 0.4393 2.23932 0
M  V30 3610 C 343.352 -0.485615 1.55179 0
M  V30 3611 O 344.536 -0.417402 1.83821 0
M  V30 3612 C 341.663 -0.366042 3.36716 0
M  V30 3613 C 340.709 0.5009 4.23548 0
M  V30 3614 S 341.542 1.94002 4.99123 0
M  V30 3615 C 342.698 1.14342 6.15367 0
M  V30 3616 H 342.931 1.28167 2.68254 0
M  V30 3617 H 340.464 0.770819 1.33782 0
M  V30 3618 H 342.422 -0.824724 4.0213 0
M  V30 3619 H 341.083 -1.18337 2.90956 0
M  V30 3620 H 340.276 -0.117341 5.03863 0
M  V30 3621 H 339.878 0.89524 3.63127 0
M  V30 3622 H 342.17 0.397572 6.76332 0
M  V30 3623 H 343.113 1.92089 6.81548 0
M  V30 3624 H 343.521 0.668579 5.60527 0
M  V30 3625 N 342.919 -1.39368 0.735821 0
M  V30 3626 C 344.33 -1.83313 0.354015 0
M  V30 3627 C 344.681 -1.61461 -1.11466 0
M  V30 3628 O 343.806 -1.10621 -1.85989 0
M  V30 3629 C 344.401 -3.32781 0.635769 0
M  V30 3630 C 342.96 -3.75142 0.307448 0
M  V30 3631 C 342.107 -2.62358 0.897974 0
M  V30 3632 H 345.058 -1.28349 0.933398 0
M  V30 3633 H 345.079 -3.80388 -0.0921773 0
M  V30 3634 H 344.591 -3.48654 1.70476 0
M  V30 3635 H 342.692 -3.64857 -0.755674 0
M  V30 3636 H 342.805 -4.72532 0.790583 0
M  V30 3637 H 341.169 -2.52624 0.324551 0
M  V30 3638 H 341.952 -2.81036 1.97164 0
M  V30 3639 N 344.397 -0.483516 -1.5 0
M  V30 3640 C 345.646 0.0689102 -2.01582 0
M  V30 3641 C 345.959 1.39655 -1.36952 0
M  V30 3642 O 347.165 2.03465 -1.79762 0
M  V30 3643 C 345.621 0.173302 -3.59483 0
M  V30 3644 C 345.229 -1.14665 -4.33077 0
M  V30 3645 C 346.973 0.677024 -4.19066 0
M  V30 3646 C 344.88 -1.00537 -5.82792 0
M  V30 3647 H 343.81 0.0295277 -0.753422 0
M  V30 3648 H 346.461 -0.620295 -1.72698 0
M  V30 3649 H 344.843 0.926569 -3.85007 0
M  V30 3650 H 346.017 -1.91184 -4.19268 0
M  V30 3651 H 344.332 -1.58244 -3.85159 0
M  V30 3652 H 346.929 0.799952 -5.28682 0
M  V30 3653 H 347.272 1.67151 -3.81269 0
M  V30 3654 H 347.805 -0.0192083 -3.97795 0
M  V30 3655 H 344.544 -1.9736 -6.25083 0
M  V30 3656 H 344.064 -0.280776 -5.99142 0
M  V30 3657 H 345.743 -0.677 -6.43448 0
M  V30 3658 N 345.875 1.56104 -0.216619 0
M  V30 3659 C 346.825 2.16703 0.708798 0
M  V30 3660 C 347.809 1.11392 1.16106 0
M  V30 3661 O 349.001 1.37395 1.11587 0
M  V30 3662 C 346.13 2.84666 1.91886 0
M  V30 3663 C 345.216 3.97195 1.48651 0
M  V30 3664 N 345.607 4.99959 0.766434 0
M  V30 3665 C 343.905 4.09193 1.77418 0
M  V30 3666 C 344.606 5.79126 0.546659 0
M  V30 3667 N 343.582 5.32315 1.10188 0
M  V30 3668 H 347.384 2.93516 0.150162 0
M  V30 3669 H 344.898 1.6239 -0.0176768 0
M  V30 3670 H 346.895 3.26486 2.59253 0
M  V30 3671 H 345.555 2.09347 2.48202 0
M  V30 3672 H 346.566 5.16197 0.419634 0
M  V30 3673 H 343.243 3.45021 2.35088 0
M  V30 3674 H 344.633 6.71895 -0.026103 0
M  V30 3675 N 347.353 -0.0568162 1.57498 0
M  V30 3676 C 348.601 -0.751617 1.87604 0
M  V30 3677 C 348.922 -1.77351 0.81066 0
M  V30 3678 O 348.192 -1.95254 -0.159018 0
M  V30 3679 H 346.772 -0.280583 0.692302 0
M  V30 3680 H 349.434 -0.0293483 1.94878 0
M  V30 3681 H 348.53 -1.25852 2.856 0
M  V30 3682 N 348.832 -1.54138 -0.328536 0
M  V30 3683 C 349.762 -1.86167 -1.40939 0
M  V30 3684 C 350.743 -0.718044 -1.54202 0
M  V30 3685 O 351.928 -0.971328 -1.68163 0
M  V30 3686 C 349.058 -2.08461 -2.77779 0
M  V30 3687 C 348.012 -3.24299 -2.7931 0
M  V30 3688 C 347.338 -3.31955 -4.19178 0
M  V30 3689 C 348.638 -4.62065 -2.43502 0
M  V30 3690 H 350.332 -2.76689 -1.14383 0
M  V30 3691 H 347.878 -1.33132 -0.548806 0
M  V30 3692 H 349.831 -2.29453 -3.53454 0
M  V30 3693 H 348.555 -1.14684 -3.05802 0
M  V30 3694 H 347.214 -3.03187 -2.0609 0
M  V30 3695 H 346.862 -2.35745 -4.44335 0
M  V30 3696 H 346.562 -4.09805 -4.2111 0
M  V30 3697 H 348.086 -3.55175 -4.96672 0
M  V30 3698 H 349.5 -4.8297 -3.08889 0
M  V30 3699 H 347.897 -5.42429 -2.56693 0
M  V30 3700 H 348.967 -4.64652 -1.38659 0
M  V30 3701 N 350.31 0.590341 -1.46126 0
M  V30 3702 C 351.558 1.34616 -1.50742 0
M  V30 3703 C 351.879 1.94363 -0.157486 0
M  V30 3704 O 351.149 1.78136 0.815136 0
M  V30 3705 H 349.729 0.499789 -0.555175 0
M  V30 3706 H 352.391 0.691953 -1.82203 0
M  V30 3707 H 351.487 2.15678 -2.25587 0
M  V30 3708 N 351.788 1.33704 0.83433 0
M  V30 3709 C 353.037 1.24763 1.58484 0
M  V30 3710 C 353.35 -0.183775 1.94735 0
M  V30 3711 O 354.556 -0.395234 2.68608 0
M  V30 3712 C 353.012 2.18638 2.85876 0
M  V30 3713 C 352.62 3.66974 2.56971 0
M  V30 3714 C 354.364 2.18581 3.63899 0
M  V30 3715 C 352.271 4.5275 3.80488 0
M  V30 3716 H 351.201 0.463425 0.594772 0
M  V30 3717 H 353.852 1.58797 0.919551 0
M  V30 3718 H 352.234 1.77542 3.5397 0
M  V30 3719 H 353.408 4.16538 1.9706 0
M  V30 3720 H 351.723 3.69366 1.92244 0
M  V30 3721 H 354.32 2.79894 4.55591 0
M  V30 3722 H 354.663 1.18207 3.99165 0
M  V30 3723 H 355.196 2.58062 3.02735 0
M  V30 3724 H 351.935 5.54017 3.5035 0
M  V30 3725 H 351.455 4.07927 4.39722 0
M  V30 3726 H 353.134 4.66784 4.4802 0
M  V30 3727 N 353.266 -1.05314 1.17247 0
M  V30 3728 C 354.198 -2.13023 0.845812 0
M  V30 3729 C 355.211 -1.62096 -0.151246 0
M  V30 3730 O 356.4 -1.78343 0.0748818 0
M  V30 3731 C 353.5 -3.38047 0.240292 0
M  V30 3732 C 352.673 -4.18255 1.27991 0
M  V30 3733 C 351.732 -5.21625 0.692375 0
M  V30 3734 O 350.758 -5.52619 1.36385 0
M  V30 3735 N 351.96 -5.78201 -0.516178 0
M  V30 3736 H 354.725 -2.41642 1.77283 0
M  V30 3737 H 352.286 -1.21401 1.07115 0
M  V30 3738 H 354.278 -4.04359 -0.16603 0
M  V30 3739 H 352.848 -3.06972 -0.590487 0
M  V30 3740 H 352.068 -3.47451 1.86203 0
M  V30 3741 H 353.356 -4.68643 1.98119 0
M  V30 3742 H 352.754 -5.55301 -1.07969 0
M  V30 3743 H 351.311 -6.4604 -0.86458 0
M  V30 3744 N 354.744 -0.972509 -1.24016 0
M  V30 3745 C 355.992 -0.635776 -1.91839 0
M  V30 3746 C 356.313 0.832312 -1.76345 0
M  V30 3747 O 355.583 1.5946 -1.13795 0
M  V30 3748 H 354.163 -0.232157 -0.710009 0
M  V30 3749 H 356.825 -1.23462 -1.50809 0
M  V30 3750 H 355.921 -0.880545 -2.99421 0
M  V30 3751 N 356.222 1.38976 -0.743202 0
M  V30 3752 C 357.172 2.27843 -0.084513 0
M  V30 3753 C 358.156 1.44677 0.704094 0
M  V30 3754 O 359.348 1.67511 0.571755 0
M  V30 3755 C 356.477 3.33466 0.815781 0
M  V30 3756 C 355.563 4.24095 0.0208844 0
M  V30 3757 N 355.954 4.95609 -1.0102 0
M  V30 3758 C 354.252 4.45303 0.249293 0
M  V30 3759 C 354.953 5.62287 -1.49024 0
M  V30 3760 N 353.929 5.37571 -0.807377 0
M  V30 3761 H 357.731 2.80593 -0.87436 0
M  V30 3762 H 355.245 1.51755 -0.578283 0
M  V30 3763 H 357.242 3.96008 1.30321 0
M  V30 3764 H 355.902 2.82276 1.6047 0
M  V30 3765 H 356.913 4.98849 -1.39176 0
M  V30 3766 H 353.59 4.0504 1.01237 0
M  V30 3767 H 354.98 6.29519 -2.34853 0
M  V30 3768 N 357.7 0.491464 1.49741 0
M  V30 3769 C 358.63 -0.28154 2.31796 0
M  V30 3770 C 359.611 -0.971473 1.3963 0
M  V30 3771 O 360.796 -0.964719 1.68543 0
M  V30 3772 C 357.926 -1.35203 3.19902 0
M  V30 3773 C 356.88 -0.782529 4.20786 0
M  V30 3774 C 356.206 -1.95283 4.97764 0
M  V30 3775 C 357.506 0.21999 5.21837 0
M  V30 3776 H 359.2 0.403355 2.96671 0
M  V30 3777 H 356.746 0.195425 1.42668 0
M  V30 3778 H 358.699 -1.90045 3.76113 0
M  V30 3779 H 357.423 -2.06598 2.52953 0
M  V30 3780 H 356.082 -0.255928 3.65706 0
M  V30 3781 H 355.73 -2.65423 4.2727 0
M  V30 3782 H 355.43 -1.57789 5.66018 0
M  V30 3783 H 356.954 -2.50577 5.56816 0
M  V30 3784 H 358.368 -0.23996 5.72798 0
M  V30 3785 H 356.765 0.51026 5.97927 0
M  V30 3786 H 357.835 1.13911 4.7133 0
M  V30 3787 N 359.178 -1.55987 0.224894 0
M  V30 3788 C 360.426 -1.97998 -0.405099 0
M  V30 3789 C 360.747 -1.11387 -1.60056 0
M  V30 3790 O 360.017 -0.191645 -1.9496 0
M  V30 3791 H 358.597 -0.731235 -0.152658 0
M  V30 3792 H 361.259 -1.92279 0.318567 0
M  V30 3793 H 360.355 -3.03463 -0.729167 0
M  V30 3794 N 360.656 0.0484629 -1.57525 0
M  V30 3795 C 361.905 0.742065 -1.87553 0
M  V30 3796 C 362.218 1.77545 -0.820802 0
M  V30 3797 O 363.424 2.52027 -1.00967 0
M  V30 3798 C 361.88 1.37081 -3.32771 0
M  V30 3799 C 361.488 0.374786 -4.4643 0
M  V30 3800 C 363.232 2.04542 -3.71972 0
M  V30 3801 C 361.139 1.01077 -5.82698 0
M  V30 3802 H 360.069 0.280903 -0.699721 0
M  V30 3803 H 362.72 -0.00411877 -1.835 0
M  V30 3804 H 361.102 2.16605 -3.31509 0
M  V30 3805 H 362.276 -0.392331 -4.59127 0
M  V30 3806 H 360.591 -0.196653 -4.15935 0
M  V30 3807 H 363.188 2.52943 -4.71088 0
M  V30 3808 H 363.531 2.85515 -3.02964 0
M  V30 3809 H 364.064 1.31819 -3.75325 0
M  V30 3810 H 360.803 0.240878 -6.55057 0
M  V30 3811 H 360.323 1.74819 -5.73758 0
M  V30 3812 H 362.002 1.52383 -6.28799 0
M  V30 3813 N 362.134 1.5431 0.320358 0
M  V30 3814 C 363.411 1.63322 1.07635 0
M  V30 3815 C 363.791 0.46912 2.05821 0
M  V30 3816 O 363.139 -0.536274 2.22118 0
M  V30 3817 C 363.349 3.00465 1.77544 0
M  V30 3818 C 364.697 3.56621 2.30449 0
M  V30 3819 O 365.721 3.02791 1.87606 0
M  V30 3820 O 364.58 4.5083 3.08892 0
M  V30 3821 H 361.674 0.661502 0.496331 0
M  V30 3822 H 364.22 1.66656 0.319992 0
M  V30 3823 H 362.992 3.76629 1.06143 0
M  V30 3824 H 362.615 3.00824 2.59982 0
M  V30 3825 N 363.613 -0.582584 1.46437 0
M  V30 3826 C 364.841 -1.36682 1.55324 0
M  V30 3827 C 365.256 -1.87796 0.194409 0
M  V30 3828 O 364.613 -1.63623 -0.808318 0
M  V30 3829 C 364.664 -2.55426 2.55812 0
M  V30 3830 O 364.385 -2.0643 3.86417 0
M  V30 3831 C 365.886 -3.47976 2.74641 0
M  V30 3832 H 363.106 -0.417545 0.525259 0
M  V30 3833 H 365.65 -0.708219 1.91845 0
M  V30 3834 H 363.805 -3.17275 2.22295 0
M  V30 3835 H 364.219 -2.83762 4.41111 0
M  V30 3836 H 365.693 -4.27775 3.48874 0
M  V30 3837 H 366.17 -3.99919 1.81553 0
M  V30 3838 H 366.776 -2.91962 3.09255 0
M  V30 3839 N 365.091 -1.34144 -0.827227 0
M  V30 3840 C 366.502 -1.23557 -1.39966 0
M  V30 3841 C 366.853 0.140731 -1.95695 0
M  V30 3842 O 365.978 1.04087 -1.89723 0
M  V30 3843 C 366.573 -2.23708 -2.54441 0
M  V30 3844 C 365.132 -2.16924 -3.07605 0
M  V30 3845 C 364.279 -2.10549 -1.80456 0
M  V30 3846 H 367.23 -1.45573 -0.631991 0
M  V30 3847 H 367.251 -1.85157 -3.32411 0
M  V30 3848 H 366.763 -3.23866 -2.13851 0
M  V30 3849 H 364.864 -1.20107 -3.52711 0
M  V30 3850 H 364.977 -3.07988 -3.66988 0
M  V30 3851 H 363.341 -1.56203 -2.01178 0
M  V30 3852 H 364.124 -3.12535 -1.42046 0
M  V30 3853 N 366.569 1.04691 -1.17803 0
M  V30 3854 C 367.98 1.59238 -0.974689 0
M  V30 3855 C 368.331 1.90306 0.477292 0
M  V30 3856 O 367.456 1.68846 1.35352 0
M  V30 3857 C 368.051 2.89318 -1.76296 0
M  V30 3858 C 366.61 3.40506 -1.60414 0
M  V30 3859 C 365.757 2.14172 -1.76141 0
M  V30 3860 H 368.708 0.874395 -1.32439 0
M  V30 3861 H 368.729 3.5944 -1.24833 0
M  V30 3862 H 368.241 2.66675 -2.81968 0
M  V30 3863 H 366.342 3.68175 -0.572519 0
M  V30 3864 H 366.455 4.14753 -2.39827 0
M  V30 3865 H 364.819 2.25176 -1.19028 0
M  V30 3866 H 365.602 1.93992 -2.83235 0
M  V30 3867 N 368.047 0.979072 1.23499 0
M  V30 3868 C 369.296 0.642751 1.91185 0
M  V30 3869 C 369.609 -0.827253 1.77245 0
M  V30 3870 O 370.815 -1.27458 2.39722 0
M  V30 3871 C 369.271 1.09901 3.42709 0
M  V30 3872 C 368.879 2.59327 3.65313 0
M  V30 3873 C 370.623 0.836371 4.16179 0
M  V30 3874 C 368.53 2.98627 5.10467 0
M  V30 3875 H 367.46 0.236698 0.715884 0
M  V30 3876 H 370.111 1.1868 1.39955 0
M  V30 3877 H 368.493 0.48319 3.93041 0
M  V30 3878 H 369.667 3.26136 3.25533 0
M  V30 3879 H 367.982 2.83323 3.05151 0
M  V30 3880 H 370.579 1.10586 5.23139 0
M  V30 3881 H 370.922 -0.227509 4.15678 0
M  V30 3882 H 371.455 1.41371 3.71832 0
M  V30 3883 H 368.194 4.04133 5.16098 0
M  V30 3884 H 367.714 2.3651 5.51201 0
M  V30 3885 H 369.393 2.89159 5.78788 0
M  V30 3886 N 369.525 -1.3858 0.750561 0
M  V30 3887 C 370.488 -2.28836 0.129152 0
M  V30 3888 C 371.488 -1.47045 -0.650714 0
M  V30 3889 O 372.678 -1.6753 -0.477428 0
M  V30 3890 C 369.81 -3.30751 -0.825622 0
M  V30 3891 H 371.003 -2.85294 0.924516 0
M  V30 3892 H 368.556 -1.47489 0.517376 0
M  V30 3893 H 369.291 -2.79378 -1.64677 0
M  V30 3894 H 369.076 -3.91177 -0.268852 0
M  V30 3895 H 370.566 -3.98249 -1.2565 0
M  V30 3896 N 371.003 -0.499398 -1.49478 0
M  V30 3897 C 371.913 0.284489 -2.32869 0
M  V30 3898 C 372.929 0.968885 -1.44529 0
M  V30 3899 O 374.105 0.95062 -1.77553 0
M  V30 3900 C 371.17 1.33594 -3.19928 0
M  V30 3901 C 370.231 0.665149 -4.24116 0
M  V30 3902 C 369.464 1.6665 -5.07014 0
M  V30 3903 O 369.687 2.89618 -4.91404 0
M  V30 3904 O 368.621 1.22271 -5.8935 0
M  V30 3905 H 372.447 -0.39802 -3.01081 0
M  V30 3906 H 370.032 -0.260758 -1.47107 0
M  V30 3907 H 371.914 1.94431 -3.73864 0
M  V30 3908 H 370.589 2.0014 -2.54412 0
M  V30 3909 H 369.496 0.0170769 -3.74096 0
M  V30 3910 H 370.829 0.0421555 -4.92182 0
M  V30 3911 N 372.481 1.55866 -0.233164 0
M  V30 3912 C 373.73 1.97779 0.39579 0
M  V30 3913 C 374.043 1.12419 1.60066 0
M  V30 3914 O 375.249 1.44283 2.29988 0
M  V30 3915 C 373.705 3.5188 0.755556 0
M  V30 3916 C 373.313 4.45959 -0.427152 0
M  V30 3917 C 375.057 4.02479 1.34946 0
M  V30 3918 C 372.964 5.91383 -0.0443043 0
M  V30 3919 H 371.894 0.738592 0.15165 0
M  V30 3920 H 374.545 1.80486 -0.331212 0
M  V30 3921 H 372.927 3.64816 1.5403 0
M  V30 3922 H 374.101 4.44776 -1.20462 0
M  V30 3923 H 372.416 4.05765 -0.935068 0
M  V30 3924 H 375.013 5.08637 1.649 0
M  V30 3925 H 375.356 3.49014 2.26925 0
M  V30 3926 H 375.889 3.92813 0.62791 0
M  V30 3927 H 372.628 6.48857 -0.930874 0
M  V30 3928 H 372.148 5.95734 0.697238 0
M  V30 3929 H 373.827 6.45893 0.378334 0
M  V30 3930 N 373.959 -0.0401083 1.57549 0
M  V30 3931 C 374.869 -1.06133 2.0922 0
M  V30 3932 C 375.885 -1.40356 1.0284 0
M  V30 3933 O 377.061 -1.49897 1.34509 0
M  V30 3934 C 374.126 -2.34658 2.55218 0
M  V30 3935 C 373.187 -2.07117 3.76033 0
M  V30 3936 C 372.42 -3.29514 4.19829 0
M  V30 3937 O 372.643 -4.39794 3.63232 0
M  V30 3938 O 371.577 -3.15863 5.12362 0
M  V30 3939 H 375.403 -0.652244 2.96613 0
M  V30 3940 H 372.988 -0.256368 1.47184 0
M  V30 3941 H 374.87 -3.10239 2.85184 0
M  V30 3942 H 373.545 -2.74883 1.70941 0
M  V30 3943 H 372.452 -1.29139 3.51104 0
M  V30 3944 H 373.785 -1.71754 4.61261 0
M  V30 3945 N 375.437 -1.54477 -0.31217 0
M  V30 3946 C 376.384 -1.84655 -1.38461 0
M  V30 3947 C 377.354 -0.694536 -1.50882 0
M  V30 3948 O 378.539 -0.942081 -1.6592 0
M  V30 3949 C 375.679 -2.0896 -2.74645 0
M  V30 3950 C 374.792 -3.36618 -2.70763 0
M  V30 3951 C 373.927 -3.50824 -3.98868 0
M  V30 3952 C 372.966 -4.72315 -3.89339 0
M  V30 3953 N 372.103 -4.83387 -5.09197 0
M  V30 3954 H 376.943 -2.76142 -1.12026 0
M  V30 3955 H 374.48 -1.36748 -0.542065 0
M  V30 3956 H 376.438 -2.21045 -3.53829 0
M  V30 3957 H 375.068 -1.20752 -2.99364 0
M  V30 3958 H 374.12 -3.33211 -1.83506 0
M  V30 3959 H 375.432 -4.25917 -2.59608 0
M  V30 3960 H 374.586 -3.62513 -4.86486 0
M  V30 3961 H 373.325 -2.59638 -4.12843 0
M  V30 3962 H 372.33 -4.6067 -3.00105 0
M  V30 3963 H 373.555 -5.64897 -3.76919 0
M  V30 3964 H 371.501 -3.9512 -5.23657 0
M  V30 3965 H 371.418 -5.66669 -5.00422 0
M  V30 3966 H 372.686 -4.9942 -5.98498 0
M  V30 3967 N 376.915 0.57481 -1.46744 0
M  V30 3968 C 378.14 1.36341 -1.56288 0
M  V30 3969 C 378.565 1.86954 -0.207347 0
M  V30 3970 O 377.923 1.62006 0.813871 0
M  V30 3971 C 377.971 2.52147 -2.57787 0
M  V30 3972 O 377.075 3.53834 -2.11838 0
M  V30 3973 H 376.416 0.405713 -0.525636 0
M  V30 3974 H 378.946 0.696453 -1.92382 0
M  V30 3975 H 378.956 2.98958 -2.77648 0
M  V30 3976 H 377.631 2.14663 -3.5622 0
M  V30 3977 H 376.208 3.1345 -2.01999 0
M  V30 3978 N 378.394 1.34581 0.820102 0
M  V30 3979 C 379.643 1.26437 1.57151 0
M  V30 3980 C 379.956 -0.163111 1.94919 0
M  V30 3981 O 381.162 -0.366722 2.69012 0
M  V30 3982 C 379.618 2.21658 2.83541 0
M  V30 3983 C 379.226 3.69679 2.53065 0
M  V30 3984 C 380.97 2.22428 3.61561 0
M  V30 3985 C 378.877 4.56761 3.75664 0
M  V30 3986 H 377.807 0.469707 0.589823 0
M  V30 3987 H 380.458 1.59763 0.902656 0
M  V30 3988 H 378.84 1.81287 3.52067 0
M  V30 3989 H 380.014 4.18605 1.92631 0
M  V30 3990 H 378.329 3.71384 1.88316 0
M  V30 3991 H 380.926 2.8471 4.52597 0
M  V30 3992 H 381.269 1.22434 3.97889 0
M  V30 3993 H 381.802 2.61259 2.99981 0
M  V30 3994 H 378.541 5.57702 3.44454 0
M  V30 3995 H 378.061 4.12568 4.35371 0
M  V30 3996 H 379.74 4.71509 4.43044 0
M  V30 3997 N 379.872 -1.04064 1.18357 0
M  V30 3998 C 381.121 -1.76662 0.973313 0
M  V30 3999 C 381.434 -1.89154 -0.497991 0
M  V30 4000 O 382.64 -2.58606 -0.826762 0
M  V30 4001 C 381.096 -3.17624 1.69242 0
M  V30 4002 C 380.704 -3.13225 3.20303 0
M  V30 4003 C 382.448 -3.946 1.56497 0
M  V30 4004 C 380.355 -4.49046 3.84853 0
M  V30 4005 H 379.285 -0.662214 0.36054 0
M  V30 4006 H 381.936 -1.16553 1.41731 0
M  V30 4007 H 380.318 -3.78129 1.1762 0
M  V30 4008 H 381.492 -2.62172 3.78949 0
M  V30 4009 H 379.807 -2.49749 3.33189 0
M  V30 4010 H 382.404 -4.95042 2.02084 0
M  V30 4011 H 382.747 -4.13074 0.517243 0
M  V30 4012 H 383.28 -3.4067 2.05399 0
M  V30 4013 H 380.019 -4.35777 4.89672 0
M  V30 4014 H 379.539 -5.00203 3.30994 0
M  V30 4015 H 381.218 -5.17961 3.87718 0
M  V30 4016 N 381.35 -0.985608 -1.22978 0
M  V30 4017 C 382.313 -0.535071 -2.22867 0
M  V30 4018 C 383.313 0.378123 -1.56291 0
M  V30 4019 O 384.503 0.171092 -1.73358 0
M  V30 4020 C 381.635 0.222702 -3.40172 0
M  V30 4021 H 382.828 -1.41835 -2.6424 0
M  V30 4022 H 380.381 -0.772042 -1.35901 0
M  V30 4023 H 381.116 1.12229 -3.04262 0
M  V30 4024 H 380.901 -0.43288 -3.89703 0
M  V30 4025 H 382.391 0.526335 -4.1427 0
M  V30 4026 N 382.828 1.3818 -0.7579 0
M  V30 4027 C 384.075 2.00019 -0.315985 0
M  V30 4028 C 384.403 1.60163 1.10355 0
M  V30 4029 O 383.658 0.83264 1.77103 0
M  V30 4030 C 383.957 3.55252 -0.391218 0
M  V30 4031 C 383.623 4.14834 -1.76702 0
M  V30 4032 C 382.285 4.30821 -2.14353 0
M  V30 4033 C 384.637 4.47658 -2.66931 0
M  V30 4034 C 381.965 4.76928 -3.41696 0
M  V30 4035 C 384.317 4.95184 -3.93669 0
M  V30 4036 C 382.981 5.09377 -4.31383 0
M  V30 4037 H 382.251 0.731923 -0.115627 0
M  V30 4038 H 384.898 1.65161 -0.969223 0
M  V30 4039 H 383.203 3.90273 0.34558 0
M  V30 4040 H 384.9 4.00988 -0.030805 0
M  V30 4041 H 381.49 4.02808 -1.46435 0
M  V30 4042 H 385.674 4.34904 -2.39106 0
M  V30 4043 H 380.93 4.86103 -3.70829 0
M  V30 4044 H 385.104 5.19551 -4.63724 0
M  V30 4045 H 382.731 5.44865 -5.30119 0
M  V30 4046 N 384.306 0.507319 1.49211 0
M  V30 4047 C 385.269 -0.256763 2.27757 0
M  V30 4048 C 386.269 -0.888287 1.34038 0
M  V30 4049 O 387.459 -0.751841 1.5714 0
M  V30 4050 C 384.591 -1.36905 3.12202 0
M  V30 4051 H 385.784 0.432557 2.96764 0
M  V30 4052 H 383.337 0.262488 1.5408 0
M  V30 4053 H 384.072 -2.09233 2.47775 0
M  V30 4054 H 383.857 -0.921599 3.81115 0
M  V30 4055 H 385.347 -1.9071 3.7151 0
M  V30 4056 N 385.784 -1.5574 0.241426 0
M  V30 4057 C 386.731 -2.21149 -0.660432 0
M  V30 4058 C 387.701 -1.17356 -1.17545 0
M  V30 4059 O 388.886 -1.45784 -1.23093 0
M  V30 4060 C 386.026 -2.91059 -1.85414 0
M  V30 4061 C 385.139 -4.09495 -1.37616 0
M  V30 4062 C 384.274 -4.67135 -2.529 0
M  V30 4063 C 383.313 -5.77831 -2.01936 0
M  V30 4064 N 382.45 -6.29677 -3.10566 0
M  V30 4065 H 387.29 -2.97845 -0.095955 0
M  V30 4066 H 384.827 -1.47057 -0.0356024 0
M  V30 4067 H 386.785 -3.29788 -2.5553 0
M  V30 4068 H 385.415 -2.16846 -2.39118 0
M  V30 4069 H 384.467 -3.76117 -0.569235 0
M  V30 4070 H 385.779 -4.89423 -0.962618 0
M  V30 4071 H 384.933 -5.08409 -3.31067 0
M  V30 4072 H 383.672 -3.86411 -2.97553 0
M  V30 4073 H 382.677 -5.36039 -1.22238 0
M  V30 4074 H 383.902 -6.60402 -1.58259 0
M  V30 4075 H 381.848 -5.5186 -3.54664 0
M  V30 4076 H 381.765 -7.04783 -2.73526 0
M  V30 4077 H 383.033 -6.75609 -3.88809 0
M  V30 4078 N 387.262 0.0317525 -1.57568 0
M  V30 4079 C 388.192 1.03274 -2.0942 0
M  V30 4080 C 389.173 1.3788 -0.996143 0
M  V30 4081 O 390.358 1.46811 -1.27122 0
M  V30 4082 C 387.488 2.33448 -2.57137 0
M  V30 4083 C 386.442 2.13091 -3.71182 0
M  V30 4084 C 385.768 3.49001 -4.05095 0
M  V30 4085 C 387.068 1.51928 -4.99715 0
M  V30 4086 H 388.762 0.60112 -2.93303 0
M  V30 4087 H 386.308 0.287705 -1.41097 0
M  V30 4088 H 388.261 3.03802 -2.92032 0
M  V30 4089 H 386.985 2.78665 -1.70333 0
M  V30 4090 H 385.644 1.45171 -3.36632 0
M  V30 4091 H 385.292 3.91862 -3.15362 0
M  V30 4092 H 384.992 3.36207 -4.81911 0
M  V30 4093 H 386.516 4.20721 -4.42522 0
M  V30 4094 H 387.93 2.12196 -5.32584 0
M  V30 4095 H 386.327 1.49716 -5.81124 0
M  V30 4096 H 387.397 0.484811 -4.8247 0
M  V30 4097 N 388.74 1.54641 0.303973 0
M  V30 4098 C 389.988 1.73437 1.0375 0
M  V30 4099 C 390.309 0.521449 1.87899 0
M  V30 4100 O 389.579 -0.46432 1.90318 0
M  V30 4101 H 388.159 0.639518 0.386039 0
M  V30 4102 H 390.821 1.91988 0.335675 0
M  V30 4103 H 389.917 2.62235 1.69231 0
M  V30 4104 N 390.218 -0.567019 1.47046 0
M  V30 4105 C 391.148 -1.68482 1.61667 0
M  V30 4106 C 392.129 -1.6358 0.466418 0
M  V30 4107 O 393.314 -1.81354 0.694574 0
M  V30 4108 C 390.444 -3.07124 1.62148 0
M  V30 4109 C 389.398 -3.26867 2.76301 0
M  V30 4110 C 388.724 -4.66196 2.61849 0
M  V30 4111 C 390.024 -3.13186 4.17986 0
M  V30 4112 H 391.718 -1.56502 2.5524 0
M  V30 4113 H 389.264 -0.751486 1.22836 0
M  V30 4114 H 391.217 -3.8516 1.70968 0
M  V30 4115 H 389.941 -3.2004 0.651287 0
M  V30 4116 H 388.6 -2.51237 2.66975 0
M  V30 4117 H 388.248 -4.75898 1.62879 0
M  V30 4118 H 387.948 -4.80356 3.38425 0
M  V30 4119 H 389.472 -5.46379 2.72584 0
M  V30 4120 H 390.886 -3.81049 4.2834 0
M  V30 4121 H 389.283 -3.3886 4.95272 0
M  V30 4122 H 390.353 -2.10057 4.3704 0
M  V30 4123 N 391.696 -1.35014 -0.812953 0
M  V30 4124 C 393.112 -1.14914 -1.10757 0
M  V30 4125 C 393.312 0.0426818 -2.01455 0
M  V30 4126 O 392.368 0.715212 -2.42159 0
M  V30 4127 C 393.681 -2.44911 -1.74468 0
M  V30 4128 C 395.229 -2.5106 -1.86917 0
M  V30 4129 C 395.704 -3.81085 -2.54044 0
M  V30 4130 N 397.195 -3.82301 -2.61535 0
M  V30 4131 C 397.93 -4.79634 -3.14227 0
M  V30 4132 N 397.426 -5.87353 -3.67407 0
M  V30 4133 N 399.219 -4.67078 -3.12721 0
M  V30 4134 H 391.37 -2.1136 -0.20989 0
M  V30 4135 H 393.633 -0.935128 -0.155692 0
M  V30 4136 H 393.339 -3.32267 -1.15289 0
M  V30 4137 H 393.213 -2.58989 -2.74234 0
M  V30 4138 H 395.6 -1.64137 -2.45241 0
M  V30 4139 H 395.681 -2.40901 -0.860242 0
M  V30 4140 H 395.325 -4.68402 -1.96372 0
M  V30 4141 H 395.255 -3.88529 -3.55461 0
M  V30 4142 H 397.746 -3.04465 -2.23851 0
M  V30 4143 H 398.059 -6.57624 -4.05894 0
M  V30 4144 H 396.404 -5.91054 -3.65623 0
M  V30 4145 H 399.595 -3.82067 -2.70449 0
M  V30 4146 H 399.768 -5.43098 -3.53481 0
M  V30 4147 N 393.175 1.03435 -1.18907 0
M  V30 4148 C 394.421 1.77005 -0.989798 0
M  V30 4149 C 394.754 1.88205 0.478816 0
M  V30 4150 O 394.029 1.39481 1.35556 0
M  V30 4151 C 394.312 3.19925 -1.65287 0
M  V30 4152 C 394.165 3.1663 -3.19477 0
M  V30 4153 C 395.484 4.18189 -1.37134 0
M  V30 4154 H 392.603 0.642538 -0.360991 0
M  V30 4155 H 395.245 1.20784 -1.46667 0
M  V30 4156 H 393.395 3.67929 -1.24741 0
M  V30 4157 H 395.067 2.76567 -3.692 0
M  V30 4158 H 393.31 2.54491 -3.51307 0
M  V30 4159 H 393.981 4.1758 -3.61013 0
M  V30 4160 H 396.457 3.78761 -1.72276 0
M  V30 4161 H 395.333 5.16394 -1.86087 0
M  V30 4162 H 395.594 4.41112 -0.295424 0
M  V30 4163 N 394.653 0.992116 1.22453 0
M  V30 4164 C 395.603 0.512969 2.22155 0
M  V30 4165 C 396.587 -0.418416 1.55364 0
M  V30 4166 O 397.779 -0.245363 1.75291 0
M  V30 4167 C 394.908 -0.171822 3.4287 0
M  V30 4168 C 393.994 0.779822 4.16869 0
M  V30 4169 N 394.385 1.92734 4.6764 0
M  V30 4170 C 392.683 0.59554 4.42006 0
M  V30 4171 C 393.384 2.52458 5.24061 0
M  V30 4172 N 392.36 1.80735 5.12675 0
M  V30 4173 H 396.162 1.38817 2.5905 0
M  V30 4174 H 393.676 0.854277 1.38115 0
M  V30 4175 H 395.673 -0.532469 4.13486 0
M  V30 4176 H 394.333 -1.04317 3.07487 0
M  V30 4177 H 395.344 2.30816 4.63621 0
M  V30 4178 H 392.021 -0.229805 4.16867 0
M  V30 4179 H 393.411 3.49433 5.73887 0
M  V30 4180 N 396.131 -1.37776 0.765217 0
M  V30 4181 C 397.378 -1.99849 0.326588 0
M  V30 4182 C 397.706 -1.60746 -1.09504 0
M  V30 4183 O 396.961 -0.84202 -1.76659 0
M  V30 4184 C 397.26 -3.5504 0.410053 0
M  V30 4185 C 396.926 -4.13891 1.78899 0
M  V30 4186 C 395.588 -4.29678 2.16635 0
M  V30 4187 C 397.94 -4.46236 2.69301 0
M  V30 4188 C 395.268 -4.7511 3.44221 0
M  V30 4189 C 397.62 -4.93089 3.9629 0
M  V30 4190 C 396.284 -5.07082 4.34078 0
M  V30 4191 H 395.554 -0.7313 0.119507 0
M  V30 4192 H 398.201 -1.64645 0.977968 0
M  V30 4193 H 396.506 -3.90451 -0.324878 0
M  V30 4194 H 398.203 -4.00966 0.0520699 0
M  V30 4195 H 394.793 -4.02026 1.48569 0
M  V30 4196 H 398.977 -4.3363 2.41409 0
M  V30 4197 H 394.233 -4.84129 3.73402 0
M  V30 4198 H 398.407 -5.17084 4.66472 0
M  V30 4199 H 396.034 -5.42046 5.33001 0
M  V30 4200 N 397.609 -0.515225 -1.4894 0
M  V30 4201 C 398.837 0.0206034 -2.0689 0
M  V30 4202 C 399.252 1.29514 -1.37374 0
M  V30 4203 O 398.609 1.76698 -0.456529 0
M  V30 4204 C 398.66 0.26351 -3.60538 0
M  V30 4205 O 398.381 -0.960517 -4.27441 0
M  V30 4206 C 399.882 0.841383 -4.35242 0
M  V30 4207 H 397.102 -0.0268608 -0.670462 0
M  V30 4208 H 399.646 -0.716651 -1.91532 0
M  V30 4209 H 397.801 0.950777 -3.75552 0
M  V30 4210 H 398.215 -0.73212 -5.19365 0
M  V30 4211 H 399.689 0.96085 -5.43573 0
M  V30 4212 H 400.166 1.8427 -3.98674 0
M  V30 4213 H 400.772 0.191143 -4.2487 0
M  V30 4214 N 399.087 1.5561 -0.249682 0
M  V30 4215 C 399.997 2.25143 0.659375 0
M  V30 4216 C 401.013 1.2685 1.19101 0
M  V30 4217 O 402.189 1.59732 1.22669 0
M  V30 4218 C 399.254 2.93945 1.8384 0
M  V30 4219 C 398.315 4.07655 1.34596 0
M  V30 4220 C 397.548 4.73167 2.46878 0
M  V30 4221 O 397.771 4.37768 3.65671 0
M  V30 4222 O 396.705 5.61623 2.16478 0
M  V30 4223 H 400.531 3.03545 0.0968698 0
M  V30 4224 H 398.116 1.49389 -0.018074 0
M  V30 4225 H 399.998 3.37271 2.52638 0
M  V30 4226 H 398.673 2.18481 2.38847 0
M  V30 4227 H 397.58 3.68839 0.625174 0
M  V30 4228 H 398.913 4.84946 0.841941 0
M  V30 4229 N 400.565 -0.0233959 1.57583 0
M  V30 4230 C 401.495 -1.02162 2.09965 0
M  V30 4231 C 402.476 -1.3735 1.00344 0
M  V30 4232 O 403.661 -1.46135 1.27899 0
M  V30 4233 C 400.791 -2.32081 2.58371 0
M  V30 4234 C 399.745 -2.1112 3.72307 0
M  V30 4235 C 399.071 -3.46848 4.06941 0
M  V30 4236 C 400.371 -1.49276 5.00514 0
M  V30 4237 H 402.065 -0.585557 2.93618 0
M  V30 4238 H 399.611 -0.280218 1.41247 0
M  V30 4239 H 401.564 -3.02249 2.93639 0
M  V30 4240 H 400.288 -2.77758 1.71808 0
M  V30 4241 H 398.947 -1.43384 3.37397 0
M  V30 4242 H 398.595 -3.90184 3.17436 0
M  V30 4243 H 398.295 -3.33646 4.83688 0
M  V30 4244 H 399.819 -4.18369 4.44747 0
M  V30 4245 H 401.233 -2.09368 5.33702 0
M  V30 4246 H 399.63 -1.46632 5.8191 0
M  V30 4247 H 400.7 -0.459217 4.82721 0
M  V30 4248 N 402.043 -1.548 -0.295768 0
M  V30 4249 C 403.32 -1.65014 -1.05023 0
M  V30 4250 C 403.7 -0.501805 -2.05049 0
M  V30 4251 O 403.048 0.500869 -2.22943 0
M  V30 4252 C 403.258 -3.03252 -1.72741 0
M  V30 4253 C 404.606 -3.60242 -2.24746 0
M  V30 4254 O 405.63 -3.05737 -1.82765 0
M  V30 4255 O 404.489 -4.55687 -3.01681 0
M  V30 4256 H 401.583 -0.669314 -0.485744 0
M  V30 4257 H 404.129 -1.67144 -0.293438 0
M  V30 4258 H 402.901 -3.7827 -1.00138 0
M  V30 4259 H 402.524 -3.04922 -2.55163 0
M  V30 4260 N 403.521 0.559213 -1.47345 0
M  V30 4261 C 404.767 1.31843 -1.54095 0
M  V30 4262 C 405.1 1.93149 -0.201726 0
M  V30 4263 O 404.375 1.77759 0.789428 0
M  V30 4264 C 404.658 2.43006 -2.65744 0
M  V30 4265 C 404.511 1.86581 -4.09277 0
M  V30 4266 C 405.83 3.44943 -2.73318 0
M  V30 4267 H 402.949 0.478012 -0.560957 0
M  V30 4268 H 405.591 0.625977 -1.79392 0
M  V30 4269 H 403.741 3.02072 -2.44305 0
M  V30 4270 H 405.413 1.31792 -4.42073 0
M  V30 4271 H 403.656 1.17268 -4.17649 0
M  V30 4272 H 404.327 2.66933 -4.83168 0
M  V30 4273 H 406.803 2.95793 -2.92653 0
M  V30 4274 H 405.679 4.20153 -3.53218 0
M  V30 4275 H 405.94 4.03665 -1.80296 0
M  V30 4276 N 404.999 1.35443 0.805782 0
M  V30 4277 C 406.276 1.19325 1.54987 0
M  V30 4278 C 406.656 -0.227294 2.09873 0
M  V30 4279 O 406.004 -1.2309 1.92512 0
M  V30 4280 C 406.214 2.26196 2.65775 0
M  V30 4281 C 407.562 2.62043 3.34094 0
M  V30 4282 O 408.586 2.25115 2.76046 0
M  V30 4283 O 407.445 3.25542 4.38958 0
M  V30 4284 H 404.539 0.463623 0.684823 0
M  V30 4285 H 407.085 1.47127 0.845674 0
M  V30 4286 H 405.857 3.21471 2.23096 0
M  V30 4287 H 405.48 1.99667 3.43829 0
M  V30 4288 N 406.477 -1.02803 1.19454 0
M  V30 4289 C 407.723 -1.76478 0.999171 0
M  V30 4290 C 408.056 -1.88456 -0.468828 0
M  V30 4291 O 407.331 -1.40198 -1.34814 0
M  V30 4292 C 407.614 -3.19044 1.66981 0
M  V30 4293 C 407.467 -3.14932 3.21151 0
M  V30 4294 C 408.786 -4.17456 1.39349 0
M  V30 4295 H 405.905 -0.640614 0.364393 0
M  V30 4296 H 408.547 -1.20005 1.47305 0
M  V30 4297 H 406.697 -3.67263 1.2669 0
M  V30 4298 H 408.369 -2.74605 3.70661 0
M  V30 4299 H 406.612 -2.52625 3.52652 0
M  V30 4300 H 407.283 -4.1566 3.63223 0
M  V30 4301 H 409.759 -3.77842 1.74283 0
M  V30 4302 H 408.635 -5.154 1.88823 0
M  V30 4303 H 408.896 -4.40949 0.318813 0
M  V30 4304 N 407.956 -0.998596 -1.21925 0
M  V30 4305 C 408.886 -0.573688 -2.26343 0
M  V30 4306 C 409.867 0.402296 -1.65274 0
M  V30 4307 O 411.052 0.291683 -1.91997 0
M  V30 4308 C 408.182 0.106839 -3.47136 0
M  V30 4309 C 407.136 -0.788269 -4.20678 0
M  V30 4310 C 406.462 0.0254927 -5.34694 0
M  V30 4311 C 407.762 -2.08784 -4.78755 0
M  V30 4312 H 409.456 -1.44651 -2.62138 0
M  V30 4313 H 407.002 -0.696975 -1.26009 0
M  V30 4314 H 408.955 0.415531 -4.19346 0
M  V30 4315 H 407.679 1.01424 -3.10452 0
M  V30 4316 H 406.338 -1.08069 -3.50309 0
M  V30 4317 H 405.986 0.933989 -4.94253 0
M  V30 4318 H 405.686 -0.570437 -5.84825 0
M  V30 4319 H 407.21 0.328147 -6.09718 0
M  V30 4320 H 408.624 -1.84272 -5.42878 0
M  V30 4321 H 407.021 -2.63307 -5.39249 0
M  V30 4322 H 408.091 -2.76284 -3.98491 0
M  V30 4323 N 409.434 1.37368 -0.772513 0
M  V30 4324 C 410.845 1.8231 -0.402493 0
M  V30 4325 C 411.196 1.6436 1.07146 0
M  V30 4326 O 410.321 1.15514 1.82991 0
M  V30 4327 C 410.916 3.30979 -0.723776 0
M  V30 4328 C 409.475 3.74195 -0.406802 0
M  V30 4329 C 408.622 2.59885 -0.967218 0
M  V30 4330 H 411.573 1.25829 -0.967099 0
M  V30 4331 H 411.594 3.80499 -0.00870832 0
M  V30 4332 H 411.106 3.44011 -1.7966 0
M  V30 4333 H 409.207 3.66732 0.658673 0
M  V30 4334 H 409.32 4.7027 -0.915588 0
M  V30 4335 H 407.684 2.51674 -0.391416 0
M  V30 4336 H 408.467 2.7571 -2.04546 0
M  V30 4337 N 410.912 0.523116 1.48665 0
M  V30 4338 C 412.137 -0.0117284 2.07397 0
M  V30 4339 C 412.562 -1.28031 1.37803 0
M  V30 4340 O 411.92 -1.75836 0.441762 0
M  V30 4341 C 411.968 -0.225786 3.59892 0
M  V30 4342 O 411.072 -1.29592 3.91509 0
M  V30 4343 H 410.413 0.0360673 0.66302 0
M  V30 4344 H 412.943 0.729066 1.9117 0
M  V30 4345 H 412.953 -0.450552 4.05505 0
M  V30 4346 H 411.628 0.700944 4.09951 0
M  V30 4347 H 410.205 -1.05436 3.57684 0
M  V30 4348 N 412.39 -1.55475 0.257931 0
M  V30 4349 C 413.636 -1.99502 -0.364266 0
M  V30 4350 C 413.969 -1.146 -1.56782 0
M  V30 4351 O 413.244 -0.211968 -1.93342 0
M  V30 4352 C 413.527 -3.51917 -0.763333 0
M  V30 4353 C 413.38 -4.4758 0.446371 0
M  V30 4354 C 414.699 -4.09742 -1.60623 0
M  V30 4355 H 411.818 -0.725277 -0.130929 0
M  V30 4356 H 414.46 -1.8653 0.361446 0
M  V30 4357 H 412.61 -3.63101 -1.38166 0
M  V30 4358 H 414.282 -4.48362 1.08487 0
M  V30 4359 H 412.525 -4.19947 1.08753 0
M  V30 4360 H 413.196 -5.51862 0.123645 0
M  V30 4361 H 415.672 -4.01727 -1.08418 0
M  V30 4362 H 414.548 -5.16631 -1.85429 0
M  V30 4363 H 414.809 -3.58889 -2.58169 0
M  V30 4364 N 413.868 0.0150385 -1.57593 0
M  V30 4365 C 415.114 0.69849 -1.91031 0
M  V30 4366 C 415.469 1.72208 -0.85804 0
M  V30 4367 O 414.762 1.91147 0.131614 0
M  V30 4368 C 414.956 1.39686 -3.28972 0
M  V30 4369 C 414.785 0.442428 -4.47518 0
M  V30 4370 C 413.555 0.0583223 -5.05266 0
M  V30 4371 C 415.753 -0.285072 -5.13509 0
M  V30 4372 N 413.735 -0.895893 -6.07328 0
M  V30 4373 C 415.106 -1.09447 -6.10263 0
M  V30 4374 C 417.161 -0.350518 -4.96665 0
M  V30 4375 C 415.864 -1.96333 -6.91987 0
M  V30 4376 C 417.89 -1.20655 -5.78962 0
M  V30 4377 C 417.252 -2.00383 -6.75297 0
M  V30 4378 H 413.351 0.22926 -0.747639 0
M  V30 4379 H 415.935 -0.0417748 -1.94655 0
M  V30 4380 H 414.106 2.1075 -3.2625 0
M  V30 4381 H 415.838 2.03381 -3.49883 0
M  V30 4382 H 412.593 0.423506 -4.71703 0
M  V30 4383 H 413.017 -1.36792 -6.63036 0
M  V30 4384 H 417.659 0.251596 -4.22051 0
M  V30 4385 H 415.377 -2.57618 -7.65936 0
M  V30 4386 H 418.963 -1.2609 -5.67972 0
M  V30 4387 H 417.843 -2.65552 -7.3787 0
M  V30 4388 N 415.346 1.54954 0.287554 0
M  V30 4389 C 416.256 1.8991 1.37736 0
M  V30 4390 C 417.272 0.794701 1.54792 0
M  V30 4391 O 418.448 1.09243 1.69198 0
M  V30 4392 C 415.513 2.15108 2.71899 0
M  V30 4393 C 414.574 3.38752 2.63715 0
M  V30 4394 C 413.807 3.62739 3.91479 0
M  V30 4395 O 414.03 2.89492 4.91478 0
M  V30 4396 O 412.964 4.56267 3.92561 0
M  V30 4397 H 416.79 2.82652 1.11092 0
M  V30 4398 H 414.375 1.41315 0.484807 0
M  V30 4399 H 416.257 2.32806 3.51254 0
M  V30 4400 H 414.932 1.25551 2.9836 0
M  V30 4401 H 413.839 3.26405 1.82786 0
M  V30 4402 H 415.172 4.28483 2.42205 0
M  V30 4403 N 416.824 -0.551391 1.4764 0
M  V30 4404 C 417.754 -1.66757 1.63445 0
M  V30 4405 C 418.735 -1.63077 0.483742 0
M  V30 4406 O 419.92 -1.80607 0.71377 0
M  V30 4407 C 417.05 -3.05387 1.65396 0
M  V30 4408 C 416.004 -3.23918 2.79752 0
M  V30 4409 C 415.33 -4.63393 2.66779 0
M  V30 4410 C 416.63 -3.08735 4.21284 0
M  V30 4411 H 418.324 -1.53786 2.56886 0
M  V30 4412 H 415.87 -0.738415 1.23626 0
M  V30 4413 H 417.823 -3.83325 1.75043 0
M  V30 4414 H 416.547 -3.19332 0.685195 0
M  V30 4415 H 415.206 -2.48391 2.69625 0
M  V30 4416 H 414.854 -4.74144 1.67918 0
M  V30 4417 H 414.554 -4.7674 3.43501 0
M  V30 4418 H 416.078 -5.43458 2.78364 0
M  V30 4419 H 417.492 -3.76484 4.32357 0
M  V30 4420 H 415.889 -3.33588 4.98838 0
M  V30 4421 H 416.959 -2.0541 4.39243 0
M  V30 4422 N 418.302 -1.35869 -0.798587 0
M  V30 4423 C 419.713 -1.26498 -1.37314 0
M  V30 4424 C 420.064 0.0991899 -1.95949 0
M  V30 4425 O 419.189 1.0004 -1.91888 0
M  V30 4426 C 419.784 -2.29054 -2.49639 0
M  V30 4427 C 418.343 -2.234 -3.02935 0
M  V30 4428 C 417.49 -2.14329 -1.75949 0
M  V30 4429 H 420.441 -1.46881 -0.600971 0
M  V30 4430 H 420.462 -1.92166 -3.28409 0
M  V30 4431 H 419.974 -3.2833 -2.06933 0
M  V30 4432 H 418.075 -1.27562 -3.50084 0
M  V30 4433 H 418.188 -3.15703 -3.60372 0
M  V30 4434 H 416.552 -1.60435 -1.9782 0
M  V30 4435 H 417.335 -3.15477 -1.35384 0
M  V30 4436 N 419.78 1.02168 -1.19998 0
M  V30 4437 C 421.026 1.75945 -1.00852 0
M  V30 4438 C 421.359 1.88702 0.458828 0
M  V30 4439 O 420.634 1.40911 1.34069 0
M  V30 4440 C 420.917 3.18154 -1.68671 0
M  V30 4441 C 420.77 3.13224 -3.22817 0
M  V30 4442 C 422.089 4.16711 -1.41561 0
M  V30 4443 H 419.208 0.638673 -0.367785 0
M  V30 4444 H 421.85 1.19222 -1.4794 0
M  V30 4445 H 420 3.66586 -1.28636 0
M  V30 4446 H 421.672 2.72635 -3.72112 0
M  V30 4447 H 419.915 2.50751 -3.53986 0
M  V30 4448 H 420.586 4.13728 -3.65422 0
M  V30 4449 H 423.062 3.76913 -1.76284 0
M  V30 4450 H 421.938 5.14391 -1.91553 0
M  V30 4451 H 422.199 4.40774 -0.342193 0
M  V30 4452 N 421.258 1.00505 1.21394 0
M  V30 4453 C 422.221 0.570459 2.21987 0
M  V30 4454 C 423.221 -0.353211 1.56873 0
M  V30 4455 O 424.411 -0.14349 1.73608 0
M  V30 4456 C 421.543 -0.168555 3.40483 0
M  V30 4457 H 422.736 1.46021 2.6195 0
M  V30 4458 H 420.289 0.793565 1.34656 0
M  V30 4459 H 421.024 -1.07374 3.06009 0
M  V30 4460 H 420.809 0.494823 3.88965 0
M  V30 4461 H 422.299 -0.460362 4.15055 0
M  V30 4462 N 422.737 -1.36956 0.779787 0
M  V30 4463 C 423.647 -2.33965 0.172491 0
M  V30 4464 C 424.663 -1.60574 -0.670222 0
M  V30 4465 O 425.839 -1.92617 -0.588263 0
M  V30 4466 C 422.904 -3.39761 -0.690173 0
M  V30 4467 C 421.965 -4.28964 0.169924 0
M  V30 4468 C 421.198 -5.29707 -0.651662 0
M  V30 4469 O 421.421 -5.38238 -1.88827 0
M  V30 4470 O 420.355 -6.01873 -0.0566264 0
M  V30 4471 H 424.181 -2.87647 0.974321 0
M  V30 4472 H 421.766 -1.39258 0.541078 0
M  V30 4473 H 423.648 -4.04471 -1.1824 0
M  V30 4474 H 422.323 -2.88394 -1.47006 0
M  V30 4475 H 421.23 -3.67326 0.708696 0
M  V30 4476 H 422.563 -4.83656 0.913085 0
M  V30 4477 N 424.215 -0.530993 -1.48385 0
M  V30 4478 C 425.461 0.00274135 -2.028 0
M  V30 4479 C 425.794 1.33838 -1.40716 0
M  V30 4480 O 425.069 1.86465 -0.553277 0
M  V30 4481 C 425.352 0.123676 -3.59888 0
M  V30 4482 C 425.205 -1.2372 -4.3245 0
M  V30 4483 C 426.524 0.849967 -4.31814 0
M  V30 4484 H 423.643 -0.000477758 -0.737 0
M  V30 4485 H 426.285 -0.688217 -1.77098 0
M  V30 4486 H 424.435 0.712157 -3.81917 0
M  V30 4487 H 426.107 -1.86687 -4.21836 0
M  V30 4488 H 424.35 -1.81882 -3.93829 0
M  V30 4489 H 425.021 -1.10557 -5.40815 0
M  V30 4490 H 427.497 0.350572 -4.14621 0
M  V30 4491 H 426.373 0.903486 -5.41413 0
M  V30 4492 H 426.634 1.90047 -3.99167 0
M  V30 4493 N 425.693 1.55336 -0.266172 0
M  V30 4494 C 426.918 2.04258 0.359661 0
M  V30 4495 C 427.343 1.14359 1.49344 0
M  V30 4496 O 426.701 0.140369 1.80756 0
M  V30 4497 C 426.749 3.50997 0.826635 0
M  V30 4498 O 425.853 3.64204 1.93466 0
M  V30 4499 H 425.194 0.659668 0.075727 0
M  V30 4500 H 427.724 2.00694 -0.39786 0
M  V30 4501 H 427.734 3.9219 1.12477 0
M  V30 4502 H 426.409 4.159 -0.00293032 0
M  V30 4503 H 424.986 3.34913 1.63974 0
M  V30 4504 N 427.171 -0.0066808 1.57599 0
M  V30 4505 C 428.399 -0.704087 1.94551 0
M  V30 4506 C 428.814 -1.67677 0.867746 0
M  V30 4507 O 428.171 -1.8185 -0.153925 0
M  V30 4508 C 428.222 -1.44177 3.31505 0
M  V30 4509 O 427.943 -0.508097 4.35144 0
M  V30 4510 C 429.444 -2.23429 3.82876 0
M  V30 4511 H 426.664 -0.196523 0.641576 0
M  V30 4512 H 429.208 0.042453 2.04456 0
M  V30 4513 H 427.363 -2.13999 3.22929 0
M  V30 4514 H 427.777 -1.02782 5.14331 0
M  V30 4515 H 429.251 -2.70552 4.8115 0
M  V30 4516 H 429.728 -3.05818 3.15233 0
M  V30 4517 H 430.334 -1.58636 3.94607 0
M  V30 4518 N 428.649 -1.55105 -0.279332 0
M  V30 4519 C 430.065 -1.46803 -0.626187 0
M  V30 4520 C 430.265 -0.676939 -1.89789 0
M  V30 4521 O 429.321 -0.19326 -2.51759 0
M  V30 4522 C 430.634 -2.90962 -0.759034 0
M  V30 4523 C 432.182 -3.01138 -0.853504 0
M  V30 4524 C 432.657 -4.46539 -1.01818 0
M  V30 4525 N 434.148 -4.50341 -1.08386 0
M  V30 4526 C 434.883 -5.60053 -1.22996 0
M  V30 4527 N 434.379 -6.79645 -1.34366 0
M  V30 4528 N 436.172 -5.47783 -1.26056 0
M  V30 4529 H 428.323 -2.04996 0.555921 0
M  V30 4530 H 430.586 -0.929325 0.187239 0
M  V30 4531 H 430.292 -3.51544 0.104852 0
M  V30 4532 H 430.166 -3.39619 -1.64131 0
M  V30 4533 H 432.553 -2.40658 -1.70786 0
M  V30 4534 H 432.634 -2.55745 0.0532466 0
M  V30 4535 H 432.278 -5.0762 -0.168504 0
M  V30 4536 H 432.208 -4.89583 -1.93948 0
M  V30 4537 H 434.699 -3.64191 -1.00864 0
M  V30 4538 H 435.012 -7.59012 -1.4533 0
M  V30 4539 H 433.357 -6.82469 -1.31382 0
M  V30 4540 H 436.548 -4.53294 -1.168 0
M  V30 4541 H 436.721 -6.33331 -1.37098 0
M  V30 4542 N 430.127 0.543554 -1.4793 0
M  V30 4543 C 431.374 1.30008 -1.55255 0
M  V30 4544 C 431.702 1.93245 -0.220612 0
M  V30 4545 O 430.957 1.79141 0.787843 0
M  V30 4546 C 431.256 2.42078 -2.62932 0
M  V30 4547 C 430.922 1.96583 -4.0579 0
M  V30 4548 C 429.584 1.83893 -4.44676 0
M  V30 4549 C 431.936 1.62034 -4.95373 0
M  V30 4550 C 429.264 1.34969 -5.70964 0
M  V30 4551 C 431.616 1.14577 -6.22137 0
M  V30 4552 C 430.28 1.00493 -6.59892 0
M  V30 4553 H 429.55 0.475735 -0.568117 0
M  V30 4554 H 432.197 0.608075 -1.81589 0
M  V30 4555 H 430.502 3.16892 -2.30406 0
M  V30 4556 H 432.199 3.00236 -2.65818 0
M  V30 4557 H 428.789 2.07407 -3.75074 0
M  V30 4558 H 432.973 1.70705 -4.66019 0
M  V30 4559 H 428.229 1.2274 -5.98953 0
M  V30 4560 H 432.403 0.869109 -6.90955 0
M  V30 4561 H 430.03 0.623624 -7.57638 0
M  V30 4562 N 431.605 1.3629 0.791371 0
M  V30 4563 C 432.515 1.32606 1.93527 0
M  V30 4564 C 433.531 0.228541 1.72493 0
M  V30 4565 O 434.707 0.460571 1.96063 0
M  V30 4566 C 431.772 1.11271 3.28359 0
M  V30 4567 C 430.833 2.3048 3.62185 0
M  V30 4568 C 430.066 2.10154 4.90583 0
M  V30 4569 O 430.289 1.07572 5.60165 0
M  V30 4570 O 429.223 2.97884 5.23019 0
M  V30 4571 H 433.049 2.28909 1.99585 0
M  V30 4572 H 430.634 1.16818 0.931344 0
M  V30 4573 H 432.516 1.01283 4.09047 0
M  V30 4574 H 431.191 0.180292 3.23198 0
M  V30 4575 H 430.098 2.46036 2.81811 0
M  V30 4576 H 431.431 3.22221 3.72068 0
M  V30 4577 N 433.083 -1.0153 1.20538 0
M  V30 4578 C 434.313 -1.78487 1.04048 0
M  V30 4579 C 434.721 -1.84631 -0.413292 0
M  V30 4580 O 434.064 -1.29919 -1.29872 0
M  V30 4581 C 434.126 -3.24367 1.55003 0
M  V30 4582 C 433.79 -3.41827 3.0332 0
M  V30 4583 C 434.787 -3.30941 4.00966 0
M  V30 4584 C 432.472 -3.67602 3.42307 0
M  V30 4585 C 434.466 -3.45577 5.35589 0
M  V30 4586 C 432.153 -3.81881 4.77085 0
M  V30 4587 C 433.151 -3.70874 5.73534 0
M  V30 4588 O 432.839 -3.84714 7.05868 0
M  V30 4589 H 432.571 -0.568108 0.366373 0
M  V30 4590 H 435.125 -1.28677 1.60098 0
M  V30 4591 H 433.355 -3.75266 0.933397 0
M  V30 4592 H 435.044 -3.82963 1.34514 0
M  V30 4593 H 435.81 -3.10964 3.72191 0
M  V30 4594 H 431.689 -3.75256 2.67776 0
M  V30 4595 H 435.233 -3.36902 6.10854 0
M  V30 4596 H 431.13 -4.01359 5.0555 0
M  V30 4597 H 431.898 -4.01724 7.13134 0
M  V30 4598 N 434.561 -1.01147 -1.20859 0
M  V30 4599 C 435.508 -0.577354 -2.23462 0
M  V30 4600 C 436.478 0.399922 -1.61214 0
M  V30 4601 O 437.663 0.300515 -1.88419 0
M  V30 4602 C 434.803 0.083372 -3.44999 0
M  V30 4603 C 433.916 -0.937856 -4.21697 0
M  V30 4604 C 433.051 -0.248717 -5.30617 0
M  V30 4605 C 432.09 -1.25705 -5.99053 0
M  V30 4606 N 431.227 -0.594939 -6.99575 0
M  V30 4607 H 436.067 -1.45695 -2.59956 0
M  V30 4608 H 433.604 -0.729428 -1.27741 0
M  V30 4609 H 435.562 0.483535 -4.14388 0
M  V30 4610 H 434.192 0.926645 -3.09214 0
M  V30 4611 H 433.244 -1.45622 -3.51423 0
M  V30 4612 H 434.556 -1.70493 -4.68757 0
M  V30 4613 H 433.71 0.207215 -6.06346 0
M  V30 4614 H 432.449 0.55071 -4.84581 0
M  V30 4615 H 431.454 -1.72343 -5.2209 0
M  V30 4616 H 432.679 -2.05767 -6.47176 0
M  V30 4617 H 430.625 0.184713 -6.5574 0
M  V30 4618 H 430.542 -1.30017 -7.44736 0
M  V30 4619 H 431.81 -0.162427 -7.79331 0
M  V30 4620 N 436.039 1.36541 -0.78704 0
M  V30 4621 C 437.45 1.81873 -0.421807 0
M  V30 4622 C 437.801 1.65487 1.05397 0
M  V30 4623 O 436.926 1.17448 1.81755 0
M  V30 4624 C 437.521 3.30192 -0.758841 0
M  V30 4625 C 436.08 3.73743 -0.446468 0
M  V30 4626 C 435.227 2.58844 -0.994728 0
M  V30 4627 H 438.178 1.24796 -0.98039 0
M  V30 4628 H 438.199 3.80468 -0.0490648 0
M  V30 4629 H 437.711 3.42087 -1.83299 0
M  V30 4630 H 435.812 3.6741 0.619739 0
M  V30 4631 H 435.925 4.69272 -0.965415 0
M  V30 4632 H 434.289 2.51245 -0.418087 0
M  V30 4633 H 435.072 2.73525 -2.07458 0
M  V30 4634 N 437.518 0.538854 1.48102 0
M  V30 4635 C 438.428 -0.222648 2.33541 0
M  V30 4636 C 439.444 -0.930225 1.47047 0
M  V30 4637 O 440.62 -0.903211 1.80011 0
M  V30 4638 C 437.685 -1.25064 3.23357 0
M  V30 4639 C 436.746 -0.552469 4.2573 0
M  V30 4640 C 435.979 -1.53149 5.11254 0
M  V30 4641 O 436.202 -2.76487 4.9891 0
M  V30 4642 O 435.136 -1.06602 5.92385 0
M  V30 4643 H 438.962 0.477707 2.99919 0
M  V30 4644 H 436.547 0.299669 1.46364 0
M  V30 4645 H 438.429 -1.8445 3.78888 0
M  V30 4646 H 437.104 -1.93325 2.59629 0
M  V30 4647 H 436.011 0.082114 3.7401 0
M  V30 4648 H 437.344 0.0883526 4.92121 0
M  V30 4649 N 438.996 -1.55193 0.274407 0
M  V30 4650 C 440.412 -1.59401 -0.0797543 0
M  V30 4651 C 440.612 -1.29162 -1.54659 0
M  V30 4652 O 439.668 -1.05215 -2.29534 0
M  V30 4653 C 440.981 -2.99257 0.294238 0
M  V30 4654 C 442.529 -3.12072 0.240796 0
M  V30 4655 C 443.004 -4.54194 0.589218 0
M  V30 4656 N 444.495 -4.60033 0.540744 0
M  V30 4657 C 445.23 -5.68027 0.783147 0
M  V30 4658 N 444.726 -6.8417 1.09013 0
M  V30 4659 N 446.519 -5.57572 0.711993 0
M  V30 4660 H 438.67 -1.73113 1.23067 0
M  V30 4661 H 440.933 -0.807197 0.497129 0
M  V30 4662 H 440.639 -3.26217 1.31435 0
M  V30 4663 H 440.513 -3.75427 -0.365281 0
M  V30 4664 H 442.9 -2.84877 -0.770024 0
M  V30 4665 H 442.981 -2.38117 0.934563 0
M  V30 4666 H 442.625 -4.82115 1.59772 0
M  V30 4667 H 442.555 -5.26448 -0.126331 0
M  V30 4668 H 445.046 -3.76599 0.313327 0
M  V30 4669 H 445.359 -7.6243 1.26178 0
M  V30 4670 H 443.704 -6.85787 1.12789 0
M  V30 4671 H 446.895 -4.65714 0.472014 0
M  V30 4672 H 447.068 -6.41659 0.90429 0
M  V30 4673 N 440.474 -0.00167713 -1.576 0
M  V30 4674 C 441.751 0.719951 -1.81868 0
M  V30 4675 C 442.131 1.91895 -0.879747 0
M  V30 4676 O 441.479 2.28389 0.0711423 0
M  V30 4677 C 441.689 1.12409 -3.30402 0
M  V30 4678 C 443.037 1.52724 -3.96182 0
M  V30 4679 O 444.061 1.21784 -3.34734 0
M  V30 4680 O 442.92 2.10265 -5.04431 0
M  V30 4681 H 440.014 0.350707 -0.748955 0
M  V30 4682 H 442.56 -0.0272597 -1.69678 0
M  V30 4683 H 441.332 0.269532 -3.90371 0
M  V30 4684 H 440.955 1.93035 -3.47596 0
M  V30 4685 N 441.952 1.55251 0.271103 0
M  V30 4686 C 443.363 1.66635 0.842007 0
M  V30 4687 C 443.714 0.594631 1.86972 0
M  V30 4688 O 442.839 -0.263532 2.14789 0
M  V30 4689 C 443.434 3.02082 1.53401 0
M  V30 4690 C 441.993 3.15487 2.05293 0
M  V30 4691 C 441.14 2.62438 0.895631 0
M  V30 4692 H 444.091 1.58629 0.0474117 0
M  V30 4693 H 444.112 2.95176 2.40107 0
M  V30 4694 H 443.624 3.80062 0.785786 0
M  V30 4695 H 441.725 2.42284 2.83071 0
M  V30 4696 H 441.838 4.22075 2.26693 0
M  V30 4697 H 440.202 2.19644 1.28953 0
M  V30 4698 H 440.985 3.42923 0.160878 0
M  V30 4699 N 443.43 -0.535701 1.48216 0
M  V30 4700 C 444.66 -1.3148 1.59363 0
M  V30 4701 C 445.068 -1.8753 0.250844 0
M  V30 4702 O 444.411 -1.66821 -0.769174 0
M  V30 4703 C 444.473 -2.50731 2.57632 0
M  V30 4704 C 444.137 -2.15811 4.02833 0
M  V30 4705 C 445.134 -1.71822 4.90686 0
M  V30 4706 C 442.819 -2.26509 4.48329 0
M  V30 4707 C 444.813 -1.3899 6.22062 0
M  V30 4708 C 442.5 -1.93289 5.79726 0
M  V30 4709 C 443.498 -1.49599 6.66415 0
M  V30 4710 O 443.186 -1.16812 7.95368 0
M  V30 4711 H 442.918 -0.406315 0.540263 0
M  V30 4712 H 445.472 -0.653569 1.94725 0
M  V30 4713 H 443.702 -3.19817 2.1738 0
M  V30 4714 H 445.391 -3.12797 2.58675 0
M  V30 4715 H 446.157 -1.63031 4.56778 0
M  V30 4716 H 442.036 -2.59471 3.81045 0
M  V30 4717 H 445.58 -1.04816 6.89681 0
M  V30 4718 H 441.477 -2.01718 6.13172 0
M  V30 4719 H 442.245 -1.30259 8.08069 0
M  V30 4720 N 444.908 -1.36708 -0.784132 0
M  V30 4721 C 446.136 -1.34398 -1.57305 0
M  V30 4722 C 446.551 0.0735577 -1.88657 0
M  V30 4723 O 445.908 1.03193 -1.50524 0
M  V30 4724 C 445.959 -2.17053 -2.89085 0
M  V30 4725 O 445.68 -3.53281 -2.59083 0
M  V30 4726 C 447.181 -2.22583 -3.83369 0
M  V30 4727 H 444.401 -0.460819 -0.487736 0
M  V30 4728 H 446.945 -1.79879 -0.972819 0
M  V30 4729 H 445.1 -1.75113 -3.45564 0
M  V30 4730 H 445.514 -3.9647 -3.43383 0
M  V30 4731 H 446.988 -2.84763 -4.72878 0
M  V30 4732 H 447.465 -1.23075 -4.21603 0
M  V30 4733 H 448.071 -2.64781 -3.32823 0
M  V30 4734 N 446.386 1.0089 -1.21074 0
M  V30 4735 C 447.333 2.09588 -0.966512 0
M  V30 4736 C 448.303 1.65761 0.106089 0
M  V30 4737 O 449.488 1.90758 -0.0402287 0
M  V30 4738 C 446.628 3.40958 -0.533058 0
M  V30 4739 C 445.741 3.9822 -1.67467 0
M  V30 4740 C 444.876 5.17682 -1.19076 0
M  V30 4741 C 443.915 5.67043 -2.30496 0
M  V30 4742 N 443.052 6.77759 -1.83267 0
M  V30 4743 H 447.892 2.29815 -1.89708 0
M  V30 4744 H 445.429 1.12689 -0.945489 0
M  V30 4745 H 447.387 4.1637 -0.263019 0
M  V30 4746 H 446.017 3.20781 0.360505 0
M  V30 4747 H 445.069 3.1983 -2.05944 0
M  V30 4748 H 446.381 4.3085 -2.51336 0
M  V30 4749 H 445.535 6.00326 -0.877151 0
M  V30 4750 H 444.274 4.86635 -0.322066 0
M  V30 4751 H 443.279 4.82999 -2.62664 0
M  V30 4752 H 444.504 6.00121 -3.17855 0
M  V30 4753 H 442.45 6.48527 -0.987356 0
M  V30 4754 H 442.367 7.09624 -2.60711 0
M  V30 4755 H 443.635 7.63949 -1.54928 0
M  V30 4756 N 447.864 1.01787 1.20321 0
M  V30 4757 C 449.112 0.706538 1.89347 0
M  V30 4758 C 449.433 -0.766289 1.79313 0
M  V30 4759 O 448.703 -1.55126 1.19635 0
M  V30 4760 H 447.283 0.258348 0.700903 0
M  V30 4761 H 449.945 1.28974 1.46122 0
M  V30 4762 H 449.041 0.991066 2.95946 0
M  V30 4763 N 449.342 -1.36122 0.79427 0
M  V30 4764 C 450.272 -2.32551 0.210328 0
M  V30 4765 C 451.253 -1.56884 -0.657386 0
M  V30 4766 O 452.438 -1.85014 -0.590207 0
M  V30 4767 C 449.568 -3.41128 -0.651819 0
M  V30 4768 C 448.522 -4.27842 0.116395 0
M  V30 4769 C 447.848 -5.2763 -0.86666 0
M  V30 4770 C 449.148 -5.05647 1.30837 0
M  V30 4771 H 450.842 -2.81636 1.01594 0
M  V30 4772 H 448.388 -1.35407 0.489981 0
M  V30 4773 H 450.341 -4.07581 -1.07031 0
M  V30 4774 H 449.065 -2.90622 -1.49019 0
M  V30 4775 H 447.724 -3.62952 0.515915 0
M  V30 4776 H 447.372 -4.73395 -1.70019 0
M  V30 4777 H 447.072 -5.86514 -0.35705 0
M  V30 4778 H 448.596 -5.96955 -1.28361 0
M  V30 4779 H 450.01 -5.65113 0.965393 0
M  V30 4780 H 448.407 -5.73967 1.75161 0
M  V30 4781 H 449.477 -4.37006 2.10128 0
M  V30 4782 N 450.82 -0.546701 -1.47814 0
M  V30 4783 C 452.231 -0.110564 -1.86372 0
M  V30 4784 C 452.582 1.31678 -1.45449 0
M  V30 4785 O 451.707 1.98889 -0.852758 0
M  V30 4786 C 452.302 -0.193873 -3.38245 0
M  V30 4787 C 450.861 0.187164 -3.75934 0
M  V30 4788 C 450.008 -0.546166 -2.71868 0
M  V30 4789 H 452.959 -0.757022 -1.39481 0
M  V30 4790 H 452.98 0.590218 -3.75895 0
M  V30 4791 H 452.492 -1.23282 -3.67999 0
M  V30 4792 H 450.593 1.22762 -3.51796 0
M  V30 4793 H 450.706 -0.164083 -4.78819 0
M  V30 4794 H 449.07 0.00953904 -2.54698 0
M  V30 4795 H 449.853 -1.58606 -3.04465 0
M  V30 4796 N 452.299 1.55045 -0.282633 0
M  V30 4797 C 453.231 2.2023 0.634924 0
M  V30 4798 C 454.244 1.18931 1.11172 0
M  V30 4799 O 455.433 1.4562 1.03233 0
M  V30 4800 C 452.533 2.82041 1.87899 0
M  V30 4801 C 451.706 4.091 1.54776 0
M  V30 4802 C 450.765 4.54887 2.64507 0
M  V30 4803 O 449.791 5.20496 2.30375 0
M  V30 4804 N 450.993 4.25659 3.94709 0
M  V30 4805 H 453.758 2.99601 0.0769811 0
M  V30 4806 H 451.319 1.61565 -0.104048 0
M  V30 4807 H 453.311 3.09613 2.60619 0
M  V30 4808 H 451.881 2.06618 2.3458 0
M  V30 4809 H 451.101 3.88736 0.654049 0
M  V30 4810 H 452.389 4.9187 1.30158 0
M  V30 4811 H 451.787 3.7306 4.25256 0
M  V30 4812 H 450.344 4.57984 4.63782 0
M  V30 4813 N 453.777 0.010035 1.57597 0
M  V30 4814 C 454.687 -0.994226 2.12491 0
M  V30 4815 C 455.703 -1.37013 1.07254 0
M  V30 4816 O 456.879 -1.45542 1.3921 0
M  V30 4817 C 453.944 -2.2642 2.62555 0
M  V30 4818 C 453.005 -1.95049 3.82432 0
M  V30 4819 C 452.238 -3.15991 4.30099 0
M  V30 4820 O 452.461 -4.28015 3.7704 0
M  V30 4821 O 451.395 -2.99403 5.22151 0
M  V30 4822 H 455.221 -0.557549 2.98538 0
M  V30 4823 H 452.806 -0.209413 1.47925 0
M  V30 4824 H 454.688 -3.01009 2.9491 0
M  V30 4825 H 453.363 -2.69306 1.796 0
M  V30 4826 H 452.27 -1.17904 3.55034 0
M  V30 4827 H 453.603 -1.56992 4.66491 0
M  V30 4828 N 455.255 -1.55392 -0.262866 0
M  V30 4829 C 456.188 -1.8391 -1.35101 0
M  V30 4830 C 457.166 -0.692901 -1.47097 0
M  V30 4831 O 458.35 -0.936979 -1.63563 0
M  V30 4832 C 455.477 -2.00969 -2.72634 0
M  V30 4833 C 454.523 -3.23559 -2.7787 0
M  V30 4834 S 455.356 -4.80647 -2.3609 0
M  V30 4835 C 456.512 -5.00692 -3.75578 0
M  V30 4836 H 456.745 -2.75918 -1.1071 0
M  V30 4837 H 454.278 -1.47294 -0.463029 0
M  V30 4838 H 456.236 -2.11482 -3.51832 0
M  V30 4839 H 454.897 -1.09832 -2.94272 0
M  V30 4840 H 454.09 -3.32413 -3.78837 0
M  V30 4841 H 453.692 -3.11689 -2.06702 0
M  V30 4842 H 455.984 -4.87055 -4.70939 0
M  V30 4843 H 456.927 -6.02717 -3.71669 0
M  V30 4844 H 457.335 -4.28619 -3.6735 0
M  V30 4845 N 456.733 0.527833 -1.48498 0
M  V30 4846 C 457.665 1.6482 -1.5927 0
M  V30 4847 C 458.678 1.55659 -0.476869 0
M  V30 4848 O 459.867 1.62081 -0.747806 0
M  V30 4849 C 456.967 3.0348 -1.50842 0
M  V30 4850 C 456.14 3.381 -2.77502 0
M  V30 4851 C 455.199 4.5605 -2.62497 0
M  V30 4852 O 454.225 4.59165 -3.36387 0
M  V30 4853 N 455.427 5.54353 -1.72257 0
M  V30 4854 H 458.192 1.56015 -2.55889 0
M  V30 4855 H 455.753 0.715152 -1.45249 0
M  V30 4856 H 457.745 3.80264 -1.38496 0
M  V30 4857 H 456.315 3.06352 -0.621887 0
M  V30 4858 H 455.535 2.50473 -3.04396 0
M  V30 4859 H 456.823 3.58017 -3.61527 0
M  V30 4860 H 456.221 5.54617 -1.11431 0
M  V30 4861 H 454.778 6.30347 -1.65849 0
M  V30 4862 N 458.211 1.37122 0.776871 0
M  V30 4863 C 459.488 1.22586 1.52421 0
M  V30 4864 C 459.868 -0.182726 2.10308 0
M  V30 4865 O 459.216 -1.18979 1.9508 0
M  V30 4866 C 459.426 2.31782 2.60918 0
M  V30 4867 C 460.774 2.69071 3.2846 0
M  V30 4868 O 461.798 2.3092 2.71209 0
M  V30 4869 O 460.657 3.3478 4.31954 0
M  V30 4870 H 457.751 0.478045 0.674835 0
M  V30 4871 H 460.297 1.48888 0.814275 0
M  V30 4872 H 459.069 3.26131 2.16227 0
M  V30 4873 H 458.692 2.06916 3.39517 0
M  V30 4874 N 459.689 -1.00246 1.21608 0
M  V30 4875 C 460.636 -2.09073 0.977613 0
M  V30 4876 C 461.606 -1.65815 -0.097297 0
M  V30 4877 O 462.791 -1.90734 0.0503445 0
M  V30 4878 C 459.931 -3.40671 0.551133 0
M  V30 4879 C 459.044 -3.97326 1.69576 0
M  V30 4880 C 458.179 -5.17043 1.2182 0
M  V30 4881 C 457.218 -5.65813 2.335 0
M  V30 4882 N 456.355 -6.76778 1.86859 0
M  V30 4883 H 461.195 -2.28806 1.90924 0
M  V30 4884 H 458.732 -1.12186 0.951452 0
M  V30 4885 H 460.69 -4.16225 0.285097 0
M  V30 4886 H 459.32 -3.20967 -0.343489 0
M  V30 4887 H 458.372 -3.18734 2.07637 0
M  V30 4888 H 459.684 -4.29511 2.53617 0
M  V30 4889 H 458.838 -5.99852 0.908975 0
M  V30 4890 H 457.577 -4.86458 0.347869 0
M  V30 4891 H 456.582 -4.81599 2.65222 0
M  V30 4892 H 457.807 -5.98427 3.21033 0
M  V30 4893 H 455.753 -6.47994 1.02174 0
M  V30 4894 H 455.67 -7.08231 2.64471 0
M  V30 4895 H 456.938 -7.63116 1.58978 0
M  V30 4896 N 461.167 -1.02423 -1.1978 0
M  V30 4897 C 462.097 -0.62157 -2.25075 0
M  V30 4898 C 463.078 0.367148 -1.6609 0
M  V30 4899 O 464.263 0.250892 -1.92573 0
M  V30 4900 C 461.393 0.0331826 -3.47284 0
M  V30 4901 C 460.347 -0.877323 -4.18912 0
M  V30 4902 C 459.673 -0.0879296 -5.34628 0
M  V30 4903 C 460.973 -2.18892 -4.74219 0
M  V30 4904 H 462.667 -1.50179 -2.59011 0
M  V30 4905 H 460.213 -0.723547 -1.24502 0
M  V30 4906 H 462.166 0.326488 -4.20133 0
M  V30 4907 H 460.89 0.948164 -3.12534 0
M  V30 4908 H 459.549 -1.15475 -3.47938 0
M  V30 4909 H 459.197 0.828941 -4.96123 0
M  V30 4910 H 458.897 -0.694359 -5.83483 0
M  V30 4911 H 460.421 0.198743 -6.10276 0
M  V30 4912 H 461.835 -1.95746 -5.38847 0
M  V30 4913 H 460.232 -2.74686 -5.33542 0
M  V30 4914 H 461.302 -2.84674 -3.92541 0
M  V30 4915 N 462.645 1.35699 -0.801477 0
M  V30 4916 C 463.608 2.28199 -0.213994 0
M  V30 4917 C 464.608 1.49359 0.595691 0
M  V30 4918 O 465.798 1.69186 0.414921 0
M  V30 4919 C 462.93 3.33587 0.702297 0
M  V30 4920 H 464.123 2.81666 -1.02976 0
M  V30 4921 H 461.676 1.45467 -0.571759 0
M  V30 4922 H 462.411 2.85297 1.54195 0
M  V30 4923 H 462.196 3.91906 0.123484 0
M  V30 4924 H 463.686 4.02638 1.10783 0
M  V30 4925 N 464.123 0.554532 1.47522 0
M  V30 4926 C 465.07 -0.19466 2.29978 0
M  V30 4927 C 466.04 -0.910882 1.38896 0
M  V30 4928 O 467.225 -0.907102 1.67858 0
M  V30 4929 C 464.365 -1.22035 3.22802 0
M  V30 4930 C 463.478 -0.510474 4.28973 0
M  V30 4931 C 462.613 -1.52123 5.08952 0
M  V30 4932 C 461.652 -0.796173 6.069 0
M  V30 4933 N 460.789 -1.75363 6.79847 0
M  V30 4934 H 465.629 0.51461 2.93523 0
M  V30 4935 H 463.166 0.265607 1.44682 0
M  V30 4936 H 465.124 -1.8276 3.7504 0
M  V30 4937 H 463.754 -1.89769 2.61127 0
M  V30 4938 H 462.806 0.211234 3.79813 0
M  V30 4939 H 464.118 0.0576503 4.98767 0
M  V30 4940 H 463.272 -2.20207 5.65326 0
M  V30 4941 H 462.011 -2.12327 4.39054 0
M  V30 4942 H 461.016 -0.101388 5.49707 0
M  V30 4943 H 462.241 -0.199911 6.78806 0
M  V30 4944 H 460.187 -2.3443 6.12682 0
M  V30 4945 H 460.104 -1.23759 7.45801 0
M  V30 4946 H 461.372 -2.4257 7.40797 0
M  V30 4947 N 465.601 -1.54893 0.290851 0
M  V30 4948 C 467.017 -1.59476 -0.0628432 0
M  V30 4949 C 467.217 -1.30795 -1.5328 0
M  V30 4950 O 466.273 -1.07644 -2.28406 0
M  V30 4951 C 467.586 -2.98928 0.325962 0
M  V30 4952 C 469.134 -3.11799 0.273882 0
M  V30 4953 C 469.609 -4.53544 0.637359 0
M  V30 4954 N 471.1 -4.59433 0.589507 0
M  V30 4955 C 471.835 -5.67164 0.84335 0
M  V30 4956 N 471.331 -6.82975 1.16263 0
M  V30 4957 N 473.124 -5.56786 0.771091 0
M  V30 4958 H 465.275 -1.71798 1.24896 0
M  V30 4959 H 467.538 -0.801879 0.505663 0
M  V30 4960 H 467.244 -3.24805 1.34887 0
M  V30 4961 H 467.118 -3.75793 -0.325441 0
M  V30 4962 H 469.505 -2.85677 -0.739765 0
M  V30 4963 H 469.586 -2.37112 0.959766 0
M  V30 4964 H 469.23 -4.80394 1.64877 0
M  V30 4965 H 469.16 -5.26553 -0.0704866 0
M  V30 4966 H 471.651 -3.76245 0.353252 0
M  V30 4967 H 471.964 -7.61048 1.34257 0
M  V30 4968 H 470.309 -6.84552 1.20057 0
M  V30 4969 H 473.5 -4.65187 0.521383 0
M  V30 4970 H 473.673 -6.40664 0.972295 0
M  V30 4971 N 467.08 -0.0183926 -1.57589 0
M  V30 4972 C 468.31 0.67207 -1.95363 0
M  V30 4973 C 468.718 1.66807 -0.892872 0
M  V30 4974 O 468.061 1.83204 0.134958 0
M  V30 4975 C 468.123 1.44397 -3.29226 0
M  V30 4976 C 467.787 0.607511 -4.52944 0
M  V30 4977 C 468.784 -0.112657 -5.19778 0
M  V30 4978 C 466.469 0.548068 -4.99301 0
M  V30 4979 C 468.463 -0.881057 -6.31281 0
M  V30 4980 C 466.15 -0.224044 -6.10689 0
M  V30 4981 C 467.148 -0.937323 -6.76538 0
M  V30 4982 O 466.836 -1.6968 -7.85789 0
M  V30 4983 H 466.568 0.190925 -0.648478 0
M  V30 4984 H 469.122 -0.0711994 -2.05277 0
M  V30 4985 H 467.352 2.23214 -3.15773 0
M  V30 4986 H 469.041 2.02152 -3.51979 0
M  V30 4987 H 469.807 -0.0759998 -4.8494 0
M  V30 4988 H 465.686 1.09281 -4.4786 0
M  V30 4989 H 469.23 -1.43832 -6.82611 0
M  V30 4990 H 465.127 -0.262457 -6.44966 0
M  V30 4991 H 465.895 -1.61544 -8.024 0
M  V30 4992 N 468.558 1.5553 0.254621 0
M  V30 4993 C 469.468 1.92789 1.33677 0
M  V30 4994 C 470.484 0.827356 1.53071 0
M  V30 4995 O 471.66 1.12807 1.66843 0
M  V30 4996 C 468.725 2.20827 2.67275 0
M  V30 4997 C 467.786 3.4427 2.5647 0
M  V30 4998 C 467.019 3.70961 3.83697 0
M  V30 4999 O 467.242 2.99852 4.85227 0
M  V30 5000 O 466.176 4.64491 3.82794 0
M  V30 5001 H 470.002 2.84945 1.05071 0
M  V30 5002 H 467.587 1.42312 0.454723 0
M  V30 5003 H 469.469 2.40204 3.46237 0
M  V30 5004 H 468.144 1.31851 2.9563 0
M  V30 5005 H 467.051 3.30209 1.75821 0
M  V30 5006 H 468.384 4.33524 2.33062 0
M  V30 5007 N 470.036 -0.519951 1.48776 0
M  V30 5008 C 471.313 -1.28123 1.47797 0
M  V30 5009 C 471.693 -2.10196 0.195157 0
M  V30 5010 O 471.041 -2.13167 -0.822925 0
M  V30 5011 C 471.251 -2.15413 2.74587 0
M  V30 5012 C 472.599 -2.75225 3.23321 0
M  V30 5013 O 473.623 -2.25694 2.75574 0
M  V30 5014 O 472.482 -3.65346 4.06429 0
M  V30 5015 H 469.576 -0.578793 0.590701 0
M  V30 5016 H 472.122 -0.535779 1.6102 0
M  V30 5017 H 470.894 -1.54617 3.59457 0
M  V30 5018 H 470.517 -2.97186 2.64132 0
M  V30 5019 N 471.514 -1.37532 -0.769588 0
M  V30 5020 C 472.444 -1.36172 -1.89682 0
M  V30 5021 C 473.425 -0.23001 -1.68538 0
M  V30 5022 O 474.61 -0.43069 -1.89364 0
M  V30 5023 C 471.74 -1.1701 -3.26995 0
M  V30 5024 C 470.694 -2.27216 -3.62708 0
M  V30 5025 C 470.02 -1.93174 -4.98586 0
M  V30 5026 C 471.32 -3.6941 -3.69234 0
M  V30 5027 H 473.014 -2.30499 -1.91078 0
M  V30 5028 H 470.56 -1.10953 -0.917902 0
M  V30 5029 H 472.513 -1.14688 -4.05493 0
M  V30 5030 H 471.237 -0.191395 -3.26039 0
M  V30 5031 H 469.896 -2.28697 -2.86519 0
M  V30 5032 H 469.544 -0.938281 -4.94171 0
M  V30 5033 H 469.244 -2.66973 -5.23449 0
M  V30 5034 H 470.768 -1.92443 -5.79481 0
M  V30 5035 H 472.182 -3.70047 -4.37879 0
M  V30 5036 H 470.579 -4.4228 -4.05597 0
M  V30 5037 H 471.649 -4.0288 -2.69844 0
M  V30 5038 N 472.992 0.995999 -1.22138 0
M  V30 5039 C 474.239 1.7351 -1.04406 0
M  V30 5040 C 474.567 1.89884 0.421244 0
M  V30 5041 O 473.822 1.43683 1.32867 0
M  V30 5042 C 474.121 3.14553 -1.6968 0
M  V30 5043 C 473.787 3.18102 -3.19565 0
M  V30 5044 C 472.449 3.18778 -3.60464 0
M  V30 5045 C 474.801 3.14636 -4.15516 0
M  V30 5046 C 472.129 3.13684 -4.95801 0
M  V30 5047 C 474.481 3.11084 -5.50826 0
M  V30 5048 C 473.145 3.10074 -5.91109 0
M  V30 5049 H 472.415 0.634916 -0.38205 0
M  V30 5050 H 475.062 1.1667 -1.51857 0
M  V30 5051 H 473.367 3.74682 -1.14546 0
M  V30 5052 H 475.064 3.70477 -1.53454 0
M  V30 5053 H 471.654 3.18324 -2.86998 0
M  V30 5054 H 475.838 3.13266 -3.84939 0
M  V30 5055 H 471.094 3.11245 -5.26247 0
M  V30 5056 H 475.268 3.07357 -6.24904 0
M  V30 5057 H 472.895 3.05882 -6.95946 0
M  V30 5058 N 474.47 1.03057 1.19235 0
M  V30 5059 C 475.417 0.612832 2.22515 0
M  V30 5060 C 476.387 -0.374224 1.61829 0
M  V30 5061 O 477.572 -0.270501 1.88873 0
M  V30 5062 C 474.712 -0.028475 3.45088 0
M  V30 5063 C 473.825 1.00483 4.20151 0
M  V30 5064 C 472.96 0.333102 5.30155 0
M  V30 5065 C 471.999 1.3522 5.96977 0
M  V30 5066 N 471.136 0.70616 6.9854 0
M  V30 5067 H 475.976 1.49812 2.57605 0
M  V30 5068 H 473.513 0.749658 1.26564 0
M  V30 5069 H 475.471 -0.417548 4.15105 0
M  V30 5070 H 474.101 -0.877334 3.10649 0
M  V30 5071 H 473.153 1.51194 3.49062 0
M  V30 5072 H 474.465 1.77929 4.65986 0
M  V30 5073 H 473.619 -0.110725 6.06599 0
M  V30 5074 H 472.358 -0.473547 4.85396 0
M  V30 5075 H 471.363 1.80627 5.19282 0
M  V30 5076 H 472.588 2.16037 6.4382 0
M  V30 5077 H 470.534 -0.0803667 6.55951 0
M  V30 5078 H 470.451 1.41848 7.42573 0
M  V30 5079 H 471.719 0.286391 7.78974 0
M  V30 5080 N 475.948 -1.35272 0.808662 0
M  V30 5081 C 476.878 -2.32315 0.234981 0
M  V30 5082 C 477.859 -1.57572 -0.64071 0
M  V30 5083 O 479.044 -1.8563 -0.570551 0
M  V30 5084 C 476.174 -3.41801 -0.615601 0
M  V30 5085 C 475.128 -4.27694 0.161767 0
M  V30 5086 C 474.454 -5.28519 -0.810649 0
M  V30 5087 C 475.754 -5.04231 1.36193 0
M  V30 5088 H 477.448 -2.80543 1.04575 0
M  V30 5089 H 474.994 -1.3488 0.504315 0
M  V30 5090 H 476.947 -4.08693 -1.02702 0
M  V30 5091 H 475.671 -2.92186 -1.45928 0
M  V30 5092 H 474.33 -3.62384 0.554382 0
M  V30 5093 H 473.978 -4.75171 -1.64988 0
M  V30 5094 H 473.678 -5.8686 -0.294822 0
M  V30 5095 H 475.202 -5.98283 -1.22023 0
M  V30 5096 H 476.616 -5.64058 1.02528 0
M  V30 5097 H 475.013 -5.72077 1.81239 0
M  V30 5098 H 476.083 -4.34753 2.14751 0
M  V30 5099 N 477.426 -0.562348 -1.47226 0
M  V30 5100 C 478.673 -0.0402165 -2.0246 0
M  V30 5101 C 479.001 1.31169 -1.43614 0
M  V30 5102 O 478.256 1.86805 -0.5833 0
M  V30 5103 C 478.555 0.0969817 -3.57268 0
M  V30 5104 C 478.221 -1.1847 -4.35058 0
M  V30 5105 C 476.883 -1.53588 -4.56031 0
M  V30 5106 C 479.235 -2.03378 -4.79882 0
M  V30 5107 C 476.563 -2.73452 -5.19077 0
M  V30 5108 C 478.915 -3.2245 -5.44251 0
M  V30 5109 C 477.579 -3.57876 -5.63455 0
M  V30 5110 H 476.849 -0.0147163 -0.740854 0
M  V30 5111 H 479.496 -0.734895 -1.76838 0
M  V30 5112 H 477.801 0.87466 -3.81912 0
M  V30 5113 H 479.498 0.516408 -3.97661 0
M  V30 5114 H 476.088 -0.90126 -4.19017 0
M  V30 5115 H 480.272 -1.77553 -4.63453 0
M  V30 5116 H 475.528 -3.01062 -5.32139 0
M  V30 5117 H 479.702 -3.88526 -5.77945 0
M  V30 5118 H 477.329 -4.50849 -6.12078 0
M  V30 5119 N 478.904 1.54736 -0.299062 0
M  V30 5120 C 480.153 1.99279 0.311549 0
M  V30 5121 C 480.466 1.19107 1.55154 0
M  V30 5122 O 481.672 1.53908 2.23662 0
M  V30 5123 C 480.128 3.54768 0.605632 0
M  V30 5124 C 479.736 4.43746 -0.615914 0
M  V30 5125 C 481.48 4.07841 1.17754 0
M  V30 5126 C 479.387 5.90663 -0.29509 0
M  V30 5127 H 478.317 0.744359 0.120187 0
M  V30 5128 H 480.968 1.78919 -0.407464 0
M  V30 5129 H 479.35 3.71021 1.38419 0
M  V30 5130 H 480.524 4.39267 -1.39218 0
M  V30 5131 H 478.839 4.01434 -1.10633 0
M  V30 5132 H 481.436 5.15174 1.43179 0
M  V30 5133 H 481.779 3.58324 2.11918 0
M  V30 5134 H 482.312 3.95123 0.460739 0
M  V30 5135 H 479.051 6.44325 -1.20524 0
M  V30 5136 H 478.571 5.98155 0.44394 0
M  V30 5137 H 480.25 6.46916 0.104048 0
M  V30 5138 N 480.382 0.0267497 1.57577 0
M  V30 5139 C 481.329 -0.955894 2.10075 0
M  V30 5140 C 482.299 -1.32453 1.00226 0
M  V30 5141 O 483.484 -1.41826 1.27632 0
M  V30 5142 C 480.624 -2.2338 2.6305 0
M  V30 5143 C 479.737 -1.92183 3.86898 0
M  V30 5144 C 478.872 -3.14251 4.28275 0
M  V30 5145 C 477.911 -2.78862 5.44888 0
M  V30 5146 N 477.048 -3.93548 5.81433 0
M  V30 5147 H 481.888 -0.501303 2.93753 0
M  V30 5148 H 479.425 -0.235847 1.45197 0
M  V30 5149 H 481.383 -2.98124 2.91853 0
M  V30 5150 H 480.013 -2.6646 1.82205 0
M  V30 5151 H 479.065 -1.07692 3.64838 0
M  V30 5152 H 480.377 -1.62117 4.7172 0
M  V30 5153 H 479.531 -3.97317 4.58502 0
M  V30 5154 H 478.27 -3.47476 3.42215 0
M  V30 5155 H 477.275 -1.94208 5.14357 0
M  V30 5156 H 478.5 -2.46855 6.32645 0
M  V30 5157 H 476.446 -4.2662 4.98328 0
M  V30 5158 H 476.363 -3.67098 6.6089 0
M  V30 5159 H 477.631 -4.77325 6.16264 0
M  V30 5160 N 481.861 -1.55662 -0.24637 0
M  V30 5161 C 482.811 -1.86753 -1.30795 0
M  V30 5162 C 483.795 -0.728445 -1.43466 0
M  V30 5163 O 484.987 -0.99038 -1.46699 0
M  V30 5164 C 482.116 -2.16618 -2.66329 0
M  V30 5165 C 481.202 -3.36855 -2.57661 0
M  V30 5166 N 481.593 -4.56111 -2.18624 0
M  V30 5167 C 479.891 -3.39976 -2.88673 0
M  V30 5168 C 480.592 -5.38247 -2.20601 0
M  V30 5169 N 479.568 -4.77322 -2.60124 0
M  V30 5170 H 483.37 -2.76486 -0.996642 0
M  V30 5171 H 480.884 -1.55896 -0.454994 0
M  V30 5172 H 482.881 -2.37057 -3.42942 0
M  V30 5173 H 481.541 -1.28185 -2.98327 0
M  V30 5174 H 482.552 -4.81726 -1.9016 0
M  V30 5175 H 479.229 -2.61815 -3.25206 0
M  V30 5176 H 480.619 -6.43657 -1.92756 0
M  V30 5177 N 483.339 0.512053 -1.4905 0
M  V30 5178 C 484.564 1.2959 -1.6193 0
M  V30 5179 C 484.989 1.85906 -0.286454 0
M  V30 5180 O 484.347 1.65312 0.744426 0
M  V30 5181 C 484.395 2.40987 -2.68249 0
M  V30 5182 O 483.499 3.44531 -2.26654 0
M  V30 5183 H 482.84 0.383053 -0.542371 0
M  V30 5184 H 485.37 0.614231 -1.95162 0
M  V30 5185 H 485.38 2.86913 -2.90078 0
M  V30 5186 H 484.055 1.99361 -3.65004 0
M  V30 5187 H 482.632 3.046 -2.15112 0
M  V30 5188 N 484.817 1.37938 0.762283 0
M  V30 5189 C 486.094 1.24196 1.51112 0
M  V30 5190 C 486.474 -0.160409 2.1049 0
M  V30 5191 O 485.822 -1.16904 1.96331 0
M  V30 5192 C 486.032 2.34537 2.58445 0
M  V30 5193 C 487.38 2.7254 3.25588 0
M  V30 5194 O 488.404 2.33783 2.68745 0
M  V30 5195 O 487.263 3.39343 4.28379 0
M  V30 5196 H 484.357 0.485175 0.669727 0
M  V30 5197 H 486.903 1.49743 0.798438 0
M  V30 5198 H 485.675 3.28406 2.12756 0
M  V30 5199 H 485.298 2.10505 3.37303 0
M  V30 5200 N 486.295 -0.989507 1.22664 0
M  V30 5201 C 487.242 -2.08024 0.999733 0
M  V30 5202 C 488.212 -1.65909 -0.0797047 0
M  V30 5203 O 489.397 -1.90669 0.0705715 0
M  V30 5204 C 486.537 -3.40067 0.587234 0
M  V30 5205 C 485.65 -3.95505 1.73781 0
M  V30 5206 C 484.785 -5.15722 1.27297 0
M  V30 5207 C 483.824 -5.63305 2.39488 0
M  V30 5208 N 482.961 -6.74758 1.94026 0
M  V30 5209 H 487.801 -2.26768 1.9334 0
M  V30 5210 H 485.338 -1.11171 0.963297 0
M  V30 5211 H 487.296 -4.15899 0.329227 0
M  V30 5212 H 485.926 -3.21314 -0.309426 0
M  V30 5213 H 484.978 -3.16513 2.11006 0
M  V30 5214 H 486.29 -4.26797 2.58158 0
M  V30 5215 H 485.444 -5.98854 0.972546 0
M  V30 5216 H 484.183 -4.86061 0.399445 0
M  V30 5217 H 483.188 -4.78759 2.70315 0
M  V30 5218 H 484.413 -5.94988 3.27362 0
M  V30 5219 H 482.359 -6.46874 1.09041 0
M  V30 5220 H 482.276 -7.05386 2.71968 0
M  V30 5221 H 483.544 -7.61387 1.67062 0
M  V30 5222 N 487.773 -1.03688 -1.18687 0
M  V30 5223 C 489.022 -0.733235 -1.879 0
M  V30 5224 C 489.335 0.741745 -1.8099 0
M  V30 5225 O 490.541 1.15875 -2.4553 0
M  V30 5226 C 488.997 -1.26127 -3.37076 0
M  V30 5227 C 488.605 -2.76461 -3.52524 0
M  V30 5228 C 490.349 -1.03398 -4.11715 0
M  V30 5229 C 488.256 -3.22642 -4.95637 0
M  V30 5230 H 487.186 -0.270584 -0.703776 0
M  V30 5231 H 489.837 -1.25222 -1.34133 0
M  V30 5232 H 488.219 -0.670165 -3.90288 0
M  V30 5233 H 489.393 -3.41296 -3.09602 0
M  V30 5234 H 487.708 -2.97559 -2.91286 0
M  V30 5235 H 490.305 -1.3542 -5.17267 0
M  V30 5236 H 490.648 0.0289246 -4.1629 0
M  V30 5237 H 491.181 -1.5895 -3.64664 0
M  V30 5238 H 487.92 -4.28296 -4.96228 0
M  V30 5239 H 487.44 -2.62539 -5.39289 0
M  V30 5240 H 489.119 -3.16444 -5.64333 0
M  V30 5241 N 489.251 1.34841 -0.815825 0
M  V30 5242 C 490.528 1.92908 -0.323416 0
M  V30 5243 C 490.908 1.74479 1.18828 0
M  V30 5244 O 490.256 1.11928 1.99209 0
M  V30 5245 C 490.466 3.40957 -0.744952 0
M  V30 5246 C 491.814 4.18107 -0.739716 0
M  V30 5247 O 492.838 3.49511 -0.68708 0
M  V30 5248 O 491.697 5.40517 -0.806456 0
M  V30 5249 H 488.791 0.822436 -0.0867646 0
M  V30 5250 H 491.337 1.4386 -0.90014 0
M  V30 5251 H 490.109 3.4814 -1.78646 0
M  V30 5252 H 489.732 3.97341 -0.143535 0
M  V30 5253 N 490.729 0.570148 1.46925 0
M  V30 5254 C 492.145 0.23087 1.57921 0
M  V30 5255 C 492.345 -1.26676 1.56702 0
M  V30 5256 O 491.401 -2.04774 1.47729 0
M  V30 5257 C 492.714 0.868973 2.8787 0
M  V30 5258 C 494.262 0.841397 3.01479 0
M  V30 5259 C 494.737 1.45881 4.34146 0
M  V30 5260 N 496.228 1.42258 4.40814 0
M  V30 5261 C 496.963 1.8698 5.42057 0
M  V30 5262 N 496.459 2.39618 6.50042 0
M  V30 5263 N 498.252 1.77972 5.33181 0
M  V30 5264 H 490.403 1.54301 1.45962 0
M  V30 5265 H 492.666 0.644224 0.69547 0
M  V30 5266 H 492.372 1.922 2.94537 0
M  V30 5267 H 492.246 0.369682 3.75384 0
M  V30 5268 H 494.633 -0.202973 2.94401 0
M  V30 5269 H 494.714 1.37858 2.15474 0
M  V30 5270 H 494.358 2.50231 4.4198 0
M  V30 5271 H 494.288 0.896958 5.18905 0
M  V30 5272 H 496.779 1.03768 3.63374 0
M  V30 5273 H 497.092 2.71633 7.23488 0
M  V30 5274 H 495.437 2.43636 6.50897 0
M  V30 5275 H 498.628 1.36617 4.4772 0
M  V30 5276 H 498.801 2.13143 6.11943 0
M  V30 5277 N 492.207 -1.54576 0.307264 0
M  V30 5278 C 493.17 -2.22423 -0.553224 0
M  V30 5279 C 494.17 -1.21231 -1.05639 0
M  V30 5280 O 495.36 -1.45923 -0.951419 0
M  V30 5281 C 492.492 -2.91552 -1.76664 0
M  V30 5282 H 493.685 -2.99874 0.0396484 0
M  V30 5283 H 491.238 -1.56192 0.0581629 0
M  V30 5284 H 491.973 -2.18196 -2.39918 0
M  V30 5285 H 491.758 -3.65738 -1.41343 0
M  V30 5286 H 493.248 -3.43292 -2.37783 0
M  V30 5287 N 493.685 -0.035106 -1.57561 0
M  V30 5288 C 494.913 0.652258 -1.9635 0
M  V30 5289 C 495.328 1.65317 -0.911897 0
M  V30 5290 O 494.685 1.82194 0.105657 0
M  V30 5291 C 494.736 1.35337 -3.35211 0
M  V30 5292 O 494.457 0.392548 -4.36338 0
M  V30 5293 C 495.958 2.13199 -3.88666 0
M  V30 5294 H 493.178 0.179444 -0.646561 0
M  V30 5295 H 495.722 -0.0966459 -2.04271 0
M  V30 5296 H 493.877 2.05362 -3.28489 0
M  V30 5297 H 494.291 0.891097 -5.16875 0
M  V30 5298 H 495.765 2.577 -4.88154 0
M  V30 5299 H 496.242 2.97353 -3.23231 0
M  V30 5300 H 496.848 1.48118 -3.98674 0
M  V30 5301 N 495.163 1.55791 0.238111 0
M  V30 5302 C 496.41 1.78033 0.964907 0
M  V30 5303 C 496.738 0.600984 1.84982 0
M  V30 5304 O 495.993 -0.41536 1.91241 0
M  V30 5305 C 496.292 3.05869 1.84875 0
M  V30 5306 C 495.958 4.36808 1.11846 0
M  V30 5307 C 494.62 4.72388 0.916662 0
M  V30 5308 C 496.972 5.17717 0.60151 0
M  V30 5309 C 494.3 5.86406 0.185756 0
M  V30 5310 C 496.652 6.32494 -0.115972 0
M  V30 5311 C 495.316 6.66688 -0.329168 0
M  V30 5312 H 494.586 0.651469 0.353085 0
M  V30 5313 H 497.233 1.90061 0.234318 0
M  V30 5314 H 495.538 2.88891 2.64668 0
M  V30 5315 H 497.235 3.20278 2.41294 0
M  V30 5316 H 493.825 4.08862 1.28569 0
M  V30 5317 H 498.009 4.90678 0.744932 0
M  V30 5318 H 493.265 6.11399 0.0101886 0
M  V30 5319 H 497.439 6.94425 -0.524127 0
M  V30 5320 H 495.066 7.54884 -0.897474 0
M  V30 5321 N 496.642 -0.504142 1.49319 0
M  V30 5322 C 497.888 -1.25767 1.59857 0
M  V30 5323 C 498.243 -1.90348 0.280262 0
M  V30 5324 O 497.536 -1.77588 -0.719241 0
M  V30 5325 C 497.73 -2.35021 2.69258 0
M  V30 5326 C 497.559 -1.81154 4.11598 0
M  V30 5327 C 496.329 -1.62596 4.78425 0
M  V30 5328 C 498.527 -1.3252 4.96934 0
M  V30 5329 N 496.509 -1.03625 6.05091 0
M  V30 5330 C 497.88 -0.856633 6.14054 0
M  V30 5331 C 499.935 -1.21063 4.82958 0
M  V30 5332 C 498.638 -0.284841 7.18736 0
M  V30 5333 C 500.664 -0.652815 5.87786 0
M  V30 5334 C 500.026 -0.194461 7.04132 0
M  V30 5335 H 496.125 -0.450293 0.639343 0
M  V30 5336 H 498.709 -0.565344 1.86311 0
M  V30 5337 H 496.88 -3.01719 2.44581 0
M  V30 5338 H 498.612 -3.02061 2.69335 0
M  V30 5339 H 495.367 -1.86873 4.35173 0
M  V30 5340 H 495.791 -0.76076 6.72712 0
M  V30 5341 H 500.433 -1.551 3.93324 0
M  V30 5342 H 498.151 0.0677979 8.08072 0
M  V30 5343 H 501.737 -0.566994 5.79031 0
M  V30 5344 H 500.617 0.230442 7.83861 0
M  V30 5345 N 498.12 -1.38341 -0.754957 0
M  V30 5346 C 499.368 -1.34208 -1.51105 0
M  V30 5347 C 499.689 0.0677634 -1.94882 0
M  V30 5348 O 498.959 1.01517 -1.67544 0
M  V30 5349 H 497.539 -0.493819 -0.560493 0
M  V30 5350 H 500.201 -1.73005 -0.897507 0
M  V30 5351 H 499.297 -1.99203 -2.4026 0
M  V30 5352 N 499.598 0.982988 -1.23187 0
M  V30 5353 C 500.844 1.72648 -1.06398 0
M  V30 5354 C 501.177 1.90066 0.398561 0
M  V30 5355 O 500.452 1.45105 1.29518 0
M  V30 5356 C 500.735 3.12627 -1.78707 0
M  V30 5357 C 500.588 3.02795 -3.32618 0
M  V30 5358 C 501.907 4.11997 -1.54747 0
M  V30 5359 H 499.026 0.626649 -0.387918 0
M  V30 5360 H 501.668 1.14455 -1.51658 0
M  V30 5361 H 499.818 3.62308 -1.40234 0
M  V30 5362 H 501.49 2.60659 -3.80598 0
M  V30 5363 H 499.733 2.39362 -3.61785 0
M  V30 5364 H 500.404 4.01893 -3.78399 0
M  V30 5365 H 502.88 3.71114 -1.88186 0
M  V30 5366 H 501.756 5.08037 -2.07821 0
M  V30 5367 H 502.017 4.39462 -0.482249 0
M  V30 5368 N 501.076 1.04316 1.18135 0
M  V30 5369 C 502.301 0.768047 1.92655 0
M  V30 5370 C 502.726 -0.66904 1.758 0
M  V30 5371 O 502.084 -1.46372 1.06981 0
M  V30 5372 C 502.132 1.14239 3.42026 0
M  V30 5373 O 501.236 0.269333 4.1152 0
M  V30 5374 H 500.577 0.282436 0.600937 0
M  V30 5375 H 503.107 1.39367 1.49793 0
M  V30 5376 H 503.117 1.10538 3.92741 0
M  V30 5377 H 501.792 2.18928 3.53615 0
M  V30 5378 H 500.369 0.366175 3.71098 0
M  V30 5379 N 502.554 -1.34406 0.822964 0
M  V30 5380 C 503.831 -1.92733 0.333641 0
M  V30 5381 C 504.211 -1.75107 -1.17901 0
M  V30 5382 O 503.559 -1.12983 -1.98613 0
M  V30 5383 C 503.769 -3.40557 0.763023 0
M  V30 5384 C 505.117 -4.17709 0.761879 0
M  V30 5385 O 506.141 -3.49141 0.705606 0
M  V30 5386 O 505 -5.40082 0.835109 0
M  V30 5387 H 502.094 -0.821964 0.0911249 0
M  V30 5388 H 504.64 -1.4338 0.907757 0
M  V30 5389 H 503.412 -3.47187 1.8049 0
M  V30 5390 H 503.035 -3.97259 0.164605 0
M  V30 5391 N 504.032 -0.577932 -1.46621 0
M  V30 5392 C 505.309 0.00495287 -1.95599 0
M  V30 5393 C 505.689 1.46428 -1.5206 0
M  V30 5394 O 505.037 2.1517 -0.769046 0
M  V30 5395 C 505.247 -0.162114 -3.48623 0
M  V30 5396 C 506.595 -0.0274623 -4.24591 0
M  V30 5397 O 507.619 -0.0907067 -3.56084 0
M  V30 5398 O 506.478 0.1122 -5.46385 0
M  V30 5399 H 503.572 0.0525057 -0.825332 0
M  V30 5400 H 506.118 -0.645914 -1.56927 0
M  V30 5401 H 504.89 -1.17679 -3.73185 0
M  V30 5402 H 504.513 0.525407 -3.94113 0
M  V30 5403 N 505.51 1.54411 -0.315457 0
M  V30 5404 C 506.473 2.22713 0.54142 0
M  V30 5405 C 507.473 1.2179 1.04995 0
M  V30 5406 O 508.663 1.46426 0.943667 0
M  V30 5407 C 505.795 2.92485 1.75116 0
M  V30 5408 H 506.988 2.99849 -0.0555508 0
M  V30 5409 H 504.541 1.56159 -0.0664453 0
M  V30 5410 H 505.276 2.19466 2.38758 0
M  V30 5411 H 505.061 3.66483 1.39401 0
M  V30 5412 H 506.551 3.44548 2.35959 0
M  V30 5413 N 506.988 0.0434614 1.5754 0
M  V30 5414 C 508.213 -0.645358 1.97104 0
M  V30 5415 C 508.638 -1.64037 0.920521 0
M  V30 5416 O 507.996 -1.80922 -0.11708 0
M  V30 5417 C 508.044 -1.31547 3.35749 0
M  V30 5418 O 507.148 -2.43103 3.33129 0
M  V30 5419 H 506.489 -0.168403 0.64229 0
M  V30 5420 H 509.019 0.109573 2.04306 0
M  V30 5421 H 509.029 -1.66895 3.72304 0
M  V30 5422 H 507.704 -0.586205 4.11748 0
M  V30 5423 H 506.281 -2.0976 3.0831 0
M  V30 5424 N 508.466 -1.55915 -0.229846 0
M  V30 5425 C 509.712 -1.79718 -0.952517 0
M  V30 5426 C 510.067 -0.61514 -1.82301 0
M  V30 5427 O 509.36 0.391098 -1.87566 0
M  V30 5428 C 509.554 -3.06845 -1.8325 0
M  V30 5429 C 509.383 -4.37302 -1.04868 0
M  V30 5430 C 508.153 -4.99749 -0.746932 0
M  V30 5431 C 510.351 -5.12599 -0.417989 0
M  V30 5432 N 508.333 -6.13871 0.0591596 0
M  V30 5433 C 509.704 -6.19488 0.251879 0
M  V30 5434 C 511.759 -4.96804 -0.33018 0
M  V30 5435 C 510.462 -7.12299 1.00115 0
M  V30 5436 C 512.488 -5.90007 0.4056 0
M  V30 5437 C 511.85 -6.96317 1.06404 0
M  V30 5438 H 507.949 -0.709382 -0.329091 0
M  V30 5439 H 510.533 -1.93406 -0.224114 0
M  V30 5440 H 508.704 -2.94456 -2.53279 0
M  V30 5441 H 510.436 -3.18874 -2.49202 0
M  V30 5442 H 507.191 -4.61518 -1.06292 0
M  V30 5443 H 507.615 -6.75497 0.450798 0
M  V30 5444 H 512.257 -4.14675 -0.824898 0
M  V30 5445 H 509.975 -7.93916 1.50741 0
M  V30 5446 H 513.561 -5.79862 0.474436 0
M  V30 5447 H 512.441 -7.67194 1.62429 0
M  V30 5448 N 509.944 0.496216 -1.49584 0
M  V30 5449 C 510.874 1.60576 -1.69521 0
M  V30 5450 C 511.855 1.61169 -0.543933 0
M  V30 5451 O 513.04 1.77834 -0.78031 0
M  V30 5452 C 510.17 2.99038 -1.76616 0
M  V30 5453 C 509.124 3.13312 -2.91581 0
M  V30 5454 C 508.45 4.53172 -2.83794 0
M  V30 5455 C 509.75 2.92886 -4.32452 0
M  V30 5456 H 511.444 1.44146 -2.62416 0
M  V30 5457 H 508.99 0.692024 -1.26282 0
M  V30 5458 H 510.943 3.76564 -1.8915 0
M  V30 5459 H 509.667 3.16568 -0.80324 0
M  V30 5460 H 508.326 2.38213 -2.78658 0
M  V30 5461 H 507.974 4.67585 -1.854 0
M  V30 5462 H 507.674 4.63662 -3.60958 0
M  V30 5463 H 509.198 5.32752 -2.98342 0
M  V30 5464 H 510.612 3.60178 -4.46032 0
M  V30 5465 H 509.009 3.14844 -5.10875 0
M  V30 5466 H 510.079 1.88966 -4.46565 0
M  V30 5467 N 511.423 1.38739 0.74761 0
M  V30 5468 C 512.371 1.36573 1.88283 0
M  V30 5469 C 513.365 0.250712 1.67534 0
M  V30 5470 O 514.571 0.420073 1.7503 0
M  V30 5471 H 510.946 0.42619 0.619569 0
M  V30 5472 H 512.917 2.32356 1.87226 0
M  V30 5473 C 511.666 1.21361 3.25832 0
M  V30 5474 H 510.989 2.06424 3.42388 0
M  V30 5475 H 512.429 1.23901 4.05493 0
M  V30 5476 C 510.888 -0.0790099 3.36807 0
M  V30 5477 O 511.418 -1.05385 3.8763 0
M  V30 5478 N 509.624 -0.13785 2.90273 0
M  V30 5479 H 509.171 0.656128 2.49104 0
M  V30 5480 H 509.129 -1.00228 2.97996 0
M  V30 5481 N 512.901 -0.976442 1.23707 0
M  V30 5482 C 514.149 -1.71487 1.06942 0
M  V30 5483 C 514.47 -1.9098 -0.393897 0
M  V30 5484 O 513.74 -1.48128 -1.28198 0
M  V30 5485 H 512.32 -0.635425 0.392739 0
M  V30 5486 H 514.982 -1.17515 1.55487 0
M  V30 5487 H 514.078 -2.70286 1.56051 0
M  V30 5488 N 514.379 -1.04941 -1.1758 0
M  V30 5489 C 515.626 -0.757989 -1.87779 0
M  V30 5490 C 515.954 0.714827 -1.80888 0
M  V30 5491 O 515.209 1.53824 -1.20982 0
M  V30 5492 C 515.508 -1.18062 -3.37337 0
M  V30 5493 C 515.174 -2.65521 -3.6443 0
M  V30 5494 C 513.836 -3.05804 -3.71534 0
M  V30 5495 C 516.188 -3.60822 -3.76108 0
M  V30 5496 C 513.516 -4.40256 -3.87803 0
M  V30 5497 C 515.868 -4.95005 -3.93895 0
M  V30 5498 C 514.532 -5.34945 -3.99237 0
M  V30 5499 H 513.802 -0.277368 -0.68713 0
M  V30 5500 H 516.449 -1.31603 -1.39115 0
M  V30 5501 H 514.754 -0.541525 -3.8804 0
M  V30 5502 H 516.451 -0.932368 -3.9001 0
M  V30 5503 H 513.041 -2.33324 -3.59524 0
M  V30 5504 H 517.225 -3.30841 -3.69943 0
M  V30 5505 H 512.481 -4.70707 -3.90186 0
M  V30 5506 H 516.655 -5.68746 -4.01872 0
M  V30 5507 H 514.282 -6.39135 -4.11596 0
M  V30 5508 N 515.857 1.33968 -0.830081 0
M  V30 5509 C 517.268 1.80439 -0.479455 0
M  V30 5510 C 517.619 1.68756 1.00079 0
M  V30 5511 O 516.744 1.23171 1.77927 0
M  V30 5512 C 517.339 3.27611 -0.863505 0
M  V30 5513 C 515.898 3.72133 -0.565145 0
M  V30 5514 C 515.045 2.55549 -1.07657 0
M  V30 5515 H 517.996 1.21614 -1.0196 0
M  V30 5516 H 518.017 3.8012 -0.170083 0
M  V30 5517 H 517.529 3.36082 -1.94089 0
M  V30 5518 H 515.63 3.69196 0.502536 0
M  V30 5519 H 515.743 4.65963 -1.11422 0
M  V30 5520 H 514.107 2.49788 -0.497807 0
M  V30 5521 H 514.89 2.66786 -2.16055 0
M  V30 5522 N 517.335 0.585699 1.46312 0
M  V30 5523 C 518.584 0.0701192 2.01578 0
M  V30 5524 C 518.897 -1.29889 1.46247 0
M  V30 5525 O 520.103 -1.90598 1.93351 0
M  V30 5526 C 518.559 0.0747499 3.59822 0
M  V30 5527 C 518.167 1.44226 4.24149 0
M  V30 5528 C 519.911 -0.38673 4.22735 0
M  V30 5529 C 517.818 1.40446 5.74481 0
M  V30 5530 H 516.748 0.0224441 0.753666 0
M  V30 5531 H 519.399 0.737789 1.68015 0
M  V30 5532 H 517.781 -0.659144 3.90476 0
M  V30 5533 H 518.955 2.19612 4.05101 0
M  V30 5534 H 517.27 1.84401 3.73343 0
M  V30 5535 H 519.867 -0.433853 5.32937 0
M  V30 5536 H 520.21 -1.40489 3.91878 0
M  V30 5537 H 520.743 0.293195 3.96718 0
M  V30 5538 H 517.482 2.39952 6.10003 0
M  V30 5539 H 517.002 0.692845 5.95785 0
M  V30 5540 H 518.681 1.11865 6.37256 0
M  V30 5541 N 518.813 -1.54241 0.323641 0
M  V30 5542 C 520.224 -1.85975 -0.164405 0
M  V30 5543 C 520.575 -1.24529 -1.51615 0
M  V30 5544 O 519.7 -0.551351 -2.09258 0
M  V30 5545 C 520.295 -3.37424 -0.305091 0
M  V30 5546 C 518.854 -3.69107 -0.737358 0
M  V30 5547 C 518.001 -2.76942 0.140884 0
M  V30 5548 H 520.952 -1.49088 0.543922 0
M  V30 5549 H 520.973 -3.63147 -1.13598 0
M  V30 5550 H 520.485 -3.82116 0.678876 0
M  V30 5551 H 518.586 -3.29947 -1.73107 0
M  V30 5552 H 518.699 -4.76035 -0.541053 0
M  V30 5553 H 517.063 -2.51795 -0.383572 0
M  V30 5554 H 517.846 -3.24461 1.12162 0
M  V30 5555 N 520.291 -0.0518155 -1.57515 0
M  V30 5556 C 521.539 0.620595 -1.92336 0
M  V30 5557 C 521.86 1.71345 -0.930907 0
M  V30 5558 O 521.13 1.95885 0.0241341 0
M  V30 5559 H 519.71 0.232226 -0.709986 0
M  V30 5560 H 522.372 -0.104969 -1.94617 0
M  V30 5561 H 521.468 1.05879 -2.93592 0
M  V30 5562 N 521.769 1.56035 0.221574 0
M  V30 5563 C 523.185 1.49026 0.571271 0
M  V30 5564 C 523.385 0.746912 1.87146 0
M  V30 5565 O 522.441 0.286566 2.50869 0
M  V30 5566 C 523.754 2.93579 0.650522 0
M  V30 5567 C 525.302 3.04099 0.741151 0
M  V30 5568 C 525.777 4.5001 0.851747 0
M  V30 5569 N 527.268 4.54053 0.915968 0
M  V30 5570 C 528.003 5.64232 1.02125 0
M  V30 5571 N 527.499 6.84164 1.09049 0
M  V30 5572 N 529.292 5.52084 1.05639 0
M  V30 5573 H 521.443 2.02791 -0.63162 0
M  V30 5574 H 523.706 0.921736 -0.221602 0
M  V30 5575 H 523.412 3.50912 -0.235253 0
M  V30 5576 H 523.286 3.45476 1.51413 0
M  V30 5577 H 525.673 2.4683 1.61737 0
M  V30 5578 H 525.754 2.55371 -0.148128 0
M  V30 5579 H 525.398 5.07896 -0.0200117 0
M  V30 5580 H 525.328 4.96444 1.75644 0
M  V30 5581 H 527.819 3.67683 0.872782 0
M  V30 5582 H 528.132 7.63883 1.1706 0
M  V30 5583 H 526.477 6.86875 1.05962 0
M  V30 5584 H 529.668 4.57317 0.998953 0
M  V30 5585 H 529.841 6.37983 1.13498 0
M  V30 5586 N 523.247 -0.488276 1.49845 0
M  V30 5587 C 524.475 -1.26527 1.63702 0
M  V30 5588 C 524.89 -1.8618 0.313447 0
M  V30 5589 O 524.247 -1.68432 -0.702624 0
M  V30 5590 C 524.298 -2.3864 2.71538 0
M  V30 5591 O 524.019 -1.81437 3.98763 0
M  V30 5592 C 525.52 -3.29805 2.96215 0
M  V30 5593 H 522.74 -0.383295 0.55075 0
M  V30 5594 H 525.284 -0.584779 1.95961 0
M  V30 5595 H 523.439 -3.02496 2.42023 0
M  V30 5596 H 523.853 -2.55135 4.58265 0
M  V30 5597 H 525.327 -4.04722 3.75372 0
M  V30 5598 H 525.804 -3.87563 2.06619 0
M  V30 5599 H 526.41 -2.71703 3.27196 0
M  V30 5600 N 524.725 -1.39134 -0.740242 0
M  V30 5601 C 525.673 -1.3757 -1.87556 0
M  V30 5602 C 526.667 -0.259593 -1.67399 0
M  V30 5603 O 527.873 -0.429349 -1.74804 0
M  V30 5604 H 524.248 -0.42947 -0.6173 0
M  V30 5605 H 526.219 -2.33345 -1.85991 0
M  V30 5606 C 524.968 -1.23087 -3.25184 0
M  V30 5607 H 524.291 -2.08237 -3.41288 0
M  V30 5608 H 525.731 -1.26049 -4.0483 0
M  V30 5609 C 524.19 0.0611471 -3.36845 0
M  V30 5610 O 524.72 1.03328 -3.88183 0
M  V30 5611 N 522.926 0.122454 -2.90342 0
M  V30 5612 H 522.473 -0.669329 -2.48752 0
M  V30 5613 H 522.431 0.986463 -2.98523 0
M  V30 5614 N 526.204 0.969867 -1.24223 0
M  V30 5615 C 527.434 1.74502 -1.106 0
M  V30 5616 C 527.842 1.86038 0.344483 0
M  V30 5617 O 527.185 1.3465 1.24961 0
M  V30 5618 C 527.247 3.18391 -1.66935 0
M  V30 5619 C 526.911 3.30334 -3.15798 0
M  V30 5620 C 527.908 3.15832 -4.12973 0
M  V30 5621 C 525.593 3.54644 -3.55715 0
M  V30 5622 C 527.587 3.25461 -5.48045 0
M  V30 5623 C 525.274 3.63912 -4.90929 0
M  V30 5624 C 526.272 3.49332 -5.86904 0
M  V30 5625 O 525.96 3.58251 -7.1966 0
M  V30 5626 H 525.692 0.554119 -0.387206 0
M  V30 5627 H 528.246 1.22646 -1.64764 0
M  V30 5628 H 526.476 3.71543 -1.07203 0
M  V30 5629 H 528.165 3.77707 -1.48634 0
M  V30 5630 H 528.931 2.96937 -3.83476 0
M  V30 5631 H 524.81 3.65059 -2.81519 0
M  V30 5632 H 528.354 3.13998 -6.22937 0
M  V30 5633 H 524.251 3.82319 -5.20098 0
M  V30 5634 H 525.019 3.7498 -7.27552 0
M  V30 5635 N 527.682 1.05563 1.17022 0
M  V30 5636 C 529.093 0.793475 1.69 0
M  V30 5637 C 529.444 -0.683882 1.83895 0
M  V30 5638 O 528.569 -1.53116 1.5292 0
M  V30 5639 C 529.164 1.43376 3.06967 0
M  V30 5640 C 527.723 1.21956 3.56095 0
M  V30 5641 C 526.87 1.51494 2.3226 0
M  V30 5642 H 529.821 1.22008 1.01487 0
M  V30 5643 H 529.842 0.845068 3.70997 0
M  V30 5644 H 529.354 2.50899 2.96093 0
M  V30 5645 H 527.455 0.163749 3.7224 0
M  V30 5646 H 527.568 1.92713 4.38633 0
M  V30 5647 H 525.932 0.935175 2.3691 0
M  V30 5648 H 526.715 2.60159 2.23992 0
M  V30 5649 N 529.16 -1.33526 0.837174 0
M  V30 5650 C 530.09 -2.31764 0.284206 0
M  V30 5651 C 531.071 -1.58896 -0.607142 0
M  V30 5652 O 532.256 -1.86798 -0.531047 0
M  V30 5653 C 529.386 -3.43029 -0.542962 0
M  V30 5654 C 528.34 -4.27255 0.252451 0
M  V30 5655 C 527.666 -5.3012 -0.69836 0
M  V30 5656 C 528.966 -5.01229 1.46858 0
M  V30 5657 H 530.66 -2.78262 1.10502 0
M  V30 5658 H 528.206 -1.3378 0.532812 0
M  V30 5659 H 530.159 -4.1078 -0.940096 0
M  V30 5660 H 528.883 -2.95216 -1.39697 0
M  V30 5661 H 527.542 -3.61127 0.631124 0
M  V30 5662 H 527.19 -4.78564 -1.54872 0
M  V30 5663 H 526.89 -5.87353 -0.170274 0
M  V30 5664 H 528.414 -6.00737 -1.09305 0
M  V30 5665 H 529.828 -5.61756 1.14469 0
M  V30 5666 H 528.225 -5.68104 1.93333 0
M  V30 5667 H 529.295 -4.301 2.23924 0
M  V30 5668 N 530.638 -0.59345 -1.46 0
M  V30 5669 C 531.568 0.121192 -2.33185 0
M  V30 5670 C 532.549 0.872977 -1.4599 0
M  V30 5671 O 533.734 0.846321 -1.74789 0
M  V30 5672 C 530.864 1.12844 -3.28456 0
M  V30 5673 C 529.818 0.4908 -4.25177 0
M  V30 5674 C 529.144 1.60529 -5.10034 0
M  V30 5675 C 530.444 -0.578949 -5.19081 0
M  V30 5676 H 532.138 -0.606767 -2.93187 0
M  V30 5677 H 529.684 -0.293242 -1.40983 0
M  V30 5678 H 531.637 1.63684 -3.88311 0
M  V30 5679 H 530.361 1.88681 -2.66584 0
M  V30 5680 H 529.02 0.00339328 -3.666 0
M  V30 5681 H 528.668 2.35359 -4.44539 0
M  V30 5682 H 528.368 1.18422 -5.75543 0
M  V30 5683 H 529.892 2.11623 -5.72755 0
M  V30 5684 H 531.306 -0.155199 -5.7309 0
M  V30 5685 H 529.703 -0.920947 -5.92991 0
M  V30 5686 H 530.773 -1.46109 -4.62364 0
M  V30 5687 N 532.116 1.54067 -0.331816 0
M  V30 5688 C 533.363 2.00715 0.268269 0
M  V30 5689 C 533.691 1.21986 1.51491 0
M  V30 5690 O 532.946 0.292309 1.93505 0
M  V30 5691 C 533.245 3.51634 0.639392 0
M  V30 5692 C 532.911 4.48018 -0.509019 0
M  V30 5693 C 531.573 4.74089 -0.824209 0
M  V30 5694 C 533.925 5.05237 -1.28003 0
M  V30 5695 C 531.253 5.54637 -1.91298 0
M  V30 5696 C 533.605 5.86972 -2.35895 0
M  V30 5697 C 532.269 6.11342 -2.67987 0
M  V30 5698 H 531.539 0.734469 0.0981667 0
M  V30 5699 H 534.186 1.8596 -0.457304 0
M  V30 5700 H 532.491 3.6416 1.44551 0
M  V30 5701 H 534.188 3.85175 1.11539 0
M  V30 5702 H 530.778 4.27851 -0.253287 0
M  V30 5703 H 534.962 4.8507 -1.04978 0
M  V30 5704 H 530.218 5.71747 -2.16599 0
M  V30 5705 H 534.392 6.30327 -2.96076 0
M  V30 5706 H 532.019 6.73544 -3.5248 0
M  V30 5707 N 533.594 0.0601682 1.57485 0
M  V30 5708 C 534.871 -0.651956 1.84415 0
M  V30 5709 C 535.251 -1.88498 0.950361 0
M  V30 5710 O 534.599 -2.28496 0.0136719 0
M  V30 5711 C 534.809 -1.00069 3.34346 0
M  V30 5712 C 536.157 -1.37915 4.01578 0
M  V30 5713 O 537.181 -1.09277 3.39024 0
M  V30 5714 O 536.04 -1.91399 5.11887 0
M  V30 5715 H 533.134 -0.322668 0.761455 0
M  V30 5716 H 535.68 0.0902159 1.6946 0
M  V30 5717 H 534.452 -0.124463 3.91102 0
M  V30 5718 H 534.075 -1.80001 3.54521 0
M  V30 5719 N 535.072 -1.5615 -0.213296 0
M  V30 5720 C 536.488 -1.49327 -0.56336 0
M  V30 5721 C 536.688 -0.756826 -1.86747 0
M  V30 5722 O 535.744 -0.299866 -2.50713 0
M  V30 5723 C 537.057 -2.9392 -0.634944 0
M  V30 5724 C 538.605 -3.04487 -0.725013 0
M  V30 5725 C 539.08 -4.50456 -0.82787 0
M  V30 5726 N 540.571 -4.54533 -0.891876 0
M  V30 5727 C 541.306 -5.64766 -0.991315 0
M  V30 5728 N 540.802 -6.84733 -1.05419 0
M  V30 5729 N 542.595 -5.52637 -1.02709 0
M  V30 5730 H 534.746 -2.02453 0.642366 0
M  V30 5731 H 537.009 -0.920548 0.226487 0
M  V30 5732 H 536.715 -3.50783 0.253859 0
M  V30 5733 H 536.589 -3.46274 -1.49579 0
M  V30 5734 H 538.976 -2.47685 -1.60425 0
M  V30 5735 H 539.057 -2.55289 0.161669 0
M  V30 5736 H 538.701 -5.07878 0.0469464 0
M  V30 5737 H 538.631 -4.97369 -1.73009 0
M  V30 5738 H 541.122 -3.68141 -0.85327 0
M  V30 5739 H 541.435 -7.64493 -1.13007 0
M  V30 5740 H 539.78 -6.87427 -1.02318 0
M  V30 5741 H 542.971 -4.5784 -0.974687 0
M  V30 5742 H 543.144 -6.38576 -1.10113 0
M  V30 5743 N 536.55 0.480323 -1.50102 0
M  V30 5744 C 537.497 1.57946 -1.6829 0
M  V30 5745 C 538.467 1.57611 -0.524223 0
M  V30 5746 O 539.652 1.75282 -0.753709 0
M  V30 5747 C 536.792 2.95978 -1.77457 0
M  V30 5748 C 535.905 3.06173 -3.04766 0
M  V30 5749 C 535.04 4.35063 -3.04784 0
M  V30 5750 C 534.079 4.38966 -4.26586 0
M  V30 5751 N 533.216 5.59314 -4.24396 0
M  V30 5752 H 538.056 1.41743 -2.62131 0
M  V30 5753 H 535.593 0.689304 -1.2995 0
M  V30 5754 H 537.551 3.76011 -1.80752 0
M  V30 5755 H 536.181 3.10837 -0.870637 0
M  V30 5756 H 535.233 2.19071 -3.10986 0
M  V30 5757 H 536.545 3.04916 -3.9475 0
M  V30 5758 H 535.699 5.23436 -3.06757 0
M  V30 5759 H 534.438 4.38915 -2.12614 0
M  V30 5760 H 533.443 3.48992 -4.24835 0
M  V30 5761 H 534.668 4.36813 -5.19972 0
M  V30 5762 H 532.614 5.63969 -3.35074 0
M  V30 5763 H 532.531 5.5976 -5.08138 0
M  V30 5764 H 533.799 6.49837 -4.30502 0
M  V30 5765 N 538.028 1.39524 0.732853 0
M  V30 5766 C 538.958 1.41153 1.86005 0
M  V30 5767 C 539.939 0.274614 1.67869 0
M  V30 5768 O 541.124 0.480745 1.88155 0
M  V30 5769 C 538.254 1.25638 3.23778 0
M  V30 5770 C 537.208 2.36752 3.56556 0
M  V30 5771 C 536.534 2.06326 4.93289 0
M  V30 5772 C 537.834 3.79069 3.5931 0
M  V30 5773 H 539.528 2.35484 1.84899 0
M  V30 5774 H 537.074 1.13348 0.888162 0
M  V30 5775 H 539.027 1.25398 4.0231 0
M  V30 5776 H 537.751 0.277772 3.25417 0
M  V30 5777 H 536.41 2.36213 2.80355 0
M  V30 5778 H 536.058 1.06897 4.9151 0
M  V30 5779 H 535.758 2.80757 5.16187 0
M  V30 5780 H 537.282 2.07739 5.74175 0
M  V30 5781 H 538.696 3.81526 4.27914 0
M  V30 5782 H 537.093 4.52878 3.93728 0
M  V30 5783 H 538.163 4.09893 2.59068 0
M  V30 5784 N 539.506 -0.963266 1.24736 0
M  V30 5785 C 540.438 -2.06162 1.0015 0
M  V30 5786 C 541.451 -1.62771 -0.0305905 0
M  V30 5787 O 542.64 -1.77296 0.206966 0
M  V30 5788 C 539.74 -3.35333 0.490385 0
M  V30 5789 C 538.913 -4.07609 1.58663 0
M  V30 5790 C 537.972 -5.15052 1.0774 0
M  V30 5791 O 536.998 -5.4098 1.77002 0
M  V30 5792 N 538.2 -5.80436 -0.0858605 0
M  V30 5793 H 540.965 -2.27825 1.94719 0
M  V30 5794 H 538.526 -1.13121 1.15825 0
M  V30 5795 H 540.518 -4.04477 0.134371 0
M  V30 5796 H 539.088 -3.10507 -0.361155 0
M  V30 5797 H 538.308 -3.32681 2.11463 0
M  V30 5798 H 539.596 -4.52656 2.32336 0
M  V30 5799 H 538.994 -5.6178 -0.664806 0
M  V30 5800 H 537.551 -6.50674 -0.382981 0
M  V30 5801 N 540.985 -1.06182 -1.16461 0
M  V30 5802 C 542.396 -0.802426 -1.68576 0
M  V30 5803 C 542.747 0.67412 -1.84255 0
M  V30 5804 O 541.872 1.52303 -1.5373 0
M  V30 5805 C 542.467 -1.45002 -3.06202 0
M  V30 5806 C 541.026 -1.23843 -3.55443 0
M  V30 5807 C 540.173 -1.52724 -2.31454 0
M  V30 5808 H 543.124 -1.22545 -1.00839 0
M  V30 5809 H 543.145 -0.864731 -3.70544 0
M  V30 5810 H 542.657 -2.52466 -2.94759 0
M  V30 5811 H 540.758 -0.183487 -3.72148 0
M  V30 5812 H 540.871 -1.95036 -4.37604 0
M  V30 5813 H 539.235 -0.947726 -2.36411 0
M  V30 5814 H 540.018 -2.61343 -2.22609 0
M  V30 5815 N 542.463 1.3308 -0.844243 0
M  V30 5816 C 543.41 2.29104 -0.279323 0
M  V30 5817 C 544.38 1.54577 0.607882 0
M  V30 5818 O 545.565 1.8285 0.545009 0
M  V30 5819 C 542.705 3.40927 0.53508 0
M  V30 5820 C 541.818 4.30354 -0.376749 0
M  V30 5821 C 540.953 5.29297 0.449276 0
M  V30 5822 C 539.992 6.10365 -0.460606 0
M  V30 5823 N 539.129 7.01335 0.327612 0
M  V30 5824 H 543.969 2.76817 -1.10346 0
M  V30 5825 H 541.506 1.36203 -0.555611 0
M  V30 5826 H 543.464 4.04469 1.02278 0
M  V30 5827 H 542.094 2.94391 1.32414 0
M  V30 5828 H 541.146 3.67485 -0.982791 0
M  V30 5829 H 542.458 4.87067 -1.07549 0
M  V30 5830 H 541.612 5.98392 1.00058 0
M  V30 5831 H 540.351 4.73174 1.18143 0
M  V30 5832 H 539.356 5.40182 -1.02388 0
M  V30 5833 H 540.581 6.68571 -1.1912 0
M  V30 5834 H 538.527 6.47655 1.04305 0
M  V30 5835 H 538.444 7.55355 -0.3123 0
M  V30 5836 H 539.712 7.74731 0.86098 0
M  V30 5837 N 543.941 0.601185 1.45683 0
M  V30 5838 C 545.218 0.0261659 1.95582 0
M  V30 5839 C 545.598 -1.4399 1.5437 0
M  V30 5840 O 544.946 -2.13919 0.80318 0
M  V30 5841 C 545.156 0.217557 3.48321 0
M  V30 5842 C 546.504 0.0950076 4.24494 0
M  V30 5843 O 547.528 0.147345 3.55895 0
M  V30 5844 O 546.387 -0.025261 5.46494 0
M  V30 5845 H 543.481 -0.0393688 0.826062 0
M  V30 5846 H 546.027 0.670798 1.55879 0
M  V30 5847 H 544.799 1.23601 3.71266 0
M  V30 5848 H 544.422 -0.46264 3.94899 0
M  V30 5849 N 545.419 -1.53889 0.339982 0
M  V30 5850 C 546.382 -2.23547 -0.50592 0
M  V30 5851 C 547.382 -1.23445 -1.03044 0
M  V30 5852 O 548.572 -1.47909 -0.920253 0
M  V30 5853 C 545.704 -2.95234 -1.7044 0
M  V30 5854 H 546.897 -2.99722 0.103247 0
M  V30 5855 H 544.45 -1.56033 0.0912804 0
M  V30 5856 H 545.185 -2.23236 -2.35236 0
M  V30 5857 H 544.97 -3.68654 -1.33553 0
M  V30 5858 H 546.46 -3.48258 -2.30447 0
M  V30 5859 N 546.897 -0.0685191 -1.57451 0
M  V30 5860 C 548.127 0.609577 -1.97402 0
M  V30 5861 C 548.535 1.63882 -0.945489 0
M  V30 5862 O 547.878 1.8354 0.0766052 0
M  V30 5863 C 547.94 1.3385 -3.33653 0
M  V30 5864 C 547.604 0.463103 -4.54648 0
M  V30 5865 C 548.601 -0.277964 -5.19156 0
M  V30 5866 C 546.286 0.388941 -5.00792 0
M  V30 5867 C 548.28 -1.08145 -6.28159 0
M  V30 5868 C 545.967 -0.418217 -6.09667 0
M  V30 5869 C 546.965 -1.15208 -6.73213 0
M  V30 5870 O 546.653 -1.94594 -7.79993 0
M  V30 5871 H 546.385 0.170197 -0.654224 0
M  V30 5872 H 548.939 -0.13647 -2.04946 0
M  V30 5873 H 547.169 2.13055 -3.22714 0
M  V30 5874 H 548.858 1.90851 -3.58233 0
M  V30 5875 H 549.624 -0.230241 -4.84453 0
M  V30 5876 H 545.503 0.949769 -4.5111 0
M  V30 5877 H 549.047 -1.65476 -6.7769 0
M  V30 5878 H 544.944 -0.467515 -6.43805 0
M  V30 5879 H 545.712 -1.8699 -7.96854 0
M  V30 5880 N 548.375 1.56261 0.205012 0
M  V30 5881 C 549.622 1.8004 0.926927 0
M  V30 5882 C 549.95 0.640086 1.83666 0
M  V30 5883 O 549.205 -0.374702 1.92079 0
M  V30 5884 C 549.504 3.09722 1.78345 0
M  V30 5885 C 549.17 4.39082 1.02555 0
M  V30 5886 C 547.832 4.74226 0.816256 0
M  V30 5887 C 550.184 5.18877 0.491559 0
M  V30 5888 C 547.512 5.86668 0.0613287 0
M  V30 5889 C 549.864 6.32105 -0.250107 0
M  V30 5890 C 548.528 6.6584 -0.470508 0
M  V30 5891 H 547.798 0.658812 0.339187 0
M  V30 5892 H 550.445 1.90515 0.19395 0
M  V30 5893 H 548.75 2.9444 2.5848 0
M  V30 5894 H 550.447 3.25324 2.34446 0
M  V30 5895 H 547.037 4.11497 1.19868 0
M  V30 5896 H 551.221 4.92147 0.640684 0
M  V30 5897 H 546.477 6.11283 -0.119501 0
M  V30 5898 H 550.651 6.93157 -0.671307 0
M  V30 5899 H 548.278 7.5281 -1.05739 0
M  V30 5900 N 549.853 -0.472356 1.50355 0
M  V30 5901 C 551.269 -0.806001 1.37753 0
M  V30 5902 C 551.469 -1.968 0.432649 0
M  V30 5903 O 550.525 -2.52189 -0.12519 0
M  V30 5904 C 551.838 -1.11926 2.79093 0
M  V30 5905 C 553.386 -1.22579 2.87999 0
M  V30 5906 C 553.861 -1.57218 4.3017 0
M  V30 5907 N 555.352 -1.64212 4.33115 0
M  V30 5908 C 556.087 -1.92517 5.40116 0
M  V30 5909 N 555.583 -2.1885 6.57325 0
M  V30 5910 N 557.376 -1.94008 5.27558 0
M  V30 5911 H 549.527 0.293451 2.10363 0
M  V30 5912 H 551.79 0.0687672 0.945503 0
M  V30 5913 H 551.496 -0.338504 3.50067 0
M  V30 5914 H 551.37 -2.05577 3.16256 0
M  V30 5915 H 553.757 -1.99722 2.17245 0
M  V30 5916 H 553.838 -0.269107 2.54381 0
M  V30 5917 H 553.482 -0.806154 5.01461 0
M  V30 5918 H 553.412 -2.54034 4.61275 0
M  V30 5919 H 555.903 -1.45906 3.48597 0
M  V30 5920 H 556.216 -2.39718 7.3468 0
M  V30 5921 H 554.561 -2.16245 6.60502 0
M  V30 5922 H 557.752 -1.72931 4.34986 0
M  V30 5923 H 557.925 -2.15731 6.11035 0
M  V30 5924 N 551.331 -1.39911 -0.725443 0
M  V30 5925 C 552.261 -1.42138 -1.85254 0
M  V30 5926 C 553.242 -0.283513 -1.67721 0
M  V30 5927 O 554.427 -0.490717 -1.87898 0
M  V30 5928 C 551.557 -1.27354 -3.23107 0
M  V30 5929 C 550.511 -2.3864 -3.55296 0
M  V30 5930 C 549.837 -2.08939 -4.92188 0
M  V30 5931 C 551.137 -3.8097 -3.57295 0
M  V30 5932 H 552.831 -2.36461 -1.83648 0
M  V30 5933 H 550.377 -1.13817 -0.882138 0
M  V30 5934 H 552.33 -1.2753 -4.01639 0
M  V30 5935 H 551.054 -0.295025 -3.25265 0
M  V30 5936 H 549.713 -2.37696 -2.79099 0
M  V30 5937 H 549.361 -1.09502 -4.90936 0
M  V30 5938 H 549.061 -2.83491 -5.14691 0
M  V30 5939 H 550.585 -2.10781 -5.73065 0
M  V30 5940 H 551.999 -3.8379 -4.25885 0
M  V30 5941 H 550.396 -4.5496 -3.9132 0
M  V30 5942 H 551.466 -4.11261 -2.5689 0
M  V30 5943 N 552.809 0.956637 -1.25245 0
M  V30 5944 C 553.739 2.07058 -1.07931 0
M  V30 5945 C 554.72 1.70096 0.0110361 0
M  V30 5946 O 555.905 1.93555 -0.158121 0
M  V30 5947 C 553.035 3.40272 -0.695124 0
M  V30 5948 C 551.989 3.91235 -1.73549 0
M  V30 5949 C 551.315 5.20921 -1.20604 0
M  V30 5950 C 552.615 4.17837 -3.13385 0
M  V30 5951 H 554.309 2.218 -2.01109 0
M  V30 5952 H 551.855 1.06581 -0.968326 0
M  V30 5953 H 553.808 4.1765 -0.560949 0
M  V30 5954 H 552.532 3.25462 0.272355 0
M  V30 5955 H 551.191 3.16025 -1.85807 0
M  V30 5956 H 550.839 5.02479 -0.228846 0
M  V30 5957 H 550.539 5.55987 -1.90136 0
M  V30 5958 H 552.063 6.00897 -1.08421 0
M  V30 5959 H 553.477 4.8588 -3.04292 0
M  V30 5960 H 551.874 4.64154 -3.80369 0
M  V30 5961 H 552.944 3.2419 -3.60595 0
M  V30 5962 N 554.287 1.06798 1.15896 0
M  V30 5963 C 555.564 0.701057 1.82605 0
M  V30 5964 C 555.944 -0.817066 1.94646 0
M  V30 5965 O 555.292 -1.72933 1.49353 0
M  V30 5966 C 555.502 1.40895 3.19296 0
M  V30 5967 C 556.85 1.55744 3.95005 0
M  V30 5968 O 557.874 1.36927 3.28831 0
M  V30 5969 O 556.733 1.86658 5.13635 0
M  V30 5970 H 553.827 0.248791 0.78869 0
M  V30 5971 H 556.373 1.16857 1.23055 0
M  V30 5972 H 555.145 2.4439 3.05596 0
M  V30 5973 H 554.768 0.931847 3.86526 0
M  V30 5974 N 555.766 -1.3263 0.851289 0
M  V30 5975 C 556.696 -2.31449 0.308771 0
M  V30 5976 C 557.677 -1.59531 -0.590255 0
M  V30 5977 O 558.862 -1.87351 -0.511205 0
M  V30 5978 C 555.992 -3.43586 -0.506548 0
M  V30 5979 C 554.946 -4.26963 0.297753 0
M  V30 5980 C 554.272 -5.30831 -0.642094 0
M  V30 5981 C 555.572 -4.99643 1.52166 0
M  V30 5982 H 557.266 -2.77074 1.13447 0
M  V30 5983 H 554.812 -1.33207 0.546971 0
M  V30 5984 H 556.765 -4.11754 -0.896474 0
M  V30 5985 H 555.489 -2.96681 -1.36558 0
M  V30 5986 H 554.148 -3.60437 0.669391 0
M  V30 5987 H 553.796 -4.8018 -1.49788 0
M  V30 5988 H 553.496 -5.87501 -0.107968 0
M  V30 5989 H 555.02 -6.01862 -1.02927 0
M  V30 5990 H 556.434 -5.6051 1.20421 0
M  V30 5991 H 554.831 -5.66022 1.99347 0
M  V30 5992 H 555.901 -4.27701 2.28474 0
M  V30 5993 N 557.244 -0.608902 -1.45362 0
M  V30 5994 C 558.191 0.109172 -2.30542 0
M  V30 5995 C 559.161 0.858704 -1.42181 0
M  V30 5996 O 560.346 0.844178 -1.71109 0
M  V30 5997 C 557.486 1.09971 -3.27109 0
M  V30 5998 C 556.599 0.350911 -4.30572 0
M  V30 5999 C 555.734 1.33129 -5.14247 0
M  V30 6000 C 554.773 0.570377 -6.09437 0
M  V30 6001 N 553.91 1.5001 -6.85887 0
M  V30 6002 H 558.75 -0.623195 -2.91411 0
M  V30 6003 H 556.287 -0.319122 -1.43597 0
M  V30 6004 H 558.245 1.68714 -3.81564 0
M  V30 6005 H 556.875 1.79947 -2.67991 0
M  V30 6006 H 555.927 -0.352054 -3.78767 0
M  V30 6007 H 557.239 -0.242725 -4.98209 0
M  V30 6008 H 556.393 1.99074 -5.73109 0
M  V30 6009 H 555.132 1.95885 -4.46632 0
M  V30 6010 H 554.137 -0.102702 -5.49704 0
M  V30 6011 H 555.362 -0.0521607 -6.7908 0
M  V30 6012 H 553.308 2.11529 -6.2096 0
M  V30 6013 H 553.225 0.959934 -7.49881 0
M  V30 6014 H 554.493 2.14909 -7.49289 0
M  V30 6015 N 558.722 1.53707 -0.348139 0
M  V30 6016 C 560.138 1.596 0.00361134 0
M  V30 6017 C 560.338 1.36394 1.4832 0
M  V30 6018 O 559.394 1.16046 2.24253 0
M  V30 6019 C 560.707 2.97512 -0.436682 0
M  V30 6020 C 562.255 3.10568 -0.389416 0
M  V30 6021 C 562.73 4.50866 -0.805249 0
M  V30 6022 N 564.221 4.56929 -0.759616 0
M  V30 6023 C 564.956 5.63643 -1.05327 0
M  V30 6024 N 564.452 6.78189 -1.41531 0
M  V30 6025 N 566.245 5.5354 -0.977207 0
M  V30 6026 H 558.396 1.67044 -1.31187 0
M  V30 6027 H 560.659 0.782559 -0.535075 0
M  V30 6028 H 560.365 3.19575 -1.46849 0
M  V30 6029 H 560.239 3.76742 0.185744 0
M  V30 6030 H 562.626 2.88226 0.633228 0
M  V30 6031 H 562.707 2.33387 -1.04711 0
M  V30 6032 H 562.351 4.73943 -1.82593 0
M  V30 6033 H 562.281 5.26452 -0.124989 0
M  V30 6034 H 564.772 3.74675 -0.49265 0
M  V30 6035 H 565.085 7.55541 -1.62411 0
M  V30 6036 H 563.43 6.79624 -1.45381 0
M  V30 6037 H 566.621 4.62932 -0.693675 0
M  V30 6038 H 566.794 6.36614 -1.2094 0
M  V30 6039 O 560.239 0.216617 1.60041 0
M  V30 6040 H 560.93 -0.364805 1.90234 0
M  V30 END ATOM
M  V30 BEGIN BOND
M  V30 END BOND
M  V30 END CTAB
M  END
$$$$
