drugbank_target|O68600 4-chlorobenzoyl CoA dehalogenase (DB01652)
 OpenBabel12092120223D

  0  0  0     0  0            999 V3000
M  V30 BEGIN CTAB
M  V30 COUNTS 4162 4207 0 0 0
M  V30 BEGIN ATOM
M  V30 1 H -0.908 1.98254 -0.117106 0
M  V30 2 N 0 1.576 0 0
M  V30 3 C 0.933 2.03868 1.02534 0
M  V30 4 C 1.911 0.928543 1.3348 0
M  V30 5 O 3.095 1.19667 1.45644 0
M  V30 6 C 0.222 2.43627 2.35294 0
M  V30 7 C -0.732 3.65373 2.2001 0
M  V30 8 S 0.101 5.13292 1.52614 0
M  V30 9 C 1.257 5.56322 2.86805 0
M  V30 10 H 1.49 2.90518 0.631377 0
M  V30 11 H -0.977 1.52953 0.210867 0
M  V30 12 H 0.981 2.67203 3.11629 0
M  V30 13 H -0.358 1.57376 2.7183 0
M  V30 14 H -1.165 3.90944 3.18086 0
M  V30 15 H -1.563 3.418 1.51819 0
M  V30 16 H 0.729 5.58782 3.83104 0
M  V30 17 H 1.672 6.56266 2.65933 0
M  V30 18 H 2.08 4.83886 2.90714 0
M  V30 19 N 1.4781 -0.272755 1.55222 0
M  V30 20 C 2.7081 -1.02107 1.79604 0
M  V30 21 C 3.1161 -1.80419 0.569693 0
M  V30 22 O 2.4591 -1.77566 -0.470743 0
M  V30 23 C 2.5211 -2.02675 2.96922 0
M  V30 24 C 2.1851 -1.43299 4.33952 0
M  V30 25 C 3.1821 -0.84853 5.12929 0
M  V30 26 C 0.8671 -1.46012 4.8061 0
M  V30 27 C 2.8611 -0.299109 6.36698 0
M  V30 28 C 0.5481 -0.906833 6.04334 0
M  V30 29 C 1.5461 -0.32733 6.82215 0
M  V30 30 O 1.2341 0.217479 8.03606 0
M  V30 31 H 0.9661 -0.307322 0.602104 0
M  V30 32 H 3.5201 -0.308862 2.03065 0
M  V30 33 H 1.7501 -2.77656 2.69155 0
M  V30 34 H 3.4391 -2.63637 3.08626 0
M  V30 35 H 4.2051 -0.820265 4.78013 0
M  V30 36 H 0.0841 -1.90056 4.2 0
M  V30 37 H 3.6281 0.153852 6.9743 0
M  V30 38 H -0.4749 -0.932339 6.38731 0
M  V30 39 H 0.2931 0.106863 8.1843 0
M  V30 40 N 2.9562 -1.48159 -0.537278 0
M  V30 41 C 3.8662 -1.64807 -1.6696 0
M  V30 42 C 4.8822 -0.530651 -1.65711 0
M  V30 43 O 6.0582 -0.800784 -1.84796 0
M  V30 44 C 3.1232 -1.67708 -3.03438 0
M  V30 45 C 2.1842 -2.91025 -3.156 0
M  V30 46 C 1.4172 -2.93778 -4.45567 0
M  V30 47 O 1.6402 -2.05153 -5.3223 0
M  V30 48 O 0.5742 -3.85868 -4.61941 0
M  V30 49 H 4.4002 -2.6066 -1.55853 0
M  V30 50 H 1.9852 -1.31475 -0.709549 0
M  V30 51 H 3.8672 -1.7218 -3.84619 0
M  V30 52 H 2.5422 -0.750278 -3.14885 0
M  V30 53 H 1.4492 -2.92089 -2.33741 0
M  V30 54 H 2.7822 -3.83065 -3.09066 0
M  V30 55 N 4.4343 0.785586 -1.36625 0
M  V30 56 C 5.3973 1.87999 -1.31107 0
M  V30 57 C 6.3973 1.59316 -0.217959 0
M  V30 58 O 7.5873 1.67656 -0.472977 0
M  V30 59 C 4.7193 3.24861 -1.03334 0
M  V30 60 H 5.9123 1.94307 -2.2844 0
M  V30 61 H 3.4653 0.983813 -1.21453 0
M  V30 62 H 4.2003 3.24235 -0.0647432 0
M  V30 63 H 3.9853 3.4707 -1.82441 0
M  V30 64 H 5.4753 4.04929 -1.02088 0
M  V30 65 N 5.9124 1.20967 1.01018 0
M  V30 66 C 7.1614 1.01796 1.74128 0
M  V30 67 C 7.4744 -0.449691 1.90361 0
M  V30 68 O 8.6804 -0.76068 2.60626 0
M  V30 69 C 7.1364 1.7727 3.13215 0
M  V30 70 C 6.7444 3.28171 3.04972 0
M  V30 71 C 8.4884 1.66489 3.90489 0
M  V30 72 C 6.3954 3.96156 4.39107 0
M  V30 73 H 5.3254 0.377276 0.652824 0
M  V30 74 H 7.9764 1.44651 1.12909 0
M  V30 75 H 6.3584 1.27205 3.75013 0
M  V30 76 H 7.5324 3.85499 2.52443 0
M  V30 77 H 5.8474 3.39437 2.41188 0
M  V30 78 H 8.4444 2.14617 4.89738 0
M  V30 79 H 8.7874 0.6222 4.11624 0
M  V30 80 H 9.3204 2.14003 3.35332 0
M  V30 81 H 6.0594 5.00604 4.23174 0
M  V30 82 H 5.5794 3.43617 4.91617 0
M  V30 83 H 7.2584 4.00774 5.07926 0
M  V30 84 N 7.3905 -1.2043 1.01659 0
M  V30 85 C 8.6385 -1.89423 0.704522 0
M  V30 86 C 8.9595 -1.79231 -0.768197 0
M  V30 87 O 8.2295 -1.1947 -1.55254 0
M  V30 88 H 6.8095 -0.701178 0.257602 0
M  V30 89 H 9.4715 -1.4626 1.28818 0
M  V30 90 H 8.5675 -2.96052 0.987916 0
M  V30 91 N 8.8686 -0.792821 -1.36206 0
M  V30 92 C 9.8186 -0.166598 -2.27391 0
M  V30 93 C 10.8026 0.651479 -1.47121 0
M  V30 94 O 11.9946 0.510994 -1.69463 0
M  V30 95 C 9.1236 0.695033 -3.36191 0
M  V30 96 C 8.2096 -0.132019 -4.23894 0
M  V30 97 N 8.6006 -1.18822 -4.91645 0
M  V30 98 C 6.8986 0.0885952 -4.45912 0
M  V30 99 C 7.5996 -1.69198 -5.56549 0
M  V30 100 N 6.5756 -1.00065 -5.34311 0
M  V30 101 H 10.3776 -0.974947 -2.77258 0
M  V30 102 H 7.8916 -0.632616 -1.49572 0
M  V30 103 H 9.8886 1.1596 -4.00448 0
M  V30 104 H 8.5486 1.50189 -2.87877 0
M  V30 105 H 9.5596 -1.57069 -4.93507 0
M  V30 106 H 6.2366 0.865688 -4.08426 0
M  V30 107 H 7.6266 -2.57395 -6.20643 0
M  V30 108 N 10.3467 1.47872 -0.545128 0
M  V30 109 C 11.7627 1.5829 -0.204032 0
M  V30 110 C 11.9627 1.54529 1.29317 0
M  V30 111 O 11.0187 1.44232 2.07252 0
M  V30 112 C 12.3317 2.89304 -0.819987 0
M  V30 113 C 13.8797 3.02864 -0.790105 0
M  V30 114 C 14.3547 4.3656 -1.38491 0
M  V30 115 N 15.8457 4.43165 -1.34755 0
M  V30 116 C 16.5807 5.45153 -1.77753 0
M  V30 117 N 16.0767 6.54016 -2.2855 0
M  V30 118 N 17.8697 5.36125 -1.68897 0
M  V30 119 H 10.0207 1.4856 -1.51802 0
M  V30 120 H 12.2837 0.706305 -0.632327 0
M  V30 121 H 11.9897 2.97757 -1.87173 0
M  V30 122 H 11.8637 3.75957 -0.305915 0
M  V30 123 H 14.2507 2.94014 0.252913 0
M  V30 124 H 14.3317 2.17782 -1.34181 0
M  V30 125 H 13.9757 4.46164 -2.42693 0
M  V30 126 H 13.9057 5.20353 -0.808754 0
M  V30 127 H 16.3967 3.65083 -0.975855 0
M  V30 128 H 16.7097 7.27994 -2.59314 0
M  V30 129 H 15.0547 6.54938 -2.32553 0
M  V30 130 H 18.2457 4.49975 -1.28998 0
M  V30 131 H 18.4187 6.15472 -2.02726 0
M  V30 132 N 11.8248 0.280983 1.55075 0
M  V30 133 C 13.0708 -0.33461 2.00021 0
M  V30 134 C 13.4038 -1.55063 1.16915 0
M  V30 135 O 12.6788 -1.93006 0.240646 0
M  V30 136 C 12.9618 -0.711007 3.53011 0
M  V30 137 C 12.8148 0.512766 4.46868 0
M  V30 138 C 14.1338 -1.54522 4.12081 0
M  V30 139 H 11.2528 -0.120147 0.727141 0
M  V30 140 H 13.8948 0.389097 1.85973 0
M  V30 141 H 12.0448 -1.32761 3.65112 0
M  V30 142 H 13.7168 1.15131 4.46702 0
M  V30 143 H 11.9598 1.14975 4.18286 0
M  V30 144 H 12.6308 0.205556 5.51617 0
M  V30 145 H 15.1068 -1.02442 4.03293 0
M  V30 146 H 13.9828 -1.77739 5.19327 0
M  V30 147 H 14.2438 -2.52813 3.62682 0
M  V30 148 N 13.3029 -1.57598 0.00835791 0
M  V30 149 C 14.2349 -2.05811 -1.00868 0
M  V30 150 C 15.2479 -0.977579 -1.30182 0
M  V30 151 O 16.4369 -1.25421 -1.27011 0
M  V30 152 C 13.5369 -2.45016 -2.34137 0
M  V30 153 C 12.7099 -3.75903 -2.23643 0
M  V30 154 C 11.7689 -4.01884 -3.3967 0
M  V30 155 O 10.7949 -4.72433 -3.17483 0
M  V30 156 N 11.9969 -3.50432 -4.62793 0
M  V30 157 H 14.7619 -2.93684 -0.597458 0
M  V30 158 H 12.3229 -1.60909 -0.178852 0
M  V30 159 H 14.3149 -2.59506 -3.10546 0
M  V30 160 H 12.8849 -1.62618 -2.66972 0
M  V30 161 H 12.1049 -3.7141 -1.32091 0
M  V30 162 H 13.3929 -4.61695 -2.13812 0
M  V30 163 H 12.7909 -2.93317 -4.83716 0
M  V30 164 H 11.3479 -3.70236 -5.3644 0
M  V30 165 N 14.781 0.264519 -1.55364 0
M  V30 166 C 16.058 1.01677 -1.67096 0
M  V30 167 C 16.438 2.03996 -0.543015 0
M  V30 168 O 15.786 2.23907 0.45585 0
M  V30 169 C 15.996 1.66596 -3.0667 0
M  V30 170 C 17.344 2.17442 -3.64697 0
M  V30 171 O 18.368 1.76568 -3.09358 0
M  V30 172 O 17.227 2.92439 -4.61673 0
M  V30 173 H 14.321 0.472161 -0.678965 0
M  V30 174 H 16.867 0.259703 -1.67701 0
M  V30 175 H 15.639 0.924962 -3.80211 0
M  V30 176 H 15.262 2.48968 -3.10001 0
M  V30 177 N 16.2591 1.48442 0.529413 0
M  V30 178 C 17.5071 1.56179 1.28267 0
M  V30 179 C 17.8281 0.237721 1.93546 0
M  V30 180 O 17.0981 -0.740779 1.81354 0
M  V30 181 H 15.6781 0.575367 0.476405 0
M  V30 182 H 18.3401 1.84909 0.61602 0
M  V30 183 H 17.4361 2.34312 2.06165 0
M  V30 184 N 17.7372 -0.778329 1.37039 0
M  V30 185 C 18.9832 -1.53892 1.32079 0
M  V30 186 C 19.3162 -1.9396 -0.0965386 0
M  V30 187 O 18.5912 -1.63568 -1.05242 0
M  V30 188 C 18.8742 -2.80847 2.25382 0
M  V30 189 C 18.7272 -2.47076 3.75864 0
M  V30 190 C 20.0462 -3.82741 2.1725 0
M  V30 191 H 17.1652 -0.558303 0.48111 0
M  V30 192 H 19.8072 -0.893397 1.67685 0
M  V30 193 H 17.9572 -3.35931 1.95148 0
M  V30 194 H 19.6292 -1.97957 4.16666 0
M  V30 195 H 17.8722 -1.79863 3.94755 0
M  V30 196 H 18.5432 -3.37798 4.36574 0
M  V30 197 H 21.0192 -3.37133 2.43887 0
M  V30 198 H 19.8952 -4.69303 2.84686 0
M  V30 199 H 20.1562 -4.2652 1.16331 0
M  V30 200 N 19.2153 -1.21501 -1.00376 0
M  V30 201 C 20.1783 -0.976927 -2.07337 0
M  V30 202 C 21.1783 0.0525322 -1.60714 0
M  V30 203 O 22.3683 -0.184869 -1.73216 0
M  V30 204 C 19.5003 -0.473423 -3.37597 0
M  V30 205 H 20.6933 -1.92587 -2.29892 0
M  V30 206 H 18.2463 -1.03217 -1.17371 0
M  V30 207 H 18.9813 0.480379 -3.20722 0
M  V30 208 H 18.7663 -1.216 -3.72768 0
M  V30 209 H 20.2563 -0.32675 -4.1632 0
M  V30 210 N 20.6934 1.19889 -1.02296 0
M  V30 211 C 21.6034 2.26571 -0.608508 0
M  V30 212 C 22.6194 1.70299 0.356964 0
M  V30 213 O 23.7954 2.00235 0.216326 0
M  V30 214 C 20.8604 3.46677 0.0402814 0
M  V30 215 C 19.9214 4.18153 -0.97194 0
M  V30 216 C 19.1544 5.32525 -0.354016 0
M  V30 217 O 19.3774 5.64112 0.844604 0
M  V30 218 O 18.3114 5.92242 -1.07391 0
M  V30 219 H 22.1374 2.64251 -1.49684 0
M  V30 220 H 19.7224 1.26629 -0.792809 0
M  V30 221 H 21.6044 4.19475 0.402324 0
M  V30 222 H 20.2794 3.10858 0.902707 0
M  V30 223 H 19.1864 3.47499 -1.38546 0
M  V30 224 H 20.5194 4.57927 -1.80454 0
M  V30 225 N 22.1715 0.800033 1.35784 0
M  V30 226 C 23.4205 0.37387 1.98205 0
M  V30 227 C 23.7335 -1.06302 1.64193 0
M  V30 228 O 24.9395 -1.59198 2.19928 0
M  V30 229 C 23.3955 0.617532 3.54562 0
M  V30 230 C 23.0035 2.06654 3.9749 0
M  V30 231 C 24.7475 0.256401 4.23725 0
M  V30 232 C 22.6545 2.2563 5.46667 0
M  V30 233 H 21.5845 0.136055 0.741623 0
M  V30 234 H 24.2355 0.983166 1.54939 0
M  V30 235 H 22.6175 -0.0616248 3.95952 0
M  V30 236 H 23.7915 2.78296 3.67271 0
M  V30 237 H 22.1065 2.38691 3.41197 0
M  V30 238 H 24.7035 0.376318 5.33374 0
M  V30 239 H 25.0465 -0.796692 4.08606 0
M  V30 240 H 25.5795 0.889214 3.87734 0
M  V30 241 H 22.3185 3.2936 5.66747 0
M  V30 242 H 21.8385 1.58504 5.78478 0
M  V30 243 H 23.5175 2.06861 6.1304 0
M  V30 244 N 23.6496 -1.47581 0.552962 0
M  V30 245 C 24.8776 -2.06875 0.0320556 0
M  V30 246 C 25.2926 -1.40625 -1.25976 0
M  V30 247 O 24.6496 -0.501349 -1.75479 0
M  V30 248 C 24.7006 -3.61092 -0.17167 0
M  V30 249 O 24.4216 -4.24858 1.06899 0
M  V30 250 C 25.9226 -4.37242 -0.730344 0
M  V30 251 H 23.1426 -0.669561 0.043915 0
M  V30 252 H 25.6866 -1.89646 0.765163 0
M  V30 253 H 23.8416 -3.7785 -0.854894 0
M  V30 254 H 24.2556 -5.17334 0.864059 0
M  V30 255 H 25.7296 -5.45842 -0.822203 0
M  V30 256 H 26.2066 -4.03235 -1.74064 0
M  V30 257 H 26.8126 -4.25219 -0.0829543 0
M  V30 258 N 25.1277 -0.289203 -1.54924 0
M  V30 259 C 26.3767 0.324231 -1.99077 0
M  V30 260 C 26.6897 1.5591 -1.18117 0
M  V30 261 O 27.8957 2.24637 -1.52481 0
M  V30 262 C 26.3517 0.628209 -3.54375 0
M  V30 263 C 25.9597 -0.587647 -4.44129 0
M  V30 264 C 27.7037 1.20349 -4.07083 0
M  V30 265 C 25.6107 -0.257475 -5.90839 0
M  V30 266 H 24.5407 0.124924 -0.743579 0
M  V30 267 H 27.1917 -0.396063 -1.79175 0
M  V30 268 H 25.5737 1.40778 -3.70132 0
M  V30 269 H 26.7477 -1.36418 -4.40144 0
M  V30 270 H 25.0627 -1.08074 -4.0213 0
M  V30 271 H 27.6597 1.46456 -5.14252 0
M  V30 272 H 28.0027 2.14195 -3.56968 0
M  V30 273 H 28.5357 0.485889 -3.94821 0
M  V30 274 H 25.2747 -1.16419 -6.45079 0
M  V30 275 H 24.7947 0.482018 -5.9786 0
M  V30 276 H 26.4737 0.145238 -6.46837 0
M  V30 277 N 26.6058 1.57591 -0.0167156 0
M  V30 278 C 27.5538 2.10604 0.987353 0
M  V30 279 C 28.5478 1.02977 1.34507 0
M  V30 280 O 29.7538 1.21425 1.32875 0
M  V30 281 H 26.1288 0.672695 0.336134 0
M  V30 282 H 28.0998 2.93925 0.514817 0
M  V30 283 C 26.8488 2.6382 2.26483 0
M  V30 284 H 26.1718 3.46278 1.99829 0
M  V30 285 H 27.6118 3.04573 2.94977 0
M  V30 286 C 26.0708 1.55992 2.9861 0
M  V30 287 O 26.6008 0.952521 3.90243 0
M  V30 288 N 24.8068 1.28335 2.60727 0
M  V30 289 H 24.3538 1.77914 1.86291 0
M  V30 290 H 24.3118 0.564115 3.09298 0
M  V30 291 N 28.0839 -0.256276 1.55502 0
M  V30 292 C 29.0139 -1.32102 1.92539 0
M  V30 293 C 29.9949 -1.50684 0.789194 0
M  V30 294 O 31.1799 -1.63449 1.04872 0
M  V30 295 C 28.3099 -2.67752 2.21192 0
M  V30 296 C 27.2639 -2.63878 3.36975 0
M  V30 297 C 26.5899 -4.03236 3.51147 0
M  V30 298 C 27.8899 -2.21682 4.72921 0
M  V30 299 H 29.5839 -1.01351 2.81724 0
M  V30 300 H 27.1299 -0.486105 1.35547 0
M  V30 301 H 29.0829 -3.42365 2.45691 0
M  V30 302 H 27.8069 -3.0012 1.28824 0
M  V30 303 H 26.4659 -1.91722 3.12471 0
M  V30 304 H 26.1139 -4.32854 2.56216 0
M  V30 305 H 25.8139 -4.01535 4.29003 0
M  V30 306 H 27.3379 -4.79563 3.77957 0
M  V30 307 H 28.7519 -2.86023 4.96854 0
M  V30 308 H 27.1489 -2.3111 5.53812 0
M  V30 309 H 28.2189 -1.16833 4.70615 0
M  V30 310 N 29.562 -1.4872 -0.521534 0
M  V30 311 C 30.973 -1.50607 -1.10337 0
M  V30 312 C 31.324 -0.280612 -1.94183 0
M  V30 313 O 30.449 0.611507 -2.0758 0
M  V30 314 C 31.044 -2.72903 -2.00772 0
M  V30 315 C 29.603 -2.77634 -2.54158 0
M  V30 316 C 28.75 -2.44241 -1.31307 0
M  V30 317 H 31.701 -1.55714 -0.306388 0
M  V30 318 H 31.722 -2.519 -2.85178 0
M  V30 319 H 31.234 -3.62077 -1.39721 0
M  V30 320 H 29.335 -1.92689 -3.18907 0
M  V30 321 H 29.448 -3.79283 -2.92714 0
M  V30 322 H 27.812 -1.95577 -1.63161 0
M  V30 323 H 28.595 -3.35666 -0.719943 0
M  V30 324 N 31.0401 0.771051 -1.3745 0
M  V30 325 C 32.4561 1.07171 -1.18265 0
M  V30 326 C 32.6561 2.01491 -0.019287 0
M  V30 327 O 31.7121 2.44244 0.640408 0
M  V30 328 C 33.0251 1.66854 -2.50161 0
M  V30 329 C 34.5731 1.79109 -2.56689 0
M  V30 330 C 35.0481 2.42205 -3.88717 0
M  V30 331 N 36.5391 2.49655 -3.90162 0
M  V30 332 C 37.2741 2.9933 -4.8907 0
M  V30 333 N 36.7701 3.49172 -5.98374 0
M  V30 334 N 38.5631 2.9821 -4.76474 0
M  V30 335 H 30.7141 0.144796 -2.11906 0
M  V30 336 H 32.9771 0.126863 -0.939473 0
M  V30 337 H 32.6831 1.05017 -3.35655 0
M  V30 338 H 32.5571 2.6614 -2.673 0
M  V30 339 H 34.9441 2.40077 -1.71601 0
M  V30 340 H 35.0251 0.785757 -2.43433 0
M  V30 341 H 34.6691 1.81875 -4.74219 0
M  V30 342 H 34.5991 3.43345 -3.99276 0
M  V30 343 H 37.0901 2.14383 -3.11205 0
M  V30 344 H 37.4031 3.8548 -6.69795 0
M  V30 345 H 35.7481 3.47275 -6.02018 0
M  V30 346 H 38.9391 2.58572 -3.90203 0
M  V30 347 H 39.1121 3.36613 -5.53711 0
M  V30 348 N 32.5182 1.22032 0.997298 0
M  V30 349 C 33.4682 0.953838 2.07089 0
M  V30 350 C 34.4522 -0.0938669 1.60626 0
M  V30 351 O 35.6442 0.116078 1.76619 0
M  V30 352 C 32.7732 0.528726 3.39204 0
M  V30 353 C 31.8592 1.61092 3.92314 0
M  V30 354 N 32.2502 2.83768 4.18699 0
M  V30 355 C 30.5482 1.48158 4.20672 0
M  V30 356 C 31.2492 3.53715 4.61802 0
M  V30 357 N 30.2252 2.81174 4.65233 0
M  V30 358 H 34.0272 1.88577 2.25424 0
M  V30 359 H 31.5412 1.11719 1.17867 0
M  V30 360 H 33.5382 0.31915 4.15677 0
M  V30 361 H 32.1982 -0.39635 3.22272 0
M  V30 362 H 33.2092 3.20238 4.07023 0
M  V30 363 H 29.8862 0.622369 4.12835 0
M  V30 364 H 31.2762 4.58793 4.90875 0
M  V30 365 N 33.9963 -1.19345 1.0293 0
M  V30 366 C 35.4123 -1.41069 0.746446 0
M  V30 367 C 35.6123 -1.90078 -0.668776 0
M  V30 368 O 34.6683 -2.0778 -1.4347 0
M  V30 369 C 35.9813 -2.42141 1.78292 0
M  V30 370 C 37.5293 -2.55887 1.80252 0
M  V30 371 C 38.0043 -3.60214 2.8286 0
M  V30 372 N 39.4953 -3.67711 2.81679 0
M  V30 373 C 40.2303 -4.48128 3.57727 0
M  V30 374 N 39.7263 -5.32248 4.43491 0
M  V30 375 N 41.5193 -4.42782 3.46267 0
M  V30 376 H 33.6703 -0.858536 1.94275 0
M  V30 377 H 35.9333 -0.439541 0.839945 0
M  V30 378 H 35.6393 -2.13155 2.79746 0
M  V30 379 H 35.5133 -3.41323 1.60557 0
M  V30 380 H 37.9003 -2.84196 0.794757 0
M  V30 381 H 37.9813 -1.56858 2.02062 0
M  V30 382 H 37.6253 -3.32647 3.83807 0
M  V30 383 H 37.5553 -4.58895 2.58307 0
M  V30 384 H 40.0463 -3.07634 2.19476 0
M  V30 385 H 40.3593 -5.90729 4.98256 0
M  V30 386 H 38.7043 -5.31707 4.47564 0
M  V30 387 H 41.8953 -3.76107 2.78677 0
M  V30 388 H 42.0683 -5.05215 4.05785 0
M  V30 389 N 35.4744 -0.807222 -1.35358 0
M  V30 390 C 36.4224 -0.20614 -2.31685 0
M  V30 391 C 37.4164 0.644445 -1.56663 0
M  V30 392 O 38.6224 0.537538 -1.71786 0
M  V30 393 H 34.9974 -0.0479006 -0.750473 0
M  V30 394 H 36.9684 -1.03369 -2.79924 0
M  V30 395 C 35.7174 0.630212 -3.41941 0
M  V30 396 H 35.0404 -0.0149558 -3.99797 0
M  V30 397 H 36.4804 1.01716 -4.11619 0
M  V30 398 C 34.9394 1.79601 -2.85035 0
M  V30 399 O 35.4694 2.89351 -2.78637 0
M  V30 400 N 33.6754 1.60774 -2.42074 0
M  V30 401 H 33.2224 0.715009 -2.47478 0
M  V30 402 H 33.1804 2.38933 -2.04349 0
M  V30 403 N 36.9525 1.47285 -0.560781 0
M  V30 404 C 37.9155 2.28535 0.174488 0
M  V30 405 C 38.9155 1.37153 0.839388 0
M  V30 406 O 40.1055 1.59748 0.694702 0
M  V30 407 C 37.2375 3.16934 1.25561 0
M  V30 408 H 38.4305 2.95012 -0.539262 0
M  V30 409 H 35.9835 1.53034 -0.317865 0
M  V30 410 H 36.7185 2.55157 2.00164 0
M  V30 411 H 36.5035 3.8419 0.783604 0
M  V30 412 H 37.9935 3.78143 1.77193 0
M  V30 413 N 38.4306 0.297415 1.54768 0
M  V30 414 C 39.3606 -0.573494 2.26348 0
M  V30 415 C 40.3416 -1.14085 1.26169 0
M  V30 416 O 41.5266 -1.17086 1.54934 0
M  V30 417 C 38.6566 -1.74716 3.00153 0
M  V30 418 C 37.6106 -1.31032 4.07449 0
M  V30 419 C 36.9366 -2.56887 4.68949 0
M  V30 420 C 38.2366 -0.444183 5.20408 0
M  V30 421 H 39.9306 0.0235131 2.99391 0
M  V30 422 H 37.4766 0.0127488 1.43994 0
M  V30 423 H 39.4296 -2.3625 3.48947 0
M  V30 424 H 38.1536 -2.37035 2.24682 0
M  V30 425 H 36.8126 -0.718066 3.59499 0
M  V30 426 H 36.4606 -3.17512 3.90122 0
M  V30 427 H 36.1606 -2.2836 5.41411 0
M  V30 428 H 37.6846 -3.19229 5.20505 0
M  V30 429 H 39.0986 -0.9651 5.65118 0
M  V30 430 H 37.4956 -0.252846 5.99567 0
M  V30 431 H 38.5656 0.531609 4.81977 0
M  V30 432 N 39.9087 -1.5758 0.0250728 0
M  V30 433 C 41.1337 -1.96337 -0.668317 0
M  V30 434 C 41.5587 -0.901314 -1.651 0
M  V30 435 O 40.9167 0.138187 -1.80773 0
M  V30 436 C 40.9647 -3.34191 -1.35457 0
M  V30 437 O 40.0687 -3.30269 -2.46974 0
M  V30 438 H 39.4097 -0.640281 -0.175887 0
M  V30 439 H 41.9397 -2.0442 0.0857224 0
M  V30 440 H 41.9497 -3.70331 -1.71228 0
M  V30 441 H 40.6247 -4.11036 -0.634218 0
M  V30 442 H 39.2017 -3.05841 -2.13344 0
M  V30 443 N 41.3868 0.248026 -1.55636 0
M  V30 444 C 42.6328 0.97767 -1.77678 0
M  V30 445 C 42.9658 1.85016 -0.590135 0
M  V30 446 O 42.2408 1.90095 0.411611 0
M  V30 447 C 42.5238 1.83914 -3.09593 0
M  V30 448 C 42.3768 0.99491 -4.38659 0
M  V30 449 C 43.6958 2.82183 -3.37729 0
M  V30 450 H 40.8148 0.354005 -0.646413 0
M  V30 451 H 43.4568 0.248253 -1.88371 0
M  V30 452 H 41.6068 2.46104 -3.00608 0
M  V30 453 H 43.2788 0.391789 -4.59633 0
M  V30 454 H 41.5218 0.299231 -4.32767 0
M  V30 455 H 42.1928 1.63145 -5.2734 0
M  V30 456 H 44.6688 2.30129 -3.4667 0
M  V30 457 H 43.5448 3.39582 -4.31249 0
M  V30 458 H 43.8058 3.58588 -2.58586 0
M  V30 459 N 42.8649 1.48995 0.513639 0
M  V30 460 C 43.8119 1.6473 1.61656 0
M  V30 461 C 44.7819 0.488984 1.58739 0
M  V30 462 O 45.9669 0.714478 1.76918 0
M  V30 463 C 43.1069 1.7082 2.99858 0
M  V30 464 C 42.2199 2.9787 3.12885 0
M  V30 465 C 41.3549 2.95017 4.41744 0
M  V30 466 C 40.3939 4.16702 4.48359 0
M  V30 467 N 39.5309 4.11832 5.68629 0
M  V30 468 H 44.3709 2.58909 1.47547 0
M  V30 469 H 41.9079 1.28382 0.71808 0
M  V30 470 H 43.8659 1.72331 3.79944 0
M  V30 471 H 42.4959 0.801181 3.12699 0
M  V30 472 H 41.5479 3.06029 2.25944 0
M  V30 473 H 42.8599 3.8786 3.13633 0
M  V30 474 H 42.0139 2.95021 5.30139 0
M  V30 475 H 40.7529 2.02784 4.43542 0
M  V30 476 H 39.7579 4.16955 3.58369 0
M  V30 477 H 40.9829 5.10113 4.48287 0
M  V30 478 H 38.9289 3.22428 5.71293 0
M  V30 479 H 38.8459 4.95543 5.7094 0
M  V30 480 H 40.1139 4.1592 6.59266 0
M  V30 481 N 44.343 -0.763751 1.37857 0
M  V30 482 C 45.306 -1.85889 1.34081 0
M  V30 483 C 46.306 -1.58949 0.243277 0
M  V30 484 O 47.496 -1.66882 0.499589 0
M  V30 485 C 44.628 -3.23176 1.08489 0
M  V30 486 H 45.821 -1.90648 2.31502 0
M  V30 487 H 43.374 -0.964367 1.23003 0
M  V30 488 H 44.109 -3.24091 0.116318 0
M  V30 489 H 43.894 -3.44124 1.8794 0
M  V30 490 H 45.384 -4.03254 1.08517 0
M  V30 491 N 45.8211 -1.22559 -0.990812 0
M  V30 492 C 46.7541 -0.940773 -2.07905 0
M  V30 493 C 47.7321 0.117082 -1.62178 0
M  V30 494 O 48.9161 -0.0149506 -1.88494 0
M  V30 495 C 46.0431 -0.415321 -3.36144 0
M  V30 496 C 45.0891 -1.45818 -4.00799 0
M  V30 497 S 45.9221 -3.03219 -4.41382 0
M  V30 498 C 47.0781 -2.52317 -5.72789 0
M  V30 499 H 47.3111 -1.8623 -2.31745 0
M  V30 500 H 44.8441 -1.05688 -1.12558 0
M  V30 501 H 46.8021 -0.118747 -4.10328 0
M  V30 502 H 45.4631 0.485121 -3.10331 0
M  V30 503 H 44.6561 -1.04044 -4.93144 0
M  V30 504 H 44.2581 -1.70356 -3.32949 0
M  V30 505 H 46.5501 -1.93688 -6.49224 0
M  V30 506 H 47.4931 -3.43161 -6.19392 0
M  V30 507 H 47.9011 -1.93529 -5.30289 0
M  V30 508 N 47.2992 1.18797 -1.03562 0
M  V30 509 C 48.2312 2.21731 -0.580337 0
M  V30 510 C 49.2442 1.59051 0.347349 0
M  V30 511 O 50.4332 1.77929 0.142669 0
M  V30 512 C 47.5332 3.38459 0.172805 0
M  V30 513 C 46.7062 4.3072 -0.761496 0
M  V30 514 C 45.7652 5.26174 -0.0525547 0
M  V30 515 O 44.7912 5.65108 -0.681333 0
M  V30 516 N 45.9932 5.67624 1.21586 0
M  V30 517 H 48.7582 2.61417 -1.46565 0
M  V30 518 H 46.3192 1.33531 -0.915476 0
M  V30 519 H 48.3112 3.99335 0.656793 0
M  V30 520 H 46.8812 2.97507 0.959602 0
M  V30 521 H 46.1012 3.67525 -1.42544 0
M  V30 522 H 47.3892 4.89267 -1.39626 0
M  V30 523 H 46.7872 5.38038 1.74732 0
M  V30 524 H 45.3442 6.30721 1.64421 0
M  V30 525 N 48.7773 0.814389 1.34928 0
M  V30 526 C 49.6873 0.231978 2.3345 0
M  V30 527 C 50.7033 -0.629139 1.62228 0
M  V30 528 O 51.8793 -0.539052 1.94052 0
M  V30 529 C 48.9443 -0.603482 3.41407 0
M  V30 530 C 48.0053 0.279037 4.28392 0
M  V30 531 C 47.2383 -0.516643 5.31193 0
M  V30 532 O 47.4613 -1.75068 5.4287 0
M  V30 533 O 46.3953 0.0965652 6.01823 0
M  V30 534 H 50.2213 1.04721 2.85074 0
M  V30 535 H 47.8063 0.576343 1.37836 0
M  V30 536 H 49.6883 -1.07908 4.0735 0
M  V30 537 H 48.3633 -1.39618 2.92042 0
M  V30 538 H 47.2703 0.801948 3.65403 0
M  V30 539 H 48.6033 1.03588 4.81176 0
M  V30 540 N 50.2554 -1.46986 0.568584 0
M  V30 541 C 51.5044 -2.01646 0.0465894 0
M  V30 542 C 51.8174 -1.44721 -1.31587 0
M  V30 543 O 53.0234 -1.91113 -1.92842 0
M  V30 544 C 51.4794 -3.59885 0.032752 0
M  V30 545 C 51.0874 -4.25804 1.39266 0
M  V30 546 C 52.8314 -4.22255 -0.436038 0
M  V30 547 C 50.7384 -5.76081 1.33732 0
M  V30 548 H 49.6684 -0.753876 0.013647 0
M  V30 549 H 52.3194 -1.68864 0.718131 0
M  V30 550 H 50.7014 -3.8968 -0.704669 0
M  V30 551 H 51.8754 -4.07637 2.1487 0
M  V30 552 H 50.1904 -3.7547 1.80032 0
M  V30 553 H 52.7874 -5.32394 -0.49602 0
M  V30 554 H 53.1304 -3.90212 -1.45053 0
M  V30 555 H 53.6634 -3.97033 0.246877 0
M  V30 556 H 50.4024 -6.12761 2.32817 0
M  V30 557 H 49.9224 -5.96553 0.623267 0
M  V30 558 H 51.6014 -6.38518 1.0442 0
M  V30 559 N 51.7335 -0.305618 -1.54608 0
M  V30 560 C 52.9615 0.304775 -2.04643 0
M  V30 561 C 53.3765 1.47167 -1.18268 0
M  V30 562 O 52.7335 1.81296 -0.209328 0
M  V30 563 C 52.7845 0.756564 -3.53495 0
M  V30 564 O 52.5055 -0.36389 -4.36586 0
M  V30 565 C 54.0065 1.43163 -4.19546 0
M  V30 566 H 51.2265 0.0655481 -0.667791 0
M  V30 567 H 53.7705 -0.446592 -1.99564 0
M  V30 568 H 51.9255 1.45794 -3.58919 0
M  V30 569 H 52.3395 -0.0113121 -5.24499 0
M  V30 570 H 53.8135 1.69886 -5.25207 0
M  V30 571 H 54.2905 2.37318 -3.69563 0
M  V30 572 H 54.8965 0.773307 -4.18211 0
M  V30 573 N 53.2116 1.57565 -0.0334293 0
M  V30 574 C 54.4886 1.83282 0.683163 0
M  V30 575 C 54.8686 0.91823 1.90084 0
M  V30 576 O 54.2166 -0.025113 2.28486 0
M  V30 577 C 54.4266 3.32599 1.0573 0
M  V30 578 C 55.7746 3.99179 1.44711 0
M  V30 579 O 56.7986 3.3712 1.15015 0
M  V30 580 O 55.6576 5.08565 2.0006 0
M  V30 581 H 52.7516 0.755869 0.335546 0
M  V30 582 H 55.2976 1.69589 -0.0614402 0
M  V30 583 H 54.0696 3.90834 0.190828 0
M  V30 584 H 53.6926 3.51415 1.85993 0
M  V30 585 N 54.6897 -0.239769 1.55765 0
M  V30 586 C 55.6527 -1.28038 1.90103 0
M  V30 587 C 56.6527 -1.40723 0.778055 0
M  V30 588 O 57.8427 -1.39301 1.04599 0
M  V30 589 C 54.9747 -2.65702 2.13577 0
M  V30 590 H 56.1677 -0.988048 2.83157 0
M  V30 591 H 53.7207 -0.479382 1.48767 0
M  V30 592 H 54.4557 -3.00063 1.23015 0
M  V30 593 H 54.2407 -2.57875 2.95369 0
M  V30 594 H 55.7307 -3.40828 2.41301 0
M  V30 595 N 56.1678 -1.49265 -0.50573 0
M  V30 596 C 57.0978 -1.68495 -1.61653 0
M  V30 597 C 58.0788 -0.53366 -1.61512 0
M  V30 598 O 59.2638 -0.76897 -1.78327 0
M  V30 599 C 56.3938 -1.74709 -3.00157 0
M  V30 600 C 55.3478 -2.89581 -3.15162 0
M  V30 601 C 54.6738 -2.80903 -4.5497 0
M  V30 602 C 55.9738 -4.30578 -2.95634 0
M  V30 603 H 57.6678 -2.61493 -1.45814 0
M  V30 604 H 55.2138 -1.25838 -0.70005 0
M  V30 605 H 57.1668 -1.86748 -3.77761 0
M  V30 606 H 55.8908 -0.783067 -3.17074 0
M  V30 607 H 54.5498 -2.77136 -2.39982 0
M  V30 608 H 54.1978 -1.82419 -4.68756 0
M  V30 609 H 53.8978 -3.57999 -4.65951 0
M  V30 610 H 55.4218 -2.94944 -5.34641 0
M  V30 611 H 56.8358 -4.4373 -3.63011 0
M  V30 612 H 55.2328 -5.0886 -3.18091 0
M  V30 613 H 56.3028 -4.45352 -1.91806 0
M  V30 614 N 57.6459 0.756429 -1.3826 0
M  V30 615 C 58.5939 1.89149 -1.35372 0
M  V30 616 C 59.5879 1.67691 -0.24004 0
M  V30 617 O 60.7939 1.75294 -0.408919 0
M  V30 618 H 57.1689 0.622271 -0.422236 0
M  V30 619 H 59.1399 1.88701 -2.31159 0
M  V30 620 C 57.8889 3.26599 -1.19284 0
M  V30 621 H 57.2119 3.43695 -2.0424 0
M  V30 622 H 58.6519 4.06274 -1.21316 0
M  V30 623 C 57.1109 3.3675 0.100454 0
M  V30 624 O 57.6409 3.86951 1.07851 0
M  V30 625 N 55.8469 2.90179 0.15633 0
M  V30 626 H 55.3939 2.49517 -0.640253 0
M  V30 627 H 55.3519 2.97352 1.02123 0
M  V30 628 N 59.124 1.23083 0.984299 0
M  V30 629 C 60.54 0.992637 1.24975 0
M  V30 630 C 60.74 -0.308618 1.99123 0
M  V30 631 O 59.796 -1.02905 2.30579 0
M  V30 632 C 61.109 2.19698 2.05312 0
M  V30 633 C 62.657 2.24147 2.18465 0
M  V30 634 C 63.132 3.44157 3.02192 0
M  V30 635 N 64.623 3.44372 3.09777 0
M  V30 636 C 65.358 4.33886 3.74874 0
M  V30 637 N 64.854 5.3363 4.41827 0
M  V30 638 N 66.647 4.21639 3.71721 0
M  V30 639 H 58.798 2.06731 0.487453 0
M  V30 640 H 61.061 0.906339 0.277944 0
M  V30 641 H 60.767 3.1411 1.58201 0
M  V30 642 H 60.641 2.20465 3.06064 0
M  V30 643 H 63.028 1.30277 2.64786 0
M  V30 644 H 63.109 2.27415 1.17115 0
M  V30 645 H 62.753 4.38332 2.56568 0
M  V30 646 H 62.683 3.3813 4.03702 0
M  V30 647 H 65.174 2.72201 2.62135 0
M  V30 648 H 65.487 5.98196 4.89266 0
M  V30 649 H 63.832 5.37534 4.40548 0
M  V30 650 H 67.023 3.42962 3.18582 0
M  V30 651 H 67.196 4.91604 4.22173 0
M  V30 652 N 60.6021 -1.18246 1.0419 0
M  V30 653 C 61.5651 -2.20128 0.638452 0
M  V30 654 C 62.5651 -1.57885 -0.304805 0
M  V30 655 O 63.7551 -1.73967 -0.0900369 0
M  V30 656 C 60.8871 -3.4084 -0.0637751 0
M  V30 657 H 62.0801 -2.57336 1.54007 0
M  V30 658 H 59.6331 -1.32152 0.834598 0
M  V30 659 H 60.3681 -3.09166 -0.979136 0
M  V30 660 H 60.1531 -3.8726 0.614198 0
M  V30 661 H 61.6431 -4.16274 -0.332512 0
M  V30 662 N 62.0802 -0.821533 -1.34494 0
M  V30 663 C 62.9902 -0.244355 -2.33324 0
M  V30 664 C 64.0062 0.620527 -1.62559 0
M  V30 665 O 65.1822 0.528754 -1.94335 0
M  V30 666 C 62.2472 0.585368 -3.41723 0
M  V30 667 C 61.3082 -0.301752 -4.28238 0
M  V30 668 C 60.5412 0.488466 -5.3146 0
M  V30 669 O 60.7642 1.72186 -5.4379 0
M  V30 670 O 59.6982 -0.12848 -6.01763 0
M  V30 671 H 63.5242 -1.06231 -2.84515 0
M  V30 672 H 61.1092 -0.583645 -1.37528 0
M  V30 673 H 62.9912 1.05747 -4.07916 0
M  V30 674 H 61.6662 1.38068 -2.92778 0
M  V30 675 H 60.5732 -0.821315 -3.64973 0
M  V30 676 H 61.9062 -1.06138 -4.8062 0
M  V30 677 N 63.5583 1.46682 -0.576371 0
M  V30 678 C 64.4683 2.34032 0.163141 0
M  V30 679 C 65.4843 1.49367 0.892501 0
M  V30 680 O 66.6603 1.82252 0.857106 0
M  V30 681 C 63.7253 3.26435 1.16795 0
M  V30 682 C 62.7863 4.26998 0.443944 0
M  V30 683 C 62.0193 5.14986 1.40088 0
M  V30 684 O 62.2423 5.05785 2.637 0
M  V30 685 O 61.1763 5.94906 0.914917 0
M  V30 686 H 65.0023 2.98607 -0.55388 0
M  V30 687 H 62.5873 1.45554 -0.336821 0
M  V30 688 H 64.4693 3.83459 1.74748 0
M  V30 689 H 63.1443 2.64465 1.86655 0
M  V30 690 H 62.0513 3.7368 -0.177271 0
M  V30 691 H 63.3843 4.91736 -0.213566 0
M  V30 692 N 65.0364 0.313813 1.54444 0
M  V30 693 C 66.3134 -0.345447 1.92525 0
M  V30 694 C 66.6934 -1.70667 1.24242 0
M  V30 695 O 66.0414 -2.25273 0.382654 0
M  V30 696 C 66.2514 -0.44737 3.46121 0
M  V30 697 C 67.5994 -0.712238 4.18584 0
M  V30 698 O 68.6234 -0.530678 3.52225 0
M  V30 699 O 67.4824 -1.06183 5.36085 0
M  V30 700 H 64.5764 -0.195407 0.803583 0
M  V30 701 H 67.1224 0.362813 1.65776 0
M  V30 702 H 65.8944 0.509043 3.87975 0
M  V30 703 H 65.5174 -1.20359 3.78945 0
M  V30 704 N 66.5145 -1.57545 0.0417849 0
M  V30 705 C 67.7915 -1.83642 -0.673433 0
M  V30 706 C 68.1715 -0.928298 -1.89594 0
M  V30 707 O 67.5195 0.0129955 -2.28496 0
M  V30 708 C 67.7295 -3.33155 -1.03964 0
M  V30 709 C 69.0775 -3.99941 -1.42592 0
M  V30 710 O 70.1015 -3.37725 -1.13226 0
M  V30 711 O 68.9605 -5.09619 -1.9736 0
M  V30 712 H 66.0545 -0.757638 -0.331533 0
M  V30 713 H 68.6005 -1.69554 0.070433 0
M  V30 714 H 67.3725 -3.9093 -0.170098 0
M  V30 715 H 66.9955 -3.52396 -1.84126 0
M  V30 716 N 67.9926 0.231505 -1.5589 0
M  V30 717 C 68.9406 1.30649 -1.92441 0
M  V30 718 C 69.9346 1.49037 -0.805254 0
M  V30 719 O 71.1406 1.50329 -0.990007 0
M  V30 720 H 67.5156 0.437812 -0.611412 0
M  V30 721 H 69.4866 0.970973 -2.82161 0
M  V30 722 C 68.2356 2.65179 -2.24889 0
M  V30 723 H 67.5586 2.51835 -3.10514 0
M  V30 724 H 68.9986 3.39234 -2.54355 0
M  V30 725 C 67.4576 3.19439 -1.07054 0
M  V30 726 O 67.9876 4.00371 -0.326499 0
M  V30 727 N 66.1936 2.77675 -0.85703 0
M  V30 728 H 65.7406 2.11969 -1.46379 0
M  V30 729 H 65.6986 3.14321 -0.0703223 0
M  V30 730 N 69.4707 1.49531 0.497807 0
M  V30 731 C 70.7167 1.59415 1.25358 0
M  V30 732 C 71.0497 0.281422 1.9215 0
M  V30 733 O 70.3247 -0.715249 1.80871 0
M  V30 734 C 70.6077 2.75566 2.3181 0
M  V30 735 C 70.4607 4.16642 1.69498 0
M  V30 736 C 71.7797 2.87347 3.33346 0
M  V30 737 H 68.8987 0.580244 0.454408 0
M  V30 738 H 71.5407 1.81827 0.551262 0
M  V30 739 H 69.6907 2.56587 2.91711 0
M  V30 740 H 71.3627 4.47145 1.13399 0
M  V30 741 H 69.6057 4.22141 0.998978 0
M  V30 742 H 70.2767 4.93792 2.46725 0
M  V30 743 H 72.7527 3.04634 2.83438 0
M  V30 744 H 71.6287 3.70289 4.05188 0
M  V30 745 H 71.8897 1.96834 3.95865 0
M  V30 746 N 70.9488 -0.749086 1.3866 0
M  V30 747 C 72.1968 -1.50535 1.34847 0
M  V30 748 C 72.5178 -1.94909 -0.0595016 0
M  V30 749 O 71.7878 -1.67973 -1.00806 0
M  V30 750 H 70.3678 -0.558395 0.49619 0
M  V30 751 H 73.0298 -0.890165 1.73384 0
M  V30 752 H 72.1258 -2.39413 2.00219 0
M  V30 753 N 72.4269 -1.23603 -0.977757 0
M  V30 754 C 73.3899 -1.02069 -2.05218 0
M  V30 755 C 74.3899 0.0184305 -1.60789 0
M  V30 756 O 75.5799 -0.221569 -1.72785 0
M  V30 757 C 72.7119 -0.544926 -3.36517 0
M  V30 758 H 73.9049 -1.9742 -2.25755 0
M  V30 759 H 71.4579 -1.05684 -1.15155 0
M  V30 760 H 72.1929 0.412241 -3.21669 0
M  V30 761 H 71.9779 -1.2948 -3.70105 0
M  V30 762 H 73.4679 -0.414985 -4.15533 0
M  V30 763 N 73.905 1.17692 -1.04816 0
M  V30 764 C 75.151 1.88137 -0.75711 0
M  V30 765 C 75.484 1.80604 0.713841 0
M  V30 766 O 74.759 1.21146 1.52164 0
M  V30 767 C 75.042 3.38318 -1.2334 0
M  V30 768 C 74.895 3.54622 -2.76701 0
M  V30 769 C 76.214 4.32214 -0.829415 0
M  V30 770 H 73.333 0.683163 -0.27651 0
M  V30 771 H 75.975 1.38424 -1.30149 0
M  V30 772 H 74.125 3.80787 -0.770286 0
M  V30 773 H 75.797 3.21194 -3.31107 0
M  V30 774 H 74.04 2.97026 -3.16161 0
M  V30 775 H 74.711 4.60028 -3.05088 0
M  V30 776 H 77.187 3.97565 -1.22805 0
M  V30 777 H 76.063 5.35838 -1.19033 0
M  V30 778 H 76.324 4.41294 0.266891 0
M  V30 779 N 75.3831 0.828654 1.34056 0
M  V30 780 C 76.3161 0.199763 2.27324 0
M  V30 781 C 77.2941 -0.647168 1.49166 0
M  V30 782 O 78.4781 -0.609661 1.78369 0
M  V30 783 C 75.6051 -0.720455 3.30949 0
M  V30 784 C 74.6511 0.0496888 4.26471 0
M  V30 785 S 75.4841 1.40072 5.16856 0
M  V30 786 C 76.6401 0.485527 6.24014 0
M  V30 787 H 76.8731 0.990478 2.80316 0
M  V30 788 H 74.4061 0.624857 1.41191 0
M  V30 789 H 76.3641 -1.24581 3.91139 0
M  V30 790 H 75.0251 -1.48474 2.76793 0
M  V30 791 H 74.2181 -0.650104 4.9979 0
M  V30 792 H 73.8201 0.505779 3.70564 0
M  V30 793 H 76.1121 -0.320672 6.76741 0
M  V30 794 H 77.0551 1.18856 6.98054 0
M  V30 795 H 77.4631 0.0714109 5.64455 0
M  V30 796 N 76.8612 -1.46375 0.584142 0
M  V30 797 C 78.1102 -2.01585 0.0679741 0
M  V30 798 C 78.4232 -1.46109 -1.30045 0
M  V30 799 O 79.6292 -1.93148 -1.90804 0
M  V30 800 C 78.0852 -3.5983 0.0709207 0
M  V30 801 C 77.6932 -4.24303 1.43775 0
M  V30 802 C 79.4372 -4.22693 -0.391228 0
M  V30 803 C 77.3442 -5.74631 1.39834 0
M  V30 804 H 76.2742 -0.753689 0.0216421 0
M  V30 805 H 78.9252 -1.68093 0.736001 0
M  V30 806 H 77.3072 -3.90405 -0.663299 0
M  V30 807 H 78.4812 -4.05335 2.19181 0
M  V30 808 H 76.7962 -3.73539 1.84004 0
M  V30 809 H 79.3932 -5.3289 -0.439524 0
M  V30 810 H 79.7362 -3.91728 -1.40906 0
M  V30 811 H 80.2692 -3.96749 0.288974 0
M  V30 812 H 77.0082 -6.10258 2.39303 0
M  V30 813 H 76.5282 -5.95858 0.686505 0
M  V30 814 H 78.2072 -6.37375 1.11187 0
M  V30 815 N 78.3393 -0.321999 -1.54275 0
M  V30 816 C 79.5673 0.283052 -2.04955 0
M  V30 817 C 79.9823 1.45904 -1.19823 0
M  V30 818 O 79.3393 1.81063 -0.228545 0
M  V30 819 C 79.3903 0.719028 -3.54277 0
M  V30 820 O 79.1113 -0.410175 -4.36176 0
M  V30 821 C 80.6123 1.38705 -4.21041 0
M  V30 822 H 77.8323 0.0584616 -0.668448 0
M  V30 823 H 80.3763 -0.467734 -1.99079 0
M  V30 824 H 78.5313 1.41979 -3.60445 0
M  V30 825 H 78.9453 -0.0669416 -5.24457 0
M  V30 826 H 80.4193 1.64306 -5.2698 0
M  V30 827 H 80.8963 2.33385 -3.72059 0
M  V30 828 H 81.5023 0.728906 -4.19007 0
M  V30 829 N 79.8174 1.5752 -0.0501392 0
M  V30 830 C 81.0654 1.9227 0.622642 0
M  V30 831 C 81.3864 0.929083 1.71444 0
M  V30 832 O 80.6564 -0.0262186 1.95882 0
M  V30 833 H 79.2364 0.709739 0.232981 0
M  V30 834 H 81.8984 1.94628 -0.102898 0
M  V30 835 H 80.9944 2.93479 1.06191 0
M  V30 836 N 81.2955 -0.223234 1.56011 0
M  V30 837 C 82.2585 -1.26014 1.9145 0
M  V30 838 C 83.2585 -1.3989 0.792937 0
M  V30 839 O 84.4485 -1.38184 1.0607 0
M  V30 840 C 81.5805 -2.63422 2.16383 0
M  V30 841 H 82.7735 -0.95796 2.84189 0
M  V30 842 H 80.3265 -0.463576 1.49267 0
M  V30 843 H 81.0615 -2.98741 1.2619 0
M  V30 844 H 80.8465 -2.54728 2.98088 0
M  V30 845 H 82.3365 -3.38249 2.44903 0
M  V30 846 N 82.7736 -1.49793 -0.48987 0
M  V30 847 C 83.7366 -1.66752 -1.57246 0
M  V30 848 C 84.7366 -0.538867 -1.51502 0
M  V30 849 O 85.9266 -0.805545 -1.54456 0
M  V30 850 C 83.0586 -1.67528 -2.96896 0
M  V30 851 H 84.2516 -2.63321 -1.43534 0
M  V30 852 H 81.8046 -1.38992 -0.714914 0
M  V30 853 H 82.5396 -0.725837 -3.16073 0
M  V30 854 H 82.3246 -2.49504 -3.02473 0
M  V30 855 H 83.8146 -1.82667 -3.7553 0
M  V30 856 N 84.2517 0.741722 -1.39055 0
M  V30 857 C 85.5287 1.49252 -1.26425 0
M  V30 858 C 85.9087 2.10705 0.129144 0
M  V30 859 O 85.2567 1.98045 1.13976 0
M  V30 860 C 85.4667 2.54934 -2.38347 0
M  V30 861 C 86.8147 3.21506 -2.77343 0
M  V30 862 O 87.8387 2.65245 -2.37747 0
M  V30 863 O 86.6977 4.23294 -3.45665 0
M  V30 864 H 83.7917 0.662451 -0.495064 0
M  V30 865 H 86.3377 0.776121 -1.50912 0
M  V30 866 H 85.1097 2.07857 -3.31529 0
M  V30 867 H 84.7327 3.34141 -2.15489 0
M  V30 868 N 85.7298 1.2412 0.971189 0
M  V30 869 C 86.6928 1.03156 2.04674 0
M  V30 870 C 87.6928 -0.00990322 1.60797 0
M  V30 871 O 88.8828 0.230729 1.72665 0
M  V30 872 C 86.0148 0.562765 3.36223 0
M  V30 873 H 87.2078 1.98614 2.24705 0
M  V30 874 H 84.7608 1.06293 1.14593 0
M  V30 875 H 85.4958 -0.395176 3.21883 0
M  V30 876 H 85.2808 1.31441 3.69413 0
M  V30 877 H 86.7708 0.437015 4.15307 0
M  V30 878 N 87.2079 -1.17134 1.05439 0
M  V30 879 C 88.4549 -1.87456 0.765942 0
M  V30 880 C 88.7829 -1.81189 -0.707153 0
M  V30 881 O 88.0379 -1.21633 -1.5331 0
M  V30 882 C 88.3369 -3.36833 1.19491 0
M  V30 883 C 88.0029 -3.63301 2.67063 0
M  V30 884 C 86.6649 -3.70234 3.07376 0
M  V30 885 C 89.0169 -3.74575 3.62413 0
M  V30 886 C 86.3449 -3.85933 4.41896 0
M  V30 887 C 88.6969 -3.91793 4.9667 0
M  V30 888 C 87.3609 -3.96966 5.36633 0
M  V30 889 H 86.6309 -0.685948 0.280278 0
M  V30 890 H 89.2779 -1.38556 1.32192 0
M  V30 891 H 87.5829 -3.87807 0.557969 0
M  V30 892 H 89.2799 -3.89611 0.948893 0
M  V30 893 H 85.8699 -3.58532 2.34846 0
M  V30 894 H 90.0539 -3.68537 3.32406 0
M  V30 895 H 85.3099 -3.88187 4.72357 0
M  V30 896 H 89.4839 -3.99458 5.70444 0
M  V30 897 H 87.1109 -4.08883 6.40874 0
M  V30 898 N 88.686 -0.835752 -1.33615 0
M  V30 899 C 89.926 -0.43599 -1.99696 0
M  V30 900 C 90.29 0.98557 -1.64774 0
M  V30 901 O 91.491 1.48889 -2.23798 0
M  V30 902 C 89.762 -0.646721 -3.515 0
M  V30 903 S 91.321 -0.341715 -4.37467 0
M  V30 904 H 88.139 -0.164136 -0.691795 0
M  V30 905 H 90.741 -1.08436 -1.62671 0
M  V30 906 H 89.445 -1.68077 -3.74404 0
M  V30 907 H 88.976 0.0159173 -3.93397 0
M  V30 908 H 90.991 0.839708 -4.89043 0
M  V30 909 N 90.1641 1.46063 -0.591896 0
M  V30 910 C 91.1271 2.28854 0.125973 0
M  V30 911 C 92.1271 1.38903 0.810107 0
M  V30 912 O 93.3171 1.61186 0.66066 0
M  V30 913 C 90.4491 3.19526 1.1881 0
M  V30 914 H 91.6421 2.93802 -0.601717 0
M  V30 915 H 89.1951 1.52325 -0.350254 0
M  V30 916 H 89.9301 2.59345 1.94707 0
M  V30 917 H 89.7151 3.85766 0.701936 0
M  V30 918 H 91.2051 3.81817 1.69132 0
M  V30 919 N 91.6422 0.330177 1.54103 0
M  V30 920 C 92.8902 -0.269871 2.0029 0
M  V30 921 C 93.2112 -1.52133 1.21986 0
M  V30 922 O 92.4812 -1.93212 0.323438 0
M  V30 923 H 91.0612 -0.10271 0.739905 0
M  V30 924 H 93.7232 0.448249 1.89675 0
M  V30 925 H 92.8192 -0.52166 3.07709 0
M  V30 926 N 93.1203 -1.57491 0.0584922 0
M  V30 927 C 94.3673 -1.92978 -0.613648 0
M  V30 928 C 94.6953 -0.937461 -1.70417 0
M  V30 929 O 93.9503 0.049078 -1.95638 0
M  V30 930 C 94.2493 -3.3513 -1.24188 0
M  V30 931 C 93.9153 -4.50037 -0.278826 0
M  V30 932 C 92.5773 -4.81198 -0.0138447 0
M  V30 933 C 94.9293 -5.19807 0.380777 0
M  V30 934 C 92.2573 -5.79473 0.918052 0
M  V30 935 C 94.6093 -6.19079 1.30091 0
M  V30 936 C 93.2733 -6.48665 1.57449 0
M  V30 937 H 92.5433 -0.706157 -0.22455 0
M  V30 938 H 95.1903 -1.91082 0.126533 0
M  V30 939 H 93.4953 -3.33429 -2.05749 0
M  V30 940 H 95.1923 -3.59871 -1.769 0
M  V30 941 H 91.7823 -4.25726 -0.495539 0
M  V30 942 H 95.9663 -4.95939 0.189158 0
M  V30 943 H 91.2223 -6.00727 1.1374 0
M  V30 944 H 95.3963 -6.7225 1.81804 0
M  V30 945 H 93.0233 -7.24628 2.29822 0
M  V30 946 N 94.5984 0.214957 -1.56127 0
M  V30 947 C 95.8284 0.953707 -1.8327 0
M  V30 948 C 96.2364 1.78181 -0.636262 0
M  V30 949 O 95.5794 1.79191 0.404516 0
M  V30 950 C 95.6414 1.91516 -3.0424 0
M  V30 951 C 95.3054 1.27094 -4.38972 0
M  V30 952 C 96.3024 0.657575 -5.15725 0
M  V30 953 C 93.9874 1.28073 -4.85698 0
M  V30 954 C 95.9814 0.0625968 -6.37369 0
M  V30 955 C 93.6684 0.681914 -6.07283 0
M  V30 956 C 94.6664 0.0739046 -6.8296 0
M  V30 957 O 94.3544 -0.515582 -8.02245 0
M  V30 958 H 94.0864 0.284764 -0.613095 0
M  V30 959 H 96.6404 0.233283 -2.04071 0
M  V30 960 H 94.8704 2.67475 -2.79274 0
M  V30 961 H 96.5594 2.52001 -3.18198 0
M  V30 962 H 97.3254 0.642288 -4.80728 0
M  V30 963 H 93.2044 1.74337 -4.26764 0
M  V30 964 H 96.7484 -0.412593 -6.96379 0
M  V30 965 H 92.6454 0.694636 -6.41752 0
M  V30 966 H 93.4134 -0.410544 -8.1747 0
M  V30 967 N 96.0765 1.50051 0.48192 0
M  V30 968 C 97.0065 1.71046 1.58951 0
M  V30 969 C 97.9875 0.559288 1.60642 0
M  V30 970 O 99.1725 0.797243 1.77081 0
M  V30 971 C 96.3025 1.79462 2.97339 0
M  V30 972 C 95.2565 2.94558 3.10515 0
M  V30 973 C 94.5825 2.88105 4.50444 0
M  V30 974 C 95.8825 4.35227 2.88747 0
M  V30 975 H 97.5765 2.6378 1.41635 0
M  V30 976 H 95.1225 1.26936 0.679942 0
M  V30 977 H 97.0755 1.92734 3.74742 0
M  V30 978 H 95.7995 0.833412 3.15788 0
M  V30 979 H 94.4585 2.80918 2.35543 0
M  V30 980 H 94.1065 1.89853 4.65795 0
M  V30 981 H 93.8065 3.65366 4.60197 0
M  V30 982 H 95.3305 3.03412 5.29881 0
M  V30 983 H 96.7445 4.49449 3.55905 0
M  V30 984 H 95.1415 5.13856 3.09955 0
M  V30 985 H 96.2115 4.48347 1.84696 0
M  V30 986 N 97.5546 -0.734337 1.39446 0
M  V30 987 C 98.9706 -1.03997 1.21065 0
M  V30 988 C 99.1706 -2.01369 0.0727019 0
M  V30 989 O 98.2266 -2.45856 -0.575426 0
M  V30 990 C 99.5396 -1.60163 2.54496 0
M  V30 991 C 101.088 -1.7224 2.61347 0
M  V30 992 C 101.563 -2.31814 3.95002 0
M  V30 993 N 103.054 -2.39223 3.96644 0
M  V30 994 C 103.789 -2.86258 4.96834 0
M  V30 995 N 103.285 -3.33184 6.07421 0
M  V30 996 N 105.078 -2.85473 4.84213 0
M  V30 997 H 97.2286 -0.0885624 2.12215 0
M  V30 998 H 99.4916 -0.10191 0.942506 0
M  V30 999 H 99.1976 -0.960811 3.38321 0
M  V30 1000 H 99.0716 -2.5896 2.74262 0
M  V30 1001 H 101.459 -2.35443 1.77906 0
M  V30 1002 H 101.54 -0.720939 2.4543 0
M  V30 1003 H 101.184 -1.69238 4.78875 0
M  V30 1004 H 101.114 -3.32638 4.08239 0
M  V30 1005 H 103.605 -2.06057 3.16779 0
M  V30 1006 H 103.918 -3.67586 6.7978 0
M  V30 1007 H 102.263 -3.31191 6.11013 0
M  V30 1008 H 105.454 -2.48136 3.96921 0
M  V30 1009 H 105.627 -3.21814 5.62441 0
M  V30 1010 N 99.0327 -1.24633 -0.964593 0
M  V30 1011 C 99.9427 -1.05859 -2.09359 0
M  V30 1012 C 100.959 0.00148855 -1.74 0
M  V30 1013 O 102.135 -0.197346 -2.00431 0
M  V30 1014 C 99.1997 -0.668879 -3.40187 0
M  V30 1015 C 98.2607 -1.80578 -3.89474 0
M  V30 1016 C 97.4937 -1.43457 -5.14058 0
M  V30 1017 O 97.7167 -0.325775 -5.69469 0
M  V30 1018 O 96.6507 -2.2613 -5.57807 0
M  V30 1019 H 100.477 -2.00516 -2.28094 0
M  V30 1020 H 98.0617 -1.03481 -1.0776 0
M  V30 1021 H 99.9437 -0.463211 -4.18846 0
M  V30 1022 H 98.6187 0.248536 -3.22744 0
M  V30 1023 H 97.5257 -2.06623 -3.11862 0
M  V30 1024 H 98.8587 -2.70208 -4.11398 0
M  V30 1025 N 100.511 1.16574 -1.06058 0
M  V30 1026 C 101.76 1.86385 -0.770944 0
M  V30 1027 C 102.073 1.82448 0.705129 0
M  V30 1028 O 103.279 2.47815 1.10905 0
M  V30 1029 C 101.735 3.34466 -1.32893 0
M  V30 1030 C 101.343 3.46883 -2.83507 0
M  V30 1031 C 103.087 4.09548 -1.11672 0
M  V30 1032 C 100.994 4.89036 -3.32562 0
M  V30 1033 H 99.9238 0.698181 -0.284709 0
M  V30 1034 H 102.575 1.31583 -1.27899 0
M  V30 1035 H 100.957 3.88859 -0.748662 0
M  V30 1036 H 102.131 3.02663 -3.47465 0
M  V30 1037 H 100.446 2.85232 -3.03368 0
M  V30 1038 H 103.043 5.14434 -1.45814 0
M  V30 1039 H 103.386 4.16264 -0.0549535 0
M  V30 1040 H 103.919 3.61387 -1.66265 0
M  V30 1041 H 100.658 4.87499 -4.38207 0
M  V30 1042 H 100.178 5.3389 -2.73351 0
M  V30 1043 H 101.857 5.57843 -3.2775 0
M  V30 1044 N 101.989 0.842826 1.3317 0
M  V30 1045 C 103.4 0.496651 1.79973 0
M  V30 1046 C 103.751 -0.984641 1.69703 0
M  V30 1047 O 102.876 -1.76743 1.24863 0
M  V30 1048 C 103.471 0.894727 3.26772 0
M  V30 1049 C 102.03 0.600629 3.71577 0
M  V30 1050 C 101.177 1.10091 2.5451 0
M  V30 1051 H 104.128 1.03116 1.20635 0
M  V30 1052 H 104.149 0.206347 3.7994 0
M  V30 1053 H 103.661 1.97287 3.34215 0
M  V30 1054 H 101.762 -0.467284 3.69658 0
M  V30 1055 H 101.875 1.15863 4.64879 0
M  V30 1056 H 100.239 0.52162 2.49301 0
M  V30 1057 H 101.022 2.18591 2.64713 0
M  V30 1058 N 103.467 -1.45747 0.599634 0
M  V30 1059 C 104.397 -2.33235 -0.111306 0
M  V30 1060 C 105.378 -1.46359 -0.866781 0
M  V30 1061 O 106.563 -1.75146 -0.838904 0
M  V30 1062 C 103.693 -3.28932 -1.11451 0
M  V30 1063 C 102.647 -4.25381 -0.472772 0
M  V30 1064 C 101.973 -5.1071 -1.58365 0
M  V30 1065 C 103.273 -5.18831 0.600948 0
M  V30 1066 H 104.967 -2.92927 0.61919 0
M  V30 1067 H 102.513 -1.40857 0.299215 0
M  V30 1068 H 104.466 -3.89002 -1.62036 0
M  V30 1069 H 103.19 -2.67381 -1.8755 0
M  V30 1070 H 101.849 -3.66598 0.0121472 0
M  V30 1071 H 101.497 -4.45533 -2.33473 0
M  V30 1072 H 101.197 -5.7604 -1.15982 0
M  V30 1073 H 102.721 -5.73647 -2.09194 0
M  V30 1074 H 104.135 -5.73019 0.179491 0
M  V30 1075 H 102.532 -5.92595 0.946076 0
M  V30 1076 H 103.602 -4.6174 1.48068 0
M  V30 1077 N 104.945 -0.338344 -1.53925 0
M  V30 1078 C 106.222 0.314774 -1.93051 0
M  V30 1079 C 106.602 1.68669 -1.26941 0
M  V30 1080 O 105.95 2.24636 -0.418445 0
M  V30 1081 C 106.16 0.392249 -3.46789 0
M  V30 1082 C 107.508 0.645554 -4.19664 0
M  V30 1083 O 108.532 0.474575 -3.53024 0
M  V30 1084 O 107.391 0.976408 -5.37707 0
M  V30 1085 H 104.485 0.182598 -0.80659 0
M  V30 1086 H 107.031 -0.389141 -1.65178 0
M  V30 1087 H 105.803 -0.570702 -3.87116 0
M  V30 1088 H 105.426 1.14316 -3.80812 0
M  V30 1089 N 106.423 1.57458 -0.0668435 0
M  V30 1090 C 107.371 2.13639 0.919851 0
M  V30 1091 C 108.365 1.07204 1.31163 0
M  V30 1092 O 109.571 1.25591 1.28945 0
M  V30 1093 H 105.946 0.683048 0.314562 0
M  V30 1094 H 107.917 2.95415 0.421047 0
M  V30 1095 C 106.666 2.70892 2.17975 0
M  V30 1096 H 105.989 3.5246 1.88711 0
M  V30 1097 H 107.429 3.13803 2.85138 0
M  V30 1098 C 105.888 1.65414 2.93496 0
M  V30 1099 O 106.418 1.07619 3.87015 0
M  V30 1100 N 104.624 1.36564 2.56512 0
M  V30 1101 H 104.171 1.83751 1.80536 0
M  V30 1102 H 104.129 0.66223 3.07347 0
M  V30 1103 N 107.901 -0.206675 1.56239 0
M  V30 1104 C 109.149 -0.927007 1.79586 0
M  V30 1105 C 109.47 -1.8427 0.637929 0
M  V30 1106 O 108.74 -1.92849 -0.344398 0
M  V30 1107 H 107.32 -0.345292 0.662407 0
M  V30 1108 H 109.982 -0.21496 1.93711 0
M  V30 1109 H 109.078 -1.52501 2.72305 0
M  V30 1110 N 109.379 -1.50304 -0.473955 0
M  V30 1111 C 110.625 -1.61389 -1.22806 0
M  V30 1112 C 110.958 -0.311955 -1.91678 0
M  V30 1113 O 110.233 0.686384 -1.81986 0
M  V30 1114 C 110.516 -2.79219 -2.27396 0
M  V30 1115 C 110.369 -4.19286 -1.62848 0
M  V30 1116 C 111.688 -2.92614 -3.28732 0
M  V30 1117 H 108.807 -0.587399 -0.445119 0
M  V30 1118 H 111.449 -1.82681 -0.522265 0
M  V30 1119 H 109.599 -2.61195 -2.87592 0
M  V30 1120 H 111.271 -4.48892 -1.06271 0
M  V30 1121 H 109.514 -4.23677 -0.931693 0
M  V30 1122 H 110.185 -4.97655 -2.38838 0
M  V30 1123 H 112.661 -3.09105 -2.78556 0
M  V30 1124 H 111.537 -3.76688 -3.99246 0
M  V30 1125 H 111.798 -2.03107 -3.92683 0
M  V30 1126 N 110.857 0.726932 -1.39834 0
M  V30 1127 C 111.82 1.82269 -1.38962 0
M  V30 1128 C 112.82 1.58248 -0.285334 0
M  V30 1129 O 114.01 1.65499 -0.54366 0
M  V30 1130 C 111.142 3.20186 -1.17019 0
M  V30 1131 H 112.335 1.84443 -2.36476 0
M  V30 1132 H 109.888 0.931416 -1.25516 0
M  V30 1133 H 110.623 3.23669 -0.202204 0
M  V30 1134 H 110.408 3.3902 -1.96998 0
M  V30 1135 H 111.898 4.00235 -1.1917 0
M  V30 1136 N 112.336 1.25143 0.95797 0
M  V30 1137 C 113.584 1.09476 1.69881 0
M  V30 1138 C 113.905 -0.365502 1.91544 0
M  V30 1139 O 113.175 -1.25985 1.50015 0
M  V30 1140 H 111.755 0.402128 0.629525 0
M  V30 1141 H 114.417 1.57214 1.15194 0
M  V30 1142 H 113.513 1.60046 2.6794 0
M  V30 1143 N 113.814 -1.1601 1.06675 0
M  V30 1144 C 115.063 -1.85973 0.780818 0
M  V30 1145 C 115.376 -1.82819 -0.695444 0
M  V30 1146 O 116.582 -2.484 -1.09589 0
M  V30 1147 C 115.038 -3.33757 1.34665 0
M  V30 1148 C 114.646 -3.45374 2.85343 0
M  V30 1149 C 116.39 -4.0895 1.13843 0
M  V30 1150 C 114.297 -4.87266 3.35151 0
M  V30 1151 H 113.227 -0.696661 0.288407 0
M  V30 1152 H 115.878 -1.30903 1.28595 0
M  V30 1153 H 114.26 -3.88456 0.769274 0
M  V30 1154 H 115.434 -3.00816 3.49065 0
M  V30 1155 H 113.749 -2.83619 3.04876 0
M  V30 1156 H 116.346 -5.13654 1.4854 0
M  V30 1157 H 116.689 -4.16229 0.0770282 0
M  V30 1158 H 117.222 -3.605 1.68179 0
M  V30 1159 H 113.961 -4.85168 4.40786 0
M  V30 1160 H 113.481 -5.32433 2.76179 0
M  V30 1161 H 115.16 -5.56097 3.30704 0
M  V30 1162 N 115.292 -0.849877 -1.32721 0
M  V30 1163 C 116.708 -0.539102 -1.50219 0
M  V30 1164 C 116.908 0.931271 -1.78689 0
M  V30 1165 O 115.964 1.71455 -1.85363 0
M  V30 1166 C 117.277 -1.42196 -2.64954 0
M  V30 1167 C 118.825 -1.42189 -2.78839 0
M  V30 1168 C 119.3 -2.28985 -3.96648 0
M  V30 1169 N 120.791 -2.26754 -4.03902 0
M  V30 1170 C 121.526 -2.90644 -4.94281 0
M  V30 1171 N 121.022 -3.63629 -5.897 0
M  V30 1172 N 122.815 -2.80057 -4.87365 0
M  V30 1173 H 114.966 -1.80156 -1.12506 0
M  V30 1174 H 117.229 -0.769217 -0.554085 0
M  V30 1175 H 116.935 -2.46733 -2.50631 0
M  V30 1176 H 116.809 -1.10591 -3.60624 0
M  V30 1177 H 119.196 -0.38419 -2.92588 0
M  V30 1178 H 119.277 -1.77807 -1.83898 0
M  V30 1179 H 118.921 -3.32819 -3.83658 0
M  V30 1180 H 118.851 -1.90702 -4.90857 0
M  V30 1181 H 121.342 -1.73688 -3.3562 0
M  V30 1182 H 121.655 -4.09558 -6.55349 0
M  V30 1183 H 120 -3.67737 -5.89741 0
M  V30 1184 H 123.191 -2.22593 -4.11789 0
M  V30 1185 H 123.364 -3.30132 -5.57599 0
M  V30 1186 N 116.77 1.45427 -0.607355 0
M  V30 1187 C 118.047 1.9557 -0.0344566 0
M  V30 1188 C 118.427 1.54979 1.43334 0
M  V30 1189 O 117.775 0.812241 2.13576 0
M  V30 1190 C 117.985 3.48226 -0.232321 0
M  V30 1191 C 119.333 4.2445 -0.113001 0
M  V30 1192 O 120.357 3.55829 -0.162431 0
M  V30 1193 O 119.216 5.465 0.00209442 0
M  V30 1194 H 116.31 0.826222 0.0358667 0
M  V30 1195 H 118.856 1.55594 -0.6774 0
M  V30 1196 H 117.628 3.70739 -1.25174 0
M  V30 1197 H 117.251 3.95092 0.445896 0
M  V30 1198 N 118.248 0.346503 1.53744 0
M  V30 1199 C 119.198 -0.524953 2.21874 0
M  V30 1200 C 120.182 -1.06376 1.20718 0
M  V30 1201 O 121.374 -0.996972 1.46251 0
M  V30 1202 C 118.503 -1.6739 2.99726 0
M  V30 1203 C 117.589 -1.14888 4.08242 0
M  V30 1204 N 117.98 -0.345329 5.0462 0
M  V30 1205 C 116.278 -1.4255 4.22606 0
M  V30 1206 C 116.979 -0.0600706 5.81669 0
M  V30 1207 N 115.955 -0.65252 5.39669 0
M  V30 1208 H 119.757 0.0960091 2.93743 0
M  V30 1209 H 117.271 0.15352 1.61673 0
M  V30 1210 H 119.268 -2.3102 3.47038 0
M  V30 1211 H 117.928 -2.29811 2.29384 0
M  V30 1212 H 118.939 0.0138439 5.17898 0
M  V30 1213 H 115.616 -2.05389 3.63486 0
M  V30 1214 H 117.006 0.588321 6.69319 0
M  V30 1215 N 119.726 -1.57421 0.075193 0
M  V30 1216 C 120.973 -1.93618 -0.593146 0
M  V30 1217 C 121.301 -0.955484 -1.69413 0
M  V30 1218 O 120.556 0.0283251 -1.9568 0
M  V30 1219 C 120.855 -3.36428 -1.20626 0
M  V30 1220 C 120.521 -4.50307 -0.231078 0
M  V30 1221 C 119.183 -4.81186 0.0371936 0
M  V30 1222 C 121.535 -5.19374 0.435888 0
M  V30 1223 C 118.863 -5.78466 0.979461 0
M  V30 1224 C 121.215 -6.17665 1.3665 0
M  V30 1225 C 119.879 -6.46958 1.6432 0
M  V30 1226 H 119.149 -0.708499 -0.217047 0
M  V30 1227 H 121.796 -1.90937 0.146793 0
M  V30 1228 H 120.101 -3.35592 -2.02201 0
M  V30 1229 H 121.798 -3.61727 -1.73073 0
M  V30 1230 H 118.388 -4.26227 -0.450357 0
M  V30 1231 H 122.572 -4.95711 0.241748 0
M  V30 1232 H 117.828 -5.99487 1.20106 0
M  V30 1233 H 122.002 -6.70284 1.88924 0
M  V30 1234 H 119.629 -7.2215 2.37494 0
M  V30 1235 N 121.204 0.198386 -1.56346 0
M  V30 1236 C 122.62 0.549085 -1.49857 0
M  V30 1237 C 122.82 1.86016 -0.774611 0
M  V30 1238 O 121.876 2.50416 -0.323776 0
M  V30 1239 C 123.189 0.606868 -2.94512 0
M  V30 1240 C 124.737 0.695925 -3.05165 0
M  V30 1241 C 125.212 0.784848 -4.51225 0
M  V30 1242 N 126.703 0.848463 -4.55363 0
M  V30 1243 C 127.438 0.937378 -5.65686 0
M  V30 1244 N 126.934 0.9888 -6.85707 0
M  V30 1245 N 128.727 0.974312 -5.53592 0
M  V30 1246 H 120.878 -0.661655 -2.01831 0
M  V30 1247 H 123.141 -0.235261 -0.918344 0
M  V30 1248 H 122.847 -0.28732 -3.50524 0
M  V30 1249 H 122.721 1.46268 -3.47686 0
M  V30 1250 H 125.108 1.58055 -2.49204 0
M  V30 1251 H 125.189 -0.186022 -2.55123 0
M  V30 1252 H 124.833 -0.0954072 -5.0781 0
M  V30 1253 H 124.763 1.68255 -4.98997 0
M  V30 1254 H 127.254 0.818103 -3.68938 0
M  V30 1255 H 127.567 1.05707 -7.65536 0
M  V30 1256 H 125.912 0.957534 -6.88372 0
M  V30 1257 H 129.103 0.930954 -4.58749 0
M  V30 1258 H 129.276 1.04015 -6.39597 0
M  V30 1259 N 122.682 1.50554 0.465978 0
M  V30 1260 C 123.928 1.62038 1.21949 0
M  V30 1261 C 124.261 0.322116 1.9151 0
M  V30 1262 O 123.536 -0.676723 1.82348 0
M  V30 1263 C 123.819 2.80421 2.25912 0
M  V30 1264 C 123.672 4.20144 1.60622 0
M  V30 1265 C 124.991 2.94354 3.27176 0
M  V30 1266 H 122.11 0.589752 0.441998 0
M  V30 1267 H 124.752 1.82956 0.51257 0
M  V30 1268 H 122.902 2.62717 2.86203 0
M  V30 1269 H 124.574 4.49449 1.03889 0
M  V30 1270 H 122.817 4.24165 0.909211 0
M  V30 1271 H 123.488 4.98914 2.36196 0
M  V30 1272 H 125.964 3.10578 2.76913 0
M  V30 1273 H 124.84 3.788 3.97242 0
M  V30 1274 H 125.101 2.05186 3.916 0
M  V30 1275 N 124.16 -0.719506 1.40217 0
M  V30 1276 C 125.123 -1.8153 1.39927 0
M  V30 1277 C 126.123 -1.58095 0.293723 0
M  V30 1278 O 127.313 -1.65209 0.552429 0
M  V30 1279 C 124.445 -3.19561 1.18716 0
M  V30 1280 H 125.638 -1.83186 2.37451 0
M  V30 1281 H 123.191 -0.924746 1.26008 0
M  V30 1282 H 123.926 -3.23557 0.219366 0
M  V30 1283 H 123.711 -3.3797 1.98793 0
M  V30 1284 H 125.201 -3.99598 1.21291 0
M  V30 1285 N 125.638 -1.25649 -0.95132 0
M  V30 1286 C 126.601 -1.06399 -2.03007 0
M  V30 1287 C 127.601 -0.0156794 -1.60792 0
M  V30 1288 O 128.791 -0.25817 -1.72276 0
M  V30 1289 C 125.923 -0.616184 -3.35285 0
M  V30 1290 H 127.116 -2.02164 -2.21517 0
M  V30 1291 H 124.669 -1.08103 -1.12887 0
M  V30 1292 H 125.404 0.343917 -3.22471 0
M  V30 1293 H 125.189 -1.37301 -3.67275 0
M  V30 1294 H 126.679 -0.503032 -4.14559 0
M  V30 1295 N 127.117 1.15442 -1.07289 0
M  V30 1296 C 128.047 2.22312 -0.714107 0
M  V30 1297 C 129.028 1.67467 0.298155 0
M  V30 1298 O 130.213 1.93445 0.171048 0
M  V30 1299 C 127.343 3.47124 -0.110448 0
M  V30 1300 C 126.297 4.14926 -1.04979 0
M  V30 1301 C 125.623 5.33807 -0.308924 0
M  V30 1302 C 126.923 4.64762 -2.38314 0
M  V30 1303 H 128.617 2.5258 -1.6076 0
M  V30 1304 H 126.163 1.21404 -0.77441 0
M  V30 1305 H 128.116 4.21124 0.152482 0
M  V30 1306 H 126.84 3.16187 0.81812 0
M  V30 1307 H 125.499 3.42866 -1.29764 0
M  V30 1308 H 125.147 4.99126 0.623084 0
M  V30 1309 H 124.847 5.80113 -0.935036 0
M  V30 1310 H 126.371 6.10576 -0.0537771 0
M  V30 1311 H 127.785 5.30292 -2.1786 0
M  V30 1312 H 126.182 5.21728 -2.96514 0
M  V30 1313 H 127.252 3.80434 -3.00663 0
M  V30 1314 N 128.595 0.856903 1.32268 0
M  V30 1315 C 129.841 0.471355 1.97863 0
M  V30 1316 C 130.196 -0.962896 1.66572 0
M  V30 1317 O 129.489 -1.66686 0.944797 0
M  V30 1318 C 129.683 0.649919 3.51441 0
M  V30 1319 C 129.512 2.09997 3.97657 0
M  V30 1320 C 128.282 2.73893 4.2463 0
M  V30 1321 C 130.48 3.07081 4.1256 0
M  V30 1322 N 128.462 4.09786 4.57109 0
M  V30 1323 C 129.833 4.27968 4.48602 0
M  V30 1324 C 131.888 3.03247 3.949 0
M  V30 1325 C 130.591 5.45521 4.68827 0
M  V30 1326 C 132.617 4.20046 4.16311 0
M  V30 1327 C 131.979 5.39692 4.52672 0
M  V30 1328 H 128.078 0.221263 0.750044 0
M  V30 1329 H 130.662 1.10876 1.60045 0
M  V30 1330 H 128.833 0.0421938 3.88377 0
M  V30 1331 H 130.565 0.234044 4.04023 0
M  V30 1332 H 127.32 2.24918 4.16784 0
M  V30 1333 H 127.744 4.7989 4.7753 0
M  V30 1334 H 132.386 2.11863 3.65888 0
M  V30 1335 H 130.104 6.37434 4.96693 0
M  V30 1336 H 133.69 4.18517 4.04147 0
M  V30 1337 H 132.57 6.28566 4.68907 0
M  V30 1338 N 130.073 -1.45103 0.615059 0
M  V30 1339 C 131.319 -2.03035 0.121804 0
M  V30 1340 C 131.674 -1.47393 -1.23665 0
M  V30 1341 O 130.967 -0.642061 -1.80522 0
M  V30 1342 C 131.161 -3.57386 0.0318797 0
M  V30 1343 C 130.99 -4.28 1.38007 0
M  V30 1344 C 129.76 -4.65624 1.9627 0
M  V30 1345 C 131.958 -4.5948 2.31047 0
M  V30 1346 N 129.94 -5.21132 3.24492 0
M  V30 1347 C 131.311 -5.159 3.43872 0
M  V30 1348 C 133.366 -4.41423 2.30326 0
M  V30 1349 C 132.069 -5.56165 4.5615 0
M  V30 1350 C 134.095 -4.82726 3.41658 0
M  V30 1351 C 133.457 -5.39245 4.53205 0
M  V30 1352 H 129.556 -0.77702 0.0881159 0
M  V30 1353 H 132.14 -1.76819 0.815044 0
M  V30 1354 H 130.311 -3.83247 -0.630599 0
M  V30 1355 H 132.043 -4.01976 -0.468721 0
M  V30 1356 H 128.798 -4.49421 1.49392 0
M  V30 1357 H 129.222 -5.53377 3.90004 0
M  V30 1358 H 133.864 -3.97033 1.45343 0
M  V30 1359 H 131.582 -5.99517 5.41854 0
M  V30 1360 H 135.168 -4.7048 3.42257 0
M  V30 1361 H 134.048 -5.70616 5.37929 0
M  V30 1362 N 131.551 -0.354651 -1.53558 0
M  V30 1363 C 132.501 0.513179 -2.2215 0
M  V30 1364 C 133.485 1.05734 -1.21281 0
M  V30 1365 O 134.677 0.989202 -1.46778 0
M  V30 1366 C 131.806 1.65798 -3.00609 0
M  V30 1367 C 130.892 1.12722 -4.08845 0
M  V30 1368 N 131.283 0.318563 -5.04796 0
M  V30 1369 C 129.581 1.40307 -4.23356 0
M  V30 1370 C 130.282 0.0292224 -5.81693 0
M  V30 1371 N 129.258 0.623891 -5.40008 0
M  V30 1372 H 133.06 -0.111586 -2.93688 0
M  V30 1373 H 130.574 -0.162091 -1.61589 0
M  V30 1374 H 132.571 2.29176 -3.48258 0
M  V30 1375 H 131.231 2.28591 -2.306 0
M  V30 1376 H 132.242 -0.0413091 -5.17884 0
M  V30 1377 H 128.919 2.03458 -3.6457 0
M  V30 1378 H 130.309 -0.623808 -6.68998 0
M  V30 1379 N 133.029 1.57378 -0.0835403 0
M  V30 1380 C 133.961 2.10389 0.909338 0
M  V30 1381 C 134.974 1.03858 1.25369 0
M  V30 1382 O 136.163 1.31338 1.20882 0
M  V30 1383 C 133.263 2.55908 2.2218 0
M  V30 1384 C 132.436 3.86145 2.05453 0
M  V30 1385 C 131.495 4.17633 3.20108 0
M  V30 1386 O 130.521 4.87043 2.94581 0
M  V30 1387 N 131.723 3.72113 4.45547 0
M  V30 1388 H 134.488 2.962 0.456657 0
M  V30 1389 H 132.049 1.61579 0.101877 0
M  V30 1390 H 134.041 2.74027 2.97811 0
M  V30 1391 H 132.611 1.75171 2.58909 0
M  V30 1392 H 131.831 3.7729 1.1422 0
M  V30 1393 H 133.119 4.7137 1.91541 0
M  V30 1394 H 132.517 3.16062 4.69171 0
M  V30 1395 H 131.074 3.95409 5.18165 0
M  V30 1396 N 134.507 -0.190092 1.56449 0
M  V30 1397 C 135.44 -1.26375 1.90012 0
M  V30 1398 C 136.418 -1.43705 0.760765 0
M  V30 1399 O 137.602 -1.59014 1.01226 0
M  V30 1400 C 134.729 -2.62962 2.13468 0
M  V30 1401 C 133.775 -2.62474 3.36169 0
M  V30 1402 S 134.608 -2.13412 4.91137 0
M  V30 1403 C 135.764 -3.51812 5.17667 0
M  V30 1404 H 135.997 -0.977181 2.80782 0
M  V30 1405 H 133.53 -0.393814 1.49293 0
M  V30 1406 H 135.488 -3.41583 2.27664 0
M  V30 1407 H 134.149 -2.88828 1.23439 0
M  V30 1408 H 133.342 -3.62918 3.49723 0
M  V30 1409 H 132.944 -1.91937 3.20992 0
M  V30 1410 H 135.236 -4.47706 5.08494 0
M  V30 1411 H 136.179 -3.43148 6.19399 0
M  V30 1412 H 136.587 -3.46956 4.45288 0
M  V30 1413 N 135.985 -1.50799 -0.457987 0
M  V30 1414 C 137.234 -1.6168 -1.20593 0
M  V30 1415 C 137.547 -0.32888 -1.92815 0
M  V30 1416 O 138.753 -0.316773 -2.69646 0
M  V30 1417 C 137.209 -2.8545 -2.19195 0
M  V30 1418 C 136.817 -4.21168 -1.52715 0
M  V30 1419 C 138.561 -3.05681 -2.94549 0
M  V30 1420 C 136.468 -5.3611 -2.4968 0
M  V30 1421 H 135.398 -0.602134 -0.453818 0
M  V30 1422 H 138.049 -1.77245 -0.475031 0
M  V30 1423 H 136.431 -2.63472 -2.95632 0
M  V30 1424 H 137.605 -4.53449 -0.819775 0
M  V30 1425 H 135.92 -4.06648 -0.895922 0
M  V30 1426 H 138.517 -3.88727 -3.67145 0
M  V30 1427 H 138.86 -2.17929 -3.54701 0
M  V30 1428 H 139.393 -3.27901 -2.25223 0
M  V30 1429 H 136.132 -6.26057 -1.94249 0
M  V30 1430 H 135.652 -5.0823 -3.18532 0
M  V30 1431 H 137.331 -5.6722 -3.11241 0
M  V30 1432 N 137.463 0.71206 -1.40597 0
M  V30 1433 C 138.413 1.81783 -1.37619 0
M  V30 1434 C 139.397 1.58896 -0.253162 0
M  V30 1435 O 140.589 1.70009 -0.492547 0
M  V30 1436 C 137.718 3.19944 -1.24462 0
M  V30 1437 C 136.804 3.48582 -2.4156 0
M  V30 1438 N 137.195 3.48016 -3.67041 0
M  V30 1439 C 135.493 3.79056 -2.35016 0
M  V30 1440 C 136.194 3.75096 -4.44609 0
M  V30 1441 N 135.17 3.94022 -3.74497 0
M  V30 1442 H 138.972 1.79683 -2.32575 0
M  V30 1443 H 136.486 0.91134 -1.34419 0
M  V30 1444 H 138.483 3.99133 -1.20411 0
M  V30 1445 H 137.143 3.23267 -0.304762 0
M  V30 1446 H 138.154 3.28782 -4.00153 0
M  V30 1447 H 134.831 3.89848 -1.49415 0
M  V30 1448 H 136.221 3.80934 -5.53479 0
M  V30 1449 N 138.941 1.26152 0.944643 0
M  V30 1450 C 139.888 1.07408 2.04285 0
M  V30 1451 C 140.858 -0.0198413 1.66088 0
M  V30 1452 O 142.043 0.139264 1.90291 0
M  V30 1453 C 139.183 0.70945 3.37729 0
M  V30 1454 C 138.296 1.87926 3.88983 0
M  V30 1455 C 137.431 1.45807 5.10797 0
M  V30 1456 C 136.47 2.5964 5.54305 0
M  V30 1457 N 135.607 2.18226 6.67324 0
M  V30 1458 H 140.447 2.01389 2.1965 0
M  V30 1459 H 137.984 1.00275 1.07626 0
M  V30 1460 H 139.942 0.478948 4.14442 0
M  V30 1461 H 138.572 -0.193389 3.2222 0
M  V30 1462 H 137.624 2.22279 3.08701 0
M  V30 1463 H 138.936 2.73377 4.17213 0
M  V30 1464 H 138.09 1.18781 5.94959 0
M  V30 1465 H 136.829 0.574414 4.84305 0
M  V30 1466 H 135.834 2.87399 4.68702 0
M  V30 1467 H 137.059 3.48599 5.828 0
M  V30 1468 H 135.005 1.3229 6.42523 0
M  V30 1469 H 134.922 2.97221 6.95123 0
M  V30 1470 H 136.19 1.94403 7.54869 0
M  V30 1471 N 140.419 -1.14872 1.07899 0
M  V30 1472 C 141.668 -1.85135 0.800499 0
M  V30 1473 C 141.981 -1.83547 -0.676014 0
M  V30 1474 O 143.187 -2.49548 -1.06948 0
M  V30 1475 C 141.643 -3.3231 1.38197 0
M  V30 1476 C 141.251 -3.42329 2.8899 0
M  V30 1477 C 142.995 -4.0772 1.18174 0
M  V30 1478 C 140.902 -4.83684 3.403 0
M  V30 1479 H 139.832 -0.693563 0.29578 0
M  V30 1480 H 142.483 -1.29532 1.29976 0
M  V30 1481 H 140.865 -3.87618 0.810431 0
M  V30 1482 H 142.039 -2.97097 3.52236 0
M  V30 1483 H 140.354 -2.80369 3.07867 0
M  V30 1484 H 142.951 -5.12049 1.5398 0
M  V30 1485 H 143.294 -4.16124 0.12117 0
M  V30 1486 H 143.827 -3.58696 1.71994 0
M  V30 1487 H 140.566 -4.80465 4.45907 0
M  V30 1488 H 140.086 -5.29474 2.81811 0
M  V30 1489 H 141.765 -5.52558 3.36584 0
M  V30 1490 N 141.898 -0.863906 -1.31812 0
M  V30 1491 C 143.147 -0.46801 -1.96195 0
M  V30 1492 C 143.46 0.983474 -1.69077 0
M  V30 1493 O 144.666 1.48523 -2.27273 0
M  V30 1494 C 143.122 -0.785995 -3.51212 0
M  V30 1495 C 142.73 -2.25383 -3.87178 0
M  V30 1496 C 144.474 -0.458274 -4.22019 0
M  V30 1497 C 142.381 -2.51455 -5.3528 0
M  V30 1498 H 141.311 -0.171283 -0.734287 0
M  V30 1499 H 143.962 -1.05597 -1.50072 0
M  V30 1500 H 142.344 -0.127359 -3.95795 0
M  V30 1501 H 143.518 -2.95502 -3.53575 0
M  V30 1502 H 141.833 -2.54698 -3.2942 0
M  V30 1503 H 144.43 -0.630369 -5.30971 0
M  V30 1504 H 144.773 0.600834 -4.11941 0
M  V30 1505 H 145.306 -1.07319 -3.8305 0
M  V30 1506 H 142.045 -3.56025 -5.50387 0
M  V30 1507 H 141.565 -1.85923 -5.70257 0
M  V30 1508 H 143.244 -2.35874 -6.02472 0
M  V30 1509 N 143.376 1.44774 -0.622745 0
M  V30 1510 C 144.792 1.56986 -0.287652 0
M  V30 1511 C 144.992 1.61167 1.20944 0
M  V30 1512 O 144.048 1.55015 1.99315 0
M  V30 1513 C 145.361 2.84551 -0.972188 0
M  V30 1514 C 146.909 2.9825 -0.949536 0
M  V30 1515 C 147.384 4.28605 -1.61437 0
M  V30 1516 N 148.875 4.35399 -1.58057 0
M  V30 1517 C 149.61 5.34964 -2.064 0
M  V30 1518 N 149.106 6.40981 -2.62897 0
M  V30 1519 N 150.899 5.26419 -1.97078 0
M  V30 1520 H 143.05 1.40304 -1.59463 0
M  V30 1521 H 145.313 0.671794 -0.668878 0
M  V30 1522 H 145.019 2.87417 -2.02693 0
M  V30 1523 H 144.893 3.73807 -0.504771 0
M  V30 1524 H 147.28 2.94941 0.0967067 0
M  V30 1525 H 147.361 2.10364 -1.45536 0
M  V30 1526 H 147.005 4.32672 -2.66002 0
M  V30 1527 H 146.935 5.15334 -1.08344 0
M  V30 1528 H 149.426 3.59397 -1.16801 0
M  V30 1529 H 149.739 7.13225 -2.97539 0
M  V30 1530 H 148.084 6.4169 -2.66943 0
M  V30 1531 H 151.275 4.42504 -1.52669 0
M  V30 1532 H 151.448 6.03861 -2.35066 0
M  V30 1533 N 144.854 0.36279 1.53368 0
M  V30 1534 C 146.1 -0.228113 2.01513 0
M  V30 1535 C 146.433 -1.48648 1.2497 0
M  V30 1536 O 145.708 -1.91459 0.342616 0
M  V30 1537 C 145.991 -0.522884 3.56284 0
M  V30 1538 C 145.844 0.74892 4.43521 0
M  V30 1539 C 147.163 -1.32461 4.19693 0
M  V30 1540 H 144.282 -0.0814343 0.732487 0
M  V30 1541 H 146.924 0.48713 1.83649 0
M  V30 1542 H 145.074 -1.1322 3.71636 0
M  V30 1543 H 146.746 1.38648 4.39971 0
M  V30 1544 H 144.989 1.36986 4.11603 0
M  V30 1545 H 145.66 0.497667 5.49752 0
M  V30 1546 H 148.136 -0.809203 4.08156 0
M  V30 1547 H 147.012 -1.49961 5.28018 0
M  V30 1548 H 147.273 -2.33232 3.75573 0
M  V30 1549 N 146.332 -1.57332 0.0918853 0
M  V30 1550 C 147.279 -2.13847 -0.868211 0
M  V30 1551 C 148.249 -1.05618 -1.28196 0
M  V30 1552 O 149.434 -1.33387 -1.36427 0
M  V30 1553 C 146.574 -2.72062 -2.12312 0
M  V30 1554 C 145.687 -3.94514 -1.7602 0
M  V30 1555 C 144.822 -4.40903 -2.96273 0
M  V30 1556 C 143.861 -5.55953 -2.56092 0
M  V30 1557 N 142.998 -5.97209 -3.69169 0
M  V30 1558 H 147.838 -2.95575 -0.379406 0
M  V30 1559 H 145.375 -1.46048 -0.175606 0
M  V30 1560 H 147.333 -3.03931 -2.858 0
M  V30 1561 H 145.963 -1.93068 -2.58698 0
M  V30 1562 H 145.015 -3.68979 -0.925135 0
M  V30 1563 H 146.327 -4.7802 -1.42472 0
M  V30 1564 H 145.481 -4.74539 -3.78018 0
M  V30 1565 H 144.22 -3.56291 -3.33029 0
M  V30 1566 H 143.225 -5.21948 -1.72773 0
M  V30 1567 H 144.45 -6.42311 -2.20484 0
M  V30 1568 H 142.396 -5.15543 -4.05649 0
M  V30 1569 H 142.313 -6.75504 -3.39456 0
M  V30 1570 H 143.581 -6.35475 -4.51434 0
M  V30 1571 N 147.81 0.181792 -1.56548 0
M  V30 1572 C 149.226 0.53316 -1.50431 0
M  V30 1573 C 149.426 1.85184 -0.794297 0
M  V30 1574 O 148.482 2.50058 -0.350318 0
M  V30 1575 C 149.795 0.575597 -2.9514 0
M  V30 1576 C 151.343 0.663519 -3.05886 0
M  V30 1577 C 151.818 0.736946 -4.52032 0
M  V30 1578 N 153.309 0.800118 -4.56237 0
M  V30 1579 C 154.044 0.877327 -5.66649 0
M  V30 1580 N 153.54 0.916016 -6.86718 0
M  V30 1581 N 155.333 0.915542 -5.54594 0
M  V30 1582 H 147.484 -0.683025 -2.01118 0
M  V30 1583 H 149.747 -0.244988 -0.915797 0
M  V30 1584 H 149.453 -0.324482 -3.502 0
M  V30 1585 H 149.327 1.42572 -3.49218 0
M  V30 1586 H 151.714 1.55403 -2.50867 0
M  V30 1587 H 151.795 -0.21307 -2.54911 0
M  V30 1588 H 151.439 -0.149262 -5.07681 0
M  V30 1589 H 151.369 1.62953 -5.00753 0
M  V30 1590 H 153.86 0.778926 -3.69785 0
M  V30 1591 H 154.173 0.975813 -7.66614 0
M  V30 1592 H 152.518 0.884469 -6.89349 0
M  V30 1593 H 155.709 0.882245 -4.59711 0
M  V30 1594 H 155.882 0.972253 -6.40665 0
M  V30 1595 N 149.288 1.51039 0.449983 0
M  V30 1596 C 150.699 1.557 1.03026 0
M  V30 1597 C 151.05 0.372939 1.92623 0
M  V30 1598 O 150.175 -0.511771 2.10261 0
M  V30 1599 C 150.77 2.82171 1.87523 0
M  V30 1600 C 149.329 2.89444 2.40622 0
M  V30 1601 C 148.476 2.50228 1.19504 0
M  V30 1602 H 151.427 1.56999 0.231745 0
M  V30 1603 H 151.448 2.65219 2.72835 0
M  V30 1604 H 150.96 3.68331 1.22286 0
M  V30 1605 H 149.061 2.07685 3.0935 0
M  V30 1606 H 149.174 3.92816 2.74285 0
M  V30 1607 H 147.538 2.03139 1.53644 0
M  V30 1608 H 148.321 3.38719 0.558972 0
M  V30 1609 N 150.766 -0.704594 1.40972 0
M  V30 1610 C 152.012 -1.46675 1.40051 0
M  V30 1611 C 152.345 -1.94199 0.00641102 0
M  V30 1612 O 151.62 -1.68916 -0.964235 0
M  V30 1613 C 151.903 -2.68505 2.39952 0
M  V30 1614 C 151.756 -2.26805 3.88432 0
M  V30 1615 C 153.075 -3.70686 2.37233 0
M  V30 1616 H 150.194 -0.532015 0.510028 0
M  V30 1617 H 152.836 -0.803255 1.72185 0
M  V30 1618 H 150.986 -3.25114 2.1268 0
M  V30 1619 H 152.658 -1.75592 4.26574 0
M  V30 1620 H 150.901 -1.58685 4.03734 0
M  V30 1621 H 151.572 -3.14181 4.53866 0
M  V30 1622 H 154.048 -3.23731 2.61415 0
M  V30 1623 H 152.924 -4.53553 3.09162 0
M  V30 1624 H 153.185 -4.19754 1.38777 0
M  V30 1625 N 152.244 -1.26651 -0.937939 0
M  V30 1626 C 153.174 -1.10993 -2.05433 0
M  V30 1627 C 154.155 -0.0142161 -1.70094 0
M  V30 1628 O 155.34 -0.186837 -1.93299 0
M  V30 1629 C 152.47 -0.745561 -3.39203 0
M  V30 1630 C 151.424 -1.79337 -3.88616 0
M  V30 1631 C 150.75 -1.28324 -5.19073 0
M  V30 1632 C 152.05 -3.19553 -4.13138 0
M  V30 1633 H 153.744 -2.0438 -2.1879 0
M  V30 1634 H 151.29 -0.984041 -1.05131 0
M  V30 1635 H 153.243 -0.622888 -4.16771 0
M  V30 1636 H 151.967 0.22401 -3.25831 0
M  V30 1637 H 150.626 -1.90477 -3.13231 0
M  V30 1638 H 150.274 -0.303414 -5.02084 0
M  V30 1639 H 149.974 -1.98369 -5.53103 0
M  V30 1640 H 151.498 -1.1733 -5.99221 0
M  V30 1641 H 152.912 -3.11471 -4.81309 0
M  V30 1642 H 151.309 -3.87218 -4.58457 0
M  V30 1643 H 152.379 -3.65368 -3.18801 0
M  V30 1644 N 153.722 1.14298 -1.08507 0
M  V30 1645 C 154.685 2.17607 -0.719711 0
M  V30 1646 C 155.685 1.58907 0.245997 0
M  V30 1647 O 156.875 1.74181 0.0254081 0
M  V30 1648 C 154.007 3.40842 -0.0627695 0
M  V30 1649 H 155.2 2.51443 -1.63452 0
M  V30 1650 H 152.753 1.28963 -0.88307 0
M  V30 1651 H 153.488 3.12587 0.863716 0
M  V30 1652 H 153.273 3.84713 -0.757504 0
M  V30 1653 H 154.763 4.17221 0.177786 0
M  V30 1654 N 155.201 0.870884 1.31352 0
M  V30 1655 C 156.164 0.332243 2.26779 0
M  V30 1656 C 157.164 -0.517302 1.52252 0
M  V30 1657 O 158.354 -0.326477 1.71113 0
M  V30 1658 C 155.486 -0.528066 3.36785 0
M  V30 1659 H 156.679 1.17469 2.75937 0
M  V30 1660 H 154.232 0.64655 1.423 0
M  V30 1661 H 154.967 -1.39167 2.92922 0
M  V30 1662 H 154.752 0.0802582 3.92018 0
M  V30 1663 H 156.242 -0.897179 4.07849 0
M  V30 1664 N 156.679 -1.44442 0.630414 0
M  V30 1665 C 157.925 -2.02351 0.134816 0
M  V30 1666 C 158.258 -1.4947 -1.23986 0
M  V30 1667 O 157.533 -0.678475 -1.82283 0
M  V30 1668 C 157.816 -3.59898 0.120707 0
M  V30 1669 C 157.669 -4.23063 1.52767 0
M  V30 1670 C 158.988 -4.36585 -0.555127 0
M  V30 1671 H 156.107 -0.73527 0.0504646 0
M  V30 1672 H 158.749 -1.72022 0.806751 0
M  V30 1673 H 156.899 -3.85868 -0.451477 0
M  V30 1674 H 158.571 -4.08202 2.14869 0
M  V30 1675 H 156.814 -3.80586 2.08175 0
M  V30 1676 H 157.485 -5.32071 1.46984 0
M  V30 1677 H 159.961 -4.16044 -0.0685429 0
M  V30 1678 H 158.837 -5.46294 -0.534185 0
M  V30 1679 H 159.098 -4.11138 -1.62535 0
M  V30 1680 N 158.157 -0.370918 -1.53173 0
M  V30 1681 C 159.105 0.488101 -2.27421 0
M  V30 1682 C 160.099 1.07884 -1.30604 0
M  V30 1683 O 161.305 1.02143 -1.48212 0
M  V30 1684 H 157.68 0.176134 -0.731082 0
M  V30 1685 H 159.651 -0.159815 -2.97972 0
M  V30 1686 C 158.4 1.61306 -3.08019 0
M  V30 1687 H 157.723 1.1678 -3.82364 0
M  V30 1688 H 159.163 2.18872 -3.63141 0
M  V30 1689 C 157.622 2.55848 -2.19188 0
M  V30 1690 O 158.152 3.58799 -1.80626 0
M  V30 1691 N 156.358 2.2516 -1.83715 0
M  V30 1692 H 155.905 1.41476 -2.15273 0
M  V30 1693 H 155.863 2.8867 -1.24567 0
M  V30 1694 N 159.635 1.57281 -0.100228 0
M  V30 1695 C 160.883 1.94153 0.561157 0
M  V30 1696 C 161.204 0.983157 1.68401 0
M  V30 1697 O 160.474 0.0361132 1.95867 0
M  V30 1698 H 159.054 0.716791 0.210283 0
M  V30 1699 H 161.716 1.94202 -0.164765 0
M  V30 1700 H 160.812 2.96709 0.968008 0
M  V30 1701 N 161.113 -0.173488 1.56642 0
M  V30 1702 C 162.359 -0.891784 1.8214 0
M  V30 1703 C 162.692 -1.8199 0.677736 0
M  V30 1704 O 161.967 -1.91842 -0.320446 0
M  V30 1705 C 162.25 -1.68933 3.18015 0
M  V30 1706 C 162.103 -0.784487 4.42906 0
M  V30 1707 C 163.422 -2.65748 3.50808 0
M  V30 1708 H 160.541 -0.322761 0.662567 0
M  V30 1709 H 163.183 -0.158095 1.89341 0
M  V30 1710 H 161.333 -2.31482 3.12007 0
M  V30 1711 H 163.005 -0.172046 4.60979 0
M  V30 1712 H 161.248 -0.0924117 4.33702 0
M  V30 1713 H 161.919 -1.37799 5.34524 0
M  V30 1714 H 164.395 -2.13327 3.57255 0
M  V30 1715 H 163.271 -3.18619 4.4696 0
M  V30 1716 H 163.532 -3.45842 2.75401 0
M  V30 1717 N 162.591 -1.51276 -0.441967 0
M  V30 1718 C 163.554 -1.7167 -1.51862 0
M  V30 1719 C 164.554 -0.586793 -1.49711 0
M  V30 1720 O 165.744 -0.854276 -1.51815 0
M  V30 1721 C 162.876 -1.76889 -2.91416 0
M  V30 1722 H 164.069 -2.67754 -1.35084 0
M  V30 1723 H 161.622 -1.41196 -0.670333 0
M  V30 1724 H 162.357 -0.826026 -3.13604 0
M  V30 1725 H 162.142 -2.59001 -2.94382 0
M  V30 1726 H 163.632 -1.94522 -3.69528 0
M  V30 1727 N 164.069 0.697108 -1.41344 0
M  V30 1728 C 165.032 1.79281 -1.42797 0
M  V30 1729 C 166.032 1.57607 -0.318837 0
M  V30 1730 O 167.222 1.64309 -0.578642 0
M  V30 1731 C 164.354 3.17632 -1.23785 0
M  V30 1732 H 165.547 1.79385 -2.40335 0
M  V30 1733 H 163.1 0.904582 -1.27464 0
M  V30 1734 H 163.835 3.23167 -0.270814 0
M  V30 1735 H 163.62 3.34765 -2.04144 0
M  V30 1736 H 165.11 3.97617 -1.27633 0
M  V30 1737 N 165.547 1.27147 0.931209 0
M  V30 1738 C 166.795 1.13055 1.6752 0
M  V30 1739 C 167.116 -0.324791 1.92276 0
M  V30 1740 O 166.386 -1.22775 1.52654 0
M  V30 1741 H 164.966 0.415391 0.620854 0
M  V30 1742 H 167.628 1.59623 1.11833 0
M  V30 1743 H 166.724 1.65694 2.64485 0
M  V30 1744 N 167.025 -1.13721 1.09112 0
M  V30 1745 C 168.273 -1.84559 0.823562 0
M  V30 1746 C 168.594 -1.83754 -0.652658 0
M  V30 1747 O 167.864 -1.29102 -1.47342 0
M  V30 1748 H 166.444 -0.683376 0.301673 0
M  V30 1749 H 169.106 -1.37771 1.37859 0
M  V30 1750 H 168.202 -2.8917 1.17419 0
M  V30 1751 N 168.503 -0.877838 -1.30888 0
M  V30 1752 C 169.751 -0.491723 -1.96027 0
M  V30 1753 C 170.072 0.960827 -1.69685 0
M  V30 1754 O 169.342 1.67462 -1.01654 0
M  V30 1755 H 167.922 -0.17885 -0.725273 0
M  V30 1756 H 170.584 -1.11935 -1.59551 0
M  V30 1757 H 169.68 -0.656016 -3.05128 0
M  V30 1758 N 169.982 1.44106 -0.638065 0
M  V30 1759 C 170.912 2.33448 0.0494287 0
M  V30 1760 C 171.893 1.48606 0.827672 0
M  V30 1761 O 173.078 1.77308 0.792173 0
M  V30 1762 C 170.208 3.31771 1.02691 0
M  V30 1763 C 169.162 4.26485 0.359823 0
M  V30 1764 C 168.488 5.14729 1.44769 0
M  V30 1765 C 169.788 5.17056 -0.738296 0
M  V30 1766 H 171.482 2.91183 -0.696636 0
M  V30 1767 H 169.028 1.40014 -0.336456 0
M  V30 1768 H 170.981 3.93161 1.51666 0
M  V30 1769 H 169.705 2.7226 1.80395 0
M  V30 1770 H 168.364 3.66437 -0.10934 0
M  V30 1771 H 168.012 4.51566 2.21578 0
M  V30 1772 H 167.712 5.78913 1.00668 0
M  V30 1773 H 169.236 5.78991 1.93911 0
M  V30 1774 H 170.65 5.72342 -0.331354 0
M  V30 1775 H 169.047 5.89879 -1.10286 0
M  V30 1776 H 170.117 4.57652 -1.60258 0
M  V30 1777 N 171.46 0.379036 1.52974 0
M  V30 1778 C 172.708 -0.206014 2.01047 0
M  V30 1779 C 173.029 -1.48175 1.26765 0
M  V30 1780 O 172.299 -1.92085 0.384743 0
M  V30 1781 H 170.879 -0.0791184 0.742798 0
M  V30 1782 H 173.541 0.508366 1.88153 0
M  V30 1783 H 172.637 -0.423501 3.09213 0
M  V30 1784 N 172.938 -1.57226 0.108567 0
M  V30 1785 C 174.184 -1.95121 -0.552761 0
M  V30 1786 C 174.517 -0.991345 -1.66991 0
M  V30 1787 O 173.792 -0.0267211 -1.94482 0
M  V30 1788 C 174.075 -3.43039 -1.09528 0
M  V30 1789 C 173.928 -4.49797 0.0177332 0
M  V30 1790 C 175.247 -3.92567 -1.98945 0
M  V30 1791 H 172.366 -0.709496 -0.199461 0
M  V30 1792 H 175.008 -1.89126 0.182011 0
M  V30 1793 H 173.158 -3.48279 -1.72146 0
M  V30 1794 H 174.83 -4.56661 0.652584 0
M  V30 1795 H 173.073 -4.284 0.682309 0
M  V30 1796 H 173.744 -5.50528 -0.402919 0
M  V30 1797 H 176.22 -3.89565 -1.46214 0
M  V30 1798 H 175.096 -4.96605 -2.33827 0
M  V30 1799 H 175.357 -3.32648 -2.91201 0
M  V30 1800 N 174.416 0.165178 -1.56732 0
M  V30 1801 C 175.346 1.20651 -1.99914 0
M  V30 1802 C 176.327 1.45827 -0.875705 0
M  V30 1803 O 177.512 1.57057 -1.14223 0
M  V30 1804 C 174.642 2.54401 -2.36427 0
M  V30 1805 C 173.596 2.43782 -3.51787 0
M  V30 1806 C 172.922 3.82078 -3.7406 0
M  V30 1807 C 174.222 1.93732 -4.85041 0
M  V30 1808 H 175.916 0.847534 -2.87154 0
M  V30 1809 H 173.462 0.40625 -1.38151 0
M  V30 1810 H 175.415 3.27458 -2.65234 0
M  V30 1811 H 174.139 2.92098 -1.46103 0
M  V30 1812 H 172.798 1.73178 -3.23117 0
M  V30 1813 H 172.446 4.17179 -2.81017 0
M  V30 1814 H 172.146 3.7584 -4.51684 0
M  V30 1815 H 173.67 4.56712 -4.05274 0
M  V30 1816 H 175.084 2.56569 -5.12684 0
M  V30 1817 H 173.481 1.98428 -5.66345 0
M  V30 1818 H 174.551 0.891962 -4.76626 0
M  V30 1819 N 175.894 1.51508 0.433938 0
M  V30 1820 C 176.824 1.76016 1.53429 0
M  V30 1821 C 177.805 0.610112 1.58782 0
M  V30 1822 O 178.99 0.853177 1.74455 0
M  V30 1823 C 176.12 1.88831 2.9148 0
M  V30 1824 C 175.074 3.04288 3.00987 0
M  V30 1825 C 174.4 3.0229 4.4105 0
M  V30 1826 C 175.7 4.44193 2.74754 0
M  V30 1827 H 177.394 2.68152 1.33171 0
M  V30 1828 H 174.94 1.29035 0.639214 0
M  V30 1829 H 176.893 2.04559 3.6842 0
M  V30 1830 H 175.617 0.933455 3.12976 0
M  V30 1831 H 174.276 2.8827 2.26486 0
M  V30 1832 H 173.924 2.04576 4.59519 0
M  V30 1833 H 173.624 3.79822 4.4834 0
M  V30 1834 H 175.148 3.20116 5.1996 0
M  V30 1835 H 176.562 4.60544 3.41426 0
M  V30 1836 H 174.959 5.23457 2.9345 0
M  V30 1837 H 176.029 4.53996 1.70339 0
M  V30 1838 N 177.372 -0.689602 1.41712 0
M  V30 1839 C 178.335 -1.78521 1.43746 0
M  V30 1840 C 179.335 -1.57436 0.327191 0
M  V30 1841 O 180.525 -1.64 0.587348 0
M  V30 1842 C 177.657 -3.16971 1.25467 0
M  V30 1843 H 178.85 -1.78108 2.41283 0
M  V30 1844 H 176.403 -0.89781 1.27942 0
M  V30 1845 H 177.138 -3.23019 0.287948 0
M  V30 1846 H 176.923 -3.33678 2.05917 0
M  V30 1847 H 178.413 -3.96935 1.2974 0
M  V30 1848 N 178.85 -1.27639 -0.924453 0
M  V30 1849 C 180.075 -1.17101 -1.71179 0
M  V30 1850 C 180.5 0.268134 -1.86179 0
M  V30 1851 O 179.858 1.19415 -1.36418 0
M  V30 1852 C 179.906 -1.86313 -3.08739 0
M  V30 1853 O 179.01 -1.16331 -3.95652 0
M  V30 1854 H 178.351 -0.407091 -0.524569 0
M  V30 1855 H 180.881 -1.68767 -1.15666 0
M  V30 1856 H 180.891 -1.938 -3.59034 0
M  V30 1857 H 179.566 -2.91001 -2.97138 0
M  V30 1858 H 178.143 -1.16935 -3.54091 0
M  V30 1859 N 180.328 1.1314 -1.09713 0
M  V30 1860 C 181.605 1.80762 -0.747302 0
M  V30 1861 C 181.985 1.96663 0.767265 0
M  V30 1862 O 181.333 1.53706 1.69076 0
M  V30 1863 C 181.543 3.15606 -1.48975 0
M  V30 1864 C 182.891 3.90914 -1.65746 0
M  V30 1865 O 183.915 3.25239 -1.45251 0
M  V30 1866 O 182.774 5.08718 -1.9967 0
M  V30 1867 H 179.868 0.782103 -0.268782 0
M  V30 1868 H 182.414 1.20041 -1.19951 0
M  V30 1869 H 181.186 2.99278 -2.52088 0
M  V30 1870 H 180.809 3.84029 -1.02991 0
M  V30 1871 N 181.806 0.884767 1.30421 0
M  V30 1872 C 182.739 0.295999 2.26272 0
M  V30 1873 C 183.717 -0.58332 1.51777 0
M  V30 1874 O 184.901 -0.53346 1.80794 0
M  V30 1875 C 182.028 -0.57944 3.33707 0
M  V30 1876 C 181.074 0.230525 4.25877 0
M  V30 1877 S 181.907 1.61867 5.1045 0
M  V30 1878 C 183.063 0.749756 6.21393 0
M  V30 1879 H 183.296 1.10848 2.75862 0
M  V30 1880 H 180.829 0.684178 1.38414 0
M  V30 1881 H 182.787 -1.07879 3.96071 0
M  V30 1882 H 181.448 -1.36601 2.82841 0
M  V30 1883 H 180.641 -0.437542 5.02097 0
M  V30 1884 H 180.243 0.662493 3.68086 0
M  V30 1885 H 182.535 -0.0333547 6.77492 0
M  V30 1886 H 183.478 1.48356 6.92384 0
M  V30 1887 H 183.886 0.310751 5.63644 0
M  V30 1888 N 183.284 -1.43765 0.645699 0
M  V30 1889 C 184.247 -2.29163 -0.0409488 0
M  V30 1890 C 185.247 -1.41813 -0.757996 0
M  V30 1891 O 186.437 -1.63527 -0.600382 0
M  V30 1892 C 183.569 -3.23716 -1.06869 0
M  V30 1893 H 184.762 -2.91366 0.710345 0
M  V30 1894 H 182.315 -1.5092 0.406547 0
M  V30 1895 H 183.05 -2.66393 -1.84947 0
M  V30 1896 H 182.835 -3.88105 -0.558277 0
M  V30 1897 H 184.325 -3.87831 -1.54845 0
M  V30 1898 N 184.763 -0.387143 -1.52771 0
M  V30 1899 C 186.012 0.19697 -2.00736 0
M  V30 1900 C 186.325 1.48082 -1.27793 0
M  V30 1901 O 187.531 2.14485 -1.66458 0
M  V30 1902 C 185.987 0.401568 -3.57653 0
M  V30 1903 C 185.595 -0.868907 -4.39493 0
M  V30 1904 C 187.339 0.942164 -4.13912 0
M  V30 1905 C 185.246 -0.632705 -5.88006 0
M  V30 1906 H 184.176 0.0773827 -0.750019 0
M  V30 1907 H 186.827 -0.50921 -1.76293 0
M  V30 1908 H 185.209 1.16954 -3.78335 0
M  V30 1909 H 186.383 -1.64133 -4.30577 0
M  V30 1910 H 184.698 -1.33429 -3.94443 0
M  V30 1911 H 187.295 1.13455 -5.22525 0
M  V30 1912 H 187.638 1.9106 -3.69867 0
M  V30 1913 H 188.171 0.233814 -3.97112 0
M  V30 1914 H 184.91 -1.57208 -6.36369 0
M  V30 1915 H 184.43 0.100825 -5.99715 0
M  V30 1916 H 186.109 -0.26642 -6.46451 0
M  V30 1917 N 186.241 1.57166 -0.116904 0
M  V30 1918 C 187.481 1.97008 0.544715 0
M  V30 1919 C 187.845 0.998713 1.63981 0
M  V30 1920 O 189.046 1.28644 2.36018 0
M  V30 1921 C 187.317 3.41145 1.06559 0
M  V30 1922 S 188.876 4.02998 1.73603 0
M  V30 1923 H 185.694 0.688587 0.177112 0
M  V30 1924 H 188.296 1.94459 -0.201487 0
M  V30 1925 H 187 4.09592 0.257374 0
M  V30 1926 H 186.531 3.4734 1.84712 0
M  V30 1927 H 188.546 3.93585 3.02168 0
M  V30 1928 N 187.719 -0.156864 1.56817 0
M  V30 1929 C 188.944 -0.890331 1.87318 0
M  V30 1930 C 189.369 -1.74394 0.704855 0
M  V30 1931 O 188.727 -1.77972 -0.345786 0
M  V30 1932 C 188.775 -1.73102 3.16336 0
M  V30 1933 O 187.879 -2.83422 2.99576 0
M  V30 1934 H 187.22 -0.24857 0.615718 0
M  V30 1935 H 189.75 -0.150649 2.04045 0
M  V30 1936 H 189.76 -2.12803 3.48107 0
M  V30 1937 H 188.435 -1.10412 4.00976 0
M  V30 1938 H 187.012 -2.47199 2.7919 0
M  V30 1939 N 189.197 -1.51736 -0.425897 0
M  V30 1940 C 190.474 -1.55519 -1.1863 0
M  V30 1941 C 190.854 -0.326219 -2.08564 0
M  V30 1942 O 190.202 0.688012 -2.17896 0
M  V30 1943 C 190.412 -2.87521 -1.9782 0
M  V30 1944 C 191.76 -3.39899 -2.54468 0
M  V30 1945 O 192.784 -2.89148 -2.08019 0
M  V30 1946 O 191.643 -4.2848 -3.39215 0
M  V30 1947 H 188.737 -0.625739 -0.540721 0
M  V30 1948 H 191.283 -1.64055 -0.434038 0
M  V30 1949 H 190.055 -3.68422 -1.31836 0
M  V30 1950 H 189.678 -2.822 -2.80088 0
M  V30 1951 N 190.675 0.682077 -1.42076 0
M  V30 1952 C 191.623 1.81707 -1.45208 0
M  V30 1953 C 192.617 1.66183 -0.328591 0
M  V30 1954 O 193.823 1.7288 -0.501264 0
M  V30 1955 H 190.198 0.599014 -0.454628 0
M  V30 1956 H 192.169 1.76183 -2.40836 0
M  V30 1957 C 190.918 3.19816 -1.36428 0
M  V30 1958 H 190.241 3.32385 -2.22171 0
M  V30 1959 H 191.681 3.99272 -1.42681 0
M  V30 1960 C 190.14 3.36809 -0.078191 0
M  V30 1961 O 190.67 3.92124 0.87188 0
M  V30 1962 N 188.876 2.906 0.00229266 0
M  V30 1963 H 188.423 2.45772 -0.771616 0
M  V30 1964 H 188.381 3.02347 0.862179 0
M  V30 1965 N 192.153 1.28127 0.917671 0
M  V30 1966 C 193.116 1.11744 2.00115 0
M  V30 1967 C 194.116 0.0583052 1.60694 0
M  V30 1968 O 195.306 0.303755 1.71531 0
M  V30 1969 C 192.438 0.704862 3.33533 0
M  V30 1970 H 193.631 2.07966 2.16079 0
M  V30 1971 H 191.184 1.11058 1.09981 0
M  V30 1972 H 191.919 -0.258299 3.2327 0
M  V30 1973 H 191.704 1.4699 3.63505 0
M  V30 1974 H 193.194 0.612768 4.1308 0
M  V30 1975 N 193.631 -1.12557 1.10312 0
M  V30 1976 C 194.578 -2.18247 0.750781 0
M  V30 1977 C 195.548 -1.63853 -0.272293 0
M  V30 1978 O 196.733 -1.90195 -0.151862 0
M  V30 1979 C 193.873 -3.44591 0.187379 0
M  V30 1980 C 192.986 -4.13046 1.2656 0
M  V30 1981 C 192.121 -5.27034 0.663978 0
M  V30 1982 C 191.16 -5.87353 1.72287 0
M  V30 1983 N 190.297 -6.92757 1.1416 0
M  V30 1984 H 195.137 -2.47732 1.65628 0
M  V30 1985 H 192.674 -1.21629 0.827337 0
M  V30 1986 H 194.632 -4.16904 -0.157148 0
M  V30 1987 H 193.262 -3.15527 -0.681355 0
M  V30 1988 H 192.314 -3.38924 1.72727 0
M  V30 1989 H 193.626 -4.53947 2.06721 0
M  V30 1990 H 192.78 -6.06104 0.268824 0
M  V30 1991 H 191.519 -4.87407 -0.169082 0
M  V30 1992 H 190.524 -5.06971 2.12746 0
M  V30 1993 H 191.749 -6.29051 2.55875 0
M  V30 1994 H 189.695 -6.5517 0.329984 0
M  V30 1995 H 189.612 -7.3225 1.88007 0
M  V30 1996 H 190.88 -7.75658 0.772956 0
M  V30 1997 N 195.109 -0.891671 -1.2995 0
M  V30 1998 C 196.356 -0.513501 -1.95881 0
M  V30 1999 C 196.684 0.938655 -1.70351 0
M  V30 2000 O 195.939 1.67936 -1.00478 0
M  V30 2001 C 196.238 -0.742868 -3.49594 0
M  V30 2002 C 195.904 -2.17114 -3.95186 0
M  V30 2003 C 194.566 -2.56169 -4.07346 0
M  V30 2004 C 196.918 -3.10162 -4.18866 0
M  V30 2005 C 194.246 -3.87469 -4.4055 0
M  V30 2006 C 196.598 -4.41001 -4.53542 0
M  V30 2007 C 195.262 -4.79941 -4.63911 0
M  V30 2008 H 194.532 -0.187903 -0.71678 0
M  V30 2009 H 197.179 -1.1288 -1.54694 0
M  V30 2010 H 195.484 -0.044586 -3.91775 0
M  V30 2011 H 197.181 -0.429767 -3.9869 0
M  V30 2012 H 193.771 -1.85801 -3.86233 0
M  V30 2013 H 197.955 -2.81206 -4.08946 0
M  V30 2014 H 193.211 -4.17371 -4.46779 0
M  V30 2015 H 197.385 -5.13133 -4.70815 0
M  V30 2016 H 195.012 -5.81719 -4.89395 0
M  V30 2017 N 196.587 1.43421 -0.653314 0
M  V30 2018 C 197.833 2.02111 -0.166992 0
M  V30 2019 C 198.166 1.51423 1.21592 0
M  V30 2020 O 197.441 0.707389 1.8118 0
M  V30 2021 C 197.724 3.5966 -0.177948 0
M  V30 2022 C 197.577 4.20579 -1.59478 0
M  V30 2023 C 198.896 4.37413 0.4856 0
M  V30 2024 H 196.015 0.734374 -0.0621557 0
M  V30 2025 H 198.657 1.70717 -0.834016 0
M  V30 2026 H 196.807 3.86537 0.390032 0
M  V30 2027 H 198.479 4.04732 -2.21336 0
M  V30 2028 H 196.722 3.77226 -2.14204 0
M  V30 2029 H 197.393 5.29665 -1.5543 0
M  V30 2030 H 199.869 4.161 0.00234528 0
M  V30 2031 H 198.745 5.47075 0.447207 0
M  V30 2032 H 199.006 4.13672 1.55974 0
M  V30 2033 N 198.065 0.39524 1.52563 0
M  V30 2034 C 199.305 -0.184744 2.03563 0
M  V30 2035 C 199.669 -1.43548 1.27507 0
M  V30 2036 O 200.87 -2.093 1.68662 0
M  V30 2037 C 199.141 -0.440294 3.54678 0
M  V30 2038 S 200.7 -0.989712 4.27493 0
M  V30 2039 H 197.518 -0.0515075 0.709132 0
M  V30 2040 H 200.12 0.544957 1.87751 0
M  V30 2041 H 198.824 0.477005 4.07618 0
M  V30 2042 H 198.355 -1.19825 3.74707 0
M  V30 2043 H 200.37 -2.27155 4.41152 0
M  V30 2044 N 199.544 -1.57102 0.125237 0
M  V30 2045 C 200.507 -2.14471 -0.80838 0
M  V30 2046 C 201.507 -1.0811 -1.19033 0
M  V30 2047 O 202.697 -1.33856 -1.11482 0
M  V30 2048 C 199.829 -2.69005 -2.09402 0
M  V30 2049 H 201.022 -2.98297 -0.309696 0
M  V30 2050 H 198.575 -1.55807 -0.124051 0
M  V30 2051 H 199.31 -1.88785 -2.63687 0
M  V30 2052 H 199.095 -3.46799 -1.82957 0
M  V30 2053 H 200.585 -3.13278 -2.76128 0
M  V30 2054 N 201.022 0.148545 -1.56898 0
M  V30 2055 C 202.268 0.857877 -1.84424 0
M  V30 2056 C 202.623 1.7886 -0.709006 0
M  V30 2057 O 201.916 1.89344 0.293139 0
M  V30 2058 C 202.11 1.67064 -3.1595 0
M  V30 2059 C 201.939 0.82011 -4.42159 0
M  V30 2060 C 200.709 0.486328 -5.02954 0
M  V30 2061 C 202.907 0.151155 -5.14078 0
M  V30 2062 N 200.889 -0.377956 -6.12735 0
M  V30 2063 C 202.26 -0.573333 -6.17343 0
M  V30 2064 C 204.315 0.0716685 -4.97848 0
M  V30 2065 C 203.018 -1.3698 -7.06137 0
M  V30 2066 C 205.044 -0.711532 -5.87104 0
M  V30 2067 C 204.406 -1.42431 -6.8985 0
M  V30 2068 H 200.505 0.291798 -0.725519 0
M  V30 2069 H 203.089 0.123347 -1.94309 0
M  V30 2070 H 201.26 2.37642 -3.07215 0
M  V30 2071 H 202.992 2.32302 -3.31388 0
M  V30 2072 H 199.747 0.821753 -4.66416 0
M  V30 2073 H 200.171 -0.801077 -6.72244 0
M  V30 2074 H 204.813 0.608381 -4.184 0
M  V30 2075 H 202.531 -1.91778 -7.85014 0
M  V30 2076 H 206.117 -0.775005 -5.76615 0
M  V30 2077 H 204.997 -2.02061 -7.57721 0
M  V30 2078 N 202.5 1.5196 0.417844 0
M  V30 2079 C 203.45 1.7106 1.5074 0
M  V30 2080 C 204.434 0.564487 1.50673 0
M  V30 2081 O 205.626 0.821206 1.56797 0
M  V30 2082 C 202.755 1.85677 2.88754 0
M  V30 2083 C 201.841 3.06133 2.93502 0
M  V30 2084 N 202.232 4.28987 2.67962 0
M  V30 2085 C 200.53 3.05787 3.24669 0
M  V30 2086 C 201.231 5.10395 2.79055 0
M  V30 2087 N 200.207 4.45455 3.11561 0
M  V30 2088 H 204.009 2.63696 1.29775 0
M  V30 2089 H 201.523 1.49873 0.625436 0
M  V30 2090 H 203.52 1.97475 3.67164 0
M  V30 2091 H 202.18 0.942348 3.10725 0
M  V30 2092 H 203.191 4.57607 2.4252 0
M  V30 2093 H 199.868 2.2405 3.52289 0
M  V30 2094 H 201.258 6.18247 2.63097 0
M  V30 2095 N 203.978 -0.674533 1.42435 0
M  V30 2096 C 205.203 -1.46784 1.46524 0
M  V30 2097 C 205.628 -1.87938 0.078066 0
M  V30 2098 O 204.986 -1.56014 -0.92354 0
M  V30 2099 C 205.034 -2.69307 2.39805 0
M  V30 2100 O 204.138 -3.67587 1.86959 0
M  V30 2101 H 203.479 -0.440959 0.496439 0
M  V30 2102 H 206.009 -0.827326 1.87127 0
M  V30 2103 H 206.019 -3.17374 2.56393 0
M  V30 2104 H 204.694 -2.38692 3.40586 0
M  V30 2105 H 203.271 -3.2662 1.79927 0
M  V30 2106 N 205.456 -1.28612 -0.910864 0
M  V30 2107 C 206.705 -1.15311 -1.65488 0
M  V30 2108 C 207.018 0.296999 -1.93332 0
M  V30 2109 O 208.224 0.551168 -2.65847 0
M  V30 2110 C 206.68 -2.01599 -2.98137 0
M  V30 2111 C 206.288 -3.51367 -2.7793 0
M  V30 2112 C 208.032 -1.96993 -3.76024 0
M  V30 2113 C 205.939 -4.29797 -4.06237 0
M  V30 2114 H 204.869 -0.42796 -0.620779 0
M  V30 2115 H 207.52 -1.53166 -1.01057 0
M  V30 2116 H 205.902 -1.56603 -3.63719 0
M  V30 2117 H 207.076 -4.0434 -2.21011 0
M  V30 2118 H 205.391 -3.57529 -2.13452 0
M  V30 2119 H 207.988 -2.52856 -4.71135 0
M  V30 2120 H 208.331 -0.94733 -4.05378 0
M  V30 2121 H 208.864 -2.39973 -3.17266 0
M  V30 2122 H 205.603 -5.32648 -3.82055 0
M  V30 2123 H 205.123 -3.81596 -4.62757 0
M  V30 2124 H 206.802 -4.39869 -4.74473 0
M  V30 2125 N 206.934 1.1197 -1.10907 0
M  V30 2126 C 208.182 1.83225 -0.852819 0
M  V30 2127 C 208.503 1.84769 0.623341 0
M  V30 2128 O 207.773 1.3143 1.45269 0
M  V30 2129 H 206.353 0.67849 -0.312507 0
M  V30 2130 H 209.015 1.3556 -1.40033 0
M  V30 2131 H 208.111 2.87265 -1.22005 0
M  V30 2132 N 208.412 0.89855 1.29475 0
M  V30 2133 C 209.661 0.519863 1.94885 0
M  V30 2134 C 209.974 -0.9383 1.71625 0
M  V30 2135 O 211.18 -1.42445 2.31131 0
M  V30 2136 C 209.636 0.878836 3.49005 0
M  V30 2137 C 209.244 2.35569 3.81066 0
M  V30 2138 C 210.988 0.570004 4.20656 0
M  V30 2139 C 208.895 2.65558 5.28425 0
M  V30 2140 H 207.825 0.190692 0.729488 0
M  V30 2141 H 210.476 1.09539 1.47219 0
M  V30 2142 H 208.858 0.232253 3.95318 0
M  V30 2143 H 210.032 3.04773 3.45616 0
M  V30 2144 H 208.347 2.63343 3.22552 0
M  V30 2145 H 210.944 0.770925 5.29113 0
M  V30 2146 H 211.287 -0.491404 4.1339 0
M  V30 2147 H 211.82 1.17438 3.8007 0
M  V30 2148 H 208.559 3.70493 5.40754 0
M  V30 2149 H 208.079 2.00977 5.65127 0
M  V30 2150 H 209.758 2.51765 5.96006 0
M  V30 2151 N 209.89 -1.43072 0.660911 0
M  V30 2152 C 211.138 -2.01323 0.177094 0
M  V30 2153 C 211.459 -1.5245 -1.2159 0
M  V30 2154 O 210.729 -0.740322 -1.81373 0
M  V30 2155 H 209.309 -0.744382 0.0624804 0
M  V30 2156 H 211.971 -1.75179 0.854305 0
M  V30 2157 H 211.067 -3.11649 0.167641 0
M  V30 2158 N 211.368 -0.403325 -1.52352 0
M  V30 2159 C 212.316 0.439752 -2.28405 0
M  V30 2160 C 213.31 1.05089 -1.32863 0
M  V30 2161 O 214.516 0.989759 -1.50345 0
M  V30 2162 H 210.891 0.160587 -0.734653 0
M  V30 2163 H 212.862 -0.222983 -2.97566 0
M  V30 2164 C 211.611 1.54736 -3.11371 0
M  V30 2165 H 210.934 1.08643 -3.84755 0
M  V30 2166 H 212.374 2.1112 -3.67701 0
M  V30 2167 C 210.833 2.51141 -2.24566 0
M  V30 2168 O 211.363 3.54887 -1.88196 0
M  V30 2169 N 209.569 2.21213 -1.8845 0
M  V30 2170 H 209.116 1.36878 -2.18225 0
M  V30 2171 H 209.074 2.85963 -1.30662 0
M  V30 2172 N 212.846 1.57033 -0.133567 0
M  V30 2173 C 214.123 1.87256 0.56522 0
M  V30 2174 C 214.503 1.03726 1.83859 0
M  V30 2175 O 213.851 0.120247 2.28183 0
M  V30 2176 C 214.061 3.3865 0.843636 0
M  V30 2177 C 215.409 4.07574 1.19032 0
M  V30 2178 O 216.433 3.43752 0.933429 0
M  V30 2179 O 215.292 5.20259 1.67312 0
M  V30 2180 H 212.386 0.775678 0.286796 0
M  V30 2181 H 214.932 1.68855 -0.169168 0
M  V30 2182 H 213.704 3.91257 -0.0581149 0
M  V30 2183 H 213.327 3.62532 1.63268 0
M  V30 2184 N 214.325 -0.140222 1.56975 0
M  V30 2185 C 215.553 -0.866437 1.87884 0
M  V30 2186 C 215.968 -1.74428 0.722517 0
M  V30 2187 O 215.325 -1.79891 -0.30749 0
M  V30 2188 C 215.376 -1.71753 3.18093 0
M  V30 2189 O 215.097 -0.875056 4.29272 0
M  V30 2190 C 216.598 -2.55074 3.62563 0
M  V30 2191 H 213.818 -0.25019 0.622612 0
M  V30 2192 H 216.362 -0.130977 2.0408 0
M  V30 2193 H 214.517 -2.40598 3.03631 0
M  V30 2194 H 214.931 -1.46002 5.03769 0
M  V30 2195 H 216.405 -3.10356 4.5649 0
M  V30 2196 H 216.882 -3.31434 2.88181 0
M  V30 2197 H 217.488 -1.91509 3.79743 0
M  V30 2198 N 215.803 -1.52179 -0.40978 0
M  V30 2199 C 216.766 -1.74853 -1.48186 0
M  V30 2200 C 217.766 -0.618417 -1.48433 0
M  V30 2201 O 218.956 -0.886286 -1.49969 0
M  V30 2202 C 216.088 -1.8303 -2.87598 0
M  V30 2203 H 217.281 -2.70559 -1.29374 0
M  V30 2204 H 214.834 -1.42586 -0.640233 0
M  V30 2205 H 215.569 -0.89236 -3.11781 0
M  V30 2206 H 215.354 -2.65187 -2.88822 0
M  V30 2207 H 216.844 -2.02316 -3.65319 0
M  V30 2208 N 217.281 0.66697 -1.42791 0
M  V30 2209 C 218.509 1.45505 -1.47091 0
M  V30 2210 C 218.924 1.8861 -0.0845873 0
M  V30 2211 O 218.281 1.58632 0.90234 0
M  V30 2212 C 218.332 2.69906 -2.40485 0
M  V30 2213 O 218.053 2.28608 -3.73725 0
M  V30 2214 C 219.554 3.63396 -2.53886 0
M  V30 2215 H 216.774 0.447459 -0.500022 0
M  V30 2216 H 219.318 0.818866 -1.8739 0
M  V30 2217 H 217.473 3.29696 -2.03419 0
M  V30 2218 H 217.887 3.08997 -4.23817 0
M  V30 2219 H 219.361 4.47387 -3.2334 0
M  V30 2220 H 219.838 4.09824 -1.57927 0
M  V30 2221 H 220.444 3.09495 -2.91706 0
M  V30 2222 N 218.759 1.29093 0.90403 0
M  V30 2223 C 219.984 1.19809 1.69294 0
M  V30 2224 C 220.409 -0.238481 1.86582 0
M  V30 2225 O 219.767 -1.1723 1.383 0
M  V30 2226 C 219.815 1.91202 3.05736 0
M  V30 2227 O 218.919 1.22611 3.93752 0
M  V30 2228 H 218.26 0.415385 0.518027 0
M  V30 2229 H 220.79 1.70586 1.12967 0
M  V30 2230 H 220.8 1.99487 3.55906 0
M  V30 2231 H 219.475 2.95692 2.92471 0
M  V30 2232 H 218.052 1.22554 3.52186 0
M  V30 2233 N 220.237 -1.11381 1.11499 0
M  V30 2234 C 221.467 -1.86663 0.885464 0
M  V30 2235 C 221.875 -1.80464 -0.568281 0
M  V30 2236 O 221.218 -1.18445 -1.40415 0
M  V30 2237 C 221.28 -3.36337 1.26956 0
M  V30 2238 C 220.944 -3.66304 2.73259 0
M  V30 2239 C 221.941 -3.63733 3.71476 0
M  V30 2240 C 219.626 -3.9529 3.09921 0
M  V30 2241 C 221.62 -3.89725 5.04374 0
M  V30 2242 C 219.307 -4.20941 4.43004 0
M  V30 2243 C 220.305 -4.18147 5.40039 0
M  V30 2244 O 219.993 -4.43153 6.70724 0
M  V30 2245 H 219.725 -0.597114 0.316908 0
M  V30 2246 H 222.279 -1.41782 1.48617 0
M  V30 2247 H 220.509 -3.81826 0.611999 0
M  V30 2248 H 222.198 -3.92986 1.01573 0
M  V30 2249 H 222.964 -3.41389 3.44498 0
M  V30 2250 H 218.843 -3.966 2.35009 0
M  V30 2251 H 222.387 -3.8746 5.80104 0
M  V30 2252 H 218.284 -4.42761 4.69716 0
M  V30 2253 H 219.052 -4.60717 6.76522 0
M  V30 2254 N 221.715 -0.905404 -1.28997 0
M  V30 2255 C 222.94 -0.549175 -1.99997 0
M  V30 2256 C 223.365 0.860276 -1.67275 0
M  V30 2257 O 222.723 1.57355 -0.900502 0
M  V30 2258 C 222.771 -0.755185 -3.52604 0
M  V30 2259 O 221.875 0.189692 -4.11964 0
M  V30 2260 H 221.216 -0.213899 -0.628604 0
M  V30 2261 H 223.746 -1.21856 -1.64354 0
M  V30 2262 H 223.756 -0.662045 -4.02593 0
M  V30 2263 H 222.431 -1.78271 -3.75755 0
M  V30 2264 H 221.008 0.0485257 -3.72868 0
M  V30 2265 N 223.193 1.4272 -0.668489 0
M  V30 2266 C 224.123 2.335 -0.000100175 0
M  V30 2267 C 225.104 1.50328 0.795964 0
M  V30 2268 O 226.289 1.78949 0.754385 0
M  V30 2269 C 223.419 3.33874 0.956302 0
M  V30 2270 C 222.373 4.27152 0.269278 0
M  V30 2271 C 221.699 5.17684 1.33818 0
M  V30 2272 C 222.999 5.15373 -0.847805 0
M  V30 2273 H 224.693 2.89639 -0.758244 0
M  V30 2274 H 222.239 1.39269 -0.366079 0
M  V30 2275 H 224.192 3.9629 1.43292 0
M  V30 2276 H 222.916 2.76025 1.74579 0
M  V30 2277 H 221.575 3.66123 -0.187042 0
M  V30 2278 H 221.223 4.56165 2.1195 0
M  V30 2279 H 220.923 5.80918 0.883659 0
M  V30 2280 H 222.447 5.82974 1.81586 0
M  V30 2281 H 223.861 5.7151 -0.452681 0
M  V30 2282 H 222.258 5.87407 -1.22773 0
M  V30 2283 H 223.328 4.5415 -1.69929 0
M  V30 2284 N 224.671 0.411399 1.52136 0
M  V30 2285 C 225.899 -0.163076 2.06256 0
M  V30 2286 C 226.314 -1.3867 1.28125 0
M  V30 2287 O 225.671 -1.79423 0.333721 0
M  V30 2288 C 225.722 -0.511252 3.57867 0
M  V30 2289 O 225.443 0.66378 4.33042 0
M  V30 2290 C 226.944 -1.13921 4.28412 0
M  V30 2291 H 224.164 -0.0193897 0.67072 0
M  V30 2292 H 226.708 0.583007 1.96013 0
M  V30 2293 H 224.863 -1.20723 3.6811 0
M  V30 2294 H 225.277 0.372601 5.23175 0
M  V30 2295 H 226.751 -1.33302 5.35663 0
M  V30 2296 H 227.228 -2.11296 3.85033 0
M  V30 2297 H 227.834 -0.483373 4.22544 0
M  V30 2298 N 226.149 -1.5696 0.141893 0
M  V30 2299 C 227.565 -1.58151 -0.21456 0
M  V30 2300 C 227.765 -1.1559 -1.65049 0
M  V30 2301 O 226.821 -0.853832 -2.37626 0
M  V30 2302 C 228.134 -3.00674 0.0395576 0
M  V30 2303 C 229.682 -3.1299 -0.0245529 0
M  V30 2304 C 230.157 -4.57554 0.202167 0
M  V30 2305 N 231.648 -4.62961 0.148919 0
M  V30 2306 C 232.383 -5.7262 0.298924 0
M  V30 2307 N 231.879 -6.90947 0.50637 0
M  V30 2308 N 233.672 -5.61601 0.236886 0
M  V30 2309 H 225.823 -1.8292 1.07953 0
M  V30 2310 H 228.086 -0.846425 0.42693 0
M  V30 2311 H 227.792 -3.36183 1.03315 0
M  V30 2312 H 227.666 -3.70981 -0.682143 0
M  V30 2313 H 230.053 -2.77326 -1.00869 0
M  V30 2314 H 230.134 -2.4518 0.729396 0
M  V30 2315 H 229.778 -4.93922 1.18338 0
M  V30 2316 H 229.708 -5.23484 -0.572044 0
M  V30 2317 H 232.199 -3.77899 -0.00697015 0
M  V30 2318 H 232.512 -7.7038 0.611076 0
M  V30 2319 H 230.857 -6.92878 0.542628 0
M  V30 2320 H 234.048 -4.68039 0.0756209 0
M  V30 2321 H 234.221 -6.47015 0.357227 0
M  V30 2322 N 227.627 0.131896 -1.57047 0
M  V30 2323 C 228.59 1.14638 -1.98471 0
M  V30 2324 C 229.59 1.35029 -0.873148 0
M  V30 2325 O 230.78 1.31764 -1.13946 0
M  V30 2326 C 227.912 2.50358 -2.31373 0
M  V30 2327 H 229.105 0.79064 -2.8929 0
M  V30 2328 H 226.658 0.375761 -1.51716 0
M  V30 2329 H 227.393 2.90876 -1.43393 0
M  V30 2330 H 227.178 2.36915 -3.12432 0
M  V30 2331 H 228.668 3.23395 -2.64207 0
M  V30 2332 N 229.106 1.52395 0.401703 0
M  V30 2333 C 230.352 1.67065 1.14966 0
M  V30 2334 C 230.685 0.403052 1.89971 0
M  V30 2335 O 229.96 -0.598774 1.85054 0
M  V30 2336 C 230.243 2.8975 2.13815 0
M  V30 2337 C 230.096 4.26578 1.42658 0
M  V30 2338 C 231.415 3.07965 3.14397 0
M  V30 2339 H 228.534 0.607968 0.416587 0
M  V30 2340 H 231.176 1.84965 0.434511 0
M  V30 2341 H 229.326 2.74619 2.74803 0
M  V30 2342 H 230.998 4.53451 0.847329 0
M  V30 2343 H 229.241 4.27639 0.72849 0
M  V30 2344 H 229.912 5.08483 2.14823 0
M  V30 2345 H 232.388 3.22043 2.63491 0
M  V30 2346 H 231.264 3.95308 3.80819 0
M  V30 2347 H 231.525 2.21611 3.82545 0
M  V30 2348 N 230.584 -0.659388 1.43143 0
M  V30 2349 C 231.832 -1.41654 1.44147 0
M  V30 2350 C 232.153 -1.94893 0.0645739 0
M  V30 2351 O 231.423 -1.74044 -0.899198 0
M  V30 2352 H 230.003 -0.525708 0.530697 0
M  V30 2353 H 232.665 -0.778097 1.78694 0
M  V30 2354 H 231.761 -2.26195 2.1504 0
M  V30 2355 N 232.062 -1.29571 -0.897171 0
M  V30 2356 C 232.995 -1.0924 -2.00354 0
M  V30 2357 C 233.973 -0.00354011 -1.626 0
M  V30 2358 O 235.157 -0.15473 -1.87864 0
M  V30 2359 C 232.284 -0.66352 -3.32137 0
M  V30 2360 C 231.33 -1.75146 -3.88878 0
M  V30 2361 S 232.163 -3.35124 -4.17674 0
M  V30 2362 C 233.319 -2.9411 -5.52494 0
M  V30 2363 H 233.552 -2.02907 -2.17292 0
M  V30 2364 H 231.085 -1.13746 -1.04408 0
M  V30 2365 H 233.043 -0.422791 -4.08317 0
M  V30 2366 H 231.704 0.253588 -3.13075 0
M  V30 2367 H 230.897 -1.40337 -4.84068 0
M  V30 2368 H 230.499 -1.94584 -3.19395 0
M  V30 2369 H 232.791 -2.41312 -6.33068 0
M  V30 2370 H 233.734 -3.88161 -5.9223 0
M  V30 2371 H 234.142 -2.32332 -5.14473 0
M  V30 2372 N 233.54 1.10788 -1.12088 0
M  V30 2373 C 234.956 1.34691 -0.856186 0
M  V30 2374 C 235.156 1.94791 0.515615 0
M  V30 2375 O 234.212 2.18524 1.26505 0
M  V30 2376 C 235.525 2.27208 -1.9697 0
M  V30 2377 C 237.073 2.40755 -2.00016 0
M  V30 2378 C 237.548 3.36598 -3.1059 0
M  V30 2379 N 239.039 3.44164 -3.10008 0
M  V30 2380 C 239.774 4.18284 -3.92206 0
M  V30 2381 N 239.27 4.95322 -4.84384 0
M  V30 2382 N 241.063 4.13865 -3.80357 0
M  V30 2383 H 233.214 0.70144 -2.00483 0
M  V30 2384 H 235.477 0.371405 -0.872217 0
M  V30 2385 H 235.183 1.90251 -2.958 0
M  V30 2386 H 235.057 3.27485 -1.87172 0
M  V30 2387 H 237.444 2.76982 -1.01808 0
M  V30 2388 H 237.525 1.40305 -2.13888 0
M  V30 2389 H 237.169 3.01096 -4.09028 0
M  V30 2390 H 237.099 4.36918 -2.93956 0
M  V30 2391 H 239.59 2.8922 -2.43228 0
M  V30 2392 H 239.903 5.49267 -5.43623 0
M  V30 2393 H 238.248 4.94459 -4.884 0
M  V30 2394 H 241.439 3.52773 -3.07683 0
M  V30 2395 H 241.612 4.71372 -4.44649 0
M  V30 2396 N 235.018 0.912232 1.28515 0
M  V30 2397 C 236.434 0.610159 1.47476 0
M  V30 2398 C 236.634 -0.844955 1.82928 0
M  V30 2399 O 235.69 -1.62416 1.93332 0
M  V30 2400 C 237.003 1.54675 2.57868 0
M  V30 2401 C 238.551 1.55331 2.71738 0
M  V30 2402 C 239.026 2.47649 3.85272 0
M  V30 2403 N 240.517 2.45767 3.92623 0
M  V30 2404 C 241.252 3.13896 4.79851 0
M  V30 2405 N 240.748 3.9135 5.71679 0
M  V30 2406 N 242.541 3.02991 4.73448 0
M  V30 2407 H 234.692 1.85318 1.03783 0
M  V30 2408 H 236.955 0.794777 0.516753 0
M  V30 2409 H 236.661 2.5841 2.38574 0
M  V30 2410 H 236.535 1.27671 3.54937 0
M  V30 2411 H 238.922 0.52335 2.90422 0
M  V30 2412 H 239.003 1.86378 1.75205 0
M  V30 2413 H 238.647 3.50745 3.67342 0
M  V30 2414 H 238.577 2.13904 4.81199 0
M  V30 2415 H 241.068 1.89503 3.26951 0
M  V30 2416 H 241.381 4.40359 6.35062 0
M  V30 2417 H 239.726 3.95455 5.71524 0
M  V30 2418 H 242.917 2.41987 4.007 0
M  V30 2419 H 243.09 3.5636 5.41213 0
M  V30 2420 N 236.496 -1.42363 0.676048 0
M  V30 2421 C 237.459 -2.29199 0.00766941 0
M  V30 2422 C 238.459 -1.43389 -0.727745 0
M  V30 2423 O 239.649 -1.64764 -0.56556 0
M  V30 2424 C 236.781 -3.2591 -0.999785 0
M  V30 2425 H 237.974 -2.89794 0.771988 0
M  V30 2426 H 235.527 -1.50024 0.438468 0
M  V30 2427 H 236.262 -2.70256 -1.79255 0
M  V30 2428 H 236.047 -3.89202 -0.475829 0
M  V30 2429 H 237.537 -3.91028 -1.46583 0
M  V30 2430 N 237.974 -0.419461 -1.51915 0
M  V30 2431 C 238.907 0.445751 -2.23804 0
M  V30 2432 C 239.885 1.03951 -1.25031 0
M  V30 2433 O 241.069 1.08541 -1.54114 0
M  V30 2434 C 238.196 1.61964 -2.97465 0
M  V30 2435 C 237.242 1.14828 -4.10751 0
M  V30 2436 S 238.075 0.104938 -5.35397 0
M  V30 2437 C 239.231 1.28391 -6.1259 0
M  V30 2438 H 239.464 -0.164627 -2.96844 0
M  V30 2439 H 236.997 -0.203833 -1.53049 0
M  V30 2440 H 238.955 2.29271 -3.40507 0
M  V30 2441 H 237.616 2.20139 -2.24048 0
M  V30 2442 H 236.809 2.02561 -4.61503 0
M  V30 2443 H 236.411 0.553712 -3.69878 0
M  V30 2444 H 238.703 2.20563 -6.40592 0
M  V30 2445 H 239.646 0.816724 -7.03374 0
M  V30 2446 H 240.054 1.51439 -5.43807 0
M  V30 2447 N 239.452 1.56882 -0.150215 0
M  V30 2448 C 240.362 2.20494 0.801222 0
M  V30 2449 C 241.378 1.19019 1.26927 0
M  V30 2450 O 242.554 1.51607 1.32579 0
M  V30 2451 C 239.619 2.81659 2.02161 0
M  V30 2452 C 238.68 3.9827 1.60249 0
M  V30 2453 C 237.913 4.56508 2.7647 0
M  V30 2454 O 238.136 4.13627 3.92771 0
M  V30 2455 O 237.07 5.46719 2.51757 0
M  V30 2456 H 240.896 3.02315 0.289717 0
M  V30 2457 H 238.481 1.49202 0.0769684 0
M  V30 2458 H 240.363 3.20522 2.73576 0
M  V30 2459 H 239.038 2.02849 2.52258 0
M  V30 2460 H 237.945 3.64117 0.858477 0
M  V30 2461 H 239.278 4.78609 1.14864 0
M  V30 2462 N 240.93 -0.123565 1.57115 0
M  V30 2463 C 241.86 -1.15309 2.03042 0
M  V30 2464 C 242.841 -1.43454 0.914061 0
M  V30 2465 O 244.026 -1.53973 1.18347 0
M  V30 2466 C 241.156 -2.48043 2.43089 0
M  V30 2467 C 240.11 -2.3437 3.58127 0
M  V30 2468 C 239.436 -3.72026 3.84059 0
M  V30 2469 C 240.736 -1.80804 4.90007 0
M  V30 2470 H 242.43 -0.771102 2.893 0
M  V30 2471 H 239.976 -0.369479 1.39179 0
M  V30 2472 H 241.929 -3.20311 2.73823 0
M  V30 2473 H 240.653 -2.88122 1.53796 0
M  V30 2474 H 239.312 -1.64551 3.27595 0
M  V30 2475 H 238.96 -4.09582 2.91979 0
M  V30 2476 H 238.66 -3.63732 4.6149 0
M  V30 2477 H 240.184 -4.45806 4.1724 0
M  V30 2478 H 241.598 -2.42886 5.19307 0
M  V30 2479 H 239.995 -1.83343 5.71407 0
M  V30 2480 H 241.065 -0.76528 4.78823 0
M  V30 2481 N 242.408 -1.52605 -0.393616 0
M  V30 2482 C 243.341 -1.71798 -1.50202 0
M  V30 2483 C 244.319 -0.565743 -1.52441 0
M  V30 2484 O 245.503 -0.794987 -1.70916 0
M  V30 2485 C 242.63 -1.7714 -2.88685 0
M  V30 2486 C 241.676 -2.98845 -3.04292 0
M  V30 2487 S 242.509 -4.58909 -2.75976 0
M  V30 2488 C 243.665 -4.6706 -4.1666 0
M  V30 2489 H 243.898 -2.65542 -1.33696 0
M  V30 2490 H 241.431 -1.42839 -0.586195 0
M  V30 2491 H 243.389 -1.80903 -3.68489 0
M  V30 2492 H 242.05 -0.844969 -3.02521 0
M  V30 2493 H 241.243 -2.99111 -4.05646 0
M  V30 2494 H 240.845 -2.9305 -2.32374 0
M  V30 2495 H 243.137 -4.45391 -5.10523 0
M  V30 2496 H 244.08 -5.6905 -4.21412 0
M  V30 2497 H 244.488 -3.95944 -4.02354 0
M  V30 2498 N 243.887 0.651787 -1.4349 0
M  V30 2499 C 244.817 1.77621 -1.51569 0
M  V30 2500 C 245.798 1.66022 -0.370253 0
M  V30 2501 O 246.983 1.85095 -0.587658 0
M  V30 2502 C 244.113 3.16056 -1.43966 0
M  V30 2503 C 243.067 3.4242 -2.56774 0
M  V30 2504 C 242.393 4.8067 -2.34223 0
M  V30 2505 C 243.693 3.37023 -3.99015 0
M  V30 2506 H 245.387 1.71117 -2.45681 0
M  V30 2507 H 242.933 0.821825 -1.18246 0
M  V30 2508 H 244.886 3.94472 -1.48221 0
M  V30 2509 H 243.61 3.23293 -0.463586 0
M  V30 2510 H 242.269 2.66375 -2.51873 0
M  V30 2511 H 241.917 4.84585 -1.34856 0
M  V30 2512 H 241.617 4.9927 -3.09844 0
M  V30 2513 H 243.141 5.61342 -2.40265 0
M  V30 2514 H 244.555 4.05374 -4.05395 0
M  V30 2515 H 242.952 3.67159 -4.74673 0
M  V30 2516 H 244.022 2.3518 -4.2405 0
M  V30 2517 N 245.365 1.30045 0.890287 0
M  V30 2518 C 246.593 1.21472 1.67487 0
M  V30 2519 C 247.008 -0.223241 1.87476 0
M  V30 2520 O 246.365 -1.14828 1.41847 0
M  V30 2521 C 246.416 1.93394 3.05419 0
M  V30 2522 O 246.137 3.31576 2.86337 0
M  V30 2523 C 247.638 1.91414 3.99844 0
M  V30 2524 H 244.858 0.420604 0.522813 0
M  V30 2525 H 247.402 1.7158 1.11268 0
M  V30 2526 H 245.557 1.47099 3.58386 0
M  V30 2527 H 245.971 3.67929 3.73802 0
M  V30 2528 H 247.445 2.46285 4.94012 0
M  V30 2529 H 247.922 0.891833 4.3005 0
M  V30 2530 H 248.528 2.37496 3.52811 0
M  V30 2531 N 246.843 -1.10192 1.12674 0
M  V30 2532 C 247.791 -2.18694 0.792196 0
M  V30 2533 C 248.785 -1.67938 -0.222058 0
M  V30 2534 O 249.991 -1.79822 -0.0800074 0
M  V30 2535 H 246.366 -0.713223 0.238364 0
M  V30 2536 H 248.337 -2.44149 1.71564 0
M  V30 2537 C 247.086 -3.46682 0.265859 0
M  V30 2538 H 246.409 -3.86101 1.03761 0
M  V30 2539 H 247.849 -4.23942 0.0701128 0
M  V30 2540 C 246.308 -3.21506 -1.00675 0
M  V30 2541 O 246.838 -3.43408 -2.08408 0
M  V30 2542 N 245.044 -2.75158 -0.934692 0
M  V30 2543 H 244.591 -2.57535 -0.0578604 0
M  V30 2544 H 244.549 -2.58691 -1.7868 0
M  V30 2545 N 248.321 -0.919034 -1.28029 0
M  V30 2546 C 249.737 -0.617972 -1.4715 0
M  V30 2547 C 249.937 0.835242 -1.83374 0
M  V30 2548 O 248.993 1.61388 -1.94191 0
M  V30 2549 C 250.306 -1.56041 -2.57044 0
M  V30 2550 C 251.854 -1.56769 -2.7091 0
M  V30 2551 C 252.329 -2.49688 -3.83953 0
M  V30 2552 N 253.82 -2.47845 -3.91314 0
M  V30 2553 C 254.555 -3.16437 -4.78179 0
M  V30 2554 N 254.051 -3.94376 -5.69596 0
M  V30 2555 N 255.844 -3.05498 -4.71834 0
M  V30 2556 H 247.995 -1.85866 -1.02798 0
M  V30 2557 H 250.258 -0.797506 -0.512531 0
M  V30 2558 H 249.964 -2.59671 -2.372 0
M  V30 2559 H 249.838 -1.29551 -3.54255 0
M  V30 2560 H 252.225 -0.538745 -2.90141 0
M  V30 2561 H 252.306 -1.87305 -1.74214 0
M  V30 2562 H 251.95 -3.52688 -3.65477 0
M  V30 2563 H 251.88 -2.16453 -4.80058 0
M  V30 2564 H 254.371 -1.91234 -3.25941 0
M  V30 2565 H 254.684 -4.43721 -6.32718 0
M  V30 2566 H 253.029 -3.98481 -5.69419 0
M  V30 2567 H 256.22 -2.44108 -3.99411 0
M  V30 2568 H 256.393 -3.59225 -5.39316 0
M  V30 2569 N 249.799 1.42003 -0.683588 0
M  V30 2570 C 251.027 2.05746 -0.218182 0
M  V30 2571 C 251.442 1.51396 1.12804 0
M  V30 2572 O 250.799 0.657303 1.70252 0
M  V30 2573 C 250.85 3.61171 -0.154131 0
M  V30 2574 O 250.571 4.13508 -1.44716 0
M  V30 2575 C 252.072 4.42042 0.333713 0
M  V30 2576 H 249.292 0.662888 -0.10402 0
M  V30 2577 H 251.836 1.81987 -0.9328 0
M  V30 2578 H 249.991 3.84012 0.511231 0
M  V30 2579 H 250.405 5.07453 -1.32632 0
M  V30 2580 H 251.879 5.51028 0.327423 0
M  V30 2581 H 252.356 4.17269 1.37053 0
M  V30 2582 H 252.962 4.24239 -0.300222 0
M  V30 2583 N 251.277 0.427512 1.51691 0
M  V30 2584 C 252.207 -0.3796 2.30394 0
M  V30 2585 C 253.188 -1.02982 1.35384 0
M  V30 2586 O 254.373 -1.03534 1.643 0
M  V30 2587 C 251.503 -1.48649 3.1388 0
M  V30 2588 C 250.457 -0.960294 4.17088 0
M  V30 2589 C 249.783 -2.16219 4.89033 0
M  V30 2590 C 251.083 -0.00153679 5.223 0
M  V30 2591 H 252.777 0.277164 2.98114 0
M  V30 2592 H 250.323 0.134739 1.43368 0
M  V30 2593 H 252.276 -2.05826 3.67714 0
M  V30 2594 H 251 -2.1714 2.43962 0
M  V30 2595 H 249.659 -0.410806 3.64291 0
M  V30 2596 H 249.307 -2.83307 4.15628 0
M  V30 2597 H 249.007 -1.81654 5.58816 0
M  V30 2598 H 250.531 -2.73968 5.45687 0
M  V30 2599 H 251.945 -0.482687 5.71264 0
M  V30 2600 H 250.342 0.256199 5.99553 0
M  V30 2601 H 251.412 0.938174 4.75738 0
M  V30 2602 N 252.755 -1.56801 0.158532 0
M  V30 2603 C 253.687 -2.14488 -0.807923 0
M  V30 2604 C 254.7 -1.09721 -1.20271 0
M  V30 2605 O 255.889 -1.36956 -1.14478 0
M  V30 2606 C 252.989 -2.66217 -2.09718 0
M  V30 2607 C 252.162 -3.95507 -1.86796 0
M  V30 2608 C 251.221 -4.3243 -2.99818 0
M  V30 2609 O 250.247 -5.00543 -2.71008 0
M  V30 2610 N 251.449 -3.92947 -4.27285 0
M  V30 2611 H 254.214 -2.98042 -0.314816 0
M  V30 2612 H 251.775 -1.61881 -0.0246692 0
M  V30 2613 H 253.767 -2.87924 -2.84398 0
M  V30 2614 H 252.337 -1.87324 -2.50257 0
M  V30 2615 H 251.557 -3.82309 -0.96089 0
M  V30 2616 H 252.845 -4.79972 -1.68833 0
M  V30 2617 H 252.243 -3.38087 -4.53557 0
M  V30 2618 H 250.8 -4.19681 -4.9871 0
M  V30 2619 N 254.233 0.115231 -1.57178 0
M  V30 2620 C 255.644 0.67197 -1.74188 0
M  V30 2621 C 255.995 1.80125 -0.777777 0
M  V30 2622 O 255.12 2.16346 0.0484376 0
M  V30 2623 C 255.715 1.22573 -3.1585 0
M  V30 2624 C 254.274 1.72872 -3.34353 0
M  V30 2625 C 253.421 0.629972 -2.70049 0
M  V30 2626 H 256.372 -0.110712 -1.58313 0
M  V30 2627 H 256.393 2.09535 -3.17609 0
M  V30 2628 H 255.905 0.403598 -3.85996 0
M  V30 2629 H 254.006 2.5755 -2.69256 0
M  V30 2630 H 254.119 1.83557 -4.42542 0
M  V30 2631 H 252.483 1.0645 -2.31388 0
M  V30 2632 H 253.266 -0.181241 -3.42821 0
M  V30 2633 N 255.711 1.52812 0.385517 0
M  V30 2634 C 256.936 1.72207 1.15583 0
M  V30 2635 C 257.361 0.441034 1.82857 0
M  V30 2636 O 256.719 -0.603465 1.70962 0
M  V30 2637 C 256.767 2.87476 2.17692 0
M  V30 2638 O 255.871 2.54693 3.24354 0
M  V30 2639 H 255.212 0.572526 0.336319 0
M  V30 2640 H 257.742 1.99618 0.448744 0
M  V30 2641 H 257.752 3.13072 2.6163 0
M  V30 2642 H 256.427 3.80408 1.68115 0
M  V30 2643 H 255.004 2.3985 2.85529 0
M  V30 2644 N 257.189 -0.644168 1.43834 0
M  V30 2645 C 258.099 -1.78563 1.52159 0
M  V30 2646 C 259.115 -1.69147 0.408069 0
M  V30 2647 O 260.291 -1.90156 0.663524 0
M  V30 2648 C 257.356 -3.14888 1.45073 0
M  V30 2649 C 256.417 -3.36034 2.6717 0
M  V30 2650 C 255.65 -4.65855 2.60413 0
M  V30 2651 O 255.873 -5.45805 1.65689 0
M  V30 2652 O 254.807 -4.88918 3.5106 0
M  V30 2653 H 258.633 -1.74494 2.48567 0
M  V30 2654 H 256.218 -0.80378 1.25935 0
M  V30 2655 H 258.1 -3.96179 1.43597 0
M  V30 2656 H 256.775 -3.19528 0.518037 0
M  V30 2657 H 255.682 -2.54472 2.74217 0
M  V30 2658 H 257.015 -3.36247 3.59442 0
M  V30 2659 N 258.668 -1.30515 -0.883378 0
M  V30 2660 C 259.631 -1.1701 -1.97082 0
M  V30 2661 C 260.631 -0.10089 -1.60483 0
M  V30 2662 O 261.821 -0.349127 -1.70666 0
M  V30 2663 C 258.953 -0.793045 -3.31547 0
M  V30 2664 H 260.146 -2.13622 -2.10489 0
M  V30 2665 H 257.699 -1.13935 -1.06998 0
M  V30 2666 H 258.434 0.172499 -3.23841 0
M  V30 2667 H 258.219 -1.56576 -3.5948 0
M  V30 2668 H 259.709 -0.722073 -4.1131 0
M  V30 2669 N 260.146 1.09593 -1.13257 0
M  V30 2670 C 261.386 1.83349 -0.903472 0
M  V30 2671 C 261.75 1.83641 0.560351 0
M  V30 2672 O 262.951 2.53037 0.906947 0
M  V30 2673 C 261.222 3.25629 -1.47311 0
M  V30 2674 S 262.781 4.16408 -1.38382 0
M  V30 2675 H 259.599 0.632014 -0.325699 0
M  V30 2676 H 262.201 1.31817 -1.44376 0
M  V30 2677 H 260.905 3.22991 -2.53189 0
M  V30 2678 H 260.436 3.82233 -0.930689 0
M  V30 2679 H 262.451 4.94884 -0.361113 0
M  V30 2680 N 261.624 0.925811 1.2754 0
M  V30 2681 C 262.901 0.483726 1.89524 0
M  V30 2682 C 263.281 -1.03809 1.83812 0
M  V30 2683 O 262.629 -1.89143 1.28207 0
M  V30 2684 C 262.839 1.02769 3.33526 0
M  V30 2685 C 264.187 1.08703 4.10449 0
M  V30 2686 O 265.211 0.977175 3.42534 0
M  V30 2687 O 264.07 1.25599 5.31871 0
M  V30 2688 H 261.164 0.15529 0.812289 0
M  V30 2689 H 263.71 1.01738 1.35822 0
M  V30 2690 H 262.482 2.07155 3.31967 0
M  V30 2691 H 262.105 0.475567 3.94746 0
M  V30 2692 N 263.102 -1.41638 0.69111 0
M  V30 2693 C 264.348 -2.02104 0.229258 0
M  V30 2694 C 264.703 -1.53741 -1.15678 0
M  V30 2695 O 263.996 -0.736849 -1.76865 0
M  V30 2696 C 264.19 -3.56714 0.221277 0
M  V30 2697 C 264.019 -4.20083 1.605 0
M  V30 2698 C 262.789 -4.54566 2.20676 0
M  V30 2699 C 264.987 -4.46587 2.55078 0
M  V30 2700 N 262.969 -5.03199 3.5166 0
M  V30 2701 C 264.34 -4.96946 3.70735 0
M  V30 2702 C 266.395 -4.28593 2.53401 0
M  V30 2703 C 265.098 -5.31203 4.8499 0
M  V30 2704 C 267.124 -4.63936 3.66765 0
M  V30 2705 C 266.486 -5.14463 4.81152 0
M  V30 2706 H 262.585 -0.771256 0.12918 0
M  V30 2707 H 265.169 -1.72251 0.907626 0
M  V30 2708 H 263.34 -3.86051 -0.426562 0
M  V30 2709 H 265.072 -4.03896 -0.254983 0
M  V30 2710 H 261.827 -4.4087 1.73005 0
M  V30 2711 H 262.251 -5.31926 4.18789 0
M  V30 2712 H 266.893 -3.88771 1.66184 0
M  V30 2713 H 264.611 -5.69951 5.72871 0
M  V30 2714 H 268.197 -4.51677 3.66714 0
M  V30 2715 H 267.077 -5.41299 5.67419 0
M  V30 2716 N 264.58 -0.43555 -1.51462 0
M  V30 2717 C 265.828 0.131254 -2.01673 0
M  V30 2718 C 266.149 1.43368 -1.32177 0
M  V30 2719 O 265.419 1.90524 -0.455769 0
M  V30 2720 H 263.999 0.0514954 -0.745223 0
M  V30 2721 H 266.661 -0.577847 -1.86137 0
M  V30 2722 H 265.757 0.308446 -3.10572 0
M  V30 2723 N 266.058 1.56714 -0.166846 0
M  V30 2724 C 267.307 1.95922 0.479318 0
M  V30 2725 C 267.62 1.05529 1.6469 0
M  V30 2726 O 268.826 1.34399 2.35901 0
M  V30 2727 C 267.282 3.48359 0.90412 0
M  V30 2728 C 266.89 4.47369 -0.237621 0
M  V30 2729 C 268.634 3.96394 1.51896 0
M  V30 2730 C 266.541 5.91039 0.206561 0
M  V30 2731 H 265.471 0.731495 0.18284 0
M  V30 2732 H 268.122 1.81728 -0.254363 0
M  V30 2733 H 266.504 3.57955 1.69365 0
M  V30 2734 H 267.678 4.49485 -1.01489 0
M  V30 2735 H 265.993 4.09366 -0.762128 0
M  V30 2736 H 268.59 5.01186 1.86325 0
M  V30 2737 H 268.933 3.39075 2.41524 0
M  V30 2738 H 269.466 3.89796 0.79395 0
M  V30 2739 H 266.205 6.52221 -0.654834 0
M  V30 2740 H 265.725 5.9224 0.949282 0
M  V30 2741 H 267.404 6.43707 0.651939 0
M  V30 2742 N 267.536 -0.106894 1.57237 0
M  V30 2743 C 268.782 -0.81373 1.85759 0
M  V30 2744 C 269.115 -1.78952 0.754315 0
M  V30 2745 O 268.39 -1.93029 -0.23879 0
M  V30 2746 C 268.673 -1.55293 3.24894 0
M  V30 2747 C 268.526 -0.595929 4.45835 0
M  V30 2748 C 269.845 -2.5063 3.61763 0
M  V30 2749 H 266.964 -0.294369 0.67566 0
M  V30 2750 H 269.606 -0.0776472 1.89841 0
M  V30 2751 H 267.756 -2.1804 3.21544 0
M  V30 2752 H 269.428 0.0236262 4.61294 0
M  V30 2753 H 267.671 0.0916191 4.33703 0
M  V30 2754 H 268.342 -1.15004 5.39887 0
M  V30 2755 H 270.818 -1.97982 3.65981 0
M  V30 2756 H 269.694 -2.99376 4.60071 0
M  V30 2757 H 269.955 -3.3385 2.89821 0
M  V30 2758 N 269.014 -1.53014 -0.377408 0
M  V30 2759 C 269.962 -1.7927 -1.48206 0
M  V30 2760 C 270.956 -0.661195 -1.55963 0
M  V30 2761 O 272.162 -0.843908 -1.58991 0
M  V30 2762 H 268.537 -0.567425 -0.493491 0
M  V30 2763 H 270.508 -2.71753 -1.2326 0
M  V30 2764 C 269.257 -1.98894 -2.85196 0
M  V30 2765 H 268.58 -2.85395 -2.79981 0
M  V30 2766 H 270.02 -2.21249 -3.61698 0
M  V30 2767 C 268.479 -0.764691 -3.28107 0
M  V30 2768 O 269.009 0.0523226 -4.01666 0
M  V30 2769 N 267.215 -0.591493 -2.84517 0
M  V30 2770 H 266.762 -1.25749 -2.24822 0
M  V30 2771 H 266.72 0.226253 -3.13585 0
M  V30 2772 N 270.492 0.636531 -1.44174 0
M  V30 2773 C 271.908 0.954104 -1.27941 0
M  V30 2774 C 272.108 2.0039 -0.211248 0
M  V30 2775 O 271.164 2.49236 0.404695 0
M  V30 2776 C 272.477 1.4225 -2.64925 0
M  V30 2777 C 274.025 1.53827 -2.72592 0
M  V30 2778 C 274.5 2.04053 -4.10032 0
M  V30 2779 N 275.991 2.11331 -4.12182 0
M  V30 2780 C 276.726 2.51352 -5.15374 0
M  V30 2781 N 276.222 2.90549 -6.2893 0
M  V30 2782 N 278.015 2.51438 -5.02728 0
M  V30 2783 H 270.166 -0.0578386 -2.12321 0
M  V30 2784 H 272.429 0.0367406 -0.947288 0
M  V30 2785 H 272.135 0.725466 -3.44136 0
M  V30 2786 H 272.009 2.39451 -2.9145 0
M  V30 2787 H 274.396 2.22628 -1.93702 0
M  V30 2788 H 274.477 0.550154 -2.49814 0
M  V30 2789 H 274.121 1.35848 -4.89395 0
M  V30 2790 H 274.051 3.03726 -4.30184 0
M  V30 2791 H 276.542 1.83745 -3.30222 0
M  V30 2792 H 276.855 3.19884 -7.03487 0
M  V30 2793 H 275.2 2.88313 -6.32377 0
M  V30 2794 H 278.391 2.20203 -4.13072 0
M  V30 2795 H 278.564 2.82304 -5.83274 0
M  V30 2796 N 271.97 1.30982 0.876444 0
M  V30 2797 C 273.216 1.20474 1.63138 0
M  V30 2798 C 273.549 -0.238096 1.92735 0
M  V30 2799 O 272.824 -1.1692 1.55435 0
M  V30 2800 C 273.107 2.04244 2.96574 0
M  V30 2801 C 272.96 3.56793 2.73896 0
M  V30 2802 C 274.279 1.88684 3.97601 0
M  V30 2803 H 271.398 0.439001 0.591985 0
M  V30 2804 H 274.04 1.60704 1.01361 0
M  V30 2805 H 272.19 1.70063 3.493 0
M  V30 2806 H 273.862 4.01077 2.27892 0
M  V30 2807 H 272.105 3.80548 2.08245 0
M  V30 2808 H 272.776 4.10706 3.68815 0
M  V30 2809 H 275.252 2.18584 3.54062 0
M  V30 2810 H 274.128 2.4961 4.88862 0
M  V30 2811 H 274.389 0.848343 4.33884 0
M  V30 2812 N 273.449 -1.08991 1.13837 0
M  V30 2813 C 274.679 -1.84743 0.924859 0
M  V30 2814 C 275.087 -1.81629 -0.529874 0
M  V30 2815 O 274.43 -1.21397 -1.37872 0
M  V30 2816 C 274.492 -3.33568 1.34061 0
M  V30 2817 C 274.156 -3.60425 2.80968 0
M  V30 2818 C 275.153 -3.55771 3.79108 0
M  V30 2819 C 272.838 -3.88627 3.18236 0
M  V30 2820 C 274.832 -3.78939 5.12527 0
M  V30 2821 C 272.519 -4.11449 4.51833 0
M  V30 2822 C 273.517 -4.06598 5.48787 0
M  V30 2823 O 273.205 -4.28826 6.79973 0
M  V30 2824 H 272.937 -0.590258 0.329502 0
M  V30 2825 H 275.491 -1.38598 1.51591 0
M  V30 2826 H 273.721 -3.80442 0.692853 0
M  V30 2827 H 275.41 -3.90743 1.09886 0
M  V30 2828 H 276.176 -3.34005 3.51661 0
M  V30 2829 H 272.055 -3.91526 2.43369 0
M  V30 2830 H 275.599 -3.75068 5.88192 0
M  V30 2831 H 271.496 -4.32698 4.79002 0
M  V30 2832 H 272.264 -4.46264 6.86142 0
M  V30 2833 N 274.927 -0.932562 -1.27047 0
M  V30 2834 C 276.338 -0.619451 -1.76124 0
M  V30 2835 C 276.689 0.865397 -1.76083 0
M  V30 2836 O 275.814 1.67722 -1.36742 0
M  V30 2837 C 276.409 -1.11771 -3.19832 0
M  V30 2838 C 274.968 -0.855174 -3.66557 0
M  V30 2839 C 274.115 -1.27362 -2.46321 0
M  V30 2840 H 277.066 -1.11181 -1.13245 0
M  V30 2841 H 277.087 -0.46759 -3.77616 0
M  V30 2842 H 276.599 -2.19842 -3.1983 0
M  V30 2843 H 274.7 0.211524 -3.71999 0
M  V30 2844 H 274.813 -1.47613 -4.55793 0
M  V30 2845 H 273.177 -0.692119 -2.45116 0
M  V30 2846 H 273.96 -2.36307 -2.49025 0
M  V30 2847 N 276.405 1.4127 -0.698611 0
M  V30 2848 C 277.337 2.292 0.00399731 0
M  V30 2849 C 278.35 1.44944 0.741279 0
M  V30 2850 O 279.539 1.68416 0.591477 0
M  V30 2851 C 276.639 3.22875 1.02979 0
M  V30 2852 C 275.812 4.35904 0.36151 0
M  V30 2853 C 274.871 5.10134 1.29033 0
M  V30 2854 O 273.897 5.63809 0.781562 0
M  V30 2855 N 275.099 5.17885 2.6225 0
M  V30 2856 H 277.864 2.9014 -0.750921 0
M  V30 2857 H 275.425 1.52455 -0.544882 0
M  V30 2858 H 277.417 3.69404 1.65296 0
M  V30 2859 H 275.987 2.63221 1.68622 0
M  V30 2860 H 275.207 3.91719 -0.441584 0
M  V30 2861 H 276.495 5.08696 -0.103055 0
M  V30 2862 H 275.893 4.7573 3.061 0
M  V30 2863 H 274.45 5.6798 3.19754 0
M  V30 2864 N 277.883 0.443576 1.51229 0
M  V30 2865 C 278.846 -0.353132 2.26463 0
M  V30 2866 C 279.846 -0.944338 1.3015 0
M  V30 2867 O 281.036 -0.817813 1.5381 0
M  V30 2868 C 278.168 -1.50023 3.06114 0
M  V30 2869 H 279.361 0.3063 2.98332 0
M  V30 2870 H 276.914 0.196902 1.55055 0
M  V30 2871 H 277.649 -2.19553 2.38677 0
M  V30 2872 H 277.434 -1.08241 3.76864 0
M  V30 2873 H 278.924 -2.06296 3.63087 0
M  V30 2874 N 279.361 -1.56624 0.175154 0
M  V30 2875 C 280.293 -2.15333 -0.785128 0
M  V30 2876 C 281.306 -1.1099 -1.19101 0
M  V30 2877 O 282.495 -1.38162 -1.13019 0
M  V30 2878 C 279.595 -2.68427 -2.06882 0
M  V30 2879 C 278.768 -3.97466 -1.8259 0
M  V30 2880 C 277.827 -4.35585 -2.95215 0
M  V30 2881 O 276.853 -5.03389 -2.65684 0
M  V30 2882 N 278.055 -3.97457 -4.23094 0
M  V30 2883 H 280.82 -2.98359 -0.283187 0
M  V30 2884 H 278.381 -1.61898 -0.00749817 0
M  V30 2885 H 280.373 -2.90924 -2.81328 0
M  V30 2886 H 278.943 -1.89968 -2.48256 0
M  V30 2887 H 278.163 -3.83307 -0.920287 0
M  V30 2888 H 279.451 -4.81736 -1.63733 0
M  V30 2889 H 278.849 -3.42878 -4.49945 0
M  V30 2890 H 277.406 -4.24947 -4.9423 0
M  V30 2891 N 280.839 0.0985539 -1.57292 0
M  V30 2892 C 282.086 0.802678 -1.85912 0
M  V30 2893 C 282.414 1.78901 -0.763186 0
M  V30 2894 O 281.669 1.94178 0.243559 0
M  V30 2895 C 281.968 1.56927 -3.21105 0
M  V30 2896 C 281.634 0.725376 -4.45027 0
M  V30 2897 C 280.296 0.492726 -4.78671 0
M  V30 2898 C 282.648 0.138493 -5.21016 0
M  V30 2899 C 279.976 -0.336727 -5.85733 0
M  V30 2900 C 282.328 -0.678264 -6.28953 0
M  V30 2901 C 280.992 -0.921039 -6.61115 0
M  V30 2902 H 280.262 0.293721 -0.680301 0
M  V30 2903 H 282.909 0.0642841 -1.91392 0
M  V30 2904 H 281.214 2.37914 -3.11294 0
M  V30 2905 H 282.911 2.11841 -3.40477 0
M  V30 2906 H 279.501 0.916815 -4.18679 0
M  V30 2907 H 283.685 0.305404 -4.95359 0
M  V30 2908 H 278.941 -0.533836 -6.09065 0
M  V30 2909 H 283.115 -1.1399 -6.87007 0
M  V30 2910 H 280.742 -1.56556 -7.43905 0
M  V30 2911 N 282.317 1.53212 0.369288 0
M  V30 2912 C 283.733 1.42902 0.710712 0
M  V30 2913 C 283.933 0.565135 1.93413 0
M  V30 2914 O 282.989 0.0461484 2.52458 0
M  V30 2915 C 284.302 2.86042 0.927382 0
M  V30 2916 C 285.85 2.9565 1.02762 0
M  V30 2917 C 286.325 4.39843 1.27679 0
M  V30 2918 N 287.816 4.43256 1.34457 0
M  V30 2919 C 288.551 5.51929 1.55439 0
M  V30 2920 N 288.047 6.70655 1.73762 0
M  V30 2921 N 289.84 5.39502 1.57779 0
M  V30 2922 H 281.991 2.07888 -0.435457 0
M  V30 2923 H 284.254 0.938661 -0.132739 0
M  V30 2924 H 283.96 3.51557 0.100287 0
M  V30 2925 H 283.834 3.29472 1.83653 0
M  V30 2926 H 286.221 2.30291 1.84527 0
M  V30 2927 H 286.302 2.5562 0.0959504 0
M  V30 2928 H 285.946 5.05774 0.464175 0
M  V30 2929 H 285.876 4.77443 2.22162 0
M  V30 2930 H 288.367 3.5769 1.21926 0
M  V30 2931 H 288.68 7.49248 1.89335 0
M  V30 2932 H 287.025 6.73648 1.70948 0
M  V30 2933 H 290.216 4.45713 1.43029 0
M  V30 2934 H 290.389 6.2426 1.7379 0
M  V30 2935 N 283.795 -0.628877 1.44509 0
M  V30 2936 C 285.072 -1.38733 1.37886 0
M  V30 2937 C 285.452 -2.11065 0.0387008 0
M  V30 2938 O 284.8 -2.06476 -0.97878 0
M  V30 2939 C 285.01 -2.35188 2.57852 0
M  V30 2940 C 286.358 -2.9845 3.02014 0
M  V30 2941 O 287.382 -2.45513 2.58073 0
M  V30 2942 O 286.241 -3.94487 3.78209 0
M  V30 2943 H 283.335 -0.621015 0.54614 0
M  V30 2944 H 285.881 -0.653744 1.56602 0
M  V30 2945 H 284.653 -1.80855 3.46998 0
M  V30 2946 H 284.276 -3.1596 2.4136 0
M  V30 2947 N 285.273 -1.31445 -0.869486 0
M  V30 2948 C 286.522 -1.20517 -1.61736 0
M  V30 2949 C 286.835 0.235341 -1.94179 0
M  V30 2950 O 288.041 0.466312 -2.67465 0
M  V30 2951 C 286.497 -2.10982 -2.91573 0
M  V30 2952 C 286.105 -3.60032 -2.66611 0
M  V30 2953 C 287.849 -2.08856 -3.69567 0
M  V30 2954 C 285.756 -4.42503 -3.92358 0
M  V30 2955 H 284.686 -0.447493 -0.606849 0
M  V30 2956 H 287.337 -1.56303 -0.96133 0
M  V30 2957 H 285.719 -1.68095 -3.58553 0
M  V30 2958 H 286.893 -4.11167 -2.08035 0
M  V30 2959 H 285.208 -3.64139 -2.0197 0
M  V30 2960 H 287.805 -2.67716 -4.62852 0
M  V30 2961 H 288.148 -1.07582 -4.02159 0
M  V30 2962 H 288.681 -2.49945 -3.09471 0
M  V30 2963 H 285.42 -5.44533 -3.64916 0
M  V30 2964 H 284.94 -3.96125 -4.50383 0
M  V30 2965 H 286.619 -4.54741 -4.60238 0
M  V30 2966 N 286.751 1.08385 -1.14413 0
M  V30 2967 C 287.714 2.13486 -0.834048 0
M  V30 2968 C 288.714 1.59988 0.161418 0
M  V30 2969 O 289.904 1.74071 -0.0669575 0
M  V30 2970 C 287.036 3.4003 -0.243354 0
M  V30 2971 H 288.229 2.42425 -1.7655 0
M  V30 2972 H 285.782 1.24101 -0.950189 0
M  V30 2973 H 286.517 3.16726 0.696807 0
M  V30 2974 H 286.302 3.80157 -0.960367 0
M  V30 2975 H 287.792 4.17577 -0.0436242 0
M  V30 2976 N 288.23 0.939286 1.26551 0
M  V30 2977 C 289.476 0.596234 1.94465 0
M  V30 2978 C 289.831 -0.855013 1.72358 0
M  V30 2979 O 289.124 -1.6034 1.04889 0
M  V30 2980 C 289.318 0.872106 3.46596 0
M  V30 2981 C 289.147 2.34862 3.83497 0
M  V30 2982 C 287.917 3.00344 4.06352 0
M  V30 2983 C 290.115 3.32697 3.92195 0
M  V30 2984 N 288.097 4.38027 4.30123 0
M  V30 2985 C 289.468 4.55631 4.20476 0
M  V30 2986 C 291.523 3.27747 3.74815 0
M  V30 2987 C 290.226 5.74233 4.33185 0
M  V30 2988 C 292.252 4.45672 3.88755 0
M  V30 2989 C 291.614 5.67388 4.17433 0
M  V30 2990 H 287.713 0.268515 0.734455 0
M  V30 2991 H 290.297 1.2083 1.5267 0
M  V30 2992 H 288.468 0.289102 3.87323 0
M  V30 2993 H 290.2 0.490513 4.01716 0
M  V30 2994 H 286.955 2.50969 4.01636 0
M  V30 2995 H 287.379 5.09288 4.46044 0
M  V30 2996 H 292.021 2.34703 3.51673 0
M  V30 2997 H 289.739 6.67731 4.55149 0
M  V30 2998 H 293.325 4.43372 3.76713 0
M  V30 2999 H 292.205 6.57115 4.27983 0
M  V30 3000 N 289.708 -1.40897 0.706093 0
M  V30 3001 C 290.655 -2.30751 0.0474474 0
M  V30 3002 C 291.625 -1.47678 -0.76029 0
M  V30 3003 O 292.81 -1.76441 -0.726177 0
M  V30 3004 C 289.95 -3.33815 -0.875309 0
M  V30 3005 C 289.063 -4.31961 -0.0580623 0
M  V30 3006 C 288.198 -5.22093 -0.979425 0
M  V30 3007 C 287.237 -6.11902 -0.155706 0
M  V30 3008 N 286.374 -6.94482 -1.03144 0
M  V30 3009 H 291.214 -2.86513 0.819413 0
M  V30 3010 H 288.751 -1.41102 0.415783 0
M  V30 3011 H 290.709 -3.92129 -1.42446 0
M  V30 3012 H 289.339 -2.79579 -1.61356 0
M  V30 3013 H 288.391 -3.75507 0.608147 0
M  V30 3014 H 289.703 -4.95415 0.580082 0
M  V30 3015 H 288.857 -5.85292 -1.59744 0
M  V30 3016 H 287.596 -4.5889 -1.65141 0
M  V30 3017 H 286.601 -5.47742 0.475309 0
M  V30 3018 H 287.826 -6.77162 0.512635 0
M  V30 3019 H 285.772 -6.33877 -1.68924 0
M  V30 3020 H 285.689 -7.54665 -0.449108 0
M  V30 3021 H 286.957 -7.6214 -1.63593 0
M  V30 3022 N 291.186 -0.45159 -1.50991 0
M  V30 3023 C 292.149 0.341117 -2.26647 0
M  V30 3024 C 293.149 0.937422 -1.30649 0
M  V30 3025 O 294.339 0.809644 -1.54241 0
M  V30 3026 C 291.471 1.48398 -3.06905 0
M  V30 3027 H 292.664 -0.322117 -2.98165 0
M  V30 3028 H 290.217 -0.205122 -1.54948 0
M  V30 3029 H 290.952 2.18284 -2.39838 0
M  V30 3030 H 290.737 1.06241 -3.77432 0
M  V30 3031 H 292.227 2.04367 -3.64176 0
M  V30 3032 N 292.664 1.56529 -0.183458 0
M  V30 3033 C 293.627 2.17324 0.728223 0
M  V30 3034 C 294.627 1.12453 1.14939 0
M  V30 3035 O 295.817 1.37902 1.06437 0
M  V30 3036 C 292.949 2.76591 1.99274 0
M  V30 3037 H 294.142 2.99241 0.198772 0
M  V30 3038 H 291.695 1.5616 0.0661391 0
M  V30 3039 H 292.43 1.98441 2.56499 0
M  V30 3040 H 292.215 3.5335 1.69959 0
M  V30 3041 H 293.705 3.23311 2.6431 0
M  V30 3042 N 294.142 -0.090211 1.57342 0
M  V30 3043 C 295.558 -0.444547 1.53284 0
M  V30 3044 C 295.758 -1.80238 0.900914 0
M  V30 3045 O 294.814 -2.4759 0.495513 0
M  V30 3046 C 296.127 -0.402543 2.97993 0
M  V30 3047 C 297.675 -0.48405 3.09234 0
M  V30 3048 C 298.15 -0.472144 4.5556 0
M  V30 3049 N 299.641 -0.532757 4.60126 0
M  V30 3050 C 300.376 -0.545462 5.708 0
M  V30 3051 N 299.872 -0.514082 6.9089 0
M  V30 3052 N 301.665 -0.59064 5.58988 0
M  V30 3053 H 293.816 0.799121 1.96794 0
M  V30 3054 H 296.079 0.297965 0.899956 0
M  V30 3055 H 295.785 0.528106 3.47712 0
M  V30 3056 H 295.659 -1.21969 3.56936 0
M  V30 3057 H 298.046 -1.40512 2.595 0
M  V30 3058 H 298.127 0.361328 2.53235 0
M  V30 3059 H 297.771 0.445 5.05947 0
M  V30 3060 H 297.701 -1.3348 5.09402 0
M  V30 3061 H 300.192 -0.562006 3.73698 0
M  V30 3062 H 300.505 -0.527195 7.71 0
M  V30 3063 H 298.85 -0.481054 6.93333 0
M  V30 3064 H 302.041 -0.61272 4.64073 0
M  V30 3065 H 302.214 -0.597073 6.45243 0
M  V30 3066 N 295.62 -1.53406 -0.361157 0
M  V30 3067 C 296.53 -1.83122 -1.4664 0
M  V30 3068 C 297.546 -0.719943 -1.58407 0
M  V30 3069 O 298.722 -1.01046 -1.74218 0
M  V30 3070 C 295.787 -2.01891 -2.81853 0
M  V30 3071 C 294.848 -3.25784 -2.79577 0
M  V30 3072 C 294.081 -3.43648 -4.0834 0
M  V30 3073 O 294.304 -2.65714 -5.0473 0
M  V30 3074 O 293.238 -4.37018 -4.13883 0
M  V30 3075 H 297.064 -2.7703 -1.24451 0
M  V30 3076 H 294.649 -1.38841 -0.551678 0
M  V30 3077 H 296.531 -2.15782 -3.61962 0
M  V30 3078 H 295.206 -1.11173 -3.0401 0
M  V30 3079 H 294.113 -3.17312 -1.98151 0
M  V30 3080 H 295.446 -4.16439 -2.62373 0
M  V30 3081 N 297.098 0.621204 -1.44841 0
M  V30 3082 C 298.028 1.74366 -1.55303 0
M  V30 3083 C 299.009 1.65199 -0.405385 0
M  V30 3084 O 300.194 1.83807 -0.626787 0
M  V30 3085 C 297.324 3.12931 -1.50637 0
M  V30 3086 C 296.278 3.36896 -2.63979 0
M  V30 3087 C 295.604 4.75594 -2.44366 0
M  V30 3088 C 296.904 3.28483 -4.06074 0
M  V30 3089 H 298.598 1.65867 -2.49256 0
M  V30 3090 H 296.144 0.796558 -1.19962 0
M  V30 3091 H 298.097 3.9124 -1.56555 0
M  V30 3092 H 296.821 3.22237 -0.532057 0
M  V30 3093 H 295.48 2.60972 -2.57467 0
M  V30 3094 H 295.128 4.81616 -1.45105 0
M  V30 3095 H 294.828 4.92586 -3.20364 0
M  V30 3096 H 296.352 5.5612 -2.52117 0
M  V30 3097 H 297.766 3.96684 -4.13902 0
M  V30 3098 H 296.163 3.57008 -4.82354 0
M  V30 3099 H 297.233 2.26133 -4.28943 0
M  V30 3100 N 298.576 1.31904 0.862503 0
M  V30 3101 C 299.539 1.20131 1.95195 0
M  V30 3102 C 300.539 0.126409 1.60302 0
M  V30 3103 O 301.729 0.376234 1.70089 0
M  V30 3104 C 298.861 0.845691 3.30244 0
M  V30 3105 H 300.054 2.16943 2.07064 0
M  V30 3106 H 297.607 1.15622 1.05172 0
M  V30 3107 H 298.342 -0.120957 3.24074 0
M  V30 3108 H 298.127 1.62276 3.56944 0
M  V30 3109 H 299.617 0.787418 4.10109 0
M  V30 3110 N 300.054 -1.07777 1.14986 0
M  V30 3111 C 301.279 -1.84558 0.946213 0
M  V30 3112 C 301.704 -1.81323 -0.500362 0
M  V30 3113 O 301.062 -1.20301 -1.35637 0
M  V30 3114 C 301.11 -3.29736 1.45968 0
M  V30 3115 O 300.214 -4.07149 0.65601 0
M  V30 3116 H 299.555 -0.571641 0.33782 0
M  V30 3117 H 302.085 -1.35991 1.52865 0
M  V30 3118 H 302.095 -3.80574 1.47063 0
M  V30 3119 H 300.77 -3.31406 2.51283 0
M  V30 3120 H 299.347 -3.65994 0.714322 0
M  V30 3121 N 301.532 -0.945985 -1.26051 0
M  V30 3122 C 302.778 -0.597002 -1.93814 0
M  V30 3123 C 303.111 0.862484 -1.73997 0
M  V30 3124 O 302.386 1.61769 -1.07986 0
M  V30 3125 C 302.669 -0.945937 -3.47454 0
M  V30 3126 C 302.522 -2.46052 -3.76535 0
M  V30 3127 C 303.841 -0.464785 -4.37639 0
M  V30 3128 H 300.96 -0.218366 -0.703907 0
M  V30 3129 H 303.602 -1.18107 -1.48831 0
M  V30 3130 H 301.752 -0.448902 -3.85898 0
M  V30 3131 H 303.424 -3.03065 -3.47778 0
M  V30 3132 H 301.667 -2.90194 -3.22444 0
M  V30 3133 H 302.338 -2.65517 -4.83947 0
M  V30 3134 H 304.814 -0.891016 -4.06448 0
M  V30 3135 H 303.69 -0.737712 -5.4392 0
M  V30 3136 H 303.951 0.635274 -4.37512 0
M  V30 3137 N 303.011 1.40521 -0.713556 0
M  V30 3138 C 304.422 1.83853 -0.324807 0
M  V30 3139 C 304.773 1.59667 1.14021 0
M  V30 3140 O 303.898 1.07649 1.87725 0
M  V30 3141 C 304.493 3.33751 -0.582746 0
M  V30 3142 C 303.052 3.75584 -0.247727 0
M  V30 3143 C 302.199 2.63753 -0.856121 0
M  V30 3144 H 305.15 1.29817 -0.91286 0
M  V30 3145 H 305.171 3.80194 0.152682 0
M  V30 3146 H 304.683 3.51322 -1.64908 0
M  V30 3147 H 302.784 3.63608 0.813624 0
M  V30 3148 H 302.897 4.7373 -0.715307 0
M  V30 3149 H 301.261 2.53108 -0.28432 0
M  V30 3150 H 302.044 2.84137 -1.92668 0
M  V30 3151 N 304.489 0.459591 1.5075 0
M  V30 3152 C 305.717 -0.0973749 2.06671 0
M  V30 3153 C 306.132 -1.34524 1.32472 0
M  V30 3154 O 305.489 -1.7827 0.390634 0
M  V30 3155 C 305.54 -0.39714 3.59312 0
M  V30 3156 O 305.261 0.801214 4.30711 0
M  V30 3157 C 306.762 -1.00234 4.31819 0
M  V30 3158 H 303.982 0.00195854 0.670997 0
M  V30 3159 H 306.526 0.645072 1.94059 0
M  V30 3160 H 304.681 -1.08951 3.71764 0
M  V30 3161 H 305.095 0.538857 5.21725 0
M  V30 3162 H 306.569 -1.16193 5.39632 0
M  V30 3163 H 307.046 -1.98939 3.91561 0
M  V30 3164 H 307.652 -0.348699 4.23868 0
M  V30 3165 N 305.967 -1.56429 0.191757 0
M  V30 3166 C 306.917 -2.15548 -0.743184 0
M  V30 3167 C 307.901 -1.09531 -1.17863 0
M  V30 3168 O 309.093 -1.35602 -1.13759 0
M  V30 3169 C 306.222 -2.81577 -1.96391 0
M  V30 3170 C 305.308 -3.9478 -1.54951 0
M  V30 3171 N 305.699 -4.98677 -0.845876 0
M  V30 3172 C 303.997 -4.06319 -1.83905 0
M  V30 3173 C 304.698 -5.78183 -0.638724 0
M  V30 3174 N 303.674 -5.30495 -1.18643 0
M  V30 3175 H 307.476 -2.9324 -0.196839 0
M  V30 3176 H 304.99 -1.62398 -0.0081603 0
M  V30 3177 H 306.987 -3.22321 -2.64415 0
M  V30 3178 H 305.647 -2.05371 -2.51501 0
M  V30 3179 H 306.658 -5.15464 -0.501704 0
M  V30 3180 H 303.335 -3.41238 -2.40548 0
M  V30 3181 H 304.725 -6.71851 -0.0807929 0
M  V30 3182 N 307.445 0.0818655 -1.57387 0
M  V30 3183 C 308.375 1.09885 -2.06028 0
M  V30 3184 C 309.356 1.4098 -0.951774 0
M  V30 3185 O 310.541 1.50781 -1.22387 0
M  V30 3186 C 307.671 2.4151 -2.4958 0
M  V30 3187 C 306.625 2.24792 -3.64215 0
M  V30 3188 C 305.951 3.61712 -3.93787 0
M  V30 3189 C 307.251 1.67749 -4.94629 0
M  V30 3190 H 308.945 0.694128 -2.91243 0
M  V30 3191 H 306.491 0.332448 -1.4011 0
M  V30 3192 H 308.444 3.12939 -2.82219 0
M  V30 3193 H 307.168 2.83943 -1.61381 0
M  V30 3194 H 305.827 1.55807 -3.31843 0
M  V30 3195 H 305.475 4.01697 -3.02735 0
M  V30 3196 H 305.175 3.51368 -4.70971 0
M  V30 3197 H 306.699 4.34587 -4.28913 0
M  V30 3198 H 308.113 2.29032 -5.25564 0
M  V30 3199 H 306.51 1.68128 -5.76067 0
M  V30 3200 H 307.58 0.638059 -4.80684 0
M  V30 3201 N 308.923 1.53595 0.353017 0
M  V30 3202 C 309.855 1.77219 1.45348 0
M  V30 3203 C 310.868 0.65324 1.49119 0
M  V30 3204 O 312.057 0.929775 1.52373 0
M  V30 3205 C 309.157 1.84841 2.84055 0
M  V30 3206 C 308.33 3.14649 3.03833 0
M  V30 3207 C 307.389 3.13351 4.22727 0
M  V30 3208 O 306.415 3.87107 4.17297 0
M  V30 3209 N 307.617 2.35052 5.30783 0
M  V30 3210 H 310.382 2.72178 1.25457 0
M  V30 3211 H 307.943 1.52528 0.542833 0
M  V30 3212 H 309.935 1.81435 3.61751 0
M  V30 3213 H 308.505 0.971114 2.97133 0
M  V30 3214 H 307.725 3.31256 2.13689 0
M  V30 3215 H 309.013 4.00411 3.13925 0
M  V30 3216 H 308.411 1.74663 5.38061 0
M  V30 3217 H 306.968 2.37453 6.07009 0
M  V30 3218 N 310.401 -0.613514 1.45168 0
M  V30 3219 C 311.647 -1.37471 1.49096 0
M  V30 3220 C 311.98 -1.93765 0.129901 0
M  V30 3221 O 311.255 -1.74707 -0.854858 0
M  V30 3222 C 311.538 -2.52701 2.56542 0
M  V30 3223 C 311.391 -2.01643 4.0207 0
M  V30 3224 C 312.71 -3.54849 2.60327 0
M  V30 3225 H 309.829 -0.498502 0.54283 0
M  V30 3226 H 312.471 -0.692125 1.76945 0
M  V30 3227 H 310.621 -3.10931 2.32926 0
M  V30 3228 H 312.293 -1.48108 4.36877 0
M  V30 3229 H 310.536 -1.32688 4.13009 0
M  V30 3230 H 311.207 -2.84681 4.72928 0
M  V30 3231 H 313.683 -3.0645 2.81474 0
M  V30 3232 H 312.559 -4.32973 3.37381 0
M  V30 3233 H 312.82 -4.10079 1.6519 0
M  V30 3234 N 311.879 -1.3236 -0.855495 0
M  V30 3235 C 312.812 -1.15559 -1.96777 0
M  V30 3236 C 313.79 -0.0552681 -1.62506 0
M  V30 3237 O 314.974 -0.214419 -1.87277 0
M  V30 3238 C 312.101 -0.768851 -3.29858 0
M  V30 3239 C 311.147 -1.87429 -3.83109 0
M  V30 3240 S 311.98 -3.48243 -4.06801 0
M  V30 3241 C 313.136 -3.11539 -5.42858 0
M  V30 3242 H 313.369 -2.09717 -2.10727 0
M  V30 3243 H 310.902 -1.17011 -1.00737 0
M  V30 3244 H 312.86 -0.55248 -4.06765 0
M  V30 3245 H 311.521 0.153857 -3.13723 0
M  V30 3246 H 310.714 -1.55667 -4.79358 0
M  V30 3247 H 310.316 -2.04647 -3.13042 0
M  V30 3248 H 312.608 -2.61331 -6.2507 0
M  V30 3249 H 313.551 -4.06806 -5.79582 0
M  V30 3250 H 313.959 -2.48582 -5.06821 0
M  V30 3251 N 313.357 1.07166 -1.15556 0
M  V30 3252 C 314.32 2.12589 -0.856644 0
M  V30 3253 C 315.32 1.6015 0.14444 0
M  V30 3254 O 316.51 1.7399 -0.0854163 0
M  V30 3255 C 313.642 3.39753 -0.279405 0
M  V30 3256 H 314.835 2.40539 -1.79112 0
M  V30 3257 H 312.388 1.23086 -0.963298 0
M  V30 3258 H 313.123 3.17447 0.663174 0
M  V30 3259 H 312.908 3.79117 -1.00063 0
M  V30 3260 H 314.398 4.17507 -0.0879113 0
M  V30 3261 N 314.835 0.952656 1.25548 0
M  V30 3262 C 315.782 0.47008 2.25962 0
M  V30 3263 C 316.752 -0.476384 1.59122 0
M  V30 3264 O 317.937 -0.39007 1.8677 0
M  V30 3265 C 315.077 -0.247881 3.44209 0
M  V30 3266 C 314.19 0.735591 4.25691 0
M  V30 3267 C 313.325 -0.0047306 5.312 0
M  V30 3268 C 312.364 0.969805 6.04368 0
M  V30 3269 N 311.501 0.260486 7.01617 0
M  V30 3270 H 316.341 1.33126 2.66611 0
M  V30 3271 H 313.878 0.66765 1.31076 0
M  V30 3272 H 315.836 -0.680695 4.1161 0
M  V30 3273 H 314.466 -1.07312 3.0444 0
M  V30 3274 H 313.518 1.28689 3.57971 0
M  V30 3275 H 314.83 1.47934 4.76358 0
M  V30 3276 H 313.984 -0.496275 6.04667 0
M  V30 3277 H 312.723 -0.781282 4.81401 0
M  V30 3278 H 311.728 1.47237 5.29718 0
M  V30 3279 H 312.953 1.74655 6.56256 0
M  V30 3280 H 310.899 -0.497364 6.54112 0
M  V30 3281 H 310.816 0.943362 7.50091 0
M  V30 3282 H 312.084 -0.209587 7.79218 0
M  V30 3283 N 316.313 -1.40141 0.720998 0
M  V30 3284 C 317.223 -2.34486 0.0731031 0
M  V30 3285 C 318.239 -1.57587 -0.737723 0
M  V30 3286 O 319.415 -1.89949 -0.669429 0
M  V30 3287 C 316.48 -3.36528 -0.833656 0
M  V30 3288 C 315.541 -4.29298 -0.0121673 0
M  V30 3289 C 314.774 -5.26466 -0.875742 0
M  V30 3290 O 314.997 -5.29745 -2.11485 0
M  V30 3291 O 313.931 -6.01092 -0.31185 0
M  V30 3292 H 317.757 -2.9152 0.851444 0
M  V30 3293 H 315.342 -1.41427 0.481527 0
M  V30 3294 H 317.224 -3.99093 -1.35289 0
M  V30 3295 H 315.899 -2.81899 -1.59105 0
M  V30 3296 H 314.806 -3.70001 0.552262 0
M  V30 3297 H 316.139 -4.87094 0.707129 0
M  V30 3298 N 317.792 -0.46758 -1.50504 0
M  V30 3299 C 319.208 -0.121533 -1.59137 0
M  V30 3300 C 319.408 1.3717 -1.47603 0
M  V30 3301 O 318.464 2.14464 -1.33272 0
M  V30 3302 C 319.777 -0.6686 -2.93173 0
M  V30 3303 C 321.325 -0.631716 -3.06559 0
M  V30 3304 C 321.8 -1.15627 -4.43164 0
M  V30 3305 N 323.291 -1.11553 -4.49567 0
M  V30 3306 C 324.026 -1.49195 -5.5365 0
M  V30 3307 N 323.522 -1.94269 -6.65005 0
M  V30 3308 N 325.315 -1.4082 -5.44175 0
M  V30 3309 H 317.466 -1.4388 -1.56245 0
M  V30 3310 H 319.729 -0.594784 -0.738198 0
M  V30 3311 H 319.435 -1.71453 -3.07078 0
M  V30 3312 H 319.309 -0.11021 -3.77039 0
M  V30 3313 H 321.696 0.405297 -2.92304 0
M  V30 3314 H 321.777 -1.22687 -2.24458 0
M  V30 3315 H 321.421 -2.1919 -4.58168 0
M  V30 3316 H 321.351 -0.537365 -5.23851 0
M  V30 3317 H 323.842 -0.784895 -3.69659 0
M  V30 3318 H 324.155 -2.21148 -7.40482 0
M  V30 3319 H 322.5 -1.98219 -6.66134 0
M  V30 3320 H 325.691 -1.0545 -4.56068 0
M  V30 3321 H 325.864 -1.70481 -6.25172 0
M  V30 3322 N 319.27 1.56325 -0.20005 0
M  V30 3323 C 320.517 1.97719 0.437411 0
M  V30 3324 C 320.845 1.08709 1.61284 0
M  V30 3325 O 320.1 0.127261 1.95286 0
M  V30 3326 C 320.399 3.4495 0.935103 0
M  V30 3327 C 320.065 4.5072 -0.12749 0
M  V30 3328 C 318.727 4.79368 -0.419451 0
M  V30 3329 C 321.079 5.14268 -0.847231 0
M  V30 3330 C 318.407 5.68854 -1.43604 0
M  V30 3331 C 320.759 6.04852 -1.85301 0
M  V30 3332 C 319.423 6.31855 -2.15211 0
M  V30 3333 H 318.693 0.723507 0.16006 0
M  V30 3334 H 321.34 1.89166 -0.298056 0
M  V30 3335 H 319.645 3.50599 1.74894 0
M  V30 3336 H 321.342 3.74337 1.43781 0
M  V30 3337 H 317.932 4.28458 0.11023 0
M  V30 3338 H 322.116 4.92222 -0.634901 0
M  V30 3339 H 317.372 5.88047 -1.67364 0
M  V30 3340 H 321.546 6.53152 -2.41591 0
M  V30 3341 H 319.173 7.00994 -2.94129 0
M  V30 3342 N 320.748 -0.0735177 1.57428 0
M  V30 3343 C 321.698 -1.09442 2.00016 0
M  V30 3344 C 322.682 -1.34575 0.881947 0
M  V30 3345 O 323.874 -1.34905 1.14585 0
M  V30 3346 C 321.003 -2.40865 2.4462 0
M  V30 3347 C 320.089 -2.19014 3.63172 0
M  V30 3348 N 320.48 -1.67087 4.77405 0
M  V30 3349 C 318.778 -2.49494 3.69688 0
M  V30 3350 C 319.479 -1.6001 5.5926 0
M  V30 3351 N 318.455 -2.05999 5.03056 0
M  V30 3352 H 322.257 -0.686227 2.85776 0
M  V30 3353 H 319.771 -0.280617 1.59957 0
M  V30 3354 H 321.768 -3.14763 2.73368 0
M  V30 3355 H 320.428 -2.82403 1.60246 0
M  V30 3356 H 321.439 -1.35975 4.99731 0
M  V30 3357 H 318.116 -2.94409 2.96023 0
M  V30 3358 H 319.506 -1.2073 6.60964 0
M  V30 3359 N 322.226 -1.5378 -0.344866 0
M  V30 3360 C 323.189 -1.80981 -1.40637 0
M  V30 3361 C 324.189 -0.680816 -1.45676 0
M  V30 3362 O 325.379 -0.949095 -1.46075 0
M  V30 3363 C 322.511 -1.95063 -2.79577 0
M  V30 3364 H 323.704 -2.75803 -1.17783 0
M  V30 3365 H 321.257 -1.45173 -0.579181 0
M  V30 3366 H 321.992 -1.02379 -3.07716 0
M  V30 3367 H 321.777 -2.77198 -2.77315 0
M  V30 3368 H 323.267 -2.17629 -3.56409 0
M  V30 3369 N 323.704 0.605807 -1.45491 0
M  V30 3370 C 324.952 1.36207 -1.49305 0
M  V30 3371 C 325.273 1.94519 -0.136863 0
M  V30 3372 O 324.543 1.77261 0.833983 0
M  V30 3373 H 323.123 0.50565 -0.549843 0
M  V30 3374 H 325.785 0.711239 -1.81459 0
M  V30 3375 H 324.881 2.18058 -2.23287 0
M  V30 3376 N 325.182 1.32811 0.848464 0
M  V30 3377 C 326.428 1.24917 1.60522 0
M  V30 3378 C 326.783 -0.185761 1.91501 0
M  V30 3379 O 326.076 -1.12524 1.55077 0
M  V30 3380 C 326.27 2.04831 2.92881 0
M  V30 3381 C 326.099 3.55949 2.74828 0
M  V30 3382 C 324.869 4.25277 2.72887 0
M  V30 3383 C 327.067 4.50476 2.48145 0
M  V30 3384 N 325.049 5.62408 2.46111 0
M  V30 3385 C 326.42 5.75427 2.30832 0
M  V30 3386 C 328.475 4.39665 2.33664 0
M  V30 3387 C 327.178 6.90789 2.00508 0
M  V30 3388 C 329.204 5.54833 2.04731 0
M  V30 3389 C 328.566 6.78787 1.88223 0
M  V30 3390 H 324.665 0.512279 0.590842 0
M  V30 3391 H 327.249 1.67246 0.996839 0
M  V30 3392 H 325.42 1.64837 3.51686 0
M  V30 3393 H 327.152 1.88782 3.57971 0
M  V30 3394 H 323.907 3.77456 2.86049 0
M  V30 3395 H 324.331 6.3467 2.35634 0
M  V30 3396 H 328.973 3.44477 2.45144 0
M  V30 3397 H 326.691 7.85984 1.87765 0
M  V30 3398 H 330.277 5.48398 1.94295 0
M  V30 3399 H 329.157 7.66396 1.66155 0
M  V30 3400 N 326.66 -1.06551 1.16123 0
M  V30 3401 C 327.593 -2.13382 0.80892 0
M  V30 3402 C 328.571 -1.61128 -0.21827 0
M  V30 3403 O 329.755 -1.88219 -0.102952 0
M  V30 3404 C 326.882 -3.38083 0.204303 0
M  V30 3405 C 325.928 -4.09133 1.20469 0
M  V30 3406 S 326.761 -4.5948 2.75024 0
M  V30 3407 C 327.917 -5.87446 2.16005 0
M  V30 3408 H 328.15 -2.42937 1.71373 0
M  V30 3409 H 325.683 -1.18947 0.984428 0
M  V30 3410 H 327.641 -4.10268 -0.138081 0
M  V30 3411 H 326.302 -3.0669 -0.678234 0
M  V30 3412 H 325.495 -4.98685 0.730019 0
M  V30 3413 H 325.097 -3.4295 1.49202 0
M  V30 3414 H 327.389 -6.60065 1.5271 0
M  V30 3415 H 328.332 -6.39639 3.03756 0
M  V30 3416 H 328.74 -5.41354 1.59989 0
M  V30 3417 N 328.138 -0.959301 -1.25041 0
M  V30 3418 C 329.07 -0.440543 -2.24926 0
M  V30 3419 C 330.083 0.446131 -1.56568 0
M  V30 3420 O 331.272 0.253657 -1.76689 0
M  V30 3421 C 328.372 0.38412 -3.36716 0
M  V30 3422 C 327.545 -0.490658 -4.34639 0
M  V30 3423 C 326.604 0.276587 -5.25473 0
M  V30 3424 O 325.63 -0.326614 -5.68262 0
M  V30 3425 N 326.832 1.56844 -5.5891 0
M  V30 3426 H 329.597 -1.29931 -2.70071 0
M  V30 3427 H 327.158 -0.830181 -1.38995 0
M  V30 3428 H 329.15 0.905228 -3.94446 0
M  V30 3429 H 327.72 1.14377 -2.90924 0
M  V30 3430 H 326.94 -1.19282 -3.7572 0
M  V30 3431 H 328.228 -1.08756 -4.97041 0
M  V30 3432 H 327.626 2.08036 -5.26059 0
M  V30 3433 H 326.183 2.03541 -6.19205 0
M  V30 3434 N 329.616 1.39756 -0.72842 0
M  V30 3435 C 331.027 1.83498 -0.344289 0
M  V30 3436 C 331.378 1.60868 1.12321 0
M  V30 3437 O 330.503 1.09634 1.86573 0
M  V30 3438 C 331.098 3.33114 -0.618112 0
M  V30 3439 C 329.657 3.753 -0.287549 0
M  V30 3440 C 328.804 2.62831 -0.884048 0
M  V30 3441 H 331.755 1.28842 -0.926578 0
M  V30 3442 H 331.776 3.80334 0.112349 0
M  V30 3443 H 331.288 3.49553 -1.68625 0
M  V30 3444 H 329.389 3.64451 0.775012 0
M  V30 3445 H 329.502 4.72945 -0.765512 0
M  V30 3446 H 327.866 2.52792 -0.311149 0
M  V30 3447 H 328.649 2.82078 -1.95671 0
M  V30 3448 N 331.094 0.475555 1.50254 0
M  V30 3449 C 332.34 -0.0780073 2.0265 0
M  V30 3450 C 332.673 -1.38968 1.35652 0
M  V30 3451 O 331.948 -1.8839 0.483691 0
M  V30 3452 C 332.231 -0.257161 3.59181 0
M  V30 3453 C 332.084 1.07585 4.36744 0
M  V30 3454 C 333.403 -1.00965 4.28362 0
M  V30 3455 H 330.522 -0.0268758 0.73651 0
M  V30 3456 H 333.164 0.622015 1.7953 0
M  V30 3457 H 331.314 -0.853412 3.79011 0
M  V30 3458 H 332.986 1.70902 4.28474 0
M  V30 3459 H 331.229 1.6714 4.00308 0
M  V30 3460 H 331.9 0.904088 5.44546 0
M  V30 3461 H 334.376 -0.504214 4.13034 0
M  V30 3462 H 333.252 -1.10381 5.37687 0
M  V30 3463 H 333.513 -2.04731 3.91839 0
M  V30 3464 N 332.573 -1.56217 0.208337 0
M  V30 3465 C 333.483 -2.23316 -0.718836 0
M  V30 3466 C 334.499 -1.23648 -1.22422 0
M  V30 3467 O 335.675 -1.56423 -1.26861 0
M  V30 3468 C 332.74 -2.88968 -1.91568 0
M  V30 3469 C 331.801 -4.03943 -1.45357 0
M  V30 3470 C 331.034 -4.66455 -2.59337 0
M  V30 3471 O 331.257 -4.27919 -3.77149 0
M  V30 3472 O 330.191 -5.55686 -2.31293 0
M  V30 3473 H 334.017 -3.03182 -0.177315 0
M  V30 3474 H 331.602 -1.49384 -0.0215402 0
M  V30 3475 H 333.484 -3.30455 -2.61491 0
M  V30 3476 H 332.159 -2.12071 -2.44556 0
M  V30 3477 H 331.066 -3.67052 -0.722746 0
M  V30 3478 H 332.399 -4.82543 -0.970219 0
M  V30 3479 N 334.051 0.0651679 -1.57465 0
M  V30 3480 C 334.961 1.09448 -2.07505 0
M  V30 3481 C 335.977 1.41974 -1.00595 0
M  V30 3482 O 337.153 1.52018 -1.32107 0
M  V30 3483 C 334.218 2.38689 -2.51453 0
M  V30 3484 C 333.279 2.13073 -3.72691 0
M  V30 3485 C 332.512 3.36152 -4.14533 0
M  V30 3486 O 332.735 4.45517 -3.56189 0
M  V30 3487 O 331.669 3.23974 -5.07272 0
M  V30 3488 H 335.495 0.69935 -2.95538 0
M  V30 3489 H 333.08 0.279752 -1.46757 0
M  V30 3490 H 334.962 3.14736 -2.80212 0
M  V30 3491 H 333.637 2.77568 -1.66546 0
M  V30 3492 H 332.544 1.34709 -3.49005 0
M  V30 3493 H 333.877 1.79071 -4.5847 0
M  V30 3494 N 335.529 1.53961 0.336706 0
M  V30 3495 C 336.769 1.73254 1.08454 0
M  V30 3496 C 337.133 0.488937 1.8567 0
M  V30 3497 O 338.334 0.559001 2.62923 0
M  V30 3498 C 336.605 2.96519 1.99528 0
M  V30 3499 S 338.164 3.36655 2.81441 0
M  V30 3500 H 334.982 0.609353 0.366347 0
M  V30 3501 H 337.584 1.92117 0.362124 0
M  V30 3502 H 336.288 3.85193 1.41614 0
M  V30 3503 H 335.819 2.80142 2.76196 0
M  V30 3504 H 337.834 2.90925 4.01967 0
M  V30 3505 N 337.007 -0.598083 1.45811 0
M  V30 3506 C 338.235 -1.38322 1.53866 0
M  V30 3507 C 338.65 -1.87992 0.174479 0
M  V30 3508 O 338.007 -1.62756 -0.825627 0
M  V30 3509 C 338.058 -2.58125 2.53089 0
M  V30 3510 O 337.779 -2.10516 3.84206 0
M  V30 3511 C 339.28 -3.50869 2.70935 0
M  V30 3512 H 336.5 -0.423093 0.520801 0
M  V30 3513 H 339.044 -0.728527 1.91083 0
M  V30 3514 H 337.199 -3.19615 2.18917 0
M  V30 3515 H 337.613 -2.88425 4.38077 0
M  V30 3516 H 339.087 -4.31451 3.44317 0
M  V30 3517 H 339.564 -4.01822 1.77301 0
M  V30 3518 H 340.17 -2.95225 3.06141 0
M  V30 3519 N 338.485 -1.33259 -0.841409 0
M  V30 3520 C 339.395 -1.25332 -1.98316 0
M  V30 3521 C 340.411 -0.164364 -1.73222 0
M  V30 3522 O 341.587 -0.387486 -1.97637 0
M  V30 3523 C 338.652 -0.990078 -3.32262 0
M  V30 3524 C 337.713 -2.16879 -3.70489 0
M  V30 3525 C 336.946 -1.91801 -4.98044 0
M  V30 3526 O 337.169 -0.867075 -5.63771 0
M  V30 3527 O 336.103 -2.78267 -5.33714 0
M  V30 3528 H 339.929 -2.21344 -2.07944 0
M  V30 3529 H 337.514 -1.1328 -0.974058 0
M  V30 3530 H 339.396 -0.860321 -4.12524 0
M  V30 3531 H 338.071 -0.0602155 -3.23644 0
M  V30 3532 H 336.978 -2.35407 -2.90748 0
M  V30 3533 H 338.311 -3.0819 -3.8377 0
M  V30 3534 N 339.963 1.05934 -1.16686 0
M  V30 3535 C 341.21 1.788 -0.950622 0
M  V30 3536 C 341.538 1.87384 0.521305 0
M  V30 3537 O 340.793 1.36438 1.40297 0
M  V30 3538 C 341.092 3.23105 -1.52767 0
M  V30 3539 C 340.758 3.34594 -3.02254 0
M  V30 3540 C 339.42 3.37437 -3.43059 0
M  V30 3541 C 341.772 3.36219 -3.98254 0
M  V30 3542 C 339.1 3.39525 -4.78477 0
M  V30 3543 C 341.452 3.39845 -5.33562 0
M  V30 3544 C 340.116 3.40971 -5.73842 0
M  V30 3545 H 339.386 0.654275 -0.347857 0
M  V30 3546 H 342.033 1.24555 -1.45459 0
M  V30 3547 H 340.338 3.80227 -0.94524 0
M  V30 3548 H 342.035 3.7809 -1.336 0
M  V30 3549 H 338.625 3.3309 -2.6972 0
M  V30 3550 H 342.809 3.33231 -3.67792 0
M  V30 3551 H 338.065 3.38703 -5.09009 0
M  V30 3552 H 342.239 3.4005 -6.07733 0
M  V30 3553 H 339.866 3.42342 -6.78753 0
M  V30 3554 N 341.441 0.965919 1.2453 0
M  V30 3555 C 342.351 0.502154 2.29163 0
M  V30 3556 C 343.367 -0.436017 1.68448 0
M  V30 3557 O 344.543 -0.309497 1.99008 0
M  V30 3558 C 341.608 -0.201956 3.46111 0
M  V30 3559 C 340.669 0.775821 4.22232 0
M  V30 3560 C 339.902 0.105217 5.33596 0
M  V30 3561 O 340.125 -1.10683 5.59558 0
M  V30 3562 O 339.059 0.796475 5.96607 0
M  V30 3563 H 342.885 1.37194 2.70946 0
M  V30 3564 H 340.47 0.732875 1.30189 0
M  V30 3565 H 342.352 -0.597564 4.17142 0
M  V30 3566 H 341.027 -1.04673 3.06309 0
M  V30 3567 H 339.934 1.22185 3.53584 0
M  V30 3568 H 341.267 1.58896 4.65846 0
M  V30 3569 N 342.919 -1.39368 0.735821 0
M  V30 3570 C 344.168 -1.99733 0.281004 0
M  V30 3571 C 344.481 -1.59055 -1.13846 0
M  V30 3572 O 345.687 -2.12262 -1.69284 0
M  V30 3573 C 344.143 -3.57057 0.451462 0
M  V30 3574 C 343.751 -4.06697 1.87886 0
M  V30 3575 C 345.495 -4.2446 0.0584616 0
M  V30 3576 C 343.402 -5.56598 1.99883 0
M  V30 3577 H 342.332 -0.747163 0.101311 0
M  V30 3578 H 344.983 -1.59357 0.909819 0
M  V30 3579 H 343.365 -3.95234 -0.246263 0
M  V30 3580 H 344.539 -3.79853 2.60861 0
M  V30 3581 H 342.854 -3.5196 2.22515 0
M  V30 3582 H 345.451 -5.34549 0.127099 0
M  V30 3583 H 345.794 -4.04444 -0.986433 0
M  V30 3584 H 346.327 -3.9146 0.707374 0
M  V30 3585 H 343.066 -5.81494 3.02564 0
M  V30 3586 H 342.586 -5.85242 1.31346 0
M  V30 3587 H 344.265 -6.22022 1.78039 0
M  V30 3588 N 344.397 -0.483516 -1.5 0
M  V30 3589 C 345.329 0.340634 -2.26655 0
M  V30 3590 C 346.342 0.946152 -1.32483 0
M  V30 3591 O 347.531 0.832453 -1.579 0
M  V30 3592 C 344.631 1.4929 -3.04246 0
M  V30 3593 C 343.804 0.997903 -4.25865 0
M  V30 3594 C 342.863 2.02569 -4.85646 0
M  V30 3595 O 341.889 1.60128 -5.46212 0
M  V30 3596 N 343.091 3.3548 -4.73744 0
M  V30 3597 H 345.856 -0.316577 -2.98023 0
M  V30 3598 H 343.417 -0.315024 -1.58806 0
M  V30 3599 H 345.409 2.17766 -3.41116 0
M  V30 3600 H 343.979 2.05458 -2.35597 0
M  V30 3601 H 343.199 0.138617 -3.93956 0
M  V30 3602 H 344.487 0.645305 -5.04691 0
M  V30 3603 H 343.885 3.72661 -4.25605 0
M  V30 3604 H 342.442 3.99718 -5.14848 0
M  V30 3605 N 345.875 1.56104 -0.216619 0
M  V30 3606 C 346.823 2.21434 0.712036 0
M  V30 3607 C 347.817 1.19218 1.20348 0
M  V30 3608 O 349.023 1.3731 1.16387 0
M  V30 3609 H 345.398 0.70992 0.248026 0
M  V30 3610 H 347.369 2.98083 0.137558 0
M  V30 3611 C 346.118 2.90434 1.91163 0
M  V30 3612 H 345.441 3.68842 1.54258 0
M  V30 3613 H 346.881 3.39552 2.5393 0
M  V30 3614 C 345.34 1.92635 2.76394 0
M  V30 3615 O 345.87 1.44017 3.74996 0
M  V30 3616 N 344.076 1.60392 2.42328 0
M  V30 3617 H 343.623 2.00122 1.622 0
M  V30 3618 H 343.581 0.952159 2.99635 0
M  V30 3619 N 347.353 -0.0568162 1.57498 0
M  V30 3620 C 348.599 -0.75422 1.88253 0
M  V30 3621 C 348.932 -1.76461 0.810865 0
M  V30 3622 O 348.207 -1.93691 -0.177259 0
M  V30 3623 C 348.49 -1.44878 3.2967 0
M  V30 3624 C 348.343 -0.453789 4.47505 0
M  V30 3625 C 349.662 -2.38994 3.69554 0
M  V30 3626 H 346.781 -0.272724 0.684683 0
M  V30 3627 H 349.423 -0.0172113 1.89992 0
M  V30 3628 H 347.573 -2.077 3.28318 0
M  V30 3629 H 349.245 0.170371 4.60985 0
M  V30 3630 H 347.488 0.229552 4.33192 0
M  V30 3631 H 348.159 -0.977699 5.43273 0
M  V30 3632 H 350.635 -1.86239 3.72095 0
M  V30 3633 H 349.511 -2.84587 4.69363 0
M  V30 3634 H 349.772 -3.24461 3.00296 0
M  V30 3635 N 348.832 -1.54138 -0.328536 0
M  V30 3636 C 350.081 -1.71318 -1.06456 0
M  V30 3637 C 350.394 -0.491109 -1.89334 0
M  V30 3638 O 351.6 -0.54416 -2.65991 0
M  V30 3639 C 350.056 -3.03 -1.94214 0
M  V30 3640 C 349.664 -4.32595 -1.16471 0
M  V30 3641 C 351.408 -3.29544 -2.67583 0
M  V30 3642 C 349.315 -5.55341 -2.03347 0
M  V30 3643 H 348.245 -0.638429 -0.401155 0
M  V30 3644 H 350.896 -1.80633 -0.323106 0
M  V30 3645 H 349.278 -2.87579 -2.72239 0
M  V30 3646 H 350.452 -4.58766 -0.432525 0
M  V30 3647 H 348.767 -4.12777 -0.548063 0
M  V30 3648 H 351.364 -4.18444 -3.3288 0
M  V30 3649 H 351.707 -2.47206 -3.34955 0
M  V30 3650 H 352.24 -3.45809 -1.96623 0
M  V30 3651 H 348.979 -6.40268 -1.40491 0
M  V30 3652 H 348.499 -5.33397 -2.74313 0
M  V30 3653 H 350.178 -5.91557 -2.62049 0
M  V30 3654 N 350.31 0.590341 -1.46126 0
M  V30 3655 C 351.535 1.37991 -1.54833 0
M  V30 3656 C 351.96 1.87163 -0.187506 0
M  V30 3657 O 351.318 1.61133 0.831008 0
M  V30 3658 C 351.366 2.54867 -2.55098 0
M  V30 3659 O 350.47 3.56061 -2.08073 0
M  V30 3660 H 349.811 0.411265 -0.521303 0
M  V30 3661 H 352.341 0.716819 -1.91632 0
M  V30 3662 H 352.351 3.01886 -2.74461 0
M  V30 3663 H 351.026 2.18429 -3.53923 0
M  V30 3664 H 349.603 3.15574 -1.98664 0
M  V30 3665 N 351.788 1.33704 0.83433 0
M  V30 3666 C 353.013 1.28615 1.62705 0
M  V30 3667 C 353.438 -0.139242 1.87584 0
M  V30 3668 O 352.796 -1.09734 1.4432 0
M  V30 3669 C 352.844 2.07139 2.95171 0
M  V30 3670 O 351.948 1.4331 3.86699 0
M  V30 3671 H 351.289 0.44226 0.49528 0
M  V30 3672 H 353.819 1.76335 1.03766 0
M  V30 3673 H 353.829 2.18073 3.44831 0
M  V30 3674 H 352.504 3.10779 2.76386 0
M  V30 3675 H 351.081 1.4105 3.45195 0
M  V30 3676 N 353.266 -1.05314 1.17247 0
M  V30 3677 C 354.512 -1.78557 0.961513 0
M  V30 3678 C 354.845 -1.87419 -0.508697 0
M  V30 3679 O 354.12 -1.37307 -1.37757 0
M  V30 3680 C 354.403 -3.22514 1.60176 0
M  V30 3681 C 354.256 -3.21673 3.14399 0
M  V30 3682 C 355.575 -4.20318 1.30463 0
M  V30 3683 H 352.694 -0.6482 0.350723 0
M  V30 3684 H 355.336 -1.23102 1.44727 0
M  V30 3685 H 353.486 -3.69867 1.18871 0
M  V30 3686 H 355.158 -2.82405 3.64753 0
M  V30 3687 H 353.401 -2.60048 3.47214 0
M  V30 3688 H 354.072 -4.23271 3.54324 0
M  V30 3689 H 356.548 -3.81454 1.66229 0
M  V30 3690 H 355.424 -5.19289 1.77848 0
M  V30 3691 H 355.685 -4.41526 0.22521 0
M  V30 3692 N 354.744 -0.972509 -1.24016 0
M  V30 3693 C 355.972 -0.654803 -1.96265 0
M  V30 3694 C 356.387 0.776708 -1.72083 0
M  V30 3695 O 355.744 1.52171 -1.00748 0
M  V30 3696 C 355.795 -0.92592 -3.49441 0
M  V30 3697 O 355.516 -2.30116 -3.72798 0
M  V30 3698 C 357.017 -0.623068 -4.38899 0
M  V30 3699 H 354.237 -0.243907 -0.6251 0
M  V30 3700 H 356.781 -1.30175 -1.57717 0
M  V30 3701 H 354.936 -0.325108 -3.86033 0
M  V30 3702 H 355.35 -2.38483 -4.67147 0
M  V30 3703 H 356.824 -0.863189 -5.45209 0
M  V30 3704 H 357.301 0.442754 -4.36963 0
M  V30 3705 H 357.907 -1.204 -4.07902 0
M  V30 3706 N 356.222 1.38976 -0.743202 0
M  V30 3707 C 357.172 2.27843 -0.084513 0
M  V30 3708 C 358.156 1.44677 0.704094 0
M  V30 3709 O 359.348 1.67511 0.571755 0
M  V30 3710 C 356.477 3.33466 0.815781 0
M  V30 3711 C 355.563 4.24095 0.0208844 0
M  V30 3712 N 355.954 4.95609 -1.0102 0
M  V30 3713 C 354.252 4.45303 0.249293 0
M  V30 3714 C 354.953 5.62287 -1.49024 0
M  V30 3715 N 353.929 5.37571 -0.807377 0
M  V30 3716 H 357.731 2.80593 -0.87436 0
M  V30 3717 H 355.245 1.51755 -0.578283 0
M  V30 3718 H 357.242 3.96008 1.30321 0
M  V30 3719 H 355.902 2.82276 1.6047 0
M  V30 3720 H 356.913 4.98849 -1.39176 0
M  V30 3721 H 353.59 4.0504 1.01237 0
M  V30 3722 H 354.98 6.29519 -2.34853 0
M  V30 3723 N 357.7 0.491464 1.49741 0
M  V30 3724 C 359.111 0.0413169 1.86654 0
M  V30 3725 C 359.462 -1.36985 1.40462 0
M  V30 3726 O 358.587 -2.01917 0.778354 0
M  V30 3727 C 359.182 0.0682023 3.38731 0
M  V30 3728 C 357.741 -0.32656 3.74981 0
M  V30 3729 C 356.888 0.444888 2.73708 0
M  V30 3730 H 359.839 0.704733 1.42194 0
M  V30 3731 H 359.86 -0.729322 3.73445 0
M  V30 3732 H 359.372 1.09539 3.72321 0
M  V30 3733 H 357.473 -1.35734 3.46997 0
M  V30 3734 H 357.586 -0.013741 4.79098 0
M  V30 3735 H 355.95 -0.104062 2.54487 0
M  V30 3736 H 356.733 1.47197 3.10142 0
M  V30 3737 N 359.178 -1.55987 0.224894 0
M  V30 3738 C 360.128 -2.17076 -0.697296 0
M  V30 3739 C 361.112 -1.12006 -1.15514 0
M  V30 3740 O 362.304 -1.37985 -1.10857 0
M  V30 3741 C 359.433 -2.85679 -1.90374 0
M  V30 3742 C 358.519 -3.97977 -1.46543 0
M  V30 3743 N 358.91 -5.00359 -0.739909 0
M  V30 3744 C 357.208 -4.10128 -1.75245 0
M  V30 3745 C 357.909 -5.79407 -0.515939 0
M  V30 3746 N 356.885 -5.32892 -1.07364 0
M  V30 3747 H 360.687 -2.93592 -0.134594 0
M  V30 3748 H 358.201 -1.62379 0.0262885 0
M  V30 3749 H 360.198 -3.27857 -2.57518 0
M  V30 3750 H 358.858 -2.1066 -2.47088 0
M  V30 3751 H 359.869 -5.16412 -0.392253 0
M  V30 3752 H 356.546 -3.46263 -2.33255 0
M  V30 3753 H 357.936 -6.71872 0.0617349 0
M  V30 3754 N 360.656 0.0484629 -1.57525 0
M  V30 3755 C 361.903 0.743125 -1.88372 0
M  V30 3756 C 362.231 1.76383 -0.819715 0
M  V30 3757 O 361.486 1.94855 0.181659 0
M  V30 3758 C 361.785 1.46632 -3.25935 0
M  V30 3759 C 361.451 0.583427 -4.4711 0
M  V30 3760 C 360.113 0.340191 -4.79996 0
M  V30 3761 C 362.465 -0.0273345 -5.21193 0
M  V30 3762 C 359.793 -0.522903 -5.84365 0
M  V30 3763 C 362.145 -0.878017 -6.26477 0
M  V30 3764 C 360.809 -1.1309 -6.5785 0
M  V30 3765 H 360.079 0.271929 -0.689301 0
M  V30 3766 H 362.726 0.00336166 -1.915 0
M  V30 3767 H 361.031 2.2789 -3.18706 0
M  V30 3768 H 362.728 2.00902 -3.47044 0
M  V30 3769 H 359.318 0.783151 -4.21384 0
M  V30 3770 H 363.502 0.147654 -4.9608 0
M  V30 3771 H 358.758 -0.727335 -6.07058 0
M  V30 3772 H 362.932 -1.35789 -6.83033 0
M  V30 3773 H 360.559 -1.80144 -7.38547 0
M  V30 3774 N 362.134 1.5431 0.320358 0
M  V30 3775 C 363.067 1.78769 1.41834 0
M  V30 3776 C 364.045 0.63783 1.49568 0
M  V30 3777 O 365.229 0.875628 1.66928 0
M  V30 3778 C 362.356 1.90712 2.79905 0
M  V30 3779 C 361.402 3.13023 2.89687 0
M  V30 3780 S 362.235 4.71554 2.53766 0
M  V30 3781 C 363.391 4.86408 3.93902 0
M  V30 3782 H 363.624 2.71619 1.20874 0
M  V30 3783 H 361.157 1.45474 0.517377 0
M  V30 3784 H 363.115 1.98279 3.59438 0
M  V30 3785 H 361.776 0.988343 2.98145 0
M  V30 3786 H 360.969 3.18124 3.90913 0
M  V30 3787 H 360.571 3.03803 2.18128 0
M  V30 3788 H 362.863 4.69241 4.88691 0
M  V30 3789 H 363.806 5.88508 3.93782 0
M  V30 3790 H 364.214 4.14689 3.83005 0
M  V30 3791 N 363.613 -0.582584 1.46437 0
M  V30 3792 C 365.024 -1.1647 1.45916 0
M  V30 3793 C 365.375 -1.95177 0.200077 0
M  V30 3794 O 364.5 -2.04874 -0.696819 0
M  V30 3795 C 365.095 -2.11885 2.64367 0
M  V30 3796 C 363.654 -2.65421 2.66887 0
M  V30 3797 C 362.801 -1.41294 2.38603 0
M  V30 3798 H 365.752 -0.370514 1.54314 0
M  V30 3799 H 365.773 -2.9535 2.39892 0
M  V30 3800 H 365.285 -1.54573 3.5599 0
M  V30 3801 H 363.386 -3.26602 1.79338 0
M  V30 3802 H 363.499 -3.08147 3.66854 0
M  V30 3803 H 361.863 -1.71109 1.88663 0
M  V30 3804 H 362.646 -0.858125 3.32402 0
M  V30 3805 N 365.091 -1.34144 -0.827227 0
M  V30 3806 C 366.507 -1.13732 -1.11969 0
M  V30 3807 C 366.707 0.0640463 -2.01398 0
M  V30 3808 O 365.763 0.740856 -2.41387 0
M  V30 3809 C 367.076 -2.43047 -1.77055 0
M  V30 3810 C 368.624 -2.49063 -1.89569 0
M  V30 3811 C 369.099 -3.78369 -2.58072 0
M  V30 3812 N 370.59 -3.79505 -2.65575 0
M  V30 3813 C 371.325 -4.76274 -3.19297 0
M  V30 3814 N 370.821 -5.83424 -3.73616 0
M  V30 3815 N 372.614 -4.63735 -3.17658 0
M  V30 3816 H 364.765 -2.11126 -0.232296 0
M  V30 3817 H 367.028 -0.933424 -0.165602 0
M  V30 3818 H 366.734 -3.31025 -1.18807 0
M  V30 3819 H 366.608 -2.56066 -2.76966 0
M  V30 3820 H 368.995 -1.61527 -2.46968 0
M  V30 3821 H 369.076 -2.39975 -0.885745 0
M  V30 3822 H 368.72 -4.66293 -2.01329 0
M  V30 3823 H 368.65 -3.84737 -3.59562 0
M  V30 3824 H 371.141 -3.02074 -2.27068 0
M  V30 3825 H 371.454 -6.53282 -4.12846 0
M  V30 3826 H 369.799 -5.87143 -3.71871 0
M  V30 3827 H 372.99 -3.79177 -2.74486 0
M  V30 3828 H 373.163 -5.39318 -3.59221 0
M  V30 3829 N 366.569 1.04691 -1.17803 0
M  V30 3830 C 367.499 2.14494 -0.92275 0
M  V30 3831 C 368.48 1.69546 0.137179 0
M  V30 3832 O 369.665 1.94195 -0.0141108 0
M  V30 3833 C 366.795 3.44491 -0.440803 0
M  V30 3834 C 365.749 4.03031 -1.4405 0
M  V30 3835 C 365.075 5.28432 -0.81631 0
M  V30 3836 C 366.375 4.39932 -2.81527 0
M  V30 3837 H 368.069 2.36107 -1.84103 0
M  V30 3838 H 365.615 1.1347 -0.886599 0
M  V30 3839 H 367.568 4.2066 -0.249602 0
M  V30 3840 H 366.292 3.22546 0.513025 0
M  V30 3841 H 364.951 3.28937 -1.61853 0
M  V30 3842 H 364.599 5.02792 0.144511 0
M  V30 3843 H 364.299 5.68559 -1.48371 0
M  V30 3844 H 365.823 6.07284 -0.635496 0
M  V30 3845 H 367.237 5.07113 -2.67412 0
M  V30 3846 H 365.634 4.9109 -3.44892 0
M  V30 3847 H 366.704 3.50045 -3.35554 0
M  V30 3848 N 368.047 0.979072 1.23499 0
M  V30 3849 C 368.994 0.517904 2.24914 0
M  V30 3850 C 369.964 -0.442525 1.60097 0
M  V30 3851 O 371.149 -0.350365 1.87556 0
M  V30 3852 C 368.289 -0.174813 3.44657 0
M  V30 3853 C 367.402 0.825721 4.24035 0
M  V30 3854 C 366.537 0.107946 5.3109 0
M  V30 3855 C 365.576 1.09778 6.02175 0
M  V30 3856 N 364.713 0.40925 7.00906 0
M  V30 3857 H 369.553 1.38751 2.63727 0
M  V30 3858 H 367.09 0.695303 1.2963 0
M  V30 3859 H 369.048 -0.593233 4.12961 0
M  V30 3860 H 367.678 -1.0083 3.06648 0
M  V30 3861 H 366.73 1.36253 3.55161 0
M  V30 3862 H 368.042 1.58005 4.73113 0
M  V30 3863 H 367.196 -0.367904 6.05583 0
M  V30 3864 H 365.935 -0.678994 4.8295 0
M  V30 3865 H 364.94 1.5844 5.26476 0
M  V30 3866 H 366.165 1.88536 6.52404 0
M  V30 3867 H 364.111 -0.358506 6.5502 0
M  V30 3868 H 364.028 1.10226 7.47921 0
M  V30 3869 H 365.296 -0.0442557 7.79487 0
M  V30 3870 N 369.525 -1.3858 0.750561 0
M  V30 3871 C 370.941 -1.53759 0.427824 0
M  V30 3872 C 371.141 -1.71401 -1.05943 0
M  V30 3873 O 370.197 -1.72331 -1.84549 0
M  V30 3874 C 371.51 -2.74642 1.22443 0
M  V30 3875 C 373.058 -2.88489 1.2142 0
M  V30 3876 C 373.533 -4.12329 1.9937 0
M  V30 3877 N 375.024 -4.194 1.96616 0
M  V30 3878 C 375.759 -5.14209 2.53727 0
M  V30 3879 N 375.255 -6.14709 3.19539 0
M  V30 3880 N 377.048 -5.06537 2.43673 0
M  V30 3881 H 369.199 -1.25377 1.71447 0
M  V30 3882 H 371.462 -0.608844 0.726645 0
M  V30 3883 H 371.168 -2.68 2.27747 0
M  V30 3884 H 371.042 -3.67745 0.839273 0
M  V30 3885 H 373.429 -2.94614 0.169232 0
M  V30 3886 H 373.51 -1.96406 1.63885 0
M  V30 3887 H 373.154 -4.06966 3.03877 0
M  V30 3888 H 373.084 -5.03486 1.54302 0
M  V30 3889 H 375.575 -3.47421 1.48684 0
M  V30 3890 H 375.888 -6.8354 3.60545 0
M  V30 3891 H 374.233 -6.1505 3.23633 0
M  V30 3892 H 377.424 -4.26962 1.91889 0
M  V30 3893 H 377.597 -5.80245 2.88479 0
M  V30 3894 N 371.003 -0.499398 -1.49478 0
M  V30 3895 C 372.25 0.0456899 -2.02448 0
M  V30 3896 C 372.578 1.37142 -1.37921 0
M  V30 3897 O 371.833 1.89111 -0.503544 0
M  V30 3898 C 372.132 0.248424 -3.56536 0
M  V30 3899 C 371.798 -0.999107 -4.39692 0
M  V30 3900 C 370.46 -1.34108 -4.62135 0
M  V30 3901 C 372.812 -1.82842 -4.88076 0
M  V30 3902 C 370.14 -2.51191 -5.30208 0
M  V30 3903 C 372.492 -2.99076 -5.57437 0
M  V30 3904 C 371.156 -3.33655 -5.78127 0
M  V30 3905 H 370.426 0.0167191 -0.740811 0
M  V30 3906 H 373.073 -0.65923 -1.79795 0
M  V30 3907 H 371.378 1.03586 -3.77859 0
M  V30 3908 H 373.075 0.684605 -3.95113 0
M  V30 3909 H 369.665 -0.722729 -4.22463 0
M  V30 3910 H 373.849 -1.57737 -4.70566 0
M  V30 3911 H 369.105 -2.78221 -5.44429 0
M  V30 3912 H 373.279 -3.63664 -5.93904 0
M  V30 3913 H 370.906 -4.24483 -6.30649 0
M  V30 3914 N 372.481 1.55866 -0.233164 0
M  V30 3915 C 373.411 2.23783 0.666599 0
M  V30 3916 C 374.392 1.21343 1.19205 0
M  V30 3917 O 375.577 1.4996 1.23392 0
M  V30 3918 C 372.707 2.92671 1.86978 0
M  V30 3919 C 371.661 4.01682 1.47768 0
M  V30 3920 C 370.987 4.57926 2.76058 0
M  V30 3921 C 372.287 5.18126 0.658993 0
M  V30 3922 H 373.981 2.99232 0.100306 0
M  V30 3923 H 371.527 1.43924 0.046804 0
M  V30 3924 H 373.48 3.3888 2.50476 0
M  V30 3925 H 372.204 2.14688 2.46123 0
M  V30 3926 H 370.863 3.56222 0.866106 0
M  V30 3927 H 370.511 3.76659 3.33372 0
M  V30 3928 H 370.211 5.31505 2.50552 0
M  V30 3929 H 371.735 5.06859 3.40479 0
M  V30 3930 H 373.149 5.60644 1.19795 0
M  V30 3931 H 371.546 5.98009 0.500552 0
M  V30 3932 H 372.616 4.83763 -0.331856 0
M  V30 3933 N 373.959 -0.0401083 1.57549 0
M  V30 3934 C 375.236 -0.767917 1.79896 0
M  V30 3935 C 375.616 -1.9416 0.82856 0
M  V30 3936 O 374.964 -2.2812 -0.131671 0
M  V30 3937 C 375.174 -1.2113 3.27305 0
M  V30 3938 C 376.522 -1.63175 3.91994 0
M  V30 3939 O 377.546 -1.30616 3.31388 0
M  V30 3940 O 376.405 -2.23565 4.98679 0
M  V30 3941 H 373.499 -0.370441 0.739393 0
M  V30 3942 H 376.045 -0.017737 1.69691 0
M  V30 3943 H 374.817 -0.372937 3.89519 0
M  V30 3944 H 374.44 -2.02183 3.42356 0
M  V30 3945 N 375.437 -1.54477 -0.31217 0
M  V30 3946 C 376.685 -1.72884 -1.04668 0
M  V30 3947 C 377.006 -0.511477 -1.88173 0
M  V30 3948 O 376.276 0.474407 -1.90069 0
M  V30 3949 H 374.856 -0.637461 -0.389425 0
M  V30 3950 H 377.518 -1.91807 -0.345852 0
M  V30 3951 H 376.614 -2.61334 -1.70619 0
M  V30 3952 N 376.915 0.57481 -1.46744 0
M  V30 3953 C 378.192 1.3352 -1.4294 0
M  V30 3954 C 378.572 2.10775 -0.117009 0
M  V30 3955 O 377.92 2.09966 0.901474 0
M  V30 3956 C 378.13 2.25456 -2.66403 0
M  V30 3957 C 379.478 2.87035 -3.12883 0
M  V30 3958 O 380.502 2.35766 -2.67007 0
M  V30 3959 O 379.361 3.80179 -3.92589 0
M  V30 3960 H 376.455 0.600318 -0.568812 0
M  V30 3961 H 379.001 0.595171 -1.58921 0
M  V30 3962 H 377.773 1.67851 -3.53471 0
M  V30 3963 H 377.396 3.06785 -2.52921 0
M  V30 3964 N 378.394 1.34581 0.820102 0
M  V30 3965 C 379.341 1.2639 1.93117 0
M  V30 3966 C 380.311 0.138554 1.65521 0
M  V30 3967 O 381.496 0.320004 1.88097 0
M  V30 3968 C 378.636 1.02812 3.29429 0
M  V30 3969 C 377.749 2.24146 3.693 0
M  V30 3970 C 376.884 1.93829 4.94574 0
M  V30 3971 C 375.923 3.1129 5.27034 0
M  V30 3972 N 375.06 2.80838 6.43486 0
M  V30 3973 H 379.9 2.21408 1.99455 0
M  V30 3974 H 377.437 1.10077 0.975784 0
M  V30 3975 H 379.395 0.871788 4.0799 0
M  V30 3976 H 378.025 0.114612 3.22596 0
M  V30 3977 H 377.077 2.50691 2.86109 0
M  V30 3978 H 378.389 3.11899 3.89257 0
M  V30 3979 H 377.543 1.74948 5.80929 0
M  V30 3980 H 376.282 1.03341 4.76626 0
M  V30 3981 H 375.287 3.30764 4.39175 0
M  V30 3982 H 376.512 4.02561 5.4692 0
M  V30 3983 H 374.458 1.92929 6.26988 0
M  V30 3984 H 374.375 3.62123 6.63629 0
M  V30 3985 H 375.643 2.65467 7.32903 0
M  V30 3986 N 379.872 -1.04064 1.18357 0
M  V30 3987 C 380.835 -2.10243 0.912707 0
M  V30 3988 C 381.835 -1.60477 -0.101928 0
M  V30 3989 O 383.025 -1.73703 0.131517 0
M  V30 3990 C 380.157 -3.38893 0.369387 0
M  V30 3991 H 381.35 -2.35706 1.85426 0
M  V30 3992 H 378.903 -1.20489 0.995594 0
M  V30 3993 H 379.638 -3.19094 -0.578776 0
M  V30 3994 H 379.423 -3.76331 1.1008 0
M  V30 3995 H 380.913 -4.17128 0.198575 0
M  V30 3996 N 381.35 -0.985608 -1.22978 0
M  V30 3997 C 382.627 -0.573599 -1.87001 0
M  V30 3998 C 383.007 0.949213 -1.88555 0
M  V30 3999 O 382.355 1.82811 -1.37086 0
M  V30 4000 C 382.565 -1.18564 -3.28243 0
M  V30 4001 C 383.913 -1.28163 -4.04796 0
M  V30 4002 O 384.937 -1.13949 -3.37482 0
M  V30 4003 O 383.796 -1.50832 -5.25273 0
M  V30 4004 H 380.89 -0.193868 -0.803955 0
M  V30 4005 H 383.436 -1.08102 -1.30813 0
M  V30 4006 H 382.208 -2.22758 -3.21706 0
M  V30 4007 H 381.831 -0.663363 -3.92027 0
M  V30 4008 N 382.828 1.3818 -0.7579 0
M  V30 4009 C 384.244 1.5353 -0.435972 0
M  V30 4010 C 384.444 1.71961 1.05032 0
M  V30 4011 O 383.5 1.73307 1.83633 0
M  V30 4012 C 384.813 2.73989 -1.23898 0
M  V30 4013 C 386.361 2.87841 -1.22949 0
M  V30 4014 C 386.836 4.11266 -2.01554 0
M  V30 4015 N 388.327 4.18352 -1.98837 0
M  V30 4016 C 389.062 5.12856 -2.5645 0
M  V30 4017 N 388.558 6.13005 -3.22794 0
M  V30 4018 N 390.351 5.05238 -2.46356 0
M  V30 4019 H 382.502 1.24467 -1.7211 0
M  V30 4020 H 384.765 0.604982 -0.729864 0
M  V30 4021 H 384.471 2.66789 -2.29165 0
M  V30 4022 H 384.345 3.67294 -0.858764 0
M  V30 4023 H 386.732 2.9452 -0.184854 0
M  V30 4024 H 386.813 1.95534 -1.64924 0
M  V30 4025 H 386.457 4.05349 -3.06031 0
M  V30 4026 H 386.387 5.02661 -1.5697 0
M  V30 4027 H 388.878 3.46628 -1.50524 0
M  V30 4028 H 389.191 6.81619 -3.64165 0
M  V30 4029 H 387.536 6.13325 -3.2689 0
M  V30 4030 H 390.727 4.25938 -1.9415 0
M  V30 4031 H 390.9 5.78707 -2.91552 0
M  V30 4032 N 384.306 0.507319 1.49211 0
M  V30 4033 C 385.269 -0.256763 2.27757 0
M  V30 4034 C 386.269 -0.888287 1.34038 0
M  V30 4035 O 387.459 -0.751841 1.5714 0
M  V30 4036 C 384.591 -1.36905 3.12202 0
M  V30 4037 H 385.784 0.432557 2.96764 0
M  V30 4038 H 383.337 0.262488 1.5408 0
M  V30 4039 H 384.072 -2.09233 2.47775 0
M  V30 4040 H 383.857 -0.921599 3.81115 0
M  V30 4041 H 385.347 -1.9071 3.7151 0
M  V30 4042 N 385.784 -1.5574 0.241426 0
M  V30 4043 C 386.716 -2.18469 -0.693091 0
M  V30 4044 C 387.729 -1.15942 -1.14286 0
M  V30 4045 O 388.918 -1.42832 -1.07058 0
M  V30 4046 C 386.018 -2.7696 -1.95311 0
M  V30 4047 C 385.191 -4.04853 -1.65568 0
M  V30 4048 C 384.25 -4.47715 -2.76474 0
M  V30 4049 O 383.276 -5.14205 -2.44094 0
M  V30 4050 N 384.478 -4.15044 -4.05855 0
M  V30 4051 H 387.243 -2.99292 -0.156388 0
M  V30 4052 H 384.804 -1.61784 0.0611752 0
M  V30 4053 H 386.796 -3.02594 -2.68736 0
M  V30 4054 H 385.366 -2.00326 -2.39975 0
M  V30 4055 H 384.586 -3.86865 -0.756886 0
M  V30 4056 H 385.874 -4.88246 -1.43153 0
M  V30 4057 H 385.272 -3.61654 -4.34998 0
M  V30 4058 H 383.829 -4.45526 -4.75762 0
M  V30 4059 N 387.262 0.0317525 -1.57568 0
M  V30 4060 C 388.508 0.724175 -1.8943 0
M  V30 4061 C 388.841 1.75149 -0.838836 0
M  V30 4062 O 388.116 1.93948 0.146422 0
M  V30 4063 C 388.399 1.39615 -3.31933 0
M  V30 4064 C 388.252 0.382537 -4.4817 0
M  V30 4065 C 389.571 2.33084 -3.73309 0
M  V30 4066 H 386.69 0.261797 -0.688935 0
M  V30 4067 H 389.332 -0.013017 -1.89996 0
M  V30 4068 H 387.482 2.02451 -3.31581 0
M  V30 4069 H 389.154 -0.243689 -4.60656 0
M  V30 4070 H 387.397 -0.29844 -4.32772 0
M  V30 4071 H 388.068 0.891145 -5.44759 0
M  V30 4072 H 390.544 1.80295 -3.7501 0
M  V30 4073 H 389.42 2.77084 -4.73831 0
M  V30 4074 H 389.681 3.19643 -3.05419 0
M  V30 4075 N 388.74 1.54641 0.303973 0
M  V30 4076 C 389.65 1.88439 1.39743 0
M  V30 4077 C 390.666 0.778239 1.55626 0
M  V30 4078 O 391.842 1.07442 1.70347 0
M  V30 4079 C 388.907 2.12212 2.74166 0
M  V30 4080 C 387.968 3.35936 2.67293 0
M  V30 4081 C 387.201 3.58566 3.95305 0
M  V30 4082 O 387.424 2.84263 4.9452 0
M  V30 4083 O 386.358 4.52078 3.97378 0
M  V30 4084 H 390.184 2.81458 1.14083 0
M  V30 4085 H 387.769 1.40793 0.499768 0
M  V30 4086 H 389.651 2.29067 3.53704 0
M  V30 4087 H 388.326 1.22379 2.99675 0
M  V30 4088 H 387.233 3.24448 1.86237 0
M  V30 4089 H 388.566 4.2589 2.46736 0
M  V30 4090 N 390.218 -0.567019 1.47046 0
M  V30 4091 C 391.148 -1.68482 1.61667 0
M  V30 4092 C 392.129 -1.6358 0.466418 0
M  V30 4093 O 393.314 -1.81354 0.694574 0
M  V30 4094 C 390.444 -3.07124 1.62148 0
M  V30 4095 C 389.398 -3.26867 2.76301 0
M  V30 4096 C 388.724 -4.66196 2.61849 0
M  V30 4097 C 390.024 -3.13186 4.17986 0
M  V30 4098 H 391.718 -1.56502 2.5524 0
M  V30 4099 H 389.264 -0.751486 1.22836 0
M  V30 4100 H 391.217 -3.8516 1.70968 0
M  V30 4101 H 389.941 -3.2004 0.651287 0
M  V30 4102 H 388.6 -2.51237 2.66975 0
M  V30 4103 H 388.248 -4.75898 1.62879 0
M  V30 4104 H 387.948 -4.80356 3.38425 0
M  V30 4105 H 389.472 -5.46379 2.72584 0
M  V30 4106 H 390.886 -3.81049 4.2834 0
M  V30 4107 H 389.283 -3.3886 4.95272 0
M  V30 4108 H 390.353 -2.10057 4.3704 0
M  V30 4109 N 391.696 -1.35014 -0.812953 0
M  V30 4110 C 393.107 -1.25035 -1.38648 0
M  V30 4111 C 393.458 0.119967 -1.95833 0
M  V30 4112 O 392.583 1.02069 -1.90816 0
M  V30 4113 C 393.178 -2.26394 -2.52054 0
M  V30 4114 C 391.737 -2.20175 -3.05287 0
M  V30 4115 C 390.884 -2.12451 -1.78213 0
M  V30 4116 H 393.835 -1.46235 -0.616516 0
M  V30 4117 H 393.856 -1.88672 -3.30429 0
M  V30 4118 H 393.368 -3.26116 -2.10404 0
M  V30 4119 H 391.469 -1.23841 -3.51417 0
M  V30 4120 H 391.582 -3.11863 -3.63701 0
M  V30 4121 H 389.946 -1.58328 -1.9951 0
M  V30 4122 H 390.729 -3.14024 -1.38723 0
M  V30 4123 N 393.175 1.03435 -1.18907 0
M  V30 4124 C 394.4 1.80919 -1.01406 0
M  V30 4125 C 394.825 1.83055 0.432721 0
M  V30 4126 O 394.183 1.25252 1.31079 0
M  V30 4127 C 394.231 3.24091 -1.58105 0
M  V30 4128 O 393.335 4.04434 -0.806669 0
M  V30 4129 H 392.676 0.558709 -0.358803 0
M  V30 4130 H 395.206 1.30223 -1.57807 0
M  V30 4131 H 395.216 3.74853 -1.61087 0
M  V30 4132 H 393.891 3.21851 -2.6341 0
M  V30 4133 H 392.468 3.63091 -0.849666 0
M  V30 4134 N 394.653 0.992116 1.22453 0
M  V30 4135 C 395.901 0.666215 1.90804 0
M  V30 4136 C 396.222 -0.804152 1.77647 0
M  V30 4137 O 395.492 -1.57629 1.16318 0
M  V30 4138 H 394.072 0.243423 0.706225 0
M  V30 4139 H 396.734 1.25845 1.48825 0
M  V30 4140 H 395.83 0.928069 2.97982 0
M  V30 4141 N 396.131 -1.37776 0.765217 0
M  V30 4142 C 397.378 -1.99849 0.326588 0
M  V30 4143 C 397.706 -1.60746 -1.09504 0
M  V30 4144 O 396.961 -0.84202 -1.76659 0
M  V30 4145 C 397.26 -3.5504 0.410053 0
M  V30 4146 C 396.926 -4.13891 1.78899 0
M  V30 4147 C 395.588 -4.29678 2.16635 0
M  V30 4148 C 397.94 -4.46236 2.69301 0
M  V30 4149 C 395.268 -4.7511 3.44221 0
M  V30 4150 C 397.62 -4.93089 3.9629 0
M  V30 4151 C 396.284 -5.07082 4.34078 0
M  V30 4152 H 395.554 -0.7313 0.119507 0
M  V30 4153 H 398.201 -1.64645 0.977968 0
M  V30 4154 H 396.506 -3.90451 -0.324878 0
M  V30 4155 H 398.203 -4.00966 0.0520699 0
M  V30 4156 H 394.793 -4.02026 1.48569 0
M  V30 4157 H 398.977 -4.3363 2.41409 0
M  V30 4158 H 394.233 -4.84129 3.73402 0
M  V30 4159 H 398.407 -5.17084 4.66472 0
M  V30 4160 H 396.034 -5.42046 5.33001 0
M  V30 4161 O 397.648 -0.656736 -1.47544 0
M  V30 4162 H 398.339 -0.183317 -1.92831 0
M  V30 END ATOM
M  V30 BEGIN BOND
M  V30 END BOND
M  V30 END CTAB
M  END
$$$$
