drugbank_target|O69755 Phenazine biosynthesis protein (DB03247)
 OpenBabel12092120263D

  0  0  0     0  0            999 V3000
M  V30 BEGIN CTAB
M  V30 COUNTS 3377 3420 0 0 0
M  V30 BEGIN ATOM
M  V30 1 H -0.908 1.98254 -0.117106 0
M  V30 2 N 0 1.576 0 0
M  V30 3 C 0.933 2.03868 1.02534 0
M  V30 4 C 1.911 0.928543 1.3348 0
M  V30 5 O 3.095 1.19667 1.45644 0
M  V30 6 C 0.222 2.43627 2.35294 0
M  V30 7 C -0.732 3.65373 2.2001 0
M  V30 8 S 0.101 5.13292 1.52614 0
M  V30 9 C 1.257 5.56322 2.86805 0
M  V30 10 H 1.49 2.90518 0.631377 0
M  V30 11 H -0.977 1.52953 0.210867 0
M  V30 12 H 0.981 2.67203 3.11629 0
M  V30 13 H -0.358 1.57376 2.7183 0
M  V30 14 H -1.165 3.90944 3.18086 0
M  V30 15 H -1.563 3.418 1.51819 0
M  V30 16 H 0.729 5.58782 3.83104 0
M  V30 17 H 1.672 6.56266 2.65933 0
M  V30 18 H 2.08 4.83886 2.90714 0
M  V30 19 N 1.4781 -0.272755 1.55222 0
M  V30 20 C 2.7261 -1.00234 1.75492 0
M  V30 21 C 3.0471 -1.8681 0.5592 0
M  V30 22 O 2.3171 -1.91215 -0.425882 0
M  V30 23 H 0.8971 -0.373076 0.647166 0
M  V30 24 H 3.5591 -0.296926 1.92625 0
M  V30 25 H 2.6551 -1.63913 2.65592 0
M  V30 26 N 2.9562 -1.48159 -0.537278 0
M  V30 27 C 4.2022 -1.56035 -1.29541 0
M  V30 28 C 4.5352 -0.230377 -1.92829 0
M  V30 29 O 3.8102 0.762952 -1.78911 0
M  V30 30 C 4.0932 -2.69323 -2.39034 0
M  V30 31 C 3.9462 -4.12002 -1.80485 0
M  V30 32 C 5.2652 -2.78408 -3.40847 0
M  V30 33 H 2.3842 -0.567992 -0.469632 0
M  V30 34 H 5.0262 -1.80302 -0.599277 0
M  V30 35 H 3.1762 -2.48763 -2.98412 0
M  V30 36 H 4.8482 -4.43981 -1.25215 0
M  V30 37 H 3.0912 -4.19344 -1.11055 0
M  V30 38 H 3.7622 -4.87077 -2.59731 0
M  V30 39 H 6.2382 -2.97012 -2.91416 0
M  V30 40 H 5.1142 -3.59416 -4.14863 0
M  V30 41 H 5.3752 -1.86269 -4.00944 0
M  V30 42 N 4.4343 0.785586 -1.36625 0
M  V30 43 C 5.3823 1.91978 -1.31329 0
M  V30 44 C 6.3763 1.68162 -0.204416 0
M  V30 45 O 7.5823 1.76122 -0.371645 0
M  V30 46 H 3.9573 0.631087 -0.408942 0
M  V30 47 H 5.9283 1.93562 -2.27104 0
M  V30 48 C 4.6773 3.29055 -1.12329 0
M  V30 49 H 4.0003 3.4795 -1.96903 0
M  V30 50 H 5.4403 4.08756 -1.12671 0
M  V30 51 C 3.8993 3.36461 0.171861 0
M  V30 52 O 4.4293 3.84576 1.16035 0
M  V30 53 N 2.6353 2.89782 0.217846 0
M  V30 54 H 2.1823 2.50819 -0.587183 0
M  V30 55 H 2.1403 2.95119 1.08408 0
M  V30 56 N 5.9124 1.20967 1.01018 0
M  V30 57 C 6.8754 0.965918 2.07853 0
M  V30 58 C 7.8754 -0.0610545 1.60684 0
M  V30 59 O 9.0654 0.175681 1.73312 0
M  V30 60 C 6.1974 0.455513 3.37843 0
M  V30 61 H 7.3904 1.91365 2.3091 0
M  V30 62 H 4.9434 1.02594 1.17916 0
M  V30 63 H 5.6784 -0.497381 3.20463 0
M  V30 64 H 5.4634 1.19622 3.73407 0
M  V30 65 H 6.9534 0.304667 4.16487 0
M  V30 66 N 7.3905 -1.2043 1.01659 0
M  V30 67 C 8.3385 -2.25249 0.580143 0
M  V30 68 C 9.3325 -1.65057 -0.381115 0
M  V30 69 O 10.5385 -1.78241 -0.251039 0
M  V30 70 H 6.9135 -0.732695 0.169299 0
M  V30 71 H 8.8845 -2.59389 1.47512 0
M  V30 72 C 7.6335 -3.47638 -0.065788 0
M  V30 73 H 6.9565 -3.94233 0.664874 0
M  V30 74 H 8.3965 -4.2268 -0.334282 0
M  V30 75 C 6.8555 -3.10447 -1.3086 0
M  V30 76 O 7.3855 -3.21981 -2.4019 0
M  V30 77 N 5.5915 -2.64996 -1.1927 0
M  V30 78 H 5.1385 -2.55811 -0.303064 0
M  V30 79 H 5.0965 -2.40482 -2.02523 0
M  V30 80 N 8.8686 -0.792821 -1.36206 0
M  V30 81 C 10.1176 -0.363353 -1.984 0
M  V30 82 C 10.4306 1.07172 -1.63626 0
M  V30 83 O 11.6366 1.60362 -2.19081 0
M  V30 84 C 10.0926 -0.59872 -3.54885 0
M  V30 85 C 9.7006 -2.04543 -3.9858 0
M  V30 86 C 11.4446 -0.233926 -4.23855 0
M  V30 87 C 9.3516 -2.22727 -5.47856 0
M  V30 88 H 8.2816 -0.13212 -0.742334 0
M  V30 89 H 10.9326 -0.974935 -1.55458 0
M  V30 90 H 9.3146 0.0826222 -3.95914 0
M  V30 91 H 10.4886 -2.76345 -3.68741 0
M  V30 92 H 8.8036 -2.36879 -3.42458 0
M  V30 93 H 11.4006 -0.348027 -5.33566 0
M  V30 94 H 11.7436 0.818351 -4.08177 0
M  V30 95 H 12.2766 -0.868639 -3.882 0
M  V30 96 H 9.0156 -3.2635 -5.68486 0
M  V30 97 H 8.5356 -1.55434 -5.7931 0
M  V30 98 H 10.2146 -2.03607 -6.14128 0
M  V30 99 N 10.3467 1.47872 -0.545128 0
M  V30 100 C 11.5717 2.07391 -0.0190611 0
M  V30 101 C 11.9967 1.39688 1.25971 0
M  V30 102 O 11.3547 0.467816 1.7516 0
M  V30 103 C 11.4027 3.60188 0.172335 0
M  V30 104 O 10.5067 3.9339 1.23766 0
M  V30 105 H 9.8477 0.662411 -0.0459059 0
M  V30 106 H 12.3777 1.90066 -0.757365 0
M  V30 107 H 12.3877 4.06129 0.390305 0
M  V30 108 H 11.0627 4.08865 -0.761725 0
M  V30 109 H 9.6397 3.5921 1.00114 0
M  V30 110 N 11.8248 0.280983 1.55075 0
M  V30 111 C 12.7348 -0.61388 2.26426 0
M  V30 112 C 13.7508 -1.16521 1.29224 0
M  V30 113 O 14.9268 -1.19426 1.62171 0
M  V30 114 C 11.9918 -1.7788 2.9759 0
M  V30 115 C 11.0528 -1.26355 4.10284 0
M  V30 116 C 10.2858 -2.37295 4.78045 0
M  V30 117 O 10.5088 -3.56777 4.45047 0
M  V30 118 O 9.4428 -2.05119 5.65871 0
M  V30 119 H 13.2688 -0.0356932 3.03679 0
M  V30 120 H 10.8538 0.0481686 1.49322 0
M  V30 121 H 12.7358 -2.45791 3.42293 0
M  V30 122 H 11.4108 -2.34397 2.23249 0
M  V30 123 H 10.3178 -0.550735 3.70024 0
M  V30 124 H 11.6508 -0.744065 4.86543 0
M  V30 125 N 13.3029 -1.57598 0.00835791 0
M  V30 126 C 14.5279 -1.95617 -0.689103 0
M  V30 127 C 14.9529 -0.883753 -1.66046 0
M  V30 128 O 14.3109 0.157352 -1.80616 0
M  V30 129 C 14.3589 -3.32736 -1.38994 0
M  V30 130 O 13.4629 -3.27631 -2.50463 0
M  V30 131 H 12.8039 -0.638379 -0.182668 0
M  V30 132 H 15.3339 -2.045 0.064036 0
M  V30 133 H 15.3439 -3.68494 -1.75147 0
M  V30 134 H 14.0189 -4.1034 -0.677778 0
M  V30 135 H 12.5959 -3.03561 -2.16576 0
M  V30 136 N 14.781 0.264519 -1.55364 0
M  V30 137 C 15.711 1.33121 -1.91836 0
M  V30 138 C 16.692 1.51101 -0.781192 0
M  V30 139 O 17.877 1.64003 -1.04003 0
M  V30 140 C 15.007 2.68921 -2.19769 0
M  V30 141 C 13.961 2.65661 -3.35571 0
M  V30 142 C 13.287 4.05093 -3.49004 0
M  V30 143 C 14.587 2.24187 -4.71739 0
M  V30 144 H 16.281 1.02844 -2.81182 0
M  V30 145 H 13.827 0.493286 -1.35287 0
M  V30 146 H 15.78 3.43663 -2.43872 0
M  V30 147 H 14.504 3.00799 -1.27231 0
M  V30 148 H 13.163 1.93377 -3.1145 0
M  V30 149 H 12.811 4.34206 -2.53917 0
M  V30 150 H 12.511 4.03804 -4.26868 0
M  V30 151 H 14.035 4.81561 -3.75408 0
M  V30 152 H 15.449 2.88654 -4.9533 0
M  V30 153 H 13.846 2.34044 -5.52579 0
M  V30 154 H 14.916 1.19327 -4.69988 0
M  V30 155 N 16.2591 1.48442 0.529413 0
M  V30 156 C 17.4871 1.60151 1.30994 0
M  V30 157 C 17.9021 0.261985 1.86973 0
M  V30 158 O 17.2591 -0.748805 1.66431 0
M  V30 159 C 17.3101 2.64854 2.46038 0
M  V30 160 O 17.0311 3.93608 1.92365 0
M  V30 161 C 18.5321 2.87007 3.37849 0
M  V30 162 H 15.7521 0.539971 0.398338 0
M  V30 163 H 18.2961 1.94273 0.638597 0
M  V30 164 H 16.4511 2.33589 3.09055 0
M  V30 165 H 16.8651 4.51055 2.67675 0
M  V30 166 H 18.3391 3.64068 4.14919 0
M  V30 167 H 18.8161 1.95852 3.93114 0
M  V30 168 H 19.4221 3.19579 2.80623 0
M  V30 169 N 17.7372 -0.778329 1.37039 0
M  V30 170 C 18.9852 -1.53361 1.31623 0
M  V30 171 C 19.3062 -1.94739 -0.100831 0
M  V30 172 O 18.5762 -1.65797 -1.04347 0
M  V30 173 H 17.1562 -0.568794 0.484234 0
M  V30 174 H 19.8182 -0.926742 1.71457 0
M  V30 175 H 18.9142 -2.43606 1.95096 0
M  V30 176 N 19.2153 -1.21501 -1.00376 0
M  V30 177 C 20.4433 -1.059 -1.77744 0
M  V30 178 C 20.8583 0.391125 -1.84704 0
M  V30 179 O 20.2153 1.27133 -1.30933 0
M  V30 180 C 20.2663 -1.65111 -3.21591 0
M  V30 181 O 19.9873 -3.0445 -3.15027 0
M  V30 182 C 21.4883 -1.54637 -4.15454 0
M  V30 183 H 18.7083 -0.371825 -0.558558 0
M  V30 184 H 21.2523 -1.60865 -1.26264 0
M  V30 185 H 19.4073 -1.14235 -3.70175 0
M  V30 186 H 19.8213 -3.3278 -4.0541 0
M  V30 187 H 21.2953 -2.00808 -5.14179 0
M  V30 188 H 21.7723 -0.501022 -4.36333 0
M  V30 189 H 22.3783 -2.04767 -3.72761 0
M  V30 190 N 20.6934 1.19889 -1.02296 0
M  V30 191 C 21.9424 1.88743 -0.711257 0
M  V30 192 C 22.2554 1.80112 0.762817 0
M  V30 193 O 23.4614 2.44161 1.18733 0
M  V30 194 C 21.9174 3.38525 -1.22185 0
M  V30 195 C 21.5254 3.55727 -2.72328 0
M  V30 196 C 23.2694 4.12893 -0.985864 0
M  V30 197 C 21.1764 4.99369 -3.16835 0
M  V30 198 H 20.1064 0.706885 -0.262353 0
M  V30 199 H 22.7574 1.35586 -1.23648 0
M  V30 200 H 21.1394 3.91044 -0.624571 0
M  V30 201 H 22.3134 3.13564 -3.3766 0
M  V30 202 H 20.6284 2.94739 -2.9414 0
M  V30 203 H 23.2254 5.18813 -1.29374 0
M  V30 204 H 23.5684 4.16228 0.0775055 0
M  V30 205 H 24.1014 3.66494 -1.54684 0
M  V30 206 H 20.8404 5.01193 -4.22476 0
M  V30 207 H 20.3604 5.42317 -2.56228 0
M  V30 208 H 22.0394 5.67988 -3.09837 0
M  V30 209 N 22.1715 0.800033 1.35784 0
M  V30 210 C 23.0815 0.207204 2.33683 0
M  V30 211 C 24.0975 -0.64631 1.61551 0
M  V30 212 O 25.2735 -0.559604 1.93469 0
M  V30 213 C 22.3385 -0.639659 3.40748 0
M  V30 214 C 21.3995 0.233585 4.28664 0
M  V30 215 C 20.6325 -0.572954 5.30616 0
M  V30 216 O 20.8555 -1.80816 5.40982 0
M  V30 217 O 19.7895 0.0327285 6.01891 0
M  V30 218 H 23.6155 1.01692 2.86169 0
M  V30 219 H 21.2005 0.561691 1.38439 0
M  V30 220 H 23.0825 -1.12223 4.06182 0
M  V30 221 H 21.7575 -1.42708 2.90544 0
M  V30 222 H 20.6645 0.763147 3.66233 0
M  V30 223 H 21.9975 0.984784 4.82248 0
M  V30 224 N 23.6496 -1.47581 0.552962 0
M  V30 225 C 24.6126 -2.28439 -0.186605 0
M  V30 226 C 25.6126 -1.36706 -0.84665 0
M  V30 227 O 26.8026 -1.59378 -0.703164 0
M  V30 228 C 23.9346 -3.16264 -1.2724 0
M  V30 229 H 25.1276 -2.95294 0.523609 0
M  V30 230 H 22.6806 -1.532 0.309745 0
M  V30 231 H 23.4156 -2.54091 -2.01514 0
M  V30 232 H 23.2006 -3.83769 -0.803968 0
M  V30 233 H 24.6906 -3.77198 -1.79196 0
M  V30 234 N 25.1277 -0.289203 -1.54924 0
M  V30 235 C 26.5387 0.205791 -1.85562 0
M  V30 236 C 26.8897 1.54351 -1.2112 0
M  V30 237 O 26.0147 2.10435 -0.504601 0
M  V30 238 C 26.6097 0.380177 -3.3666 0
M  V30 239 C 25.1687 0.819395 -3.67373 0
M  V30 240 C 24.3157 -0.079159 -2.77187 0
M  V30 241 H 27.2667 -0.510577 -1.50262 0
M  V30 242 H 27.2877 1.21659 -3.60526 0
M  V30 243 H 26.7997 -0.593589 -3.83534 0
M  V30 244 H 24.9007 1.80413 -3.26009 0
M  V30 245 H 25.0137 0.646957 -4.74712 0
M  V30 246 H 23.3777 0.439565 -2.50878 0
M  V30 247 H 24.1607 -1.04906 -3.26878 0
M  V30 248 N 26.6058 1.57591 -0.0167156 0
M  V30 249 C 27.8528 1.91283 0.664597 0
M  V30 250 C 28.1808 0.891949 1.72842 0
M  V30 251 O 27.4358 -0.100931 1.9544 0
M  V30 252 C 27.7348 3.3172 1.33029 0
M  V30 253 C 27.4008 4.4914 0.398047 0
M  V30 254 C 26.0628 4.80992 0.141421 0
M  V30 255 C 28.4148 5.20634 -0.242825 0
M  V30 256 C 25.7428 5.81703 -0.764092 0
M  V30 257 C 28.0948 6.22311 -1.13632 0
M  V30 258 C 26.7588 6.52611 -1.40196 0
M  V30 259 H 26.0288 0.699956 0.243193 0
M  V30 260 H 28.6758 1.9135 -0.0758267 0
M  V30 261 H 26.9808 3.27856 2.14517 0
M  V30 262 H 28.6778 3.55055 1.86379 0
M  V30 263 H 25.2678 4.24262 0.608238 0
M  V30 264 H 29.4518 4.96267 -0.0576019 0
M  V30 265 H 24.7078 6.03532 -0.977732 0
M  V30 266 H 28.8818 6.76834 -1.63917 0
M  V30 267 H 26.5088 7.30467 -2.10529 0
M  V30 268 N 28.0839 -0.256276 1.55502 0
M  V30 269 C 29.4949 -0.826068 1.67431 0
M  V30 270 C 29.8459 -1.86396 0.612446 0
M  V30 271 O 28.9709 -2.15031 -0.243025 0
M  V30 272 C 29.5659 -1.50512 3.03532 0
M  V30 273 C 28.1249 -2.02273 3.17431 0
M  V30 274 C 27.2719 -0.870548 2.63281 0
M  V30 275 H 30.2229 -0.0322728 1.58667 0
M  V30 276 H 30.2439 -2.37279 2.97454 0
M  V30 277 H 29.7559 -0.749484 3.80794 0
M  V30 278 H 27.8569 -2.80746 2.44974 0
M  V30 279 H 27.9699 -2.22655 4.24219 0
M  V30 280 H 26.3339 -1.26851 2.20864 0
M  V30 281 H 27.1169 -0.128149 3.43061 0
M  V30 282 N 29.562 -1.4872 -0.521534 0
M  V30 283 C 30.472 -1.66569 -1.65203 0
M  V30 284 C 31.488 -0.548197 -1.65139 0
M  V30 285 O 32.664 -0.820339 -1.83936 0
M  V30 286 C 29.729 -1.70917 -3.01642 0
M  V30 287 C 28.79 -2.94356 -3.12495 0
M  V30 288 C 28.023 -2.98487 -4.42426 0
M  V30 289 O 28.246 -2.10786 -5.30024 0
M  V30 290 O 27.18 -3.90746 -4.57822 0
M  V30 291 H 31.006 -2.62298 -1.5308 0
M  V30 292 H 28.591 -1.3222 -0.695565 0
M  V30 293 H 30.473 -1.7625 -3.82771 0
M  V30 294 H 29.148 -0.783633 -3.14071 0
M  V30 295 H 28.055 -2.94552 -2.3063 0
M  V30 296 H 29.388 -3.86322 -3.04986 0
M  V30 297 N 31.0401 0.771051 -1.3745 0
M  V30 298 C 32.2871 1.52963 -1.32697 0
M  V30 299 C 32.6151 1.94299 0.0883274 0
M  V30 300 O 31.8701 1.64397 1.0617 0
M  V30 301 C 32.1691 2.80676 -2.2126 0
M  V30 302 C 31.8351 2.58389 -3.69521 0
M  V30 303 C 30.4971 2.52019 -4.09927 0
M  V30 304 C 32.8491 2.38469 -4.63446 0
M  V30 305 C 30.1771 2.23721 -5.42371 0
M  V30 306 C 32.5291 2.11694 -5.96128 0
M  V30 307 C 31.1931 2.03769 -6.35637 0
M  V30 308 H 30.4631 0.559732 -0.485573 0
M  V30 309 H 33.1101 0.888083 -1.69662 0
M  V30 310 H 31.4151 3.49392 -1.77291 0
M  V30 311 H 33.1121 3.38557 -2.14895 0
M  V30 312 H 29.7021 2.6421 -3.37478 0
M  V30 313 H 33.8861 2.4238 -4.33089 0
M  V30 314 H 29.1421 2.16081 -5.71943 0
M  V30 315 H 33.3161 1.9528 -6.6846 0
M  V30 316 H 30.9431 1.81606 -7.38189 0
M  V30 317 N 32.5182 1.22032 0.997298 0
M  V30 318 C 33.4282 1.00271 2.12092 0
M  V30 319 C 34.4442 -0.047621 1.73935 0
M  V30 320 O 35.6202 0.144136 2.00884 0
M  V30 321 C 32.6852 0.578449 3.4184 0
M  V30 322 C 31.7462 1.70189 3.94125 0
M  V30 323 C 30.9792 1.29778 5.17681 0
M  V30 324 O 31.2022 0.174676 5.70132 0
M  V30 325 O 30.1362 2.11261 5.63607 0
M  V30 326 H 33.9622 1.94398 2.3333 0
M  V30 327 H 31.5472 1.00587 1.10465 0
M  V30 328 H 33.4292 0.351998 4.19927 0
M  V30 329 H 32.1042 -0.334019 3.21972 0
M  V30 330 H 31.0112 1.98282 3.1723 0
M  V30 331 H 32.3442 2.59206 4.18417 0
M  V30 332 N 33.9963 -1.19345 1.0293 0
M  V30 333 C 34.9593 -2.20793 0.615069 0
M  V30 334 C 35.9593 -1.57553 -0.321533 0
M  V30 335 O 37.1493 -1.73862 -0.108483 0
M  V30 336 C 34.2813 -3.40754 -0.0999222 0
M  V30 337 H 35.4743 -2.58955 1.51269 0
M  V30 338 H 33.0273 -1.3303 0.820534 0
M  V30 339 H 33.7623 -3.0811 -1.01187 0
M  V30 340 H 33.5473 -3.87889 0.57309 0
M  V30 341 H 35.0373 -4.15898 -0.376645 0
M  V30 342 N 35.4744 -0.807222 -1.35358 0
M  V30 343 C 36.8854 -0.44876 -1.81226 0
M  V30 344 C 37.2364 1.02929 -1.67033 0
M  V30 345 O 36.3614 1.79991 -1.20133 0
M  V30 346 C 36.9564 -0.807774 -3.2903 0
M  V30 347 C 35.5154 -0.501901 -3.73039 0
M  V30 348 C 34.6624 -1.03304 -2.57339 0
M  V30 349 H 37.6134 -0.998808 -1.23327 0
M  V30 350 H 37.6344 -0.10554 -3.80354 0
M  V30 351 H 37.1464 -1.88357 -3.39328 0
M  V30 352 H 35.2474 0.565128 -3.68289 0
M  V30 353 H 35.3604 -1.03497 -4.67787 0
M  V30 354 H 33.7244 -0.455339 -2.50597 0
M  V30 355 H 34.5074 -2.11496 -2.70415 0
M  V30 356 N 36.9525 1.47285 -0.560781 0
M  V30 357 C 38.3635 1.86258 -0.128343 0
M  V30 358 C 38.7145 1.46699 1.30284 0
M  V30 359 O 37.8395 0.871698 1.98067 0
M  V30 360 C 38.4345 3.38044 -0.22614 0
M  V30 361 C 36.9935 3.76096 0.151283 0
M  V30 362 C 36.1405 2.71335 -0.572084 0
M  V30 363 H 39.0915 1.38752 -0.770297 0
M  V30 364 H 39.1125 3.76441 0.554322 0
M  V30 365 H 38.6245 3.66806 -1.26788 0
M  V30 366 H 36.7255 3.52951 1.19399 0
M  V30 367 H 36.8385 4.78641 -0.209765 0
M  V30 368 H 35.2025 2.54696 -0.0147653 0
M  V30 369 H 35.9855 3.02938 -1.61504 0
M  V30 370 N 38.4306 0.297415 1.54768 0
M  V30 371 C 39.3936 -0.567375 2.22066 0
M  V30 372 C 40.3936 -1.06409 1.20556 0
M  V30 373 O 41.5836 -0.960691 1.45315 0
M  V30 374 C 38.7156 -1.78517 2.90421 0
M  V30 375 H 39.9086 0.0205534 2.99893 0
M  V30 376 H 37.4616 0.0482163 1.56226 0
M  V30 377 H 38.1966 -2.41303 2.16664 0
M  V30 378 H 37.9816 -1.43669 3.64831 0
M  V30 379 H 39.4716 -2.39964 3.41771 0
M  V30 380 N 39.9087 -1.5758 0.0250728 0
M  V30 381 C 40.8567 -2.11125 -0.97617 0
M  V30 382 C 41.8507 -1.03689 -1.33959 0
M  V30 383 O 43.0567 -1.22128 -1.3223 0
M  V30 384 H 39.4317 -0.674468 -0.332561 0
M  V30 385 H 41.4027 -2.94194 -0.499223 0
M  V30 386 C 40.1517 -2.65017 -2.2508 0
M  V30 387 H 39.4747 -3.47333 -1.9799 0
M  V30 388 H 40.9147 -3.06133 -2.93357 0
M  V30 389 C 39.3737 -1.57574 -2.97779 0
M  V30 390 O 39.9037 -0.973203 -3.89733 0
M  V30 391 N 38.1097 -1.29716 -2.60043 0
M  V30 392 H 37.6567 -1.789 -1.85345 0
M  V30 393 H 37.6147 -0.58051 -3.08994 0
M  V30 394 N 41.3868 0.248026 -1.55636 0
M  V30 395 C 42.7978 0.817177 -1.67866 0
M  V30 396 C 43.1488 1.86069 -0.622322 0
M  V30 397 O 42.2738 2.15157 0.231618 0
M  V30 398 C 42.8688 1.489 -3.04326 0
M  V30 399 C 41.4278 2.00587 -3.185 0
M  V30 400 C 40.5748 0.856573 -2.63739 0
M  V30 401 H 43.5258 0.0238579 -1.58682 0
M  V30 402 H 43.5468 2.35698 -2.98708 0
M  V30 403 H 43.0588 0.729279 -3.81186 0
M  V30 404 H 41.1598 2.79443 -2.4646 0
M  V30 405 H 41.2728 2.20402 -4.25393 0
M  V30 406 H 39.6368 1.25678 -2.21534 0
M  V30 407 H 40.4198 0.109953 -3.43124 0
M  V30 408 N 42.8649 1.48995 0.513639 0
M  V30 409 C 43.7979 1.59319 1.63379 0
M  V30 410 C 44.7759 0.442816 1.56454 0
M  V30 411 O 45.9599 0.656655 1.76693 0
M  V30 412 C 43.0869 1.5364 3.01848 0
M  V30 413 C 42.1329 2.7372 3.27078 0
M  V30 414 S 42.9659 4.35528 3.1157 0
M  V30 415 C 44.1219 4.32473 4.52458 0
M  V30 416 H 44.3549 2.54079 1.54374 0
M  V30 417 H 41.8879 1.3773 0.697849 0
M  V30 418 H 43.8459 1.51049 3.81699 0
M  V30 419 H 42.5069 0.601898 3.08279 0
M  V30 420 H 41.6999 2.6593 4.28132 0
M  V30 421 H 41.3019 2.73657 2.54927 0
M  V30 422 H 43.5939 4.03414 5.44301 0
M  V30 423 H 44.5369 5.33762 4.65299 0
M  V30 424 H 44.9449 3.62718 4.32546 0
M  V30 425 N 44.343 -0.763751 1.37857 0
M  V30 426 C 45.253 -1.90817 1.36478 0
M  V30 427 C 46.269 -1.71997 0.263248 0
M  V30 428 O 47.445 -1.95095 0.499979 0
M  V30 429 C 44.51 -3.2605 1.17864 0
M  V30 430 C 43.571 -3.57467 2.3773 0
M  V30 431 C 42.804 -4.86249 2.19995 0
M  V30 432 O 43.027 -5.57884 1.18836 0
M  V30 433 O 41.961 -5.16911 3.08361 0
M  V30 434 H 45.787 -1.94933 2.32884 0
M  V30 435 H 43.372 -0.907619 1.1867 0
M  V30 436 H 45.254 -4.06924 1.09504 0
M  V30 437 H 43.929 -3.22769 0.245372 0
M  V30 438 H 42.836 -2.76796 2.51664 0
M  V30 439 H 44.169 -3.655 3.29652 0
M  V30 440 N 45.8211 -1.22559 -0.990812 0
M  V30 441 C 47.0671 -1.05297 -1.73322 0
M  V30 442 C 47.4001 0.410655 -1.89808 0
M  V30 443 O 46.6751 1.30439 -1.44277 0
M  V30 444 C 46.9581 -1.76713 -3.13759 0
M  V30 445 C 46.8111 -3.30684 -3.04907 0
M  V30 446 C 48.1301 -1.52121 -4.12974 0
M  V30 447 H 45.2491 -0.38392 -0.629106 0
M  V30 448 H 47.8911 -1.50926 -1.15418 0
M  V30 449 H 46.0411 -1.37924 -3.63193 0
M  V30 450 H 47.7131 -3.7893 -2.63077 0
M  V30 451 H 45.9561 -3.60253 -2.41661 0
M  V30 452 H 46.6271 -3.75833 -4.04294 0
M  V30 453 H 49.1031 -1.85819 -3.72304 0
M  V30 454 H 47.9791 -2.04582 -5.0935 0
M  V30 455 H 48.2401 -0.454257 -4.3976 0
M  V30 456 N 47.2992 1.18797 -1.03562 0
M  V30 457 C 48.2292 2.24472 -0.643019 0
M  V30 458 C 49.2102 1.66433 0.351283 0
M  V30 459 O 50.3952 1.92803 0.232505 0
M  V30 460 C 47.5252 3.473 4.24935e-05 0
M  V30 461 C 46.4792 4.18055 -0.917257 0
M  V30 462 C 45.8052 5.34519 -0.138941 0
M  V30 463 C 47.1052 4.72109 -2.23407 0
M  V30 464 H 48.7992 2.57566 -1.52643 0
M  V30 465 H 46.3452 1.23806 -0.735394 0
M  V30 466 H 48.2982 4.20426 0.286383 0
M  V30 467 H 47.0222 3.13424 0.918299 0
M  V30 468 H 45.6812 3.46821 -1.1879 0
M  V30 469 H 45.3292 4.96891 0.781562 0
M  V30 470 H 45.0292 5.82794 -0.750005 0
M  V30 471 H 46.5532 6.10438 0.1405 0
M  V30 472 H 47.9672 5.36955 -2.00879 0
M  V30 473 H 46.3642 5.30897 -2.79765 0
M  V30 474 H 47.4342 3.89807 -2.88407 0
M  V30 475 N 48.7773 0.814389 1.34928 0
M  V30 476 C 50.1933 0.499084 1.51596 0
M  V30 477 C 50.3933 -0.978319 1.76157 0
M  V30 478 O 49.4493 -1.76309 1.80752 0
M  V30 479 C 50.7623 1.35121 2.68631 0
M  V30 480 C 52.3103 1.34746 2.82511 0
M  V30 481 C 52.7853 2.18388 4.0258 0
M  V30 482 N 54.2763 2.15966 4.09772 0
M  V30 483 C 55.0113 2.77437 5.01813 0
M  V30 484 N 54.5073 3.47866 5.99134 0
M  V30 485 N 56.3003 2.67037 4.94619 0
M  V30 486 H 48.4513 1.7711 1.17243 0
M  V30 487 H 50.7143 0.754256 0.574284 0
M  V30 488 H 50.4203 2.40001 2.57085 0
M  V30 489 H 50.2943 1.00991 3.63429 0
M  V30 490 H 52.6813 0.30648 2.93504 0
M  V30 491 H 52.7623 1.72869 1.88547 0
M  V30 492 H 52.4063 3.2253 3.92347 0
M  V30 493 H 52.3363 1.77621 4.9574 0
M  V30 494 H 54.8273 1.64729 3.40107 0
M  V30 495 H 55.1403 3.92038 6.65977 0
M  V30 496 H 53.4853 3.51972 5.99284 0
M  V30 497 H 56.6763 2.11597 4.17546 0
M  V30 498 H 56.8493 3.15232 5.66156 0
M  V30 499 N 50.2554 -1.46986 0.568584 0
M  V30 500 C 51.2034 -2.31858 -0.185649 0
M  V30 501 C 52.1974 -1.43624 -0.898249 0
M  V30 502 O 53.4034 -1.60327 -0.818242 0
M  V30 503 H 49.7784 -0.747866 -0.0787399 0
M  V30 504 H 51.7494 -2.93303 0.549191 0
M  V30 505 C 50.4984 -3.26513 -1.19519 0
M  V30 506 H 49.8214 -3.94377 -0.656285 0
M  V30 507 H 51.2614 -3.88707 -1.6936 0
M  V30 508 C 49.7204 -2.50847 -2.24894 0
M  V30 509 O 50.2504 -2.26119 -3.32014 0
M  V30 510 N 48.4564 -2.11656 -1.99124 0
M  V30 511 H 48.0034 -2.31966 -1.12024 0
M  V30 512 H 47.9614 -1.61347 -2.69842 0
M  V30 513 N 51.7335 -0.305618 -1.54608 0
M  V30 514 C 52.9795 0.295595 -2.01241 0
M  V30 515 C 53.3345 1.51171 -1.19018 0
M  V30 516 O 52.6275 1.89832 -0.259684 0
M  V30 517 C 52.8215 0.698983 -3.50498 0
M  V30 518 C 52.6505 -0.476491 -4.47168 0
M  V30 519 C 51.4205 -0.969963 -4.95903 0
M  V30 520 C 53.6185 -1.32294 -4.96994 0
M  V30 521 N 51.6005 -2.11172 -5.76437 0
M  V30 522 C 52.9715 -2.31212 -5.75275 0
M  V30 523 C 55.0265 -1.35278 -4.7917 0
M  V30 524 C 53.7295 -3.32896 -6.37631 0
M  V30 525 C 55.7555 -2.35823 -5.42348 0
M  V30 526 C 55.1175 -3.33469 -6.20466 0
M  V30 527 H 51.2165 0.0724992 -0.778632 0
M  V30 528 H 53.8005 -0.436583 -1.89742 0
M  V30 529 H 51.9715 1.40032 -3.62278 0
M  V30 530 H 53.7035 1.28013 -3.8392 0
M  V30 531 H 50.4585 -0.544178 -4.70463 0
M  V30 532 H 50.8825 -2.68714 -6.21387 0
M  V30 533 H 55.5245 -0.61157 -4.18354 0
M  V30 534 H 53.2425 -4.07933 -6.97579 0
M  V30 535 H 56.8285 -2.38911 -5.30484 0
M  V30 536 H 55.7085 -4.09996 -6.68485 0
M  V30 537 N 53.2116 1.57565 -0.0334293 0
M  V30 538 C 54.1416 2.13511 0.945265 0
M  V30 539 C 55.1226 1.05231 1.33643 0
M  V30 540 O 56.3076 1.33084 1.41429 0
M  V30 541 C 53.4376 2.6657 2.22616 0
M  V30 542 C 52.3916 3.79676 1.97561 0
M  V30 543 C 51.7176 4.1918 3.31952 0
M  V30 544 C 53.0176 5.0557 1.31135 0
M  V30 545 H 54.7116 2.95538 0.479325 0
M  V30 546 H 52.2576 1.42166 0.229115 0
M  V30 547 H 54.2106 3.04344 2.91466 0
M  V30 548 H 52.9346 1.8171 2.71384 0
M  V30 549 H 51.5936 3.42347 1.31127 0
M  V30 550 H 51.2416 3.31296 3.78487 0
M  V30 551 H 50.9416 4.95402 3.15992 0
M  V30 552 H 52.4656 4.59541 4.02063 0
M  V30 553 H 53.8796 5.40903 1.89992 0
M  V30 554 H 52.2766 5.86818 1.25559 0
M  V30 555 H 53.3466 4.84062 0.284894 0
M  V30 556 N 54.6897 -0.239769 1.55765 0
M  V30 557 C 55.5997 -1.31831 1.94056 0
M  V30 558 C 56.6157 -1.52275 0.841925 0
M  V30 559 O 57.7917 -1.65759 1.14394 0
M  V30 560 C 54.8567 -2.65156 2.23368 0
M  V30 561 C 53.9177 -2.53173 3.46701 0
M  V30 562 C 53.1507 -3.8014 3.74606 0
M  V30 563 O 53.3737 -4.82343 3.04469 0
M  V30 564 O 52.3077 -3.78344 4.68123 0
M  V30 565 H 56.1337 -1.02347 2.85935 0
M  V30 566 H 53.7187 -0.441123 1.42739 0
M  V30 567 H 55.6007 -3.43929 2.43497 0
M  V30 568 H 54.2757 -2.94358 1.34666 0
M  V30 569 H 53.1827 -1.72662 3.31871 0
M  V30 570 H 54.5157 -2.28915 4.35728 0
M  V30 571 N 56.1678 -1.49265 -0.50573 0
M  V30 572 C 57.5838 -1.35923 -0.836486 0
M  V30 573 C 57.7838 -0.388704 -1.97715 0
M  V30 574 O 56.8398 0.181336 -2.51848 0
M  V30 575 C 58.1528 -2.76531 -1.18115 0
M  V30 576 C 59.7008 -2.85197 -1.28964 0
M  V30 577 C 60.1758 -4.26561 -1.66761 0
M  V30 578 N 61.6668 -4.2935 -1.73819 0
M  V30 579 C 62.4018 -5.35693 -2.045 0
M  V30 580 N 61.8978 -6.52287 -2.33438 0
M  V30 581 N 63.6908 -5.23105 -2.05711 0
M  V30 582 H 55.8418 -2.10965 0.246519 0
M  V30 583 H 58.1048 -0.9468 0.0476887 0
M  V30 584 H 57.8108 -3.49226 -0.416398 0
M  V30 585 H 57.6848 -3.11599 -2.1257 0
M  V30 586 H 60.0718 -2.12742 -2.04511 0
M  V30 587 H 60.1528 -2.53718 -0.325704 0
M  V30 588 H 59.7968 -4.99541 -0.917656 0
M  V30 589 H 59.7268 -4.55502 -2.64246 0
M  V30 590 H 62.2178 -3.4526 -1.53635 0
M  V30 591 H 62.5308 -7.29158 -2.56024 0
M  V30 592 H 60.8758 -6.55521 -2.30905 0
M  V30 593 H 64.0668 -4.31026 -1.82577 0
M  V30 594 H 64.2398 -6.06078 -2.29289 0
M  V30 595 N 57.6459 0.756429 -1.3826 0
M  V30 596 C 58.6089 1.85176 -1.35065 0
M  V30 597 C 59.6089 1.58818 -0.251703 0
M  V30 598 O 60.7989 1.66615 -0.508433 0
M  V30 599 C 57.9309 3.22596 -1.10201 0
M  V30 600 H 59.1239 1.89417 -2.3251 0
M  V30 601 H 56.6769 0.95783 -1.23512 0
M  V30 602 H 57.4119 3.24025 -0.133504 0
M  V30 603 H 57.1969 3.43122 -1.89762 0
M  V30 604 H 58.6869 4.02673 -1.10654 0
M  V30 605 N 59.124 1.23083 0.984299 0
M  V30 606 C 60.54 0.992637 1.24975 0
M  V30 607 C 60.74 -0.308618 1.99123 0
M  V30 608 O 59.796 -1.02905 2.30579 0
M  V30 609 C 61.109 2.19698 2.05312 0
M  V30 610 C 62.657 2.24147 2.18465 0
M  V30 611 C 63.132 3.44157 3.02192 0
M  V30 612 N 64.623 3.44372 3.09777 0
M  V30 613 C 65.358 4.33886 3.74874 0
M  V30 614 N 64.854 5.3363 4.41827 0
M  V30 615 N 66.647 4.21639 3.71721 0
M  V30 616 H 58.798 2.06731 0.487453 0
M  V30 617 H 61.061 0.906339 0.277944 0
M  V30 618 H 60.767 3.1411 1.58201 0
M  V30 619 H 60.641 2.20465 3.06064 0
M  V30 620 H 63.028 1.30277 2.64786 0
M  V30 621 H 63.109 2.27415 1.17115 0
M  V30 622 H 62.753 4.38332 2.56568 0
M  V30 623 H 62.683 3.3813 4.03702 0
M  V30 624 H 65.174 2.72201 2.62135 0
M  V30 625 H 65.487 5.98196 4.89266 0
M  V30 626 H 63.832 5.37534 4.40548 0
M  V30 627 H 67.023 3.42962 3.18582 0
M  V30 628 H 67.196 4.91604 4.22173 0
M  V30 629 N 60.6021 -1.18246 1.0419 0
M  V30 630 C 62.0181 -1.40269 0.761366 0
M  V30 631 C 62.2181 -1.90777 -0.648578 0
M  V30 632 O 61.2741 -2.0929 -1.41258 0
M  V30 633 C 62.5871 -2.40237 1.8085 0
M  V30 634 C 64.1351 -2.53961 1.82955 0
M  V30 635 C 64.6101 -3.57194 2.86664 0
M  V30 636 N 66.1011 -3.64702 2.85563 0
M  V30 637 C 66.8361 -4.44309 3.6246 0
M  V30 638 N 66.3321 -5.27514 4.49111 0
M  V30 639 N 68.1251 -4.39084 3.50944 0
M  V30 640 H 60.2761 -0.837882 1.95175 0
M  V30 641 H 62.5391 -0.430608 0.84456 0
M  V30 642 H 62.2451 -2.10176 2.81991 0
M  V30 643 H 62.1191 -3.39601 1.64168 0
M  V30 644 H 64.5061 -2.83338 0.824855 0
M  V30 645 H 64.5871 -1.54706 2.03715 0
M  V30 646 H 64.2311 -3.28558 3.87314 0
M  V30 647 H 64.1611 -4.5613 2.6316 0
M  V30 648 H 66.6521 -3.05289 2.22727 0
M  V30 649 H 66.9651 -5.85411 5.04493 0
M  V30 650 H 65.3101 -5.2693 4.53178 0
M  V30 651 H 68.5011 -3.7313 2.82651 0
M  V30 652 H 68.6741 -5.00883 4.11121 0
M  V30 653 N 62.0802 -0.821533 -1.34494 0
M  V30 654 C 63.3102 -0.421272 -2.02259 0
M  V30 655 C 63.7182 0.977047 -1.6202 0
M  V30 656 O 63.0612 1.64348 -0.820703 0
M  V30 657 C 63.1232 -0.44231 -3.56769 0
M  V30 658 C 62.7872 -1.79372 -4.20327 0
M  V30 659 C 63.7842 -2.75435 -4.40944 0
M  V30 660 C 61.4692 -2.08182 -4.57127 0
M  V30 661 C 63.4632 -3.98482 -4.97484 0
M  V30 662 C 61.1502 -3.31489 -5.13379 0
M  V30 663 C 62.1482 -4.26457 -5.33501 0
M  V30 664 O 61.8362 -5.47585 -5.88562 0
M  V30 665 H 61.5682 -0.167473 -0.654927 0
M  V30 666 H 64.1222 -1.11073 -1.72777 0
M  V30 667 H 62.3522 0.303836 -3.85505 0
M  V30 668 H 64.0412 -0.0622925 -4.05852 0
M  V30 669 H 64.8072 -2.54473 -4.12878 0
M  V30 670 H 60.6862 -1.35066 -4.4077 0
M  V30 671 H 64.2302 -4.72618 -5.13106 0
M  V30 672 H 60.1272 -3.52316 -5.40873 0
M  V30 673 H 60.8952 -5.49086 -6.06998 0
M  V30 674 N 63.5583 1.46682 -0.576371 0
M  V30 675 C 64.8063 2.02013 -0.0594163 0
M  V30 676 C 65.1273 1.45101 1.30271 0
M  V30 677 O 64.3973 0.633317 1.8538 0
M  V30 678 H 62.9773 0.746759 -0.0189745 0
M  V30 679 H 65.6393 1.79862 -0.750717 0
M  V30 680 H 64.7353 3.12097 0.014345 0
M  V30 681 N 65.0364 0.313813 1.54444 0
M  V30 682 C 66.2824 -0.292108 2.00685 0
M  V30 683 C 66.6154 -1.52548 1.20177 0
M  V30 684 O 65.8904 -1.92452 0.281531 0
M  V30 685 C 66.1734 -0.635968 3.5444 0
M  V30 686 C 66.0264 0.607437 4.4568 0
M  V30 687 C 67.3454 -1.45747 4.15266 0
M  V30 688 H 64.4644 -0.104697 0.729526 0
M  V30 689 H 67.1064 0.428457 1.85106 0
M  V30 690 H 65.2564 -1.24986 3.67846 0
M  V30 691 H 66.9284 1.24581 4.44159 0
M  V30 692 H 65.1714 1.23822 4.15753 0
M  V30 693 H 65.8424 0.322515 5.51057 0
M  V30 694 H 68.3184 -0.938645 4.05375 0
M  V30 695 H 67.1944 -1.66683 5.2298 0
M  V30 696 H 67.4554 -2.45063 3.67963 0
M  V30 697 N 66.5145 -1.57545 0.0417849 0
M  V30 698 C 67.9305 -1.56467 -0.314704 0
M  V30 699 C 68.1305 -1.04859 -1.72066 0
M  V30 700 O 67.1865 -0.700983 -2.42575 0
M  V30 701 C 68.4995 -3.00317 -0.15174 0
M  V30 702 C 70.0475 -3.12201 -0.223553 0
M  V30 703 C 70.5225 -4.57913 -0.0892295 0
M  V30 704 N 72.0135 -4.6297 -0.145808 0
M  V30 705 C 72.7485 -5.73362 -0.0658459 0
M  V30 706 N 72.2445 -6.92769 0.0659282 0
M  V30 707 N 74.0375 -5.6197 -0.12075 0
M  V30 708 H 66.1885 -1.89416 0.961014 0
M  V30 709 H 68.4515 -0.871862 0.372237 0
M  V30 710 H 68.1575 -3.42073 0.817254 0
M  V30 711 H 68.0315 -3.65892 -0.916692 0
M  V30 712 H 70.4185 -2.70349 -1.18301 0
M  V30 713 H 70.4995 -2.49323 0.571994 0
M  V30 714 H 70.1435 -5.00448 0.866867 0
M  V30 715 H 70.0735 -5.18786 -0.903802 0
M  V30 716 H 72.5645 -3.7709 -0.247286 0
M  V30 717 H 72.8775 -7.72707 0.119905 0
M  V30 718 H 71.2225 -6.94927 0.100885 0
M  V30 719 H 74.4135 -4.67572 -0.222187 0
M  V30 720 H 74.5865 -6.47977 -0.0549735 0
M  V30 721 N 67.9926 0.231505 -1.5589 0
M  V30 722 C 68.9026 1.308 -1.94752 0
M  V30 723 C 69.9186 1.51826 -0.849989 0
M  V30 724 O 71.0946 1.6515 -1.15271 0
M  V30 725 C 68.1596 2.63968 -2.24771 0
M  V30 726 C 67.2206 2.51331 -3.48039 0
M  V30 727 C 66.4536 3.78148 -3.76616 0
M  V30 728 O 66.6766 4.80722 -3.07022 0
M  V30 729 O 65.6106 3.75857 -4.70123 0
M  V30 730 H 69.4366 1.0083 -2.86474 0
M  V30 731 H 67.0216 0.433547 -1.42971 0
M  V30 732 H 68.9036 3.42633 -2.45318 0
M  V30 733 H 67.5786 2.9364 -1.36225 0
M  V30 734 H 66.4856 1.709 -3.32782 0
M  V30 735 H 67.8186 2.26601 -4.36936 0
M  V30 736 N 69.4707 1.49531 0.497807 0
M  V30 737 C 70.8817 1.52344 1.07927 0
M  V30 738 C 71.2327 0.311469 1.93712 0
M  V30 739 O 70.3577 -0.578405 2.08527 0
M  V30 740 C 70.9527 2.76062 1.96405 0
M  V30 741 C 69.5117 2.81643 2.49709 0
M  V30 742 C 68.6587 2.46299 1.27404 0
M  V30 743 H 71.6097 1.56182 0.281576 0
M  V30 744 H 71.6307 2.56405 2.81135 0
M  V30 745 H 71.1427 3.64254 1.33943 0
M  V30 746 H 69.2437 1.97739 3.15801 0
M  V30 747 H 69.3567 3.83891 2.86643 0
M  V30 748 H 67.7207 1.98148 1.60029 0
M  V30 749 H 68.5037 3.36769 0.66645 0
M  V30 750 N 70.9488 -0.749086 1.3866 0
M  V30 751 C 72.3648 -1.05276 1.19955 0
M  V30 752 C 72.5648 -2.01435 0.05134 0
M  V30 753 O 71.6208 -2.45232 -0.60147 0
M  V30 754 C 72.9338 -1.62853 2.52783 0
M  V30 755 C 74.4818 -1.75002 2.59506 0
M  V30 756 C 74.9568 -2.35991 3.92521 0
M  V30 757 N 76.4478 -2.43416 3.94085 0
M  V30 758 C 77.1828 -2.91511 4.9377 0
M  V30 759 N 76.6788 -3.39608 6.03853 0
M  V30 760 N 78.4718 -2.90592 4.81157 0
M  V30 761 H 70.6228 -0.111066 2.12109 0
M  V30 762 H 72.8858 -0.111901 0.941373 0
M  V30 763 H 72.5918 -0.99664 3.37283 0
M  V30 764 H 72.4658 -2.61854 2.715 0
M  V30 765 H 74.8528 -2.37317 1.75398 0
M  V30 766 H 74.9338 -0.74693 2.44652 0
M  V30 767 H 74.5778 -1.74308 4.77053 0
M  V30 768 H 74.5078 -3.3695 4.04688 0
M  V30 769 H 76.9988 -2.09405 3.14576 0
M  V30 770 H 77.3118 -3.74775 6.75843 0
M  V30 771 H 75.6568 -3.37653 6.07466 0
M  V30 772 H 78.8478 -2.52332 3.94267 0
M  V30 773 H 79.0208 -3.27762 5.58996 0
M  V30 774 N 72.4269 -1.23603 -0.977757 0
M  V30 775 C 73.3899 -1.02069 -2.05218 0
M  V30 776 C 74.3899 0.0184305 -1.60789 0
M  V30 777 O 75.5799 -0.221569 -1.72785 0
M  V30 778 C 72.7119 -0.544926 -3.36517 0
M  V30 779 H 73.9049 -1.9742 -2.25755 0
M  V30 780 H 71.4579 -1.05684 -1.15155 0
M  V30 781 H 72.1929 0.412241 -3.21669 0
M  V30 782 H 71.9779 -1.2948 -3.70105 0
M  V30 783 H 73.4679 -0.414985 -4.15533 0
M  V30 784 N 73.905 1.17692 -1.04816 0
M  V30 785 C 74.835 2.23777 -0.666791 0
M  V30 786 C 75.816 1.66796 0.33361 0
M  V30 787 O 77.001 1.93039 0.212042 0
M  V30 788 C 74.131 3.47281 -0.0367933 0
M  V30 789 C 73.085 4.17059 -0.961546 0
M  V30 790 C 72.411 5.34342 -0.195626 0
M  V30 791 C 73.711 4.69713 -2.28402 0
M  V30 792 H 75.405 2.55933 -1.55367 0
M  V30 793 H 72.951 1.23019 -0.748484 0
M  V30 794 H 74.904 4.20706 0.241775 0
M  V30 795 H 73.628 3.14381 0.885004 0
M  V30 796 H 72.287 3.45541 -1.22462 0
M  V30 797 H 71.935 4.97692 0.728816 0
M  V30 798 H 71.635 5.81966 -0.811775 0
M  V30 799 H 73.159 6.10553 0.0757473 0
M  V30 800 H 74.573 5.34794 -2.06563 0
M  V30 801 H 72.97 5.279 -2.8538 0
M  V30 802 H 74.04 3.86726 -2.92525 0
M  V30 803 N 75.3831 0.828654 1.34056 0
M  V30 804 C 76.3461 0.259927 2.27721 0
M  V30 805 C 77.3461 -0.565478 1.50529 0
M  V30 806 O 78.5361 -0.38075 1.69988 0
M  V30 807 C 75.6681 -0.634944 3.34935 0
M  V30 808 H 76.8611 1.0863 2.79534 0
M  V30 809 H 74.4141 0.600951 1.44285 0
M  V30 810 H 75.1491 -1.48416 2.88346 0
M  V30 811 H 74.9341 -0.0444999 3.92075 0
M  V30 812 H 76.4241 -1.02648 4.04788 0
M  V30 813 N 76.8612 -1.46375 0.584142 0
M  V30 814 C 77.7912 -2.33103 -0.136037 0
M  V30 815 C 78.7722 -1.45431 -0.882255 0
M  V30 816 O 79.9572 -1.74246 -0.857434 0
M  V30 817 C 77.0872 -3.27731 -1.14933 0
M  V30 818 C 76.0412 -4.24855 -0.517862 0
M  V30 819 C 75.3672 -5.09001 -1.63773 0
M  V30 820 C 76.6672 -5.19439 0.545886 0
M  V30 821 H 78.3612 -2.93568 0.588086 0
M  V30 822 H 75.9072 -1.41166 0.284259 0
M  V30 823 H 77.8602 -3.87261 -1.66153 0
M  V30 824 H 76.5842 -2.65377 -1.90375 0
M  V30 825 H 75.2432 -3.6659 -0.0267361 0
M  V30 826 H 74.8912 -4.43031 -2.38185 0
M  V30 827 H 74.5912 -5.74777 -1.22085 0
M  V30 828 H 76.1152 -5.71396 -2.15266 0
M  V30 829 H 77.5292 -5.73177 0.118704 0
M  V30 830 H 75.9262 -5.93566 0.88317 0
M  V30 831 H 76.9962 -4.63285 1.43162 0
M  V30 832 N 78.3393 -0.321999 -1.54275 0
M  V30 833 C 79.3023 0.531975 -2.22941 0
M  V30 834 C 80.3023 1.04478 -1.22234 0
M  V30 835 O 81.4923 0.937452 -1.46825 0
M  V30 836 C 78.6243 1.73874 -2.93224 0
M  V30 837 H 79.8173 -0.0682612 -2.99822 0
M  V30 838 H 77.3703 -0.0730644 -1.56129 0
M  V30 839 H 78.1053 2.37825 -2.20476 0
M  V30 840 H 77.8903 1.37847 -3.6707 0
M  V30 841 H 79.3803 2.34496 -3.45545 0
M  V30 842 N 79.8174 1.5752 -0.0501392 0
M  V30 843 C 81.0454 1.96963 0.633492 0
M  V30 844 C 81.4604 0.927631 1.6444 0
M  V30 845 O 80.8174 -0.0882665 1.82286 0
M  V30 846 C 80.8684 3.36487 1.32132 0
M  V30 847 O 80.5894 4.36693 0.350894 0
M  V30 848 C 82.0904 3.90682 2.09481 0
M  V30 849 H 79.3104 0.648244 0.173266 0
M  V30 850 H 81.8544 2.0417 -0.116134 0
M  V30 851 H 80.0094 3.30434 2.02218 0
M  V30 852 H 80.4234 5.17702 0.841735 0
M  V30 853 H 81.8974 4.90591 2.5303 0
M  V30 854 H 82.3744 3.26053 2.94255 0
M  V30 855 H 82.9804 4.00069 1.44307 0
M  V30 856 N 81.2955 -0.223234 1.56011 0
M  V30 857 C 82.5415 -0.949279 1.79211 0
M  V30 858 C 82.8745 -1.84054 0.619494 0
M  V30 859 O 82.1495 -1.90726 -0.381317 0
M  V30 860 C 82.4325 -1.78965 3.12479 0
M  V30 861 C 82.2855 -0.924997 4.40186 0
M  V30 862 C 83.6045 -2.76774 3.42175 0
M  V30 863 H 80.7235 -0.343676 0.651963 0
M  V30 864 H 83.3655 -0.218253 1.88742 0
M  V30 865 H 81.5155 -2.41291 3.04485 0
M  V30 866 H 83.1875 -0.318615 4.60198 0
M  V30 867 H 81.4305 -0.230344 4.33188 0
M  V30 868 H 82.1015 -1.54735 5.29869 0
M  V30 869 H 84.5775 -2.24584 3.50287 0
M  V30 870 H 83.4535 -3.32678 4.36597 0
M  V30 871 H 83.7145 -3.54429 2.64258 0
M  V30 872 N 82.7736 -1.49793 -0.48987 0
M  V30 873 C 84.0506 -1.50348 -1.25119 0
M  V30 874 C 84.4306 -0.237466 -2.0976 0
M  V30 875 O 83.7786 0.77981 -2.14782 0
M  V30 876 C 83.9886 -2.78872 -2.09837 0
M  V30 877 C 85.3366 -3.288 -2.68655 0
M  V30 878 O 86.3606 -2.80065 -2.20096 0
M  V30 879 O 85.2196 -4.13707 -3.57083 0
M  V30 880 H 82.3136 -0.602242 -0.566775 0
M  V30 881 H 84.8596 -1.62067 -0.503229 0
M  V30 882 H 83.6316 -3.62499 -1.47343 0
M  V30 883 H 83.2546 -2.70066 -2.91805 0
M  V30 884 N 84.2517 0.741722 -1.39055 0
M  V30 885 C 85.4997 1.49818 -1.35643 0
M  V30 886 C 85.8207 1.94938 0.0491642 0
M  V30 887 O 85.0907 1.68505 0.999141 0
M  V30 888 H 83.6707 0.555755 -0.499144 0
M  V30 889 H 86.3327 0.880957 -1.73854 0
M  V30 890 H 85.4287 2.38348 -2.01486 0
M  V30 891 N 85.7298 1.2412 0.971189 0
M  V30 892 C 86.6618 0.988349 2.06795 0
M  V30 893 C 87.6748 -0.0409541 1.62748 0
M  V30 894 O 88.8638 0.195673 1.77424 0
M  V30 895 C 85.9638 0.469023 3.35639 0
M  V30 896 C 85.1368 1.56065 4.08611 0
M  V30 897 C 84.1958 1.04458 5.15728 0
M  V30 898 O 83.2218 1.73553 5.42096 0
M  V30 899 N 84.4238 -0.122817 5.8037 0
M  V30 900 H 87.1888 1.93265 2.29061 0
M  V30 901 H 84.7498 1.15102 1.13856 0
M  V30 902 H 86.7418 0.108613 4.04554 0
M  V30 903 H 85.3118 -0.380919 3.1027 0
M  V30 904 H 84.5318 2.09341 3.34021 0
M  V30 905 H 85.8198 2.29449 4.54126 0
M  V30 906 H 85.2178 -0.700563 5.61345 0
M  V30 907 H 83.7748 -0.424404 6.50417 0
M  V30 908 N 87.2079 -1.17134 1.05439 0
M  V30 909 C 88.4559 -1.87085 0.764429 0
M  V30 910 C 88.7769 -1.81584 -0.710787 0
M  V30 911 O 88.0469 -1.24349 -1.51374 0
M  V30 912 H 86.6269 -0.692627 0.279779 0
M  V30 913 H 89.2889 -1.42087 1.33406 0
M  V30 914 H 88.3849 -2.92759 1.0816 0
M  V30 915 N 88.686 -0.835752 -1.33615 0
M  V30 916 C 90.102 -0.523139 -1.50783 0
M  V30 917 C 90.302 0.950171 -1.77691 0
M  V30 918 O 89.358 1.73411 -1.83534 0
M  V30 919 C 90.671 -1.39378 -2.66448 0
M  V30 920 C 92.219 -1.39223 -2.80332 0
M  V30 921 C 92.694 -2.24765 -3.99055 0
M  V30 922 N 94.185 -2.22458 -4.06284 0
M  V30 923 C 94.92 -2.85386 -4.97336 0
M  V30 924 N 94.416 -3.57354 -5.93523 0
M  V30 925 N 96.209 -2.74872 -4.90308 0
M  V30 926 H 88.36 -1.78952 -1.14411 0
M  V30 927 H 90.623 -0.763297 -0.562212 0
M  V30 928 H 90.329 -2.44061 -2.53234 0
M  V30 929 H 90.203 -1.0676 -3.61776 0
M  V30 930 H 92.59 -0.353136 -2.92979 0
M  V30 931 H 92.671 -1.75846 -1.85773 0
M  V30 932 H 92.315 -3.28732 -3.87167 0
M  V30 933 H 92.245 -1.85485 -4.92852 0
M  V30 934 H 94.736 -1.70119 -3.37443 0
M  V30 935 H 95.049 -4.02584 -6.59656 0
M  V30 936 H 93.394 -3.61461 -5.93608 0
M  V30 937 H 96.585 -2.18213 -4.14126 0
M  V30 938 H 96.758 -3.24199 -5.61069 0
M  V30 939 N 90.1641 1.46063 -0.591896 0
M  V30 940 C 91.5751 1.85944 -0.167822 0
M  V30 941 C 91.9261 1.49429 1.27143 0
M  V30 942 O 91.0511 0.913515 1.96173 0
M  V30 943 C 91.6461 3.37489 -0.297794 0
M  V30 944 C 90.2051 3.76332 0.0714732 0
M  V30 945 C 89.3521 2.7006 -0.629509 0
M  V30 946 H 92.3031 1.37087 -0.799555 0
M  V30 947 H 92.3241 3.77532 0.474349 0
M  V30 948 H 91.8361 3.64034 -1.3454 0
M  V30 949 H 89.9371 3.55405 1.11886 0
M  V30 950 H 90.0501 4.78088 -0.311245 0
M  V30 951 H 88.4141 2.54607 -0.0687867 0
M  V30 952 H 89.1971 2.99444 -1.67894 0
M  V30 953 N 91.6422 0.330177 1.54103 0
M  V30 954 C 92.8672 -0.274893 2.0557 0
M  V30 955 C 93.2922 -1.44487 1.20437 0
M  V30 956 O 92.6502 -1.80021 0.214991 0
M  V30 957 C 92.6982 -0.68079 3.54115 0
M  V30 958 O 91.8022 -1.7824 3.71893 0
M  V30 959 H 91.1432 -0.0483849 0.662235 0
M  V30 960 H 93.6732 0.480508 1.98878 0
M  V30 961 H 93.6832 -0.961635 3.96505 0
M  V30 962 H 92.3582 0.174903 4.15532 0
M  V30 963 H 90.9352 -1.49985 3.41407 0
M  V30 964 N 93.1203 -1.57491 0.0584922 0
M  V30 965 C 94.3483 -1.97296 -0.623037 0
M  V30 966 C 94.7633 -0.936338 -1.63946 0
M  V30 967 O 94.1203 0.0785981 -1.82331 0
M  V30 968 C 94.1713 -3.37183 -1.30345 0
M  V30 969 O 93.8923 -4.36872 -0.32773 0
M  V30 970 C 95.3933 -3.91788 -2.07406 0
M  V30 971 H 92.6133 -0.649153 -0.169826 0
M  V30 972 H 95.1573 -2.04106 0.12696 0
M  V30 973 H 93.3123 -3.31502 -2.00463 0
M  V30 974 H 93.7263 -5.18141 -0.814269 0
M  V30 975 H 95.2003 -4.91926 -2.50425 0
M  V30 976 H 95.6773 -3.27609 -2.92521 0
M  V30 977 H 96.2833 -4.00829 -1.42184 0
M  V30 978 N 94.5984 0.214957 -1.56127 0
M  V30 979 C 96.0144 0.564948 -1.49267 0
M  V30 980 C 96.2144 1.86827 -0.754838 0
M  V30 981 O 95.2704 2.50745 -0.297198 0
M  V30 982 C 96.5834 0.638071 -2.93852 0
M  V30 983 C 98.1314 0.728253 -3.0441 0
M  V30 984 C 98.6064 0.832663 -4.50367 0
M  V30 985 N 100.097 0.896712 -4.54437 0
M  V30 986 C 100.832 0.997324 -5.6466 0
M  V30 987 N 100.328 1.06147 -6.8462 0
M  V30 988 N 102.121 1.03297 -5.52527 0
M  V30 989 H 94.2724 -0.640211 -2.02522 0
M  V30 990 H 96.5354 -0.225507 -0.920788 0
M  V30 991 H 96.2414 -0.250126 -3.50809 0
M  V30 992 H 96.1154 1.49947 -3.46115 0
M  V30 993 H 98.5024 1.60689 -2.47514 0
M  V30 994 H 98.5834 -0.158952 -2.55306 0
M  V30 995 H 98.2274 -0.0415417 -5.07883 0
M  V30 996 H 98.1574 1.73538 -4.97184 0
M  V30 997 H 100.648 0.857188 -3.6805 0
M  V30 998 H 100.961 1.1382 -7.64372 0
M  V30 999 H 99.3064 1.03049 -6.87318 0
M  V30 1000 H 102.497 0.979558 -4.57736 0
M  V30 1001 H 102.67 1.10793 -6.38458 0
M  V30 1002 N 96.0765 1.50051 0.48192 0
M  V30 1003 C 97.3255 1.59741 1.23149 0
M  V30 1004 C 97.6385 0.298163 1.93314 0
M  V30 1005 O 98.8445 0.273835 2.70116 0
M  V30 1006 C 97.3005 2.81926 2.23708 0
M  V30 1007 C 96.9085 4.18685 1.59396 0
M  V30 1008 C 98.6525 3.00956 2.99375 0
M  V30 1009 C 96.5595 5.3207 2.58178 0
M  V30 1010 H 95.4895 0.594838 0.46334 0
M  V30 1011 H 98.1405 1.76467 0.503169 0
M  V30 1012 H 96.5225 2.58736 2.99786 0
M  V30 1013 H 97.6965 4.52088 0.891811 0
M  V30 1014 H 96.0115 4.05171 0.960503 0
M  V30 1015 H 98.6085 3.82836 3.73283 0
M  V30 1016 H 98.9515 2.12258 3.58123 0
M  V30 1017 H 99.4845 3.24277 2.30411 0
M  V30 1018 H 96.2235 6.22888 2.04184 0
M  V30 1019 H 95.7435 5.03098 3.26577 0
M  V30 1020 H 97.4225 5.62196 3.20225 0
M  V30 1021 N 97.5546 -0.734337 1.39446 0
M  V30 1022 C 98.8006 -1.49613 1.36908 0
M  V30 1023 C 99.1336 -1.94169 -0.0347829 0
M  V30 1024 O 98.4086 -1.66833 -0.999847 0
M  V30 1025 C 98.6916 -2.73534 2.34203 0
M  V30 1026 C 98.5446 -2.34993 3.83534 0
M  V30 1027 C 99.8636 -3.75635 2.29317 0
M  V30 1028 H 96.9826 -0.542714 0.498629 0
M  V30 1029 H 99.6246 -0.839597 1.70443 0
M  V30 1030 H 97.7746 -3.29553 2.05736 0
M  V30 1031 H 99.4466 -1.84601 4.22753 0
M  V30 1032 H 97.6896 -1.67213 4.00278 0
M  V30 1033 H 98.3606 -3.23738 4.47099 0
M  V30 1034 H 100.837 -3.29203 2.54489 0
M  V30 1035 H 99.7126 -4.60008 2.99472 0
M  V30 1036 H 99.9736 -4.22603 1.29842 0
M  V30 1037 N 99.0327 -1.24633 -0.964593 0
M  V30 1038 C 100.279 -1.08949 -1.71049 0
M  V30 1039 C 100.612 0.370302 -1.90637 0
M  V30 1040 O 99.8867 1.27349 -1.47011 0
M  V30 1041 C 100.17 -1.83329 -3.0994 0
M  V30 1042 C 100.023 -3.37077 -2.97824 0
M  V30 1043 C 101.342 -1.60846 -4.09654 0
M  V30 1044 H 98.4607 -0.397178 -0.620821 0
M  V30 1045 H 101.103 -1.5334 -1.12191 0
M  V30 1046 H 99.2527 -1.45597 -3.60186 0
M  V30 1047 H 100.925 -3.84425 -2.5498 0
M  V30 1048 H 99.1677 -3.65298 -2.33965 0
M  V30 1049 H 99.8387 -3.84324 -3.96231 0
M  V30 1050 H 102.315 -1.93674 -3.68279 0
M  V30 1051 H 101.191 -2.1534 -5.04896 0
M  V30 1052 H 101.452 -0.547434 -4.38698 0
M  V30 1053 N 100.511 1.16574 -1.06058 0
M  V30 1054 C 101.76 1.86385 -0.770944 0
M  V30 1055 C 102.073 1.82448 0.705129 0
M  V30 1056 O 103.279 2.47815 1.10905 0
M  V30 1057 C 101.735 3.34466 -1.32893 0
M  V30 1058 C 101.343 3.46883 -2.83507 0
M  V30 1059 C 103.087 4.09548 -1.11672 0
M  V30 1060 C 100.994 4.89036 -3.32562 0
M  V30 1061 H 99.9238 0.698181 -0.284709 0
M  V30 1062 H 102.575 1.31583 -1.27899 0
M  V30 1063 H 100.957 3.88859 -0.748662 0
M  V30 1064 H 102.131 3.02663 -3.47465 0
M  V30 1065 H 100.446 2.85232 -3.03368 0
M  V30 1066 H 103.043 5.14434 -1.45814 0
M  V30 1067 H 103.386 4.16264 -0.0549535 0
M  V30 1068 H 103.919 3.61387 -1.66265 0
M  V30 1069 H 100.658 4.87499 -4.38207 0
M  V30 1070 H 100.178 5.3389 -2.73351 0
M  V30 1071 H 101.857 5.57843 -3.2775 0
M  V30 1072 N 101.989 0.842826 1.3317 0
M  V30 1073 C 102.952 0.284065 2.27433 0
M  V30 1074 C 103.952 -0.54948 1.5112 0
M  V30 1075 O 105.142 -0.362699 1.70382 0
M  V30 1076 C 102.274 -0.599384 3.35589 0
M  V30 1077 H 103.467 1.11589 2.78366 0
M  V30 1078 H 101.02 0.616221 1.4364 0
M  V30 1079 H 101.755 -1.45349 2.89904 0
M  V30 1080 H 101.54 -0.00291266 3.921 0
M  V30 1081 H 103.03 -0.983488 4.05854 0
M  V30 1082 N 103.467 -1.45747 0.599634 0
M  V30 1083 C 104.377 -2.34262 -0.125888 0
M  V30 1084 C 105.393 -1.50768 -0.868625 0
M  V30 1085 O 106.569 -1.83592 -0.828003 0
M  V30 1086 C 103.634 -3.28252 -1.11587 0
M  V30 1087 C 102.695 -4.27651 -0.375956 0
M  V30 1088 C 101.928 -5.1715 -1.31877 0
M  V30 1089 O 102.151 -5.09916 -2.55621 0
M  V30 1090 O 101.085 -5.96286 -0.820157 0
M  V30 1091 H 104.911 -2.97688 0.601315 0
M  V30 1092 H 102.496 -1.44999 0.359934 0
M  V30 1093 H 104.378 -3.86191 -1.68626 0
M  V30 1094 H 103.053 -2.67401 -1.82424 0
M  V30 1095 H 101.96 -3.7335 0.236698 0
M  V30 1096 H 103.293 -4.91334 0.29177 0
M  V30 1097 N 104.945 -0.338344 -1.53925 0
M  V30 1098 C 105.875 0.51328 -2.27789 0
M  V30 1099 C 106.856 1.107 -1.29149 0
M  V30 1100 O 108.041 1.12937 -1.57984 0
M  V30 1101 C 105.171 1.66697 -3.04679 0
M  V30 1102 C 104.125 1.20183 -4.1078 0
M  V30 1103 C 103.451 2.44363 -4.75595 0
M  V30 1104 C 104.751 0.30605 -5.21403 0
M  V30 1105 H 106.445 -0.102883 -2.99223 0
M  V30 1106 H 103.991 -0.0509219 -1.4391 0
M  V30 1107 H 105.944 2.26915 -3.55088 0
M  V30 1108 H 104.668 2.30995 -2.30887 0
M  V30 1109 H 103.327 0.622499 -3.61276 0
M  V30 1110 H 102.975 3.07057 -3.98403 0
M  V30 1111 H 102.675 2.13925 -5.47275 0
M  V30 1112 H 104.199 3.05317 -5.28786 0
M  V30 1113 H 105.613 0.814929 -5.67478 0
M  V30 1114 H 104.01 0.0937929 -6.00027 0
M  V30 1115 H 105.08 -0.65921 -4.80398 0
M  V30 1116 N 106.423 1.57458 -0.0668435 0
M  V30 1117 C 107.671 1.92919 0.602214 0
M  V30 1118 C 107.992 0.947215 1.70449 0
M  V30 1119 O 107.262 -0.00544117 1.95899 0
M  V30 1120 H 105.842 0.71217 0.22544 0
M  V30 1121 H 108.504 1.94508 -0.123535 0
M  V30 1122 H 107.6 2.94589 1.03073 0
M  V30 1123 N 107.901 -0.206675 1.56239 0
M  V30 1124 C 108.811 -1.27686 1.96808 0
M  V30 1125 C 109.827 -1.50455 0.874035 0
M  V30 1126 O 111.003 -1.63295 1.17884 0
M  V30 1127 C 108.068 -2.60358 2.28942 0
M  V30 1128 C 107.129 -2.45762 3.51994 0
M  V30 1129 C 106.362 -3.72108 3.82585 0
M  V30 1130 O 106.585 -4.75776 3.14631 0
M  V30 1131 O 105.519 -3.6833 4.76043 0
M  V30 1132 H 109.345 -0.962593 2.88041 0
M  V30 1133 H 106.93 -0.410746 1.43643 0
M  V30 1134 H 108.812 -3.38687 2.50737 0
M  V30 1135 H 107.487 -2.91435 1.4088 0
M  V30 1136 H 106.394 -1.65584 3.35459 0
M  V30 1137 H 107.727 -2.19621 4.40486 0
M  V30 1138 N 109.379 -1.50304 -0.473955 0
M  V30 1139 C 110.795 -1.37667 -0.807466 0
M  V30 1140 C 110.995 -0.430555 -1.96846 0
M  V30 1141 O 110.051 0.127874 -2.52176 0
M  V30 1142 C 111.364 -2.78974 -1.12223 0
M  V30 1143 C 112.912 -2.87868 -1.22885 0
M  V30 1144 C 113.387 -4.30003 -1.57676 0
M  V30 1145 N 114.878 -4.3294 -1.64673 0
M  V30 1146 C 115.613 -5.3991 -1.93091 0
M  V30 1147 N 115.109 -6.57092 -2.1955 0
M  V30 1148 N 116.902 -5.27351 -1.94569 0
M  V30 1149 H 109.053 -2.10394 0.291212 0
M  V30 1150 H 111.316 -0.945575 0.0677609 0
M  V30 1151 H 111.022 -3.50031 -0.342229 0
M  V30 1152 H 110.896 -3.16038 -2.05913 0
M  V30 1153 H 113.283 -2.17032 -1.99953 0
M  V30 1154 H 113.364 -2.54352 -0.271814 0
M  V30 1155 H 113.008 -5.01375 -0.81149 0
M  V30 1156 H 112.938 -4.61004 -2.54525 0
M  V30 1157 H 115.429 -3.48441 -1.46277 0
M  V30 1158 H 115.742 -7.34425 -2.405 0
M  V30 1159 H 114.087 -6.60272 -2.16948 0
M  V30 1160 H 117.278 -4.34801 -1.73394 0
M  V30 1161 H 117.451 -6.10805 -2.16381 0
M  V30 1162 N 110.857 0.726932 -1.39834 0
M  V30 1163 C 112.105 1.4837 -1.37225 0
M  V30 1164 C 112.426 1.94979 0.0284857 0
M  V30 1165 O 111.696 1.69555 0.981213 0
M  V30 1166 H 110.276 0.55043 -0.505011 0
M  V30 1167 H 112.938 0.862468 -1.74778 0
M  V30 1168 H 112.034 2.36198 -2.04003 0
M  V30 1169 N 112.336 1.25143 0.95797 0
M  V30 1170 C 113.582 1.09855 1.70469 0
M  V30 1171 C 113.915 -0.360187 1.90831 0
M  V30 1172 O 113.19 -1.26568 1.47685 0
M  V30 1173 C 113.473 1.8497 3.08963 0
M  V30 1174 C 113.326 3.38652 2.96032 0
M  V30 1175 C 114.645 1.63016 4.08795 0
M  V30 1176 H 111.764 0.400465 0.618706 0
M  V30 1177 H 114.406 1.53933 1.11376 0
M  V30 1178 H 112.556 1.47505 3.59409 0
M  V30 1179 H 114.228 3.85772 2.52938 0
M  V30 1180 H 112.471 3.66534 2.32025 0
M  V30 1181 H 113.142 3.8642 3.94187 0
M  V30 1182 H 115.618 1.95625 3.67247 0
M  V30 1183 H 114.494 2.18015 5.03747 0
M  V30 1184 H 114.755 0.570692 4.38401 0
M  V30 1185 N 113.814 -1.1601 1.06675 0
M  V30 1186 C 115.06 -1.86909 0.786945 0
M  V30 1187 C 115.393 -1.81717 -0.685018 0
M  V30 1188 O 114.668 -1.23551 -1.50218 0
M  V30 1189 C 114.951 -3.36313 1.28707 0
M  V30 1190 C 114.804 -3.50175 2.82308 0
M  V30 1191 C 116.123 -4.3084 0.898071 0
M  V30 1192 H 113.242 -0.678677 0.287343 0
M  V30 1193 H 115.884 -1.36336 1.32334 0
M  V30 1194 H 114.034 -3.79513 0.830768 0
M  V30 1195 H 115.706 -3.15886 3.36175 0
M  V30 1196 H 113.949 -2.91959 3.20847 0
M  V30 1197 H 114.62 -4.55116 3.12368 0
M  V30 1198 H 117.096 -3.95561 1.29114 0
M  V30 1199 H 115.972 -5.33876 1.27543 0
M  V30 1200 H 116.233 -4.41662 -0.196651 0
M  V30 1201 N 115.292 -0.849877 -1.32721 0
M  V30 1202 C 116.539 -0.450923 -1.97416 0
M  V30 1203 C 116.867 0.992376 -1.67279 0
M  V30 1204 O 116.122 1.71048 -0.950845 0
M  V30 1205 C 116.421 -0.631272 -3.51781 0
M  V30 1206 C 116.087 -2.04432 -4.01894 0
M  V30 1207 C 114.749 -2.4308 -4.1529 0
M  V30 1208 C 117.101 -2.96679 -4.28522 0
M  V30 1209 C 114.429 -3.73257 -4.52654 0
M  V30 1210 C 116.781 -4.26349 -4.67343 0
M  V30 1211 C 115.445 -4.64939 -4.78945 0
M  V30 1212 H 114.715 -0.165004 -0.722395 0
M  V30 1213 H 117.362 -1.07901 -1.58207 0
M  V30 1214 H 115.667 0.0800767 -3.91718 0
M  V30 1215 H 117.364 -0.302709 -3.99856 0
M  V30 1216 H 113.954 -1.73419 -3.91949 0
M  V30 1217 H 118.138 -2.68054 -4.17685 0
M  V30 1218 H 113.394 -4.02946 -4.59831 0
M  V30 1219 H 117.568 -4.97895 -4.86902 0
M  V30 1220 H 115.195 -5.65855 -5.07654 0
M  V30 1221 N 116.77 1.45427 -0.607355 0
M  V30 1222 C 117.733 2.28974 0.101693 0
M  V30 1223 C 118.733 1.39754 0.795329 0
M  V30 1224 O 119.923 1.61878 0.643527 0
M  V30 1225 C 117.055 3.20768 1.15414 0
M  V30 1226 H 118.248 2.93147 -0.632844 0
M  V30 1227 H 115.801 1.51945 -0.366391 0
M  V30 1228 H 116.536 2.61395 1.91945 0
M  V30 1229 H 116.321 3.86489 0.66098 0
M  V30 1230 H 117.811 3.83589 1.65073 0
M  V30 1231 N 118.248 0.346503 1.53744 0
M  V30 1232 C 119.476 -0.25041 2.05379 0
M  V30 1233 C 119.891 -1.43979 1.22129 0
M  V30 1234 O 119.248 -1.80677 0.257321 0
M  V30 1235 C 119.299 -0.662575 3.55376 0
M  V30 1236 O 119.02 0.479515 4.35468 0
M  V30 1237 C 120.521 -1.31989 4.23195 0
M  V30 1238 H 117.741 -0.0478198 0.669294 0
M  V30 1239 H 120.285 0.499346 1.9831 0
M  V30 1240 H 118.44 -1.36227 3.62658 0
M  V30 1241 H 118.854 0.15037 5.24284 0
M  V30 1242 H 120.328 -1.55902 5.29527 0
M  V30 1243 H 120.805 -2.27436 3.75725 0
M  V30 1244 H 121.411 -0.662154 4.20114 0
M  V30 1245 N 119.726 -1.57421 0.075193 0
M  V30 1246 C 120.676 -2.09441 -0.901025 0
M  V30 1247 C 121.66 -1.00486 -1.25663 0
M  V30 1248 O 122.852 -1.2679 -1.23504 0
M  V30 1249 C 119.981 -2.66233 -2.16737 0
M  V30 1250 C 119.067 -3.82198 -1.83808 0
M  V30 1251 N 119.458 -4.91028 -1.21345 0
M  V30 1252 C 117.756 -3.91558 -2.13538 0
M  V30 1253 C 118.457 -5.71852 -1.06585 0
M  V30 1254 N 117.433 -5.20233 -1.57667 0
M  V30 1255 H 121.235 -2.90972 -0.413815 0
M  V30 1256 H 118.749 -1.6189 -0.128601 0
M  V30 1257 H 120.746 -3.01819 -2.87595 0
M  V30 1258 H 119.406 -1.8615 -2.66042 0
M  V30 1259 H 120.417 -5.10323 -0.88268 0
M  V30 1260 H 117.094 -3.22454 -2.65197 0
M  V30 1261 H 118.484 -6.69401 -0.578933 0
M  V30 1262 N 121.204 0.198386 -1.56346 0
M  V30 1263 C 122.167 1.22952 -1.93431 0
M  V30 1264 C 123.167 1.38611 -0.815092 0
M  V30 1265 O 124.357 1.36479 -1.08255 0
M  V30 1266 C 121.489 2.59946 -2.20546 0
M  V30 1267 H 122.682 0.912626 -2.85677 0
M  V30 1268 H 120.235 0.43977 -1.49986 0
M  V30 1269 H 120.97 2.96696 -1.30927 0
M  V30 1270 H 120.755 2.49953 -3.02102 0
M  V30 1271 H 122.245 3.3431 -2.50253 0
M  V30 1272 N 122.682 1.50554 0.465978 0
M  V30 1273 C 123.959 1.5232 1.22712 0
M  V30 1274 C 124.339 0.270807 2.09356 0
M  V30 1275 O 123.687 -0.745541 2.15995 0
M  V30 1276 C 123.897 2.82175 2.05374 0
M  V30 1277 C 125.245 3.33033 2.6339 0
M  V30 1278 O 126.269 2.83531 2.15612 0
M  V30 1279 O 125.128 4.19336 3.50456 0
M  V30 1280 H 122.222 0.611183 0.557122 0
M  V30 1281 H 124.768 1.62847 0.477381 0
M  V30 1282 H 123.54 3.64797 1.41558 0
M  V30 1283 H 123.163 2.74675 2.87471 0
M  V30 1284 N 124.16 -0.719506 1.40217 0
M  V30 1285 C 125.385 -1.51371 1.4178 0
M  V30 1286 C 125.81 -1.88091 0.0182355 0
M  V30 1287 O 125.168 -1.52997 -0.972707 0
M  V30 1288 C 125.216 -2.768 2.31115 0
M  V30 1289 O 124.32 -3.73349 1.7517 0
M  V30 1290 H 123.661 -0.456529 0.482159 0
M  V30 1291 H 126.191 -0.88644 1.844 0
M  V30 1292 H 126.201 -3.25371 2.46167 0
M  V30 1293 H 124.876 -2.49407 3.3282 0
M  V30 1294 H 123.453 -3.32179 1.69444 0
M  V30 1295 N 125.638 -1.25649 -0.95132 0
M  V30 1296 C 126.57 -1.02112 -2.05197 0
M  V30 1297 C 127.583 0.0150571 -1.62793 0
M  V30 1298 O 128.772 -0.223874 -1.77091 0
M  V30 1299 C 125.872 -0.522361 -3.3485 0
M  V30 1300 C 125.045 -1.62546 -4.06076 0
M  V30 1301 C 124.104 -1.12649 -5.14001 0
M  V30 1302 O 123.13 -1.82156 -5.39266 0
M  V30 1303 N 124.332 0.03047 -5.80492 0
M  V30 1304 H 127.097 -1.96885 -2.25957 0
M  V30 1305 H 124.658 -1.16899 -1.1201 0
M  V30 1306 H 126.65 -0.172961 -4.0433 0
M  V30 1307 H 125.22 0.33151 -3.10837 0
M  V30 1308 H 124.44 -2.14628 -3.30649 0
M  V30 1309 H 125.728 -2.36644 -4.50419 0
M  V30 1310 H 125.126 0.611169 -5.62389 0
M  V30 1311 H 123.683 0.320875 -6.5101 0
M  V30 1312 N 127.117 1.15442 -1.07289 0
M  V30 1313 C 128.064 2.20161 -0.692653 0
M  V30 1314 C 129.034 1.63073 0.31564 0
M  V30 1315 O 130.219 1.89725 0.202235 0
M  V30 1316 C 127.359 3.44967 -0.0959509 0
M  V30 1317 C 126.472 4.16256 -1.15564 0
M  V30 1318 C 125.607 5.28609 -0.524011 0
M  V30 1319 C 124.646 5.91715 -1.56653 0
M  V30 1320 N 123.783 6.9554 -0.957531 0
M  V30 1321 H 128.623 2.52037 -1.59002 0
M  V30 1322 H 126.16 1.2378 -0.794798 0
M  V30 1323 H 128.118 4.16341 0.267628 0
M  V30 1324 H 126.748 3.1361 0.764772 0
M  V30 1325 H 125.8 3.43385 -1.6368 0
M  V30 1326 H 127.112 4.59268 -1.94613 0
M  V30 1327 H 126.266 6.06604 -0.108032 0
M  V30 1328 H 125.005 4.86787 0.29825 0
M  V30 1329 H 124.01 5.12433 -1.9923 0
M  V30 1330 H 125.235 6.35614 -2.39107 0
M  V30 1331 H 123.181 6.55814 -0.156162 0
M  V30 1332 H 123.098 7.36977 -1.68526 0
M  V30 1333 H 124.366 7.77435 -0.567032 0
M  V30 1334 N 128.595 0.856903 1.32268 0
M  V30 1335 C 129.843 0.460474 1.96784 0
M  V30 1336 C 130.164 -0.987701 1.68135 0
M  V30 1337 O 129.434 -1.69058 0.989765 0
M  V30 1338 H 128.014 0.167289 0.728027 0
M  V30 1339 H 130.676 1.09383 1.61312 0
M  V30 1340 H 129.772 0.60739 3.06133 0
M  V30 1341 N 130.073 -1.45103 0.615059 0
M  V30 1342 C 131.489 -1.57137 0.279322 0
M  V30 1343 C 131.689 -1.60523 -1.21797 0
M  V30 1344 O 130.745 -1.53956 -2.00134 0
M  V30 1345 C 132.058 -2.85062 0.957083 0
M  V30 1346 C 133.606 -2.98749 0.933706 0
M  V30 1347 C 134.081 -4.29455 1.59162 0
M  V30 1348 N 135.572 -4.36231 1.55746 0
M  V30 1349 C 136.307 -5.36051 2.0356 0
M  V30 1350 N 135.803 -6.42367 2.59494 0
M  V30 1351 N 137.596 -5.27456 1.94284 0
M  V30 1352 H 129.747 -1.41148 1.58717 0
M  V30 1353 H 132.01 -0.675331 0.665306 0
M  V30 1354 H 131.716 -2.88488 2.01166 0
M  V30 1355 H 131.59 -3.7407 0.48494 0
M  V30 1356 H 133.977 -2.94886 -0.112347 0
M  V30 1357 H 134.058 -2.11132 1.44419 0
M  V30 1358 H 133.702 -4.34077 2.63704 0
M  V30 1359 H 133.632 -5.15901 1.0561 0
M  V30 1360 H 136.123 -3.60011 1.14893 0
M  V30 1361 H 136.436 -7.14793 2.93752 0
M  V30 1362 H 134.781 -6.43097 2.63537 0
M  V30 1363 H 137.972 -4.43308 1.5032 0
M  V30 1364 H 138.145 -6.05099 2.3186 0
M  V30 1365 N 131.551 -0.354651 -1.53558 0
M  V30 1366 C 132.461 0.50515 -2.29097 0
M  V30 1367 C 133.477 1.10223 -1.34636 0
M  V30 1368 O 134.653 1.11553 -1.67684 0
M  V30 1369 C 131.718 1.63479 -3.05738 0
M  V30 1370 C 130.779 1.06636 -4.15845 0
M  V30 1371 C 130.012 2.14217 -4.88822 0
M  V30 1372 O 130.235 3.35137 -4.61562 0
M  V30 1373 O 129.169 1.77887 -5.75013 0
M  V30 1374 H 132.995 -0.109237 -3.03503 0
M  V30 1375 H 130.58 -0.119357 -1.48922 0
M  V30 1376 H 132.462 2.2918 -3.5363 0
M  V30 1377 H 131.137 2.23478 -2.34178 0
M  V30 1378 H 130.044 0.373565 -3.7223 0
M  V30 1379 H 131.377 0.511081 -4.89539 0
M  V30 1380 N 133.029 1.57378 -0.0835403 0
M  V30 1381 C 133.959 2.1641 0.87686 0
M  V30 1382 C 134.94 1.09429 1.30228 0
M  V30 1383 O 136.125 1.37516 1.37124 0
M  V30 1384 C 133.255 2.73517 2.14022 0
M  V30 1385 C 132.209 3.85769 1.85381 0
M  V30 1386 C 131.535 4.29529 3.18448 0
M  V30 1387 C 132.835 5.09486 1.14984 0
M  V30 1388 H 134.529 2.96914 0.385059 0
M  V30 1389 H 132.075 1.42823 0.18377 0
M  V30 1390 H 134.028 3.13463 2.81636 0
M  V30 1391 H 132.752 1.90252 2.65465 0
M  V30 1392 H 131.411 3.46345 1.20169 0
M  V30 1393 H 131.059 3.43169 3.67755 0
M  V30 1394 H 130.759 5.05204 3.00071 0
M  V30 1395 H 132.283 4.72099 3.8724 0
M  V30 1396 H 133.697 5.46674 1.72687 0
M  V30 1397 H 132.094 5.90515 1.06826 0
M  V30 1398 H 133.164 4.84724 0.130749 0
M  V30 1399 N 134.507 -0.190092 1.56449 0
M  V30 1400 C 135.47 -1.21925 1.9408 0
M  V30 1401 C 136.47 -1.38176 0.822431 0
M  V30 1402 O 137.66 -1.35903 1.08977 0
M  V30 1403 C 134.792 -2.58773 2.21922 0
M  V30 1404 H 135.985 -0.897464 2.86157 0
M  V30 1405 H 133.538 -0.43181 1.50217 0
M  V30 1406 H 134.273 -2.95998 1.32499 0
M  V30 1407 H 134.058 -2.48348 3.03424 0
M  V30 1408 H 135.548 -3.32978 2.52022 0
M  V30 1409 N 135.985 -1.50799 -0.457987 0
M  V30 1410 C 136.917 -1.66786 -1.57211 0
M  V30 1411 C 137.93 -0.548962 -1.53265 0
M  V30 1412 O 139.119 -0.8226 -1.58416 0
M  V30 1413 C 136.219 -1.64834 -2.96113 0
M  V30 1414 C 135.392 -2.92971 -3.24787 0
M  V30 1415 C 134.451 -2.83485 -4.43309 0
M  V30 1416 O 133.477 -3.5744 -4.42973 0
M  V30 1417 N 134.679 -1.97929 -5.45714 0
M  V30 1418 H 137.444 -2.62889 -1.43909 0
M  V30 1419 H 135.005 -1.48427 -0.646617 0
M  V30 1420 H 136.997 -1.56084 -3.7339 0
M  V30 1421 H 135.567 -0.764118 -3.03117 0
M  V30 1422 H 134.787 -3.15749 -2.36 0
M  V30 1423 H 136.075 -3.77834 -3.40762 0
M  V30 1424 H 135.473 -1.37182 -5.48815 0
M  V30 1425 H 134.03 -1.95073 -6.21924 0
M  V30 1426 N 137.463 0.71206 -1.40597 0
M  V30 1427 C 138.411 1.84746 -1.41321 0
M  V30 1428 C 139.405 1.66842 -0.293268 0
M  V30 1429 O 140.611 1.73904 -0.464481 0
M  V30 1430 H 136.986 0.608522 -0.441819 0
M  V30 1431 H 138.957 1.81252 -2.37045 0
M  V30 1432 C 137.706 3.22638 -1.29614 0
M  V30 1433 H 137.029 3.37023 -2.15071 0
M  V30 1434 H 138.469 4.02209 -1.3418 0
M  V30 1435 C 136.928 3.36899 -0.00673121 0
M  V30 1436 O 137.458 3.90186 0.954859 0
M  V30 1437 N 135.664 2.9053 0.0639327 0
M  V30 1438 H 135.211 2.47353 -0.719311 0
M  V30 1439 H 135.169 3.0045 0.926118 0
M  V30 1440 N 138.941 1.26152 0.944643 0
M  V30 1441 C 140.352 1.10454 1.50522 0
M  V30 1442 C 140.703 -0.31635 1.93633 0
M  V30 1443 O 139.828 -1.20746 1.79581 0
M  V30 1444 C 140.423 1.99891 2.73549 0
M  V30 1445 C 138.982 1.88348 3.25886 0
M  V30 1446 C 138.129 1.93447 1.9868 0
M  V30 1447 H 141.08 1.39292 0.760489 0
M  V30 1448 H 141.101 1.54477 3.47732 0
M  V30 1449 H 140.613 3.03297 2.42141 0
M  V30 1450 H 138.714 0.878636 3.62092 0
M  V30 1451 H 138.827 2.73696 3.93227 0
M  V30 1452 H 137.191 1.37456 2.14425 0
M  V30 1453 H 137.974 2.98476 1.69607 0
M  V30 1454 N 140.419 -1.14872 1.07899 0
M  V30 1455 C 141.665 -1.86289 0.81657 0
M  V30 1456 C 142.02 -1.8107 -0.65049 0
M  V30 1457 O 141.313 -1.22684 -1.47171 0
M  V30 1458 C 141.507 -3.34223 1.26609 0
M  V30 1459 C 141.336 -3.53846 2.77531 0
M  V30 1460 C 140.106 -3.68995 3.45212 0
M  V30 1461 C 142.304 -3.51201 3.75716 0
M  V30 1462 N 140.286 -3.76725 4.84718 0
M  V30 1463 C 141.657 -3.65112 5.01092 0
M  V30 1464 C 143.712 -3.34507 3.68794 0
M  V30 1465 C 142.415 -3.64056 6.20368 0
M  V30 1466 C 144.441 -3.34752 4.8754 0
M  V30 1467 C 143.803 -3.49199 6.11751 0
M  V30 1468 H 139.902 -0.698579 0.351443 0
M  V30 1469 H 142.486 -1.37713 1.37634 0
M  V30 1470 H 140.657 -3.81402 0.73395 0
M  V30 1471 H 142.389 -3.93377 0.95062 0
M  V30 1472 H 139.144 -3.70006 2.95622 0
M  V30 1473 H 139.568 -3.8432 5.5734 0
M  V30 1474 H 144.21 -3.22253 2.73702 0
M  V30 1475 H 141.928 -3.75087 7.15776 0
M  V30 1476 H 145.514 -3.23055 4.83866 0
M  V30 1477 H 144.394 -3.49328 7.02097 0
M  V30 1478 N 141.898 -0.863906 -1.31812 0
M  V30 1479 C 142.861 -0.320212 -2.26952 0
M  V30 1480 C 143.861 0.525369 -1.51975 0
M  V30 1481 O 145.051 0.335547 -1.70938 0
M  V30 1482 C 142.183 0.545919 -3.365 0
M  V30 1483 H 143.376 -1.16004 -2.76556 0
M  V30 1484 H 140.929 -0.638995 -1.42641 0
M  V30 1485 H 141.664 1.40718 -2.92179 0
M  V30 1486 H 141.449 -0.0594674 -3.92055 0
M  V30 1487 H 142.939 0.918796 -4.07367 0
M  V30 1488 N 143.376 1.44774 -0.622745 0
M  V30 1489 C 144.601 2.06999 -0.128968 0
M  V30 1490 C 145.026 1.4617 1.1839 0
M  V30 1491 O 144.384 0.560007 1.72434 0
M  V30 1492 C 144.432 3.60595 -0.0188351 0
M  V30 1493 O 143.536 3.99398 1.02739 0
M  V30 1494 H 142.877 0.659047 -0.0809544 0
M  V30 1495 H 145.407 1.85784 -0.85705 0
M  V30 1496 H 145.417 4.07627 0.174476 0
M  V30 1497 H 144.092 4.04252 -0.977384 0
M  V30 1498 H 142.669 3.64011 0.809326 0
M  V30 1499 N 144.854 0.36279 1.53368 0
M  V30 1500 C 146.102 -0.227326 2.00817 0
M  V30 1501 C 146.423 -1.49511 1.25186 0
M  V30 1502 O 145.693 -1.92482 0.364348 0
M  V30 1503 H 144.273 -0.0869923 0.741917 0
M  V30 1504 H 146.935 0.488381 1.88682 0
M  V30 1505 H 146.031 -0.456273 3.08747 0
M  V30 1506 N 146.332 -1.57332 0.0918853 0
M  V30 1507 C 147.578 -1.94524 -0.573425 0
M  V30 1508 C 147.911 -0.973578 -1.68033 0
M  V30 1509 O 147.186 -0.00609226 -1.94499 0
M  V30 1510 C 147.469 -3.41858 -1.13161 0
M  V30 1511 C 147.322 -4.4979 -0.0299747 0
M  V30 1512 C 148.641 -3.90435 -2.03098 0
M  V30 1513 H 145.76 -0.70734 -0.206975 0
M  V30 1514 H 148.402 -1.89309 0.161942 0
M  V30 1515 H 146.552 -3.46433 -1.7583 0
M  V30 1516 H 148.224 -4.57327 0.604112 0
M  V30 1517 H 146.467 -4.291 0.636833 0
M  V30 1518 H 147.138 -5.50069 -0.461287 0
M  V30 1519 H 149.614 -3.87992 -1.50338 0
M  V30 1520 H 148.49 -4.94097 -2.39081 0
M  V30 1521 H 148.751 -3.29541 -2.94712 0
M  V30 1522 N 147.81 0.181792 -1.56548 0
M  V30 1523 C 148.74 1.22765 -1.98623 0
M  V30 1524 C 149.721 1.46747 -0.860189 0
M  V30 1525 O 150.906 1.58259 -1.12551 0
M  V30 1526 C 148.036 2.56894 -2.33715 0
M  V30 1527 C 146.99 2.475 -3.49182 0
M  V30 1528 C 146.316 3.86023 -3.69986 0
M  V30 1529 C 147.616 1.98866 -4.82959 0
M  V30 1530 H 149.31 0.877942 -2.86239 0
M  V30 1531 H 146.856 0.42088 -1.37712 0
M  V30 1532 H 148.809 3.30253 -2.61746 0
M  V30 1533 H 147.533 2.93632 -1.42997 0
M  V30 1534 H 146.192 1.76596 -3.21262 0
M  V30 1535 H 145.84 4.20136 -2.76576 0
M  V30 1536 H 145.54 3.80609 -4.47672 0
M  V30 1537 H 147.064 4.60984 -4.00407 0
M  V30 1538 H 148.478 2.61992 -5.09934 0
M  V30 1539 H 146.875 2.04424 -5.64208 0
M  V30 1540 H 147.945 0.942465 -4.75653 0
M  V30 1541 N 149.288 1.51039 0.449983 0
M  V30 1542 C 150.518 1.66627 1.22143 0
M  V30 1543 C 150.926 0.357776 1.85786 0
M  V30 1544 O 150.269 -0.672424 1.70951 0
M  V30 1545 C 150.331 2.71562 2.35573 0
M  V30 1546 C 149.995 4.14526 1.92399 0
M  V30 1547 C 150.992 4.99717 1.43453 0
M  V30 1548 C 148.677 4.60559 2.00475 0
M  V30 1549 C 150.671 6.28998 1.03155 0
M  V30 1550 C 148.358 5.8984 1.59788 0
M  V30 1551 C 149.356 6.73886 1.11208 0
M  V30 1552 O 149.044 8.0075 0.710935 0
M  V30 1553 H 148.776 0.562635 0.374724 0
M  V30 1554 H 151.33 1.98146 0.541036 0
M  V30 1555 H 149.56 2.3533 3.06849 0
M  V30 1556 H 151.249 2.76156 2.97478 0
M  V30 1557 H 152.015 4.65361 1.36618 0
M  V30 1558 H 147.894 3.95273 2.37235 0
M  V30 1559 H 151.438 6.9455 0.651663 0
M  V30 1560 H 147.335 6.23713 1.66289 0
M  V30 1561 H 148.103 8.142 0.837913 0
M  V30 1562 N 150.766 -0.704594 1.40972 0
M  V30 1563 C 152.012 -1.46546 1.41053 0
M  V30 1564 C 152.367 -1.92393 0.0159714 0
M  V30 1565 O 151.66 -1.66017 -0.956506 0
M  V30 1566 C 151.854 -2.698 2.34399 0
M  V30 1567 C 151.683 -2.36008 3.82793 0
M  V30 1568 C 150.453 -2.26812 4.51536 0
M  V30 1569 C 152.651 -1.99565 4.74003 0
M  V30 1570 N 150.633 -1.8581 5.85105 0
M  V30 1571 C 152.004 -1.69251 5.96451 0
M  V30 1572 C 154.059 -1.86296 4.61734 0
M  V30 1573 C 152.762 -1.27003 7.07999 0
M  V30 1574 C 154.788 -1.45452 5.73234 0
M  V30 1575 C 154.15 -1.16043 6.94776 0
M  V30 1576 H 150.249 -0.533896 0.571383 0
M  V30 1577 H 152.833 -0.816061 1.76773 0
M  V30 1578 H 151.004 -3.32473 2.00789 0
M  V30 1579 H 152.736 -3.36214 2.25261 0
M  V30 1580 H 149.491 -2.44913 4.05357 0
M  V30 1581 H 149.915 -1.67817 6.55871 0
M  V30 1582 H 154.557 -2.0769 3.68273 0
M  V30 1583 H 152.275 -1.04353 8.01334 0
M  V30 1584 H 155.861 -1.35748 5.65742 0
M  V30 1585 H 154.741 -0.84915 7.79589 0
M  V30 1586 N 152.244 -1.26651 -0.937939 0
M  V30 1587 C 153.66 -1.03834 -1.21205 0
M  V30 1588 C 153.86 0.234502 -2.00131 0
M  V30 1589 O 152.916 0.942767 -2.3424 0
M  V30 1590 C 154.229 -2.27167 -1.97017 0
M  V30 1591 C 155.777 -2.32101 -2.09996 0
M  V30 1592 C 156.252 -3.55136 -2.8921 0
M  V30 1593 N 157.743 -3.55632 -2.96783 0
M  V30 1594 C 158.478 -4.475 -3.58512 0
M  V30 1595 N 157.974 -5.4966 -4.21717 0
M  V30 1596 N 159.767 -4.35145 -3.55816 0
M  V30 1597 H 151.918 -2.08398 -0.410391 0
M  V30 1598 H 154.181 -0.916031 -0.244114 0
M  V30 1599 H 153.887 -3.19765 -1.46434 0
M  V30 1600 H 153.761 -2.31672 -2.97671 0
M  V30 1601 H 156.148 -1.40015 -2.59769 0
M  V30 1602 H 156.229 -2.31605 -1.08594 0
M  V30 1603 H 155.873 -4.47553 -2.40123 0
M  V30 1604 H 155.803 -3.5288 -3.90875 0
M  V30 1605 H 158.294 -2.81743 -2.51852 0
M  V30 1606 H 158.607 -6.15943 -4.66727 0
M  V30 1607 H 156.952 -5.53514 -4.20294 0
M  V30 1608 H 160.143 -3.5455 -3.05634 0
M  V30 1609 H 160.316 -5.06934 -4.03636 0
M  V30 1610 N 153.722 1.14298 -1.08507 0
M  V30 1611 C 154.632 2.23027 -0.727753 0
M  V30 1612 C 155.648 1.71952 0.26619 0
M  V30 1613 O 156.824 2.011 0.109882 0
M  V30 1614 C 153.889 3.46403 -0.143541 0
M  V30 1615 C 152.95 4.12413 -1.19223 0
M  V30 1616 C 152.183 5.29899 -0.635798 0
M  V30 1617 O 152.406 5.67796 0.544393 0
M  V30 1618 O 151.34 5.85717 -1.38634 0
M  V30 1619 H 155.166 2.55945 -1.63481 0
M  V30 1620 H 152.751 1.22248 -0.858817 0
M  V30 1621 H 154.633 4.21018 0.179404 0
M  V30 1622 H 153.308 3.15206 0.736659 0
M  V30 1623 H 152.215 3.39667 -1.56772 0
M  V30 1624 H 153.548 4.47718 -2.04474 0
M  V30 1625 N 155.201 0.870884 1.31352 0
M  V30 1626 C 156.426 0.495957 2.01383 0
M  V30 1627 C 156.851 -0.904324 1.64935 0
M  V30 1628 O 156.209 -1.59687 0.858466 0
M  V30 1629 C 156.257 0.661433 3.54482 0
M  V30 1630 O 155.361 -0.298851 4.11316 0
M  V30 1631 H 154.702 0.197158 0.634054 0
M  V30 1632 H 157.232 1.17455 1.67527 0
M  V30 1633 H 157.242 0.555072 4.04207 0
M  V30 1634 H 155.917 1.68246 3.8035 0
M  V30 1635 H 154.494 -0.147368 3.72609 0
M  V30 1636 N 156.679 -1.44442 0.630414 0
M  V30 1637 C 157.904 -2.06927 0.139944 0
M  V30 1638 C 158.329 -1.46795 -1.17613 0
M  V30 1639 O 157.687 -0.569144 -1.72135 0
M  V30 1640 C 157.735 -3.6058 0.0379581 0
M  V30 1641 O 156.839 -3.99937 -1.0062 0
M  V30 1642 H 156.18 -0.658608 0.0844483 0
M  V30 1643 H 158.71 -1.85327 0.866891 0
M  V30 1644 H 158.72 -4.07714 -0.152856 0
M  V30 1645 H 157.395 -4.03728 0.998809 0
M  V30 1646 H 155.972 -3.64436 -0.79001 0
M  V30 1647 N 158.157 -0.370918 -1.53173 0
M  V30 1648 C 159.089 0.507823 -2.23503 0
M  V30 1649 C 160.102 1.04182 -1.251 0
M  V30 1650 O 161.291 0.947286 -1.5129 0
M  V30 1651 C 158.391 1.71447 -2.92334 0
M  V30 1652 C 157.564 1.31105 -4.17289 0
M  V30 1653 C 156.623 2.38035 -4.69282 0
M  V30 1654 O 155.649 2.00204 -5.32829 0
M  V30 1655 N 156.851 3.69697 -4.47554 0
M  V30 1656 H 159.616 -0.0946382 -2.99551 0
M  V30 1657 H 157.177 -0.196358 -1.60705 0
M  V30 1658 H 159.169 2.42469 -3.24023 0
M  V30 1659 H 157.739 2.22368 -2.19707 0
M  V30 1660 H 156.959 0.430462 -3.91843 0
M  V30 1661 H 158.247 1.0179 -4.98514 0
M  V30 1662 H 157.645 4.03205 -3.9679 0
M  V30 1663 H 156.202 4.36807 -4.8378 0
M  V30 1664 N 159.635 1.57281 -0.100228 0
M  V30 1665 C 160.567 2.11342 0.886972 0
M  V30 1666 C 161.58 1.05182 1.24261 0
M  V30 1667 O 162.769 1.32613 1.19483 0
M  V30 1668 C 159.869 2.5825 2.19454 0
M  V30 1669 C 159.042 3.88302 2.01346 0
M  V30 1670 C 158.101 4.21004 3.15661 0
M  V30 1671 O 157.127 4.9014 2.89398 0
M  V30 1672 N 158.329 3.76818 4.41575 0
M  V30 1673 H 161.094 2.96668 0.425216 0
M  V30 1674 H 158.655 1.61678 0.0847334 0
M  V30 1675 H 160.647 2.7717 2.94888 0
M  V30 1676 H 159.217 1.77907 2.57037 0
M  V30 1677 H 158.437 3.7848 1.10212 0
M  V30 1678 H 159.725 4.73375 1.8653 0
M  V30 1679 H 159.123 3.2102 4.65792 0
M  V30 1680 H 157.68 4.00882 5.13942 0
M  V30 1681 N 161.113 -0.173488 1.56642 0
M  V30 1682 C 162.362 -0.888758 1.81063 0
M  V30 1683 C 162.675 -1.83506 0.67712 0
M  V30 1684 O 163.881 -2.59254 0.806206 0
M  V30 1685 C 162.337 -1.63091 3.20826 0
M  V30 1686 C 161.945 -0.728357 4.4204 0
M  V30 1687 C 163.689 -2.33454 3.54541 0
M  V30 1688 C 161.596 -1.47062 5.72823 0
M  V30 1689 H 160.526 -0.335618 0.675186 0
M  V30 1690 H 163.177 -0.141712 1.82952 0
M  V30 1691 H 161.559 -2.42263 3.13248 0
M  V30 1692 H 162.733 0.0262449 4.60793 0
M  V30 1693 H 161.048 -0.134492 4.16183 0
M  V30 1694 H 163.645 -2.89578 4.49498 0
M  V30 1695 H 163.988 -3.08687 2.79317 0
M  V30 1696 H 164.521 -1.61227 3.63663 0
M  V30 1697 H 161.26 -0.760658 6.51072 0
M  V30 1698 H 160.78 -2.1986 5.58052 0
M  V30 1699 H 162.459 -2.01868 6.14702 0
M  V30 1700 N 162.591 -1.51276 -0.441967 0
M  V30 1701 C 163.84 -1.6295 -1.18871 0
M  V30 1702 C 164.153 -0.349312 -1.92456 0
M  V30 1703 O 165.359 -0.345355 -2.69295 0
M  V30 1704 C 163.815 -2.87759 -2.16155 0
M  V30 1705 C 163.423 -4.22764 -1.48239 0
M  V30 1706 C 165.167 -3.08788 -2.91291 0
M  V30 1707 C 163.074 -5.38728 -2.4398 0
M  V30 1708 H 162.004 -0.606913 -0.447406 0
M  V30 1709 H 164.655 -1.77739 -0.456205 0
M  V30 1710 H 163.037 -2.66593 -2.92821 0
M  V30 1711 H 164.211 -4.54293 -0.771635 0
M  V30 1712 H 162.526 -4.07575 -0.852741 0
M  V30 1713 H 165.123 -3.92599 -3.63002 0
M  V30 1714 H 165.466 -2.21679 -3.5237 0
M  V30 1715 H 165.999 -3.30272 -2.21733 0
M  V30 1716 H 162.738 -6.28082 -1.87598 0
M  V30 1717 H 162.258 -5.1158 -3.13123 0
M  V30 1718 H 163.937 -5.70489 -3.05207 0
M  V30 1719 N 164.069 0.697108 -1.41344 0
M  V30 1720 C 164.999 1.82353 -1.45841 0
M  V30 1721 C 165.98 1.67115 -0.317247 0
M  V30 1722 O 167.165 1.86871 -0.528474 0
M  V30 1723 C 164.295 3.20476 -1.33838 0
M  V30 1724 C 163.249 3.50415 -2.4575 0
M  V30 1725 C 162.575 4.87878 -2.18813 0
M  V30 1726 C 163.875 3.49546 -3.88091 0
M  V30 1727 H 165.569 1.78846 -2.40113 0
M  V30 1728 H 163.115 0.859028 -1.15571 0
M  V30 1729 H 165.068 3.98988 -1.35596 0
M  V30 1730 H 163.792 3.24604 -0.360498 0
M  V30 1731 H 162.451 2.74253 -2.43271 0
M  V30 1732 H 162.099 4.8863 -1.19371 0
M  V30 1733 H 161.799 5.08875 -2.93803 0
M  V30 1734 H 163.323 5.68702 -2.22284 0
M  V30 1735 H 164.737 4.18066 -3.92293 0
M  V30 1736 H 163.134 3.82075 -4.62751 0
M  V30 1737 H 164.204 2.48552 -4.16353 0
M  V30 1738 N 165.547 1.27147 0.931209 0
M  V30 1739 C 166.495 1.09398 2.05268 0
M  V30 1740 C 167.489 0.0180591 1.6939 0
M  V30 1741 O 168.695 0.17551 1.79142 0
M  V30 1742 H 165.07 0.336986 0.672268 0
M  V30 1743 H 167.041 2.04416 2.17386 0
M  V30 1744 C 165.79 0.75424 3.39421 0
M  V30 1745 H 165.113 1.57404 3.67511 0
M  V30 1746 H 166.553 0.669903 4.18674 0
M  V30 1747 C 165.012 -0.541197 3.32525 0
M  V30 1748 O 165.542 -1.57664 3.69466 0
M  V30 1749 N 163.748 -0.535517 2.85623 0
M  V30 1750 H 163.295 0.307511 2.55758 0
M  V30 1751 H 163.253 -1.40236 2.81392 0
M  V30 1752 N 167.025 -1.13721 1.09112 0
M  V30 1753 C 168.273 -1.84559 0.823562 0
M  V30 1754 C 168.594 -1.83754 -0.652658 0
M  V30 1755 O 167.864 -1.29102 -1.47342 0
M  V30 1756 H 166.444 -0.683376 0.301673 0
M  V30 1757 H 169.106 -1.37771 1.37859 0
M  V30 1758 H 168.202 -2.8917 1.17419 0
M  V30 1759 N 168.503 -0.877838 -1.30888 0
M  V30 1760 C 169.919 -0.570844 -1.49042 0
M  V30 1761 C 170.119 0.893159 -1.80624 0
M  V30 1762 O 169.175 1.67485 -1.88958 0
M  V30 1763 C 170.488 -1.47784 -2.61878 0
M  V30 1764 C 172.036 -1.48071 -2.75761 0
M  V30 1765 C 172.511 -2.37347 -3.91702 0
M  V30 1766 N 174.002 -2.35271 -3.99001 0
M  V30 1767 C 174.737 -3.01063 -4.88004 0
M  V30 1768 N 174.233 -3.76055 -5.81854 0
M  V30 1769 N 176.026 -2.90332 -4.81315 0
M  V30 1770 H 168.177 -1.82502 -1.0866 0
M  V30 1771 H 170.44 -0.780797 -0.537644 0
M  V30 1772 H 170.146 -2.51993 -2.45341 0
M  V30 1773 H 170.02 -1.18215 -3.58197 0
M  V30 1774 H 172.407 -0.446166 -2.91708 0
M  V30 1775 H 172.488 -1.81668 -1.80085 0
M  V30 1776 H 172.132 -3.40883 -3.76512 0
M  V30 1777 H 172.062 -2.01071 -4.86701 0
M  V30 1778 H 174.553 -1.80768 -3.3186 0
M  V30 1779 H 174.866 -4.23366 -6.46514 0
M  V30 1780 H 173.211 -3.80163 -5.81808 0
M  V30 1781 H 176.402 -2.31278 -4.06974 0
M  V30 1782 H 176.575 -3.41885 -5.50471 0
M  V30 1783 N 169.982 1.44106 -0.638065 0
M  V30 1784 C 170.945 2.29138 0.0531013 0
M  V30 1785 C 171.945 1.41409 0.765506 0
M  V30 1786 O 173.135 1.63206 0.609046 0
M  V30 1787 C 170.267 3.23144 1.08584 0
M  V30 1788 H 171.46 2.91739 -0.694883 0
M  V30 1789 H 169.013 1.51134 -0.398538 0
M  V30 1790 H 169.748 2.65408 1.86357 0
M  V30 1791 H 169.533 3.87804 0.578852 0
M  V30 1792 H 171.023 3.87004 1.56899 0
M  V30 1793 N 171.46 0.379036 1.52974 0
M  V30 1794 C 172.37 -0.468639 2.29872 0
M  V30 1795 C 173.386 -1.08067 1.36373 0
M  V30 1796 O 174.562 -1.08871 1.69438 0
M  V30 1797 C 171.627 -1.58594 3.083 0
M  V30 1798 C 170.688 -1.00007 4.17489 0
M  V30 1799 C 169.921 -2.06413 4.92168 0
M  V30 1800 O 170.144 -3.27751 4.66835 0
M  V30 1801 O 169.078 -1.68717 5.7777 0
M  V30 1802 H 172.904 0.157508 3.03291 0
M  V30 1803 H 170.489 0.143035 1.48714 0
M  V30 1804 H 172.371 -2.23525 3.57232 0
M  V30 1805 H 171.046 -2.19724 2.37703 0
M  V30 1806 H 169.953 -0.314299 3.72777 0
M  V30 1807 H 171.286 -0.433135 4.90291 0
M  V30 1808 N 172.938 -1.57226 0.108567 0
M  V30 1809 C 174.354 -1.5766 -0.248058 0
M  V30 1810 C 174.554 -1.12063 -1.67464 0
M  V30 1811 O 173.61 -0.803236 -2.39383 0
M  V30 1812 C 174.923 -3.0069 -0.0242287 0
M  V30 1813 C 176.471 -3.12868 -0.0909372 0
M  V30 1814 C 176.946 -4.57879 0.105067 0
M  V30 1815 N 178.437 -4.63172 0.0506846 0
M  V30 1816 C 179.172 -5.73126 0.177396 0
M  V30 1817 N 178.668 -6.91866 0.359696 0
M  V30 1818 N 180.461 -5.61977 0.117709 0
M  V30 1819 H 172.612 -1.85169 1.04049 0
M  V30 1820 H 174.875 -0.85529 0.40888 0
M  V30 1821 H 174.581 -3.38299 0.961604 0
M  V30 1822 H 174.455 -3.6945 -0.76068 0
M  V30 1823 H 176.842 -2.75124 -1.06729 0
M  V30 1824 H 176.923 -2.46672 0.677225 0
M  V30 1825 H 176.567 -4.96321 1.07834 0
M  V30 1826 H 176.497 -5.22153 -0.682954 0
M  V30 1827 H 178.988 -3.778 -0.0871266 0
M  V30 1828 H 179.301 -7.71503 0.447529 0
M  V30 1829 H 177.646 -6.93874 0.395536 0
M  V30 1830 H 180.837 -4.68094 -0.0236741 0
M  V30 1831 H 181.01 -6.47627 0.219905 0
M  V30 1832 N 174.416 0.165178 -1.56732 0
M  V30 1833 C 175.346 1.20651 -1.99914 0
M  V30 1834 C 176.327 1.45827 -0.875705 0
M  V30 1835 O 177.512 1.57057 -1.14223 0
M  V30 1836 C 174.642 2.54401 -2.36427 0
M  V30 1837 C 173.596 2.43782 -3.51787 0
M  V30 1838 C 172.922 3.82078 -3.7406 0
M  V30 1839 C 174.222 1.93732 -4.85041 0
M  V30 1840 H 175.916 0.847534 -2.87154 0
M  V30 1841 H 173.462 0.40625 -1.38151 0
M  V30 1842 H 175.415 3.27458 -2.65234 0
M  V30 1843 H 174.139 2.92098 -1.46103 0
M  V30 1844 H 172.798 1.73178 -3.23117 0
M  V30 1845 H 172.446 4.17179 -2.81017 0
M  V30 1846 H 172.146 3.7584 -4.51684 0
M  V30 1847 H 173.67 4.56712 -4.05274 0
M  V30 1848 H 175.084 2.56569 -5.12684 0
M  V30 1849 H 173.481 1.98428 -5.66345 0
M  V30 1850 H 174.551 0.891962 -4.76626 0
M  V30 1851 N 175.894 1.51508 0.433938 0
M  V30 1852 C 177.305 1.56784 1.01369 0
M  V30 1853 C 177.656 0.393349 1.92217 0
M  V30 1854 O 176.781 -0.489441 2.10792 0
M  V30 1855 C 177.376 2.84144 1.8452 0
M  V30 1856 C 175.935 2.9198 2.37539 0
M  V30 1857 C 175.082 2.51482 1.16843 0
M  V30 1858 H 178.033 1.57236 0.215081 0
M  V30 1859 H 178.054 2.68098 2.70007 0
M  V30 1860 H 177.566 3.69607 1.18373 0
M  V30 1861 H 175.667 2.10955 3.0713 0
M  V30 1862 H 175.78 3.95704 2.70103 0
M  V30 1863 H 174.144 2.04758 1.51481 0
M  V30 1864 H 174.927 3.39293 0.523015 0
M  V30 1865 N 177.372 -0.689602 1.41712 0
M  V30 1866 C 178.649 -1.44457 1.31877 0
M  V30 1867 C 179.029 -2.11039 -0.0508537 0
M  V30 1868 O 178.377 -2.02138 -1.06547 0
M  V30 1869 C 178.587 -2.45913 2.47645 0
M  V30 1870 C 179.935 -3.10991 2.89084 0
M  V30 1871 O 180.959 -2.56238 2.47428 0
M  V30 1872 O 179.818 -4.10174 3.61137 0
M  V30 1873 H 176.912 -0.64362 0.519309 0
M  V30 1874 H 179.458 -0.719576 1.53689 0
M  V30 1875 H 178.23 -1.95409 3.39015 0
M  V30 1876 H 177.853 -3.25913 2.27742 0
M  V30 1877 N 178.85 -1.27639 -0.924453 0
M  V30 1878 C 179.76 -1.12466 -2.05885 0
M  V30 1879 C 180.776 -0.053869 -1.73917 0
M  V30 1880 O 181.952 -0.261012 -1.99702 0
M  V30 1881 C 179.017 -0.776768 -3.37886 0
M  V30 1882 C 178.078 -1.92878 -3.83532 0
M  V30 1883 C 177.311 -1.59739 -5.09234 0
M  V30 1884 O 177.534 -0.506782 -5.68144 0
M  V30 1885 O 176.468 -2.43761 -5.50331 0
M  V30 1886 H 180.294 -2.07671 -2.21599 0
M  V30 1887 H 177.879 -1.06857 -1.04413 0
M  V30 1888 H 179.761 -0.596229 -4.17161 0
M  V30 1889 H 178.436 0.145732 -3.23372 0
M  V30 1890 H 177.343 -2.1644 -3.0513 0
M  V30 1891 H 178.676 -2.8316 -4.02593 0
M  V30 1892 N 180.328 1.1314 -1.09713 0
M  V30 1893 C 181.744 1.36477 -0.827423 0
M  V30 1894 C 181.944 1.93654 0.556817 0
M  V30 1895 O 181 2.15791 1.31112 0
M  V30 1896 C 182.313 2.31334 -1.92106 0
M  V30 1897 C 183.861 2.44943 -1.94864 0
M  V30 1898 C 184.336 3.4311 -3.0338 0
M  V30 1899 N 185.827 3.50662 -3.02639 0
M  V30 1900 C 186.562 4.2651 -3.83246 0
M  V30 1901 N 186.058 5.05485 -4.73768 0
M  V30 1902 N 187.851 4.2184 -3.71493 0
M  V30 1903 H 180.002 0.743807 -1.9895 0
M  V30 1904 H 182.265 0.389823 -0.864143 0
M  V30 1905 H 181.971 1.96483 -2.91698 0
M  V30 1906 H 181.845 3.31381 -1.80184 0
M  V30 1907 H 184.232 2.79079 -0.959099 0
M  V30 1908 H 184.313 1.4481 -2.10864 0
M  V30 1909 H 183.957 3.09704 -4.02549 0
M  V30 1910 H 183.887 4.43055 -2.84622 0
M  V30 1911 H 186.378 2.94315 -2.37039 0
M  V30 1912 H 186.691 5.60675 -5.3185 0
M  V30 1913 H 185.036 5.04708 -4.77802 0
M  V30 1914 H 188.227 3.5922 -3.00131 0
M  V30 1915 H 188.4 4.80697 -4.3455 0
M  V30 1916 N 181.806 0.884767 1.30421 0
M  V30 1917 C 182.769 0.356277 2.26414 0
M  V30 1918 C 183.769 -0.501124 1.52792 0
M  V30 1919 O 184.959 -0.30831 1.7145 0
M  V30 1920 C 182.091 -0.492316 3.37326 0
M  V30 1921 H 183.284 1.20389 2.74675 0
M  V30 1922 H 180.837 0.661607 1.41607 0
M  V30 1923 H 181.572 -1.36052 2.94381 0
M  V30 1924 H 181.357 0.121832 3.91911 0
M  V30 1925 H 182.847 -0.853871 4.08777 0
M  V30 1926 N 183.284 -1.43765 0.645699 0
M  V30 1927 C 184.561 -1.9541 0.0862963 0
M  V30 1928 C 184.941 -1.58725 -1.39175 0
M  V30 1929 O 184.289 -0.868581 -2.11348 0
M  V30 1930 C 184.499 -3.47488 0.324565 0
M  V30 1931 C 185.847 -4.24001 0.225497 0
M  V30 1932 O 186.871 -3.55274 0.256715 0
M  V30 1933 O 185.73 -5.46313 0.142801 0
M  V30 1934 H 182.824 -0.826882 -0.0139483 0
M  V30 1935 H 185.37 -1.53743 0.718415 0
M  V30 1936 H 184.142 -3.67289 1.3496 0
M  V30 1937 H 183.765 -3.96135 -0.340987 0
M  V30 1938 N 184.763 -0.387143 -1.52771 0
M  V30 1939 C 185.726 0.436939 -2.24997 0
M  V30 1940 C 186.726 0.991991 -1.26555 0
M  V30 1941 O 187.916 0.874335 -1.50669 0
M  V30 1942 C 185.048 1.61281 -3.00335 0
M  V30 1943 H 186.241 -0.195365 -2.99263 0
M  V30 1944 H 183.794 -0.139218 -1.55679 0
M  V30 1945 H 184.529 2.2826 -2.30364 0
M  V30 1946 H 184.314 1.22154 -3.72587 0
M  V30 1947 H 185.804 2.19629 -3.5518 0
M  V30 1948 N 186.241 1.57166 -0.116904 0
M  V30 1949 C 187.173 2.12271 0.864507 0
M  V30 1950 C 188.186 1.06494 1.23138 0
M  V30 1951 O 189.375 1.33873 1.18069 0
M  V30 1952 C 186.475 2.60564 2.16702 0
M  V30 1953 C 185.648 3.90416 1.97216 0
M  V30 1954 C 184.707 4.24329 3.11178 0
M  V30 1955 O 183.733 4.93182 2.84184 0
M  V30 1956 N 184.935 3.8148 4.37554 0
M  V30 1957 H 187.7 2.97102 0.393726 0
M  V30 1958 H 185.261 1.61759 0.0675805 0
M  V30 1959 H 187.253 2.80282 2.91932 0
M  V30 1960 H 185.823 1.80623 2.55135 0
M  V30 1961 H 185.043 3.79627 1.06192 0
M  V30 1962 H 186.331 4.75327 1.81499 0
M  V30 1963 H 185.729 3.25943 4.62361 0
M  V30 1964 H 184.286 4.06311 5.09661 0
M  V30 1965 N 187.719 -0.156864 1.56817 0
M  V30 1966 C 188.965 -0.867645 1.83966 0
M  V30 1967 C 189.32 -1.79233 0.699511 0
M  V30 1968 O 188.613 -1.89186 -0.303176 0
M  V30 1969 C 188.807 -1.68737 3.1506 0
M  V30 1970 C 188.636 -0.843548 4.41718 0
M  V30 1971 C 187.406 -0.512994 5.02689 0
M  V30 1972 C 189.604 -0.178416 5.1399 0
M  V30 1973 N 187.586 0.345456 6.12927 0
M  V30 1974 C 188.957 0.540586 6.17639 0
M  V30 1975 C 191.012 -0.0980696 4.97803 0
M  V30 1976 C 189.715 1.33233 7.06853 0
M  V30 1977 C 191.741 0.680387 5.87473 0
M  V30 1978 C 191.103 1.3877 6.90596 0
M  V30 1979 H 187.202 -0.295642 0.723961 0
M  V30 1980 H 189.786 -0.13365 1.94241 0
M  V30 1981 H 187.957 -2.39268 3.0595 0
M  V30 1982 H 189.689 -2.34056 3.30151 0
M  V30 1983 H 186.444 -0.846476 4.65974 0
M  V30 1984 H 186.868 0.765415 6.72659 0
M  V30 1985 H 191.51 -0.630562 4.18071 0
M  V30 1986 H 189.228 1.87612 7.8602 0
M  V30 1987 H 192.814 0.744415 5.77018 0
M  V30 1988 H 191.694 1.9804 7.58782 0
M  V30 1989 N 189.197 -1.51736 -0.425897 0
M  V30 1990 C 190.127 -1.76827 -1.52494 0
M  V30 1991 C 191.108 -0.618524 -1.58456 0
M  V30 1992 O 192.293 -0.862416 -1.74 0
M  V30 1993 C 189.423 -1.90374 -2.90474 0
M  V30 1994 C 188.377 -3.0588 -2.99369 0
M  V30 1995 C 187.703 -3.04625 -4.3944 0
M  V30 1996 C 189.003 -4.45644 -2.72394 0
M  V30 1997 H 190.697 -2.68855 -1.31748 0
M  V30 1998 H 188.243 -1.29372 -0.632362 0
M  V30 1999 H 190.196 -2.0651 -3.6733 0
M  V30 2000 H 188.92 -0.95004 -3.12477 0
M  V30 2001 H 187.579 -2.89467 -2.24954 0
M  V30 2002 H 187.227 -2.0701 -4.58428 0
M  V30 2003 H 186.927 -3.82195 -4.46319 0
M  V30 2004 H 188.451 -3.22869 -5.18255 0
M  V30 2005 H 189.865 -4.62348 -3.38979 0
M  V30 2006 H 188.262 -5.25006 -2.9067 0
M  V30 2007 H 189.332 -4.54893 -1.67929 0
M  V30 2008 N 190.675 0.682077 -1.42076 0
M  V30 2009 C 191.9 1.47558 -1.45744 0
M  V30 2010 C 192.325 1.87977 -0.0680981 0
M  V30 2011 O 191.683 1.55522 0.9318 0
M  V30 2012 C 191.731 2.70575 -2.38373 0
M  V30 2013 O 190.835 3.68573 -1.85007 0
M  V30 2014 H 190.176 0.443585 -0.494093 0
M  V30 2015 H 192.706 0.837238 -1.86686 0
M  V30 2016 H 192.716 3.18729 -2.54707 0
M  V30 2017 H 191.391 2.40495 -3.39315 0
M  V30 2018 H 189.968 3.2757 -1.78192 0
M  V30 2019 N 192.153 1.28127 0.917671 0
M  V30 2020 C 193.569 1.05749 1.19538 0
M  V30 2021 C 193.769 -0.202633 2.00479 0
M  V30 2022 O 192.825 -0.905382 2.3571 0
M  V30 2023 C 194.138 2.30273 1.93378 0
M  V30 2024 C 195.686 2.35412 2.06277 0
M  V30 2025 C 196.161 3.59692 2.83524 0
M  V30 2026 N 197.652 3.60309 2.91087 0
M  V30 2027 C 198.387 4.53147 3.51348 0
M  V30 2028 N 197.883 5.563 4.12919 0
M  V30 2029 N 199.676 4.40751 3.48849 0
M  V30 2030 H 191.827 2.09024 0.377184 0
M  V30 2031 H 194.09 0.919798 0.22951 0
M  V30 2032 H 193.796 3.22055 1.41328 0
M  V30 2033 H 193.67 2.36378 2.93947 0
M  V30 2034 H 196.057 1.4413 2.57508 0
M  V30 2035 H 196.138 2.33304 1.04895 0
M  V30 2036 H 195.782 4.51316 2.32973 0
M  V30 2037 H 195.712 3.59054 3.85211 0
M  V30 2038 H 198.203 2.85714 2.47338 0
M  V30 2039 H 198.516 6.2329 4.56869 0
M  V30 2040 H 196.861 5.60131 4.11435 0
M  V30 2041 H 200.052 3.59367 2.99955 0
M  V30 2042 H 200.225 5.13291 3.9552 0
M  V30 2043 N 193.631 -1.12557 1.10312 0
M  V30 2044 C 195.042 -1.65574 0.862678 0
M  V30 2045 C 195.393 -1.86566 -0.607256 0
M  V30 2046 O 194.518 -1.59121 -1.46662 0
M  V30 2047 C 195.113 -3.00776 1.55947 0
M  V30 2048 C 193.672 -3.50748 1.36576 0
M  V30 2049 C 192.819 -2.25797 1.60968 0
M  V30 2050 H 195.77 -0.963552 1.26101 0
M  V30 2051 H 195.791 -3.67185 0.997753 0
M  V30 2052 H 195.303 -2.85465 2.62928 0
M  V30 2053 H 193.404 -3.71245 0.317531 0
M  V30 2054 H 193.517 -4.30289 2.10686 0
M  V30 2055 H 191.881 -2.32841 1.03234 0
M  V30 2056 H 192.664 -2.13043 2.69198 0
M  V30 2057 N 195.109 -0.891671 -1.2995 0
M  V30 2058 C 196.339 -0.527893 -1.99742 0
M  V30 2059 C 196.747 0.88979 -1.66971 0
M  V30 2060 O 196.09 1.59766 -0.906667 0
M  V30 2061 C 196.152 -0.630804 -3.53922 0
M  V30 2062 C 195.816 -2.01401 -4.10228 0
M  V30 2063 C 196.813 -2.98422 -4.25724 0
M  V30 2064 C 194.498 -2.32121 -4.45449 0
M  V30 2065 C 196.492 -4.24293 -4.75662 0
M  V30 2066 C 194.179 -3.58237 -4.95086 0
M  V30 2067 C 195.177 -4.54137 -5.10146 0
M  V30 2068 O 194.865 -5.78014 -5.58708 0
M  V30 2069 H 194.597 -0.201953 -0.645129 0
M  V30 2070 H 197.151 -1.20076 -1.66646 0
M  V30 2071 H 195.381 0.0990616 -3.86573 0
M  V30 2072 H 197.07 -0.277338 -4.04951 0
M  V30 2073 H 197.836 -2.76001 -3.98809 0
M  V30 2074 H 193.715 -1.5824 -4.32991 0
M  V30 2075 H 197.259 -4.99153 -4.87332 0
M  V30 2076 H 193.156 -3.80491 -5.21437 0
M  V30 2077 H 193.924 -5.8049 -5.77039 0
M  V30 2078 N 196.587 1.43421 -0.653314 0
M  V30 2079 C 197.519 2.29071 0.0769134 0
M  V30 2080 C 198.532 1.42513 0.787017 0
M  V30 2081 O 199.721 1.66449 0.644757 0
M  V30 2082 C 196.821 3.19436 1.13199 0
M  V30 2083 C 195.994 4.34533 0.500006 0
M  V30 2084 C 195.053 5.05771 1.45198 0
M  V30 2085 O 194.079 5.61037 0.960538 0
M  V30 2086 N 195.281 5.0928 2.78594 0
M  V30 2087 H 198.046 2.92382 -0.658235 0
M  V30 2088 H 195.607 1.54112 -0.496104 0
M  V30 2089 H 197.599 3.63958 1.76964 0
M  V30 2090 H 196.169 2.57724 1.7691 0
M  V30 2091 H 195.389 3.92925 -0.316738 0
M  V30 2092 H 196.677 5.08766 0.0588345 0
M  V30 2093 H 196.075 4.65751 3.2108 0
M  V30 2094 H 194.632 5.57519 3.37662 0
M  V30 2095 N 198.065 0.39524 1.52563 0
M  V30 2096 C 199.293 -0.184943 2.06072 0
M  V30 2097 C 199.708 -1.40021 1.26647 0
M  V30 2098 O 199.065 -1.79767 0.314672 0
M  V30 2099 C 199.116 -0.549179 3.57304 0
M  V30 2100 O 198.837 0.617813 4.33722 0
M  V30 2101 C 200.338 -1.18459 4.2718 0
M  V30 2102 H 197.558 -0.0265025 0.670476 0
M  V30 2103 H 200.102 0.562184 1.96621 0
M  V30 2104 H 198.257 -1.2462 3.66809 0
M  V30 2105 H 198.671 0.317091 5.23541 0
M  V30 2106 H 200.145 -1.38976 5.34219 0
M  V30 2107 H 200.622 -2.15368 3.82771 0
M  V30 2108 H 201.228 -0.528163 4.22008 0
M  V30 2109 N 199.544 -1.57102 0.125237 0
M  V30 2110 C 200.494 -2.12202 -0.833936 0
M  V30 2111 C 201.478 -1.04433 -1.22403 0
M  V30 2112 O 202.67 -1.30655 -1.19408 0
M  V30 2113 C 199.799 -2.72994 -2.08157 0
M  V30 2114 C 198.885 -3.87852 -1.71556 0
M  V30 2115 N 199.276 -4.9464 -1.05662 0
M  V30 2116 C 197.574 -3.98153 -2.00973 0
M  V30 2117 C 198.275 -5.74953 -0.883376 0
M  V30 2118 N 197.251 -5.24985 -1.41036 0
M  V30 2119 H 201.053 -2.92141 -0.321035 0
M  V30 2120 H 198.567 -1.62217 -0.0770315 0
M  V30 2121 H 200.564 -3.10816 -2.77847 0
M  V30 2122 H 199.224 -1.9452 -2.59985 0
M  V30 2123 H 200.235 -5.12872 -0.719878 0
M  V30 2124 H 196.912 -3.30728 -2.54804 0
M  V30 2125 H 198.302 -6.70904 -0.365675 0
M  V30 2126 N 201.022 0.148545 -1.56898 0
M  V30 2127 C 202.433 0.708766 -1.72723 0
M  V30 2128 C 202.784 1.81734 -0.739395 0
M  V30 2129 O 201.909 2.16194 0.0943169 0
M  V30 2130 C 202.504 1.29245 -3.13179 0
M  V30 2131 C 201.063 1.79925 -3.30611 0
M  V30 2132 C 200.21 0.687111 -2.68652 0
M  V30 2133 H 203.161 -0.0771063 -1.58513 0
M  V30 2134 H 203.182 2.16224 -3.13093 0
M  V30 2135 H 202.694 0.485382 -3.85053 0
M  V30 2136 H 200.795 2.63203 -2.63732 0
M  V30 2137 H 200.908 1.92903 -4.38549 0
M  V30 2138 H 199.272 1.11335 -2.29078 0
M  V30 2139 H 200.055 -0.108483 -3.43129 0
M  V30 2140 N 202.5 1.5196 0.417844 0
M  V30 2141 C 203.433 1.69387 1.52916 0
M  V30 2142 C 204.411 0.541419 1.53321 0
M  V30 2143 O 205.595 0.767695 1.72159 0
M  V30 2144 C 202.722 1.72525 2.91467 0
M  V30 2145 C 201.768 2.93967 3.09008 0
M  V30 2146 S 202.601 4.54461 2.83242 0
M  V30 2147 C 203.757 4.60372 4.24038 0
M  V30 2148 H 203.99 2.63382 1.37903 0
M  V30 2149 H 201.523 1.41889 0.608845 0
M  V30 2150 H 203.481 1.75018 3.7132 0
M  V30 2151 H 202.142 0.796733 3.03827 0
M  V30 2152 H 201.335 2.92619 4.10353 0
M  V30 2153 H 200.937 2.89316 2.37007 0
M  V30 2154 H 203.229 4.37213 5.17544 0
M  V30 2155 H 204.172 5.62273 4.30412 0
M  V30 2156 H 204.58 3.89492 4.08602 0
M  V30 2157 N 203.978 -0.674533 1.42435 0
M  V30 2158 C 205.203 -1.46784 1.46524 0
M  V30 2159 C 205.628 -1.87938 0.078066 0
M  V30 2160 O 204.986 -1.56014 -0.92354 0
M  V30 2161 C 205.034 -2.69307 2.39805 0
M  V30 2162 O 204.138 -3.67587 1.86959 0
M  V30 2163 H 203.479 -0.440959 0.496439 0
M  V30 2164 H 206.009 -0.827326 1.87127 0
M  V30 2165 H 206.019 -3.17374 2.56393 0
M  V30 2166 H 204.694 -2.38692 3.40586 0
M  V30 2167 H 203.271 -3.2662 1.79927 0
M  V30 2168 N 205.456 -1.28612 -0.910864 0
M  V30 2169 C 206.705 -1.15311 -1.65488 0
M  V30 2170 C 207.018 0.296999 -1.93332 0
M  V30 2171 O 208.224 0.551168 -2.65847 0
M  V30 2172 C 206.68 -2.01599 -2.98137 0
M  V30 2173 C 206.288 -3.51367 -2.7793 0
M  V30 2174 C 208.032 -1.96993 -3.76024 0
M  V30 2175 C 205.939 -4.29797 -4.06237 0
M  V30 2176 H 204.869 -0.42796 -0.620779 0
M  V30 2177 H 207.52 -1.53166 -1.01057 0
M  V30 2178 H 205.902 -1.56603 -3.63719 0
M  V30 2179 H 207.076 -4.0434 -2.21011 0
M  V30 2180 H 205.391 -3.57529 -2.13452 0
M  V30 2181 H 207.988 -2.52856 -4.71135 0
M  V30 2182 H 208.331 -0.94733 -4.05378 0
M  V30 2183 H 208.864 -2.39973 -3.17266 0
M  V30 2184 H 205.603 -5.32648 -3.82055 0
M  V30 2185 H 205.123 -3.81596 -4.62757 0
M  V30 2186 H 206.802 -4.39869 -4.74473 0
M  V30 2187 N 206.934 1.1197 -1.10907 0
M  V30 2188 C 207.897 2.16031 -0.765707 0
M  V30 2189 C 208.897 1.59393 0.212235 0
M  V30 2190 O 210.087 1.74196 -0.0115441 0
M  V30 2191 C 207.219 3.40632 -0.135053 0
M  V30 2192 H 208.412 2.47919 -1.68748 0
M  V30 2193 H 205.965 1.27061 -0.910226 0
M  V30 2194 H 206.7 3.14348 0.797218 0
M  V30 2195 H 206.485 3.8302 -0.838937 0
M  V30 2196 H 207.975 4.17505 0.0892469 0
M  V30 2197 N 208.412 0.89855 1.29475 0
M  V30 2198 C 209.637 0.538561 2.00285 0
M  V30 2199 C 210.062 -0.869135 1.66816 0
M  V30 2200 O 209.42 -1.57831 0.892145 0
M  V30 2201 C 209.468 0.736475 3.52999 0
M  V30 2202 O 208.572 -0.211537 4.11857 0
M  V30 2203 H 207.913 0.210563 0.62973 0
M  V30 2204 H 210.443 1.20982 1.64998 0
M  V30 2205 H 210.453 0.640685 4.02938 0
M  V30 2206 H 209.128 1.76276 3.76696 0
M  V30 2207 H 207.705 -0.0682991 3.72837 0
M  V30 2208 N 209.89 -1.43072 0.660911 0
M  V30 2209 C 211.306 -1.56169 0.329173 0
M  V30 2210 C 211.506 -1.64317 -1.16629 0
M  V30 2211 O 210.562 -1.60245 -1.95135 0
M  V30 2212 C 211.875 -2.81873 1.04729 0
M  V30 2213 C 213.423 -2.95627 1.02828 0
M  V30 2214 C 213.898 -4.24174 1.72744 0
M  V30 2215 N 215.389 -4.31055 1.69545 0
M  V30 2216 C 216.124 -5.29304 2.20511 0
M  V30 2217 N 215.62 -6.33786 2.79799 0
M  V30 2218 N 217.413 -5.21008 2.10966 0
M  V30 2219 H 209.564 -1.36027 1.63127 0
M  V30 2220 H 211.827 -0.653823 0.686454 0
M  V30 2221 H 211.533 -2.81942 2.10242 0
M  V30 2222 H 211.407 -3.72338 0.603702 0
M  V30 2223 H 213.794 -2.95094 -0.0184742 0
M  V30 2224 H 213.875 -2.06431 1.51063 0
M  V30 2225 H 213.519 -4.25467 2.7738 0
M  V30 2226 H 213.449 -5.1228 1.2197 0
M  V30 2227 H 215.94 -3.56174 1.26288 0
M  V30 2228 H 216.253 -7.05086 3.16344 0
M  V30 2229 H 214.598 -6.34387 2.83863 0
M  V30 2230 H 217.789 -4.38301 1.64347 0
M  V30 2231 H 217.962 -5.97416 2.50993 0
M  V30 2232 N 211.368 -0.403325 -1.52352 0
M  V30 2233 C 212.3 0.4603 -2.2453 0
M  V30 2234 C 213.313 1.01505 -1.27282 0
M  V30 2235 O 214.502 0.914982 -1.53266 0
M  V30 2236 C 211.602 1.65208 -2.95905 0
M  V30 2237 C 210.775 1.22224 -4.19976 0
M  V30 2238 C 209.834 2.28028 -4.74226 0
M  V30 2239 O 208.86 1.88857 -5.36956 0
M  V30 2240 N 210.062 3.6012 -4.55295 0
M  V30 2241 H 212.827 -0.158156 -2.99282 0
M  V30 2242 H 210.388 -0.230402 -1.60252 0
M  V30 2243 H 212.38 2.35541 -3.29093 0
M  V30 2244 H 210.95 2.17658 -2.24374 0
M  V30 2245 H 210.17 0.34725 -3.92668 0
M  V30 2246 H 211.458 0.911924 -5.00561 0
M  V30 2247 H 210.856 3.94698 -4.05253 0
M  V30 2248 H 209.413 4.26447 -4.92936 0
M  V30 2249 N 212.846 1.57033 -0.133567 0
M  V30 2250 C 214.071 2.00475 0.531477 0
M  V30 2251 C 214.496 1.01291 1.58499 0
M  V30 2252 O 213.854 -0.0133279 1.81295 0
M  V30 2253 C 213.902 3.42729 1.12113 0
M  V30 2254 O 213.006 3.46498 2.23636 0
M  V30 2255 H 212.347 0.650876 0.131362 0
M  V30 2256 H 214.877 2.03344 -0.22634 0
M  V30 2257 H 214.887 3.81246 1.4531 0
M  V30 2258 H 213.562 4.14428 0.349557 0
M  V30 2259 H 212.139 3.19811 1.91769 0
M  V30 2260 N 214.325 -0.140222 1.56975 0
M  V30 2261 C 215.235 -1.19223 2.02047 0
M  V30 2262 C 216.251 -1.46612 0.937062 0
M  V30 2263 O 217.427 -1.58148 1.24704 0
M  V30 2264 C 214.492 -2.50414 2.39778 0
M  V30 2265 C 213.553 -2.30612 3.621 0
M  V30 2266 C 212.786 -3.55547 3.98023 0
M  V30 2267 O 213.009 -4.62004 3.34528 0
M  V30 2268 O 211.943 -3.47808 4.91237 0
M  V30 2269 H 215.769 -0.839559 2.91865 0
M  V30 2270 H 213.354 -0.349453 1.45256 0
M  V30 2271 H 215.236 -3.27747 2.64877 0
M  V30 2272 H 213.911 -2.85198 1.53114 0
M  V30 2273 H 212.818 -1.51207 3.4218 0
M  V30 2274 H 214.151 -2.00741 4.49404 0
M  V30 2275 N 215.803 -1.52179 -0.40978 0
M  V30 2276 C 217.031 -1.70054 -1.17853 0
M  V30 2277 C 217.446 -0.409735 -1.843 0
M  V30 2278 O 216.803 0.614183 -1.71855 0
M  V30 2279 C 216.854 -2.83568 -2.24213 0
M  V30 2280 O 216.575 -4.0765 -1.60478 0
M  V30 2281 C 218.076 -3.12947 -3.13973 0
M  V30 2282 H 215.296 -0.569917 -0.354169 0
M  V30 2283 H 217.84 -1.98734 -0.482198 0
M  V30 2284 H 215.995 -2.57409 -2.89516 0
M  V30 2285 H 216.409 -4.70899 -2.30986 0
M  V30 2286 H 217.883 -3.95889 -3.84677 0
M  V30 2287 H 218.36 -2.26472 -3.76307 0
M  V30 2288 H 218.966 -3.40868 -2.5434 0
M  V30 2289 N 217.281 0.66697 -1.42791 0
M  V30 2290 C 218.211 1.79218 -1.49677 0
M  V30 2291 C 219.192 1.66405 -0.352623 0
M  V30 2292 O 220.377 1.85708 -0.567993 0
M  V30 2293 C 217.507 3.17565 -1.40605 0
M  V30 2294 C 216.461 3.45124 -2.53127 0
M  V30 2295 C 215.787 4.83127 -2.29112 0
M  V30 2296 C 217.087 3.41236 -3.95418 0
M  V30 2297 H 218.781 1.73713 -2.43853 0
M  V30 2298 H 216.327 0.83432 -1.17367 0
M  V30 2299 H 218.28 3.96022 -1.44029 0
M  V30 2300 H 217.004 3.23767 -0.429271 0
M  V30 2301 H 215.663 2.69031 -2.49034 0
M  V30 2302 H 215.311 4.85988 -1.29709 0
M  V30 2303 H 215.011 5.02528 -3.04531 0
M  V30 2304 H 216.535 5.63859 -2.34297 0
M  V30 2305 H 217.949 4.09651 -4.01073 0
M  V30 2306 H 216.346 3.72173 -4.70752 0
M  V30 2307 H 217.416 2.39665 -4.21532 0
M  V30 2308 N 218.759 1.29093 0.90403 0
M  V30 2309 C 219.722 1.1386 1.98919 0
M  V30 2310 C 220.722 0.0753457 1.60623 0
M  V30 2311 O 221.912 0.321931 1.71199 0
M  V30 2312 C 219.044 0.740198 3.32767 0
M  V30 2313 H 220.237 2.10246 2.13861 0
M  V30 2314 H 217.79 1.12218 1.08797 0
M  V30 2315 H 218.525 -0.223997 3.23525 0
M  V30 2316 H 218.31 1.50838 3.61926 0
M  V30 2317 H 219.8 0.656546 4.12407 0
M  V30 2318 N 220.237 -1.11381 1.11499 0
M  V30 2319 C 221.514 -1.7955 0.775965 0
M  V30 2320 C 221.894 -1.97859 -0.73588 0
M  V30 2321 O 221.242 -1.56376 -1.66609 0
M  V30 2322 C 221.452 -3.13196 1.53977 0
M  V30 2323 C 222.8 -3.88227 1.71944 0
M  V30 2324 O 223.824 -3.22887 1.50407 0
M  V30 2325 O 222.683 -5.05477 2.07738 0
M  V30 2326 H 219.777 -0.777728 0.28119 0
M  V30 2327 H 222.323 -1.18118 1.21845 0
M  V30 2328 H 221.095 -2.95229 2.56818 0
M  V30 2329 H 220.718 -3.82342 1.09088 0
M  V30 2330 N 221.715 -0.905404 -1.28997 0
M  V30 2331 C 222.964 -0.530191 -1.94607 0
M  V30 2332 C 223.277 0.929185 -1.72121 0
M  V30 2333 O 224.483 1.41218 -2.31883 0
M  V30 2334 C 222.939 -0.897333 -3.48534 0
M  V30 2335 C 222.547 -2.37587 -3.79811 0
M  V30 2336 C 224.291 -0.592304 -4.20347 0
M  V30 2337 C 222.198 -2.68357 -5.27009 0
M  V30 2338 H 221.128 -0.194558 -0.728466 0
M  V30 2339 H 223.779 -1.10318 -1.46636 0
M  V30 2340 H 222.161 -0.253214 -3.9519 0
M  V30 2341 H 223.335 -3.06602 -3.43994 0
M  V30 2342 H 221.65 -2.6505 -3.2115 0
M  V30 2343 H 224.247 -0.798975 -5.28697 0
M  V30 2344 H 224.59 0.469474 -4.13644 0
M  V30 2345 H 225.123 -1.19452 -3.79442 0
M  V30 2346 H 221.862 -3.73355 -5.38782 0
M  V30 2347 H 221.382 -2.03971 -5.64053 0
M  V30 2348 H 223.061 -2.54922 -5.94663 0
M  V30 2349 N 223.193 1.4272 -0.668489 0
M  V30 2350 C 224.143 2.27971 0.0363806 0
M  V30 2351 C 225.127 1.40741 0.779794 0
M  V30 2352 O 226.319 1.64245 0.659745 0
M  V30 2353 C 223.448 3.28673 0.991398 0
M  V30 2354 C 222.534 4.23388 0.245658 0
M  V30 2355 N 222.925 5.00267 -0.746069 0
M  V30 2356 C 221.223 4.43355 0.484988 0
M  V30 2357 C 221.924 5.69396 -1.19009 0
M  V30 2358 N 220.9 5.41095 -0.521287 0
M  V30 2359 H 224.702 2.84833 -0.724394 0
M  V30 2360 H 222.216 1.54607 -0.497028 0
M  V30 2361 H 224.213 3.88543 1.51129 0
M  V30 2362 H 222.873 2.73373 1.75207 0
M  V30 2363 H 223.884 5.05525 -1.12537 0
M  V30 2364 H 220.561 3.99104 1.22565 0
M  V30 2365 H 221.951 6.41083 -2.01153 0
M  V30 2366 N 224.671 0.411399 1.52136 0
M  V30 2367 C 225.634 -0.401089 2.25663 0
M  V30 2368 C 226.634 -0.971732 1.28117 0
M  V30 2369 O 227.824 -0.850254 1.52041 0
M  V30 2370 C 224.956 -1.56483 3.02863 0
M  V30 2371 H 226.149 0.24295 2.98914 0
M  V30 2372 H 223.702 0.163968 1.55438 0
M  V30 2373 H 224.437 -2.24567 2.33967 0
M  V30 2374 H 224.222 -1.16211 3.74483 0
M  V30 2375 H 225.712 -2.13951 3.58629 0
M  V30 2376 N 226.149 -1.5696 0.141893 0
M  V30 2377 C 227.079 -2.19516 -0.795936 0
M  V30 2378 C 228.06 -1.14187 -1.26077 0
M  V30 2379 O 229.245 -1.42511 -1.31925 0
M  V30 2380 C 226.375 -2.81272 -2.03723 0
M  V30 2381 C 225.329 -3.92384 -1.70936 0
M  V30 2382 C 224.655 -4.41052 -3.02287 0
M  V30 2383 C 225.955 -5.13403 -0.959954 0
M  V30 2384 H 227.649 -2.98138 -0.274596 0
M  V30 2385 H 225.195 -1.43406 -0.130636 0
M  V30 2386 H 227.148 -3.237 -2.69808 0
M  V30 2387 H 225.872 -1.99973 -2.58221 0
M  V30 2388 H 224.531 -3.50566 -1.07232 0
M  V30 2389 H 224.179 -3.56582 -3.54765 0
M  V30 2390 H 223.879 -5.15993 -2.81114 0
M  V30 2391 H 225.403 -4.86146 -3.69451 0
M  V30 2392 H 226.817 -5.52706 -1.52279 0
M  V30 2393 H 225.214 -5.94073 -0.848357 0
M  V30 2394 H 226.284 -4.84875 0.0492434 0
M  V30 2395 N 227.627 0.131896 -1.57047 0
M  V30 2396 C 229.043 0.485031 -1.52051 0
M  V30 2397 C 229.243 1.82563 -0.85281 0
M  V30 2398 O 228.299 2.48817 -0.429694 0
M  V30 2399 C 229.612 0.481409 -2.96821 0
M  V30 2400 C 231.16 0.565868 -3.07842 0
M  V30 2401 C 231.635 0.592762 -4.54148 0
M  V30 2402 N 233.126 0.654564 -4.58552 0
M  V30 2403 C 233.861 0.696608 -5.69153 0
M  V30 2404 N 233.357 0.697078 -6.89284 0
M  V30 2405 N 235.15 0.738639 -5.57226 0
M  V30 2406 H 227.301 -0.746664 -1.98843 0
M  V30 2407 H 229.564 -0.273999 -0.90754 0
M  V30 2408 H 229.27 -0.435731 -3.4899 0
M  V30 2409 H 229.144 1.3139 -3.53577 0
M  V30 2410 H 231.531 1.47343 -2.55684 0
M  V30 2411 H 231.612 -0.29406 -2.54104 0
M  V30 2412 H 231.256 -0.310701 -5.06949 0
M  V30 2413 H 231.186 1.46939 -5.05684 0
M  V30 2414 H 233.677 0.660887 -3.72076 0
M  V30 2415 H 233.99 0.731426 -7.69331 0
M  V30 2416 H 232.335 0.66471 -6.91814 0
M  V30 2417 H 235.526 0.735545 -4.62285 0
M  V30 2418 H 235.699 0.767938 -6.43434 0
M  V30 2419 N 229.106 1.52395 0.401703 0
M  V30 2420 C 230.069 1.75636 1.47257 0
M  V30 2421 C 231.069 0.62628 1.48103 0
M  V30 2422 O 232.259 0.894227 1.49497 0
M  V30 2423 C 229.391 1.84553 2.86624 0
M  V30 2424 H 230.584 2.71241 1.27938 0
M  V30 2425 H 228.137 1.42923 0.632662 0
M  V30 2426 H 228.872 0.908882 3.11303 0
M  V30 2427 H 228.657 2.66715 2.87412 0
M  V30 2428 H 230.147 2.04251 3.64241 0
M  V30 2429 N 230.584 -0.659388 1.43143 0
M  V30 2430 C 231.494 -1.80167 1.50256 0
M  V30 2431 C 232.51 -1.69571 0.390106 0
M  V30 2432 O 233.686 -1.90849 0.643319 0
M  V30 2433 C 230.751 -3.16409 1.41725 0
M  V30 2434 C 229.812 -3.38848 2.63591 0
M  V30 2435 C 229.045 -4.68591 2.55458 0
M  V30 2436 O 229.268 -5.47532 1.59891 0
M  V30 2437 O 228.202 -4.92614 3.45854 0
M  V30 2438 H 232.028 -1.77121 2.46702 0
M  V30 2439 H 229.613 -0.817092 1.25076 0
M  V30 2440 H 231.495 -3.9768 1.39387 0
M  V30 2441 H 230.17 -3.20059 0.484118 0
M  V30 2442 H 229.077 -2.57366 2.71502 0
M  V30 2443 H 230.41 -3.4004 3.55856 0
M  V30 2444 N 232.062 -1.29571 -0.897171 0
M  V30 2445 C 233.025 -1.14913 -1.98312 0
M  V30 2446 C 234.025 -0.0838629 -1.60581 0
M  V30 2447 O 235.215 -0.331006 -1.71026 0
M  V30 2448 C 232.347 -0.757835 -3.3237 0
M  V30 2449 H 233.54 -2.11377 -2.12743 0
M  V30 2450 H 231.093 -1.12793 -1.08201 0
M  V30 2451 H 231.828 0.206837 -3.2364 0
M  V30 2452 H 231.613 -1.52755 -3.61121 0
M  V30 2453 H 233.103 -0.678408 -4.12053 0
M  V30 2454 N 233.54 1.10788 -1.12088 0
M  V30 2455 C 234.956 1.34691 -0.856186 0
M  V30 2456 C 235.156 1.94791 0.515615 0
M  V30 2457 O 234.212 2.18524 1.26505 0
M  V30 2458 C 235.525 2.27208 -1.9697 0
M  V30 2459 C 237.073 2.40755 -2.00016 0
M  V30 2460 C 237.548 3.36598 -3.1059 0
M  V30 2461 N 239.039 3.44164 -3.10008 0
M  V30 2462 C 239.774 4.18284 -3.92206 0
M  V30 2463 N 239.27 4.95322 -4.84384 0
M  V30 2464 N 241.063 4.13865 -3.80357 0
M  V30 2465 H 233.214 0.70144 -2.00483 0
M  V30 2466 H 235.477 0.371405 -0.872217 0
M  V30 2467 H 235.183 1.90251 -2.958 0
M  V30 2468 H 235.057 3.27485 -1.87172 0
M  V30 2469 H 237.444 2.76982 -1.01808 0
M  V30 2470 H 237.525 1.40305 -2.13888 0
M  V30 2471 H 237.169 3.01096 -4.09028 0
M  V30 2472 H 237.099 4.36918 -2.93956 0
M  V30 2473 H 239.59 2.8922 -2.43228 0
M  V30 2474 H 239.903 5.49267 -5.43623 0
M  V30 2475 H 238.248 4.94459 -4.884 0
M  V30 2476 H 241.439 3.52773 -3.07683 0
M  V30 2477 H 241.612 4.71372 -4.44649 0
M  V30 2478 N 235.018 0.912232 1.28515 0
M  V30 2479 C 236.434 0.610159 1.47476 0
M  V30 2480 C 236.634 -0.844955 1.82928 0
M  V30 2481 O 235.69 -1.62416 1.93332 0
M  V30 2482 C 237.003 1.54675 2.57868 0
M  V30 2483 C 238.551 1.55331 2.71738 0
M  V30 2484 C 239.026 2.47649 3.85272 0
M  V30 2485 N 240.517 2.45767 3.92623 0
M  V30 2486 C 241.252 3.13896 4.79851 0
M  V30 2487 N 240.748 3.9135 5.71679 0
M  V30 2488 N 242.541 3.02991 4.73448 0
M  V30 2489 H 234.692 1.85318 1.03783 0
M  V30 2490 H 236.955 0.794777 0.516753 0
M  V30 2491 H 236.661 2.5841 2.38574 0
M  V30 2492 H 236.535 1.27671 3.54937 0
M  V30 2493 H 238.922 0.52335 2.90422 0
M  V30 2494 H 239.003 1.86378 1.75205 0
M  V30 2495 H 238.647 3.50745 3.67342 0
M  V30 2496 H 238.577 2.13904 4.81199 0
M  V30 2497 H 241.068 1.89503 3.26951 0
M  V30 2498 H 241.381 4.40359 6.35062 0
M  V30 2499 H 239.726 3.95455 5.71524 0
M  V30 2500 H 242.917 2.41987 4.007 0
M  V30 2501 H 243.09 3.5636 5.41213 0
M  V30 2502 N 236.496 -1.42363 0.676048 0
M  V30 2503 C 237.426 -2.33497 0.0124832 0
M  V30 2504 C 238.407 -1.50748 -0.787981 0
M  V30 2505 O 239.592 -1.79346 -0.744884 0
M  V30 2506 C 236.722 -3.34377 -0.938582 0
M  V30 2507 C 235.676 -4.27289 -0.246622 0
M  V30 2508 C 235.002 -5.18386 -1.31071 0
M  V30 2509 C 236.302 -5.14916 0.875125 0
M  V30 2510 H 237.996 -2.89233 0.773593 0
M  V30 2511 H 235.542 -1.39073 0.37346 0
M  V30 2512 H 237.495 -3.97044 -1.41188 0
M  V30 2513 H 236.219 -2.76947 -1.73113 0
M  V30 2514 H 234.878 -3.66018 0.206456 0
M  V30 2515 H 234.526 -4.57282 -2.09528 0
M  V30 2516 H 234.226 -5.81378 -0.852839 0
M  V30 2517 H 235.75 -5.83929 -1.78492 0
M  V30 2518 H 237.164 -5.71262 0.482983 0
M  V30 2519 H 235.561 -5.86747 1.25887 0
M  V30 2520 H 236.631 -4.53242 1.72335 0
M  V30 2521 N 237.974 -0.419461 -1.51915 0
M  V30 2522 C 238.937 0.389116 -2.25873 0
M  V30 2523 C 239.937 0.964924 -1.28631 0
M  V30 2524 O 241.127 0.842179 -1.52489 0
M  V30 2525 C 238.259 1.54874 -3.03689 0
M  V30 2526 H 239.452 -0.258799 -2.98781 0
M  V30 2527 H 237.005 -0.172209 -1.55348 0
M  V30 2528 H 237.74 2.23323 -2.35154 0
M  V30 2529 H 237.525 1.14223 -3.75094 0
M  V30 2530 H 239.015 2.12046 -3.59759 0
M  V30 2531 N 239.452 1.56882 -0.150215 0
M  V30 2532 C 240.362 2.20494 0.801222 0
M  V30 2533 C 241.378 1.19019 1.26927 0
M  V30 2534 O 242.554 1.51607 1.32579 0
M  V30 2535 C 239.619 2.81659 2.02161 0
M  V30 2536 C 238.68 3.9827 1.60249 0
M  V30 2537 C 237.913 4.56508 2.7647 0
M  V30 2538 O 238.136 4.13627 3.92771 0
M  V30 2539 O 237.07 5.46719 2.51757 0
M  V30 2540 H 240.896 3.02315 0.289717 0
M  V30 2541 H 238.481 1.49202 0.0769684 0
M  V30 2542 H 240.363 3.20522 2.73576 0
M  V30 2543 H 239.038 2.02849 2.52258 0
M  V30 2544 H 237.945 3.64117 0.858477 0
M  V30 2545 H 239.278 4.78609 1.14864 0
M  V30 2546 N 240.93 -0.123565 1.57115 0
M  V30 2547 C 242.158 -0.846461 1.88793 0
M  V30 2548 C 242.573 -1.73652 0.740976 0
M  V30 2549 O 241.93 -1.80207 -0.288393 0
M  V30 2550 C 241.981 -1.6837 3.19897 0
M  V30 2551 O 241.702 -0.829477 4.30176 0
M  V30 2552 C 243.203 -2.51214 3.65248 0
M  V30 2553 H 240.423 -0.243573 0.625231 0
M  V30 2554 H 242.967 -0.109324 2.04208 0
M  V30 2555 H 241.122 -2.37364 3.06165 0
M  V30 2556 H 241.536 -1.40651 5.0529 0
M  V30 2557 H 243.01 -3.05497 4.59756 0
M  V30 2558 H 243.487 -3.28359 2.9168 0
M  V30 2559 H 244.093 -1.8747 3.81752 0
M  V30 2560 N 242.408 -1.52605 -0.393616 0
M  V30 2561 C 243.685 -1.58001 -1.15304 0
M  V30 2562 C 244.065 -0.370385 -2.07825 0
M  V30 2563 O 243.413 0.641638 -2.19306 0
M  V30 2564 C 243.623 -2.91652 -1.91677 0
M  V30 2565 C 244.971 -3.4522 -2.47201 0
M  V30 2566 O 245.995 -2.93495 -2.01839 0
M  V30 2567 O 244.854 -4.35579 -3.3005 0
M  V30 2568 H 241.948 -0.637068 -0.527327 0
M  V30 2569 H 244.494 -1.64939 -0.399141 0
M  V30 2570 H 243.266 -3.71136 -1.23992 0
M  V30 2571 H 242.889 -2.88077 -2.74039 0
M  V30 2572 N 243.887 0.651787 -1.4349 0
M  V30 2573 C 245.135 1.40888 -1.44897 0
M  V30 2574 C 245.456 1.94856 -0.0749086 0
M  V30 2575 O 244.726 1.74518 0.889956 0
M  V30 2576 H 243.306 0.522887 -0.533478 0
M  V30 2577 H 245.968 0.768609 -1.79104 0
M  V30 2578 H 245.064 2.25052 -2.16236 0
M  V30 2579 N 245.365 1.30045 0.890287 0
M  V30 2580 C 246.776 1.16738 1.45702 0
M  V30 2581 C 247.127 -0.233939 1.948 0
M  V30 2582 O 246.252 -1.13021 1.84541 0
M  V30 2583 C 246.847 2.11313 2.64825 0
M  V30 2584 C 245.406 2.02001 3.17604 0
M  V30 2585 C 244.553 2.01699 1.90296 0
M  V30 2586 H 247.504 1.42392 0.700726 0
M  V30 2587 H 247.525 1.69086 3.40867 0
M  V30 2588 H 247.037 3.13294 2.2906 0
M  V30 2589 H 245.138 1.03142 3.5804 0
M  V30 2590 H 245.251 2.90128 3.81264 0
M  V30 2591 H 243.615 1.46427 2.08402 0
M  V30 2592 H 244.398 3.05402 1.56795 0
M  V30 2593 N 246.843 -1.10192 1.12674 0
M  V30 2594 C 247.773 -2.18652 0.819362 0
M  V30 2595 C 248.754 -1.68698 -0.217915 0
M  V30 2596 O 249.939 -1.94041 -0.0785581 0
M  V30 2597 C 247.069 -3.46202 0.27594 0
M  V30 2598 C 246.023 -4.09444 1.24656 0
M  V30 2599 C 245.349 -5.31725 0.563258 0
M  V30 2600 C 246.649 -4.52863 2.60217 0
M  V30 2601 H 248.343 -2.44622 1.72628 0
M  V30 2602 H 245.889 -1.17571 0.831451 0
M  V30 2603 H 247.842 -4.21372 0.0486149 0
M  V30 2604 H 246.566 -3.1973 -0.666331 0
M  V30 2605 H 245.225 -3.36284 1.45974 0
M  V30 2606 H 244.873 -5.0153 -0.384235 0
M  V30 2607 H 244.573 -5.74991 1.21075 0
M  V30 2608 H 246.097 -6.09624 0.34503 0
M  V30 2609 H 247.511 -5.19294 2.42913 0
M  V30 2610 H 245.908 -5.06986 3.21068 0
M  V30 2611 H 246.978 -3.65656 3.18471 0
M  V30 2612 N 248.321 -0.919034 -1.28029 0
M  V30 2613 C 249.732 -0.600735 -1.76771 0
M  V30 2614 C 250.083 0.884024 -1.75156 0
M  V30 2615 O 249.208 1.69163 -1.34956 0
M  V30 2616 C 249.803 -1.08372 -3.21 0
M  V30 2617 C 248.362 -0.816248 -3.67443 0
M  V30 2618 C 247.509 -1.24742 -2.47658 0
M  V30 2619 H 250.46 -1.09974 -1.14418 0
M  V30 2620 H 250.481 -0.427512 -3.78091 0
M  V30 2621 H 249.993 -2.16437 -3.22144 0
M  V30 2622 H 248.094 0.250968 -3.71754 0
M  V30 2623 H 248.207 -1.4277 -4.57333 0
M  V30 2624 H 246.571 -0.666083 -2.45836 0
M  V30 2625 H 247.354 -2.33653 -2.51518 0
M  V30 2626 N 249.799 1.42003 -0.683588 0
M  V30 2627 C 251.215 1.55625 -0.353976 0
M  V30 2628 C 251.415 1.66151 1.14 0
M  V30 2629 O 250.471 1.63329 1.92561 0
M  V30 2630 C 251.784 2.80171 -1.092 0
M  V30 2631 C 253.332 2.93954 -1.07518 0
M  V30 2632 C 253.807 4.21372 -1.79471 0
M  V30 2633 N 255.298 4.28303 -1.76381 0
M  V30 2634 C 256.033 5.25729 -2.28904 0
M  V30 2635 N 255.529 6.29254 -2.89846 0
M  V30 2636 N 257.322 5.17586 -2.19228 0
M  V30 2637 H 249.473 1.33415 -1.6527 0
M  V30 2638 H 251.736 0.64282 -0.696769 0
M  V30 2639 H 251.442 2.78561 -2.14701 0
M  V30 2640 H 251.316 3.7133 -0.662862 0
M  V30 2641 H 253.703 2.95086 -0.028475 0
M  V30 2642 H 253.784 2.04002 -1.54328 0
M  V30 2643 H 253.428 4.21001 -2.84114 0
M  V30 2644 H 253.358 5.10275 -1.30104 0
M  V30 2645 H 255.849 3.54119 -1.31939 0
M  V30 2646 H 256.162 6.99964 -3.27522 0
M  V30 2647 H 254.507 6.29791 -2.93919 0
M  V30 2648 H 257.698 4.35631 -1.71299 0
M  V30 2649 H 257.871 5.93348 -2.60466 0
M  V30 2650 N 251.277 0.427512 1.51691 0
M  V30 2651 C 252.688 -0.0378867 1.86662 0
M  V30 2652 C 253.039 -1.42819 1.34525 0
M  V30 2653 O 252.164 -2.05037 0.692014 0
M  V30 2654 C 252.759 -0.0755266 3.38716 0
M  V30 2655 C 251.318 -0.485309 3.73258 0
M  V30 2656 C 250.465 0.328399 2.75349 0
M  V30 2657 H 253.416 0.64379 1.45055 0
M  V30 2658 H 253.437 -0.887056 3.70016 0
M  V30 2659 H 252.949 0.936487 3.76632 0
M  V30 2660 H 251.05 -1.50329 3.40928 0
M  V30 2661 H 251.163 -0.21693 4.78609 0
M  V30 2662 H 249.527 -0.211905 2.53817 0
M  V30 2663 H 250.31 1.3391 3.16106 0
M  V30 2664 N 252.755 -1.56801 0.158532 0
M  V30 2665 C 254.166 -1.83189 -0.360366 0
M  V30 2666 C 254.517 -1.07778 -1.63946 0
M  V30 2667 O 253.642 -0.326718 -2.13919 0
M  V30 2668 C 254.237 -3.32297 -0.660595 0
M  V30 2669 C 252.796 -3.59227 -1.12398 0
M  V30 2670 C 251.943 -2.76877 -0.153097 0
M  V30 2671 H 254.894 -1.54008 0.383031 0
M  V30 2672 H 254.915 -3.4908 -1.51405 0
M  V30 2673 H 254.427 -3.87156 0.270527 0
M  V30 2674 H 252.528 -3.09766 -2.07064 0
M  V30 2675 H 252.641 -4.67632 -1.04197 0
M  V30 2676 H 251.005 -2.46319 -0.647983 0
M  V30 2677 H 251.788 -3.34511 0.77182 0
M  V30 2678 N 254.233 0.115231 -1.57178 0
M  V30 2679 C 255.481 0.820727 -1.84685 0
M  V30 2680 C 255.802 1.80237 -0.744279 0
M  V30 2681 O 255.072 1.94529 0.231375 0
M  V30 2682 H 253.652 0.306084 -0.681411 0
M  V30 2683 H 256.314 0.101656 -1.94635 0
M  V30 2684 H 255.41 1.36366 -2.80733 0
M  V30 2685 N 255.711 1.52812 0.385517 0
M  V30 2686 C 256.941 1.71658 1.14966 0
M  V30 2687 C 257.349 0.436253 1.84102 0
M  V30 2688 O 256.692 -0.599313 1.73649 0
M  V30 2689 C 256.754 2.81309 2.23843 0
M  V30 2690 C 256.418 4.22313 1.74644 0
M  V30 2691 C 257.415 5.05352 1.22129 0
M  V30 2692 C 255.1 4.68648 1.80761 0
M  V30 2693 C 257.094 6.32807 0.763838 0
M  V30 2694 C 254.781 5.96086 1.34627 0
M  V30 2695 C 255.779 6.77996 0.825264 0
M  V30 2696 O 255.467 8.03045 0.370669 0
M  V30 2697 H 255.199 0.578022 0.350523 0
M  V30 2698 H 257.753 2.00263 0.456509 0
M  V30 2699 H 255.983 2.48133 2.96592 0
M  V30 2700 H 257.672 2.88524 2.85497 0
M  V30 2701 H 258.438 4.70736 1.16758 0
M  V30 2702 H 254.317 4.04979 2.20256 0
M  V30 2703 H 257.861 6.96689 0.356494 0
M  V30 2704 H 253.758 6.30205 1.39686 0
M  V30 2705 H 254.526 8.17021 0.491829 0
M  V30 2706 N 257.189 -0.644168 1.43834 0
M  V30 2707 C 258.429 -1.41565 1.47441 0
M  V30 2708 C 258.793 -1.91743 0.0992723 0
M  V30 2709 O 259.994 -2.68798 0.0100192 0
M  V30 2710 C 258.265 -2.55902 2.49498 0
M  V30 2711 S 259.824 -3.44287 2.72051 0
M  V30 2712 H 256.642 -0.483118 0.521649 0
M  V30 2713 H 259.244 -0.747008 1.80666 0
M  V30 2714 H 257.948 -2.17327 3.48134 0
M  V30 2715 H 257.479 -3.27607 2.17801 0
M  V30 2716 H 259.494 -4.52927 2.0266 0
M  V30 2717 N 258.668 -1.30515 -0.883378 0
M  V30 2718 C 259.598 -1.19607 -2.00541 0
M  V30 2719 C 260.579 -0.086346 -1.69881 0
M  V30 2720 O 261.764 -0.268654 -1.92333 0
M  V30 2721 C 258.894 -0.888758 -3.35736 0
M  V30 2722 C 257.848 -1.95659 -3.8066 0
M  V30 2723 C 257.174 -1.50224 -5.13164 0
M  V30 2724 C 258.474 -3.36788 -3.99213 0
M  V30 2725 H 260.168 -2.13476 -2.09925 0
M  V30 2726 H 257.714 -1.02775 -1.00863 0
M  V30 2727 H 259.667 -0.799094 -4.13754 0
M  V30 2728 H 258.391 0.0856125 -3.26488 0
M  V30 2729 H 257.05 -2.03591 -3.04871 0
M  V30 2730 H 256.698 -0.516092 -5.00345 0
M  V30 2731 H 256.398 -2.2165 -5.44192 0
M  V30 2732 H 257.922 -1.42639 -5.93706 0
M  V30 2733 H 259.336 -3.31605 -4.67665 0
M  V30 2734 H 257.733 -4.06314 -4.41621 0
M  V30 2735 H 258.803 -3.78561 -3.03017 0
M  V30 2736 N 260.146 1.09593 -1.13257 0
M  V30 2737 C 261.393 1.81734 -0.893257 0
M  V30 2738 C 261.721 1.8563 0.580656 0
M  V30 2739 O 260.976 1.31906 1.44566 0
M  V30 2740 C 261.275 3.27802 -1.42411 0
M  V30 2741 C 260.941 3.44041 -2.91456 0
M  V30 2742 C 259.603 3.48181 -3.3215 0
M  V30 2743 C 261.955 3.48719 -3.87356 0
M  V30 2744 C 259.283 3.54575 -4.67433 0
M  V30 2745 C 261.635 3.56648 -5.2248 0
M  V30 2746 C 260.299 3.59055 -5.62704 0
M  V30 2747 H 259.569 0.665011 -0.326866 0
M  V30 2748 H 262.216 1.2912 -1.41422 0
M  V30 2749 H 260.521 3.83042 -0.823795 0
M  V30 2750 H 262.218 3.82149 -1.21503 0
M  V30 2751 H 258.808 3.41502 -2.58987 0
M  V30 2752 H 262.992 3.44763 -3.57004 0
M  V30 2753 H 258.248 3.54725 -4.97976 0
M  V30 2754 H 262.422 3.59212 -5.96607 0
M  V30 2755 H 260.049 3.63763 -6.67518 0
M  V30 2756 N 261.624 0.925811 1.2754 0
M  V30 2757 C 262.534 0.428993 2.30644 0
M  V30 2758 C 263.55 -0.489387 1.66976 0
M  V30 2759 O 264.726 -0.372653 1.97922 0
M  V30 2760 C 261.791 -0.311967 3.45294 0
M  V30 2761 C 260.852 0.641098 4.24486 0
M  V30 2762 C 260.085 -0.0645955 5.33661 0
M  V30 2763 O 260.308 -1.28429 5.55754 0
M  V30 2764 O 259.242 0.606265 5.98839 0
M  V30 2765 H 263.068 1.28504 2.75173 0
M  V30 2766 H 260.653 0.691086 1.32455 0
M  V30 2767 H 262.535 -0.729972 4.15029 0
M  V30 2768 H 261.21 -1.14365 3.02824 0
M  V30 2769 H 260.117 1.10874 3.57292 0
M  V30 2770 H 261.45 1.43995 4.70666 0
M  V30 2771 N 263.102 -1.41638 0.69111 0
M  V30 2772 C 264.032 -2.3347 0.037248 0
M  V30 2773 C 265.013 -1.51575 -0.771947 0
M  V30 2774 O 266.198 -1.80126 -0.72582 0
M  V30 2775 C 263.328 -3.35354 -0.903064 0
M  V30 2776 C 262.282 -4.27526 -0.201288 0
M  V30 2777 C 261.608 -5.19747 -1.25565 0
M  V30 2778 C 262.908 -5.13959 0.929689 0
M  V30 2779 H 264.602 -2.88397 0.804227 0
M  V30 2780 H 262.148 -1.38669 0.388189 0
M  V30 2781 H 264.101 -3.98519 -1.36969 0
M  V30 2782 H 262.825 -2.78767 -1.70166 0
M  V30 2783 H 261.484 -3.65779 0.245265 0
M  V30 2784 H 261.132 -4.59479 -2.04666 0
M  V30 2785 H 260.832 -5.8225 -0.791128 0
M  V30 2786 H 262.356 -5.85789 -1.72288 0
M  V30 2787 H 263.77 -5.70718 0.543546 0
M  V30 2788 H 262.167 -5.85379 1.32103 0
M  V30 2789 H 263.237 -4.51389 1.77133 0
M  V30 2790 N 264.58 -0.43555 -1.51462 0
M  V30 2791 C 265.82 0.130708 -2.03982 0
M  V30 2792 C 266.184 1.40117 -1.31268 0
M  V30 2793 O 267.385 2.04755 -1.74152 0
M  V30 2794 C 265.656 0.346102 -3.5572 0
M  V30 2795 S 267.215 0.876022 -4.29967 0
M  V30 2796 H 264.033 0.0326881 -0.710248 0
M  V30 2797 H 266.635 -0.594544 -1.8624 0
M  V30 2798 H 265.339 -0.584911 -4.0621 0
M  V30 2799 H 264.87 1.09849 -3.77752 0
M  V30 2800 H 266.885 2.15379 -4.47019 0
M  V30 2801 N 266.058 1.56714 -0.166846 0
M  V30 2802 C 266.988 2.20754 0.760913 0
M  V30 2803 C 267.969 1.16178 1.24244 0
M  V30 2804 O 269.154 1.44592 1.29641 0
M  V30 2805 C 266.284 2.84478 1.99223 0
M  V30 2806 C 265.238 3.95053 1.64672 0
M  V30 2807 C 264.564 4.45805 2.95232 0
M  V30 2808 C 265.864 5.14865 0.878155 0
M  V30 2809 H 267.558 2.98537 0.22713 0
M  V30 2810 H 265.104 1.43596 0.107805 0
M  V30 2811 H 267.057 3.27951 2.64624 0
M  V30 2812 H 265.781 2.04056 2.55007 0
M  V30 2813 H 264.44 3.52228 1.01641 0
M  V30 2814 H 264.088 3.62181 3.49047 0
M  V30 2815 H 263.788 5.204 2.7287 0
M  V30 2816 H 265.312 4.91962 3.6167 0
M  V30 2817 H 266.726 5.55059 1.43466 0
M  V30 2818 H 265.123 5.95348 0.753738 0
M  V30 2819 H 266.193 4.84735 -0.126377 0
M  V30 2820 N 267.536 -0.106894 1.57237 0
M  V30 2821 C 268.446 -1.14911 2.0453 0
M  V30 2822 C 269.462 -1.44592 0.96795 0
M  V30 2823 O 270.638 -1.55468 1.2803 0
M  V30 2824 C 267.703 -2.45272 2.45036 0
M  V30 2825 C 266.764 -2.22879 3.66911 0
M  V30 2826 C 265.997 -3.47024 4.05475 0
M  V30 2827 O 266.22 -4.54804 3.44252 0
M  V30 2828 O 265.154 -3.3731 4.98504 0
M  V30 2829 H 268.98 -0.777461 2.9358 0
M  V30 2830 H 266.565 -0.318563 1.45964 0
M  V30 2831 H 268.447 -3.22055 2.71769 0
M  V30 2832 H 267.122 -2.81886 1.59129 0
M  V30 2833 H 266.029 -1.43915 3.45311 0
M  V30 2834 H 267.362 -1.91163 4.53561 0
M  V30 2835 N 269.014 -1.53014 -0.377408 0
M  V30 2836 C 270.239 -1.72818 -1.14668 0
M  V30 2837 C 270.664 -0.450725 -1.8262 0
M  V30 2838 O 270.022 0.59439 -1.7128 0
M  V30 2839 C 270.07 -2.88627 -2.16164 0
M  V30 2840 O 269.174 -2.56409 -3.22998 0
M  V30 2841 H 268.515 -0.574301 -0.333278 0
M  V30 2842 H 271.045 -1.99853 -0.438152 0
M  V30 2843 H 271.055 -3.14455 -2.59966 0
M  V30 2844 H 269.73 -3.81294 -1.66095 0
M  V30 2845 H 268.307 -2.4136 -2.84253 0
M  V30 2846 N 270.492 0.636531 -1.44174 0
M  V30 2847 C 271.738 1.39826 -1.4689 0
M  V30 2848 C 272.071 1.93947 -0.0990585 0
M  V30 2849 O 271.346 1.73325 0.882544 0
M  V30 2850 C 271.629 2.56751 -2.5249 0
M  V30 2851 C 271.482 2.08014 -3.98811 0
M  V30 2852 C 272.801 3.58946 -2.54649 0
M  V30 2853 H 269.92 0.507075 -0.53483 0
M  V30 2854 H 272.562 0.720188 -1.75822 0
M  V30 2855 H 270.712 3.14597 -2.2795 0
M  V30 2856 H 272.384 1.5504 -4.34466 0
M  V30 2857 H 270.627 1.39242 -4.10846 0
M  V30 2858 H 271.298 2.92169 -4.68339 0
M  V30 2859 H 273.774 3.1089 -2.76563 0
M  V30 2860 H 272.65 4.38286 -3.3045 0
M  V30 2861 H 272.911 4.12655 -1.58646 0
M  V30 2862 N 271.97 1.30982 0.876444 0
M  V30 2863 C 272.88 1.2003 2.01569 0
M  V30 2864 C 273.896 0.11838 1.73597 0
M  V30 2865 O 275.072 0.33495 1.98595 0
M  V30 2866 C 272.137 0.901637 3.34771 0
M  V30 2867 C 271.198 2.06979 3.76109 0
M  V30 2868 C 270.431 1.78529 5.02954 0
M  V30 2869 O 270.654 0.717296 5.65872 0
M  V30 2870 O 269.588 2.64019 5.40905 0
M  V30 2871 H 273.414 2.15753 2.13739 0
M  V30 2872 H 270.999 1.10658 1.00375 0
M  V30 2873 H 272.881 0.750645 4.1466 0
M  V30 2874 H 271.556 -0.0256141 3.2369 0
M  V30 2875 H 270.463 2.27616 2.96887 0
M  V30 2876 H 271.796 2.97907 3.91807 0
M  V30 2877 N 273.449 -1.08991 1.13837 0
M  V30 2878 C 274.696 -1.81258 0.902882 0
M  V30 2879 C 275.024 -1.85936 -0.570803 0
M  V30 2880 O 274.279 -1.3267 -1.43865 0
M  V30 2881 C 274.578 -3.27042 1.44147 0
M  V30 2882 C 274.244 -3.4249 2.93276 0
M  V30 2883 C 272.906 -3.46414 3.33992 0
M  V30 2884 C 275.258 -3.4666 3.892 0
M  V30 2885 C 272.586 -3.52091 4.69307 0
M  V30 2886 C 274.938 -3.53872 5.24364 0
M  V30 2887 C 273.602 -3.56066 5.646 0
M  V30 2888 H 272.872 -0.663268 0.330388 0
M  V30 2889 H 275.519 -1.28368 1.42105 0
M  V30 2890 H 273.824 -3.82599 0.844097 0
M  V30 2891 H 275.521 -3.81499 1.23528 0
M  V30 2892 H 272.111 -3.40124 2.60794 0
M  V30 2893 H 276.295 -3.42865 3.58828 0
M  V30 2894 H 271.551 -3.52079 4.9985 0
M  V30 2895 H 275.725 -3.56043 5.98503 0
M  V30 2896 H 273.352 -3.60218 6.69438 0
M  V30 2897 N 274.927 -0.932562 -1.27047 0
M  V30 2898 C 276.173 -0.585913 -1.94778 0
M  V30 2899 C 276.528 0.864142 -1.71902 0
M  V30 2900 O 275.821 1.60894 -1.04037 0
M  V30 2901 C 276.015 -0.853713 -3.47054 0
M  V30 2902 C 275.844 -2.32825 -3.84737 0
M  V30 2903 C 274.614 -2.98184 -4.07939 0
M  V30 2904 C 276.812 -3.30612 -3.93954 0
M  V30 2905 N 274.794 -4.3574 -4.3244 0
M  V30 2906 C 276.165 -4.53395 -4.22887 0
M  V30 2907 C 278.22 -3.25755 -3.76548 0
M  V30 2908 C 276.923 -5.71927 -4.36224 0
M  V30 2909 C 278.949 -4.43604 -3.91113 0
M  V30 2910 C 278.311 -5.65166 -4.20437 0
M  V30 2911 H 274.41 -0.264617 -0.735868 0
M  V30 2912 H 276.994 -1.20019 -1.53309 0
M  V30 2913 H 275.165 -0.268557 -3.8747 0
M  V30 2914 H 276.897 -0.469202 -4.01971 0
M  V30 2915 H 273.652 -2.48835 -4.02961 0
M  V30 2916 H 274.076 -5.06915 -4.48738 0
M  V30 2917 H 278.718 -2.32835 -3.52913 0
M  V30 2918 H 276.436 -6.65308 -4.58683 0
M  V30 2919 H 280.022 -4.41368 -3.79059 0
M  V30 2920 H 278.902 -6.54836 -4.31462 0
M  V30 2921 N 276.405 1.4127 -0.698611 0
M  V30 2922 C 277.653 2.00782 -0.230409 0
M  V30 2923 C 277.974 1.5562 1.17505 0
M  V30 2924 O 277.244 0.78815 1.79346 0
M  V30 2925 H 275.824 0.742464 -0.0821944 0
M  V30 2926 H 278.486 1.72852 -0.90045 0
M  V30 2927 H 277.582 3.11095 -0.25021 0
M  V30 2928 N 277.883 0.443576 1.51229 0
M  V30 2929 C 278.831 -0.37904 2.29491 0
M  V30 2930 C 279.825 -1.0153 1.35603 0
M  V30 2931 O 281.031 -0.94955 1.52917 0
M  V30 2932 H 277.406 -0.141053 0.738653 0
M  V30 2933 H 279.377 0.301799 2.9687 0
M  V30 2934 C 278.126 -1.46426 3.15364 0
M  V30 2935 H 277.449 -0.984037 3.87501 0
M  V30 2936 H 278.889 -2.01297 3.7317 0
M  V30 2937 C 277.348 -2.45099 2.31146 0
M  V30 2938 O 277.878 -3.49773 1.9754 0
M  V30 2939 N 276.084 -2.16139 1.94249 0
M  V30 2940 H 275.631 -1.31044 2.21777 0
M  V30 2941 H 275.589 -2.82398 1.38198 0
M  V30 2942 N 279.361 -1.56624 0.175154 0
M  V30 2943 C 280.609 -1.96609 -0.467885 0
M  V30 2944 C 280.93 -1.06238 -1.63519 0
M  V30 2945 O 280.2 -0.129523 -1.95471 0
M  V30 2946 H 278.78 -0.726008 -0.175845 0
M  V30 2947 H 281.442 -1.93195 0.257234 0
M  V30 2948 H 280.538 -3.00989 -0.825342 0
M  V30 2949 N 280.839 0.0985539 -1.57292 0
M  V30 2950 C 282.067 0.816318 -1.90115 0
M  V30 2951 C 282.482 1.72451 -0.768509 0
M  V30 2952 O 281.839 1.80643 0.259687 0
M  V30 2953 C 281.89 1.63259 -3.22535 0
M  V30 2954 O 281.611 0.760934 -4.31441 0
M  V30 2955 C 283.112 2.45372 -3.69199 0
M  V30 2956 H 280.332 0.233595 -0.629027 0
M  V30 2957 H 282.876 0.0768229 -2.04356 0
M  V30 2958 H 281.031 2.32463 -3.09903 0
M  V30 2959 H 281.445 1.32595 -5.07463 0
M  V30 2960 H 282.919 2.98144 -4.64558 0
M  V30 2961 H 283.396 3.23677 -2.96867 0
M  V30 2962 H 284.002 1.81373 -3.84687 0
M  V30 2963 N 282.317 1.53212 0.369288 0
M  V30 2964 C 283.227 1.82342 1.47609 0
M  V30 2965 C 284.243 0.711532 1.58787 0
M  V30 2966 O 285.419 1.0012 1.74751 0
M  V30 2967 C 282.484 2.00393 2.8292 0
M  V30 2968 C 281.545 3.24297 2.81301 0
M  V30 2969 C 280.778 3.41478 4.10157 0
M  V30 2970 O 281.001 2.63033 5.06132 0
M  V30 2971 O 279.935 4.34817 4.16194 0
M  V30 2972 H 283.761 2.76366 1.25918 0
M  V30 2973 H 281.346 1.38547 0.559034 0
M  V30 2974 H 283.228 2.13859 3.63101 0
M  V30 2975 H 281.903 1.09559 3.04596 0
M  V30 2976 H 280.81 3.16257 1.99831 0
M  V30 2977 H 282.143 4.15041 2.64578 0
M  V30 2978 N 283.795 -0.628877 1.44509 0
M  V30 2979 C 285.211 -0.947305 1.28446 0
M  V30 2980 C 285.411 -2.00275 0.221872 0
M  V30 2981 O 284.467 -2.49447 -0.391471 0
M  V30 2982 C 285.78 -1.40843 2.65676 0
M  V30 2983 C 287.328 -1.52379 2.73404 0
M  V30 2984 C 287.803 -2.01875 4.11109 0
M  V30 2985 N 289.294 -2.09142 4.13296 0
M  V30 2986 C 290.029 -2.48615 5.16699 0
M  V30 2987 N 289.525 -2.87209 6.30462 0
M  V30 2988 N 291.318 -2.48768 5.04054 0
M  V30 2989 H 283.469 0.0690977 2.12288 0
M  V30 2990 H 285.732 -0.0317164 0.947469 0
M  V30 2991 H 285.438 -0.707206 3.44516 0
M  V30 2992 H 285.312 -2.37902 2.92716 0
M  V30 2993 H 287.699 -2.21598 1.9488 0
M  V30 2994 H 287.78 -0.536898 2.50102 0
M  V30 2995 H 287.424 -1.3325 4.90109 0
M  V30 2996 H 287.354 -3.0144 4.31789 0
M  V30 2997 H 289.845 -1.81991 3.31191 0
M  V30 2998 H 290.158 -3.16149 7.05174 0
M  V30 2999 H 288.503 -2.84955 6.33897 0
M  V30 3000 H 291.694 -2.18009 4.14234 0
M  V30 3001 H 291.867 -2.79207 5.84763 0
M  V30 3002 N 285.273 -1.31445 -0.869486 0
M  V30 3003 C 286.203 -1.21727 -1.99261 0
M  V30 3004 C 287.184 -0.104359 -1.6978 0
M  V30 3005 O 288.369 -0.289038 -1.92037 0
M  V30 3006 C 285.499 -0.924317 -3.34774 0
M  V30 3007 C 284.453 -1.99685 -3.78563 0
M  V30 3008 C 283.779 -1.55658 -5.11541 0
M  V30 3009 C 285.079 -3.41003 -3.95619 0
M  V30 3010 H 286.773 -2.1569 -2.07649 0
M  V30 3011 H 284.319 -1.03839 -0.997675 0
M  V30 3012 H 286.272 -0.842934 -4.12883 0
M  V30 3013 H 284.996 0.0509793 -3.2656 0
M  V30 3014 H 283.655 -2.06813 -3.02694 0
M  V30 3015 H 283.303 -0.569132 -4.9977 0
M  V30 3016 H 283.003 -2.27409 -5.41811 0
M  V30 3017 H 284.527 -1.48928 -5.92159 0
M  V30 3018 H 285.941 -3.36547 -4.64122 0
M  V30 3019 H 284.338 -4.10975 -4.37286 0
M  V30 3020 H 285.408 -3.81754 -2.98985 0
M  V30 3021 N 286.751 1.08385 -1.14413 0
M  V30 3022 C 287.701 2.13509 -0.79987 0
M  V30 3023 C 288.685 1.5951 0.211059 0
M  V30 3024 O 289.877 1.76995 0.0133694 0
M  V30 3025 C 287.006 3.42162 -0.279297 0
M  V30 3026 C 286.092 4.03042 -1.31976 0
M  V30 3027 N 286.483 4.38327 -2.52395 0
M  V30 3028 C 284.781 4.30379 -1.17004 0
M  V30 3029 C 285.482 4.86428 -3.19003 0
M  V30 3030 N 284.458 4.84547 -2.46405 0
M  V30 3031 H 288.26 2.38609 -1.7159 0
M  V30 3032 H 285.774 1.2572 -1.02802 0
M  V30 3033 H 287.771 4.16898 -0.0143688 0
M  V30 3034 H 286.431 3.18511 0.630923 0
M  V30 3035 H 287.442 4.29349 -2.89621 0
M  V30 3036 H 284.119 4.16281 -0.318854 0
M  V30 3037 H 285.509 5.23107 -4.21674 0
M  V30 3038 N 288.23 0.939286 1.26551 0
M  V30 3039 C 289.14 0.453432 2.30176 0
M  V30 3040 C 290.156 -0.471649 1.67486 0
M  V30 3041 O 291.332 -0.35164 1.98306 0
M  V30 3042 C 288.397 -0.275326 3.45605 0
M  V30 3043 C 287.458 0.686084 4.23782 0
M  V30 3044 C 286.691 -0.00798994 5.33699 0
M  V30 3045 O 286.914 -1.22528 5.57085 0
M  V30 3046 O 285.848 0.669746 5.98162 0
M  V30 3047 H 289.674 1.31416 2.73795 0
M  V30 3048 H 287.259 0.705095 1.31715 0
M  V30 3049 H 289.141 -0.685911 4.1578 0
M  V30 3050 H 287.816 -1.11147 3.0402 0
M  V30 3051 H 286.723 1.14658 3.56096 0
M  V30 3052 H 288.056 1.48979 4.69112 0
M  V30 3053 N 289.708 -1.40897 0.706093 0
M  V30 3054 C 291.124 -1.55042 0.37869 0
M  V30 3055 C 291.324 -1.67944 -1.11342 0
M  V30 3056 O 290.38 -1.66372 -1.89938 0
M  V30 3057 C 291.693 -2.78398 1.13643 0
M  V30 3058 C 293.241 -2.92206 1.12181 0
M  V30 3059 C 293.716 -4.18463 1.86152 0
M  V30 3060 N 295.207 -4.25443 1.83173 0
M  V30 3061 C 295.942 -5.2202 2.37239 0
M  V30 3062 N 295.438 -6.24563 2.99821 0
M  V30 3063 N 297.231 -5.14033 2.27435 0
M  V30 3064 H 289.382 -1.30769 1.67372 0
M  V30 3065 H 291.645 -0.631653 0.706907 0
M  V30 3066 H 291.351 -2.7511 2.19106 0
M  V30 3067 H 291.225 -3.70228 0.721853 0
M  V30 3068 H 293.612 -2.95004 0.0754171 0
M  V30 3069 H 293.693 -2.01521 1.57554 0
M  V30 3070 H 293.337 -4.16427 2.90776 0
M  V30 3071 H 293.267 -5.08141 1.38206 0
M  V30 3072 H 295.758 -3.51976 1.37556 0
M  V30 3073 H 296.071 -6.94665 3.38616 0
M  V30 3074 H 294.416 -6.25035 3.03902 0
M  V30 3075 H 297.607 -4.3285 1.78208 0
M  V30 3076 H 297.78 -5.89129 2.69873 0
M  V30 3077 N 291.186 -0.45159 -1.50991 0
M  V30 3078 C 292.116 0.342898 -2.30969 0
M  V30 3079 C 293.097 1.00815 -1.37005 0
M  V30 3080 O 294.282 1.00907 -1.65926 0
M  V30 3081 C 291.412 1.43637 -3.16205 0
M  V30 3082 C 290.366 0.893818 -4.18563 0
M  V30 3083 C 289.692 2.08411 -4.92411 0
M  V30 3084 C 290.992 -0.0815568 -5.22236 0
M  V30 3085 H 292.686 -0.324556 -2.97636 0
M  V30 3086 H 290.232 -0.157531 -1.43136 0
M  V30 3087 H 292.185 1.9995 -3.70942 0
M  V30 3088 H 290.909 2.13232 -2.47386 0
M  V30 3089 H 289.568 0.352798 -3.64898 0
M  V30 3090 H 289.216 2.76658 -4.20082 0
M  V30 3091 H 288.916 1.72741 -5.61636 0
M  V30 3092 H 290.44 2.65251 -5.49976 0
M  V30 3093 H 291.854 0.391742 -5.7196 0
M  V30 3094 H 290.251 -0.351551 -5.99069 0
M  V30 3095 H 291.321 -1.01374 -4.74185 0
M  V30 3096 N 292.664 1.56529 -0.183458 0
M  V30 3097 C 294.08 1.58664 0.172554 0
M  V30 3098 C 294.28 1.19925 1.61926 0
M  V30 3099 O 293.336 0.916534 2.35278 0
M  V30 3100 C 294.649 3.00463 -0.119262 0
M  V30 3101 C 296.197 3.12945 -0.0584396 0
M  V30 3102 C 296.672 4.56857 -0.323408 0
M  V30 3103 N 298.163 4.62403 -0.271612 0
M  V30 3104 C 298.898 5.71626 -0.450639 0
M  V30 3105 N 298.394 6.89362 -0.689384 0
M  V30 3106 N 300.187 5.60775 -0.385701 0
M  V30 3107 H 292.338 1.79994 -1.12765 0
M  V30 3108 H 294.601 0.834808 -0.449222 0
M  V30 3109 H 294.307 3.33326 -1.12192 0
M  V30 3110 H 294.181 3.72659 0.583544 0
M  V30 3111 H 296.568 2.79902 0.934805 0
M  V30 3112 H 296.649 2.4316 -0.794144 0
M  V30 3113 H 296.293 4.9061 -1.31392 0
M  V30 3114 H 296.223 5.24816 0.43305 0
M  V30 3115 H 298.714 3.77785 -0.0932256 0
M  V30 3116 H 299.027 7.68489 -0.815113 0
M  V30 3117 H 297.372 6.91196 -0.726142 0
M  V30 3118 H 300.563 4.67674 -0.199687 0
M  V30 3119 H 300.736 6.4584 -0.528646 0
M  V30 3120 N 294.142 -0.090211 1.57342 0
M  V30 3121 C 295.372 -0.805055 1.90269 0
M  V30 3122 C 295.78 -1.72561 0.775842 0
M  V30 3123 O 295.123 -1.81839 -0.260843 0
M  V30 3124 C 295.185 -1.66734 3.18497 0
M  V30 3125 C 294.849 -0.918092 4.47683 0
M  V30 3126 C 295.846 -0.245674 5.19319 0
M  V30 3127 C 293.531 -0.890724 4.94339 0
M  V30 3128 C 295.525 0.444088 6.35851 0
M  V30 3129 C 293.212 -0.197179 6.10782 0
M  V30 3130 C 294.21 0.469044 6.81388 0
M  V30 3131 O 293.898 1.15146 7.95611 0
M  V30 3132 H 293.63 -0.235143 0.633785 0
M  V30 3133 H 296.184 -0.0703805 2.05279 0
M  V30 3134 H 294.414 -2.44437 2.99646 0
M  V30 3135 H 296.103 -2.25919 3.37217 0
M  V30 3136 H 296.869 -0.258246 4.84312 0
M  V30 3137 H 292.748 -1.39873 4.39268 0
M  V30 3138 H 296.292 0.964667 6.90898 0
M  V30 3139 H 292.189 -0.18247 6.45242 0
M  V30 3140 H 292.957 1.05885 8.11622 0
M  V30 3141 N 295.62 -1.53406 -0.361157 0
M  V30 3142 C 296.897 -1.60411 -1.11927 0
M  V30 3143 C 297.277 -0.414385 -2.06993 0
M  V30 3144 O 296.625 0.594976 -2.20618 0
M  V30 3145 C 296.835 -2.95652 -1.85448 0
M  V30 3146 C 298.183 -3.50386 -2.39823 0
M  V30 3147 O 299.207 -2.97711 -1.95568 0
M  V30 3148 O 298.066 -4.42482 -3.20737 0
M  V30 3149 H 295.16 -0.64811 -0.513695 0
M  V30 3150 H 297.706 -1.65749 -0.364065 0
M  V30 3151 H 296.478 -3.73682 -1.16091 0
M  V30 3152 H 296.101 -2.93825 -2.67866 0
M  V30 3153 N 297.098 0.621204 -1.44841 0
M  V30 3154 C 298.514 0.94048 -1.28946 0
M  V30 3155 C 298.714 2.00154 -0.23249 0
M  V30 3156 O 297.77 2.49651 0.378237 0
M  V30 3157 C 299.083 1.39433 -2.66419 0
M  V30 3158 C 300.631 1.50927 -2.74208 0
M  V30 3159 C 301.106 1.99692 -4.12174 0
M  V30 3160 N 302.597 2.06947 -4.144 0
M  V30 3161 C 303.332 2.45871 -5.1801 0
M  V30 3162 N 302.828 2.83862 -6.31977 0
M  V30 3163 N 304.621 2.46092 -5.05366 0
M  V30 3164 H 296.772 -0.0803548 -2.12248 0
M  V30 3165 H 299.035 0.0266913 -0.947624 0
M  V30 3166 H 298.741 0.688925 -3.44887 0
M  V30 3167 H 298.615 2.36347 -2.93973 0
M  V30 3168 H 301.002 2.20561 -1.96053 0
M  V30 3169 H 301.083 0.523627 -2.50383 0
M  V30 3170 H 300.727 1.30649 -4.90809 0
M  V30 3171 H 300.657 2.99146 -4.33381 0
M  V30 3172 H 303.148 1.80232 -3.32152 0
M  V30 3173 H 303.461 3.12405 -7.0684 0
M  V30 3174 H 301.806 2.8159 -6.35399 0
M  V30 3175 H 304.997 2.1581 -4.15384 0
M  V30 3176 H 305.17 2.76102 -5.86235 0
M  V30 3177 N 298.576 1.31904 0.862503 0
M  V30 3178 C 299.853 1.12644 1.59908 0
M  V30 3179 C 300.233 -0.316104 2.0872 0
M  V30 3180 O 299.581 -1.31145 1.87118 0
M  V30 3181 C 299.791 2.1472 2.7513 0
M  V30 3182 C 301.139 2.47637 3.44907 0
M  V30 3183 O 302.163 2.13205 2.85346 0
M  V30 3184 O 301.022 3.06632 4.52371 0
M  V30 3185 H 298.116 0.43416 0.703871 0
M  V30 3186 H 300.662 1.43408 0.907314 0
M  V30 3187 H 299.434 3.1172 2.3653 0
M  V30 3188 H 299.057 1.84905 3.51989 0
M  V30 3189 N 300.054 -1.07777 1.14986 0
M  V30 3190 C 300.964 -2.18404 0.856546 0
M  V30 3191 C 301.98 -1.73211 -0.165485 0
M  V30 3192 O 303.156 -2.01399 0.00755219 0
M  V30 3193 C 300.221 -3.44977 0.34526 0
M  V30 3194 C 299.282 -4.0476 1.43065 0
M  V30 3195 C 298.515 -5.25291 0.943663 0
M  V30 3196 O 298.738 -5.70004 -0.212426 0
M  V30 3197 O 297.672 -5.76638 1.72547 0
M  V30 3198 H 301.498 -2.45978 1.78125 0
M  V30 3199 H 299.083 -1.17033 0.928631 0
M  V30 3200 H 300.965 -4.21348 0.0663671 0
M  V30 3201 H 299.64 -3.18965 -0.551631 0
M  V30 3202 H 298.547 -3.29949 1.76309 0
M  V30 3203 H 299.88 -4.35035 2.30229 0
M  V30 3204 N 301.532 -0.945985 -1.26051 0
M  V30 3205 C 302.78 -0.594941 -1.93145 0
M  V30 3206 C 303.101 0.86953 -1.7454 0
M  V30 3207 O 302.371 1.61838 -1.10387 0
M  V30 3208 H 300.951 -0.217044 -0.714773 0
M  V30 3209 H 303.613 -1.20235 -1.53393 0
M  V30 3210 H 302.709 -0.816835 -3.01221 0
M  V30 3211 N 303.011 1.40521 -0.713556 0
M  V30 3212 C 304.259 2.00527 -0.251692 0
M  V30 3213 C 304.58 1.56857 1.15848 0
M  V30 3214 O 303.85 0.807127 1.785 0
M  V30 3215 H 302.43 0.741551 -0.0900646 0
M  V30 3216 H 305.092 1.71887 -0.918733 0
M  V30 3217 H 304.188 3.10813 -0.283192 0
M  V30 3218 N 304.489 0.459591 1.5075 0
M  V30 3219 C 305.735 -0.091664 2.03193 0
M  V30 3220 C 306.09 -1.38432 1.3362 0
M  V30 3221 O 305.383 -1.86257 0.449322 0
M  V30 3222 C 305.577 -0.342866 3.55752 0
M  V30 3223 C 305.406 0.923888 4.40107 0
M  V30 3224 C 304.176 1.46388 4.83631 0
M  V30 3225 C 306.374 1.81617 4.81165 0
M  V30 3226 N 304.356 2.68086 5.52271 0
M  V30 3227 C 305.727 2.87907 5.49099 0
M  V30 3228 C 307.782 1.82793 4.63132 0
M  V30 3229 C 306.485 3.95347 6.0091 0
M  V30 3230 C 308.511 2.89182 5.15876 0
M  V30 3231 C 307.873 3.94191 5.83774 0
M  V30 3232 H 303.972 0.00619247 0.781975 0
M  V30 3233 H 306.556 0.625233 1.84388 0
M  V30 3234 H 304.727 -1.0288 3.74527 0
M  V30 3235 H 306.459 -0.887445 3.9485 0
M  V30 3236 H 303.214 1.01466 4.62603 0
M  V30 3237 H 303.638 3.29857 5.91205 0
M  V30 3238 H 308.28 1.0293 4.1008 0
M  V30 3239 H 305.998 4.76035 6.53006 0
M  V30 3240 H 309.584 2.91061 5.0376 0
M  V30 3241 H 308.464 4.75161 6.23853 0
M  V30 3242 N 305.967 -1.56429 0.191757 0
M  V30 3243 C 306.914 -2.18936 -0.730454 0
M  V30 3244 C 307.884 -1.13557 -1.21219 0
M  V30 3245 O 309.069 -1.41794 -1.27668 0
M  V30 3246 C 306.209 -2.85013 -1.9458 0
M  V30 3247 C 305.322 -4.04909 -1.50574 0
M  V30 3248 C 304.457 -4.58853 -2.67634 0
M  V30 3249 C 303.496 -5.71114 -2.20217 0
M  V30 3250 N 302.633 -6.19478 -3.30442 0
M  V30 3251 H 307.473 -2.97389 -0.190664 0
M  V30 3252 H 305.01 -1.46869 -0.0823694 0
M  V30 3253 H 306.968 -3.21492 -2.65893 0
M  V30 3254 H 305.598 -2.09129 -2.45896 0
M  V30 3255 H 304.65 -3.74115 -0.688605 0
M  V30 3256 H 305.962 -4.86113 -1.11784 0
M  V30 3257 H 305.116 -4.97619 -3.47074 0
M  V30 3258 H 303.855 -3.76749 -3.09696 0
M  V30 3259 H 302.86 -5.31879 -1.3923 0
M  V30 3260 H 304.085 -6.55033 -1.79189 0
M  V30 3261 H 302.031 -5.40297 -3.72041 0
M  V30 3262 H 301.948 -6.95725 -2.9581 0
M  V30 3263 H 303.216 -6.62898 -4.10106 0
M  V30 3264 N 307.445 0.0818655 -1.57387 0
M  V30 3265 C 308.395 1.10501 -1.99433 0
M  V30 3266 C 309.379 1.35041 -0.874798 0
M  V30 3267 O 310.571 1.35511 -1.13868 0
M  V30 3268 C 307.7 2.42159 -2.43339 0
M  V30 3269 C 306.786 2.20937 -3.62005 0
M  V30 3270 N 307.177 1.69616 -4.76512 0
M  V30 3271 C 305.475 2.51451 -3.68359 0
M  V30 3272 C 306.176 1.62973 -5.58404 0
M  V30 3273 N 305.152 2.08664 -5.01956 0
M  V30 3274 H 308.954 0.701373 -2.85408 0
M  V30 3275 H 306.468 0.289096 -1.59806 0
M  V30 3276 H 308.465 3.16208 -2.71695 0
M  V30 3277 H 307.125 2.83249 -1.58746 0
M  V30 3278 H 308.136 1.38624 -4.99003 0
M  V30 3279 H 304.813 2.95975 -2.94457 0
M  V30 3280 H 306.203 1.24233 -6.60315 0
M  V30 3281 N 308.923 1.53595 0.353017 0
M  V30 3282 C 310.339 1.43648 0.695516 0
M  V30 3283 C 310.539 0.585617 1.92802 0
M  V30 3284 O 309.595 0.0729223 2.52395 0
M  V30 3285 C 310.908 2.8701 0.896991 0
M  V30 3286 C 312.456 2.96723 0.996209 0
M  V30 3287 C 312.931 4.41173 1.23007 0
M  V30 3288 N 314.422 4.44657 1.29749 0
M  V30 3289 C 315.157 5.53547 1.49577 0
M  V30 3290 N 314.653 6.72461 1.66639 0
M  V30 3291 N 316.446 5.41145 1.52048 0
M  V30 3292 H 308.597 2.07415 -0.457481 0
M  V30 3293 H 310.86 0.9372 -0.142687 0
M  V30 3294 H 310.566 3.51644 0.0629938 0
M  V30 3295 H 310.44 3.31401 1.80148 0
M  V30 3296 H 312.827 2.32235 1.82074 0
M  V30 3297 H 312.908 2.55707 0.0688331 0
M  V30 3298 H 312.552 5.06238 0.410505 0
M  V30 3299 H 312.482 4.79772 2.17086 0
M  V30 3300 H 314.973 3.58963 1.18126 0
M  V30 3301 H 315.286 7.51214 1.81378 0
M  V30 3302 H 313.631 6.75423 1.63794 0
M  V30 3303 H 316.822 4.47205 1.38294 0
M  V30 3304 H 316.995 6.26068 1.67159 0
M  V30 3305 N 310.401 -0.613514 1.45168 0
M  V30 3306 C 311.631 -1.39743 1.52169 0
M  V30 3307 C 312.039 -1.88596 0.151086 0
M  V30 3308 O 311.382 -1.6251 -0.856521 0
M  V30 3309 C 311.444 -2.64035 2.43979 0
M  V30 3310 C 311.108 -2.36861 3.90827 0
M  V30 3311 C 312.105 -1.97591 4.80889 0
M  V30 3312 C 309.79 -2.49956 4.35692 0
M  V30 3313 C 311.784 -1.71768 6.1382 0
M  V30 3314 C 309.471 -2.23747 5.68665 0
M  V30 3315 C 310.469 -1.84714 6.57548 0
M  V30 3316 O 310.157 -1.58809 7.88058 0
M  V30 3317 H 309.889 -0.434382 0.517966 0
M  V30 3318 H 312.443 -0.75587 1.90986 0
M  V30 3319 H 310.673 -3.3089 2.00122 0
M  V30 3320 H 312.362 -3.26069 2.41731 0
M  V30 3321 H 313.128 -1.87015 4.47493 0
M  V30 3322 H 309.007 -2.79305 3.66756 0
M  V30 3323 H 312.551 -1.41227 6.83155 0
M  V30 3324 H 308.448 -2.33938 6.01617 0
M  V30 3325 H 309.216 -1.7291 8.00028 0
M  V30 3326 N 311.879 -1.3236 -0.855495 0
M  V30 3327 C 312.809 -1.23833 -1.97958 0
M  V30 3328 C 313.79 -0.122361 -1.69659 0
M  V30 3329 O 314.975 -0.30939 -1.9172 0
M  V30 3330 C 312.105 -0.959772 -3.33775 0
M  V30 3331 C 311.059 -2.03689 -3.76424 0
M  V30 3332 C 310.385 -1.61075 -5.09862 0
M  V30 3333 C 311.685 -3.4518 -3.9198 0
M  V30 3334 H 313.379 -2.1788 -2.0535 0
M  V30 3335 H 310.925 -1.04891 -0.986605 0
M  V30 3336 H 312.878 -0.886678 -4.11966 0
M  V30 3337 H 311.602 0.0163404 -3.26596 0
M  V30 3338 H 310.261 -2.10012 -3.00484 0
M  V30 3339 H 309.909 -0.622107 -4.99138 0
M  V30 3340 H 309.609 -2.33143 -5.39368 0
M  V30 3341 H 311.133 -1.55201 -5.90546 0
M  V30 3342 H 312.547 -3.4145 -4.60526 0
M  V30 3343 H 310.944 -4.1559 -4.32903 0
M  V30 3344 H 312.014 -3.84903 -2.94919 0
M  V30 3345 N 313.357 1.07166 -1.15556 0
M  V30 3346 C 314.289 2.14341 -0.811815 0
M  V30 3347 C 315.302 1.61835 0.177015 0
M  V30 3348 O 316.491 1.78439 -0.0464996 0
M  V30 3349 C 313.591 3.38387 -0.186481 0
M  V30 3350 C 312.764 4.20238 -1.21321 0
M  V30 3351 C 311.823 5.2266 -0.609302 0
M  V30 3352 O 310.849 5.54719 -1.27576 0
M  V30 3353 N 312.051 5.77306 0.608099 0
M  V30 3354 H 314.816 2.44431 -1.73417 0
M  V30 3355 H 312.377 1.23089 -1.0517 0
M  V30 3356 H 314.369 4.04044 0.230339 0
M  V30 3357 H 312.939 3.05994 0.639249 0
M  V30 3358 H 312.159 3.50369 -1.80652 0
M  V30 3359 H 313.447 4.71736 -1.90638 0
M  V30 3360 H 312.845 5.53513 1.1679 0
M  V30 3361 H 311.402 6.44583 0.96725 0
M  V30 3362 N 314.835 0.952656 1.25548 0
M  V30 3363 C 316.246 0.647392 1.75116 0
M  V30 3364 C 316.597 -0.837274 1.77438 0
M  V30 3365 O 315.722 -1.65525 1.39393 0
M  V30 3366 C 316.317 1.16845 3.18014 0
M  V30 3367 C 314.876 0.913382 3.6515 0
M  V30 3368 C 314.023 1.31265 2.44264 0
M  V30 3369 H 316.974 1.12968 1.11462 0
M  V30 3370 H 316.995 0.527606 3.76824 0
M  V30 3371 H 316.507 2.24902 3.16292 0
M  V30 3372 H 314.608 -0.152316 3.72289 0
M  V30 3373 H 314.721 1.54845 4.53387 0
M  V30 3374 H 313.085 0.731028 2.43984 0
M  V30 3375 H 313.868 2.40239 2.45234 0
M  V30 3376 O 316.352 -1.36754 0.859105 0
M  V30 3377 H 317.043 -1.8829 0.454606 0
M  V30 END ATOM
M  V30 BEGIN BOND
M  V30 END BOND
M  V30 END CTAB
M  END
$$$$
