drugbank_target|O70038 Penicillin-binding protein 1B (DB08401)
 OpenBabel12092120513D

  0  0  0     0  0            999 V3000
M  V30 BEGIN CTAB
M  V30 COUNTS 12540 12652 0 0 0
M  V30 BEGIN ATOM
M  V30 1 H -0.908 1.98254 -0.117106 0
M  V30 2 N 0 1.576 0 0
M  V30 3 C 0.933 2.03868 1.02534 0
M  V30 4 C 1.911 0.928543 1.3348 0
M  V30 5 O 3.095 1.19667 1.45644 0
M  V30 6 C 0.222 2.43627 2.35294 0
M  V30 7 C -0.732 3.65373 2.2001 0
M  V30 8 S 0.101 5.13292 1.52614 0
M  V30 9 C 1.257 5.56322 2.86805 0
M  V30 10 H 1.49 2.90518 0.631377 0
M  V30 11 H -0.977 1.52953 0.210867 0
M  V30 12 H 0.981 2.67203 3.11629 0
M  V30 13 H -0.358 1.57376 2.7183 0
M  V30 14 H -1.165 3.90944 3.18086 0
M  V30 15 H -1.563 3.418 1.51819 0
M  V30 16 H 0.729 5.58782 3.83104 0
M  V30 17 H 1.672 6.56266 2.65933 0
M  V30 18 H 2.08 4.83886 2.90714 0
M  V30 19 N 1.4781 -0.272755 1.55222 0
M  V30 20 C 2.4101 -1.35946 1.8453 0
M  V30 21 C 3.4231 -1.45525 0.729818 0
M  V30 22 O 4.6121 -1.47337 1.00767 0
M  V30 23 C 1.7121 -2.74069 1.99347 0
M  V30 24 C 0.8851 -2.87079 3.30007 0
M  V30 25 C -0.0559 -4.05879 3.34886 0
M  V30 26 O -1.0299 -3.96626 4.08261 0
M  V30 27 N 0.1721 -5.17857 2.62307 0
M  V30 28 H 2.9371 -1.11149 2.78327 0
M  V30 29 H 0.4981 -0.462869 1.55142 0
M  V30 30 H 2.4901 -3.51838 1.99981 0
M  V30 31 H 1.0601 -2.91688 1.12415 0
M  V30 32 H 0.2801 -1.96193 3.41909 0
M  V30 33 H 1.5681 -2.92701 4.16177 0
M  V30 34 H 0.9661 -5.28261 2.02377 0
M  V30 35 H -0.4769 -5.93855 2.68663 0
M  V30 36 N 2.9562 -1.48159 -0.537278 0
M  V30 37 C 3.9042 -1.62573 -1.66352 0
M  V30 38 C 4.8982 -0.492366 -1.62087 0
M  V30 39 O 6.1042 -0.670847 -1.67032 0
M  V30 40 H 2.4792 -0.511992 -0.550789 0
M  V30 41 H 4.4502 -2.57176 -1.51337 0
M  V30 42 C 3.1992 -1.67583 -3.04649 0
M  V30 43 H 2.5222 -2.54151 -3.08622 0
M  V30 44 H 3.9622 -1.81713 -3.83088 0
M  V30 45 C 2.4212 -0.413039 -3.34358 0
M  V30 46 O 2.9512 0.477259 -3.98855 0
M  V30 47 N 1.1572 -0.286961 -2.8918 0
M  V30 48 H 0.7042 -1.01241 -2.36871 0
M  V30 49 H 0.6622 0.556963 -3.09427 0
M  V30 50 N 4.4343 0.785586 -1.36625 0
M  V30 51 C 5.3663 1.90711 -1.2713 0
M  V30 52 C 6.3793 1.61688 -0.189986 0
M  V30 53 O 7.5683 1.72864 -0.445014 0
M  V30 54 C 4.6683 3.25611 -0.939713 0
M  V30 55 C 3.8413 3.82385 -2.12369 0
M  V30 56 C 2.9003 4.95732 -1.76456 0
M  V30 57 O 1.9263 5.12047 -2.48589 0
M  V30 58 N 3.1283 5.76258 -0.700492 0
M  V30 59 H 5.8933 1.99376 -2.23762 0
M  V30 60 H 3.4543 0.964041 -1.30069 0
M  V30 61 H 5.4463 3.98937 -0.680554 0
M  V30 62 H 4.0163 3.12538 -0.0624074 0
M  V30 63 H 3.2363 3.01001 -2.54543 0
M  V30 64 H 4.5243 4.17047 -2.9146 0
M  V30 65 H 3.9223 5.65609 -0.101624 0
M  V30 66 H 2.4793 6.4987 -0.501165 0
M  V30 67 N 5.9124 1.20967 1.01018 0
M  V30 68 C 6.8424 0.988272 2.11555 0
M  V30 69 C 7.8234 -0.0849778 1.69888 0
M  V30 70 O 9.0084 0.0738202 1.9406 0
M  V30 71 C 6.1384 0.546528 3.42973 0
M  V30 72 C 5.0924 1.56375 3.9841 0
M  V30 73 C 4.4184 0.97842 5.25672 0
M  V30 74 C 5.7184 2.94922 4.31066 0
M  V30 75 H 7.4124 1.91276 2.30334 0
M  V30 76 H 4.9584 0.921073 1.1069 0
M  V30 77 H 6.9114 0.378839 4.19694 0
M  V30 78 H 5.6354 -0.413598 3.23971 0
M  V30 79 H 4.2944 1.71891 3.23804 0
M  V30 80 H 3.9424 0.0101688 5.02999 0
M  V30 81 H 3.6424 1.65784 5.63728 0
M  V30 82 H 5.1664 0.821939 6.05043 0
M  V30 83 H 6.5804 2.8288 4.9865 0
M  V30 84 H 4.9774 3.5983 4.80253 0
M  V30 85 H 6.0474 3.4616 3.39561 0
M  V30 86 N 7.3905 -1.2043 1.01659 0
M  V30 87 C 8.3385 -2.25249 0.580143 0
M  V30 88 C 9.3325 -1.65057 -0.381115 0
M  V30 89 O 10.5385 -1.78241 -0.251039 0
M  V30 90 H 6.9135 -0.732695 0.169299 0
M  V30 91 H 8.8845 -2.59389 1.47512 0
M  V30 92 C 7.6335 -3.47638 -0.065788 0
M  V30 93 H 6.9565 -3.94233 0.664874 0
M  V30 94 H 8.3965 -4.2268 -0.334282 0
M  V30 95 C 6.8555 -3.10447 -1.3086 0
M  V30 96 O 7.3855 -3.21981 -2.4019 0
M  V30 97 N 5.5915 -2.64996 -1.1927 0
M  V30 98 H 5.1385 -2.55811 -0.303064 0
M  V30 99 H 5.0965 -2.40482 -2.02523 0
M  V30 100 N 8.8686 -0.792821 -1.36206 0
M  V30 101 C 9.7786 -0.194808 -2.3379 0
M  V30 102 C 10.7946 0.654869 -1.61206 0
M  V30 103 O 11.9706 0.569856 -1.9317 0
M  V30 104 C 9.0356 0.657721 -3.40404 0
M  V30 105 C 8.0966 -0.210849 -4.28782 0
M  V30 106 C 7.3296 0.601086 -5.30304 0
M  V30 107 O 7.5526 1.83682 -5.40016 0
M  V30 108 O 6.4866 -0.000808277 -6.019 0
M  V30 109 H 10.3126 -1.00172 -2.86704 0
M  V30 110 H 7.8976 -0.554341 -1.38735 0
M  V30 111 H 9.7796 1.14375 -4.05581 0
M  V30 112 H 8.4546 1.44247 -2.89784 0
M  V30 113 H 7.3616 -0.743714 -3.66633 0
M  V30 114 H 8.6946 -0.959195 -4.82763 0
M  V30 115 N 10.3467 1.47872 -0.545128 0
M  V30 116 C 11.2767 2.32661 0.197793 0
M  V30 117 C 12.2577 1.43041 0.920504 0
M  V30 118 O 13.4427 1.71912 0.90333 0
M  V30 119 C 10.5727 3.24569 1.23582 0
M  V30 120 C 9.5267 4.23333 0.630323 0
M  V30 121 C 8.8527 5.0448 1.77211 0
M  V30 122 C 10.1527 5.20704 -0.407974 0
M  V30 123 H 11.8467 2.95024 -0.510045 0
M  V30 124 H 9.3927 1.4187 -0.246731 0
M  V30 125 H 11.3457 3.8272 1.76362 0
M  V30 126 H 10.0697 2.60236 1.97344 0
M  V30 127 H 8.7287 3.6639 0.123922 0
M  V30 128 H 8.3767 4.36561 2.49847 0
M  V30 129 H 8.0767 5.71339 1.37281 0
M  V30 130 H 9.6007 5.65487 2.3034 0
M  V30 131 H 11.0147 5.7329 0.033305 0
M  V30 132 H 9.4117 5.95699 -0.725486 0
M  V30 133 H 10.4817 4.66917 -1.30828 0
M  V30 134 N 11.8248 0.280983 1.55075 0
M  V30 135 C 12.7718 -0.603937 2.22758 0
M  V30 136 C 13.7418 -1.1452 1.20309 0
M  V30 137 O 14.9268 -1.19343 1.48869 0
M  V30 138 C 12.0668 -1.77947 2.95684 0
M  V30 139 C 11.1798 -1.2715 4.12864 0
M  V30 140 C 10.3148 -2.4093 4.7342 0
M  V30 141 C 9.3538 -1.87165 5.82783 0
M  V30 142 N 8.4908 -2.94441 6.37377 0
M  V30 143 H 13.3308 -0.020124 2.97993 0
M  V30 144 H 10.8678 0.00183425 1.471 0
M  V30 145 H 12.8258 -2.47055 3.36184 0
M  V30 146 H 11.4558 -2.33522 2.22861 0
M  V30 147 H 10.5078 -0.473331 3.77444 0
M  V30 148 H 11.8198 -0.837751 4.91715 0
M  V30 149 H 10.9738 -3.18021 5.1667 0
M  V30 150 H 9.7128 -2.87623 3.93859 0
M  V30 151 H 8.7178 -1.08556 5.38976 0
M  V30 152 H 9.9428 -1.41401 6.64216 0
M  V30 153 H 7.8888 -3.40505 5.60707 0
M  V30 154 H 7.8058 -2.55501 7.11516 0
M  V30 155 H 9.0738 -3.71489 6.85285 0
M  V30 156 N 13.3029 -1.57598 0.00835791 0
M  V30 157 C 14.7189 -1.55764 -0.347822 0
M  V30 158 C 14.9189 -1.01186 -1.74252 0
M  V30 159 O 13.9749 -0.649371 -2.44007 0
M  V30 160 C 15.2879 -2.99927 -0.215407 0
M  V30 161 C 16.8359 -3.11656 -0.289725 0
M  V30 162 C 17.3109 -4.57621 -0.18634 0
M  V30 163 N 18.8019 -4.62557 -0.243978 0
M  V30 164 C 19.5369 -5.73094 -0.18745 0
M  V30 165 N 19.0329 -6.92753 -0.0810331 0
M  V30 166 N 20.8259 -5.61588 -0.239925 0
M  V30 167 H 12.9769 -1.91411 0.92062 0
M  V30 168 H 15.2399 -0.879562 0.353659 0
M  V30 169 H 14.9459 -3.43729 0.744512 0
M  V30 170 H 14.8199 -3.63865 -0.994097 0
M  V30 171 H 17.2069 -2.67779 -1.24009 0
M  V30 172 H 17.2879 -2.5048 0.51898 0
M  V30 173 H 16.9319 -5.02174 0.760519 0
M  V30 174 H 16.8619 -5.16752 -1.01364 0
M  V30 175 H 19.3529 -3.76481 -0.327217 0
M  V30 176 H 19.6659 -7.72787 -0.0440241 0
M  V30 177 H 18.0109 -6.94984 -0.0465419 0
M  V30 178 H 21.2019 -4.66996 -0.321317 0
M  V30 179 H 21.3749 -6.47714 -0.192407 0
M  V30 180 N 14.781 0.264519 -1.55364 0
M  V30 181 C 15.728 1.32717 -1.88825 0
M  V30 182 C 16.698 1.48675 -0.740605 0
M  V30 183 O 17.883 1.62945 -0.992657 0
M  V30 184 C 15.023 2.68089 -2.17307 0
M  V30 185 C 14.136 2.60284 -3.44785 0
M  V30 186 C 13.271 3.87892 -3.62924 0
M  V30 187 C 12.31 3.74631 -4.84064 0
M  V30 188 N 11.447 4.94092 -4.98816 0
M  V30 189 H 16.287 1.03481 -2.79456 0
M  V30 190 H 13.824 0.499757 -1.3835 0
M  V30 191 H 15.782 3.46864 -2.31821 0
M  V30 192 H 14.412 2.95509 -1.299 0
M  V30 193 H 13.464 1.73173 -3.38697 0
M  V30 194 H 14.776 2.46388 -4.33698 0
M  V30 195 H 13.93 4.75109 -3.77302 0
M  V30 196 H 12.669 4.04664 -2.7221 0
M  V30 197 H 11.674 2.85797 -4.69681 0
M  V30 198 H 12.899 3.5937 -5.76221 0
M  V30 199 H 10.845 5.11259 -4.11036 0
M  V30 200 H 10.762 4.8276 -5.81789 0
M  V30 201 H 12.03 5.82857 -5.17588 0
M  V30 202 N 16.2591 1.48442 0.529413 0
M  V30 203 C 17.1921 1.57577 1.65059 0
M  V30 204 C 18.1701 0.426198 1.56915 0
M  V30 205 O 19.3541 0.637877 1.77379 0
M  V30 206 C 16.4811 1.5043 3.03461 0
M  V30 207 C 15.5271 2.70235 3.29962 0
M  V30 208 S 16.3601 4.32198 3.16172 0
M  V30 209 C 17.5161 4.2765 4.57019 0
M  V30 210 H 17.7491 2.52427 1.5706 0
M  V30 211 H 15.2821 1.36982 0.712417 0
M  V30 212 H 17.2401 1.46992 3.8328 0
M  V30 213 H 15.9011 0.569167 3.089 0
M  V30 214 H 15.0941 2.61374 4.30929 0
M  V30 215 H 14.6961 2.70938 2.57815 0
M  V30 216 H 16.9881 3.97618 5.48549 0
M  V30 217 H 17.9311 5.28797 4.70934 0
M  V30 218 H 18.3391 3.5811 4.36368 0
M  V30 219 N 17.7372 -0.778329 1.37039 0
M  V30 220 C 18.6672 -1.90546 1.34962 0
M  V30 221 C 19.6482 -1.68681 0.219274 0
M  V30 222 O 20.8332 -1.89634 0.418624 0
M  V30 223 C 17.9632 -3.27734 1.14925 0
M  V30 224 C 16.9172 -3.64147 2.24902 0
M  V30 225 C 16.2432 -4.99806 1.89996 0
M  V30 226 C 17.5432 -3.71579 3.67051 0
M  V30 227 H 19.2372 -1.92541 2.29277 0
M  V30 228 H 16.7832 -0.924948 1.10366 0
M  V30 229 H 18.7362 -4.06215 1.12104 0
M  V30 230 H 17.4602 -3.26154 0.170631 0
M  V30 231 H 16.1192 -2.8797 2.26868 0
M  V30 232 H 15.7672 -4.94759 0.906796 0
M  V30 233 H 15.4672 -5.25139 2.63634 0
M  V30 234 H 16.9912 -5.80694 1.88749 0
M  V30 235 H 18.4052 -4.40227 3.67251 0
M  V30 236 H 16.8022 -4.08405 4.39688 0
M  V30 237 H 17.8722 -2.72404 4.01154 0
M  V30 238 N 19.2153 -1.21501 -1.00376 0
M  V30 239 C 20.1253 -0.991447 -2.12621 0
M  V30 240 C 21.1413 0.0568446 -1.73907 0
M  V30 241 O 22.3173 -0.13348 -2.00957 0
M  V30 242 C 19.3823 -0.560312 -3.42142 0
M  V30 243 C 18.4433 -1.68096 -3.95022 0
M  V30 244 C 17.6763 -1.2703 -5.18362 0
M  V30 245 O 17.8993 -0.144438 -5.70217 0
M  V30 246 O 16.8333 -2.08269 -5.64719 0
M  V30 247 H 20.6593 -1.93158 -2.34358 0
M  V30 248 H 18.2443 -0.999999 -1.10997 0
M  V30 249 H 20.1263 -0.329724 -4.20108 0
M  V30 250 H 18.8013 0.351089 -3.2179 0
M  V30 251 H 17.7083 -1.96597 -3.18278 0
M  V30 252 H 19.0413 -2.56983 -4.19786 0
M  V30 253 N 20.6934 1.19889 -1.02296 0
M  V30 254 C 21.9404 1.8942 -0.715972 0
M  V30 255 C 22.2684 1.79251 0.754944 0
M  V30 256 O 21.5234 1.17526 1.56481 0
M  V30 257 C 21.8224 3.39883 -1.10518 0
M  V30 258 C 21.4884 3.70254 -2.57337 0
M  V30 259 C 20.1504 3.78254 -2.97452 0
M  V30 260 C 22.5024 3.84052 -3.52354 0
M  V30 261 C 19.8304 3.97514 -4.31509 0
M  V30 262 C 22.1824 4.04824 -4.86108 0
M  V30 263 C 20.8464 4.11054 -5.25919 0
M  V30 264 H 20.1164 0.693138 -0.261993 0
M  V30 265 H 22.7634 1.42012 -1.28472 0
M  V30 266 H 21.0684 3.8915 -0.454953 0
M  V30 267 H 22.7654 3.9199 -0.845261 0
M  V30 268 H 19.3554 3.64632 -2.25258 0
M  V30 269 H 23.5394 3.77221 -3.22518 0
M  V30 270 H 18.7954 4.00574 -4.61898 0
M  V30 271 H 22.9694 4.14442 -5.59653 0
M  V30 272 H 20.5964 4.2573 -6.29808 0
M  V30 273 N 22.1715 0.800033 1.35784 0
M  V30 274 C 23.4185 0.377342 1.98953 0
M  V30 275 C 23.7465 -1.05378 1.6348 0
M  V30 276 O 23.0015 -1.74459 0.886707 0
M  V30 277 C 23.3005 0.500276 3.53881 0
M  V30 278 C 22.9665 1.89375 4.09204 0
M  V30 279 C 21.6285 2.27499 4.24025 0
M  V30 280 C 23.9805 2.8057 4.39238 0
M  V30 281 C 21.3085 3.562 4.66195 0
M  V30 282 C 23.6605 4.0871 4.82844 0
M  V30 283 C 22.3245 4.46843 4.95871 0
M  V30 284 H 21.5945 0.138079 0.728021 0
M  V30 285 H 24.2415 1.01955 1.62103 0
M  V30 286 H 22.5465 -0.225405 3.91151 0
M  V30 287 H 24.2435 0.154097 4.00704 0
M  V30 288 H 20.8335 1.58753 3.98115 0
M  V30 289 H 25.0175 2.52367 4.27346 0
M  V30 290 H 20.2735 3.85602 4.74469 0
M  V30 291 H 24.4475 4.79481 5.05046 0
M  V30 292 H 22.0745 5.46623 5.28306 0
M  V30 293 N 23.6496 -1.47581 0.552962 0
M  V30 294 C 24.5816 -2.27997 -0.234533 0
M  V30 295 C 25.5946 -1.36753 -0.883321 0
M  V30 296 O 26.7836 -1.61612 -0.757889 0
M  V30 297 C 23.8836 -3.10879 -1.34935 0
M  V30 298 C 23.0566 -4.30056 -0.798158 0
M  V30 299 C 22.1156 -4.94567 -1.79694 0
M  V30 300 O 21.1416 -5.53087 -1.34474 0
M  V30 301 N 22.3436 -4.88878 -3.13015 0
M  V30 302 H 25.1086 -2.96222 0.455255 0
M  V30 303 H 22.6696 -1.57163 0.388761 0
M  V30 304 H 24.6616 -3.50903 -2.01616 0
M  V30 305 H 23.2316 -2.44924 -1.94244 0
M  V30 306 H 22.4516 -3.94174 0.0453079 0
M  V30 307 H 23.7396 -5.07152 -0.409173 0
M  V30 308 H 23.1376 -4.42526 -3.52402 0
M  V30 309 H 21.6946 -5.32934 -3.75266 0
M  V30 310 N 25.1277 -0.289203 -1.54924 0
M  V30 311 C 26.0597 0.625583 -2.20497 0
M  V30 312 C 27.0727 1.10667 -1.19402 0
M  V30 313 O 28.2617 1.02615 -1.46056 0
M  V30 314 C 25.3617 1.86702 -2.82835 0
M  V30 315 C 24.5347 1.5304 -4.09753 0
M  V30 316 C 23.5937 2.62576 -4.56005 0
M  V30 317 O 22.6197 2.28167 -5.21468 0
M  V30 318 N 23.8217 3.92901 -4.27328 0
M  V30 319 H 26.5867 0.0642801 -2.99631 0
M  V30 320 H 24.1477 -0.110896 -1.6152 0
M  V30 321 H 26.1397 2.59304 -3.10715 0
M  V30 322 H 24.7097 2.33702 -2.07611 0
M  V30 323 H 23.9297 0.637564 -3.8901 0
M  V30 324 H 25.2177 1.28072 -4.92418 0
M  V30 325 H 24.6157 4.23671 -3.74859 0
M  V30 326 H 23.1727 4.61837 -4.59946 0
M  V30 327 N 26.6058 1.57591 -0.0167156 0
M  V30 328 C 27.5528 2.09462 0.969251 0
M  V30 329 C 28.5228 0.99381 1.33089 0
M  V30 330 O 29.7078 1.26726 1.42636 0
M  V30 331 C 26.8478 2.61622 2.25051 0
M  V30 332 C 25.9608 3.85666 1.94642 0
M  V30 333 C 25.0958 4.26266 3.16972 0
M  V30 334 C 24.1348 5.43101 2.82326 0
M  V30 335 N 23.2718 5.78915 3.97243 0
M  V30 336 H 28.1118 2.93428 0.519997 0
M  V30 337 H 25.6488 1.45044 0.245087 0
M  V30 338 H 27.6068 2.89949 2.99976 0
M  V30 339 H 26.2368 1.80505 2.67615 0
M  V30 340 H 25.2888 3.64145 1.10013 0
M  V30 341 H 26.6008 4.70678 1.65117 0
M  V30 342 H 25.7548 4.55963 4.00228 0
M  V30 343 H 24.4938 3.39996 3.49648 0
M  V30 344 H 23.4988 5.1311 1.97479 0
M  V30 345 H 24.7238 6.3106 2.50879 0
M  V30 346 H 22.6698 4.95602 4.29785 0
M  V30 347 H 22.5868 6.58539 3.71299 0
M  V30 348 H 23.8548 6.13212 4.81239 0
M  V30 349 N 28.0839 -0.256276 1.55502 0
M  V30 350 C 29.0159 -1.33981 1.85962 0
M  V30 351 C 30.0289 -1.44743 0.745212 0
M  V30 352 O 31.2179 -1.4626 1.02324 0
M  V30 353 C 28.3179 -2.7194 2.02242 0
M  V30 354 C 27.4909 -2.83562 3.33033 0
M  V30 355 C 26.5499 -4.02304 3.39172 0
M  V30 356 O 25.5759 -3.92273 4.12444 0
M  V30 357 N 26.7779 -5.15045 2.67784 0
M  V30 358 H 29.5429 -1.08191 2.7949 0
M  V30 359 H 27.1039 -0.446388 1.55624 0
M  V30 360 H 29.0959 -3.49697 2.03701 0
M  V30 361 H 27.6659 -2.90479 1.15502 0
M  V30 362 H 26.8859 -1.92555 3.43971 0
M  V30 363 H 28.1739 -2.88271 4.19258 0
M  V30 364 H 27.5719 -5.26085 2.07968 0
M  V30 365 H 26.1289 -5.90972 2.74947 0
M  V30 366 N 29.562 -1.4872 -0.521534 0
M  V30 367 C 30.509 -1.63871 -1.62527 0
M  V30 368 C 31.479 -0.480559 -1.58996 0
M  V30 369 O 32.664 -0.705085 -1.77294 0
M  V30 370 C 29.804 -1.69227 -3.00759 0
M  V30 371 C 28.917 -2.96207 -3.14461 0
M  V30 372 C 28.052 -2.92671 -4.43303 0
M  V30 373 C 27.091 -4.14318 -4.50563 0
M  V30 374 N 26.228 -4.0881 -5.70805 0
M  V30 375 H 31.068 -2.58123 -1.48918 0
M  V30 376 H 28.605 -1.28 -0.724878 0
M  V30 377 H 30.563 -1.70314 -3.80853 0
M  V30 378 H 29.193 -0.784586 -3.1312 0
M  V30 379 H 28.245 -3.04826 -2.27564 0
M  V30 380 H 29.557 -3.86192 -3.15686 0
M  V30 381 H 28.711 -2.92206 -5.31696 0
M  V30 382 H 27.45 -2.00429 -4.44612 0
M  V30 383 H 26.455 -4.15049 -3.60575 0
M  V30 384 H 27.68 -5.07729 -4.50986 0
M  V30 385 H 25.626 -3.19394 -5.72995 0
M  V30 386 H 25.543 -4.92509 -5.7356 0
M  V30 387 H 26.811 -4.12418 -6.61462 0
M  V30 388 N 31.0401 0.771051 -1.3745 0
M  V30 389 C 31.9881 1.90574 -1.33358 0
M  V30 390 C 32.9821 1.67936 -0.22224 0
M  V30 391 O 34.1881 1.75717 -0.390304 0
M  V30 392 H 30.5631 0.626714 -0.415612 0
M  V30 393 H 32.5341 1.91142 -2.29144 0
M  V30 394 C 31.2831 3.27845 -1.15813 0
M  V30 395 H 30.6061 3.45842 -2.00583 0
M  V30 396 H 32.0461 4.07538 -1.17 0
M  V30 397 C 30.5051 3.36625 0.136165 0
M  V30 398 O 31.0351 3.85785 1.11949 0
M  V30 399 N 29.2411 2.89997 0.187099 0
M  V30 400 H 28.7881 2.50182 -0.613753 0
M  V30 401 H 28.7461 2.96252 1.05272 0
M  V30 402 N 32.5182 1.22032 0.997298 0
M  V30 403 C 33.4652 0.986467 2.08656 0
M  V30 404 C 34.4352 -0.0902671 1.65855 0
M  V30 405 O 35.6202 0.0584294 1.90711 0
M  V30 406 C 32.7602 0.565569 3.40434 0
M  V30 407 C 31.8732 1.71259 3.96604 0
M  V30 408 C 31.0082 1.24011 5.16522 0
M  V30 409 C 30.0472 2.35896 5.64818 0
M  V30 410 N 29.1842 1.89726 6.7598 0
M  V30 411 H 34.0242 1.91892 2.27994 0
M  V30 412 H 31.5612 0.956199 1.11782 0
M  V30 413 H 33.5192 0.302738 4.161 0
M  V30 414 H 32.1492 -0.329879 3.2111 0
M  V30 415 H 31.2012 2.08986 3.17851 0
M  V30 416 H 32.5132 2.55436 4.28432 0
M  V30 417 H 31.6672 0.934395 5.99461 0
M  V30 418 H 30.4062 0.368487 4.86306 0
M  V30 419 H 29.4112 2.67261 4.8047 0
M  V30 420 H 30.6362 3.23567 5.97061 0
M  V30 421 H 28.5822 1.0492 6.47555 0
M  V30 422 H 28.4992 2.67471 7.07103 0
M  V30 423 H 29.7672 1.62211 7.62435 0
M  V30 424 N 33.9963 -1.19345 1.0293 0
M  V30 425 C 34.9433 -2.2258 0.610464 0
M  V30 426 C 35.9133 -1.6179 -0.375946 0
M  V30 427 O 37.0983 -1.88844 -0.272511 0
M  V30 428 C 34.2383 -3.45085 -0.0321473 0
M  V30 429 C 33.3513 -4.20258 1.00035 0
M  V30 430 C 32.4863 -5.3019 0.32746 0
M  V30 431 C 31.5253 -5.97121 1.34584 0
M  V30 432 N 30.6623 -6.98615 0.698726 0
M  V30 433 H 35.5023 -2.57764 1.49538 0
M  V30 434 H 33.0393 -1.26644 0.748311 0
M  V30 435 H 34.9973 -4.15061 -0.421966 0
M  V30 436 H 33.6273 -3.10555 -0.88064 0
M  V30 437 H 32.6793 -3.49223 1.50823 0
M  V30 438 H 33.9913 -4.66175 1.77433 0
M  V30 439 H 33.1453 -6.06587 -0.11718 0
M  V30 440 H 31.8843 -4.85345 -0.478713 0
M  V30 441 H 30.8893 -5.19474 1.80074 0
M  V30 442 H 32.1143 -6.4405 2.15352 0
M  V30 443 H 30.0603 -6.55942 -0.0873471 0
M  V30 444 H 29.9773 -7.42724 1.41058 0
M  V30 445 H 31.2453 -7.79004 0.278102 0
M  V30 446 N 35.4744 -0.807222 -1.35358 0
M  V30 447 C 36.6994 -0.399309 -2.0352 0
M  V30 448 C 37.1244 0.981986 -1.60433 0
M  V30 449 O 36.4824 1.63601 -0.781299 0
M  V30 450 C 36.5304 -0.491552 -3.57234 0
M  V30 451 O 35.6344 0.494754 -4.09421 0
M  V30 452 H 34.9754 -0.166682 -0.642739 0
M  V30 453 H 37.5054 -1.09328 -1.72941 0
M  V30 454 H 37.5154 -0.361588 -4.06395 0
M  V30 455 H 36.1904 -1.49907 -3.87944 0
M  V30 456 H 34.7674 0.324977 -3.71481 0
M  V30 457 N 36.9525 1.47285 -0.560781 0
M  V30 458 C 37.9155 2.28535 0.174488 0
M  V30 459 C 38.9155 1.37153 0.839388 0
M  V30 460 O 40.1055 1.59748 0.694702 0
M  V30 461 C 37.2375 3.16934 1.25561 0
M  V30 462 H 38.4305 2.95012 -0.539262 0
M  V30 463 H 35.9835 1.53034 -0.317865 0
M  V30 464 H 36.7185 2.55157 2.00164 0
M  V30 465 H 36.5035 3.8419 0.783604 0
M  V30 466 H 37.9935 3.78143 1.77193 0
M  V30 467 N 38.4306 0.297415 1.54768 0
M  V30 468 C 39.8466 -0.0560823 1.59501 0
M  V30 469 C 40.0466 -1.52725 1.31444 0
M  V30 470 O 39.1026 -2.27947 1.08611 0
M  V30 471 C 40.4156 0.338631 2.98787 0
M  V30 472 C 41.9636 0.287097 3.11681 0
M  V30 473 C 42.4386 0.656579 4.53269 0
M  V30 474 N 43.9296 0.608977 4.59179 0
M  V30 475 C 44.6646 0.867385 5.66802 0
M  V30 476 N 44.1606 1.19157 6.82476 0
M  V30 477 N 45.9536 0.794687 5.56454 0
M  V30 478 H 38.1046 1.25624 1.71267 0
M  V30 479 H 40.3676 0.509057 0.799728 0
M  V30 480 H 40.0736 1.36263 3.2423 0
M  V30 481 H 39.9476 -0.309508 3.75928 0
M  V30 482 H 42.3346 -0.727649 2.85988 0
M  V30 483 H 42.4156 0.969809 2.36703 0
M  V30 484 H 42.0596 1.66912 4.7969 0
M  V30 485 H 41.9896 -0.0481649 5.26578 0
M  V30 486 H 44.4806 0.369198 3.76092 0
M  V30 487 H 44.7936 1.37482 7.60473 0
M  V30 488 H 43.1386 1.22958 6.84037 0
M  V30 489 H 46.3296 0.541098 4.64962 0
M  V30 490 H 46.5026 0.999445 6.40246 0
M  V30 491 N 39.9087 -1.5758 0.0250728 0
M  V30 492 C 41.3197 -1.79476 -0.514323 0
M  V30 493 C 41.6707 -0.934956 -1.72491 0
M  V30 494 O 40.7957 -0.144245 -2.15919 0
M  V30 495 C 41.3907 -3.25503 -0.939842 0
M  V30 496 C 39.9497 -3.48408 -1.42438 0
M  V30 497 C 39.0967 -2.74583 -0.387201 0
M  V30 498 H 42.0477 -1.567 0.25113 0
M  V30 499 H 42.0687 -3.34992 -1.80445 0
M  V30 500 H 41.5807 -3.88056 -0.0585628 0
M  V30 501 H 39.6817 -2.91103 -2.32572 0
M  V30 502 H 39.7947 -4.57119 -1.43455 0
M  V30 503 H 38.1587 -2.39942 -0.854409 0
M  V30 504 H 38.9417 -3.39849 0.485543 0
M  V30 505 N 41.3868 0.248026 -1.55636 0
M  V30 506 C 42.6348 0.974295 -1.77065 0
M  V30 507 C 42.9558 1.85897 -0.588849 0
M  V30 508 O 42.2258 1.91868 0.395407 0
M  V30 509 H 40.8058 0.362733 -0.653019 0
M  V30 510 H 43.4678 0.266244 -1.93073 0
M  V30 511 H 42.5638 1.59667 -2.68166 0
M  V30 512 N 42.8649 1.48995 0.513639 0
M  V30 513 C 43.8119 1.6473 1.61656 0
M  V30 514 C 44.7819 0.488984 1.58739 0
M  V30 515 O 45.9669 0.714478 1.76918 0
M  V30 516 C 43.1069 1.7082 2.99858 0
M  V30 517 C 42.2199 2.9787 3.12885 0
M  V30 518 C 41.3549 2.95017 4.41744 0
M  V30 519 C 40.3939 4.16702 4.48359 0
M  V30 520 N 39.5309 4.11832 5.68629 0
M  V30 521 H 44.3709 2.58909 1.47547 0
M  V30 522 H 41.9079 1.28382 0.71808 0
M  V30 523 H 43.8659 1.72331 3.79944 0
M  V30 524 H 42.4959 0.801181 3.12699 0
M  V30 525 H 41.5479 3.06029 2.25944 0
M  V30 526 H 42.8599 3.8786 3.13633 0
M  V30 527 H 42.0139 2.95021 5.30139 0
M  V30 528 H 40.7529 2.02784 4.43542 0
M  V30 529 H 39.7579 4.16955 3.58369 0
M  V30 530 H 40.9829 5.10113 4.48287 0
M  V30 531 H 38.9289 3.22428 5.71293 0
M  V30 532 H 38.8459 4.95543 5.7094 0
M  V30 533 H 40.1139 4.1592 6.59266 0
M  V30 534 N 44.343 -0.763751 1.37857 0
M  V30 535 C 45.29 -1.87726 1.34267 0
M  V30 536 C 46.26 -1.64807 0.206879 0
M  V30 537 O 47.445 -1.86613 0.397508 0
M  V30 538 C 44.585 -3.24896 1.16346 0
M  V30 539 C 43.698 -3.59716 2.39225 0
M  V30 540 C 42.833 -4.86137 2.14114 0
M  V30 541 C 41.872 -5.13711 3.32817 0
M  V30 542 N 41.009 -6.31323 3.07206 0
M  V30 543 H 45.849 -1.90129 2.29466 0
M  V30 544 H 43.386 -0.929433 1.14017 0
M  V30 545 H 45.344 -4.04036 1.03975 0
M  V30 546 H 43.974 -3.21847 0.247909 0
M  V30 547 H 43.026 -2.75498 2.62307 0
M  V30 548 H 44.338 -3.76027 3.27728 0
M  V30 549 H 43.492 -5.73198 1.9882 0
M  V30 550 H 42.231 -4.71945 1.22961 0
M  V30 551 H 41.236 -4.25123 3.48641 0
M  V30 552 H 42.461 -5.29807 4.24832 0
M  V30 553 H 40.407 -6.18474 2.1869 0
M  V30 554 H 40.324 -6.48087 3.89254 0
M  V30 555 H 41.592 -7.213 2.95546 0
M  V30 556 N 45.8211 -1.22559 -0.990812 0
M  V30 557 C 47.0691 -1.04933 -1.72724 0
M  V30 558 C 47.3901 0.416158 -1.90508 0
M  V30 559 O 46.6601 1.29918 -1.46622 0
M  V30 560 H 45.2401 -0.385296 -0.639965 0
M  V30 561 H 47.9021 -1.54105 -1.19322 0
M  V30 562 H 46.9981 -1.52886 -2.72089 0
M  V30 563 N 47.2992 1.18797 -1.03562 0
M  V30 564 C 48.5242 1.9314 -0.755764 0
M  V30 565 C 48.9492 1.7537 0.68022 0
M  V30 566 O 48.3072 1.06046 1.47051 0
M  V30 567 C 48.3552 3.42747 -1.12058 0
M  V30 568 O 47.4592 4.11683 -0.243124 0
M  V30 569 H 46.8002 0.602724 -0.278604 0
M  V30 570 H 49.3302 1.50678 -1.3841 0
M  V30 571 H 49.3402 3.93437 -1.08035 0
M  V30 572 H 48.0152 3.55002 -2.16672 0
M  V30 573 H 46.5922 3.71323 -0.342539 0
M  V30 574 N 48.7773 0.814389 1.34928 0
M  V30 575 C 50.0023 0.410097 2.03305 0
M  V30 576 C 50.4273 -0.973464 1.60951 0
M  V30 577 O 49.7853 -1.63185 0.789964 0
M  V30 578 C 49.8333 0.51049 3.56968 0
M  V30 579 O 48.9373 -0.473035 4.09678 0
M  V30 580 H 48.2783 0.170088 0.641846 0
M  V30 581 H 50.8083 1.10244 1.72358 0
M  V30 582 H 50.8183 0.383135 4.06197 0
M  V30 583 H 49.4933 1.51963 3.87144 0
M  V30 584 H 48.0703 -0.305272 3.71648 0
M  V30 585 N 50.2554 -1.46986 0.568584 0
M  V30 586 C 51.4834 -2.0683 0.0539956 0
M  V30 587 C 51.8984 -1.41953 -1.24478 0
M  V30 588 O 51.2554 -0.519933 -1.74937 0
M  V30 589 C 51.3064 -3.61254 -0.133362 0
M  V30 590 O 51.0274 -4.237 1.11399 0
M  V30 591 C 52.5284 -4.37992 -0.683927 0
M  V30 592 H 49.7484 -0.669058 0.0510141 0
M  V30 593 H 52.2924 -1.88824 0.785234 0
M  V30 594 H 50.4474 -3.78735 -0.81477 0
M  V30 595 H 50.8614 -5.16388 0.91888 0
M  V30 596 H 52.3354 -5.46684 -0.764263 0
M  V30 597 H 52.8124 -4.05058 -1.69778 0
M  V30 598 H 53.4184 -4.25283 -0.0378494 0
M  V30 599 N 51.7335 -0.305618 -1.54608 0
M  V30 600 C 52.6805 0.568421 -2.23691 0
M  V30 601 C 53.6505 1.12592 -1.22116 0
M  V30 602 O 54.8355 1.16959 -1.50749 0
M  V30 603 C 51.9755 1.7322 -2.98477 0
M  V30 604 C 51.0885 1.20566 -4.14835 0
M  V30 605 C 50.2235 2.33368 -4.77193 0
M  V30 606 C 49.2625 1.7787 -5.85686 0
M  V30 607 N 48.3995 2.84263 -6.4198 0
M  V30 608 H 53.2395 -0.0272867 -2.97988 0
M  V30 609 H 50.7765 -0.0252363 -1.47078 0
M  V30 610 H 52.7345 2.41675 -3.40072 0
M  V30 611 H 51.3645 2.29947 -2.26548 0
M  V30 612 H 50.4165 0.413223 -3.78149 0
M  V30 613 H 51.7285 0.759417 -4.92985 0
M  V30 614 H 50.8825 3.09761 -5.21664 0
M  V30 615 H 49.6215 2.8132 -3.98385 0
M  V30 616 H 48.6265 0.99968 -5.40635 0
M  V30 617 H 49.8515 1.30816 -6.66381 0
M  V30 618 H 47.7975 3.31541 -5.66053 0
M  V30 619 H 47.7145 2.44149 -7.15491 0
M  V30 620 H 48.9825 3.6054 -6.91109 0
M  V30 621 N 53.2116 1.57565 -0.0334293 0
M  V30 622 C 54.1586 2.10478 0.946981 0
M  V30 623 C 55.1286 1.00787 1.32027 0
M  V30 624 O 56.3136 1.28232 1.41284 0
M  V30 625 C 53.4536 2.63994 2.22263 0
M  V30 626 C 52.5666 3.87709 1.90541 0
M  V30 627 C 51.7016 4.29604 3.12433 0
M  V30 628 C 50.7406 5.46065 2.76549 0
M  V30 629 N 49.8776 5.83096 3.9108 0
M  V30 630 H 54.7176 2.93963 0.488846 0
M  V30 631 H 52.2546 1.45296 0.22969 0
M  V30 632 H 54.2126 2.93114 2.96884 0
M  V30 633 H 52.8426 1.83333 2.65685 0
M  V30 634 H 51.8946 3.65291 1.06144 0
M  V30 635 H 53.2066 4.72403 1.60116 0
M  V30 636 H 52.3606 4.60182 3.9537 0
M  V30 637 H 51.0996 3.43685 3.46023 0
M  V30 638 H 50.1046 5.15176 1.92026 0
M  V30 639 H 51.3296 6.33685 2.44171 0
M  V30 640 H 49.2756 5.00132 4.24504 0
M  V30 641 H 49.1926 6.6244 3.64293 0
M  V30 642 H 50.4606 6.18282 4.74708 0
M  V30 643 N 54.6897 -0.239769 1.55765 0
M  V30 644 C 55.9147 -0.988373 1.82335 0
M  V30 645 C 56.3397 -1.77886 0.611421 0
M  V30 646 O 55.6977 -1.75889 -0.439639 0
M  V30 647 C 55.7457 -1.89627 3.06715 0
M  V30 648 O 54.8497 -2.98904 2.84131 0
M  V30 649 H 54.1907 -0.280858 0.601677 0
M  V30 650 H 56.7207 -0.258597 2.02959 0
M  V30 651 H 56.7307 -2.30957 3.36338 0
M  V30 652 H 55.4057 -1.31511 3.9456 0
M  V30 653 H 53.9827 -2.61651 2.65694 0
M  V30 654 N 56.1678 -1.49265 -0.50573 0
M  V30 655 C 57.1148 -1.65585 -1.6078 0
M  V30 656 C 58.0848 -0.497396 -1.58478 0
M  V30 657 O 59.2698 -0.72385 -1.76536 0
M  V30 658 C 56.4098 -1.72408 -2.98948 0
M  V30 659 C 55.5228 -2.99525 -3.11301 0
M  V30 660 C 54.6578 -2.97356 -4.40174 0
M  V30 661 C 53.6968 -4.19074 -4.46143 0
M  V30 662 N 52.8338 -4.14841 -5.66437 0
M  V30 663 H 57.6738 -2.59688 -1.46172 0
M  V30 664 H 55.2108 -1.28761 -0.711261 0
M  V30 665 H 57.1688 -1.74344 -3.79025 0
M  V30 666 H 55.7988 -0.817753 -3.1227 0
M  V30 667 H 54.8508 -3.07222 -2.24318 0
M  V30 668 H 56.1628 -3.89518 -3.11572 0
M  V30 669 H 55.3168 -2.97829 -5.28567 0
M  V30 670 H 54.0558 -2.05133 -4.42461 0
M  V30 671 H 53.0608 -4.1885 -3.56153 0
M  V30 672 H 54.2858 -5.12483 -4.45575 0
M  V30 673 H 52.2318 -3.25453 -5.69575 0
M  V30 674 H 52.1488 -4.98564 -5.68304 0
M  V30 675 H 53.4168 -4.1941 -6.57051 0
M  V30 676 N 57.6459 0.756429 -1.3826 0
M  V30 677 C 58.8739 1.54565 -1.3754 0
M  V30 678 C 59.2889 1.88767 0.0355331 0
M  V30 679 O 58.6459 1.52572 1.0014 0
M  V30 680 C 58.6969 2.84654 -2.22833 0
M  V30 681 O 58.4179 2.51912 -3.5843 0
M  V30 682 C 59.9189 3.78807 -2.30261 0
M  V30 683 H 57.1389 0.478353 -0.470553 0
M  V30 684 H 59.6829 0.936381 -1.81803 0
M  V30 685 H 57.8379 3.41965 -1.8204 0
M  V30 686 H 58.2519 3.35325 -4.03308 0
M  V30 687 H 59.7259 4.67045 -2.94233 0
M  V30 688 H 60.2029 4.19038 -1.31545 0
M  V30 689 H 60.8089 3.2742 -2.71433 0
M  V30 690 N 59.124 1.23083 0.984299 0
M  V30 691 C 60.054 1.03292 2.09411 0
M  V30 692 C 61.035 -0.048923 1.7003 0
M  V30 693 O 62.22 0.114967 1.93859 0
M  V30 694 C 59.35 0.619155 3.41736 0
M  V30 695 C 58.304 1.64791 3.95004 0
M  V30 696 C 57.63 1.0897 5.23478 0
M  V30 697 C 58.93 3.03999 4.24714 0
M  V30 698 H 60.624 1.96119 2.26225 0
M  V30 699 H 58.17 0.944344 1.08711 0
M  V30 700 H 60.123 0.467777 4.18796 0
M  V30 701 H 58.847 -0.344786 3.24775 0
M  V30 702 H 57.506 1.78721 3.20085 0
M  V30 703 H 57.154 0.11686 5.02864 0
M  V30 704 H 56.854 1.77704 5.60085 0
M  V30 705 H 58.378 0.950093 6.03163 0
M  V30 706 H 59.792 2.93393 4.92538 0
M  V30 707 H 58.189 3.69936 4.72512 0
M  V30 708 H 59.259 3.53285 3.32142 0
M  V30 709 N 60.6021 -1.18246 1.0419 0
M  V30 710 C 61.8791 -1.84121 0.660208 0
M  V30 711 C 62.2591 -1.92778 -0.860221 0
M  V30 712 O 61.6071 -1.45464 -1.76217 0
M  V30 713 C 61.8171 -3.22355 1.33747 0
M  V30 714 C 63.1651 -3.98376 1.46906 0
M  V30 715 O 64.1891 -3.31799 1.29568 0
M  V30 716 O 63.0481 -5.17665 1.75171 0
M  V30 717 H 60.1421 -0.794036 0.231161 0
M  V30 718 H 62.6881 -1.25628 1.14087 0
M  V30 719 H 61.4601 -3.10964 2.37522 0
M  V30 720 H 61.0831 -3.88506 0.845515 0
M  V30 721 N 62.0802 -0.821533 -1.34494 0
M  V30 722 C 63.0272 -0.240397 -2.29545 0
M  V30 723 C 63.9972 0.634031 -1.53523 0
M  V30 724 O 65.1822 0.575966 -1.81899 0
M  V30 725 C 62.3222 0.592869 -3.39969 0
M  V30 726 C 61.4352 -0.30365 -4.30932 0
M  V30 727 C 60.5702 0.539049 -5.28458 0
M  V30 728 C 59.6092 -0.356942 -6.11058 0
M  V30 729 N 58.7462 0.446603 -7.00678 0
M  V30 730 H 63.5862 -1.05632 -2.7865 0
M  V30 731 H 61.1232 -0.532413 -1.37127 0
M  V30 732 H 63.0812 1.09129 -4.02675 0
M  V30 733 H 61.7112 1.37392 -2.92102 0
M  V30 734 H 60.7632 -0.920276 -3.691 0
M  V30 735 H 62.0752 -0.992661 -4.88823 0
M  V30 736 H 61.2292 1.102 -5.96608 0
M  V30 737 H 59.9682 1.26157 -4.71101 0
M  V30 738 H 58.9732 -0.932047 -5.41842 0
M  V30 739 H 60.1982 -1.07755 -6.70497 0
M  V30 740 H 58.1442 1.15282 -6.45791 0
M  V30 741 H 58.0612 -0.184048 -7.55776 0
M  V30 742 H 59.3292 0.992352 -7.73158 0
M  V30 743 N 63.5583 1.46682 -0.576371 0
M  V30 744 C 64.7833 2.07304 -0.0630475 0
M  V30 745 C 65.2083 1.42329 1.2298 0
M  V30 746 O 64.5663 0.504865 1.74129 0
M  V30 747 C 64.6143 3.60472 0.095895 0
M  V30 748 O 63.7183 3.95927 1.15394 0
M  V30 749 H 63.0593 0.661288 -0.0599463 0
M  V30 750 H 65.5893 1.88417 -0.797511 0
M  V30 751 H 65.5993 4.06865 0.304071 0
M  V30 752 H 64.2743 4.07157 -0.84828 0
M  V30 753 H 62.8513 3.61252 0.924724 0
M  V30 754 N 65.0364 0.313813 1.54444 0
M  V30 755 C 65.9994 -0.54379 2.22656 0
M  V30 756 C 66.9994 -1.05124 1.21678 0
M  V30 757 O 68.1894 -0.945225 1.46325 0
M  V30 758 C 65.3214 -1.75427 2.92298 0
M  V30 759 H 66.5144 0.0523599 2.99854 0
M  V30 760 H 64.0674 0.0647834 1.56166 0
M  V30 761 H 64.8024 -2.38991 2.19211 0
M  V30 762 H 64.5874 -1.39791 3.66334 0
M  V30 763 H 66.0774 -2.36325 3.44297 0
M  V30 764 N 66.5145 -1.57545 0.0417849 0
M  V30 765 C 67.7635 -1.91494 -0.633492 0
M  V30 766 C 68.0765 -0.921084 -1.72556 0
M  V30 767 O 69.2825 -1.15228 -2.45835 0
M  V30 768 C 67.7385 -3.40072 -1.17808 0
M  V30 769 C 67.3465 -4.47843 -0.118633 0
M  V30 770 C 69.0905 -3.8307 -1.82915 0
M  V30 771 C 66.9975 -5.87529 -0.675578 0
M  V30 772 H 65.9275 -0.714653 -0.24039 0
M  V30 773 H 68.5785 -1.83175 0.109148 0
M  V30 774 H 66.9605 -3.43364 -1.97274 0
M  V30 775 H 68.1345 -4.56128 0.654494 0
M  V30 776 H 66.4495 -4.14128 0.434414 0
M  V30 777 H 69.0465 -4.84794 -2.25563 0
M  V30 778 H 69.3895 -3.1881 -2.67705 0
M  V30 779 H 69.9225 -3.82255 -1.10119 0
M  V30 780 H 66.6615 -6.55362 0.134475 0
M  V30 781 H 66.1815 -5.82824 -1.4169 0
M  V30 782 H 67.8605 -6.36491 -1.1614 0
M  V30 783 N 67.9926 0.231505 -1.5589 0
M  V30 784 C 69.2396 0.957352 -1.78441 0
M  V30 785 C 69.5676 1.84726 -0.60882 0
M  V30 786 O 68.8226 1.91416 0.40725 0
M  V30 787 C 69.1216 1.83577 -3.0665 0
M  V30 788 C 68.7876 1.09993 -4.37278 0
M  V30 789 C 67.4496 0.896629 -4.72773 0
M  V30 790 C 69.8016 0.579558 -5.17968 0
M  V30 791 C 67.1296 0.160896 -5.86479 0
M  V30 792 C 69.4816 -0.142783 -6.32439 0
M  V30 793 C 68.1456 -0.357427 -6.66542 0
M  V30 794 H 67.4156 0.35032 -0.65296 0
M  V30 795 H 70.0626 0.226259 -1.90159 0
M  V30 796 H 68.3676 2.63441 -2.90011 0
M  V30 797 H 70.0646 2.39934 -3.21298 0
M  V30 798 H 66.6546 1.26835 -4.09403 0
M  V30 799 H 70.8386 0.724125 -4.90989 0
M  V30 800 H 66.0946 -0.0157293 -6.11398 0
M  V30 801 H 70.2686 -0.553559 -6.94196 0
M  V30 802 H 67.8956 -0.929466 -7.54497 0
M  V30 803 N 69.4707 1.49531 0.497807 0
M  V30 804 C 70.8817 1.52344 1.07927 0
M  V30 805 C 71.2327 0.311469 1.93712 0
M  V30 806 O 70.3577 -0.578405 2.08527 0
M  V30 807 C 70.9527 2.76062 1.96405 0
M  V30 808 C 69.5117 2.81643 2.49709 0
M  V30 809 C 68.6587 2.46299 1.27404 0
M  V30 810 H 71.6097 1.56182 0.281576 0
M  V30 811 H 71.6307 2.56405 2.81135 0
M  V30 812 H 71.1427 3.64254 1.33943 0
M  V30 813 H 69.2437 1.97739 3.15801 0
M  V30 814 H 69.3567 3.83891 2.86643 0
M  V30 815 H 67.7207 1.98148 1.60029 0
M  V30 816 H 68.5037 3.36769 0.66645 0
M  V30 817 N 70.9488 -0.749086 1.3866 0
M  V30 818 C 71.9118 -1.84457 1.36045 0
M  V30 819 C 72.9118 -1.58682 0.260122 0
M  V30 820 O 74.1018 -1.66343 0.517261 0
M  V30 821 C 71.2338 -3.22008 1.11911 0
M  V30 822 H 72.4268 -1.88182 2.33512 0
M  V30 823 H 69.9798 -0.951266 1.24019 0
M  V30 824 H 70.7148 -3.2395 0.150686 0
M  V30 825 H 70.4998 -3.42111 1.91579 0
M  V30 826 H 71.9898 -4.0208 1.12788 0
M  V30 827 N 72.4269 -1.23603 -0.977757 0
M  V30 828 C 73.6759 -1.06377 -1.71368 0
M  V30 829 C 73.9889 0.399062 -1.91486 0
M  V30 830 O 75.1949 0.691312 -2.62551 0
M  V30 831 C 73.6509 -1.85512 -3.08404 0
M  V30 832 C 73.2589 -3.36141 -2.96164 0
M  V30 833 C 75.0029 -1.76783 -3.85938 0
M  V30 834 C 72.9099 -4.07659 -4.28449 0
M  V30 835 H 71.8399 -0.394452 -0.642591 0
M  V30 836 H 74.4909 -1.47594 -1.09034 0
M  V30 837 H 72.8729 -1.37103 -3.71509 0
M  V30 838 H 74.0469 -3.92056 -2.42133 0
M  V30 839 H 72.3619 -3.45712 -2.32104 0
M  V30 840 H 74.9589 -2.27526 -4.83876 0
M  V30 841 H 75.3019 -0.731116 -4.0983 0
M  V30 842 H 75.8349 -2.22818 -3.2954 0
M  V30 843 H 72.5739 -5.11648 -4.09752 0
M  V30 844 H 72.0939 -3.5653 -4.82334 0
M  V30 845 H 73.7729 -4.141 -4.97122 0
M  V30 846 N 73.905 1.17692 -1.04816 0
M  V30 847 C 74.835 2.23777 -0.666791 0
M  V30 848 C 75.816 1.66796 0.33361 0
M  V30 849 O 77.001 1.93039 0.212042 0
M  V30 850 C 74.131 3.47281 -0.0367933 0
M  V30 851 C 73.085 4.17059 -0.961546 0
M  V30 852 C 72.411 5.34342 -0.195626 0
M  V30 853 C 73.711 4.69713 -2.28402 0
M  V30 854 H 75.405 2.55933 -1.55367 0
M  V30 855 H 72.951 1.23019 -0.748484 0
M  V30 856 H 74.904 4.20706 0.241775 0
M  V30 857 H 73.628 3.14381 0.885004 0
M  V30 858 H 72.287 3.45541 -1.22462 0
M  V30 859 H 71.935 4.97692 0.728816 0
M  V30 860 H 71.635 5.81966 -0.811775 0
M  V30 861 H 73.159 6.10553 0.0757473 0
M  V30 862 H 74.573 5.34794 -2.06563 0
M  V30 863 H 72.97 5.279 -2.8538 0
M  V30 864 H 74.04 3.86726 -2.92525 0
M  V30 865 N 75.3831 0.828654 1.34056 0
M  V30 866 C 76.3131 0.269443 2.3194 0
M  V30 867 C 77.2941 -0.617247 1.58506 0
M  V30 868 O 78.4791 -0.542931 1.86456 0
M  V30 869 C 75.6091 -0.564793 3.42677 0
M  V30 870 C 74.5631 0.225241 4.27407 0
M  V30 871 C 73.8891 -0.7321 5.29664 0
M  V30 872 C 75.1891 1.43663 5.02154 0
M  V30 873 H 76.8831 1.08728 2.7896 0
M  V30 874 H 74.4291 0.524283 1.34117 0
M  V30 875 H 76.3821 -0.966233 4.10173 0
M  V30 876 H 75.1061 -1.41574 2.9432 0
M  V30 877 H 73.7651 0.608117 3.61521 0
M  V30 878 H 73.4131 -1.57916 4.77568 0
M  V30 879 H 73.1131 -0.20767 5.87233 0
M  V30 880 H 74.6371 -1.13128 6.00029 0
M  V30 881 H 76.0511 1.1089 5.62473 0
M  V30 882 H 74.4481 1.89711 5.69324 0
M  V30 883 H 75.5181 2.21181 4.31517 0
M  V30 884 N 76.8612 -1.46375 0.584142 0
M  V30 885 C 78.0862 -2.07268 0.0740405 0
M  V30 886 C 78.5112 -1.42979 -1.22223 0
M  V30 887 O 77.8692 -0.514092 -1.73859 0
M  V30 888 C 77.9172 -3.60518 -0.0767769 0
M  V30 889 O 77.0212 -3.96533 -1.13292 0
M  V30 890 H 76.3622 -0.660961 0.0634524 0
M  V30 891 H 78.8922 -1.87991 0.807492 0
M  V30 892 H 78.9022 -4.07021 -0.282489 0
M  V30 893 H 77.5772 -4.06702 0.86986 0
M  V30 894 H 76.1542 -3.61738 -0.905553 0
M  V30 895 N 78.3393 -0.321999 -1.54275 0
M  V30 896 C 79.5883 0.281931 -1.9972 0
M  V30 897 C 79.9013 1.53369 -1.21397 0
M  V30 898 O 81.1073 2.21352 -1.57211 0
M  V30 899 C 79.5633 0.5529 -3.55628 0
M  V30 900 C 79.1713 -0.681721 -4.42783 0
M  V30 901 C 80.9153 1.11687 -4.09544 0
M  V30 902 C 78.8223 -0.382742 -5.9016 0
M  V30 903 H 77.7523 0.109124 -0.746062 0
M  V30 904 H 80.4033 -0.43398 -1.78294 0
M  V30 905 H 78.7853 1.32896 -3.73035 0
M  V30 906 H 79.9593 -1.45723 -4.37151 0
M  V30 907 H 78.2743 -1.1658 -3.99748 0
M  V30 908 H 80.8713 1.35515 -5.17242 0
M  V30 909 H 81.2143 2.06575 -3.61431 0
M  V30 910 H 81.7473 0.402032 -3.95763 0
M  V30 911 H 78.4863 -1.30076 -6.42464 0
M  V30 912 H 78.0063 0.355094 -5.98748 0
M  V30 913 H 79.6853 0.00800157 -6.47 0
M  V30 914 N 79.8174 1.5752 -0.0501392 0
M  V30 915 C 80.7644 2.1147 0.924603 0
M  V30 916 C 81.7344 1.02182 1.30951 0
M  V30 917 O 82.9194 1.29723 1.39916 0
M  V30 918 C 80.0594 2.66337 2.19451 0
M  V30 919 C 79.1724 3.89708 1.86418 0
M  V30 920 C 78.3074 4.32893 3.07859 0
M  V30 921 C 77.3464 5.48967 2.70742 0
M  V30 922 N 76.4834 5.87211 3.84874 0
M  V30 923 H 81.3234 2.94465 0.457639 0
M  V30 924 H 78.8604 1.45531 0.214266 0
M  V30 925 H 80.8184 2.96247 2.93758 0
M  V30 926 H 79.4484 1.86141 2.63726 0
M  V30 927 H 78.5004 3.66396 1.02264 0
M  V30 928 H 79.8124 4.74074 1.55096 0
M  V30 929 H 78.9664 4.6435 3.90466 0
M  V30 930 H 77.7054 3.47336 3.42358 0
M  V30 931 H 76.7104 5.17183 1.86551 0
M  V30 932 H 77.9354 6.3624 2.37436 0
M  V30 933 H 75.8814 5.04607 4.19175 0
M  V30 934 H 75.7984 6.66266 3.57247 0
M  V30 935 H 77.0664 6.23282 4.68123 0
M  V30 936 N 81.2955 -0.223234 1.56011 0
M  V30 937 C 82.2585 -1.26014 1.9145 0
M  V30 938 C 83.2585 -1.3989 0.792937 0
M  V30 939 O 84.4485 -1.38184 1.0607 0
M  V30 940 C 81.5805 -2.63422 2.16383 0
M  V30 941 H 82.7735 -0.95796 2.84189 0
M  V30 942 H 80.3265 -0.463576 1.49267 0
M  V30 943 H 81.0615 -2.98741 1.2619 0
M  V30 944 H 80.8465 -2.54728 2.98088 0
M  V30 945 H 82.3365 -3.38249 2.44903 0
M  V30 946 N 82.7736 -1.49793 -0.48987 0
M  V30 947 C 83.7036 -1.70201 -1.59856 0
M  V30 948 C 84.6846 -0.55076 -1.60937 0
M  V30 949 O 85.8696 -0.787841 -1.77501 0
M  V30 950 C 82.9996 -1.77882 -2.98287 0
M  V30 951 C 81.9536 -2.92907 -3.12073 0
M  V30 952 C 81.2796 -2.85712 -4.51965 0
M  V30 953 C 82.5796 -4.3369 -2.91051 0
M  V30 954 H 84.2736 -2.63025 -1.43032 0
M  V30 955 H 81.8196 -1.26574 -0.686664 0
M  V30 956 H 83.7726 -1.90744 -3.75759 0
M  V30 957 H 82.4966 -0.816653 -3.16225 0
M  V30 958 H 81.1556 -2.79665 -2.37029 0
M  V30 959 H 80.8036 -1.8738 -4.66795 0
M  V30 960 H 80.5036 -3.62921 -4.62128 0
M  V30 961 H 82.0276 -3.00598 -5.31482 0
M  V30 962 H 83.4416 -4.47555 -3.58284 0
M  V30 963 H 81.8386 -5.12205 -3.12675 0
M  V30 964 H 82.9086 -4.47362 -1.87071 0
M  V30 965 N 84.2517 0.741722 -1.39055 0
M  V30 966 C 85.4987 1.50114 -1.35912 0
M  V30 967 C 85.8267 1.94443 0.0470937 0
M  V30 968 O 85.0817 1.66612 1.02659 0
M  V30 969 C 85.3807 2.7592 -2.27163 0
M  V30 970 C 85.0467 2.50493 -3.74919 0
M  V30 971 C 83.7087 2.43267 -4.1518 0
M  V30 972 C 86.0607 2.28585 -4.684 0
M  V30 973 C 83.3887 2.12166 -5.46994 0
M  V30 974 C 85.7407 1.99002 -6.00484 0
M  V30 975 C 84.4047 1.90241 -6.39816 0
M  V30 976 H 83.6747 0.549306 -0.497336 0
M  V30 977 H 86.3217 0.851896 -1.71508 0
M  V30 978 H 84.6267 3.45553 -1.84663 0
M  V30 979 H 86.3237 3.33923 -2.22028 0
M  V30 980 H 82.9137 2.56992 -3.43006 0
M  V30 981 H 87.0977 2.33139 -4.38132 0
M  V30 982 H 82.3537 2.03901 -5.76398 0
M  V30 983 H 86.5277 1.81057 -6.72452 0
M  V30 984 H 84.1547 1.65907 -7.41875 0
M  V30 985 N 85.7298 1.2412 0.971189 0
M  V30 986 C 86.6778 1.02812 2.08644 0
M  V30 987 C 87.6718 -0.0358403 1.69362 0
M  V30 988 O 88.8778 0.118429 1.7961 0
M  V30 989 H 85.2528 0.315428 0.682649 0
M  V30 990 H 87.2238 1.97397 2.23779 0
M  V30 991 C 85.9728 0.645874 3.41649 0
M  V30 992 H 85.2958 1.45632 3.72332 0
M  V30 993 H 86.7358 0.536366 4.20594 0
M  V30 994 C 85.1948 -0.646713 3.30635 0
M  V30 995 O 85.7248 -1.69338 3.64263 0
M  V30 996 N 83.9308 -0.626115 2.83775 0
M  V30 997 H 83.4778 0.225988 2.56607 0
M  V30 998 H 83.4358 -1.49117 2.76788 0
M  V30 999 N 87.2079 -1.17134 1.05439 0
M  V30 1000 C 88.1379 -2.2342 0.678649 0
M  V30 1001 C 89.1189 -1.66971 -0.32476 0
M  V30 1002 O 90.3039 -1.93149 -0.201802 0
M  V30 1003 C 87.4339 -3.47256 0.0552099 0
M  V30 1004 C 86.3879 -4.16543 0.98365 0
M  V30 1005 C 85.7139 -5.34231 0.223961 0
M  V30 1006 C 87.0139 -4.68495 2.3089 0
M  V30 1007 H 88.7079 -2.55105 1.56722 0
M  V30 1008 H 86.2539 -1.2262 0.754998 0
M  V30 1009 H 88.2069 -4.20828 -0.21946 0
M  V30 1010 H 86.9309 -3.14846 -0.868319 0
M  V30 1011 H 85.5899 -3.44887 1.24293 0
M  V30 1012 H 85.2379 -4.98071 -0.702412 0
M  V30 1013 H 84.9379 -5.81527 0.842627 0
M  V30 1014 H 86.4619 -6.10585 -0.0433671 0
M  V30 1015 H 87.8759 -5.33691 2.09396 0
M  V30 1016 H 86.2729 -5.26379 2.88176 0
M  V30 1017 H 87.3429 -3.85169 2.94572 0
M  V30 1018 N 88.686 -0.835752 -1.33615 0
M  V30 1019 C 89.616 -0.281739 -2.31794 0
M  V30 1020 C 90.597 0.608833 -1.58831 0
M  V30 1021 O 91.782 0.533035 -1.86741 0
M  V30 1022 C 88.912 0.546612 -3.42971 0
M  V30 1023 C 87.866 -0.247904 -4.27281 0
M  V30 1024 C 87.192 0.704001 -5.30045 0
M  V30 1025 C 88.492 -1.46324 -5.01385 0
M  V30 1026 H 90.186 -1.10206 -2.78379 0
M  V30 1027 H 87.732 -0.531388 -1.33837 0
M  V30 1028 H 89.685 0.944467 -4.1068 0
M  V30 1029 H 88.409 1.40011 -2.95067 0
M  V30 1030 H 87.068 -0.627281 -3.61194 0
M  V30 1031 H 86.716 1.55381 -4.78399 0
M  V30 1032 H 86.416 0.176524 -5.87335 0
M  V30 1033 H 87.94 1.09944 -6.0062 0
M  V30 1034 H 89.354 -1.13871 -5.61877 0
M  V30 1035 H 87.751 -1.92728 -5.6831 0
M  V30 1036 H 88.821 -2.23467 -4.30338 0
M  V30 1037 N 90.1641 1.46063 -0.591896 0
M  V30 1038 C 91.4111 2.02338 -0.0809991 0
M  V30 1039 C 91.7391 1.46228 1.28249 0
M  V30 1040 O 90.9941 0.620818 1.85592 0
M  V30 1041 C 91.2931 3.57391 0.0249813 0
M  V30 1042 C 90.9591 4.32583 -1.27211 0
M  V30 1043 C 89.6211 4.52844 -1.62745 0
M  V30 1044 C 91.9731 4.75687 -2.13005 0
M  V30 1045 C 89.3011 5.13462 -2.83855 0
M  V30 1046 C 91.6531 5.37644 -3.3335 0
M  V30 1047 C 90.3171 5.5613 -3.69155 0
M  V30 1048 H 89.5871 0.740407 -0.0296397 0
M  V30 1049 H 92.2341 1.75321 -0.770374 0
M  V30 1050 H 90.5391 3.83597 0.797537 0
M  V30 1051 H 92.2361 3.98621 0.436184 0
M  V30 1052 H 88.8261 4.17116 -0.985499 0
M  V30 1053 H 93.0101 4.59782 -1.86855 0
M  V30 1054 H 88.2661 5.25965 -3.11722 0
M  V30 1055 H 92.4401 5.7 -4.00092 0
M  V30 1056 H 90.0671 6.0287 -4.63089 0
M  V30 1057 N 91.6422 0.330177 1.54103 0
M  V30 1058 C 92.8882 -0.270806 2.00984 0
M  V30 1059 C 93.2212 -1.51265 1.21789 0
M  V30 1060 O 92.4962 -1.92142 0.301927 0
M  V30 1061 C 92.7792 -0.598339 3.55094 0
M  V30 1062 C 92.6322 0.654674 4.4501 0
M  V30 1063 C 93.9512 -1.41334 4.16789 0
M  V30 1064 H 91.0702 -0.0969531 0.730595 0
M  V30 1065 H 93.7122 0.448066 1.84641 0
M  V30 1066 H 91.8622 -1.21078 3.69151 0
M  V30 1067 H 93.5342 1.29285 4.42813 0
M  V30 1068 H 91.7772 1.28224 4.14416 0
M  V30 1069 H 92.4482 0.380944 5.50684 0
M  V30 1070 H 94.9242 -0.895597 4.06347 0
M  V30 1071 H 93.8002 -1.61127 5.24718 0
M  V30 1072 H 94.0612 -2.41146 3.70541 0
M  V30 1073 N 93.1203 -1.57491 0.0584922 0
M  V30 1074 C 94.0503 -2.14988 -0.911178 0
M  V30 1075 C 95.0313 -1.07343 -1.31952 0
M  V30 1076 O 96.2163 -1.35318 -1.39294 0
M  V30 1077 C 93.3463 -2.70078 -2.18347 0
M  V30 1078 C 92.3003 -3.82771 -1.91495 0
M  V30 1079 C 91.6263 -4.24408 -3.25241 0
M  V30 1080 C 92.9263 -5.07592 -1.23075 0
M  V30 1081 H 94.6203 -2.96263 -0.432246 0
M  V30 1082 H 92.1663 -1.42512 -0.206469 0
M  V30 1083 H 94.1193 -3.08943 -2.86587 0
M  V30 1084 H 92.8433 -1.86005 -2.68458 0
M  V30 1085 H 91.5023 -3.44389 -1.25664 0
M  V30 1086 H 91.1503 -3.37275 -3.73168 0
M  V30 1087 H 90.8503 -5.00366 -3.08071 0
M  V30 1088 H 92.3743 -4.65879 -3.94701 0
M  V30 1089 H 93.7883 -5.43857 -1.81362 0
M  V30 1090 H 92.1853 -5.88741 -1.16207 0
M  V30 1091 H 93.2553 -4.84454 -0.207847 0
M  V30 1092 N 94.5984 0.214957 -1.56127 0
M  V30 1093 C 95.8464 0.936518 -1.79091 0
M  V30 1094 C 96.1674 1.84606 -0.628148 0
M  V30 1095 O 95.4374 1.92664 0.35462 0
M  V30 1096 H 94.0174 0.3488 -0.660566 0
M  V30 1097 H 96.6794 0.22523 -1.93594 0
M  V30 1098 H 95.7754 1.53943 -2.71492 0
M  V30 1099 N 96.0765 1.50051 0.48192 0
M  V30 1100 C 97.3235 1.60498 1.23477 0
M  V30 1101 C 97.6515 0.300331 1.92167 0
M  V30 1102 O 96.9065 -0.713094 1.82246 0
M  V30 1103 C 97.2055 2.72717 2.30998 0
M  V30 1104 C 96.8715 4.13572 1.79636 0
M  V30 1105 C 95.5335 4.519 1.65348 0
M  V30 1106 C 97.8855 5.01649 1.41412 0
M  V30 1107 C 95.2135 5.76057 1.11244 0
M  V30 1108 C 97.5655 6.26343 0.887538 0
M  V30 1109 C 96.2295 6.63483 0.731207 0
M  V30 1110 H 95.4995 0.587303 0.451836 0
M  V30 1111 H 98.1465 1.83948 0.532468 0
M  V30 1112 H 96.4515 2.43312 3.07094 0
M  V30 1113 H 98.1485 2.78006 2.88988 0
M  V30 1114 H 94.7385 3.83329 1.91721 0
M  V30 1115 H 98.9225 4.72679 1.51289 0
M  V30 1116 H 94.1785 6.03516 0.978686 0
M  V30 1117 H 98.3525 6.93958 0.582654 0
M  V30 1118 H 95.9795 7.59568 0.309806 0
M  V30 1119 N 97.5546 -0.734337 1.39446 0
M  V30 1120 C 98.4846 -1.86155 1.40955 0
M  V30 1121 C 99.4656 -1.67898 0.272827 0
M  V30 1122 O 100.651 -1.88207 0.478743 0
M  V30 1123 C 97.7806 -3.23912 1.25294 0
M  V30 1124 C 96.7346 -3.56808 2.36373 0
M  V30 1125 C 96.0606 -4.93508 2.058 0
M  V30 1126 C 97.3606 -3.59713 3.78687 0
M  V30 1127 H 99.0546 -1.8515 2.35287 0
M  V30 1128 H 96.6006 -0.889367 1.13253 0
M  V30 1129 H 98.5536 -4.02443 1.2497 0
M  V30 1130 H 97.2776 -3.25446 0.274308 0
M  V30 1131 H 95.9366 -2.80606 2.35914 0
M  V30 1132 H 95.5846 -4.91623 1.06374 0
M  V30 1133 H 95.2846 -5.16486 2.80208 0
M  V30 1134 H 96.8086 -5.74396 2.07128 0
M  V30 1135 H 98.2226 -4.2832 3.81071 0
M  V30 1136 H 96.6196 -3.94209 4.52459 0
M  V30 1137 H 97.6896 -2.59504 4.09617 0
M  V30 1138 N 99.0327 -1.24633 -0.964593 0
M  V30 1139 C 100.281 -1.08573 -1.70459 0
M  V30 1140 C 100.602 0.375655 -1.91347 0
M  V30 1141 O 99.8717 1.26779 -1.49345 0
M  V30 1142 H 98.4517 -0.398784 -0.631649 0
M  V30 1143 H 101.114 -1.56601 -1.16026 0
M  V30 1144 H 100.21 -1.58623 -2.68785 0
M  V30 1145 N 100.511 1.16574 -1.06058 0
M  V30 1146 C 101.759 1.86677 -0.77434 0
M  V30 1147 C 102.08 1.81959 0.701147 0
M  V30 1148 O 101.35 1.2515 1.50713 0
M  V30 1149 H 99.9298 0.691134 -0.283449 0
M  V30 1150 H 102.592 1.41378 -1.34158 0
M  V30 1151 H 101.688 2.92181 -1.09711 0
M  V30 1152 N 101.989 0.842826 1.3317 0
M  V30 1153 C 102.922 0.223862 2.27099 0
M  V30 1154 C 103.9 -0.631311 1.49844 0
M  V30 1155 O 105.084 -0.590708 1.79005 0
M  V30 1156 C 102.211 -0.685313 3.31694 0
M  V30 1157 C 101.257 0.094919 4.26394 0
M  V30 1158 S 102.09 1.45546 5.15341 0
M  V30 1159 C 103.246 0.551685 6.23464 0
M  V30 1160 H 103.479 1.02015 2.79249 0
M  V30 1161 H 101.012 0.639797 1.4052 0
M  V30 1162 H 102.97 -1.20426 3.92438 0
M  V30 1163 H 101.631 -1.4553 2.78352 0
M  V30 1164 H 100.824 -0.597059 5.00451 0
M  V30 1165 H 100.426 0.545054 3.70007 0
M  V30 1166 H 102.718 -0.248877 6.77043 0
M  V30 1167 H 103.661 1.26253 6.96754 0
M  V30 1168 H 104.069 0.131275 5.64347 0
M  V30 1169 N 103.467 -1.45747 0.599634 0
M  V30 1170 C 104.397 -2.33235 -0.111306 0
M  V30 1171 C 105.378 -1.46359 -0.866781 0
M  V30 1172 O 106.563 -1.75146 -0.838904 0
M  V30 1173 C 103.693 -3.28932 -1.11451 0
M  V30 1174 C 102.647 -4.25381 -0.472772 0
M  V30 1175 C 101.973 -5.1071 -1.58365 0
M  V30 1176 C 103.273 -5.18831 0.600948 0
M  V30 1177 H 104.967 -2.92927 0.61919 0
M  V30 1178 H 102.513 -1.40857 0.299215 0
M  V30 1179 H 104.466 -3.89002 -1.62036 0
M  V30 1180 H 103.19 -2.67381 -1.8755 0
M  V30 1181 H 101.849 -3.66598 0.0121472 0
M  V30 1182 H 101.497 -4.45533 -2.33473 0
M  V30 1183 H 101.197 -5.7604 -1.15982 0
M  V30 1184 H 102.721 -5.73647 -2.09194 0
M  V30 1185 H 104.135 -5.73019 0.179491 0
M  V30 1186 H 102.532 -5.92595 0.946076 0
M  V30 1187 H 103.602 -4.6174 1.48068 0
M  V30 1188 N 104.945 -0.338344 -1.53925 0
M  V30 1189 C 106.193 0.259245 -2.0043 0
M  V30 1190 C 106.514 1.51484 -1.22791 0
M  V30 1191 O 105.784 1.93037 -0.33368 0
M  V30 1192 H 104.364 0.0987845 -0.740439 0
M  V30 1193 H 107.026 -0.458302 -1.89435 0
M  V30 1194 H 106.122 0.505334 -3.07982 0
M  V30 1195 N 106.423 1.57458 -0.0668435 0
M  V30 1196 C 107.386 2.11323 0.887422 0
M  V30 1197 C 108.386 1.03618 1.22964 0
M  V30 1198 O 109.576 1.29626 1.16373 0
M  V30 1199 C 106.708 2.61048 2.19242 0
M  V30 1200 H 107.901 2.96942 0.420194 0
M  V30 1201 H 105.454 1.55239 0.181793 0
M  V30 1202 H 106.189 1.78868 2.70512 0
M  V30 1203 H 105.974 3.39769 1.95702 0
M  V30 1204 H 107.464 3.02814 2.87565 0
M  V30 1205 N 107.901 -0.206675 1.56239 0
M  V30 1206 C 109.149 -0.927007 1.79586 0
M  V30 1207 C 109.47 -1.8427 0.637929 0
M  V30 1208 O 108.74 -1.92849 -0.344398 0
M  V30 1209 H 107.32 -0.345292 0.662407 0
M  V30 1210 H 109.982 -0.21496 1.93711 0
M  V30 1211 H 109.078 -1.52501 2.72305 0
M  V30 1212 N 109.379 -1.50304 -0.473955 0
M  V30 1213 C 110.628 -1.60392 -1.22301 0
M  V30 1214 C 110.941 -0.308411 -1.93153 0
M  V30 1215 O 112.147 -0.288156 -2.69966 0
M  V30 1216 C 110.603 -2.83109 -2.2221 0
M  V30 1217 C 110.211 -4.19524 -1.57173 0
M  V30 1218 C 111.955 -3.0254 -2.97775 0
M  V30 1219 C 109.862 -5.33431 -2.55353 0
M  V30 1220 H 108.792 -0.597286 -0.460179 0
M  V30 1221 H 111.443 -1.76731 -0.493803 0
M  V30 1222 H 109.825 -2.60322 -2.9841 0
M  V30 1223 H 110.999 -4.52554 -0.867824 0
M  V30 1224 H 109.314 -4.05674 -0.939002 0
M  V30 1225 H 111.911 -3.84811 -3.71248 0
M  V30 1226 H 112.254 -2.14154 -3.56992 0
M  V30 1227 H 112.787 -3.25494 -2.28688 0
M  V30 1228 H 109.526 -6.23962 -2.00878 0
M  V30 1229 H 109.046 -5.04823 -3.23904 0
M  V30 1230 H 110.725 -5.63887 -3.17239 0
M  V30 1231 N 110.857 0.726932 -1.39834 0
M  V30 1232 C 111.82 1.82269 -1.38962 0
M  V30 1233 C 112.82 1.58248 -0.285334 0
M  V30 1234 O 114.01 1.65499 -0.54366 0
M  V30 1235 C 111.142 3.20186 -1.17019 0
M  V30 1236 H 112.335 1.84443 -2.36476 0
M  V30 1237 H 109.888 0.931416 -1.25516 0
M  V30 1238 H 110.623 3.23669 -0.202204 0
M  V30 1239 H 110.408 3.3902 -1.96998 0
M  V30 1240 H 111.898 4.00235 -1.1917 0
M  V30 1241 N 112.336 1.25143 0.95797 0
M  V30 1242 C 113.266 1.07711 2.07173 0
M  V30 1243 C 114.247 -0.0128462 1.70095 0
M  V30 1244 O 115.432 0.156061 1.93572 0
M  V30 1245 C 112.562 0.691503 3.40346 0
M  V30 1246 C 111.516 1.73132 3.9142 0
M  V30 1247 C 110.842 1.20049 5.21049 0
M  V30 1248 C 112.142 3.1294 4.1817 0
M  V30 1249 H 113.836 2.00873 2.22014 0
M  V30 1250 H 111.382 0.967191 1.06684 0
M  V30 1251 H 113.335 0.556505 4.17709 0
M  V30 1252 H 112.059 -0.275819 3.25433 0
M  V30 1253 H 110.718 1.8547 3.16222 0
M  V30 1254 H 110.366 0.223499 5.02503 0
M  V30 1255 H 110.066 1.89545 5.56189 0
M  V30 1256 H 111.59 1.07782 6.01012 0
M  V30 1257 H 113.004 3.03775 4.86203 0
M  V30 1258 H 111.401 3.79875 4.64559 0
M  V30 1259 H 112.471 3.6025 3.24573 0
M  V30 1260 N 113.814 -1.1601 1.06675 0
M  V30 1261 C 115.062 -1.86264 0.784229 0
M  V30 1262 C 115.383 -1.82328 -0.691488 0
M  V30 1263 O 114.653 -1.25947 -1.50047 0
M  V30 1264 H 113.233 -0.689621 0.28711 0
M  V30 1265 H 115.895 -1.40664 1.34906 0
M  V30 1266 H 114.991 -2.91595 1.11259 0
M  V30 1267 N 115.292 -0.849877 -1.32721 0
M  V30 1268 C 116.522 -0.46408 -2.0132 0
M  V30 1269 C 116.93 0.94246 -1.64056 0
M  V30 1270 O 116.273 1.6257 -0.855379 0
M  V30 1271 C 116.335 -0.517887 -3.5575 0
M  V30 1272 C 115.999 -1.88248 -4.16427 0
M  V30 1273 C 116.996 -2.84726 -4.35002 0
M  V30 1274 C 114.681 -2.17832 -4.52609 0
M  V30 1275 C 116.675 -4.08945 -4.8892 0
M  V30 1276 C 114.362 -3.42304 -5.06232 0
M  V30 1277 C 115.36 -4.37677 -5.24335 0
M  V30 1278 O 115.048 -5.59946 -5.76815 0
M  V30 1279 H 114.78 -0.181327 -0.651227 0
M  V30 1280 H 117.334 -1.14713 -1.70382 0
M  V30 1281 H 115.564 0.221997 -3.86062 0
M  V30 1282 H 117.253 -0.148366 -4.05629 0
M  V30 1283 H 118.019 -2.63174 -4.07388 0
M  V30 1284 H 113.898 -1.44385 -4.37806 0
M  V30 1285 H 117.442 -4.83396 -5.02966 0
M  V30 1286 H 113.339 -3.63709 -5.33278 0
M  V30 1287 H 114.107 -5.61838 -5.95214 0
M  V30 1288 N 116.77 1.45427 -0.607355 0
M  V30 1289 C 118.018 2.01841 -0.102253 0
M  V30 1290 C 118.339 1.47832 1.27164 0
M  V30 1291 O 117.609 0.672497 1.83995 0
M  V30 1292 H 116.189 0.746188 -0.0348101 0
M  V30 1293 H 118.851 1.78229 -0.7887 0
M  V30 1294 H 117.947 3.12057 -0.0518585 0
M  V30 1295 N 118.248 0.346503 1.53744 0
M  V30 1296 C 119.494 -0.249473 2.0126 0
M  V30 1297 C 119.827 -1.49965 1.23386 0
M  V30 1298 O 119.102 -1.91811 0.32229 0
M  V30 1299 C 119.385 -0.560643 3.55709 0
M  V30 1300 C 119.238 0.701836 4.44291 0
M  V30 1301 C 120.557 -1.36905 4.18264 0
M  V30 1302 H 117.676 -0.0891987 0.731582 0
M  V30 1303 H 120.318 0.467624 1.84156 0
M  V30 1304 H 118.468 -1.17156 3.70414 0
M  V30 1305 H 120.14 1.33974 4.41417 0
M  V30 1306 H 118.383 1.32612 4.13033 0
M  V30 1307 H 119.054 0.43933 5.50249 0
M  V30 1308 H 121.53 -0.852448 4.07275 0
M  V30 1309 H 120.406 -1.55553 5.26398 0
M  V30 1310 H 120.667 -2.37203 3.73078 0
M  V30 1311 N 119.726 -1.57421 0.075193 0
M  V30 1312 C 120.689 -2.11791 -0.876203 0
M  V30 1313 C 121.689 -1.04268 -1.22412 0
M  V30 1314 O 122.879 -1.30242 -1.15684 0
M  V30 1315 C 120.011 -2.62207 -2.17854 0
M  V30 1316 H 121.204 -2.9716 -0.40444 0
M  V30 1317 H 118.757 -1.55333 -0.173557 0
M  V30 1318 H 119.492 -1.803 -2.6956 0
M  V30 1319 H 119.277 -3.40802 -1.93897 0
M  V30 1320 H 120.767 -3.04335 -2.85955 0
M  V30 1321 N 121.204 0.198386 -1.56346 0
M  V30 1322 C 122.134 1.24865 -1.9731 0
M  V30 1323 C 123.115 1.47651 -0.844576 0
M  V30 1324 O 124.3 1.59444 -1.10866 0
M  V30 1325 C 121.43 2.59358 -2.30977 0
M  V30 1326 C 120.384 2.5119 -3.46537 0
M  V30 1327 C 119.71 3.89926 -3.65871 0
M  V30 1328 C 121.01 2.03977 -4.80823 0
M  V30 1329 H 122.704 0.908252 -2.85291 0
M  V30 1330 H 120.25 0.435462 -1.37258 0
M  V30 1331 H 122.203 3.33011 -2.58228 0
M  V30 1332 H 120.927 2.95132 -1.39874 0
M  V30 1333 H 119.586 1.79993 -3.19371 0
M  V30 1334 H 119.234 4.23046 -2.72105 0
M  V30 1335 H 118.934 3.85336 -4.4361 0
M  V30 1336 H 120.458 4.65205 -3.95495 0
M  V30 1337 H 121.872 2.67386 -5.07127 0
M  V30 1338 H 120.269 2.10397 -5.62008 0
M  V30 1339 H 121.339 0.992861 -4.74626 0
M  V30 1340 N 122.682 1.50554 0.465978 0
M  V30 1341 C 123.929 1.61798 1.21768 0
M  V30 1342 C 124.257 0.320696 1.91838 0
M  V30 1343 O 123.512 -0.693724 1.82992 0
M  V30 1344 C 123.811 2.75152 2.28093 0
M  V30 1345 C 123.477 4.15454 1.75239 0
M  V30 1346 C 122.139 4.53628 1.60546 0
M  V30 1347 C 124.491 5.03121 1.36083 0
M  V30 1348 C 121.819 5.77204 1.05128 0
M  V30 1349 C 124.171 6.27249 0.821056 0
M  V30 1350 C 122.835 6.64221 0.660795 0
M  V30 1351 H 122.105 0.592063 0.445582 0
M  V30 1352 H 124.752 1.84503 0.512927 0
M  V30 1353 H 123.057 2.46556 3.04496 0
M  V30 1354 H 124.754 2.81055 2.86023 0
M  V30 1355 H 121.344 3.85341 1.87644 0
M  V30 1356 H 125.528 4.74257 1.46267 0
M  V30 1357 H 120.784 6.0452 0.91462 0
M  V30 1358 H 124.958 6.94537 0.509018 0
M  V30 1359 H 122.585 7.59854 0.229226 0
M  V30 1360 N 124.16 -0.719506 1.40217 0
M  V30 1361 C 125.437 -1.47221 1.28784 0
M  V30 1362 C 125.817 -2.10883 -0.0956067 0
M  V30 1363 O 125.165 -1.99833 -1.10811 0
M  V30 1364 C 125.375 -2.5111 2.42373 0
M  V30 1365 C 126.723 -3.17053 2.82423 0
M  V30 1366 O 127.747 -2.61429 2.41937 0
M  V30 1367 O 126.606 -4.17742 3.52355 0
M  V30 1368 H 123.7 -0.654491 0.50554 0
M  V30 1369 H 126.246 -0.752014 1.52128 0
M  V30 1370 H 125.018 -2.02556 3.34793 0
M  V30 1371 H 124.641 -3.3067 2.20778 0
M  V30 1372 N 125.638 -1.25649 -0.95132 0
M  V30 1373 C 126.585 -1.06323 -2.04851 0
M  V30 1374 C 127.555 0.0286491 -1.66075 0
M  V30 1375 O 128.74 -0.12917 -1.90362 0
M  V30 1376 C 125.88 -0.691529 -3.381 0
M  V30 1377 C 124.993 -1.85861 -3.89974 0
M  V30 1378 C 124.128 -1.43096 -5.11563 0
M  V30 1379 C 123.167 -2.56696 -5.55674 0
M  V30 1380 N 122.304 -2.14684 -6.68472 0
M  V30 1381 H 127.144 -2.00222 -2.20715 0
M  V30 1382 H 124.681 -0.997027 -1.08156 0
M  V30 1383 H 126.639 -0.456963 -4.1469 0
M  V30 1384 H 125.269 0.210474 -3.22113 0
M  V30 1385 H 124.321 -2.20639 -3.09875 0
M  V30 1386 H 125.633 -2.71161 -4.18657 0
M  V30 1387 H 124.787 -1.15624 -5.9558 0
M  V30 1388 H 123.526 -0.548722 -4.84603 0
M  V30 1389 H 122.531 -2.84909 -4.7022 0
M  V30 1390 H 123.756 -3.45503 -5.8464 0
M  V30 1391 H 121.702 -1.28881 -6.43215 0
M  V30 1392 H 121.619 -2.9353 -6.96689 0
M  V30 1393 H 122.887 -1.90397 -7.5589 0
M  V30 1394 N 127.117 1.15442 -1.07289 0
M  V30 1395 C 128.363 1.86489 -0.796846 0
M  V30 1396 C 128.696 1.82078 0.675371 0
M  V30 1397 O 127.971 1.24346 1.4956 0
M  V30 1398 C 128.254 3.35626 -1.30489 0
M  V30 1399 C 128.107 3.48673 -2.84161 0
M  V30 1400 C 129.426 4.30357 -0.920907 0
M  V30 1401 H 126.545 0.677144 -0.290939 0
M  V30 1402 H 129.187 1.35633 -1.33056 0
M  V30 1403 H 127.337 3.79068 -0.850883 0
M  V30 1404 H 129.009 3.14099 -3.37846 0
M  V30 1405 H 127.252 2.90253 -3.22391 0
M  V30 1406 H 127.923 4.53453 -3.14777 0
M  V30 1407 H 130.399 3.94871 -1.3121 0
M  V30 1408 H 129.275 5.33193 -1.30372 0
M  V30 1409 H 129.536 4.4176 0.173226 0
M  V30 1410 N 128.595 0.856903 1.32268 0
M  V30 1411 C 130.011 0.547061 1.49931 0
M  V30 1412 C 130.211 -0.921781 1.7918 0
M  V30 1413 O 129.267 -1.70469 1.8627 0
M  V30 1414 C 130.58 1.43599 2.64196 0
M  V30 1415 C 132.128 1.43665 2.78081 0
M  V30 1416 C 132.603 2.31085 3.95428 0
M  V30 1417 N 134.094 2.28893 4.02694 0
M  V30 1418 C 134.829 2.93262 4.92732 0
M  V30 1419 N 134.325 3.66751 5.87763 0
M  V30 1420 N 136.118 2.82638 4.85873 0
M  V30 1421 H 128.269 1.8075 1.11549 0
M  V30 1422 H 130.532 0.772144 0.549997 0
M  V30 1423 H 130.238 2.48058 2.49319 0
M  V30 1424 H 130.112 1.12502 3.60032 0
M  V30 1425 H 132.499 0.399701 2.92381 0
M  V30 1426 H 132.58 1.7878 1.82952 0
M  V30 1427 H 132.224 3.34849 3.81888 0
M  V30 1428 H 132.154 1.93302 4.89839 0
M  V30 1429 H 134.645 1.75466 3.34694 0
M  V30 1430 H 134.958 4.13027 6.53168 0
M  V30 1431 H 133.303 3.70859 5.87783 0
M  V30 1432 H 136.494 2.24774 4.10602 0
M  V30 1433 H 136.667 3.33084 5.55841 0
M  V30 1434 N 130.073 -1.45103 0.615059 0
M  V30 1435 C 131.319 -2.02483 0.113347 0
M  V30 1436 C 131.652 -1.48146 -1.25564 0
M  V30 1437 O 130.927 -0.659104 -1.82992 0
M  V30 1438 C 131.21 -3.60005 0.0825278 0
M  V30 1439 C 131.063 -4.2466 1.48271 0
M  V30 1440 C 132.382 -4.35972 -0.601401 0
M  V30 1441 H 129.501 -0.735764 0.0426632 0
M  V30 1442 H 132.143 -1.72868 0.788461 0
M  V30 1443 H 130.293 -3.85367 -0.492378 0
M  V30 1444 H 131.965 -4.10458 2.10527 0
M  V30 1445 H 130.208 -3.82772 2.04127 0
M  V30 1446 H 130.879 -5.336 1.41332 0
M  V30 1447 H 133.355 -4.15947 -0.112666 0
M  V30 1448 H 132.231 -5.45697 -0.592097 0
M  V30 1449 H 132.492 -4.09391 -1.66887 0
M  V30 1450 N 131.551 -0.354651 -1.53558 0
M  V30 1451 C 132.962 0.126902 -1.86268 0
M  V30 1452 C 133.313 1.49075 -1.27558 0
M  V30 1453 O 132.438 2.08105 -0.5934 0
M  V30 1454 C 133.033 0.237046 -3.3797 0
M  V30 1455 C 131.592 0.662842 -3.70518 0
M  V30 1456 C 130.739 -0.196652 -2.76602 0
M  V30 1457 H 133.69 -0.573849 -1.47962 0
M  V30 1458 H 133.711 1.06259 -3.65362 0
M  V30 1459 H 133.223 -0.755725 -3.80671 0
M  V30 1460 H 131.324 1.66424 -3.33367 0
M  V30 1461 H 131.437 0.445034 -4.77029 0
M  V30 1462 H 129.801 0.332763 -2.52517 0
M  V30 1463 H 130.584 -1.18676 -3.22135 0
M  V30 1464 N 133.029 1.57378 -0.0835403 0
M  V30 1465 C 133.961 2.10389 0.909338 0
M  V30 1466 C 134.974 1.03858 1.25369 0
M  V30 1467 O 136.163 1.31338 1.20882 0
M  V30 1468 C 133.263 2.55908 2.2218 0
M  V30 1469 C 132.436 3.86145 2.05453 0
M  V30 1470 C 131.495 4.17633 3.20108 0
M  V30 1471 O 130.521 4.87043 2.94581 0
M  V30 1472 N 131.723 3.72113 4.45547 0
M  V30 1473 H 134.488 2.962 0.456657 0
M  V30 1474 H 132.049 1.61579 0.101877 0
M  V30 1475 H 134.041 2.74027 2.97811 0
M  V30 1476 H 132.611 1.75171 2.58909 0
M  V30 1477 H 131.831 3.7729 1.1422 0
M  V30 1478 H 133.119 4.7137 1.91541 0
M  V30 1479 H 132.517 3.16062 4.69171 0
M  V30 1480 H 131.074 3.95409 5.18165 0
M  V30 1481 N 134.507 -0.190092 1.56449 0
M  V30 1482 C 135.735 -0.925772 1.85033 0
M  V30 1483 C 136.15 -1.76638 0.666658 0
M  V30 1484 O 135.507 -1.78822 -0.364565 0
M  V30 1485 C 135.558 -1.81786 3.12468 0
M  V30 1486 O 135.279 -1.01118 4.26271 0
M  V30 1487 C 136.78 -2.6648 3.54265 0
M  V30 1488 H 134 -0.269872 0.614337 0
M  V30 1489 H 136.544 -0.195837 2.0356 0
M  V30 1490 H 134.699 -2.50136 2.95822 0
M  V30 1491 H 135.113 -1.61956 4.98869 0
M  V30 1492 H 136.587 -3.24722 4.46385 0
M  V30 1493 H 137.064 -3.40434 2.77491 0
M  V30 1494 H 137.67 -2.03493 3.73458 0
M  V30 1495 N 135.985 -1.50799 -0.457987 0
M  V30 1496 C 136.895 -1.73426 -1.57989 0
M  V30 1497 C 137.911 -0.617745 -1.62665 0
M  V30 1498 O 139.087 -0.897614 -1.80291 0
M  V30 1499 C 136.152 -1.83557 -2.94122 0
M  V30 1500 C 135.213 -3.07345 -2.99729 0
M  V30 1501 C 134.446 -3.16983 -4.29368 0
M  V30 1502 O 134.669 -2.33077 -5.20607 0
M  V30 1503 O 133.603 -4.09812 -4.40837 0
M  V30 1504 H 137.429 -2.68555 -1.41817 0
M  V30 1505 H 135.014 -1.35052 -0.638859 0
M  V30 1506 H 136.896 -1.92326 -3.74952 0
M  V30 1507 H 135.571 -0.916137 -3.10465 0
M  V30 1508 H 134.478 -3.04068 -2.1793 0
M  V30 1509 H 135.811 -3.9891 -2.88326 0
M  V30 1510 N 137.463 0.71206 -1.40597 0
M  V30 1511 C 138.373 1.8562 -1.43466 0
M  V30 1512 C 139.389 1.70902 -0.326902 0
M  V30 1513 O 140.565 1.93105 -0.572043 0
M  V30 1514 C 137.63 3.21451 -1.29884 0
M  V30 1515 C 136.691 3.48398 -2.50833 0
M  V30 1516 C 135.924 4.77749 -2.3789 0
M  V30 1517 O 136.147 5.53089 -1.39459 0
M  V30 1518 O 135.081 5.05111 -3.27333 0
M  V30 1519 H 138.907 1.86155 -2.39958 0
M  V30 1520 H 136.492 0.86295 -1.21957 0
M  V30 1521 H 138.374 4.02579 -1.24531 0
M  V30 1522 H 137.049 3.21636 -0.364997 0
M  V30 1523 H 135.956 2.67265 -2.61763 0
M  V30 1524 H 137.289 3.53014 -3.4299 0
M  V30 1525 N 138.941 1.26152 0.944643 0
M  V30 1526 C 139.871 1.09902 2.06019 0
M  V30 1527 C 140.852 0.00519538 1.70099 0
M  V30 1528 O 142.037 0.176583 1.93396 0
M  V30 1529 C 139.167 0.727562 3.39594 0
M  V30 1530 C 138.121 1.77274 3.89561 0
M  V30 1531 C 137.447 1.25569 5.19747 0
M  V30 1532 C 138.747 3.17357 4.14827 0
M  V30 1533 H 140.441 2.03217 2.19871 0
M  V30 1534 H 137.987 0.978452 1.05652 0
M  V30 1535 H 139.94 0.600777 4.17095 0
M  V30 1536 H 138.664 -0.241287 3.25707 0
M  V30 1537 H 137.323 1.88814 3.14237 0
M  V30 1538 H 136.971 0.276783 5.02238 0
M  V30 1539 H 136.671 1.95433 5.54148 0
M  V30 1540 H 138.195 1.1415 5.99835 0
M  V30 1541 H 139.609 3.08914 4.82954 0
M  V30 1542 H 138.006 3.84781 4.60504 0
M  V30 1543 H 139.076 3.63673 3.20734 0
M  V30 1544 N 140.419 -1.14872 1.07899 0
M  V30 1545 C 141.665 -1.86064 0.806725 0
M  V30 1546 C 141.998 -1.82434 -0.665706 0
M  V30 1547 O 141.273 -1.25138 -1.48899 0
M  V30 1548 C 141.556 -3.34929 1.32267 0
M  V30 1549 C 141.409 -3.47161 2.86006 0
M  V30 1550 C 142.728 -4.29863 0.943717 0
M  V30 1551 H 139.847 -0.675591 0.294526 0
M  V30 1552 H 142.489 -1.34925 1.33773 0
M  V30 1553 H 140.639 -3.78611 0.870974 0
M  V30 1554 H 142.311 -3.12302 3.39507 0
M  V30 1555 H 140.554 -2.88539 3.23925 0
M  V30 1556 H 141.225 -4.51777 3.17177 0
M  V30 1557 H 143.701 -3.9417 1.33302 0
M  V30 1558 H 142.577 -5.32494 1.33198 0
M  V30 1559 H 142.838 -4.41846 -0.149796 0
M  V30 1560 N 141.898 -0.863906 -1.31812 0
M  V30 1561 C 142.846 -0.30422 -2.30602 0
M  V30 1562 C 143.84 0.577419 -1.59255 0
M  V30 1563 O 145.046 0.464194 -1.73912 0
M  V30 1564 H 141.421 -0.0796877 -0.747766 0
M  V30 1565 H 143.392 -1.15148 -2.75288 0
M  V30 1566 C 142.141 0.484617 -3.44306 0
M  V30 1567 H 141.464 -0.18451 -3.99374 0
M  V30 1568 H 142.904 0.841664 -4.15562 0
M  V30 1569 C 141.363 1.6735 -2.92396 0
M  V30 1570 O 141.893 2.77273 -2.90659 0
M  V30 1571 N 140.099 1.50362 -2.48676 0
M  V30 1572 H 139.646 0.609402 -2.50288 0
M  V30 1573 H 139.604 2.30051 -2.14299 0
M  V30 1574 N 143.376 1.44774 -0.622745 0
M  V30 1575 C 144.308 2.28856 0.125485 0
M  V30 1576 C 145.321 1.40811 0.817069 0
M  V30 1577 O 146.51 1.65044 0.679918 0
M  V30 1578 C 143.61 3.16963 1.19949 0
M  V30 1579 C 142.783 4.33374 0.592064 0
M  V30 1580 C 141.842 5.02577 1.55893 0
M  V30 1581 O 140.868 5.58873 1.07933 0
M  V30 1582 N 142.07 5.03256 2.89334 0
M  V30 1583 H 144.835 2.93713 -0.596068 0
M  V30 1584 H 142.396 1.55129 -0.463303 0
M  V30 1585 H 144.388 3.60123 1.84644 0
M  V30 1586 H 142.958 2.53913 1.82337 0
M  V30 1587 H 142.178 3.93509 -0.233322 0
M  V30 1588 H 143.466 5.08527 0.166738 0
M  V30 1589 H 142.864 4.58836 3.30887 0
M  V30 1590 H 141.421 5.50232 3.49412 0
M  V30 1591 N 144.854 0.36279 1.53368 0
M  V30 1592 C 146.1 -0.228113 2.01513 0
M  V30 1593 C 146.433 -1.48648 1.2497 0
M  V30 1594 O 145.708 -1.91459 0.342616 0
M  V30 1595 C 145.991 -0.522884 3.56284 0
M  V30 1596 C 145.844 0.74892 4.43521 0
M  V30 1597 C 147.163 -1.32461 4.19693 0
M  V30 1598 H 144.282 -0.0814343 0.732487 0
M  V30 1599 H 146.924 0.48713 1.83649 0
M  V30 1600 H 145.074 -1.1322 3.71636 0
M  V30 1601 H 146.746 1.38648 4.39971 0
M  V30 1602 H 144.989 1.36986 4.11603 0
M  V30 1603 H 145.66 0.497667 5.49752 0
M  V30 1604 H 148.136 -0.809203 4.08156 0
M  V30 1605 H 147.012 -1.49961 5.28018 0
M  V30 1606 H 147.273 -2.33232 3.75573 0
M  V30 1607 N 146.332 -1.57332 0.0918853 0
M  V30 1608 C 147.279 -2.13847 -0.868211 0
M  V30 1609 C 148.249 -1.05618 -1.28196 0
M  V30 1610 O 149.434 -1.33387 -1.36427 0
M  V30 1611 C 146.574 -2.72062 -2.12312 0
M  V30 1612 C 145.687 -3.94514 -1.7602 0
M  V30 1613 C 144.822 -4.40903 -2.96273 0
M  V30 1614 C 143.861 -5.55953 -2.56092 0
M  V30 1615 N 142.998 -5.97209 -3.69169 0
M  V30 1616 H 147.838 -2.95575 -0.379406 0
M  V30 1617 H 145.375 -1.46048 -0.175606 0
M  V30 1618 H 147.333 -3.03931 -2.858 0
M  V30 1619 H 145.963 -1.93068 -2.58698 0
M  V30 1620 H 145.015 -3.68979 -0.925135 0
M  V30 1621 H 146.327 -4.7802 -1.42472 0
M  V30 1622 H 145.481 -4.74539 -3.78018 0
M  V30 1623 H 144.22 -3.56291 -3.33029 0
M  V30 1624 H 143.225 -5.21948 -1.72773 0
M  V30 1625 H 144.45 -6.42311 -2.20484 0
M  V30 1626 H 142.396 -5.15543 -4.05649 0
M  V30 1627 H 142.313 -6.75504 -3.39456 0
M  V30 1628 H 143.581 -6.35475 -4.51434 0
M  V30 1629 N 147.81 0.181792 -1.56548 0
M  V30 1630 C 149.087 0.926765 -1.72251 0
M  V30 1631 C 149.467 2.00831 -0.650386 0
M  V30 1632 O 148.815 2.26008 0.336521 0
M  V30 1633 C 149.025 1.50106 -3.1507 0
M  V30 1634 C 150.373 1.97805 -3.75711 0
M  V30 1635 O 151.397 1.59922 -3.18282 0
M  V30 1636 O 150.256 2.67555 -4.76525 0
M  V30 1637 H 147.35 0.435506 -0.703039 0
M  V30 1638 H 149.896 0.170443 -1.68842 0
M  V30 1639 H 148.668 0.72212 -3.84579 0
M  V30 1640 H 148.291 2.32186 -3.22763 0
M  V30 1641 N 149.288 1.51039 0.449983 0
M  V30 1642 C 150.537 1.62317 1.19733 0
M  V30 1643 C 150.85 0.339101 1.92638 0
M  V30 1644 O 152.056 0.331069 2.69474 0
M  V30 1645 C 150.512 2.86608 2.17678 0
M  V30 1646 C 150.12 4.21972 1.50479 0
M  V30 1647 C 151.864 3.07239 2.92924 0
M  V30 1648 C 149.771 5.37426 2.46834 0
M  V30 1649 H 148.701 0.604532 0.450619 0
M  V30 1650 H 151.352 1.77494 0.465625 0
M  V30 1651 H 149.734 2.65037 2.94231 0
M  V30 1652 H 150.908 4.53878 0.795716 0
M  V30 1653 H 149.223 4.07117 0.874344 0
M  V30 1654 H 151.82 3.90668 3.65079 0
M  V30 1655 H 152.163 2.19807 3.5354 0
M  V30 1656 H 152.696 3.29091 2.23481 0
M  V30 1657 H 149.435 6.27079 1.90926 0
M  V30 1658 H 148.955 5.09912 3.15832 0
M  V30 1659 H 150.634 5.68862 3.08228 0
M  V30 1660 N 150.766 -0.704594 1.40972 0
M  V30 1661 C 151.991 -1.49858 1.43378 0
M  V30 1662 C 152.416 -1.88061 0.038184 0
M  V30 1663 O 151.774 -1.5402 -0.956425 0
M  V30 1664 C 151.822 -2.74333 2.34038 0
M  V30 1665 O 150.926 -3.7147 1.7912 0
M  V30 1666 H 150.267 -0.45139 0.486974 0
M  V30 1667 H 152.797 -0.866832 1.8533 0
M  V30 1668 H 152.807 -3.22741 2.49604 0
M  V30 1669 H 151.482 -2.45863 3.35446 0
M  V30 1670 H 150.059 -3.30363 1.72958 0
M  V30 1671 N 152.244 -1.26651 -0.937939 0
M  V30 1672 C 153.469 -1.15279 -1.72411 0
M  V30 1673 C 153.894 0.287866 -1.85884 0
M  V30 1674 O 153.252 1.20855 -1.35143 0
M  V30 1675 C 153.3 -1.83028 -3.10698 0
M  V30 1676 O 152.404 -1.12128 -3.96864 0
M  V30 1677 H 151.745 -0.401504 -0.528858 0
M  V30 1678 H 154.275 -1.67531 -1.1745 0
M  V30 1679 H 154.285 -1.89981 -3.6107 0
M  V30 1680 H 152.96 -2.87833 -3.00208 0
M  V30 1681 H 151.537 -1.13173 -3.55312 0
M  V30 1682 N 153.722 1.14298 -1.08507 0
M  V30 1683 C 154.971 1.84708 -0.810305 0
M  V30 1684 C 155.284 1.83903 0.666271 0
M  V30 1685 O 156.49 2.50112 1.05624 0
M  V30 1686 C 154.946 3.31572 -1.39957 0
M  V30 1687 C 154.554 3.40791 -2.90801 0
M  V30 1688 C 156.298 4.07087 -1.20334 0
M  V30 1689 C 154.205 4.81872 -3.4286 0
M  V30 1690 H 153.135 0.691985 -0.299454 0
M  V30 1691 H 155.786 1.28841 -1.30661 0
M  V30 1692 H 154.168 3.87183 -0.830976 0
M  V30 1693 H 155.342 2.95225 -3.53806 0
M  V30 1694 H 153.657 2.78732 -3.0935 0
M  V30 1695 H 156.254 5.11225 -1.56693 0
M  V30 1696 H 156.597 4.16054 -0.143237 0
M  V30 1697 H 157.13 3.57779 -1.73893 0
M  V30 1698 H 153.869 4.78094 -4.48449 0
M  V30 1699 H 153.389 5.27972 -2.84615 0
M  V30 1700 H 155.068 5.50765 -3.39509 0
M  V30 1701 N 155.201 0.870884 1.31352 0
M  V30 1702 C 156.426 0.495957 2.01383 0
M  V30 1703 C 156.851 -0.904324 1.64935 0
M  V30 1704 O 156.209 -1.59687 0.858466 0
M  V30 1705 C 156.257 0.661433 3.54482 0
M  V30 1706 O 155.361 -0.298851 4.11316 0
M  V30 1707 H 154.702 0.197158 0.634054 0
M  V30 1708 H 157.232 1.17455 1.67527 0
M  V30 1709 H 157.242 0.555072 4.04207 0
M  V30 1710 H 155.917 1.68246 3.8035 0
M  V30 1711 H 154.494 -0.147368 3.72609 0
M  V30 1712 N 156.679 -1.44442 0.630414 0
M  V30 1713 C 157.589 -2.34476 -0.0761693 0
M  V30 1714 C 158.605 -1.52576 -0.836449 0
M  V30 1715 O 159.781 -1.85307 -0.788874 0
M  V30 1716 C 156.846 -3.30545 -1.04599 0
M  V30 1717 C 155.907 -4.28352 -0.28516 0
M  V30 1718 C 155.14 -5.19831 -1.20878 0
M  V30 1719 O 155.363 -5.15223 -2.44747 0
M  V30 1720 O 154.297 -5.97892 -0.693491 0
M  V30 1721 H 158.123 -2.96345 0.664324 0
M  V30 1722 H 155.708 -1.44203 0.39061 0
M  V30 1723 H 157.59 -3.89681 -1.60396 0
M  V30 1724 H 156.265 -2.7121 -1.76711 0
M  V30 1725 H 155.172 -3.72764 0.315837 0
M  V30 1726 H 156.505 -4.90605 0.395924 0
M  V30 1727 N 158.157 -0.370918 -1.53173 0
M  V30 1728 C 159.406 0.218249 -2.00516 0
M  V30 1729 C 159.719 1.49429 -1.26215 0
M  V30 1730 O 160.925 2.16239 -1.64174 0
M  V30 1731 C 159.381 0.43948 -3.57207 0
M  V30 1732 C 158.989 -0.822244 -4.4039 0
M  V30 1733 C 160.733 0.986012 -4.1289 0
M  V30 1734 C 158.64 -0.570304 -5.88644 0
M  V30 1735 H 157.57 0.0853333 -0.749156 0
M  V30 1736 H 160.221 -0.490483 -1.76823 0
M  V30 1737 H 158.603 1.20961 -3.77074 0
M  V30 1738 H 159.777 -1.59557 -4.32294 0
M  V30 1739 H 158.092 -1.29238 -3.95836 0
M  V30 1740 H 160.689 1.18991 -5.21292 0
M  V30 1741 H 161.032 1.94972 -3.6782 0
M  V30 1742 H 161.565 0.27592 -3.96842 0
M  V30 1743 H 158.304 -1.50449 -6.38001 0
M  V30 1744 H 157.824 0.164427 -5.99575 0
M  V30 1745 H 159.503 -0.19784 -6.46697 0
M  V30 1746 N 159.635 1.57281 -0.100228 0
M  V30 1747 C 160.863 1.98879 0.570509 0
M  V30 1748 C 161.278 0.979476 1.61405 0
M  V30 1749 O 160.635 -0.0302288 1.82475 0
M  V30 1750 C 160.686 3.4052 1.2136 0
M  V30 1751 O 160.407 4.37588 0.211786 0
M  V30 1752 C 161.908 3.97149 1.96945 0
M  V30 1753 H 159.128 0.653428 0.152555 0
M  V30 1754 H 161.672 2.03697 -0.18103 0
M  V30 1755 H 159.827 3.367 1.91603 0
M  V30 1756 H 160.241 5.20118 0.676607 0
M  V30 1757 H 161.715 4.98393 2.37294 0
M  V30 1758 H 162.192 3.3525 2.83733 0
M  V30 1759 H 162.798 4.04458 1.31506 0
M  V30 1760 N 161.113 -0.173488 1.56642 0
M  V30 1761 C 162.343 -0.904781 1.85734 0
M  V30 1762 C 162.751 -1.76431 0.68328 0
M  V30 1763 O 162.094 -1.802 -0.356865 0
M  V30 1764 C 162.156 -1.83382 3.09211 0
M  V30 1765 C 161.82 -1.15411 4.42187 0
M  V30 1766 C 162.817 -0.520609 5.17287 0
M  V30 1767 C 160.502 -1.15151 4.88923 0
M  V30 1768 C 162.496 0.106412 6.37311 0
M  V30 1769 C 160.183 -0.520664 6.08878 0
M  V30 1770 C 161.181 0.107196 6.82916 0
M  V30 1771 O 160.869 0.728102 8.00596 0
M  V30 1772 H 160.601 -0.268408 0.62043 0
M  V30 1773 H 163.155 -0.179096 2.04618 0
M  V30 1774 H 161.385 -2.59976 2.86268 0
M  V30 1775 H 163.074 -2.43476 3.24768 0
M  V30 1776 H 163.84 -0.514606 4.82262 0
M  V30 1777 H 159.719 -1.62961 4.31236 0
M  V30 1778 H 163.263 0.597081 6.9504 0
M  V30 1779 H 159.16 -0.524242 6.43368 0
M  V30 1780 H 159.928 0.627138 8.16094 0
M  V30 1781 N 162.591 -1.51276 -0.441967 0
M  V30 1782 C 163.816 -1.67799 -1.21895 0
M  V30 1783 C 164.241 -0.372864 -1.84367 0
M  V30 1784 O 163.599 0.666501 -1.68604 0
M  V30 1785 C 163.647 -2.79199 -2.28211 0
M  V30 1786 O 162.751 -2.42479 -3.33583 0
M  V30 1787 H 162.092 -0.559649 -0.357336 0
M  V30 1788 H 164.622 -1.97815 -0.522522 0
M  V30 1789 H 164.632 -3.03146 -2.73069 0
M  V30 1790 H 163.307 -3.73906 -1.82118 0
M  V30 1791 H 161.884 -2.29087 -2.94234 0
M  V30 1792 N 164.069 0.697108 -1.41344 0
M  V30 1793 C 165.346 1.45154 -1.31109 0
M  V30 1794 C 165.726 2.11009 0.0620449 0
M  V30 1795 O 165.074 2.01571 1.07618 0
M  V30 1796 C 165.284 2.47223 -2.46337 0
M  V30 1797 C 166.632 3.1252 -2.87431 0
M  V30 1798 O 167.656 2.57547 -2.46065 0
M  V30 1799 O 166.515 4.12083 -3.58957 0
M  V30 1800 H 163.609 0.646365 -0.515889 0
M  V30 1801 H 166.155 0.727716 -1.53305 0
M  V30 1802 H 164.927 1.97204 -3.37974 0
M  V30 1803 H 164.55 3.27116 -2.2601 0
M  V30 1804 N 165.547 1.27147 0.931209 0
M  V30 1805 C 166.795 1.13055 1.6752 0
M  V30 1806 C 167.116 -0.324791 1.92276 0
M  V30 1807 O 166.386 -1.22775 1.52654 0
M  V30 1808 H 164.966 0.415391 0.620854 0
M  V30 1809 H 167.628 1.59623 1.11833 0
M  V30 1810 H 166.724 1.65694 2.64485 0
M  V30 1811 N 167.025 -1.13721 1.09112 0
M  V30 1812 C 168.253 -1.88773 0.846899 0
M  V30 1813 C 168.668 -1.7896 -0.601572 0
M  V30 1814 O 168.025 -1.15394 -1.41388 0
M  V30 1815 C 168.076 -3.3849 1.26913 0
M  V30 1816 O 167.797 -3.48043 2.66079 0
M  V30 1817 C 169.298 -4.30518 1.05682 0
M  V30 1818 H 166.518 -0.59772 0.304914 0
M  V30 1819 H 169.062 -1.43977 1.45227 0
M  V30 1820 H 167.217 -3.80881 0.707723 0
M  V30 1821 H 167.631 -4.4109 2.83795 0
M  V30 1822 H 169.105 -5.3391 1.40156 0
M  V30 1823 H 169.582 -4.392 -0.00563416 0
M  V30 1824 H 170.188 -3.93893 1.60402 0
M  V30 1825 N 168.503 -0.877838 -1.30888 0
M  V30 1826 C 169.749 -0.493426 -1.96706 0
M  V30 1827 C 170.082 0.953504 -1.6918 0
M  V30 1828 O 169.357 1.67266 -0.992594 0
M  V30 1829 C 169.64 -0.760429 -3.51979 0
M  V30 1830 C 169.493 -2.25747 -3.89048 0
M  V30 1831 C 170.812 -0.232148 -4.39487 0
M  V30 1832 H 167.931 -0.180746 -0.714493 0
M  V30 1833 H 170.573 -1.10052 -1.54882 0
M  V30 1834 H 168.723 -0.243715 -3.87735 0
M  V30 1835 H 170.395 -2.84204 -3.63354 0
M  V30 1836 H 168.638 -2.72694 -3.37373 0
M  V30 1837 H 169.309 -2.39491 -4.97341 0
M  V30 1838 H 171.785 -0.674314 -4.106 0
M  V30 1839 H 170.661 -0.448355 -5.47066 0
M  V30 1840 H 170.922 0.866297 -4.33529 0
M  V30 1841 N 169.982 1.44106 -0.638065 0
M  V30 1842 C 171.231 2.01194 -0.142744 0
M  V30 1843 C 171.544 1.50835 1.24532 0
M  V30 1844 O 172.75 2.00096 1.83504 0
M  V30 1845 C 171.206 3.59319 -0.20442 0
M  V30 1846 C 170.814 4.18674 -1.59423 0
M  V30 1847 C 172.558 4.23854 0.234079 0
M  V30 1848 C 170.465 5.69045 -1.61065 0
M  V30 1849 H 169.395 0.752367 -0.0495998 0
M  V30 1850 H 172.046 1.65246 -0.797881 0
M  V30 1851 H 170.428 3.92598 0.517946 0
M  V30 1852 H 171.602 3.96921 -2.34074 0
M  V30 1853 H 169.917 3.66453 -1.97741 0
M  V30 1854 H 172.514 5.34155 0.241443 0
M  V30 1855 H 172.857 3.96688 1.2627 0
M  V30 1856 H 173.39 3.95403 -0.436025 0
M  V30 1857 H 170.129 6.00956 -2.61787 0
M  V30 1858 H 169.649 5.929 -0.90718 0
M  V30 1859 H 171.328 6.32809 -1.34766 0
M  V30 1860 N 171.46 0.379036 1.52974 0
M  V30 1861 C 172.423 -0.448865 2.24762 0
M  V30 1862 C 173.423 -0.998689 1.26027 0
M  V30 1863 O 174.613 -0.882313 1.50203 0
M  V30 1864 C 171.745 -1.62872 2.99476 0
M  V30 1865 H 172.938 0.179491 2.99362 0
M  V30 1866 H 170.491 0.13096 1.5575 0
M  V30 1867 H 171.226 -2.29479 2.29151 0
M  V30 1868 H 171.011 -1.24128 3.71934 0
M  V30 1869 H 172.501 -2.2151 3.5401 0
M  V30 1870 N 172.938 -1.57226 0.108567 0
M  V30 1871 C 174.163 -1.99604 -0.563303 0
M  V30 1872 C 174.588 -0.987563 -1.6009 0
M  V30 1873 O 173.946 0.0421687 -1.81251 0
M  V30 1874 C 173.994 -3.40902 -1.17552 0
M  V30 1875 O 173.098 -3.42896 -2.2912 0
M  V30 1876 H 172.439 -0.648704 -0.1417 0
M  V30 1877 H 174.969 -2.03679 0.193961 0
M  V30 1878 H 174.979 -3.78886 -1.51357 0
M  V30 1879 H 173.654 -4.1382 -0.415445 0
M  V30 1880 H 172.231 -3.1672 -1.96832 0
M  V30 1881 N 174.416 0.165178 -1.56732 0
M  V30 1882 C 175.665 0.879143 -1.81532 0
M  V30 1883 C 175.978 1.83144 -0.686842 0
M  V30 1884 O 177.184 2.58823 -0.819944 0
M  V30 1885 C 175.64 1.61388 -3.21686 0
M  V30 1886 C 175.248 0.704904 -4.4242 0
M  V30 1887 C 176.992 2.3157 -3.55774 0
M  V30 1888 C 174.899 1.44022 -5.73595 0
M  V30 1889 H 173.829 0.332033 -0.676957 0
M  V30 1890 H 176.48 0.132008 -1.83025 0
M  V30 1891 H 174.862 2.40599 -3.14529 0
M  V30 1892 H 176.036 -0.0506815 -4.60772 0
M  V30 1893 H 174.351 0.112419 -4.16248 0
M  V30 1894 H 176.948 2.8719 -4.51028 0
M  V30 1895 H 177.291 3.07201 -2.8095 0
M  V30 1896 H 177.824 1.59297 -3.64513 0
M  V30 1897 H 174.563 0.72612 -6.51466 0
M  V30 1898 H 174.083 2.16898 -5.5921 0
M  V30 1899 H 175.762 1.98606 -6.15764 0
M  V30 1900 N 175.894 1.51508 0.433938 0
M  V30 1901 C 176.804 1.75917 1.5521 0
M  V30 1902 C 177.82 0.643545 1.61662 0
M  V30 1903 O 178.996 0.926183 1.7884 0
M  V30 1904 C 176.061 1.88213 2.91164 0
M  V30 1905 C 175.122 3.12074 2.94802 0
M  V30 1906 C 174.355 3.23774 4.24271 0
M  V30 1907 O 174.578 2.4133 5.16833 0
M  V30 1908 O 173.512 4.16774 4.34262 0
M  V30 1909 H 177.338 2.70777 1.37527 0
M  V30 1910 H 174.923 1.36051 0.617293 0
M  V30 1911 H 176.805 1.98267 3.71845 0
M  V30 1912 H 175.48 0.965413 3.08968 0
M  V30 1913 H 174.387 3.07497 2.13065 0
M  V30 1914 H 175.72 4.03446 2.81943 0
M  V30 1915 N 177.372 -0.689602 1.41712 0
M  V30 1916 C 178.597 -1.48329 1.44959 0
M  V30 1917 C 179.022 -1.8801 0.0581283 0
M  V30 1918 O 178.38 -1.55026 -0.940035 0
M  V30 1919 C 178.428 -2.71835 2.36935 0
M  V30 1920 O 177.532 -3.69549 1.8305 0
M  V30 1921 H 176.873 -0.446199 0.491734 0
M  V30 1922 H 179.403 -0.847127 1.86239 0
M  V30 1923 H 179.413 -3.20076 2.53013 0
M  V30 1924 H 178.088 -2.42291 3.38035 0
M  V30 1925 H 176.665 -3.2851 1.76452 0
M  V30 1926 N 178.85 -1.27639 -0.924453 0
M  V30 1927 C 180.127 -1.04887 -1.651 0
M  V30 1928 C 180.507 0.415327 -2.06974 0
M  V30 1929 O 179.855 1.39923 -1.80648 0
M  V30 1930 C 180.065 -2.01348 -2.85061 0
M  V30 1931 C 181.413 -2.30899 -3.56329 0
M  V30 1932 O 182.437 -1.99348 -2.95193 0
M  V30 1933 O 181.296 -2.84699 -4.66485 0
M  V30 1934 H 178.39 -0.400083 -0.723784 0
M  V30 1935 H 180.936 -1.38916 -0.974703 0
M  V30 1936 H 179.708 -3.0008 -2.51133 0
M  V30 1937 H 179.331 -1.679 -3.6041 0
M  V30 1938 N 180.328 1.1314 -1.09713 0
M  V30 1939 C 181.258 2.20748 -0.761102 0
M  V30 1940 C 182.239 1.68061 0.262566 0
M  V30 1941 O 183.424 1.93765 0.129977 0
M  V30 1942 C 180.554 3.46812 -0.184054 0
M  V30 1943 C 179.508 4.12606 -1.13757 0
M  V30 1944 C 178.834 5.33031 -0.422083 0
M  V30 1945 C 180.134 4.59603 -2.48118 0
M  V30 1946 H 181.828 2.49113 -1.66082 0
M  V30 1947 H 179.374 1.19734 -0.799987 0
M  V30 1948 H 181.327 4.21353 0.0631215 0
M  V30 1949 H 180.051 3.17851 0.750868 0
M  V30 1950 H 178.71 3.40036 -1.37007 0
M  V30 1951 H 178.358 5.00335 0.517072 0
M  V30 1952 H 178.058 5.77999 -1.05788 0
M  V30 1953 H 179.582 6.10325 -0.183277 0
M  V30 1954 H 180.996 5.25552 -2.29059 0
M  V30 1955 H 179.393 5.15321 -3.07514 0
M  V30 1956 H 180.463 3.73971 -3.08665 0
M  V30 1957 N 181.806 0.884767 1.30421 0
M  V30 1958 C 182.736 0.367574 2.30589 0
M  V30 1959 C 183.717 -0.549464 1.60981 0
M  V30 1960 O 184.902 -0.46336 1.88591 0
M  V30 1961 C 182.032 -0.418944 3.44764 0
M  V30 1962 C 180.986 0.406316 4.26067 0
M  V30 1963 C 180.312 -0.506793 5.32293 0
M  V30 1964 C 181.612 1.64832 4.95608 0
M  V30 1965 H 183.306 1.20462 2.74097 0
M  V30 1966 H 180.852 0.580695 1.31772 0
M  V30 1967 H 182.805 -0.791395 4.13902 0
M  V30 1968 H 181.529 -1.28964 3.0006 0
M  V30 1969 H 180.188 0.760903 3.58617 0
M  V30 1970 H 179.836 -1.37519 4.83836 0
M  V30 1971 H 179.536 0.0415828 5.87585 0
M  V30 1972 H 181.06 -0.875764 6.04287 0
M  V30 1973 H 182.474 1.34646 5.57264 0
M  V30 1974 H 180.871 2.13688 5.60765 0
M  V30 1975 H 181.941 2.39284 4.21748 0
M  V30 1976 N 183.284 -1.43765 0.645699 0
M  V30 1977 C 184.7 -1.56509 0.312591 0
M  V30 1978 C 184.9 -1.6307 -1.18365 0
M  V30 1979 O 183.956 -1.58167 -1.96824 0
M  V30 1980 C 185.269 -2.82968 1.01733 0
M  V30 1981 C 186.817 -2.96701 0.996865 0
M  V30 1982 C 187.292 -4.25982 1.68236 0
M  V30 1983 N 188.783 -4.32829 1.64964 0
M  V30 1984 C 189.518 -5.31613 2.14885 0
M  V30 1985 N 189.014 -6.36718 2.73061 0
M  V30 1986 N 190.807 -5.23217 2.05428 0
M  V30 1987 H 182.958 -1.3775 1.61675 0
M  V30 1988 H 185.221 -0.661067 0.679481 0
M  V30 1989 H 184.927 -2.84156 2.0724 0
M  V30 1990 H 184.801 -3.72957 0.564177 0
M  V30 1991 H 187.188 -2.95058 -0.0497719 0
M  V30 1992 H 187.269 -2.08022 1.48865 0
M  V30 1993 H 186.913 -4.28386 2.72852 0
M  V30 1994 H 186.843 -5.13545 1.16529 0
M  V30 1995 H 189.334 -3.57493 1.22503 0
M  V30 1996 H 189.647 -7.08401 3.08848 0
M  V30 1997 H 187.992 -6.37362 2.77118 0
M  V30 1998 H 191.183 -4.40019 1.59689 0
M  V30 1999 H 191.356 -6.00045 2.44643 0
M  V30 2000 N 184.763 -0.387143 -1.52771 0
M  V30 2001 C 185.991 0.195869 -2.05971 0
M  V30 2002 C 186.406 1.40691 -1.25903 0
M  V30 2003 O 185.763 1.79931 -0.305134 0
M  V30 2004 C 185.814 0.56812 -3.57008 0
M  V30 2005 O 185.535 -0.594803 -4.34043 0
M  V30 2006 C 187.036 1.20723 -4.26545 0
M  V30 2007 H 184.256 0.0300578 -0.670326 0
M  V30 2008 H 186.8 -0.551749 -1.96916 0
M  V30 2009 H 184.955 1.26564 -3.66143 0
M  V30 2010 H 185.369 -0.289322 -5.23701 0
M  V30 2011 H 186.843 1.41807 -5.33474 0
M  V30 2012 H 187.32 2.17395 -3.81623 0
M  V30 2013 H 187.926 0.550535 -4.21722 0
M  V30 2014 N 186.241 1.57166 -0.116904 0
M  V30 2015 C 187.466 1.999 0.55271 0
M  V30 2016 C 187.891 0.996039 1.59564 0
M  V30 2017 O 187.249 -0.032556 1.81271 0
M  V30 2018 C 187.297 3.4152 1.15742 0
M  V30 2019 O 186.401 3.44106 2.27299 0
M  V30 2020 H 185.742 0.649447 0.138258 0
M  V30 2021 H 188.272 2.03573 -0.204759 0
M  V30 2022 H 188.282 3.79684 1.49346 0
M  V30 2023 H 186.957 4.14034 0.393493 0
M  V30 2024 H 185.534 3.17759 1.9515 0
M  V30 2025 N 187.719 -0.156864 1.56817 0
M  V30 2026 C 188.968 -0.869504 1.81996 0
M  V30 2027 C 189.281 -1.82777 0.696545 0
M  V30 2028 O 190.487 -2.58384 0.833658 0
M  V30 2029 C 188.943 -1.59679 3.22538 0
M  V30 2030 C 188.551 -0.681431 4.42787 0
M  V30 2031 C 190.295 -2.2968 3.56997 0
M  V30 2032 C 188.202 -1.40978 5.74351 0
M  V30 2033 H 187.132 -0.328438 0.678708 0
M  V30 2034 H 189.783 -0.1223 1.83092 0
M  V30 2035 H 188.165 -2.38927 3.158 0
M  V30 2036 H 189.339 0.0751166 4.60739 0
M  V30 2037 H 187.654 -0.0903431 4.16302 0
M  V30 2038 H 190.251 -2.84794 4.52544 0
M  V30 2039 H 190.594 -3.05707 2.82576 0
M  V30 2040 H 191.127 -1.57361 3.65352 0
M  V30 2041 H 187.866 -0.691561 6.51842 0
M  V30 2042 H 187.386 -2.13929 5.60352 0
M  V30 2043 H 189.065 -1.95337 6.16808 0
M  V30 2044 N 189.197 -1.51736 -0.425897 0
M  V30 2045 C 190.422 -1.69082 -1.20108 0
M  V30 2046 C 190.847 -0.392398 -1.83962 0
M  V30 2047 O 190.205 0.64858 -1.69302 0
M  V30 2048 C 190.253 -2.81604 -2.25237 0
M  V30 2049 O 189.357 -2.46004 -3.30992 0
M  V30 2050 H 188.698 -0.563408 -0.35138 0
M  V30 2051 H 191.228 -1.98358 -0.501512 0
M  V30 2052 H 191.238 -3.06025 -2.69838 0
M  V30 2053 H 189.913 -3.75817 -1.78142 0
M  V30 2054 H 188.49 -2.32195 -2.91787 0
M  V30 2055 N 190.675 0.682077 -1.42076 0
M  V30 2056 C 191.9 1.47558 -1.45744 0
M  V30 2057 C 192.325 1.87977 -0.0680981 0
M  V30 2058 O 191.683 1.55522 0.9318 0
M  V30 2059 C 191.731 2.70575 -2.38373 0
M  V30 2060 O 190.835 3.68573 -1.85007 0
M  V30 2061 H 190.176 0.443585 -0.494093 0
M  V30 2062 H 192.706 0.837238 -1.86686 0
M  V30 2063 H 192.716 3.18729 -2.54707 0
M  V30 2064 H 191.391 2.40495 -3.39315 0
M  V30 2065 H 189.968 3.2757 -1.78192 0
M  V30 2066 N 192.153 1.28127 0.917671 0
M  V30 2067 C 193.063 1.13556 2.05286 0
M  V30 2068 C 194.079 0.0630914 1.73886 0
M  V30 2069 O 195.255 0.271598 1.9956 0
M  V30 2070 C 192.32 0.794676 3.3747 0
M  V30 2071 C 191.381 1.94909 3.82504 0
M  V30 2072 C 190.614 1.62437 5.0838 0
M  V30 2073 O 190.837 0.536905 5.67867 0
M  V30 2074 O 189.771 2.46677 5.4903 0
M  V30 2075 H 193.597 2.08844 2.20495 0
M  V30 2076 H 191.182 1.07409 1.03845 0
M  V30 2077 H 193.064 0.618344 4.16839 0
M  V30 2078 H 191.739 -0.128581 3.23445 0
M  V30 2079 H 190.646 2.18055 3.03978 0
M  V30 2080 H 191.979 2.85291 4.01086 0
M  V30 2081 N 193.631 -1.12557 1.10312 0
M  V30 2082 C 194.563 -2.17971 0.708625 0
M  V30 2083 C 195.576 -1.60806 -0.254027 0
M  V30 2084 O 196.765 -1.78458 -0.0386891 0
M  V30 2085 C 193.865 -3.38891 0.0248198 0
M  V30 2086 C 193.038 -4.25548 1.01132 0
M  V30 2087 C 192.097 -5.24972 0.35924 0
M  V30 2088 O 191.123 -5.60174 1.00965 0
M  V30 2089 N 192.325 -5.73747 -0.882847 0
M  V30 2090 H 195.09 -2.52427 1.61557 0
M  V30 2091 H 192.651 -1.27967 0.991771 0
M  V30 2092 H 194.643 -4.02485 -0.422852 0
M  V30 2093 H 193.213 -3.02596 -0.784514 0
M  V30 2094 H 192.433 -3.58589 1.6373 0
M  V30 2095 H 193.721 -4.80294 1.67914 0
M  V30 2096 H 193.119 -5.4731 -1.43065 0
M  V30 2097 H 191.676 -6.39234 -1.27369 0
M  V30 2098 N 195.109 -0.891671 -1.2995 0
M  V30 2099 C 196.358 -0.509521 -1.95158 0
M  V30 2100 C 196.671 0.947388 -1.71125 0
M  V30 2101 O 197.877 1.43669 -2.30372 0
M  V30 2102 C 196.333 -0.860315 -3.49466 0
M  V30 2103 C 195.941 -2.33545 -3.8231 0
M  V30 2104 C 197.685 -0.547687 -4.20952 0
M  V30 2105 C 195.592 -2.62752 -5.29826 0
M  V30 2106 H 194.522 -0.18682 -0.730489 0
M  V30 2107 H 197.173 -1.08756 -1.47798 0
M  V30 2108 H 195.555 -0.211285 -3.95436 0
M  V30 2109 H 196.729 -3.02936 -3.47227 0
M  V30 2110 H 195.044 -2.61629 -3.23944 0
M  V30 2111 H 197.641 -0.742854 -5.29515 0
M  V30 2112 H 197.984 0.51332 -4.13123 0
M  V30 2113 H 198.517 -1.1542 -3.80688 0
M  V30 2114 H 195.256 -3.6762 -5.42712 0
M  V30 2115 H 194.776 -1.97977 -5.66185 0
M  V30 2116 H 196.455 -2.48601 -5.97333 0
M  V30 2117 N 196.587 1.43421 -0.653314 0
M  V30 2118 C 197.812 2.06678 -0.172846 0
M  V30 2119 C 198.237 1.48648 1.15262 0
M  V30 2120 O 197.595 0.596457 1.71208 0
M  V30 2121 C 197.643 3.60474 -0.0953184 0
M  V30 2122 O 196.747 4.01487 0.942442 0
M  V30 2123 H 196.088 0.657181 -0.0949155 0
M  V30 2124 H 198.618 1.83925 -0.896265 0
M  V30 2125 H 198.628 4.07905 0.0879728 0
M  V30 2126 H 197.303 4.02088 -1.06291 0
M  V30 2127 H 195.88 3.65646 0.731932 0
M  V30 2128 N 198.065 0.39524 1.52563 0
M  V30 2129 C 198.975 -0.444232 2.30356 0
M  V30 2130 C 199.991 -1.06615 1.37511 0
M  V30 2131 O 201.167 -1.07067 1.70583 0
M  V30 2132 C 198.232 -1.55315 3.09964 0
M  V30 2133 C 197.293 -0.955734 4.18526 0
M  V30 2134 C 196.526 -2.01181 4.9433 0
M  V30 2135 O 196.749 -3.22781 4.70285 0
M  V30 2136 O 195.683 -1.62579 5.79527 0
M  V30 2137 H 199.509 0.189667 3.03107 0
M  V30 2138 H 197.094 0.1588 1.48554 0
M  V30 2139 H 198.976 -2.19724 3.59582 0
M  V30 2140 H 197.651 -2.17191 2.4002 0
M  V30 2141 H 196.558 -0.274743 3.7309 0
M  V30 2142 H 197.891 -0.381109 4.90722 0
M  V30 2143 N 199.544 -1.57102 0.125237 0
M  V30 2144 C 200.492 -2.16905 -0.839927 0
M  V30 2145 C 201.486 -1.11998 -1.27094 0
M  V30 2146 O 202.692 -1.3029 -1.24195 0
M  V30 2147 H 199.067 -0.694252 -0.288995 0
M  V30 2148 H 201.038 -2.96774 -0.311115 0
M  V30 2149 C 199.787 -2.78795 -2.07771 0
M  V30 2150 H 199.11 -3.59221 -1.755 0
M  V30 2151 H 200.55 -3.2417 -2.73295 0
M  V30 2152 C 199.009 -1.76193 -2.87155 0
M  V30 2153 O 199.539 -1.21909 -3.82755 0
M  V30 2154 N 197.745 -1.45991 -2.51267 0
M  V30 2155 H 197.292 -1.90325 -1.73592 0
M  V30 2156 H 197.25 -0.775844 -3.04677 0
M  V30 2157 N 201.022 0.148545 -1.56898 0
M  V30 2158 C 201.952 1.18524 -2.01182 0
M  V30 2159 C 202.933 1.4489 -0.891123 0
M  V30 2160 O 204.118 1.55836 -1.15882 0
M  V30 2161 C 201.248 2.51879 -2.39112 0
M  V30 2162 C 200.202 2.40038 -3.54353 0
M  V30 2163 C 199.528 3.78089 -3.78091 0
M  V30 2164 C 200.828 1.88577 -4.87069 0
M  V30 2165 H 202.522 0.817029 -2.88036 0
M  V30 2166 H 200.068 0.391575 -1.38574 0
M  V30 2167 H 202.021 3.24627 -2.68692 0
M  V30 2168 H 200.745 2.90532 -1.49193 0
M  V30 2169 H 199.404 1.69742 -3.24936 0
M  V30 2170 H 199.052 4.14175 -2.85426 0
M  V30 2171 H 198.752 3.71028 -4.55645 0
M  V30 2172 H 200.276 4.52387 -4.10095 0
M  V30 2173 H 201.69 2.51117 -5.15377 0
M  V30 2174 H 200.087 1.9241 -5.68417 0
M  V30 2175 H 201.157 0.84136 -4.77545 0
M  V30 2176 N 202.5 1.5196 0.417844 0
M  V30 2177 C 203.447 1.74678 1.50852 0
M  V30 2178 C 204.417 0.588947 1.55308 0
M  V30 2179 O 205.602 0.825544 1.72016 0
M  V30 2180 C 202.742 1.89544 2.88387 0
M  V30 2181 C 201.855 3.17166 2.93309 0
M  V30 2182 C 200.99 3.22513 4.22088 0
M  V30 2183 C 200.029 4.44372 4.20951 0
M  V30 2184 N 199.166 4.47161 5.41287 0
M  V30 2185 H 204.006 2.67768 1.30783 0
M  V30 2186 H 201.543 1.32689 0.63498 0
M  V30 2187 H 203.501 1.96146 3.68216 0
M  V30 2188 H 202.131 0.998424 3.06971 0
M  V30 2189 H 201.183 3.19778 2.06024 0
M  V30 2190 H 202.495 4.07021 2.88332 0
M  V30 2191 H 201.649 3.28139 5.10303 0
M  V30 2192 H 200.388 2.30581 4.29748 0
M  V30 2193 H 199.393 4.38902 3.31127 0
M  V30 2194 H 200.618 5.3759 4.14938 0
M  V30 2195 H 198.564 3.58108 5.49632 0
M  V30 2196 H 198.481 5.3085 5.3827 0
M  V30 2197 H 199.749 4.57005 6.3148 0
M  V30 2198 N 203.978 -0.674533 1.42435 0
M  V30 2199 C 204.925 -1.78807 1.45934 0
M  V30 2200 C 205.895 -1.63157 0.311271 0
M  V30 2201 O 207.08 -1.83707 0.515383 0
M  V30 2202 C 204.22 -3.16839 1.36773 0
M  V30 2203 C 203.333 -3.43774 2.61617 0
M  V30 2204 C 202.468 -4.71536 2.44597 0
M  V30 2205 C 201.507 -4.91505 3.64814 0
M  V30 2206 N 200.644 -6.10508 3.46734 0
M  V30 2207 H 205.484 -1.75151 2.41093 0
M  V30 2208 H 203.021 -0.85504 1.19697 0
M  V30 2209 H 204.979 -3.96606 1.29459 0
M  V30 2210 H 203.609 -3.19619 0.452089 0
M  V30 2211 H 202.661 -2.58259 2.79297 0
M  V30 2212 H 203.973 -3.54423 3.50978 0
M  V30 2213 H 203.127 -5.59393 2.3487 0
M  V30 2214 H 201.866 -4.6317 1.52726 0
M  V30 2215 H 200.871 -4.0209 3.74972 0
M  V30 2216 H 202.096 -5.01716 4.57665 0
M  V30 2217 H 200.042 -6.03315 2.5758 0
M  V30 2218 H 199.959 -6.2202 4.29682 0
M  V30 2219 H 201.227 -7.01044 3.40819 0
M  V30 2220 N 205.456 -1.28612 -0.910864 0
M  V30 2221 C 206.419 -1.12803 -1.9952 0
M  V30 2222 C 207.419 -0.0668264 -1.60661 0
M  V30 2223 O 208.609 -0.312847 -1.71368 0
M  V30 2224 C 205.741 -0.72254 -3.33155 0
M  V30 2225 H 206.934 -2.09109 -2.14973 0
M  V30 2226 H 204.487 -1.11639 -1.09391 0
M  V30 2227 H 205.222 0.241152 -3.23402 0
M  V30 2228 H 205.007 -1.48916 -3.62721 0
M  V30 2229 H 206.497 -0.634666 -4.12749 0
M  V30 2230 N 206.934 1.1197 -1.10907 0
M  V30 2231 C 208.183 1.82947 -0.849302 0
M  V30 2232 C 208.496 1.85275 0.627112 0
M  V30 2233 O 209.702 2.52296 1.00295 0
M  V30 2234 C 208.158 3.28529 -1.46959 0
M  V30 2235 C 207.766 3.34546 -2.97965 0
M  V30 2236 C 209.51 4.04443 -1.28942 0
M  V30 2237 C 207.417 4.74491 -3.53004 0
M  V30 2238 H 206.347 0.685477 -0.314065 0
M  V30 2239 H 208.998 1.2604 -1.33365 0
M  V30 2240 H 207.38 3.85333 -0.912917 0
M  V30 2241 H 208.554 2.87654 -3.59989 0
M  V30 2242 H 206.869 2.72108 -3.15192 0
M  V30 2243 H 209.466 5.07787 -1.67502 0
M  V30 2244 H 209.809 4.15656 -0.231456 0
M  V30 2245 H 210.342 3.5401 -1.81443 0
M  V30 2246 H 207.081 4.68474 -4.58489 0
M  V30 2247 H 206.601 5.21816 -2.9575 0
M  V30 2248 H 208.28 5.4344 -3.51115 0
M  V30 2249 N 208.412 0.89855 1.29475 0
M  V30 2250 C 209.661 0.519863 1.94885 0
M  V30 2251 C 209.974 -0.9383 1.71625 0
M  V30 2252 O 211.18 -1.42445 2.31131 0
M  V30 2253 C 209.636 0.878836 3.49005 0
M  V30 2254 C 209.244 2.35569 3.81066 0
M  V30 2255 C 210.988 0.570004 4.20656 0
M  V30 2256 C 208.895 2.65558 5.28425 0
M  V30 2257 H 207.825 0.190692 0.729488 0
M  V30 2258 H 210.476 1.09539 1.47219 0
M  V30 2259 H 208.858 0.232253 3.95318 0
M  V30 2260 H 210.032 3.04773 3.45616 0
M  V30 2261 H 208.347 2.63343 3.22552 0
M  V30 2262 H 210.944 0.770925 5.29113 0
M  V30 2263 H 211.287 -0.491404 4.1339 0
M  V30 2264 H 211.82 1.17438 3.8007 0
M  V30 2265 H 208.559 3.70493 5.40754 0
M  V30 2266 H 208.079 2.00977 5.65127 0
M  V30 2267 H 209.758 2.51765 5.96006 0
M  V30 2268 N 209.89 -1.43072 0.660911 0
M  V30 2269 C 210.853 -2.29194 -0.0166406 0
M  V30 2270 C 211.853 -1.42609 -0.742912 0
M  V30 2271 O 213.043 -1.64155 -0.583004 0
M  V30 2272 C 210.175 -3.24831 -1.0343 0
M  V30 2273 H 211.368 -2.90596 0.741208 0
M  V30 2274 H 208.921 -1.5048 0.422532 0
M  V30 2275 H 209.656 -2.68339 -1.82111 0
M  V30 2276 H 209.441 -3.88676 -0.517082 0
M  V30 2277 H 210.931 -3.89451 -1.50723 0
M  V30 2278 N 211.368 -0.403325 -1.52352 0
M  V30 2279 C 212.596 0.174012 -2.06167 0
M  V30 2280 C 213.011 1.39347 -1.27388 0
M  V30 2281 O 212.368 1.79597 -0.324201 0
M  V30 2282 C 212.419 0.530223 -3.5759 0
M  V30 2283 O 212.14 -0.640806 -4.33388 0
M  V30 2284 C 213.641 1.16192 -4.27802 0
M  V30 2285 H 210.861 0.0229464 -0.670608 0
M  V30 2286 H 213.405 -0.572604 -1.9632 0
M  V30 2287 H 211.56 1.22673 -3.67464 0
M  V30 2288 H 211.974 -0.344851 -5.23365 0
M  V30 2289 H 213.448 1.36141 -5.34948 0
M  V30 2290 H 213.925 2.13335 -3.83907 0
M  V30 2291 H 214.531 0.505775 -4.22282 0
M  V30 2292 N 212.846 1.57033 -0.133567 0
M  V30 2293 C 213.756 2.19632 0.824564 0
M  V30 2294 C 214.772 1.17666 1.28182 0
M  V30 2295 O 215.948 1.50193 1.3418 0
M  V30 2296 C 213.013 2.79499 2.05137 0
M  V30 2297 C 212.074 3.96548 1.64464 0
M  V30 2298 C 211.307 4.5355 2.81297 0
M  V30 2299 O 211.53 4.09438 3.97136 0
M  V30 2300 O 210.464 5.44018 2.57542 0
M  V30 2301 H 214.29 3.01991 0.321766 0
M  V30 2302 H 211.875 1.49112 0.0927889 0
M  V30 2303 H 213.757 3.17602 2.7696 0
M  V30 2304 H 212.432 2.00162 2.54395 0
M  V30 2305 H 211.339 3.63186 0.897048 0
M  V30 2306 H 212.672 4.77364 1.19934 0
M  V30 2307 N 214.325 -0.140222 1.56975 0
M  V30 2308 C 215.602 -0.880769 1.74648 0
M  V30 2309 C 215.982 -1.99036 0.703404 0
M  V30 2310 O 215.33 -2.26821 -0.27648 0
M  V30 2311 C 215.54 -1.417 3.18939 0
M  V30 2312 C 216.888 -1.87774 3.80823 0
M  V30 2313 O 217.912 -1.51427 3.2241 0
M  V30 2314 O 216.771 -2.54827 4.83452 0
M  V30 2315 H 213.865 -0.416713 0.714338 0
M  V30 2316 H 216.411 -0.125618 1.69234 0
M  V30 2317 H 215.183 -0.619902 3.86359 0
M  V30 2318 H 214.806 -2.23546 3.28805 0
M  V30 2319 N 215.803 -1.52179 -0.40978 0
M  V30 2320 C 216.713 -1.78364 -1.52392 0
M  V30 2321 C 217.729 -0.669183 -1.60617 0
M  V30 2322 O 218.905 -0.954518 -1.77344 0
M  V30 2323 C 215.97 -1.92822 -2.88133 0
M  V30 2324 C 215.031 -3.16725 -2.898 0
M  V30 2325 C 214.264 -3.30483 -4.19067 0
M  V30 2326 O 214.487 -2.49522 -5.12928 0
M  V30 2327 O 213.421 -4.2363 -4.27576 0
M  V30 2328 H 217.247 -2.72931 -1.33201 0
M  V30 2329 H 214.832 -1.37016 -0.59557 0
M  V30 2330 H 216.714 -2.04157 -3.68643 0
M  V30 2331 H 215.389 -1.01444 -3.07393 0
M  V30 2332 H 214.296 -3.10848 -2.08146 0
M  V30 2333 H 215.629 -4.07881 -2.75489 0
M  V30 2334 N 217.281 0.66697 -1.42791 0
M  V30 2335 C 218.231 1.77313 -1.43332 0
M  V30 2336 C 219.215 1.5801 -0.303586 0
M  V30 2337 O 220.407 1.68356 -0.546385 0
M  V30 2338 C 217.536 3.15822 -1.34578 0
M  V30 2339 C 216.622 3.40721 -2.52528 0
M  V30 2340 N 217.013 3.36162 -3.77927 0
M  V30 2341 C 215.311 3.71387 -2.46956 0
M  V30 2342 C 216.012 3.60762 -4.56318 0
M  V30 2343 N 214.988 3.81908 -3.86843 0
M  V30 2344 H 218.79 1.72193 -2.38174 0
M  V30 2345 H 216.304 0.868114 -1.3725 0
M  V30 2346 H 218.301 3.951 -1.33048 0
M  V30 2347 H 216.961 3.22133 -0.407453 0
M  V30 2348 H 217.972 3.15885 -4.10411 0
M  V30 2349 H 214.649 3.84897 -1.61743 0
M  V30 2350 H 216.039 3.63132 -5.65318 0
M  V30 2351 N 218.759 1.29093 0.90403 0
M  V30 2352 C 220.006 1.16813 1.65411 0
M  V30 2353 C 220.334 -0.28128 1.92455 0
M  V30 2354 O 219.589 -1.22006 1.53013 0
M  V30 2355 C 219.888 1.92224 3.01305 0
M  V30 2356 C 219.554 3.41968 2.93885 0
M  V30 2357 C 218.216 3.82807 2.91569 0
M  V30 2358 C 220.568 4.37409 2.83413 0
M  V30 2359 C 217.896 5.1741 2.76594 0
M  V30 2360 C 220.248 5.72097 2.69977 0
M  V30 2361 C 218.912 6.12199 2.66024 0
M  V30 2362 H 218.182 0.42745 0.605283 0
M  V30 2363 H 220.829 1.59981 1.05254 0
M  V30 2364 H 219.134 1.41635 3.65304 0
M  V30 2365 H 220.831 1.80131 3.58265 0
M  V30 2366 H 217.421 3.09504 2.96488 0
M  V30 2367 H 221.605 4.06813 2.84283 0
M  V30 2368 H 216.861 5.47596 2.71935 0
M  V30 2369 H 221.035 6.45704 2.60844 0
M  V30 2370 H 218.662 7.16448 2.54178 0
M  V30 2371 N 220.237 -1.11381 1.11499 0
M  V30 2372 C 221.184 -2.17439 0.773887 0
M  V30 2373 C 222.154 -1.64132 -0.254899 0
M  V30 2374 O 223.339 -1.90345 -0.13168 0
M  V30 2375 C 220.479 -3.44373 0.223917 0
M  V30 2376 C 219.592 -4.1168 1.30934 0
M  V30 2377 C 218.727 -5.263 0.71984 0
M  V30 2378 C 217.766 -5.85493 1.78507 0
M  V30 2379 N 216.903 -6.91507 1.21502 0
M  V30 2380 H 221.743 -2.45962 1.68246 0
M  V30 2381 H 219.28 -1.20744 0.840191 0
M  V30 2382 H 221.238 -4.17047 -0.112921 0
M  V30 2383 H 219.868 -3.16232 -0.647851 0
M  V30 2384 H 218.92 -3.37073 1.76312 0
M  V30 2385 H 220.232 -4.51729 2.11524 0
M  V30 2386 H 219.386 -6.05785 0.333094 0
M  V30 2387 H 218.125 -4.87559 -0.117377 0
M  V30 2388 H 217.13 -5.04686 2.18111 0
M  V30 2389 H 218.355 -6.26301 2.62533 0
M  V30 2390 H 216.301 -6.54783 0.399455 0
M  V30 2391 H 216.218 -7.30214 1.95763 0
M  V30 2392 H 217.486 -7.74795 0.855181 0
M  V30 2393 N 221.715 -0.905404 -1.28997 0
M  V30 2394 C 222.625 -0.392246 -2.31298 0
M  V30 2395 C 223.641 0.515889 -1.66176 0
M  V30 2396 O 224.817 0.404093 -1.97304 0
M  V30 2397 C 221.882 0.36686 -3.44754 0
M  V30 2398 C 220.943 -0.573485 -4.25452 0
M  V30 2399 C 220.176 0.149488 -5.33491 0
M  V30 2400 O 220.399 1.37255 -5.5364 0
M  V30 2401 O 219.333 -0.510919 -5.99728 0
M  V30 2402 H 223.159 -1.2411 -2.77183 0
M  V30 2403 H 220.744 -0.669926 -1.33538 0
M  V30 2404 H 222.626 0.795907 -4.13816 0
M  V30 2405 H 221.301 1.19169 -3.00966 0
M  V30 2406 H 220.208 -1.05176 -3.59011 0
M  V30 2407 H 221.541 -1.36489 -4.72897 0
M  V30 2408 N 223.193 1.4272 -0.668489 0
M  V30 2409 C 224.143 2.27971 0.0363806 0
M  V30 2410 C 225.127 1.40741 0.779794 0
M  V30 2411 O 226.319 1.64245 0.659745 0
M  V30 2412 C 223.448 3.28673 0.991398 0
M  V30 2413 C 222.534 4.23388 0.245658 0
M  V30 2414 N 222.925 5.00267 -0.746069 0
M  V30 2415 C 221.223 4.43355 0.484988 0
M  V30 2416 C 221.924 5.69396 -1.19009 0
M  V30 2417 N 220.9 5.41095 -0.521287 0
M  V30 2418 H 224.702 2.84833 -0.724394 0
M  V30 2419 H 222.216 1.54607 -0.497028 0
M  V30 2420 H 224.213 3.88543 1.51129 0
M  V30 2421 H 222.873 2.73373 1.75207 0
M  V30 2422 H 223.884 5.05525 -1.12537 0
M  V30 2423 H 220.561 3.99104 1.22565 0
M  V30 2424 H 221.951 6.41083 -2.01153 0
M  V30 2425 N 224.671 0.411399 1.52136 0
M  V30 2426 C 225.618 -0.412975 2.27075 0
M  V30 2427 C 226.588 -1.03912 1.29582 0
M  V30 2428 O 227.773 -1.06296 1.58448 0
M  V30 2429 C 224.913 -1.52247 3.09701 0
M  V30 2430 C 224.026 -0.917021 4.22155 0
M  V30 2431 C 223.161 -1.9994 4.92135 0
M  V30 2432 C 222.2 -1.37101 5.96548 0
M  V30 2433 N 221.337 -2.39364 6.60038 0
M  V30 2434 H 226.177 0.232499 2.97092 0
M  V30 2435 H 223.714 0.126496 1.46555 0
M  V30 2436 H 225.672 -2.17674 3.55913 0
M  V30 2437 H 224.302 -2.13794 2.41851 0
M  V30 2438 H 223.354 -0.151742 3.80097 0
M  V30 2439 H 224.666 -0.418006 4.97045 0
M  V30 2440 H 223.82 -2.73088 5.41763 0
M  V30 2441 H 222.559 -2.53208 4.16818 0
M  V30 2442 H 221.564 -0.624873 5.46237 0
M  V30 2443 H 222.789 -0.845998 6.7381 0
M  V30 2444 H 220.735 -2.91759 5.87548 0
M  V30 2445 H 220.652 -1.9428 7.3061 0
M  V30 2446 H 221.92 -3.12074 7.14304 0
M  V30 2447 N 226.149 -1.5696 0.141893 0
M  V30 2448 C 227.397 -1.95573 -0.509484 0
M  V30 2449 C 227.718 -1.02746 -1.65736 0
M  V30 2450 O 226.988 -0.0880311 -1.95702 0
M  V30 2451 H 225.568 -0.722115 -0.191205 0
M  V30 2452 H 228.23 -1.93697 0.216196 0
M  V30 2453 H 227.326 -2.99171 -0.889 0
M  V30 2454 N 227.627 0.131896 -1.57047 0
M  V30 2455 C 228.873 0.843179 -1.84441 0
M  V30 2456 C 229.206 1.80129 -0.725749 0
M  V30 2457 O 228.481 1.92624 0.269469 0
M  V30 2458 C 228.764 1.60442 -3.22382 0
M  V30 2459 C 228.617 0.666782 -4.4483 0
M  V30 2460 C 229.936 2.56354 -3.5773 0
M  V30 2461 H 227.055 0.305081 -0.670891 0
M  V30 2462 H 229.697 0.107839 -1.89694 0
M  V30 2463 H 227.847 2.23128 -3.18035 0
M  V30 2464 H 229.519 0.0497646 -4.61273 0
M  V30 2465 H 227.762 -0.022609 -4.33794 0
M  V30 2466 H 228.433 1.23579 -5.37989 0
M  V30 2467 H 230.909 2.0378 -3.62785 0
M  V30 2468 H 229.785 3.06657 -4.5525 0
M  V30 2469 H 230.046 3.38419 -2.84473 0
M  V30 2470 N 229.106 1.52395 0.401703 0
M  V30 2471 C 230.352 1.67065 1.14966 0
M  V30 2472 C 230.685 0.403052 1.89971 0
M  V30 2473 O 229.96 -0.598774 1.85054 0
M  V30 2474 C 230.243 2.8975 2.13815 0
M  V30 2475 C 230.096 4.26578 1.42658 0
M  V30 2476 C 231.415 3.07965 3.14397 0
M  V30 2477 H 228.534 0.607968 0.416587 0
M  V30 2478 H 231.176 1.84965 0.434511 0
M  V30 2479 H 229.326 2.74619 2.74803 0
M  V30 2480 H 230.998 4.53451 0.847329 0
M  V30 2481 H 229.241 4.27639 0.72849 0
M  V30 2482 H 229.912 5.08483 2.14823 0
M  V30 2483 H 232.388 3.22043 2.63491 0
M  V30 2484 H 231.264 3.95308 3.80819 0
M  V30 2485 H 231.525 2.21611 3.82545 0
M  V30 2486 N 230.584 -0.659388 1.43143 0
M  V30 2487 C 231.995 -1.24041 1.39537 0
M  V30 2488 C 232.346 -1.95963 0.0963364 0
M  V30 2489 O 231.471 -2.00892 -0.804438 0
M  V30 2490 C 232.066 -2.25601 2.52764 0
M  V30 2491 C 230.625 -2.79195 2.52443 0
M  V30 2492 C 229.772 -1.53743 2.30778 0
M  V30 2493 H 232.723 -0.451792 1.52133 0
M  V30 2494 H 232.744 -3.07651 2.23899 0
M  V30 2495 H 232.256 -1.73226 3.47296 0
M  V30 2496 H 230.357 -3.35649 1.61773 0
M  V30 2497 H 230.47 -3.2716 3.50004 0
M  V30 2498 H 228.834 -1.80869 1.79328 0
M  V30 2499 H 229.617 -1.03312 3.27386 0
M  V30 2500 N 232.062 -1.29571 -0.897171 0
M  V30 2501 C 233.009 -1.14916 -2.00158 0
M  V30 2502 C 233.979 -0.0418149 -1.66047 0
M  V30 2503 O 235.164 -0.209793 -1.89643 0
M  V30 2504 C 232.304 -0.834307 -3.34863 0
M  V30 2505 C 231.417 -2.02234 -3.8174 0
M  V30 2506 C 230.552 -1.64664 -5.05034 0
M  V30 2507 C 229.591 -2.80033 -5.44286 0
M  V30 2508 N 228.728 -2.42843 -6.58765 0
M  V30 2509 H 233.568 -2.09403 -2.12025 0
M  V30 2510 H 231.105 -1.042 -1.0383 0
M  V30 2511 H 233.063 -0.632436 -4.12379 0
M  V30 2512 H 231.693 0.0736656 -3.22716 0
M  V30 2513 H 230.745 -2.33583 -3.00238 0
M  V30 2514 H 232.057 -2.88673 -4.06779 0
M  V30 2515 H 231.211 -1.4078 -5.9014 0
M  V30 2516 H 229.95 -0.753766 -4.8184 0
M  V30 2517 H 228.955 -3.04596 -4.57713 0
M  V30 2518 H 230.18 -3.69989 -5.6946 0
M  V30 2519 H 228.126 -1.56046 -6.3717 0
M  V30 2520 H 228.043 -3.22815 -6.83613 0
M  V30 2521 H 229.311 -2.22285 -7.47134 0
M  V30 2522 N 233.54 1.10788 -1.12088 0
M  V30 2523 C 234.503 2.15207 -0.788577 0
M  V30 2524 C 235.503 1.59609 0.195317 0
M  V30 2525 O 236.693 1.74174 -0.0300193 0
M  V30 2526 C 233.825 3.4047 -0.171174 0
M  V30 2527 H 235.018 2.46116 -1.71368 0
M  V30 2528 H 232.571 1.26089 -0.923652 0
M  V30 2529 H 233.306 3.15176 0.763832 0
M  V30 2530 H 233.091 3.82109 -0.879514 0
M  V30 2531 H 234.581 4.17576 0.04496 0
M  V30 2532 N 235.018 0.912232 1.28515 0
M  V30 2533 C 236.264 0.545405 1.95328 0
M  V30 2534 C 236.597 -0.908313 1.71649 0
M  V30 2535 O 235.872 -1.64575 1.03659 0
M  V30 2536 C 236.155 0.853483 3.4984 0
M  V30 2537 C 236.008 2.35982 3.82926 0
M  V30 2538 C 237.327 0.348589 4.38717 0
M  V30 2539 H 234.446 0.199626 0.709449 0
M  V30 2540 H 237.088 1.1412 1.5191 0
M  V30 2541 H 235.238 0.34643 3.86952 0
M  V30 2542 H 236.91 2.93738 3.55691 0
M  V30 2543 H 235.153 2.81543 3.30024 0
M  V30 2544 H 235.824 2.52593 4.90816 0
M  V30 2545 H 238.3 0.78294 4.08668 0
M  V30 2546 H 237.176 0.593242 5.45685 0
M  V30 2547 H 237.437 -0.751049 4.35674 0
M  V30 2548 N 236.496 -1.42363 0.676048 0
M  V30 2549 C 237.745 -2.00745 0.196037 0
M  V30 2550 C 238.058 -1.54083 -1.20489 0
M  V30 2551 O 239.264 -2.04891 -1.78134 0
M  V30 2552 C 237.72 -3.58651 0.299616 0
M  V30 2553 C 237.328 -4.143 1.70468 0
M  V30 2554 C 239.072 -4.24326 -0.121619 0
M  V30 2555 C 236.979 -5.64574 1.76096 0
M  V30 2556 H 235.909 -0.750787 0.0695301 0
M  V30 2557 H 238.56 -1.63072 0.841412 0
M  V30 2558 H 236.942 -3.93833 -0.413673 0
M  V30 2559 H 238.116 -3.90575 2.44515 0
M  V30 2560 H 236.431 -3.61081 2.07387 0
M  V30 2561 H 239.028 -5.34607 -0.0997362 0
M  V30 2562 H 239.371 -3.99897 -1.15708 0
M  V30 2563 H 239.904 -3.94108 0.540706 0
M  V30 2564 H 236.643 -5.93804 2.77628 0
M  V30 2565 H 236.163 -5.90286 1.06406 0
M  V30 2566 H 237.842 -6.29013 1.51496 0
M  V30 2567 N 237.974 -0.419461 -1.51915 0
M  V30 2568 C 239.39 -0.0708431 -1.59443 0
M  V30 2569 C 239.59 1.41796 -1.43164 0
M  V30 2570 O 238.646 2.18596 -1.26381 0
M  V30 2571 C 239.959 -0.574991 -2.95151 0
M  V30 2572 C 241.507 -0.533867 -3.08413 0
M  V30 2573 C 241.982 -1.01469 -4.46618 0
M  V30 2574 N 243.473 -0.971939 -4.52888 0
M  V30 2575 C 244.208 -1.31505 -5.58116 0
M  V30 2576 N 243.704 -1.73014 -6.70849 0
M  V30 2577 N 245.497 -1.23436 -5.48379 0
M  V30 2578 H 237.648 -1.38836 -1.60743 0
M  V30 2579 H 239.911 -0.570998 -0.756747 0
M  V30 2580 H 239.617 -1.61597 -3.12377 0
M  V30 2581 H 239.491 0.00979777 -3.77199 0
M  V30 2582 H 241.878 0.498086 -2.90866 0
M  V30 2583 H 241.959 -1.15484 -2.28248 0
M  V30 2584 H 241.603 -2.04502 -4.6491 0
M  V30 2585 H 241.533 -0.370433 -5.25295 0
M  V30 2586 H 244.024 -0.666893 -3.71969 0
M  V30 2587 H 244.337 -1.97479 -7.47143 0
M  V30 2588 H 242.682 -1.76926 -6.72103 0
M  V30 2589 H 245.873 -0.908869 -4.59192 0
M  V30 2590 H 246.046 -1.50506 -6.30279 0
M  V30 2591 N 239.452 1.56882 -0.150215 0
M  V30 2592 C 240.415 2.1573 0.774157 0
M  V30 2593 C 241.415 1.0999 1.17298 0
M  V30 2594 O 242.605 1.35613 1.09338 0
M  V30 2595 C 239.737 2.72302 2.05096 0
M  V30 2596 H 240.93 2.98752 0.262201 0
M  V30 2597 H 238.483 1.55985 0.099248 0
M  V30 2598 H 239.218 1.92956 2.6065 0
M  V30 2599 H 239.003 3.49665 1.77416 0
M  V30 2600 H 240.493 3.17632 2.71109 0
M  V30 2601 N 240.93 -0.123565 1.57115 0
M  V30 2602 C 242.158 -0.846461 1.88793 0
M  V30 2603 C 242.573 -1.73652 0.740976 0
M  V30 2604 O 241.93 -1.80207 -0.288393 0
M  V30 2605 C 241.981 -1.6837 3.19897 0
M  V30 2606 O 241.702 -0.829477 4.30176 0
M  V30 2607 C 243.203 -2.51214 3.65248 0
M  V30 2608 H 240.423 -0.243573 0.625231 0
M  V30 2609 H 242.967 -0.109324 2.04208 0
M  V30 2610 H 241.122 -2.37364 3.06165 0
M  V30 2611 H 241.536 -1.40651 5.0529 0
M  V30 2612 H 243.01 -3.05497 4.59756 0
M  V30 2613 H 243.487 -3.28359 2.9168 0
M  V30 2614 H 244.093 -1.8747 3.81752 0
M  V30 2615 N 242.408 -1.52605 -0.393616 0
M  V30 2616 C 243.338 -1.80022 -1.48709 0
M  V30 2617 C 244.319 -0.651995 -1.57108 0
M  V30 2618 O 245.504 -0.89913 -1.72132 0
M  V30 2619 C 242.634 -1.96492 -2.86371 0
M  V30 2620 C 241.588 -3.12161 -2.92813 0
M  V30 2621 C 240.914 -3.13877 -4.3288 0
M  V30 2622 C 242.214 -4.51322 -2.6288 0
M  V30 2623 H 243.908 -2.71589 -1.26015 0
M  V30 2624 H 241.454 -1.30684 -0.604778 0
M  V30 2625 H 243.407 -2.14255 -3.62867 0
M  V30 2626 H 242.131 -1.01611 -3.10391 0
M  V30 2627 H 240.79 -2.94173 -2.18764 0
M  V30 2628 H 240.438 -2.16687 -4.53933 0
M  V30 2629 H 240.138 -3.91576 -4.38112 0
M  V30 2630 H 241.662 -3.33789 -5.1129 0
M  V30 2631 H 243.076 -4.69435 -3.29096 0
M  V30 2632 H 241.473 -5.31053 -2.79468 0
M  V30 2633 H 242.543 -4.58353 -1.58242 0
M  V30 2634 N 243.887 0.651787 -1.4349 0
M  V30 2635 C 245.135 1.40888 -1.44897 0
M  V30 2636 C 245.456 1.94856 -0.0749086 0
M  V30 2637 O 244.726 1.74518 0.889956 0
M  V30 2638 H 243.306 0.522887 -0.533478 0
M  V30 2639 H 245.968 0.768609 -1.79104 0
M  V30 2640 H 245.064 2.25052 -2.16236 0
M  V30 2641 N 245.365 1.30045 0.890287 0
M  V30 2642 C 246.312 1.15976 1.99545 0
M  V30 2643 C 247.282 0.0506202 1.66023 0
M  V30 2644 O 248.467 0.219847 1.89529 0
M  V30 2645 C 245.607 0.852054 3.34416 0
M  V30 2646 C 244.72 2.04255 3.80662 0
M  V30 2647 C 243.855 1.6734 5.04154 0
M  V30 2648 C 242.894 2.82916 5.42794 0
M  V30 2649 N 242.031 2.46333 6.57468 0
M  V30 2650 H 246.871 2.10524 2.10911 0
M  V30 2651 H 244.408 1.04749 1.03276 0
M  V30 2652 H 246.366 0.654296 4.12037 0
M  V30 2653 H 244.996 -0.0565502 3.2275 0
M  V30 2654 H 244.048 2.35172 2.98995 0
M  V30 2655 H 245.36 2.90826 4.05242 0
M  V30 2656 H 244.514 1.43908 5.89386 0
M  V30 2657 H 243.253 0.779308 4.81433 0
M  V30 2658 H 242.258 3.0702 4.56091 0
M  V30 2659 H 243.483 3.73004 5.6749 0
M  V30 2660 H 241.429 1.59423 6.36334 0
M  V30 2661 H 241.346 3.26436 6.81891 0
M  V30 2662 H 242.614 2.26244 7.45945 0
M  V30 2663 N 246.843 -1.10192 1.12674 0
M  V30 2664 C 248.09 -1.82205 0.883606 0
M  V30 2665 C 248.418 -1.8532 -0.590492 0
M  V30 2666 O 247.673 -1.31137 -1.45264 0
M  V30 2667 C 247.972 -3.28552 1.4067 0
M  V30 2668 C 247.638 -3.45582 2.89627 0
M  V30 2669 C 246.3 -3.49937 3.30299 0
M  V30 2670 C 248.652 -3.50768 3.85501 0
M  V30 2671 C 245.98 -3.57049 4.65546 0
M  V30 2672 C 248.332 -3.59414 5.20581 0
M  V30 2673 C 246.996 -3.62034 5.60792 0
M  V30 2674 H 246.266 -0.666735 0.323334 0
M  V30 2675 H 248.913 -1.29868 1.40736 0
M  V30 2676 H 247.218 -3.83473 0.80347 0
M  V30 2677 H 248.915 -3.82788 1.19475 0
M  V30 2678 H 245.505 -3.42871 2.57172 0
M  V30 2679 H 249.689 -3.46651 3.55171 0
M  V30 2680 H 244.945 -3.57361 4.96088 0
M  V30 2681 H 249.119 -3.62371 5.94693 0
M  V30 2682 H 246.746 -3.67298 6.6558 0
M  V30 2683 N 248.321 -0.919034 -1.28029 0
M  V30 2684 C 249.567 -0.555757 -1.95036 0
M  V30 2685 C 249.9 0.899198 -1.72128 0
M  V30 2686 O 249.175 1.64023 -1.04531 0
M  V30 2687 C 249.458 -0.872024 -3.49382 0
M  V30 2688 C 249.311 -2.3801 -3.81669 0
M  V30 2689 C 250.63 -0.37185 -4.38526 0
M  V30 2690 H 247.749 -0.203386 -0.708381 0
M  V30 2691 H 250.391 -1.14924 -1.51303 0
M  V30 2692 H 248.541 -0.366946 -3.86763 0
M  V30 2693 H 250.213 -2.9562 -3.54128 0
M  V30 2694 H 248.456 -2.83289 -3.28526 0
M  V30 2695 H 249.127 -2.55192 -4.8947 0
M  V30 2696 H 251.603 -0.804602 -4.08247 0
M  V30 2697 H 250.479 -0.622173 -5.45362 0
M  V30 2698 H 250.74 0.727934 -4.36066 0
M  V30 2699 N 249.799 1.42003 -0.683588 0
M  V30 2700 C 251.047 2.01015 -0.209101 0
M  V30 2701 C 251.368 1.54365 1.19149 0
M  V30 2702 O 250.638 0.769083 1.80172 0
M  V30 2703 H 249.218 0.743294 -0.074315 0
M  V30 2704 H 251.88 1.73798 -0.882066 0
M  V30 2705 H 250.976 3.11343 -0.2172 0
M  V30 2706 N 251.277 0.427512 1.51691 0
M  V30 2707 C 252.207 -0.3796 2.30394 0
M  V30 2708 C 253.188 -1.02982 1.35384 0
M  V30 2709 O 254.373 -1.03534 1.643 0
M  V30 2710 C 251.503 -1.48649 3.1388 0
M  V30 2711 C 250.457 -0.960294 4.17088 0
M  V30 2712 C 249.783 -2.16219 4.89033 0
M  V30 2713 C 251.083 -0.00153679 5.223 0
M  V30 2714 H 252.777 0.277164 2.98114 0
M  V30 2715 H 250.323 0.134739 1.43368 0
M  V30 2716 H 252.276 -2.05826 3.67714 0
M  V30 2717 H 251 -2.1714 2.43962 0
M  V30 2718 H 249.659 -0.410806 3.64291 0
M  V30 2719 H 249.307 -2.83307 4.15628 0
M  V30 2720 H 249.007 -1.81654 5.58816 0
M  V30 2721 H 250.531 -2.73968 5.45687 0
M  V30 2722 H 251.945 -0.482687 5.71264 0
M  V30 2723 H 250.342 0.256199 5.99553 0
M  V30 2724 H 251.412 0.938174 4.75738 0
M  V30 2725 N 252.755 -1.56801 0.158532 0
M  V30 2726 C 254.003 -1.96102 -0.488712 0
M  V30 2727 C 254.324 -1.04498 -1.64636 0
M  V30 2728 O 253.594 -0.108783 -1.95598 0
M  V30 2729 H 252.174 -0.724102 -0.183535 0
M  V30 2730 H 254.836 -1.93457 0.236728 0
M  V30 2731 H 253.932 -3.00097 -0.857219 0
M  V30 2732 N 254.233 0.115231 -1.57178 0
M  V30 2733 C 255.458 0.840354 -1.89612 0
M  V30 2734 C 255.883 1.72464 -0.750845 0
M  V30 2735 O 255.241 1.78826 0.298478 0
M  V30 2736 C 255.289 1.64654 -3.20814 0
M  V30 2737 O 254.393 2.7538 -3.06985 0
M  V30 2738 H 253.734 0.232158 -0.622092 0
M  V30 2739 H 256.264 0.0964977 -2.04372 0
M  V30 2740 H 256.274 2.03499 -3.53627 0
M  V30 2741 H 254.949 0.997416 -4.03763 0
M  V30 2742 H 253.526 2.3971 -2.85646 0
M  V30 2743 N 255.711 1.52812 0.385517 0
M  V30 2744 C 256.936 1.72207 1.15583 0
M  V30 2745 C 257.361 0.441034 1.82857 0
M  V30 2746 O 256.719 -0.603465 1.70962 0
M  V30 2747 C 256.767 2.87476 2.17692 0
M  V30 2748 O 255.871 2.54693 3.24354 0
M  V30 2749 H 255.212 0.572526 0.336319 0
M  V30 2750 H 257.742 1.99618 0.448744 0
M  V30 2751 H 257.752 3.13072 2.6163 0
M  V30 2752 H 256.427 3.80408 1.68115 0
M  V30 2753 H 255.004 2.3985 2.85529 0
M  V30 2754 N 257.189 -0.644168 1.43834 0
M  V30 2755 C 258.414 -1.43642 1.49605 0
M  V30 2756 C 258.839 -1.8773 0.117913 0
M  V30 2757 O 258.197 -1.57938 -0.890239 0
M  V30 2758 C 258.245 -2.6416 2.45463 0
M  V30 2759 O 257.349 -3.63538 1.94714 0
M  V30 2760 H 256.69 -0.430329 0.50568 0
M  V30 2761 H 259.22 -0.787448 1.8884 0
M  V30 2762 H 259.23 -3.11864 2.63068 0
M  V30 2763 H 257.905 -2.31414 3.45572 0
M  V30 2764 H 256.482 -3.2273 1.86814 0
M  V30 2765 N 258.668 -1.30515 -0.883378 0
M  V30 2766 C 259.916 -1.19194 -1.63209 0
M  V30 2767 C 260.237 0.253205 -1.93349 0
M  V30 2768 O 259.507 1.17025 -1.57105 0
M  V30 2769 H 258.087 -0.438148 -0.605009 0
M  V30 2770 H 260.749 -1.63663 -1.05832 0
M  V30 2771 H 259.845 -1.75396 -2.58153 0
M  V30 2772 N 260.146 1.09593 -1.13257 0
M  V30 2773 C 261.394 1.81375 -0.891492 0
M  V30 2774 C 261.715 1.86049 0.584009 0
M  V30 2775 O 260.985 1.34481 1.42449 0
M  V30 2776 H 259.565 0.671708 -0.326828 0
M  V30 2777 H 262.227 1.3256 -1.42877 0
M  V30 2778 H 261.323 2.84612 -1.28071 0
M  V30 2779 N 261.624 0.925811 1.2754 0
M  V30 2780 C 262.849 0.580924 1.99098 0
M  V30 2781 C 263.274 -0.833555 1.68622 0
M  V30 2782 O 262.632 -1.55903 0.925422 0
M  V30 2783 C 262.68 0.811186 3.51358 0
M  V30 2784 O 261.784 -0.124129 4.12213 0
M  V30 2785 H 261.125 0.223873 0.625122 0
M  V30 2786 H 263.655 1.24455 1.62395 0
M  V30 2787 H 263.665 0.72601 4.01489 0
M  V30 2788 H 262.34 1.84227 3.72872 0
M  V30 2789 H 260.917 0.0108006 3.72898 0
M  V30 2790 N 263.102 -1.41638 0.69111 0
M  V30 2791 C 264.33 -2.05628 0.22909 0
M  V30 2792 C 264.745 -1.51992 -1.11999 0
M  V30 2793 O 264.102 -0.666322 -1.69901 0
M  V30 2794 C 264.153 -3.61084 0.173283 0
M  V30 2795 O 263.874 -4.12735 1.46907 0
M  V30 2796 C 265.375 -4.42213 -0.310266 0
M  V30 2797 H 262.595 -0.662327 0.107534 0
M  V30 2798 H 265.139 -1.81489 0.942438 0
M  V30 2799 H 263.294 -3.84278 -0.490858 0
M  V30 2800 H 263.708 -5.06743 1.35322 0
M  V30 2801 H 265.182 -5.51194 -0.298196 0
M  V30 2802 H 265.659 -4.1799 -1.34838 0
M  V30 2803 H 266.265 -4.24074 0.322716 0
M  V30 2804 N 264.58 -0.43555 -1.51462 0
M  V30 2805 C 265.51 0.367376 -2.30592 0
M  V30 2806 C 266.491 1.02263 -1.35928 0
M  V30 2807 O 267.676 1.02661 -1.64847 0
M  V30 2808 C 264.806 1.46983 -3.14664 0
M  V30 2809 C 263.76 0.938161 -4.17591 0
M  V30 2810 C 263.086 2.13622 -4.90173 0
M  V30 2811 C 264.386 -0.0261621 -5.22293 0
M  V30 2812 H 266.08 -0.292969 -2.97963 0
M  V30 2813 H 263.626 -0.14234 -1.43295 0
M  V30 2814 H 265.579 2.03873 -3.688 0
M  V30 2815 H 264.303 2.15843 -2.4511 0
M  V30 2816 H 262.962 0.391481 -3.64504 0
M  V30 2817 H 262.61 2.81098 -4.17124 0
M  V30 2818 H 262.31 1.78688 -5.59772 0
M  V30 2819 H 263.834 2.7107 -5.47132 0
M  V30 2820 H 265.248 0.452384 -5.71512 0
M  V30 2821 H 263.645 -0.287992 -5.99409 0
M  V30 2822 H 264.715 -0.963391 -4.75233 0
M  V30 2823 N 266.058 1.56714 -0.166846 0
M  V30 2824 C 267.286 2.0112 0.485644 0
M  V30 2825 C 267.701 1.04705 1.57106 0
M  V30 2826 O 267.058 0.0471923 1.82439 0
M  V30 2827 C 267.109 3.45361 1.06808 0
M  V30 2828 O 266.83 4.38092 0.0259995 0
M  V30 2829 C 268.331 4.05145 1.79924 0
M  V30 2830 H 265.551 0.65931 0.124704 0
M  V30 2831 H 268.095 2.02746 -0.267262 0
M  V30 2832 H 266.25 3.44524 1.7715 0
M  V30 2833 H 266.664 5.22519 0.455398 0
M  V30 2834 H 268.138 5.08009 2.15942 0
M  V30 2835 H 268.615 3.46982 2.69258 0
M  V30 2836 H 269.221 4.09672 1.14234 0
M  V30 2837 N 267.536 -0.106894 1.57237 0
M  V30 2838 C 268.468 -1.15646 1.97885 0
M  V30 2839 C 269.481 -1.36981 0.879779 0
M  V30 2840 O 270.67 -1.35841 1.15799 0
M  V30 2841 C 267.77 -2.51425 2.27241 0
M  V30 2842 C 266.943 -2.50529 3.58545 0
M  V30 2843 C 266.002 -3.68145 3.75973 0
M  V30 2844 O 265.028 -3.51176 4.47956 0
M  V30 2845 N 266.23 -4.87177 3.15656 0
M  V30 2846 H 268.995 -0.81059 2.8853 0
M  V30 2847 H 266.556 -0.296024 1.59171 0
M  V30 2848 H 268.548 -3.28689 2.36105 0
M  V30 2849 H 267.118 -2.78147 1.42663 0
M  V30 2850 H 266.338 -1.58894 3.60758 0
M  V30 2851 H 267.626 -2.46997 4.44826 0
M  V30 2852 H 267.024 -5.03868 2.57165 0
M  V30 2853 H 265.581 -5.62075 3.30023 0
M  V30 2854 N 269.014 -1.53014 -0.377408 0
M  V30 2855 C 269.946 -1.74884 -1.48149 0
M  V30 2856 C 270.959 -0.629433 -1.5014 0
M  V30 2857 O 272.148 -0.905416 -1.53833 0
M  V30 2858 C 269.248 -1.80299 -2.86959 0
M  V30 2859 C 268.421 -3.09776 -3.08801 0
M  V30 2860 C 267.48 -3.06586 -4.27658 0
M  V30 2861 O 266.506 -3.80419 -4.23403 0
M  V30 2862 N 267.708 -2.26578 -5.34455 0
M  V30 2863 H 270.473 -2.70147 -1.29771 0
M  V30 2864 H 268.034 -1.51646 -0.56703 0
M  V30 2865 H 270.026 -1.75657 -3.64591 0
M  V30 2866 H 268.596 -0.92372 -2.98641 0
M  V30 2867 H 267.816 -3.27815 -2.18931 0
M  V30 2868 H 269.104 -3.95366 -3.20255 0
M  V30 2869 H 268.502 -1.66081 -5.40771 0
M  V30 2870 H 267.059 -2.27766 -6.10709 0
M  V30 2871 N 270.492 0.636531 -1.44174 0
M  V30 2872 C 271.422 1.76003 -1.53444 0
M  V30 2873 C 272.403 1.65619 -0.387841 0
M  V30 2874 O 273.588 1.84461 -0.607257 0
M  V30 2875 C 270.718 3.14511 -1.4731 0
M  V30 2876 C 269.672 3.39677 -2.60391 0
M  V30 2877 C 268.998 4.78159 -2.39308 0
M  V30 2878 C 270.298 3.32772 -4.02567 0
M  V30 2879 H 271.992 1.68501 -2.47483 0
M  V30 2880 H 269.538 0.809237 -1.19111 0
M  V30 2881 H 271.491 3.92878 -1.52397 0
M  V30 2882 H 270.215 3.22783 -0.49785 0
M  V30 2883 H 268.874 2.63688 -2.54684 0
M  V30 2884 H 268.522 4.83128 -1.39988 0
M  V30 2885 H 268.222 4.95956 -3.15122 0
M  V30 2886 H 269.746 5.58762 -2.46205 0
M  V30 2887 H 271.16 4.01051 -4.09672 0
M  V30 2888 H 269.557 3.62104 -4.7854 0
M  V30 2889 H 270.627 2.30669 -4.2652 0
M  V30 2890 N 271.97 1.30982 0.876444 0
M  V30 2891 C 273.219 1.19658 1.62373 0
M  V30 2892 C 273.532 -0.245636 1.94052 0
M  V30 2893 O 274.738 -0.48049 2.67214 0
M  V30 2894 C 273.194 2.09433 2.92687 0
M  V30 2895 C 272.802 3.58613 2.68516 0
M  V30 2896 C 274.546 2.06893 3.70669 0
M  V30 2897 C 272.453 4.40416 3.94699 0
M  V30 2898 H 271.383 0.444268 0.609214 0
M  V30 2899 H 274.034 1.55791 0.969605 0
M  V30 2900 H 272.416 1.66191 3.59439 0
M  V30 2901 H 273.59 4.10058 2.10212 0
M  V30 2902 H 271.905 3.63063 2.03898 0
M  V30 2903 H 274.502 2.65258 4.64265 0
M  V30 2904 H 274.845 1.05448 4.02724 0
M  V30 2905 H 275.378 2.48301 3.10792 0
M  V30 2906 H 272.117 5.42591 3.67798 0
M  V30 2907 H 271.637 3.93731 4.52477 0
M  V30 2908 H 273.316 4.52294 4.62644 0
M  V30 2909 N 273.449 -1.08991 1.13837 0
M  V30 2910 C 274.396 -2.15748 0.819835 0
M  V30 2911 C 275.366 -1.64636 -0.220026 0
M  V30 2912 O 276.551 -1.90582 -0.0912757 0
M  V30 2913 C 273.691 -3.4382 0.296913 0
M  V30 2914 C 272.804 -4.0881 1.39636 0
M  V30 2915 C 271.939 -5.24655 0.831314 0
M  V30 2916 C 270.978 -5.81575 1.90886 0
M  V30 2917 N 270.115 -6.88774 1.36142 0
M  V30 2918 H 274.955 -2.42338 1.73426 0
M  V30 2919 H 272.492 -1.18935 0.865613 0
M  V30 2920 H 274.45 -4.17193 -0.0244339 0
M  V30 2921 H 273.08 -3.17535 -0.580628 0
M  V30 2922 H 272.132 -3.33258 1.83422 0
M  V30 2923 H 273.444 -4.47141 2.21058 0
M  V30 2924 H 272.598 -6.04942 0.461515 0
M  V30 2925 H 271.337 -4.87698 -0.013932 0
M  V30 2926 H 270.342 -4.99946 2.28767 0
M  V30 2927 H 271.567 -6.20592 2.75758 0
M  V30 2928 H 269.513 -6.53788 0.538254 0
M  V30 2929 H 269.43 -7.25898 2.11208 0
M  V30 2930 H 270.698 -7.72806 1.01933 0
M  V30 2931 N 274.927 -0.932562 -1.27047 0
M  V30 2932 C 275.859 -0.392734 -2.2581 0
M  V30 2933 C 276.872 0.479241 -1.55586 0
M  V30 2934 O 278.061 0.291078 -1.76111 0
M  V30 2935 C 275.161 0.455456 -3.35826 0
M  V30 2936 C 274.334 -0.398355 -4.35582 0
M  V30 2937 C 273.393 0.387985 -5.24768 0
M  V30 2938 O 272.419 -0.206003 -5.68827 0
M  V30 2939 N 273.621 1.68664 -5.55457 0
M  V30 2940 H 276.386 -1.24173 -2.72766 0
M  V30 2941 H 273.947 -0.800511 -1.40725 0
M  V30 2942 H 275.939 0.988692 -3.92437 0
M  V30 2943 H 274.509 1.20522 -2.88432 0
M  V30 2944 H 273.729 -1.11286 -3.78165 0
M  V30 2945 H 275.017 -0.981889 -4.99236 0
M  V30 2946 H 274.415 2.19147 -5.21528 0
M  V30 2947 H 272.972 2.1663 -6.14748 0
M  V30 2948 N 276.405 1.4127 -0.698611 0
M  V30 2949 C 277.337 2.292 0.00399731 0
M  V30 2950 C 278.35 1.44944 0.741279 0
M  V30 2951 O 279.539 1.68416 0.591477 0
M  V30 2952 C 276.639 3.22875 1.02979 0
M  V30 2953 C 275.812 4.35904 0.36151 0
M  V30 2954 C 274.871 5.10134 1.29033 0
M  V30 2955 O 273.897 5.63809 0.781562 0
M  V30 2956 N 275.099 5.17885 2.6225 0
M  V30 2957 H 277.864 2.9014 -0.750921 0
M  V30 2958 H 275.425 1.52455 -0.544882 0
M  V30 2959 H 277.417 3.69404 1.65296 0
M  V30 2960 H 275.987 2.63221 1.68622 0
M  V30 2961 H 275.207 3.91719 -0.441584 0
M  V30 2962 H 276.495 5.08696 -0.103055 0
M  V30 2963 H 275.893 4.7573 3.061 0
M  V30 2964 H 274.45 5.6798 3.19754 0
M  V30 2965 N 277.883 0.443576 1.51229 0
M  V30 2966 C 279.129 -0.120975 2.02439 0
M  V30 2967 C 279.462 -1.41815 1.32674 0
M  V30 2968 O 278.737 -1.89373 0.443622 0
M  V30 2969 C 279.02 -0.333291 3.58554 0
M  V30 2970 C 278.873 0.982968 4.38928 0
M  V30 2971 C 280.192 -1.10028 4.26124 0
M  V30 2972 H 277.311 -0.0424923 0.735774 0
M  V30 2973 H 279.953 0.583794 1.80809 0
M  V30 2974 H 278.103 -0.933614 3.77115 0
M  V30 2975 H 279.775 1.61775 4.32003 0
M  V30 2976 H 278.018 1.58611 4.03763 0
M  V30 2977 H 278.689 0.788379 5.46341 0
M  V30 2978 H 281.165 -0.591711 4.11871 0
M  V30 2979 H 280.041 -1.21761 5.35225 0
M  V30 2980 H 280.302 -2.12996 3.87408 0
M  V30 2981 N 279.361 -1.56624 0.175154 0
M  V30 2982 C 280.607 -1.9729 -0.469506 0
M  V30 2983 C 280.94 -1.06128 -1.62636 0
M  V30 2984 O 280.215 -0.109183 -1.94193 0
M  V30 2985 C 280.498 -3.47375 -0.948804 0
M  V30 2986 C 280.351 -4.49317 0.208491 0
M  V30 2987 C 281.67 -4.00652 -1.82116 0
M  V30 2988 H 278.789 -0.717317 -0.16919 0
M  V30 2989 H 281.431 -1.88184 0.262062 0
M  V30 2990 H 279.581 -3.55267 -1.57219 0
M  V30 2991 H 281.253 -4.53482 0.845682 0
M  V30 2992 H 279.496 -4.25121 0.863395 0
M  V30 2993 H 280.167 -5.51741 -0.169059 0
M  V30 2994 H 282.643 -3.95416 -1.2956 0
M  V30 2995 H 281.519 -5.06075 -2.12554 0
M  V30 2996 H 281.78 -3.44699 -2.7683 0
M  V30 2997 N 280.839 0.0985539 -1.57292 0
M  V30 2998 C 282.087 0.801092 -1.85545 0
M  V30 2999 C 282.408 1.79438 -0.763353 0
M  V30 3000 O 281.678 1.94763 0.21073 0
M  V30 3001 H 280.258 0.29884 -0.684619 0
M  V30 3002 H 282.92 0.0810064 -1.94732 0
M  V30 3003 H 282.016 1.3338 -2.82163 0
M  V30 3004 N 282.317 1.53212 0.369288 0
M  V30 3005 C 283.594 1.59815 1.12776 0
M  V30 3006 C 283.974 0.403402 2.0721 0
M  V30 3007 O 283.322 -0.606667 2.20299 0
M  V30 3008 C 283.532 2.94664 1.87013 0
M  V30 3009 C 284.88 3.49109 2.41677 0
M  V30 3010 O 285.904 2.96669 1.97144 0
M  V30 3011 O 284.763 4.40775 3.23079 0
M  V30 3012 H 281.857 0.645376 0.517125 0
M  V30 3013 H 284.403 1.65553 0.37285 0
M  V30 3014 H 283.175 3.73061 1.18071 0
M  V30 3015 H 282.798 2.92401 2.69421 0
M  V30 3016 N 283.795 -0.628877 1.44509 0
M  V30 3017 C 284.758 -1.72263 1.51188 0
M  V30 3018 C 285.758 -1.55907 0.39367 0
M  V30 3019 O 286.948 -1.61361 0.656377 0
M  V30 3020 C 284.08 -3.11365 1.38798 0
M  V30 3021 H 285.273 -1.67714 2.4862 0
M  V30 3022 H 282.826 -0.842737 1.31634 0
M  V30 3023 H 283.561 -3.21507 0.424693 0
M  V30 3024 H 283.346 -3.24644 2.19884 0
M  V30 3025 H 284.836 -3.91075 1.46458 0
M  V30 3026 N 285.273 -1.31445 -0.869486 0
M  V30 3027 C 286.684 -1.19042 -1.43826 0
M  V30 3028 C 287.035 0.202919 -1.95148 0
M  V30 3029 O 286.16 1.10071 -1.86315 0
M  V30 3030 C 286.755 -2.15499 -2.6143 0
M  V30 3031 C 285.314 -2.07028 -3.14351 0
M  V30 3032 C 284.461 -2.04701 -1.87063 0
M  V30 3033 H 287.412 -1.43489 -0.677984 0
M  V30 3034 H 287.433 -1.74488 -3.38134 0
M  V30 3035 H 286.945 -3.16899 -2.24046 0
M  V30 3036 H 285.046 -1.08825 -3.56354 0
M  V30 3037 H 285.159 -2.96157 -3.766 0
M  V30 3038 H 283.523 -1.49724 -2.06046 0
M  V30 3039 H 284.306 -3.07857 -1.51917 0
M  V30 3040 N 286.751 1.08385 -1.14413 0
M  V30 3041 C 287.979 1.84517 -0.936001 0
M  V30 3042 C 288.394 1.81626 0.515503 0
M  V30 3043 O 287.751 1.22008 1.35721 0
M  V30 3044 C 287.802 3.32049 -1.42918 0
M  V30 3045 O 287.523 3.34951 -2.82381 0
M  V30 3046 C 289.024 4.24986 -1.26103 0
M  V30 3047 H 286.244 0.582491 -0.333084 0
M  V30 3048 H 288.788 1.36885 -1.5193 0
M  V30 3049 H 286.943 3.7707 -0.888641 0
M  V30 3050 H 287.357 4.27048 -3.04517 0
M  V30 3051 H 288.831 5.26615 -1.6547 0
M  V30 3052 H 289.308 4.38726 -0.20392 0
M  V30 3053 H 289.914 3.85791 -1.79012 0
M  V30 3054 N 288.23 0.939286 1.26551 0
M  V30 3055 C 289.16 0.465044 2.28822 0
M  V30 3056 C 290.141 -0.480692 1.63167 0
M  V30 3057 O 291.326 -0.382955 1.90387 0
M  V30 3058 C 288.456 -0.27234 3.46231 0
M  V30 3059 C 287.41 0.58666 4.2396 0
M  V30 3060 C 286.736 -0.280573 5.33963 0
M  V30 3061 C 288.036 1.85704 4.88171 0
M  V30 3062 H 289.73 1.31979 2.68741 0
M  V30 3063 H 287.276 0.636061 1.29191 0
M  V30 3064 H 289.229 -0.615133 4.16886 0
M  V30 3065 H 287.953 -1.16121 3.0526 0
M  V30 3066 H 286.612 0.91232 3.55067 0
M  V30 3067 H 286.26 -1.16874 4.89234 0
M  V30 3068 H 285.96 0.29076 5.8688 0
M  V30 3069 H 287.484 -0.618678 6.07458 0
M  V30 3070 H 288.898 1.58161 5.51052 0
M  V30 3071 H 287.295 2.37279 5.51197 0
M  V30 3072 H 288.365 2.56957 4.11219 0
M  V30 3073 N 289.708 -1.40897 0.706093 0
M  V30 3074 C 290.671 -2.29131 0.0562841 0
M  V30 3075 C 291.671 -1.44901 -0.697166 0
M  V30 3076 O 292.861 -1.65926 -0.530484 0
M  V30 3077 C 289.993 -3.27957 -0.93043 0
M  V30 3078 H 291.186 -2.88091 0.833284 0
M  V30 3079 H 288.739 -1.4906 0.470192 0
M  V30 3080 H 289.474 -2.73997 -1.73482 0
M  V30 3081 H 289.259 -3.90124 -0.393166 0
M  V30 3082 H 290.749 -3.94049 -1.38256 0
M  V30 3083 N 291.186 -0.45159 -1.50991 0
M  V30 3084 C 292.602 -0.104647 -1.59257 0
M  V30 3085 C 292.802 1.38728 -1.4614 0
M  V30 3086 O 291.858 2.15866 -1.30989 0
M  V30 3087 C 293.171 -0.637468 -2.93865 0
M  V30 3088 C 294.719 -0.599166 -3.07212 0
M  V30 3089 C 295.194 -1.1092 -4.44366 0
M  V30 3090 N 296.685 -1.06778 -4.50725 0
M  V30 3091 C 297.42 -1.43314 -5.55201 0
M  V30 3092 N 296.916 -1.87204 -6.67028 0
M  V30 3093 N 298.709 -1.3504 -5.45638 0
M  V30 3094 H 290.86 -1.42214 -1.57762 0
M  V30 3095 H 293.123 -0.586921 -0.744465 0
M  V30 3096 H 292.829 -1.68187 -3.08879 0
M  V30 3097 H 292.703 -0.0702139 -3.77135 0
M  V30 3098 H 295.09 0.436277 -2.91857 0
M  V30 3099 H 295.171 -1.20299 -2.25747 0
M  V30 3100 H 294.815 -2.14318 -4.60467 0
M  V30 3101 H 294.745 -0.481773 -5.24392 0
M  V30 3102 H 297.236 -0.745643 -3.70471 0
M  V30 3103 H 297.549 -2.13282 -7.42786 0
M  V30 3104 H 295.894 -1.91142 -6.68199 0
M  V30 3105 H 299.085 -1.00607 -4.57161 0
M  V30 3106 H 299.258 -1.63841 -6.26945 0
M  V30 3107 N 292.664 1.56529 -0.183458 0
M  V30 3108 C 293.611 2.18546 0.742055 0
M  V30 3109 C 294.581 1.12912 1.2182 0
M  V30 3110 O 295.766 1.41115 1.28418 0
M  V30 3111 C 292.906 2.83977 1.96089 0
M  V30 3112 C 292.019 4.04105 1.52719 0
M  V30 3113 C 291.154 4.57427 2.70063 0
M  V30 3114 C 290.193 5.69938 2.23243 0
M  V30 3115 N 289.33 6.17717 3.33722 0
M  V30 3116 H 294.17 2.97284 0.206432 0
M  V30 3117 H 291.707 1.46823 0.0901571 0
M  V30 3118 H 293.665 3.20077 2.67594 0
M  V30 3119 H 292.295 2.07822 2.47002 0
M  V30 3120 H 291.347 3.73745 0.708436 0
M  V30 3121 H 292.659 4.85513 1.1436 0
M  V30 3122 H 291.813 4.95772 3.49708 0
M  V30 3123 H 290.552 3.75101 3.11689 0
M  V30 3124 H 289.557 5.31133 1.42048 0
M  V30 3125 H 290.782 6.54073 1.82661 0
M  V30 3126 H 288.728 5.38317 3.74902 0
M  V30 3127 H 288.645 6.94146 2.99495 0
M  V30 3128 H 289.913 6.60713 4.13616 0
M  V30 3129 N 294.142 -0.090211 1.57342 0
M  V30 3130 C 295.105 -1.09335 2.01441 0
M  V30 3131 C 296.105 -1.32666 0.908641 0
M  V30 3132 O 297.295 -1.28697 1.174 0
M  V30 3133 C 294.427 -2.44136 2.3793 0
M  V30 3134 H 295.62 -0.713662 2.91285 0
M  V30 3135 H 293.173 -0.335404 1.52659 0
M  V30 3136 H 293.908 -2.86972 1.51055 0
M  V30 3137 H 293.693 -2.28548 3.18603 0
M  V30 3138 H 295.183 -3.16277 2.72688 0
M  V30 3139 N 295.62 -1.53406 -0.361157 0
M  V30 3140 C 296.583 -1.79479 -1.42548 0
M  V30 3141 C 297.583 -0.665327 -1.4639 0
M  V30 3142 O 298.773 -0.933549 -1.47073 0
M  V30 3143 C 295.905 -1.92087 -2.8163 0
M  V30 3144 H 297.098 -2.74538 -1.20701 0
M  V30 3145 H 294.651 -1.4455 -0.594546 0
M  V30 3146 H 295.386 -0.991099 -3.08784 0
M  V30 3147 H 295.171 -2.74241 -2.80239 0
M  V30 3148 H 296.661 -2.13836 -3.58697 0
M  V30 3149 N 297.098 0.621204 -1.44841 0
M  V30 3150 C 298.008 1.7612 -1.5498 0
M  V30 3151 C 299.024 1.68477 -0.434927 0
M  V30 3152 O 300.2 1.89076 -0.693693 0
M  V30 3153 C 297.265 3.1254 -1.50065 0
M  V30 3154 C 296.326 3.31741 -2.72482 0
M  V30 3155 C 295.559 4.61653 -2.67792 0
M  V30 3156 O 295.782 5.431 -1.74352 0
M  V30 3157 O 294.716 4.83271 -3.58794 0
M  V30 3158 H 298.542 1.70518 -2.51311 0
M  V30 3159 H 296.127 0.783643 -1.27198 0
M  V30 3160 H 298.009 3.93844 -1.49882 0
M  V30 3161 H 296.684 3.18663 -0.568806 0
M  V30 3162 H 295.591 2.50077 -2.7823 0
M  V30 3163 H 296.924 3.30486 -3.64746 0
M  V30 3164 N 298.576 1.31904 0.862503 0
M  V30 3165 C 299.825 1.21373 1.61094 0
M  V30 3166 C 300.138 -0.22504 1.94301 0
M  V30 3167 O 301.344 -0.452121 2.67709 0
M  V30 3168 C 299.8 2.12525 2.9045 0
M  V30 3169 C 299.408 3.61441 2.64697 0
M  V30 3170 C 301.152 2.10813 3.68454 0
M  V30 3171 C 299.059 4.44578 3.90006 0
M  V30 3172 H 297.989 0.450705 0.604468 0
M  V30 3173 H 300.64 1.56811 0.953027 0
M  V30 3174 H 299.022 1.69994 3.57656 0
M  V30 3175 H 300.196 4.12264 2.05851 0
M  V30 3176 H 298.511 3.65205 2.00036 0
M  V30 3177 H 301.108 2.70167 4.61426 0
M  V30 3178 H 301.451 1.09713 4.01583 0
M  V30 3179 H 301.984 2.51583 3.08141 0
M  V30 3180 H 298.723 5.46461 3.62023 0
M  V30 3181 H 298.243 3.98508 4.48276 0
M  V30 3182 H 299.922 4.57176 4.5782 0
M  V30 3183 N 300.054 -1.07777 1.14986 0
M  V30 3184 C 301.3 -1.80557 0.923422 0
M  V30 3185 C 301.633 -1.86298 -0.548337 0
M  V30 3186 O 300.908 -1.34354 -1.40639 0
M  V30 3187 C 301.191 -3.25839 1.53299 0
M  V30 3188 C 301.044 -3.28269 3.07505 0
M  V30 3189 C 302.363 -4.22991 1.21518 0
M  V30 3190 H 299.482 -0.655493 0.336894 0
M  V30 3191 H 302.124 -1.26144 1.42083 0
M  V30 3192 H 300.274 -3.72306 1.10999 0
M  V30 3193 H 301.946 -2.90079 3.58681 0
M  V30 3194 H 300.189 -2.67355 3.4162 0
M  V30 3195 H 300.86 -4.30691 3.45266 0
M  V30 3196 H 303.336 -3.84894 1.581 0
M  V30 3197 H 302.212 -5.22945 1.66793 0
M  V30 3198 H 302.473 -4.41904 0.131505 0
M  V30 3199 N 301.532 -0.945985 -1.26051 0
M  V30 3200 C 302.809 -0.513816 -1.88731 0
M  V30 3201 C 303.189 1.00872 -1.8544 0
M  V30 3202 O 302.537 1.8708 -1.312 0
M  V30 3203 C 302.747 -1.08062 -3.31849 0
M  V30 3204 C 304.095 -1.1522 -4.08668 0
M  V30 3205 O 305.119 -1.03155 -3.40936 0
M  V30 3206 O 303.978 -1.34044 -5.29806 0
M  V30 3207 H 301.072 -0.168193 -0.809716 0
M  V30 3208 H 303.618 -1.03886 -1.34186 0
M  V30 3209 H 302.39 -2.1241 -3.2863 0
M  V30 3210 H 302.013 -0.538307 -3.93939 0
M  V30 3211 N 303.011 1.40521 -0.713556 0
M  V30 3212 C 303.974 2.29098 -0.0684347 0
M  V30 3213 C 304.974 1.45268 0.689472 0
M  V30 3214 O 306.164 1.66205 0.521677 0
M  V30 3215 C 303.296 3.28446 0.913024 0
M  V30 3216 H 304.489 2.87645 -0.84855 0
M  V30 3217 H 302.042 1.48809 -0.47809 0
M  V30 3218 H 302.777 2.74913 1.72027 0
M  V30 3219 H 302.562 3.90327 0.372472 0
M  V30 3220 H 304.052 3.94777 1.36165 0
M  V30 3221 N 304.489 0.459591 1.5075 0
M  V30 3222 C 305.419 -0.330644 2.31147 0
M  V30 3223 C 306.4 -1.00087 1.37538 0
M  V30 3224 O 307.585 -1.00025 1.66459 0
M  V30 3225 C 304.715 -1.41958 3.16962 0
M  V30 3226 C 303.669 -0.871608 4.19031 0
M  V30 3227 C 302.995 -2.05797 4.9351 0
M  V30 3228 C 304.295 0.109251 5.22186 0
M  V30 3229 H 305.989 0.340336 2.97459 0
M  V30 3230 H 303.535 0.165119 1.4305 0
M  V30 3231 H 305.488 -1.9798 3.71997 0
M  V30 3232 H 304.212 -2.11917 2.48513 0
M  V30 3233 H 302.871 -0.333442 3.6508 0
M  V30 3234 H 302.519 -2.74427 4.21544 0
M  V30 3235 H 302.219 -1.6976 5.62544 0
M  V30 3236 H 303.743 -2.62331 5.51375 0
M  V30 3237 H 305.157 -0.361405 5.7216 0
M  V30 3238 H 303.554 0.383316 5.98875 0
M  V30 3239 H 304.624 1.03887 4.73641 0
M  V30 3240 N 305.967 -1.56429 0.191757 0
M  V30 3241 C 306.93 -2.17707 -0.716688 0
M  V30 3242 C 307.93 -1.13061 -1.14341 0
M  V30 3243 O 309.12 -1.38464 -1.05704 0
M  V30 3244 C 306.252 -2.77644 -1.97804 0
M  V30 3245 H 307.445 -2.99342 -0.1829 0
M  V30 3246 H 304.998 -1.56193 -0.0578566 0
M  V30 3247 H 305.733 -1.99799 -2.55443 0
M  V30 3248 H 305.518 -3.54246 -1.68083 0
M  V30 3249 H 307.008 -3.24708 -2.62592 0
M  V30 3250 N 307.445 0.0818655 -1.57387 0
M  V30 3251 C 308.375 1.09885 -2.06028 0
M  V30 3252 C 309.356 1.4098 -0.951774 0
M  V30 3253 O 310.541 1.50781 -1.22387 0
M  V30 3254 C 307.671 2.4151 -2.4958 0
M  V30 3255 C 306.625 2.24792 -3.64215 0
M  V30 3256 C 305.951 3.61712 -3.93787 0
M  V30 3257 C 307.251 1.67749 -4.94629 0
M  V30 3258 H 308.945 0.694128 -2.91243 0
M  V30 3259 H 306.491 0.332448 -1.4011 0
M  V30 3260 H 308.444 3.12939 -2.82219 0
M  V30 3261 H 307.168 2.83943 -1.61381 0
M  V30 3262 H 305.827 1.55807 -3.31843 0
M  V30 3263 H 305.475 4.01697 -3.02735 0
M  V30 3264 H 305.175 3.51368 -4.70971 0
M  V30 3265 H 306.699 4.34587 -4.28913 0
M  V30 3266 H 308.113 2.29032 -5.25564 0
M  V30 3267 H 306.51 1.68128 -5.76067 0
M  V30 3268 H 307.58 0.638059 -4.80684 0
M  V30 3269 N 308.923 1.53595 0.353017 0
M  V30 3270 C 309.833 1.83897 1.45667 0
M  V30 3271 C 310.849 0.728334 1.58023 0
M  V30 3272 O 312.025 1.01968 1.73679 0
M  V30 3273 C 309.09 2.03383 2.80778 0
M  V30 3274 C 308.151 3.27262 2.77845 0
M  V30 3275 C 307.384 3.45809 4.06512 0
M  V30 3276 O 307.607 2.68387 5.03314 0
M  V30 3277 O 306.541 4.39207 4.11559 0
M  V30 3278 H 310.367 2.77686 1.2298 0
M  V30 3279 H 307.952 1.39132 0.544308 0
M  V30 3280 H 309.834 2.17698 3.60812 0
M  V30 3281 H 308.509 1.12783 3.03417 0
M  V30 3282 H 307.416 3.18359 1.96465 0
M  V30 3283 H 308.749 4.17824 2.60161 0
M  V30 3284 N 310.401 -0.613514 1.45168 0
M  V30 3285 C 311.817 -0.933629 1.29443 0
M  V30 3286 C 312.017 -2.00028 0.243101 0
M  V30 3287 O 311.073 -2.49848 -0.364992 0
M  V30 3288 C 312.386 -1.38018 2.67155 0
M  V30 3289 C 313.934 -1.49471 2.75004 0
M  V30 3290 C 314.409 -1.97503 4.13227 0
M  V30 3291 N 315.9 -2.04746 4.15491 0
M  V30 3292 C 316.635 -2.43121 5.19307 0
M  V30 3293 N 316.131 -2.80506 6.33473 0
M  V30 3294 N 317.924 -2.43408 5.06664 0
M  V30 3295 H 310.075 0.0916097 2.12202 0
M  V30 3296 H 312.338 -0.0216655 0.947752 0
M  V30 3297 H 312.044 -0.670625 3.45247 0
M  V30 3298 H 311.918 -2.34784 2.95222 0
M  V30 3299 H 314.305 -2.19519 1.9722 0
M  V30 3300 H 314.386 -0.510342 2.50657 0
M  V30 3301 H 314.03 -1.28045 4.91495 0
M  V30 3302 H 313.96 -2.96843 4.34962 0
M  V30 3303 H 316.451 -1.78468 3.33103 0
M  V30 3304 H 316.764 -3.08652 7.08487 0
M  V30 3305 H 315.109 -2.78216 6.36884 0
M  V30 3306 H 318.3 -2.13604 4.16523 0
M  V30 3307 H 318.473 -2.72989 5.87691 0
M  V30 3308 N 311.879 -1.3236 -0.855495 0
M  V30 3309 C 312.842 -1.21164 -1.94556 0
M  V30 3310 C 313.842 -0.134908 -1.60233 0
M  V30 3311 O 315.032 -0.385249 -1.69887 0
M  V30 3312 C 312.164 -0.863192 -3.29791 0
M  V30 3313 H 313.357 -2.18038 -2.05911 0
M  V30 3314 H 310.91 -1.16179 -1.04557 0
M  V30 3315 H 311.645 0.103769 -3.24134 0
M  V30 3316 H 311.43 -1.64166 -3.56078 0
M  V30 3317 H 312.92 -0.809156 -4.09686 0
M  V30 3318 N 313.357 1.07166 -1.15556 0
M  V30 3319 C 314.29 2.13808 -0.797593 0
M  V30 3320 C 315.268 1.6101 0.226812 0
M  V30 3321 O 316.452 1.88161 0.112932 0
M  V30 3322 C 313.579 3.38187 -0.186371 0
M  V30 3323 C 312.625 4.09766 -1.18297 0
M  V30 3324 S 313.458 4.60932 -2.72584 0
M  V30 3325 C 314.614 5.88583 -2.12886 0
M  V30 3326 H 314.847 2.43843 -1.70083 0
M  V30 3327 H 312.38 1.19467 -0.978106 0
M  V30 3328 H 314.338 4.10189 0.159837 0
M  V30 3329 H 312.999 3.06326 0.694489 0
M  V30 3330 H 312.192 4.99065 -0.703562 0
M  V30 3331 H 311.794 3.43736 -1.47381 0
M  V30 3332 H 314.086 6.60866 -1.49208 0
M  V30 3333 H 315.029 6.41241 -3.0036 0
M  V30 3334 H 315.437 5.42194 -1.57116 0
M  V30 3335 N 314.835 0.952656 1.25548 0
M  V30 3336 C 315.783 0.462354 2.27958 0
M  V30 3337 C 316.777 -0.46634 1.62855 0
M  V30 3338 O 317.983 -0.343287 1.76696 0
M  V30 3339 H 314.358 0.13101 0.7405 0
M  V30 3340 H 316.329 1.33839 2.66702 0
M  V30 3341 C 315.078 -0.24628 3.46827 0
M  V30 3342 H 314.401 0.459192 3.97154 0
M  V30 3343 H 315.841 -0.553393 4.20373 0
M  V30 3344 C 314.3 -1.4681 3.0323 0
M  V30 3345 O 314.83 -2.56591 3.09069 0
M  V30 3346 N 313.036 -1.32874 2.58443 0
M  V30 3347 H 312.583 -0.435536 2.53891 0
M  V30 3348 H 312.541 -2.14742 2.29637 0
M  V30 3349 N 316.313 -1.40141 0.720998 0
M  V30 3350 C 317.26 -2.30688 0.071919 0
M  V30 3351 C 318.23 -1.48476 -0.744584 0
M  V30 3352 O 319.415 -1.77201 -0.707423 0
M  V30 3353 C 316.555 -3.34724 -0.839855 0
M  V30 3354 C 315.668 -4.31998 -0.0122438 0
M  V30 3355 C 314.803 -5.23102 -0.923995 0
M  V30 3356 C 313.842 -6.12033 -0.0907969 0
M  V30 3357 N 312.979 -6.95537 -0.957718 0
M  V30 3358 H 317.819 -2.85628 0.849755 0
M  V30 3359 H 315.356 -1.40653 0.430726 0
M  V30 3360 H 317.314 -3.93618 -1.38279 0
M  V30 3361 H 315.944 -2.81274 -1.58381 0
M  V30 3362 H 314.996 -3.74841 0.64794 0
M  V30 3363 H 316.308 -4.94772 0.632595 0
M  V30 3364 H 315.462 -5.86953 -1.53527 0
M  V30 3365 H 314.201 -4.60615 -1.60264 0
M  V30 3366 H 313.206 -5.47207 0.533377 0
M  V30 3367 H 314.431 -6.76581 0.584428 0
M  V30 3368 H 312.377 -6.35633 -1.62192 0
M  V30 3369 H 312.294 -7.55099 -0.36904 0
M  V30 3370 H 313.562 -7.63832 -1.555 0
M  V30 3371 N 317.792 -0.46758 -1.50504 0
M  V30 3372 C 319.069 0.15003 -1.95024 0
M  V30 3373 C 319.449 1.57304 -1.40779 0
M  V30 3374 O 318.797 2.20281 -0.607319 0
M  V30 3375 C 319.007 0.0969324 -3.48865 0
M  V30 3376 C 320.355 0.287565 -4.23625 0
M  V30 3377 O 321.379 0.173678 -3.55776 0
M  V30 3378 O 320.238 0.517186 -5.44047 0
M  V30 3379 H 317.332 0.113582 -0.819163 0
M  V30 3380 H 319.878 -0.52773 -1.61286 0
M  V30 3381 H 318.65 -0.896732 -3.80886 0
M  V30 3382 H 318.273 0.816303 -3.8913 0
M  V30 3383 N 319.27 1.56325 -0.20005 0
M  V30 3384 C 320.18 2.22931 0.730668 0
M  V30 3385 C 321.196 1.22997 1.23076 0
M  V30 3386 O 322.372 1.55748 1.27689 0
M  V30 3387 C 319.437 2.87948 1.93098 0
M  V30 3388 C 318.498 4.03166 1.47497 0
M  V30 3389 C 317.731 4.65073 2.61807 0
M  V30 3390 O 317.954 4.25913 3.79413 0
M  V30 3391 O 316.888 5.54452 2.34237 0
M  V30 3392 H 320.714 3.03084 0.193391 0
M  V30 3393 H 318.299 1.49371 0.0294621 0
M  V30 3394 H 320.181 3.29063 2.6324 0
M  V30 3395 H 318.856 2.10771 2.45677 0
M  V30 3396 H 317.763 3.66664 0.742201 0
M  V30 3397 H 319.096 4.82022 0.995796 0
M  V30 3398 N 320.748 -0.0735177 1.57428 0
M  V30 3399 C 321.997 -0.771809 1.86349 0
M  V30 3400 C 322.31 -1.78828 0.792452 0
M  V30 3401 O 323.516 -2.53602 0.96945 0
M  V30 3402 C 321.972 -1.42358 3.30548 0
M  V30 3403 C 321.58 -0.445761 4.45777 0
M  V30 3404 C 323.324 -2.10434 3.6867 0
M  V30 3405 C 321.231 -1.10335 5.81016 0
M  V30 3406 H 320.161 -0.291999 0.695164 0
M  V30 3407 H 322.812 -0.0250749 1.83483 0
M  V30 3408 H 321.194 -2.21852 3.28021 0
M  V30 3409 H 322.368 0.319239 4.59693 0
M  V30 3410 H 320.683 0.130457 4.16196 0
M  V30 3411 H 323.28 -2.60405 4.67004 0
M  V30 3412 H 323.623 -2.90298 2.98383 0
M  V30 3413 H 324.156 -1.37773 3.7318 0
M  V30 3414 H 320.895 -0.345061 6.54591 0
M  V30 3415 H 320.415 -1.83925 5.70904 0
M  V30 3416 H 322.094 -1.62367 6.26295 0
M  V30 3417 N 322.226 -1.5378 -0.344866 0
M  V30 3418 C 323.156 -1.84662 -1.42906 0
M  V30 3419 C 324.137 -0.701648 -1.54955 0
M  V30 3420 O 325.322 -0.953438 -1.69184 0
M  V30 3421 C 322.452 -2.05503 -2.79974 0
M  V30 3422 C 321.406 -3.21318 -2.82734 0
M  V30 3423 C 320.732 -3.2749 -4.22675 0
M  V30 3424 C 322.032 -4.59456 -2.48389 0
M  V30 3425 H 323.726 -2.75461 -1.17311 0
M  V30 3426 H 321.272 -1.32542 -0.562896 0
M  V30 3427 H 323.225 -2.25691 -3.55867 0
M  V30 3428 H 321.949 -1.11434 -3.07002 0
M  V30 3429 H 320.608 -3.00984 -2.09294 0
M  V30 3430 H 320.256 -2.31019 -4.4681 0
M  V30 3431 H 319.956 -4.05316 -4.25433 0
M  V30 3432 H 321.48 -3.49887 -5.00412 0
M  V30 3433 H 322.894 -4.79667 -3.13995 0
M  V30 3434 H 321.291 -5.39675 -2.62432 0
M  V30 3435 H 322.361 -4.63155 -1.4358 0
M  V30 3436 N 323.704 0.605807 -1.45491 0
M  V30 3437 C 324.932 1.39136 -1.5313 0
M  V30 3438 C 325.347 1.88082 -0.164507 0
M  V30 3439 O 324.704 1.62316 0.834247 0
M  V30 3440 C 324.755 2.59463 -2.51716 0
M  V30 3441 O 324.476 2.12551 -3.83084 0
M  V30 3442 C 325.977 3.52301 -2.6907 0
M  V30 3443 H 323.197 0.425849 -0.51855 0
M  V30 3444 H 325.741 0.73865 -1.90694 0
M  V30 3445 H 323.896 3.20772 -2.17219 0
M  V30 3446 H 324.31 2.90744 -4.36541 0
M  V30 3447 H 325.784 4.33271 -3.42024 0
M  V30 3448 H 326.261 4.02757 -1.75167 0
M  V30 3449 H 326.867 2.96845 -3.04571 0
M  V30 3450 N 325.182 1.32811 0.848464 0
M  V30 3451 C 326.41 1.26739 1.63538 0
M  V30 3452 C 326.825 -0.163484 1.88091 0
M  V30 3453 O 326.182 -1.10258 1.45429 0
M  V30 3454 C 326.233 2.03013 2.99112 0
M  V30 3455 O 325.954 3.40518 2.75643 0
M  V30 3456 C 327.455 2.04038 3.93552 0
M  V30 3457 H 324.675 0.437024 0.509167 0
M  V30 3458 H 327.219 1.75033 1.05753 0
M  V30 3459 H 325.374 1.58426 3.53525 0
M  V30 3460 H 325.788 3.79635 3.61908 0
M  V30 3461 H 327.262 2.61877 4.85926 0
M  V30 3462 H 327.739 1.0282 4.26995 0
M  V30 3463 H 328.345 2.486 3.45077 0
M  V30 3464 N 326.66 -1.06551 1.16123 0
M  V30 3465 C 327.89 -1.8274 0.963838 0
M  V30 3466 C 328.298 -1.82712 -0.491228 0
M  V30 3467 O 327.641 -1.24294 -1.35265 0
M  V30 3468 C 327.703 -3.3065 1.41106 0
M  V30 3469 C 327.367 -3.54384 2.88549 0
M  V30 3470 C 328.364 -3.4765 3.86569 0
M  V30 3471 C 326.049 -3.81789 3.26408 0
M  V30 3472 C 328.043 -3.67982 5.2045 0
M  V30 3473 C 325.73 -4.01772 4.60459 0
M  V30 3474 C 326.728 -3.94866 5.57288 0
M  V30 3475 O 326.416 -4.14306 6.88916 0
M  V30 3476 H 326.148 -0.583136 0.341948 0
M  V30 3477 H 328.702 -1.35351 1.54497 0
M  V30 3478 H 326.932 -3.78887 0.773394 0
M  V30 3479 H 328.621 -3.88324 1.1815 0
M  V30 3480 H 329.387 -3.2647 3.58667 0
M  V30 3481 H 325.266 -3.86276 2.51619 0
M  V30 3482 H 328.81 -3.62507 5.96015 0
M  V30 3483 H 324.707 -4.2244 4.88072 0
M  V30 3484 H 325.475 -4.31609 6.95454 0
M  V30 3485 N 328.138 -0.959301 -1.25041 0
M  V30 3486 C 329.068 -0.501388 -2.28053 0
M  V30 3487 C 330.049 0.454673 -1.63911 0
M  V30 3488 O 331.234 0.352618 -1.90972 0
M  V30 3489 C 328.364 0.217224 -3.4662 0
M  V30 3490 C 327.318 -0.654034 -4.22973 0
M  V30 3491 C 326.644 0.195589 -5.34342 0
M  V30 3492 C 327.944 -1.93447 -4.85155 0
M  V30 3493 H 329.638 -1.36238 -2.66608 0
M  V30 3494 H 327.184 -0.656534 -1.28163 0
M  V30 3495 H 329.137 0.548732 -4.17812 0
M  V30 3496 H 327.861 1.1125 -3.07068 0
M  V30 3497 H 326.52 -0.968693 -3.5357 0
M  V30 3498 H 326.168 1.09076 -4.91031 0
M  V30 3499 H 325.868 -0.384091 -5.86343 0
M  V30 3500 H 327.392 0.521958 -6.08365 0
M  V30 3501 H 328.806 -1.66908 -5.48466 0
M  V30 3502 H 327.203 -2.46018 -5.47353 0
M  V30 3503 H 328.273 -2.63466 -4.07079 0
M  V30 3504 N 329.616 1.39756 -0.72842 0
M  V30 3505 C 330.564 2.32485 -0.0731849 0
M  V30 3506 C 331.558 1.52717 0.733063 0
M  V30 3507 O 332.764 1.68428 0.634988 0
M  V30 3508 H 329.139 0.751984 -0.00486469 0
M  V30 3509 H 331.11 2.85382 -0.871761 0
M  V30 3510 C 329.859 3.37773 0.824908 0
M  V30 3511 H 329.182 3.99227 0.213915 0
M  V30 3512 H 330.622 4.05121 1.25111 0
M  V30 3513 C 329.081 2.74287 1.95622 0
M  V30 3514 O 329.611 2.61618 3.04826 0
M  V30 3515 N 327.817 2.32475 1.74367 0
M  V30 3516 H 327.364 2.4298 0.855494 0
M  V30 3517 H 327.322 1.90337 2.50238 0
M  V30 3518 N 331.094 0.475555 1.50254 0
M  V30 3519 C 332.34 -0.0780073 2.0265 0
M  V30 3520 C 332.673 -1.38968 1.35652 0
M  V30 3521 O 331.948 -1.8839 0.483691 0
M  V30 3522 C 332.231 -0.257161 3.59181 0
M  V30 3523 C 332.084 1.07585 4.36744 0
M  V30 3524 C 333.403 -1.00965 4.28362 0
M  V30 3525 H 330.522 -0.0268758 0.73651 0
M  V30 3526 H 333.164 0.622015 1.7953 0
M  V30 3527 H 331.314 -0.853412 3.79011 0
M  V30 3528 H 332.986 1.70902 4.28474 0
M  V30 3529 H 331.229 1.6714 4.00308 0
M  V30 3530 H 331.9 0.904088 5.44546 0
M  V30 3531 H 334.376 -0.504214 4.13034 0
M  V30 3532 H 333.252 -1.10381 5.37687 0
M  V30 3533 H 333.513 -2.04731 3.91839 0
M  V30 3534 N 332.573 -1.56217 0.208337 0
M  V30 3535 C 333.536 -2.18455 -0.693557 0
M  V30 3536 C 334.536 -1.14268 -1.13135 0
M  V30 3537 O 335.726 -1.39577 -1.0423 0
M  V30 3538 C 332.858 -2.79727 -1.94848 0
M  V30 3539 H 334.051 -2.99519 -0.15114 0
M  V30 3540 H 331.604 -1.56245 -0.041287 0
M  V30 3541 H 332.339 -2.02497 -2.53309 0
M  V30 3542 H 332.124 -3.56009 -1.64316 0
M  V30 3543 H 333.614 -3.27475 -2.59133 0
M  V30 3544 N 334.051 0.0651679 -1.57465 0
M  V30 3545 C 335.462 0.616213 -1.76238 0
M  V30 3546 C 335.813 1.7756 -0.834689 0
M  V30 3547 O 334.938 2.1639 -0.0204156 0
M  V30 3548 C 335.533 1.12462 -3.1959 0
M  V30 3549 C 334.092 1.62147 -3.39684 0
M  V30 3550 C 333.239 0.543739 -2.71917 0
M  V30 3551 H 336.19 -0.161022 -1.57881 0
M  V30 3552 H 336.211 1.99324 -3.24114 0
M  V30 3553 H 335.723 0.280592 -3.87084 0
M  V30 3554 H 333.824 2.48854 -2.77313 0
M  V30 3555 H 333.937 1.69385 -4.48158 0
M  V30 3556 H 332.301 0.990352 -2.34657 0
M  V30 3557 H 333.084 -0.290216 -3.42071 0
M  V30 3558 N 335.529 1.53961 0.336706 0
M  V30 3559 C 336.776 1.71536 1.07618 0
M  V30 3560 C 337.104 0.482125 1.8843 0
M  V30 3561 O 336.359 -0.536142 1.88213 0
M  V30 3562 C 336.658 2.93493 2.03953 0
M  V30 3563 C 336.324 4.28811 1.39399 0
M  V30 3564 C 334.986 4.65602 1.21523 0
M  V30 3565 C 337.338 5.12844 0.929541 0
M  V30 3566 C 334.666 5.84037 0.558312 0
M  V30 3567 C 337.018 6.31951 0.286505 0
M  V30 3568 C 335.682 6.67432 0.0954869 0
M  V30 3569 H 334.952 0.627696 0.393801 0
M  V30 3570 H 337.599 1.88186 0.354715 0
M  V30 3571 H 335.904 2.71475 2.82504 0
M  V30 3572 H 337.601 3.04285 2.61174 0
M  V30 3573 H 334.191 3.99858 1.54311 0
M  V30 3574 H 338.375 4.84947 1.05548 0
M  V30 3575 H 333.631 6.10097 0.398995 0
M  V30 3576 H 337.805 6.96352 -0.0814376 0
M  V30 3577 H 335.432 7.59063 -0.415579 0
M  V30 3578 N 337.007 -0.598083 1.45811 0
M  V30 3579 C 338.255 -1.35413 1.50026 0
M  V30 3580 C 338.576 -1.94444 0.147177 0
M  V30 3581 O 337.846 -1.77701 -0.824571 0
M  V30 3582 H 336.426 -0.502727 0.552517 0
M  V30 3583 H 339.088 -0.701606 1.81834 0
M  V30 3584 H 338.184 -2.16871 2.2444 0
M  V30 3585 N 338.485 -1.33259 -0.841409 0
M  V30 3586 C 339.901 -1.12538 -1.13169 0
M  V30 3587 C 340.101 0.0854037 -2.01319 0
M  V30 3588 O 339.157 0.766417 -2.40587 0
M  V30 3589 C 340.47 -2.41156 -1.79623 0
M  V30 3590 C 342.018 -2.47038 -1.922 0
M  V30 3591 C 342.493 -3.7561 -2.6207 0
M  V30 3592 N 343.984 -3.76667 -2.69585 0
M  V30 3593 C 344.719 -4.72861 -3.2433 0
M  V30 3594 N 344.215 -5.79428 -3.79783 0
M  V30 3595 N 346.008 -4.6034 -3.22558 0
M  V30 3596 H 338.159 -2.10868 -0.254676 0
M  V30 3597 H 340.422 -0.931615 -0.175493 0
M  V30 3598 H 340.128 -3.29747 -1.22311 0
M  V30 3599 H 340.002 -2.53114 -2.79666 0
M  V30 3600 H 342.389 -1.58898 -2.48667 0
M  V30 3601 H 342.47 -2.39022 -0.911148 0
M  V30 3602 H 342.114 -4.64131 -2.06263 0
M  V30 3603 H 342.044 -3.80902 -3.63622 0
M  V30 3604 H 344.535 -2.99648 -2.30259 0
M  V30 3605 H 344.848 -6.48867 -4.19752 0
M  V30 3606 H 343.193 -5.83166 -3.78078 0
M  V30 3607 H 346.384 -3.76244 -2.78492 0
M  V30 3608 H 346.557 -5.35478 -3.64921 0
M  V30 3609 N 339.963 1.05934 -1.16686 0
M  V30 3610 C 340.911 2.15603 -0.872817 0
M  V30 3611 C 341.905 1.68647 0.159576 0
M  V30 3612 O 343.111 1.79995 0.0132125 0
M  V30 3613 H 339.486 0.703885 -0.264671 0
M  V30 3614 H 341.457 2.37613 -1.80507 0
M  V30 3615 C 340.206 3.45457 -0.394344 0
M  V30 3616 H 339.529 3.81984 -1.18019 0
M  V30 3617 H 340.969 4.2339 -0.227408 0
M  V30 3618 C 339.428 3.25021 0.88673 0
M  V30 3619 O 339.958 3.50906 1.95519 0
M  V30 3620 N 338.164 2.78437 0.831925 0
M  V30 3621 H 337.711 2.57572 -0.0377619 0
M  V30 3622 H 337.669 2.65144 1.68956 0
M  V30 3623 N 341.441 0.965919 1.2453 0
M  V30 3624 C 342.389 0.486506 2.27455 0
M  V30 3625 C 343.383 -0.449041 1.6334 0
M  V30 3626 O 344.589 -0.324527 1.7705 0
M  V30 3627 H 340.964 0.138857 0.739069 0
M  V30 3628 H 342.935 1.3666 2.65267 0
M  V30 3629 C 341.684 -0.209481 3.47068 0
M  V30 3630 H 341.007 0.50129 3.96645 0
M  V30 3631 H 342.447 -0.508775 4.20936 0
M  V30 3632 C 340.906 -1.43586 3.0477 0
M  V30 3633 O 341.436 -2.53299 3.11773 0
M  V30 3634 N 339.642 -1.30126 2.59838 0
M  V30 3635 H 339.189 -0.408583 2.54339 0
M  V30 3636 H 339.147 -2.12294 2.31902 0
M  V30 3637 N 342.919 -1.39368 0.735821 0
M  V30 3638 C 343.866 -2.30599 0.0963825 0
M  V30 3639 C 344.836 -1.49257 -0.728794 0
M  V30 3640 O 346.021 -1.77941 -0.688588 0
M  V30 3641 C 343.161 -3.35596 -0.804305 0
M  V30 3642 C 342.274 -4.31987 0.0335761 0
M  V30 3643 C 341.409 -5.24053 -0.868461 0
M  V30 3644 C 340.448 -6.12095 -0.0258776 0
M  V30 3645 N 339.585 -6.96514 -0.883893 0
M  V30 3646 H 344.425 -2.8471 0.880002 0
M  V30 3647 H 341.962 -1.40188 0.445619 0
M  V30 3648 H 343.92 -3.95062 -1.34096 0
M  V30 3649 H 342.55 -2.82938 -1.55389 0
M  V30 3650 H 341.602 -3.74133 0.68766 0
M  V30 3651 H 342.914 -4.94074 0.685036 0
M  V30 3652 H 342.068 -5.88549 -1.47293 0
M  V30 3653 H 340.807 -4.62289 -1.5537 0
M  V30 3654 H 339.812 -5.4661 0.591386 0
M  V30 3655 H 341.037 -6.75923 0.656156 0
M  V30 3656 H 338.983 -6.37318 -1.55441 0
M  V30 3657 H 338.9 -7.55448 -0.288931 0
M  V30 3658 H 340.168 -7.65439 -1.4739 0
M  V30 3659 N 344.397 -0.483516 -1.5 0
M  V30 3660 C 345.645 0.067027 -2.01989 0
M  V30 3661 C 345.966 1.3909 -1.36671 0
M  V30 3662 O 345.236 1.88978 -0.516152 0
M  V30 3663 H 343.816 0.0277606 -0.746484 0
M  V30 3664 H 346.478 -0.636773 -1.84204 0
M  V30 3665 H 345.574 0.209484 -3.11396 0
M  V30 3666 N 345.875 1.56104 -0.216619 0
M  V30 3667 C 346.807 2.17339 0.72776 0
M  V30 3668 C 347.82 1.14109 1.16116 0
M  V30 3669 O 349.009 1.4111 1.09317 0
M  V30 3670 C 346.109 2.73818 1.99693 0
M  V30 3671 C 345.282 4.02168 1.71988 0
M  V30 3672 C 344.341 4.43259 2.83562 0
M  V30 3673 O 343.367 5.10257 2.52244 0
M  V30 3674 N 344.569 4.08535 4.12407 0
M  V30 3675 H 347.334 2.99005 0.203983 0
M  V30 3676 H 344.895 1.61861 -0.0354289 0
M  V30 3677 H 346.887 2.9828 2.73516 0
M  V30 3678 H 345.457 1.96483 2.43132 0
M  V30 3679 H 344.677 3.85612 0.818337 0
M  V30 3680 H 345.965 4.85907 1.50903 0
M  V30 3681 H 345.363 3.54687 4.40696 0
M  V30 3682 H 343.92 4.37901 4.8279 0
M  V30 3683 N 347.353 -0.0568162 1.57498 0
M  V30 3684 C 348.301 -1.08452 2.05769 0
M  V30 3685 C 349.295 -1.39164 0.965903 0
M  V30 3686 O 350.501 -1.38395 1.15095 0
M  V30 3687 H 346.876 -0.367148 0.656282 0
M  V30 3688 H 348.847 -0.651368 2.91204 0
M  V30 3689 C 347.596 -2.38543 2.52968 0
M  V30 3690 H 346.919 -2.15765 3.36579 0
M  V30 3691 H 348.359 -3.08863 2.90481 0
M  V30 3692 C 346.818 -3.05562 1.41893 0
M  V30 3693 O 347.348 -3.94262 0.769442 0
M  V30 3694 N 345.554 -2.6643 1.16032 0
M  V30 3695 H 345.101 -1.94387 1.6903 0
M  V30 3696 H 345.059 -3.11593 0.419219 0
M  V30 3697 N 348.832 -1.54138 -0.328536 0
M  V30 3698 C 350.081 -1.71318 -1.06456 0
M  V30 3699 C 350.394 -0.491109 -1.89334 0
M  V30 3700 O 351.6 -0.54416 -2.65991 0
M  V30 3701 C 350.056 -3.03 -1.94214 0
M  V30 3702 C 349.664 -4.32595 -1.16471 0
M  V30 3703 C 351.408 -3.29544 -2.67583 0
M  V30 3704 C 349.315 -5.55341 -2.03347 0
M  V30 3705 H 348.245 -0.638429 -0.401155 0
M  V30 3706 H 350.896 -1.80633 -0.323106 0
M  V30 3707 H 349.278 -2.87579 -2.72239 0
M  V30 3708 H 350.452 -4.58766 -0.432525 0
M  V30 3709 H 348.767 -4.12777 -0.548063 0
M  V30 3710 H 351.364 -4.18444 -3.3288 0
M  V30 3711 H 351.707 -2.47206 -3.34955 0
M  V30 3712 H 352.24 -3.45809 -1.96623 0
M  V30 3713 H 348.979 -6.40268 -1.40491 0
M  V30 3714 H 348.499 -5.33397 -2.74313 0
M  V30 3715 H 350.178 -5.91557 -2.62049 0
M  V30 3716 N 350.31 0.590341 -1.46126 0
M  V30 3717 C 351.273 1.68194 -1.55703 0
M  V30 3718 C 352.273 1.54808 -0.434868 0
M  V30 3719 O 353.463 1.59564 -0.698928 0
M  V30 3720 C 350.595 3.07575 -1.47005 0
M  V30 3721 H 351.788 1.61064 -2.52979 0
M  V30 3722 H 349.341 0.807541 -1.33823 0
M  V30 3723 H 350.076 3.20268 -0.509785 0
M  V30 3724 H 349.861 3.187 -2.28414 0
M  V30 3725 H 351.351 3.87055 -1.56776 0
M  V30 3726 N 351.788 1.33704 0.83433 0
M  V30 3727 C 353.036 1.25169 1.58673 0
M  V30 3728 C 353.357 -0.18127 1.94156 0
M  V30 3729 O 352.627 -1.11113 1.6134 0
M  V30 3730 H 351.207 0.4603 0.58833 0
M  V30 3731 H 353.869 1.67478 0.996847 0
M  V30 3732 H 352.965 1.84856 2.51465 0
M  V30 3733 N 353.266 -1.05314 1.17247 0
M  V30 3734 C 354.229 -2.112 0.890357 0
M  V30 3735 C 355.229 -1.60359 -0.118943 0
M  V30 3736 O 356.419 -1.73833 0.113086 0
M  V30 3737 C 353.551 -3.39266 0.333422 0
M  V30 3738 H 354.744 -2.37659 1.82916 0
M  V30 3739 H 352.297 -1.21538 0.982758 0
M  V30 3740 H 353.032 -3.18462 -0.612587 0
M  V30 3741 H 352.817 -3.77477 1.06082 0
M  V30 3742 H 354.307 -4.17315 0.154322 0
M  V30 3743 N 354.744 -0.972509 -1.24016 0
M  V30 3744 C 356.16 -0.679827 -1.44397 0
M  V30 3745 C 356.36 0.756716 -1.86751 0
M  V30 3746 O 355.416 1.53007 -2.00861 0
M  V30 3747 C 356.729 -1.66803 -2.50195 0
M  V30 3748 C 358.277 -1.68119 -2.64017 0
M  V30 3749 C 358.752 -2.65748 -3.73017 0
M  V30 3750 N 360.243 -2.64219 -3.8045 0
M  V30 3751 C 360.978 -3.36433 -4.64328 0
M  V30 3752 N 360.474 -4.1818 -5.52356 0
M  V30 3753 N 362.267 -3.25235 -4.58453 0
M  V30 3754 H 354.418 -1.90059 -0.948228 0
M  V30 3755 H 356.681 -0.818527 -0.478245 0
M  V30 3756 H 356.387 -2.69498 -2.25973 0
M  V30 3757 H 356.261 -1.4446 -3.48441 0
M  V30 3758 H 358.648 -0.661319 -2.87594 0
M  V30 3759 H 358.729 -1.94525 -1.66113 0
M  V30 3760 H 358.373 -3.67872 -3.50189 0
M  V30 3761 H 358.303 -2.36619 -4.70446 0
M  V30 3762 H 360.794 -2.04887 -3.17537 0
M  V30 3763 H 361.107 -4.70157 -6.13329 0
M  V30 3764 H 359.452 -4.22273 -5.52006 0
M  V30 3765 H 362.643 -2.60829 -3.88698 0
M  V30 3766 H 362.816 -3.81776 -5.23594 0
M  V30 3767 N 356.222 1.38976 -0.743202 0
M  V30 3768 C 357.154 2.29096 -0.0689228 0
M  V30 3769 C 358.167 1.47229 0.694791 0
M  V30 3770 O 359.356 1.70212 0.537597 0
M  V30 3771 C 356.456 3.25988 0.926548 0
M  V30 3772 C 355.629 4.36833 0.222647 0
M  V30 3773 C 354.688 5.13981 1.12739 0
M  V30 3774 O 353.714 5.6601 0.601795 0
M  V30 3775 N 354.916 5.25966 2.45641 0
M  V30 3776 H 357.681 2.87604 -0.842846 0
M  V30 3777 H 355.242 1.50645 -0.593109 0
M  V30 3778 H 357.234 3.74476 1.5346 0
M  V30 3779 H 355.804 2.68453 1.60162 0
M  V30 3780 H 355.024 3.90116 -0.565983 0
M  V30 3781 H 356.312 5.0811 -0.264841 0
M  V30 3782 H 355.71 4.85228 2.9081 0
M  V30 3783 H 354.267 5.77865 3.01522 0
M  V30 3784 N 357.7 0.491464 1.49741 0
M  V30 3785 C 358.663 -0.280906 2.27472 0
M  V30 3786 C 359.663 -0.902454 1.33088 0
M  V30 3787 O 360.853 -0.768465 1.56334 0
M  V30 3788 C 357.985 -1.40209 3.10732 0
M  V30 3789 H 359.178 0.401056 2.97206 0
M  V30 3790 H 356.731 0.246131 1.5435 0
M  V30 3791 H 357.466 -2.11849 2.45541 0
M  V30 3792 H 357.251 -0.961969 3.80117 0
M  V30 3793 H 358.741 -1.9464 3.69466 0
M  V30 3794 N 359.178 -1.55987 0.224894 0
M  V30 3795 C 360.141 -2.19178 -0.670348 0
M  V30 3796 C 361.141 -1.15461 -1.11917 0
M  V30 3797 O 362.331 -1.40675 -1.02743 0
M  V30 3798 C 359.463 -2.81777 -1.9187 0
M  V30 3799 H 360.656 -2.99662 -0.119364 0
M  V30 3800 H 358.209 -1.5628 -0.0247128 0
M  V30 3801 H 358.944 -2.05172 -2.51147 0
M  V30 3802 H 358.729 -3.57732 -1.60531 0
M  V30 3803 H 360.219 -3.30205 -2.55645 0
M  V30 3804 N 360.656 0.0484629 -1.57525 0
M  V30 3805 C 361.566 1.07241 -2.08654 0
M  V30 3806 C 362.582 1.409 -1.02095 0
M  V30 3807 O 363.758 1.50609 -1.33712 0
M  V30 3808 C 360.823 2.36008 -2.5397 0
M  V30 3809 C 359.884 2.09108 -3.7493 0
M  V30 3810 C 359.117 3.31736 -4.18075 0
M  V30 3811 O 359.34 4.41714 -3.60895 0
M  V30 3812 O 358.274 3.18576 -5.10679 0
M  V30 3813 H 362.1 0.667965 -2.96263 0
M  V30 3814 H 359.685 0.26417 -1.47046 0
M  V30 3815 H 361.567 3.11747 -2.83535 0
M  V30 3816 H 360.242 2.75786 -1.69481 0
M  V30 3817 H 359.149 1.31 -3.50414 0
M  V30 3818 H 360.482 1.74198 -4.60343 0
M  V30 3819 N 362.134 1.5431 0.320358 0
M  V30 3820 C 363.382 1.72327 1.05583 0
M  V30 3821 C 363.703 0.50149 1.88441 0
M  V30 3822 O 362.973 -0.48448 1.89815 0
M  V30 3823 H 361.553 0.635387 0.3928 0
M  V30 3824 H 364.215 1.91621 0.356019 0
M  V30 3825 H 363.311 2.60426 1.72003 0
M  V30 3826 N 363.613 -0.582584 1.46437 0
M  V30 3827 C 364.862 -1.337 1.5102 0
M  V30 3828 C 365.175 -1.94891 0.166359 0
M  V30 3829 O 366.381 -2.71351 0.0899954 0
M  V30 3830 C 364.837 -2.42315 2.66104 0
M  V30 3831 C 364.445 -1.87427 4.06909 0
M  V30 3832 C 366.189 -3.19099 2.79958 0
M  V30 3833 C 364.096 -2.93672 5.13333 0
M  V30 3834 H 363.026 -0.502619 0.562041 0
M  V30 3835 H 365.677 -0.621701 1.72647 0
M  V30 3836 H 364.059 -3.16645 2.37807 0
M  V30 3837 H 365.233 -1.19639 4.44998 0
M  V30 3838 H 363.548 -1.2331 3.97723 0
M  V30 3839 H 366.145 -3.9839 3.56636 0
M  V30 3840 H 366.488 -3.71695 1.87479 0
M  V30 3841 H 367.021 -2.51875 3.07902 0
M  V30 3842 H 363.76 -2.45962 6.07604 0
M  V30 3843 H 363.28 -3.59948 4.79789 0
M  V30 3844 H 364.959 -3.5762 5.39182 0
M  V30 3845 N 365.091 -1.34144 -0.827227 0
M  V30 3846 C 366.338 -1.26258 -1.58319 0
M  V30 3847 C 366.666 0.168595 -1.93768 0
M  V30 3848 O 365.921 1.12877 -1.59866 0
M  V30 3849 C 366.22 -2.09464 -2.89585 0
M  V30 3850 C 365.886 -3.58521 -2.73448 0
M  V30 3851 C 364.548 -3.99155 -2.68754 0
M  V30 3852 C 366.9 -4.53189 -2.57428 0
M  V30 3853 C 364.228 -5.32656 -2.45957 0
M  V30 3854 C 366.58 -5.86864 -2.36163 0
M  V30 3855 C 365.244 -6.26667 -2.29879 0
M  V30 3856 H 364.514 -0.462013 -0.579332 0
M  V30 3857 H 367.161 -1.65845 -0.95748 0
M  V30 3858 H 365.466 -1.62692 -3.56425 0
M  V30 3859 H 367.163 -2.00712 -3.47154 0
M  V30 3860 H 363.753 -3.26264 -2.77939 0
M  V30 3861 H 367.937 -4.22696 -2.60081 0
M  V30 3862 H 363.193 -5.62519 -2.39546 0
M  V30 3863 H 367.367 -6.59813 -2.22754 0
M  V30 3864 H 364.994 -7.30049 -2.11975 0
M  V30 3865 N 366.569 1.04691 -1.17803 0
M  V30 3866 C 367.817 1.7743 -0.967617 0
M  V30 3867 C 368.138 1.88359 0.504574 0
M  V30 3868 O 367.408 1.40402 1.36617 0
M  V30 3869 H 365.988 0.657242 -0.355024 0
M  V30 3870 H 368.65 1.2638 -1.48371 0
M  V30 3871 H 367.746 2.78924 -1.40027 0
M  V30 3872 N 368.047 0.979072 1.23499 0
M  V30 3873 C 369.293 0.648178 1.92163 0
M  V30 3874 C 369.626 -0.816049 1.76222 0
M  V30 3875 O 368.901 -1.58849 1.12237 0
M  V30 3876 C 369.184 1.03773 3.44824 0
M  V30 3877 C 369.037 2.55948 3.69879 0
M  V30 3878 C 370.356 0.580653 4.36253 0
M  V30 3879 H 367.475 0.236952 0.69787 0
M  V30 3880 H 370.117 1.22012 1.45647 0
M  V30 3881 H 368.267 0.551058 3.84572 0
M  V30 3882 H 369.939 3.12179 3.3962 0
M  V30 3883 H 368.182 2.98641 3.14636 0
M  V30 3884 H 368.853 2.78255 4.76737 0
M  V30 3885 H 371.329 0.998465 4.03943 0
M  V30 3886 H 370.205 0.881663 5.41773 0
M  V30 3887 H 370.466 -0.519052 4.39042 0
M  V30 3888 N 369.525 -1.3858 0.750561 0
M  V30 3889 C 370.802 -1.94231 0.231009 0
M  V30 3890 C 371.182 -1.68611 -1.27018 0
M  V30 3891 O 370.53 -1.02296 -2.04323 0
M  V30 3892 C 370.74 -3.44123 0.581428 0
M  V30 3893 C 372.088 -4.2116 0.539389 0
M  V30 3894 O 373.112 -3.52391 0.519541 0
M  V30 3895 O 371.971 -5.43749 0.54765 0
M  V30 3896 H 369.065 -0.825639 0.0474263 0
M  V30 3897 H 371.611 -1.4799 0.830478 0
M  V30 3898 H 370.383 -3.56267 1.61833 0
M  V30 3899 H 370.006 -3.97573 -0.0462047 0
M  V30 3900 N 371.003 -0.499398 -1.49478 0
M  V30 3901 C 371.966 0.268838 -2.27618 0
M  V30 3902 C 372.966 0.895383 -1.33565 0
M  V30 3903 O 374.156 0.760164 -1.56739 0
M  V30 3904 C 371.288 1.38559 -3.11471 0
M  V30 3905 H 372.481 -0.416812 -2.96989 0
M  V30 3906 H 370.034 -0.254313 -1.54217 0
M  V30 3907 H 370.769 2.10544 -2.46661 0
M  V30 3908 H 370.554 0.941797 -3.80621 0
M  V30 3909 H 372.044 1.92678 -3.70493 0
M  V30 3910 N 372.481 1.55866 -0.233164 0
M  V30 3911 C 373.706 2.03449 0.402906 0
M  V30 3912 C 374.131 1.11166 1.51736 0
M  V30 3913 O 373.489 0.101996 1.81013 0
M  V30 3914 C 373.537 3.49165 0.9009 0
M  V30 3915 O 372.641 3.60019 2.01147 0
M  V30 3916 H 371.982 0.657913 0.0897025 0
M  V30 3917 H 374.512 2.01493 -0.355201 0
M  V30 3918 H 374.522 3.89716 1.2077 0
M  V30 3919 H 373.197 4.15813 0.0852889 0
M  V30 3920 H 371.774 3.3136 1.71042 0
M  V30 3921 N 373.959 -0.0401083 1.57549 0
M  V30 3922 C 374.891 -1.07149 2.02612 0
M  V30 3923 C 375.904 -1.33126 0.937085 0
M  V30 3924 O 377.093 -1.30808 1.21456 0
M  V30 3925 C 374.193 -2.41561 2.37701 0
M  V30 3926 C 373.366 -2.35096 3.68848 0
M  V30 3927 C 372.425 -3.51867 3.91249 0
M  V30 3928 O 371.451 -3.3186 4.62447 0
M  V30 3929 N 372.653 -4.73351 3.36035 0
M  V30 3930 H 375.418 -0.687485 2.91708 0
M  V30 3931 H 372.979 -0.228248 1.60283 0
M  V30 3932 H 374.971 -3.18379 2.49833 0
M  V30 3933 H 373.541 -2.71846 1.54332 0
M  V30 3934 H 372.761 -1.4345 3.67173 0
M  V30 3935 H 374.049 -2.27908 4.54901 0
M  V30 3936 H 373.447 -4.92507 2.78304 0
M  V30 3937 H 372.004 -5.47572 3.53565 0
M  V30 3938 N 375.437 -1.54477 -0.31217 0
M  V30 3939 C 376.367 -1.87652 -1.38957 0
M  V30 3940 C 377.348 -0.734358 -1.53431 0
M  V30 3941 O 378.533 -0.98911 -1.67123 0
M  V30 3942 C 375.663 -2.11396 -2.75552 0
M  V30 3943 C 374.617 -3.27243 -2.75855 0
M  V30 3944 C 373.943 -3.36382 -4.15633 0
M  V30 3945 C 375.243 -4.64622 -2.38587 0
M  V30 3946 H 376.937 -2.77887 -1.11442 0
M  V30 3947 H 374.483 -1.33707 -0.534655 0
M  V30 3948 H 376.436 -2.33189 -3.51 0
M  V30 3949 H 375.16 -1.17921 -3.04569 0
M  V30 3950 H 373.819 -3.05356 -2.02863 0
M  V30 3951 H 373.467 -2.40445 -4.41809 0
M  V30 3952 H 373.167 -4.14249 -4.1674 0
M  V30 3953 H 374.691 -3.60422 -4.92877 0
M  V30 3954 H 376.105 -4.86219 -3.03749 0
M  V30 3955 H 374.502 -5.45121 -2.50925 0
M  V30 3956 H 375.572 -4.66097 -1.33723 0
M  V30 3957 N 376.915 0.57481 -1.46744 0
M  V30 3958 C 378.143 1.35856 -1.56047 0
M  V30 3959 C 378.558 1.87691 -0.204365 0
M  V30 3960 O 377.915 1.64049 0.79963 0
M  V30 3961 C 377.966 2.54066 -2.57163 0
M  V30 3962 O 377.687 2.04377 -3.87507 0
M  V30 3963 C 379.188 3.46514 -2.76483 0
M  V30 3964 H 376.408 0.414754 -0.527466 0
M  V30 3965 H 378.952 0.698035 -1.92218 0
M  V30 3966 H 377.107 3.16092 -2.23974 0
M  V30 3967 H 377.521 2.81419 -4.4261 0
M  V30 3968 H 378.995 4.25919 -3.51137 0
M  V30 3969 H 379.472 3.98951 -1.83671 0
M  V30 3970 H 380.078 2.90318 -3.10799 0
M  V30 3971 N 378.394 1.34581 0.820102 0
M  V30 3972 C 379.64 1.27285 1.57881 0
M  V30 3973 C 379.973 -0.156137 1.93571 0
M  V30 3974 O 379.248 -1.10222 1.60254 0
M  V30 3975 C 379.531 2.16639 2.87645 0
M  V30 3976 C 379.384 3.68088 2.58517 0
M  V30 3977 C 380.703 2.05378 3.8924 0
M  V30 3978 H 377.822 0.463714 0.572833 0
M  V30 3979 H 380.464 1.64859 0.944539 0
M  V30 3980 H 378.614 1.84725 3.41773 0
M  V30 3981 H 380.286 4.10382 2.10676 0
M  V30 3982 H 378.529 3.89038 1.91917 0
M  V30 3983 H 379.2 4.2598 3.51063 0
M  V30 3984 H 381.676 2.33404 3.44473 0
M  V30 3985 H 380.552 2.7012 4.77835 0
M  V30 3986 H 380.813 1.0316 4.29896 0
M  V30 3987 N 379.872 -1.04064 1.18357 0
M  V30 3988 C 381.283 -1.58719 0.98312 0
M  V30 3989 C 381.634 -1.90556 -0.467193 0
M  V30 3990 O 380.759 -1.69561 -1.34454 0
M  V30 3991 C 381.354 -2.88379 1.77828 0
M  V30 3992 C 379.913 -3.3965 1.62218 0
M  V30 3993 C 379.06 -2.13235 1.77274 0
M  V30 3994 H 382.011 -0.867359 1.32901 0
M  V30 3995 H 382.032 -3.58773 1.26737 0
M  V30 3996 H 381.544 -2.65176 2.83379 0
M  V30 3997 H 379.645 -3.67866 0.592036 0
M  V30 3998 H 379.758 -4.13475 2.42023 0
M  V30 3999 H 378.122 -2.24542 1.20221 0
M  V30 4000 H 378.905 -1.92487 2.8426 0
M  V30 4001 N 381.35 -0.985608 -1.22978 0
M  V30 4002 C 382.282 -0.488154 -2.23941 0
M  V30 4003 C 383.295 0.41282 -1.57479 0
M  V30 4004 O 384.484 0.216121 -1.77187 0
M  V30 4005 C 381.584 0.312611 -3.37455 0
M  V30 4006 C 380.757 -0.582741 -4.33501 0
M  V30 4007 C 379.816 0.165064 -5.25941 0
M  V30 4008 O 378.842 -0.447077 -5.67442 0
M  V30 4009 N 380.044 1.44953 -5.62111 0
M  V30 4010 H 382.809 -1.3563 -2.67254 0
M  V30 4011 H 380.37 -0.859477 -1.37203 0
M  V30 4012 H 382.362 0.821357 -3.96277 0
M  V30 4013 H 380.932 1.0818 -2.93285 0
M  V30 4014 H 380.152 -1.27225 -3.73105 0
M  V30 4015 H 381.44 -1.19275 -4.94622 0
M  V30 4016 H 380.838 1.9683 -5.30353 0
M  V30 4017 H 379.395 1.90361 -6.23383 0
M  V30 4018 N 382.828 1.3818 -0.7579 0
M  V30 4019 C 383.791 2.28764 -0.141286 0
M  V30 4020 C 384.791 1.47388 0.642907 0
M  V30 4021 O 385.981 1.67781 0.468536 0
M  V30 4022 C 383.113 3.31184 0.808069 0
M  V30 4023 H 384.306 2.848 -0.939633 0
M  V30 4024 H 381.859 1.47212 -0.525191 0
M  V30 4025 H 382.594 2.80247 1.63193 0
M  V30 4026 H 382.379 3.91314 0.248104 0
M  V30 4027 H 383.869 3.98909 1.23536 0
M  V30 4028 N 384.306 0.507319 1.49211 0
M  V30 4029 C 385.269 -0.256763 2.27757 0
M  V30 4030 C 386.269 -0.888287 1.34038 0
M  V30 4031 O 387.459 -0.751841 1.5714 0
M  V30 4032 C 384.591 -1.36905 3.12202 0
M  V30 4033 H 385.784 0.432557 2.96764 0
M  V30 4034 H 383.337 0.262488 1.5408 0
M  V30 4035 H 384.072 -2.09233 2.47775 0
M  V30 4036 H 383.857 -0.921599 3.81115 0
M  V30 4037 H 385.347 -1.9071 3.7151 0
M  V30 4038 N 385.784 -1.5574 0.241426 0
M  V30 4039 C 387.031 -1.9881 -0.384836 0
M  V30 4040 C 387.359 -1.12947 -1.58346 0
M  V30 4041 O 386.614 -0.178993 -1.9488 0
M  V30 4042 C 386.913 -3.47308 -0.843317 0
M  V30 4043 C 386.579 -4.50223 0.246946 0
M  V30 4044 C 385.241 -4.78088 0.546399 0
M  V30 4045 C 387.593 -5.11841 0.983282 0
M  V30 4046 C 384.921 -5.64846 1.58636 0
M  V30 4047 C 387.273 -5.99727 2.01272 0
M  V30 4048 C 385.937 -6.25927 2.31888 0
M  V30 4049 H 385.207 -0.727496 -0.140821 0
M  V30 4050 H 387.854 -1.8831 0.348106 0
M  V30 4051 H 386.159 -3.55112 -1.65537 0
M  V30 4052 H 387.856 -3.78017 -1.33806 0
M  V30 4053 H 384.446 -4.286 0.00340639 0
M  V30 4054 H 388.63 -4.90366 0.765182 0
M  V30 4055 H 383.886 -5.83403 1.82896 0
M  V30 4056 H 388.06 -6.46517 2.58823 0
M  V30 4057 H 385.687 -6.92949 3.12611 0
M  V30 4058 N 387.262 0.0317525 -1.57568 0
M  V30 4059 C 388.192 1.03274 -2.0942 0
M  V30 4060 C 389.173 1.3788 -0.996143 0
M  V30 4061 O 390.358 1.46811 -1.27122 0
M  V30 4062 C 387.488 2.33448 -2.57137 0
M  V30 4063 C 386.442 2.13091 -3.71182 0
M  V30 4064 C 385.768 3.49001 -4.05095 0
M  V30 4065 C 387.068 1.51928 -4.99715 0
M  V30 4066 H 388.762 0.60112 -2.93303 0
M  V30 4067 H 386.308 0.287705 -1.41097 0
M  V30 4068 H 388.261 3.03802 -2.92032 0
M  V30 4069 H 386.985 2.78665 -1.70333 0
M  V30 4070 H 385.644 1.45171 -3.36632 0
M  V30 4071 H 385.292 3.91862 -3.15362 0
M  V30 4072 H 384.992 3.36207 -4.81911 0
M  V30 4073 H 386.516 4.20721 -4.42522 0
M  V30 4074 H 387.93 2.12196 -5.32584 0
M  V30 4075 H 386.327 1.49716 -5.81124 0
M  V30 4076 H 387.397 0.484811 -4.8247 0
M  V30 4077 N 388.74 1.54641 0.303973 0
M  V30 4078 C 389.703 1.84646 1.35789 0
M  V30 4079 C 390.703 0.7192 1.4382 0
M  V30 4080 O 391.893 0.987491 1.43507 0
M  V30 4081 C 389.025 2.02407 2.74307 0
M  V30 4082 H 390.218 2.78829 1.10429 0
M  V30 4083 H 387.771 1.46658 0.540487 0
M  V30 4084 H 388.506 1.10502 3.04893 0
M  V30 4085 H 388.291 2.84453 2.69868 0
M  V30 4086 H 389.781 2.27002 3.50514 0
M  V30 4087 N 390.218 -0.567019 1.47046 0
M  V30 4088 C 391.466 -1.322 1.52864 0
M  V30 4089 C 391.787 -1.94088 0.188388 0
M  V30 4090 O 391.057 -1.7941 -0.786693 0
M  V30 4091 H 389.637 -0.490894 0.563056 0
M  V30 4092 H 392.299 -0.662879 1.83281 0
M  V30 4093 H 391.395 -2.12062 2.2899 0
M  V30 4094 N 391.696 -1.35014 -0.812953 0
M  V30 4095 C 392.626 -1.30069 -1.93919 0
M  V30 4096 C 393.607 -0.176275 -1.69184 0
M  V30 4097 O 394.792 -0.370227 -1.90638 0
M  V30 4098 C 391.922 -1.06547 -3.30552 0
M  V30 4099 C 390.876 -2.15561 -3.69753 0
M  V30 4100 C 390.202 -1.77214 -5.04479 0
M  V30 4101 C 391.502 -3.57476 -3.808 0
M  V30 4102 H 393.196 -2.24303 -1.98314 0
M  V30 4103 H 390.742 -1.07977 -0.952736 0
M  V30 4104 H 392.695 -1.01729 -4.08937 0
M  V30 4105 H 391.419 -0.0875719 -3.26483 0
M  V30 4106 H 390.078 -2.19466 -2.9365 0
M  V30 4107 H 389.726 -0.780589 -4.96906 0
M  V30 4108 H 389.426 -2.50184 -5.31678 0
M  V30 4109 H 390.95 -1.7391 -5.8531 0
M  V30 4110 H 392.364 -3.55929 -4.4943 0
M  V30 4111 H 390.761 -4.29152 -4.19462 0
M  V30 4112 H 391.831 -3.94091 -2.82525 0
M  V30 4113 N 393.175 1.03435 -1.18907 0
M  V30 4114 C 394.586 1.58195 -0.991523 0
M  V30 4115 C 394.937 1.90801 0.457081 0
M  V30 4116 O 394.062 1.70272 1.33553 0
M  V30 4117 C 394.657 2.87432 -1.79355 0
M  V30 4118 C 393.216 3.38785 -1.64017 0
M  V30 4119 C 392.363 2.12292 -1.78402 0
M  V30 4120 H 395.314 0.860299 -1.33359 0
M  V30 4121 H 395.335 3.58096 -1.28638 0
M  V30 4122 H 394.847 2.63669 -2.84781 0
M  V30 4123 H 392.948 3.67547 -0.611536 0
M  V30 4124 H 393.061 4.12186 -2.44212 0
M  V30 4125 H 391.425 2.23901 -1.2141 0
M  V30 4126 H 392.208 1.90977 -2.85277 0
M  V30 4127 N 394.653 0.992116 1.22453 0
M  V30 4128 C 395.585 0.500024 2.23679 0
M  V30 4129 C 396.598 -0.404463 1.57696 0
M  V30 4130 O 397.787 -0.206722 1.77299 0
M  V30 4131 C 394.887 -0.294711 3.37616 0
M  V30 4132 C 394.06 0.605723 4.33186 0
M  V30 4133 C 393.119 -0.13717 5.26021 0
M  V30 4134 O 392.145 0.477164 5.67196 0
M  V30 4135 N 393.347 -1.4197 5.62872 0
M  V30 4136 H 396.112 1.37045 2.66531 0
M  V30 4137 H 393.673 0.866741 1.36745 0
M  V30 4138 H 395.665 -0.800329 3.96707 0
M  V30 4139 H 394.235 -1.06623 2.93854 0
M  V30 4140 H 393.455 1.29202 3.72425 0
M  V30 4141 H 394.743 1.21896 4.93983 0
M  V30 4142 H 394.141 -1.94015 5.31389 0
M  V30 4143 H 392.698 -1.87052 6.24383 0
M  V30 4144 N 396.131 -1.37776 0.765217 0
M  V30 4145 C 397.356 -2.04651 0.336537 0
M  V30 4146 C 397.781 -1.57337 -1.03086 0
M  V30 4147 O 397.139 -0.730621 -1.65927 0
M  V30 4148 C 397.187 -3.58577 0.381468 0
M  V30 4149 O 396.291 -4.07706 -0.62042 0
M  V30 4150 H 395.632 -0.64756 0.146838 0
M  V30 4151 H 398.162 -1.76221 1.03959 0
M  V30 4152 H 398.172 -4.07314 0.236448 0
M  V30 4153 H 396.847 -3.9237 1.37907 0
M  V30 4154 H 395.424 -3.70306 -0.439056 0
M  V30 4155 N 397.609 -0.515225 -1.4894 0
M  V30 4156 C 399.02 -0.0710067 -1.86565 0
M  V30 4157 C 399.371 1.34733 -1.42623 0
M  V30 4158 O 398.496 2.00653 -0.810379 0
M  V30 4159 C 399.091 -0.122083 -3.3858 0
M  V30 4160 C 397.65 0.266863 -3.75453 0
M  V30 4161 C 396.797 -0.488376 -2.72966 0
M  V30 4162 H 399.748 -0.727266 -1.41055 0
M  V30 4163 H 399.769 0.669818 -3.74558 0
M  V30 4164 H 399.281 -1.15448 -3.70531 0
M  V30 4165 H 397.382 1.30196 -3.49113 0
M  V30 4166 H 397.495 -0.0624811 -4.79059 0
M  V30 4167 H 395.859 0.0635622 -2.54621 0
M  V30 4168 H 396.642 -1.52113 -3.07761 0
M  V30 4169 N 399.087 1.5561 -0.249682 0
M  V30 4170 C 400.336 1.98187 0.37479 0
M  V30 4171 C 400.649 1.14111 1.58865 0
M  V30 4172 O 401.855 1.46714 2.28445 0
M  V30 4173 C 400.311 3.52661 0.718192 0
M  V30 4174 C 399.919 4.45481 -0.474428 0
M  V30 4175 C 401.663 4.03888 1.3067 0
M  V30 4176 C 399.57 5.91303 -0.107026 0
M  V30 4177 H 398.5 0.740159 0.143808 0
M  V30 4178 H 401.151 1.80125 -0.350336 0
M  V30 4179 H 399.533 3.66429 1.50152 0
M  V30 4180 H 400.707 4.43473 -1.25172 0
M  V30 4181 H 399.022 4.04751 -0.978052 0
M  V30 4182 H 401.619 5.10358 1.59496 0
M  V30 4183 H 401.962 3.51401 2.23211 0
M  V30 4184 H 402.495 3.93457 0.586211 0
M  V30 4185 H 399.234 6.47833 -0.999642 0
M  V30 4186 H 398.754 5.9644 0.634013 0
M  V30 4187 H 400.433 6.46258 0.309807 0
M  V30 4188 N 400.565 -0.0233959 1.57583 0
M  V30 4189 C 401.793 -0.724682 1.93794 0
M  V30 4190 C 402.208 -1.68588 0.849912 0
M  V30 4191 O 401.565 -1.81676 -0.173204 0
M  V30 4192 C 401.616 -1.47684 3.29957 0
M  V30 4193 O 401.337 -0.554222 4.3458 0
M  V30 4194 C 402.838 -2.27477 3.80485 0
M  V30 4195 H 400.058 -0.203317 0.639455 0
M  V30 4196 H 402.602 0.0207653 2.04489 0
M  V30 4197 H 400.757 -2.17412 3.20641 0
M  V30 4198 H 401.171 -1.08232 5.13212 0
M  V30 4199 H 402.645 -2.7564 4.78254 0
M  V30 4200 H 403.122 -3.09144 3.11972 0
M  V30 4201 H 403.728 -1.62813 3.92902 0
M  V30 4202 N 402.043 -1.548 -0.295768 0
M  V30 4203 C 403.273 -1.78069 -1.04762 0
M  V30 4204 C 403.681 -0.542847 -1.81245 0
M  V30 4205 O 403.024 0.497051 -1.76848 0
M  V30 4206 C 403.086 -2.93881 -2.07061 0
M  V30 4207 C 402.75 -4.31777 -1.49725 0
M  V30 4208 C 403.747 -5.11613 -0.924581 0
M  V30 4209 C 401.432 -4.78389 -1.5313 0
M  V30 4210 C 403.426 -6.36184 -0.393594 0
M  V30 4211 C 401.113 -6.02921 -0.996447 0
M  V30 4212 C 402.111 -6.81654 -0.428569 0
M  V30 4213 O 401.799 -8.0384 0.0981593 0
M  V30 4214 H 401.531 -0.597475 -0.316226 0
M  V30 4215 H 404.085 -2.02584 -0.338973 0
M  V30 4216 H 402.315 -2.65003 -2.81621 0
M  V30 4217 H 404.004 -3.04679 -2.6819 0
M  V30 4218 H 404.77 -4.76743 -0.891136 0
M  V30 4219 H 400.649 -4.17132 -1.9627 0
M  V30 4220 H 404.193 -6.97582 0.0503014 0
M  V30 4221 H 400.09 -6.37277 -1.02706 0
M  V30 4222 H 400.858 -8.18499 -0.0146455 0
M  V30 4223 N 403.521 0.559213 -1.47345 0
M  V30 4224 C 404.746 1.34676 -1.57725 0
M  V30 4225 C 405.171 1.86723 -0.227164 0
M  V30 4226 O 404.529 1.6286 0.796642 0
M  V30 4227 C 404.577 2.49399 -2.60447 0
M  V30 4228 O 403.681 3.51567 -2.15578 0
M  V30 4229 H 403.022 0.400115 -0.52991 0
M  V30 4230 H 405.552 0.676009 -1.93109 0
M  V30 4231 H 405.562 2.95996 -2.80803 0
M  V30 4232 H 404.237 2.10873 -3.58477 0
M  V30 4233 H 402.814 3.11289 -2.05313 0
M  V30 4234 N 404.999 1.35443 0.805782 0
M  V30 4235 C 406.41 1.25768 1.37983 0
M  V30 4236 C 406.761 -0.10958 1.95894 0
M  V30 4237 O 405.886 -1.01056 1.91355 0
M  V30 4238 C 406.481 2.27727 2.5085 0
M  V30 4239 C 405.04 2.2179 3.04115 0
M  V30 4240 C 404.187 2.13393 1.77084 0
M  V30 4241 H 407.138 1.4656 0.608752 0
M  V30 4242 H 407.159 1.90422 3.29424 0
M  V30 4243 H 406.671 3.27227 2.08671 0
M  V30 4244 H 404.772 1.25703 3.50756 0
M  V30 4245 H 404.885 3.13788 3.62042 0
M  V30 4246 H 403.249 1.59384 1.98668 0
M  V30 4247 H 404.032 3.14755 1.37056 0
M  V30 4248 N 406.477 -1.02803 1.19454 0
M  V30 4249 C 407.707 -1.79581 1.02149 0
M  V30 4250 C 408.115 -1.84182 -0.432851 0
M  V30 4251 O 407.458 -1.28534 -1.31243 0
M  V30 4252 C 407.52 -3.25993 1.51554 0
M  V30 4253 C 407.184 -3.45025 2.99678 0
M  V30 4254 C 408.181 -3.35175 3.97434 0
M  V30 4255 C 405.866 -3.71212 3.38389 0
M  V30 4256 C 407.86 -3.51238 5.31893 0
M  V30 4257 C 405.547 -3.8692 4.73008 0
M  V30 4258 C 406.545 -3.76936 5.69569 0
M  V30 4259 O 406.233 -3.92179 7.01748 0
M  V30 4260 H 405.965 -0.571962 0.360327 0
M  V30 4261 H 408.519 -1.30367 1.58725 0
M  V30 4262 H 406.749 -3.76235 0.893543 0
M  V30 4263 H 408.438 -3.84368 1.30444 0
M  V30 4264 H 409.204 -3.14895 3.68872 0
M  V30 4265 H 405.083 -3.78075 2.6378 0
M  V30 4266 H 408.627 -3.43362 6.07247 0
M  V30 4267 H 404.524 -4.06699 5.01265 0
M  V30 4268 H 405.292 -4.09265 7.08833 0
M  V30 4269 N 407.956 -0.998596 -1.21925 0
M  V30 4270 C 408.866 -0.562736 -2.27751 0
M  V30 4271 C 409.882 0.391203 -1.69545 0
M  V30 4272 O 411.058 0.256625 -1.99758 0
M  V30 4273 C 408.123 0.11012 -3.46525 0
M  V30 4274 C 407.184 -0.887495 -4.20026 0
M  V30 4275 C 406.417 -0.246654 -5.3313 0
M  V30 4276 O 406.64 0.958088 -5.62296 0
M  V30 4277 O 405.574 -0.954374 -5.94286 0
M  V30 4278 H 409.4 -1.44329 -2.67213 0
M  V30 4279 H 406.985 -0.767135 -1.28201 0
M  V30 4280 H 408.867 0.486756 -4.18579 0
M  V30 4281 H 407.542 0.965154 -3.08976 0
M  V30 4282 H 406.449 -1.31517 -3.5022 0
M  V30 4283 H 407.782 -1.71191 -4.6147 0
M  V30 4284 N 409.434 1.37368 -0.772513 0
M  V30 4285 C 410.382 2.32134 -0.147111 0
M  V30 4286 C 411.376 1.54972 0.684106 0
M  V30 4287 O 412.582 1.70363 0.581083 0
M  V30 4288 H 408.957 0.751449 -0.028786 0
M  V30 4289 H 410.928 2.82464 -0.962112 0
M  V30 4290 C 409.677 3.40226 0.71703 0
M  V30 4291 H 409 3.99706 0.0867951 0
M  V30 4292 H 410.44 4.08897 1.12159 0
M  V30 4293 C 408.899 2.80372 1.86797 0
M  V30 4294 O 409.429 2.71183 2.96349 0
M  V30 4295 N 407.635 2.37904 1.66883 0
M  V30 4296 H 407.182 2.45578 0.777759 0
M  V30 4297 H 407.14 1.98202 2.44056 0
M  V30 4298 N 410.912 0.523116 1.48665 0
M  V30 4299 C 412.14 -0.0096312 2.06898 0
M  V30 4300 C 412.555 -1.28784 1.38059 0
M  V30 4301 O 411.912 -1.76453 0.465893 0
M  V30 4302 C 411.963 -0.244386 3.60673 0
M  V30 4303 O 411.684 0.983172 4.26925 0
M  V30 4304 C 413.185 -0.818289 4.35682 0
M  V30 4305 H 410.405 0.0304161 0.67031 0
M  V30 4306 H 412.949 0.726799 1.91149 0
M  V30 4307 H 411.104 -0.930847 3.76051 0
M  V30 4308 H 411.518 0.759653 5.1897 0
M  V30 4309 H 412.992 -0.93201 5.44075 0
M  V30 4310 H 413.469 -1.82153 3.99646 0
M  V30 4311 H 414.075 -0.168609 4.24966 0
M  V30 4312 N 412.39 -1.55475 0.257931 0
M  V30 4313 C 413.638 -1.98813 -0.363009 0
M  V30 4314 C 413.959 -1.14757 -1.57657 0
M  V30 4315 O 413.229 -0.232956 -1.9451 0
M  V30 4316 H 411.809 -0.734308 -0.137113 0
M  V30 4317 H 414.471 -1.9156 0.359281 0
M  V30 4318 H 413.567 -3.04941 -0.664634 0
M  V30 4319 N 413.868 0.0150385 -1.57593 0
M  V30 4320 C 414.778 1.02791 -2.10882 0
M  V30 4321 C 415.794 1.38702 -1.0506 0
M  V30 4322 O 416.97 1.47739 -1.36877 0
M  V30 4323 C 414.035 2.30568 -2.58919 0
M  V30 4324 C 413.096 2.01108 -3.79281 0
M  V30 4325 C 412.329 3.22794 -4.25018 0
M  V30 4326 O 412.552 4.33959 -3.70183 0
M  V30 4327 O 411.486 3.07672 -5.17322 0
M  V30 4328 H 415.312 0.604973 -2.97613 0
M  V30 4329 H 412.897 0.23292 -1.47573 0
M  V30 4330 H 414.779 3.05662 -2.90084 0
M  V30 4331 H 413.454 2.72129 -1.75293 0
M  V30 4332 H 412.361 1.23537 -3.53114 0
M  V30 4333 H 413.694 1.64394 -4.63935 0
M  V30 4334 N 415.346 1.54954 0.287554 0
M  V30 4335 C 416.276 1.89839 1.35954 0
M  V30 4336 C 417.257 0.758675 1.52244 0
M  V30 4337 O 418.442 1.01557 1.65529 0
M  V30 4338 C 415.572 2.15753 2.72154 0
M  V30 4339 C 414.526 3.3159 2.70614 0
M  V30 4340 C 413.852 3.42952 4.10229 0
M  V30 4341 C 415.152 4.68359 2.31165 0
M  V30 4342 H 416.846 2.79625 1.07007 0
M  V30 4343 H 414.392 1.3454 0.513316 0
M  V30 4344 H 416.345 2.38743 3.47246 0
M  V30 4345 H 415.069 1.22752 3.02654 0
M  V30 4346 H 413.728 3.08545 1.97979 0
M  V30 4347 H 413.376 2.47443 4.37928 0
M  V30 4348 H 413.076 4.20826 4.10097 0
M  V30 4349 H 414.6 3.68218 4.87081 0
M  V30 4350 H 416.014 4.9099 2.95976 0
M  V30 4351 H 414.411 5.49044 2.42221 0
M  V30 4352 H 415.481 4.68165 1.26291 0
M  V30 4353 N 416.824 -0.551391 1.4764 0
M  V30 4354 C 417.771 -1.65796 1.60563 0
M  V30 4355 C 418.741 -1.59932 0.448428 0
M  V30 4356 O 419.926 -1.78679 0.669222 0
M  V30 4357 C 417.066 -3.04108 1.63133 0
M  V30 4358 C 416.179 -3.20365 2.89811 0
M  V30 4359 C 415.314 -4.49109 2.8368 0
M  V30 4360 C 414.353 -4.58819 4.05156 0
M  V30 4361 N 413.49 -5.78926 3.97227 0
M  V30 4362 H 418.33 -1.54088 2.5507 0
M  V30 4363 H 415.867 -0.75052 1.26513 0
M  V30 4364 H 417.825 -3.84207 1.62606 0
M  V30 4365 H 416.455 -3.14637 0.721341 0
M  V30 4366 H 415.507 -2.33659 3.00179 0
M  V30 4367 H 416.819 -3.23402 3.79753 0
M  V30 4368 H 415.973 -5.37475 2.81434 0
M  V30 4369 H 414.712 -4.4856 1.91431 0
M  V30 4370 H 413.717 -3.68864 4.077 0
M  V30 4371 H 414.942 -4.61124 4.98539 0
M  V30 4372 H 412.888 -5.79314 3.07785 0
M  V30 4373 H 412.805 -5.83367 4.80853 0
M  V30 4374 H 414.073 -6.69637 3.99007 0
M  V30 4375 N 418.302 -1.35869 -0.798587 0
M  V30 4376 C 419.527 -1.32883 -1.59238 0
M  V30 4377 C 419.952 0.0894587 -1.87887 0
M  V30 4378 O 419.31 1.05869 -1.47178 0
M  V30 4379 C 419.358 -2.14892 -2.89575 0
M  V30 4380 O 418.462 -1.53512 -3.82763 0
M  V30 4381 H 417.803 -0.455236 -0.48338 0
M  V30 4382 H 420.333 -1.79024 -0.990539 0
M  V30 4383 H 420.343 -2.27139 -3.38928 0
M  V30 4384 H 419.018 -3.17998 -2.68049 0
M  V30 4385 H 417.595 -1.50153 -3.41334 0
M  V30 4386 N 419.78 1.02168 -1.19998 0
M  V30 4387 C 421.057 1.72816 -0.916191 0
M  V30 4388 C 421.437 2.03081 0.576325 0
M  V30 4389 O 420.785 1.69122 1.53656 0
M  V30 4390 C 420.995 2.9997 -1.78378 0
M  V30 4391 C 422.343 3.73336 -2.02251 0
M  V30 4392 O 423.367 3.09914 -1.75589 0
M  V30 4393 O 422.226 4.87371 -2.47249 0
M  V30 4394 H 419.32 0.752924 -0.342103 0
M  V30 4395 H 421.866 1.08062 -1.30846 0
M  V30 4396 H 420.638 2.73888 -2.79466 0
M  V30 4397 H 420.261 3.72464 -1.39126 0
M  V30 4398 N 421.258 1.00505 1.21394 0
M  V30 4399 C 422.168 0.574806 2.27449 0
M  V30 4400 C 423.184 -0.382206 1.6975 0
M  V30 4401 O 424.36 -0.246027 1.99892 0
M  V30 4402 C 421.425 -0.0917414 3.46579 0
M  V30 4403 C 420.486 0.909758 4.1955 0
M  V30 4404 C 419.719 0.274924 5.32991 0
M  V30 4405 O 419.942 -0.928254 5.62796 0
M  V30 4406 O 418.876 0.985877 5.93771 0
M  V30 4407 H 422.702 1.45744 2.66444 0
M  V30 4408 H 420.287 0.773923 1.27792 0
M  V30 4409 H 422.169 -0.464551 4.18832 0
M  V30 4410 H 420.844 -0.948755 3.09484 0
M  V30 4411 H 419.751 1.33372 3.49518 0
M  V30 4412 H 421.084 1.73636 4.60555 0
M  V30 4413 N 422.737 -1.36956 0.779787 0
M  V30 4414 C 424.014 -1.93697 0.272156 0
M  V30 4415 C 424.394 -1.71267 -1.23413 0
M  V30 4416 O 423.742 -1.06607 -2.02107 0
M  V30 4417 C 423.952 -3.42812 0.654291 0
M  V30 4418 C 425.3 -4.19921 0.628602 0
M  V30 4419 O 426.324 -3.51209 0.594172 0
M  V30 4420 O 425.183 -5.42465 0.662864 0
M  V30 4421 H 422.277 -0.824447 0.0649286 0
M  V30 4422 H 424.823 -1.46196 0.861682 0
M  V30 4423 H 423.595 -3.52754 1.69353 0
M  V30 4424 H 423.218 -3.97582 0.0381369 0
M  V30 4425 N 424.215 -0.530993 -1.48385 0
M  V30 4426 C 425.145 0.219985 -2.32461 0
M  V30 4427 C 426.126 0.934111 -1.42156 0
M  V30 4428 O 427.311 0.919694 -1.71042 0
M  V30 4429 C 424.441 1.26674 -3.23375 0
M  V30 4430 C 423.395 0.67069 -4.22712 0
M  V30 4431 C 422.721 1.82017 -5.02766 0
M  V30 4432 C 424.021 -0.358268 -5.2107 0
M  V30 4433 H 425.715 -0.48187 -2.95497 0
M  V30 4434 H 423.261 -0.233182 -1.42099 0
M  V30 4435 H 425.214 1.80006 -3.81019 0
M  V30 4436 H 423.938 1.99818 -2.58341 0
M  V30 4437 H 422.597 0.158878 -3.66256 0
M  V30 4438 H 422.245 2.54002 -4.34157 0
M  V30 4439 H 421.945 1.42727 -5.70003 0
M  V30 4440 H 423.469 2.35725 -5.63264 0
M  V30 4441 H 424.883 0.0880081 -5.73232 0
M  V30 4442 H 423.28 -0.66861 -5.96364 0
M  V30 4443 H 424.35 -1.26367 -4.68145 0
M  V30 4444 N 425.693 1.55336 -0.266172 0
M  V30 4445 C 426.603 2.2583 0.635458 0
M  V30 4446 C 427.619 1.28106 1.17749 0
M  V30 4447 O 428.795 1.61024 1.20968 0
M  V30 4448 C 425.86 2.95879 1.80712 0
M  V30 4449 C 424.921 4.09059 1.30265 0
M  V30 4450 C 424.154 4.75759 2.41846 0
M  V30 4451 O 424.377 4.41622 3.61007 0
M  V30 4452 O 423.311 5.63888 2.1051 0
M  V30 4453 H 427.137 3.03631 0.0646693 0
M  V30 4454 H 424.722 1.49361 -0.0339177 0
M  V30 4455 H 426.604 3.39932 2.49047 0
M  V30 4456 H 425.279 2.21002 2.36516 0
M  V30 4457 H 424.186 3.69482 0.586019 0
M  V30 4458 H 425.519 4.85811 0.790458 0
M  V30 4459 N 427.171 -0.0066808 1.57599 0
M  V30 4460 C 428.42 -0.692078 1.89455 0
M  V30 4461 C 428.733 -1.75306 0.867586 0
M  V30 4462 O 429.939 -2.49262 1.07614 0
M  V30 4463 C 428.395 -1.2821 3.36289 0
M  V30 4464 C 428.003 -0.256291 4.47266 0
M  V30 4465 C 429.747 -1.94608 3.77264 0
M  V30 4466 C 427.654 -0.855927 5.85173 0
M  V30 4467 H 426.584 -0.262252 0.706923 0
M  V30 4468 H 429.235 0.052769 1.83424 0
M  V30 4469 H 427.617 -2.0774 3.37135 0
M  V30 4470 H 428.791 0.513923 4.57925 0
M  V30 4471 H 427.106 0.306862 4.15268 0
M  V30 4472 H 429.703 -2.40364 4.77629 0
M  V30 4473 H 430.046 -2.77382 3.10427 0
M  V30 4474 H 430.579 -1.21822 3.78688 0
M  V30 4475 H 427.318 -0.0671161 6.55466 0
M  V30 4476 H 426.838 -1.59546 5.78191 0
M  V30 4477 H 428.517 -1.35658 6.32618 0
M  V30 4478 N 428.649 -1.55105 -0.279332 0
M  V30 4479 C 429.897 -1.75066 -1.00977 0
M  V30 4480 C 430.218 -0.551276 -1.87045 0
M  V30 4481 O 429.488 0.433984 -1.91032 0
M  V30 4482 H 428.068 -0.645578 -0.375816 0
M  V30 4483 H 430.73 -1.92497 -0.305089 0
M  V30 4484 H 429.826 -2.64894 -1.65038 0
M  V30 4485 N 430.127 0.543554 -1.4793 0
M  V30 4486 C 431.057 1.65888 -1.64327 0
M  V30 4487 C 432.038 1.62818 -0.492383 0
M  V30 4488 O 433.223 1.80226 -0.723338 0
M  V30 4489 C 430.353 3.04506 -1.67013 0
M  V30 4490 C 429.307 3.2243 -2.81466 0
M  V30 4491 C 428.633 4.61972 -2.69233 0
M  V30 4492 C 429.933 3.06496 -4.22915 0
M  V30 4493 H 431.627 1.52421 -2.57698 0
M  V30 4494 H 429.173 0.731849 -1.24016 0
M  V30 4495 H 431.126 3.82391 -1.77074 0
M  V30 4496 H 429.85 3.18964 -0.70212 0
M  V30 4497 H 428.509 2.46957 -2.70938 0
M  V30 4498 H 428.157 4.73247 -1.7043 0
M  V30 4499 H 427.857 4.74911 -3.46025 0
M  V30 4500 H 429.381 5.41974 -2.81242 0
M  V30 4501 H 430.795 3.74186 -4.34348 0
M  V30 4502 H 429.192 3.30938 -5.006 0
M  V30 4503 H 430.262 2.03077 -4.40327 0
M  V30 4504 N 431.605 1.3629 0.791371 0
M  V30 4505 C 433.021 1.16661 1.08914 0
M  V30 4506 C 433.221 -0.0106266 2.01497 0
M  V30 4507 O 432.277 -0.676596 2.43266 0
M  V30 4508 C 433.59 2.47656 1.70549 0
M  V30 4509 C 435.138 2.54002 1.82899 0
M  V30 4510 C 435.613 3.85078 2.47949 0
M  V30 4511 N 437.104 3.86413 2.5542 0
M  V30 4512 C 437.839 4.84572 3.06557 0
M  V30 4513 N 437.335 5.93124 3.58016 0
M  V30 4514 N 439.128 4.71994 3.05251 0
M  V30 4515 H 431.279 2.11668 0.176238 0
M  V30 4516 H 433.542 0.937486 0.140796 0
M  V30 4517 H 433.248 3.34059 1.09989 0
M  V30 4518 H 433.122 2.63319 2.70079 0
M  V30 4519 H 435.509 1.68018 2.42598 0
M  V30 4520 H 435.59 2.42239 0.821808 0
M  V30 4521 H 435.234 4.71467 1.88895 0
M  V30 4522 H 435.164 3.94135 3.49235 0
M  V30 4523 H 437.655 3.07988 2.18979 0
M  V30 4524 H 437.968 6.63999 3.95381 0
M  V30 4525 H 436.313 5.96796 3.56173 0
M  V30 4526 H 439.504 3.86321 2.64336 0
M  V30 4527 H 439.677 5.48653 3.44796 0
M  V30 4528 N 433.083 -1.0153 1.20538 0
M  V30 4529 C 434.499 -1.27461 0.96051 0
M  V30 4530 C 434.699 -1.98273 -0.359193 0
M  V30 4531 O 433.755 -2.27886 -1.0874 0
M  V30 4532 C 435.068 -2.10837 2.14402 0
M  V30 4533 C 436.616 -2.24099 2.18515 0
M  V30 4534 C 437.091 -3.10852 3.36355 0
M  V30 4535 N 438.582 -3.18441 3.36377 0
M  V30 4536 C 439.317 -3.85795 4.24205 0
M  V30 4537 N 438.813 -4.55264 5.22213 0
M  V30 4538 N 440.606 -3.82331 4.12043 0
M  V30 4539 H 432.757 -0.539907 2.05423 0
M  V30 4540 H 435.02 -0.30092 0.898972 0
M  V30 4541 H 434.726 -1.66144 3.09983 0
M  V30 4542 H 434.6 -3.11576 2.12604 0
M  V30 4543 H 436.987 -2.68016 1.23497 0
M  V30 4544 H 437.068 -1.22865 2.24361 0
M  V30 4545 H 436.712 -2.6764 4.31661 0
M  V30 4546 H 436.642 -4.12177 3.27746 0
M  V30 4547 H 439.133 -2.68978 2.65442 0
M  V30 4548 H 439.446 -5.04331 5.85551 0
M  V30 4549 H 437.791 -4.54085 5.26148 0
M  V30 4550 H 440.982 -3.27207 3.34743 0
M  V30 4551 H 441.155 -4.34547 4.807 0
M  V30 4552 N 434.561 -1.01147 -1.20859 0
M  V30 4553 C 435.524 -0.582224 -2.21682 0
M  V30 4554 C 436.524 0.344887 -1.57058 0
M  V30 4555 O 437.714 0.134281 -1.73682 0
M  V30 4556 C 434.846 0.150496 -3.40568 0
M  V30 4557 H 436.039 -1.47408 -2.61172 0
M  V30 4558 H 433.592 -0.800695 -1.34233 0
M  V30 4559 H 434.327 1.0575 -3.06574 0
M  V30 4560 H 434.112 -0.515444 -3.88697 0
M  V30 4561 H 435.602 0.438344 -4.15293 0
M  V30 4562 N 436.039 1.36541 -0.78704 0
M  V30 4563 C 436.986 2.30082 -0.181901 0
M  V30 4564 C 437.956 1.5186 0.672896 0
M  V30 4565 O 439.141 1.80374 0.622072 0
M  V30 4566 C 436.281 3.3835 0.679197 0
M  V30 4567 C 435.394 4.31565 -0.193882 0
M  V30 4568 C 434.529 5.26915 0.673364 0
M  V30 4569 C 433.568 6.11769 -0.201315 0
M  V30 4570 N 432.705 6.99315 0.624777 0
M  V30 4571 H 437.545 2.81248 -0.985064 0
M  V30 4572 H 435.082 1.38437 -0.497342 0
M  V30 4573 H 437.04 3.99767 1.19341 0
M  V30 4574 H 435.67 2.8851 1.44781 0
M  V30 4575 H 434.722 3.71323 -0.826044 0
M  V30 4576 H 436.034 4.91191 -0.867937 0
M  V30 4577 H 435.188 5.9361 1.25348 0
M  V30 4578 H 433.927 4.67737 1.38105 0
M  V30 4579 H 432.932 5.44039 -0.793849 0
M  V30 4580 H 434.157 6.73022 -0.906568 0
M  V30 4581 H 432.103 6.42648 1.3168 0
M  V30 4582 H 432.02 7.56 0.00835237 0
M  V30 4583 H 433.288 7.70382 1.18879 0
M  V30 4584 N 437.518 0.538854 1.48102 0
M  V30 4585 C 438.481 -0.208395 2.28251 0
M  V30 4586 C 439.481 -0.859656 1.35892 0
M  V30 4587 O 440.671 -0.71834 1.58699 0
M  V30 4588 C 437.803 -1.30252 3.15035 0
M  V30 4589 H 438.996 0.495407 2.9578 0
M  V30 4590 H 436.549 0.295112 1.53489 0
M  V30 4591 H 437.284 -2.0393 2.52157 0
M  V30 4592 H 437.069 -0.840551 3.82985 0
M  V30 4593 H 438.559 -1.82787 3.75471 0
M  V30 4594 N 438.996 -1.55193 0.274407 0
M  V30 4595 C 440.242 -1.99877 -0.343086 0
M  V30 4596 C 440.575 -1.16256 -1.55558 0
M  V30 4597 O 439.85 -0.232462 -1.93106 0
M  V30 4598 C 440.133 -3.52706 -0.725965 0
M  V30 4599 C 439.986 -4.47081 0.493818 0
M  V30 4600 C 441.305 -4.11422 -1.56268 0
M  V30 4601 H 438.424 -0.726625 -0.123229 0
M  V30 4602 H 441.066 -1.86136 0.38121 0
M  V30 4603 H 439.216 -3.64546 -1.34307 0
M  V30 4604 H 440.888 -4.47186 1.13237 0
M  V30 4605 H 439.131 -4.1877 1.13201 0
M  V30 4606 H 439.802 -5.51699 0.18217 0
M  V30 4607 H 442.278 -4.02855 -1.04151 0
M  V30 4608 H 441.154 -5.18568 -1.79939 0
M  V30 4609 H 441.415 -3.61607 -2.54348 0
M  V30 4610 N 440.474 -0.00167713 -1.576 0
M  V30 4611 C 441.404 0.988091 -2.11563 0
M  V30 4612 C 442.385 1.35736 -1.02517 0
M  V30 4613 O 443.57 1.44082 -1.30208 0
M  V30 4614 C 440.7 2.27941 -2.62031 0
M  V30 4615 C 439.654 2.0517 -3.75619 0
M  V30 4616 C 438.98 3.4033 -4.12407 0
M  V30 4617 C 440.28 1.41294 -5.02825 0
M  V30 4618 H 441.974 0.538771 -2.94513 0
M  V30 4619 H 439.52 0.257712 -1.41675 0
M  V30 4620 H 441.473 2.97539 -2.9841 0
M  V30 4621 H 440.197 2.74989 -1.76205 0
M  V30 4622 H 438.856 1.37998 -3.39635 0
M  V30 4623 H 438.504 3.85085 -3.23603 0
M  V30 4624 H 438.204 3.25909 -4.88935 0
M  V30 4625 H 439.728 4.1124 -4.51347 0
M  V30 4626 H 441.142 2.00851 -5.36965 0
M  V30 4627 H 439.539 1.37356 -5.84169 0
M  V30 4628 H 440.609 0.382362 -4.8339 0
M  V30 4629 N 441.952 1.55251 0.271103 0
M  V30 4630 C 443.182 1.79713 1.01916 0
M  V30 4631 C 443.59 0.571613 1.80359 0
M  V30 4632 O 442.933 -0.468853 1.77616 0
M  V30 4633 C 442.995 2.97138 2.02359 0
M  V30 4634 C 442.659 4.34104 1.42837 0
M  V30 4635 C 443.656 5.13019 0.843071 0
M  V30 4636 C 441.341 4.80765 1.455 0
M  V30 4637 C 443.335 6.36729 0.292333 0
M  V30 4638 C 441.022 6.0443 0.900402 0
M  V30 4639 C 442.02 6.8225 0.32007 0
M  V30 4640 O 441.708 8.03582 -0.226031 0
M  V30 4641 H 441.44 0.602431 0.306681 0
M  V30 4642 H 443.994 2.03097 0.306701 0
M  V30 4643 H 442.224 2.6945 2.77369 0
M  V30 4644 H 443.913 3.08907 2.63309 0
M  V30 4645 H 444.679 4.781 0.815178 0
M  V30 4646 H 440.558 4.20202 1.89609 0
M  V30 4647 H 444.102 6.97414 -0.161274 0
M  V30 4648 H 439.999 6.3883 0.925541 0
M  V30 4649 H 440.767 8.18418 -0.115572 0
M  V30 4650 N 443.43 -0.535701 1.48216 0
M  V30 4651 C 444.655 -1.32149 1.59848 0
M  V30 4652 C 445.08 -1.86338 0.256842 0
M  V30 4653 O 444.438 -1.64107 -0.770632 0
M  V30 4654 C 444.486 -2.45224 2.64381 0
M  V30 4655 O 443.59 -3.48093 2.21144 0
M  V30 4656 H 442.931 -0.391634 0.536208 0
M  V30 4657 H 445.461 -0.645202 1.94161 0
M  V30 4658 H 445.471 -2.91491 2.85476 0
M  V30 4659 H 444.146 -2.05143 3.61786 0
M  V30 4660 H 442.723 -3.07984 2.10239 0
M  V30 4661 N 444.908 -1.36708 -0.784132 0
M  V30 4662 C 445.841 -1.25827 -1.90375 0
M  V30 4663 C 446.819 -0.141331 -1.61985 0
M  V30 4664 O 448.003 -0.313389 -1.85877 0
M  V30 4665 C 445.13 -0.942621 -3.25319 0
M  V30 4666 C 444.176 -2.07474 -3.72635 0
M  V30 4667 S 445.009 -3.69317 -3.8777 0
M  V30 4668 C 446.165 -3.39876 -5.25581 0
M  V30 4669 H 446.398 -2.20593 -1.99314 0
M  V30 4670 H 443.931 -1.22186 -0.943926 0
M  V30 4671 H 445.889 -0.767321 -4.03265 0
M  V30 4672 H 444.55 -0.0126566 -3.14097 0
M  V30 4673 H 443.743 -1.80858 -4.70432 0
M  V30 4674 H 443.345 -2.20953 -3.01754 0
M  V30 4675 H 445.637 -2.94097 -6.10339 0
M  V30 4676 H 446.58 -4.36956 -5.57203 0
M  V30 4677 H 446.988 -2.75098 -4.92931 0
M  V30 4678 N 446.386 1.0089 -1.21074 0
M  V30 4679 C 447.616 1.77933 -1.04993 0
M  V30 4680 C 448.024 1.84847 0.403495 0
M  V30 4681 O 447.367 1.30606 1.29181 0
M  V30 4682 C 447.429 3.23541 -1.56722 0
M  V30 4683 C 447.093 3.40214 -3.05129 0
M  V30 4684 C 448.09 3.2881 -4.02716 0
M  V30 4685 C 445.775 3.65781 -3.44252 0
M  V30 4686 C 447.769 3.42732 -5.37414 0
M  V30 4687 C 445.456 3.79346 -4.79103 0
M  V30 4688 C 446.454 3.67827 -5.75493 0
M  V30 4689 O 446.142 3.80965 -7.07899 0
M  V30 4690 H 445.874 0.566157 -0.369381 0
M  V30 4691 H 448.428 1.27826 -1.60779 0
M  V30 4692 H 446.658 3.74766 -0.953285 0
M  V30 4693 H 448.347 3.82245 -1.36543 0
M  V30 4694 H 449.113 3.08986 -3.73835 0
M  V30 4695 H 444.992 3.73831 -2.69762 0
M  V30 4696 H 448.536 3.33658 -6.12632 0
M  V30 4697 H 444.433 3.98672 -5.07672 0
M  V30 4698 H 445.201 3.97937 -7.15254 0
M  V30 4699 N 447.864 1.01787 1.20321 0
M  V30 4700 C 449.28 0.732951 1.41774 0
M  V30 4701 C 449.48 -0.686883 1.89431 0
M  V30 4702 O 448.536 -1.45446 2.06402 0
M  V30 4703 C 449.849 1.75973 2.43832 0
M  V30 4704 C 451.397 1.77802 2.57596 0
M  V30 4705 C 451.872 2.7941 3.62897 0
M  V30 4706 N 453.363 2.78157 3.70382 0
M  V30 4707 C 454.098 3.53434 4.51521 0
M  V30 4708 N 453.594 4.38392 5.36455 0
M  V30 4709 N 455.387 3.42026 4.46066 0
M  V30 4710 H 447.538 1.93447 0.877035 0
M  V30 4711 H 449.801 0.835712 0.447536 0
M  V30 4712 H 449.507 2.77699 2.15815 0
M  V30 4713 H 449.381 1.57292 3.4284 0
M  V30 4714 H 451.768 0.767602 2.84942 0
M  V30 4715 H 451.849 2.00557 1.58779 0
M  V30 4716 H 451.493 3.80616 3.36295 0
M  V30 4717 H 451.423 2.53916 4.61339 0
M  V30 4718 H 453.914 2.16531 3.09714 0
M  V30 4719 H 454.227 4.92596 5.95457 0
M  V30 4720 H 452.572 4.4247 5.35953 0
M  V30 4721 H 455.763 2.75075 3.78749 0
M  V30 4722 H 455.936 4.00946 5.09064 0
M  V30 4723 N 449.342 -1.36122 0.79427 0
M  V30 4724 C 450.57 -2.03362 0.380989 0
M  V30 4725 C 450.985 -1.59881 -1.00416 0
M  V30 4726 O 450.342 -0.790515 -1.6449 0
M  V30 4727 C 450.393 -3.58804 0.440649 0
M  V30 4728 O 450.114 -4.007 1.77118 0
M  V30 4729 C 451.615 -4.43296 0.0186117 0
M  V30 4730 H 448.835 -0.652526 0.156367 0
M  V30 4731 H 451.379 -1.73998 1.07447 0
M  V30 4732 H 449.534 -3.8686 -0.204458 0
M  V30 4733 H 449.948 -4.95309 1.72538 0
M  V30 4734 H 451.422 -5.51887 0.111488 0
M  V30 4735 H 451.899 -4.2684 -1.03461 0
M  V30 4736 H 452.505 -4.20512 0.636395 0
M  V30 4737 N 450.82 -0.546701 -1.47814 0
M  V30 4738 C 452.068 -0.0187037 -2.02091 0
M  V30 4739 C 452.389 1.33168 -1.42447 0
M  V30 4740 O 451.659 1.86619 -0.595839 0
M  V30 4741 H 450.239 -0.00392531 -0.74699 0
M  V30 4742 H 452.901 -0.714327 -1.81338 0
M  V30 4743 H 451.997 0.0772219 -3.12004 0
M  V30 4744 N 452.299 1.55045 -0.282633 0
M  V30 4745 C 453.262 2.21515 0.588539 0
M  V30 4746 C 454.262 1.19535 1.07554 0
M  V30 4747 O 455.452 1.44391 0.974514 0
M  V30 4748 C 452.584 2.88704 1.8128 0
M  V30 4749 H 453.777 2.99899 0.00806397 0
M  V30 4750 H 451.33 1.56265 -0.0333067 0
M  V30 4751 H 452.065 2.14352 2.43359 0
M  V30 4752 H 451.85 3.63443 1.47144 0
M  V30 4753 H 453.34 3.39465 2.43214 0
M  V30 4754 N 453.777 0.010035 1.57597 0
M  V30 4755 C 454.707 -0.976857 2.12084 0
M  V30 4756 C 455.688 -1.35191 1.03235 0
M  V30 4757 O 456.873 -1.43389 1.3097 0
M  V30 4758 C 454.003 -2.26548 2.63236 0
M  V30 4759 C 452.957 -2.03175 3.76701 0
M  V30 4760 C 452.283 -3.38138 4.14206 0
M  V30 4761 C 453.583 -1.38625 5.03568 0
M  V30 4762 H 455.277 -0.523145 2.94794 0
M  V30 4763 H 452.823 -0.250195 1.4181 0
M  V30 4764 H 454.776 -2.95952 2.99984 0
M  V30 4765 H 453.5 -2.74051 1.77661 0
M  V30 4766 H 452.159 -1.36195 3.40362 0
M  V30 4767 H 451.807 -3.83363 3.25641 0
M  V30 4768 H 451.507 -3.23312 4.90656 0
M  V30 4769 H 453.031 -4.08841 4.53521 0
M  V30 4770 H 454.445 -1.98 5.38023 0
M  V30 4771 H 452.842 -1.34256 5.84889 0
M  V30 4772 H 453.912 -0.356722 4.83586 0
M  V30 4773 N 455.255 -1.55392 -0.262866 0
M  V30 4774 C 456.48 -1.80847 -1.01533 0
M  V30 4775 C 456.905 -0.584946 -1.78774 0
M  V30 4776 O 456.263 0.465701 -1.75217 0
M  V30 4777 C 456.311 -3.03866 -1.94159 0
M  V30 4778 O 455.415 -2.79662 -3.03089 0
M  V30 4779 H 454.756 -0.597441 -0.289759 0
M  V30 4780 H 457.286 -2.02553 -0.288698 0
M  V30 4781 H 457.296 -3.32872 -2.35924 0
M  V30 4782 H 455.971 -3.92564 -1.37354 0
M  V30 4783 H 454.548 -2.61781 -2.65566 0
M  V30 4784 N 456.733 0.527833 -1.48498 0
M  V30 4785 C 457.68 1.6322 -1.6318 0
M  V30 4786 C 458.65 1.59199 -0.473815 0
M  V30 4787 O 459.835 1.77591 -0.697563 0
M  V30 4788 C 456.975 3.01474 -1.67951 0
M  V30 4789 C 456.088 3.15713 -2.94871 0
M  V30 4790 C 455.223 4.44539 -2.90789 0
M  V30 4791 C 454.262 4.52315 -4.12404 0
M  V30 4792 N 453.399 5.72533 -4.06387 0
M  V30 4793 H 458.239 1.50011 -2.57489 0
M  V30 4794 H 455.776 0.730298 -1.27691 0
M  V30 4795 H 457.734 3.81572 -1.68698 0
M  V30 4796 H 456.364 3.1345 -0.771306 0
M  V30 4797 H 455.416 2.28854 -3.03859 0
M  V30 4798 H 456.728 3.1732 -3.8485 0
M  V30 4799 H 455.882 5.3293 -2.89949 0
M  V30 4800 H 454.621 4.45457 -1.98542 0
M  V30 4801 H 453.626 3.62331 -4.13517 0
M  V30 4802 H 454.851 4.53134 -5.05812 0
M  V30 4803 H 452.797 5.74344 -3.16962 0
M  V30 4804 H 452.714 5.75643 -4.90073 0
M  V30 4805 H 453.982 6.63204 -4.0961 0
M  V30 4806 N 458.211 1.37122 0.776871 0
M  V30 4807 C 459.488 1.22586 1.52421 0
M  V30 4808 C 459.868 -0.182726 2.10308 0
M  V30 4809 O 459.216 -1.18979 1.9508 0
M  V30 4810 C 459.426 2.31782 2.60918 0
M  V30 4811 C 460.774 2.69071 3.2846 0
M  V30 4812 O 461.798 2.3092 2.71209 0
M  V30 4813 O 460.657 3.3478 4.31954 0
M  V30 4814 H 457.751 0.478045 0.674835 0
M  V30 4815 H 460.297 1.48888 0.814275 0
M  V30 4816 H 459.069 3.26131 2.16227 0
M  V30 4817 H 458.692 2.06916 3.39517 0
M  V30 4818 N 459.689 -1.00246 1.21608 0
M  V30 4819 C 460.599 -2.12515 0.993709 0
M  V30 4820 C 461.615 -1.73913 -0.0549939 0
M  V30 4821 O 462.791 -2.00943 0.135619 0
M  V30 4822 C 459.856 -3.42083 0.563953 0
M  V30 4823 C 458.917 -3.94843 1.68516 0
M  V30 4824 C 458.15 -5.18226 1.27582 0
M  V30 4825 O 458.373 -5.70201 0.150506 0
M  V30 4826 O 457.307 -5.64497 2.0887 0
M  V30 4827 H 461.133 -2.34152 1.93407 0
M  V30 4828 H 458.718 -1.10891 1.00118 0
M  V30 4829 H 460.6 -4.20073 0.334194 0
M  V30 4830 H 459.275 -3.21828 -0.347665 0
M  V30 4831 H 458.182 -3.18068 1.96935 0
M  V30 4832 H 459.515 -4.19512 2.5743 0
M  V30 4833 N 461.167 -1.02423 -1.1978 0
M  V30 4834 C 462.397 -0.736387 -1.93031 0
M  V30 4835 C 462.805 0.708023 -1.75453 0
M  V30 4836 O 462.148 1.4927 -1.07071 0
M  V30 4837 C 462.21 -1.00194 -3.45255 0
M  V30 4838 C 461.874 -2.43698 -3.86601 0
M  V30 4839 C 462.871 -3.41814 -3.91738 0
M  V30 4840 C 460.556 -2.77975 -4.18372 0
M  V30 4841 C 462.55 -4.72265 -4.28071 0
M  V30 4842 C 460.237 -4.08636 -4.54378 0
M  V30 4843 C 461.235 -5.05592 -4.59201 0
M  V30 4844 O 460.923 -6.33914 -4.94376 0
M  V30 4845 H 460.655 -0.269116 -0.620123 0
M  V30 4846 H 463.209 -1.37043 -1.52998 0
M  V30 4847 H 461.439 -0.310747 -3.85449 0
M  V30 4848 H 463.128 -0.704488 -3.9974 0
M  V30 4849 H 463.894 -3.16671 -3.67348 0
M  V30 4850 H 459.773 -2.0319 -4.13805 0
M  V30 4851 H 463.317 -5.4794 -4.3175 0
M  V30 4852 H 459.214 -4.33556 -4.78226 0
M  V30 4853 H 459.982 -6.38317 -5.12341 0
M  V30 4854 N 462.645 1.35699 -0.801477 0
M  V30 4855 C 463.87 2.03687 -0.390678 0
M  V30 4856 C 464.295 1.60015 0.988778 0
M  V30 4857 O 463.653 0.774357 1.63931 0
M  V30 4858 C 463.701 3.57439 -0.476404 0
M  V30 4859 O 462.805 4.09208 0.512106 0
M  V30 4860 H 462.146 0.64344 -0.163956 0
M  V30 4861 H 464.676 1.73403 -1.08594 0
M  V30 4862 H 464.686 4.06544 -0.344357 0
M  V30 4863 H 463.361 3.88576 -1.48262 0
M  V30 4864 H 461.938 3.7134 0.340721 0
M  V30 4865 N 464.123 0.554532 1.47522 0
M  V30 4866 C 465.055 -0.232106 2.28022 0
M  V30 4867 C 466.068 -0.881865 1.36847 0
M  V30 4868 O 467.257 -0.756168 1.61692 0
M  V30 4869 C 464.357 -1.34604 3.11022 0
M  V30 4870 C 463.53 -0.793582 4.30141 0
M  V30 4871 C 462.589 -1.79168 4.94758 0
M  V30 4872 O 461.615 -1.33886 5.5323 0
M  V30 4873 N 462.817 -3.12495 4.89211 0
M  V30 4874 H 465.582 0.458407 2.96173 0
M  V30 4875 H 463.143 0.390433 1.57122 0
M  V30 4876 H 465.135 -2.01243 3.51118 0
M  V30 4877 H 463.705 -1.93983 2.45131 0
M  V30 4878 H 462.925 0.0495025 3.94169 0
M  V30 4879 H 464.213 -0.403776 5.07195 0
M  V30 4880 H 463.611 -3.51931 4.42901 0
M  V30 4881 H 462.168 -3.74698 5.33333 0
M  V30 4882 N 465.601 -1.54893 0.290851 0
M  V30 4883 C 466.831 -2.04047 -0.323818 0
M  V30 4884 C 467.239 -1.16809 -1.48837 0
M  V30 4885 O 466.582 -0.184145 -1.82775 0
M  V30 4886 C 466.644 -3.49248 -0.852395 0
M  V30 4887 C 466.308 -4.56623 0.185557 0
M  V30 4888 C 467.305 -5.09985 1.01053 0
M  V30 4889 C 464.99 -5.01252 0.324332 0
M  V30 4890 C 466.984 -6.06507 1.96031 0
M  V30 4891 C 464.671 -5.97596 1.27757 0
M  V30 4892 C 465.669 -6.50107 2.09405 0
M  V30 4893 O 465.357 -7.44565 3.03114 0
M  V30 4894 H 465.089 -0.671735 -0.0758129 0
M  V30 4895 H 467.643 -2.00947 0.425393 0
M  V30 4896 H 465.873 -3.49639 -1.65195 0
M  V30 4897 H 467.562 -3.81654 -1.38185 0
M  V30 4898 H 468.328 -4.76307 0.914129 0
M  V30 4899 H 464.207 -4.60015 -0.301213 0
M  V30 4900 H 467.751 -6.47418 2.598 0
M  V30 4901 H 463.648 -6.30691 1.37473 0
M  V30 4902 H 464.416 -7.62334 2.97976 0
M  V30 4903 N 467.08 -0.0183926 -1.57589 0
M  V30 4904 C 468.027 0.967022 -2.09565 0
M  V30 4905 C 468.997 1.32983 -0.995225 0
M  V30 4906 O 470.182 1.42501 -1.26878 0
M  V30 4907 C 467.322 2.24772 -2.61861 0
M  V30 4908 C 466.435 1.94232 -3.85873 0
M  V30 4909 C 465.57 3.16518 -4.26603 0
M  V30 4910 C 464.609 2.81748 -5.43401 0
M  V30 4911 N 463.746 3.96626 -5.79338 0
M  V30 4912 H 468.586 0.516874 -2.93483 0
M  V30 4913 H 466.123 0.243544 -1.4507 0
M  V30 4914 H 468.081 2.99667 -2.90268 0
M  V30 4915 H 466.711 2.67423 -1.8079 0
M  V30 4916 H 465.763 1.09625 -3.64262 0
M  V30 4917 H 467.075 1.64616 -4.70853 0
M  V30 4918 H 466.229 3.99743 -4.56389 0
M  V30 4919 H 464.968 3.49286 -3.40368 0
M  V30 4920 H 463.973 1.96933 -5.1332 0
M  V30 4921 H 465.198 2.50207 -6.31327 0
M  V30 4922 H 463.144 4.29257 -4.96059 0
M  V30 4923 H 463.061 3.70598 -6.58933 0
M  V30 4924 H 464.329 4.80586 -6.13724 0
M  V30 4925 N 468.558 1.5553 0.254621 0
M  V30 4926 C 469.835 1.6774 1.00611 0
M  V30 4927 C 470.215 0.555993 2.03647 0
M  V30 4928 O 469.563 -0.441583 2.24193 0
M  V30 4929 C 469.773 3.07725 1.6464 0
M  V30 4930 C 471.121 3.66074 2.15116 0
M  V30 4931 O 472.145 3.10476 1.74595 0
M  V30 4932 O 471.004 4.63526 2.89493 0
M  V30 4933 H 468.098 0.681958 0.467828 0
M  V30 4934 H 470.644 1.67863 0.24902 0
M  V30 4935 H 469.416 3.80792 0.900734 0
M  V30 4936 H 469.039 3.1158 2.46989 0
M  V30 4937 N 470.036 -0.519951 1.48776 0
M  V30 4938 C 471.266 -1.29783 1.60748 0
M  V30 4939 C 471.674 -1.87253 0.27072 0
M  V30 4940 O 471.017 -1.67628 -0.751438 0
M  V30 4941 C 471.079 -2.47984 2.60277 0
M  V30 4942 C 470.743 -2.11526 4.051 0
M  V30 4943 C 471.74 -1.66608 4.92481 0
M  V30 4944 C 469.425 -2.21742 4.50706 0
M  V30 4945 C 471.419 -1.32384 6.23501 0
M  V30 4946 C 469.106 -1.87129 5.81744 0
M  V30 4947 C 470.104 -1.42523 6.67964 0
M  V30 4948 O 469.792 -1.0837 7.96562 0
M  V30 4949 H 469.524 -0.400562 0.544542 0
M  V30 4950 H 472.078 -0.632879 1.95407 0
M  V30 4951 H 470.308 -3.17493 2.2076 0
M  V30 4952 H 471.997 -3.10036 2.61978 0
M  V30 4953 H 472.763 -1.58178 4.58481 0
M  V30 4954 H 468.642 -2.55415 3.83776 0
M  V30 4955 H 472.186 -0.974949 6.90754 0
M  V30 4956 H 468.083 -1.95204 6.15277 0
M  V30 4957 H 468.851 -1.21681 8.09405 0
M  V30 4958 N 471.514 -1.37532 -0.769588 0
M  V30 4959 C 472.791 -1.23392 -1.51768 0
M  V30 4960 C 473.171 0.17157 -2.10402 0
M  V30 4961 O 472.519 1.17943 -1.95708 0
M  V30 4962 C 472.729 -2.33163 -2.59685 0
M  V30 4963 C 474.077 -2.70809 -3.27028 0
M  V30 4964 O 475.101 -2.32355 -2.69981 0
M  V30 4965 O 473.96 -3.37066 -4.30173 0
M  V30 4966 H 471.054 -0.481617 -0.67229 0
M  V30 4967 H 473.6 -1.49318 -0.806368 0
M  V30 4968 H 472.372 -3.27273 -2.14494 0
M  V30 4969 H 471.995 -2.08713 -3.38415 0
M  V30 4970 N 472.992 0.995999 -1.22138 0
M  V30 4971 C 473.922 2.10387 -1.01289 0
M  V30 4972 C 474.903 1.69975 0.0651454 0
M  V30 4973 O 476.088 1.9396 -0.0964628 0
M  V30 4974 C 473.218 3.42312 -0.586517 0
M  V30 4975 C 472.172 3.96558 -1.61014 0
M  V30 4976 C 471.498 5.24494 -1.0397 0
M  V30 4977 C 472.798 4.27595 -2.99933 0
M  V30 4978 H 474.492 2.28086 -1.93951 0
M  V30 4979 H 472.038 1.09607 -0.933928 0
M  V30 4980 H 473.991 4.19223 -0.427793 0
M  V30 4981 H 472.715 3.24431 0.375761 0
M  V30 4982 H 471.374 3.21776 -1.75658 0
M  V30 4983 H 471.022 5.02953 -0.0688703 0
M  V30 4984 H 470.722 5.61755 -1.72352 0
M  V30 4985 H 472.246 6.04042 -0.892494 0
M  V30 4986 H 473.66 4.95315 -2.8868 0
M  V30 4987 H 472.057 4.76021 -3.6541 0
M  V30 4988 H 473.127 3.35498 -3.50099 0
M  V30 4989 N 474.47 1.03057 1.19235 0
M  V30 4990 C 475.417 0.612832 2.22515 0
M  V30 4991 C 476.387 -0.374224 1.61829 0
M  V30 4992 O 477.572 -0.270501 1.88873 0
M  V30 4993 C 474.712 -0.028475 3.45088 0
M  V30 4994 C 473.825 1.00483 4.20151 0
M  V30 4995 C 472.96 0.333102 5.30155 0
M  V30 4996 C 471.999 1.3522 5.96977 0
M  V30 4997 N 471.136 0.70616 6.9854 0
M  V30 4998 H 475.976 1.49812 2.57605 0
M  V30 4999 H 473.513 0.749658 1.26564 0
M  V30 5000 H 475.471 -0.417548 4.15105 0
M  V30 5001 H 474.101 -0.877334 3.10649 0
M  V30 5002 H 473.153 1.51194 3.49062 0
M  V30 5003 H 474.465 1.77929 4.65986 0
M  V30 5004 H 473.619 -0.110725 6.06599 0
M  V30 5005 H 472.358 -0.473547 4.85396 0
M  V30 5006 H 471.363 1.80627 5.19282 0
M  V30 5007 H 472.588 2.16037 6.4382 0
M  V30 5008 H 470.534 -0.0803667 6.55951 0
M  V30 5009 H 470.451 1.41848 7.42573 0
M  V30 5010 H 471.719 0.286391 7.78974 0
M  V30 5011 N 475.948 -1.35272 0.808662 0
M  V30 5012 C 476.88 -2.28507 0.178149 0
M  V30 5013 C 477.893 -1.50377 -0.623754 0
M  V30 5014 O 479.082 -1.72583 -0.455774 0
M  V30 5015 C 476.182 -3.30038 -0.769959 0
M  V30 5016 C 475.355 -4.37398 -0.0139749 0
M  V30 5017 C 474.414 -5.18775 -0.880875 0
M  V30 5018 O 473.44 -5.68236 -0.331059 0
M  V30 5019 N 474.642 -5.37087 -2.20267 0
M  V30 5020 H 477.407 -2.83255 0.979106 0
M  V30 5021 H 474.968 -1.47643 0.664308 0
M  V30 5022 H 476.96 -3.81371 -1.35418 0
M  V30 5023 H 475.53 -2.75789 -1.47171 0
M  V30 5024 H 474.75 -3.86971 0.751468 0
M  V30 5025 H 476.038 -5.06268 0.506965 0
M  V30 5026 H 475.436 -4.9855 -2.67328 0
M  V30 5027 H 473.993 -5.91593 -2.73608 0
M  V30 5028 N 477.426 -0.562348 -1.47226 0
M  V30 5029 C 478.703 0.0256985 -1.95583 0
M  V30 5030 C 479.083 1.48032 -1.50498 0
M  V30 5031 O 478.431 2.15973 -0.746181 0
M  V30 5032 C 478.641 -0.125129 -3.48776 0
M  V30 5033 C 479.989 0.0175728 -4.24596 0
M  V30 5034 O 481.013 -0.0529341 -3.56161 0
M  V30 5035 O 479.872 0.170145 -5.46235 0
M  V30 5036 H 476.966 0.0612565 -0.824728 0
M  V30 5037 H 479.512 -0.629233 -1.57603 0
M  V30 5038 H 478.284 -1.13715 -3.74412 0
M  V30 5039 H 477.907 0.567178 -3.93534 0
M  V30 5040 N 478.904 1.54736 -0.299062 0
M  V30 5041 C 480.151 2.00101 0.310784 0
M  V30 5042 C 480.479 1.18746 1.54045 0
M  V30 5043 O 479.734 0.251198 1.94081 0
M  V30 5044 C 480.033 3.50199 0.713835 0
M  V30 5045 C 479.699 4.48997 -0.413873 0
M  V30 5046 C 478.361 4.7573 -0.723462 0
M  V30 5047 C 480.713 5.07839 -1.17257 0
M  V30 5048 C 478.041 5.5857 -1.79491 0
M  V30 5049 C 480.393 5.91844 -2.23392 0
M  V30 5050 C 479.057 6.16889 -2.54959 0
M  V30 5051 H 478.327 0.732221 0.113724 0
M  V30 5052 H 480.974 1.86888 -0.417756 0
M  V30 5053 H 479.279 3.61012 1.52243 0
M  V30 5054 H 480.976 3.82723 1.19684 0
M  V30 5055 H 477.566 4.28292 -0.162476 0
M  V30 5056 H 481.75 4.87188 -0.946651 0
M  V30 5057 H 477.006 5.76213 -2.04423 0
M  V30 5058 H 481.18 6.36465 -2.8264 0
M  V30 5059 H 478.807 6.80869 -3.38114 0
M  V30 5060 N 480.382 0.0267497 1.57577 0
M  V30 5061 C 481.312 -0.954308 2.13108 0
M  V30 5062 C 482.293 -1.34088 1.04663 0
M  V30 5063 O 483.478 -1.41992 1.32484 0
M  V30 5064 C 480.608 -2.23744 2.65624 0
M  V30 5065 C 479.562 -1.99168 3.78835 0
M  V30 5066 C 478.888 -3.33726 4.17769 0
M  V30 5067 C 480.188 -1.33277 5.0501 0
M  V30 5068 H 481.882 -0.491848 2.95332 0
M  V30 5069 H 479.428 -0.23514 1.42067 0
M  V30 5070 H 481.381 -2.92754 3.03106 0
M  V30 5071 H 480.105 -2.72151 1.80558 0
M  V30 5072 H 478.764 -1.32577 3.41788 0
M  V30 5073 H 478.412 -3.79888 3.29688 0
M  V30 5074 H 478.112 -3.18089 4.94058 0
M  V30 5075 H 479.636 -4.04008 4.57832 0
M  V30 5076 H 481.05 -1.92283 5.40093 0
M  V30 5077 H 479.447 -1.28045 5.8628 0
M  V30 5078 H 480.517 -0.305411 4.83937 0
M  V30 5079 N 481.861 -1.55662 -0.24637 0
M  V30 5080 C 483.272 -1.67953 -0.81539 0
M  V30 5081 C 483.623 -0.624302 -1.86002 0
M  V30 5082 O 482.748 0.229328 -2.15181 0
M  V30 5083 C 483.343 -3.04484 -1.48576 0
M  V30 5084 C 481.902 -3.18713 -2.00248 0
M  V30 5085 C 481.049 -2.6383 -0.853766 0
M  V30 5086 H 484 -1.58685 -0.0221692 0
M  V30 5087 H 484.021 -2.98959 -2.3538 0
M  V30 5088 H 483.533 -3.81264 -0.725222 0
M  V30 5089 H 481.634 -2.46757 -2.79181 0
M  V30 5090 H 481.747 -4.25628 -2.1995 0
M  V30 5091 H 480.111 -2.21667 -1.25442 0
M  V30 5092 H 480.894 -3.43135 -0.106302 0
M  V30 5093 N 483.339 0.512053 -1.4905 0
M  V30 5094 C 484.564 1.2959 -1.6193 0
M  V30 5095 C 484.989 1.85906 -0.286454 0
M  V30 5096 O 484.347 1.65312 0.744426 0
M  V30 5097 C 484.395 2.40987 -2.68249 0
M  V30 5098 O 483.499 3.44531 -2.26654 0
M  V30 5099 H 482.84 0.383053 -0.542371 0
M  V30 5100 H 485.37 0.614231 -1.95162 0
M  V30 5101 H 485.38 2.86913 -2.90078 0
M  V30 5102 H 484.055 1.99361 -3.65004 0
M  V30 5103 H 482.632 3.046 -2.15112 0
M  V30 5104 N 484.817 1.37938 0.762283 0
M  V30 5105 C 486.065 1.33404 1.51815 0
M  V30 5106 C 486.386 -0.0780975 1.94844 0
M  V30 5107 O 485.656 -1.02405 1.67003 0
M  V30 5108 H 484.236 0.490839 0.563104 0
M  V30 5109 H 486.898 1.72527 0.906669 0
M  V30 5110 H 485.994 1.97926 2.41313 0
M  V30 5111 N 486.295 -0.989507 1.22664 0
M  V30 5112 C 487.523 -1.76496 1.07967 0
M  V30 5113 C 487.938 -1.85148 -0.369543 0
M  V30 5114 O 487.295 -1.32408 -1.25596 0
M  V30 5115 C 487.346 -3.19642 1.68853 0
M  V30 5116 O 487.067 -3.11453 3.08105 0
M  V30 5117 C 488.568 -4.13621 1.59475 0
M  V30 5118 H 485.788 -0.55418 0.378319 0
M  V30 5119 H 488.332 -1.24378 1.62328 0
M  V30 5120 H 486.487 -3.68816 1.18547 0
M  V30 5121 H 486.901 -4.01499 3.37489 0
M  V30 5122 H 488.375 -5.11801 2.06795 0
M  V30 5123 H 488.852 -4.35718 0.55191 0
M  V30 5124 H 489.458 -3.70346 2.09103 0
M  V30 5125 N 487.773 -1.03688 -1.18687 0
M  V30 5126 C 489.019 -0.739123 -1.88851 0
M  V30 5127 C 489.352 0.731042 -1.79915 0
M  V30 5128 O 488.627 1.53313 -1.19688 0
M  V30 5129 C 488.91 -1.20106 -3.3948 0
M  V30 5130 C 488.763 -2.73304 -3.57246 0
M  V30 5131 C 490.082 -0.788134 -4.32986 0
M  V30 5132 H 487.201 -0.269978 -0.68577 0
M  V30 5133 H 489.843 -1.28822 -1.3966 0
M  V30 5134 H 487.993 -0.733915 -3.81505 0
M  V30 5135 H 489.665 -3.28027 -3.24339 0
M  V30 5136 H 487.908 -3.13313 -3.00029 0
M  V30 5137 H 488.579 -3.00684 -4.62918 0
M  V30 5138 H 491.055 -1.19005 -3.98719 0
M  V30 5139 H 489.931 -1.13915 -5.36949 0
M  V30 5140 H 490.192 0.308988 -4.41019 0
M  V30 5141 N 489.251 1.34841 -0.815825 0
M  V30 5142 C 490.479 2.0273 -0.413294 0
M  V30 5143 C 490.894 1.61459 0.978599 0
M  V30 5144 O 490.251 0.816584 1.63212 0
M  V30 5145 C 490.302 3.58058 -0.497676 0
M  V30 5146 O 490.023 3.97832 -1.8347 0
M  V30 5147 C 491.524 4.4321 -0.0891339 0
M  V30 5148 H 488.744 0.649956 -0.166728 0
M  V30 5149 H 491.288 1.72267 -1.10201 0
M  V30 5150 H 489.443 3.87136 0.142886 0
M  V30 5151 H 489.857 4.92501 -1.80396 0
M  V30 5152 H 491.331 5.5164 -0.199274 0
M  V30 5153 H 491.808 4.28432 0.966571 0
M  V30 5154 H 492.414 4.19446 -0.703214 0
M  V30 5155 N 490.729 0.570148 1.46925 0
M  V30 5156 C 491.977 0.0508523 2.02036 0
M  V30 5157 C 492.298 -1.30885 1.44548 0
M  V30 5158 O 491.568 -1.85647 0.625453 0
M  V30 5159 H 490.148 0.0158088 0.746833 0
M  V30 5160 H 492.81 0.743086 1.80178 0
M  V30 5161 H 491.906 -0.027575 3.12088 0
M  V30 5162 N 492.207 -1.54576 0.307264 0
M  V30 5163 C 493.456 -1.99442 -0.300976 0
M  V30 5164 C 493.769 -1.19928 -1.5452 0
M  V30 5165 O 494.975 -1.55092 -2.22842 0
M  V30 5166 C 493.431 -3.55084 -0.586809 0
M  V30 5167 C 493.039 -4.43413 0.639438 0
M  V30 5168 C 494.783 -4.0846 -1.1559 0
M  V30 5169 C 492.69 -5.90499 0.326411 0
M  V30 5170 H 491.62 -0.744986 -0.116238 0
M  V30 5171 H 494.271 -1.787 0.416947 0
M  V30 5172 H 492.653 -3.71749 -1.36449 0
M  V30 5173 H 493.827 -4.38522 1.41545 0
M  V30 5174 H 492.142 -4.00842 1.1276 0
M  V30 5175 H 494.739 -5.15926 -1.40445 0
M  V30 5176 H 495.082 -3.59443 -2.10015 0
M  V30 5177 H 495.615 -3.95362 -0.439778 0
M  V30 5178 H 492.354 -6.43676 1.23939 0
M  V30 5179 H 491.874 -5.98382 -0.412212 0
M  V30 5180 H 493.553 -6.46962 -0.0697393 0
M  V30 5181 N 493.685 -0.035106 -1.57561 0
M  V30 5182 C 494.91 0.655802 -1.96759 0
M  V30 5183 C 495.335 1.64523 -0.911809 0
M  V30 5184 O 494.693 1.80857 0.126673 0
M  V30 5185 C 494.741 1.33326 -3.35047 0
M  V30 5186 O 493.845 2.44866 -3.31835 0
M  V30 5187 H 493.186 0.171807 -0.641388 0
M  V30 5188 H 495.716 -0.0987369 -2.04362 0
M  V30 5189 H 495.726 1.68867 -3.71413 0
M  V30 5190 H 494.401 0.608033 -4.11431 0
M  V30 5191 H 492.978 2.11392 -3.07193 0
M  V30 5192 N 495.163 1.55791 0.238111 0
M  V30 5193 C 496.579 1.48411 0.587045 0
M  V30 5194 C 496.779 0.72702 1.87927 0
M  V30 5195 O 495.835 0.259942 2.51158 0
M  V30 5196 C 497.148 2.92873 0.681623 0
M  V30 5197 C 498.696 3.03295 0.773363 0
M  V30 5198 C 499.171 4.49082 0.899428 0
M  V30 5199 N 500.662 4.53056 0.964075 0
M  V30 5200 C 501.397 5.63117 1.08104 0
M  V30 5201 N 500.893 6.82969 1.16299 0
M  V30 5202 N 502.686 5.50933 1.11488 0
M  V30 5203 H 494.837 2.0345 -0.610076 0
M  V30 5204 H 497.1 0.924034 -0.211813 0
M  V30 5205 H 496.806 3.51142 -0.19802 0
M  V30 5206 H 496.68 3.43851 1.55069 0
M  V30 5207 H 499.067 2.45101 1.64346 0
M  V30 5208 H 499.148 2.55513 -0.121034 0
M  V30 5209 H 498.792 5.07889 0.0338586 0
M  V30 5210 H 498.722 4.94553 1.809 0
M  V30 5211 H 501.213 3.66737 0.91173 0
M  V30 5212 H 501.526 7.62598 1.25155 0
M  V30 5213 H 499.871 6.85712 1.13241 0
M  V30 5214 H 503.062 4.56231 1.0474 0
M  V30 5215 H 503.235 6.36743 1.20259 0
M  V30 5216 N 496.642 -0.504142 1.49319 0
M  V30 5217 C 497.919 -1.26548 1.49147 0
M  V30 5218 C 498.299 -2.09977 0.21744 0
M  V30 5219 O 497.647 -2.14028 -0.800269 0
M  V30 5220 C 497.857 -2.12489 2.76857 0
M  V30 5221 C 499.205 -2.7178 3.26222 0
M  V30 5222 O 500.229 -2.22758 2.77952 0
M  V30 5223 O 499.088 -3.61015 4.10281 0
M  V30 5224 H 496.182 -0.572495 0.596806 0
M  V30 5225 H 498.728 -0.51867 1.61579 0
M  V30 5226 H 497.5 -1.50796 3.61077 0
M  V30 5227 H 497.123 -2.94368 2.6727 0
M  V30 5228 N 498.12 -1.38341 -0.754957 0
M  V30 5229 C 499.35 -1.37504 -1.54195 0
M  V30 5230 C 499.758 0.0373787 -1.89163 0
M  V30 5231 O 499.101 1.01402 -1.53178 0
M  V30 5232 C 499.163 -2.16488 -2.87008 0
M  V30 5233 C 498.827 -3.65311 -2.74585 0
M  V30 5234 C 499.824 -4.58834 -2.44474 0
M  V30 5235 C 497.509 -4.08649 -2.9208 0
M  V30 5236 C 499.503 -5.93675 -2.32011 0
M  V30 5237 C 497.19 -5.43571 -2.79237 0
M  V30 5238 C 498.188 -6.35898 -2.49245 0
M  V30 5239 O 497.876 -7.68338 -2.36458 0
M  V30 5240 H 497.608 -0.472159 -0.483779 0
M  V30 5241 H 500.162 -1.82515 -0.94221 0
M  V30 5242 H 498.392 -1.66194 -3.49166 0
M  V30 5243 H 500.081 -2.08076 -3.4851 0
M  V30 5244 H 500.847 -4.26657 -2.30627 0
M  V30 5245 H 496.726 -3.37134 -3.14422 0
M  V30 5246 H 500.27 -6.65706 -2.08522 0
M  V30 5247 H 496.167 -5.75345 -2.92657 0
M  V30 5248 H 496.935 -7.78845 -2.5168 0
M  V30 5249 N 499.598 0.982988 -1.23187 0
M  V30 5250 C 500.528 2.09301 -1.03515 0
M  V30 5251 C 501.509 1.70035 0.0471136 0
M  V30 5252 O 502.694 1.93847 -0.117029 0
M  V30 5253 C 499.824 3.4167 -0.622791 0
M  V30 5254 C 498.778 3.94828 -1.65211 0
M  V30 5255 C 498.104 5.23362 -1.09527 0
M  V30 5256 C 499.404 4.2439 -3.04451 0
M  V30 5257 H 501.098 2.26016 -1.96359 0
M  V30 5258 H 498.644 1.08611 -0.945501 0
M  V30 5259 H 500.597 4.18746 -0.472233 0
M  V30 5260 H 499.321 3.24811 0.341329 0
M  V30 5261 H 497.98 3.19895 -1.79061 0
M  V30 5262 H 497.628 5.02852 -0.122211 0
M  V30 5263 H 497.328 5.59895 -1.783 0
M  V30 5264 H 498.852 6.03062 -0.956511 0
M  V30 5265 H 500.266 4.92225 -2.93917 0
M  V30 5266 H 498.663 4.72118 -3.70438 0
M  V30 5267 H 499.733 3.31765 -3.53638 0
M  V30 5268 N 501.076 1.04316 1.18135 0
M  V30 5269 C 502.306 0.767003 1.91835 0
M  V30 5270 C 502.714 -0.68002 1.76557 0
M  V30 5271 O 502.057 -1.47548 1.09432 0
M  V30 5272 C 502.119 1.05674 3.43618 0
M  V30 5273 C 501.783 2.49818 3.82675 0
M  V30 5274 C 502.78 3.48003 3.86251 0
M  V30 5275 C 500.465 2.84596 4.13897 0
M  V30 5276 C 502.459 4.79016 4.20503 0
M  V30 5277 C 500.146 4.15813 4.4782 0
M  V30 5278 C 501.144 5.12834 4.51099 0
M  V30 5279 O 500.832 6.41699 4.84229 0
M  V30 5280 H 500.564 0.278948 0.615763 0
M  V30 5281 H 503.118 1.3946 1.50798 0
M  V30 5282 H 501.348 0.372029 3.84906 0
M  V30 5283 H 503.037 0.767994 3.98568 0
M  V30 5284 H 503.803 3.22475 3.62264 0
M  V30 5285 H 499.682 2.09748 4.1052 0
M  V30 5286 H 503.226 5.54739 4.22978 0
M  V30 5287 H 499.123 4.41109 4.71268 0
M  V30 5288 H 499.891 6.46387 5.02121 0
M  V30 5289 N 502.554 -1.34406 0.822964 0
M  V30 5290 C 503.801 -1.98284 0.411057 0
M  V30 5291 C 504.129 -1.65245 -1.02588 0
M  V30 5292 O 503.384 -0.91619 -1.72929 0
M  V30 5293 C 503.683 -3.52981 0.560268 0
M  V30 5294 C 503.349 -4.05931 1.96293 0
M  V30 5295 C 502.011 -4.20103 2.34664 0
M  V30 5296 C 504.363 -4.34412 2.87985 0
M  V30 5297 C 501.691 -4.60082 3.64062 0
M  V30 5298 C 504.043 -4.75838 4.16847 0
M  V30 5299 C 502.707 -4.88215 4.55195 0
M  V30 5300 H 501.977 -0.725573 0.150416 0
M  V30 5301 H 504.624 -1.60349 1.04692 0
M  V30 5302 H 502.929 -3.91477 -0.158982 0
M  V30 5303 H 504.626 -4.00385 0.222087 0
M  V30 5304 H 501.216 -3.95363 1.65487 0
M  V30 5305 H 505.4 -4.23001 2.59584 0
M  V30 5306 H 500.656 -4.67856 3.93599 0
M  V30 5307 H 504.83 -4.96834 4.87984 0
M  V30 5308 H 502.457 -5.18952 5.55512 0
M  V30 5309 N 504.032 -0.577932 -1.46621 0
M  V30 5310 C 505.26 -0.0671642 -2.06791 0
M  V30 5311 C 505.675 1.23571 -1.42743 0
M  V30 5312 O 505.032 1.74602 -0.531062 0
M  V30 5313 C 505.083 0.110357 -3.61332 0
M  V30 5314 O 504.804 -1.14095 -4.22982 0
M  V30 5315 C 506.305 0.656025 -4.38419 0
M  V30 5316 H 503.525 -0.0552732 -0.66872 0
M  V30 5317 H 506.069 -0.797242 -1.8832 0
M  V30 5318 H 504.224 0.790637 -3.79246 0
M  V30 5319 H 504.638 -0.951742 -5.15793 0
M  V30 5320 H 506.112 0.729438 -5.47159 0
M  V30 5321 H 506.589 1.67195 -4.06131 0
M  V30 5322 H 507.195 0.0107692 -4.25299 0
M  V30 5323 N 505.51 1.54411 -0.315457 0
M  V30 5324 C 506.738 2.04833 0.291738 0
M  V30 5325 C 507.153 1.19203 1.46411 0
M  V30 5326 O 506.51 0.220867 1.81159 0
M  V30 5327 C 506.561 3.53969 0.73404 0
M  V30 5328 O 506.282 4.36346 -0.391682 0
M  V30 5329 C 507.783 4.2045 1.40489 0
M  V30 5330 H 505.003 0.668195 0.0612947 0
M  V30 5331 H 507.547 1.99276 -0.45929 0
M  V30 5332 H 505.702 3.5984 1.43506 0
M  V30 5333 H 506.116 5.24481 -0.0447088 0
M  V30 5334 H 507.59 5.26278 1.66539 0
M  V30 5335 H 508.067 3.71067 2.3496 0
M  V30 5336 H 508.673 4.18694 0.746662 0
M  V30 5337 N 506.988 0.0434614 1.5754 0
M  V30 5338 C 507.918 -0.931651 2.14109 0
M  V30 5339 C 508.899 -1.32971 1.06079 0
M  V30 5340 O 510.084 -1.40579 1.33982 0
M  V30 5341 C 507.214 -2.20914 2.67982 0
M  V30 5342 C 506.168 -1.95139 3.80926 0
M  V30 5343 C 505.494 -3.29276 4.21285 0
M  V30 5344 C 506.794 -1.27913 5.06395 0
M  V30 5345 H 508.488 -0.460497 2.95837 0
M  V30 5346 H 506.034 -0.220058 1.42309 0
M  V30 5347 H 507.987 -2.89522 3.06194 0
M  V30 5348 H 506.711 -2.70221 1.83434 0
M  V30 5349 H 505.37 -1.28945 3.43175 0
M  V30 5350 H 505.018 -3.76369 3.33699 0
M  V30 5351 H 504.718 -3.12831 4.97404 0
M  V30 5352 H 506.242 -3.99129 4.62091 0
M  V30 5353 H 507.656 -1.86544 5.42102 0
M  V30 5354 H 506.053 -1.2182 5.87605 0
M  V30 5355 H 507.123 -0.254066 4.84234 0
M  V30 5356 N 508.466 -1.55915 -0.229846 0
M  V30 5357 C 509.429 -1.90914 -1.26824 0
M  V30 5358 C 510.429 -0.786999 -1.40225 0
M  V30 5359 O 511.619 -1.05484 -1.38632 0
M  V30 5360 C 508.751 -2.15264 -2.64337 0
M  V30 5361 H 509.944 -2.8378 -0.969998 0
M  V30 5362 H 507.497 -1.49069 -0.4699 0
M  V30 5363 H 508.232 -1.24923 -2.99274 0
M  V30 5364 H 508.017 -2.97005 -2.55989 0
M  V30 5365 H 509.507 -2.43467 -3.39284 0
M  V30 5366 N 509.944 0.496216 -1.49584 0
M  V30 5367 C 510.854 1.62352 -1.69349 0
M  V30 5368 C 511.87 1.64184 -0.576147 0
M  V30 5369 O 513.046 1.82517 -0.85144 0
M  V30 5370 C 510.111 2.98698 -1.76013 0
M  V30 5371 C 509.172 3.07454 -2.99617 0
M  V30 5372 C 508.405 4.37296 -3.05953 0
M  V30 5373 O 508.628 5.2637 -2.19752 0
M  V30 5374 O 507.562 4.51124 -3.9846 0
M  V30 5375 H 511.388 1.48606 -2.64859 0
M  V30 5376 H 508.973 0.673022 -1.33382 0
M  V30 5377 H 510.855 3.79725 -1.82721 0
M  V30 5378 H 509.53 3.12696 -0.836828 0
M  V30 5379 H 508.437 2.25597 -2.98424 0
M  V30 5380 H 509.77 2.98385 -3.91443 0
M  V30 5381 N 511.423 1.38739 0.74761 0
M  V30 5382 C 512.386 1.36241 1.84312 0
M  V30 5383 C 513.386 0.261811 1.58654 0
M  V30 5384 O 514.576 0.519031 1.66288 0
M  V30 5385 C 511.708 1.12253 3.21888 0
M  V30 5386 H 512.901 2.33712 1.87933 0
M  V30 5387 H 510.454 1.2412 0.949946 0
M  V30 5388 H 511.189 0.154133 3.23934 0
M  V30 5389 H 510.974 1.91943 3.41907 0
M  V30 5390 H 512.464 1.13215 4.0196 0
M  V30 5391 N 512.901 -0.976442 1.23707 0
M  V30 5392 C 513.833 -2.07212 0.979574 0
M  V30 5393 C 514.846 -1.6273 -0.0478528 0
M  V30 5394 O 516.035 -1.77506 0.18815 0
M  V30 5395 C 513.135 -3.35835 0.45479 0
M  V30 5396 C 512.308 -4.09268 1.54331 0
M  V30 5397 C 511.367 -5.16166 1.02271 0
M  V30 5398 O 510.393 -5.42827 1.71254 0
M  V30 5399 N 511.595 -5.80313 -0.147419 0
M  V30 5400 H 514.36 -2.29878 1.92292 0
M  V30 5401 H 511.921 -1.14343 1.14618 0
M  V30 5402 H 513.913 -4.04597 0.0914631 0
M  V30 5403 H 512.483 -3.10106 -0.394068 0
M  V30 5404 H 511.703 -3.34906 2.07923 0
M  V30 5405 H 512.991 -4.55095 2.27522 0
M  V30 5406 H 512.389 -5.61043 -0.724353 0
M  V30 5407 H 510.946 -6.50231 -0.451972 0
M  V30 5408 N 514.379 -1.04941 -1.1758 0
M  V30 5409 C 515.289 -0.658826 -2.25159 0
M  V30 5410 C 516.305 0.318941 -1.71052 0
M  V30 5411 O 517.481 0.171669 -2.00667 0
M  V30 5412 C 514.546 -0.0369522 -3.4668 0
M  V30 5413 C 513.607 -1.06484 -4.15884 0
M  V30 5414 C 512.84 -0.472551 -5.31604 0
M  V30 5415 O 513.063 0.718736 -5.65854 0
M  V30 5416 O 511.997 -1.20557 -5.89703 0
M  V30 5417 H 515.823 -1.55533 -2.60851 0
M  V30 5418 H 513.408 -0.820819 -1.24832 0
M  V30 5419 H 515.29 0.308784 -4.20267 0
M  V30 5420 H 513.965 0.833238 -3.12792 0
M  V30 5421 H 512.872 -1.46253 -3.44327 0
M  V30 5422 H 514.205 -1.9061 -4.53794 0
M  V30 5423 N 515.857 1.33968 -0.830081 0
M  V30 5424 C 517.273 1.51003 -0.516742 0
M  V30 5425 C 517.473 1.77286 0.957694 0
M  V30 5426 O 516.529 1.82797 1.74188 0
M  V30 5427 C 517.842 2.67036 -1.38247 0
M  V30 5428 C 519.39 2.80919 -1.38034 0
M  V30 5429 C 519.865 4.00004 -2.23071 0
M  V30 5430 N 521.356 4.07224 -2.20733 0
M  V30 5431 C 522.091 4.98541 -2.83275 0
M  V30 5432 N 521.587 5.95033 -3.54835 0
M  V30 5433 N 523.38 4.91469 -2.72791 0
M  V30 5434 H 515.531 1.15168 -1.78466 0
M  V30 5435 H 517.794 0.565443 -0.760906 0
M  V30 5436 H 517.5 2.54266 -2.42985 0
M  V30 5437 H 517.374 3.62226 -1.05225 0
M  V30 5438 H 519.761 2.93127 -0.340713 0
M  V30 5439 H 519.842 1.86517 -1.75057 0
M  V30 5440 H 519.486 3.88557 -3.27087 0
M  V30 5441 H 519.416 4.93634 -1.83394 0
M  V30 5442 H 521.907 3.38162 -1.68687 0
M  V30 5443 H 522.22 6.61357 -3.99784 0
M  V30 5444 H 520.565 5.95135 -3.58942 0
M  V30 5445 H 523.756 4.15048 -2.16456 0
M  V30 5446 H 523.929 5.62439 -3.21818 0
M  V30 5447 N 517.335 0.585699 1.46312 0
M  V30 5448 C 518.268 -0.194257 2.27372 0
M  V30 5449 C 519.246 -0.894116 1.3581 0
M  V30 5450 O 520.43 -0.907402 1.65222 0
M  V30 5451 C 517.557 -1.27901 3.13622 0
M  V30 5452 C 516.603 -0.684666 4.20969 0
M  V30 5453 S 517.436 0.490745 5.33247 0
M  V30 5454 C 518.592 -0.595137 6.23064 0
M  V30 5455 H 518.825 0.493515 2.93175 0
M  V30 5456 H 516.358 0.372666 1.49835 0
M  V30 5457 H 518.316 -1.90008 3.63878 0
M  V30 5458 H 516.977 -1.93875 2.47126 0
M  V30 5459 H 516.17 -1.50015 4.81156 0
M  V30 5460 H 515.772 -0.139204 3.73741 0
M  V30 5461 H 518.064 -1.48002 6.61137 0
M  V30 5462 H 519.007 -0.0299446 7.08094 0
M  V30 5463 H 519.415 -0.900627 5.57269 0
M  V30 5464 N 518.813 -1.54241 0.323641 0
M  V30 5465 C 520.043 -2.04687 -0.280464 0
M  V30 5466 C 520.451 -1.19939 -1.46326 0
M  V30 5467 O 519.794 -0.222872 -1.82343 0
M  V30 5468 C 519.856 -3.50978 -0.778123 0
M  V30 5469 C 519.52 -4.56127 0.282371 0
M  V30 5470 C 520.517 -5.07726 1.11847 0
M  V30 5471 C 518.202 -5.00451 0.430582 0
M  V30 5472 C 520.196 -6.02212 2.08851 0
M  V30 5473 C 517.883 -5.94752 1.40404 0
M  V30 5474 C 518.881 -6.45519 2.23147 0
M  V30 5475 O 518.569 -7.37968 3.1884 0
M  V30 5476 H 518.301 -0.673192 -0.0615473 0
M  V30 5477 H 520.855 -1.99999 0.467921 0
M  V30 5478 H 519.085 -3.53064 -1.57742 0
M  V30 5479 H 520.774 -3.84499 -1.30058 0
M  V30 5480 H 521.54 -4.74261 1.01496 0
M  V30 5481 H 517.419 -4.6055 -0.203569 0
M  V30 5482 H 520.963 -6.41761 2.73474 0
M  V30 5483 H 516.86 -6.27633 1.5082 0
M  V30 5484 H 517.628 -7.55841 3.14079 0
M  V30 5485 N 520.291 -0.0518155 -1.57515 0
M  V30 5486 C 521.568 0.661727 -1.84067 0
M  V30 5487 C 521.948 1.88999 -0.940351 0
M  V30 5488 O 521.296 2.285 -0.00155404 0
M  V30 5489 C 521.506 1.01841 -3.3381 0
M  V30 5490 C 522.854 1.40043 -4.00841 0
M  V30 5491 O 523.878 1.11073 -3.38439 0
M  V30 5492 O 522.737 1.94111 -5.10865 0
M  V30 5493 H 519.831 0.326702 -0.759733 0
M  V30 5494 H 522.377 -0.0812277 -1.69505 0
M  V30 5495 H 521.149 0.145202 -3.91031 0
M  V30 5496 H 520.772 1.81879 -3.53562 0
M  V30 5497 N 521.769 1.56035 0.221574 0
M  V30 5498 C 522.999 1.82864 0.961468 0
M  V30 5499 C 523.407 0.628703 1.78449 0
M  V30 5500 O 522.75 -0.412109 1.79018 0
M  V30 5501 C 522.812 3.03425 1.92804 0
M  V30 5502 C 522.476 4.38429 1.28954 0
M  V30 5503 C 523.473 5.15441 0.679431 0
M  V30 5504 C 521.158 4.85151 1.30131 0
M  V30 5505 C 523.152 6.37337 0.0896148 0
M  V30 5506 C 520.839 6.06989 0.707651 0
M  V30 5507 C 521.837 6.82923 0.102855 0
M  V30 5508 O 521.525 8.02456 -0.48157 0
M  V30 5509 H 521.257 0.611883 0.28736 0
M  V30 5510 H 523.811 2.0397 0.241932 0
M  V30 5511 H 522.041 2.78138 2.68656 0
M  V30 5512 H 523.73 3.17127 2.53348 0
M  V30 5513 H 524.496 4.80452 0.662661 0
M  V30 5514 H 520.375 4.26021 1.76145 0
M  V30 5515 H 523.919 6.96547 -0.383069 0
M  V30 5516 H 519.816 6.41451 0.721834 0
M  V30 5517 H 520.584 8.17636 -0.375887 0
M  V30 5518 N 523.247 -0.488276 1.49845 0
M  V30 5519 C 524.177 -1.59675 1.70371 0
M  V30 5520 C 525.158 -1.60878 0.552473 0
M  V30 5521 O 526.343 -1.77417 0.78973 0
M  V30 5522 C 523.473 -2.98098 1.782 0
M  V30 5523 C 522.427 -3.11761 2.93239 0
M  V30 5524 C 521.753 -4.51661 2.86193 0
M  V30 5525 C 523.053 -2.90589 4.33999 0
M  V30 5526 H 524.747 -1.42752 2.63177 0
M  V30 5527 H 522.293 -0.685317 1.26647 0
M  V30 5528 H 524.246 -3.75555 1.91144 0
M  V30 5529 H 522.97 -3.16138 0.820018 0
M  V30 5530 H 521.629 -2.36732 2.79917 0
M  V30 5531 H 521.277 -4.66595 1.87877 0
M  V30 5532 H 520.977 -4.61742 3.63412 0
M  V30 5533 H 522.501 -5.31162 3.01163 0
M  V30 5534 H 523.915 -3.57807 4.47936 0
M  V30 5535 H 522.312 -3.1213 5.12538 0
M  V30 5536 H 523.382 -1.86595 4.4756 0
M  V30 5537 N 524.725 -1.39134 -0.740242 0
M  V30 5538 C 525.688 -1.37217 -1.83587 0
M  V30 5539 C 526.688 -0.270221 -1.58513 0
M  V30 5540 O 527.878 -0.527843 -1.6601 0
M  V30 5541 C 525.01 -1.13959 -3.21288 0
M  V30 5542 H 526.203 -2.34705 -1.86691 0
M  V30 5543 H 523.756 -1.24622 -0.94335 0
M  V30 5544 H 524.491 -0.17131 -3.23847 0
M  V30 5545 H 524.276 -1.93754 -3.40884 0
M  V30 5546 H 525.766 -1.15346 -4.01354 0
M  V30 5547 N 526.204 0.969867 -1.24223 0
M  V30 5548 C 527.136 2.0669 -0.99055 0
M  V30 5549 C 528.149 1.62753 0.0392222 0
M  V30 5550 O 529.338 1.77403 -0.197561 0
M  V30 5551 C 526.438 3.35589 -0.472594 0
M  V30 5552 C 525.611 4.08444 -1.56499 0
M  V30 5553 C 524.67 5.15616 -1.05007 0
M  V30 5554 O 523.696 5.41911 -1.7413 0
M  V30 5555 N 524.898 5.80383 0.116641 0
M  V30 5556 H 527.663 2.28855 -1.93508 0
M  V30 5557 H 525.224 1.13733 -1.15223 0
M  V30 5558 H 527.216 4.04542 -0.112919 0
M  V30 5559 H 525.786 3.10311 0.377617 0
M  V30 5560 H 525.006 3.33798 -2.09696 0
M  V30 5561 H 526.294 4.53882 -2.29932 0
M  V30 5562 H 525.692 5.6142 0.694589 0
M  V30 5563 H 524.249 6.50462 0.417483 0
M  V30 5564 N 527.682 1.05563 1.17022 0
M  V30 5565 C 529.098 0.777684 1.39371 0
M  V30 5566 C 529.298 -0.626269 1.91521 0
M  V30 5567 O 528.354 -1.38806 2.10924 0
M  V30 5568 C 529.667 1.83642 2.3811 0
M  V30 5569 C 531.215 1.85907 2.51809 0
M  V30 5570 C 531.69 2.90813 3.53824 0
M  V30 5571 N 533.181 2.898 3.61345 0
M  V30 5572 C 533.916 3.6762 4.40049 0
M  V30 5573 N 533.412 4.55237 5.22237 0
M  V30 5574 N 535.205 3.56044 4.34959 0
M  V30 5575 H 527.356 1.9614 0.815047 0
M  V30 5576 H 529.619 0.849527 0.420722 0
M  V30 5577 H 529.325 2.84425 2.06871 0
M  V30 5578 H 529.199 1.6812 3.37662 0
M  V30 5579 H 531.586 0.857865 2.82356 0
M  V30 5580 H 531.667 2.05506 1.52318 0
M  V30 5581 H 531.311 3.91122 3.24015 0
M  V30 5582 H 531.241 2.68465 4.53028 0
M  V30 5583 H 533.732 2.26274 3.02669 0
M  V30 5584 H 534.045 5.11291 5.79484 0
M  V30 5585 H 532.39 4.59296 5.21605 0
M  V30 5586 H 535.581 2.86986 3.69806 0
M  V30 5587 H 535.754 4.16938 4.96051 0
M  V30 5588 N 529.16 -1.33526 0.837174 0
M  V30 5589 C 530.437 -1.92369 0.354065 0
M  V30 5590 C 530.817 -1.76348 -1.16038 0
M  V30 5591 O 530.165 -1.15083 -1.97403 0
M  V30 5592 C 530.375 -3.39728 0.799101 0
M  V30 5593 C 531.723 -4.16877 0.806139 0
M  V30 5594 O 532.747 -3.48373 0.742597 0
M  V30 5595 O 531.606 -5.39166 0.892345 0
M  V30 5596 H 528.7 -0.820952 0.0998378 0
M  V30 5597 H 531.246 -1.42409 0.922913 0
M  V30 5598 H 530.018 -3.45254 1.84162 0
M  V30 5599 H 529.641 -3.97062 0.206731 0
M  V30 5600 N 530.638 -0.59345 -1.46 0
M  V30 5601 C 531.586 0.146268 -2.3214 0
M  V30 5602 C 532.58 0.873743 -1.45128 0
M  V30 5603 O 533.786 0.790912 -1.61693 0
M  V30 5604 H 530.161 0.0660349 -0.749095 0
M  V30 5605 H 532.132 -0.598895 -2.92328 0
M  V30 5606 C 530.881 1.1396 -3.28494 0
M  V30 5607 H 530.204 0.589252 -3.95434 0
M  V30 5608 H 531.644 1.62738 -3.91526 0
M  V30 5609 C 530.103 2.20604 -2.54628 0
M  V30 5610 O 530.633 3.28128 -2.31722 0
M  V30 5611 N 528.839 1.95502 -2.15005 0
M  V30 5612 H 528.386 1.0807 -2.33834 0
M  V30 5613 H 528.344 2.67064 -1.65904 0
M  V30 5614 N 532.116 1.54067 -0.331816 0
M  V30 5615 C 533.362 2.01012 0.268667 0
M  V30 5616 C 533.695 1.2195 1.51136 0
M  V30 5617 O 532.97 0.303972 1.9211 0
M  V30 5618 C 533.253 3.55158 0.59456 0
M  V30 5619 C 533.106 4.4494 -0.659409 0
M  V30 5620 C 534.425 4.16939 1.4089 0
M  V30 5621 H 531.544 0.730698 0.0961756 0
M  V30 5622 H 534.186 1.84593 -0.450031 0
M  V30 5623 H 532.336 3.6928 1.20685 0
M  V30 5624 H 534.008 4.42675 -1.29756 0
M  V30 5625 H 532.251 4.1428 -1.28665 0
M  V30 5626 H 532.922 5.50643 -0.386804 0
M  V30 5627 H 535.398 4.06443 0.891272 0
M  V30 5628 H 534.274 5.24889 1.60569 0
M  V30 5629 H 534.535 3.70798 2.40752 0
M  V30 5630 N 533.594 0.0601682 1.57485 0
M  V30 5631 C 534.819 -0.624416 1.97777 0
M  V30 5632 C 535.244 -1.63051 0.937867 0
M  V30 5633 O 534.602 -1.81036 -0.0978845 0
M  V30 5634 C 534.65 -1.27979 3.37126 0
M  V30 5635 O 533.754 -2.39556 3.35688 0
M  V30 5636 H 533.095 -0.161581 0.64404 0
M  V30 5637 H 535.625 0.131237 2.04179 0
M  V30 5638 H 535.635 -1.62937 3.74053 0
M  V30 5639 H 534.31 -0.542501 4.12347 0
M  V30 5640 H 532.887 -2.06478 3.10517 0
M  V30 5641 N 535.072 -1.5615 -0.213296 0
M  V30 5642 C 536.035 -1.92249 -1.24792 0
M  V30 5643 C 537.035 -0.801828 -1.39382 0
M  V30 5644 O 538.225 -1.06948 -1.37506 0
M  V30 5645 C 535.357 -2.18056 -2.62039 0
M  V30 5646 H 536.55 -2.84793 -0.939845 0
M  V30 5647 H 534.103 -1.49559 -0.454062 0
M  V30 5648 H 534.838 -1.2809 -2.97932 0
M  V30 5649 H 534.623 -2.99703 -2.52825 0
M  V30 5650 H 536.113 -2.47051 -3.36683 0
M  V30 5651 N 536.55 0.480323 -1.50102 0
M  V30 5652 C 537.497 1.57946 -1.6829 0
M  V30 5653 C 538.467 1.57611 -0.524223 0
M  V30 5654 O 539.652 1.75282 -0.753709 0
M  V30 5655 C 536.792 2.95978 -1.77457 0
M  V30 5656 C 535.905 3.06173 -3.04766 0
M  V30 5657 C 535.04 4.35063 -3.04784 0
M  V30 5658 C 534.079 4.38966 -4.26586 0
M  V30 5659 N 533.216 5.59314 -4.24396 0
M  V30 5660 H 538.056 1.41743 -2.62131 0
M  V30 5661 H 535.593 0.689304 -1.2995 0
M  V30 5662 H 537.551 3.76011 -1.80752 0
M  V30 5663 H 536.181 3.10837 -0.870637 0
M  V30 5664 H 535.233 2.19071 -3.10986 0
M  V30 5665 H 536.545 3.04916 -3.9475 0
M  V30 5666 H 535.699 5.23436 -3.06757 0
M  V30 5667 H 534.438 4.38915 -2.12614 0
M  V30 5668 H 533.443 3.48992 -4.24835 0
M  V30 5669 H 534.668 4.36813 -5.19972 0
M  V30 5670 H 532.614 5.63969 -3.35074 0
M  V30 5671 H 532.531 5.5976 -5.08138 0
M  V30 5672 H 533.799 6.49837 -4.30502 0
M  V30 5673 N 538.028 1.39524 0.732853 0
M  V30 5674 C 538.938 1.40695 1.87729 0
M  V30 5675 C 539.954 0.301496 1.71368 0
M  V30 5676 O 541.13 0.543313 1.93933 0
M  V30 5677 C 538.195 1.25098 3.23344 0
M  V30 5678 C 537.256 2.45634 3.52083 0
M  V30 5679 C 536.489 2.30772 4.81228 0
M  V30 5680 O 536.712 1.31233 5.55098 0
M  V30 5681 O 535.646 3.19799 5.09914 0
M  V30 5682 H 539.472 2.37168 1.89697 0
M  V30 5683 H 537.057 1.20663 0.880959 0
M  V30 5684 H 538.939 1.18541 4.04383 0
M  V30 5685 H 537.614 0.317209 3.22142 0
M  V30 5686 H 536.521 2.57767 2.71122 0
M  V30 5687 H 537.854 3.37712 3.58066 0
M  V30 5688 N 539.506 -0.963266 1.24736 0
M  V30 5689 C 540.436 -2.07628 1.06832 0
M  V30 5690 C 541.417 -1.70088 -0.0200566 0
M  V30 5691 O 542.602 -1.93636 0.147854 0
M  V30 5692 C 539.732 -3.40636 0.677069 0
M  V30 5693 C 538.686 -3.9215 1.71471 0
M  V30 5694 C 538.012 -5.21553 1.1784 0
M  V30 5695 C 539.312 -4.19493 3.11164 0
M  V30 5696 H 541.006 -2.22864 1.9993 0
M  V30 5697 H 538.552 -1.07093 0.96266 0
M  V30 5698 H 540.505 -4.17941 0.538792 0
M  V30 5699 H 539.229 -3.25313 -0.289612 0
M  V30 5700 H 537.888 -3.17005 1.84128 0
M  V30 5701 H 537.536 -5.02593 0.202195 0
M  V30 5702 H 537.236 -5.56988 1.87185 0
M  V30 5703 H 538.76 -6.01463 1.05233 0
M  V30 5704 H 540.174 -4.87487 3.01711 0
M  V30 5705 H 538.571 -4.66165 3.77902 0
M  V30 5706 H 539.641 -3.26097 3.58871 0
M  V30 5707 N 540.985 -1.06182 -1.16461 0
M  V30 5708 C 541.932 -0.671613 -2.20812 0
M  V30 5709 C 542.902 0.331186 -1.62765 0
M  V30 5710 O 544.087 0.22033 -1.89524 0
M  V30 5711 C 541.227 -0.063029 -3.45042 0
M  V30 5712 C 540.34 -1.11587 -4.1734 0
M  V30 5713 C 539.475 -0.473546 -5.29085 0
M  V30 5714 C 538.514 -1.51 -5.93182 0
M  V30 5715 N 537.651 -0.891118 -6.96422 0
M  V30 5716 H 542.491 -1.56589 -2.53542 0
M  V30 5717 H 540.028 -0.782951 -1.24532 0
M  V30 5718 H 541.986 0.307344 -4.16066 0
M  V30 5719 H 540.616 0.794663 -3.12866 0
M  V30 5720 H 539.668 -1.60396 -3.44931 0
M  V30 5721 H 540.98 -1.90221 -4.61104 0
M  V30 5722 H 540.134 -0.0501432 -6.06679 0
M  V30 5723 H 538.873 0.344687 -4.8648 0
M  V30 5724 H 537.878 -1.94331 -5.14311 0
M  V30 5725 H 539.103 -2.33031 -6.37866 0
M  V30 5726 H 537.049 -0.0935753 -6.55933 0
M  V30 5727 H 536.966 -1.61486 -7.38551 0
M  V30 5728 H 538.234 -0.492822 -7.77941 0
M  V30 5729 N 542.463 1.3308 -0.844243 0
M  V30 5730 C 543.411 2.31028 -0.269954 0
M  V30 5731 C 544.405 1.58381 0.600997 0
M  V30 5732 O 545.611 1.73203 0.48996 0
M  V30 5733 H 541.986 0.748866 -0.0685782 0
M  V30 5734 H 543.957 2.76967 -1.11049 0
M  V30 5735 C 542.706 3.43549 0.535676 0
M  V30 5736 H 542.029 3.99604 -0.125202 0
M  V30 5737 H 543.469 4.14267 0.903262 0
M  V30 5738 C 541.928 2.8988 1.71672 0
M  V30 5739 O 542.458 2.86511 2.81557 0
M  V30 5740 N 540.664 2.46416 1.54037 0
M  V30 5741 H 540.211 2.49356 0.64649 0
M  V30 5742 H 540.169 2.1086 2.33207 0
M  V30 5743 N 543.941 0.601185 1.45683 0
M  V30 5744 C 544.851 -0.123395 2.34275 0
M  V30 5745 C 545.867 -0.86702 1.5086 0
M  V30 5746 O 547.043 -0.826049 1.8368 0
M  V30 5747 C 544.108 -1.11237 3.2837 0
M  V30 5748 C 543.169 -0.371405 4.2769 0
M  V30 5749 C 542.402 -1.31327 5.1729 0
M  V30 5750 O 542.625 -2.55078 5.10188 0
M  V30 5751 O 541.559 -0.813811 5.96373 0
M  V30 5752 H 545.385 0.604483 2.97623 0
M  V30 5753 H 542.97 0.361477 1.44961 0
M  V30 5754 H 544.852 -1.68214 3.8637 0
M  V30 5755 H 543.527 -1.82139 2.67595 0
M  V30 5756 H 542.434 0.24067 3.73325 0
M  V30 5757 H 543.767 0.296998 4.91303 0
M  V30 5758 N 545.419 -1.53889 0.339982 0
M  V30 5759 C 546.382 -2.23547 -0.50592 0
M  V30 5760 C 547.382 -1.23445 -1.03044 0
M  V30 5761 O 548.572 -1.47909 -0.920253 0
M  V30 5762 C 545.704 -2.95234 -1.7044 0
M  V30 5763 H 546.897 -2.99722 0.103247 0
M  V30 5764 H 544.45 -1.56033 0.0912804 0
M  V30 5765 H 545.185 -2.23236 -2.35236 0
M  V30 5766 H 544.97 -3.68654 -1.33553 0
M  V30 5767 H 546.46 -3.48258 -2.30447 0
M  V30 5768 N 546.897 -0.0685191 -1.57451 0
M  V30 5769 C 548.125 0.610462 -1.97689 0
M  V30 5770 C 548.54 1.63346 -0.946758 0
M  V30 5771 O 547.897 1.82377 0.0669868 0
M  V30 5772 C 547.948 1.28196 -3.38006 0
M  V30 5773 O 547.669 0.299906 -4.37072 0
M  V30 5774 C 549.17 2.04907 -3.931 0
M  V30 5775 H 546.39 0.165689 -0.650222 0
M  V30 5776 H 548.934 -0.139953 -2.04021 0
M  V30 5777 H 547.089 1.98348 -3.32771 0
M  V30 5778 H 547.503 0.78126 -5.18649 0
M  V30 5779 H 548.977 2.47287 -4.93511 0
M  V30 5780 H 549.454 2.9043 -3.29465 0
M  V30 5781 H 550.06 1.39629 -4.01726 0
M  V30 5782 N 548.375 1.56261 0.205012 0
M  V30 5783 C 549.307 1.90266 1.27795 0
M  V30 5784 C 550.32 0.792397 1.42214 0
M  V30 5785 O 551.509 1.07077 1.42817 0
M  V30 5786 C 548.609 2.11074 2.65143 0
M  V30 5787 C 547.782 3.42176 2.7246 0
M  V30 5788 C 546.841 3.52216 3.90936 0
M  V30 5789 O 545.867 4.25119 3.78501 0
M  V30 5790 N 547.069 2.84573 5.05963 0
M  V30 5791 H 549.834 2.82896 0.989434 0
M  V30 5792 H 547.395 1.57008 0.394981 0
M  V30 5793 H 549.387 2.15089 3.4281 0
M  V30 5794 H 547.957 1.2499 2.86524 0
M  V30 5795 H 547.177 3.50116 1.81142 0
M  V30 5796 H 548.465 4.28509 2.74331 0
M  V30 5797 H 547.863 2.25152 5.18963 0
M  V30 5798 H 546.42 2.94228 5.81613 0
M  V30 5799 N 549.853 -0.472356 1.50355 0
M  V30 5800 C 550.8 -1.57051 1.69126 0
M  V30 5801 C 551.77 -1.5733 0.532574 0
M  V30 5802 O 552.955 -1.7488 0.762994 0
M  V30 5803 C 550.095 -2.95033 1.79024 0
M  V30 5804 C 549.208 -3.04552 3.06386 0
M  V30 5805 C 548.343 -4.33441 3.07087 0
M  V30 5806 C 547.382 -4.36697 4.28908 0
M  V30 5807 N 546.519 -5.57056 4.27356 0
M  V30 5808 H 551.359 -1.40351 2.62879 0
M  V30 5809 H 548.896 -0.682403 1.30314 0
M  V30 5810 H 550.854 -3.75048 1.82744 0
M  V30 5811 H 549.484 -3.10371 0.887109 0
M  V30 5812 H 548.536 -2.17419 3.12143 0
M  V30 5813 H 549.848 -3.02818 3.96362 0
M  V30 5814 H 549.002 -5.21801 3.09529 0
M  V30 5815 H 547.741 -4.37782 2.14939 0
M  V30 5816 H 546.746 -3.46734 4.2668 0
M  V30 5817 H 547.971 -4.34049 5.22282 0
M  V30 5818 H 545.917 -5.62184 3.3806 0
M  V30 5819 H 545.834 -5.57058 5.111 0
M  V30 5820 H 547.102 -6.47545 4.33942 0
M  V30 5821 N 551.331 -1.39911 -0.725443 0
M  V30 5822 C 552.578 -1.37654 -1.48518 0
M  V30 5823 C 552.906 0.0243982 -1.94485 0
M  V30 5824 O 552.161 1.00708 -1.67799 0
M  V30 5825 C 552.46 -2.30368 -2.7325 0
M  V30 5826 C 552.126 -3.77817 -2.461 0
M  V30 5827 C 550.788 -4.17991 -2.38405 0
M  V30 5828 C 553.14 -4.71036 -2.23103 0
M  V30 5829 C 550.468 -5.49433 -2.05768 0
M  V30 5830 C 552.82 -6.02766 -1.9198 0
M  V30 5831 C 551.484 -6.41993 -1.82761 0
M  V30 5832 H 550.754 -0.503713 -0.543465 0
M  V30 5833 H 553.401 -1.7249 -0.831822 0
M  V30 5834 H 551.706 -1.88683 -3.43375 0
M  V30 5835 H 553.403 -2.2591 -3.31309 0
M  V30 5836 H 549.993 -3.45982 -2.52972 0
M  V30 5837 H 554.177 -4.40823 -2.2801 0
M  V30 5838 H 549.433 -5.78738 -1.9716 0
M  V30 5839 H 553.607 -6.74519 -1.73197 0
M  V30 5840 H 551.234 -7.43761 -1.57237 0
M  V30 5841 N 552.809 0.956637 -1.25245 0
M  V30 5842 C 554.039 1.7332 -1.12445 0
M  V30 5843 C 554.447 1.86392 0.324732 0
M  V30 5844 O 553.79 1.35967 1.23526 0
M  V30 5845 C 553.852 3.16603 -1.70303 0
M  V30 5846 C 553.516 3.26966 -3.19284 0
M  V30 5847 C 554.513 3.11434 -4.16299 0
M  V30 5848 C 552.198 3.50851 -3.59456 0
M  V30 5849 C 554.192 3.1963 -5.51467 0
M  V30 5850 C 551.879 3.58684 -4.94761 0
M  V30 5851 C 552.877 3.43087 -5.90576 0
M  V30 5852 O 552.565 3.50598 -7.2342 0
M  V30 5853 H 552.297 0.549981 -0.393061 0
M  V30 5854 H 554.851 1.20892 -1.66055 0
M  V30 5855 H 553.081 3.70385 -1.11138 0
M  V30 5856 H 554.77 3.76109 -1.52632 0
M  V30 5857 H 555.536 2.92853 -3.86604 0
M  V30 5858 H 551.415 3.62053 -2.85375 0
M  V30 5859 H 554.959 3.07373 -6.26233 0
M  V30 5860 H 550.856 3.76782 -5.24124 0
M  V30 5861 H 551.624 3.67242 -7.31489 0
M  V30 5862 N 554.287 1.06798 1.15896 0
M  V30 5863 C 555.703 0.792423 1.38538 0
M  V30 5864 C 555.903 -0.60592 1.92174 0
M  V30 5865 O 554.959 -1.36561 2.12385 0
M  V30 5866 C 556.272 1.86157 2.36149 0
M  V30 5867 C 557.82 1.88567 2.49823 0
M  V30 5868 C 558.295 2.9455 3.5072 0
M  V30 5869 N 559.786 2.93616 3.58251 0
M  V30 5870 C 560.521 3.72267 4.36125 0
M  V30 5871 N 560.017 4.60751 5.17379 0
M  V30 5872 N 561.81 3.60637 4.31158 0
M  V30 5873 H 553.961 1.96993 0.794198 0
M  V30 5874 H 556.224 0.853942 0.411688 0
M  V30 5875 H 555.93 2.86603 2.03843 0
M  V30 5876 H 555.804 1.71692 3.3586 0
M  V30 5877 H 558.191 0.887765 2.8143 0
M  V30 5878 H 558.272 2.0711 1.5013 0
M  V30 5879 H 557.916 3.94537 3.19849 0
M  V30 5880 H 557.846 2.73255 4.50155 0
M  V30 5881 H 560.337 2.29472 3.00252 0
M  V30 5882 H 560.65 5.17408 5.74028 0
M  V30 5883 H 558.995 4.64803 5.16704 0
M  V30 5884 H 562.186 2.90892 3.66742 0
M  V30 5885 H 562.359 4.22176 4.91601 0
M  V30 5886 N 555.766 -1.3263 0.851289 0
M  V30 5887 C 557.043 -1.91982 0.374448 0
M  V30 5888 C 557.423 -1.77568 -1.14161 0
M  V30 5889 O 556.771 -1.1717 -1.96172 0
M  V30 5890 C 556.981 -3.38862 0.835088 0
M  V30 5891 C 558.329 -4.15999 0.850309 0
M  V30 5892 O 559.353 -3.47566 0.779505 0
M  V30 5893 O 558.212 -5.38189 0.949481 0
M  V30 5894 H 555.306 -0.819846 0.10854 0
M  V30 5895 H 557.852 -1.41422 0.937966 0
M  V30 5896 H 556.624 -3.43281 1.87814 0
M  V30 5897 H 556.247 -3.96821 0.248833 0
M  V30 5898 N 557.244 -0.608902 -1.45362 0
M  V30 5899 C 558.174 0.0964526 -2.33301 0
M  V30 5900 C 559.155 0.857444 -1.46908 0
M  V30 5901 O 560.34 0.827735 -1.75676 0
M  V30 5902 C 557.47 1.09354 -3.29635 0
M  V30 5903 C 556.424 0.445676 -4.25673 0
M  V30 5904 C 555.75 1.5511 -5.11708 0
M  V30 5905 C 557.05 -0.633972 -5.18438 0
M  V30 5906 H 558.744 -0.637829 -2.92527 0
M  V30 5907 H 556.29 -0.308178 -1.40664 0
M  V30 5908 H 558.243 1.59556 -3.90025 0
M  V30 5909 H 556.967 1.85843 -2.6857 0
M  V30 5910 H 555.626 -0.0354897 -3.66583 0
M  V30 5911 H 555.274 2.30631 -4.4701 0
M  V30 5912 H 554.974 1.12311 -5.76767 0
M  V30 5913 H 556.498 2.05537 -5.74967 0
M  V30 5914 H 557.912 -0.215974 -5.72893 0
M  V30 5915 H 556.309 -0.983789 -5.91981 0
M  V30 5916 H 557.379 -1.51005 -4.60788 0
M  V30 5917 N 558.722 1.53707 -0.348139 0
M  V30 5918 C 559.685 2.23812 0.494058 0
M  V30 5919 C 560.685 1.23989 1.02388 0
M  V30 5920 O 561.875 1.48395 0.912396 0
M  V30 5921 C 559.007 2.96133 1.68872 0
M  V30 5922 H 560.2 2.99663 -0.119141 0
M  V30 5923 H 557.753 1.55983 -0.0995539 0
M  V30 5924 H 558.488 2.24481 2.34049 0
M  V30 5925 H 558.273 3.69357 1.31596 0
M  V30 5926 H 559.763 3.49475 2.28597 0
M  V30 5927 N 560.2 0.0768682 1.57412 0
M  V30 5928 C 561.163 -0.873949 2.11884 0
M  V30 5929 C 562.163 -1.22301 1.04398 0
M  V30 5930 O 563.353 -1.15545 1.30365 0
M  V30 5931 C 560.485 -2.17575 2.62438 0
M  V30 5932 H 561.678 -0.401278 2.97203 0
M  V30 5933 H 559.231 -0.171904 1.55352 0
M  V30 5934 H 559.966 -2.69368 1.80587 0
M  V30 5935 H 559.751 -1.93534 3.41009 0
M  V30 5936 H 561.241 -2.85631 3.04639 0
M  V30 5937 N 561.678 -1.56367 -0.196722 0
M  V30 5938 C 562.625 -1.94417 -1.24382 0
M  V30 5939 C 563.595 -0.804543 -1.45315 0
M  V30 5940 O 564.78 -1.06256 -1.58475 0
M  V30 5941 C 561.92 -2.28757 -2.58388 0
M  V30 5942 C 561.033 -3.55775 -2.45047 0
M  V30 5943 C 560.168 -3.79445 -3.71746 0
M  V30 5944 C 559.207 -4.99894 -3.53231 0
M  V30 5945 N 558.344 -5.19826 -4.71938 0
M  V30 5946 H 563.184 -2.83691 -0.912338 0
M  V30 5947 H 560.721 -1.40392 -0.439135 0
M  V30 5948 H 562.679 -2.46682 -3.36457 0
M  V30 5949 H 561.309 -1.42625 -2.89582 0
M  V30 5950 H 560.361 -3.45905 -1.58284 0
M  V30 5951 H 561.673 -4.44 -2.27299 0
M  V30 5952 H 560.827 -3.97601 -4.58256 0
M  V30 5953 H 559.566 -2.89546 -3.92446 0
M  V30 5954 H 558.571 -4.81662 -2.65107 0
M  V30 5955 H 559.796 -5.913 -3.33978 0
M  V30 5956 H 557.742 -4.32875 -4.92905 0
M  V30 5957 H 557.659 -6.02228 -4.57009 0
M  V30 5958 H 558.927 -5.42439 -5.59803 0
M  V30 5959 N 563.156 0.464375 -1.50603 0
M  V30 5960 C 564.066 1.58723 -1.72754 0
M  V30 5961 C 565.082 1.62925 -0.610844 0
M  V30 5962 O 566.258 1.8067 -0.889963 0
M  V30 5963 C 563.323 2.94897 -1.82309 0
M  V30 5964 C 562.384 3.0103 -3.06071 0
M  V30 5965 C 561.617 4.30708 -3.1516 0
M  V30 5966 O 561.84 5.2159 -2.30868 0
M  V30 5967 O 560.774 4.42571 -4.0794 0
M  V30 5968 H 564.6 1.42954 -2.67951 0
M  V30 5969 H 562.185 0.644579 -1.3478 0
M  V30 5970 H 564.067 3.75764 -1.90735 0
M  V30 5971 H 562.742 3.10851 -0.902967 0
M  V30 5972 H 561.649 2.19217 -3.03142 0
M  V30 5973 H 562.982 2.90014 -3.97684 0
M  V30 5974 N 564.634 1.40294 0.718013 0
M  V30 5975 C 565.883 1.37746 1.4734 0
M  V30 5976 C 566.196 -0.0180754 1.95592 0
M  V30 5977 O 567.402 -0.166166 2.70991 0
M  V30 5978 C 565.858 2.4208 2.66318 0
M  V30 5979 C 565.466 3.87432 2.24945 0
M  V30 5980 C 567.21 2.48635 3.44065 0
M  V30 5981 C 565.117 4.83368 3.40748 0
M  V30 5982 H 564.047 0.512165 0.553356 0
M  V30 5983 H 566.698 1.66019 0.781661 0
M  V30 5984 H 565.08 2.06903 3.3765 0
M  V30 5985 H 566.254 4.3174 1.6105 0
M  V30 5986 H 564.569 3.8433 1.60249 0
M  V30 5987 H 567.166 3.17499 4.30231 0
M  V30 5988 H 567.509 1.51611 3.87711 0
M  V30 5989 H 568.042 2.82791 2.79775 0
M  V30 5990 H 564.781 5.81716 3.02136 0
M  V30 5991 H 564.301 4.43726 4.03568 0
M  V30 5992 H 565.98 5.03074 4.06848 0
M  V30 5993 N 566.112 -0.949982 1.2575 0
M  V30 5994 C 567.022 -2.08109 1.08295 0
M  V30 5995 C 568.038 -1.7399 0.0188181 0
M  V30 5996 O 569.214 -2.00187 0.220724 0
M  V30 5997 C 566.279 -3.39383 0.708534 0
M  V30 5998 C 565.34 -3.8734 1.85111 0
M  V30 5999 C 564.573 -5.12349 1.49447 0
M  V30 6000 O 564.796 -5.6905 0.392212 0
M  V30 6001 O 563.73 -5.5513 2.32624 0
M  V30 6002 H 567.556 -2.25738 2.03165 0
M  V30 6003 H 565.141 -1.06545 1.04731 0
M  V30 6004 H 567.023 -4.18277 0.512061 0
M  V30 6005 H 565.698 -3.23013 -0.210854 0
M  V30 6006 H 564.605 -3.09429 2.10248 0
M  V30 6007 H 565.938 -4.08216 2.74991 0
M  V30 6008 N 567.59 -1.07411 -1.15328 0
M  V30 6009 C 568.538 -0.689316 -2.22151 0
M  V30 6010 C 569.532 0.300156 -1.6672 0
M  V30 6011 O 570.738 0.163804 -1.79253 0
M  V30 6012 H 567.113 -0.204834 -0.723566 0
M  V30 6013 H 569.084 -1.59988 -2.51886 0
M  V30 6014 C 567.833 -0.103848 -3.47545 0
M  V30 6015 H 567.156 -0.856367 -3.90521 0
M  V30 6016 H 568.596 0.127725 -4.23808 0
M  V30 6017 C 567.055 1.15563 -3.1646 0
M  V30 6018 O 567.585 2.242 -3.33312 0
M  V30 6019 N 565.791 1.06203 -2.70498 0
M  V30 6020 H 565.338 0.177933 -2.56985 0
M  V30 6021 H 565.296 1.90553 -2.50074 0
M  V30 6022 N 569.068 1.32177 -0.85831 0
M  V30 6023 C 570.316 1.96735 -0.462568 0
M  V30 6024 C 570.637 1.6824 0.985911 0
M  V30 6025 O 569.907 0.991564 1.68952 0
M  V30 6026 H 568.487 0.727849 -0.168064 0
M  V30 6027 H 571.149 1.61195 -1.09554 0
M  V30 6028 H 570.245 3.06068 -0.610647 0
M  V30 6029 N 570.547 0.616602 1.45037 0
M  V30 6030 C 571.795 0.115103 2.01772 0
M  V30 6031 C 572.116 -1.2622 1.48639 0
M  V30 6032 O 571.386 -1.83563 0.684199 0
M  V30 6033 H 569.966 0.0395607 0.745952 0
M  V30 6034 H 572.628 0.800032 1.77723 0
M  V30 6035 H 571.724 0.0717274 3.12018 0
M  V30 6036 N 572.025 -1.5352 0.356285 0
M  V30 6037 C 573.255 -2.05236 -0.236983 0
M  V30 6038 C 573.663 -1.23016 -1.43749 0
M  V30 6039 O 573.006 -0.2615 -1.81829 0
M  V30 6040 C 573.068 -3.52549 -0.7035 0
M  V30 6041 C 572.732 -4.55425 0.379059 0
M  V30 6042 C 573.729 -5.0524 1.22592 0
M  V30 6043 C 571.414 -4.99425 0.536638 0
M  V30 6044 C 573.408 -5.97647 2.21578 0
M  V30 6045 C 571.095 -5.9164 1.52988 0
M  V30 6046 C 572.093 -6.4064 2.3679 0
M  V30 6047 O 571.781 -7.31039 3.34421 0
M  V30 6048 H 571.513 -0.674346 -0.047254 0
M  V30 6049 H 574.067 -1.98962 0.510238 0
M  V30 6050 H 572.297 -3.56331 -1.50217 0
M  V30 6051 H 573.986 -3.87171 -1.21873 0
M  V30 6052 H 574.752 -4.72002 1.11532 0
M  V30 6053 H 570.631 -4.60879 -0.105834 0
M  V30 6054 H 574.175 -6.35816 2.87025 0
M  V30 6055 H 570.072 -6.24293 1.64099 0
M  V30 6056 H 570.84 -7.49009 3.30041 0
M  V30 6057 N 573.503 -0.0852151 -1.57369 0
M  V30 6058 C 574.45 0.877268 -2.13478 0
M  V30 6059 C 575.42 1.28642 -1.05073 0
M  V30 6060 O 576.605 1.36992 -1.32808 0
M  V30 6061 C 573.745 2.13464 -2.71159 0
M  V30 6062 C 572.858 1.77691 -3.93764 0
M  V30 6063 C 571.993 2.98139 -4.39643 0
M  V30 6064 C 571.032 2.58447 -5.54862 0
M  V30 6065 N 570.169 3.71698 -5.95639 0
M  V30 6066 H 575.009 0.391933 -2.95411 0
M  V30 6067 H 572.546 0.181796 -1.45972 0
M  V30 6068 H 574.504 2.87086 -3.02717 0
M  V30 6069 H 573.134 2.59514 -1.91969 0
M  V30 6070 H 572.186 0.940768 -3.68583 0
M  V30 6071 H 573.498 1.44497 -4.77412 0
M  V30 6072 H 572.652 3.80026 -4.72933 0
M  V30 6073 H 571.391 3.34536 -3.54876 0
M  V30 6074 H 570.396 1.74984 -5.21211 0
M  V30 6075 H 571.621 2.23205 -6.41371 0
M  V30 6076 H 569.567 4.07831 -5.13819 0
M  V30 6077 H 569.484 3.42317 -6.74059 0
M  V30 6078 H 570.752 4.54123 -6.33555 0
M  V30 6079 N 574.981 1.5647 0.188427 0
M  V30 6080 C 576.23 1.80207 0.905995 0
M  V30 6081 C 576.543 0.659579 1.84144 0
M  V30 6082 O 577.749 0.781431 2.60011 0
M  V30 6083 C 576.205 3.19255 1.66145 0
M  V30 6084 C 575.813 4.41324 0.770504 0
M  V30 6085 C 577.557 3.52298 2.36826 0
M  V30 6086 C 575.464 5.71394 1.52521 0
M  V30 6087 H 574.394 0.671953 0.342045 0
M  V30 6088 H 577.045 1.82808 0.159164 0
M  V30 6089 H 575.427 3.10922 2.45242 0
M  V30 6090 H 576.601 4.60797 0.0177261 0
M  V30 6091 H 574.916 4.16035 0.174199 0
M  V30 6092 H 577.513 4.46715 2.93854 0
M  V30 6093 H 577.856 2.76359 3.11338 0
M  V30 6094 H 578.389 3.62108 1.6469 0
M  V30 6095 H 575.128 6.50316 0.82275 0
M  V30 6096 H 574.648 5.55928 2.25175 0
M  V30 6097 H 576.327 6.12747 2.07725 0
M  V30 6098 N 576.459 -0.456382 1.50847 0
M  V30 6099 C 577.687 -1.23026 1.66349 0
M  V30 6100 C 578.102 -1.85473 0.352868 0
M  V30 6101 O 577.459 -1.69885 -0.666739 0
M  V30 6102 C 577.51 -2.32827 2.76539 0
M  V30 6103 O 577.231 -1.72938 4.02522 0
M  V30 6104 C 578.732 -3.23448 3.03144 0
M  V30 6105 H 575.952 -0.371527 0.558756 0
M  V30 6106 H 578.496 -0.543082 1.97157 0
M  V30 6107 H 576.651 -2.97294 2.48384 0
M  V30 6108 H 577.065 -2.45357 4.63573 0
M  V30 6109 H 578.539 -3.96669 3.83872 0
M  V30 6110 H 579.016 -3.83094 2.14793 0
M  V30 6111 H 579.622 -2.64702 3.32886 0
M  V30 6112 N 577.937 -1.40673 -0.710563 0
M  V30 6113 C 579.165 -1.42547 -1.4996 0
M  V30 6114 C 579.58 -0.0265485 -1.88781 0
M  V30 6115 O 578.937 0.950694 -1.55782 0
M  V30 6116 C 578.988 -2.32071 -2.77173 0
M  V30 6117 O 578.709 -3.66518 -2.39992 0
M  V30 6118 C 580.21 -2.42591 -3.71032 0
M  V30 6119 H 577.43 -0.486025 -0.462623 0
M  V30 6120 H 579.974 -1.84783 -0.876102 0
M  V30 6121 H 578.129 -1.93184 -3.35795 0
M  V30 6122 H 578.543 -4.14115 -3.21884 0
M  V30 6123 H 580.017 -3.09429 -4.57119 0
M  V30 6124 H 580.494 -1.4525 -4.14486 0
M  V30 6125 H 581.1 -2.82051 -3.18319 0
M  V30 6126 N 579.415 0.9433 -1.26252 0
M  V30 6127 C 580.643 1.72367 -1.14443 0
M  V30 6128 C 581.058 1.86392 0.300572 0
M  V30 6129 O 580.415 1.36978 1.20596 0
M  V30 6130 C 580.466 3.13155 -1.806 0
M  V30 6131 O 580.187 2.99803 -3.19452 0
M  V30 6132 C 581.688 4.07417 -1.74717 0
M  V30 6133 H 578.908 0.539758 -0.398626 0
M  V30 6134 H 581.452 1.18268 -1.66832 0
M  V30 6135 H 579.607 3.64162 -1.32154 0
M  V30 6136 H 580.021 3.88697 -3.52158 0
M  V30 6137 H 581.495 5.03773 -2.25647 0
M  V30 6138 H 581.972 4.3337 -0.713244 0
M  V30 6139 H 582.578 3.6233 -2.22704 0
M  V30 6140 N 580.893 1.08022 1.14757 0
M  V30 6141 C 582.142 0.802468 1.8505 0
M  V30 6142 C 582.455 -0.674061 1.83619 0
M  V30 6143 O 583.661 -1.06683 2.49662 0
M  V30 6144 C 582.117 1.38551 3.32162 0
M  V30 6145 C 581.725 2.89354 3.42021 0
M  V30 6146 C 583.469 1.18608 4.07594 0
M  V30 6147 C 581.376 3.40815 4.83321 0
M  V30 6148 H 580.306 0.296518 0.693248 0
M  V30 6149 H 582.957 1.30114 1.29393 0
M  V30 6150 H 581.339 0.814556 3.87532 0
M  V30 6151 H 582.513 3.52552 2.96722 0
M  V30 6152 H 580.828 3.08165 2.80041 0
M  V30 6153 H 583.425 1.54525 5.11885 0
M  V30 6154 H 583.768 0.125599 4.1611 0
M  V30 6155 H 584.301 1.72375 3.58513 0
M  V30 6156 H 581.04 4.46418 4.79991 0
M  V30 6157 H 580.56 2.82374 5.29174 0
M  V30 6158 H 582.239 3.37171 5.522 0
M  V30 6159 N 582.371 -1.3172 0.865308 0
M  V30 6160 C 583.648 -1.91574 0.394789 0
M  V30 6161 C 584.028 -1.78769 -1.12271 0
M  V30 6162 O 583.376 -1.19245 -1.94918 0
M  V30 6163 C 583.586 -3.37957 0.870982 0
M  V30 6164 C 584.934 -4.15073 0.894384 0
M  V30 6165 O 585.958 -3.4672 0.816325 0
M  V30 6166 O 584.817 -5.37151 1.00651 0
M  V30 6167 H 581.911 -0.818649 0.117229 0
M  V30 6168 H 584.457 -1.4042 0.952913 0
M  V30 6169 H 583.229 -3.41269 1.91444 0
M  V30 6170 H 582.852 -3.96534 0.290907 0
M  V30 6171 N 583.85 -0.624285 -1.44708 0
M  V30 6172 C 584.782 0.12305 -2.28869 0
M  V30 6173 C 585.795 0.81557 -1.40898 0
M  V30 6174 O 586.984 0.678162 -1.65116 0
M  V30 6175 C 584.084 1.19612 -3.1709 0
M  V30 6176 C 583.257 0.587452 -4.33437 0
M  V30 6177 C 582.316 1.55358 -5.02743 0
M  V30 6178 O 581.341 1.07338 -5.58988 0
M  V30 6179 N 582.543 2.88798 -5.03563 0
M  V30 6180 H 585.308 -0.599193 -2.93649 0
M  V30 6181 H 582.87 -0.464954 -1.5508 0
M  V30 6182 H 584.861 1.84261 -3.60319 0
M  V30 6183 H 583.432 1.82067 -2.54107 0
M  V30 6184 H 582.652 -0.237509 -3.93484 0
M  V30 6185 H 583.94 0.161326 -5.08544 0
M  V30 6186 H 583.338 3.30399 -4.59188 0
M  V30 6187 H 581.894 3.48826 -5.50603 0
M  V30 6188 N 585.328 1.53329 -0.364422 0
M  V30 6189 C 586.275 2.25698 0.482607 0
M  V30 6190 C 587.245 1.26325 1.07848 0
M  V30 6191 O 588.43 1.55104 1.11119 0
M  V30 6192 C 585.57 3.04873 1.61699 0
M  V30 6193 C 584.683 4.19135 1.0464 0
M  V30 6194 C 583.818 4.85754 2.14979 0
M  V30 6195 C 582.857 5.9205 1.5538 0
M  V30 6196 N 581.994 6.52365 2.59547 0
M  V30 6197 H 586.834 2.97666 -0.141032 0
M  V30 6198 H 584.371 1.46875 -0.0813692 0
M  V30 6199 H 586.329 3.49051 2.28516 0
M  V30 6200 H 584.959 2.35162 2.2113 0
M  V30 6201 H 584.011 3.79451 0.268553 0
M  V30 6202 H 585.323 4.95525 0.570653 0
M  V30 6203 H 584.477 5.3311 2.89619 0
M  V30 6204 H 583.216 4.08834 2.65906 0
M  V30 6205 H 582.221 5.44058 0.792549 0
M  V30 6206 H 583.446 6.7089 1.0528 0
M  V30 6207 H 581.392 5.78298 3.09689 0
M  V30 6208 H 581.309 7.2429 2.16655 0
M  V30 6209 H 582.577 7.0437 3.33892 0
M  V30 6210 N 586.806 0.0935595 1.57322 0
M  V30 6211 C 588.055 -0.570191 1.93473 0
M  V30 6212 C 588.368 -1.69434 0.977318 0
M  V30 6213 O 589.574 -2.41914 1.23248 0
M  V30 6214 C 588.03 -1.06564 3.43762 0
M  V30 6215 C 587.638 0.0286723 4.47991 0
M  V30 6216 C 589.382 -1.70221 3.88877 0
M  V30 6217 C 587.289 -0.482046 5.89432 0
M  V30 6218 H 586.219 -0.216764 0.72217 0
M  V30 6219 H 588.87 0.169313 1.82717 0
M  V30 6220 H 587.252 -1.85878 3.49664 0
M  V30 6221 H 588.426 0.804106 4.5373 0
M  V30 6222 H 586.741 0.570336 4.12476 0
M  V30 6223 H 589.338 -2.09502 4.91948 0
M  V30 6224 H 589.681 -2.57078 3.27439 0
M  V30 6225 H 590.214 -0.974919 3.85668 0
M  V30 6226 H 586.953 0.349871 6.54566 0
M  V30 6227 H 586.473 -1.22452 5.87167 0
M  V30 6228 H 588.152 -0.951508 6.39965 0
M  V30 6229 N 588.284 -1.56567 -0.180126 0
M  V30 6230 C 589.234 -1.92132 -1.22756 0
M  V30 6231 C 590.218 -0.788639 -1.40247 0
M  V30 6232 O 591.41 -1.05171 -1.42366 0
M  V30 6233 C 588.539 -2.27719 -2.56902 0
M  V30 6234 C 587.625 -3.47481 -2.43142 0
M  V30 6235 N 588.016 -4.64973 -1.99082 0
M  V30 6236 C 586.314 -3.51914 -2.73994 0
M  V30 6237 C 587.015 -5.47119 -1.97574 0
M  V30 6238 N 585.991 -4.87925 -2.39645 0
M  V30 6239 H 589.793 -2.80464 -0.878478 0
M  V30 6240 H 587.307 -1.57686 -0.388463 0
M  V30 6241 H 589.304 -2.51389 -3.32579 0
M  V30 6242 H 587.964 -1.40722 -2.92621 0
M  V30 6243 H 588.975 -4.89358 -1.69557 0
M  V30 6244 H 585.652 -2.75372 -3.13809 0
M  V30 6245 H 587.042 -6.51254 -1.65282 0
M  V30 6246 N 589.762 0.448376 -1.51087 0
M  V30 6247 C 590.987 1.22605 -1.6728 0
M  V30 6248 C 591.412 1.84524 -0.365045 0
M  V30 6249 O 590.77 1.6832 0.673642 0
M  V30 6250 C 590.818 2.29393 -2.78229 0
M  V30 6251 O 589.922 3.34608 -2.41063 0
M  V30 6252 H 589.263 0.359705 -0.558129 0
M  V30 6253 H 591.793 0.530903 -1.97592 0
M  V30 6254 H 591.803 2.74352 -3.01986 0
M  V30 6255 H 590.478 1.83701 -3.73131 0
M  V30 6256 H 589.055 2.95202 -2.27838 0
M  V30 6257 N 591.24 1.41047 0.703093 0
M  V30 6258 C 592.203 1.42036 1.79884 0
M  V30 6259 C 593.203 0.312153 1.57741 0
M  V30 6260 O 594.393 0.571672 1.64553 0
M  V30 6261 C 591.525 1.22437 3.18154 0
M  V30 6262 H 592.718 2.39572 1.80403 0
M  V30 6263 H 590.271 1.27079 0.909977 0
M  V30 6264 H 591.006 0.257112 3.23279 0
M  V30 6265 H 590.791 2.02723 3.35627 0
M  V30 6266 H 592.281 1.25946 3.98155 0
M  V30 6267 N 592.718 -0.936591 1.26751 0
M  V30 6268 C 593.651 -2.03619 1.03027 0
M  V30 6269 C 594.629 -1.62534 -0.0464619 0
M  V30 6270 O 595.813 -1.88251 0.0968873 0
M  V30 6271 C 592.94 -3.3402 0.561072 0
M  V30 6272 C 591.986 -3.9408 1.63105 0
M  V30 6273 S 592.819 -4.27782 3.22122 0
M  V30 6274 C 593.975 -5.61277 2.76982 0
M  V30 6275 H 594.208 -2.23429 1.96129 0
M  V30 6276 H 591.741 -1.07857 1.10482 0
M  V30 6277 H 593.699 -4.09424 0.297031 0
M  V30 6278 H 592.36 -3.12147 -0.349741 0
M  V30 6279 H 591.553 -4.88154 1.25386 0
M  V30 6280 H 591.155 -3.25227 1.84671 0
M  V30 6281 H 593.447 -6.40189 2.21731 0
M  V30 6282 H 594.39 -6.03887 3.69766 0
M  V30 6283 H 594.798 -5.21374 2.16402 0
M  V30 6284 N 594.196 -1.08629 -1.14182 0
M  V30 6285 C 595.128 -0.676189 -2.18998 0
M  V30 6286 C 596.141 0.277871 -1.60411 0
M  V30 6287 O 597.33 0.0651771 -1.78381 0
M  V30 6288 C 594.43 0.0254916 -3.3889 0
M  V30 6289 C 593.603 -0.948039 -4.27002 0
M  V30 6290 C 592.662 -0.281268 -5.25448 0
M  V30 6291 O 591.688 -0.926378 -5.61611 0
M  V30 6292 N 592.89 0.967923 -5.72374 0
M  V30 6293 H 595.655 -1.57792 -2.54798 0
M  V30 6294 H 593.216 -0.972665 -1.29425 0
M  V30 6295 H 595.208 0.482554 -4.01813 0
M  V30 6296 H 593.778 0.829348 -3.01398 0
M  V30 6297 H 592.998 -1.58388 -3.6098 0
M  V30 6298 H 594.286 -1.60765 -4.82734 0
M  V30 6299 H 593.684 1.51175 -5.45126 0
M  V30 6300 H 592.241 1.36844 -6.37273 0
M  V30 6301 N 595.674 1.31259 -0.872281 0
M  V30 6302 C 596.899 2.0133 -0.498099 0
M  V30 6303 C 597.324 1.65031 0.902568 0
M  V30 6304 O 596.682 0.860164 1.59596 0
M  V30 6305 C 596.73 3.54411 -0.665205 0
M  V30 6306 O 595.834 4.11347 0.294473 0
M  V30 6307 H 595.175 0.633844 -0.197832 0
M  V30 6308 H 597.705 1.67402 -1.17633 0
M  V30 6309 H 597.715 4.04147 -0.559373 0
M  V30 6310 H 596.39 3.80171 -1.68651 0
M  V30 6311 H 594.967 3.72624 0.143403 0
M  V30 6312 N 597.152 0.631951 1.44375 0
M  V30 6313 C 598.115 -0.0628142 2.29114 0
M  V30 6314 C 599.115 -0.771494 1.41084 0
M  V30 6315 O 600.305 -0.615959 1.62947 0
M  V30 6316 C 597.437 -1.09953 3.22681 0
M  V30 6317 H 598.63 0.682509 2.92031 0
M  V30 6318 H 596.183 0.392128 1.51301 0
M  V30 6319 H 596.918 -1.87481 2.64616 0
M  V30 6320 H 596.703 -0.595286 3.87555 0
M  V30 6321 H 598.193 -1.58538 3.86336 0
M  V30 6322 N 598.631 -1.53133 0.372548 0
M  V30 6323 C 599.877 -2.01654 -0.215277 0
M  V30 6324 C 600.21 -1.25914 -1.47849 0
M  V30 6325 O 599.485 -0.3548 -1.91237 0
M  V30 6326 C 599.768 -3.56609 -0.500187 0
M  V30 6327 C 599.621 -4.43036 0.777145 0
M  V30 6328 C 600.94 -4.20528 -1.29786 0
M  V30 6329 H 598.059 -0.732991 -0.0767686 0
M  V30 6330 H 600.701 -1.83335 0.498814 0
M  V30 6331 H 598.851 -3.7235 -1.10852 0
M  V30 6332 H 600.523 -4.39079 1.41447 0
M  V30 6333 H 598.766 -4.10723 1.39604 0
M  V30 6334 H 599.437 -5.49424 0.532662 0
M  V30 6335 H 601.913 -4.08663 -0.783198 0
M  V30 6336 H 600.789 -5.28962 -1.46596 0
M  V30 6337 H 601.05 -3.77051 -2.30836 0
M  V30 6338 N 600.109 -0.101901 -1.5727 0
M  V30 6339 C 601.072 0.840129 -2.13247 0
M  V30 6340 C 602.072 1.20625 -1.06331 0
M  V30 6341 O 603.262 1.13456 -1.32186 0
M  V30 6342 C 600.394 2.13372 -2.65867 0
M  V30 6343 H 601.587 0.353945 -2.97804 0
M  V30 6344 H 599.14 0.147167 -1.55606 0
M  V30 6345 H 599.875 2.66461 -1.84849 0
M  V30 6346 H 599.66 1.88085 -3.44044 0
M  V30 6347 H 601.15 2.80748 -3.09145 0
M  V30 6348 N 601.587 1.56661 0.17182 0
M  V30 6349 C 602.864 1.72838 0.915778 0
M  V30 6350 C 603.244 0.66316 2.00413 0
M  V30 6351 O 602.592 -0.322123 2.26218 0
M  V30 6352 C 602.802 3.16019 1.48097 0
M  V30 6353 C 604.15 3.76962 1.95408 0
M  V30 6354 O 605.174 3.19294 1.57892 0
M  V30 6355 O 604.033 4.78219 2.64516 0
M  V30 6356 H 601.127 0.705797 0.431021 0
M  V30 6357 H 603.673 1.68947 0.159689 0
M  V30 6358 H 602.445 3.85031 0.697618 0
M  V30 6359 H 602.068 3.24234 2.30126 0
M  V30 6360 N 603.065 -0.440357 1.51323 0
M  V30 6361 C 604.295 -1.21079 1.67402 0
M  V30 6362 C 604.703 -1.85555 0.369599 0
M  V30 6363 O 604.046 -1.71375 -0.661525 0
M  V30 6364 C 604.108 -2.33839 2.73056 0
M  V30 6365 C 603.772 -1.89755 4.15743 0
M  V30 6366 C 604.769 -1.40268 5.0062 0
M  V30 6367 C 602.454 -1.97539 4.61826 0
M  V30 6368 C 604.448 -0.991474 6.29642 0
M  V30 6369 C 602.135 -1.56029 5.90845 0
M  V30 6370 C 603.133 -1.06915 6.7458 0
M  V30 6371 O 602.821 -0.659933 8.01187 0
M  V30 6372 H 602.553 -0.371133 0.56501 0
M  V30 6373 H 605.107 -0.528409 1.98487 0
M  V30 6374 H 603.337 -3.05345 2.37279 0
M  V30 6375 H 605.026 -2.95713 2.78044 0
M  V30 6376 H 605.792 -1.33652 4.66221 0
M  V30 6377 H 601.671 -2.34713 3.96776 0
M  V30 6378 H 605.215 -0.607425 6.9495 0
M  V30 6379 H 601.112 -1.62315 6.24759 0
M  V30 6380 H 601.88 -0.786052 8.14717 0
M  V30 6381 N 604.543 -1.41418 -0.695603 0
M  V30 6382 C 605.791 -1.40496 -1.45277 0
M  V30 6383 C 606.112 -0.0149538 -1.94994 0
M  V30 6384 O 605.382 0.9432 -1.71699 0
M  V30 6385 H 603.962 -0.517147 -0.539044 0
M  V30 6386 H 606.624 -1.76656 -0.823321 0
M  V30 6387 H 605.72 -2.09214 -2.31595 0
M  V30 6388 N 606.021 0.929856 -1.27246 0
M  V30 6389 C 607.251 1.70895 -1.16096 0
M  V30 6390 C 607.659 1.87039 0.285122 0
M  V30 6391 O 607.002 1.38557 1.20614 0
M  V30 6392 C 607.064 3.12919 -1.7698 0
M  V30 6393 C 606.728 3.2012 -3.26148 0
M  V30 6394 C 607.725 3.02533 -4.22812 0
M  V30 6395 C 605.41 3.43148 -3.66817 0
M  V30 6396 C 607.404 3.07861 -5.58122 0
M  V30 6397 C 605.091 3.48109 -5.02258 0
M  V30 6398 C 606.089 3.30483 -5.97721 0
M  V30 6399 O 605.777 3.35175 -7.30694 0
M  V30 6400 H 605.509 0.54152 -0.404639 0
M  V30 6401 H 608.063 1.17342 -1.68582 0
M  V30 6402 H 606.293 3.67945 -1.18969 0
M  V30 6403 H 607.982 3.72787 -1.60576 0
M  V30 6404 H 608.748 2.84586 -3.92728 0
M  V30 6405 H 604.627 3.55918 -2.9299 0
M  V30 6406 H 608.171 2.94021 -6.32612 0
M  V30 6407 H 604.068 3.65579 -5.31998 0
M  V30 6408 H 604.836 3.51644 -7.39114 0
M  V30 6409 N 607.499 1.09233 1.13605 0
M  V30 6410 C 608.429 0.751738 2.21068 0
M  V30 6411 C 609.41 -0.269688 1.67948 0
M  V30 6412 O 610.595 -0.13819 1.93708 0
M  V30 6413 C 607.725 0.16935 3.46887 0
M  V30 6414 C 606.679 1.12007 4.13084 0
M  V30 6415 C 606.005 0.399483 5.33206 0
M  V30 6416 C 607.305 2.46168 4.6065 0
M  V30 6417 H 608.999 1.65024 2.49815 0
M  V30 6418 H 606.545 0.794905 1.20072 0
M  V30 6419 H 608.498 -0.0809824 4.21322 0
M  V30 6420 H 607.222 -0.764335 3.1753 0
M  V30 6421 H 605.881 1.35564 3.40614 0
M  V30 6422 H 605.529 -0.538277 5.00112 0
M  V30 6423 H 605.229 1.03337 5.78442 0
M  V30 6424 H 606.753 0.157403 6.10397 0
M  V30 6425 H 608.167 2.26829 5.26518 0
M  V30 6426 H 606.564 3.05326 5.1662 0
M  V30 6427 H 607.634 3.07076 3.75276 0
M  V30 6428 N 608.977 -1.30795 0.87923 0
M  V30 6429 C 609.907 -2.30742 0.357796 0
M  V30 6430 C 610.888 -1.60747 -0.556283 0
M  V30 6431 O 612.073 -1.88393 -0.47135 0
M  V30 6432 C 609.203 -3.44583 -0.433555 0
M  V30 6433 C 608.157 -4.26235 0.388251 0
M  V30 6434 C 607.483 -5.32073 -0.529352 0
M  V30 6435 C 608.783 -4.96303 1.62729 0
M  V30 6436 H 610.477 -2.74605 1.19299 0
M  V30 6437 H 608.023 -1.32017 0.575104 0
M  V30 6438 H 609.976 -4.13563 -0.808934 0
M  V30 6439 H 608.7 -2.99511 -1.30234 0
M  V30 6440 H 607.359 -3.58936 0.745695 0
M  V30 6441 H 607.007 -4.83249 -1.39569 0
M  V30 6442 H 606.707 -5.87598 0.0166741 0
M  V30 6443 H 608.231 -6.0391 -0.901373 0
M  V30 6444 H 609.645 -5.5783 1.32283 0
M  V30 6445 H 608.042 -5.61666 2.11309 0
M  V30 6446 H 609.112 -4.22758 2.37494 0
M  V30 6447 N 610.455 -0.639598 -1.44038 0
M  V30 6448 C 611.732 -0.078012 -1.95444 0
M  V30 6449 C 612.112 1.39847 -1.58133 0
M  V30 6450 O 611.46 2.11714 -0.859614 0
M  V30 6451 C 611.67 -0.309832 -3.47622 0
M  V30 6452 C 613.018 -0.207521 -4.24093 0
M  V30 6453 O 614.042 -0.241653 -3.55379 0
M  V30 6454 O 612.901 -0.119641 -5.46369 0
M  V30 6455 H 609.995 0.0174534 -0.826816 0
M  V30 6456 H 612.541 -0.711891 -1.54046 0
M  V30 6457 H 611.313 -1.33401 -3.67858 0
M  V30 6458 H 610.936 0.357777 -3.95987 0
M  V30 6459 N 611.933 1.52934 -0.380664 0
M  V30 6460 C 613.21 1.93845 0.261417 0
M  V30 6461 C 613.59 1.31544 1.65104 0
M  V30 6462 O 612.938 0.480234 2.23397 0
M  V30 6463 C 613.148 3.47739 0.296466 0
M  V30 6464 C 614.496 4.21284 0.529578 0
M  V30 6465 O 615.52 3.54199 0.377041 0
M  V30 6466 O 614.379 5.40195 0.827753 0
M  V30 6467 H 611.473 0.811318 0.160285 0
M  V30 6468 H 614.019 1.64042 -0.434544 0
M  V30 6469 H 612.791 3.85395 -0.67724 0
M  V30 6470 H 612.414 3.8382 1.0377 0
M  V30 6471 N 613.412 0.11024 1.57214 0
M  V30 6472 C 614.66 -0.548783 1.94506 0
M  V30 6473 C 614.981 -1.67772 0.99386 0
M  V30 6474 O 614.251 -1.9584 0.0485841 0
M  V30 6475 H 612.831 -0.205715 0.718116 0
M  V30 6476 H 615.493 0.177127 1.94093 0
M  V30 6477 H 614.589 -0.949096 2.97319 0
M  V30 6478 N 614.89 -1.56749 -0.16351 0
M  V30 6479 C 616.118 -1.86577 -0.894233 0
M  V30 6480 C 616.533 -0.696543 -1.75481 0
M  V30 6481 O 615.89 0.334161 -1.79415 0
M  V30 6482 C 615.941 -3.15508 -1.76456 0
M  V30 6483 O 615.662 -4.27926 -0.938685 0
M  V30 6484 C 617.163 -3.58737 -2.60428 0
M  V30 6485 H 614.383 -0.618829 -0.259405 0
M  V30 6486 H 616.927 -2.03863 -0.161259 0
M  V30 6487 H 615.082 -3.00025 -2.45079 0
M  V30 6488 H 615.496 -5.01546 -1.53465 0
M  V30 6489 H 616.97 -4.51832 -3.17099 0
M  V30 6490 H 617.447 -2.83229 -3.35675 0
M  V30 6491 H 618.053 -3.76858 -1.97125 0
M  V30 6492 N 616.368 0.432326 -1.51554 0
M  V30 6493 C 617.616 1.17901 -1.64146 0
M  V30 6494 C 617.937 1.91604 -0.362367 0
M  V30 6495 O 617.207 1.85764 0.621968 0
M  V30 6496 H 615.787 0.438206 -0.604966 0
M  V30 6497 H 618.449 0.495172 -1.88505 0
M  V30 6498 H 617.545 1.90584 -2.47152 0
M  V30 6499 N 617.846 1.41785 0.688094 0
M  V30 6500 C 619.262 1.24419 0.999608 0
M  V30 6501 C 619.462 0.138868 2.01021 0
M  V30 6502 O 618.518 -0.494283 2.47615 0
M  V30 6503 C 619.831 2.59625 1.51709 0
M  V30 6504 C 621.379 2.66869 1.63554 0
M  V30 6505 C 621.854 4.0241 2.18702 0
M  V30 6506 N 623.345 4.04295 2.26053 0
M  V30 6507 C 624.08 5.05977 2.69768 0
M  V30 6508 N 623.576 6.18047 3.13033 0
M  V30 6509 N 625.369 4.93336 2.69398 0
M  V30 6510 H 617.52 2.12392 0.0187427 0
M  V30 6511 H 619.783 0.945347 0.0708673 0
M  V30 6512 H 619.489 3.41297 0.849059 0
M  V30 6513 H 619.363 2.82628 2.49803 0
M  V30 6514 H 621.75 1.8555 2.29467 0
M  V30 6515 H 621.831 2.47668 0.639857 0
M  V30 6516 H 621.475 4.8418 1.53402 0
M  V30 6517 H 621.405 4.18955 3.19037 0
M  V30 6518 H 623.896 3.23383 1.9553 0
M  V30 6519 H 624.209 6.91498 3.45038 0
M  V30 6520 H 622.554 6.21572 3.10923 0
M  V30 6521 H 625.745 4.04865 2.34952 0
M  V30 6522 H 625.918 5.72717 3.03148 0
M  V30 6523 N 619.324 -0.923095 1.27737 0
M  V30 6524 C 620.57 -1.67375 1.14514 0
M  V30 6525 C 620.903 -1.91751 -0.307424 0
M  V30 6526 O 620.178 -1.51119 -1.22447 0
M  V30 6527 C 620.461 -3.03745 1.9342 0
M  V30 6528 C 620.314 -2.86581 3.46686 0
M  V30 6529 C 621.633 -4.04144 1.74228 0
M  V30 6530 H 618.752 -0.607427 0.417374 0
M  V30 6531 H 621.394 -1.07089 1.56946 0
M  V30 6532 H 619.544 -3.55204 1.5736 0
M  V30 6533 H 621.216 -2.42203 3.92601 0
M  V30 6534 H 619.459 -2.21829 3.72793 0
M  V30 6535 H 620.13 -3.83381 3.97143 0
M  V30 6536 H 622.606 -3.61712 2.05678 0
M  V30 6537 H 621.482 -4.97543 2.31824 0
M  V30 6538 H 621.743 -4.36661 0.691373 0
M  V30 6539 N 620.802 -1.09834 -1.13024 0
M  V30 6540 C 621.712 -0.753731 -2.22162 0
M  V30 6541 C 622.728 0.246105 -1.72251 0
M  V30 6542 O 623.904 0.0864051 -2.01215 0
M  V30 6543 C 620.969 -0.183958 -3.46212 0
M  V30 6544 C 620.03 -1.24028 -4.10993 0
M  V30 6545 C 619.263 -0.697597 -5.29121 0
M  V30 6546 O 619.486 0.478092 -5.68393 0
M  V30 6547 O 618.42 -1.4546 -5.84059 0
M  V30 6548 H 622.246 -1.66456 -2.5402 0
M  V30 6549 H 619.831 -0.873026 -1.21238 0
M  V30 6550 H 621.713 0.130257 -4.21199 0
M  V30 6551 H 620.388 0.699823 -3.16045 0
M  V30 6552 H 619.295 -1.60725 -3.37814 0
M  V30 6553 H 620.628 -2.09685 -4.45301 0
M  V30 6554 N 622.28 1.30327 -0.886154 0
M  V30 6555 C 623.526 1.96388 -0.505941 0
M  V30 6556 C 623.859 1.69784 0.942712 0
M  V30 6557 O 623.134 1.00322 1.6663 0
M  V30 6558 C 623.417 3.51488 -0.782826 0
M  V30 6559 C 623.27 3.87603 -2.28219 0
M  V30 6560 C 624.589 4.39331 -0.260128 0
M  V30 6561 H 621.708 0.713327 -0.185292 0
M  V30 6562 H 624.35 1.54178 -1.11036 0
M  V30 6563 H 622.5 3.87572 -0.268399 0
M  V30 6564 H 624.172 3.61537 -2.86512 0
M  V30 6565 H 622.415 3.3563 -2.74837 0
M  V30 6566 H 623.086 4.95806 -2.42653 0
M  V30 6567 H 625.562 4.10162 -0.700444 0
M  V30 6568 H 624.438 5.46769 -0.483179 0
M  V30 6569 H 624.699 4.34072 0.838674 0
M  V30 6570 N 623.758 0.647228 1.43697 0
M  V30 6571 C 625.006 0.157876 2.01482 0
M  V30 6572 C 625.327 -1.23039 1.51282 0
M  V30 6573 O 624.597 -1.82071 0.722982 0
M  V30 6574 H 623.177 0.0553745 0.744945 0
M  V30 6575 H 625.839 0.83755 1.75986 0
M  V30 6576 H 624.935 0.137895 3.11795 0
M  V30 6577 N 625.236 -1.5273 0.388769 0
M  V30 6578 C 626.184 -2.27975 -0.461527 0
M  V30 6579 C 627.178 -1.31854 -1.06352 0
M  V30 6580 O 628.384 -1.49394 -1.00406 0
M  V30 6581 H 624.759 -0.733088 -0.16759 0
M  V30 6582 H 626.73 -2.97765 0.194579 0
M  V30 6583 C 625.479 -3.09881 -1.577 0
M  V30 6584 H 624.802 -3.83701 -1.12309 0
M  V30 6585 H 626.242 -3.6567 -2.14619 0
M  V30 6586 C 624.701 -2.22159 -2.53272 0
M  V30 6587 O 625.231 -1.84802 -3.56667 0
M  V30 6588 N 623.437 -1.8633 -2.23001 0
M  V30 6589 H 622.984 -2.16909 -1.38954 0
M  V30 6590 H 622.942 -1.27927 -2.87197 0
M  V30 6591 N 626.714 -0.118576 -1.57153 0
M  V30 6592 C 627.96 0.540326 -1.95469 0
M  V30 6593 C 628.293 1.66356 -1.00196 0
M  V30 6594 O 627.568 1.94461 -0.039104 0
M  V30 6595 C 627.851 1.07342 -3.43729 0
M  V30 6596 C 627.704 -0.0463732 -4.49776 0
M  V30 6597 C 629.023 1.96442 -3.93826 0
M  V30 6598 H 626.142 0.19494 -0.710751 0
M  V30 6599 H 628.784 -0.19405 -1.89006 0
M  V30 6600 H 626.934 1.69925 -3.49368 0
M  V30 6601 H 628.606 -0.681648 -4.56236 0
M  V30 6602 H 626.849 -0.709574 -4.27957 0
M  V30 6603 H 627.52 0.367856 -5.50773 0
M  V30 6604 H 629.996 1.43731 -3.90488 0
M  V30 6605 H 628.872 2.3066 -4.98084 0
M  V30 6606 H 629.133 2.89077 -3.34495 0
M  V30 6607 N 628.193 1.56834 0.155195 0
M  V30 6608 C 629.123 2.00678 1.19376 0
M  V30 6609 C 630.104 0.884973 1.45266 0
M  V30 6610 O 631.289 1.1522 1.56326 0
M  V30 6611 C 628.419 2.38042 2.5289 0
M  V30 6612 C 627.373 3.53332 2.41538 0
M  V30 6613 C 626.699 3.76485 3.79688 0
M  V30 6614 C 627.999 4.86265 1.9064 0
M  V30 6615 H 629.693 2.87688 0.829232 0
M  V30 6616 H 627.239 1.38407 0.397445 0
M  V30 6617 H 629.192 2.67314 3.25763 0
M  V30 6618 H 627.916 1.4796 2.91162 0
M  V30 6619 H 626.575 3.24213 1.71117 0
M  V30 6620 H 626.223 2.83667 4.15382 0
M  V30 6621 H 625.923 4.54068 3.72956 0
M  V30 6622 H 627.447 4.08174 4.54122 0
M  V30 6623 H 628.861 5.14308 2.53299 0
M  V30 6624 H 627.258 5.67597 1.94818 0
M  V30 6625 H 628.328 4.77184 0.861596 0
M  V30 6626 N 629.671 -0.424282 1.51781 0
M  V30 6627 C 630.604 -1.53633 1.68737 0
M  V30 6628 C 631.582 -1.53549 0.534915 0
M  V30 6629 O 632.766 -1.72483 0.760391 0
M  V30 6630 C 629.893 -2.92195 1.71288 0
M  V30 6631 C 628.939 -3.10251 2.92654 0
M  V30 6632 S 629.772 -2.85166 4.53256 0
M  V30 6633 C 630.928 -4.25986 4.58571 0
M  V30 6634 H 631.161 -1.39018 2.62795 0
M  V30 6635 H 628.694 -0.614854 1.41629 0
M  V30 6636 H 630.652 -3.72059 1.73443 0
M  V30 6637 H 629.313 -3.04162 0.783847 0
M  V30 6638 H 628.506 -4.1159 2.90877 0
M  V30 6639 H 628.108 -2.38231 2.88308 0
M  V30 6640 H 630.4 -5.19392 4.35015 0
M  V30 6641 H 631.343 -4.32792 5.60444 0
M  V30 6642 H 631.751 -4.1025 3.87757 0
M  V30 6643 N 631.149 -1.42148 -0.680565 0
M  V30 6644 C 632.426 -1.32795 -1.43614 0
M  V30 6645 C 632.806 0.037415 -2.11067 0
M  V30 6646 O 632.154 1.05258 -2.02813 0
M  V30 6647 C 632.364 -2.49206 -2.44331 0
M  V30 6648 C 633.712 -2.91059 -3.09144 0
M  V30 6649 O 634.736 -2.49054 -2.54657 0
M  V30 6650 O 633.595 -3.63741 -4.07866 0
M  V30 6651 H 630.689 -0.523397 -0.640301 0
M  V30 6652 H 633.235 -1.54144 -0.709775 0
M  V30 6653 H 632.007 -3.40252 -1.93247 0
M  V30 6654 H 631.63 -2.29813 -3.24456 0
M  V30 6655 N 632.627 0.916307 -1.28225 0
M  V30 6656 C 633.575 2.03977 -1.11786 0
M  V30 6657 C 634.569 1.69358 -0.0378265 0
M  V30 6658 O 635.775 1.78925 -0.196405 0
M  V30 6659 H 632.15 0.66829 -0.344809 0
M  V30 6660 H 634.121 2.14985 -2.06939 0
M  V30 6661 C 632.87 3.38518 -0.7938 0
M  V30 6662 H 632.193 3.65649 -1.61682 0
M  V30 6663 H 633.633 4.17864 -0.718719 0
M  V30 6664 C 632.092 3.33134 0.502353 0
M  V30 6665 O 632.622 3.71281 1.53341 0
M  V30 6666 N 630.828 2.86229 0.502147 0
M  V30 6667 H 630.375 2.55382 -0.337338 0
M  V30 6668 H 630.333 2.83009 1.36942 0
M  V30 6669 N 634.105 1.10431 1.1244 0
M  V30 6670 C 635.037 0.710945 2.17895 0
M  V30 6671 C 636.05 -0.252315 1.60833 0
M  V30 6672 O 637.239 -0.03679 1.78462 0
M  V30 6673 C 634.339 0.0284262 3.38888 0
M  V30 6674 C 633.512 1.01585 4.2544 0
M  V30 6675 C 632.571 0.364826 5.24934 0
M  V30 6676 O 631.597 1.01561 5.60066 0
M  V30 6677 N 632.799 -0.87674 5.73841 0
M  V30 6678 H 635.564 1.61826 2.52255 0
M  V30 6679 H 633.125 0.993132 1.27861 0
M  V30 6680 H 635.117 -0.418568 4.0253 0
M  V30 6681 H 633.687 -0.781294 3.02679 0
M  V30 6682 H 632.907 1.64111 3.58415 0
M  V30 6683 H 634.195 1.68425 4.80115 0
M  V30 6684 H 633.593 -1.42483 5.47462 0
M  V30 6685 H 632.15 -1.26688 6.39369 0
M  V30 6686 N 635.583 -1.29855 0.893053 0
M  V30 6687 C 636.811 -1.99976 0.530788 0
M  V30 6688 C 637.226 -1.66889 -0.882799 0
M  V30 6689 O 636.583 -0.910352 -1.58173 0
M  V30 6690 C 636.634 -3.54547 0.705587 0
M  V30 6691 O 636.355 -3.86458 2.06353 0
M  V30 6692 C 637.856 -4.41937 0.347387 0
M  V30 6693 H 635.076 -0.639129 0.204339 0
M  V30 6694 H 637.62 -1.65549 1.20057 0
M  V30 6695 H 635.775 -3.87311 0.0830685 0
M  V30 6696 H 636.189 -4.81146 2.08803 0
M  V30 6697 H 637.663 -5.4954 0.520557 0
M  V30 6698 H 638.14 -4.33339 -0.715139 0
M  V30 6699 H 638.746 -4.14633 0.946567 0
M  V30 6700 N 637.061 -0.65484 -1.43351 0
M  V30 6701 C 638.309 -0.168559 -2.01396 0
M  V30 6702 C 638.63 1.22235 -1.51933 0
M  V30 6703 O 637.9 1.81685 -0.732627 0
M  V30 6704 H 636.48 -0.0593244 -0.744641 0
M  V30 6705 H 639.142 -0.846871 -1.75539 0
M  V30 6706 H 638.238 -0.154428 -3.11718 0
M  V30 6707 N 638.539 1.52521 -0.396863 0
M  V30 6708 C 639.502 2.2527 0.422604 0
M  V30 6709 C 640.502 1.27184 0.983913 0
M  V30 6710 O 641.692 1.51222 0.864723 0
M  V30 6711 C 638.824 3.01356 1.59365 0
M  V30 6712 H 640.017 2.99133 -0.214416 0
M  V30 6713 H 637.57 1.55587 -0.149128 0
M  V30 6714 H 638.305 2.31813 2.26789 0
M  V30 6715 H 638.09 3.73357 1.19779 0
M  V30 6716 H 639.58 3.56571 2.17363 0
M  V30 6717 N 640.017 0.126909 1.57088 0
M  V30 6718 C 641.266 -0.529024 1.94639 0
M  V30 6719 C 641.579 -1.67323 1.01304 0
M  V30 6720 O 642.785 -2.39245 1.28352 0
M  V30 6721 C 641.241 -0.992483 3.45945 0
M  V30 6722 C 640.849 0.123691 4.47829 0
M  V30 6723 C 642.593 -1.61934 3.924 0
M  V30 6724 C 640.5 -0.356911 5.90322 0
M  V30 6725 H 639.43 -0.201397 0.726605 0
M  V30 6726 H 642.081 0.208032 1.82317 0
M  V30 6727 H 640.463 -1.7842 3.53528 0
M  V30 6728 H 641.637 0.900168 4.51922 0
M  V30 6729 H 639.952 0.657699 4.11173 0
M  V30 6730 H 642.549 -1.9902 4.96281 0
M  V30 6731 H 642.892 -2.50075 3.32819 0
M  V30 6732 H 643.425 -0.892894 3.8765 0
M  V30 6733 H 640.164 0.488636 6.53676 0
M  V30 6734 H 639.684 -1.0997 5.89633 0
M  V30 6735 H 641.363 -0.815547 6.41839 0
M  V30 6736 N 641.495 -1.56914 -0.146875 0
M  V30 6737 C 642.425 -2.01308 -1.1831 0
M  V30 6738 C 643.406 -0.892664 -1.44795 0
M  V30 6739 O 644.591 -1.16048 -1.55713 0
M  V30 6740 C 641.721 -2.3938 -2.51624 0
M  V30 6741 C 640.675 -3.54608 -2.3966 0
M  V30 6742 C 640.001 -3.78493 -3.77686 0
M  V30 6743 C 641.301 -4.87269 -1.88058 0
M  V30 6744 H 642.995 -2.88123 -0.813964 0
M  V30 6745 H 640.541 -1.38615 -0.3901 0
M  V30 6746 H 642.494 -2.69037 -3.24341 0
M  V30 6747 H 641.218 -1.49502 -2.90373 0
M  V30 6748 H 639.877 -3.25116 -1.69396 0
M  V30 6749 H 639.525 -2.85866 -4.13871 0
M  V30 6750 H 639.225 -4.56039 -3.70543 0
M  V30 6751 H 640.749 -4.10576 -4.51951 0
M  V30 6752 H 642.163 -5.15644 -2.50568 0
M  V30 6753 H 640.56 -5.68622 -1.91805 0
M  V30 6754 H 641.63 -4.77634 -0.836277 0
M  V30 6755 N 642.974 0.416227 -1.52004 0
M  V30 6756 C 644.222 1.16153 -1.65387 0
M  V30 6757 C 644.543 1.91208 -0.382669 0
M  V30 6758 O 643.813 1.86413 0.602231 0
M  V30 6759 H 642.393 0.431765 -0.60958 0
M  V30 6760 H 645.055 0.475151 -1.89019 0
M  V30 6761 H 644.151 1.87952 -2.4916 0
M  V30 6762 N 644.452 1.42507 0.673017 0
M  V30 6763 C 645.699 1.43072 1.43306 0
M  V30 6764 C 646.027 0.0478004 1.94441 0
M  V30 6765 O 645.282 -0.944106 1.71421 0
M  V30 6766 C 645.581 2.40351 2.64511 0
M  V30 6767 C 645.247 3.8669 2.31908 0
M  V30 6768 C 643.909 4.26551 2.22728 0
M  V30 6769 C 646.261 4.78991 2.05467 0
M  V30 6770 C 643.589 5.56691 1.85234 0
M  V30 6771 C 645.941 6.09476 1.69477 0
M  V30 6772 C 644.605 6.48334 1.58808 0
M  V30 6773 H 643.875 0.523536 0.524395 0
M  V30 6774 H 646.522 1.75459 0.76723 0
M  V30 6775 H 644.827 2.01297 3.36135 0
M  V30 6776 H 646.524 2.38051 3.22696 0
M  V30 6777 H 643.114 3.55132 2.39956 0
M  V30 6778 H 647.298 4.48982 2.11492 0
M  V30 6779 H 642.554 5.85657 1.75545 0
M  V30 6780 H 646.728 6.80482 1.48043 0
M  V30 6781 H 644.355 7.49084 1.29525 0
M  V30 6782 N 645.93 -0.909495 1.28709 0
M  V30 6783 C 647.176 -1.66151 1.16283 0
M  V30 6784 C 647.509 -1.92067 -0.287069 0
M  V30 6785 O 646.784 -1.52409 -1.20837 0
M  V30 6786 C 647.067 -3.01676 1.9663 0
M  V30 6787 C 646.92 -2.82888 3.49707 0
M  V30 6788 C 648.239 -4.02274 1.78504 0
M  V30 6789 H 645.358 -0.602966 0.423793 0
M  V30 6790 H 648 -1.05418 1.58073 0
M  V30 6791 H 646.15 -3.53515 1.61119 0
M  V30 6792 H 647.822 -2.38026 3.95147 0
M  V30 6793 H 646.065 -2.17862 3.75125 0
M  V30 6794 H 646.736 -3.79147 4.01187 0
M  V30 6795 H 649.212 -3.59511 2.09503 0
M  V30 6796 H 648.088 -4.95056 2.37088 0
M  V30 6797 H 648.349 -4.35903 0.737647 0
M  V30 6798 N 647.408 -1.11026 -1.11852 0
M  V30 6799 C 648.656 -0.854769 -1.83134 0
M  V30 6800 C 648.977 0.621375 -1.84835 0
M  V30 6801 O 648.247 1.45129 -1.31584 0
M  V30 6802 H 646.827 -0.313229 -0.678157 0
M  V30 6803 H 649.489 -1.40178 -1.35411 0
M  V30 6804 H 648.585 -1.22311 -2.87135 0
M  V30 6805 N 648.886 1.2938 -0.899927 0
M  V30 6806 C 650.134 1.95164 -0.524924 0
M  V30 6807 C 650.455 1.71292 0.931888 0
M  V30 6808 O 649.725 1.04481 1.65712 0
M  V30 6809 H 648.305 0.722133 -0.191135 0
M  V30 6810 H 650.967 1.57628 -1.14627 0
M  V30 6811 H 650.063 3.0397 -0.707711 0
M  V30 6812 N 650.364 0.662433 1.43002 0
M  V30 6813 C 651.78 0.330835 1.56133 0
M  V30 6814 C 651.98 -1.16454 1.64441 0
M  V30 6815 O 651.036 -1.94964 1.60453 0
M  V30 6816 C 652.349 1.05029 2.81761 0
M  V30 6817 C 653.897 1.03142 2.95518 0
M  V30 6818 C 654.372 1.73196 4.2399 0
M  V30 6819 N 655.863 1.70004 4.30875 0
M  V30 6820 C 656.598 2.21074 5.29069 0
M  V30 6821 N 656.094 2.80473 6.33488 0
M  V30 6822 N 657.887 2.1152 5.20784 0
M  V30 6823 H 650.038 1.63272 1.35853 0
M  V30 6824 H 652.301 0.687149 0.653092 0
M  V30 6825 H 652.007 2.10542 2.81718 0
M  V30 6826 H 651.881 0.607664 3.72273 0
M  V30 6827 H 654.268 -0.0153339 2.95096 0
M  V30 6828 H 654.349 1.51282 2.0627 0
M  V30 6829 H 653.993 2.77833 4.25172 0
M  V30 6830 H 653.923 1.22515 5.1215 0
M  V30 6831 H 656.414 1.26667 3.56039 0
M  V30 6832 H 656.727 3.17094 7.04749 0
M  V30 6833 H 655.072 2.84538 6.34085 0
M  V30 6834 H 658.263 1.64814 4.38126 0
M  V30 6835 H 658.436 2.51629 5.97149 0
M  V30 6836 N 651.842 -1.52309 0.404946 0
M  V30 6837 C 652.79 -2.28452 -0.437321 0
M  V30 6838 C 653.784 -1.32975 -1.04948 0
M  V30 6839 O 654.99 -1.50451 -0.988159 0
M  V30 6840 H 651.365 -0.734824 -0.159805 0
M  V30 6841 H 653.336 -2.97542 0.22615 0
M  V30 6842 C 652.085 -3.11536 -1.54404 0
M  V30 6843 H 651.408 -3.84871 -1.08233 0
M  V30 6844 H 652.848 -3.67926 -2.10729 0
M  V30 6845 C 651.307 -2.24833 -2.50902 0
M  V30 6846 O 651.837 -1.88574 -3.54687 0
M  V30 6847 N 650.043 -1.88685 -2.21012 0
M  V30 6848 H 649.59 -2.18371 -1.36646 0
M  V30 6849 H 649.548 -1.30966 -2.85824 0
M  V30 6850 N 653.32 -0.135238 -1.57019 0
M  V30 6851 C 654.55 0.525303 -1.9981 0
M  V30 6852 C 654.958 1.59724 -1.01415 0
M  V30 6853 O 654.301 1.837 -0.00130938 0
M  V30 6854 C 654.363 1.19578 -3.3903 0
M  V30 6855 C 654.027 0.269855 -4.56203 0
M  V30 6856 C 655.024 -0.497905 -5.1751 0
M  V30 6857 C 652.709 0.176188 -5.01991 0
M  V30 6858 C 654.703 -1.3469 -6.23007 0
M  V30 6859 C 652.39 -0.676422 -6.07345 0
M  V30 6860 C 653.388 -1.43658 -6.67721 0
M  V30 6861 O 653.076 -2.27501 -7.71037 0
M  V30 6862 H 652.808 0.142296 -0.660854 0
M  V30 6863 H 655.362 -0.223272 -2.04183 0
M  V30 6864 H 653.592 1.99176 -3.3146 0
M  V30 6865 H 655.281 1.75486 -3.66005 0
M  V30 6866 H 656.047 -0.435507 -4.83041 0
M  V30 6867 H 651.926 0.757583 -4.54733 0
M  V30 6868 H 655.47 -1.9407 -6.70062 0
M  V30 6869 H 651.367 -0.740154 -6.41243 0
M  V30 6870 H 652.135 -2.20619 -7.88206 0
M  V30 6871 N 654.798 1.5699 0.138552 0
M  V30 6872 C 655.73 1.95515 1.1961 0
M  V30 6873 C 656.743 0.852002 1.38726 0
M  V30 6874 O 657.932 1.13038 1.38147 0
M  V30 6875 C 655.032 2.2213 2.55952 0
M  V30 6876 C 654.205 3.53424 2.57702 0
M  V30 6877 C 653.264 3.6848 3.75645 0
M  V30 6878 O 652.29 4.4079 3.60129 0
M  V30 6879 N 653.492 3.05777 4.93438 0
M  V30 6880 H 656.257 2.86838 0.868557 0
M  V30 6881 H 653.818 1.58542 0.328033 0
M  V30 6882 H 655.81 2.29435 3.33379 0
M  V30 6883 H 654.38 1.3703 2.80965 0
M  V30 6884 H 653.6 3.57484 1.6613 0
M  V30 6885 H 654.888 4.39759 2.55909 0
M  V30 6886 H 654.286 2.46961 5.08947 0
M  V30 6887 H 652.843 3.18631 5.6861 0
M  V30 6888 N 656.276 -0.40816 1.52223 0
M  V30 6889 C 657.186 -1.52202 1.78526 0
M  V30 6890 C 658.202 -1.60546 0.670892 0
M  V30 6891 O 659.378 -1.77242 0.956404 0
M  V30 6892 C 656.443 -2.87928 1.93128 0
M  V30 6893 C 655.504 -2.89463 3.17033 0
M  V30 6894 C 654.737 -4.18715 3.30929 0
M  V30 6895 O 654.96 -5.12662 2.50067 0
M  V30 6896 O 653.894 -4.27125 4.24084 0
M  V30 6897 H 657.72 -1.32911 2.73072 0
M  V30 6898 H 655.305 -0.594112 1.37079 0
M  V30 6899 H 657.187 -3.68426 2.04549 0
M  V30 6900 H 655.862 -3.07285 1.01772 0
M  V30 6901 H 654.769 -2.07815 3.11069 0
M  V30 6902 H 656.102 -2.75055 4.08174 0
M  V30 6903 N 657.755 -1.42862 -0.66545 0
M  V30 6904 C 658.703 -1.47319 -1.8 0
M  V30 6905 C 659.697 -0.347963 -1.65788 0
M  V30 6906 O 660.903 -0.521406 -1.72283 0
M  V30 6907 H 657.278 -0.461588 -0.593667 0
M  V30 6908 H 659.249 -2.42876 -1.7336 0
M  V30 6909 C 657.998 -1.40152 -3.18203 0
M  V30 6910 H 657.321 -2.26035 -3.2977 0
M  V30 6911 H 658.761 -1.47331 -3.9758 0
M  V30 6912 C 657.22 -0.117493 -3.36695 0
M  V30 6913 O 657.75 0.826058 -3.93115 0
M  V30 6914 N 655.956 -0.0316218 -2.90583 0
M  V30 6915 H 655.503 -0.800247 -2.44855 0
M  V30 6916 H 655.461 0.826835 -3.03333 0
M  V30 6917 N 659.233 0.902656 -1.29189 0
M  V30 6918 C 660.165 2.01149 -1.09872 0
M  V30 6919 C 661.178 1.62732 -0.0471046 0
M  V30 6920 O 662.367 1.76107 -0.29132 0
M  V30 6921 C 659.467 3.32612 -0.649818 0
M  V30 6922 C 658.64 3.99574 -1.7793 0
M  V30 6923 C 657.699 5.09325 -1.32191 0
M  V30 6924 O 656.725 5.31919 -2.02611 0
M  V30 6925 N 657.927 5.80185 -0.191171 0
M  V30 6926 H 660.692 2.18276 -2.05368 0
M  V30 6927 H 658.253 1.07466 -1.2109 0
M  V30 6928 H 660.245 4.03375 -0.327199 0
M  V30 6929 H 658.815 3.11876 0.212597 0
M  V30 6930 H 658.035 3.22213 -2.27095 0
M  V30 6931 H 659.323 4.41056 -2.53668 0
M  V30 6932 H 658.721 5.64312 0.396016 0
M  V30 6933 H 657.278 6.5176 0.0721001 0
M  V30 6934 N 660.711 1.11618 1.11262 0
M  V30 6935 C 661.659 0.771291 2.1944 0
M  V30 6936 C 662.653 -0.238073 1.67719 0
M  V30 6937 O 663.859 -0.0971628 1.79738 0
M  V30 6938 H 660.234 0.231548 0.715465 0
M  V30 6939 H 662.205 1.69226 2.45775 0
M  V30 6940 C 660.954 0.232765 3.4692 0
M  V30 6941 H 660.277 1.00072 3.87073 0
M  V30 6942 H 661.717 0.0296561 4.2399 0
M  V30 6943 C 660.176 -1.03738 3.20531 0
M  V30 6944 O 660.706 -2.11675 3.41404 0
M  V30 6945 N 658.912 -0.960906 2.74253 0
M  V30 6946 H 658.459 -0.0824323 2.57468 0
M  V30 6947 H 658.417 -1.8114 2.56974 0
M  V30 6948 N 662.189 -1.289 0.906776 0
M  V30 6949 C 663.137 -2.29477 0.379873 0
M  V30 6950 C 664.131 -1.61068 -0.524747 0
M  V30 6951 O 665.337 -1.75344 -0.406765 0
M  V30 6952 H 661.712 -0.744742 0.10423 0
M  V30 6953 H 663.683 -2.71353 1.24137 0
M  V30 6954 C 662.432 -3.45713 -0.371154 0
M  V30 6955 H 661.755 -3.98551 0.315716 0
M  V30 6956 H 663.195 -4.18105 -0.704581 0
M  V30 6957 C 661.654 -2.9774 -1.57646 0
M  V30 6958 O 662.184 -2.99618 -2.67567 0
M  V30 6959 N 660.39 -2.53485 -1.42105 0
M  V30 6960 H 659.937 -2.52156 -0.526783 0
M  V30 6961 H 659.895 -2.21747 -2.22881 0
M  V30 6962 N 663.667 -0.670007 -1.42649 0
M  V30 6963 C 664.617 0.0339546 -2.27975 0
M  V30 6964 C 665.601 0.778295 -1.40824 0
M  V30 6965 O 666.793 0.657997 -1.64315 0
M  V30 6966 C 663.922 0.987899 -3.28779 0
M  V30 6967 C 663.008 0.241153 -4.23414 0
M  V30 6968 N 663.399 -0.751392 -5.00188 0
M  V30 6969 C 661.697 0.480269 -4.43407 0
M  V30 6970 C 662.398 -1.19615 -5.69269 0
M  V30 6971 N 661.374 -0.527045 -5.41039 0
M  V30 6972 H 665.176 -0.727425 -2.84756 0
M  V30 6973 H 662.69 -0.498673 -1.54554 0
M  V30 6974 H 664.687 1.50716 -3.88703 0
M  V30 6975 H 663.347 1.74916 -2.73559 0
M  V30 6976 H 664.358 -1.13075 -5.05405 0
M  V30 6977 H 661.035 1.2214 -3.99234 0
M  V30 6978 H 662.425 -2.01836 -6.40868 0
M  V30 6979 N 665.145 1.52092 -0.413018 0
M  V30 6980 C 666.108 2.25706 0.398687 0
M  V30 6981 C 667.108 1.28221 0.970368 0
M  V30 6982 O 668.298 1.52131 0.848635 0
M  V30 6983 C 665.43 3.03029 1.5616 0
M  V30 6984 H 666.623 2.98888 -0.246131 0
M  V30 6985 H 664.176 1.5542 -0.165622 0
M  V30 6986 H 664.911 2.34205 2.24317 0
M  V30 6987 H 664.696 3.74606 1.15812 0
M  V30 6988 H 666.186 3.58857 2.13569 0
M  V30 6989 N 666.623 0.143563 1.56945 0
M  V30 6990 C 667.87 -0.508407 1.96014 0
M  V30 6991 C 668.198 -1.65099 1.02824 0
M  V30 6992 O 667.453 -1.95618 0.0567764 0
M  V30 6993 C 667.752 -1.05885 3.41355 0
M  V30 6994 C 667.418 -0.0350809 4.50886 0
M  V30 6995 C 666.08 0.246362 4.80569 0
M  V30 6996 C 668.432 0.661282 5.16988 0
M  V30 6997 C 665.76 1.23003 5.73661 0
M  V30 6998 C 668.112 1.63375 6.11139 0
M  V30 6999 C 666.776 1.92292 6.39203 0
M  V30 7000 H 666.046 -0.186039 0.717266 0
M  V30 7001 H 668.693 0.229667 1.90118 0
M  V30 7002 H 666.998 -1.87419 3.44066 0
M  V30 7003 H 668.695 -1.57183 3.6891 0
M  V30 7004 H 665.285 -0.264622 4.27782 0
M  V30 7005 H 669.469 0.457038 4.94191 0
M  V30 7006 H 664.725 1.46056 5.93698 0
M  V30 7007 H 668.899 2.17887 6.61436 0
M  V30 7008 H 666.526 2.68666 7.11142 0
M  V30 7009 N 668.101 -1.57061 -0.130224 0
M  V30 7010 C 669.378 -1.75205 -0.869631 0
M  V30 7011 C 669.758 -0.716063 -1.98584 0
M  V30 7012 O 669.106 0.262032 -2.26993 0
M  V30 7013 C 669.316 -3.19835 -1.39666 0
M  V30 7014 C 670.664 -3.82011 -1.85345 0
M  V30 7015 O 671.688 -3.23368 -1.49371 0
M  V30 7016 O 670.547 -4.85064 -2.51744 0
M  V30 7017 H 667.641 -0.716977 -0.412157 0
M  V30 7018 H 670.187 -1.69311 -0.11484 0
M  V30 7019 H 668.959 -3.86745 -0.595288 0
M  V30 7020 H 668.582 -3.30222 -2.21448 0
M  V30 7021 N 669.579 0.400081 -1.52437 0
M  V30 7022 C 670.807 1.16768 -1.70801 0
M  V30 7023 C 671.222 1.84036 -0.421462 0
M  V30 7024 O 670.579 1.72242 0.603228 0
M  V30 7025 C 670.63 2.22403 -2.8499 0
M  V30 7026 O 670.351 1.57879 -4.08663 0
M  V30 7027 C 671.852 3.11974 -3.1494 0
M  V30 7028 H 669.072 0.350533 -0.57216 0
M  V30 7029 H 671.616 0.469534 -1.99037 0
M  V30 7030 H 669.771 2.87871 -2.59247 0
M  V30 7031 H 670.185 2.27982 -4.7236 0
M  V30 7032 H 671.659 3.82148 -3.9833 0
M  V30 7033 H 672.136 3.74858 -2.28863 0
M  V30 7034 H 672.742 2.52165 -3.42481 0
M  V30 7035 N 671.057 1.43213 0.657864 0
M  V30 7036 C 672.004 1.48011 1.77092 0
M  V30 7037 C 672.974 0.330291 1.62783 0
M  V30 7038 O 674.159 0.536787 1.83094 0
M  V30 7039 C 671.299 1.40461 3.15222 0
M  V30 7040 C 670.412 2.65612 3.40697 0
M  V30 7041 C 669.547 2.50083 4.68649 0
M  V30 7042 C 668.586 3.70525 4.87214 0
M  V30 7043 N 667.723 3.53835 6.0642 0
M  V30 7044 H 672.563 2.43121 1.72326 0
M  V30 7045 H 670.1 1.20687 0.841013 0
M  V30 7046 H 672.058 1.34079 3.95068 0
M  V30 7047 H 670.688 0.489359 3.19069 0
M  V30 7048 H 669.74 2.82292 2.54982 0
M  V30 7049 H 671.052 3.5509 3.50303 0
M  V30 7050 H 670.206 2.41383 5.56614 0
M  V30 7051 H 668.945 1.58121 4.61356 0
M  V30 7052 H 667.95 3.79639 3.97686 0
M  V30 7053 H 669.175 4.63489 4.96341 0
M  V30 7054 H 667.121 2.64604 6.00267 0
M  V30 7055 H 667.038 4.36912 6.16963 0
M  V30 7056 H 668.306 3.48978 6.97019 0
M  V30 7057 N 672.536 -0.895792 1.29666 0
M  V30 7058 C 673.952 -1.17726 1.07763 0
M  V30 7059 C 674.152 -2.00794 -0.168576 0
M  V30 7060 O 673.208 -2.37213 -0.865244 0
M  V30 7061 C 674.521 -1.89441 2.33522 0
M  V30 7062 C 676.069 -2.02251 2.3888 0
M  V30 7063 C 676.544 -2.77378 3.64452 0
M  V30 7064 N 678.035 -2.8493 3.65198 0
M  V30 7065 C 678.77 -3.43606 4.59045 0
M  V30 7066 N 678.266 -4.03417 5.63228 0
M  V30 7067 N 680.059 -3.41317 4.46608 0
M  V30 7068 H 672.21 -0.341652 2.09634 0
M  V30 7069 H 674.473 -0.213865 0.923561 0
M  V30 7070 H 674.179 -1.35842 3.24407 0
M  V30 7071 H 674.053 -2.89893 2.41334 0
M  V30 7072 H 676.44 -2.55025 1.4848 0
M  V30 7073 H 676.521 -1.0092 2.3505 0
M  V30 7074 H 676.165 -2.25279 4.55205 0
M  V30 7075 H 676.095 -3.79062 3.65541 0
M  V30 7076 H 678.586 -2.42453 2.89871 0
M  V30 7077 H 678.899 -4.46224 6.30955 0
M  V30 7078 H 677.244 -4.01868 5.67033 0
M  V30 7079 H 680.435 -2.93812 3.64407 0
M  V30 7080 H 680.608 -3.86751 5.1993 0
M  V30 7081 N 674.014 -1.12206 -1.10668 0
M  V30 7082 C 675.239 -0.898938 -1.86906 0
M  V30 7083 C 675.664 0.546346 -1.79991 0
M  V30 7084 O 675.022 1.38655 -1.1681 0
M  V30 7085 C 675.07 -1.37529 -3.33344 0
M  V30 7086 O 674.174 -0.55218 -4.08687 0
M  V30 7087 H 673.515 -0.323163 -0.580053 0
M  V30 7088 H 676.045 -1.49355 -1.39837 0
M  V30 7089 H 676.055 -1.3733 -3.84193 0
M  V30 7090 H 674.73 -2.42767 -3.37693 0
M  V30 7091 H 673.307 -0.620947 -3.67694 0
M  V30 7092 N 675.492 1.28418 -0.913599 0
M  V30 7093 C 676.903 1.77024 -0.593237 0
M  V30 7094 C 677.254 1.74779 0.891441 0
M  V30 7095 O 676.379 1.34237 1.69733 0
M  V30 7096 C 676.974 3.21456 -1.07011 0
M  V30 7097 C 675.533 3.67786 -0.800664 0
M  V30 7098 C 674.68 2.48185 -1.23691 0
M  V30 7099 H 677.631 1.14883 -1.09487 0
M  V30 7100 H 677.652 3.78269 -0.411481 0
M  V30 7101 H 677.164 3.23058 -2.1507 0
M  V30 7102 H 675.265 3.71644 0.266725 0
M  V30 7103 H 675.378 4.57934 -1.4083 0
M  V30 7104 H 673.742 2.46116 -0.655655 0
M  V30 7105 H 674.525 2.52506 -2.32585 0
M  V30 7106 N 676.97 0.677563 1.42291 0
M  V30 7107 C 677.933 0.0101085 2.29198 0
M  V30 7108 C 678.933 -0.726219 1.43467 0
M  V30 7109 O 680.123 -0.563807 1.64824 0
M  V30 7110 C 677.255 -0.996316 3.26016 0
M  V30 7111 H 678.448 0.775071 2.89711 0
M  V30 7112 H 676.001 0.440065 1.49977 0
M  V30 7113 H 676.736 -1.78967 2.70446 0
M  V30 7114 H 676.521 -0.471687 3.89253 0
M  V30 7115 H 678.011 -1.46167 3.91184 0
M  V30 7116 N 678.448 -1.51871 0.421078 0
M  V30 7117 C 679.673 -2.0684 -0.152371 0
M  V30 7118 C 680.098 -1.28802 -1.37083 0
M  V30 7119 O 679.456 -0.321482 -1.78427 0
M  V30 7120 C 679.504 -3.57532 -0.469368 0
M  V30 7121 O 678.608 -3.81818 -1.55848 0
M  V30 7122 H 677.949 -0.663939 -0.00898586 0
M  V30 7123 H 680.479 -1.95674 0.597724 0
M  V30 7124 H 680.489 -4.01515 -0.724553 0
M  V30 7125 H 679.164 -4.13761 0.421276 0
M  V30 7126 H 677.741 -3.49709 -1.29453 0
M  V30 7127 N 679.926 -0.151884 -1.56866 0
M  V30 7128 C 681.154 0.504813 -2.00647 0
M  V30 7129 C 681.569 1.58098 -1.03201 0
M  V30 7130 O 680.926 1.82476 -0.0297814 0
M  V30 7131 C 680.977 1.10099 -3.44326 0
M  V30 7132 O 680.698 0.0678021 -4.38048 0
M  V30 7133 C 682.199 1.83782 -4.03409 0
M  V30 7134 H 679.419 0.130989 -0.65809 0
M  V30 7135 H 681.963 -0.247903 -2.02992 0
M  V30 7136 H 680.118 1.8043 -3.42817 0
M  V30 7137 H 680.532 0.505237 -5.22061 0
M  V30 7138 H 682.006 2.2078 -5.05925 0
M  V30 7139 H 682.483 2.72557 -3.44397 0
M  V30 7140 H 683.089 1.18138 -4.08563 0
M  V30 7141 N 681.404 1.57128 0.121893 0
M  V30 7142 C 682.632 1.88883 0.844451 0
M  V30 7143 C 683.047 0.742824 1.73573 0
M  V30 7144 O 682.404 -0.286475 1.80238 0
M  V30 7145 C 682.455 3.20076 1.68029 0
M  V30 7146 O 682.176 4.30264 0.824898 0
M  V30 7147 C 683.677 3.65515 2.50826 0
M  V30 7148 H 680.897 0.62549 0.242907 0
M  V30 7149 H 683.441 2.04219 0.107151 0
M  V30 7150 H 681.596 3.06418 2.37038 0
M  V30 7151 H 682.01 5.05439 1.40113 0
M  V30 7152 H 683.484 4.60081 3.05008 0
M  V30 7153 H 683.961 2.92029 3.28048 0
M  V30 7154 H 684.567 3.81952 1.87064 0
M  V30 7155 N 682.882 -0.391992 1.52647 0
M  V30 7156 C 683.829 -1.47866 1.77213 0
M  V30 7157 C 684.799 -1.54286 0.615223 0
M  V30 7158 O 685.984 -1.7059 0.854622 0
M  V30 7159 C 683.124 -2.85129 1.94411 0
M  V30 7160 C 682.237 -2.87883 3.22098 0
M  V30 7161 C 681.372 -4.16553 3.29631 0
M  V30 7162 C 680.411 -4.13348 4.51453 0
M  V30 7163 N 679.548 -5.33619 4.56284 0
M  V30 7164 H 684.388 -1.26219 2.6995 0
M  V30 7165 H 681.925 -0.612367 1.33748 0
M  V30 7166 H 683.883 -3.64833 2.02367 0
M  V30 7167 H 682.513 -3.05232 1.05038 0
M  V30 7168 H 681.565 -2.00567 3.23229 0
M  V30 7169 H 682.877 -2.81382 4.11856 0
M  V30 7170 H 682.031 -5.0466 3.36753 0
M  V30 7171 H 680.77 -4.25773 2.37842 0
M  V30 7172 H 679.775 -3.23629 4.44459 0
M  V30 7173 H 681 -4.05754 5.44555 0
M  V30 7174 H 678.946 -5.43474 3.67385 0
M  V30 7175 H 678.863 -5.29182 5.3991 0
M  V30 7176 H 680.131 -6.23632 4.67657 0
M  V30 7177 N 684.36 -1.4356 -0.65026 0
M  V30 7178 C 685.771 -1.40324 -1.2315 0
M  V30 7179 C 686.122 -0.108812 -1.95898 0
M  V30 7180 O 685.247 0.79163 -2.01401 0
M  V30 7181 C 685.842 -2.54195 -2.23987 0
M  V30 7182 C 684.401 -2.54215 -2.77582 0
M  V30 7183 C 683.548 -2.31752 -1.5227 0
M  V30 7184 H 686.499 -1.52418 -0.442095 0
M  V30 7185 H 686.52 -2.25854 -3.0622 0
M  V30 7186 H 686.032 -3.48392 -1.71011 0
M  V30 7187 H 684.133 -1.63907 -3.34612 0
M  V30 7188 H 684.246 -3.52081 -3.24925 0
M  V30 7189 H 682.61 -1.80476 -1.79723 0
M  V30 7190 H 683.393 -3.28037 -1.01225 0
M  V30 7191 N 685.838 0.888903 -1.30139 0
M  V30 7192 C 686.768 2.01046 -1.18755 0
M  V30 7193 C 687.749 1.69916 -0.0791438 0
M  V30 7194 O 688.934 1.92445 -0.260498 0
M  V30 7195 C 686.064 3.36109 -0.874518 0
M  V30 7196 C 685.018 3.81486 -1.94043 0
M  V30 7197 C 684.344 5.13796 -1.48047 0
M  V30 7198 C 685.644 4.00637 -3.35093 0
M  V30 7199 H 687.338 2.10828 -2.12584 0
M  V30 7200 H 684.884 1.01298 -1.02346 0
M  V30 7201 H 686.837 4.14089 -0.781548 0
M  V30 7202 H 685.561 3.26449 0.0994519 0
M  V30 7203 H 684.22 3.05731 -2.02297 0
M  V30 7204 H 683.868 5.0056 -0.494878 0
M  V30 7205 H 683.568 5.45127 -2.19341 0
M  V30 7206 H 685.092 5.94305 -1.40121 0
M  V30 7207 H 686.506 4.69067 -3.2962 0
M  V30 7208 H 684.903 4.43339 -4.04438 0
M  V30 7209 H 685.973 3.0462 -3.77273 0
M  V30 7210 N 687.317 1.12792 1.10072 0
M  V30 7211 C 688.247 0.821688 2.18565 0
M  V30 7212 C 689.228 -0.21612 1.68721 0
M  V30 7213 O 690.413 -0.0764932 1.94049 0
M  V30 7214 C 687.543 0.279624 3.46172 0
M  V30 7215 C 686.497 1.25092 4.09312 0
M  V30 7216 C 685.823 0.568916 5.31665 0
M  V30 7217 C 687.123 2.60699 4.52585 0
M  V30 7218 H 688.817 1.72888 2.44438 0
M  V30 7219 H 686.363 0.832702 1.17482 0
M  V30 7220 H 688.316 0.053099 4.21367 0
M  V30 7221 H 687.04 -0.662929 3.19801 0
M  V30 7222 H 685.699 1.46332 3.36129 0
M  V30 7223 H 685.347 -0.378898 5.01571 0
M  V30 7224 H 685.047 1.21687 5.74862 0
M  V30 7225 H 686.571 0.351517 6.09587 0
M  V30 7226 H 687.985 2.43465 5.19035 0
M  V30 7227 H 686.382 3.21608 5.06644 0
M  V30 7228 H 687.452 3.1886 3.65317 0
M  V30 7229 N 688.795 -1.27931 0.920396 0
M  V30 7230 C 689.758 -2.25345 0.41858 0
M  V30 7231 C 690.758 -1.54116 -0.458798 0
M  V30 7232 O 691.948 -1.72235 -0.260912 0
M  V30 7233 C 689.08 -3.38556 -0.399104 0
M  V30 7234 H 690.273 -2.71251 1.27918 0
M  V30 7235 H 687.826 -1.39728 0.700406 0
M  V30 7236 H 688.561 -2.98021 -1.27882 0
M  V30 7237 H 688.346 -3.91426 0.229863 0
M  V30 7238 H 689.836 -4.10976 -0.740817 0
M  V30 7239 N 690.273 -0.685099 -1.4193 0
M  V30 7240 C 691.503 -0.220052 -2.05425 0
M  V30 7241 C 691.911 1.13185 -1.51611 0
M  V30 7242 O 691.254 1.71631 -0.654875 0
M  V30 7243 C 691.316 -0.0888364 -3.5939 0
M  V30 7244 C 690.98 -1.37109 -4.35947 0
M  V30 7245 C 691.977 -2.30675 -4.65924 0
M  V30 7246 C 689.662 -1.62155 -4.75406 0
M  V30 7247 C 691.656 -3.47556 -5.34306 0
M  V30 7248 C 689.343 -2.79324 -5.43527 0
M  V30 7249 C 690.341 -3.71848 -5.72903 0
M  V30 7250 O 690.029 -4.86966 -6.39624 0
M  V30 7251 H 689.761 -0.102165 -0.668235 0
M  V30 7252 H 692.315 -0.935194 -1.82875 0
M  V30 7253 H 690.545 0.681981 -3.80639 0
M  V30 7254 H 692.234 0.337669 -4.04493 0
M  V30 7255 H 693 -2.12579 -4.3593 0
M  V30 7256 H 688.879 -0.910053 -4.51928 0
M  V30 7257 H 692.423 -4.19794 -5.57153 0
M  V30 7258 H 688.32 -2.97342 -5.72938 0
M  V30 7259 H 689.088 -4.86644 -6.58118 0
M  V30 7260 N 691.751 1.51645 -0.429126 0
M  V30 7261 C 692.999 2.01616 0.139802 0
M  V30 7262 C 693.32 1.31568 1.43927 0
M  V30 7263 O 692.59 0.447688 1.90716 0
M  V30 7264 H 691.17 0.744998 0.054654 0
M  V30 7265 H 693.832 1.8638 -0.569952 0
M  V30 7266 H 692.928 3.10439 0.321609 0
M  V30 7267 N 693.229 0.160201 1.56784 0
M  V30 7268 C 694.478 -0.487619 1.95717 0
M  V30 7269 C 694.791 -1.65136 1.0483 0
M  V30 7270 O 695.997 -2.36468 1.33398 0
M  V30 7271 C 694.453 -0.91888 3.47972 0
M  V30 7272 C 694.061 0.218655 4.47466 0
M  V30 7273 C 695.805 -1.53575 3.95746 0
M  V30 7274 C 693.712 -0.231614 5.90946 0
M  V30 7275 H 692.642 -0.185939 0.730714 0
M  V30 7276 H 695.293 0.246657 1.81835 0
M  V30 7277 H 693.675 -1.70881 3.57234 0
M  V30 7278 H 694.849 0.995825 4.49911 0
M  V30 7279 H 693.164 0.744767 4.09685 0
M  V30 7280 H 695.761 -1.88448 5.00391 0
M  V30 7281 H 696.104 -2.42959 3.38048 0
M  V30 7282 H 696.637 -0.810467 3.89456 0
M  V30 7283 H 693.376 0.62718 6.52493 0
M  V30 7284 H 692.896 -0.974379 5.91833 0
M  V30 7285 H 694.575 -0.67922 6.43425 0
M  V30 7286 N 694.707 -1.5719 -0.113559 0
M  V30 7287 C 695.67 -1.99796 -1.12314 0
M  V30 7288 C 696.67 -0.888847 -1.34001 0
M  V30 7289 O 697.86 -1.15476 -1.30426 0
M  V30 7290 C 694.992 -2.34279 -2.47641 0
M  V30 7291 H 696.185 -2.90193 -0.756825 0
M  V30 7292 H 693.738 -1.52144 -0.358029 0
M  V30 7293 H 694.473 -1.46778 -2.89183 0
M  V30 7294 H 694.258 -3.15175 -2.33253 0
M  V30 7295 H 695.748 -2.67963 -3.2029 0
M  V30 7296 N 696.185 0.383891 -1.52853 0
M  V30 7297 C 697.434 1.12563 -1.67369 0
M  V30 7298 C 697.747 1.90982 -0.422533 0
M  V30 7299 O 698.953 2.6778 -0.447914 0
M  V30 7300 C 697.409 2.05011 -2.95801 0
M  V30 7301 C 697.017 1.31991 -4.28115 0
M  V30 7302 C 698.761 2.79289 -3.19684 0
M  V30 7303 C 696.668 2.23235 -5.4765 0
M  V30 7304 H 695.598 0.42391 -0.623552 0
M  V30 7305 H 698.249 0.388016 -1.79351 0
M  V30 7306 H 696.631 2.82429 -2.77578 0
M  V30 7307 H 697.805 0.597633 -4.56908 0
M  V30 7308 H 696.12 0.696517 -4.10533 0
M  V30 7309 H 698.717 3.47749 -4.06171 0
M  V30 7310 H 699.06 3.43649 -2.3497 0
M  V30 7311 H 699.593 2.08962 -3.38496 0
M  V30 7312 H 696.332 1.63482 -6.34786 0
M  V30 7313 H 695.852 2.93364 -5.23161 0
M  V30 7314 H 697.531 2.83205 -5.81725 0
M  V30 7315 N 697.663 1.43903 0.642637 0
M  V30 7316 C 698.94 1.36556 1.40043 0
M  V30 7317 C 699.32 0.0185588 2.11092 0
M  V30 7318 O 698.668 -0.998438 2.05532 0
M  V30 7319 C 698.878 2.55596 2.37638 0
M  V30 7320 C 700.226 2.99153 3.01318 0
M  V30 7321 O 701.25 2.55719 2.47965 0
M  V30 7322 O 700.109 3.74427 3.98078 0
M  V30 7323 H 697.203 0.540189 0.626198 0
M  V30 7324 H 699.749 1.55971 0.668657 0
M  V30 7325 H 698.521 3.45256 1.84158 0
M  V30 7326 H 698.144 2.38334 3.18249 0
M  V30 7327 N 699.141 -0.881989 1.30609 0
M  V30 7328 C 700.073 -1.99375 1.13058 0
M  V30 7329 C 701.086 -1.62636 0.0729879 0
M  V30 7330 O 702.275 -1.75621 0.319301 0
M  V30 7331 C 699.375 -3.31536 0.702651 0
M  V30 7332 C 698.548 -3.96693 1.84265 0
M  V30 7333 C 697.607 -5.07158 1.40277 0
M  V30 7334 O 696.633 -5.28628 2.11048 0
M  V30 7335 N 697.835 -5.79808 0.283449 0
M  V30 7336 H 700.6 -2.14981 2.08814 0
M  V30 7337 H 698.161 -1.05526 1.22784 0
M  V30 7338 H 700.153 -4.02804 0.391331 0
M  V30 7339 H 698.723 -3.12175 -0.162954 0
M  V30 7340 H 697.943 -3.1856 2.32192 0
M  V30 7341 H 699.231 -4.36964 2.60653 0
M  V30 7342 H 698.629 -5.64871 -0.306189 0
M  V30 7343 H 697.186 -6.51792 0.0315985 0
M  V30 7344 N 700.619 -1.13374 -1.09472 0
M  V30 7345 C 701.867 -0.893422 -1.8128 0
M  V30 7346 C 702.188 0.582029 -1.86111 0
M  V30 7347 O 701.458 1.42305 -1.34633 0
M  V30 7348 H 700.038 -0.327543 -0.67136 0
M  V30 7349 H 702.7 -1.43018 -1.32408 0
M  V30 7350 H 701.796 -1.28374 -2.84476 0
M  V30 7351 N 702.098 1.27442 -0.927168 0
M  V30 7352 C 703.028 2.29256 -0.443188 0
M  V30 7353 C 704.009 1.62701 0.49624 0
M  V30 7354 O 705.194 1.90013 0.401105 0
M  V30 7355 C 702.324 3.45955 0.305366 0
M  V30 7356 C 701.278 4.24501 -0.546178 0
M  V30 7357 C 700.604 5.33671 0.331512 0
M  V30 7358 C 701.904 4.89921 -1.81037 0
M  V30 7359 H 703.598 2.69988 -1.29409 0
M  V30 7360 H 701.144 1.29792 -0.623705 0
M  V30 7361 H 703.097 4.1628 0.654885 0
M  V30 7362 H 701.821 3.04138 1.19029 0
M  V30 7363 H 700.48 3.55921 -0.878398 0
M  V30 7364 H 700.128 4.88096 1.21537 0
M  V30 7365 H 699.828 5.87131 -0.234746 0
M  V30 7366 H 701.352 6.0684 0.676614 0
M  V30 7367 H 702.766 5.52536 -1.52895 0
M  V30 7368 H 701.163 5.53436 -2.32009 0
M  V30 7369 H 702.233 4.13652 -2.53021 0
M  V30 7370 N 703.576 0.692616 1.41565 0
M  V30 7371 C 704.509 -0.025063 2.28186 0
M  V30 7372 C 705.487 -0.790912 1.42068 0
M  V30 7373 O 706.671 -0.782344 1.71498 0
M  V30 7374 C 703.798 -1.04285 3.22246 0
M  V30 7375 C 702.844 -0.370515 4.24888 0
M  V30 7376 S 703.677 0.884942 5.28137 0
M  V30 7377 C 704.833 -0.131324 6.25762 0
M  V30 7378 H 705.066 0.709626 2.88707 0
M  V30 7379 H 702.599 0.482783 1.46658 0
M  V30 7380 H 704.557 -1.62493 3.7697 0
M  V30 7381 H 703.218 -1.7501 2.60827 0
M  V30 7382 H 702.411 -1.13911 4.90959 0
M  V30 7383 H 702.013 0.138411 3.73744 0
M  V30 7384 H 704.305 -0.985527 6.70294 0
M  V30 7385 H 705.248 0.495384 7.06365 0
M  V30 7386 H 705.656 -0.484777 5.62415 0
M  V30 7387 N 705.054 -1.51416 0.437162 0
M  V30 7388 C 706.302 -2.01687 -0.129108 0
M  V30 7389 C 706.623 -1.32329 -1.43227 0
M  V30 7390 O 705.893 -0.457796 -1.90476 0
M  V30 7391 H 704.473 -0.745277 -0.0507023 0
M  V30 7392 H 707.135 -1.86075 0.579828 0
M  V30 7393 H 706.231 -3.10605 -0.305141 0
M  V30 7394 N 706.532 -0.168513 -1.56696 0
M  V30 7395 C 707.757 0.486688 -2.01609 0
M  V30 7396 C 708.182 1.56203 -1.04796 0
M  V30 7397 O 707.54 1.8128 -0.0270596 0
M  V30 7398 C 707.588 1.04451 -3.45141 0
M  V30 7399 O 706.692 2.15862 -3.51393 0
M  V30 7400 H 706.033 0.116831 -0.653641 0
M  V30 7401 H 708.563 -0.271579 -2.0279 0
M  V30 7402 H 708.573 1.36782 -3.84389 0
M  V30 7403 H 707.248 0.257155 -4.15104 0
M  V30 7404 H 705.825 1.84597 -3.24004 0
M  V30 7405 N 708.01 1.57248 0.105221 0
M  V30 7406 C 708.92 2.04653 1.14693 0
M  V30 7407 C 709.936 0.969488 1.44489 0
M  V30 7408 O 711.112 1.28196 1.55331 0
M  V30 7409 C 708.177 2.45297 2.45011 0
M  V30 7410 C 707.238 3.67148 2.22489 0
M  V30 7411 C 706.471 4.05844 3.46592 0
M  V30 7412 O 706.694 3.44736 4.54437 0
M  V30 7413 O 705.628 4.98862 3.36779 0
M  V30 7414 H 709.454 2.93663 0.774336 0
M  V30 7415 H 707.039 1.45998 0.31701 0
M  V30 7416 H 708.921 2.72112 3.21766 0
M  V30 7417 H 707.596 1.59429 2.81717 0
M  V30 7418 H 706.503 3.45463 1.43547 0
M  V30 7419 H 707.836 4.53764 1.9068 0
M  V30 7420 N 709.488 -0.375779 1.53054 0
M  V30 7421 C 710.716 -1.14036 1.72637 0
M  V30 7422 C 711.131 -1.83342 0.450687 0
M  V30 7423 O 710.488 -1.7318 -0.575749 0
M  V30 7424 C 710.539 -2.17841 2.88492 0
M  V30 7425 O 710.26 -1.51358 4.11123 0
M  V30 7426 C 711.761 -3.06924 3.19863 0
M  V30 7427 H 708.981 -0.341386 0.577665 0
M  V30 7428 H 711.525 -0.437809 1.99759 0
M  V30 7429 H 709.68 -2.8371 2.63794 0
M  V30 7430 H 710.094 -2.20439 4.75928 0
M  V30 7431 H 711.568 -3.75763 4.04359 0
M  V30 7432 H 712.045 -3.71169 2.34798 0
M  V30 7433 H 712.651 -2.46684 3.46449 0
M  V30 7434 N 710.966 -1.44241 -0.634997 0
M  V30 7435 C 712.215 -1.46102 -1.39058 0
M  V30 7436 C 712.528 -0.0959909 -1.95364 0
M  V30 7437 O 713.734 0.00788751 -2.71499 0
M  V30 7438 C 712.19 -2.57195 -2.51751 0
M  V30 7439 C 711.798 -3.99888 -2.01974 0
M  V30 7440 C 713.542 -2.68272 -3.28984 0
M  V30 7441 C 711.449 -5.02412 -3.11987 0
M  V30 7442 H 710.379 -0.543556 -0.522554 0
M  V30 7443 H 713.03 -1.70294 -0.683538 0
M  V30 7444 H 711.412 -2.26237 -3.25012 0
M  V30 7445 H 712.586 -4.40396 -1.35604 0
M  V30 7446 H 710.901 -3.93019 -1.37568 0
M  V30 7447 H 713.498 -3.42042 -4.10988 0
M  V30 7448 H 713.841 -1.73957 -3.78212 0
M  V30 7449 H 714.374 -2.98622 -2.62812 0
M  V30 7450 H 711.113 -5.98342 -2.67707 0
M  V30 7451 H 710.633 -4.66501 -3.77011 0
M  V30 7452 H 712.312 -5.25939 -3.76825 0
M  V30 7453 N 712.444 0.87505 -1.31075 0
M  V30 7454 C 713.374 1.99775 -1.20881 0
M  V30 7455 C 714.355 1.69822 -0.0971612 0
M  V30 7456 O 715.54 1.92158 -0.280895 0
M  V30 7457 C 712.67 3.35163 -0.910118 0
M  V30 7458 C 711.624 3.79406 -1.98078 0
M  V30 7459 C 710.95 5.12197 -1.53488 0
M  V30 7460 C 712.25 3.97061 -3.39323 0
M  V30 7461 H 713.944 2.08562 -2.14808 0
M  V30 7462 H 711.49 1.00207 -1.03415 0
M  V30 7463 H 713.443 4.13237 -0.825423 0
M  V30 7464 H 712.167 3.26536 0.064822 0
M  V30 7465 H 710.826 3.03568 -2.05528 0
M  V30 7466 H 710.474 5.00007 -0.547941 0
M  V30 7467 H 710.174 5.4277 -2.2511 0
M  V30 7468 H 711.698 5.92785 -1.46417 0
M  V30 7469 H 713.112 4.65545 -3.34576 0
M  V30 7470 H 711.509 4.39025 -4.09118 0
M  V30 7471 H 712.579 3.00601 -3.80483 0
M  V30 7472 N 713.922 1.13953 1.08869 0
M  V30 7473 C 715.147 0.928559 1.85452 0
M  V30 7474 C 715.572 -0.517642 1.80837 0
M  V30 7475 O 714.93 -1.36779 1.19001 0
M  V30 7476 C 714.978 1.42814 3.31114 0
M  V30 7477 O 714.082 0.617129 4.07756 0
M  V30 7478 H 713.423 0.33235 0.574839 0
M  V30 7479 H 715.953 1.5156 1.37443 0
M  V30 7480 H 715.963 1.43425 3.8196 0
M  V30 7481 H 714.638 2.48109 3.33788 0
M  V30 7482 H 713.215 0.679365 3.66659 0
M  V30 7483 N 715.4 -1.26948 0.933913 0
M  V30 7484 C 716.348 -2.2862 0.428463 0
M  V30 7485 C 717.342 -1.62144 -0.490464 0
M  V30 7486 O 718.548 -1.76167 -0.36948 0
M  V30 7487 H 714.923 -0.742363 0.120003 0
M  V30 7488 H 716.894 -2.68659 1.29865 0
M  V30 7489 C 715.643 -3.46423 -0.29774 0
M  V30 7490 H 714.966 -3.97792 0.400183 0
M  V30 7491 H 716.406 -4.19505 -0.615736 0
M  V30 7492 C 714.865 -3.01017 -1.51295 0
M  V30 7493 O 715.395 -3.05226 -2.61151 0
M  V30 7494 N 713.601 -2.56442 -1.36696 0
M  V30 7495 H 713.148 -2.53217 -0.473178 0
M  V30 7496 H 713.106 -2.26424 -2.18127 0
M  V30 7497 N 716.879 -0.700114 -1.41195 0
M  V30 7498 C 718.109 -0.241828 -2.0518 0
M  V30 7499 C 718.517 1.1157 -1.52803 0
M  V30 7500 O 717.86 1.70926 -0.673042 0
M  V30 7501 C 717.922 -0.12695 -3.59276 0
M  V30 7502 C 717.586 -1.41725 -4.34469 0
M  V30 7503 C 718.583 -2.35604 -4.63451 0
M  V30 7504 C 716.268 -1.67189 -4.73659 0
M  V30 7505 C 718.262 -3.53204 -5.3059 0
M  V30 7506 C 715.949 -2.85073 -5.40534 0
M  V30 7507 C 716.947 -3.77904 -5.68927 0
M  V30 7508 O 716.635 -4.93723 -6.34424 0
M  V30 7509 H 716.367 -0.109247 -0.667114 0
M  V30 7510 H 718.921 -0.954538 -1.81873 0
M  V30 7511 H 717.151 0.641571 -3.81341 0
M  V30 7512 H 718.84 0.294748 -4.04828 0
M  V30 7513 H 719.606 -2.1719 -4.33651 0
M  V30 7514 H 715.485 -0.957935 -4.50937 0
M  V30 7515 H 719.029 -4.25679 -5.52669 0
M  V30 7516 H 714.926 -3.03402 -5.69752 0
M  V30 7517 H 715.694 -4.93597 -6.5292 0
M  V30 7518 N 718.357 1.51182 -0.445186 0
M  V30 7519 C 719.768 1.86693 0.0160999 0
M  V30 7520 C 720.119 1.36183 1.4124 0
M  V30 7521 O 719.244 0.715895 2.04215 0
M  V30 7522 C 719.839 3.38781 0.0359918 0
M  V30 7523 C 718.398 3.73799 0.441715 0
M  V30 7524 C 717.545 2.74947 -0.360511 0
M  V30 7525 H 720.496 1.44294 -0.660674 0
M  V30 7526 H 720.517 3.71026 0.843813 0
M  V30 7527 H 720.029 3.75513 -0.980378 0
M  V30 7528 H 718.13 3.42659 1.4634 0
M  V30 7529 H 718.243 4.78829 0.16106 0
M  V30 7530 H 716.607 2.54047 0.182269 0
M  V30 7531 H 717.39 3.14521 -1.3759 0
M  V30 7532 N 719.835 0.176821 1.56605 0
M  V30 7533 C 721.063 -0.472828 2.01425 0
M  V30 7534 C 721.478 -1.56436 1.05703 0
M  V30 7535 O 720.835 -1.82405 0.058808 0
M  V30 7536 C 720.886 -1.04607 3.46034 0
M  V30 7537 O 720.607 0.00189608 4.381 0
M  V30 7538 C 722.108 -1.7734 4.06282 0
M  V30 7539 H 719.328 -0.120503 0.660091 0
M  V30 7540 H 721.872 0.280166 2.02572 0
M  V30 7541 H 720.027 -1.74953 3.45645 0
M  V30 7542 H 720.441 -0.422118 5.22799 0
M  V30 7543 H 721.915 -2.12703 5.09374 0
M  V30 7544 H 722.392 -2.67043 3.4869 0
M  V30 7545 H 722.998 -1.11623 4.10391 0
M  V30 7546 N 721.313 -1.57302 -0.09688 0
M  V30 7547 C 722.261 -2.02942 -1.13654 0
M  V30 7548 C 723.255 -0.930173 -1.41577 0
M  V30 7549 O 724.461 -1.11535 -1.41279 0
M  V30 7550 H 720.836 -0.646726 -0.383731 0
M  V30 7551 H 722.807 -2.89452 -0.725267 0
M  V30 7552 C 721.556 -2.46815 -2.44903 0
M  V30 7553 H 720.879 -3.30979 -2.24261 0
M  V30 7554 H 722.319 -2.82527 -3.16156 0
M  V30 7555 C 720.778 -1.34071 -3.09074 0
M  V30 7556 O 721.308 -0.668856 -3.96092 0
M  V30 7557 N 719.514 -1.09214 -2.69296 0
M  V30 7558 H 719.061 -1.64029 -1.98626 0
M  V30 7559 H 719.019 -0.339785 -3.12559 0
M  V30 7560 N 722.791 0.367657 -1.53252 0
M  V30 7561 C 724.038 1.11052 -1.69333 0
M  V30 7562 C 724.366 1.89363 -0.444064 0
M  V30 7563 O 723.621 1.87094 0.573953 0
M  V30 7564 C 723.92 2.09825 -2.89324 0
M  V30 7565 C 723.586 1.4801 -4.25915 0
M  V30 7566 C 722.248 1.30879 -4.6306 0
M  V30 7567 C 724.6 1.03268 -5.10867 0
M  V30 7568 C 721.928 0.675868 -5.82794 0
M  V30 7569 C 724.28 0.41377 -6.31245 0
M  V30 7570 C 722.944 0.229939 -6.67104 0
M  V30 7571 H 722.214 0.406367 -0.619634 0
M  V30 7572 H 724.861 0.392558 -1.87433 0
M  V30 7573 H 723.166 2.87917 -2.65728 0
M  V30 7574 H 724.863 2.67252 -2.98961 0
M  V30 7575 H 721.453 1.62336 -3.96667 0
M  V30 7576 H 725.637 1.15297 -4.82722 0
M  V30 7577 H 720.893 0.521833 -6.09169 0
M  V30 7578 H 725.067 0.0588768 -6.96375 0
M  V30 7579 H 722.694 -0.262562 -7.59746 0
M  V30 7580 N 724.269 1.44576 0.627338 0
M  V30 7581 C 725.232 1.51372 1.72102 0
M  V30 7582 C 726.232 0.395329 1.55865 0
M  V30 7583 O 727.422 0.658094 1.61291 0
M  V30 7584 C 724.554 1.39129 3.11217 0
M  V30 7585 H 725.747 2.48798 1.6745 0
M  V30 7586 H 723.3 1.31724 0.841336 0
M  V30 7587 H 724.035 0.428114 3.21462 0
M  V30 7588 H 723.82 2.20229 3.24409 0
M  V30 7589 H 725.31 1.46874 3.90919 0
M  V30 7590 N 725.747 -0.868086 1.31537 0
M  V30 7591 C 726.695 -1.99688 1.1928 0
M  V30 7592 C 727.689 -1.69101 0.100656 0
M  V30 7593 O 728.895 -1.78073 0.262677 0
M  V30 7594 H 725.27 -0.655032 0.369374 0
M  V30 7595 H 727.241 -2.07157 2.14776 0
M  V30 7596 C 725.99 -3.35338 0.918892 0
M  V30 7597 H 725.313 -3.59396 1.75142 0
M  V30 7598 H 726.753 -4.14909 0.873311 0
M  V30 7599 C 725.212 -3.34769 -0.378366 0
M  V30 7600 O 725.742 -3.76716 -1.39456 0
M  V30 7601 N 723.948 -2.87895 -0.39557 0
M  V30 7602 H 723.495 -2.53954 0.431889 0
M  V30 7603 H 723.453 -2.87897 -1.26344 0
M  V30 7604 N 727.225 -1.14528 -1.08264 0
M  V30 7605 C 728.473 -0.912599 -1.80322 0
M  V30 7606 C 728.794 0.562256 -1.86718 0
M  V30 7607 O 728.064 1.40869 -1.36135 0
M  V30 7608 H 726.644 -0.334645 -0.667849 0
M  V30 7609 H 729.306 -1.44415 -1.30883 0
M  V30 7610 H 728.402 -1.31384 -2.83098 0
M  V30 7611 N 728.703 1.26451 -0.940633 0
M  V30 7612 C 729.651 2.28389 -0.440581 0
M  V30 7613 C 730.645 1.62402 0.481859 0
M  V30 7614 O 731.851 1.76361 0.360132 0
M  V30 7615 H 728.226 0.741716 -0.123938 0
M  V30 7616 H 730.197 2.67967 -1.31288 0
M  V30 7617 C 728.946 3.46576 0.279364 0
M  V30 7618 H 728.269 3.97574 -0.421274 0
M  V30 7619 H 729.709 4.19826 0.59348 0
M  V30 7620 C 728.168 3.01815 1.49697 0
M  V30 7621 O 728.698 3.06607 2.59529 0
M  V30 7622 N 726.904 2.57163 1.35334 0
M  V30 7623 H 726.451 2.53464 0.459743 0
M  V30 7624 H 726.409 2.27578 2.16923 0
M  V30 7625 N 730.181 0.707592 1.40822 0
M  V30 7626 C 731.592 0.317011 1.83989 0
M  V30 7627 C 731.943 -1.14697 1.59182 0
M  V30 7628 O 731.068 -1.8818 1.06852 0
M  V30 7629 C 731.663 0.568593 3.33995 0
M  V30 7630 C 730.222 0.231804 3.75686 0
M  V30 7631 C 729.369 0.844933 2.64114 0
M  V30 7632 H 732.32 0.907349 1.30203 0
M  V30 7633 H 732.341 -0.168798 3.80125 0
M  V30 7634 H 731.853 1.63417 3.52018 0
M  V30 7635 H 729.954 -0.82903 3.6326 0
M  V30 7636 H 730.067 0.695219 4.74029 0
M  V30 7637 H 728.431 0.273588 2.53226 0
M  V30 7638 H 729.214 1.91462 2.84951 0
M  V30 7639 N 731.66 -1.50943 0.453197 0
M  V30 7640 C 732.909 -2.01402 -0.10951 0
M  V30 7641 C 733.222 -1.3411 -1.42386 0
M  V30 7642 O 734.428 -1.75626 -2.07045 0
M  V30 7643 C 732.884 -3.5906 -0.245693 0
M  V30 7644 C 732.492 -4.353 1.05916 0
M  V30 7645 C 734.236 -4.17617 -0.761318 0
M  V30 7646 C 732.143 -5.84699 0.887752 0
M  V30 7647 H 731.073 -0.752674 -0.0447013 0
M  V30 7648 H 733.724 -1.73913 0.585375 0
M  V30 7649 H 732.106 -3.83062 -1.00395 0
M  V30 7650 H 733.28 -4.23034 1.82698 0
M  V30 7651 H 731.595 -3.88269 1.50452 0
M  V30 7652 H 734.192 -5.26963 -0.906306 0
M  V30 7653 H 734.535 -3.77824 -1.74799 0
M  V30 7654 H 735.068 -3.97753 -0.0609416 0
M  V30 7655 H 731.807 -6.28933 1.84726 0
M  V30 7656 H 731.327 -5.99587 0.160006 0
M  V30 7657 H 733.006 -6.44682 0.547223 0
M  V30 7658 N 733.138 -0.185124 -1.56509 0
M  V30 7659 C 734.071 0.77877 -2.145 0
M  V30 7660 C 735.049 1.21649 -1.07891 0
M  V30 7661 O 736.233 1.30579 -1.35946 0
M  V30 7662 C 733.36 2.05048 -2.69579 0
M  V30 7663 C 732.406 1.75569 -3.88687 0
M  V30 7664 S 733.239 0.912642 -5.27666 0
M  V30 7665 C 734.395 2.19471 -5.8616 0
M  V30 7666 H 734.628 0.285751 -2.95924 0
M  V30 7667 H 732.161 0.0297417 -1.54371 0
M  V30 7668 H 734.119 2.78085 -3.01958 0
M  V30 7669 H 732.78 2.51462 -1.88216 0
M  V30 7670 H 731.973 2.69962 -4.25601 0
M  V30 7671 H 731.575 1.10619 -3.57267 0
M  V30 7672 H 733.867 3.14815 -5.99915 0
M  V30 7673 H 734.81 1.87005 -6.8296 0
M  V30 7674 H 735.218 2.31862 -5.14685 0
M  V30 7675 N 734.616 1.57351 0.0885366 0
M  V30 7676 C 735.846 1.90355 0.80303 0
M  V30 7677 C 736.254 0.777678 1.72478 0
M  V30 7678 O 735.597 -0.258908 1.81866 0
M  V30 7679 C 735.659 3.18674 1.66395 0
M  V30 7680 C 735.323 4.4778 0.913327 0
M  V30 7681 C 736.32 5.19345 0.240148 0
M  V30 7682 C 734.005 4.94434 0.885462 0
M  V30 7683 C 735.999 6.35803 -0.450854 0
M  V30 7684 C 733.686 6.10802 0.190679 0
M  V30 7685 C 734.684 6.81337 -0.476295 0
M  V30 7686 O 734.372 7.95488 -1.15992 0
M  V30 7687 H 734.104 0.634035 0.234469 0
M  V30 7688 H 736.658 2.05287 0.0681959 0
M  V30 7689 H 734.888 2.99906 2.44117 0
M  V30 7690 H 736.577 3.37458 2.2556 0
M  V30 7691 H 737.343 4.84339 0.253092 0
M  V30 7692 H 733.222 4.39417 1.39406 0
M  V30 7693 H 736.766 6.90795 -0.972019 0
M  V30 7694 H 732.663 6.45261 0.175603 0
M  V30 7695 H 733.431 8.11509 -1.06749 0
M  V30 7696 N 736.094 -0.359525 1.53444 0
M  V30 7697 C 737.057 -1.42357 1.7963 0
M  V30 7698 C 738.057 -1.46319 0.666884 0
M  V30 7699 O 739.247 -1.46974 0.935113 0
M  V30 7700 C 736.379 -2.81425 1.92387 0
M  V30 7701 H 737.572 -1.20409 2.74666 0
M  V30 7702 H 735.125 -0.593007 1.44614 0
M  V30 7703 H 735.86 -3.08679 0.994384 0
M  V30 7704 H 735.645 -2.79947 2.74539 0
M  V30 7705 H 737.135 -3.5847 2.14218 0
M  V30 7706 N 737.572 -1.44907 -0.619662 0
M  V30 7707 C 738.52 -1.52971 -1.75222 0
M  V30 7708 C 739.514 -0.400531 -1.64597 0
M  V30 7709 O 740.72 -0.575952 -1.70537 0
M  V30 7710 H 737.095 -0.480241 -0.578682 0
M  V30 7711 H 739.066 -2.48269 -1.65545 0
M  V30 7712 C 737.815 -1.50204 -3.13583 0
M  V30 7713 H 737.138 -2.36412 -3.22412 0
M  V30 7714 H 738.578 -1.59905 -3.92691 0
M  V30 7715 C 737.037 -0.22455 -3.36151 0
M  V30 7716 O 737.567 0.700574 -3.95544 0
M  V30 7717 N 735.773 -0.124052 -2.90335 0
M  V30 7718 H 735.32 -0.87774 -2.42185 0
M  V30 7719 H 735.278 0.729914 -3.0581 0
M  V30 7720 N 739.05 0.861098 -1.31996 0
M  V30 7721 C 740.275 1.65264 -1.2531 0
M  V30 7722 C 740.7 1.87265 0.177007 0
M  V30 7723 O 740.058 1.4208 1.12619 0
M  V30 7724 C 740.106 2.99284 -2.0115 0
M  V30 7725 O 739.21 3.89508 -1.3549 0
M  V30 7726 H 738.551 0.50409 -0.432192 0
M  V30 7727 H 741.081 1.07297 -1.74208 0
M  V30 7728 H 741.091 3.49154 -2.11081 0
M  V30 7729 H 739.766 2.82591 -3.05148 0
M  V30 7730 H 738.343 3.47966 -1.34066 0
M  V30 7731 N 740.528 1.15101 1.07655 0
M  V30 7732 C 741.475 0.844958 2.14777 0
M  V30 7733 C 742.445 -0.200798 1.64882 0
M  V30 7734 O 743.63 -0.0690278 1.90675 0
M  V30 7735 C 740.77 0.337018 3.4345 0
M  V30 7736 C 739.883 1.44398 4.07153 0
M  V30 7737 C 739.018 0.892487 5.23649 0
M  V30 7738 C 738.057 1.9766 5.79307 0
M  V30 7739 N 737.194 1.44171 6.87138 0
M  V30 7740 H 742.034 1.76242 2.40297 0
M  V30 7741 H 739.571 0.879435 1.17917 0
M  V30 7742 H 741.529 0.024256 4.17193 0
M  V30 7743 H 740.159 -0.543531 3.18191 0
M  V30 7744 H 739.211 1.87299 3.31094 0
M  V30 7745 H 740.523 2.26262 4.4453 0
M  V30 7746 H 739.677 0.532083 6.04362 0
M  V30 7747 H 738.416 0.0429854 4.87681 0
M  V30 7748 H 737.421 2.34586 4.97242 0
M  V30 7749 H 738.646 2.82982 6.17331 0
M  V30 7750 H 736.592 0.614518 6.53115 0
M  V30 7751 H 736.509 2.19665 7.23383 0
M  V30 7752 H 737.777 1.10945 7.71564 0
M  V30 7753 N 742.006 -1.2595 0.947325 0
M  V30 7754 C 743.254 -1.93081 0.596996 0
M  V30 7755 C 743.575 -1.74632 -0.867672 0
M  V30 7756 O 742.845 -1.1056 -1.6172 0
M  V30 7757 H 741.425 -0.714542 0.217805 0
M  V30 7758 H 744.087 -1.53265 1.20398 0
M  V30 7759 H 743.183 -3.01134 0.82004 0
M  V30 7760 N 743.484 -0.715051 -1.40445 0
M  V30 7761 C 744.712 -0.263959 -2.05209 0
M  V30 7762 C 745.127 1.09403 -1.53871 0
M  V30 7763 O 744.484 1.68746 -0.695064 0
M  V30 7764 C 744.535 -0.234545 -3.60738 0
M  V30 7765 O 744.256 -1.53891 -4.10182 0
M  V30 7766 C 745.757 0.235164 -4.42676 0
M  V30 7767 H 742.977 -0.11876 -0.660407 0
M  V30 7768 H 745.521 -0.973107 -1.79864 0
M  V30 7769 H 743.676 0.425563 -3.85055 0
M  V30 7770 H 744.09 -1.43903 -5.04373 0
M  V30 7771 H 745.564 0.204598 -5.51621 0
M  V30 7772 H 746.041 1.27724 -4.20218 0
M  V30 7773 H 746.647 -0.394649 -4.23465 0
M  V30 7774 N 744.962 1.50701 -0.461195 0
M  V30 7775 C 746.21 2.01867 0.0970051 0
M  V30 7776 C 746.531 1.34591 1.41104 0
M  V30 7777 O 745.801 0.488041 1.89723 0
M  V30 7778 H 744.381 0.74599 0.0388392 0
M  V30 7779 H 747.043 1.85129 -0.609357 0
M  V30 7780 H 746.139 3.11051 0.255688 0
M  V30 7781 N 746.441 0.193421 1.56409 0
M  V30 7782 C 747.374 -0.767384 2.1491 0
M  V30 7783 C 748.352 -1.21075 1.08534 0
M  V30 7784 O 749.536 -1.29856 1.36637 0
M  V30 7785 C 746.663 -2.03615 2.70663 0
M  V30 7786 C 745.709 -1.73505 3.89613 0
M  V30 7787 S 746.542 -0.884645 5.28142 0
M  V30 7788 C 747.698 -2.1636 5.87315 0
M  V30 7789 H 747.931 -0.270053 2.96071 0
M  V30 7790 H 745.464 -0.0215546 1.54385 0
M  V30 7791 H 747.422 -2.7648 3.03429 0
M  V30 7792 H 746.083 -2.50461 1.89547 0
M  V30 7793 H 745.276 -2.67701 4.27027 0
M  V30 7794 H 744.878 -1.08723 3.57848 0
M  V30 7795 H 747.17 -3.11629 6.01576 0
M  V30 7796 H 748.113 -1.8338 6.83943 0
M  V30 7797 H 748.521 -2.29129 5.15907 0
M  V30 7798 N 747.919 -1.57396 -0.0801906 0
M  V30 7799 C 748.852 -1.98386 -1.12774 0
M  V30 7800 C 749.83 -0.859423 -1.38031 0
M  V30 7801 O 751.014 -1.12101 -1.51544 0
M  V30 7802 C 748.141 -2.3134 -2.47386 0
M  V30 7803 C 747.187 -3.53706 -2.38316 0
M  V30 7804 S 748.02 -5.04862 -1.78534 0
M  V30 7805 C 749.176 -5.41008 -3.1474 0
M  V30 7806 H 749.409 -2.86929 -0.778382 0
M  V30 7807 H 746.942 -1.51682 -0.28842 0
M  V30 7808 H 748.9 -2.51 -3.24822 0
M  V30 7809 H 747.561 -1.4334 -2.79486 0
M  V30 7810 H 746.754 -3.74253 -3.37566 0
M  V30 7811 H 746.356 -3.33632 -1.69014 0
M  V30 7812 H 748.648 -5.38565 -4.1104 0
M  V30 7813 H 749.591 -6.41885 -2.98981 0
M  V30 7814 H 749.999 -4.68467 -3.14958 0
M  V30 7815 N 749.397 0.351382 -1.53633 0
M  V30 7816 C 750.625 1.11275 -1.74429 0
M  V30 7817 C 751.04 1.82602 -0.479798 0
M  V30 7818 O 750.397 1.74074 0.548125 0
M  V30 7819 C 750.448 2.13223 -2.91921 0
M  V30 7820 O 750.169 1.44798 -4.13479 0
M  V30 7821 C 751.67 3.01797 -3.24706 0
M  V30 7822 H 748.89 0.332153 -0.583023 0
M  V30 7823 H 751.434 0.405974 -2.0043 0
M  V30 7824 H 749.589 2.79477 -2.68274 0
M  V30 7825 H 750.003 2.12839 -4.79374 0
M  V30 7826 H 751.477 3.69282 -4.10286 0
M  V30 7827 H 751.954 3.67387 -2.40673 0
M  V30 7828 H 752.56 2.41141 -3.5033 0
M  V30 7829 N 750.875 1.45233 0.611969 0
M  V30 7830 C 751.805 1.5641 1.73373 0
M  V30 7831 C 752.786 0.415896 1.64937 0
M  V30 7832 O 753.971 0.638478 1.83404 0
M  V30 7833 C 751.101 1.52627 3.11965 0
M  V30 7834 C 750.055 2.66119 3.35208 0
M  V30 7835 C 749.381 2.4739 4.74028 0
M  V30 7836 C 750.681 4.08157 3.25891 0
M  V30 7837 H 752.375 2.50307 1.64277 0
M  V30 7838 H 749.921 1.20467 0.788904 0
M  V30 7839 H 751.874 1.59043 3.90235 0
M  V30 7840 H 750.598 0.552564 3.21892 0
M  V30 7841 H 749.257 2.59123 2.59327 0
M  V30 7842 H 748.905 1.48168 4.80682 0
M  V30 7843 H 748.605 3.23494 4.90536 0
M  V30 7844 H 750.129 2.55653 5.54503 0
M  V30 7845 H 751.543 4.1642 3.9404 0
M  V30 7846 H 749.94 4.84617 3.5393 0
M  V30 7847 H 751.01 4.30374 2.23397 0
M  V30 7848 N 752.353 -0.854086 1.3245 0
M  V30 7849 C 753.601 -1.60513 1.228 0
M  V30 7850 C 753.922 -1.93865 -0.210073 0
M  V30 7851 O 753.192 -1.59673 -1.13496 0
M  V30 7852 H 751.772 -0.595099 0.451516 0
M  V30 7853 H 754.434 -1.0216 1.6598 0
M  V30 7854 H 753.53 -2.54182 1.81102 0
M  V30 7855 N 753.831 -1.1567 -1.07043 0
M  V30 7856 C 754.741 -0.870435 -2.17855 0
M  V30 7857 C 755.757 0.154452 -1.73313 0
M  V30 7858 O 756.933 -0.0203759 -2.0139 0
M  V30 7859 C 753.998 -0.367219 -3.4475 0
M  V30 7860 C 753.059 -1.45639 -4.03841 0
M  V30 7861 C 752.292 -0.977092 -5.2468 0
M  V30 7862 O 752.515 0.176127 -5.70128 0
M  V30 7863 O 751.449 -1.76215 -5.75527 0
M  V30 7864 H 755.275 -1.79687 -2.44839 0
M  V30 7865 H 752.86 -0.936064 -1.1644 0
M  V30 7866 H 754.742 -0.0931947 -4.21297 0
M  V30 7867 H 753.417 0.53131 -3.1931 0
M  V30 7868 H 752.324 -1.78406 -3.28819 0
M  V30 7869 H 753.657 -2.32995 -4.3356 0
M  V30 7870 N 755.309 1.25446 -0.953992 0
M  V30 7871 C 756.272 2.24156 -0.478179 0
M  V30 7872 C 757.272 1.55278 0.417776 0
M  V30 7873 O 758.462 1.72866 0.215155 0
M  V30 7874 C 755.594 3.39495 0.309202 0
M  V30 7875 H 756.787 2.67764 -1.35064 0
M  V30 7876 H 754.34 1.37822 -0.737206 0
M  V30 7877 H 755.075 3.01307 1.19936 0
M  V30 7878 H 754.86 3.90679 -0.333562 0
M  V30 7879 H 756.35 4.12796 0.631594 0
M  V30 7880 N 756.787 0.722489 1.40064 0
M  V30 7881 C 757.717 0.0892452 2.33329 0
M  V30 7882 C 758.698 -0.737992 1.53257 0
M  V30 7883 O 759.883 -0.685516 1.81698 0
M  V30 7884 C 757.013 -0.828139 3.37282 0
M  V30 7885 C 755.967 -0.106005 4.27869 0
M  V30 7886 C 755.293 -1.13957 5.22415 0
M  V30 7887 C 756.593 1.04395 5.11761 0
M  V30 7888 H 758.287 0.868269 2.86534 0
M  V30 7889 H 755.833 0.418982 1.3777 0
M  V30 7890 H 757.786 -1.28058 4.01471 0
M  V30 7891 H 756.51 -1.63914 2.82489 0
M  V30 7892 H 755.169 0.326683 3.65142 0
M  V30 7893 H 754.817 -1.9438 4.63924 0
M  V30 7894 H 754.517 -0.661233 5.83868 0
M  V30 7895 H 756.041 -1.59197 5.89482 0
M  V30 7896 H 757.455 0.670541 5.69365 0
M  V30 7897 H 755.852 1.4511 5.82291 0
M  V30 7898 H 756.922 1.87144 4.47331 0
M  V30 7899 N 758.265 -1.50454 0.469181 0
M  V30 7900 C 759.213 -2.30101 -0.340033 0
M  V30 7901 C 760.207 -1.37306 -0.992135 0
M  V30 7902 O 761.413 -1.54506 -0.923458 0
M  V30 7903 H 757.788 -0.740941 -0.128495 0
M  V30 7904 H 759.759 -2.96315 0.352144 0
M  V30 7905 C 758.508 -3.17804 -1.41052 0
M  V30 7906 H 757.831 -3.89115 -0.918124 0
M  V30 7907 H 759.271 -3.76533 -1.94934 0
M  V30 7908 C 757.73 -2.35272 -2.4114 0
M  V30 7909 O 758.26 -2.03448 -3.4637 0
M  V30 7910 N 756.466 -1.97889 -2.1281 0
M  V30 7911 H 756.013 -2.2397 -1.27261 0
M  V30 7912 H 755.971 -1.42971 -2.80012 0
M  V30 7913 N 759.743 -0.201713 -1.56304 0
M  V30 7914 C 760.973 0.440084 -2.01858 0
M  V30 7915 C 761.381 1.55279 -1.08098 0
M  V30 7916 O 760.724 1.83529 -0.0792216 0
M  V30 7917 C 760.786 1.05091 -3.43797 0
M  V30 7918 C 760.45 0.0761208 -4.56937 0
M  V30 7919 C 761.447 -0.716951 -5.14933 0
M  V30 7920 C 759.132 -0.0368815 -5.02286 0
M  V30 7921 C 761.126 -1.60993 -6.16733 0
M  V30 7922 C 758.813 -0.933409 -6.03929 0
M  V30 7923 C 759.811 -1.71849 -6.61027 0
M  V30 7924 O 759.499 -2.59998 -7.60695 0
M  V30 7925 H 759.231 0.114139 -0.666294 0
M  V30 7926 H 761.785 -0.309672 -2.03052 0
M  V30 7927 H 760.015 1.84938 -3.3961 0
M  V30 7928 H 761.704 1.59804 -3.73118 0
M  V30 7929 H 762.47 -0.63999 -4.80759 0
M  V30 7930 H 758.349 0.564034 -4.57537 0
M  V30 7931 H 761.893 -2.22315 -6.61227 0
M  V30 7932 H 757.79 -1.01146 -6.37526 0
M  V30 7933 H 758.558 -2.53851 -7.7814 0
M  V30 7934 N 761.222 1.57436 0.0718424 0
M  V30 7935 C 762.447 1.91858 0.787745 0
M  V30 7936 C 762.872 0.798119 1.70328 0
M  V30 7937 O 762.23 -0.24905 1.79581 0
M  V30 7938 C 762.278 3.25232 1.55744 0
M  V30 7939 O 761.382 3.14462 2.6681 0
M  V30 7940 H 760.723 0.628258 0.214914 0
M  V30 7941 H 763.253 2.04561 0.0401012 0
M  V30 7942 H 763.263 3.59105 1.9367 0
M  V30 7943 H 761.938 4.0636 0.885691 0
M  V30 7944 H 760.515 2.92148 2.31741 0
M  V30 7945 N 762.7 -0.34323 1.53817 0
M  V30 7946 C 763.946 -1.08137 1.72273 0
M  V30 7947 C 764.301 -1.86311 0.480201 0
M  V30 7948 O 763.594 -1.84204 -0.527192 0
M  V30 7949 C 763.788 -2.05195 2.92626 0
M  V30 7950 C 763.617 -1.36561 4.28464 0
M  V30 7951 C 762.387 -1.11033 4.9295 0
M  V30 7952 C 764.585 -0.791663 5.0817 0
M  V30 7953 N 762.567 -0.389839 6.12661 0
M  V30 7954 C 763.938 -0.201742 6.19672 0
M  V30 7955 C 765.993 -0.692541 4.9306 0
M  V30 7956 C 764.696 0.477661 7.17712 0
M  V30 7957 C 766.722 -0.0268775 5.91394 0
M  V30 7958 C 766.084 0.552072 7.02233 0
M  V30 7959 H 762.183 -0.380078 0.683421 0
M  V30 7960 H 764.767 -0.364925 1.9125 0
M  V30 7961 H 762.938 -2.74131 2.75149 0
M  V30 7962 H 764.67 -2.7185 2.99799 0
M  V30 7963 H 761.425 -1.39752 4.52511 0
M  V30 7964 H 761.849 -0.0443076 6.76986 0
M  V30 7965 H 766.491 -1.12589 4.07534 0
M  V30 7966 H 764.209 0.922895 8.02813 0
M  V30 7967 H 767.795 0.0491921 5.81779 0
M  V30 7968 H 766.675 1.05899 7.77017 0
M  V30 7969 N 764.178 -1.45556 -0.604258 0
M  V30 7970 C 765.126 -1.5482 -1.7359 0
M  V30 7971 C 766.12 -0.417966 -1.64163 0
M  V30 7972 O 767.326 -0.594007 -1.69916 0
M  V30 7973 H 763.701 -0.486352 -0.573556 0
M  V30 7974 H 765.672 -2.5001 -1.62903 0
M  V30 7975 C 764.421 -1.53521 -3.11972 0
M  V30 7976 H 763.744 -2.39818 -3.19886 0
M  V30 7977 H 765.184 -1.64061 -3.90973 0
M  V30 7978 C 763.643 -0.260191 -3.35894 0
M  V30 7979 O 764.173 0.658582 -3.96265 0
M  V30 7980 N 762.379 -0.154839 -2.90187 0
M  V30 7981 H 761.926 -0.903378 -2.4124 0
M  V30 7982 H 761.884 0.697437 -3.06567 0
M  V30 7983 N 765.656 0.84705 -1.32902 0
M  V30 7984 C 766.905 1.59667 -1.23245 0
M  V30 7985 C 767.218 1.94551 0.202349 0
M  V30 7986 O 768.424 2.68218 0.420847 0
M  V30 7987 C 766.88 2.8795 -2.15901 0
M  V30 7988 C 766.488 2.60461 -3.64505 0
M  V30 7989 C 768.232 3.65968 -2.15098 0
M  V30 7990 C 766.139 3.84791 -4.49099 0
M  V30 7991 H 765.069 0.599167 -0.457728 0
M  V30 7992 H 767.72 0.934662 -1.57912 0
M  V30 7993 H 766.102 3.55648 -1.74157 0
M  V30 7994 H 767.276 2.01026 -4.14639 0
M  V30 7995 H 765.591 1.9576 -3.67515 0
M  V30 7996 H 768.188 4.58241 -2.75534 0
M  V30 7997 H 768.531 4.00275 -1.14392 0
M  V30 7998 H 769.064 3.05184 -2.55162 0
M  V30 7999 H 765.803 3.55621 -5.50649 0
M  V30 8000 H 765.323 4.43594 -4.03713 0
M  V30 8001 H 767.002 4.52454 -4.62487 0
M  V30 8002 N 767.134 1.16236 1.06428 0
M  V30 8003 C 768.545 0.950942 1.60667 0
M  V30 8004 C 768.896 -0.505491 1.89576 0
M  V30 8005 O 768.021 -1.37843 1.66818 0
M  V30 8006 C 768.616 1.71982 2.91904 0
M  V30 8007 C 767.175 1.55342 3.4285 0
M  V30 8008 C 766.322 1.72942 2.16763 0
M  V30 8009 H 769.273 1.31126 0.893959 0
M  V30 8010 H 769.294 1.19483 3.61253 0
M  V30 8011 H 768.806 2.77978 2.70831 0
M  V30 8012 H 766.907 0.5178 3.68985 0
M  V30 8013 H 767.02 2.33643 4.18267 0
M  V30 8014 H 765.384 1.15673 2.26918 0
M  V30 8015 H 766.167 2.80324 1.98175 0
M  V30 8016 N 768.612 -1.24939 0.960631 0
M  V30 8017 C 769.575 -2.239 0.49006 0
M  V30 8018 C 770.575 -1.55497 -0.409535 0
M  V30 8019 O 771.765 -1.72978 -0.205984 0
M  V30 8020 C 768.897 -3.39654 -0.291193 0
M  V30 8021 H 770.09 -2.67044 1.36482 0
M  V30 8022 H 767.643 -1.37429 0.744505 0
M  V30 8023 H 768.378 -3.01939 -1.18336 0
M  V30 8024 H 768.163 -3.90496 0.354276 0
M  V30 8025 H 769.653 -4.13125 -0.609693 0
M  V30 8026 N 770.09 -0.729906 -1.39679 0
M  V30 8027 C 771.32 -0.285295 -2.04621 0
M  V30 8028 C 771.728 1.08304 -1.55135 0
M  V30 8029 O 771.071 1.6946 -0.709146 0
M  V30 8030 C 771.133 -0.203129 -3.58926 0
M  V30 8031 C 770.797 -1.50909 -4.31365 0
M  V30 8032 C 771.794 -2.45381 -4.58349 0
M  V30 8033 C 769.479 -1.77198 -4.70007 0
M  V30 8034 C 771.473 -3.64379 -5.22979 0
M  V30 8035 C 769.16 -2.96474 -5.34365 0
M  V30 8036 C 770.158 -3.89886 -5.60783 0
M  V30 8037 O 769.846 -5.07069 -6.23808 0
M  V30 8038 H 769.578 -0.123373 -0.664647 0
M  V30 8039 H 772.132 -0.992901 -1.79807 0
M  V30 8040 H 770.362 0.560538 -3.82616 0
M  V30 8041 H 772.051 0.208811 -4.05363 0
M  V30 8042 H 772.817 -2.2634 -4.28947 0
M  V30 8043 H 768.696 -1.05337 -4.48804 0
M  V30 8044 H 772.24 -4.37307 -5.43515 0
M  V30 8045 H 768.137 -3.15419 -5.63188 0
M  V30 8046 H 768.905 -5.07335 -6.42303 0
M  V30 8047 N 771.568 1.50203 -0.477153 0
M  V30 8048 C 772.814 2.03286 0.0679442 0
M  V30 8049 C 773.169 1.35227 1.36863 0
M  V30 8050 O 772.462 0.471029 1.8572 0
M  V30 8051 C 772.656 3.56127 0.301325 0
M  V30 8052 C 772.485 4.38999 -0.975188 0
M  V30 8053 C 771.255 4.81889 -1.52022 0
M  V30 8054 C 773.453 4.79013 -1.8722 0
M  V30 8055 N 771.435 5.49105 -2.74513 0
M  V30 8056 C 772.806 5.45701 -2.94296 0
M  V30 8057 C 774.861 4.60967 -1.88185 0
M  V30 8058 C 773.564 5.96255 -4.02333 0
M  V30 8059 C 775.59 5.12466 -2.95183 0
M  V30 8060 C 774.952 5.79134 -4.00977 0
M  V30 8061 H 771.051 0.78185 -0.015318 0
M  V30 8062 H 773.635 1.83646 -0.64671 0
M  V30 8063 H 771.806 3.75702 0.985021 0
M  V30 8064 H 773.538 3.95859 0.841304 0
M  V30 8065 H 770.293 4.61387 -1.06858 0
M  V30 8066 H 770.717 5.87315 -3.36734 0
M  V30 8067 H 775.359 4.0885 -1.07708 0
M  V30 8068 H 773.077 6.47406 -4.83623 0
M  V30 8069 H 776.663 5.00329 -2.96921 0
M  V30 8070 H 775.543 6.18265 -4.82409 0
M  V30 8071 N 773.046 0.209999 1.56195 0
M  V30 8072 C 774.274 -0.429996 2.02382 0
M  V30 8073 C 774.689 -1.54159 1.08998 0
M  V30 8074 O 774.046 -1.82239 0.0974856 0
M  V30 8075 C 774.097 -0.972433 3.48175 0
M  V30 8076 O 773.818 0.0948231 4.37997 0
M  V30 8077 C 775.319 -1.68683 4.09952 0
M  V30 8078 H 772.539 -0.106475 0.662498 0
M  V30 8079 H 775.083 0.323072 2.01932 0
M  V30 8080 H 773.238 -1.67582 3.49278 0
M  V30 8081 H 773.652 -0.31113 5.23576 0
M  V30 8082 H 775.126 -2.01851 5.13771 0
M  V30 8083 H 775.603 -2.59587 3.54276 0
M  V30 8084 H 776.209 -1.02893 4.12666 0
M  V30 8085 N 774.524 -1.57472 -0.0634922 0
M  V30 8086 C 775.754 -1.91608 -0.772645 0
M  V30 8087 C 776.162 -0.805019 -1.71219 0
M  V30 8088 O 775.505 0.229941 -1.82255 0
M  V30 8089 C 775.567 -3.21281 -1.61304 0
M  V30 8090 C 775.231 -4.49177 -0.841973 0
M  V30 8091 C 776.228 -5.19661 -0.157494 0
M  V30 8092 C 773.913 -4.9578 -0.80669 0
M  V30 8093 C 775.907 -6.35006 0.551948 0
M  V30 8094 C 773.594 -6.11028 -0.0934812 0
M  V30 8095 C 774.592 -6.80493 0.58463 0
M  V30 8096 O 774.28 -7.93542 1.28633 0
M  V30 8097 H 774.012 -0.637685 -0.224352 0
M  V30 8098 H 776.566 -2.05369 -0.0355279 0
M  V30 8099 H 774.796 -3.03752 -2.39315 0
M  V30 8100 H 776.485 -3.41003 -2.20162 0
M  V30 8101 H 777.251 -4.84681 -0.176006 0
M  V30 8102 H 773.13 -4.41579 -1.32397 0
M  V30 8103 H 776.674 -6.89161 1.0818 0
M  V30 8104 H 772.571 -6.45459 -0.0729258 0
M  V30 8105 H 773.339 -8.09708 1.19646 0
M  V30 8106 N 776.003 0.335068 -1.53997 0
M  V30 8107 C 777.419 0.678704 -1.4445 0
M  V30 8108 C 777.619 1.92106 -0.608078 0
M  V30 8109 O 776.675 2.52292 -0.102373 0
M  V30 8110 C 777.988 0.863435 -2.88037 0
M  V30 8111 C 779.536 0.961513 -2.97866 0
M  V30 8112 C 780.011 1.1785 -4.42578 0
M  V30 8113 N 781.502 1.2455 -4.46141 0
M  V30 8114 C 782.237 1.43106 -5.55255 0
M  V30 8115 N 781.733 1.5878 -6.74359 0
M  V30 8116 N 783.526 1.45722 -5.42883 0
M  V30 8117 H 775.677 -0.481656 -2.06867 0
M  V30 8118 H 777.94 -0.153615 -0.935471 0
M  V30 8119 H 777.646 0.0219511 -3.51693 0
M  V30 8120 H 777.52 1.76268 -3.33481 0
M  V30 8121 H 779.907 1.79351 -2.34344 0
M  V30 8122 H 779.988 0.0389862 -2.5577 0
M  V30 8123 H 779.632 0.351397 -5.06683 0
M  V30 8124 H 779.562 2.11472 -4.82273 0
M  V30 8125 H 782.053 1.13928 -3.60318 0
M  V30 8126 H 782.366 1.72599 -7.53279 0
M  V30 8127 H 780.711 1.559 -6.77289 0
M  V30 8128 H 783.902 1.33065 -4.48789 0
M  V30 8129 H 784.075 1.59841 -6.27977 0
M  V30 8130 N 777.481 1.45874 0.596531 0
M  V30 8131 C 778.414 1.49889 1.72071 0
M  V30 8132 C 779.392 0.354224 1.58695 0
M  V30 8133 O 780.576 0.556355 1.80103 0
M  V30 8134 C 777.703 1.3644 3.10003 0
M  V30 8135 C 776.749 2.54913 3.41938 0
M  V30 8136 S 777.582 4.17336 3.35545 0
M  V30 8137 C 778.738 4.06372 4.76039 0
M  V30 8138 H 778.971 2.45005 1.68404 0
M  V30 8139 H 776.504 1.33592 0.77412 0
M  V30 8140 H 778.462 1.29368 3.89582 0
M  V30 8141 H 777.123 0.427762 3.11174 0
M  V30 8142 H 776.316 2.41458 4.42396 0
M  V30 8143 H 775.918 2.58904 2.69898 0
M  V30 8144 H 778.21 3.72199 5.66105 0
M  V30 8145 H 779.153 5.0678 4.9455 0
M  V30 8146 H 779.561 3.37846 4.52239 0
M  V30 8147 N 778.959 -0.83999 1.33349 0
M  V30 8148 C 779.889 -1.965 1.26135 0
M  V30 8149 C 780.87 -1.69505 0.142152 0
M  V30 8150 O 782.055 -1.91346 0.331743 0
M  V30 8151 C 779.185 -3.32632 0.99866 0
M  V30 8152 C 778.139 -3.74021 2.08068 0
M  V30 8153 C 777.465 -5.07947 1.67014 0
M  V30 8154 C 778.765 -3.87925 3.49731 0
M  V30 8155 H 780.459 -2.02793 2.20262 0
M  V30 8156 H 778.005 -0.974297 1.06035 0
M  V30 8157 H 779.958 -4.10903 0.934696 0
M  V30 8158 H 778.682 -3.26593 0.0217759 0
M  V30 8159 H 777.341 -2.98012 2.13505 0
M  V30 8160 H 776.989 -4.98378 0.680316 0
M  V30 8161 H 776.689 -5.36611 2.39422 0
M  V30 8162 H 778.213 -5.88695 1.62082 0
M  V30 8163 H 779.627 -4.5651 3.46802 0
M  V30 8164 H 778.024 -4.28023 4.20614 0
M  V30 8165 H 779.094 -2.90407 3.88319 0
M  V30 8166 N 780.437 -1.16799 -1.0581 0
M  V30 8167 C 781.853 -0.913935 -1.30841 0
M  V30 8168 C 782.053 0.430439 -1.96849 0
M  V30 8169 O 781.109 1.16885 -2.23817 0
M  V30 8170 C 782.422 -2.06662 -2.18429 0
M  V30 8171 C 783.97 -2.10294 -2.31831 0
M  V30 8172 C 784.445 -3.2493 -3.22776 0
M  V30 8173 N 785.936 -3.24678 -3.30361 0
M  V30 8174 C 786.671 -4.10021 -4.00837 0
M  V30 8175 N 786.167 -5.05461 -4.73795 0
M  V30 8176 N 787.96 -3.97991 -3.96937 0
M  V30 8177 H 780.111 -2.03343 -0.613613 0
M  V30 8178 H 782.374 -0.88754 -0.333133 0
M  V30 8179 H 782.08 -3.03791 -1.77211 0
M  V30 8180 H 781.954 -2.01233 -3.19038 0
M  V30 8181 H 784.341 -1.13754 -2.72294 0
M  V30 8182 H 784.422 -2.19786 -1.30873 0
M  V30 8183 H 784.066 -4.21731 -2.83028 0
M  V30 8184 H 783.996 -3.12674 -4.23725 0
M  V30 8185 H 786.487 -2.55573 -2.78372 0
M  V30 8186 H 786.8 -5.66989 -5.25113 0
M  V30 8187 H 785.145 -5.09436 -4.72758 0
M  V30 8188 H 788.336 -3.2273 -3.39062 0
M  V30 8189 H 788.509 -4.64722 -4.51594 0
M  V30 8190 N 781.915 1.24427 -0.967243 0
M  V30 8191 C 782.825 2.29109 -0.504592 0
M  V30 8192 C 783.841 1.68495 0.434224 0
M  V30 8193 O 785.017 1.99041 0.307379 0
M  V30 8194 C 782.082 3.46133 0.198273 0
M  V30 8195 C 781.143 4.22149 -0.780313 0
M  V30 8196 C 780.376 5.33585 -0.110896 0
M  V30 8197 O 780.599 5.59676 1.10088 0
M  V30 8198 O 779.533 5.96522 -0.802823 0
M  V30 8199 H 783.359 2.708 -1.37482 0
M  V30 8200 H 780.944 1.30111 -0.73426 0
M  V30 8201 H 782.826 4.17205 0.593124 0
M  V30 8202 H 781.501 3.0642 1.04347 0
M  V30 8203 H 780.408 3.53454 -1.22561 0
M  V30 8204 H 781.741 4.65677 -1.59392 0
M  V30 8205 N 783.393 0.737304 1.3929 0
M  V30 8206 C 784.341 0.0879867 2.32434 0
M  V30 8207 C 785.335 -0.723324 1.53181 0
M  V30 8208 O 786.541 -0.624251 1.68829 0
M  V30 8209 H 782.916 0.00965277 0.751938 0
M  V30 8210 H 784.887 0.889915 2.84821 0
M  V30 8211 C 783.636 -0.803384 3.38291 0
M  V30 8212 H 782.959 -0.18849 3.99355 0
M  V30 8213 H 784.399 -1.22528 4.0591 0
M  V30 8214 C 782.858 -1.93872 2.75527 0
M  V30 8215 O 783.388 -3.03154 2.63553 0
M  V30 8216 N 781.594 -1.72883 2.3358 0
M  V30 8217 H 781.141 -0.840005 2.43519 0
M  V30 8218 H 781.099 -2.49021 1.91927 0
M  V30 8219 N 784.871 -1.49948 0.485112 0
M  V30 8220 C 786.119 -2.01996 -0.0648775 0
M  V30 8221 C 786.44 -1.36819 -1.38945 0
M  V30 8222 O 785.71 -0.518163 -1.88923 0
M  V30 8223 H 784.29 -0.746513 -0.0269662 0
M  V30 8224 H 786.952 -1.84136 0.638733 0
M  V30 8225 H 786.048 -3.11418 -0.20617 0
M  V30 8226 N 786.349 -0.21828 -1.56081 0
M  V30 8227 C 787.595 0.414921 -1.9851 0
M  V30 8228 C 787.928 1.59648 -1.10573 0
M  V30 8229 O 787.203 1.93818 -0.162695 0
M  V30 8230 C 787.486 0.852647 -3.4986 0
M  V30 8231 C 787.339 -0.33232 -4.48571 0
M  V30 8232 C 788.658 1.70998 -4.05521 0
M  V30 8233 H 785.777 0.149344 -0.72171 0
M  V30 8234 H 788.419 -0.313858 -1.8739 0
M  V30 8235 H 786.569 1.47362 -3.59467 0
M  V30 8236 H 788.241 -0.970418 -4.50977 0
M  V30 8237 H 786.484 -0.980302 -4.22578 0
M  V30 8238 H 787.155 0.0168407 -5.51997 0
M  V30 8239 H 789.631 1.18606 -3.98838 0
M  V30 8240 H 788.507 1.98517 -5.11744 0
M  V30 8241 H 788.768 2.67219 -3.52202 0
M  V30 8242 N 787.827 1.57504 0.0551401 0
M  V30 8243 C 789.104 1.79155 0.785048 0
M  V30 8244 C 789.484 0.809995 1.94942 0
M  V30 8245 O 788.832 -0.153432 2.27984 0
M  V30 8246 C 789.042 3.26134 1.24247 0
M  V30 8247 C 790.39 3.90419 1.66908 0
M  V30 8248 O 791.414 3.30126 1.33772 0
M  V30 8249 O 790.273 4.96523 2.28314 0
M  V30 8250 H 787.367 0.735825 0.377479 0
M  V30 8251 H 789.913 1.69666 0.0339285 0
M  V30 8252 H 788.685 3.89145 0.410089 0
M  V30 8253 H 788.308 3.40411 2.05441 0
M  V30 8254 N 789.305 -0.326896 1.54172 0
M  V30 8255 C 790.551 -1.06681 1.72473 0
M  V30 8256 C 790.884 -1.87779 0.49523 0
M  V30 8257 O 790.159 -1.87754 -0.507803 0
M  V30 8258 C 790.442 -1.99429 2.99834 0
M  V30 8259 C 790.295 -1.21682 4.33028 0
M  V30 8260 C 791.614 -2.99002 3.22933 0
M  V30 8261 H 788.733 -0.386438 0.627563 0
M  V30 8262 H 791.375 -0.343779 1.86864 0
M  V30 8263 H 789.525 -2.61081 2.87696 0
M  V30 8264 H 791.197 -0.625153 4.57044 0
M  V30 8265 H 789.44 -0.519045 4.30684 0
M  V30 8266 H 790.111 -1.89766 5.18356 0
M  V30 8267 H 792.587 -2.4747 3.34511 0
M  V30 8268 H 791.463 -3.61085 4.13412 0
M  V30 8269 H 791.724 -3.71281 2.40006 0
M  V30 8270 N 790.784 -1.46188 -0.588786 0
M  V30 8271 C 791.731 -1.56292 -1.69828 0
M  V30 8272 C 792.701 -0.407581 -1.61022 0
M  V30 8273 O 793.886 -0.623532 -1.80324 0
M  V30 8274 C 791.026 -1.55341 -3.08161 0
M  V30 8275 C 790.139 -2.81564 -3.27636 0
M  V30 8276 C 789.274 -2.72158 -4.56183 0
M  V30 8277 C 788.313 -3.93348 -4.68981 0
M  V30 8278 N 787.45 -3.82365 -5.88848 0
M  V30 8279 H 792.29 -2.51066 -1.6053 0
M  V30 8280 H 789.827 -1.24562 -0.782474 0
M  V30 8281 H 791.785 -1.52776 -3.88221 0
M  V30 8282 H 790.415 -0.641034 -3.16371 0
M  V30 8283 H 789.467 -2.94136 -2.41223 0
M  V30 8284 H 790.779 -3.714 -3.32962 0
M  V30 8285 H 789.933 -2.67665 -5.44464 0
M  V30 8286 H 788.672 -1.79953 -4.53286 0
M  V30 8287 H 787.677 -3.98181 -3.7912 0
M  V30 8288 H 788.902 -4.86643 -4.73662 0
M  V30 8289 H 786.848 -2.92942 -5.86959 0
M  V30 8290 H 786.765 -4.65851 -5.95415 0
M  V30 8291 H 788.033 -3.81836 -6.79575 0
M  V30 8292 N 792.262 0.832906 -1.33792 0
M  V30 8293 C 793.51 1.58539 -1.25338 0
M  V30 8294 C 793.831 1.94175 0.179204 0
M  V30 8295 O 793.101 1.61458 1.10941 0
M  V30 8296 H 791.681 0.58784 -0.460926 0
M  V30 8297 H 794.343 0.995064 -1.67584 0
M  V30 8298 H 793.439 2.51268 -1.85123 0
M  V30 8299 N 793.74 1.17359 1.05189 0
M  V30 8300 C 794.97 0.985099 1.81602 0
M  V30 8301 C 795.378 -0.469872 1.83273 0
M  V30 8302 O 794.721 -1.33806 1.25864 0
M  V30 8303 C 794.783 1.44956 3.2898 0
M  V30 8304 C 794.447 2.92666 3.50993 0
M  V30 8305 C 795.444 3.906 3.43115 0
M  V30 8306 C 793.129 3.30841 3.77954 0
M  V30 8307 C 795.123 5.24709 3.61883 0
M  V30 8308 C 792.81 4.65116 3.96371 0
M  V30 8309 C 793.808 5.61859 3.88335 0
M  V30 8310 O 793.496 6.93704 4.06238 0
M  V30 8311 H 793.228 0.348731 0.579105 0
M  V30 8312 H 795.782 1.56066 1.33539 0
M  V30 8313 H 794.012 0.817559 3.77959 0
M  V30 8314 H 795.701 1.22674 3.86919 0
M  V30 8315 H 796.467 3.62453 3.22262 0
M  V30 8316 H 792.346 2.5611 3.83313 0
M  V30 8317 H 795.89 6.00205 3.55527 0
M  V30 8318 H 791.787 4.92969 4.16715 0
M  V30 8319 H 792.555 7.00443 4.23463 0
M  V30 8320 N 795.218 -1.23913 0.973828 0
M  V30 8321 C 796.151 -2.23647 0.45355 0
M  V30 8322 C 797.129 -1.55485 -0.475724 0
M  V30 8323 O 798.313 -1.84083 -0.405689 0
M  V30 8324 C 795.44 -3.36942 -0.344594 0
M  V30 8325 C 794.486 -4.23221 0.527859 0
M  V30 8326 S 795.319 -4.97877 1.97177 0
M  V30 8327 C 796.475 -6.14627 1.18258 0
M  V30 8328 H 796.708 -2.67433 1.29873 0
M  V30 8329 H 794.241 -1.33289 0.779322 0
M  V30 8330 H 796.199 -4.02647 -0.799103 0
M  V30 8331 H 794.86 -2.91703 -1.16482 0
M  V30 8332 H 794.053 -5.03928 -0.0852555 0
M  V30 8333 H 793.655 -3.6255 0.918344 0
M  V30 8334 H 795.947 -6.76066 0.440629 0
M  V30 8335 H 796.89 -6.80311 1.96425 0
M  V30 8336 H 797.298 -5.6009 0.704256 0
M  V30 8337 N 796.696 -0.74468 -1.38897 0
M  V30 8338 C 797.606 -0.112892 -2.34328 0
M  V30 8339 C 798.622 0.71087 -1.58816 0
M  V30 8340 O 799.798 0.637092 -1.91058 0
M  V30 8341 C 796.863 0.776417 -3.37894 0
M  V30 8342 C 795.924 -0.0606999 -4.29257 0
M  V30 8343 C 795.157 0.786258 -5.27877 0
M  V30 8344 O 795.38 2.02463 -5.33259 0
M  V30 8345 O 794.314 0.209781 -6.01534 0
M  V30 8346 H 798.14 -0.900801 -2.90033 0
M  V30 8347 H 795.725 -0.505462 -1.4059 0
M  V30 8348 H 797.607 1.28496 -4.01331 0
M  V30 8349 H 796.282 1.54297 -2.84559 0
M  V30 8350 H 795.189 -0.614984 -3.69011 0
M  V30 8351 H 796.522 -0.789702 -4.85824 0
M  V30 8352 N 798.174 1.49689 -0.493057 0
M  V30 8353 C 799.121 2.28976 0.28959 0
M  V30 8354 C 800.091 1.35011 0.967536 0
M  V30 8355 O 801.276 1.63964 0.975736 0
M  V30 8356 C 798.416 3.1748 1.35279 0
M  V30 8357 C 797.529 4.26496 0.687418 0
M  V30 8358 C 796.664 5.02226 1.73038 0
M  V30 8359 C 795.703 6.03089 1.04645 0
M  V30 8360 N 794.84 6.72014 2.03325 0
M  V30 8361 H 799.68 2.954 -0.392798 0
M  V30 8362 H 797.217 1.45657 -0.205554 0
M  V30 8363 H 799.175 3.67162 1.98111 0
M  V30 8364 H 797.805 2.53057 2.00405 0
M  V30 8365 H 796.857 3.80362 -0.0540001 0
M  V30 8366 H 798.169 4.98578 0.14864 0
M  V30 8367 H 797.323 5.55737 2.43395 0
M  V30 8368 H 796.062 4.29899 2.303 0
M  V30 8369 H 795.067 5.48817 0.328606 0
M  V30 8370 H 796.292 6.77398 0.480428 0
M  V30 8371 H 794.238 6.02464 2.59564 0
M  V30 8372 H 794.155 7.40046 1.54492 0
M  V30 8373 H 795.423 7.30133 2.72995 0
M  V30 8374 N 799.652 0.226554 1.55963 0
M  V30 8375 C 800.585 -0.721625 2.1649 0
M  V30 8376 C 801.563 -1.18745 1.11078 0
M  V30 8377 O 802.747 -1.26929 1.3936 0
M  V30 8378 C 799.874 -1.97828 2.74921 0
M  V30 8379 C 798.92 -1.65202 3.93206 0
M  V30 8380 S 799.753 -0.772419 5.299 0
M  V30 8381 C 800.909 -2.03853 5.91773 0
M  V30 8382 H 801.142 -0.207192 2.96577 0
M  V30 8383 H 798.675 0.0111976 1.54396 0
M  V30 8384 H 800.633 -2.69982 3.09225 0
M  V30 8385 H 799.294 -2.46384 1.94817 0
M  V30 8386 H 798.487 -2.58583 4.32609 0
M  V30 8387 H 798.089 -1.01108 3.60074 0
M  V30 8388 H 800.381 -2.98799 6.08051 0
M  V30 8389 H 801.324 -1.68831 6.87678 0
M  V30 8390 H 801.732 -2.18134 5.20651 0
M  V30 8391 N 801.13 -1.57531 -0.0467866 0
M  V30 8392 C 802.378 -1.88078 -0.739656 0
M  V30 8393 C 802.699 -0.821936 -1.76831 0
M  V30 8394 O 801.969 0.146582 -1.95351 0
M  V30 8395 H 800.549 -0.694075 -0.276169 0
M  V30 8396 H 803.211 -1.94893 -0.0169391 0
M  V30 8397 H 802.307 -2.86396 -1.24031 0
M  V30 8398 N 802.608 0.318715 -1.54344 0
M  V30 8399 C 803.838 1.07394 -1.76494 0
M  V30 8400 C 804.246 1.82031 -0.515881 0
M  V30 8401 O 803.589 1.7609 0.52325 0
M  V30 8402 C 803.651 2.11401 -2.90775 0
M  V30 8403 C 803.315 1.56118 -4.29507 0
M  V30 8404 C 804.312 1.00043 -5.10184 0
M  V30 8405 C 801.997 1.60215 -4.76063 0
M  V30 8406 C 803.991 0.487993 -6.35529 0
M  V30 8407 C 801.678 1.08584 -6.01376 0
M  V30 8408 C 802.676 0.529714 -6.80943 0
M  V30 8409 O 802.364 0.0211823 -8.03897 0
M  V30 8410 H 802.096 0.325061 -0.592715 0
M  V30 8411 H 804.65 0.36901 -2.02058 0
M  V30 8412 H 802.88 2.85524 -2.60793 0
M  V30 8413 H 804.569 2.72683 -3.00664 0
M  V30 8414 H 805.335 0.961811 -4.75367 0
M  V30 8415 H 801.214 2.02441 -4.14172 0
M  V30 8416 H 804.758 0.0532608 -6.9758 0
M  V30 8417 H 800.655 1.12155 -6.35682 0
M  V30 8418 H 801.423 0.136151 -8.18387 0
M  V30 8419 N 804.086 1.46499 0.581025 0
M  V30 8420 C 804.996 1.59778 1.71779 0
M  V30 8421 C 806.012 0.481223 1.67213 0
M  V30 8422 O 807.188 0.74557 1.87091 0
M  V30 8423 C 804.253 1.58626 3.08283 0
M  V30 8424 C 803.314 2.81527 3.241 0
M  V30 8425 C 802.547 2.80421 4.54092 0
M  V30 8426 O 802.77 1.89262 5.38085 0
M  V30 8427 O 801.704 3.71984 4.73193 0
M  V30 8428 H 805.53 2.55918 1.63523 0
M  V30 8429 H 803.115 1.29311 0.748267 0
M  V30 8430 H 804.997 1.60686 3.89561 0
M  V30 8431 H 803.672 0.656467 3.16973 0
M  V30 8432 H 802.579 2.85021 2.42309 0
M  V30 8433 H 803.912 3.73721 3.20302 0
M  V30 8434 N 805.565 -0.825799 1.34232 0
M  V30 8435 C 806.814 -1.57686 1.2577 0
M  V30 8436 C 807.127 -1.94848 -0.171372 0
M  V30 8437 O 808.333 -2.68854 -0.378123 0
M  V30 8438 C 806.789 -2.84478 2.20454 0
M  V30 8439 C 806.397 -2.54629 3.68603 0
M  V30 8440 C 808.141 -3.625 2.20893 0
M  V30 8441 C 806.048 -3.77597 4.55164 0
M  V30 8442 H 804.978 -0.591809 0.467203 0
M  V30 8443 H 807.629 -0.909421 1.59379 0
M  V30 8444 H 806.011 -3.52832 1.79793 0
M  V30 8445 H 807.185 -1.94404 4.17784 0
M  V30 8446 H 805.5 -1.89888 3.70582 0
M  V30 8447 H 808.097 -4.538 2.82789 0
M  V30 8448 H 808.44 -3.98404 1.20746 0
M  V30 8449 H 808.973 -3.01086 2.59985 0
M  V30 8450 H 805.712 -3.46815 5.56237 0
M  V30 8451 H 805.232 -4.37116 4.10719 0
M  V30 8452 H 806.911 -4.45039 4.69627 0
M  V30 8453 N 807.043 -1.17915 -1.04565 0
M  V30 8454 C 808.454 -0.976383 -1.59134 0
M  V30 8455 C 808.805 0.475267 -1.90357 0
M  V30 8456 O 807.93 1.35172 -1.6899 0
M  V30 8457 C 808.525 -1.76604 -2.89131 0
M  V30 8458 C 807.084 -1.60777 -3.40335 0
M  V30 8459 C 806.231 -1.76369 -2.13985 0
M  V30 8460 H 809.182 -1.32532 -0.872985 0
M  V30 8461 H 809.203 -1.25215 -3.59307 0
M  V30 8462 H 808.715 -2.82252 -2.66375 0
M  V30 8463 H 806.816 -0.576436 -3.68114 0
M  V30 8464 H 806.929 -2.40268 -4.14497 0
M  V30 8465 H 805.293 -1.19268 -2.25049 0
M  V30 8466 H 806.076 -2.83441 -1.9369 0
M  V30 8467 N 808.521 1.23394 -0.980386 0
M  V30 8468 C 809.431 2.28561 -0.528864 0
M  V30 8469 C 810.447 1.68946 0.416329 0
M  V30 8470 O 811.623 1.99355 0.286251 0
M  V30 8471 C 808.688 3.46323 0.16155 0
M  V30 8472 C 807.749 4.21297 -0.825044 0
M  V30 8473 C 806.982 5.33437 -0.167483 0
M  V30 8474 O 807.205 5.60812 1.04146 0
M  V30 8475 O 806.139 5.95637 -0.866047 0
M  V30 8476 H 809.965 2.69326 -1.40346 0
M  V30 8477 H 807.55 1.29325 -0.748019 0
M  V30 8478 H 809.432 4.17811 0.548841 0
M  V30 8479 H 808.107 3.0751 1.01092 0
M  V30 8480 H 807.014 3.52134 -1.26303 0
M  V30 8481 H 808.347 4.6396 -1.64322 0
M  V30 8482 N 809.999 0.752036 1.385 0
M  V30 8483 C 811.229 0.317812 2.04141 0
M  V30 8484 C 811.637 -1.05822 1.56839 0
M  V30 8485 O 810.98 -1.68311 0.736016 0
M  V30 8486 C 811.042 0.260205 3.58557 0
M  V30 8487 C 810.706 1.57753 4.28909 0
M  V30 8488 C 811.703 2.52642 4.54387 0
M  V30 8489 C 809.388 1.84653 4.67128 0
M  V30 8490 C 811.382 3.72653 5.17116 0
M  V30 8491 C 809.069 3.04938 5.29581 0
M  V30 8492 C 810.067 3.98759 5.54509 0
M  V30 8493 O 809.755 5.16929 6.15662 0
M  V30 8494 H 809.487 0.133931 0.6626 0
M  V30 8495 H 812.041 1.02138 1.78205 0
M  V30 8496 H 810.271 -0.499596 3.83459 0
M  V30 8497 H 811.96 -0.144295 4.05643 0
M  V30 8498 H 812.726 2.33135 4.25292 0
M  V30 8499 H 808.605 1.12464 4.47071 0
M  V30 8500 H 812.149 4.45898 5.36489 0
M  V30 8501 H 808.046 3.24339 5.58099 0
M  V30 8502 H 808.814 5.1749 6.3415 0
M  V30 8503 N 811.477 -1.49425 0.500989 0
M  V30 8504 C 812.725 -2.02053 -0.0434495 0
M  V30 8505 C 813.046 -1.38285 -1.37486 0
M  V30 8506 O 812.316 -0.538171 -1.88363 0
M  V30 8507 H 810.896 -0.746757 -0.0190469 0
M  V30 8508 H 813.558 -1.83449 0.658227 0
M  V30 8509 H 812.654 -3.11619 -0.173129 0
M  V30 8510 N 812.955 -0.234822 -1.55841 0
M  V30 8511 C 814.204 0.393685 -1.97821 0
M  V30 8512 C 814.517 1.59947 -1.1259 0
M  V30 8513 O 815.723 2.29835 -1.44528 0
M  V30 8514 C 814.179 0.751811 -3.5196 0
M  V30 8515 C 813.787 -0.431898 -4.45913 0
M  V30 8516 C 815.531 1.34518 -4.02623 0
M  V30 8517 C 813.438 -0.0505976 -5.91378 0
M  V30 8518 H 812.368 0.150864 -0.738753 0
M  V30 8519 H 815.019 -0.333132 -1.80451 0
M  V30 8520 H 813.401 1.53642 -3.6498 0
M  V30 8521 H 814.575 -1.20935 -4.44647 0
M  V30 8522 H 812.89 -0.939385 -4.05666 0
M  V30 8523 H 815.487 1.64359 -5.08813 0
M  V30 8524 H 815.83 2.26554 -3.49255 0
M  V30 8525 H 816.363 0.623729 -3.9288 0
M  V30 8526 H 813.102 -0.937779 -6.48757 0
M  V30 8527 H 812.622 0.690898 -5.95808 0
M  V30 8528 H 814.301 0.37146 -6.45933 0
M  V30 8529 N 814.433 1.57553 0.0384317 0
M  V30 8530 C 815.343 2.09333 1.0591 0
M  V30 8531 C 816.359 1.0299 1.40247 0
M  V30 8532 O 817.535 1.34669 1.49754 0
M  V30 8533 C 814.6 2.55468 2.34386 0
M  V30 8534 C 813.661 3.76254 2.06716 0
M  V30 8535 C 812.894 4.20179 3.29067 0
M  V30 8536 O 813.117 3.637 4.39407 0
M  V30 8537 O 812.051 5.12697 3.15317 0
M  V30 8538 H 815.877 2.96683 0.649087 0
M  V30 8539 H 813.462 1.47211 0.254802 0
M  V30 8540 H 815.344 2.85514 3.09935 0
M  V30 8541 H 814.019 1.71234 2.74701 0
M  V30 8542 H 812.926 3.51241 1.28766 0
M  V30 8543 H 814.259 4.61443 1.71263 0
M  V30 8544 N 815.911 -0.310526 1.54511 0
M  V30 8545 C 817.136 -1.07046 1.7764 0
M  V30 8546 C 817.561 -1.80488 0.529696 0
M  V30 8547 O 816.919 -1.73702 -0.519361 0
M  V30 8548 C 816.967 -2.03411 2.97752 0
M  V30 8549 O 816.071 -3.11545 2.7021 0
M  V30 8550 H 815.412 -0.307994 0.588248 0
M  V30 8551 H 817.942 -0.350848 2.01569 0
M  V30 8552 H 817.952 -2.46048 3.2546 0
M  V30 8553 H 816.627 -1.49361 3.88155 0
M  V30 8554 H 815.204 -2.7349 2.53491 0
M  V30 8555 N 817.389 -1.46805 -0.573248 0
M  V30 8556 C 818.319 -1.60951 -1.69165 0
M  V30 8557 C 819.3 -0.45948 -1.63777 0
M  V30 8558 O 820.485 -0.68688 -1.81647 0
M  V30 8559 C 817.615 -1.60844 -3.07809 0
M  V30 8560 C 816.569 -2.74913 -3.28035 0
M  V30 8561 C 815.895 -2.59871 -4.67302 0
M  V30 8562 C 817.195 -4.16654 -3.14955 0
M  V30 8563 H 818.889 -2.54574 -1.57582 0
M  V30 8564 H 816.435 -1.22516 -0.756686 0
M  V30 8565 H 818.388 -1.69334 -3.85881 0
M  V30 8566 H 817.112 -0.637714 -3.20314 0
M  V30 8567 H 815.771 -2.65908 -2.52366 0
M  V30 8568 H 815.419 -1.60861 -4.76585 0
M  V30 8569 H 815.119 -3.36386 -4.81786 0
M  V30 8570 H 816.643 -2.70265 -5.4753 0
M  V30 8571 H 818.057 -4.26721 -3.82861 0
M  V30 8572 H 816.454 -4.93831 -3.40956 0
M  V30 8573 H 817.524 -4.36146 -2.11908 0
M  V30 8574 N 818.867 0.818669 -1.34668 0
M  V30 8575 C 820.278 1.39177 -1.24446 0
M  V30 8576 C 820.629 1.9578 0.128268 0
M  V30 8577 O 819.754 1.90382 1.02877 0
M  V30 8578 C 820.349 2.53012 -2.25323 0
M  V30 8579 C 818.908 3.06218 -2.18878 0
M  V30 8580 C 818.055 1.79112 -2.11694 0
M  V30 8581 H 821.006 0.622709 -1.45973 0
M  V30 8582 H 821.027 3.31226 -1.8727 0
M  V30 8583 H 820.539 2.11784 -3.25221 0
M  V30 8584 H 818.64 3.51939 -1.22351 0
M  V30 8585 H 818.753 3.65019 -3.10319 0
M  V30 8586 H 817.117 2.0018 -1.57481 0
M  V30 8587 H 817.9 1.40053 -3.13433 0
M  V30 8588 N 820.346 1.18468 1.03938 0
M  V30 8589 C 821.279 0.856251 2.11527 0
M  V30 8590 C 822.257 -0.182323 1.61575 0
M  V30 8591 O 823.441 -0.061 1.88401 0
M  V30 8592 C 820.568 0.279562 3.37544 0
M  V30 8593 C 819.614 1.29552 4.06348 0
M  V30 8594 S 820.447 2.85191 4.5324 0
M  V30 8595 C 821.603 2.29037 5.82489 0
M  V30 8596 H 821.836 1.76742 2.39059 0
M  V30 8597 H 819.369 1.01068 1.16725 0
M  V30 8598 H 821.327 -0.0466579 4.10473 0
M  V30 8599 H 819.988 -0.60975 3.08125 0
M  V30 8600 H 819.181 0.840922 4.96935 0
M  V30 8601 H 818.783 1.56804 3.39541 0
M  V30 8602 H 821.075 1.67376 6.565 0
M  V30 8603 H 822.018 3.17929 6.32714 0
M  V30 8604 H 822.426 1.72009 5.37655 0
M  V30 8605 N 821.824 -1.22873 0.986916 0
M  V30 8606 C 823.072 -1.91084 0.658121 0
M  V30 8607 C 823.393 -1.77304 -0.811675 0
M  V30 8608 O 822.663 -1.15649 -1.58121 0
M  V30 8609 H 821.243 -0.707251 0.240427 0
M  V30 8610 H 823.905 -1.49357 1.25213 0
M  V30 8611 H 823.001 -2.98373 0.915428 0
M  V30 8612 N 823.302 -0.75937 -1.38099 0
M  V30 8613 C 824.55 -0.317485 -1.99591 0
M  V30 8614 C 824.871 1.10628 -1.60581 0
M  V30 8615 O 824.141 1.7575 -0.865378 0
M  V30 8616 H 822.721 -0.114397 -0.738189 0
M  V30 8617 H 825.383 -0.974749 -1.68774 0
M  V30 8618 H 824.479 -0.385227 -3.09713 0
M  V30 8619 N 824.78 1.49157 -0.508906 0
M  V30 8620 C 826.028 2.02073 0.0327335 0
M  V30 8621 C 826.349 1.39012 1.3675 0
M  V30 8622 O 825.619 0.548153 1.88075 0
M  V30 8623 H 824.199 0.746848 0.0150864 0
M  V30 8624 H 826.861 1.83097 -0.667946 0
M  V30 8625 H 825.957 3.11707 0.1566 0
M  V30 8626 N 826.258 0.243083 1.55714 0
M  V30 8627 C 827.507 -0.383188 1.98027 0
M  V30 8628 C 827.82 -1.59347 1.13436 0
M  V30 8629 O 829.026 -2.29065 1.45745 0
M  V30 8630 C 827.482 -0.733135 3.52354 0
M  V30 8631 C 827.09 0.455539 4.45678 0
M  V30 8632 C 828.834 -1.32381 4.03331 0
M  V30 8633 C 826.741 0.0819591 5.91343 0
M  V30 8634 H 825.671 -0.146944 0.739543 0
M  V30 8635 H 828.322 0.342697 1.80272 0
M  V30 8636 H 826.704 -1.51704 3.65789 0
M  V30 8637 H 827.878 1.23291 4.44 0
M  V30 8638 H 826.193 0.960886 4.05162 0
M  V30 8639 H 828.79 -1.61658 5.09677 0
M  V30 8640 H 829.133 -2.24698 3.50452 0
M  V30 8641 H 829.666 -0.602885 3.93205 0
M  V30 8642 H 826.405 0.972171 6.48251 0
M  V30 8643 H 825.925 -0.659291 5.96166 0
M  V30 8644 H 827.604 -0.3372 6.46121 0
M  V30 8645 N 827.736 -1.57571 -0.0300757 0
M  V30 8646 C 828.646 -2.09892 -1.04798 0
M  V30 8647 C 829.662 -1.03732 -1.39698 0
M  V30 8648 O 830.838 -1.35461 -1.49038 0
M  V30 8649 C 827.903 -2.56707 -2.33028 0
M  V30 8650 C 826.964 -3.77345 -2.04718 0
M  V30 8651 C 826.197 -4.21918 -3.26834 0
M  V30 8652 O 826.42 -3.66025 -4.37472 0
M  V30 8653 O 825.354 -5.14362 -3.12594 0
M  V30 8654 H 829.18 -2.97023 -0.633344 0
M  V30 8655 H 826.765 -1.47344 -0.246991 0
M  V30 8656 H 828.647 -2.87154 -3.08417 0
M  V30 8657 H 827.322 -1.72688 -2.73789 0
M  V30 8658 H 826.229 -3.51919 -1.26901 0
M  V30 8659 H 827.562 -4.62345 -1.68813 0
M  V30 8660 N 829.214 0.302327 -1.54673 0
M  V30 8661 C 830.46 1.03924 -1.74149 0
M  V30 8662 C 830.793 1.86968 -0.525041 0
M  V30 8663 O 830.068 1.88538 0.477868 0
M  V30 8664 C 830.351 1.94633 -3.02969 0
M  V30 8665 C 830.204 1.14778 -4.34909 0
M  V30 8666 C 831.523 2.93826 -3.27649 0
M  V30 8667 H 828.642 0.376405 -0.633631 0
M  V30 8668 H 831.284 0.314007 -1.87387 0
M  V30 8669 H 829.434 2.56471 -2.91813 0
M  V30 8670 H 831.106 0.552363 -4.57981 0
M  V30 8671 H 829.349 0.450462 -4.31455 0
M  V30 8672 H 830.02 1.81495 -5.21309 0
M  V30 8673 H 832.496 2.42117 -3.38406 0
M  V30 8674 H 831.372 3.54462 -4.19104 0
M  V30 8675 H 831.633 3.67416 -2.45882 0
M  V30 8676 N 830.692 1.47107 0.565454 0
M  V30 8677 C 831.92 1.56909 1.3486 0
M  V30 8678 C 832.335 0.216312 1.87557 0
M  V30 8679 O 831.692 -0.789168 1.64555 0
M  V30 8680 C 831.743 2.58776 2.52423 0
M  V30 8681 O 831.464 3.888 2.01906 0
M  V30 8682 C 832.965 2.78683 3.44747 0
M  V30 8683 H 830.185 0.530096 0.411387 0
M  V30 8684 H 832.729 1.92658 0.685782 0
M  V30 8685 H 830.884 2.25983 3.1466 0
M  V30 8686 H 831.298 4.44393 2.78595 0
M  V30 8687 H 832.772 3.53842 4.23674 0
M  V30 8688 H 833.249 1.86208 3.97773 0
M  V30 8689 H 833.855 3.12641 2.88333 0
M  V30 8690 N 832.17 -0.811516 1.35101 0
M  V30 8691 C 833.416 -1.57068 1.28287 0
M  V30 8692 C 833.749 -1.93667 -0.143808 0
M  V30 8693 O 833.024 -1.60953 -1.09199 0
M  V30 8694 C 833.307 -2.86259 2.18466 0
M  V30 8695 C 833.16 -2.56168 3.69727 0
M  V30 8696 C 834.479 -3.87924 2.07852 0
M  V30 8697 H 831.598 -0.569869 0.467353 0
M  V30 8698 H 834.24 -0.934023 1.65457 0
M  V30 8699 H 832.39 -3.4059 1.86898 0
M  V30 8700 H 834.062 -2.08059 4.11715 0
M  V30 8701 H 832.305 -1.89436 3.90252 0
M  V30 8702 H 832.976 -3.48344 4.28206 0
M  V30 8703 H 835.452 -3.4298 2.35593 0
M  V30 8704 H 834.328 -4.76106 2.73157 0
M  V30 8705 H 834.589 -4.2923 1.05896 0
M  V30 8706 N 833.648 -1.19017 -1.03309 0
M  V30 8707 C 834.611 -0.926076 -2.09658 0
M  V30 8708 C 835.611 0.0917077 -1.60538 0
M  V30 8709 O 836.801 -0.142574 -1.73616 0
M  V30 8710 C 833.933 -0.390958 -3.38651 0
M  V30 8711 H 835.126 -1.86923 -2.3452 0
M  V30 8712 H 832.679 -1.00325 -1.19853 0
M  V30 8713 H 833.414 0.558446 -3.19456 0
M  V30 8714 H 833.199 -1.12474 -3.75622 0
M  V30 8715 H 834.689 -0.225131 -4.16993 0
M  V30 8716 N 835.127 1.22348 -0.993418 0
M  V30 8717 C 836.059 2.23626 -0.502404 0
M  V30 8718 C 837.072 1.57739 0.402784 0
M  V30 8719 O 838.261 1.77321 0.204835 0
M  V30 8720 C 835.361 3.37647 0.291118 0
M  V30 8721 C 834.534 4.33121 -0.610332 0
M  V30 8722 C 833.593 5.26035 0.131572 0
M  V30 8723 O 832.619 5.67145 -0.483199 0
M  V30 8724 N 833.821 5.63023 1.41371 0
M  V30 8725 H 836.586 2.66385 -1.37329 0
M  V30 8726 H 834.147 1.36653 -0.868196 0
M  V30 8727 H 836.139 3.96792 0.796107 0
M  V30 8728 H 834.709 2.93967 1.0631 0
M  V30 8729 H 833.929 3.72287 -1.29598 0
M  V30 8730 H 835.217 4.93853 -1.22422 0
M  V30 8731 H 834.615 5.31596 1.93449 0
M  V30 8732 H 833.172 6.24582 1.86388 0
M  V30 8733 N 836.605 0.766683 1.37694 0
M  V30 8734 C 837.555 0.123173 2.27667 0
M  V30 8735 C 838.539 -0.679436 1.45851 0
M  V30 8736 O 839.731 -0.54324 1.68457 0
M  V30 8737 C 836.86 -0.759064 3.34803 0
M  V30 8738 C 835.946 0.0511009 4.24069 0
M  V30 8739 N 836.337 1.09418 4.93823 0
M  V30 8740 C 834.635 -0.173675 4.45662 0
M  V30 8741 C 835.336 1.58546 5.59677 0
M  V30 8742 N 834.312 0.898503 5.36123 0
M  V30 8743 H 838.114 0.921859 2.79068 0
M  V30 8744 H 835.628 0.603957 1.50752 0
M  V30 8745 H 837.625 -1.23581 3.98163 0
M  V30 8746 H 836.285 -1.55655 2.84959 0
M  V30 8747 H 837.296 1.47623 4.96415 0
M  V30 8748 H 833.973 -0.943473 4.067 0
M  V30 8749 H 835.363 2.45504 6.25442 0
M  V30 8750 N 838.083 -1.48885 0.516809 0
M  V30 8751 C 839.311 -2.06892 -0.0184017 0
M  V30 8752 C 839.726 -1.37511 -1.29368 0
M  V30 8753 O 839.083 -0.458409 -1.76649 0
M  V30 8754 C 839.134 -3.60566 -0.259673 0
M  V30 8755 O 838.855 -4.27338 0.965065 0
M  V30 8756 C 840.356 -4.35331 -0.836751 0
M  V30 8757 H 837.576 -0.670433 0.0275743 0
M  V30 8758 H 840.12 -1.91455 0.718689 0
M  V30 8759 H 838.275 -3.75653 -0.94678 0
M  V30 8760 H 838.689 -5.19287 0.737647 0
M  V30 8761 H 840.163 -5.43675 -0.955065 0
M  V30 8762 H 840.64 -3.9887 -1.83845 0
M  V30 8763 H 841.246 -4.2489 -0.186622 0
M  V30 8764 N 839.561 -0.251338 -1.55583 0
M  V30 8765 C 840.509 0.662534 -2.22965 0
M  V30 8766 C 841.503 1.17662 -1.21869 0
M  V30 8767 O 842.709 1.133 -1.39868 0
M  V30 8768 H 839.084 0.232151 -0.715269 0
M  V30 8769 H 841.055 0.0711252 -2.98315 0
M  V30 8770 C 839.804 1.84646 -2.94621 0
M  V30 8771 H 839.127 1.46003 -3.72187 0
M  V30 8772 H 840.567 2.46303 -3.45124 0
M  V30 8773 C 839.026 2.72034 -1.98744 0
M  V30 8774 O 839.556 3.71695 -1.52335 0
M  V30 8775 N 837.762 2.38695 -1.6575 0
M  V30 8776 H 837.309 1.57702 -2.03685 0
M  V30 8777 H 837.267 2.9744 -1.01867 0
M  V30 8778 N 841.039 1.57585 0.0217189 0
M  V30 8779 C 842.287 1.89231 0.709641 0
M  V30 8780 C 842.608 0.849964 1.75501 0
M  V30 8781 O 841.878 -0.115485 1.95559 0
M  V30 8782 H 840.458 0.69838 0.265092 0
M  V30 8783 H 843.12 1.94895 -0.0140688 0
M  V30 8784 H 842.216 2.88333 1.19459 0
M  V30 8785 N 842.517 -0.29412 1.54831 0
M  V30 8786 C 843.747 -1.04572 1.7818 0
M  V30 8787 C 844.155 -1.81187 0.544776 0
M  V30 8788 O 843.498 -1.769 -0.495169 0
M  V30 8789 C 843.56 -2.06748 2.94101 0
M  V30 8790 C 843.224 -1.49265 4.31936 0
M  V30 8791 C 844.221 -0.919136 5.11711 0
M  V30 8792 C 841.906 -1.52621 4.78552 0
M  V30 8793 C 843.9 -0.386824 6.36225 0
M  V30 8794 C 841.587 -0.990031 6.03027 0
M  V30 8795 C 842.585 -0.421315 6.81699 0
M  V30 8796 O 842.273 0.106713 8.03829 0
M  V30 8797 H 842.005 -0.31559 0.597812 0
M  V30 8798 H 844.559 -0.336817 2.0262 0
M  V30 8799 H 842.789 -2.81339 2.65303 0
M  V30 8800 H 844.478 -2.67865 3.04964 0
M  V30 8801 H 845.244 -0.886062 4.76837 0
M  V30 8802 H 841.123 -1.95826 4.17341 0
M  V30 8803 H 844.667 0.0577248 6.97576 0
M  V30 8804 H 840.564 -1.02027 6.37386 0
M  V30 8805 H 841.332 -0.00593526 8.185 0
M  V30 8806 N 843.995 -1.47404 -0.557645 0
M  V30 8807 C 844.927 -1.55917 -1.67995 0
M  V30 8808 C 845.94 -0.445411 -1.56588 0
M  V30 8809 O 847.129 -0.714999 -1.63554 0
M  V30 8810 C 844.229 -1.44697 -3.06457 0
M  V30 8811 C 843.402 -2.70633 -3.43622 0
M  V30 8812 C 842.461 -2.53256 -4.61246 0
M  V30 8813 O 841.487 -3.27068 -4.65849 0
M  V30 8814 N 842.689 -1.61053 -5.57711 0
M  V30 8815 H 845.454 -2.52694 -1.61139 0
M  V30 8816 H 843.015 -1.43778 -0.744271 0
M  V30 8817 H 845.007 -1.30806 -3.82978 0
M  V30 8818 H 843.577 -0.560039 -3.07542 0
M  V30 8819 H 842.797 -2.99288 -2.56555 0
M  V30 8820 H 844.085 -3.5424 -3.65228 0
M  V30 8821 H 843.483 -1.00235 -5.56749 0
M  V30 8822 H 842.04 -1.53115 -6.33561 0
M  V30 8823 N 845.473 0.80434 -1.35529 0
M  V30 8824 C 846.701 1.59283 -1.32048 0
M  V30 8825 C 847.116 1.88527 0.101556 0
M  V30 8826 O 846.473 1.48975 1.05417 0
M  V30 8827 C 846.524 2.92276 -2.12737 0
M  V30 8828 O 846.245 2.64299 -3.49396 0
M  V30 8829 C 847.746 3.86631 -2.16867 0
M  V30 8830 H 844.966 0.494523 -0.453528 0
M  V30 8831 H 847.51 0.999415 -1.78415 0
M  V30 8832 H 845.665 3.48125 -1.69964 0
M  V30 8833 H 846.079 3.4923 -3.91329 0
M  V30 8834 H 847.553 4.77053 -2.77712 0
M  V30 8835 H 848.03 4.23384 -1.16803 0
M  V30 8836 H 848.636 3.36717 -2.59811 0
M  V30 8837 N 846.951 1.19563 1.02676 0
M  V30 8838 C 847.881 0.959024 2.12897 0
M  V30 8839 C 848.862 -0.108382 1.69754 0
M  V30 8840 O 850.047 0.0470698 1.94143 0
M  V30 8841 C 847.177 0.499211 3.43693 0
M  V30 8842 C 846.131 1.5087 4.00528 0
M  V30 8843 C 845.457 0.905884 5.2697 0
M  V30 8844 C 846.757 2.88954 4.3509 0
M  V30 8845 H 848.451 1.88084 2.32948 0
M  V30 8846 H 845.997 0.905731 1.11949 0
M  V30 8847 H 847.95 0.320965 4.20176 0
M  V30 8848 H 846.674 -0.458205 3.2337 0
M  V30 8849 H 845.333 1.67413 3.26142 0
M  V30 8850 H 844.981 -0.0591506 5.02965 0
M  V30 8851 H 844.681 1.58 5.65959 0
M  V30 8852 H 846.205 0.73848 6.06118 0
M  V30 8853 H 847.619 2.75981 5.02501 0
M  V30 8854 H 846.016 3.53177 4.85166 0
M  V30 8855 H 847.086 3.41447 3.44299 0
M  V30 8856 N 848.429 -1.21819 0.999893 0
M  V30 8857 C 849.392 -2.22227 0.561044 0
M  V30 8858 C 850.392 -1.56722 -0.359858 0
M  V30 8859 O 851.582 -1.73546 -0.150848 0
M  V30 8860 C 848.714 -3.40409 -0.182987 0
M  V30 8861 H 849.907 -2.62567 1.44909 0
M  V30 8862 H 847.46 -1.34991 0.78785 0
M  V30 8863 H 848.195 -3.05551 -1.08671 0
M  V30 8864 H 847.98 -3.89171 0.47833 0
M  V30 8865 H 849.47 -4.14856 -0.477952 0
M  V30 8866 N 849.908 -0.773975 -1.37286 0
M  V30 8867 C 850.856 -0.149581 -2.32119 0
M  V30 8868 C 851.85 0.682457 -1.55045 0
M  V30 8869 O 853.056 0.579269 -1.70424 0
M  V30 8870 H 849.431 -0.0295857 -0.751418 0
M  V30 8871 H 851.402 -0.965117 -2.82362 0
M  V30 8872 C 850.151 0.713409 -3.40302 0
M  V30 8873 H 849.474 0.0825416 -3.99715 0
M  V30 8874 H 850.914 1.11723 -4.09016 0
M  V30 8875 C 849.373 1.86498 -2.80571 0
M  V30 8876 O 849.903 2.9606 -2.71498 0
M  V30 8877 N 848.109 1.66629 -2.38082 0
M  V30 8878 H 847.656 0.775145 -2.45661 0
M  V30 8879 H 847.614 2.43845 -1.98461 0
M  V30 8880 N 851.386 1.48609 -0.524698 0
M  V30 8881 C 852.334 2.31205 0.254398 0
M  V30 8882 C 853.328 1.40894 0.940491 0
M  V30 8883 O 854.534 1.57827 0.865478 0
M  V30 8884 H 850.909 0.745199 0.100907 0
M  V30 8885 H 852.88 2.94804 -0.461876 0
M  V30 8886 C 851.629 3.2282 1.2916 0
M  V30 8887 H 850.952 3.92255 0.773074 0
M  V30 8888 H 852.392 3.83508 1.80825 0
M  V30 8889 C 850.851 2.4406 2.32242 0
M  V30 8890 O 851.381 2.16163 3.3858 0
M  V30 8891 N 849.587 2.05651 2.05319 0
M  V30 8892 H 849.134 2.28539 1.18861 0
M  V30 8893 H 849.092 1.53265 2.74513 0
M  V30 8894 N 852.864 0.259585 1.55447 0
M  V30 8895 C 854.112 -0.360893 1.98852 0
M  V30 8896 C 854.433 -1.57535 1.14924 0
M  V30 8897 O 853.703 -1.94485 0.235025 0
M  V30 8898 H 852.283 -0.136332 0.734454 0
M  V30 8899 H 854.945 0.361319 1.91522 0
M  V30 8900 H 854.041 -0.661388 3.05012 0
M  V30 8901 N 854.342 -1.57594 -0.0133615 0
M  V30 8902 C 855.588 -1.90262 -0.702019 0
M  V30 8903 C 855.921 -0.859219 -1.74158 0
M  V30 8904 O 855.196 0.123778 -1.94106 0
M  V30 8905 C 855.479 -3.3354 -1.35732 0
M  V30 8906 C 855.332 -4.48586 -0.330208 0
M  V30 8907 C 856.651 -3.76004 -2.28712 0
M  V30 8908 H 853.77 -0.691943 -0.253739 0
M  V30 8909 H 856.412 -1.89967 0.0351894 0
M  V30 8910 H 854.562 -3.33921 -1.98567 0
M  V30 8911 H 856.234 -4.6034 0.297433 0
M  V30 8912 H 854.477 -4.32394 0.348926 0
M  V30 8913 H 855.148 -5.45762 -0.827508 0
M  V30 8914 H 857.624 -3.77089 -1.75906 0
M  V30 8915 H 856.5 -4.77032 -2.71535 0
M  V30 8916 H 856.761 -3.09129 -3.16056 0
M  V30 8917 N 855.82 0.285905 -1.54985 0
M  V30 8918 C 857.05 1.03626 -1.78732 0
M  V30 8919 C 857.458 1.80896 -0.554377 0
M  V30 8920 O 856.801 1.77161 0.48578 0
M  V30 8921 C 856.863 2.05185 -2.95193 0
M  V30 8922 C 856.527 1.46973 -4.32722 0
M  V30 8923 C 857.524 0.891986 -5.12191 0
M  V30 8924 C 855.209 1.50081 -4.79355 0
M  V30 8925 C 857.203 0.353078 -6.36421 0
M  V30 8926 C 854.89 0.958037 -6.03544 0
M  V30 8927 C 855.888 0.385157 -6.81913 0
M  V30 8928 O 855.576 -0.149341 -8.03761 0
M  V30 8929 H 855.308 0.312416 -0.599477 0
M  V30 8930 H 857.862 0.326067 -2.02795 0
M  V30 8931 H 856.092 2.79928 -2.66791 0
M  V30 8932 H 857.781 2.66244 -3.0638 0
M  V30 8933 H 858.547 0.860762 -4.77301 0
M  V30 8934 H 854.426 1.9361 -4.18373 0
M  V30 8935 H 857.97 -0.0947181 -6.97536 0
M  V30 8936 H 853.867 0.986458 -6.37918 0
M  V30 8937 H 854.635 -0.0374719 -8.18491 0
M  V30 8938 N 857.298 1.47698 0.54982 0
M  V30 8939 C 858.248 1.57145 1.65195 0
M  V30 8940 C 859.232 0.429839 1.55052 0
M  V30 8941 O 860.424 0.68018 1.63409 0
M  V30 8942 C 857.553 1.59573 3.0396 0
M  V30 8943 C 856.639 2.79144 3.19279 0
M  V30 8944 N 857.03 4.03769 3.04638 0
M  V30 8945 C 855.328 2.76061 3.50295 0
M  V30 8946 C 856.029 4.83887 3.22845 0
M  V30 8947 N 855.005 4.1634 3.49517 0
M  V30 8948 H 858.807 2.51266 1.52455 0
M  V30 8949 H 856.321 1.43795 0.754773 0
M  V30 8950 H 858.318 1.64431 3.83103 0
M  V30 8951 H 856.978 0.66553 3.17806 0
M  V30 8952 H 857.989 4.34515 2.81811 0
M  V30 8953 H 854.666 1.92211 3.70622 0
M  V30 8954 H 856.056 5.92724 3.1643 0
M  V30 8955 N 858.776 -0.797141 1.35954 0
M  V30 8956 C 859.708 -1.91782 1.25509 0
M  V30 8957 C 860.721 -1.61843 0.176271 0
M  V30 8958 O 861.91 -1.73235 0.430343 0
M  V30 8959 C 859.01 -3.26396 0.912073 0
M  V30 8960 C 858.183 -3.84171 2.0912 0
M  V30 8961 C 857.242 -4.9721 1.72246 0
M  V30 8962 O 856.268 -5.14136 2.44239 0
M  V30 8963 N 857.47 -5.76831 0.651611 0
M  V30 8964 H 860.235 -2.01266 2.22063 0
M  V30 8965 H 857.796 -0.975033 1.29247 0
M  V30 8966 H 859.788 -3.99499 0.646707 0
M  V30 8967 H 858.358 -3.12579 0.0359079 0
M  V30 8968 H 857.578 -3.03148 2.51982 0
M  V30 8969 H 858.866 -4.19503 2.87914 0
M  V30 8970 H 858.264 -5.65675 0.0536678 0
M  V30 8971 H 856.821 -6.50272 0.44605 0
M  V30 8972 N 860.254 -1.20106 -1.0204 0
M  V30 8973 C 861.201 -0.946468 -2.10501 0
M  V30 8974 C 862.171 0.121902 -1.65652 0
M  V30 8975 O 863.356 -0.0220244 -1.90787 0
M  V30 8976 C 860.496 -0.500499 -3.41451 0
M  V30 8977 C 859.609 -1.63659 -3.998 0
M  V30 8978 C 858.744 -1.14131 -5.18794 0
M  V30 8979 C 857.783 -2.25074 -5.69217 0
M  V30 8980 N 856.92 -1.76791 -6.79477 0
M  V30 8981 H 861.76 -1.87506 -2.31615 0
M  V30 8982 H 859.297 -0.934693 -1.13587 0
M  V30 8983 H 861.255 -0.223276 -4.16602 0
M  V30 8984 H 859.885 0.391099 -3.20422 0
M  V30 8985 H 858.937 -2.02882 -3.21781 0
M  V30 8986 H 860.249 -2.47213 -4.33229 0
M  V30 8987 H 859.403 -0.819826 -6.01135 0
M  V30 8988 H 858.142 -0.275615 -4.86921 0
M  V30 8989 H 857.147 -2.58043 -4.85483 0
M  V30 8990 H 858.372 -3.12114 -6.03127 0
M  V30 8991 H 856.318 -0.925428 -6.4944 0
M  V30 8992 H 856.235 -2.53928 -7.12079 0
M  V30 8993 H 857.503 -1.47631 -7.65392 0
M  V30 8994 N 861.732 1.21287 -1.00634 0
M  V30 8995 C 862.682 2.21541 -0.53886 0
M  V30 8996 C 863.666 1.55842 0.400256 0
M  V30 8997 O 864.858 1.75566 0.224889 0
M  V30 8998 C 861.987 3.43047 0.131796 0
M  V30 8999 C 861.073 4.1593 -0.828419 0
M  V30 9000 N 861.464 4.65359 -1.98178 0
M  V30 9001 C 859.762 4.41281 -0.647083 0
M  V30 9002 C 860.463 5.21079 -2.58557 0
M  V30 9003 N 859.439 5.10531 -1.86705 0
M  V30 9004 H 863.241 2.57413 -1.41831 0
M  V30 9005 H 860.755 1.37109 -0.870338 0
M  V30 9006 H 862.752 4.14079 0.484178 0
M  V30 9007 H 861.412 3.08683 1.00721 0
M  V30 9008 H 862.423 4.60896 -2.3621 0
M  V30 9009 H 859.1 4.17107 0.181139 0
M  V30 9010 H 860.49 5.6977 -3.56107 0
M  V30 9011 N 863.21 0.781244 1.36873 0
M  V30 9012 C 864.456 0.350407 1.9975 0
M  V30 9013 C 864.789 -1.07293 1.6187 0
M  V30 9014 O 864.064 -1.73983 0.869491 0
M  V30 9015 C 864.347 0.504834 3.56544 0
M  V30 9016 C 864.2 1.97127 4.04303 0
M  V30 9017 C 865.519 -0.0851272 4.40018 0
M  V30 9018 H 862.638 0.128794 0.725659 0
M  V30 9019 H 865.28 0.98606 1.6241 0
M  V30 9020 H 863.43 -0.0363006 3.88483 0
M  V30 9021 H 865.102 2.57284 3.82887 0
M  V30 9022 H 863.345 2.47676 3.56145 0
M  V30 9023 H 864.016 2.03033 5.13305 0
M  V30 9024 H 866.492 0.376704 4.14391 0
M  V30 9025 H 865.368 0.0530015 5.48874 0
M  V30 9026 H 865.629 -1.17642 4.2616 0
M  V30 9027 N 864.689 -1.48329 0.532571 0
M  V30 9028 C 865.938 -2.017 -0.00259705 0
M  V30 9029 C 866.251 -1.41469 -1.35077 0
M  V30 9030 O 867.457 -1.86354 -1.97445 0
M  V30 9031 C 865.913 -3.59858 -0.0550179 0
M  V30 9032 C 865.521 -4.29073 1.28842 0
M  V30 9033 C 867.265 -4.21066 -0.538878 0
M  V30 9034 C 865.172 -5.79171 1.19644 0
M  V30 9035 H 864.102 -0.753985 -0.00474081 0
M  V30 9036 H 866.753 -1.70565 0.676739 0
M  V30 9037 H 865.135 -3.87846 -0.799486 0
M  V30 9038 H 866.309 -4.12755 2.04865 0
M  V30 9039 H 864.624 -3.79748 1.70822 0
M  V30 9040 H 867.221 -5.31026 -0.6257 0
M  V30 9041 H 867.564 -3.86559 -1.54525 0
M  V30 9042 H 868.097 -3.97517 0.149984 0
M  V30 9043 H 864.836 -6.18257 2.17805 0
M  V30 9044 H 864.356 -5.97895 0.477609 0
M  V30 9045 H 866.035 -6.40875 0.888186 0
M  V30 9046 N 866.167 -0.267825 -1.55308 0
M  V30 9047 C 867.392 0.357487 -2.04296 0
M  V30 9048 C 867.817 1.49222 -1.14518 0
M  V30 9049 O 867.175 1.80741 -0.142292 0
M  V30 9050 C 867.223 0.822899 -3.51085 0
M  V30 9051 O 866.327 1.93078 -3.6441 0
M  V30 9052 H 865.668 0.075025 -0.659748 0
M  V30 9053 H 868.198 -0.399996 -2.00652 0
M  V30 9054 H 868.208 1.12059 -3.92309 0
M  V30 9055 H 866.883 -0.0073562 -4.15899 0
M  V30 9056 H 865.46 1.63618 -3.35087 0
M  V30 9057 N 867.645 1.57599 0.00500368 0
M  V30 9058 C 868.592 2.08106 0.998025 0
M  V30 9059 C 869.562 0.975374 1.34446 0
M  V30 9060 O 870.747 1.24749 1.44369 0
M  V30 9061 C 867.887 2.58496 2.28635 0
M  V30 9062 C 867 3.82947 1.99939 0
M  V30 9063 C 866.135 4.21857 3.22816 0
M  V30 9064 C 865.174 5.39159 2.89783 0
M  V30 9065 N 864.311 5.73386 4.05183 0
M  V30 9066 H 869.151 2.92684 0.560385 0
M  V30 9067 H 866.688 1.44692 0.265053 0
M  V30 9068 H 868.646 2.85787 3.03943 0
M  V30 9069 H 867.276 1.768 2.70077 0
M  V30 9070 H 866.328 3.62594 1.1502 0
M  V30 9071 H 867.64 4.68358 1.71588 0
M  V30 9072 H 866.794 4.50404 4.06474 0
M  V30 9073 H 865.533 3.35145 3.54301 0
M  V30 9074 H 864.538 5.1034 2.04532 0
M  V30 9075 H 865.763 6.27543 2.59551 0
M  V30 9076 H 863.709 4.89632 4.36574 0
M  V30 9077 H 863.626 6.53359 3.80339 0
M  V30 9078 H 864.894 6.06522 4.89644 0
M  V30 9079 N 869.123 -0.277682 1.55134 0
M  V30 9080 C 870.372 -1.00766 1.74726 0
M  V30 9081 C 870.685 -1.87617 0.553092 0
M  V30 9082 O 871.891 -2.64058 0.631318 0
M  V30 9083 C 870.347 -1.84147 3.09221 0
M  V30 9084 C 869.955 -1.02186 4.3619 0
M  V30 9085 C 871.699 -2.56604 3.38164 0
M  V30 9086 C 869.606 -1.84978 5.61727 0
M  V30 9087 H 868.536 -0.379948 0.651273 0
M  V30 9088 H 871.187 -0.263543 1.81598 0
M  V30 9089 H 869.569 -2.62637 2.96375 0
M  V30 9090 H 870.743 -0.281459 4.5994 0
M  V30 9091 H 869.058 -0.412054 4.14356 0
M  V30 9092 H 871.655 -3.18942 4.29162 0
M  V30 9093 H 871.998 -3.26647 2.58085 0
M  V30 9094 H 872.531 -1.85147 3.52087 0
M  V30 9095 H 869.27 -1.19365 6.4454 0
M  V30 9096 H 868.79 -2.56628 5.42128 0
M  V30 9097 H 870.469 -2.42458 5.99853 0
M  V30 9098 N 870.601 -1.47988 -0.541979 0
M  V30 9099 C 871.511 -1.64276 -1.67483 0
M  V30 9100 C 872.527 -0.525387 -1.65879 0
M  V30 9101 O 873.703 -0.794912 -1.85049 0
M  V30 9102 C 870.768 -1.66744 -3.03969 0
M  V30 9103 C 869.829 -2.90021 -3.16522 0
M  V30 9104 C 869.062 -2.92362 -4.46498 0
M  V30 9105 O 869.285 -2.03462 -5.32878 0
M  V30 9106 O 868.219 -3.84399 -4.63164 0
M  V30 9107 H 872.045 -2.60164 -1.5668 0
M  V30 9108 H 869.63 -1.31249 -0.71372 0
M  V30 9109 H 871.512 -1.70958 -3.85164 0
M  V30 9110 H 870.187 -0.740277 -3.15122 0
M  V30 9111 H 869.094 -2.91345 -2.34667 0
M  V30 9112 H 870.427 -3.82082 -3.10281 0
M  V30 9113 N 872.079 0.78992 -1.36375 0
M  V30 9114 C 873.042 1.88414 -1.30509 0
M  V30 9115 C 874.042 1.59384 -0.2129 0
M  V30 9116 O 875.232 1.67805 -0.467651 0
M  V30 9117 C 872.364 3.25188 -1.02302 0
M  V30 9118 H 873.557 1.95031 -2.27822 0
M  V30 9119 H 871.11 0.987664 -1.2114 0
M  V30 9120 H 871.845 3.24254 -0.0544486 0
M  V30 9121 H 871.63 3.47647 -1.81338 0
M  V30 9122 H 873.12 4.05252 -1.00801 0
M  V30 9123 N 873.557 1.20646 1.01402 0
M  V30 9124 C 874.52 0.959314 2.08158 0
M  V30 9125 C 875.52 -0.0661558 1.60664 0
M  V30 9126 O 876.71 0.170177 1.73367 0
M  V30 9127 C 873.842 0.444785 3.37986 0
M  V30 9128 H 875.035 1.90631 2.31517 0
M  V30 9129 H 872.588 1.02219 1.18241 0
M  V30 9130 H 873.323 -0.507553 3.20304 0
M  V30 9131 H 873.108 1.18435 3.73785 0
M  V30 9132 H 874.598 0.291443 4.16582 0
M  V30 9133 N 875.035 -1.20752 1.01276 0
M  V30 9134 C 876.312 -1.85676 0.615112 0
M  V30 9135 C 876.692 -1.90623 -0.906976 0
M  V30 9136 O 876.04 -1.41124 -1.79712 0
M  V30 9137 C 876.25 -3.2552 1.25847 0
M  V30 9138 C 877.598 -4.0184 1.37148 0
M  V30 9139 O 878.622 -3.3486 1.21438 0
M  V30 9140 O 877.481 -5.21783 1.62495 0
M  V30 9141 H 874.575 -0.799437 0.211729 0
M  V30 9142 H 877.121 -1.28372 1.10989 0
M  V30 9143 H 875.893 -3.16664 2.29869 0
M  V30 9144 H 875.516 -3.90452 0.750524 0
M  V30 9145 N 876.513 -0.788492 -1.36457 0
M  V30 9146 C 877.761 -0.359749 -1.98872 0
M  V30 9147 C 878.082 1.07197 -1.62892 0
M  V30 9148 O 877.352 1.73875 -0.902463 0
M  V30 9149 H 875.932 -0.130029 -0.735596 0
M  V30 9150 H 878.594 -1.01033 -1.66668 0
M  V30 9151 H 877.69 -0.450835 -3.08827 0
M  V30 9152 N 877.991 1.48044 -0.54043 0
M  V30 9153 C 879.407 1.58354 -0.199006 0
M  V30 9154 C 879.607 1.54118 1.29807 0
M  V30 9155 O 878.663 1.43573 2.07709 0
M  V30 9156 C 879.976 2.89563 -0.810797 0
M  V30 9157 C 881.524 3.03113 -0.780486 0
M  V30 9158 C 881.999 4.36997 -1.37104 0
M  V30 9159 N 883.49 4.43591 -1.33347 0
M  V30 9160 C 884.225 5.45714 -1.76021 0
M  V30 9161 N 883.721 6.54738 -2.26473 0
M  V30 9162 N 885.514 5.36659 -1.67194 0
M  V30 9163 H 877.665 1.49041 -1.51329 0
M  V30 9164 H 879.928 0.708309 -0.630081 0
M  V30 9165 H 879.634 2.9835 -1.86227 0
M  V30 9166 H 879.508 3.76053 -0.293977 0
M  V30 9167 H 881.895 2.93932 0.262246 0
M  V30 9168 H 881.976 2.18207 -1.33489 0
M  V30 9169 H 881.62 4.46932 -2.41276 0
M  V30 9170 H 881.55 5.20607 -0.792229 0
M  V30 9171 H 884.041 3.65391 -0.964259 0
M  V30 9172 H 884.354 7.28814 -2.57002 0
M  V30 9173 H 882.699 6.55673 -2.30473 0
M  V30 9174 H 885.89 4.50382 -1.27569 0
M  V30 9175 H 886.063 6.16113 -2.00771 0
M  V30 9176 N 879.47 0.276058 1.55163 0
M  V30 9177 C 880.716 -0.340959 1.99913 0
M  V30 9178 C 881.049 -1.55434 1.16422 0
M  V30 9179 O 880.324 -1.93081 0.234517 0
M  V30 9180 C 880.607 -0.722211 3.52783 0
M  V30 9181 C 880.46 0.498575 4.47028 0
M  V30 9182 C 881.779 -1.5583 4.11589 0
M  V30 9183 H 878.898 -0.122455 0.726756 0
M  V30 9184 H 881.54 0.38319 1.86096 0
M  V30 9185 H 879.69 -1.33919 3.64689 0
M  V30 9186 H 881.362 1.13713 4.47065 0
M  V30 9187 H 879.605 1.13646 4.18649 0
M  V30 9188 H 880.276 0.188041 5.5168 0
M  V30 9189 H 882.752 -1.03722 4.02965 0
M  V30 9190 H 881.628 -1.79387 5.1876 0
M  V30 9191 H 881.889 -2.53963 3.61877 0
M  V30 9192 N 880.948 -1.576 0.00335426 0
M  V30 9193 C 882.194 -1.90996 -0.681799 0
M  V30 9194 C 882.527 -0.877643 -1.73237 0
M  V30 9195 O 881.802 0.103183 -1.94226 0
M  V30 9196 C 882.085 -3.34961 -1.32187 0
M  V30 9197 C 881.938 -4.48911 -0.28261 0
M  V30 9198 C 883.257 -3.78408 -2.24711 0
M  V30 9199 H 880.376 -0.694596 -0.246386 0
M  V30 9200 H 883.018 -1.89919 0.055336 0
M  V30 9201 H 881.168 -3.36008 -1.95014 0
M  V30 9202 H 882.84 -4.59999 0.346241 0
M  V30 9203 H 881.083 -4.32 0.394768 0
M  V30 9204 H 881.754 -5.46609 -0.769576 0
M  V30 9205 H 884.23 -3.78934 -1.71897 0
M  V30 9206 H 883.106 -4.79885 -2.66461 0
M  V30 9207 H 883.367 -3.12464 -3.1276 0
M  V30 9208 N 882.426 0.269451 -1.5528 0
M  V30 9209 C 883.656 1.01724 -1.79821 0
M  V30 9210 C 884.064 1.80298 -0.573532 0
M  V30 9211 O 883.407 1.77666 0.466963 0
M  V30 9212 C 883.469 2.02043 -2.97353 0
M  V30 9213 C 883.133 1.42375 -4.34256 0
M  V30 9214 C 884.13 0.837611 -5.13108 0
M  V30 9215 C 881.815 1.44988 -4.8092 0
M  V30 9216 C 883.809 0.285557 -6.3676 0
M  V30 9217 C 881.496 0.893969 -6.04526 0
M  V30 9218 C 882.494 0.312809 -6.82283 0
M  V30 9219 O 882.182 -0.234582 -8.03558 0
M  V30 9220 H 881.914 0.30604 -0.602757 0
M  V30 9221 H 884.468 0.30454 -2.0313 0
M  V30 9222 H 882.698 2.77082 -2.69745 0
M  V30 9223 H 884.387 2.6298 -3.09187 0
M  V30 9224 H 885.153 0.81009 -4.78187 0
M  V30 9225 H 881.032 1.89162 -4.20403 0
M  V30 9226 H 884.576 -0.168696 -6.97396 0
M  V30 9227 H 880.473 0.918742 -6.38928 0
M  V30 9228 H 881.241 -0.124282 -8.18406 0
M  V30 9229 N 883.904 1.48273 0.534124 0
M  V30 9230 C 884.814 1.65162 1.66609 0
M  V30 9231 C 885.83 0.534177 1.65598 0
M  V30 9232 O 887.006 0.804715 1.84625 0
M  V30 9233 C 884.071 1.68354 3.03081 0
M  V30 9234 C 883.132 2.91696 3.1498 0
M  V30 9235 C 882.365 2.94725 4.44941 0
M  V30 9236 O 882.588 2.06285 5.31792 0
M  V30 9237 O 881.522 3.8685 4.61119 0
M  V30 9238 H 885.348 2.60991 1.55298 0
M  V30 9239 H 882.933 1.31626 0.706749 0
M  V30 9240 H 884.815 1.72998 3.84252 0
M  V30 9241 H 883.49 0.756978 3.14725 0
M  V30 9242 H 882.397 2.92586 2.33119 0
M  V30 9243 H 883.73 3.83722 3.0825 0
M  V30 9244 N 885.382 -0.782676 1.36792 0
M  V30 9245 C 886.612 -1.56934 1.3437 0
M  V30 9246 C 887.02 -1.89049 -0.0754828 0
M  V30 9247 O 886.363 -1.51103 -1.04467 0
M  V30 9248 C 886.425 -2.91311 2.10661 0
M  V30 9249 C 886.089 -2.81889 3.59705 0
M  V30 9250 C 887.086 -2.53668 4.53815 0
M  V30 9251 C 884.771 -3.00254 4.02682 0
M  V30 9252 C 886.765 -2.43925 5.8888 0
M  V30 9253 C 884.452 -2.90132 5.37835 0
M  V30 9254 C 885.45 -2.62006 6.30747 0
M  V30 9255 O 885.138 -2.5189 7.63418 0
M  V30 9256 H 884.87 -0.493194 0.462316 0
M  V30 9257 H 887.424 -0.978791 1.80579 0
M  V30 9258 H 885.654 -3.52443 1.59125 0
M  V30 9259 H 887.343 -3.52632 2.01012 0
M  V30 9260 H 888.109 -2.39176 4.21924 0
M  V30 9261 H 883.988 -3.21151 3.30731 0
M  V30 9262 H 887.532 -2.21892 6.6137 0
M  V30 9263 H 883.429 -3.04189 5.69332 0
M  V30 9264 H 884.197 -2.67321 7.73616 0
M  V30 9265 N 886.86 -1.21182 -1.00761 0
M  V30 9266 C 887.792 -0.926523 -2.09638 0
M  V30 9267 C 888.805 0.0892511 -1.62555 0
M  V30 9268 O 889.994 -0.142915 -1.77927 0
M  V30 9269 C 887.094 -0.369175 -3.36883 0
M  V30 9270 C 886.267 -1.43866 -4.13063 0
M  V30 9271 C 885.326 -0.891015 -5.18601 0
M  V30 9272 O 884.352 -1.57384 -5.47009 0
M  V30 9273 N 885.554 0.295057 -5.7975 0
M  V30 9274 H 888.319 -1.8638 -2.34697 0
M  V30 9275 H 885.88 -1.11671 -1.17223 0
M  V30 9276 H 887.872 0.011534 -4.04698 0
M  V30 9277 H 886.442 0.472861 -3.09003 0
M  V30 9278 H 885.662 -1.99332 -3.40089 0
M  V30 9279 H 886.95 -2.15866 -4.60738 0
M  V30 9280 H 886.348 0.8669 -5.59018 0
M  V30 9281 H 884.905 0.617306 -6.4887 0
M  V30 9282 N 888.338 1.20213 -1.01915 0
M  V30 9283 C 889.615 1.85348 -0.62495 0
M  V30 9284 C 889.995 1.91101 0.896854 0
M  V30 9285 O 889.343 1.42075 1.78961 0
M  V30 9286 C 889.553 3.24849 -1.27571 0
M  V30 9287 C 890.901 4.01107 -1.39277 0
M  V30 9288 O 891.925 3.34211 -1.23212 0
M  V30 9289 O 890.784 5.20914 -1.6526 0
M  V30 9290 H 887.878 0.798303 -0.215965 0
M  V30 9291 H 890.424 1.27782 -1.11669 0
M  V30 9292 H 889.196 3.1544 -2.31545 0
M  V30 9293 H 888.819 3.90049 -0.77122 0
M  V30 9294 N 889.816 0.795718 1.36037 0
M  V30 9295 C 890.763 0.196548 2.29962 0
M  V30 9296 C 891.733 -0.663213 1.52285 0
M  V30 9297 O 892.918 -0.610574 1.80767 0
M  V30 9298 C 890.058 -0.657639 3.38776 0
M  V30 9299 C 889.171 0.221358 4.31433 0
M  V30 9300 C 888.306 -0.6398 5.27333 0
M  V30 9301 C 887.345 0.240265 6.11628 0
M  V30 9302 N 886.482 -0.580237 6.99698 0
M  V30 9303 H 891.322 1.00295 2.80615 0
M  V30 9304 H 888.859 0.506147 1.38118 0
M  V30 9305 H 890.817 -1.16793 4.00519 0
M  V30 9306 H 889.447 -1.42941 2.89426 0
M  V30 9307 H 888.499 0.84967 3.70789 0
M  V30 9308 H 889.811 0.899195 4.90628 0
M  V30 9309 H 888.965 -1.21566 5.94396 0
M  V30 9310 H 887.704 -1.35124 4.68607 0
M  V30 9311 H 886.709 0.828474 5.43522 0
M  V30 9312 H 887.934 0.949403 6.72431 0
M  V30 9313 H 885.88 -1.27585 6.43473 0
M  V30 9314 H 885.797 0.0397853 7.5599 0
M  V30 9315 H 887.065 -1.13972 7.71123 0
M  V30 9316 N 891.294 -1.47756 0.548274 0
M  V30 9317 C 892.705 -1.8636 0.112547 0
M  V30 9318 C 893.056 -1.45589 -1.31523 0
M  V30 9319 O 892.181 -0.854874 -1.98799 0
M  V30 9320 C 892.776 -3.38224 0.197473 0
M  V30 9321 C 891.335 -3.75954 -0.183163 0
M  V30 9322 C 890.482 -2.7181 0.549059 0
M  V30 9323 H 893.433 -1.394 0.758506 0
M  V30 9324 H 893.454 -3.75957 -0.586217 0
M  V30 9325 H 892.966 -3.67868 1.23673 0
M  V30 9326 H 891.067 -3.51926 -1.22387 0
M  V30 9327 H 891.18 -4.78801 0.169178 0
M  V30 9328 H 889.544 -2.54699 -0.00682862 0
M  V30 9329 H 890.327 -3.04296 1.5893 0
M  V30 9330 N 892.772 -0.284283 -1.55015 0
M  V30 9331 C 894.018 0.330352 -2.00091 0
M  V30 9332 C 894.351 1.54814 -1.17244 0
M  V30 9333 O 893.626 1.92954 -0.244753 0
M  V30 9334 C 893.909 0.703492 -3.53161 0
M  V30 9335 C 893.762 -0.522275 -4.46758 0
M  V30 9336 C 895.081 1.53645 -4.12409 0
M  V30 9337 H 892.2 0.118599 -0.727395 0
M  V30 9338 H 894.842 -0.393054 -1.8589 0
M  V30 9339 H 892.992 1.31983 -3.65394 0
M  V30 9340 H 894.664 -1.16082 -4.46456 0
M  V30 9341 H 892.907 -1.15865 -4.1804 0
M  V30 9342 H 893.578 -0.217295 -5.51572 0
M  V30 9343 H 896.054 1.01583 -4.0351 0
M  V30 9344 H 894.93 1.76633 -5.19704 0
M  V30 9345 H 895.191 2.5204 -3.63219 0
M  V30 9346 N 894.251 1.57596 -0.0117121 0
M  V30 9347 C 895.183 2.06025 1.0043 0
M  V30 9348 C 896.196 0.980348 1.29973 0
M  V30 9349 O 897.385 1.25691 1.26744 0
M  V30 9350 C 894.485 2.45514 2.33615 0
M  V30 9351 C 893.658 3.76378 2.22842 0
M  V30 9352 C 892.717 4.02606 3.38814 0
M  V30 9353 O 891.743 4.73108 3.16477 0
M  V30 9354 N 892.945 3.51416 4.62047 0
M  V30 9355 H 895.71 2.93811 0.591206 0
M  V30 9356 H 893.271 1.60947 0.175427 0
M  V30 9357 H 895.263 2.60166 3.09993 0
M  V30 9358 H 893.833 1.63186 2.66625 0
M  V30 9359 H 893.053 3.71691 1.313 0
M  V30 9360 H 894.341 4.62149 2.12829 0
M  V30 9361 H 893.739 2.94346 4.83091 0
M  V30 9362 H 892.296 3.71377 5.35651 0
M  V30 9363 N 895.729 -0.261212 1.5542 0
M  V30 9364 C 896.975 -0.992699 1.76843 0
M  V30 9365 C 897.308 -1.8551 0.574428 0
M  V30 9366 O 896.583 -1.89739 -0.427713 0
M  V30 9367 C 896.866 -1.86532 3.08022 0
M  V30 9368 C 896.719 -1.03206 4.378 0
M  V30 9369 C 898.038 -2.85036 3.35324 0
M  V30 9370 H 895.157 -0.359473 0.643388 0
M  V30 9371 H 897.799 -0.264214 1.88154 0
M  V30 9372 H 895.949 -2.48644 2.9851 0
M  V30 9373 H 897.621 -0.430743 4.59285 0
M  V30 9374 H 895.864 -0.335911 4.32497 0
M  V30 9375 H 896.535 -1.6761 5.25938 0
M  V30 9376 H 899.011 -2.3306 3.44706 0
M  V30 9377 H 897.887 -3.43226 4.28354 0
M  V30 9378 H 898.148 -3.60768 2.55537 0
M  V30 9379 N 897.207 -1.48554 -0.526253 0
M  V30 9380 C 898.437 -1.60197 -1.30463 0
M  V30 9381 C 898.845 -0.26278 -1.87366 0
M  V30 9382 O 898.188 0.758537 -1.67308 0
M  V30 9383 C 898.25 -2.59223 -2.49085 0
M  V30 9384 C 897.914 -4.04199 -2.13241 0
M  V30 9385 C 898.911 -4.91771 -1.68694 0
M  V30 9386 C 896.596 -4.49762 -2.2365 0
M  V30 9387 C 898.59 -6.22934 -1.35026 0
M  V30 9388 C 896.277 -5.80945 -1.89594 0
M  V30 9389 C 897.275 -6.67354 -1.45353 0
M  V30 9390 O 896.963 -7.96096 -1.11745 0
M  V30 9391 H 896.695 -0.54284 -0.402866 0
M  V30 9392 H 899.249 -1.95137 -0.641157 0
M  V30 9393 H 897.479 -2.19412 -3.18426 0
M  V30 9394 H 899.168 -2.60661 -3.11144 0
M  V30 9395 H 899.934 -4.57806 -1.6012 0
M  V30 9396 H 895.813 -3.8269 -2.5704 0
M  V30 9397 H 899.357 -6.90334 -1.00422 0
M  V30 9398 H 895.254 -6.14444 -1.9781 0
M  V30 9399 H 896.022 -8.08882 -1.25111 0
M  V30 9400 N 898.685 0.775411 -1.37205 0
M  V30 9401 C 899.91 1.5696 -1.35567 0
M  V30 9402 C 900.335 1.88012 0.0575554 0
M  V30 9403 O 899.693 1.48954 1.03355 0
M  V30 9404 C 899.741 2.85886 -2.19776 0
M  V30 9405 O 898.845 3.80103 -1.59987 0
M  V30 9406 H 898.186 0.475583 -0.463375 0
M  V30 9407 H 900.716 0.96001 -1.80679 0
M  V30 9408 H 900.726 3.35024 -2.32859 0
M  V30 9409 H 899.401 2.62613 -3.22502 0
M  V30 9410 H 897.978 3.38736 -1.55924 0
M  V30 9411 N 900.163 1.21714 1.00117 0
M  V30 9412 C 901.11 0.979837 2.08968 0
M  V30 9413 C 902.08 -0.0955324 1.65825 0
M  V30 9414 O 903.265 0.0523742 1.90728 0
M  V30 9415 C 900.405 0.554758 3.40612 0
M  V30 9416 C 899.518 1.69999 3.97145 0
M  V30 9417 C 898.653 1.2237 5.16913 0
M  V30 9418 C 897.692 2.34101 5.65564 0
M  V30 9419 N 896.829 1.87579 6.76579 0
M  V30 9420 H 901.669 1.91167 2.28602 0
M  V30 9421 H 899.206 0.952645 1.12085 0
M  V30 9422 H 901.164 0.289526 4.16194 0
M  V30 9423 H 899.794 -0.340073 3.21004 0
M  V30 9424 H 898.846 2.07976 3.18512 0
M  V30 9425 H 900.158 2.54074 4.29241 0
M  V30 9426 H 899.312 0.915358 5.99755 0
M  V30 9427 H 898.051 0.353045 4.8642 0
M  V30 9428 H 897.056 2.65734 4.81316 0
M  V30 9429 H 898.281 3.21669 5.98085 0
M  V30 9430 H 896.227 1.02863 6.47885 0
M  V30 9431 H 896.144 2.65225 7.07949 0
M  V30 9432 H 897.412 1.5979 7.62947 0
M  V30 9433 N 901.641 -1.19671 1.02551 0
M  V30 9434 C 902.604 -2.20987 0.608055 0
M  V30 9435 C 903.604 -1.5745 -0.326534 0
M  V30 9436 O 904.794 -1.73827 -0.114003 0
M  V30 9437 C 901.926 -3.4072 -0.11074 0
M  V30 9438 H 903.119 -2.59434 1.50446 0
M  V30 9439 H 900.672 -1.3329 0.816307 0
M  V30 9440 H 901.407 -3.07787 -1.02165 0
M  V30 9441 H 901.192 -3.88069 0.560772 0
M  V30 9442 H 902.682 -4.15776 -0.389848 0
M  V30 9443 N 903.119 -0.802921 -1.35613 0
M  V30 9444 C 904.347 -0.39393 -2.03115 0
M  V30 9445 C 904.762 0.993961 -1.60517 0
M  V30 9446 O 904.119 1.63984 -0.800973 0
M  V30 9447 C 904.17 -0.463486 -3.58516 0
M  V30 9448 O 903.891 -1.79666 -3.99565 0
M  V30 9449 C 905.392 -0.0468377 -4.43275 0
M  V30 9450 H 902.612 -0.160519 -0.651517 0
M  V30 9451 H 905.156 -1.08552 -1.73311 0
M  V30 9452 H 903.311 0.179821 -3.86982 0
M  V30 9453 H 903.725 -1.75688 -4.942 0
M  V30 9454 H 905.199 -0.146626 -5.51805 0
M  V30 9455 H 905.676 1.00741 -4.2749 0
M  V30 9456 H 906.282 -0.663158 -4.20098 0
M  V30 9457 N 904.597 1.47463 -0.556102 0
M  V30 9458 C 905.56 2.28478 0.181743 0
M  V30 9459 C 906.56 1.36886 0.843738 0
M  V30 9460 O 907.75 1.59527 0.69977 0
M  V30 9461 C 904.882 3.16534 1.26566 0
M  V30 9462 H 906.075 2.95182 -0.529892 0
M  V30 9463 H 903.628 1.53134 -0.313005 0
M  V30 9464 H 904.363 2.5452 2.00973 0
M  V30 9465 H 904.148 3.83939 0.795798 0
M  V30 9466 H 905.638 3.77579 1.78393 0
M  V30 9467 N 906.075 0.2925 1.54862 0
M  V30 9468 C 907.303 -0.322113 2.04377 0
M  V30 9469 C 907.718 -1.48164 1.17016 0
M  V30 9470 O 907.075 -1.81466 0.19395 0
M  V30 9471 C 907.126 -0.786506 3.5284 0
M  V30 9472 O 906.847 0.326863 4.36879 0
M  V30 9473 C 908.348 -1.46715 4.18318 0
M  V30 9474 H 905.568 -0.0712074 0.667211 0
M  V30 9475 H 908.112 0.429657 1.99935 0
M  V30 9476 H 906.267 -1.48832 3.5767 0
M  V30 9477 H 906.681 -0.0331558 5.2449 0
M  V30 9478 H 908.155 -1.74333 5.23748 0
M  V30 9479 H 908.632 -2.40443 3.67538 0
M  V30 9480 H 909.238 -0.808735 4.1754 0
M  V30 9481 N 907.553 -1.57587 0.0200696 0
M  V30 9482 C 908.802 -1.90602 -0.659822 0
M  V30 9483 C 909.115 -0.897216 -1.73808 0
M  V30 9484 O 910.321 -1.11829 -2.47399 0
M  V30 9485 C 908.777 -3.38416 -1.22484 0
M  V30 9486 C 908.385 -4.47637 -0.180339 0
M  V30 9487 C 910.129 -3.80513 -1.88176 0
M  V30 9488 C 908.036 -5.86542 -0.756482 0
M  V30 9489 H 906.966 -0.711272 -0.250216 0
M  V30 9490 H 909.617 -1.83308 0.0838942 0
M  V30 9491 H 907.999 -3.40613 -2.01987 0
M  V30 9492 H 909.173 -4.56987 0.591573 0
M  V30 9493 H 907.488 -4.14687 0.377302 0
M  V30 9494 H 910.085 -4.8164 -2.32222 0
M  V30 9495 H 910.428 -3.15091 -2.72073 0
M  V30 9496 H 910.961 -3.80701 -1.15377 0
M  V30 9497 H 907.7 -6.55485 0.0441468 0
M  V30 9498 H 907.22 -5.80816 -1.49709 0
M  V30 9499 H 908.899 -6.3483 -1.249 0
M  V30 9500 N 909.032 0.252966 -1.55557 0
M  V30 9501 C 909.965 1.33928 -1.84766 0
M  V30 9502 C 910.943 1.46653 -0.702254 0
M  V30 9503 O 912.127 1.62963 -0.947375 0
M  V30 9504 C 909.254 2.71348 -2.02701 0
M  V30 9505 C 908.3 2.75804 -3.25322 0
M  V30 9506 S 909.133 2.33025 -4.82141 0
M  V30 9507 C 910.289 3.72382 -5.03073 0
M  V30 9508 H 910.522 1.08951 -2.76617 0
M  V30 9509 H 908.055 0.45364 -1.47585 0
M  V30 9510 H 910.013 3.50478 -2.13718 0
M  V30 9511 H 908.674 2.93566 -1.11703 0
M  V30 9512 H 907.867 3.76713 -3.34819 0
M  V30 9513 H 907.469 2.04713 -3.12999 0
M  V30 9514 H 909.761 4.67828 -4.90044 0
M  V30 9515 H 910.704 3.67824 -6.05071 0
M  V30 9516 H 911.112 3.64614 -4.30949 0
M  V30 9517 N 910.51 1.48831 0.518367 0
M  V30 9518 C 911.442 1.60317 1.63802 0
M  V30 9519 C 912.455 0.486771 1.55352 0
M  V30 9520 O 913.644 0.758111 1.61601 0
M  V30 9521 C 910.744 1.52771 3.02513 0
M  V30 9522 C 909.917 2.79649 3.36326 0
M  V30 9523 C 908.976 2.65396 4.54369 0
M  V30 9524 O 908.002 3.39304 4.57013 0
M  V30 9525 N 909.204 1.75784 5.53245 0
M  V30 9526 H 911.969 2.56878 1.54383 0
M  V30 9527 H 909.53 1.45701 0.705889 0
M  V30 9528 H 911.522 1.40914 3.79375 0
M  V30 9529 H 910.092 0.641381 3.05949 0
M  V30 9530 H 909.312 3.05985 2.48529 0
M  V30 9531 H 910.6 3.63799 3.55707 0
M  V30 9532 H 909.998 1.14961 5.53896 0
M  V30 9533 H 908.555 1.69859 6.29278 0
M  V30 9534 N 911.988 -0.768124 1.37614 0
M  V30 9535 C 913.236 -1.52379 1.3276 0
M  V30 9536 C 913.557 -1.94809 -0.0863564 0
M  V30 9537 O 912.827 -1.66568 -1.03112 0
M  V30 9538 H 911.407 -0.565179 0.488448 0
M  V30 9539 H 914.069 -0.913974 1.72141 0
M  V30 9540 H 913.165 -2.4215 1.96901 0
M  V30 9541 N 913.466 -1.22244 -0.994698 0
M  V30 9542 C 914.396 -1.01513 -2.10279 0
M  V30 9543 C 915.377 0.0633365 -1.69982 0
M  V30 9544 O 916.562 -0.0985268 -1.9395 0
M  V30 9545 C 913.692 -0.59016 -3.42249 0
M  V30 9546 C 912.646 -1.61436 -3.96387 0
M  V30 9547 C 911.972 -1.04528 -5.24383 0
M  V30 9548 C 913.272 -3.00388 -4.27276 0
M  V30 9549 H 914.966 -1.94194 -2.2788 0
M  V30 9550 H 912.512 -0.935094 -1.09508 0
M  V30 9551 H 914.465 -0.432254 -4.19177 0
M  V30 9552 H 913.189 0.372308 -3.24471 0
M  V30 9553 H 911.848 -1.76001 -3.21589 0
M  V30 9554 H 911.496 -0.0742225 -5.02945 0
M  V30 9555 H 911.196 -1.72949 -5.61571 0
M  V30 9556 H 912.72 -0.898922 -6.03947 0
M  V30 9557 H 914.134 -2.89207 -4.95007 0
M  V30 9558 H 912.531 -3.65916 -4.75631 0
M  V30 9559 H 913.601 -3.50456 -3.35125 0
M  V30 9560 N 914.944 1.19125 -1.03184 0
M  V30 9561 C 915.874 2.24675 -0.635889 0
M  V30 9562 C 916.855 1.66321 0.356565 0
M  V30 9563 O 918.04 1.92728 0.238625 0
M  V30 9564 C 915.17 3.47298 0.011069 0
M  V30 9565 C 914.124 4.18345 -0.903979 0
M  V30 9566 C 913.45 5.34561 -0.12197 0
M  V30 9567 C 914.75 4.72816 -2.21907 0
M  V30 9568 H 916.444 2.5805 -1.51825 0
M  V30 9569 H 913.99 1.24039 -0.73146 0
M  V30 9570 H 915.943 4.20333 0.299729 0
M  V30 9571 H 914.667 3.13131 0.928245 0
M  V30 9572 H 913.326 3.47196 -1.17688 0
M  V30 9573 H 912.974 4.9664 0.797334 0
M  V30 9574 H 912.674 5.83029 -0.731498 0
M  V30 9575 H 914.198 6.10391 0.159881 0
M  V30 9576 H 915.612 5.3759 -1.99173 0
M  V30 9577 H 914.009 5.31782 -2.78078 0
M  V30 9578 H 915.079 3.9072 -2.87168 0
M  V30 9579 N 916.422 0.810101 1.35185 0
M  V30 9580 C 917.838 0.494269 1.51754 0
M  V30 9581 C 918.038 -0.983907 1.75845 0
M  V30 9582 O 917.094 -1.76882 1.80191 0
M  V30 9583 C 918.407 1.34268 2.69059 0
M  V30 9584 C 919.955 1.33848 2.82938 0
M  V30 9585 C 920.43 2.17109 4.03271 0
M  V30 9586 N 921.921 2.14664 4.10456 0
M  V30 9587 C 922.656 2.75843 5.02691 0
M  V30 9588 N 922.152 3.45962 6.00235 0
M  V30 9589 N 923.945 2.65465 4.95464 0
M  V30 9590 H 916.096 1.76736 1.17805 0
M  V30 9591 H 918.359 0.752429 0.576676 0
M  V30 9592 H 918.065 2.39183 2.57845 0
M  V30 9593 H 917.939 0.998362 3.63748 0
M  V30 9594 H 920.326 0.29716 2.936 0
M  V30 9595 H 920.407 1.72269 1.89095 0
M  V30 9596 H 920.051 3.21283 3.93369 0
M  V30 9597 H 919.981 1.76046 4.96302 0
M  V30 9598 H 922.472 1.63648 3.40628 0
M  V30 9599 H 922.785 3.89922 6.67219 0
M  V30 9600 H 921.13 3.50067 6.00398 0
M  V30 9601 H 924.321 2.1027 4.18215 0
M  V30 9602 H 924.494 3.13433 5.67154 0
M  V30 9603 N 917.9 -1.47166 0.563914 0
M  V30 9604 C 918.81 -2.33885 -0.182977 0
M  V30 9605 C 919.826 -1.48605 -0.905132 0
M  V30 9606 O 921.002 -1.81518 -0.872527 0
M  V30 9607 C 918.067 -3.25433 -1.19558 0
M  V30 9608 C 917.128 -4.26607 -0.480129 0
M  V30 9609 C 916.361 -5.1378 -1.44449 0
M  V30 9610 O 916.584 -5.03531 -2.67979 0
M  V30 9611 O 915.518 -5.94109 -0.965321 0
M  V30 9612 H 919.344 -2.99065 0.528544 0
M  V30 9613 H 916.929 -1.45834 0.324468 0
M  V30 9614 H 918.811 -3.81964 -1.77993 0
M  V30 9615 H 917.486 -2.62873 -1.8889 0
M  V30 9616 H 916.393 -3.73817 0.145583 0
M  V30 9617 H 917.726 -4.919 0.171868 0
M  V30 9618 N 919.378 -0.300708 -1.54705 0
M  V30 9619 C 920.624 0.309111 -2.0043 0
M  V30 9620 C 920.957 1.53562 -1.1888 0
M  V30 9621 O 920.232 1.92683 -0.265205 0
M  V30 9622 C 920.515 0.665995 -3.53888 0
M  V30 9623 C 920.368 -0.56963 -4.46178 0
M  V30 9624 C 921.687 1.49262 -4.14016 0
M  V30 9625 H 918.806 0.110878 -0.728612 0
M  V30 9626 H 921.448 -0.412748 -1.85463 0
M  V30 9627 H 919.598 1.281 -3.66773 0
M  V30 9628 H 921.27 -1.20811 -4.45199 0
M  V30 9629 H 919.513 -1.20292 -4.16788 0
M  V30 9630 H 920.184 -0.275785 -5.51311 0
M  V30 9631 H 922.66 0.972979 -4.04564 0
M  V30 9632 H 921.536 1.71111 -5.21548 0
M  V30 9633 H 921.797 2.48174 -3.65872 0
M  V30 9634 N 920.856 1.57574 -0.0284266 0
M  V30 9635 C 921.786 2.1321 0.952039 0
M  V30 9636 C 922.767 1.04806 1.33977 0
M  V30 9637 O 923.952 1.32635 1.41851 0
M  V30 9638 C 921.082 2.65862 2.23461 0
M  V30 9639 C 920.036 3.79047 1.98765 0
M  V30 9640 C 919.362 4.18124 3.33281 0
M  V30 9641 C 920.662 5.05151 1.32739 0
M  V30 9642 H 922.356 2.95385 0.488705 0
M  V30 9643 H 919.902 1.42092 0.233628 0
M  V30 9644 H 921.855 3.03417 2.92431 0
M  V30 9645 H 920.579 1.80848 2.71959 0
M  V30 9646 H 919.238 3.41929 1.32213 0
M  V30 9647 H 918.886 3.30092 3.79537 0
M  V30 9648 H 918.586 4.94396 3.17563 0
M  V30 9649 H 920.11 4.58262 4.0352 0
M  V30 9650 H 921.524 5.40297 1.91708 0
M  V30 9651 H 919.921 5.86416 1.27421 0
M  V30 9652 H 920.991 4.83969 0.300261 0
M  V30 9653 N 922.334 -0.244713 1.55689 0
M  V30 9654 C 923.559 -0.994157 1.8202 0
M  V30 9655 C 923.984 -1.78079 0.60577 0
M  V30 9656 O 923.342 -1.75748 -0.445221 0
M  V30 9657 C 923.39 -1.90599 3.06111 0
M  V30 9658 O 922.494 -2.99804 2.8318 0
M  V30 9659 H 921.835 -0.282767 0.600782 0
M  V30 9660 H 924.365 -0.26504 2.02876 0
M  V30 9661 H 924.375 -2.32023 3.35603 0
M  V30 9662 H 923.05 -1.32763 3.9414 0
M  V30 9663 H 921.627 -2.62493 2.64862 0
M  V30 9664 N 923.813 -1.49104 -0.510467 0
M  V30 9665 C 925.038 -1.62068 -1.29417 0
M  V30 9666 C 925.463 -0.288432 -1.85875 0
M  V30 9667 O 924.821 0.742667 -1.65391 0
M  V30 9668 C 924.869 -2.68506 -2.40701 0
M  V30 9669 O 923.973 -2.27021 -3.4429 0
M  V30 9670 H 923.314 -0.542778 -0.382476 0
M  V30 9671 H 925.844 -1.95228 -0.612154 0
M  V30 9672 H 925.854 -2.90383 -2.86604 0
M  V30 9673 H 924.529 -3.65216 -1.98973 0
M  V30 9674 H 923.106 -2.15436 -3.04371 0
M  V30 9675 N 925.291 0.760815 -1.38019 0
M  V30 9676 C 926.707 1.06289 -1.19058 0
M  V30 9677 C 926.907 2.01471 -0.0342603 0
M  V30 9678 O 925.963 2.44713 0.62224 0
M  V30 9679 C 927.276 1.6499 -2.51394 0
M  V30 9680 C 928.824 1.77196 -2.58013 0
M  V30 9681 C 929.299 2.3931 -3.90506 0
M  V30 9682 N 930.79 2.46749 -3.92007 0
M  V30 9683 C 931.525 2.95687 -4.91281 0
M  V30 9684 N 931.021 3.44715 -6.00952 0
M  V30 9685 N 932.814 2.94661 -4.78677 0
M  V30 9686 H 924.965 0.129045 -2.12008 0
M  V30 9687 H 927.228 0.119878 -0.94039 0
M  V30 9688 H 926.934 1.0252 -3.36426 0
M  V30 9689 H 926.808 2.64146 -2.6927 0
M  V30 9690 H 929.195 2.38796 -1.7338 0
M  V30 9691 H 929.276 0.767645 -2.4401 0
M  V30 9692 H 928.92 1.78346 -4.75558 0
M  V30 9693 H 928.85 3.40369 -4.01817 0
M  V30 9694 H 931.341 2.12064 -3.12789 0
M  V30 9695 H 931.654 3.80492 -6.72641 0
M  V30 9696 H 929.999 3.42791 -6.04582 0
M  V30 9697 H 933.19 2.55665 -3.92113 0
M  V30 9698 H 933.363 3.32489 -5.56197 0
M  V30 9699 N 926.769 1.22769 0.988202 0
M  V30 9700 C 928.015 1.05665 1.73097 0
M  V30 9701 C 928.348 -0.406615 1.89895 0
M  V30 9702 O 927.623 -1.30132 1.44554 0
M  V30 9703 C 927.906 1.77381 3.13382 0
M  V30 9704 C 927.759 3.31332 3.04203 0
M  V30 9705 C 929.078 1.52999 4.12649 0
M  V30 9706 H 926.197 0.385258 0.628288 0
M  V30 9707 H 928.839 1.51171 1.15097 0
M  V30 9708 H 926.989 1.38696 3.62899 0
M  V30 9709 H 928.661 3.79489 2.6227 0
M  V30 9710 H 926.904 3.60767 2.40894 0
M  V30 9711 H 927.575 3.76692 4.03493 0
M  V30 9712 H 930.051 1.86611 3.71908 0
M  V30 9713 H 928.927 2.05666 5.08913 0
M  V30 9714 H 929.188 0.463615 4.39662 0
M  V30 9715 N 928.247 -1.18576 1.03814 0
M  V30 9716 C 929.475 -1.92437 0.759966 0
M  V30 9717 C 929.89 -1.76031 -0.682526 0
M  V30 9718 O 929.247 -1.08829 -1.46501 0
M  V30 9719 C 929.298 -3.43923 1.11351 0
M  V30 9720 O 929.019 -3.5981 2.49937 0
M  V30 9721 C 930.52 -4.34888 0.859472 0
M  V30 9722 H 927.74 -0.610998 0.277349 0
M  V30 9723 H 930.284 -1.50448 1.38512 0
M  V30 9724 H 928.439 -3.83711 0.533362 0
M  V30 9725 H 928.853 -4.53569 2.63393 0
M  V30 9726 H 930.327 -5.39744 1.15672 0
M  V30 9727 H 930.804 -4.38717 -0.205839 0
M  V30 9728 H 931.41 -4.00795 1.42279 0
M  V30 9729 N 929.725 -0.817259 -1.34754 0
M  V30 9730 C 930.953 -0.415451 -2.02686 0
M  V30 9731 C 931.368 0.97688 -1.61563 0
M  V30 9732 O 930.725 1.63125 -0.818321 0
M  V30 9733 C 930.776 -0.501486 -3.58005 0
M  V30 9734 O 930.497 -1.83893 -3.97637 0
M  V30 9735 C 931.998 -0.0938504 -4.43201 0
M  V30 9736 H 929.218 -0.16742 -0.649778 0
M  V30 9737 H 931.762 -1.10384 -1.7215 0
M  V30 9738 H 929.917 0.138766 -3.87151 0
M  V30 9739 H 930.331 -1.8092 -4.92309 0
M  V30 9740 H 931.805 -0.205145 -5.51619 0
M  V30 9741 H 932.282 0.962011 -4.28535 0
M  V30 9742 H 932.888 -0.707677 -4.19371 0
M  V30 9743 N 931.203 1.46865 -0.571711 0
M  V30 9744 C 932.431 2.06818 -0.0583975 0
M  V30 9745 C 932.846 1.42218 1.24175 0
M  V30 9746 O 932.203 0.523655 1.74826 0
M  V30 9747 C 932.254 3.61281 0.125673 0
M  V30 9748 O 931.975 4.23462 -1.123 0
M  V30 9749 C 933.476 4.38137 0.674604 0
M  V30 9750 H 930.696 0.668948 -0.052438 0
M  V30 9751 H 933.24 1.88656 -0.789251 0
M  V30 9752 H 931.395 3.78908 0.806707 0
M  V30 9753 H 931.809 5.16192 -0.929869 0
M  V30 9754 H 933.283 5.46845 0.752626 0
M  V30 9755 H 933.76 4.05419 1.68915 0
M  V30 9756 H 934.366 4.2529 0.0287979 0
M  V30 9757 N 932.681 0.308908 1.54543 0
M  V30 9758 C 933.928 -0.298036 2.00295 0
M  V30 9759 C 934.256 -1.53285 1.19724 0
M  V30 9760 O 933.511 -1.93917 0.263551 0
M  V30 9761 C 933.81 -0.691522 3.50646 0
M  V30 9762 C 933.476 0.442454 4.48724 0
M  V30 9763 C 932.138 0.753739 4.7526 0
M  V30 9764 C 934.49 1.20488 5.07082 0
M  V30 9765 C 931.818 1.83044 5.57415 0
M  V30 9766 C 934.17 2.27156 5.90409 0
M  V30 9767 C 932.834 2.58882 6.15253 0
M  V30 9768 H 932.104 -0.109059 0.73293 0
M  V30 9769 H 934.751 0.429647 1.86618 0
M  V30 9770 H 933.056 -1.49941 3.61974 0
M  V30 9771 H 934.753 -1.17244 3.83477 0
M  V30 9772 H 931.343 0.189744 4.2818 0
M  V30 9773 H 935.527 0.977653 4.86575 0
M  V30 9774 H 930.783 2.08088 5.749 0
M  V30 9775 H 934.957 2.86687 6.34652 0
M  V30 9776 H 932.584 3.42443 6.78702 0
M  V30 9777 N 934.159 -1.57557 0.0367827 0
M  V30 9778 C 935.106 -2.10679 -0.942499 0
M  V30 9779 C 936.076 -1.01068 -1.31812 0
M  V30 9780 O 937.261 -1.28533 -1.41011 0
M  V30 9781 C 934.401 -2.64467 -2.21701 0
M  V30 9782 C 933.514 -3.88114 -1.89715 0
M  V30 9783 C 932.649 -4.30268 -3.11518 0
M  V30 9784 C 931.688 -5.46652 -2.75387 0
M  V30 9785 N 930.825 -5.83927 -3.89838 0
M  V30 9786 H 935.665 -2.94066 -0.482588 0
M  V30 9787 H 933.202 -1.45344 -0.226597 0
M  V30 9788 H 935.16 -2.93745 -2.96259 0
M  V30 9789 H 933.79 -1.83898 -2.65295 0
M  V30 9790 H 932.842 -3.65516 -1.05366 0
M  V30 9791 H 934.154 -4.72743 -1.5911 0
M  V30 9792 H 933.308 -4.61023 -3.94389 0
M  V30 9793 H 932.047 -3.44421 -3.4529 0
M  V30 9794 H 931.052 -5.15583 -1.90929 0
M  V30 9795 H 932.277 -6.34204 -2.42822 0
M  V30 9796 H 930.223 -5.01035 -4.23438 0
M  V30 9797 H 930.14 -6.63214 -3.62883 0
M  V30 9798 H 931.408 -6.19291 -4.73391 0
M  V30 9799 N 935.637 0.236453 -1.55816 0
M  V30 9800 C 936.862 0.98449 -1.82545 0
M  V30 9801 C 937.287 1.77755 -0.615206 0
M  V30 9802 O 936.645 1.75982 0.435895 0
M  V30 9803 C 936.693 1.88973 -3.07118 0
M  V30 9804 O 935.797 2.98298 -2.84766 0
M  V30 9805 H 935.138 0.279577 -0.602273 0
M  V30 9806 H 937.668 0.254277 -2.03014 0
M  V30 9807 H 937.678 2.3024 -3.36829 0
M  V30 9808 H 936.353 1.30671 -3.94839 0
M  V30 9809 H 934.93 2.61085 -2.6625 0
M  V30 9810 N 937.115 1.49373 0.502552 0
M  V30 9811 C 938.063 1.66411 1.62512 0
M  V30 9812 C 939.057 0.530062 1.60893 0
M  V30 9813 O 940.263 0.709648 1.65421 0
M  V30 9814 H 936.638 0.524707 0.538689 0
M  V30 9815 H 938.609 2.60639 1.45293 0
M  V30 9816 C 937.358 1.74648 3.00655 0
M  V30 9817 H 936.681 2.61285 3.02606 0
M  V30 9818 H 938.121 1.90605 3.78742 0
M  V30 9819 C 936.58 0.490963 3.33303 0
M  V30 9820 O 937.11 -0.384039 3.9986 0
M  V30 9821 N 935.316 0.354375 2.88431 0
M  V30 9822 H 934.863 1.06742 2.34444 0
M  V30 9823 H 934.821 -0.484593 3.10643 0
M  V30 9824 N 938.594 -0.753485 1.38421 0
M  V30 9825 C 939.524 -1.8808 1.38377 0
M  V30 9826 C 940.505 -1.68258 0.249664 0
M  V30 9827 O 941.69 -1.88848 0.45276 0
M  V30 9828 C 938.82 -3.25608 1.20818 0
M  V30 9829 C 937.774 -3.60032 2.31433 0
M  V30 9830 C 937.1 -4.96297 1.9898 0
M  V30 9831 C 938.4 -3.64898 3.73694 0
M  V30 9832 H 940.094 -1.88375 2.32713 0
M  V30 9833 H 937.64 -0.90489 1.12017 0
M  V30 9834 H 939.593 -4.04127 1.19412 0
M  V30 9835 H 938.317 -3.25793 0.229433 0
M  V30 9836 H 936.976 -2.83831 2.32025 0
M  V30 9837 H 936.624 -4.93043 0.995889 0
M  V30 9838 H 936.324 -5.20298 2.73063 0
M  V30 9839 H 937.848 -5.77196 1.99193 0
M  V30 9840 H 939.262 -4.33531 3.75132 0
M  V30 9841 H 937.659 -4.00407 4.46983 0
M  V30 9842 H 938.729 -2.65124 4.06002 0
M  V30 9843 N 940.072 -1.23292 -0.981677 0
M  V30 9844 C 941.3 -1.09088 -1.75805 0
M  V30 9845 C 941.715 0.357746 -1.8538 0
M  V30 9846 O 941.072 1.24751 -1.33205 0
M  V30 9847 C 941.123 -1.70885 -3.1856 0
M  V30 9848 O 940.844 -3.10082 -3.09484 0
M  V30 9849 C 942.345 -1.62106 -4.12597 0
M  V30 9850 H 939.565 -0.38184 -0.55176 0
M  V30 9851 H 942.109 -1.63116 -1.23342 0
M  V30 9852 H 940.264 -1.20893 -3.68054 0
M  V30 9853 H 940.678 -3.40039 -3.99342 0
M  V30 9854 H 942.152 -2.10049 -5.10474 0
M  V30 9855 H 942.629 -0.579642 -4.35358 0
M  V30 9856 H 943.235 -2.11457 -3.69007 0
M  V30 9857 N 941.55 1.18024 -1.04442 0
M  V30 9858 C 942.775 1.92573 -0.770097 0
M  V30 9859 C 943.2 1.75871 0.667169 0
M  V30 9860 O 942.558 1.07136 1.46258 0
M  V30 9861 C 942.606 3.41904 -1.14602 0
M  V30 9862 O 941.71 4.11491 -0.273712 0
M  V30 9863 H 941.051 0.600636 -0.283076 0
M  V30 9864 H 943.581 1.49645 -1.39526 0
M  V30 9865 H 943.591 3.92623 -1.10956 0
M  V30 9866 H 942.266 3.53382 -2.19304 0
M  V30 9867 H 940.843 3.71059 -0.370124 0
M  V30 9868 N 943.028 0.824394 1.34319 0
M  V30 9869 C 943.958 0.262077 2.32025 0
M  V30 9870 C 944.939 -0.622277 1.58309 0
M  V30 9871 O 946.124 -0.548848 1.86283 0
M  V30 9872 C 943.254 -0.57567 3.42496 0
M  V30 9873 C 942.208 0.21167 4.27476 0
M  V30 9874 C 941.534 -0.748913 5.29429 0
M  V30 9875 C 942.834 1.42068 5.02607 0
M  V30 9876 H 944.528 1.07842 2.79304 0
M  V30 9877 H 942.074 0.520022 1.34282 0
M  V30 9878 H 944.027 -0.979251 4.09864 0
M  V30 9879 H 942.751 -1.42508 2.93869 0
M  V30 9880 H 941.41 0.596636 3.61712 0
M  V30 9881 H 941.058 -1.59432 4.77064 0
M  V30 9882 H 940.758 -0.226313 5.87164 0
M  V30 9883 H 942.282 -1.15032 5.99667 0
M  V30 9884 H 943.696 1.09103 5.62823 0
M  V30 9885 H 942.093 1.87903 5.69923 0
M  V30 9886 H 943.163 2.1981 4.32217 0
M  V30 9887 N 944.506 -1.46559 0.579492 0
M  V30 9888 C 945.454 -2.3199 -0.168413 0
M  V30 9889 C 946.448 -1.44288 -0.887551 0
M  V30 9890 O 947.654 -1.60931 -0.806305 0
M  V30 9891 H 944.029 -0.748431 -0.0731799 0
M  V30 9892 H 946 -2.92886 0.570973 0
M  V30 9893 C 944.749 -3.27392 -1.1709 0
M  V30 9894 H 944.072 -3.94853 -0.626958 0
M  V30 9895 H 945.512 -3.89955 -1.66467 0
M  V30 9896 C 943.971 -2.52511 -2.23024 0
M  V30 9897 O 944.501 -2.2858 -3.30324 0
M  V30 9898 N 942.707 -2.1313 -1.97545 0
M  V30 9899 H 942.254 -2.32793 -1.10297 0
M  V30 9900 H 942.212 -1.63348 -2.68635 0
M  V30 9901 N 945.984 -0.3171 -1.54377 0
M  V30 9902 C 947.395 0.172287 -1.85903 0
M  V30 9903 C 947.746 1.52141 -1.23885 0
M  V30 9904 O 946.871 2.0949 -0.542476 0
M  V30 9905 C 947.466 0.319392 -3.37291 0
M  V30 9906 C 946.025 0.752998 -3.68791 0
M  V30 9907 C 945.172 -0.129143 -2.76999 0
M  V30 9908 H 948.123 -0.537597 -1.49317 0
M  V30 9909 H 948.144 1.15137 -3.62662 0
M  V30 9910 H 947.656 -0.662671 -3.82401 0
M  V30 9911 H 945.757 1.74504 -3.2921 0
M  V30 9912 H 945.87 0.561228 -4.75801 0
M  V30 9913 H 944.234 0.394242 -2.5163 0
M  V30 9914 H 945.017 -1.10785 -3.24933 0
M  V30 9915 N 947.462 1.57535 -0.0451378 0
M  V30 9916 C 948.69 1.96761 0.639742 0
M  V30 9917 C 949.105 0.922405 1.64734 0
M  V30 9918 O 948.462 -0.0940535 1.82257 0
M  V30 9919 C 948.513 3.36066 1.33199 0
M  V30 9920 O 948.234 4.36579 0.364757 0
M  V30 9921 C 949.735 3.90015 2.1072 0
M  V30 9922 H 946.955 0.64769 0.175324 0
M  V30 9923 H 949.499 2.04206 -0.109651 0
M  V30 9924 H 947.654 3.2979 2.03266 0
M  V30 9925 H 948.068 5.17432 0.858168 0
M  V30 9926 H 949.542 4.89785 2.54586 0
M  V30 9927 H 950.019 3.25117 2.95288 0
M  V30 9928 H 950.625 3.99609 1.45577 0
M  V30 9929 N 948.94 -0.228186 1.55939 0
M  V30 9930 C 949.87 -1.28607 1.94891 0
M  V30 9931 C 950.851 -1.49236 0.816245 0
M  V30 9932 O 952.036 -1.61531 1.07803 0
M  V30 9933 C 949.166 -2.63719 2.25986 0
M  V30 9934 C 948.12 -2.57757 3.4168 0
M  V30 9935 C 947.446 -3.96837 3.58364 0
M  V30 9936 C 948.746 -2.13116 4.76843 0
M  V30 9937 H 950.44 -0.962531 2.83506 0
M  V30 9938 H 947.986 -0.461577 1.36402 0
M  V30 9939 H 949.939 -3.37878 2.51826 0
M  V30 9940 H 948.663 -2.97747 1.34217 0
M  V30 9941 H 947.322 -1.86055 3.15878 0
M  V30 9942 H 946.97 -4.28162 2.63982 0
M  V30 9943 H 946.67 -3.93731 4.36176 0
M  V30 9944 H 948.194 -4.72668 3.86545 0
M  V30 9945 H 949.608 -2.77015 5.01932 0
M  V30 9946 H 948.005 -2.21083 5.57891 0
M  V30 9947 H 949.075 -1.08326 4.72645 0
M  V30 9948 N 950.418 -1.49637 -0.494624 0
M  V30 9949 C 951.381 -1.66252 -1.57775 0
M  V30 9950 C 952.381 -0.534054 -1.51672 0
M  V30 9951 O 953.571 -0.800637 -1.54711 0
M  V30 9952 C 950.703 -1.66584 -2.97426 0
M  V30 9953 H 951.896 -2.62864 -1.4437 0
M  V30 9954 H 949.449 -1.38764 -0.719323 0
M  V30 9955 H 950.184 -0.715798 -3.16302 0
M  V30 9956 H 949.969 -2.48543 -3.03264 0
M  V30 9957 H 951.459 -1.81474 -3.76108 0
M  V30 9958 N 951.896 0.746133 -1.38819 0
M  V30 9959 C 952.844 1.88137 -1.36774 0
M  V30 9960 C 953.838 1.67508 -0.252495 0
M  V30 9961 O 955.044 1.74985 -0.421935 0
M  V30 9962 H 951.419 0.619116 -0.426849 0
M  V30 9963 H 953.39 1.86978 -2.32555 0
M  V30 9964 C 952.139 3.25703 -1.21708 0
M  V30 9965 H 951.462 3.42168 -2.06788 0
M  V30 9966 H 952.902 4.05361 -1.24332 0
M  V30 9967 C 951.361 3.36816 0.0754257 0
M  V30 9968 O 951.891 3.87742 1.04972 0
M  V30 9969 N 950.097 2.90287 0.134761 0
M  V30 9970 H 949.644 2.49034 -0.658779 0
M  V30 9971 H 949.602 2.98103 0.999109 0
M  V30 9972 N 953.375 1.23811 0.975125 0
M  V30 9973 C 954.338 1.02505 2.05001 0
M  V30 9974 C 955.338 -0.0150084 1.60793 0
M  V30 9975 O 956.528 0.225246 1.72738 0
M  V30 9976 C 953.66 0.552087 3.364 0
M  V30 9977 H 954.853 1.979 2.25335 0
M  V30 9978 H 952.406 1.05929 1.1493 0
M  V30 9979 H 953.141 -0.405394 3.21756 0
M  V30 9980 H 952.926 1.30267 3.69828 0
M  V30 9981 H 954.416 0.423828 4.15444 0
M  V30 9982 N 954.853 -1.17469 1.05066 0
M  V30 9983 C 956.13 -1.83625 0.673872 0
M  V30 9984 C 956.51 -1.93412 -0.845871 0
M  V30 9985 O 955.858 -1.4677 -1.75131 0
M  V30 9986 C 956.068 -3.21352 1.36139 0
M  V30 9987 C 957.416 -3.97274 1.49863 0
M  V30 9988 O 958.44 -3.30827 1.3203 0
M  V30 9989 O 957.299 -5.16349 1.79013 0
M  V30 9990 H 954.393 -0.792297 0.237055 0
M  V30 9991 H 956.939 -1.24776 1.15017 0
M  V30 9992 H 955.711 -3.0919 2.39827 0
M  V30 9993 H 955.334 -3.87867 0.874364 0
M  V30 9994 N 956.331 -0.831506 -1.3388 0
M  V30 9995 C 957.577 -0.433509 -1.98727 0
M  V30 9996 C 957.932 0.994508 -1.64704 0
M  V30 9997 O 957.225 1.68458 -0.912815 0
M  V30 9998 C 957.419 -0.582733 -3.52617 0
M  V30 9999 C 957.248 -2.0237 -4.01592 0
M  V30 10000 C 956.018 -2.6574 -4.29779 0
M  V30 10001 C 958.216 -2.99152 -4.18345 0
M  V30 10002 N 956.198 -4.00988 -4.64846 0
M  V30 10003 C 957.569 -4.19329 -4.56687 0
M  V30 10004 C 959.624 -2.95655 -4.00615 0
M  V30 10005 C 958.327 -5.36475 -4.79152 0
M  V30 10006 C 960.353 -4.12025 -4.24252 0
M  V30 10007 C 959.715 -5.30955 -4.62889 0
M  V30 10008 H 955.814 -0.20691 -0.75413 0
M  V30 10009 H 958.398 -1.07802 -1.62132 0
M  V30 10010 H 956.569 0.0319301 -3.88387 0
M  V30 10011 H 958.301 -0.156899 -4.04396 0
M  V30 10012 H 955.056 -2.16923 -4.21 0
M  V30 10013 H 955.48 -4.7069 -4.86601 0
M  V30 10014 H 960.122 -2.04842 -3.69864 0
M  V30 10015 H 957.84 -6.27839 -5.08767 0
M  V30 10016 H 961.426 -4.10728 -4.1206 0
M  V30 10017 H 960.306 -6.19504 -4.80817 0
M  V30 10018 N 957.809 1.4625 -0.587256 0
M  V30 10019 C 959.058 2.01571 -0.0722643 0
M  V30 10020 C 959.371 1.46385 1.29733 0
M  V30 10021 O 960.577 1.93554 1.90392 0
M  V30 10022 C 959.033 3.59814 -0.078579 0
M  V30 10023 C 958.641 4.23996 -1.44678 0
M  V30 10024 C 960.385 4.22776 0.382231 0
M  V30 10025 C 958.292 5.74332 -1.41057 0
M  V30 10026 H 957.222 0.753642 -0.0232461 0
M  V30 10027 H 959.873 1.67936 -0.739577 0
M  V30 10028 H 958.255 3.90546 0.654988 0
M  V30 10029 H 959.429 4.04867 -2.20043 0
M  V30 10030 H 957.744 3.73147 -1.84799 0
M  V30 10031 H 960.341 5.32983 0.428182 0
M  V30 10032 H 960.684 3.92027 1.40072 0
M  V30 10033 H 961.217 3.96687 -0.297417 0
M  V30 10034 H 957.956 6.09747 -2.40601 0
M  V30 10035 H 957.476 5.95711 -0.699185 0
M  V30 10036 H 959.155 6.37137 -1.12543 0
M  V30 10037 N 959.287 0.325282 1.54207 0
M  V30 10038 C 960.535 -0.276229 2.00203 0
M  V30 10039 C 960.856 -1.52519 1.21503 0
M  V30 10040 O 960.126 -1.93313 0.317302 0
M  V30 10041 H 958.706 -0.105059 0.739575 0
M  V30 10042 H 961.368 0.442225 1.89817 0
M  V30 10043 H 960.464 -0.531427 3.07542 0
M  V30 10044 N 960.765 -1.57509 0.0534917 0
M  V30 10045 C 961.712 -2.11667 -0.920101 0
M  V30 10046 C 962.682 -1.0246 -1.30733 0
M  V30 10047 O 963.867 -1.30021 -1.39639 0
M  V30 10048 C 961.007 -2.66803 -2.18883 0
M  V30 10049 C 960.12 -3.90104 -1.85588 0
M  V30 10050 C 959.255 -4.33547 -3.06937 0
M  V30 10051 C 958.294 -5.49542 -2.69573 0
M  V30 10052 N 957.431 -5.88029 -3.83623 0
M  V30 10053 H 962.271 -2.94562 -0.451371 0
M  V30 10054 H 959.808 -1.45576 -0.211168 0
M  V30 10055 H 961.766 -2.96871 -2.93127 0
M  V30 10056 H 960.396 -1.86702 -2.63329 0
M  V30 10057 H 959.448 -3.66613 -1.01484 0
M  V30 10058 H 960.76 -4.74404 -1.54087 0
M  V30 10059 H 959.914 -4.6518 -3.89477 0
M  V30 10060 H 958.653 -3.48064 -3.41618 0
M  V30 10061 H 957.658 -5.17579 -1.8545 0
M  V30 10062 H 958.883 -6.36743 -2.36082 0
M  V30 10063 H 956.829 -5.05498 -4.181 0
M  V30 10064 H 956.746 -6.67025 -3.55828 0
M  V30 10065 H 958.014 -6.24277 -4.66796 0
M  V30 10066 N 962.243 0.219913 -1.56058 0
M  V30 10067 C 963.471 0.960915 -1.83232 0
M  V30 10068 C 963.886 1.77878 -0.632828 0
M  V30 10069 O 963.243 1.78093 0.398624 0
M  V30 10070 C 963.294 1.87716 -3.08942 0
M  V30 10071 O 963.015 1.09235 -4.24263 0
M  V30 10072 C 964.516 2.73192 -3.49115 0
M  V30 10073 H 961.736 0.281546 -0.609075 0
M  V30 10074 H 964.28 0.234648 -2.03149 0
M  V30 10075 H 962.435 2.55736 -2.90995 0
M  V30 10076 H 962.849 1.71446 -4.95688 0
M  V30 10077 H 964.323 3.33181 -4.40107 0
M  V30 10078 H 964.8 3.45668 -2.70943 0
M  V30 10079 H 965.406 2.10583 -3.69506 0
M  V30 10080 N 963.721 1.49897 0.486681 0
M  V30 10081 C 964.969 1.59789 1.23742 0
M  V30 10082 C 965.29 0.293056 1.92785 0
M  V30 10083 O 964.56 -0.688534 1.83401 0
M  V30 10084 H 963.14 0.588775 0.459731 0
M  V30 10085 H 965.802 1.86597 0.562808 0
M  V30 10086 H 964.898 2.40121 1.9937 0
M  V30 10087 N 965.199 -0.738761 1.39212 0
M  V30 10088 C 966.427 -1.52801 1.39497 0
M  V30 10089 C 966.842 -1.88797 -0.0114917 0
M  V30 10090 O 966.199 -1.53835 -0.981887 0
M  V30 10091 C 966.25 -2.81793 2.2644 0
M  V30 10092 O 965.971 -2.47328 3.61608 0
M  V30 10093 C 967.472 -3.75844 2.35067 0
M  V30 10094 H 964.692 -0.472322 0.476606 0
M  V30 10095 H 967.236 -0.913153 1.8298 0
M  V30 10096 H 965.391 -3.3962 1.8638 0
M  V30 10097 H 965.805 -3.30162 4.07545 0
M  V30 10098 H 967.279 -4.6326 3.00157 0
M  V30 10099 H 967.756 -4.17329 1.3687 0
M  V30 10100 H 968.362 -3.23937 2.75581 0
M  V30 10101 N 966.677 -1.24326 -0.968545 0
M  V30 10102 C 967.905 -1.10947 -1.74638 0
M  V30 10103 C 968.32 0.338064 -1.85749 0
M  V30 10104 O 967.677 1.23331 -1.3452 0
M  V30 10105 C 967.728 -1.74254 -3.1673 0
M  V30 10106 O 967.449 -3.13347 -3.06178 0
M  V30 10107 C 968.95 -1.66473 -4.10855 0
M  V30 10108 H 966.17 -0.38767 -0.547679 0
M  V30 10109 H 968.714 -1.64415 -1.21605 0
M  V30 10110 H 966.869 -1.2479 -3.66751 0
M  V30 10111 H 967.283 -3.44255 -3.95713 0
M  V30 10112 H 968.757 -2.15452 -5.08217 0
M  V30 10113 H 969.234 -0.625785 -4.34719 0
M  V30 10114 H 969.84 -2.15359 -3.66743 0
M  V30 10115 N 968.156 1.1691 -1.05688 0
M  V30 10116 C 969.104 2.2315 -0.656262 0
M  V30 10117 C 970.098 1.66256 0.324873 0
M  V30 10118 O 971.304 1.7899 0.190397 0
M  V30 10119 H 967.679 0.726527 -0.19407 0
M  V30 10120 H 969.65 2.54233 -1.56231 0
M  V30 10121 C 968.399 3.47661 -0.0522431 0
M  V30 10122 H 967.722 3.91749 -0.798299 0
M  V30 10123 H 969.162 4.23571 0.190626 0
M  V30 10124 C 967.621 3.14709 1.20248 0
M  V30 10125 O 968.151 3.29947 2.29124 0
M  V30 10126 N 966.357 2.68892 1.10207 0
M  V30 10127 H 965.904 2.56692 0.216063 0
M  V30 10128 H 965.862 2.47218 1.94244 0
M  V30 10129 N 969.634 0.838594 1.33437 0
M  V30 10130 C 970.566 0.229006 2.28053 0
M  V30 10131 C 971.579 -0.590103 1.51729 0
M  V30 10132 O 972.768 -0.417218 1.73556 0
M  V30 10133 C 969.868 -0.696251 3.31671 0
M  V30 10134 C 969.041 0.0834606 4.3732 0
M  V30 10135 C 968.1 -0.765097 5.20608 0
M  V30 10136 O 967.126 -0.2044 5.68833 0
M  V30 10137 N 968.328 -2.08249 5.4186 0
M  V30 10138 H 971.093 1.04196 2.81004 0
M  V30 10139 H 968.654 0.697031 1.46127 0
M  V30 10140 H 970.646 -1.26889 3.84293 0
M  V30 10141 H 969.216 -1.40992 2.78998 0
M  V30 10142 H 968.436 0.837481 3.85201 0
M  V30 10143 H 969.724 0.619613 5.05013 0
M  V30 10144 H 969.122 -2.56156 5.04381 0
M  V30 10145 H 967.679 -2.60362 5.97541 0
M  V30 10146 N 971.112 -1.45937 0.595003 0
M  V30 10147 C 972.389 -1.95592 0.0178748 0
M  V30 10148 C 972.769 -1.53758 -1.44643 0
M  V30 10149 O 972.117 -0.794104 -2.14257 0
M  V30 10150 C 972.327 -3.4841 0.202789 0
M  V30 10151 C 973.675 -4.2453 0.0770121 0
M  V30 10152 O 974.699 -3.55954 0.132257 0
M  V30 10153 O 973.558 -5.46479 -0.0484271 0
M  V30 10154 H 970.652 -0.825888 -0.0428702 0
M  V30 10155 H 973.198 -1.56162 0.664184 0
M  V30 10156 H 971.97 -3.71787 1.22027 0
M  V30 10157 H 971.593 -3.947 -0.479376 0
M  V30 10158 N 972.59 -0.333456 -1.54032 0
M  V30 10159 C 973.5 0.536674 -2.28379 0
M  V30 10160 C 974.516 1.12068 -1.33104 0
M  V30 10161 O 975.692 1.13853 -1.66131 0
M  V30 10162 C 972.757 1.67677 -3.03456 0
M  V30 10163 C 971.818 1.12357 -4.14336 0
M  V30 10164 C 971.051 2.20933 -4.85823 0
M  V30 10165 O 971.274 3.41466 -4.569 0
M  V30 10166 O 970.208 1.85795 -5.72507 0
M  V30 10167 H 974.034 -0.0674003 -3.03625 0
M  V30 10168 H 971.619 -0.098823 -1.49073 0
M  V30 10169 H 973.501 2.34032 -3.50438 0
M  V30 10170 H 972.176 2.26684 -2.31076 0
M  V30 10171 H 971.083 0.424827 -3.7168 0
M  V30 10172 H 972.416 0.578497 -4.88789 0
M  V30 10173 N 974.068 1.57479 -0.061844 0
M  V30 10174 C 975.016 2.13346 0.926629 0
M  V30 10175 C 976.01 1.06787 1.31502 0
M  V30 10176 O 977.216 1.25181 1.29343 0
M  V30 10177 H 973.591 0.682046 0.316729 0
M  V30 10178 H 975.562 2.95279 0.430424 0
M  V30 10179 C 974.311 2.70198 2.18834 0
M  V30 10180 H 973.634 3.51859 1.89829 0
M  V30 10181 H 975.074 3.12897 2.86132 0
M  V30 10182 C 973.533 1.64481 2.9402 0
M  V30 10183 O 974.063 1.0639 3.87355 0
M  V30 10184 N 972.269 1.35749 2.56944 0
M  V30 10185 H 971.816 1.83177 1.81119 0
M  V30 10186 H 971.774 0.652469 3.07555 0
M  V30 10187 N 975.546 -0.211634 1.56173 0
M  V30 10188 C 976.479 -1.28982 1.88252 0
M  V30 10189 C 977.457 -1.4474 0.740889 0
M  V30 10190 O 978.641 -1.60394 0.990249 0
M  V30 10191 C 975.768 -2.65879 2.09824 0
M  V30 10192 C 974.814 -2.67082 3.3252 0
M  V30 10193 S 975.647 -2.2016 4.8815 0
M  V30 10194 C 976.803 -3.58913 5.12769 0
M  V30 10195 H 977.036 -1.01578 2.79409 0
M  V30 10196 H 974.569 -0.414351 1.48736 0
M  V30 10197 H 976.527 -3.44688 2.22935 0
M  V30 10198 H 975.188 -2.90502 1.19447 0
M  V30 10199 H 974.381 -3.67703 3.44689 0
M  V30 10200 H 973.983 -1.96343 3.18317 0
M  V30 10201 H 976.275 -4.54671 5.02276 0
M  V30 10202 H 977.218 -3.51652 6.14611 0
M  V30 10203 H 977.626 -3.5306 4.40465 0
M  V30 10204 N 977.024 -1.50153 -0.478725 0
M  V30 10205 C 978.27 -1.61968 -1.23036 0
M  V30 10206 C 978.625 -0.312529 -1.89845 0
M  V30 10207 O 977.918 0.688995 -1.78783 0
M  V30 10208 C 978.112 -2.73208 -2.30417 0
M  V30 10209 C 977.941 -4.14614 -1.74142 0
M  V30 10210 C 976.711 -4.81116 -1.54452 0
M  V30 10211 C 978.909 -4.99111 -1.24066 0
M  V30 10212 N 976.891 -6.06763 -0.933399 0
M  V30 10213 C 978.262 -6.15419 -0.752286 0
M  V30 10214 C 980.317 -4.84943 -1.12849 0
M  V30 10215 C 979.02 -7.19116 -0.162808 0
M  V30 10216 C 981.046 -5.88809 -0.552955 0
M  V30 10217 C 980.408 -7.0436 -0.0749195 0
M  V30 10218 H 976.507 -0.646894 -0.439377 0
M  V30 10219 H 979.091 -1.87244 -0.53364 0
M  V30 10220 H 977.262 -2.49667 -2.97525 0
M  V30 10221 H 978.994 -2.74423 -2.97446 0
M  V30 10222 H 975.749 -4.38282 -1.7946 0
M  V30 10223 H 976.173 -6.73906 -0.64647 0
M  V30 10224 H 980.815 -3.959 -1.48402 0
M  V30 10225 H 978.533 -8.0784 0.204943 0
M  V30 10226 H 982.119 -5.7991 -0.468633 0
M  V30 10227 H 980.999 -7.83357 0.363455 0
M  V30 10228 N 978.502 0.731368 -1.39602 0
M  V30 10229 C 979.432 1.85855 -1.41351 0
M  V30 10230 C 980.413 1.67839 -0.2764 0
M  V30 10231 O 981.598 1.88104 -0.482747 0
M  V30 10232 C 978.728 3.23644 -1.25983 0
M  V30 10233 C 977.682 3.56304 -2.37132 0
M  V30 10234 C 977.008 4.93069 -2.0685 0
M  V30 10235 C 978.308 3.58906 -3.79452 0
M  V30 10236 H 980.002 1.84648 -2.3568 0
M  V30 10237 H 977.548 0.886955 -1.13442 0
M  V30 10238 H 979.501 4.02176 -1.25826 0
M  V30 10239 H 978.225 3.25387 -0.281234 0
M  V30 10240 H 976.884 2.80104 -2.36511 0
M  V30 10241 H 976.532 4.91396 -1.0742 0
M  V30 10242 H 976.232 5.15888 -2.81306 0
M  V30 10243 H 977.756 5.73953 -2.0835 0
M  V30 10244 H 979.17 4.27508 -3.81982 0
M  V30 10245 H 977.567 3.93246 -4.53297 0
M  V30 10246 H 978.637 2.58631 -4.10168 0
M  V30 10247 N 979.98 1.24838 0.961938 0
M  V30 10248 C 980.913 0.989041 2.05653 0
M  V30 10249 C 981.891 -0.079199 1.62407 0
M  V30 10250 O 983.075 0.0589397 1.88408 0
M  V30 10251 C 980.202 0.493661 3.35083 0
M  V30 10252 C 979.248 1.55132 3.97286 0
M  V30 10253 S 980.081 3.13438 4.34185 0
M  V30 10254 C 981.237 2.65617 5.66744 0
M  V30 10255 H 981.47 1.91588 2.27335 0
M  V30 10256 H 979.003 1.08287 1.10061 0
M  V30 10257 H 980.961 0.214482 4.09939 0
M  V30 10258 H 979.622 -0.412559 3.11379 0
M  V30 10259 H 978.815 1.15525 4.90581 0
M  V30 10260 H 978.417 1.78081 3.28882 0
M  V30 10261 H 980.709 2.08788 6.44526 0
M  V30 10262 H 981.652 3.57524 6.11214 0
M  V30 10263 H 982.06 2.05853 5.25628 0
M  V30 10264 N 981.458 -1.16348 1.06306 0
M  V30 10265 C 982.388 -2.2291 0.695234 0
M  V30 10266 C 983.369 -1.67208 -0.312343 0
M  V30 10267 O 984.554 -1.93293 -0.187442 0
M  V30 10268 C 981.684 -3.47205 0.0810149 0
M  V30 10269 C 980.638 -4.15801 1.01458 0
M  V30 10270 C 979.964 -5.3405 0.263656 0
M  V30 10271 C 981.264 -4.66766 2.34365 0
M  V30 10272 H 982.958 -2.53934 1.58613 0
M  V30 10273 H 980.504 -1.22056 0.76409 0
M  V30 10274 H 982.457 -4.2098 -0.18818 0
M  V30 10275 H 981.181 -3.15482 -0.844897 0
M  V30 10276 H 979.84 -3.43954 1.26852 0
M  V30 10277 H 979.488 -4.9858 -0.665378 0
M  V30 10278 H 979.188 -5.80885 0.88582 0
M  V30 10279 H 980.712 -6.106 0.00200994 0
M  V30 10280 H 982.126 -5.3212 2.13356 0
M  V30 10281 H 980.523 -5.24223 2.9208 0
M  V30 10282 H 981.593 -3.82969 2.97426 0
M  V30 10283 N 982.937 -0.845659 -1.3299 0
M  V30 10284 C 984.162 -0.457435 -2.02293 0
M  V30 10285 C 984.587 0.935634 -1.63179 0
M  V30 10286 O 983.945 1.61297 -0.827835 0
M  V30 10287 C 983.993 -0.593665 -3.5568 0
M  V30 10288 O 983.097 0.37729 -4.10671 0
M  V30 10289 H 982.438 -0.185022 -0.637701 0
M  V30 10290 H 984.968 -1.14237 -1.69738 0
M  V30 10291 H 984.978 -0.477834 -4.05192 0
M  V30 10292 H 983.653 -1.60957 -3.83491 0
M  V30 10293 H 982.23 0.218448 -3.7226 0
M  V30 10294 N 984.415 1.45619 -0.602734 0
M  V30 10295 C 985.643 2.06647 -0.102253 0
M  V30 10296 C 986.058 1.4482 1.21131 0
M  V30 10297 O 985.415 0.560621 1.73676 0
M  V30 10298 C 985.466 3.61467 0.0490113 0
M  V30 10299 O 985.187 4.20985 -1.21257 0
M  V30 10300 C 986.688 4.39469 0.581517 0
M  V30 10301 H 983.908 0.667685 -0.0666155 0
M  V30 10302 H 986.452 1.86939 -0.829091 0
M  V30 10303 H 984.607 3.80534 0.726153 0
M  V30 10304 H 985.021 5.14103 -1.03915 0
M  V30 10305 H 986.495 5.48318 0.636462 0
M  V30 10306 H 986.972 4.0891 1.60277 0
M  V30 10307 H 987.578 4.25256 -0.061419 0
M  V30 10308 N 985.893 0.34162 1.53853 0
M  V30 10309 C 987.304 -0.14269 1.86154 0
M  V30 10310 C 987.655 -1.50151 1.2629 0
M  V30 10311 O 986.78 -2.08601 0.575735 0
M  V30 10312 C 987.375 -0.265691 3.37757 0
M  V30 10313 C 985.934 -0.694231 3.69942 0
M  V30 10314 C 985.081 0.173195 2.76759 0
M  V30 10315 H 988.032 0.561284 1.48443 0
M  V30 10316 H 988.053 -1.09352 3.64448 0
M  V30 10317 H 987.565 0.723424 3.81298 0
M  V30 10318 H 985.666 -1.69244 3.31945 0
M  V30 10319 H 985.779 -0.485461 4.76634 0
M  V30 10320 H 984.143 -0.35416 2.52226 0
M  V30 10321 H 984.926 1.15941 3.23129 0
M  V30 10322 N 987.371 -1.57444 0.0701946 0
M  V30 10323 C 988.787 -1.57009 -0.286431 0
M  V30 10324 C 988.987 -1.07946 -1.70147 0
M  V30 10325 O 988.043 -0.744622 -2.41271 0
M  V30 10326 C 989.356 -3.00542 -0.0975466 0
M  V30 10327 C 990.904 -3.12553 -0.167205 0
M  V30 10328 C 991.379 -4.58 -0.00662047 0
M  V30 10329 N 992.87 -4.63158 -0.0622778 0
M  V30 10330 C 993.605 -5.73388 0.0375831 0
M  V30 10331 N 993.101 -6.92537 0.190873 0
M  V30 10332 N 994.894 -5.62097 -0.0193672 0
M  V30 10333 H 987.045 -1.87651 0.995023 0
M  V30 10334 H 989.308 -0.865006 0.387902 0
M  V30 10335 H 989.014 -3.40543 0.878822 0
M  V30 10336 H 988.888 -3.67485 -0.850547 0
M  V30 10337 H 991.275 -2.72439 -1.13406 0
M  V30 10338 H 991.356 -2.48251 0.616871 0
M  V30 10339 H 991 -4.98803 0.956992 0
M  V30 10340 H 990.93 -5.20332 -0.810081 0
M  V30 10341 H 993.421 -3.77475 -0.179229 0
M  V30 10342 H 993.734 -7.72365 0.25926 0
M  V30 10343 H 992.079 -6.94632 0.226214 0
M  V30 10344 H 995.27 -4.67897 -0.137815 0
M  V30 10345 H 995.443 -6.4797 0.0619121 0
M  V30 10346 N 988.849 0.203349 -1.56283 0
M  V30 10347 C 989.779 1.2549 -1.96912 0
M  V30 10348 C 990.76 1.47919 -0.839884 0
M  V30 10349 O 991.945 1.59795 -1.10359 0
M  V30 10350 C 989.075 2.6009 -2.30153 0
M  V30 10351 C 988.029 2.52289 -3.45738 0
M  V30 10352 C 987.355 3.91086 -3.64632 0
M  V30 10353 C 988.655 2.05503 -4.80173 0
M  V30 10354 H 990.349 0.917306 -2.85002 0
M  V30 10355 H 987.895 0.439818 -1.37119 0
M  V30 10356 H 989.848 3.33829 -2.5717 0
M  V30 10357 H 988.572 2.95574 -1.38937 0
M  V30 10358 H 987.231 1.81006 -3.18798 0
M  V30 10359 H 986.879 4.23908 -2.7076 0
M  V30 10360 H 986.579 3.86742 -4.42385 0
M  V30 10361 H 988.103 4.66459 -3.94016 0
M  V30 10362 H 989.517 2.68995 -5.06275 0
M  V30 10363 H 987.914 2.1218 -5.61337 0
M  V30 10364 H 988.984 1.00793 -4.74309 0
M  V30 10365 N 990.327 1.50405 0.470755 0
M  V30 10366 C 991.555 1.65168 1.24608 0
M  V30 10367 C 991.97 0.335153 1.85801 0
M  V30 10368 O 991.327 -0.682919 1.69241 0
M  V30 10369 C 991.378 2.74305 2.35455 0
M  V30 10370 O 991.099 4.00854 1.76771 0
M  V30 10371 C 992.6 3.00044 3.26326 0
M  V30 10372 H 989.82 0.555186 0.376842 0
M  V30 10373 H 992.364 1.9663 0.56187 0
M  V30 10374 H 990.519 2.45536 2.99651 0
M  V30 10375 H 990.933 4.61211 2.49769 0
M  V30 10376 H 992.407 3.8007 4.00313 0
M  V30 10377 H 992.884 2.11128 3.85126 0
M  V30 10378 H 993.49 3.30345 2.67866 0
M  V30 10379 N 991.805 -0.723954 1.39988 0
M  V30 10380 C 992.735 -1.85103 1.42335 0
M  V30 10381 C 993.716 -1.6769 0.285297 0
M  V30 10382 O 994.901 -1.87846 0.492716 0
M  V30 10383 C 992.031 -3.22972 1.27697 0
M  V30 10384 C 990.985 -3.55041 2.39018 0
M  V30 10385 C 990.311 -4.91965 2.09462 0
M  V30 10386 C 991.611 -3.56889 3.8135 0
M  V30 10387 H 993.305 -1.83396 2.36656 0
M  V30 10388 H 990.851 -0.880926 1.13911 0
M  V30 10389 H 992.804 -4.01503 1.27958 0
M  V30 10390 H 991.528 -3.25233 0.298487 0
M  V30 10391 H 990.187 -2.78845 2.37993 0
M  V30 10392 H 989.835 -4.90819 1.10025 0
M  V30 10393 H 989.535 -5.14389 2.84038 0
M  V30 10394 H 991.059 -5.7284 2.11391 0
M  V30 10395 H 992.473 -4.25476 3.84243 0
M  V30 10396 H 990.87 -3.90836 4.55376 0
M  V30 10397 H 991.94 -2.56452 4.11534 0
M  V30 10398 N 993.283 -1.25346 -0.955304 0
M  V30 10399 C 994.531 -1.09837 -1.69647 0
M  V30 10400 C 994.852 0.361425 -1.91621 0
M  V30 10401 O 994.122 1.25666 -1.50283 0
M  V30 10402 H 992.702 -0.403467 -0.628668 0
M  V30 10403 H 995.364 -1.57459 -1.14859 0
M  V30 10404 H 994.46 -1.60616 -2.67598 0
M  V30 10405 N 994.761 1.15782 -1.06922 0
M  V30 10406 C 996.009 1.86097 -0.788192 0
M  V30 10407 C 996.33 1.82475 0.687606 0
M  V30 10408 O 995.6 1.26266 1.49778 0
M  V30 10409 H 994.18 0.689008 -0.288577 0
M  V30 10410 H 996.842 1.40377 -1.35205 0
M  V30 10411 H 995.938 2.91358 -1.1188 0
M  V30 10412 N 996.239 0.8527 1.3254 0
M  V30 10413 C 997.485 0.46507 1.98012 0
M  V30 10414 C 997.84 -0.968179 1.66265 0
M  V30 10415 O 997.133 -1.66985 0.9395 0
M  V30 10416 C 997.327 0.638757 3.51646 0
M  V30 10417 C 997.156 2.08734 3.98322 0
M  V30 10418 C 995.926 2.72544 4.25497 0
M  V30 10419 C 998.124 3.0577 4.13533 0
M  V30 10420 N 996.106 4.08333 4.58408 0
M  V30 10421 C 997.477 4.26542 4.49958 0
M  V30 10422 C 999.532 3.01991 3.95861 0
M  V30 10423 C 998.235 5.4403 4.70557 0
M  V30 10424 C 1000.26 4.18722 4.17643 0
M  V30 10425 C 999.623 5.38252 4.54383 0
M  V30 10426 H 995.722 0.218881 0.750743 0
M  V30 10427 H 998.306 1.10368 1.60397 0
M  V30 10428 H 996.477 0.0298629 3.88389 0
M  V30 10429 H 998.209 0.221215 4.04095 0
M  V30 10430 H 994.964 2.23594 4.17496 0
M  V30 10431 H 995.388 4.78372 4.79051 0
M  V30 10432 H 1000.03 2.107 3.66559 0
M  V30 10433 H 997.748 6.35854 4.98714 0
M  V30 10434 H 1001.33 4.17232 4.05474 0
M  V30 10435 H 1000.21 6.27075 4.709 0
M  V30 10436 N 997.718 -1.45297 0.610449 0
M  V30 10437 C 998.967 -2.0143 0.104323 0
M  V30 10438 C 999.28 -1.48431 -1.27388 0
M  V30 10439 O 1000.49 -1.96558 -1.87289 0
M  V30 10440 C 998.942 -3.59644 0.135812 0
M  V30 10441 C 998.55 -4.2164 1.51405 0
M  V30 10442 C 1000.29 -4.2333 -0.314922 0
M  V30 10443 C 998.201 -5.72015 1.50176 0
M  V30 10444 H 997.131 -0.753176 0.035233 0
M  V30 10445 H 999.782 -1.66738 0.7662 0
M  V30 10446 H 998.164 -3.91538 -0.592773 0
M  V30 10447 H 999.338 -4.01315 2.26457 0
M  V30 10448 H 997.653 -3.70159 1.90712 0
M  V30 10449 H 1000.25 -5.33597 -0.343335 0
M  V30 10450 H 1000.59 -3.94206 -1.33817 0
M  V30 10451 H 1001.13 -3.96163 0.360489 0
M  V30 10452 H 997.865 -6.05842 2.50271 0
M  V30 10453 H 997.385 -5.94523 0.793869 0
M  V30 10454 H 999.064 -6.35266 1.22665 0
M  V30 10455 N 999.196 -0.349774 -1.5367 0
M  V30 10456 C 1000.44 0.244343 -2.00617 0
M  V30 10457 C 1000.76 1.50567 -1.23914 0
M  V30 10458 O 1000.03 1.92784 -0.348016 0
M  V30 10459 H 998.615 0.0932792 -0.741153 0
M  V30 10460 H 1001.28 -0.472367 -1.89089 0
M  V30 10461 H 1000.37 0.482433 -3.08349 0
M  V30 10462 N 1000.67 1.57404 -0.0785433 0
M  V30 10463 C 1001.62 2.09632 0.896565 0
M  V30 10464 C 1002.61 1.00754 1.25449 0
M  V30 10465 O 1003.8 1.27053 1.23234 0
M  V30 10466 C 1000.93 2.66694 2.16169 0
M  V30 10467 C 1000.01 3.82588 1.82994 0
M  V30 10468 N 1000.41 4.91286 1.203 0
M  V30 10469 C 998.704 3.92011 2.12704 0
M  V30 10470 C 999.405 5.72077 1.05367 0
M  V30 10471 N 998.381 5.20567 1.56559 0
M  V30 10472 H 1002.18 2.9106 0.407621 0
M  V30 10473 H 999.697 1.61917 0.125155 0
M  V30 10474 H 1001.69 3.0243 2.86952 0
M  V30 10475 H 1000.35 1.86716 2.65645 0
M  V30 10476 H 1001.36 5.10509 0.871817 0
M  V30 10477 H 998.042 3.23018 2.6451 0
M  V30 10478 H 999.432 6.69523 0.564685 0
M  V30 10479 N 1002.15 -0.195058 1.56388 0
M  V30 10480 C 1003.43 -0.941335 1.71459 0
M  V30 10481 C 1003.81 -2.01375 0.633336 0
M  V30 10482 O 1003.16 -2.25715 -0.35567 0
M  V30 10483 C 1003.37 -1.52772 3.13786 0
M  V30 10484 C 1004.71 -2.00983 3.7402 0
M  V30 10485 O 1005.74 -1.62614 3.16915 0
M  V30 10486 O 1004.6 -2.71586 4.7424 0
M  V30 10487 H 1001.69 -0.441451 0.699321 0
M  V30 10488 H 1004.24 -0.184752 1.68691 0
M  V30 10489 H 1003.01 -0.754699 3.83953 0
M  V30 10490 H 1002.63 -2.34914 3.20782 0
M  V30 10491 N 1003.63 -1.50653 -0.462772 0
M  V30 10492 C 1004.91 -1.5258 -1.22387 0
M  V30 10493 C 1005.29 -0.275263 -2.09298 0
M  V30 10494 O 1004.63 0.740943 -2.16153 0
M  V30 10495 C 1004.84 -2.82611 -2.04773 0
M  V30 10496 C 1006.19 -3.33592 -2.62681 0
M  V30 10497 O 1007.22 -2.83989 -2.15008 0
M  V30 10498 O 1006.08 -4.20081 -3.49563 0
M  V30 10499 H 1003.17 -0.612367 -0.55582 0
M  V30 10500 H 1005.72 -1.62948 -0.473914 0
M  V30 10501 H 1004.49 -3.65098 -1.40781 0
M  V30 10502 H 1004.11 -2.75286 -2.86886 0
M  V30 10503 N 1005.11 0.71652 -1.4037 0
M  V30 10504 C 1006.06 1.85194 -1.40734 0
M  V30 10505 C 1007.05 1.66934 -0.287969 0
M  V30 10506 O 1008.26 1.74051 -0.458957 0
M  V30 10507 H 1004.63 0.609922 -0.439885 0
M  V30 10508 H 1006.6 1.82003 -2.36468 0
M  V30 10509 C 1005.35 3.23048 -1.28589 0
M  V30 10510 H 1004.67 3.37704 -2.13999 0
M  V30 10511 H 1006.11 4.02633 -1.32902 0
M  V30 10512 C 1004.57 3.369 0.00396512 0
M  V30 10513 O 1005.1 3.89881 0.967243 0
M  V30 10514 N 1003.31 2.90508 0.0731565 0
M  V30 10515 H 1002.86 2.4758 -0.711454 0
M  V30 10516 H 1002.81 3.00155 0.935652 0
M  V30 10517 N 1006.59 1.25851 0.948643 0
M  V30 10518 C 1007.54 1.03437 2.03187 0
M  V30 10519 C 1008.52 -0.0307632 1.60871 0
M  V30 10520 O 1009.71 0.185296 1.76027 0
M  V30 10521 C 1006.84 0.661426 3.36868 0
M  V30 10522 C 1005.93 1.76363 3.8569 0
M  V30 10523 N 1006.32 2.9998 4.07241 0
M  V30 10524 C 1004.62 1.64552 4.14534 0
M  V30 10525 C 1005.32 3.71564 4.47566 0
M  V30 10526 N 1004.29 2.99214 4.53841 0
M  V30 10527 H 1008.1 1.97277 2.17851 0
M  V30 10528 H 1005.61 1.16258 1.13392 0
M  V30 10529 H 1007.61 0.482021 4.14104 0
M  V30 10530 H 1006.27 -0.269582 3.23579 0
M  V30 10531 H 1007.28 3.35963 3.94143 0
M  V30 10532 H 1003.95 0.783891 4.10075 0
M  V30 10533 H 1005.34 4.77702 4.72494 0
M  V30 10534 N 1008.06 -1.15214 1.07534 0
M  V30 10535 C 1009.29 -1.90463 0.820883 0
M  V30 10536 C 1009.71 -1.77578 -0.620305 0
M  V30 10537 O 1009.07 -1.10976 -1.43366 0
M  V30 10538 C 1009.12 -3.38746 1.23627 0
M  V30 10539 O 1008.22 -4.1062 0.382715 0
M  V30 10540 H 1007.57 -0.59292 0.298901 0
M  V30 10541 H 1010.1 -1.45893 1.43445 0
M  V30 10542 H 1010.11 -3.89543 1.21327 0
M  V30 10543 H 1008.78 -3.47443 2.28596 0
M  V30 10544 H 1007.36 -3.69947 0.468374 0
M  V30 10545 N 1009.54 -0.859717 -1.32086 0
M  V30 10546 C 1010.47 -0.323502 -2.31248 0
M  V30 10547 C 1011.45 0.580085 -1.59903 0
M  V30 10548 O 1012.64 0.499265 -1.87673 0
M  V30 10549 C 1009.77 0.484661 -3.43902 0
M  V30 10550 C 1008.72 -0.324933 -4.26765 0
M  V30 10551 C 1008.05 0.608281 -5.31229 0
M  V30 10552 C 1009.35 -1.55344 -4.98664 0
M  V30 10553 H 1011.04 -1.15209 -2.76346 0
M  V30 10554 H 1008.59 -0.555442 -1.32856 0
M  V30 10555 H 1010.54 0.870238 -4.12316 0
M  V30 10556 H 1009.27 1.34666 -2.97544 0
M  V30 10557 H 1007.92 -0.692328 -3.60003 0
M  V30 10558 H 1007.57 1.46727 -4.81124 0
M  V30 10559 H 1007.27 0.0705571 -5.87558 0
M  V30 10560 H 1008.8 0.990925 -6.02506 0
M  V30 10561 H 1010.21 -1.23987 -5.59732 0
M  V30 10562 H 1008.61 -2.02947 -5.64741 0
M  V30 10563 H 1009.68 -2.31192 -4.26237 0
M  V30 10564 N 1011.02 1.44971 -0.618145 0
M  V30 10565 C 1012.25 2.07039 -0.122395 0
M  V30 10566 C 1012.67 1.45793 1.18853 0
M  V30 10567 O 1012.03 0.55453 1.72611 0
M  V30 10568 C 1012.08 3.60599 -0.0073864 0
M  V30 10569 O 1011.18 3.99069 1.04007 0
M  V30 10570 H 1010.52 0.6593 -0.0788615 0
M  V30 10571 H 1013.05 1.86055 -0.851147 0
M  V30 10572 H 1013.06 4.07569 0.187417 0
M  V30 10573 H 1011.74 4.04561 -0.964544 0
M  V30 10574 H 1010.31 3.63753 0.820879 0
M  V30 10575 N 1012.5 0.357919 1.53482 0
M  V30 10576 C 1013.91 0.00655107 1.59599 0
M  V30 10577 C 1014.11 -1.47449 1.37336 0
M  V30 10578 O 1013.17 -2.2351 1.17472 0
M  V30 10579 C 1014.48 0.455617 2.97228 0
M  V30 10580 C 1016.03 0.409183 3.10314 0
M  V30 10581 C 1016.51 0.833941 4.50344 0
M  V30 10582 N 1018 0.788695 4.56436 0
M  V30 10583 C 1018.73 1.08914 5.62961 0
M  V30 10584 N 1018.23 1.45847 6.77274 0
M  V30 10585 N 1020.02 1.01243 5.52907 0
M  V30 10586 H 1012.17 1.32248 1.66206 0
M  V30 10587 H 1014.44 0.540047 0.779136 0
M  V30 10588 H 1014.14 1.48881 3.18634 0
M  V30 10589 H 1014.02 -0.161751 3.76853 0
M  V30 10590 H 1016.4 -0.614863 2.88623 0
M  V30 10591 H 1016.48 1.06195 2.32715 0
M  V30 10592 H 1016.13 1.85607 4.72771 0
M  V30 10593 H 1016.06 0.158507 5.26361 0
M  V30 10594 H 1018.55 0.516497 3.74354 0
M  V30 10595 H 1018.86 1.67218 7.54492 0
M  V30 10596 H 1017.21 1.49705 6.78685 0
M  V30 10597 H 1020.4 0.723137 4.62481 0
M  V30 10598 H 1020.57 1.24991 6.35831 0
M  V30 10599 N 1013.98 -1.5736 0.0868897 0
M  V30 10600 C 1015.39 -1.57304 -0.269762 0
M  V30 10601 C 1015.59 -1.09745 -1.68992 0
M  V30 10602 O 1014.65 -0.77017 -2.40468 0
M  V30 10603 C 1015.96 -3.00628 -0.0656646 0
M  V30 10604 C 1017.51 -3.12713 -0.134045 0
M  V30 10605 C 1017.98 -4.57981 0.0419569 0
M  V30 10606 N 1019.48 -4.63198 -0.0131501 0
M  V30 10607 C 1020.21 -5.73316 0.0983964 0
M  V30 10608 N 1019.71 -6.92296 0.264315 0
M  V30 10609 N 1021.5 -5.62086 0.0402517 0
M  V30 10610 H 1013.65 -1.86585 1.01487 0
M  V30 10611 H 1015.91 -0.860843 0.397055 0
M  V30 10612 H 1015.62 -3.39592 0.914891 0
M  V30 10613 H 1015.49 -3.68367 -0.811522 0
M  V30 10614 H 1017.88 -2.73627 -1.1051 0
M  V30 10615 H 1017.96 -2.47582 0.643167 0
M  V30 10616 H 1017.61 -4.9776 1.00984 0
M  V30 10617 H 1017.54 -5.21162 -0.754847 0
M  V30 10618 H 1020.03 -3.77644 -0.139183 0
M  V30 10619 H 1020.34 -7.72047 0.341165 0
M  V30 10620 H 1018.68 -6.94353 0.299876 0
M  V30 10621 H 1021.88 -4.68017 -0.0881801 0
M  V30 10622 H 1022.05 -6.47868 0.130635 0
M  V30 10623 N 1015.45 0.186762 -1.56489 0
M  V30 10624 C 1016.42 1.21511 -1.94339 0
M  V30 10625 C 1017.42 1.38001 -0.82537 0
M  V30 10626 O 1018.61 1.3567 -1.09266 0
M  V30 10627 C 1015.74 2.583 -2.22472 0
M  V30 10628 H 1016.93 0.891371 -2.86347 0
M  V30 10629 H 1014.49 0.428612 -1.50308 0
M  V30 10630 H 1015.22 2.95715 -1.33129 0
M  V30 10631 H 1015.01 2.47701 -3.03951 0
M  V30 10632 H 1016.5 3.32441 -2.5273 0
M  V30 10633 N 1016.93 1.50896 0.454776 0
M  V30 10634 C 1018.18 1.62378 1.20324 0
M  V30 10635 C 1018.5 0.333883 1.9212 0
M  V30 10636 O 1017.77 -0.649477 1.8482 0
M  V30 10637 H 1016.35 0.598395 0.447139 0
M  V30 10638 H 1019.01 1.87749 0.523102 0
M  V30 10639 H 1018.11 2.44296 1.94232 0
M  V30 10640 N 1018.41 -0.709066 1.40748 0
M  V30 10641 C 1019.64 -1.49591 1.425 0
M  V30 10642 C 1020.05 -1.89184 0.0248343 0
M  V30 10643 O 1019.39 -1.56429 -0.963109 0
M  V30 10644 C 1019.45 -2.79735 2.25807 0
M  V30 10645 C 1019.12 -2.62426 3.74141 0
M  V30 10646 C 1020.11 -2.29256 4.66624 0
M  V30 10647 C 1017.8 -2.78487 4.18032 0
M  V30 10648 C 1019.79 -2.12366 6.00982 0
M  V30 10649 C 1017.48 -2.61215 5.52458 0
M  V30 10650 C 1018.48 -2.28203 6.43749 0
M  V30 10651 O 1018.17 -2.11069 7.75697 0
M  V30 10652 H 1017.9 -0.467994 0.487809 0
M  V30 10653 H 1020.45 -0.881694 1.85514 0
M  V30 10654 H 1018.68 -3.43513 1.77584 0
M  V30 10655 H 1020.37 -3.41481 2.19421 0
M  V30 10656 H 1021.14 -2.16474 4.34009 0
M  V30 10657 H 1017.02 -3.03168 3.4729 0
M  V30 10658 H 1020.56 -1.86522 6.72202 0
M  V30 10659 H 1016.46 -2.73582 5.84656 0
M  V30 10660 H 1017.23 -2.25938 7.86698 0
M  V30 10661 N 1019.89 -1.26353 -0.941956 0
M  V30 10662 C 1021.11 -1.14731 -1.72776 0
M  V30 10663 C 1021.54 0.293766 -1.85792 0
M  V30 10664 O 1020.9 1.21284 -1.34759 0
M  V30 10665 C 1020.95 -1.82041 -3.11277 0
M  V30 10666 O 1020.05 -1.10867 -3.97218 0
M  V30 10667 H 1019.39 -0.399823 -0.53013 0
M  V30 10668 H 1021.92 -1.67157 -1.17981 0
M  V30 10669 H 1021.93 -1.88834 -3.61671 0
M  V30 10670 H 1020.61 -2.86879 -3.0112 0
M  V30 10671 H 1019.18 -1.12044 -3.55669 0
M  V30 10672 N 1021.37 1.14642 -1.08144 0
M  V30 10673 C 1022.32 2.21708 -0.703448 0
M  V30 10674 C 1023.31 1.66907 0.289535 0
M  V30 10675 O 1024.52 1.79354 0.152387 0
M  V30 10676 H 1020.89 0.722247 -0.209437 0
M  V30 10677 H 1022.86 2.50862 -1.61588 0
M  V30 10678 C 1021.61 3.47472 -0.125975 0
M  V30 10679 H 1020.93 3.89967 -0.881216 0
M  V30 10680 H 1022.37 4.2388 0.100737 0
M  V30 10681 C 1020.83 3.17189 1.13546 0
M  V30 10682 O 1021.36 3.34733 2.22073 0
M  V30 10683 N 1019.57 2.71169 1.04479 0
M  V30 10684 H 1019.12 2.57093 0.161566 0
M  V30 10685 H 1019.07 2.51282 1.88957 0
M  V30 10686 N 1022.85 0.866709 1.31628 0
M  V30 10687 C 1023.79 0.309128 2.30537 0
M  V30 10688 C 1024.79 -0.574028 1.59378 0
M  V30 10689 O 1025.99 -0.460491 1.7401 0
M  V30 10690 H 1022.37 0.081279 0.747595 0
M  V30 10691 H 1024.34 1.15734 2.75042 0
M  V30 10692 C 1023.09 -0.477287 3.44409 0
M  V30 10693 H 1022.41 0.19301 3.99334 0
M  V30 10694 H 1023.85 -0.832818 4.1574 0
M  V30 10695 C 1022.31 -1.66727 2.92752 0
M  V30 10696 O 1022.84 -2.76654 2.91248 0
M  V30 10697 N 1021.05 -1.49833 2.48995 0
M  V30 10698 H 1020.59 -0.604073 2.50417 0
M  V30 10699 H 1020.55 -2.29594 2.14788 0
M  V30 10700 N 1024.32 -1.44642 0.625825 0
M  V30 10701 C 1025.55 -2.06971 0.133373 0
M  V30 10702 C 1025.97 -1.46421 -1.18078 0
M  V30 10703 O 1025.33 -0.563676 -1.72315 0
M  V30 10704 C 1025.38 -3.6059 0.0265097 0
M  V30 10705 O 1024.48 -3.99615 -1.01889 0
M  V30 10706 H 1023.82 -0.658873 0.0823568 0
M  V30 10707 H 1026.35 -1.85601 0.861002 0
M  V30 10708 H 1026.36 -4.07663 -0.1658 0
M  V30 10709 H 1025.04 -4.04043 0.985986 0
M  V30 10710 H 1023.62 -3.64183 -0.801577 0
M  V30 10711 N 1025.8 -0.366053 -1.5329 0
M  V30 10712 C 1026.75 0.495319 -2.27265 0
M  V30 10713 C 1027.74 1.08298 -1.30261 0
M  V30 10714 O 1028.95 1.02613 -1.47887 0
M  V30 10715 H 1025.32 0.178454 -0.730519 0
M  V30 10716 H 1027.3 -0.150354 -2.98021 0
M  V30 10717 C 1026.04 1.62283 -3.07505 0
M  V30 10718 H 1025.37 1.17993 -3.81992 0
M  V30 10719 H 1026.81 2.20024 -3.62444 0
M  V30 10720 C 1025.27 2.56542 -2.18375 0
M  V30 10721 O 1025.8 3.59371 -1.79486 0
M  V30 10722 N 1024 2.25742 -1.82999 0
M  V30 10723 H 1023.55 1.42159 -2.14822 0
M  V30 10724 H 1023.51 2.89064 -1.2365 0
M  V30 10725 N 1027.28 1.57312 -0.0952337 0
M  V30 10726 C 1028.51 1.98409 0.575984 0
M  V30 10727 C 1028.92 0.973168 1.62253 0
M  V30 10728 O 1028.26 -0.0454416 1.83644 0
M  V30 10729 C 1028.32 3.35877 1.28167 0
M  V30 10730 C 1027.99 4.55368 0.385868 0
M  V30 10731 C 1028.98 5.1861 -0.366041 0
M  V30 10732 C 1026.67 5.0138 0.303885 0
M  V30 10733 C 1028.66 6.26233 -1.18791 0
M  V30 10734 C 1026.35 6.0887 -0.521637 0
M  V30 10735 C 1027.35 6.71161 -1.26618 0
M  V30 10736 O 1027.04 7.76577 -2.07804 0
M  V30 10737 H 1026.77 0.657018 0.159068 0
M  V30 10738 H 1029.32 2.04685 -0.171237 0
M  V30 10739 H 1027.55 3.26284 2.07547 0
M  V30 10740 H 1029.24 3.6142 1.84744 0
M  V30 10741 H 1030.01 4.83993 -0.312435 0
M  V30 10742 H 1025.89 4.52657 0.873065 0
M  V30 10743 H 1029.43 6.74784 -1.76955 0
M  V30 10744 H 1025.33 6.42918 -0.576722 0
M  V30 10745 H 1026.09 7.93566 -2.00489 0
M  V30 10746 N 1028.76 -0.17846 1.56586 0
M  V30 10747 C 1029.69 -1.2496 1.90946 0
M  V30 10748 C 1030.67 -1.43136 0.771424 0
M  V30 10749 O 1031.85 -1.58258 1.02405 0
M  V30 10750 C 1028.98 -2.61368 2.15417 0
M  V30 10751 C 1028.03 -2.59969 3.3811 0
M  V30 10752 S 1028.86 -2.09756 4.9271 0
M  V30 10753 C 1030.01 -3.47956 5.20267 0
M  V30 10754 H 1030.25 -0.956287 2.815 0
M  V30 10755 H 1027.78 -0.382709 1.49582 0
M  V30 10756 H 1029.74 -3.39882 2.30197 0
M  V30 10757 H 1028.4 -2.87903 1.25582 0
M  V30 10758 H 1027.59 -3.60309 3.52411 0
M  V30 10759 H 1027.19 -1.89547 3.2241 0
M  V30 10760 H 1029.49 -4.43914 5.11807 0
M  V30 10761 H 1030.43 -3.38536 6.21932 0
M  V30 10762 H 1030.84 -3.43637 4.47855 0
M  V30 10763 N 1030.24 -1.51135 -0.446768 0
M  V30 10764 C 1031.2 -1.71187 -1.52406 0
M  V30 10765 C 1032.2 -0.582037 -1.49897 0
M  V30 10766 O 1033.39 -0.849452 -1.52085 0
M  V30 10767 C 1030.52 -1.75962 -2.91976 0
M  V30 10768 H 1031.71 -2.67324 -1.35934 0
M  V30 10769 H 1029.27 -1.40982 -0.674813 0
M  V30 10770 H 1030 -0.816065 -3.13864 0
M  V30 10771 H 1029.79 -2.58065 -2.95203 0
M  V30 10772 H 1031.28 -1.93347 -3.70144 0
M  V30 10773 N 1031.71 0.701592 -1.41122 0
M  V30 10774 C 1032.66 1.80755 -1.38966 0
M  V30 10775 C 1033.65 1.58703 -0.264964 0
M  V30 10776 O 1034.84 1.69638 -0.505168 0
M  V30 10777 C 1031.97 3.1901 -1.26836 0
M  V30 10778 C 1031.05 3.46777 -2.44144 0
M  V30 10779 N 1031.45 3.45278 -3.69617 0
M  V30 10780 C 1029.74 3.77299 -2.37826 0
M  V30 10781 C 1030.44 3.71782 -4.47385 0
M  V30 10782 N 1029.42 3.91228 -3.77415 0
M  V30 10783 H 1033.22 1.7795 -2.33904 0
M  V30 10784 H 1030.74 0.901325 -1.35092 0
M  V30 10785 H 1032.73 3.98227 -1.23373 0
M  V30 10786 H 1031.39 3.23031 -0.328777 0
M  V30 10787 H 1032.4 3.258 -4.02585 0
M  V30 10788 H 1029.08 3.88727 -1.52309 0
M  V30 10789 H 1030.47 3.7681 -5.56295 0
M  V30 10790 N 1033.19 1.2685 0.935242 0
M  V30 10791 C 1034.12 1.1143 2.05196 0
M  V30 10792 C 1035.1 0.0178362 1.70091 0
M  V30 10793 O 1036.29 0.190951 1.93259 0
M  V30 10794 C 1033.42 0.752779 3.39044 0
M  V30 10795 C 1032.37 1.80164 3.88233 0
M  V30 10796 C 1031.7 1.29428 5.18799 0
M  V30 10797 C 1033 3.20431 4.12457 0
M  V30 10798 H 1034.69 2.04845 2.18355 0
M  V30 10799 H 1032.24 0.986276 1.04922 0
M  V30 10800 H 1034.19 0.631757 4.16637 0
M  V30 10801 H 1032.91 -0.217075 3.25878 0
M  V30 10802 H 1031.57 1.91144 3.12825 0
M  V30 10803 H 1031.22 0.3141 5.02018 0
M  V30 10804 H 1030.92 1.99546 5.5268 0
M  V30 10805 H 1032.45 1.18605 5.9897 0
M  V30 10806 H 1033.86 3.12495 4.80645 0
M  V30 10807 H 1032.26 3.88193 4.57631 0
M  V30 10808 H 1033.33 3.66046 3.18023 0
M  V30 10809 N 1034.67 -1.14067 1.0875 0
M  V30 10810 C 1035.92 -1.85459 0.82053 0
M  V30 10811 C 1036.25 -1.82923 -0.65213 0
M  V30 10812 O 1035.52 -1.26241 -1.47965 0
M  V30 10813 C 1035.81 -3.33937 1.34752 0
M  V30 10814 C 1035.66 -3.45026 2.88578 0
M  V30 10815 C 1036.98 -4.2915 0.975636 0
M  V30 10816 H 1034.1 -0.673384 0.299538 0
M  V30 10817 H 1036.74 -1.33927 1.34772 0
M  V30 10818 H 1034.89 -3.77953 0.899086 0
M  V30 10819 H 1036.56 -3.09771 3.41818 0
M  V30 10820 H 1034.81 -2.86124 3.26061 0
M  V30 10821 H 1035.48 -4.49408 3.20526 0
M  V30 10822 H 1037.95 -3.93168 1.36228 0
M  V30 10823 H 1036.83 -5.31489 1.37152 0
M  V30 10824 H 1037.09 -4.41945 -0.116956 0
M  V30 10825 N 1036.15 -0.873678 -1.31166 0
M  V30 10826 C 1037.1 -0.321349 -2.3037 0
M  V30 10827 C 1038.09 0.565568 -1.5968 0
M  V30 10828 O 1039.3 0.451257 -1.74252 0
M  V30 10829 H 1035.67 -0.0852425 -0.747153 0
M  V30 10830 H 1037.64 -1.17191 -2.74425 0
M  V30 10831 C 1036.39 0.459016 -3.44657 0
M  V30 10832 H 1035.71 -0.214185 -3.99226 0
M  V30 10833 H 1037.15 0.810758 -4.16176 0
M  V30 10834 C 1035.61 1.65173 -2.93632 0
M  V30 10835 O 1036.14 2.75105 -2.92711 0
M  V30 10836 N 1034.35 1.4851 -2.49786 0
M  V30 10837 H 1033.9 0.590785 -2.50734 0
M  V30 10838 H 1033.85 2.28452 -2.16002 0
M  V30 10839 N 1037.63 1.44308 -0.633487 0
M  V30 10840 C 1038.59 2.2912 0.060376 0
M  V30 10841 C 1039.59 1.41166 0.769992 0
M  V30 10842 O 1040.78 1.63012 0.614224 0
M  V30 10843 C 1037.91 3.22798 1.0961 0
M  V30 10844 H 1039.1 2.91958 -0.685617 0
M  V30 10845 H 1036.66 1.51259 -0.393738 0
M  V30 10846 H 1037.39 2.64815 1.87199 0
M  V30 10847 H 1037.18 3.87618 0.591161 0
M  V30 10848 H 1038.67 3.86504 1.58127 0
M  V30 10849 N 1039.1 0.374177 1.53094 0
M  V30 10850 C 1040.35 -0.213981 2.00562 0
M  V30 10851 C 1040.67 -1.4916 1.26533 0
M  V30 10852 O 1041.87 -2.15889 1.64634 0
M  V30 10853 C 1040.33 -0.431876 3.57299 0
M  V30 10854 C 1039.94 0.831615 4.40214 0
M  V30 10855 C 1041.68 -0.977222 4.13099 0
M  V30 10856 C 1039.59 0.582831 5.88521 0
M  V30 10857 H 1038.52 -0.0837386 0.749336 0
M  V30 10858 H 1041.17 0.494245 1.76719 0
M  V30 10859 H 1039.55 -1.20158 3.7733 0
M  V30 10860 H 1040.72 1.60477 4.31953 0
M  V30 10861 H 1039.04 1.30081 3.9556 0
M  V30 10862 H 1041.64 -1.17881 5.21544 0
M  V30 10863 H 1041.98 -1.94189 3.68234 0
M  V30 10864 H 1042.51 -0.267473 3.969 0
M  V30 10865 H 1039.25 1.51807 6.37679 0
M  V30 10866 H 1038.77 -0.151666 5.99608 0
M  V30 10867 H 1040.45 0.211604 6.46654 0
M  V30 10868 N 1040.58 -1.57259 0.103575 0
M  V30 10869 C 1041.51 -2.1153 -0.882472 0
M  V30 10870 C 1042.53 -1.05446 -1.24036 0
M  V30 10871 O 1043.72 -1.32867 -1.192 0
M  V30 10872 C 1040.82 -2.58717 -2.18903 0
M  V30 10873 C 1039.99 -3.8873 -2.00519 0
M  V30 10874 C 1039.05 -4.21675 -3.14764 0
M  V30 10875 O 1038.07 -4.90755 -2.88355 0
M  V30 10876 N 1039.28 -3.77757 -4.40772 0
M  V30 10877 H 1042.04 -2.96758 -0.418901 0
M  V30 10878 H 1039.6 -1.61696 -0.0812921 0
M  V30 10879 H 1041.59 -2.77797 -2.94297 0
M  V30 10880 H 1040.16 -1.78454 -2.56657 0
M  V30 10881 H 1039.38 -3.78714 -1.09406 0
M  V30 10882 H 1040.67 -4.73771 -1.85522 0
M  V30 10883 H 1040.07 -3.22011 -4.65108 0
M  V30 10884 H 1038.63 -4.01975 -5.13088 0
M  V30 10885 N 1042.06 0.170153 -1.56679 0
M  V30 10886 C 1042.99 1.23525 -1.93066 0
M  V30 10887 C 1044.01 1.40414 -0.823879 0
M  V30 10888 O 1045.19 1.40396 -1.10232 0
M  V30 10889 C 1042.29 2.60376 -2.16928 0
M  V30 10890 C 1041.47 2.6477 -3.4816 0
M  V30 10891 C 1040.53 3.82993 -3.60837 0
M  V30 10892 O 1039.55 3.68937 -4.33444 0
M  V30 10893 N 1040.75 4.99498 -2.95773 0
M  V30 10894 H 1043.52 0.926172 -2.8503 0
M  V30 10895 H 1041.08 0.359909 -1.57849 0
M  V30 10896 H 1043.07 3.37934 -2.22672 0
M  V30 10897 H 1041.64 2.83669 -1.31342 0
M  V30 10898 H 1040.86 1.73298 -3.54064 0
M  V30 10899 H 1042.15 2.64717 -4.34514 0
M  V30 10900 H 1041.55 5.13819 -2.36657 0
M  V30 10901 H 1040.11 5.74914 -3.07111 0
M  V30 10902 N 1043.54 1.5137 0.438746 0
M  V30 10903 C 1044.5 1.71993 1.51496 0
M  V30 10904 C 1045.5 0.589978 1.49586 0
M  V30 10905 O 1046.69 0.857505 1.51633 0
M  V30 10906 C 1043.82 1.77508 2.91039 0
M  V30 10907 H 1045.02 2.68041 1.34514 0
M  V30 10908 H 1042.57 1.41338 0.667326 0
M  V30 10909 H 1043.3 0.832698 3.13427 0
M  V30 10910 H 1043.09 2.59627 2.9383 0
M  V30 10911 H 1044.58 1.95308 3.69113 0
M  V30 10912 N 1045.02 -0.694098 1.41492 0
M  V30 10913 C 1046.24 -1.48789 1.44488 0
M  V30 10914 C 1046.67 -1.88028 0.0521588 0
M  V30 10915 O 1046.02 -1.54727 -0.944952 0
M  V30 10916 C 1046.07 -2.72586 2.3607 0
M  V30 10917 O 1045.18 -3.70128 1.81876 0
M  V30 10918 H 1044.52 -0.447758 0.490315 0
M  V30 10919 H 1047.05 -0.853036 1.85969 0
M  V30 10920 H 1047.06 -3.20877 2.51995 0
M  V30 10921 H 1045.73 -2.43363 3.37264 0
M  V30 10922 H 1044.31 -3.29069 1.75408 0
M  V30 10923 N 1046.49 -1.27344 -0.928501 0
M  V30 10924 C 1047.91 -1.12361 -1.49103 0
M  V30 10925 C 1048.26 0.291667 -1.9402 0
M  V30 10926 O 1047.38 1.18449 -1.81104 0
M  V30 10927 C 1047.98 -2.03358 -2.70981 0
M  V30 10928 C 1046.54 -1.92483 -3.23461 0
M  V30 10929 C 1045.68 -1.95961 -1.962 0
M  V30 10930 H 1048.63 -1.40249 -0.742689 0
M  V30 10931 H 1048.65 -1.58892 -3.45736 0
M  V30 10932 H 1048.17 -3.06356 -2.38259 0
M  V30 10933 H 1046.27 -0.924676 -3.60944 0
M  V30 10934 H 1046.38 -2.78682 -3.89709 0
M  V30 10935 H 1044.74 -1.40175 -2.12657 0
M  V30 10936 H 1045.53 -3.00612 -1.65793 0
M  V30 10937 N 1047.97 1.13488 -1.09353 0
M  V30 10938 C 1049.2 1.89133 -0.85108 0
M  V30 10939 C 1049.62 1.78542 0.591976 0
M  V30 10940 O 1048.98 1.13243 1.41583 0
M  V30 10941 C 1049.03 3.36736 -1.29001 0
M  V30 10942 O 1048.13 4.09959 -0.447993 0
M  V30 10943 H 1047.47 0.58809 -0.308296 0
M  V30 10944 H 1050 1.43593 -1.45747 0
M  V30 10945 H 1050.01 3.87564 -1.27508 0
M  V30 10946 H 1048.69 3.43762 -2.34095 0
M  V30 10947 H 1047.27 3.69155 -0.52717 0
M  V30 10948 N 1049.45 0.880621 1.30701 0
M  V30 10949 C 1050.7 0.492957 1.95583 0
M  V30 10950 C 1051.01 -0.961863 1.70316 0
M  V30 10951 O 1052.22 -1.45617 2.29146 0
M  V30 10952 C 1050.68 0.830656 3.50183 0
M  V30 10953 C 1050.28 2.30295 3.84276 0
M  V30 10954 C 1052.03 0.511979 4.21401 0
M  V30 10955 C 1049.93 2.58251 5.32034 0
M  V30 10956 H 1048.86 0.18062 0.732047 0
M  V30 10957 H 1051.52 1.075 1.48715 0
M  V30 10958 H 1049.9 0.177752 3.95601 0
M  V30 10959 H 1051.07 2.99981 3.49783 0
M  V30 10960 H 1049.39 2.58873 3.2615 0
M  V30 10961 H 1051.98 0.697935 5.30125 0
M  V30 10962 H 1052.33 -0.548327 4.12673 0
M  V30 10963 H 1052.86 1.12189 3.81652 0
M  V30 10964 H 1049.6 3.63005 5.45809 0
M  V30 10965 H 1049.12 1.9317 5.67843 0
M  V30 10966 H 1050.8 2.43527 5.99419 0
M  V30 10967 N 1050.93 -1.4397 0.641131 0
M  V30 10968 C 1052.18 -2.02782 0.158406 0
M  V30 10969 C 1052.53 -1.496 -1.20986 0
M  V30 10970 O 1051.82 -0.674517 -1.79334 0
M  V30 10971 C 1052.02 -3.5727 0.0963368 0
M  V30 10972 C 1051.85 -4.25441 1.45704 0
M  V30 10973 C 1050.62 -4.62008 2.04637 0
M  V30 10974 C 1052.81 -4.55238 2.39297 0
M  V30 10975 N 1050.8 -5.15194 3.33839 0
M  V30 10976 C 1052.17 -5.09613 3.53121 0
M  V30 10977 C 1054.22 -4.37197 2.38251 0
M  V30 10978 C 1052.93 -5.47847 4.66108 0
M  V30 10979 C 1054.95 -4.76485 3.50309 0
M  V30 10980 C 1054.31 -5.30982 4.62858 0
M  V30 10981 H 1050.41 -0.775304 0.102117 0
M  V30 10982 H 1053 -1.75321 0.846805 0
M  V30 10983 H 1051.17 -3.84322 -0.561369 0
M  V30 10984 H 1052.9 -4.02757 -0.39614 0
M  V30 10985 H 1049.65 -4.46653 1.57474 0
M  V30 10986 H 1050.08 -5.46253 3.99921 0
M  V30 10987 H 1054.72 -3.94347 1.5248 0
M  V30 10988 H 1052.44 -5.89646 5.52579 0
M  V30 10989 H 1056.02 -4.6423 3.50687 0
M  V30 10990 H 1054.9 -5.6082 5.48133 0
M  V30 10991 N 1052.41 -0.382291 -1.52893 0
M  V30 10992 C 1053.66 0.201734 -2.01091 0
M  V30 10993 C 1053.98 1.47905 -1.2708 0
M  V30 10994 O 1053.25 1.92002 -0.38883 0
M  V30 10995 H 1051.83 0.0775373 -0.742965 0
M  V30 10996 H 1054.49 -0.512369 -1.88045 0
M  V30 10997 H 1053.58 0.416919 -3.09303 0
M  V30 10998 N 1053.89 1.57202 -0.111913 0
M  V30 10999 C 1054.83 2.16186 0.858286 0
M  V30 11000 C 1055.83 1.10917 1.28039 0
M  V30 11001 O 1057.03 1.29233 1.25295 0
M  V30 11002 H 1053.41 0.691777 0.29487 0
M  V30 11003 H 1055.38 2.96499 0.336265 0
M  V30 11004 C 1054.13 2.77024 2.10127 0
M  V30 11005 H 1053.45 3.5772 1.78539 0
M  V30 11006 H 1054.89 3.21841 2.76033 0
M  V30 11007 C 1053.35 1.73752 2.88638 0
M  V30 11008 O 1053.88 1.18659 3.83774 0
M  V30 11009 N 1052.09 1.43855 2.52496 0
M  V30 11010 H 1051.63 1.88846 1.75199 0
M  V30 11011 H 1051.59 0.749985 3.05324 0
M  V30 11012 N 1055.36 -0.161842 1.56767 0
M  V30 11013 C 1056.27 -1.21996 2.00385 0
M  V30 11014 C 1057.29 -1.4789 0.916768 0
M  V30 11015 O 1058.47 -1.59852 1.22513 0
M  V30 11016 C 1055.53 -2.53695 2.36305 0
M  V30 11017 C 1054.59 -2.3558 3.58888 0
M  V30 11018 C 1053.82 -3.60998 3.93085 0
M  V30 11019 O 1054.05 -4.6657 3.28129 0
M  V30 11020 O 1052.98 -3.54544 4.86397 0
M  V30 11021 H 1056.81 -0.879701 2.9068 0
M  V30 11022 H 1054.39 -0.369437 1.4476 0
M  V30 11023 H 1056.27 -3.31366 2.60335 0
M  V30 11024 H 1054.95 -2.87281 1.49169 0
M  V30 11025 H 1053.86 -1.55908 3.40064 0
M  V30 11026 H 1055.19 -2.06915 4.46595 0
M  V30 11027 N 1056.84 -1.516 -0.430713 0
M  V30 11028 C 1058.26 -1.39923 -0.767706 0
M  V30 11029 C 1058.46 -0.486756 -1.95532 0
M  V30 11030 O 1057.51 0.0555965 -2.52439 0
M  V30 11031 C 1058.83 -2.82074 -1.04187 0
M  V30 11032 C 1060.37 -2.9127 -1.1459 0
M  V30 11033 C 1060.85 -4.34342 -1.45295 0
M  V30 11034 N 1062.34 -4.37479 -1.52206 0
M  V30 11035 C 1063.08 -5.45219 -1.77549 0
M  V30 11036 N 1062.57 -6.6311 -2.0064 0
M  V30 11037 N 1064.36 -5.32707 -1.79386 0
M  V30 11038 H 1056.52 -2.09474 0.351351 0
M  V30 11039 H 1058.78 -0.943247 0.0948151 0
M  V30 11040 H 1058.48 -3.50868 -0.241837 0
M  V30 11041 H 1058.36 -3.21805 -1.96777 0
M  V30 11042 H 1060.75 -2.2267 -1.93655 0
M  V30 11043 H 1060.83 -2.55026 -0.198854 0
M  V30 11044 H 1060.47 -5.03494 -0.667559 0
M  V30 11045 H 1060.4 -4.68105 -2.41217 0
M  V30 11046 H 1062.89 -3.52488 -1.36237 0
M  V30 11047 H 1063.2 -7.41012 -2.19366 0
M  V30 11048 H 1061.55 -6.66214 -1.97948 0
M  V30 11049 H 1064.74 -4.39589 -1.60869 0
M  V30 11050 H 1064.91 -6.16752 -1.98799 0
M  V30 11051 N 1058.32 0.686584 -1.41858 0
M  V30 11052 C 1059.57 1.44665 -1.41698 0
M  V30 11053 C 1059.89 1.94478 -0.0292442 0
M  V30 11054 O 1059.15 1.70512 0.960421 0
M  V30 11055 C 1059.45 2.66793 -2.37816 0
M  V30 11056 C 1059.11 2.35587 -3.8446 0
M  V30 11057 C 1057.78 2.26788 -4.24406 0
M  V30 11058 C 1060.13 2.10028 -4.77009 0
M  V30 11059 C 1057.46 1.90538 -5.54898 0
M  V30 11060 C 1059.81 1.75285 -6.07831 0
M  V30 11061 C 1058.47 1.64987 -6.46789 0
M  V30 11062 H 1057.74 0.529367 -0.518509 0
M  V30 11063 H 1060.39 0.783938 -1.74719 0
M  V30 11064 H 1058.69 3.38041 -1.9808 0
M  V30 11065 H 1060.39 3.24953 -2.34961 0
M  V30 11066 H 1056.98 2.43334 -3.52826 0
M  V30 11067 H 1061.17 2.15766 -4.46944 0
M  V30 11068 H 1056.42 1.81125 -5.83955 0
M  V30 11069 H 1060.6 1.5453 -6.79039 0
M  V30 11070 H 1058.22 1.36667 -7.47814 0
M  V30 11071 N 1059.8 1.27835 0.921735 0
M  V30 11072 C 1060.76 1.11108 2.00469 0
M  V30 11073 C 1061.76 0.053203 1.60712 0
M  V30 11074 O 1062.95 0.298308 1.71627 0
M  V30 11075 C 1060.08 0.694269 3.33755 0
M  V30 11076 H 1061.28 2.07279 2.16738 0
M  V30 11077 H 1058.83 1.10708 1.10333 0
M  V30 11078 H 1059.56 -0.268561 3.23186 0
M  V30 11079 H 1059.35 1.45836 3.6397 0
M  V30 11080 H 1060.84 0.59965 4.13272 0
M  V30 11081 N 1061.28 -1.12907 1.09954 0
M  V30 11082 C 1062.21 -2.20585 0.765799 0
M  V30 11083 C 1063.19 -1.68117 -0.258989 0
M  V30 11084 O 1064.37 -1.93792 -0.125853 0
M  V30 11085 C 1061.5 -3.46772 0.191435 0
M  V30 11086 C 1060.46 -4.12363 1.14635 0
M  V30 11087 C 1059.78 -5.3294 0.433426 0
M  V30 11088 C 1061.08 -4.59073 2.49096 0
M  V30 11089 H 1062.78 -2.48759 1.66612 0
M  V30 11090 H 1060.32 -1.19563 0.802534 0
M  V30 11091 H 1062.27 -4.21365 -0.0541535 0
M  V30 11092 H 1061 -3.18011 -0.744101 0
M  V30 11093 H 1059.66 -3.39744 1.37731 0
M  V30 11094 H 1059.31 -5.00444 -0.506422 0
M  V30 11095 H 1059.01 -5.77772 1.07018 0
M  V30 11096 H 1060.53 -6.10284 0.196267 0
M  V30 11097 H 1061.94 -5.25063 2.30177 0
M  V30 11098 H 1060.34 -5.14665 3.0861 0
M  V30 11099 H 1061.41 -3.73313 3.0946 0
M  V30 11100 N 1062.75 -0.88754 -1.30232 0
M  V30 11101 C 1064.03 -0.427249 -1.90877 0
M  V30 11102 C 1064.41 1.0922 -1.80649 0
M  V30 11103 O 1063.76 1.92866 -1.22536 0
M  V30 11104 C 1063.97 -0.928219 -3.3643 0
M  V30 11105 C 1065.32 -0.964706 -4.13496 0
M  V30 11106 O 1066.34 -0.875057 -3.45284 0
M  V30 11107 O 1065.2 -1.09754 -5.35366 0
M  V30 11108 H 1062.29 -0.131107 -0.816541 0
M  V30 11109 H 1064.84 -0.976609 -1.38782 0
M  V30 11110 H 1063.61 -1.97209 -3.37971 0
M  V30 11111 H 1063.23 -0.358169 -3.95983 0
M  V30 11112 N 1064.23 1.43628 -0.648757 0
M  V30 11113 C 1065.64 1.85142 -0.24066 0
M  V30 11114 C 1065.99 1.54304 1.21181 0
M  V30 11115 O 1065.12 0.989792 1.92437 0
M  V30 11116 C 1065.71 3.3606 -0.429999 0
M  V30 11117 C 1064.27 3.76323 -0.0762588 0
M  V30 11118 C 1063.42 2.67382 -0.734999 0
M  V30 11119 H 1066.37 1.33844 -0.852734 0
M  V30 11120 H 1066.39 3.79102 0.325836 0
M  V30 11121 H 1065.9 3.58474 -1.48721 0
M  V30 11122 H 1064.01 3.59521 0.978529 0
M  V30 11123 H 1064.12 4.76498 -0.498612 0
M  V30 11124 H 1062.48 2.54141 -0.168644 0
M  V30 11125 H 1063.27 2.92625 -1.79515 0
M  V30 11126 N 1065.71 0.390394 1.52688 0
M  V30 11127 C 1066.94 -0.194013 2.06491 0
M  V30 11128 C 1067.36 -1.3965 1.26014 0
M  V30 11129 O 1066.72 -1.79038 0.285468 0
M  V30 11130 C 1066.77 -0.541306 3.56514 0
M  V30 11131 O 1065.87 -1.63509 3.78601 0
M  V30 11132 H 1065.21 -0.0223608 0.663623 0
M  V30 11133 H 1067.74 0.558179 1.96839 0
M  V30 11134 H 1067.75 -0.805301 3.99974 0
M  V30 11135 H 1066.43 0.337828 4.14526 0
M  V30 11136 H 1065 -1.36473 3.4703 0
M  V30 11137 N 1067.19 -1.57141 0.120249 0
M  V30 11138 C 1068.43 -1.95527 -0.538245 0
M  V30 11139 C 1068.77 -1.00373 -1.6625 0
M  V30 11140 O 1068.04 -0.0411734 -1.94456 0
M  V30 11141 C 1068.33 -3.43843 -1.06976 0
M  V30 11142 C 1068.18 -4.49771 0.0511596 0
M  V30 11143 C 1069.5 -3.94035 -1.96022 0
M  V30 11144 H 1066.62 -0.710958 -0.194183 0
M  V30 11145 H 1069.26 -1.88986 0.196061 0
M  V30 11146 H 1067.41 -3.49548 -1.69553 0
M  V30 11147 H 1069.08 -4.56163 0.686503 0
M  V30 11148 H 1067.32 -4.27882 0.714127 0
M  V30 11149 H 1067.99 -5.50812 -0.361995 0
M  V30 11150 H 1070.47 -3.9064 -1.43315 0
M  V30 11151 H 1069.35 -4.98329 -2.3013 0
M  V30 11152 H 1069.61 -3.34803 -2.8872 0
M  V30 11153 N 1068.67 0.153526 -1.5685 0
M  V30 11154 C 1069.91 0.868517 -1.83261 0
M  V30 11155 C 1070.25 1.81112 -0.700857 0
M  V30 11156 O 1069.52 1.92235 0.295989 0
M  V30 11157 C 1069.8 1.6487 -3.2014 0
M  V30 11158 C 1069.66 0.728021 -4.43869 0
M  V30 11159 C 1070.98 2.61259 -3.54163 0
M  V30 11160 H 1068.09 0.314297 -0.666623 0
M  V30 11161 H 1070.74 0.133971 -1.89527 0
M  V30 11162 H 1068.89 2.2749 -3.1493 0
M  V30 11163 H 1070.56 0.113328 -4.61161 0
M  V30 11164 H 1068.8 0.0371744 -4.33784 0
M  V30 11165 H 1069.47 1.30981 -5.36235 0
M  V30 11166 H 1071.95 2.0876 -3.59942 0
M  V30 11167 H 1070.82 3.12902 -4.50981 0
M  V30 11168 H 1071.09 3.42307 -2.79782 0
M  V30 11169 N 1070.14 1.51827 0.422667 0
M  V30 11170 C 1071.09 1.74198 1.51406 0
M  V30 11171 C 1072.06 0.584013 1.55494 0
M  V30 11172 O 1073.25 0.820079 1.72277 0
M  V30 11173 C 1070.39 1.88627 2.88988 0
M  V30 11174 C 1069.5 3.16233 2.94314 0
M  V30 11175 C 1068.63 3.21172 4.2311 0
M  V30 11176 C 1067.67 4.43033 4.2236 0
M  V30 11177 N 1066.81 4.4544 5.42704 0
M  V30 11178 H 1071.65 2.67352 1.31632 0
M  V30 11179 H 1069.19 1.32487 0.63919 0
M  V30 11180 H 1071.15 1.94976 3.68837 0
M  V30 11181 H 1069.78 0.988673 3.07287 0
M  V30 11182 H 1068.83 3.19123 2.07039 0
M  V30 11183 H 1070.14 4.06104 2.89623 0
M  V30 11184 H 1069.29 3.26517 5.11343 0
M  V30 11185 H 1068.03 2.29216 4.30478 0
M  V30 11186 H 1067.04 4.37849 3.32518 0
M  V30 11187 H 1068.26 5.3627 4.16643 0
M  V30 11188 H 1066.21 3.56361 5.50766 0
M  V30 11189 H 1066.13 5.29138 5.39953 0
M  V30 11190 H 1067.39 4.54997 6.32928 0
M  V30 11191 N 1071.62 -0.679052 1.4222 0
M  V30 11192 C 1072.85 -1.47248 1.46058 0
M  V30 11193 C 1073.27 -1.87962 0.0720987 0
M  V30 11194 O 1072.63 -1.5572 -0.928488 0
M  V30 11195 C 1072.68 -2.70067 2.38948 0
M  V30 11196 O 1071.78 -3.68178 1.85791 0
M  V30 11197 H 1071.12 -0.442533 0.495036 0
M  V30 11198 H 1073.65 -0.833263 1.86863 0
M  V30 11199 H 1073.66 -3.18187 2.55385 0
M  V30 11200 H 1072.34 -2.39773 3.39826 0
M  V30 11201 H 1070.92 -3.2719 1.78889 0
M  V30 11202 N 1073.1 -1.28322 -0.914942 0
M  V30 11203 C 1074.01 -1.13993 -2.05043 0
M  V30 11204 C 1075.03 -0.0667921 -1.73872 0
M  V30 11205 O 1076.2 -0.275845 -1.99502 0
M  V30 11206 C 1073.27 -0.801856 -3.373 0
M  V30 11207 C 1072.33 -1.95723 -3.82088 0
M  V30 11208 C 1071.56 -1.63519 -5.08033 0
M  V30 11209 O 1071.78 -0.54899 -5.67752 0
M  V30 11210 O 1070.72 -2.47844 -5.48504 0
M  V30 11211 H 1074.54 -2.09313 -2.2005 0
M  V30 11212 H 1072.13 -1.0763 -1.03616 0
M  V30 11213 H 1074.01 -0.627214 -4.16706 0
M  V30 11214 H 1072.69 0.121696 -3.23471 0
M  V30 11215 H 1071.59 -2.18702 -3.03514 0
M  V30 11216 H 1072.93 -2.86144 -4.00478 0
M  V30 11217 N 1074.58 1.12322 -1.10551 0
M  V30 11218 C 1075.82 1.8413 -0.849932 0
M  V30 11219 C 1076.16 1.83938 0.622946 0
M  V30 11220 O 1075.43 1.28579 1.45937 0
M  V30 11221 C 1075.72 3.31751 -1.40048 0
M  V30 11222 C 1075.57 3.40391 -2.9403 0
M  V30 11223 C 1076.89 4.27543 -1.04379 0
M  V30 11224 H 1074.01 0.668533 -0.310213 0
M  V30 11225 H 1076.65 1.31766 -1.36886 0
M  V30 11226 H 1074.8 3.76475 -0.959102 0
M  V30 11227 H 1076.47 3.04294 -3.46703 0
M  V30 11228 H 1074.71 2.809 -3.30571 0
M  V30 11229 H 1075.38 4.44252 -3.27635 0
M  V30 11230 H 1077.86 3.90951 -1.42466 0
M  V30 11231 H 1076.74 5.2924 -1.4559 0
M  V30 11232 H 1077 4.42075 0.0466316 0
M  V30 11233 N 1076.06 0.894434 1.2976 0
M  V30 11234 C 1076.99 0.3847 2.30309 0
M  V30 11235 C 1077.97 -0.537486 1.61385 0
M  V30 11236 O 1079.15 -0.449332 1.8893 0
M  V30 11237 C 1076.28 -0.393311 3.45066 0
M  V30 11238 C 1075.24 0.437968 4.25753 0
M  V30 11239 C 1074.56 -0.467221 5.32655 0
M  V30 11240 C 1075.86 1.6851 4.9437 0
M  V30 11241 H 1077.56 1.22496 2.73194 0
M  V30 11242 H 1075.1 0.590471 1.31337 0
M  V30 11243 H 1077.06 -0.760614 4.14479 0
M  V30 11244 H 1075.78 -1.2673 3.0101 0
M  V30 11245 H 1074.44 0.787533 3.58041 0
M  V30 11246 H 1074.09 -1.33919 4.84845 0
M  V30 11247 H 1073.79 0.0852482 5.87538 0
M  V30 11248 H 1075.31 -0.830833 6.04921 0
M  V30 11249 H 1076.72 1.38784 5.56248 0
M  V30 11250 H 1075.12 2.17849 5.59162 0
M  V30 11251 H 1076.19 2.42412 4.19958 0
M  V30 11252 N 1077.53 -1.43282 0.656365 0
M  V30 11253 C 1078.48 -2.30776 -0.0333155 0
M  V30 11254 C 1079.45 -1.44928 -0.811493 0
M  V30 11255 O 1080.64 -1.73792 -0.787465 0
M  V30 11256 C 1077.78 -3.30548 -0.991566 0
M  V30 11257 C 1076.89 -4.31493 -0.209159 0
M  V30 11258 C 1076.02 -5.18346 -1.16149 0
M  V30 11259 C 1075.06 -6.10983 -0.369699 0
M  V30 11260 N 1074.2 -6.90449 -1.27378 0
M  V30 11261 H 1079.04 -2.89204 0.718668 0
M  V30 11262 H 1076.58 -1.4247 0.366161 0
M  V30 11263 H 1078.54 -3.86905 -1.56078 0
M  V30 11264 H 1077.17 -2.73762 -1.71039 0
M  V30 11265 H 1076.22 -3.77405 0.476394 0
M  V30 11266 H 1077.53 -4.97142 0.406394 0
M  V30 11267 H 1076.68 -5.79345 -1.80124 0
M  V30 11268 H 1075.42 -4.52831 -1.81095 0
M  V30 11269 H 1074.43 -5.49069 0.283377 0
M  V30 11270 H 1075.65 -6.78541 0.275399 0
M  V30 11271 H 1073.6 -6.27579 -1.90999 0
M  V30 11272 H 1073.52 -7.52631 -0.71287 0
M  V30 11273 H 1074.78 -7.5595 -1.90158 0
M  V30 11274 N 1079.01 -0.398486 -1.52479 0
M  V30 11275 C 1080.24 0.183059 -2.06591 0
M  V30 11276 C 1080.66 1.3898 -1.26753 0
M  V30 11277 O 1080.02 1.78885 -0.294959 0
M  V30 11278 C 1080.07 0.522392 -3.56796 0
M  V30 11279 O 1079.17 1.61499 -3.79462 0
M  V30 11280 H 1078.51 0.0188411 -0.663733 0
M  V30 11281 H 1081.04 -0.56861 -1.9654 0
M  V30 11282 H 1081.05 0.784078 -4.00395 0
M  V30 11283 H 1079.73 -0.359807 -4.14341 0
M  V30 11284 H 1078.31 1.3463 -3.47749 0
M  V30 11285 N 1080.49 1.57075 -0.12858 0
M  V30 11286 C 1081.72 1.99876 0.534544 0
M  V30 11287 C 1082.13 1.00843 1.59612 0
M  V30 11288 O 1081.49 0.00268947 1.825 0
M  V30 11289 C 1081.54 3.42654 1.15198 0
M  V30 11290 O 1081.26 4.37899 0.132823 0
M  V30 11291 C 1082.76 4.00637 1.8975 0
M  V30 11292 H 1079.98 0.656073 0.140744 0
M  V30 11293 H 1082.53 2.03337 -0.217742 0
M  V30 11294 H 1080.68 3.40101 1.85499 0
M  V30 11295 H 1081.1 5.21253 0.582682 0
M  V30 11296 H 1082.57 5.02592 2.28266 0
M  V30 11297 H 1083.05 3.40313 2.7764 0
M  V30 11298 H 1083.65 4.06764 1.2419 0
M  V30 11299 N 1081.97 -0.145205 1.5693 0
M  V30 11300 C 1083.22 -0.855822 1.83085 0
M  V30 11301 C 1083.54 -1.81625 0.709747 0
M  V30 11302 O 1082.81 -1.94052 -0.268456 0
M  V30 11303 H 1081.39 -0.319032 0.675446 0
M  V30 11304 H 1084.05 -0.138781 1.94405 0
M  V30 11305 H 1083.15 -1.41698 2.78079 0
M  V30 11306 N 1083.45 -1.52049 -0.414609 0
M  V30 11307 C 1084.38 -1.7122 -1.52369 0
M  V30 11308 C 1085.39 -0.592634 -1.5163 0
M  V30 11309 O 1086.58 -0.867634 -1.55995 0
M  V30 11310 C 1083.68 -1.73247 -2.91271 0
M  V30 11311 C 1082.85 -3.02153 -3.16263 0
M  V30 11312 C 1081.91 -2.96066 -4.35007 0
M  V30 11313 O 1080.94 -3.69981 -4.32554 0
M  V30 11314 N 1082.14 -2.13478 -5.39822 0
M  V30 11315 H 1084.91 -2.66902 -1.3632 0
M  V30 11316 H 1082.47 -1.50218 -0.603842 0
M  V30 11317 H 1084.46 -1.66714 -3.68766 0
M  V30 11318 H 1083.03 -0.85062 -3.00804 0
M  V30 11319 H 1082.25 -3.22379 -2.2686 0
M  V30 11320 H 1083.54 -3.87439 -3.29801 0
M  V30 11321 H 1082.94 -1.52844 -5.44661 0
M  V30 11322 H 1081.49 -2.12805 -6.16082 0
M  V30 11323 N 1084.93 0.6715 -1.42579 0
M  V30 11324 C 1085.87 1.78496 -1.46314 0
M  V30 11325 C 1086.84 1.63091 -0.314743 0
M  V30 11326 O 1088.03 1.83597 -0.519292 0
M  V30 11327 C 1085.17 3.16548 -1.37447 0
M  V30 11328 C 1084.28 3.43216 -2.62348 0
M  V30 11329 C 1083.42 4.71014 -2.456 0
M  V30 11330 C 1082.45 4.90728 -3.65859 0
M  V30 11331 N 1081.59 6.09769 -3.48032 0
M  V30 11332 H 1086.43 1.74638 -2.41466 0
M  V30 11333 H 1083.97 0.852491 -1.19879 0
M  V30 11334 H 1085.93 3.96329 -1.30303 0
M  V30 11335 H 1084.56 3.19522 -0.458891 0
M  V30 11336 H 1083.61 2.57664 -2.79846 0
M  V30 11337 H 1084.92 3.53675 -3.51732 0
M  V30 11338 H 1084.07 5.58892 -2.3606 0
M  V30 11339 H 1082.81 4.62843 -1.53712 0
M  V30 11340 H 1081.82 4.01291 -3.75827 0
M  V30 11341 H 1083.04 5.00741 -4.58732 0
M  V30 11342 H 1080.99 6.02765 -2.58864 0
M  V30 11343 H 1080.91 6.21104 -4.31005 0
M  V30 11344 H 1082.17 7.00317 -3.42311 0
M  V30 11345 N 1086.4 1.28806 0.908124 0
M  V30 11346 C 1087.81 1.14719 1.47297 0
M  V30 11347 C 1088.17 -0.260763 1.94459 0
M  V30 11348 O 1087.29 -1.15553 1.82966 0
M  V30 11349 C 1087.89 2.07643 2.67712 0
M  V30 11350 C 1086.44 1.97605 3.20358 0
M  V30 11351 C 1085.59 1.99058 1.93058 0
M  V30 11352 H 1088.54 1.41413 0.720283 0
M  V30 11353 H 1088.56 1.64372 3.43165 0
M  V30 11354 H 1088.08 3.10108 2.33355 0
M  V30 11355 H 1086.18 0.981982 3.59427 0
M  V30 11356 H 1086.29 2.84846 3.85226 0
M  V30 11357 H 1084.65 1.43541 2.104 0
M  V30 11358 H 1085.44 3.03212 1.60989 0
M  V30 11359 N 1087.88 -1.11734 1.11145 0
M  V30 11360 C 1089.13 -1.83043 0.856717 0
M  V30 11361 C 1089.45 -1.84901 -0.619407 0
M  V30 11362 O 1088.72 -1.31738 -1.44989 0
M  V30 11363 H 1087.3 -0.677823 0.31395 0
M  V30 11364 H 1089.96 -1.35262 1.40322 0
M  V30 11365 H 1089.06 -2.87005 1.22616 0
M  V30 11366 N 1089.36 -0.901303 -1.29284 0
M  V30 11367 C 1090.31 -0.378666 -2.27672 0
M  V30 11368 C 1091.28 0.540102 -1.57074 0
M  V30 11369 O 1092.46 0.464997 -1.85047 0
M  V30 11370 C 1089.6 0.38635 -3.42931 0
M  V30 11371 C 1088.71 -0.563496 -4.28309 0
M  V30 11372 C 1087.85 0.218731 -5.30749 0
M  V30 11373 C 1086.89 -0.725536 -6.07785 0
M  V30 11374 N 1086.03 0.0223854 -7.02096 0
M  V30 11375 H 1090.87 -1.22277 -2.71758 0
M  V30 11376 H 1088.4 -0.614302 -1.33659 0
M  V30 11377 H 1090.36 0.845967 -4.08533 0
M  V30 11378 H 1088.99 1.1949 -2.9987 0
M  V30 11379 H 1088.04 -1.14163 -3.62865 0
M  V30 11380 H 1089.35 -1.28623 -4.81931 0
M  V30 11381 H 1088.51 0.739473 -6.02177 0
M  V30 11382 H 1087.25 0.97459 -4.77863 0
M  V30 11383 H 1086.25 -1.25776 -5.3522 0
M  V30 11384 H 1087.48 -1.48075 -6.6276 0
M  V30 11385 H 1085.42 0.760482 -6.51577 0
M  V30 11386 H 1085.34 -0.640408 -7.53283 0
M  V30 11387 H 1086.61 0.523339 -7.77741 0
M  V30 11388 N 1090.84 1.42931 -0.663954 0
M  V30 11389 C 1092.08 2.01982 -0.182007 0
M  V30 11390 C 1092.42 1.52323 1.20463 0
M  V30 11391 O 1091.69 0.720834 1.80649 0
M  V30 11392 C 1091.97 3.59518 -0.204671 0
M  V30 11393 C 1091.83 4.19382 -1.62599 0
M  V30 11394 C 1093.15 4.37762 0.45308 0
M  V30 11395 H 1090.27 0.733892 -0.0676115 0
M  V30 11396 H 1092.91 1.70092 -0.84668 0
M  V30 11397 H 1091.06 3.86816 0.361295 0
M  V30 11398 H 1092.73 4.03076 -2.24337 0
M  V30 11399 H 1090.97 3.75623 -2.17001 0
M  V30 11400 H 1091.64 5.28496 -1.59362 0
M  V30 11401 H 1094.12 4.1609 -0.0285774 0
M  V30 11402 H 1093 5.47392 0.406538 0
M  V30 11403 H 1093.26 4.1482 1.52895 0
M  V30 11404 N 1092.32 0.406567 1.52266 0
M  V30 11405 C 1093.54 -0.172101 2.06685 0
M  V30 11406 C 1093.97 -1.38306 1.27488 0
M  V30 11407 O 1093.32 -1.78726 0.304441 0
M  V30 11408 C 1093.37 -0.503463 3.57068 0
M  V30 11409 O 1092.48 -1.59485 3.80314 0
M  V30 11410 H 1091.82 -0.0153209 0.663823 0
M  V30 11411 H 1094.35 0.579025 1.96236 0
M  V30 11412 H 1094.36 -0.762833 4.00805 0
M  V30 11413 H 1093.03 0.381775 4.14144 0
M  V30 11414 H 1091.61 -1.32784 3.48458 0
M  V30 11415 N 1093.79 -1.57004 0.136909 0
M  V30 11416 C 1095.04 -1.96087 -0.517477 0
M  V30 11417 C 1095.37 -1.0213 -1.65176 0
M  V30 11418 O 1094.65 -0.0617958 -1.94402 0
M  V30 11419 C 1094.93 -3.44958 -1.03323 0
M  V30 11420 C 1094.78 -4.49691 0.0988609 0
M  V30 11421 C 1096.1 -3.96091 -1.91832 0
M  V30 11422 H 1093.22 -0.712978 -0.186632 0
M  V30 11423 H 1095.86 -1.88767 0.216095 0
M  V30 11424 H 1094.01 -3.51327 -1.65836 0
M  V30 11425 H 1095.69 -4.55409 0.734847 0
M  V30 11426 H 1093.93 -4.271 0.75947 0
M  V30 11427 H 1094.6 -5.51165 -0.303554 0
M  V30 11428 H 1097.08 -3.92139 -1.39164 0
M  V30 11429 H 1095.95 -5.00742 -2.24831 0
M  V30 11430 H 1096.21 -3.37846 -2.85153 0
M  V30 11431 N 1095.27 0.136881 -1.57004 0
M  V30 11432 C 1096.18 1.18793 -2.023 0
M  V30 11433 C 1097.2 1.46412 -0.94018 0
M  V30 11434 O 1098.37 1.57883 -1.2504 0
M  V30 11435 C 1095.44 2.49903 -2.40311 0
M  V30 11436 C 1094.5 2.29841 -3.6259 0
M  V30 11437 C 1093.73 3.54699 -3.98779 0
M  V30 11438 O 1093.96 4.61291 -3.3551 0
M  V30 11439 O 1092.89 3.46761 -4.91976 0
M  V30 11440 H 1096.72 0.833345 -2.92043 0
M  V30 11441 H 1094.3 0.346361 -1.4533 0
M  V30 11442 H 1096.18 3.27183 -2.65574 0
M  V30 11443 H 1094.86 2.84872 -1.5372 0
M  V30 11444 H 1093.77 1.50478 -3.42501 0
M  V30 11445 H 1095.1 1.99784 -4.4983 0
M  V30 11446 N 1096.75 1.52266 0.40654 0
M  V30 11447 C 1098 1.66123 1.15097 0
M  V30 11448 C 1098.32 0.394836 1.90961 0
M  V30 11449 O 1097.59 -0.590349 1.86793 0
M  V30 11450 H 1096.17 0.612317 0.427875 0
M  V30 11451 H 1098.83 1.89318 0.463106 0
M  V30 11452 H 1097.93 2.50351 1.86361 0
M  V30 11453 N 1098.23 -0.663929 1.42933 0
M  V30 11454 C 1099.18 -1.77717 1.47259 0
M  V30 11455 C 1100.15 -1.62922 0.323387 0
M  V30 11456 O 1101.33 -1.83319 0.529021 0
M  V30 11457 C 1098.47 -3.15814 1.39124 0
M  V30 11458 C 1097.58 -3.4182 2.64165 0
M  V30 11459 C 1096.72 -4.69705 2.48094 0
M  V30 11460 C 1095.76 -4.88781 3.68456 0
M  V30 11461 N 1094.89 -6.07915 3.51261 0
M  V30 11462 H 1099.73 -1.73355 2.42388 0
M  V30 11463 H 1097.27 -0.846121 1.2033 0
M  V30 11464 H 1099.23 -3.95633 1.32403 0
M  V30 11465 H 1097.86 -3.19274 0.475829 0
M  V30 11466 H 1096.91 -2.56176 2.81208 0
M  V30 11467 H 1098.22 -3.51805 3.53602 0
M  V30 11468 H 1097.38 -5.57632 2.39021 0
M  V30 11469 H 1096.12 -4.62022 1.56164 0
M  V30 11470 H 1095.12 -3.99292 3.7795 0
M  V30 11471 H 1096.35 -4.98301 4.61381 0
M  V30 11472 H 1094.29 -6.01384 2.62057 0
M  V30 11473 H 1094.21 -6.1881 4.34293 0
M  V30 11474 H 1095.48 -6.98492 3.4602 0
M  V30 11475 N 1099.71 -1.29285 -0.901281 0
M  V30 11476 C 1100.62 -1.16161 -2.03823 0
M  V30 11477 C 1101.63 -0.0852298 -1.73791 0
M  V30 11478 O 1102.81 -0.29699 -1.99198 0
M  V30 11479 C 1099.87 -0.837586 -3.3643 0
M  V30 11480 C 1098.93 -1.99764 -3.7999 0
M  V30 11481 C 1098.17 -1.68898 -5.0627 0
M  V30 11482 O 1098.39 -0.609177 -5.67138 0
M  V30 11483 O 1097.32 -2.53648 -5.45845 0
M  V30 11484 H 1101.15 -2.11635 -2.17817 0
M  V30 11485 H 1098.74 -1.08722 -1.02468 0
M  V30 11486 H 1100.62 -0.671376 -4.16017 0
M  V30 11487 H 1099.29 0.0873811 -3.23582 0
M  V30 11488 H 1098.2 -2.21908 -3.01177 0
M  V30 11489 H 1099.53 -2.90376 -3.9742 0
M  V30 11490 N 1101.18 1.11143 -1.11736 0
M  V30 11491 C 1102.43 1.83219 -0.869413 0
M  V30 11492 C 1102.76 1.84588 0.603402 0
M  V30 11493 O 1102.04 1.30119 1.44566 0
M  V30 11494 C 1102.32 3.30247 -1.43559 0
M  V30 11495 C 1102.17 3.37253 -2.97624 0
M  V30 11496 C 1103.49 4.26412 -1.08907 0
M  V30 11497 H 1100.61 0.665205 -0.317286 0
M  V30 11498 H 1103.25 1.30307 -1.38275 0
M  V30 11499 H 1101.4 3.75437 -0.998978 0
M  V30 11500 H 1103.08 3.00599 -3.49911 0
M  V30 11501 H 1101.32 2.77378 -3.33532 0
M  V30 11502 H 1101.99 4.40752 -3.32328 0
M  V30 11503 H 1104.47 3.89418 -1.46604 0
M  V30 11504 H 1103.34 5.27666 -1.51195 0
M  V30 11505 H 1103.6 4.421 -0.000259009 0
M  V30 11506 N 1102.66 0.908147 1.28804 0
M  V30 11507 C 1103.57 0.397167 2.31214 0
M  V30 11508 C 1104.59 -0.512352 1.66286 0
M  V30 11509 O 1105.76 -0.399893 1.9739 0
M  V30 11510 C 1102.83 -0.359522 3.44831 0
M  V30 11511 C 1101.89 0.582539 4.25329 0
M  V30 11512 C 1101.12 -0.138133 5.33521 0
M  V30 11513 O 1101.35 -1.36076 5.53931 0
M  V30 11514 O 1100.28 0.523682 5.99618 0
M  V30 11515 H 1104.11 1.247 2.76918 0
M  V30 11516 H 1101.69 0.672766 1.33395 0
M  V30 11517 H 1103.57 -0.787098 4.13984 0
M  V30 11518 H 1102.25 -1.18528 3.01219 0
M  V30 11519 H 1101.16 1.0594 3.58786 0
M  V30 11520 H 1102.49 1.37495 4.72605 0
M  V30 11521 N 1104.14 -1.42577 0.671525 0
M  V30 11522 C 1105.39 -2.01882 0.192716 0
M  V30 11523 C 1105.72 -1.52959 -1.19654 0
M  V30 11524 O 1104.99 -0.730404 -1.80265 0
M  V30 11525 C 1105.28 -3.59404 0.223734 0
M  V30 11526 C 1105.13 -4.18514 1.64821 0
M  V30 11527 C 1106.45 -4.37996 -0.429858 0
M  V30 11528 H 1103.57 -0.733523 0.0715026 0
M  V30 11529 H 1106.21 -1.69641 0.855689 0
M  V30 11530 H 1104.36 -3.87003 -0.340776 0
M  V30 11531 H 1106.03 -4.01881 2.26472 0
M  V30 11532 H 1104.28 -3.74467 2.1899 0
M  V30 11533 H 1104.95 -5.27643 1.62162 0
M  V30 11534 H 1107.42 -4.16069 0.0506433 0
M  V30 11535 H 1106.3 -5.476 -0.377503 0
M  V30 11536 H 1106.56 -4.15625 -1.50693 0
M  V30 11537 N 1105.62 -0.414636 -1.52048 0
M  V30 11538 C 1106.85 0.158686 -2.06291 0
M  V30 11539 C 1107.26 1.38397 -1.2842 0
M  V30 11540 O 1106.62 1.79351 -0.337539 0
M  V30 11541 C 1106.67 0.503634 -3.57975 0
M  V30 11542 O 1106.39 -0.672996 -4.329 0
M  V30 11543 C 1107.89 1.13009 -4.28653 0
M  V30 11544 H 1105.11 0.0179622 -0.67076 0
M  V30 11545 H 1107.66 -0.587177 -1.95889 0
M  V30 11546 H 1105.81 1.19939 -3.68366 0
M  V30 11547 H 1106.22 -0.383735 -5.23094 0
M  V30 11548 H 1107.7 1.32162 -5.35945 0
M  V30 11549 H 1108.18 2.10476 -3.85482 0
M  V30 11550 H 1108.78 0.474379 -4.22646 0
M  V30 11551 N 1107.1 1.56929 -0.145233 0
M  V30 11552 C 1108.34 1.95681 0.50532 0
M  V30 11553 C 1108.67 1.03098 1.65516 0
M  V30 11554 O 1107.94 0.0921961 1.95683 0
M  V30 11555 H 1106.52 0.72252 0.189668 0
M  V30 11556 H 1109.18 1.93651 -0.220318 0
M  V30 11557 H 1108.27 2.99359 0.882631 0
M  V30 11558 N 1108.58 -0.128553 1.57075 0
M  V30 11559 C 1109.8 -0.8564 1.88893 0
M  V30 11560 C 1110.23 -1.73095 0.736196 0
M  V30 11561 O 1109.58 -1.78567 -0.313629 0
M  V30 11562 C 1109.63 -1.67368 3.19406 0
M  V30 11563 O 1108.74 -2.77973 3.04639 0
M  V30 11564 H 1108.08 -0.237424 0.620102 0
M  V30 11565 H 1110.61 -0.113821 2.04283 0
M  V30 11566 H 1110.62 -2.0649 3.51889 0
M  V30 11567 H 1109.29 -1.03161 4.02903 0
M  V30 11568 H 1107.87 -2.42123 2.83603 0
M  V30 11569 N 1110.05 -1.5248 -0.398459 0
M  V30 11570 C 1111.28 -1.70925 -1.16586 0
M  V30 11571 C 1111.7 -0.42342 -1.83991 0
M  V30 11572 O 1111.05 0.601395 -1.72306 0
M  V30 11573 C 1111.1 -2.85226 -2.22099 0
M  V30 11574 O 1110.83 -4.08831 -1.57444 0
M  V30 11575 C 1112.33 -3.15272 -3.11639 0
M  V30 11576 H 1109.55 -0.572533 -0.349924 0
M  V30 11577 H 1112.09 -1.99087 -0.467416 0
M  V30 11578 H 1110.25 -2.59553 -2.87595 0
M  V30 11579 H 1110.66 -4.72603 -2.2748 0
M  V30 11580 H 1112.13 -3.98737 -3.81724 0
M  V30 11581 H 1112.61 -2.29262 -3.74614 0
M  V30 11582 H 1113.22 -3.42749 -2.518 0
M  V30 11583 N 1111.53 0.65634 -1.43283 0
M  V30 11584 C 1112.78 1.41837 -1.44949 0
M  V30 11585 C 1113.11 1.94065 -0.0723212 0
M  V30 11586 O 1112.39 1.72092 0.906346 0
M  V30 11587 C 1112.67 2.60206 -2.48927 0
M  V30 11588 C 1112.52 2.1349 -3.95907 0
M  V30 11589 C 1113.84 3.62421 -2.49678 0
M  V30 11590 H 1110.96 0.514398 -0.527792 0
M  V30 11591 H 1113.6 0.74435 -1.74813 0
M  V30 11592 H 1111.75 3.17708 -2.23592 0
M  V30 11593 H 1113.42 1.61012 -4.32288 0
M  V30 11594 H 1111.67 1.4489 -4.08888 0
M  V30 11595 H 1112.34 2.98596 -4.64268 0
M  V30 11596 H 1114.81 3.14671 -2.72252 0
M  V30 11597 H 1113.69 4.42798 -3.24378 0
M  V30 11598 H 1113.95 4.14802 -1.52944 0
M  V30 11599 N 1113.01 1.29761 0.894412 0
M  V30 11600 C 1114.24 1.2094 1.67872 0
M  V30 11601 C 1114.65 -0.229192 1.87404 0
M  V30 11602 O 1114.01 -1.15278 1.41482 0
M  V30 11603 C 1114.06 1.92424 3.06032 0
M  V30 11604 O 1113.78 3.30665 2.87388 0
M  V30 11605 C 1115.28 1.90144 4.0045 0
M  V30 11606 H 1112.5 0.418942 0.524145 0
M  V30 11607 H 1115.05 1.71226 1.11813 0
M  V30 11608 H 1113.2 1.4596 3.58851 0
M  V30 11609 H 1113.62 3.66741 3.74969 0
M  V30 11610 H 1115.09 2.44716 4.94791 0
M  V30 11611 H 1115.57 0.878175 4.30331 0
M  V30 11612 H 1116.17 2.36375 3.53563 0
M  V30 11613 N 1114.49 -1.10549 1.12324 0
M  V30 11614 C 1115.71 -1.8681 0.900927 0
M  V30 11615 C 1116.14 -1.80049 -0.54443 0
M  V30 11616 O 1115.5 -1.16957 -1.38531 0
M  V30 11617 C 1115.54 -3.33197 1.37883 0
M  V30 11618 O 1114.65 -4.08628 0.556529 0
M  V30 11619 H 1113.99 -0.579709 0.32378 0
M  V30 11620 H 1116.52 -1.39678 1.49503 0
M  V30 11621 H 1116.53 -3.84047 1.37739 0
M  V30 11622 H 1115.2 -3.37435 2.43127 0
M  V30 11623 H 1113.78 -3.67627 0.62486 0
M  V30 11624 N 1115.97 -0.914965 -1.28321 0
M  V30 11625 C 1117.2 -0.563835 -1.98757 0
M  V30 11626 C 1117.6 0.859528 -1.68549 0
M  V30 11627 O 1116.95 1.58105 -0.935336 0
M  V30 11628 C 1117.01 -0.694539 -3.52727 0
M  V30 11629 C 1116.67 -2.08767 -4.06528 0
M  V30 11630 C 1117.67 -3.06052 -4.20272 0
M  V30 11631 C 1115.35 -2.40118 -4.4119 0
M  V30 11632 C 1117.35 -4.32803 -4.67932 0
M  V30 11633 C 1115.04 -3.67108 -4.88544 0
M  V30 11634 C 1116.03 -4.63265 -5.01871 0
M  V30 11635 O 1115.72 -5.87997 -5.48192 0
M  V30 11636 H 1115.45 -0.213557 -0.641381 0
M  V30 11637 H 1118.01 -1.23062 -1.64453 0
M  V30 11638 H 1116.24 0.0293186 -3.86689 0
M  V30 11639 H 1117.93 -0.350335 -4.04385 0
M  V30 11640 H 1118.69 -2.8315 -3.93765 0
M  V30 11641 H 1114.57 -1.66025 -4.30066 0
M  V30 11642 H 1118.12 -5.07861 -4.78249 0
M  V30 11643 H 1114.01 -3.89834 -5.14489 0
M  V30 11644 H 1114.78 -5.90804 -5.66474 0
M  V30 11645 N 1117.44 1.42219 -0.679077 0
M  V30 11646 C 1118.69 2.02291 -0.212115 0
M  V30 11647 C 1119.04 1.52755 1.16977 0
M  V30 11648 O 1118.34 0.721827 1.77483 0
M  V30 11649 C 1118.53 3.56889 -0.191027 0
M  V30 11650 C 1118.36 4.21429 -1.56933 0
M  V30 11651 C 1117.13 4.5642 -2.16814 0
M  V30 11652 C 1119.33 4.48733 -2.51283 0
M  V30 11653 N 1117.31 5.06162 -3.47381 0
M  V30 11654 C 1118.68 5.00072 -3.66508 0
M  V30 11655 C 1120.74 4.30726 -2.49758 0
M  V30 11656 C 1119.44 5.35296 -4.80469 0
M  V30 11657 C 1121.47 4.67029 -3.62819 0
M  V30 11658 C 1120.83 5.18524 -4.76773 0
M  V30 11659 H 1116.93 0.772324 -0.122637 0
M  V30 11660 H 1119.51 1.73014 -0.89299 0
M  V30 11661 H 1117.68 3.85675 0.459276 0
M  V30 11662 H 1119.41 4.03665 0.289217 0
M  V30 11663 H 1116.17 4.42321 -1.69261 0
M  V30 11664 H 1116.59 5.35457 -4.14264 0
M  V30 11665 H 1121.23 3.90166 -1.62882 0
M  V30 11666 H 1118.95 5.74788 -5.68018 0
M  V30 11667 H 1122.54 4.54769 -3.62872 0
M  V30 11668 H 1121.42 5.4609 -5.6281 0
M  V30 11669 N 1118.92 0.422693 1.51826 0
M  V30 11670 C 1119.88 -0.384307 2.25955 0
M  V30 11671 C 1120.88 -0.962184 1.28836 0
M  V30 11672 O 1122.07 -0.838931 1.52668 0
M  V30 11673 C 1119.21 -1.54228 3.04018 0
M  V30 11674 H 1120.4 0.265157 2.98726 0
M  V30 11675 H 1117.95 0.175515 1.55311 0
M  V30 11676 H 1118.69 -2.22822 2.35629 0
M  V30 11677 H 1118.47 -1.13425 3.75336 0
M  V30 11678 H 1119.96 -2.1128 3.60209 0
M  V30 11679 N 1120.4 -1.5685 0.153553 0
M  V30 11680 C 1121.35 -2.18385 -0.800667 0
M  V30 11681 C 1122.34 -1.14272 -1.25053 0
M  V30 11682 O 1123.55 -1.32509 -1.21825 0
M  V30 11683 H 1119.92 -0.699352 -0.276425 0
M  V30 11684 H 1121.89 -2.97287 -0.257535 0
M  V30 11685 C 1120.64 -2.82497 -2.02708 0
M  V30 11686 H 1119.97 -3.62328 -1.68992 0
M  V30 11687 H 1121.41 -3.29047 -2.67403 0
M  V30 11688 C 1119.86 -1.81343 -2.8393 0
M  V30 11689 O 1120.39 -1.28793 -3.80493 0
M  V30 11690 N 1118.6 -1.50499 -2.48593 0
M  V30 11691 H 1118.15 -1.93425 -1.70131 0
M  V30 11692 H 1118.11 -0.830672 -3.03228 0
M  V30 11693 N 1121.88 0.120221 -1.57141 0
M  V30 11694 C 1122.82 1.14751 -2.00252 0
M  V30 11695 C 1123.79 1.41217 -0.874462 0
M  V30 11696 O 1124.98 1.53104 -1.13859 0
M  V30 11697 C 1122.12 2.46923 -2.41087 0
M  V30 11698 C 1121.23 2.27403 -3.67303 0
M  V30 11699 C 1120.37 3.52797 -3.97125 0
M  V30 11700 C 1119.41 3.28429 -5.16528 0
M  V30 11701 N 1118.54 4.46022 -5.42226 0
M  V30 11702 H 1123.38 0.772884 -2.87803 0
M  V30 11703 H 1120.92 0.370137 -1.42367 0
M  V30 11704 H 1122.88 3.24025 -2.62799 0
M  V30 11705 H 1121.51 2.82281 -1.5658 0
M  V30 11706 H 1120.56 1.41224 -3.53214 0
M  V30 11707 H 1121.87 2.05373 -4.54558 0
M  V30 11708 H 1121.03 4.38318 -4.19479 0
M  V30 11709 H 1119.77 3.77857 -3.08343 0
M  V30 11710 H 1118.77 2.41299 -4.94019 0
M  V30 11711 H 1120 3.0474 -6.06886 0
M  V30 11712 H 1117.94 4.71205 -4.56401 0
M  V30 11713 H 1117.86 4.27092 -6.23802 0
M  V30 11714 H 1119.13 5.3268 -5.69098 0
M  V30 11715 N 1123.36 1.52689 0.390367 0
M  V30 11716 C 1124.58 1.71839 1.16129 0
M  V30 11717 C 1125.01 0.435226 1.82996 0
M  V30 11718 O 1124.36 -0.60889 1.70769 0
M  V30 11719 C 1124.41 2.86784 2.18603 0
M  V30 11720 O 1123.52 2.53662 3.25161 0
M  V30 11721 H 1122.86 0.571455 0.338135 0
M  V30 11722 H 1125.39 1.99475 0.45508 0
M  V30 11723 H 1125.4 3.12239 2.62622 0
M  V30 11724 H 1124.07 3.79872 1.69322 0
M  V30 11725 H 1122.65 2.38942 2.86289 0
M  V30 11726 N 1124.83 -0.648732 1.43629 0
M  V30 11727 C 1126.08 -1.40579 1.45196 0
M  V30 11728 C 1126.4 -1.9484 0.0790556 0
M  V30 11729 O 1125.67 -1.74707 -0.886239 0
M  V30 11730 H 1124.25 -0.52175 0.53459 0
M  V30 11731 H 1126.92 -0.764796 1.79268 0
M  V30 11732 H 1126.01 -2.24591 2.16715 0
M  V30 11733 N 1126.31 -1.30234 -0.887518 0
M  V30 11734 C 1127.28 -1.16384 -1.97452 0
M  V30 11735 C 1128.28 -0.0957942 -1.60514 0
M  V30 11736 O 1129.47 -0.343706 -1.70776 0
M  V30 11737 C 1126.6 -0.782514 -3.31797 0
M  V30 11738 H 1127.79 -2.12952 -2.11167 0
M  V30 11739 H 1125.34 -1.13594 -1.07359 0
M  V30 11740 H 1126.08 0.18278 -3.23785 0
M  V30 11741 H 1125.86 -1.55434 -3.59976 0
M  V30 11742 H 1127.35 -0.709011 -4.11537 0
M  V30 11743 N 1127.79 1.09952 -1.12909 0
M  V30 11744 C 1129.2 1.63516 -0.901087 0
M  V30 11745 C 1129.55 1.87932 0.563547 0
M  V30 11746 O 1128.68 1.625 1.42908 0
M  V30 11747 C 1129.27 2.97054 -1.62924 0
M  V30 11748 C 1127.83 3.47464 -1.44725 0
M  V30 11749 C 1126.98 2.21979 -1.66194 0
M  V30 11750 H 1129.93 0.933858 -1.28315 0
M  V30 11751 H 1129.95 3.64757 -1.08318 0
M  V30 11752 H 1129.46 2.79251 -2.69519 0
M  V30 11753 H 1127.56 3.70402 -0.40409 0
M  V30 11754 H 1127.68 4.25254 -2.20671 0
M  V30 11755 H 1126.04 2.30368 -1.0864 0
M  V30 11756 H 1126.82 2.06702 -2.74097 0
M  V30 11757 N 1129.27 0.921757 1.27833 0
M  V30 11758 C 1130.23 0.420978 2.25301 0
M  V30 11759 C 1131.23 -0.457158 1.54165 0
M  V30 11760 O 1132.42 -0.259079 1.72263 0
M  V30 11761 C 1129.55 -0.395501 3.38598 0
M  V30 11762 H 1130.75 1.28206 2.71115 0
M  V30 11763 H 1128.3 0.701893 1.39654 0
M  V30 11764 H 1129.03 -1.27565 2.98157 0
M  V30 11765 H 1128.82 0.234029 3.91401 0
M  V30 11766 H 1130.31 -0.736444 4.11055 0
M  V30 11767 N 1130.75 -1.41857 0.686609 0
M  V30 11768 C 1131.97 -2.05699 0.222561 0
M  V30 11769 C 1132.39 -1.51636 -1.12481 0
M  V30 11770 O 1131.75 -0.660925 -1.70112 0
M  V30 11771 C 1131.8 -3.61138 0.161818 0
M  V30 11772 O 1131.52 -4.13199 1.45596 0
M  V30 11773 C 1133.02 -4.42112 -0.324304 0
M  V30 11774 H 1130.24 -0.662665 0.10543 0
M  V30 11775 H 1132.78 -1.81788 0.936671 0
M  V30 11776 H 1130.94 -3.8412 -0.503056 0
M  V30 11777 H 1131.35 -5.0717 1.33712 0
M  V30 11778 H 1132.83 -5.51097 -0.315694 0
M  V30 11779 H 1133.3 -4.1756 -1.36164 0
M  V30 11780 H 1133.91 -4.24174 0.309251 0
M  V30 11781 N 1132.22 -0.430739 -1.51599 0
M  V30 11782 C 1133.45 0.139197 -2.06932 0
M  V30 11783 C 1133.87 1.3626 -1.29672 0
M  V30 11784 O 1133.23 1.78219 -0.332836 0
M  V30 11785 C 1133.28 0.446593 -3.57824 0
M  V30 11786 O 1132.38 1.53414 -3.82803 0
M  V30 11787 H 1131.73 0.00475812 -0.663983 0
M  V30 11788 H 1134.26 -0.610171 -1.9529 0
M  V30 11789 H 1134.27 0.698972 -4.01968 0
M  V30 11790 H 1132.94 -0.447613 -4.13484 0
M  V30 11791 H 1131.52 1.27224 -3.50526 0
M  V30 11792 N 1133.7 1.56767 -0.161869 0
M  V30 11793 C 1134.93 2.00673 0.491314 0
M  V30 11794 C 1135.34 1.04111 1.5798 0
M  V30 11795 O 1134.68 0.0324889 1.83671 0
M  V30 11796 C 1134.75 3.41011 1.13806 0
M  V30 11797 C 1134.41 4.56595 0.192384 0
M  V30 11798 C 1135.41 5.16591 -0.585671 0
M  V30 11799 C 1133.09 5.02218 0.0909594 0
M  V30 11800 C 1135.09 6.20631 -1.45245 0
M  V30 11801 C 1132.77 6.06109 -0.77941 0
M  V30 11802 C 1133.77 6.65187 -1.54971 0
M  V30 11803 O 1133.46 7.67065 -2.40555 0
M  V30 11804 H 1133.19 0.663174 0.131059 0
M  V30 11805 H 1135.74 2.03775 -0.257896 0
M  V30 11806 H 1133.97 3.34793 1.93521 0
M  V30 11807 H 1135.66 3.68931 1.69248 0
M  V30 11808 H 1136.43 4.82232 -0.517432 0
M  V30 11809 H 1132.31 4.55953 0.680292 0
M  V30 11810 H 1135.85 6.66671 -2.05415 0
M  V30 11811 H 1131.75 6.39894 -0.848887 0
M  V30 11812 H 1132.52 7.84348 -2.33966 0
M  V30 11813 N 1135.18 -0.111886 1.57202 0
M  V30 11814 C 1136.6 -0.465629 1.52657 0
M  V30 11815 C 1136.8 -1.81463 0.875989 0
M  V30 11816 O 1135.85 -2.4825 0.461345 0
M  V30 11817 C 1137.17 -0.443571 2.9741 0
M  V30 11818 C 1138.71 -0.52662 3.08538 0
M  V30 11819 C 1139.19 -0.53488 4.54866 0
M  V30 11820 N 1140.68 -0.596117 4.59348 0
M  V30 11821 C 1141.41 -0.624073 5.69994 0
M  V30 11822 N 1140.91 -0.609245 6.90116 0
M  V30 11823 N 1142.7 -0.667619 5.58121 0
M  V30 11824 H 1134.85 0.771925 1.97876 0
M  V30 11825 H 1137.12 0.285534 0.903977 0
M  V30 11826 H 1136.82 0.480138 3.48407 0
M  V30 11827 H 1136.7 -1.26876 3.55221 0
M  V30 11828 H 1139.08 -1.44075 2.57539 0
M  V30 11829 H 1139.17 0.326396 2.53709 0
M  V30 11830 H 1138.81 0.375233 5.06512 0
M  V30 11831 H 1138.74 -1.40488 5.07514 0
M  V30 11832 H 1141.23 -0.613452 3.72888 0
M  V30 11833 H 1141.54 -0.633396 7.702 0
M  V30 11834 H 1139.89 -0.576557 6.92604 0
M  V30 11835 H 1143.08 -0.676616 4.63184 0
M  V30 11836 H 1143.25 -0.685938 6.44359 0
M  V30 11837 N 1136.66 -1.52894 -0.382264 0
M  V30 11838 C 1137.91 -1.68266 -1.12663 0
M  V30 11839 C 1138.23 -0.425974 -1.89778 0
M  V30 11840 O 1137.49 0.59178 -1.86538 0
M  V30 11841 C 1137.79 -2.87309 -2.12576 0
M  V30 11842 C 1137.45 -4.24484 -1.52067 0
M  V30 11843 C 1136.12 -4.6179 -1.35292 0
M  V30 11844 C 1138.47 -5.09858 -1.08138 0
M  V30 11845 C 1135.8 -5.82123 -0.731449 0
M  V30 11846 C 1138.15 -6.30822 -0.473986 0
M  V30 11847 C 1136.81 -6.66854 -0.293585 0
M  V30 11848 H 1136.08 -0.615728 -0.412262 0
M  V30 11849 H 1138.73 -1.8705 -0.410425 0
M  V30 11850 H 1137.03 -2.62968 -2.90439 0
M  V30 11851 H 1138.73 -2.96397 -2.70092 0
M  V30 11852 H 1135.32 -3.951 -1.66114 0
M  V30 11853 H 1139.5 -4.816 -1.19898 0
M  V30 11854 H 1134.76 -6.08643 -0.579938 0
M  V30 11855 H 1138.93 -6.96287 -0.125324 0
M  V30 11856 H 1136.56 -7.59962 0.190054 0
M  V30 11857 N 1138.14 0.641106 -1.43971 0
M  V30 11858 C 1139.1 1.73539 -1.49723 0
M  V30 11859 C 1140.1 1.56235 -0.380438 0
M  V30 11860 O 1141.29 1.61912 -0.642673 0
M  V30 11861 C 1138.42 3.1253 -1.36153 0
M  V30 11862 H 1139.62 1.69816 -2.47189 0
M  V30 11863 H 1137.17 0.853867 -1.30915 0
M  V30 11864 H 1137.9 3.21856 -0.39742 0
M  V30 11865 H 1137.69 3.26496 -2.17124 0
M  V30 11866 H 1139.18 3.92303 -1.43138 0
M  V30 11867 N 1139.62 1.30703 0.880598 0
M  V30 11868 C 1140.86 1.19142 1.62752 0
M  V30 11869 C 1141.18 -0.251795 1.93973 0
M  V30 11870 O 1142.38 -0.488971 2.67061 0
M  V30 11871 C 1140.84 2.08503 2.93351 0
M  V30 11872 C 1140.45 3.57758 2.69653 0
M  V30 11873 C 1142.19 2.05715 3.71324 0
M  V30 11874 C 1140.1 4.39161 3.96096 0
M  V30 11875 H 1139.03 0.442332 0.610622 0
M  V30 11876 H 1141.68 1.55483 0.974547 0
M  V30 11877 H 1140.06 1.65049 3.59965 0
M  V30 11878 H 1141.24 4.09388 2.11513 0
M  V30 11879 H 1139.55 3.62414 2.0505 0
M  V30 11880 H 1142.15 2.63783 4.65105 0
M  V30 11881 H 1142.49 1.04168 4.03057 0
M  V30 11882 H 1143.02 2.47313 3.11579 0
M  V30 11883 H 1139.76 5.4142 3.69519 0
M  V30 11884 H 1139.28 3.92293 4.53725 0
M  V30 11885 H 1140.96 4.50823 4.64077 0
M  V30 11886 N 1141.09 -1.09351 1.1349 0
M  V30 11887 C 1142.34 -1.81185 0.89535 0
M  V30 11888 C 1142.66 -1.86173 -0.580048 0
M  V30 11889 O 1141.93 -1.34784 -1.42162 0
M  V30 11890 H 1140.51 -0.671011 0.328257 0
M  V30 11891 H 1143.17 -1.32255 1.43159 0
M  V30 11892 H 1142.27 -2.84339 1.28676 0
M  V30 11893 N 1142.57 -0.928524 -1.27343 0
M  V30 11894 C 1143.82 -0.568267 -1.93946 0
M  V30 11895 C 1144.14 0.893501 -1.73325 0
M  V30 11896 O 1143.41 1.63344 -1.08147 0
M  V30 11897 H 1141.99 -0.207173 -0.717696 0
M  V30 11898 H 1144.65 -1.1811 -1.55036 0
M  V30 11899 H 1143.75 -0.775246 -3.02318 0
M  V30 11900 N 1144.05 1.41491 -0.694123 0
M  V30 11901 C 1145.27 2.06099 -0.23197 0
M  V30 11902 C 1145.7 1.51888 1.10958 0
M  V30 11903 O 1145.06 0.645247 1.69429 0
M  V30 11904 C 1145.11 3.60053 -0.198522 0
M  V30 11905 O 1144.21 4.04021 0.827067 0
M  V30 11906 H 1143.55 0.654193 -0.113699 0
M  V30 11907 H 1146.08 1.81282 -0.948575 0
M  V30 11908 H 1146.09 4.0799 -0.0288904 0
M  V30 11909 H 1144.77 3.98879 -1.17764 0
M  V30 11910 H 1143.34 3.67593 0.626908 0
M  V30 11911 N 1145.53 0.438773 1.51369 0
M  V30 11912 C 1146.8 -0.18722 1.94702 0
M  V30 11913 C 1147.18 -1.59962 1.37752 0
M  V30 11914 O 1146.53 -2.214 0.565171 0
M  V30 11915 C 1146.74 -0.163491 3.48617 0
M  V30 11916 C 1148.09 -0.368355 4.22999 0
M  V30 11917 O 1149.11 -0.241541 3.5538 0
M  V30 11918 O 1147.97 -0.620916 5.42961 0
M  V30 11919 H 1145.07 -0.129194 0.816846 0
M  V30 11920 H 1147.61 0.496855 1.62263 0
M  V30 11921 H 1146.39 0.823882 3.82528 0
M  V30 11922 H 1146.01 -0.890414 3.87501 0
M  V30 11923 N 1147.01 -1.56678 0.170181 0
M  V30 11924 C 1147.97 -2.16698 -0.746622 0
M  V30 11925 C 1148.97 -1.11475 -1.15888 0
M  V30 11926 O 1150.16 -1.36994 -1.07602 0
M  V30 11927 C 1147.29 -2.74892 -2.01612 0
M  V30 11928 H 1148.48 -2.99061 -0.224135 0
M  V30 11929 H 1146.04 -1.56098 -0.0793761 0
M  V30 11930 H 1146.77 -1.96259 -2.58172 0
M  V30 11931 H 1146.56 -3.51896 -1.72949 0
M  V30 11932 H 1148.05 -3.21058 -2.67042 0
M  V30 11933 N 1148.48 0.103547 -1.57259 0
M  V30 11934 C 1149.76 0.839768 -1.76656 0
M  V30 11935 C 1150.14 1.9734 -0.749666 0
M  V30 11936 O 1149.49 2.27405 0.223466 0
M  V30 11937 C 1149.7 1.34218 -3.22159 0
M  V30 11938 C 1151.05 1.78835 -3.85102 0
M  V30 11939 O 1152.07 1.43861 -3.25857 0
M  V30 11940 O 1150.93 2.43474 -4.89267 0
M  V30 11941 H 1148.02 0.399928 -0.723869 0
M  V30 11942 H 1150.57 0.0860857 -1.69482 0
M  V30 11943 H 1149.34 0.52956 -3.877 0
M  V30 11944 H 1148.96 2.15811 -3.33933 0
M  V30 11945 N 1149.96 1.53094 0.37415 0
M  V30 11946 C 1151.19 1.72508 1.13687 0
M  V30 11947 C 1151.6 0.449922 1.83773 0
M  V30 11948 O 1150.94 -0.586391 1.74089 0
M  V30 11949 C 1151 2.82965 2.21746 0
M  V30 11950 C 1150.67 4.23599 1.71501 0
M  V30 11951 C 1151.67 5.06245 1.1837 0
M  V30 11952 C 1149.35 4.69978 1.77273 0
M  V30 11953 C 1151.34 6.33357 0.71679 0
M  V30 11954 C 1149.03 5.9707 1.30194 0
M  V30 11955 C 1150.03 6.7859 0.774856 0
M  V30 11956 O 1149.72 8.03298 0.310981 0
M  V30 11957 H 1149.45 0.580611 0.346218 0
M  V30 11958 H 1152 2.00596 0.441614 0
M  V30 11959 H 1150.23 2.5033 2.9474 0
M  V30 11960 H 1151.92 2.90638 2.83345 0
M  V30 11961 H 1152.69 4.71591 1.13256 0
M  V30 11962 H 1148.57 4.06605 2.17241 0
M  V30 11963 H 1152.11 6.96934 0.30471 0
M  V30 11964 H 1148.01 6.31225 1.34999 0
M  V30 11965 H 1148.78 8.17364 0.431098 0
M  V30 11966 N 1151.44 -0.633461 1.44309 0
M  V30 11967 C 1152.37 -1.75868 1.4698 0
M  V30 11968 C 1153.38 -1.58691 0.363469 0
M  V30 11969 O 1154.57 -1.67048 0.629075 0
M  V30 11970 C 1151.67 -3.1356 1.28582 0
M  V30 11971 C 1150.85 -3.57217 2.52418 0
M  V30 11972 C 1149.91 -4.73779 2.28954 0
M  V30 11973 O 1148.93 -4.8221 3.02428 0
M  V30 11974 N 1150.13 -5.65324 1.31866 0
M  V30 11975 H 1152.9 -1.74048 2.43983 0
M  V30 11976 H 1150.46 -0.817952 1.39718 0
M  V30 11977 H 1152.45 -3.89255 1.10736 0
M  V30 11978 H 1151.02 -3.10036 0.399529 0
M  V30 11979 H 1150.24 -2.71755 2.85557 0
M  V30 11980 H 1151.53 -3.83136 3.3479 0
M  V30 11981 H 1150.93 -5.61204 0.71179 0
M  V30 11982 H 1149.48 -6.40659 1.19998 0
M  V30 11983 N 1152.92 -1.31168 -0.873655 0
M  V30 11984 C 1153.87 -1.18432 -2.00191 0
M  V30 11985 C 1154.86 -0.0934873 -1.69142 0
M  V30 11986 O 1156.07 -0.255126 -1.78183 0
M  V30 11987 H 1152.44 -0.366594 -0.656592 0
M  V30 11988 H 1154.41 -2.13896 -2.08065 0
M  V30 11989 C 1153.16 -0.904668 -3.35725 0
M  V30 11990 H 1152.48 -1.73617 -3.60135 0
M  V30 11991 H 1153.92 -0.855715 -4.15275 0
M  V30 11992 C 1152.38 0.392554 -3.34605 0
M  V30 11993 O 1152.91 1.41052 -3.76121 0
M  V30 11994 N 1151.12 0.40777 -2.87725 0
M  V30 11995 H 1150.67 -0.42112 -2.54134 0
M  V30 11996 H 1150.62 1.27564 -2.87358 0
M  V30 11997 N 1154.4 1.08748 -1.14068 0
M  V30 11998 C 1155.36 2.1375 -0.827266 0
M  V30 11999 C 1156.36 1.59936 0.166496 0
M  V30 12000 O 1157.55 1.74092 -0.0614305 0
M  V30 12001 C 1154.68 3.40106 -0.232557 0
M  V30 12002 H 1155.87 2.42985 -1.7578 0
M  V30 12003 H 1153.43 1.24402 -0.946244 0
M  V30 12004 H 1154.16 3.16503 0.706859 0
M  V30 12005 H 1153.95 3.8046 -0.948293 0
M  V30 12006 H 1155.44 4.17589 -0.0303662 0
M  V30 12007 N 1155.87 0.935264 1.26849 0
M  V30 12008 C 1157.12 0.590057 1.94653 0
M  V30 12009 C 1157.48 -0.860481 1.72086 0
M  V30 12010 O 1156.77 -1.60672 1.04379 0
M  V30 12011 C 1156.96 0.861098 3.46872 0
M  V30 12012 C 1156.79 2.33643 3.84241 0
M  V30 12013 C 1155.56 2.99052 4.07303 0
M  V30 12014 C 1157.76 3.3145 3.9325 0
M  V30 12015 N 1155.74 4.36659 4.31511 0
M  V30 12016 C 1157.11 4.54294 4.21921 0
M  V30 12017 C 1159.17 3.26555 3.75854 0
M  V30 12018 C 1157.87 5.72854 4.35006 0
M  V30 12019 C 1159.9 4.44435 3.90168 0
M  V30 12020 C 1159.26 5.66059 4.19233 0
M  V30 12021 H 1155.36 0.266182 0.735303 0
M  V30 12022 H 1157.94 1.20345 1.53053 0
M  V30 12023 H 1156.11 0.276803 3.87412 0
M  V30 12024 H 1157.84 0.477757 4.0187 0
M  V30 12025 H 1154.6 2.49692 4.02431 0
M  V30 12026 H 1155.02 5.07869 4.47658 0
M  V30 12027 H 1159.67 2.33585 3.52417 0
M  V30 12028 H 1157.38 6.66283 4.57266 0
M  V30 12029 H 1160.97 4.42174 3.78119 0
M  V30 12030 H 1159.85 6.55753 4.30068 0
M  V30 12031 N 1157.35 -1.41121 0.701616 0
M  V30 12032 C 1158.58 -2.05973 0.242896 0
M  V30 12033 C 1159 -1.52474 -1.10151 0
M  V30 12034 O 1158.36 -0.654224 -1.69085 0
M  V30 12035 C 1158.41 -3.59943 0.217614 0
M  V30 12036 O 1157.51 -4.04454 -0.805629 0
M  V30 12037 H 1156.85 -0.653581 0.117166 0
M  V30 12038 H 1159.38 -1.80777 0.958175 0
M  V30 12039 H 1159.39 -4.07969 0.0505267 0
M  V30 12040 H 1158.07 -3.98249 1.19877 0
M  V30 12041 H 1156.65 -3.6792 -0.607404 0
M  V30 12042 N 1158.83 -0.446794 -1.51134 0
M  V30 12043 C 1160.06 0.117242 -2.07068 0
M  V30 12044 C 1160.48 1.34877 -1.3111 0
M  V30 12045 O 1159.84 1.77856 -0.35172 0
M  V30 12046 C 1159.89 0.408616 -3.58277 0
M  V30 12047 O 1158.99 1.49345 -3.84408 0
M  V30 12048 H 1158.33 -0.00228458 -0.663996 0
M  V30 12049 H 1160.86 -0.63085 -1.94632 0
M  V30 12050 H 1160.87 0.656298 -4.02687 0
M  V30 12051 H 1159.55 -0.491444 -4.12986 0
M  V30 12052 H 1158.12 1.23499 -3.51856 0
M  V30 12053 N 1160.31 1.56586 -0.178487 0
M  V30 12054 C 1161.56 1.96273 0.464745 0
M  V30 12055 C 1161.87 1.0675 1.63902 0
M  V30 12056 O 1163.08 1.36148 2.34896 0
M  V30 12057 C 1161.53 3.49021 0.878207 0
M  V30 12058 C 1161.14 4.4718 -0.270861 0
M  V30 12059 C 1162.88 3.97512 1.48946 0
M  V30 12060 C 1160.79 5.91176 0.162632 0
M  V30 12061 H 1159.72 0.732834 0.177398 0
M  V30 12062 H 1162.37 1.81534 -0.267861 0
M  V30 12063 H 1160.75 3.59203 1.667 0
M  V30 12064 H 1161.93 4.48718 -1.04826 0
M  V30 12065 H 1160.24 4.08788 -0.792529 0
M  V30 12066 H 1162.84 5.02556 1.82595 0
M  V30 12067 H 1163.18 3.40861 2.38997 0
M  V30 12068 H 1163.72 3.90376 0.76496 0
M  V30 12069 H 1160.46 6.51716 -0.703286 0
M  V30 12070 H 1159.98 5.9293 0.905243 0
M  V30 12071 H 1161.65 6.44174 0.604084 0
M  V30 12072 N 1161.79 -0.095206 1.57312 0
M  V30 12073 C 1163.03 -0.799903 1.86358 0
M  V30 12074 C 1163.37 -1.78386 0.767593 0
M  V30 12075 O 1162.64 -1.93201 -0.224439 0
M  V30 12076 C 1162.92 -1.52875 3.26039 0
M  V30 12077 C 1162.78 -0.562781 4.46265 0
M  V30 12078 C 1164.1 -2.47935 3.63616 0
M  V30 12079 H 1161.21 -0.289339 0.677829 0
M  V30 12080 H 1163.86 -0.0635369 1.89894 0
M  V30 12081 H 1162.01 -2.15645 3.23156 0
M  V30 12082 H 1163.68 0.0579068 4.61264 0
M  V30 12083 H 1161.92 0.123847 4.33623 0
M  V30 12084 H 1162.59 -1.10989 5.40727 0
M  V30 12085 H 1165.07 -1.95257 3.67442 0
M  V30 12086 H 1163.94 -2.95948 4.62283 0
M  V30 12087 H 1164.21 -3.31687 2.92294 0
M  V30 12088 N 1163.26 -1.53291 -0.366026 0
M  V30 12089 C 1164.51 -1.69117 -1.10653 0
M  V30 12090 C 1164.83 -0.445327 -1.89847 0
M  V30 12091 O 1164.1 0.540616 -1.88293 0
M  V30 12092 H 1162.68 -0.623446 -0.41149 0
M  V30 12093 H 1165.35 -1.90479 -0.412749 0
M  V30 12094 H 1164.44 -2.55205 -1.79658 0
M  V30 12095 N 1164.74 0.6258 -1.44643 0
M  V30 12096 C 1165.97 1.41726 -1.51422 0
M  V30 12097 C 1166.39 1.87565 -0.14181 0
M  V30 12098 O 1165.75 1.59059 0.870054 0
M  V30 12099 C 1165.8 2.61012 -2.48807 0
M  V30 12100 O 1164.9 3.61029 -1.99328 0
M  V30 12101 H 1164.24 0.423855 -0.511119 0
M  V30 12102 H 1166.77 0.763336 -1.89827 0
M  V30 12103 H 1166.78 3.08489 -2.67018 0
M  V30 12104 H 1165.46 2.26995 -3.48491 0
M  V30 12105 H 1164.04 3.20325 -1.90909 0
M  V30 12106 N 1166.22 1.31629 0.866686 0
M  V30 12107 C 1167.15 1.22151 1.99001 0
M  V30 12108 C 1168.13 0.107972 1.69757 0
M  V30 12109 O 1169.32 0.293125 1.91975 0
M  V30 12110 C 1166.45 0.93144 3.34577 0
M  V30 12111 C 1165.4 2.0049 3.78137 0
M  V30 12112 C 1164.73 1.56747 5.11209 0
M  V30 12113 C 1166.03 3.41844 3.94892 0
M  V30 12114 H 1167.72 2.16132 2.0719 0
M  V30 12115 H 1165.27 1.04051 0.995463 0
M  V30 12116 H 1167.22 0.851719 4.12703 0
M  V30 12117 H 1165.94 -0.0440289 3.2657 0
M  V30 12118 H 1164.6 2.07457 3.02253 0
M  V30 12119 H 1164.25 0.579767 4.99648 0
M  V30 12120 H 1163.95 2.28562 5.41326 0
M  V30 12121 H 1165.47 1.50188 5.91841 0
M  V30 12122 H 1166.89 3.37534 4.63405 0
M  V30 12123 H 1165.29 4.11905 4.36411 0
M  V30 12124 H 1166.36 3.82389 2.98172 0
M  V30 12125 N 1167.7 -1.08142 1.14644 0
M  V30 12126 C 1169.11 -1.62061 0.926986 0
M  V30 12127 C 1169.46 -1.88805 -0.533578 0
M  V30 12128 O 1168.59 -1.64753 -1.40305 0
M  V30 12129 C 1169.18 -2.94425 1.67629 0
M  V30 12130 C 1167.74 -3.45118 1.50235 0
M  V30 12131 C 1166.89 -2.19307 1.69705 0
M  V30 12132 H 1169.84 -0.913326 1.29785 0
M  V30 12133 H 1169.86 -3.62987 1.14107 0
M  V30 12134 H 1169.37 -2.74928 2.73927 0
M  V30 12135 H 1167.47 -3.69713 0.462967 0
M  V30 12136 H 1167.59 -4.2169 2.27408 0
M  V30 12137 H 1165.95 -2.28611 1.12291 0
M  V30 12138 H 1166.73 -2.02315 2.77351 0
M  V30 12139 N 1169.18 -0.941978 -1.26351 0
M  V30 12140 C 1170.41 -0.606748 -1.97803 0
M  V30 12141 C 1170.82 0.818441 -1.70138 0
M  V30 12142 O 1170.18 1.54583 -0.970076 0
M  V30 12143 C 1170.23 -0.840431 -3.51595 0
M  V30 12144 O 1169.95 -2.20957 -3.78299 0
M  V30 12145 C 1171.45 -0.515855 -4.40288 0
M  V30 12146 H 1168.67 -0.228591 -0.630862 0
M  V30 12147 H 1171.21 -1.2629 -1.60845 0
M  V30 12148 H 1169.37 -0.230875 -3.86711 0
M  V30 12149 H 1169.78 -2.2702 -4.72824 0
M  V30 12150 H 1171.26 -0.72998 -5.47152 0
M  V30 12151 H 1171.73 0.549178 -4.35753 0
M  V30 12152 H 1172.34 -1.10417 -4.10717 0
M  V30 12153 N 1170.66 1.40747 -0.709091 0
M  V30 12154 C 1172.07 1.83955 -0.318968 0
M  V30 12155 C 1172.42 1.59304 1.14527 0
M  V30 12156 O 1171.54 1.07052 1.88066 0
M  V30 12157 C 1172.14 3.33934 -0.572147 0
M  V30 12158 C 1170.7 3.75661 -0.235802 0
M  V30 12159 C 1169.84 2.64024 -0.847743 0
M  V30 12160 H 1172.79 1.30107 -0.908734 0
M  V30 12161 H 1172.82 3.80143 0.164752 0
M  V30 12162 H 1172.33 3.51844 -1.63791 0
M  V30 12163 H 1170.43 3.63348 0.825164 0
M  V30 12164 H 1170.54 4.73955 -0.700263 0
M  V30 12165 H 1168.91 2.53197 -0.276283 0
M  V30 12166 H 1169.69 2.84748 -1.91765 0
M  V30 12167 N 1172.13 0.454803 1.50895 0
M  V30 12168 C 1173.36 -0.106259 2.07128 0
M  V30 12169 C 1173.78 -1.3418 1.31823 0
M  V30 12170 O 1173.14 -1.77667 0.361147 0
M  V30 12171 C 1173.19 -0.389609 3.58489 0
M  V30 12172 O 1172.29 -1.47305 3.85195 0
M  V30 12173 H 1171.63 0.00580588 0.663975 0
M  V30 12174 H 1174.16 0.641163 1.94294 0
M  V30 12175 H 1174.17 -0.634934 4.03029 0
M  V30 12176 H 1172.85 0.513338 4.1272 0
M  V30 12177 H 1171.43 -1.21631 3.52506 0
M  V30 12178 N 1173.61 -1.56489 0.186789 0
M  V30 12179 C 1174.84 -2.02163 -0.463126 0
M  V30 12180 C 1175.26 -1.06612 -1.54969 0
M  V30 12181 O 1174.62 -0.0482139 -1.81236 0
M  V30 12182 C 1174.67 -3.46337 -1.00416 0
M  V30 12183 O 1173.77 -3.53889 -2.11747 0
M  V30 12184 H 1173.11 -0.65496 -0.109194 0
M  V30 12185 H 1175.64 -2.02459 0.295227 0
M  V30 12186 H 1175.65 -3.85959 -1.32287 0
M  V30 12187 H 1174.33 -4.15376 -0.208693 0
M  V30 12188 H 1172.9 -3.26136 -1.80803 0
M  V30 12189 N 1175.09 0.086862 -1.5736 0
M  V30 12190 C 1176.31 0.806017 -1.91097 0
M  V30 12191 C 1176.74 1.71082 -0.78183 0
M  V30 12192 O 1176.1 1.79335 0.266175 0
M  V30 12193 C 1176.15 1.5884 -3.23732 0
M  V30 12194 O 1175.25 2.69798 -3.11902 0
M  V30 12195 H 1174.59 0.220899 -0.626179 0
M  V30 12196 H 1177.12 0.059619 -2.04513 0
M  V30 12197 H 1177.13 1.97088 -3.5724 0
M  V30 12198 H 1175.81 0.924426 -4.05496 0
M  V30 12199 H 1174.38 2.34519 -2.89923 0
M  V30 12200 N 1176.57 1.53483 0.357892 0
M  V30 12201 C 1177.79 1.74264 1.12458 0
M  V30 12202 C 1178.22 0.473944 1.82031 0
M  V30 12203 O 1177.58 -0.57253 1.72023 0
M  V30 12204 C 1177.62 2.91356 2.12471 0
M  V30 12205 O 1176.73 2.60502 3.19707 0
M  V30 12206 H 1176.07 0.578499 0.325937 0
M  V30 12207 H 1178.6 2.00395 0.412666 0
M  V30 12208 H 1178.61 3.1774 2.5594 0
M  V30 12209 H 1177.28 3.83378 1.61226 0
M  V30 12210 H 1175.86 2.44961 2.81156 0
M  V30 12211 N 1178.05 -0.61812 1.44973 0
M  V30 12212 C 1179.27 -1.40921 1.52171 0
M  V30 12213 C 1179.7 -1.87487 0.151755 0
M  V30 12214 O 1179.05 -1.59518 -0.861606 0
M  V30 12215 C 1179.1 -2.59689 2.50188 0
M  V30 12216 O 1178.21 -3.59967 2.0124 0
M  V30 12217 H 1177.55 -0.421138 0.51336 0
M  V30 12218 H 1180.08 -0.753258 1.90229 0
M  V30 12219 H 1180.09 -3.07069 2.6865 0
M  V30 12220 H 1178.76 -2.25144 3.4969 0
M  V30 12221 H 1177.34 -3.19308 1.92605 0
M  V30 12222 N 1179.52 -1.32087 -0.859693 0
M  V30 12223 C 1180.75 -1.25486 -1.6513 0
M  V30 12224 C 1181.17 0.175015 -1.87284 0
M  V30 12225 O 1180.53 1.12468 -1.42199 0
M  V30 12226 C 1180.58 -2.01469 -2.9907 0
M  V30 12227 O 1179.68 -1.35904 -3.89363 0
M  V30 12228 H 1179.02 -0.432728 -0.503629 0
M  V30 12229 H 1181.55 -1.74322 -1.07112 0
M  V30 12230 H 1181.56 -2.11452 -3.4893 0
M  V30 12231 H 1180.24 -3.05448 -2.82266 0
M  V30 12232 H 1178.82 -1.34437 -3.47823 0
M  V30 12233 N 1181 1.07532 -1.15215 0
M  V30 12234 C 1182.23 1.84356 -0.950139 0
M  V30 12235 C 1182.65 1.81429 0.496502 0
M  V30 12236 O 1182.01 1.20589 1.35381 0
M  V30 12237 C 1182.06 3.29425 -1.46669 0
M  V30 12238 O 1181.16 4.07008 -0.664674 0
M  V30 12239 H 1180.5 0.570921 -0.339036 0
M  V30 12240 H 1183.03 1.35665 -1.53154 0
M  V30 12241 H 1183.04 3.8026 -1.47873 0
M  V30 12242 H 1181.72 3.3087 -2.51988 0
M  V30 12243 H 1180.29 3.65841 -0.72211 0
M  V30 12244 N 1182.48 0.948665 1.2585 0
M  V30 12245 C 1183.71 0.616741 1.98018 0
M  V30 12246 C 1184.13 -0.803005 1.70098 0
M  V30 12247 O 1183.49 -1.54208 0.953392 0
M  V30 12248 C 1183.54 0.874429 3.49837 0
M  V30 12249 O 1182.64 -0.0497568 4.1237 0
M  V30 12250 H 1181.98 0.235112 0.620982 0
M  V30 12251 H 1184.51 1.27364 1.60124 0
M  V30 12252 H 1184.52 0.798309 4.00114 0
M  V30 12253 H 1183.2 1.90922 3.69488 0
M  V30 12254 H 1181.77 0.0780591 3.72818 0
M  V30 12255 N 1183.96 -1.40369 0.716545 0
M  V30 12256 C 1185.18 -2.05704 0.264729 0
M  V30 12257 C 1185.61 -1.53634 -1.08527 0
M  V30 12258 O 1184.97 -0.67212 -1.68381 0
M  V30 12259 C 1185.01 -3.59692 0.255778 0
M  V30 12260 O 1184.12 -4.05286 -0.762686 0
M  V30 12261 H 1183.46 -0.652301 0.124092 0
M  V30 12262 H 1185.99 -1.7975 0.977295 0
M  V30 12263 H 1186 -4.07892 0.0937944 0
M  V30 12264 H 1184.67 -3.96955 1.24095 0
M  V30 12265 H 1183.25 -3.68543 -0.568347 0
M  V30 12266 N 1185.44 -0.462799 -1.50652 0
M  V30 12267 C 1186.66 0.0952726 -2.07181 0
M  V30 12268 C 1187.09 1.33479 -1.32533 0
M  V30 12269 O 1186.44 1.77473 -0.370564 0
M  V30 12270 C 1186.49 0.370592 -3.58691 0
M  V30 12271 O 1185.6 1.4526 -3.85971 0
M  V30 12272 H 1184.94 -0.00932702 -0.663934 0
M  V30 12273 H 1187.47 -0.651458 -1.93951 0
M  V30 12274 H 1187.48 0.613551 -4.0336 0
M  V30 12275 H 1186.15 -0.535219 -4.12442 0
M  V30 12276 H 1184.73 1.1976 -3.53146 0
M  V30 12277 N 1186.91 1.56388 -0.195085 0
M  V30 12278 C 1188.14 2.02406 0.452399 0
M  V30 12279 C 1188.56 1.07432 1.54402 0
M  V30 12280 O 1187.92 0.0578246 1.81208 0
M  V30 12281 C 1187.97 3.46864 0.985778 0
M  V30 12282 O 1187.07 3.55007 2.09867 0
M  V30 12283 H 1186.42 0.65553 0.105719 0
M  V30 12284 H 1188.95 2.02299 -0.30596 0
M  V30 12285 H 1188.96 3.86655 1.30238 0
M  V30 12286 H 1187.63 4.15481 0.186662 0
M  V30 12287 H 1186.21 3.2709 1.79071 0
M  V30 12288 N 1188.39 -0.0785156 1.57404 0
M  V30 12289 C 1189.67 -0.811557 1.77969 0
M  V30 12290 C 1190.05 -1.96123 0.780966 0
M  V30 12291 O 1189.4 -2.27731 -0.18726 0
M  V30 12292 C 1189.61 -1.29075 3.24254 0
M  V30 12293 C 1190.96 -1.72685 3.87898 0
M  V30 12294 O 1191.98 -1.38658 3.28104 0
M  V30 12295 O 1190.84 -2.3566 4.93079 0
M  V30 12296 H 1187.93 -0.388361 0.73014 0
M  V30 12297 H 1190.48 -0.0591118 1.69597 0
M  V30 12298 H 1189.25 -0.467813 3.88494 0
M  V30 12299 H 1188.87 -2.10472 3.37324 0
M  V30 12300 N 1189.87 -1.5367 -0.349747 0
M  V30 12301 C 1191.1 -1.74858 -1.11532 0
M  V30 12302 C 1191.52 -0.483591 -1.81777 0
M  V30 12303 O 1190.88 0.563399 -1.72324 0
M  V30 12304 C 1190.93 -2.92479 -2.10923 0
M  V30 12305 O 1190.03 -2.62194 -3.18321 0
M  V30 12306 H 1189.37 -0.580219 -0.322865 0
M  V30 12307 H 1191.9 -2.00611 -0.402033 0
M  V30 12308 H 1191.91 -3.19093 -2.54252 0
M  V30 12309 H 1190.59 -3.84228 -1.59191 0
M  V30 12310 H 1189.16 -2.46448 -2.79853 0
M  V30 12311 N 1191.35 0.610423 -1.45298 0
M  V30 12312 C 1192.57 1.40112 -1.52917 0
M  V30 12313 C 1193 1.87404 -0.161696 0
M  V30 12314 O 1192.36 1.59973 0.853135 0
M  V30 12315 C 1192.4 2.58359 -2.51561 0
M  V30 12316 O 1191.51 3.58895 -2.03146 0
M  V30 12317 H 1190.85 0.41841 -0.515586 0
M  V30 12318 H 1193.38 0.743159 -1.90626 0
M  V30 12319 H 1193.39 3.0564 -2.70275 0
M  V30 12320 H 1192.06 2.23286 -3.50879 0
M  V30 12321 H 1190.64 3.18282 -1.94296 0
M  V30 12322 N 1192.83 1.32541 0.852676 0
M  V30 12323 C 1193.77 1.21602 1.98282 0
M  V30 12324 C 1194.77 0.120384 1.68972 0
M  V30 12325 O 1195.97 0.283441 1.77754 0
M  V30 12326 H 1192.35 0.376994 0.650676 0
M  V30 12327 H 1194.32 2.17179 2.04636 0
M  V30 12328 C 1193.07 0.957965 3.34243 0
M  V30 12329 H 1192.39 1.79324 3.57327 0
M  V30 12330 H 1193.83 0.921673 4.13861 0
M  V30 12331 C 1192.29 -0.339271 3.35187 0
M  V30 12332 O 1192.82 -1.3505 3.78318 0
M  V30 12333 N 1191.03 -0.361944 2.88337 0
M  V30 12334 H 1190.57 0.461497 2.53432 0
M  V30 12335 H 1190.53 -1.22976 2.89352 0
M  V30 12336 N 1194.3 -1.0692 1.15784 0
M  V30 12337 C 1195.53 -1.83849 0.959903 0
M  V30 12338 C 1195.95 -1.8169 -0.486873 0
M  V30 12339 O 1195.31 -1.21305 -1.34739 0
M  V30 12340 C 1195.36 -3.28642 1.48414 0
M  V30 12341 O 1194.46 -4.0665 0.686249 0
M  V30 12342 H 1193.81 -0.569115 0.342059 0
M  V30 12343 H 1196.34 -1.34851 1.53871 0
M  V30 12344 H 1196.35 -3.7947 1.49888 0
M  V30 12345 H 1195.02 -3.29529 2.53739 0
M  V30 12346 H 1193.6 -3.65453 0.741501 0
M  V30 12347 N 1195.78 -0.955326 -1.25345 0
M  V30 12348 C 1197.01 -0.627233 -1.97688 0
M  V30 12349 C 1197.43 0.793973 -1.70522 0
M  V30 12350 O 1196.79 1.537 -0.961556 0
M  V30 12351 C 1196.84 -0.892969 -3.49369 0
M  V30 12352 O 1195.94 0.0278871 -4.12391 0
M  V30 12353 H 1195.28 -0.238402 -0.619726 0
M  V30 12354 H 1197.81 -1.28211 -1.59446 0
M  V30 12355 H 1197.82 -0.819517 -3.99685 0
M  V30 12356 H 1196.5 -1.92879 -3.6847 0
M  V30 12357 H 1195.08 -0.0978295 -3.72772 0
M  V30 12358 N 1197.26 1.39987 -0.723979 0
M  V30 12359 C 1198.49 2.05037 -0.27702 0
M  V30 12360 C 1198.9 1.54565 1.08421 0
M  V30 12361 O 1198.26 0.705795 1.683 0
M  V30 12362 C 1198.31 3.60582 -0.25751 0
M  V30 12363 O 1198.03 4.09194 -1.565 0
M  V30 12364 C 1199.53 4.42817 0.206972 0
M  V30 12365 H 1196.75 0.659637 -0.122963 0
M  V30 12366 H 1199.3 1.7924 -0.98454 0
M  V30 12367 H 1197.45 3.85319 0.401037 0
M  V30 12368 H 1197.87 5.03447 -1.47112 0
M  V30 12369 H 1199.34 5.5174 0.16947 0
M  V30 12370 H 1199.82 4.21023 1.25045 0
M  V30 12371 H 1200.42 4.23205 -0.421604 0
M  V30 12372 N 1198.74 0.470782 1.50404 0
M  V30 12373 C 1199.97 -0.0820134 2.06737 0
M  V30 12374 C 1200.38 -1.33535 1.33468 0
M  V30 12375 O 1199.74 -1.77975 0.403872 0
M  V30 12376 C 1199.79 -0.370427 3.59597 0
M  V30 12377 O 1199.51 0.8332 4.30104 0
M  V30 12378 C 1201.01 -0.970222 4.32552 0
M  V30 12379 H 1198.23 0.00694502 0.670964 0
M  V30 12380 H 1200.78 0.659476 1.93575 0
M  V30 12381 H 1198.93 -1.06185 3.72563 0
M  V30 12382 H 1199.35 0.577614 5.2131 0
M  V30 12383 H 1200.82 -1.1218 5.40481 0
M  V30 12384 H 1201.3 -1.96024 3.93028 0
M  V30 12385 H 1201.9 -0.31719 4.24116 0
M  V30 12386 N 1200.22 -1.56282 0.203376 0
M  V30 12387 C 1201.63 -1.58871 -0.152335 0
M  V30 12388 C 1201.83 -1.21978 -1.60386 0
M  V30 12389 O 1200.89 -0.946422 -2.34092 0
M  V30 12390 C 1202.2 -3.00287 0.157515 0
M  V30 12391 C 1203.75 -3.12846 0.098287 0
M  V30 12392 C 1204.23 -4.56408 0.38156 0
M  V30 12393 N 1205.72 -4.6202 0.330475 0
M  V30 12394 C 1206.45 -5.71006 0.523397 0
M  V30 12395 N 1205.95 -6.88428 0.777115 0
M  V30 12396 N 1207.74 -5.60238 0.457082 0
M  V30 12397 H 1199.89 -1.78543 1.15048 0
M  V30 12398 H 1202.15 -0.829019 0.459816 0
M  V30 12399 H 1201.86 -3.3187 1.16427 0
M  V30 12400 H 1201.73 -3.73372 -0.536041 0
M  V30 12401 H 1204.12 -2.8107 -0.899085 0
M  V30 12402 H 1204.2 -2.42129 0.825045 0
M  V30 12403 H 1203.85 -4.88897 1.37629 0
M  V30 12404 H 1203.78 -5.25325 -0.366182 0
M  V30 12405 H 1206.27 -3.77636 0.141327 0
M  V30 12406 H 1206.58 -7.67389 0.912911 0
M  V30 12407 H 1204.93 -6.90215 0.814104 0
M  V30 12408 H 1208.12 -4.67382 0.259226 0
M  V30 12409 H 1208.29 -6.45114 0.610848 0
M  V30 12410 N 1201.7 0.070167 -1.57444 0
M  V30 12411 C 1203.11 0.621805 -1.76041 0
M  V30 12412 C 1203.46 1.77824 -0.829047 0
M  V30 12413 O 1202.58 2.16396 -0.0135453 0
M  V30 12414 C 1203.18 1.13476 -3.19231 0
M  V30 12415 C 1201.74 1.63225 -3.39167 0
M  V30 12416 C 1200.88 0.552369 -2.71743 0
M  V30 12417 H 1203.83 -0.156009 -1.57931 0
M  V30 12418 H 1203.86 2.00352 -3.2348 0
M  V30 12419 H 1203.37 0.29288 -3.86993 0
M  V30 12420 H 1201.47 2.49733 -2.76522 0
M  V30 12421 H 1201.58 1.70807 -4.47618 0
M  V30 12422 H 1199.95 0.997797 -2.34342 0
M  V30 12423 H 1200.73 -0.279354 -3.42162 0
M  V30 12424 N 1203.17 1.53854 0.341593 0
M  V30 12425 C 1204.4 1.75447 1.10604 0
M  V30 12426 C 1204.82 0.493225 1.81518 0
M  V30 12427 O 1204.18 -0.554253 1.7262 0
M  V30 12428 C 1204.23 2.93593 2.09369 0
M  V30 12429 O 1203.33 2.63878 3.16926 0
M  V30 12430 H 1202.67 0.581923 0.319783 0
M  V30 12431 H 1205.2 2.00822 0.391388 0
M  V30 12432 H 1205.21 3.20437 2.52556 0
M  V30 12433 H 1203.89 3.85067 1.57151 0
M  V30 12434 H 1202.47 2.47929 2.78542 0
M  V30 12435 N 1204.65 -0.602709 1.4562 0
M  V30 12436 C 1205.88 -1.39299 1.53657 0
M  V30 12437 C 1206.3 -1.87315 0.171632 0
M  V30 12438 O 1205.66 -1.60423 -0.844639 0
M  V30 12439 C 1205.71 -2.57021 2.52928 0
M  V30 12440 O 1204.81 -3.57812 2.05047 0
M  V30 12441 H 1204.15 -0.41567 0.517798 0
M  V30 12442 H 1206.68 -0.73304 1.91018 0
M  V30 12443 H 1206.69 -3.04202 2.71892 0
M  V30 12444 H 1205.37 -2.21422 3.52058 0
M  V30 12445 H 1203.94 -3.17247 1.95981 0
M  V30 12446 N 1206.13 -1.32992 -0.845635 0
M  V30 12447 C 1207.35 -1.27231 -1.6379 0
M  V30 12448 C 1207.78 0.155141 -1.87459 0
M  V30 12449 O 1207.14 1.10953 -1.43384 0
M  V30 12450 C 1207.19 -2.04629 -2.96916 0
M  V30 12451 O 1206.29 -1.40027 -3.879 0
M  V30 12452 H 1205.63 -0.438045 -0.499011 0
M  V30 12453 H 1208.16 -1.75448 -1.05257 0
M  V30 12454 H 1208.17 -2.15141 -3.46667 0
M  V30 12455 H 1206.85 -3.08425 -2.79011 0
M  V30 12456 H 1205.42 -1.38118 -3.46378 0
M  V30 12457 N 1207.61 1.06304 -1.1635 0
M  V30 12458 C 1209.02 1.31227 -0.90838 0
M  V30 12459 C 1209.22 1.96665 0.438779 0
M  V30 12460 O 1208.28 2.2332 1.17833 0
M  V30 12461 C 1209.59 2.19303 -2.05734 0
M  V30 12462 C 1211.14 2.3272 -2.09309 0
M  V30 12463 C 1211.62 3.24151 -3.23559 0
M  V30 12464 N 1213.11 3.31734 -3.23275 0
M  V30 12465 C 1213.84 4.02572 -4.08318 0
M  V30 12466 N 1213.34 4.75933 -5.03448 0
M  V30 12467 N 1215.13 3.98621 -3.96305 0
M  V30 12468 H 1207.28 0.622228 -2.03081 0
M  V30 12469 H 1209.54 0.336892 -0.886119 0
M  V30 12470 H 1209.25 1.78497 -3.03037 0
M  V30 12471 H 1209.12 3.19888 -1.99879 0
M  V30 12472 H 1211.51 2.72774 -1.12599 0
M  V30 12473 H 1211.59 1.31804 -2.19229 0
M  V30 12474 H 1211.24 2.84813 -4.20528 0
M  V30 12475 H 1211.17 4.25046 -3.10875 0
M  V30 12476 H 1213.66 2.79453 -2.5439 0
M  V30 12477 H 1213.97 5.27512 -5.64758 0
M  V30 12478 H 1212.32 4.74913 -5.07427 0
M  V30 12479 H 1215.51 3.40427 -3.21289 0
M  V30 12480 H 1215.68 4.5356 -4.62804 0
M  V30 12481 N 1209.09 0.96196 1.24836 0
M  V30 12482 C 1210.05 0.492443 2.23847 0
M  V30 12483 C 1211.05 -0.40788 1.55541 0
M  V30 12484 O 1212.24 -0.204143 1.73 0
M  V30 12485 C 1209.37 -0.287578 3.39685 0
M  V30 12486 H 1210.56 1.36767 2.66899 0
M  V30 12487 H 1208.12 0.745967 1.3735 0
M  V30 12488 H 1208.85 -1.18015 3.02064 0
M  V30 12489 H 1208.64 0.358431 3.90458 0
M  V30 12490 H 1210.13 -0.605297 4.1319 0
M  V30 12491 N 1210.56 -1.39601 0.731392 0
M  V30 12492 C 1211.98 -1.54334 0.406594 0
M  V30 12493 C 1212.18 -1.69925 -1.08295 0
M  V30 12494 O 1211.24 -1.69771 -1.86906 0
M  V30 12495 C 1212.55 -2.76303 1.18647 0
M  V30 12496 C 1214.1 -2.90135 1.17433 0
M  V30 12497 C 1214.57 -4.15038 1.93669 0
M  V30 12498 N 1216.06 -4.2207 1.90817 0
M  V30 12499 C 1216.8 -5.17656 2.46616 0
M  V30 12500 N 1216.29 -6.19054 3.11037 0
M  V30 12501 N 1218.09 -5.09847 2.3667 0
M  V30 12502 H 1210.24 -1.27728 1.69703 0
M  V30 12503 H 1212.5 -0.6188 0.718186 0
M  V30 12504 H 1212.21 -2.71113 2.24032 0
M  V30 12505 H 1212.08 -3.68866 0.788514 0
M  V30 12506 H 1214.47 -2.9482 0.128615 0
M  V30 12507 H 1214.55 -1.98646 1.61163 0
M  V30 12508 H 1214.19 -4.11115 2.9824 0
M  V30 12509 H 1214.12 -5.05565 1.47349 0
M  V30 12510 H 1216.61 -3.49437 1.43882 0
M  V30 12511 H 1216.93 -6.88444 3.51091 0
M  V30 12512 H 1215.27 -6.19452 3.15126 0
M  V30 12513 H 1218.46 -4.29566 1.85987 0
M  V30 12514 H 1218.64 -5.84165 2.80455 0
M  V30 12515 N 1212.04 -0.478751 -1.50152 0
M  V30 12516 C 1213.46 -0.133356 -1.59042 0
M  V30 12517 C 1213.66 1.36069 -1.48618 0
M  V30 12518 O 1212.71 2.13468 -1.34862 0
M  V30 12519 C 1214.03 -0.690369 -2.92668 0
M  V30 12520 C 1215.58 -0.654481 -3.06081 0
M  V30 12521 C 1216.05 -1.18917 -4.42293 0
M  V30 12522 N 1217.54 -1.14891 -4.48725 0
M  V30 12523 C 1218.28 -1.53305 -5.52526 0
M  V30 12524 N 1217.77 -1.99205 -6.63543 0
M  V30 12525 N 1219.57 -1.4486 -5.43113 0
M  V30 12526 H 1211.72 -1.45037 -1.55171 0
M  V30 12527 H 1213.98 -0.600254 -0.733757 0
M  V30 12528 H 1213.69 -1.7373 -3.05795 0
M  V30 12529 H 1213.56 -0.138227 -3.76947 0
M  V30 12530 H 1215.95 0.383564 -2.92597 0
M  V30 12531 H 1216.03 -1.24352 -2.2354 0
M  V30 12532 H 1215.67 -2.22588 -4.56527 0
M  V30 12533 H 1215.6 -0.57628 -5.23437 0
M  V30 12534 H 1218.09 -0.812344 -3.69066 0
M  V30 12535 H 1218.41 -2.26645 -7.38818 0
M  V30 12536 H 1216.75 -2.03164 -6.64642 0
M  V30 12537 H 1219.94 -1.08836 -4.55272 0
M  V30 12538 H 1220.11 -1.75123 -6.23888 0
M  V30 12539 O 1213.56 1.57592 -0.35315 0
M  V30 12540 H 1214.25 1.92662 0.200218 0
M  V30 END ATOM
M  V30 BEGIN BOND
M  V30 END BOND
M  V30 END CTAB
M  END
$$$$
