drugbank_target|O75348 V-type proton ATPase subunit G 1 (DB01133)
 OpenBabel12092121233D

  0  0  0     0  0            999 V3000
M  V30 BEGIN CTAB
M  V30 COUNTS 1937 1944 0 0 0
M  V30 BEGIN ATOM
M  V30 1 H -0.908 1.98254 -0.117106 0
M  V30 2 N 0 1.576 0 0
M  V30 3 C 0.933 2.03868 1.02534 0
M  V30 4 C 1.911 0.928543 1.3348 0
M  V30 5 O 3.095 1.19667 1.45644 0
M  V30 6 C 0.222 2.43627 2.35294 0
M  V30 7 C -0.732 3.65373 2.2001 0
M  V30 8 S 0.101 5.13292 1.52614 0
M  V30 9 C 1.257 5.56322 2.86805 0
M  V30 10 H 1.49 2.90518 0.631377 0
M  V30 11 H -0.977 1.52953 0.210867 0
M  V30 12 H 0.981 2.67203 3.11629 0
M  V30 13 H -0.358 1.57376 2.7183 0
M  V30 14 H -1.165 3.90944 3.18086 0
M  V30 15 H -1.563 3.418 1.51819 0
M  V30 16 H 0.729 5.58782 3.83104 0
M  V30 17 H 1.672 6.56266 2.65933 0
M  V30 18 H 2.08 4.83886 2.90714 0
M  V30 19 N 1.4781 -0.272755 1.55222 0
M  V30 20 C 2.4411 -1.32041 1.87344 0
M  V30 21 C 3.4411 -1.42342 0.74803 0
M  V30 22 O 4.6311 -1.41488 1.0162 0
M  V30 23 C 1.7631 -2.70173 2.07893 0
M  V30 24 H 2.9561 -1.04789 2.80997 0
M  V30 25 H 0.5091 -0.51083 1.47717 0
M  V30 26 H 1.2441 -3.02605 1.16622 0
M  V30 27 H 1.0291 -2.64082 2.89833 0
M  V30 28 H 2.5191 -3.45869 2.34017 0
M  V30 29 N 2.9562 -1.48159 -0.537278 0
M  V30 30 C 4.1812 -1.59707 -1.32319 0
M  V30 31 C 4.6062 -0.254859 -1.86365 0
M  V30 32 O 3.9642 0.772378 -1.64024 0
M  V30 33 C 4.0122 -2.6412 -2.45505 0
M  V30 34 O 3.1162 -2.20774 -3.48328 0
M  V30 35 H 2.4572 -0.535791 -0.392204 0
M  V30 36 H 4.9872 -1.94092 -0.647268 0
M  V30 37 H 4.9972 -2.85166 -2.91795 0
M  V30 38 H 3.6722 -3.61567 -2.05528 0
M  V30 39 H 2.2492 -2.09911 -3.08207 0
M  V30 40 N 4.4343 0.785586 -1.36625 0
M  V30 41 C 5.3663 1.90711 -1.2713 0
M  V30 42 C 6.3793 1.61688 -0.189986 0
M  V30 43 O 7.5683 1.72864 -0.445014 0
M  V30 44 C 4.6683 3.25611 -0.939713 0
M  V30 45 C 3.8413 3.82385 -2.12369 0
M  V30 46 C 2.9003 4.95732 -1.76456 0
M  V30 47 O 1.9263 5.12047 -2.48589 0
M  V30 48 N 3.1283 5.76258 -0.700492 0
M  V30 49 H 5.8933 1.99376 -2.23762 0
M  V30 50 H 3.4543 0.964041 -1.30069 0
M  V30 51 H 5.4463 3.98937 -0.680554 0
M  V30 52 H 4.0163 3.12538 -0.0624074 0
M  V30 53 H 3.2363 3.01001 -2.54543 0
M  V30 54 H 4.5243 4.17047 -2.9146 0
M  V30 55 H 3.9223 5.65609 -0.101624 0
M  V30 56 H 2.4793 6.4987 -0.501165 0
M  V30 57 N 5.9124 1.20967 1.01018 0
M  V30 58 C 7.1374 1.0503 1.78839 0
M  V30 59 C 7.5624 -0.395752 1.8389 0
M  V30 60 O 6.9204 -1.28529 1.27867 0
M  V30 61 C 6.9684 1.64602 3.2084 0
M  V30 62 O 6.0724 0.887988 4.02726 0
M  V30 63 H 5.4134 0.369987 0.551367 0
M  V30 64 H 7.9434 1.60399 1.27018 0
M  V30 65 H 7.9534 1.68607 3.71532 0
M  V30 66 H 6.6284 2.69841 3.16479 0
M  V30 67 H 5.2054 0.922648 3.61305 0
M  V30 68 N 7.3905 -1.2043 1.01659 0
M  V30 69 C 8.3225 -2.22626 0.544988 0
M  V30 70 C 9.3355 -1.58479 -0.372609 0
M  V30 71 O 10.5245 -1.77679 -0.170958 0
M  V30 72 C 7.6245 -3.38141 -0.22663 0
M  V30 73 C 6.7975 -4.31877 0.692876 0
M  V30 74 C 5.8565 -5.26191 -0.0311616 0
M  V30 75 O 4.8825 -5.6612 0.591343 0
M  V30 76 N 6.0845 -5.65618 -1.30601 0
M  V30 77 H 8.8495 -2.63716 1.42388 0
M  V30 78 H 6.4105 -1.34971 0.894116 0
M  V30 79 H 8.4025 -3.98239 -0.72024 0
M  V30 80 H 6.9725 -2.95943 -1.00681 0
M  V30 81 H 6.1925 -3.69746 1.36679 0
M  V30 82 H 7.4805 -4.91426 1.31824 0
M  V30 83 H 6.8785 -5.3519 -1.83269 0
M  V30 84 H 5.4355 -6.28025 -1.74435 0
M  V30 85 N 8.8686 -0.792821 -1.36206 0
M  V30 86 C 10.1166 -0.366062 -1.98757 0
M  V30 87 C 10.4376 1.0668 -1.63231 0
M  V30 88 O 9.7076 1.73587 -0.907978 0
M  V30 89 H 8.2876 -0.132364 -0.735179 0
M  V30 90 H 10.9496 -1.01562 -1.66347 0
M  V30 91 H 10.0456 -0.460638 -3.08682 0
M  V30 92 N 10.3467 1.47872 -0.545128 0
M  V30 93 C 11.5957 2.01695 -0.0145033 0
M  V30 94 C 11.9087 1.42609 1.33873 0
M  V30 95 O 13.1147 1.88021 1.95858 0
M  V30 96 C 11.5707 3.59892 0.0245068 0
M  V30 97 C 11.1787 4.27966 -1.32475 0
M  V30 98 C 12.9227 4.21507 0.50316 0
M  V30 99 C 10.8297 5.78136 -1.2455 0
M  V30 100 H 9.7597 0.753998 -0.00165172 0
M  V30 101 H 12.4107 1.69985 -0.691175 0
M  V30 102 H 10.7927 3.88509 0.766575 0
M  V30 103 H 11.9667 4.11003 -2.08357 0
M  V30 104 H 10.2817 3.78286 -1.74036 0
M  V30 105 H 12.8787 5.31538 0.580656 0
M  V30 106 H 13.2217 3.87855 1.51243 0
M  V30 107 H 13.7547 3.97376 -0.183681 0
M  V30 108 H 10.4937 6.16388 -2.23039 0
M  V30 109 H 10.0137 5.97469 -0.528282 0
M  V30 110 H 11.6927 6.40099 -0.942488 0
M  V30 111 N 11.8248 0.280983 1.55075 0
M  V30 112 C 12.7568 -0.637268 2.20163 0
M  V30 113 C 13.7698 -1.11298 1.18813 0
M  V30 114 O 14.9588 -1.03388 1.4551 0
M  V30 115 C 12.0588 -1.88199 2.81841 0
M  V30 116 C 11.2318 -1.55211 4.08936 0
M  V30 117 C 10.2908 -2.64991 4.54606 0
M  V30 118 O 9.3168 -2.30929 5.2025 0
M  V30 119 N 10.5188 -3.95161 4.25238 0
M  V30 120 H 13.2838 -0.0801694 2.99593 0
M  V30 121 H 10.8448 0.102329 1.61576 0
M  V30 122 H 12.8368 -2.60948 3.09335 0
M  V30 123 H 11.4068 -2.34799 2.06369 0
M  V30 124 H 10.6268 -0.658185 3.88666 0
M  V30 125 H 11.9148 -1.30681 4.91732 0
M  V30 126 H 11.3128 -4.25653 3.72607 0
M  V30 127 H 9.8698 -4.6427 4.5749 0
M  V30 128 N 13.3029 -1.57598 0.00835791 0
M  V30 129 C 14.2349 -2.05811 -1.00868 0
M  V30 130 C 15.2479 -0.977579 -1.30182 0
M  V30 131 O 16.4369 -1.25421 -1.27011 0
M  V30 132 C 13.5369 -2.45016 -2.34137 0
M  V30 133 C 12.7099 -3.75903 -2.23643 0
M  V30 134 C 11.7689 -4.01884 -3.3967 0
M  V30 135 O 10.7949 -4.72433 -3.17483 0
M  V30 136 N 11.9969 -3.50432 -4.62793 0
M  V30 137 H 14.7619 -2.93684 -0.597458 0
M  V30 138 H 12.3229 -1.60909 -0.178852 0
M  V30 139 H 14.3149 -2.59506 -3.10546 0
M  V30 140 H 12.8849 -1.62618 -2.66972 0
M  V30 141 H 12.1049 -3.7141 -1.32091 0
M  V30 142 H 13.3929 -4.61695 -2.13812 0
M  V30 143 H 12.7909 -2.93317 -4.83716 0
M  V30 144 H 11.3479 -3.70236 -5.3644 0
M  V30 145 N 14.781 0.264519 -1.55364 0
M  V30 146 C 15.711 1.33121 -1.91836 0
M  V30 147 C 16.692 1.51101 -0.781192 0
M  V30 148 O 17.877 1.64003 -1.04003 0
M  V30 149 C 15.007 2.68921 -2.19769 0
M  V30 150 C 13.961 2.65661 -3.35571 0
M  V30 151 C 13.287 4.05093 -3.49004 0
M  V30 152 C 14.587 2.24187 -4.71739 0
M  V30 153 H 16.281 1.02844 -2.81182 0
M  V30 154 H 13.827 0.493286 -1.35287 0
M  V30 155 H 15.78 3.43663 -2.43872 0
M  V30 156 H 14.504 3.00799 -1.27231 0
M  V30 157 H 13.163 1.93377 -3.1145 0
M  V30 158 H 12.811 4.34206 -2.53917 0
M  V30 159 H 12.511 4.03804 -4.26868 0
M  V30 160 H 14.035 4.81561 -3.75408 0
M  V30 161 H 15.449 2.88654 -4.9533 0
M  V30 162 H 13.846 2.34044 -5.52579 0
M  V30 163 H 14.916 1.19327 -4.69988 0
M  V30 164 N 16.2591 1.48442 0.529413 0
M  V30 165 C 17.1891 1.65902 1.64313 0
M  V30 166 C 18.1701 0.507897 1.6234 0
M  V30 167 O 19.3551 0.740503 1.79528 0
M  V30 168 C 16.4851 1.69911 3.02898 0
M  V30 169 C 15.4391 2.8453 3.19729 0
M  V30 170 C 14.7651 2.73629 4.59381 0
M  V30 171 C 16.0651 4.25821 3.02447 0
M  V30 172 H 17.7591 2.5914 1.49955 0
M  V30 173 H 15.3051 1.24709 0.719982 0
M  V30 174 H 17.2581 1.80715 3.80684 0
M  V30 175 H 15.9821 0.732524 3.18279 0
M  V30 176 H 14.6411 2.73283 2.44361 0
M  V30 177 H 14.2891 1.74938 4.71599 0
M  V30 178 H 13.9891 3.50541 4.71588 0
M  V30 179 H 15.5131 2.86401 5.39265 0
M  V30 180 H 16.9271 4.37898 3.70024 0
M  V30 181 H 15.3241 5.03735 3.26146 0
M  V30 182 H 16.3941 4.42244 1.98867 0
M  V30 183 N 17.7372 -0.778329 1.37039 0
M  V30 184 C 18.6692 -1.90034 1.2814 0
M  V30 185 C 19.6822 -1.61585 0.198558 0
M  V30 186 O 20.8712 -1.72625 0.454175 0
M  V30 187 C 17.9712 -3.25108 0.956968 0
M  V30 188 C 17.1442 -3.81253 2.14394 0
M  V30 189 C 16.2032 -4.94789 1.79082 0
M  V30 190 O 15.2292 -5.10721 2.51301 0
M  V30 191 N 16.4312 -5.75878 0.731043 0
M  V30 192 H 19.1962 -1.98186 2.24816 0
M  V30 193 H 16.7572 -0.957129 1.30578 0
M  V30 194 H 18.7492 -3.9857 0.701701 0
M  V30 195 H 17.3192 -3.125 0.0789812 0
M  V30 196 H 16.5392 -2.99647 2.56135 0
M  V30 197 H 17.8272 -4.15495 2.93668 0
M  V30 198 H 17.2252 -5.65547 0.131618 0
M  V30 199 H 15.7822 -6.49596 0.535622 0
M  V30 200 N 19.2153 -1.21501 -1.00376 0
M  V30 201 C 20.1783 -0.976927 -2.07337 0
M  V30 202 C 21.1783 0.0525322 -1.60714 0
M  V30 203 O 22.3683 -0.184869 -1.73216 0
M  V30 204 C 19.5003 -0.473423 -3.37597 0
M  V30 205 H 20.6933 -1.92587 -2.29892 0
M  V30 206 H 18.2463 -1.03217 -1.17371 0
M  V30 207 H 18.9813 0.480379 -3.20722 0
M  V30 208 H 18.7663 -1.216 -3.72768 0
M  V30 209 H 20.2563 -0.32675 -4.1632 0
M  V30 210 N 20.6934 1.19889 -1.02296 0
M  V30 211 C 21.6034 2.26571 -0.608508 0
M  V30 212 C 22.6194 1.70299 0.356964 0
M  V30 213 O 23.7954 2.00235 0.216326 0
M  V30 214 C 20.8604 3.46677 0.0402814 0
M  V30 215 C 19.9214 4.18153 -0.97194 0
M  V30 216 C 19.1544 5.32525 -0.354016 0
M  V30 217 O 19.3774 5.64112 0.844604 0
M  V30 218 O 18.3114 5.92242 -1.07391 0
M  V30 219 H 22.1374 2.64251 -1.49684 0
M  V30 220 H 19.7224 1.26629 -0.792809 0
M  V30 221 H 21.6044 4.19475 0.402324 0
M  V30 222 H 20.2794 3.10858 0.902707 0
M  V30 223 H 19.1864 3.47499 -1.38546 0
M  V30 224 H 20.5194 4.57927 -1.80454 0
M  V30 225 N 22.1715 0.800033 1.35784 0
M  V30 226 C 23.1185 0.203848 2.29898 0
M  V30 227 C 24.0885 -0.658375 1.52495 0
M  V30 228 O 25.2735 -0.604832 1.8096 0
M  V30 229 C 22.4135 -0.64688 3.38983 0
M  V30 230 C 21.5265 0.235054 4.3136 0
M  V30 231 C 20.6615 -0.623054 5.27533 0
M  V30 232 C 19.7005 0.259682 6.11549 0
M  V30 233 N 18.8375 -0.558019 6.99879 0
M  V30 234 H 23.6775 1.01186 2.80295 0
M  V30 235 H 21.2145 0.51053 1.37957 0
M  V30 236 H 23.1725 -1.15521 4.00887 0
M  V30 237 H 21.8025 -1.42021 2.89879 0
M  V30 238 H 20.8545 0.861438 3.70518 0
M  V30 239 H 22.1665 0.914768 4.9034 0
M  V30 240 H 21.3205 -1.19678 5.94779 0
M  V30 241 H 20.0595 -1.33636 4.69034 0
M  V30 242 H 19.0645 0.845726 5.43256 0
M  V30 243 H 20.2895 0.970748 6.72126 0
M  V30 244 H 18.2355 -1.25542 6.43875 0
M  V30 245 H 18.1525 0.0637872 7.55973 0
M  V30 246 H 19.4205 -1.11523 7.71481 0
M  V30 247 N 23.6496 -1.47581 0.552962 0
M  V30 248 C 25.0656 -1.5818 0.212424 0
M  V30 249 C 25.2656 -1.55213 -1.28496 0
M  V30 250 O 24.3216 -1.45329 -2.06484 0
M  V30 251 C 25.6346 -2.88865 0.835318 0
M  V30 252 C 27.1826 -3.0244 0.806156 0
M  V30 253 C 27.6576 -4.35819 1.40804 0
M  V30 254 N 29.1486 -4.42444 1.37103 0
M  V30 255 C 29.8836 -5.44202 1.80641 0
M  V30 256 N 29.3796 -6.52795 2.32015 0
M  V30 257 N 31.1726 -5.35222 1.71738 0
M  V30 258 H 23.3236 -1.47753 1.52587 0
M  V30 259 H 25.5866 -0.702941 0.636064 0
M  V30 260 H 25.2926 -2.9676 1.88749 0
M  V30 261 H 25.1666 -3.7579 0.325848 0
M  V30 262 H 27.5536 -2.94144 -0.237317 0
M  V30 263 H 27.6346 -2.17068 1.35334 0
M  V30 264 H 27.2786 -4.44871 2.45056 0
M  V30 265 H 27.2086 -5.19916 0.836338 0
M  V30 266 H 29.6996 -3.6456 0.995202 0
M  V30 267 H 30.0126 -7.26609 2.63171 0
M  V30 268 H 28.3576 -6.53696 2.36023 0
M  V30 269 H 31.5486 -4.49284 1.31382 0
M  V30 270 H 31.7216 -6.14389 2.05987 0
M  V30 271 N 25.1277 -0.289203 -1.54924 0
M  V30 272 C 26.0907 0.579144 -2.21762 0
M  V30 273 C 27.0907 1.07047 -1.1999 0
M  V30 274 O 28.2807 0.968384 -1.44803 0
M  V30 275 C 25.4127 1.80055 -2.8947 0
M  V30 276 H 26.6057 -0.00464908 -2.999 0
M  V30 277 H 24.1587 -0.0399306 -1.56249 0
M  V30 278 H 24.8937 2.42449 -2.15381 0
M  V30 279 H 24.6787 1.45602 -3.64064 0
M  V30 280 H 26.1687 2.41773 -3.40493 0
M  V30 281 N 26.6058 1.57591 -0.0167156 0
M  V30 282 C 27.5688 2.08393 0.954204 0
M  V30 283 C 28.5688 0.996531 1.26198 0
M  V30 284 O 29.7588 1.25858 1.20438 0
M  V30 285 C 26.8908 2.5394 2.27436 0
M  V30 286 H 28.0838 2.95455 0.514451 0
M  V30 287 H 25.6368 1.54582 0.231089 0
M  V30 288 H 26.3718 1.70171 2.76066 0
M  V30 289 H 26.1568 3.33371 2.06412 0
M  V30 290 H 27.6468 2.93512 2.97053 0
M  V30 291 N 28.0839 -0.256276 1.55502 0
M  V30 292 C 28.9939 -1.33882 1.92647 0
M  V30 293 C 30.0099 -1.53159 0.825727 0
M  V30 294 O 31.1859 -1.66963 1.12629 0
M  V30 295 C 28.2509 -2.6751 2.20543 0
M  V30 296 C 27.3119 -2.56836 3.43997 0
M  V30 297 C 26.5449 -3.84092 3.70553 0
M  V30 298 O 26.7679 -4.85545 2.99336 0
M  V30 299 O 25.7019 -3.83288 4.64084 0
M  V30 300 H 29.5279 -1.05374 2.84833 0
M  V30 301 H 27.1129 -0.456237 1.42263 0
M  V30 302 H 28.9949 -3.46492 2.39835 0
M  V30 303 H 27.6699 -2.9577 1.31536 0
M  V30 304 H 26.5769 -1.76172 3.30021 0
M  V30 305 H 27.9099 -2.33523 4.33275 0
M  V30 306 N 29.562 -1.4872 -0.521534 0
M  V30 307 C 30.509 -1.63871 -1.62527 0
M  V30 308 C 31.479 -0.480559 -1.58996 0
M  V30 309 O 32.664 -0.705085 -1.77294 0
M  V30 310 C 29.804 -1.69227 -3.00759 0
M  V30 311 C 28.917 -2.96207 -3.14461 0
M  V30 312 C 28.052 -2.92671 -4.43303 0
M  V30 313 C 27.091 -4.14318 -4.50563 0
M  V30 314 N 26.228 -4.0881 -5.70805 0
M  V30 315 H 31.068 -2.58123 -1.48918 0
M  V30 316 H 28.605 -1.28 -0.724878 0
M  V30 317 H 30.563 -1.70314 -3.80853 0
M  V30 318 H 29.193 -0.784586 -3.1312 0
M  V30 319 H 28.245 -3.04826 -2.27564 0
M  V30 320 H 29.557 -3.86192 -3.15686 0
M  V30 321 H 28.711 -2.92206 -5.31696 0
M  V30 322 H 27.45 -2.00429 -4.44612 0
M  V30 323 H 26.455 -4.15049 -3.60575 0
M  V30 324 H 27.68 -5.07729 -4.50986 0
M  V30 325 H 25.626 -3.19394 -5.72995 0
M  V30 326 H 25.543 -4.92509 -5.7356 0
M  V30 327 H 26.811 -4.12418 -6.61462 0
M  V30 328 N 31.0401 0.771051 -1.3745 0
M  V30 329 C 32.2861 1.5319 -1.32894 0
M  V30 330 C 32.6191 1.94008 0.0862511 0
M  V30 331 O 31.8941 1.64124 1.04373 0
M  V30 332 C 32.1771 2.79648 -2.26868 0
M  V30 333 C 32.0301 2.45079 -3.77169 0
M  V30 334 C 33.3491 3.81583 -2.19277 0
M  V30 335 H 30.4681 0.555744 -0.484064 0
M  V30 336 H 33.1101 0.884492 -1.68157 0
M  V30 337 H 31.2601 3.34891 -1.96926 0
M  V30 338 H 32.9321 1.95745 -4.1771 0
M  V30 339 H 31.1751 1.77767 -3.95704 0
M  V30 340 H 31.8461 3.35478 -4.38359 0
M  V30 341 H 34.3221 3.35835 -2.45671 0
M  V30 342 H 33.1981 4.67787 -2.87171 0
M  V30 343 H 33.4591 4.25897 -1.18592 0
M  V30 344 N 32.5182 1.22032 0.997298 0
M  V30 345 C 33.7432 1.06921 1.77715 0
M  V30 346 C 34.1682 -0.376226 1.84299 0
M  V30 347 O 33.5262 -1.27165 1.29223 0
M  V30 348 C 33.5742 1.67996 3.19076 0
M  V30 349 O 32.6782 0.930653 4.01762 0
M  V30 350 H 32.0192 0.375814 0.547412 0
M  V30 351 H 34.5492 1.61737 1.25309 0
M  V30 352 H 34.5592 1.72538 3.69723 0
M  V30 353 H 33.2342 2.73182 3.13599 0
M  V30 354 H 31.8112 0.960917 3.60307 0
M  V30 355 N 33.9963 -1.19345 1.0293 0
M  V30 356 C 34.9063 -2.26245 0.620515 0
M  V30 357 C 35.9223 -1.70486 -0.347928 0
M  V30 358 O 37.0983 -2.00347 -0.205704 0
M  V30 359 C 34.1633 -3.46693 -0.0218957 0
M  V30 360 C 33.2243 -4.17632 0.994102 0
M  V30 361 C 32.4573 -5.32329 0.382253 0
M  V30 362 O 32.6803 -5.64552 -0.814676 0
M  V30 363 O 31.6143 -5.91664 1.10531 0
M  V30 364 H 35.4403 -2.63453 1.51083 0
M  V30 365 H 33.0253 -1.26207 0.799513 0
M  V30 366 H 34.9073 -4.19683 -0.380072 0
M  V30 367 H 33.5823 -3.11333 -0.886209 0
M  V30 368 H 32.4893 -3.4676 1.40387 0
M  V30 369 H 33.8223 -4.56964 1.8288 0
M  V30 370 N 35.4744 -0.807222 -1.35358 0
M  V30 371 C 36.4374 -0.223665 -2.28106 0
M  V30 372 C 37.4374 0.589354 -1.4961 0
M  V30 373 O 38.6274 0.407745 -1.69361 0
M  V30 374 C 35.7594 0.688149 -3.33882 0
M  V30 375 H 36.9524 -1.04169 -2.81227 0
M  V30 376 H 34.5054 -0.577921 -1.45223 0
M  V30 377 H 35.2404 1.52984 -2.85948 0
M  V30 378 H 35.0254 0.10687 -3.91954 0
M  V30 379 H 36.5154 1.09075 -4.03104 0
M  V30 380 N 36.9525 1.47285 -0.560781 0
M  V30 381 C 38.3685 1.58065 -0.22081 0
M  V30 382 C 38.5685 1.55892 1.27671 0
M  V30 383 O 37.6245 1.46422 2.0571 0
M  V30 384 C 38.9375 2.88418 -0.850625 0
M  V30 385 C 40.4855 3.02009 -0.822184 0
M  V30 386 C 40.9605 4.35066 -1.43113 0
M  V30 387 N 42.4515 4.41711 -1.39448 0
M  V30 388 C 43.1865 5.43237 -1.83525 0
M  V30 389 N 42.6825 6.51555 -2.35474 0
M  V30 390 N 44.4755 5.34304 -1.74574 0
M  V30 391 H 36.6265 1.46941 -1.53369 0
M  V30 392 H 38.8895 0.699558 -0.639783 0
M  V30 393 H 38.5955 2.95755 -1.9032 0
M  V30 394 H 38.4695 3.75612 -0.345773 0
M  V30 395 H 40.8565 2.94266 0.221714 0
M  V30 396 H 40.9375 2.16347 -1.36483 0
M  V30 397 H 40.5815 4.43565 -2.47412 0
M  V30 398 H 40.5115 5.19465 -0.863899 0
M  V30 399 H 43.0025 3.64027 -1.01452 0
M  V30 400 H 43.3155 7.25203 -2.67021 0
M  V30 401 H 41.6605 6.52435 -2.39487 0
M  V30 402 H 44.8515 4.48581 -1.33763 0
M  V30 403 H 45.0245 6.13288 -2.09242 0
M  V30 404 N 38.4306 0.297415 1.54768 0
M  V30 405 C 39.3776 -0.580276 2.23386 0
M  V30 406 C 40.3476 -1.13238 1.21517 0
M  V30 407 O 41.5326 -1.17757 1.50126 0
M  V30 408 C 38.6726 -1.74801 2.97555 0
M  V30 409 C 37.7856 -1.22764 4.1419 0
M  V30 410 C 36.9206 -2.35895 4.75949 0
M  V30 411 C 35.9596 -1.80974 5.84735 0
M  V30 412 N 35.0966 -2.87664 6.40464 0
M  V30 413 H 39.9366 0.0114833 2.97998 0
M  V30 414 H 37.4736 0.0174361 1.4709 0
M  V30 415 H 39.4316 -2.43475 3.38786 0
M  V30 416 H 38.0616 -2.31145 2.25326 0
M  V30 417 H 37.1136 -0.433271 3.77924 0
M  V30 418 H 38.4256 -0.785551 4.92575 0
M  V30 419 H 37.5796 -3.12523 5.20014 0
M  V30 420 H 36.3186 -2.83429 3.96887 0
M  V30 421 H 35.3236 -1.02834 5.40097 0
M  V30 422 H 36.5486 -1.34348 6.65678 0
M  V30 423 H 34.4946 -3.34538 5.64287 0
M  V30 424 H 34.4116 -2.4794 7.14186 0
M  V30 425 H 35.6796 -3.642 6.89187 0
M  V30 426 N 39.9087 -1.5758 0.0250728 0
M  V30 427 C 41.3247 -1.56124 -0.331282 0
M  V30 428 C 41.5247 -1.03029 -1.73169 0
M  V30 429 O 40.5807 -0.675215 -2.43305 0
M  V30 430 C 41.8937 -3.00139 -0.183584 0
M  V30 431 C 43.4417 -3.11946 -0.256654 0
M  V30 432 C 43.9167 -4.57793 -0.137792 0
M  V30 433 N 45.4077 -4.6279 -0.194904 0
M  V30 434 C 46.1427 -5.7326 -0.126655 0
M  V30 435 N 45.6387 -6.928 -0.00755288 0
M  V30 436 N 47.4317 -5.61811 -0.180348 0
M  V30 437 H 39.5827 -1.90424 0.94087 0
M  V30 438 H 41.8457 -0.875761 0.362968 0
M  V30 439 H 41.5517 -3.4292 0.780927 0
M  V30 440 H 41.4257 -3.64899 -0.955448 0
M  V30 441 H 43.8127 -2.69079 -1.21162 0
M  V30 442 H 43.8937 -2.49915 0.545517 0
M  V30 443 H 43.5377 -5.01339 0.813739 0
M  V30 444 H 43.4677 -5.17798 -0.958775 0
M  V30 445 H 45.9587 -3.76807 -0.287267 0
M  V30 446 H 46.2717 -7.72791 0.0379428 0
M  V30 447 H 44.6167 -6.94995 0.0271731 0
M  V30 448 H 47.8077 -4.6731 -0.271767 0
M  V30 449 H 47.9807 -6.47882 -0.123697 0
M  V30 450 N 41.3868 0.248026 -1.55636 0
M  V30 451 C 42.3338 1.30707 -1.90222 0
M  V30 452 C 43.3038 1.47881 -0.756332 0
M  V30 453 O 44.4888 1.61883 -1.00988 0
M  V30 454 C 41.6288 2.65769 -2.20138 0
M  V30 455 C 40.7418 2.56612 -3.47526 0
M  V30 456 C 39.8768 3.8402 -3.67017 0
M  V30 457 C 38.9158 3.69476 -4.8801 0
M  V30 458 N 38.0528 4.88774 -5.04029 0
M  V30 459 H 42.8928 1.00512 -2.80538 0
M  V30 460 H 40.4298 0.485055 -1.38873 0
M  V30 461 H 42.3878 3.44386 -2.35487 0
M  V30 462 H 41.0178 2.94115 -1.33027 0
M  V30 463 H 40.0698 1.69571 -3.40514 0
M  V30 464 H 41.3818 2.41774 -4.36287 0
M  V30 465 H 40.5358 4.7108 -3.8232 0
M  V30 466 H 39.2748 4.01754 -2.76487 0
M  V30 467 H 38.2798 2.80799 -4.72686 0
M  V30 468 H 39.5048 3.53238 -5.8 0
M  V30 469 H 37.4508 5.0687 -4.16435 0
M  V30 470 H 37.3678 4.76562 -5.86877 0
M  V30 471 H 38.6358 5.77335 -5.23741 0
M  V30 472 N 42.8649 1.48995 0.513639 0
M  V30 473 C 43.8129 1.65199 1.63744 0
M  V30 474 C 44.8069 0.51809 1.61283 0
M  V30 475 O 46.0129 0.697335 1.65943 0
M  V30 476 H 42.3879 0.52069 0.542574 0
M  V30 477 H 44.3589 2.59552 1.47226 0
M  V30 478 C 43.1079 1.72409 3.01945 0
M  V30 479 H 42.4309 2.59029 3.04539 0
M  V30 480 H 43.8709 1.87785 3.80148 0
M  V30 481 C 42.3299 0.46618 3.33659 0
M  V30 482 O 42.8599 -0.413744 3.99564 0
M  V30 483 N 41.0659 0.332931 2.88687 0
M  V30 484 H 40.6129 1.04996 2.35231 0
M  V30 485 H 40.5709 -0.507665 3.10274 0
M  V30 486 N 44.343 -0.763751 1.37857 0
M  V30 487 C 45.759 -1.06542 1.18832 0
M  V30 488 C 45.959 -2.01478 0.0299722 0
M  V30 489 O 45.015 -2.4458 -0.627447 0
M  V30 490 C 46.328 -1.65525 2.51042 0
M  V30 491 C 47.876 -1.77745 2.57635 0
M  V30 492 C 48.351 -2.4014 3.89996 0
M  V30 493 N 49.842 -2.47582 3.91481 0
M  V30 494 C 50.577 -2.96732 4.9065 0
M  V30 495 N 50.073 -3.45993 6.00217 0
M  V30 496 N 51.866 -2.95679 4.78048 0
M  V30 497 H 44.017 -0.133556 2.1198 0
M  V30 498 H 46.28 -0.121879 0.940133 0
M  V30 499 H 45.986 -1.03236 3.36207 0
M  V30 500 H 45.86 -2.64719 2.68707 0
M  V30 501 H 48.247 -2.39164 1.72872 0
M  V30 502 H 48.328 -0.772836 2.43846 0
M  V30 503 H 47.972 -1.79358 4.75177 0
M  V30 504 H 47.902 -3.41223 4.01092 0
M  V30 505 H 50.393 -2.1273 3.12337 0
M  V30 506 H 50.706 -3.81922 6.7183 0
M  V30 507 H 49.051 -3.44077 6.03851 0
M  V30 508 H 52.242 -2.56499 3.91568 0
M  V30 509 H 52.415 -3.33672 5.55488 0
M  V30 510 N 45.8211 -1.22559 -0.990812 0
M  V30 511 C 47.2371 -0.985996 -1.255 0
M  V30 512 C 47.4371 0.319173 -1.98956 0
M  V30 513 O 46.4931 1.04127 -2.3003 0
M  V30 514 C 47.8061 -2.18607 -2.06474 0
M  V30 515 C 49.3541 -2.22985 -2.19651 0
M  V30 516 C 49.8291 -3.4255 -3.04012 0
M  V30 517 N 51.3201 -3.42725 -3.11599 0
M  V30 518 C 52.0551 -4.31892 -3.7717 0
M  V30 519 N 51.5511 -5.31279 -4.44651 0
M  V30 520 N 53.3441 -4.19662 -3.73952 0
M  V30 521 H 45.4951 -2.06469 -0.49841 0
M  V30 522 H 47.7581 -0.904853 -0.282747 0
M  V30 523 H 47.4641 -3.13267 -1.59865 0
M  V30 524 H 47.3381 -2.18838 -3.07229 0
M  V30 525 H 49.7251 -1.28871 -2.65474 0
M  V30 526 H 49.8061 -2.26791 -1.18319 0
M  V30 527 H 49.4501 -4.36965 -2.58889 0
M  V30 528 H 49.3801 -3.35984 -4.0549 0
M  V30 529 H 51.8711 -2.70807 -2.63575 0
M  V30 530 H 52.1841 -5.95593 -4.92431 0
M  V30 531 H 50.5291 -5.3519 -4.43392 0
M  V30 532 H 53.7201 -3.41268 -3.20396 0
M  V30 533 H 53.8931 -4.89358 -4.24774 0
M  V30 534 N 47.2992 1.18797 -1.03562 0
M  V30 535 C 48.2292 2.24472 -0.643019 0
M  V30 536 C 49.2102 1.66433 0.351283 0
M  V30 537 O 50.3952 1.92803 0.232505 0
M  V30 538 C 47.5252 3.473 4.24935e-05 0
M  V30 539 C 46.4792 4.18055 -0.917257 0
M  V30 540 C 45.8052 5.34519 -0.138941 0
M  V30 541 C 47.1052 4.72109 -2.23407 0
M  V30 542 H 48.7992 2.57566 -1.52643 0
M  V30 543 H 46.3452 1.23806 -0.735394 0
M  V30 544 H 48.2982 4.20426 0.286383 0
M  V30 545 H 47.0222 3.13424 0.918299 0
M  V30 546 H 45.6812 3.46821 -1.1879 0
M  V30 547 H 45.3292 4.96891 0.781562 0
M  V30 548 H 45.0292 5.82794 -0.750005 0
M  V30 549 H 46.5532 6.10438 0.1405 0
M  V30 550 H 47.9672 5.36955 -2.00879 0
M  V30 551 H 46.3642 5.30897 -2.79765 0
M  V30 552 H 47.4342 3.89807 -2.88407 0
M  V30 553 N 48.7773 0.814389 1.34928 0
M  V30 554 C 49.7243 0.22822 2.29669 0
M  V30 555 C 50.6943 -0.642164 1.53184 0
M  V30 556 O 51.8793 -0.585605 1.81591 0
M  V30 557 C 49.0193 -0.61089 3.3965 0
M  V30 558 C 48.1323 0.280792 4.31086 0
M  V30 559 C 47.2673 -0.567067 5.28165 0
M  V30 560 C 46.3063 0.324531 6.11239 0
M  V30 561 N 45.4433 -0.483756 7.00431 0
M  V30 562 H 50.2833 1.04153 2.79206 0
M  V30 563 H 47.8203 0.525133 1.37407 0
M  V30 564 H 49.7783 -1.11263 4.0209 0
M  V30 565 H 48.4083 -1.38939 2.91369 0
M  V30 566 H 47.4603 0.900688 3.69583 0
M  V30 567 H 48.7723 0.966723 4.89342 0
M  V30 568 H 47.9263 -1.13363 5.96015 0
M  V30 569 H 46.6653 -1.28654 4.70425 0
M  V30 570 H 45.6703 0.903298 5.42329 0
M  V30 571 H 46.8953 1.04198 6.71059 0
M  V30 572 H 44.8413 -1.18706 6.45171 0
M  V30 573 H 44.7583 0.143965 7.55863 0
M  V30 574 H 46.0263 -1.03334 7.7262 0
M  V30 575 N 50.2554 -1.46986 0.568584 0
M  V30 576 C 51.1874 -2.28233 -0.210337 0
M  V30 577 C 52.2004 -1.37682 -0.868767 0
M  V30 578 O 53.3894 -1.62406 -0.740705 0
M  V30 579 C 50.4894 -3.12293 -1.3163 0
M  V30 580 C 49.6624 -4.30878 -0.7525 0
M  V30 581 C 48.7214 -4.96445 -1.74439 0
M  V30 582 O 47.7474 -5.54482 -1.286 0
M  V30 583 N 48.9494 -4.92171 -3.07812 0
M  V30 584 H 51.7144 -2.95723 0.486648 0
M  V30 585 H 49.2754 -1.56742 0.405409 0
M  V30 586 H 51.2674 -3.53022 -1.97883 0
M  V30 587 H 49.8374 -2.46971 -1.91636 0
M  V30 588 H 49.0574 -3.94104 0.0871128 0
M  V30 589 H 50.3454 -5.07558 -0.35536 0
M  V30 590 H 49.7434 -4.46239 -3.47688 0
M  V30 591 H 48.3004 -5.36884 -3.69592 0
M  V30 592 N 51.7335 -0.305618 -1.54608 0
M  V30 593 C 52.6965 0.555591 -2.22364 0
M  V30 594 C 53.6965 1.05768 -1.21119 0
M  V30 595 O 54.8865 0.952972 -1.45822 0
M  V30 596 C 52.0185 1.76974 -2.91364 0
M  V30 597 H 53.2115 -0.0364572 -2.99878 0
M  V30 598 H 50.7645 -0.0565007 -1.56198 0
M  V30 599 H 51.4995 2.40151 -2.17941 0
M  V30 600 H 51.2845 1.41732 -3.65588 0
M  V30 601 H 52.7745 2.38148 -3.43038 0
M  V30 602 N 53.2116 1.57565 -0.0334293 0
M  V30 603 C 54.1586 2.10478 0.946981 0
M  V30 604 C 55.1286 1.00787 1.32027 0
M  V30 605 O 56.3136 1.28232 1.41284 0
M  V30 606 C 53.4536 2.63994 2.22263 0
M  V30 607 C 52.5666 3.87709 1.90541 0
M  V30 608 C 51.7016 4.29604 3.12433 0
M  V30 609 C 50.7406 5.46065 2.76549 0
M  V30 610 N 49.8776 5.83096 3.9108 0
M  V30 611 H 54.7176 2.93963 0.488846 0
M  V30 612 H 52.2546 1.45296 0.22969 0
M  V30 613 H 54.2126 2.93114 2.96884 0
M  V30 614 H 52.8426 1.83333 2.65685 0
M  V30 615 H 51.8946 3.65291 1.06144 0
M  V30 616 H 53.2066 4.72403 1.60116 0
M  V30 617 H 52.3606 4.60182 3.9537 0
M  V30 618 H 51.0996 3.43685 3.46023 0
M  V30 619 H 50.1046 5.15176 1.92026 0
M  V30 620 H 51.3296 6.33685 2.44171 0
M  V30 621 H 49.2756 5.00132 4.24504 0
M  V30 622 H 49.1926 6.6244 3.64293 0
M  V30 623 H 50.4606 6.18282 4.74708 0
M  V30 624 N 54.6897 -0.239769 1.55765 0
M  V30 625 C 55.5997 -1.31831 1.94056 0
M  V30 626 C 56.6157 -1.52275 0.841925 0
M  V30 627 O 57.7917 -1.65759 1.14394 0
M  V30 628 C 54.8567 -2.65156 2.23368 0
M  V30 629 C 53.9177 -2.53173 3.46701 0
M  V30 630 C 53.1507 -3.8014 3.74606 0
M  V30 631 O 53.3737 -4.82343 3.04469 0
M  V30 632 O 52.3077 -3.78344 4.68123 0
M  V30 633 H 56.1337 -1.02347 2.85935 0
M  V30 634 H 53.7187 -0.441123 1.42739 0
M  V30 635 H 55.6007 -3.43929 2.43497 0
M  V30 636 H 54.2757 -2.94358 1.34666 0
M  V30 637 H 53.1827 -1.72662 3.31871 0
M  V30 638 H 54.5157 -2.28915 4.35728 0
M  V30 639 N 56.1678 -1.49265 -0.50573 0
M  V30 640 C 57.0778 -1.68312 -1.63427 0
M  V30 641 C 58.0938 -0.565682 -1.64548 0
M  V30 642 O 59.2698 -0.839801 -1.83055 0
M  V30 643 C 56.3348 -1.74107 -2.99813 0
M  V30 644 C 55.3958 -2.97653 -3.09356 0
M  V30 645 C 54.6288 -3.03163 -4.39236 0
M  V30 646 O 54.8518 -2.16396 -5.27758 0
M  V30 647 O 53.7858 -3.9558 -4.53652 0
M  V30 648 H 57.6118 -2.63907 -1.50289 0
M  V30 649 H 55.1968 -1.32951 -0.681502 0
M  V30 650 H 57.0788 -1.803 -3.80881 0
M  V30 651 H 55.7538 -0.816901 -3.13223 0
M  V30 652 H 54.6608 -2.96981 -2.27493 0
M  V30 653 H 55.9938 -3.89535 -3.00871 0
M  V30 654 N 57.6459 0.756429 -1.3826 0
M  V30 655 C 58.6089 1.85176 -1.35065 0
M  V30 656 C 59.6089 1.58818 -0.251703 0
M  V30 657 O 60.7989 1.66615 -0.508433 0
M  V30 658 C 57.9309 3.22596 -1.10201 0
M  V30 659 H 59.1239 1.89417 -2.3251 0
M  V30 660 H 56.6769 0.95783 -1.23512 0
M  V30 661 H 57.4119 3.24025 -0.133504 0
M  V30 662 H 57.1969 3.43122 -1.89762 0
M  V30 663 H 58.6869 4.02673 -1.10654 0
M  V30 664 N 59.124 1.23083 0.984299 0
M  V30 665 C 60.056 0.96636 2.07832 0
M  V30 666 C 61.069 -0.0582135 1.62696 0
M  V30 667 O 62.258 0.176843 1.77622 0
M  V30 668 C 59.358 0.433397 3.36117 0
M  V30 669 C 58.531 1.51722 4.10243 0
M  V30 670 C 57.59 0.989821 5.16807 0
M  V30 671 O 56.616 1.67794 5.43906 0
M  V30 672 N 57.818 -0.184367 5.80207 0
M  V30 673 H 60.583 1.90824 2.31098 0
M  V30 674 H 58.144 1.13888 1.1507 0
M  V30 675 H 60.136 0.065699 4.04647 0
M  V30 676 H 58.706 -0.413806 3.09849 0
M  V30 677 H 57.926 2.05786 3.36223 0
M  V30 678 H 59.214 2.24619 4.56534 0
M  V30 679 H 58.612 -0.760062 5.60571 0
M  V30 680 H 57.169 -0.493366 6.4993 0
M  V30 681 N 60.6021 -1.18246 1.0419 0
M  V30 682 C 61.5651 -2.20128 0.638452 0
M  V30 683 C 62.5651 -1.57885 -0.304805 0
M  V30 684 O 63.7551 -1.73967 -0.0900369 0
M  V30 685 C 60.8871 -3.4084 -0.0637751 0
M  V30 686 H 62.0801 -2.57336 1.54007 0
M  V30 687 H 59.6331 -1.32152 0.834598 0
M  V30 688 H 60.3681 -3.09166 -0.979136 0
M  V30 689 H 60.1531 -3.8726 0.614198 0
M  V30 690 H 61.6431 -4.16274 -0.332512 0
M  V30 691 N 62.0802 -0.821533 -1.34494 0
M  V30 692 C 62.9902 -0.244355 -2.33324 0
M  V30 693 C 64.0062 0.620527 -1.62559 0
M  V30 694 O 65.1822 0.528754 -1.94335 0
M  V30 695 C 62.2472 0.585368 -3.41723 0
M  V30 696 C 61.3082 -0.301752 -4.28238 0
M  V30 697 C 60.5412 0.488466 -5.3146 0
M  V30 698 O 60.7642 1.72186 -5.4379 0
M  V30 699 O 59.6982 -0.12848 -6.01763 0
M  V30 700 H 63.5242 -1.06231 -2.84515 0
M  V30 701 H 61.1092 -0.583645 -1.37528 0
M  V30 702 H 62.9912 1.05747 -4.07916 0
M  V30 703 H 61.6662 1.38068 -2.92778 0
M  V30 704 H 60.5732 -0.821315 -3.64973 0
M  V30 705 H 61.9062 -1.06138 -4.8062 0
M  V30 706 N 63.5583 1.46682 -0.576371 0
M  V30 707 C 64.8073 2.01619 -0.0572825 0
M  V30 708 C 65.1203 1.45417 1.30818 0
M  V30 709 O 66.3263 1.92133 1.91825 0
M  V30 710 C 64.7823 3.59863 -0.0518371 0
M  V30 711 C 64.3903 4.25059 -1.41523 0
M  V30 712 C 66.1343 4.2248 0.413639 0
M  V30 713 C 64.0413 5.75364 -1.36785 0
M  V30 714 H 62.9713 0.753794 -0.0176448 0
M  V30 715 H 65.6223 1.68481 -0.727076 0
M  V30 716 H 64.0043 3.90048 0.683994 0
M  V30 717 H 65.1783 4.06491 -2.17029 0
M  V30 718 H 63.4933 3.7451 -1.8202 0
M  V30 719 H 66.0903 5.3265 0.467779 0
M  V30 720 H 66.4333 3.90976 1.42982 0
M  V30 721 H 66.9663 3.96897 -0.267929 0
M  V30 722 H 63.7053 6.11518 -2.36063 0
M  V30 723 H 63.2253 5.96214 -0.654895 0
M  V30 724 H 64.9043 6.37955 -1.07805 0
M  V30 725 N 65.0364 0.313813 1.54444 0
M  V30 726 C 65.9464 -0.565714 2.27677 0
M  V30 727 C 66.9624 -1.13754 1.31666 0
M  V30 728 O 68.1384 -1.15959 1.64668 0
M  V30 729 C 65.2034 -1.71528 3.01296 0
M  V30 730 C 64.2644 -1.17624 4.12872 0
M  V30 731 C 63.4974 -2.27102 4.8297 0
M  V30 732 O 63.7204 -3.47256 4.52514 0
M  V30 733 O 62.6544 -1.9307 5.70094 0
M  V30 734 H 66.4804 0.0287296 3.03686 0
M  V30 735 H 64.0654 0.0798312 1.49187 0
M  V30 736 H 65.9474 -2.38476 3.4743 0
M  V30 737 H 64.6224 -2.29608 2.2817 0
M  V30 738 H 63.5294 -0.472124 3.71109 0
M  V30 739 H 64.8624 -0.640695 4.88012 0
M  V30 740 N 66.5145 -1.57545 0.0417849 0
M  V30 741 C 67.4465 -2.07904 -0.964799 0
M  V30 742 C 68.4595 -1.00497 -1.28079 0
M  V30 743 O 69.6485 -1.28087 -1.24322 0
M  V30 744 C 66.7485 -2.49928 -2.28887 0
M  V30 745 C 65.9215 -3.80562 -2.15619 0
M  V30 746 C 64.9805 -4.08999 -3.31069 0
M  V30 747 O 64.0065 -4.79061 -3.0739 0
M  V30 748 N 65.2085 -3.6017 -4.55256 0
M  V30 749 H 67.9735 -2.94886 -0.535029 0
M  V30 750 H 65.5345 -1.61252 -0.144681 0
M  V30 751 H 67.5265 -2.66034 -3.04972 0
M  V30 752 H 66.0965 -1.68245 -2.63463 0
M  V30 753 H 65.3165 -3.74129 -1.24183 0
M  V30 754 H 66.6045 -4.66126 -2.03971 0
M  V30 755 H 66.0025 -3.03512 -4.77386 0
M  V30 756 H 64.5595 -3.81532 -5.28466 0
M  V30 757 N 67.9926 0.231505 -1.5589 0
M  V30 758 C 69.2226 0.973092 -1.82248 0
M  V30 759 C 69.6306 1.78845 -0.617328 0
M  V30 760 O 68.9736 1.78752 0.423499 0
M  V30 761 C 69.0356 1.94732 -3.02192 0
M  V30 762 C 68.6996 1.31743 -4.37599 0
M  V30 763 C 69.6966 0.712238 -5.14998 0
M  V30 764 C 67.3816 1.33218 -4.84312 0
M  V30 765 C 69.3756 0.130195 -6.37267 0
M  V30 766 C 67.0626 0.746286 -6.06526 0
M  V30 767 C 68.0606 0.146337 -6.82843 0
M  V30 768 O 67.7486 -0.430465 -8.02747 0
M  V30 769 H 67.4806 0.29125 -0.61004 0
M  V30 770 H 70.0346 0.254915 -2.03812 0
M  V30 771 H 68.2646 2.70422 -2.76422 0
M  V30 772 H 69.9536 2.55362 -3.15508 0
M  V30 773 H 70.7196 0.69324 -4.8002 0
M  V30 774 H 66.5986 1.78854 -4.24891 0
M  V30 775 H 70.1426 -0.33871 -6.96777 0
M  V30 776 H 66.0396 0.762663 -6.40979 0
M  V30 777 H 66.8076 -0.323818 -8.17859 0
M  V30 778 N 69.4707 1.49531 0.497807 0
M  V30 779 C 70.8867 1.36365 0.829266 0
M  V30 780 C 71.0867 0.399184 1.97506 0
M  V30 781 O 70.1427 -0.167977 2.51941 0
M  V30 782 C 71.4557 2.77153 1.16647 0
M  V30 783 C 73.0037 2.85877 1.27449 0
M  V30 784 C 73.4787 4.2744 1.64497 0
M  V30 785 N 74.9697 4.30265 1.7154 0
M  V30 786 C 75.7047 5.3677 2.01656 0
M  V30 787 N 75.2007 6.53516 2.29976 0
M  V30 788 N 76.9937 5.24189 2.02934 0
M  V30 789 H 69.1447 2.10831 -0.257703 0
M  V30 790 H 71.4077 0.946534 -0.0527091 0
M  V30 791 H 71.1137 3.49442 0.397872 0
M  V30 792 H 70.9877 3.12722 2.10915 0
M  V30 793 H 73.3747 2.13824 2.0338 0
M  V30 794 H 73.4557 2.53887 0.312244 0
M  V30 795 H 73.0997 5.00021 0.891151 0
M  V30 796 H 73.0297 4.56896 2.61827 0
M  V30 797 H 75.5207 3.4607 1.51802 0
M  V30 798 H 75.8337 7.30506 2.52153 0
M  V30 799 H 74.1787 6.56737 2.27425 0
M  V30 800 H 77.3697 4.31988 1.80289 0
M  V30 801 H 77.5427 6.07286 2.26071 0
M  V30 802 N 70.9488 -0.749086 1.3866 0
M  V30 803 C 71.8788 -1.8764 1.38973 0
M  V30 804 C 72.8598 -1.68178 0.255004 0
M  V30 805 O 74.0448 -1.88704 0.458754 0
M  V30 806 C 71.1748 -3.25222 1.21851 0
M  V30 807 C 70.1288 -3.59295 2.32575 0
M  V30 808 C 69.4548 -4.95663 2.00555 0
M  V30 809 C 70.7548 -3.63709 3.7485 0
M  V30 810 H 72.4488 -1.87635 2.3331 0
M  V30 811 H 69.9948 -0.901329 1.12303 0
M  V30 812 H 71.9478 -4.03746 1.20695 0
M  V30 813 H 70.6718 -3.25719 0.239775 0
M  V30 814 H 69.3308 -2.83093 2.32925 0
M  V30 815 H 68.9788 -4.92724 1.01154 0
M  V30 816 H 68.6788 -5.19429 2.74714 0
M  V30 817 H 70.2028 -5.7656 2.01024 0
M  V30 818 H 71.6168 -4.32338 3.76506 0
M  V30 819 H 70.0138 -3.98986 4.48252 0
M  V30 820 H 71.0838 -2.63834 4.06841 0
M  V30 821 N 72.4269 -1.23603 -0.977757 0
M  V30 822 C 73.3589 -0.977369 -2.07317 0
M  V30 823 C 74.3719 0.0495845 -1.62724 0
M  V30 824 O 75.5609 -0.186261 -1.77526 0
M  V30 825 C 72.6609 -0.451216 -3.35883 0
M  V30 826 C 71.8339 -1.53896 -4.09432 0
M  V30 827 C 70.8929 -1.01721 -5.16274 0
M  V30 828 O 69.9189 -1.70676 -5.43009 0
M  V30 829 N 71.1209 0.153594 -5.80297 0
M  V30 830 H 73.8859 -1.92047 -2.30082 0
M  V30 831 H 71.4469 -1.14497 -1.14465 0
M  V30 832 H 73.4389 -0.0871574 -4.04606 0
M  V30 833 H 72.0089 0.397368 -3.10064 0
M  V30 834 H 71.2289 -2.07566 -3.35127 0
M  V30 835 H 72.5169 -2.27037 -4.55337 0
M  V30 836 H 71.9149 0.730323 -5.60966 0
M  V30 837 H 70.4719 0.458892 -6.50183 0
M  V30 838 N 73.905 1.17692 -1.04816 0
M  V30 839 C 75.321 1.39863 -0.768794 0
M  V30 840 C 75.521 1.91118 0.638451 0
M  V30 841 O 74.577 2.10036 1.40146 0
M  V30 842 C 75.89 2.39274 -1.82122 0
M  V30 843 C 77.438 2.52987 -1.843 0
M  V30 844 C 77.913 3.55669 -2.88555 0
M  V30 845 N 79.404 3.63183 -2.87493 0
M  V30 846 C 80.139 4.42381 -3.64811 0
M  V30 847 N 79.635 5.25125 -4.51903 0
M  V30 848 N 81.428 4.37217 -3.53267 0
M  V30 849 H 73.579 0.82752 -1.95617 0
M  V30 850 H 75.842 0.426123 -0.846831 0
M  V30 851 H 75.548 2.08678 -2.83102 0
M  V30 852 H 75.422 3.38725 -1.65967 0
M  V30 853 H 77.809 2.82896 -0.839869 0
M  V30 854 H 77.89 1.53623 -2.04532 0
M  V30 855 H 77.534 3.26499 -3.89051 0
M  V30 856 H 77.464 4.54728 -2.65575 0
M  V30 857 H 79.955 3.04103 -2.24343 0
M  V30 858 H 80.268 5.82728 -5.07591 0
M  V30 859 H 78.613 5.24519 -4.55966 0
M  V30 860 H 81.804 3.71626 -2.84625 0
M  V30 861 H 81.977 4.98696 -4.13771 0
M  V30 862 N 75.3831 0.828654 1.34056 0
M  V30 863 C 76.2931 0.256725 2.33191 0
M  V30 864 C 77.3091 -0.611898 1.62886 0
M  V30 865 O 78.4851 -0.51844 1.94613 0
M  V30 866 C 75.5501 -0.567238 3.42028 0
M  V30 867 C 74.6111 0.324458 4.28072 0
M  V30 868 C 73.8441 -0.460274 5.31712 0
M  V30 869 O 74.0671 -1.693 5.44696 0
M  V30 870 O 73.0011 0.160391 6.01686 0
M  V30 871 H 76.8271 1.07739 2.83947 0
M  V30 872 H 74.4121 0.59093 1.37217 0
M  V30 873 H 76.2941 -1.03582 4.08471 0
M  V30 874 H 74.9691 -1.36513 2.93506 0
M  V30 875 H 73.8761 0.840659 3.64532 0
M  V30 876 H 75.2091 1.08685 4.8005 0
M  V30 877 N 76.8612 -1.46375 0.584142 0
M  V30 878 C 77.8082 -2.30323 -0.148286 0
M  V30 879 C 78.7782 -1.40703 -0.882713 0
M  V30 880 O 79.9632 -1.69651 -0.873099 0
M  V30 881 C 77.1032 -3.25196 -1.15507 0
M  V30 882 C 76.2162 -4.29915 -0.423943 0
M  V30 883 C 75.3512 -5.11914 -1.41838 0
M  V30 884 C 74.3902 -6.08381 -0.673736 0
M  V30 885 N 73.5272 -6.83242 -1.6163 0
M  V30 886 H 78.3672 -2.92427 0.573644 0
M  V30 887 H 75.9042 -1.44118 0.294703 0
M  V30 888 H 77.8622 -3.78646 -1.75166 0
M  V30 889 H 76.4922 -2.64898 -1.8447 0
M  V30 890 H 75.5442 -3.7931 0.287714 0
M  V30 891 H 76.8562 -4.98549 0.158128 0
M  V30 892 H 76.0102 -5.69648 -2.08773 0
M  V30 893 H 74.7492 -4.43243 -2.03438 0
M  V30 894 H 73.7542 -5.49799 0.00938483 0
M  V30 895 H 74.9792 -6.79071 -0.0631082 0
M  V30 896 H 72.9252 -6.1728 -2.22038 0
M  V30 897 H 72.8422 -7.48144 -1.08707 0
M  V30 898 H 74.1102 -7.45534 -2.27596 0
M  V30 899 N 78.3393 -0.321999 -1.54275 0
M  V30 900 C 79.2493 0.553631 -2.27974 0
M  V30 901 C 80.2653 1.13054 -1.32268 0
M  V30 902 O 81.4413 1.15084 -1.6528 0
M  V30 903 C 78.5063 1.69927 -3.02201 0
M  V30 904 C 77.5673 1.15433 -4.1349 0
M  V30 905 C 76.8003 2.24537 -4.84168 0
M  V30 906 O 77.0233 3.44852 -4.5435 0
M  V30 907 O 75.9573 1.90044 -5.7111 0
M  V30 908 H 79.7833 -0.0448345 -3.03667 0
M  V30 909 H 77.3683 -0.0877418 -1.49142 0
M  V30 910 H 79.2503 2.3663 -3.48689 0
M  V30 911 H 77.9253 2.28395 -2.29385 0
M  V30 912 H 76.8323 0.452436 -3.71354 0
M  V30 913 H 78.1653 0.614805 -4.88345 0
M  V30 914 N 79.8174 1.5752 -0.0501392 0
M  V30 915 C 81.0644 1.9265 0.623874 0
M  V30 916 C 81.3924 0.928411 1.70912 0
M  V30 917 O 80.6474 -0.0594525 1.9561 0
M  V30 918 C 80.9464 3.34467 1.25963 0
M  V30 919 C 80.6124 4.49883 0.302689 0
M  V30 920 C 79.2744 4.81184 0.0393636 0
M  V30 921 C 81.6264 5.20002 -0.353205 0
M  V30 922 C 78.9544 5.79951 -0.887308 0
M  V30 923 C 81.3064 6.1976 -1.26806 0
M  V30 924 C 79.9704 6.49491 -1.54007 0
M  V30 925 H 79.2404 0.704957 0.228292 0
M  V30 926 H 81.8874 1.91146 -0.116398 0
M  V30 927 H 80.1924 3.32333 2.07514 0
M  V30 928 H 81.8894 3.58928 1.78806 0
M  V30 929 H 78.4794 4.25457 0.518109 0
M  V30 930 H 82.6634 4.96033 -0.162854 0
M  V30 931 H 77.9194 6.01322 -1.10553 0
M  V30 932 H 82.0934 6.73205 -1.78236 0
M  V30 933 H 79.7204 7.25837 -2.25976 0
M  V30 934 N 81.2955 -0.223234 1.56011 0
M  V30 935 C 82.2425 -1.27664 1.92277 0
M  V30 936 C 83.2125 -1.46659 0.779763 0
M  V30 937 O 84.3975 -1.60256 1.03551 0
M  V30 938 C 81.5375 -2.62234 2.24338 0
M  V30 939 C 80.6505 -2.51051 3.51564 0
M  V30 940 C 79.7855 -3.78133 3.7308 0
M  V30 941 C 78.8245 -3.61665 4.93827 0
M  V30 942 N 77.9615 -4.80693 5.11741 0
M  V30 943 H 82.8015 -0.960358 2.82101 0
M  V30 944 H 80.3385 -0.462901 1.39627 0
M  V30 945 H 82.2965 -3.40596 2.40936 0
M  V30 946 H 80.9265 -2.91961 1.3769 0
M  V30 947 H 79.9785 -1.64132 3.43169 0
M  V30 948 H 81.2905 -2.34803 4.40079 0
M  V30 949 H 80.4445 -4.64938 3.89766 0
M  V30 950 H 79.1835 -3.97304 2.82844 0
M  V30 951 H 78.1885 -2.73244 4.77093 0
M  V30 952 H 79.4135 -3.43966 5.85546 0
M  V30 953 H 77.3595 -5.00181 4.24446 0
M  V30 954 H 77.2765 -4.67165 5.94384 0
M  V30 955 H 78.5445 -5.6893 5.3286 0
M  V30 956 N 82.7736 -1.49793 -0.48987 0
M  V30 957 C 83.7366 -1.66752 -1.57246 0
M  V30 958 C 84.7366 -0.538867 -1.51502 0
M  V30 959 O 85.9266 -0.805545 -1.54456 0
M  V30 960 C 83.0586 -1.67528 -2.96896 0
M  V30 961 H 84.2516 -2.63321 -1.43534 0
M  V30 962 H 81.8046 -1.38992 -0.714914 0
M  V30 963 H 82.5396 -0.725837 -3.16073 0
M  V30 964 H 82.3246 -2.49504 -3.02473 0
M  V30 965 H 83.8146 -1.82667 -3.7553 0
M  V30 966 N 84.2517 0.741722 -1.39055 0
M  V30 967 C 85.1987 1.85566 -1.37237 0
M  V30 968 C 86.1687 1.64457 -0.233072 0
M  V30 969 O 87.3537 1.85957 -0.427147 0
M  V30 970 C 84.4937 3.23004 -1.215 0
M  V30 971 C 83.6067 3.55864 -2.44918 0
M  V30 972 C 82.7417 4.82669 -2.21821 0
M  V30 973 C 81.7807 5.08351 -3.40948 0
M  V30 974 N 80.9177 6.26356 -3.17211 0
M  V30 975 H 85.7577 1.86455 -2.32462 0
M  V30 976 H 83.2947 0.911176 -1.15482 0
M  V30 977 H 85.2527 4.02331 -1.10389 0
M  V30 978 H 83.8827 3.21411 -0.29908 0
M  V30 979 H 82.9347 2.7129 -2.66657 0
M  V30 980 H 84.2467 3.70765 -3.33668 0
M  V30 981 H 83.4007 5.69962 -2.07914 0
M  V30 982 H 82.1397 4.69929 -1.30454 0
M  V30 983 H 81.1447 4.19522 -3.55361 0
M  V30 984 H 82.3697 5.22981 -4.33207 0
M  V30 985 H 80.3157 6.14917 -2.28502 0
M  V30 986 H 80.2327 6.41813 -3.99515 0
M  V30 987 H 81.5007 7.16506 -3.06984 0
M  V30 988 N 85.7298 1.2412 0.971189 0
M  V30 989 C 86.6398 1.04747 2.09917 0
M  V30 990 C 87.6558 -0.0107162 1.73997 0
M  V30 991 O 88.8318 0.186714 2.00533 0
M  V30 992 C 85.8968 0.650828 3.40537 0
M  V30 993 C 84.9578 1.7851 3.90426 0
M  V30 994 C 84.1908 1.40729 5.14812 0
M  V30 995 O 84.4138 0.29557 5.69634 0
M  V30 996 O 83.3478 2.23168 5.58999 0
M  V30 997 H 87.1738 1.99304 2.29154 0
M  V30 998 H 84.7588 1.02908 1.08307 0
M  V30 999 H 86.6408 0.440992 4.19086 0
M  V30 1000 H 85.3158 -0.265649 3.22608 0
M  V30 1001 H 84.2228 2.04966 3.12953 0
M  V30 1002 H 85.5558 2.68023 4.12825 0
M  V30 1003 N 87.2079 -1.17134 1.05439 0
M  V30 1004 C 88.1709 -2.19439 0.661764 0
M  V30 1005 C 89.1709 -1.58199 -0.288042 0
M  V30 1006 O 90.3609 -1.74053 -0.0715803 0
M  V30 1007 C 87.4929 -3.40889 -0.0276209 0
M  V30 1008 H 88.6859 -2.55688 1.56728 0
M  V30 1009 H 86.2389 -1.31259 0.848567 0
M  V30 1010 H 86.9739 -3.10187 -0.94629 0
M  V30 1011 H 86.7589 -3.86586 0.655238 0
M  V30 1012 H 88.2489 -4.16603 -0.288342 0
M  V30 1013 N 88.686 -0.835752 -1.33615 0
M  V30 1014 C 89.649 -0.272 -2.2758 0
M  V30 1015 C 90.649 0.557487 -1.50827 0
M  V30 1016 O 91.839 0.37173 -1.70188 0
M  V30 1017 C 88.971 0.617173 -3.35267 0
M  V30 1018 H 90.164 -1.10111 -2.78954 0
M  V30 1019 H 87.717 -0.608594 -1.43965 0
M  V30 1020 H 88.452 1.46884 -2.89129 0
M  V30 1021 H 88.237 0.0237066 -3.92093 0
M  V30 1022 H 89.727 1.005 -4.05326 0
M  V30 1023 N 90.1641 1.46063 -0.591896 0
M  V30 1024 C 91.1271 2.28854 0.125973 0
M  V30 1025 C 92.1271 1.38903 0.810107 0
M  V30 1026 O 93.3171 1.61186 0.66066 0
M  V30 1027 C 90.4491 3.19526 1.1881 0
M  V30 1028 H 91.6421 2.93802 -0.601717 0
M  V30 1029 H 89.1951 1.52325 -0.350254 0
M  V30 1030 H 89.9301 2.59345 1.94707 0
M  V30 1031 H 89.7151 3.85766 0.701936 0
M  V30 1032 H 91.2051 3.81817 1.69132 0
M  V30 1033 N 91.6422 0.330177 1.54103 0
M  V30 1034 C 92.5722 -0.525353 2.27513 0
M  V30 1035 C 93.5532 -1.11383 1.2856 0
M  V30 1036 O 94.7382 -1.13773 1.57383 0
M  V30 1037 C 91.8682 -1.6831 3.03791 0
M  V30 1038 C 90.8222 -1.2236 4.10137 0
M  V30 1039 C 90.1482 -2.46882 4.74293 0
M  V30 1040 C 91.4482 -0.333697 5.21233 0
M  V30 1041 H 93.1422 0.087013 2.99274 0
M  V30 1042 H 90.6882 0.0432893 1.43935 0
M  V30 1043 H 92.6412 -2.28795 3.5388 0
M  V30 1044 H 91.3652 -2.32216 2.29659 0
M  V30 1045 H 90.0242 -0.64165 3.60941 0
M  V30 1046 H 89.6722 -3.09165 3.96769 0
M  V30 1047 H 89.3722 -2.16825 5.46133 0
M  V30 1048 H 90.8962 -3.08117 5.27159 0
M  V30 1049 H 92.3102 -0.845013 5.67038 0
M  V30 1050 H 90.7072 -0.125612 5.99969 0
M  V30 1051 H 91.7772 0.633724 4.80741 0
M  V30 1052 N 93.1203 -1.57491 0.0584922 0
M  V30 1053 C 94.3683 -1.92597 -0.612436 0
M  V30 1054 C 94.6893 -0.938162 -1.70949 0
M  V30 1055 O 93.9593 0.0158301 -1.95894 0
M  V30 1056 H 92.5393 -0.710964 -0.229214 0
M  V30 1057 H 95.2013 -1.94571 0.113218 0
M  V30 1058 H 94.2973 -2.94038 -1.04633 0
M  V30 1059 N 94.5984 0.214957 -1.56127 0
M  V30 1060 C 95.8234 0.95924 -1.83884 0
M  V30 1061 C 96.2484 1.7689 -0.639644 0
M  V30 1062 O 95.6064 1.76566 0.411601 0
M  V30 1063 C 95.6544 1.84723 -3.09693 0
M  V30 1064 O 94.7584 2.94346 -2.8885 0
M  V30 1065 H 94.0994 0.27125 -0.606069 0
M  V30 1066 H 96.6294 0.226276 -2.03345 0
M  V30 1067 H 96.6394 2.25576 -3.39969 0
M  V30 1068 H 95.3144 1.25218 -3.96602 0
M  V30 1069 H 93.8914 2.57391 -2.69823 0
M  V30 1070 N 96.0765 1.50051 0.48192 0
M  V30 1071 C 97.4925 1.37237 0.814756 0
M  V30 1072 C 97.6925 0.420109 1.97072 0
M  V30 1073 O 96.7485 -0.141246 2.52105 0
M  V30 1074 C 98.0615 2.78375 1.13701 0
M  V30 1075 C 99.6095 2.87213 1.2441 0
M  V30 1076 C 100.084 4.29161 1.59954 0
M  V30 1077 N 101.575 4.32061 1.66967 0
M  V30 1078 C 102.31 5.38879 1.95952 0
M  V30 1079 N 101.806 6.55918 2.23031 0
M  V30 1080 N 103.599 5.26312 1.97363 0
M  V30 1081 H 95.7505 2.10546 -0.28005 0
M  V30 1082 H 98.0135 0.945921 -0.0627454 0
M  V30 1083 H 97.7195 3.49845 0.360787 0
M  V30 1084 H 97.5935 3.14941 2.07586 0
M  V30 1085 H 99.9805 2.15969 2.01101 0
M  V30 1086 H 100.061 2.54204 0.285299 0
M  V30 1087 H 99.7055 5.00938 0.838067 0
M  V30 1088 H 99.6355 4.59648 2.56966 0
M  V30 1089 H 102.126 3.47661 1.48123 0
M  V30 1090 H 102.439 7.33139 2.44391 0
M  V30 1091 H 100.784 6.59112 2.20447 0
M  V30 1092 H 103.975 4.33876 1.75697 0
M  V30 1093 H 104.148 6.09649 2.19618 0
M  V30 1094 N 97.5546 -0.734337 1.39446 0
M  V30 1095 C 98.8026 -1.49096 1.36436 0
M  V30 1096 C 99.1236 -1.94961 -0.0388255 0
M  V30 1097 O 98.3936 -1.69033 -0.990191 0
M  V30 1098 H 96.9736 -0.5531 0.502085 0
M  V30 1099 H 99.6356 -0.871725 1.74319 0
M  V30 1100 H 98.7316 -2.37276 2.02747 0
M  V30 1101 N 99.0327 -1.24633 -0.964593 0
M  V30 1102 C 100.258 -1.11596 -1.74818 0
M  V30 1103 C 100.683 0.32723 -1.85232 0
M  V30 1104 O 100.041 1.23695 -1.32549 0
M  V30 1105 C 100.089 -1.76397 -3.1451 0
M  V30 1106 O 99.1927 -1.03685 -3.99153 0
M  V30 1107 H 98.5337 -0.390196 -0.537255 0
M  V30 1108 H 101.064 -1.65002 -1.20977 0
M  V30 1109 H 101.074 -1.8228 -3.65018 0
M  V30 1110 H 99.7487 -2.81401 -3.06246 0
M  V30 1111 H 98.3257 -1.05611 -3.57632 0
M  V30 1112 N 100.511 1.16574 -1.06058 0
M  V30 1113 C 101.751 1.88723 -0.78504 0
M  V30 1114 C 102.115 1.79706 0.676006 0
M  V30 1115 O 103.316 2.46757 1.06603 0
M  V30 1116 C 101.587 3.34338 -1.26304 0
M  V30 1117 S 103.146 4.24366 -1.1162 0
M  V30 1118 H 99.9638 0.651448 -0.284846 0
M  V30 1119 H 102.566 1.40732 -1.35701 0
M  V30 1120 H 101.27 3.38439 -2.32136 0
M  V30 1121 H 100.801 3.87378 -0.685719 0
M  V30 1122 H 102.816 4.96179 -0.0456539 0
M  V30 1123 N 101.989 0.842826 1.3317 0
M  V30 1124 C 103.214 0.453129 2.02389 0
M  V30 1125 C 103.639 -0.939105 1.6298 0
M  V30 1126 O 102.997 -1.61472 0.8244 0
M  V30 1127 C 103.045 0.586094 3.55805 0
M  V30 1128 O 102.149 -0.386029 4.10589 0
M  V30 1129 H 101.49 0.183664 0.638094 0
M  V30 1130 H 104.02 1.13875 1.69981 0
M  V30 1131 H 104.03 0.469209 4.05293 0
M  V30 1132 H 102.705 1.6014 3.83833 0
M  V30 1133 H 101.282 -0.226371 3.72212 0
M  V30 1134 N 103.467 -1.45747 0.599634 0
M  V30 1135 C 104.695 -2.06668 0.0978551 0
M  V30 1136 C 105.11 -1.44562 -1.21439 0
M  V30 1137 O 104.467 -0.556923 -1.73795 0
M  V30 1138 C 104.518 -3.61456 -0.0567044 0
M  V30 1139 O 104.239 -4.21242 1.20361 0
M  V30 1140 C 105.74 -4.39345 -0.590869 0
M  V30 1141 H 102.96 -0.667825 0.0651943 0
M  V30 1142 H 105.504 -1.87115 0.82511 0
M  V30 1143 H 103.659 -3.80378 -0.734251 0
M  V30 1144 H 104.073 -5.14323 1.02821 0
M  V30 1145 H 105.547 -5.48182 -0.648131 0
M  V30 1146 H 106.024 -4.08568 -1.61147 0
M  V30 1147 H 106.63 -4.25268 0.0523679 0
M  V30 1148 N 104.945 -0.338344 -1.53925 0
M  V30 1149 C 105.855 0.529421 -2.28548 0
M  V30 1150 C 106.871 1.11645 -1.3346 0
M  V30 1151 O 108.047 1.13325 -1.66492 0
M  V30 1152 C 105.112 1.66713 -3.03987 0
M  V30 1153 C 104.173 1.11041 -4.14691 0
M  V30 1154 C 103.406 2.19389 -4.86522 0
M  V30 1155 O 103.629 3.40013 -4.57982 0
M  V30 1156 O 102.563 1.83976 -5.73094 0
M  V30 1157 H 106.389 -0.0770399 -3.03602 0
M  V30 1158 H 103.974 -0.103555 -1.49041 0
M  V30 1159 H 105.856 2.32918 -3.5118 0
M  V30 1160 H 104.531 2.25949 -2.31794 0
M  V30 1161 H 103.438 0.413024 -3.71813 0
M  V30 1162 H 104.771 0.562975 -4.8897 0
M  V30 1163 N 106.423 1.57458 -0.0668435 0
M  V30 1164 C 107.669 1.93587 0.6043 0
M  V30 1165 C 108.002 0.946722 1.69561 0
M  V30 1166 O 107.277 -0.0248516 1.94484 0
M  V30 1167 C 107.56 3.40014 1.18585 0
M  V30 1168 C 107.413 4.49685 0.101529 0
M  V30 1169 C 108.732 3.87154 2.09284 0
M  V30 1170 H 105.851 0.703958 0.218202 0
M  V30 1171 H 108.493 1.89542 -0.131804 0
M  V30 1172 H 106.643 3.43592 1.81319 0
M  V30 1173 H 108.315 4.5823 -0.531279 0
M  V30 1174 H 106.558 4.30059 -0.568487 0
M  V30 1175 H 107.229 5.49266 0.54874 0
M  V30 1176 H 109.705 3.85551 1.56491 0
M  V30 1177 H 108.581 4.90231 2.46911 0
M  V30 1178 H 108.842 3.2481 2.99918 0
M  V30 1179 N 107.901 -0.206675 1.56239 0
M  V30 1180 C 108.811 -1.27686 1.96808 0
M  V30 1181 C 109.827 -1.50455 0.874035 0
M  V30 1182 O 111.003 -1.63295 1.17884 0
M  V30 1183 C 108.068 -2.60358 2.28942 0
M  V30 1184 C 107.129 -2.45762 3.51994 0
M  V30 1185 C 106.362 -3.72108 3.82585 0
M  V30 1186 O 106.585 -4.75776 3.14631 0
M  V30 1187 O 105.519 -3.6833 4.76043 0
M  V30 1188 H 109.345 -0.962593 2.88041 0
M  V30 1189 H 106.93 -0.410746 1.43643 0
M  V30 1190 H 108.812 -3.38687 2.50737 0
M  V30 1191 H 107.487 -2.91435 1.4088 0
M  V30 1192 H 106.394 -1.65584 3.35459 0
M  V30 1193 H 107.727 -2.19621 4.40486 0
M  V30 1194 N 109.379 -1.50304 -0.473955 0
M  V30 1195 C 110.326 -1.68959 -1.57231 0
M  V30 1196 C 111.296 -0.530899 -1.57387 0
M  V30 1197 O 112.481 -0.761133 -1.74961 0
M  V30 1198 C 109.621 -1.7871 -2.95223 0
M  V30 1199 C 108.734 -3.06061 -3.04878 0
M  V30 1200 C 107.869 -3.06626 -4.33767 0
M  V30 1201 C 106.908 -4.28443 -4.37154 0
M  V30 1202 N 106.045 -4.26763 -5.5751 0
M  V30 1203 H 110.885 -2.6273 -1.40631 0
M  V30 1204 H 108.422 -1.30241 -0.683789 0
M  V30 1205 H 110.38 -1.82344 -3.75242 0
M  V30 1206 H 109.01 -0.883806 -3.10465 0
M  V30 1207 H 108.062 -3.11911 -2.17751 0
M  V30 1208 H 109.374 -3.96039 -3.0324 0
M  V30 1209 H 108.528 -3.08973 -5.22131 0
M  V30 1210 H 107.267 -2.14473 -4.3801 0
M  V30 1211 H 106.272 -4.2631 -3.47188 0
M  V30 1212 H 107.497 -5.2182 -4.34605 0
M  V30 1213 H 105.443 -3.37462 -5.62544 0
M  V30 1214 H 105.36 -5.10507 -5.57601 0
M  V30 1215 H 106.628 -4.33253 -6.48006 0
M  V30 1216 N 110.857 0.726932 -1.39834 0
M  V30 1217 C 111.767 1.87131 -1.41489 0
M  V30 1218 C 112.783 1.71239 -0.308757 0
M  V30 1219 O 113.959 1.93701 -0.551529 0
M  V30 1220 C 111.024 3.22811 -1.26468 0
M  V30 1221 C 110.085 3.51039 -2.47124 0
M  V30 1222 C 109.318 4.80245 -2.3281 0
M  V30 1223 O 109.541 5.54537 -1.33585 0
M  V30 1224 O 108.475 5.08554 -3.21957 0
M  V30 1225 H 112.301 1.8869 -2.3797 0
M  V30 1226 H 109.886 0.875837 -1.21035 0
M  V30 1227 H 111.768 4.03877 -1.20255 0
M  V30 1228 H 110.443 3.22005 -0.330862 0
M  V30 1229 H 109.35 2.70027 -2.58914 0
M  V30 1230 H 110.683 3.56632 -3.39227 0
M  V30 1231 N 112.336 1.25143 0.95797 0
M  V30 1232 C 113.564 1.12424 1.73691 0
M  V30 1233 C 113.979 -0.322304 1.86029 0
M  V30 1234 O 113.336 -1.22186 1.35561 0
M  V30 1235 C 113.387 1.76933 3.15241 0
M  V30 1236 O 113.108 3.15932 3.03511 0
M  V30 1237 C 114.609 1.6995 4.09429 0
M  V30 1238 H 111.829 0.3923 0.544373 0
M  V30 1239 H 114.373 1.6544 1.20207 0
M  V30 1240 H 112.528 1.27895 3.6568 0
M  V30 1241 H 112.942 3.47598 3.9278 0
M  V30 1242 H 114.416 2.19753 5.06372 0
M  V30 1243 H 114.893 0.662619 4.34173 0
M  V30 1244 H 115.499 2.18461 3.64904 0
M  V30 1245 N 113.814 -1.1601 1.06675 0
M  V30 1246 C 114.746 -2.20115 0.638921 0
M  V30 1247 C 115.759 -1.59916 -0.305057 0
M  V30 1248 O 116.948 -1.78245 -0.0954446 0
M  V30 1249 C 114.048 -3.38798 -0.0830083 0
M  V30 1250 C 113.221 -4.2855 0.875426 0
M  V30 1251 C 112.28 -5.25849 0.192042 0
M  V30 1252 O 111.306 -5.63102 0.830921 0
M  V30 1253 N 112.508 -5.70648 -1.06493 0
M  V30 1254 H 115.273 -2.57439 1.53444 0
M  V30 1255 H 112.834 -1.31057 0.950557 0
M  V30 1256 H 114.826 -4.00936 -0.550685 0
M  V30 1257 H 113.396 -2.99947 -0.880386 0
M  V30 1258 H 112.616 -3.63617 1.52238 0
M  V30 1259 H 113.904 -4.85393 1.52548 0
M  V30 1260 H 113.302 -5.42482 -1.60405 0
M  V30 1261 H 111.859 -6.34859 -1.47641 0
M  V30 1262 N 115.292 -0.849877 -1.32721 0
M  V30 1263 C 116.202 -0.293791 -2.32753 0
M  V30 1264 C 117.218 0.585906 -1.63839 0
M  V30 1265 O 118.394 0.487413 -1.95413 0
M  V30 1266 C 115.459 0.512752 -3.42887 0
M  V30 1267 C 114.52 -0.39252 -4.27502 0
M  V30 1268 C 113.753 0.375625 -5.32377 0
M  V30 1269 O 113.976 1.60613 -5.4732 0
M  V30 1270 O 112.91 -0.256094 -6.01355 0
M  V30 1271 H 116.736 -1.12242 -2.82197 0
M  V30 1272 H 114.321 -0.612685 -1.36259 0
M  V30 1273 H 116.203 0.970704 -4.10067 0
M  V30 1274 H 114.878 1.31826 -2.95641 0
M  V30 1275 H 113.785 -0.898547 -3.63149 0
M  V30 1276 H 115.118 -1.16309 -4.7826 0
M  V30 1277 N 116.77 1.45427 -0.607355 0
M  V30 1278 C 117.717 2.3053 0.111625 0
M  V30 1279 C 118.687 1.4209 0.860216 0
M  V30 1280 O 119.872 1.71019 0.845998 0
M  V30 1281 C 117.012 3.26992 1.10319 0
M  V30 1282 C 116.125 4.30535 0.355493 0
M  V30 1283 C 115.26 5.14105 1.33676 0
M  V30 1284 C 114.299 6.09376 0.576862 0
M  V30 1285 N 113.436 6.85727 1.5074 0
M  V30 1286 H 118.276 2.91477 -0.620093 0
M  V30 1287 H 115.813 1.43631 -0.317594 0
M  V30 1288 H 117.771 3.81385 1.6912 0
M  V30 1289 H 116.401 2.67799 1.80232 0
M  V30 1290 H 115.453 3.78805 -0.348023 0
M  V30 1291 H 116.765 4.98235 -0.237423 0
M  V30 1292 H 115.919 5.72897 1.99684 0
M  V30 1293 H 114.658 4.46423 1.9636 0
M  V30 1294 H 113.663 5.49715 -0.0968519 0
M  V30 1295 H 114.888 6.79085 -0.0449341 0
M  V30 1296 H 112.834 6.20735 2.12189 0
M  V30 1297 H 112.751 7.49778 0.967913 0
M  V30 1298 H 114.019 7.4906 2.15706 0
M  V30 1299 N 118.248 0.346503 1.53744 0
M  V30 1300 C 119.181 -0.552023 2.21423 0
M  V30 1301 C 120.159 -1.09798 1.19929 0
M  V30 1302 O 121.343 -1.1577 1.4876 0
M  V30 1303 C 118.47 -1.75972 2.89398 0
M  V30 1304 C 117.516 -1.34295 4.04805 0
M  V30 1305 S 118.349 -0.360263 5.34287 0
M  V30 1306 C 119.505 -1.57473 6.05767 0
M  V30 1307 H 119.738 0.0228119 2.97291 0
M  V30 1308 H 117.271 0.130579 1.53847 0
M  V30 1309 H 119.229 -2.45256 3.2918 0
M  V30 1310 H 117.89 -2.30578 2.1329 0
M  V30 1311 H 117.083 -2.24349 4.51313 0
M  V30 1312 H 116.685 -0.729555 3.66815 0
M  V30 1313 H 118.977 -2.50875 6.29339 0
M  V30 1314 H 119.92 -1.15138 6.98676 0
M  V30 1315 H 120.328 -1.77212 5.35963 0
M  V30 1316 N 119.726 -1.57421 0.075193 0
M  V30 1317 C 120.954 -1.97946 -0.602076 0
M  V30 1318 C 121.369 -0.953674 -1.62943 0
M  V30 1319 O 120.726 0.0592551 -1.82404 0
M  V30 1320 C 120.777 -3.38546 -1.26762 0
M  V30 1321 O 120.498 -4.37195 -0.281376 0
M  V30 1322 C 121.999 -3.93966 -2.03239 0
M  V30 1323 H 119.219 -0.650918 -0.162931 0
M  V30 1324 H 121.763 -2.03959 0.148601 0
M  V30 1325 H 119.918 -3.33609 -1.96936 0
M  V30 1326 H 120.332 -5.18975 -0.759267 0
M  V30 1327 H 121.806 -4.94555 -2.45193 0
M  V30 1328 H 122.283 -3.30693 -2.8903 0
M  V30 1329 H 122.889 -4.02315 -1.37924 0
M  V30 1330 N 121.204 0.198386 -1.56346 0
M  V30 1331 C 122.453 0.917451 -1.79627 0
M  V30 1332 C 122.766 1.8456 -0.64784 0
M  V30 1333 O 123.972 2.60504 -0.764859 0
M  V30 1334 C 122.428 1.68175 -3.18191 0
M  V30 1335 C 122.036 0.798589 -4.40825 0
M  V30 1336 C 123.78 2.39065 -3.50782 0
M  V30 1337 C 121.687 1.56157 -5.70411 0
M  V30 1338 H 120.617 0.346317 -0.669762 0
M  V30 1339 H 123.268 0.170801 -1.82703 0
M  V30 1340 H 121.65 2.47216 -3.09354 0
M  V30 1341 H 122.824 0.0470665 -4.60776 0
M  V30 1342 H 121.139 0.200686 -4.15916 0
M  V30 1343 H 123.736 2.96692 -4.44835 0
M  V30 1344 H 124.079 3.13091 -2.74371 0
M  V30 1345 H 124.612 1.66993 -3.61052 0
M  V30 1346 H 121.351 0.864142 -6.49779 0
M  V30 1347 H 120.871 2.2871 -5.54483 0
M  V30 1348 H 122.55 2.11622 -6.11412 0
M  V30 1349 N 122.682 1.50554 0.465978 0
M  V30 1350 C 123.612 1.72722 1.57128 0
M  V30 1351 C 124.593 0.576294 1.6004 0
M  V30 1352 O 125.778 0.81598 1.76225 0
M  V30 1353 C 122.908 1.82605 2.95419 0
M  V30 1354 C 121.862 2.97835 3.07373 0
M  V30 1355 C 121.188 2.92867 4.47363 0
M  V30 1356 C 122.488 4.38265 2.84114 0
M  V30 1357 H 124.182 2.65267 1.38829 0
M  V30 1358 H 121.728 1.2765 0.666441 0
M  V30 1359 H 123.681 1.96698 3.72677 0
M  V30 1360 H 122.405 0.866858 3.14886 0
M  V30 1361 H 121.064 2.83401 2.3255 0
M  V30 1362 H 120.712 1.94783 4.63755 0
M  V30 1363 H 120.412 3.70227 4.56296 0
M  V30 1364 H 121.936 3.09015 5.26633 0
M  V30 1365 H 123.35 4.53198 3.51118 0
M  V30 1366 H 121.747 5.17115 3.04487 0
M  V30 1367 H 122.817 4.50281 1.7993 0
M  V30 1368 N 124.16 -0.719506 1.40217 0
M  V30 1369 C 125.092 -1.84428 1.36084 0
M  V30 1370 C 126.105 -1.60597 0.266913 0
M  V30 1371 O 127.294 -1.70544 0.526983 0
M  V30 1372 C 124.394 -3.20757 1.094 0
M  V30 1373 C 123.567 -3.71817 2.30372 0
M  V30 1374 C 122.626 -4.86748 1.99907 0
M  V30 1375 O 121.652 -4.99603 2.72737 0
M  V30 1376 N 122.854 -5.7226 0.974635 0
M  V30 1377 H 125.619 -1.88473 2.33019 0
M  V30 1378 H 123.18 -0.900885 1.3452 0
M  V30 1379 H 125.172 -3.95235 0.870116 0
M  V30 1380 H 123.742 -3.11884 0.211452 0
M  V30 1381 H 122.962 -2.88514 2.68614 0
M  V30 1382 H 124.25 -4.02666 3.11026 0
M  V30 1383 H 123.648 -5.6448 0.371368 0
M  V30 1384 H 122.205 -6.46739 0.810656 0
M  V30 1385 N 125.638 -1.25649 -0.95132 0
M  V30 1386 C 126.866 -1.13343 -1.73092 0
M  V30 1387 C 127.281 0.312434 -1.86197 0
M  V30 1388 O 126.638 1.21465 -1.36207 0
M  V30 1389 C 126.689 -1.78602 -3.14299 0
M  V30 1390 O 126.41 -3.17537 -3.01831 0
M  V30 1391 C 127.911 -1.72119 -4.08522 0
M  V30 1392 H 125.131 -0.395181 -0.542285 0
M  V30 1393 H 127.675 -1.66076 -1.19328 0
M  V30 1394 H 125.83 -1.29832 -3.64996 0
M  V30 1395 H 126.244 -3.49676 -3.90931 0
M  V30 1396 H 127.718 -2.22435 -5.052 0
M  V30 1397 H 128.195 -0.685635 -4.33815 0
M  V30 1398 H 128.801 -2.20393 -3.63741 0
M  V30 1399 N 127.117 1.15442 -1.07289 0
M  V30 1400 C 128.347 1.89821 -0.815576 0
M  V30 1401 C 128.755 1.7823 0.634867 0
M  V30 1402 O 128.098 1.13152 1.44715 0
M  V30 1403 C 128.16 3.40817 -1.14385 0
M  V30 1404 C 127.824 3.76193 -2.59476 0
M  V30 1405 C 128.821 3.77269 -3.57721 0
M  V30 1406 C 126.506 4.0652 -2.95037 0
M  V30 1407 C 128.5 4.08176 -4.89562 0
M  V30 1408 C 126.187 4.37092 -4.27076 0
M  V30 1409 C 127.185 4.37902 -5.24148 0
M  V30 1410 O 126.873 4.67741 -6.53815 0
M  V30 1411 H 126.605 0.608465 -0.294528 0
M  V30 1412 H 129.159 1.472 -1.43252 0
M  V30 1413 H 127.389 3.83835 -0.469865 0
M  V30 1414 H 129.078 3.96485 -0.869179 0
M  V30 1415 H 129.844 3.5394 -3.3159 0
M  V30 1416 H 125.723 4.05049 -2.20128 0
M  V30 1417 H 129.267 4.08723 -5.65324 0
M  V30 1418 H 125.164 4.59889 -4.5296 0
M  V30 1419 H 125.932 4.85509 -6.58957 0
M  V30 1420 N 128.595 0.856903 1.32268 0
M  V30 1421 C 129.842 0.461386 1.97174 0
M  V30 1422 C 130.17 -0.983491 1.67803 0
M  V30 1423 O 129.425 -1.70541 0.959903 0
M  V30 1424 C 129.724 0.649919 3.51441 0
M  V30 1425 C 129.39 2.0656 4.00804 0
M  V30 1426 C 128.052 2.45279 4.13995 0
M  V30 1427 C 130.404 2.98947 4.26943 0
M  V30 1428 C 127.732 3.75653 4.50668 0
M  V30 1429 C 130.084 4.28822 4.65075 0
M  V30 1430 C 128.748 4.67472 4.76472 0
M  V30 1431 H 128.018 0.168833 0.72151 0
M  V30 1432 H 130.665 1.08739 1.57633 0
M  V30 1433 H 128.97 -0.0593018 3.91755 0
M  V30 1434 H 130.667 0.32391 3.9969 0
M  V30 1435 H 127.257 1.75495 3.91024 0
M  V30 1436 H 131.441 2.70265 4.16258 0
M  V30 1437 H 126.697 4.05379 4.57688 0
M  V30 1438 H 130.871 5.0047 4.84255 0
M  V30 1439 H 128.498 5.68539 5.04646 0
M  V30 1440 N 130.073 -1.45103 0.615059 0
M  V30 1441 C 131.489 -1.57137 0.279322 0
M  V30 1442 C 131.689 -1.60523 -1.21797 0
M  V30 1443 O 130.745 -1.53956 -2.00134 0
M  V30 1444 C 132.058 -2.85062 0.957083 0
M  V30 1445 C 133.606 -2.98749 0.933706 0
M  V30 1446 C 134.081 -4.29455 1.59162 0
M  V30 1447 N 135.572 -4.36231 1.55746 0
M  V30 1448 C 136.307 -5.36051 2.0356 0
M  V30 1449 N 135.803 -6.42367 2.59494 0
M  V30 1450 N 137.596 -5.27456 1.94284 0
M  V30 1451 H 129.747 -1.41148 1.58717 0
M  V30 1452 H 132.01 -0.675331 0.665306 0
M  V30 1453 H 131.716 -2.88488 2.01166 0
M  V30 1454 H 131.59 -3.7407 0.48494 0
M  V30 1455 H 133.977 -2.94886 -0.112347 0
M  V30 1456 H 134.058 -2.11132 1.44419 0
M  V30 1457 H 133.702 -4.34077 2.63704 0
M  V30 1458 H 133.632 -5.15901 1.0561 0
M  V30 1459 H 136.123 -3.60011 1.14893 0
M  V30 1460 H 136.436 -7.14793 2.93752 0
M  V30 1461 H 134.781 -6.43097 2.63537 0
M  V30 1462 H 137.972 -4.43308 1.5032 0
M  V30 1463 H 138.145 -6.05099 2.3186 0
M  V30 1464 N 131.551 -0.354651 -1.53558 0
M  V30 1465 C 132.483 0.5315 -2.22952 0
M  V30 1466 C 133.496 1.05503 -1.23988 0
M  V30 1467 O 134.685 0.963279 -1.50277 0
M  V30 1468 C 131.785 1.74538 -2.90499 0
M  V30 1469 C 130.958 1.35524 -4.15875 0
M  V30 1470 C 130.017 2.42999 -4.66731 0
M  V30 1471 O 129.043 2.05844 -5.30676 0
M  V30 1472 N 130.245 3.74423 -4.43608 0
M  V30 1473 H 133.01 -0.0628615 -2.99634 0
M  V30 1474 H 130.571 -0.179302 -1.60904 0
M  V30 1475 H 132.563 2.45892 -3.21433 0
M  V30 1476 H 131.133 2.24686 -2.17336 0
M  V30 1477 H 130.353 0.471998 -3.91364 0
M  V30 1478 H 131.641 1.07071 -4.97406 0
M  V30 1479 H 131.039 4.07391 -3.92491 0
M  V30 1480 H 129.596 4.41913 -4.7912 0
M  V30 1481 N 133.029 1.57378 -0.0835403 0
M  V30 1482 C 133.977 2.14602 0.89714 0
M  V30 1483 C 134.971 1.08589 1.30018 0
M  V30 1484 O 136.177 1.26952 1.27606 0
M  V30 1485 H 132.552 0.686346 0.3073 0
M  V30 1486 H 134.523 2.95845 0.38969 0
M  V30 1487 C 133.272 2.73188 2.15089 0
M  V30 1488 H 132.595 3.54442 1.84962 0
M  V30 1489 H 134.035 3.1681 2.81793 0
M  V30 1490 C 132.494 1.68517 2.91725 0
M  V30 1491 O 133.024 1.11718 3.85852 0
M  V30 1492 N 131.23 1.39277 2.55049 0
M  V30 1493 H 130.777 1.85655 1.78577 0
M  V30 1494 H 130.735 0.694791 3.06627 0
M  V30 1495 N 134.507 -0.190092 1.56449 0
M  V30 1496 C 135.923 -0.54113 1.50146 0
M  V30 1497 C 136.123 -1.85603 0.784465 0
M  V30 1498 O 135.179 -2.5024 0.337051 0
M  V30 1499 C 136.492 -0.591241 2.9483 0
M  V30 1500 C 138.04 -0.679732 3.0553 0
M  V30 1501 C 138.515 -0.760908 4.51635 0
M  V30 1502 N 140.006 -0.824302 4.55806 0
M  V30 1503 C 140.741 -0.907365 5.66175 0
M  V30 1504 N 140.237 -0.952422 6.86222 0
M  V30 1505 N 142.03 -0.94494 5.541 0
M  V30 1506 H 134.181 0.67235 2.01478 0
M  V30 1507 H 136.444 0.240127 0.917084 0
M  V30 1508 H 136.15 0.305905 3.50367 0
M  V30 1509 H 136.024 -1.44422 3.48457 0
M  V30 1510 H 138.411 -1.56731 2.50039 0
M  V30 1511 H 138.492 0.199549 2.5502 0
M  V30 1512 H 138.136 0.122336 5.07753 0
M  V30 1513 H 138.066 -1.65606 4.99882 0
M  V30 1514 H 140.557 -0.798526 3.69367 0
M  V30 1515 H 140.87 -1.01645 7.66086 0
M  V30 1516 H 139.215 -0.921014 6.8887 0
M  V30 1517 H 142.406 -0.906612 4.59236 0
M  V30 1518 H 142.579 -1.00622 6.4014 0
M  V30 1519 N 135.985 -1.50799 -0.457987 0
M  V30 1520 C 137.262 -1.52968 -1.21902 0
M  V30 1521 C 137.642 -0.281906 -2.09209 0
M  V30 1522 O 136.99 0.734076 -2.16388 0
M  V30 1523 C 137.2 -2.8326 -2.03875 0
M  V30 1524 C 138.548 -3.34425 -2.6162 0
M  V30 1525 O 139.572 -2.8467 -2.14106 0
M  V30 1526 O 138.431 -4.21188 -3.48228 0
M  V30 1527 H 135.525 -0.614129 -0.553873 0
M  V30 1528 H 138.071 -1.63098 -0.468739 0
M  V30 1529 H 136.843 -3.65543 -1.39621 0
M  V30 1530 H 136.466 -2.76195 -2.8601 0
M  V30 1531 N 137.463 0.71206 -1.40597 0
M  V30 1532 C 138.373 1.8562 -1.43466 0
M  V30 1533 C 139.389 1.70902 -0.326902 0
M  V30 1534 O 140.565 1.93105 -0.572043 0
M  V30 1535 C 137.63 3.21451 -1.29884 0
M  V30 1536 C 136.691 3.48398 -2.50833 0
M  V30 1537 C 135.924 4.77749 -2.3789 0
M  V30 1538 O 136.147 5.53089 -1.39459 0
M  V30 1539 O 135.081 5.05111 -3.27333 0
M  V30 1540 H 138.907 1.86155 -2.39958 0
M  V30 1541 H 136.492 0.86295 -1.21957 0
M  V30 1542 H 138.374 4.02579 -1.24531 0
M  V30 1543 H 137.049 3.21636 -0.364997 0
M  V30 1544 H 135.956 2.67265 -2.61763 0
M  V30 1545 H 137.289 3.53014 -3.4299 0
M  V30 1546 N 138.941 1.26152 0.944643 0
M  V30 1547 C 140.187 1.11657 1.69294 0
M  V30 1548 C 140.52 -0.339926 1.91202 0
M  V30 1549 O 139.795 -1.24994 1.49019 0
M  V30 1550 C 140.078 1.88236 3.06984 0
M  V30 1551 C 139.931 3.41772 2.92424 0
M  V30 1552 C 141.25 1.67343 4.07043 0
M  V30 1553 H 138.369 0.407004 0.614424 0
M  V30 1554 H 141.011 1.55106 1.09737 0
M  V30 1555 H 139.161 1.51308 3.57824 0
M  V30 1556 H 140.833 3.88433 2.48832 0
M  V30 1557 H 139.076 3.68974 2.28124 0
M  V30 1558 H 139.747 3.90579 3.90067 0
M  V30 1559 H 142.223 1.99509 3.65151 0
M  V30 1560 H 141.099 2.23346 5.01406 0
M  V30 1561 H 141.36 0.617158 4.37771 0
M  V30 1562 N 140.419 -1.14872 1.07899 0
M  V30 1563 C 141.349 -2.2193 0.725887 0
M  V30 1564 C 142.33 -1.67622 -0.28927 0
M  V30 1565 O 143.515 -1.93533 -0.160787 0
M  V30 1566 C 140.645 -3.47061 0.128856 0
M  V30 1567 C 139.599 -4.14363 1.07178 0
M  V30 1568 C 138.925 -5.33636 0.337229 0
M  V30 1569 C 140.225 -4.63492 2.40775 0
M  V30 1570 H 141.919 -2.51724 1.62097 0
M  V30 1571 H 139.465 -1.20991 0.780838 0
M  V30 1572 H 141.418 -4.21199 -0.130147 0
M  V30 1573 H 140.142 -3.16617 -0.80134 0
M  V30 1574 H 138.801 -3.42173 1.3158 0
M  V30 1575 H 138.449 -4.99449 -0.596606 0
M  V30 1576 H 138.149 -5.79609 0.965788 0
M  V30 1577 H 139.673 -6.10539 0.0861567 0
M  V30 1578 H 141.087 -5.2913 2.20669 0
M  V30 1579 H 139.484 -5.20148 2.99276 0
M  V30 1580 H 140.554 -3.78834 3.02676 0
M  V30 1581 N 141.898 -0.863906 -1.31812 0
M  V30 1582 C 143.175 -0.39275 -1.91616 0
M  V30 1583 C 143.555 1.12461 -1.7865 0
M  V30 1584 O 142.903 1.95045 -1.19037 0
M  V30 1585 C 143.113 -0.867385 -3.38049 0
M  V30 1586 C 144.461 -0.889966 -4.15168 0
M  V30 1587 O 145.485 -0.812635 -3.46806 0
M  V30 1588 O 144.344 -1.00079 -5.37258 0
M  V30 1589 H 141.438 -0.116358 -0.818773 0
M  V30 1590 H 143.984 -0.951418 -1.40521 0
M  V30 1591 H 142.756 -1.91081 -3.41473 0
M  V30 1592 H 142.379 -0.286687 -3.96565 0
M  V30 1593 N 143.376 1.44774 -0.622745 0
M  V30 1594 C 144.324 2.32387 0.0994683 0
M  V30 1595 C 145.318 1.46859 0.844326 0
M  V30 1596 O 146.524 1.63254 0.758174 0
M  V30 1597 H 142.899 0.750273 0.0509291 0
M  V30 1598 H 144.87 2.91062 -0.65767 0
M  V30 1599 C 143.619 3.30723 1.07319 0
M  V30 1600 H 142.942 3.96541 0.509462 0
M  V30 1601 H 144.382 3.94725 1.54817 0
M  V30 1602 C 142.841 2.59021 2.15429 0
M  V30 1603 O 143.371 2.38286 3.23393 0
M  V30 1604 N 141.577 2.189 1.91131 0
M  V30 1605 H 141.124 2.35964 1.03337 0
M  V30 1606 H 141.082 1.71251 2.63668 0
M  V30 1607 N 144.854 0.36279 1.53368 0
M  V30 1608 C 145.784 -0.476976 2.28576 0
M  V30 1609 C 146.765 -1.08631 1.30894 0
M  V30 1610 O 147.95 -1.10409 1.59761 0
M  V30 1611 C 145.08 -1.61828 3.07293 0
M  V30 1612 C 144.034 -1.13633 4.1264 0
M  V30 1613 C 143.36 -2.36766 4.79423 0
M  V30 1614 C 144.66 -0.223061 5.21823 0
M  V30 1615 H 146.354 0.150474 2.99022 0
M  V30 1616 H 143.9 0.0738103 1.43811 0
M  V30 1617 H 145.853 -2.21237 3.58653 0
M  V30 1618 H 144.577 -2.27292 2.34533 0
M  V30 1619 H 143.236 -0.564945 3.62221 0
M  V30 1620 H 142.884 -3.0068 4.03238 0
M  V30 1621 H 142.584 -2.05192 5.50609 0
M  V30 1622 H 144.108 -2.96865 5.33576 0
M  V30 1623 H 145.522 -0.724545 5.68703 0
M  V30 1624 H 143.919 0.001678 6.001 0
M  V30 1625 H 144.989 0.735553 4.79289 0
M  V30 1626 N 146.332 -1.57332 0.0918853 0
M  V30 1627 C 147.262 -2.16872 -0.865371 0
M  V30 1628 C 148.243 -1.10118 -1.29646 0
M  V30 1629 O 149.428 -1.38242 -1.36392 0
M  V30 1630 C 146.558 -2.74649 -2.12569 0
M  V30 1631 C 145.512 -3.86747 -1.83333 0
M  V30 1632 C 144.838 -4.31212 -3.16166 0
M  V30 1633 C 146.138 -5.10089 -1.1228 0
M  V30 1634 H 147.832 -2.97114 -0.369307 0
M  V30 1635 H 145.378 -1.42918 -0.176194 0
M  V30 1636 H 147.331 -3.14952 -2.7997 0
M  V30 1637 H 146.055 -1.91657 -2.64452 0
M  V30 1638 H 144.714 -3.46978 -1.18331 0
M  V30 1639 H 144.362 -3.45115 -3.6593 0
M  V30 1640 H 144.062 -5.06788 -2.97388 0
M  V30 1641 H 145.586 -4.74146 -3.84731 0
M  V30 1642 H 147 -5.47582 -1.69785 0
M  V30 1643 H 145.397 -5.91073 -1.03693 0
M  V30 1644 H 146.467 -4.84786 -0.105041 0
M  V30 1645 N 147.81 0.181792 -1.56548 0
M  V30 1646 C 148.773 1.20894 -1.94724 0
M  V30 1647 C 149.773 1.37738 -0.829747 0
M  V30 1648 O 150.963 1.35323 -1.09697 0
M  V30 1649 C 148.095 2.57593 -2.23291 0
M  V30 1650 H 149.288 0.882275 -2.86629 0
M  V30 1651 H 146.841 0.423838 -1.50444 0
M  V30 1652 H 147.576 2.95291 -1.34067 0
M  V30 1653 H 147.361 2.46735 -3.04736 0
M  V30 1654 H 148.851 3.31637 -2.53785 0
M  V30 1655 N 149.288 1.51039 0.449983 0
M  V30 1656 C 150.535 1.63081 1.20045 0
M  V30 1657 C 150.863 0.341024 1.91487 0
M  V30 1658 O 150.118 -0.674276 1.83717 0
M  V30 1659 C 150.417 2.77556 2.25161 0
M  V30 1660 C 150.083 4.17289 1.70823 0
M  V30 1661 C 148.745 4.55305 1.55725 0
M  V30 1662 C 151.097 5.04536 1.3074 0
M  V30 1663 C 148.425 5.78287 0.989999 0
M  V30 1664 C 150.777 6.28085 0.754482 0
M  V30 1665 C 149.441 6.64885 0.590308 0
M  V30 1666 H 148.711 0.596755 0.439277 0
M  V30 1667 H 151.358 1.85037 0.49333 0
M  V30 1668 H 149.663 2.49771 3.01863 0
M  V30 1669 H 151.36 2.84073 2.83026 0
M  V30 1670 H 147.95 3.8731 1.83546 0
M  V30 1671 H 152.134 4.75782 1.41229 0
M  V30 1672 H 147.39 6.05456 0.850451 0
M  V30 1673 H 151.564 6.95038 0.435324 0
M  V30 1674 H 149.191 7.60055 0.14862 0
M  V30 1675 N 150.766 -0.704594 1.40972 0
M  V30 1676 C 152.012 -1.46675 1.40051 0
M  V30 1677 C 152.345 -1.94199 0.00641102 0
M  V30 1678 O 151.62 -1.68916 -0.964235 0
M  V30 1679 C 151.903 -2.68505 2.39952 0
M  V30 1680 C 151.756 -2.26805 3.88432 0
M  V30 1681 C 153.075 -3.70686 2.37233 0
M  V30 1682 H 150.194 -0.532015 0.510028 0
M  V30 1683 H 152.836 -0.803255 1.72185 0
M  V30 1684 H 150.986 -3.25114 2.1268 0
M  V30 1685 H 152.658 -1.75592 4.26574 0
M  V30 1686 H 150.901 -1.58685 4.03734 0
M  V30 1687 H 151.572 -3.14181 4.53866 0
M  V30 1688 H 154.048 -3.23731 2.61415 0
M  V30 1689 H 152.924 -4.53553 3.09162 0
M  V30 1690 H 153.185 -4.19754 1.38777 0
M  V30 1691 N 152.244 -1.26651 -0.937939 0
M  V30 1692 C 153.484 -1.13611 -1.69917 0
M  V30 1693 C 153.848 0.314687 -1.89404 0
M  V30 1694 O 155.049 0.567285 -2.62746 0
M  V30 1695 C 153.32 -1.88742 -3.03498 0
M  V30 1696 S 154.879 -1.91794 -3.94665 0
M  V30 1697 H 151.697 -0.405767 -0.583844 0
M  V30 1698 H 154.299 -1.60416 -1.11745 0
M  V30 1699 H 153.003 -2.9336 -2.86999 0
M  V30 1700 H 152.534 -1.42391 -3.66727 0
M  V30 1701 H 154.549 -1.00698 -4.85875 0
M  V30 1702 N 153.722 1.14298 -1.08507 0
M  V30 1703 C 154.999 1.81544 -0.728088 0
M  V30 1704 C 155.379 1.95838 0.78808 0
M  V30 1705 O 154.727 1.51904 1.70697 0
M  V30 1706 C 154.937 3.17169 -1.45619 0
M  V30 1707 C 156.285 3.9265 -1.61591 0
M  V30 1708 O 157.309 3.26762 -1.41793 0
M  V30 1709 O 156.168 5.10807 -1.94263 0
M  V30 1710 H 153.262 0.78491 -0.260471 0
M  V30 1711 H 155.808 1.21307 -1.18671 0
M  V30 1712 H 154.58 3.01934 -2.489 0
M  V30 1713 H 154.203 3.851 -0.989124 0
M  V30 1714 N 155.201 0.870884 1.31352 0
M  V30 1715 C 156.45 0.478408 1.95944 0
M  V30 1716 C 156.763 -0.974493 1.69597 0
M  V30 1717 O 157.969 -1.47316 2.28058 0
M  V30 1718 C 156.425 0.804609 3.50791 0
M  V30 1719 C 156.033 2.27433 3.85977 0
M  V30 1720 C 157.777 0.480648 4.2177 0
M  V30 1721 C 155.684 2.5429 5.33939 0
M  V30 1722 H 154.614 0.175175 0.733369 0
M  V30 1723 H 157.265 1.06391 1.4951 0
M  V30 1724 H 155.647 0.148347 3.95722 0
M  V30 1725 H 156.821 2.97373 3.52002 0
M  V30 1726 H 155.136 2.56442 3.28065 0
M  V30 1727 H 157.733 0.658519 5.30629 0
M  V30 1728 H 158.076 -0.578979 4.12254 0
M  V30 1729 H 158.609 1.09349 3.82476 0
M  V30 1730 H 155.348 3.58939 5.48491 0
M  V30 1731 H 154.868 1.88945 5.69263 0
M  V30 1732 H 156.547 2.39066 6.01212 0
M  V30 1733 N 156.679 -1.44442 0.630414 0
M  V30 1734 C 158.095 -1.56832 0.295973 0
M  V30 1735 C 158.295 -1.61806 -1.20088 0
M  V30 1736 O 157.351 -1.5607 -1.9849 0
M  V30 1737 C 158.664 -2.84031 0.987264 0
M  V30 1738 C 160.212 -2.97742 0.96534 0
M  V30 1739 C 160.687 -4.27743 1.63708 0
M  V30 1740 N 162.178 -4.34555 1.60364 0
M  V30 1741 C 162.913 -5.33862 2.09234 0
M  V30 1742 N 162.409 -6.39578 2.66292 0
M  V30 1743 N 164.202 -5.25366 1.99867 0
M  V30 1744 H 156.353 -1.39457 1.60205 0
M  V30 1745 H 158.616 -0.668237 0.672431 0
M  V30 1746 H 158.322 -2.86338 2.04215 0
M  V30 1747 H 158.196 -3.73534 0.524588 0
M  V30 1748 H 160.583 -2.94989 -0.0810639 0
M  V30 1749 H 160.664 -2.09589 1.4665 0
M  V30 1750 H 160.308 -4.31255 2.68293 0
M  V30 1751 H 160.238 -5.14752 1.11076 0
M  V30 1752 H 162.729 -3.58772 1.18705 0
M  V30 1753 H 163.042 -7.11637 3.01317 0
M  V30 1754 H 161.387 -6.40265 2.70343 0
M  V30 1755 H 164.578 -4.41688 1.55013 0
M  V30 1756 H 164.751 -6.02606 2.38265 0
M  V30 1757 N 158.157 -0.370918 -1.53173 0
M  V30 1758 C 159.568 0.107139 -1.86392 0
M  V30 1759 C 159.919 1.47714 -1.29132 0
M  V30 1760 O 159.044 2.07464 -0.615439 0
M  V30 1761 C 159.639 0.201187 -3.38202 0
M  V30 1762 C 158.198 0.623507 -3.712 0
M  V30 1763 C 157.345 -0.225978 -2.76378 0
M  V30 1764 H 160.296 -0.58951 -1.47345 0
M  V30 1765 H 160.317 1.02377 -3.66468 0
M  V30 1766 H 159.829 -0.796058 -3.79848 0
M  V30 1767 H 157.93 1.62879 -3.35114 0
M  V30 1768 H 158.043 0.394414 -4.77474 0
M  V30 1769 H 156.407 0.305962 -2.52856 0
M  V30 1770 H 157.19 -1.22086 -3.20858 0
M  V30 1771 N 159.635 1.57281 -0.100228 0
M  V30 1772 C 160.545 2.17833 0.870965 0
M  V30 1773 C 161.561 1.14921 1.30649 0
M  V30 1774 O 162.737 1.47313 1.37335 0
M  V30 1775 C 159.802 2.75085 2.1102 0
M  V30 1776 C 158.863 3.9297 1.72838 0
M  V30 1777 C 158.096 4.47482 2.90854 0
M  V30 1778 O 158.319 4.00922 4.05731 0
M  V30 1779 O 157.253 5.38433 2.69023 0
M  V30 1780 H 161.079 3.0124 0.38575 0
M  V30 1781 H 158.664 1.48881 0.124397 0
M  V30 1782 H 160.546 3.11656 2.83634 0
M  V30 1783 H 159.221 1.94721 2.58584 0
M  V30 1784 H 158.128 3.61201 0.973883 0
M  V30 1785 H 159.461 4.74713 1.30033 0
M  V30 1786 N 161.113 -0.173488 1.56642 0
M  V30 1787 C 162.362 -0.888758 1.81063 0
M  V30 1788 C 162.675 -1.83506 0.67712 0
M  V30 1789 O 163.881 -2.59254 0.806206 0
M  V30 1790 C 162.337 -1.63091 3.20826 0
M  V30 1791 C 161.945 -0.728357 4.4204 0
M  V30 1792 C 163.689 -2.33454 3.54541 0
M  V30 1793 C 161.596 -1.47062 5.72823 0
M  V30 1794 H 160.526 -0.335618 0.675186 0
M  V30 1795 H 163.177 -0.141712 1.82952 0
M  V30 1796 H 161.559 -2.42263 3.13248 0
M  V30 1797 H 162.733 0.0262449 4.60793 0
M  V30 1798 H 161.048 -0.134492 4.16183 0
M  V30 1799 H 163.645 -2.89578 4.49498 0
M  V30 1800 H 163.988 -3.08687 2.79317 0
M  V30 1801 H 164.521 -1.61227 3.63663 0
M  V30 1802 H 161.26 -0.760658 6.51072 0
M  V30 1803 H 160.78 -2.1986 5.58052 0
M  V30 1804 H 162.459 -2.01868 6.14702 0
M  V30 1805 N 162.591 -1.51276 -0.441967 0
M  V30 1806 C 163.541 -1.6864 -1.53442 0
M  V30 1807 C 164.525 -0.540444 -1.51552 0
M  V30 1808 O 165.717 -0.796157 -1.58083 0
M  V30 1809 C 162.846 -1.8106 -2.91672 0
M  V30 1810 C 161.932 -3.01424 -2.98336 0
M  V30 1811 N 162.323 -4.2467 -2.74752 0
M  V30 1812 C 160.621 -3.00584 -3.29493 0
M  V30 1813 C 161.322 -5.05891 -2.87139 0
M  V30 1814 N 160.298 -4.40442 -3.18609 0
M  V30 1815 H 164.1 -2.61598 -1.33954 0
M  V30 1816 H 161.614 -1.4886 -0.6492 0
M  V30 1817 H 163.611 -1.91609 -3.70259 0
M  V30 1818 H 162.271 -0.892795 -3.12185 0
M  V30 1819 H 163.282 -4.53691 -2.49769 0
M  V30 1820 H 159.959 -2.18417 -3.55809 0
M  V30 1821 H 161.349 -6.13983 -2.72899 0
M  V30 1822 N 164.069 0.697108 -1.41344 0
M  V30 1823 C 164.979 1.84088 -1.45427 0
M  V30 1824 C 165.995 1.70545 -0.34501 0
M  V30 1825 O 167.171 1.92488 -0.592492 0
M  V30 1826 C 164.236 3.20056 -1.33286 0
M  V30 1827 C 163.297 3.45718 -2.54514 0
M  V30 1828 C 162.53 4.75199 -2.42944 0
M  V30 1829 O 162.753 5.51579 -1.45318 0
M  V30 1830 O 161.687 5.0161 -3.32672 0
M  V30 1831 H 165.513 1.836 -2.41919 0
M  V30 1832 H 163.098 0.849966 -1.22866 0
M  V30 1833 H 164.98 4.01236 -1.28794 0
M  V30 1834 H 163.655 3.2123 -0.39909 0
M  V30 1835 H 162.562 2.64474 -2.64583 0
M  V30 1836 H 163.895 3.49356 -3.46715 0
M  V30 1837 N 165.547 1.27147 0.931209 0
M  V30 1838 C 166.495 1.09398 2.05268 0
M  V30 1839 C 167.489 0.0180591 1.6939 0
M  V30 1840 O 168.695 0.17551 1.79142 0
M  V30 1841 H 165.07 0.336986 0.672268 0
M  V30 1842 H 167.041 2.04416 2.17386 0
M  V30 1843 C 165.79 0.75424 3.39421 0
M  V30 1844 H 165.113 1.57404 3.67511 0
M  V30 1845 H 166.553 0.669903 4.18674 0
M  V30 1846 C 165.012 -0.541197 3.32525 0
M  V30 1847 O 165.542 -1.57664 3.69466 0
M  V30 1848 N 163.748 -0.535517 2.85623 0
M  V30 1849 H 163.295 0.307511 2.55758 0
M  V30 1850 H 163.253 -1.40236 2.81392 0
M  V30 1851 N 167.025 -1.13721 1.09112 0
M  V30 1852 C 168.255 -1.88499 0.845671 0
M  V30 1853 C 168.663 -1.79218 -0.606432 0
M  V30 1854 O 168.006 -1.1544 -1.42896 0
M  V30 1855 C 168.068 -3.38954 1.19793 0
M  V30 1856 C 167.732 -3.72018 2.65428 0
M  V30 1857 C 168.729 -3.7153 3.63677 0
M  V30 1858 C 166.414 -4.01775 3.01467 0
M  V30 1859 C 168.408 -4.00336 4.95994 0
M  V30 1860 C 166.095 -4.30243 4.33975 0
M  V30 1861 C 167.093 -4.29508 5.31048 0
M  V30 1862 O 166.781 -4.5728 6.61173 0
M  V30 1863 H 166.513 -0.603702 0.304171 0
M  V30 1864 H 169.067 -1.44903 1.45576 0
M  V30 1865 H 167.297 -3.83039 0.530871 0
M  V30 1866 H 168.986 -3.95052 0.932146 0
M  V30 1867 H 169.752 -3.4862 3.37179 0
M  V30 1868 H 165.631 -4.01496 2.26544 0
M  V30 1869 H 169.175 -3.99678 5.71755 0
M  V30 1870 H 165.072 -4.52625 4.60219 0
M  V30 1871 H 165.84 -4.74964 6.66597 0
M  V30 1872 N 168.503 -0.877838 -1.30888 0
M  V30 1873 C 169.919 -0.570844 -1.49042 0
M  V30 1874 C 170.119 0.893159 -1.80624 0
M  V30 1875 O 169.175 1.67485 -1.88958 0
M  V30 1876 C 170.488 -1.47784 -2.61878 0
M  V30 1877 C 172.036 -1.48071 -2.75761 0
M  V30 1878 C 172.511 -2.37347 -3.91702 0
M  V30 1879 N 174.002 -2.35271 -3.99001 0
M  V30 1880 C 174.737 -3.01063 -4.88004 0
M  V30 1881 N 174.233 -3.76055 -5.81854 0
M  V30 1882 N 176.026 -2.90332 -4.81315 0
M  V30 1883 H 168.177 -1.82502 -1.0866 0
M  V30 1884 H 170.44 -0.780797 -0.537644 0
M  V30 1885 H 170.146 -2.51993 -2.45341 0
M  V30 1886 H 170.02 -1.18215 -3.58197 0
M  V30 1887 H 172.407 -0.446166 -2.91708 0
M  V30 1888 H 172.488 -1.81668 -1.80085 0
M  V30 1889 H 172.132 -3.40883 -3.76512 0
M  V30 1890 H 172.062 -2.01071 -4.86701 0
M  V30 1891 H 174.553 -1.80768 -3.3186 0
M  V30 1892 H 174.866 -4.23366 -6.46514 0
M  V30 1893 H 173.211 -3.80163 -5.81808 0
M  V30 1894 H 176.402 -2.31278 -4.06974 0
M  V30 1895 H 176.575 -3.41885 -5.50471 0
M  V30 1896 N 169.982 1.44106 -0.638065 0
M  V30 1897 C 171.231 2.01194 -0.142744 0
M  V30 1898 C 171.544 1.50835 1.24532 0
M  V30 1899 O 172.75 2.00096 1.83504 0
M  V30 1900 C 171.206 3.59319 -0.20442 0
M  V30 1901 C 170.814 4.18674 -1.59423 0
M  V30 1902 C 172.558 4.23854 0.234079 0
M  V30 1903 C 170.465 5.69045 -1.61065 0
M  V30 1904 H 169.395 0.752367 -0.0495998 0
M  V30 1905 H 172.046 1.65246 -0.797881 0
M  V30 1906 H 170.428 3.92598 0.517946 0
M  V30 1907 H 171.602 3.96921 -2.34074 0
M  V30 1908 H 169.917 3.66453 -1.97741 0
M  V30 1909 H 172.514 5.34155 0.241443 0
M  V30 1910 H 172.857 3.96688 1.2627 0
M  V30 1911 H 173.39 3.95403 -0.436025 0
M  V30 1912 H 170.129 6.00956 -2.61787 0
M  V30 1913 H 169.649 5.929 -0.90718 0
M  V30 1914 H 171.328 6.32809 -1.34766 0
M  V30 1915 N 171.46 0.379036 1.52974 0
M  V30 1916 C 172.408 -0.476033 2.27677 0
M  V30 1917 C 173.402 -1.0719 1.31174 0
M  V30 1918 O 174.608 -1.01355 1.48752 0
M  V30 1919 H 170.983 -0.172255 0.732006 0
M  V30 1920 H 172.954 0.175615 2.97883 0
M  V30 1921 C 171.703 -1.5967 3.0887 0
M  V30 1922 H 171.026 -1.1475 3.82978 0
M  V30 1923 H 172.466 -2.16943 3.64296 0
M  V30 1924 C 170.925 -2.54682 2.20542 0
M  V30 1925 O 171.455 -3.57836 1.82527 0
M  V30 1926 N 169.661 -2.24183 1.84907 0
M  V30 1927 H 169.208 -1.40333 2.1602 0
M  V30 1928 H 169.166 -2.88006 1.26096 0
M  V30 1929 N 172.938 -1.57226 0.108567 0
M  V30 1930 C 174.186 -1.94448 -0.550853 0
M  V30 1931 C 174.507 -0.992074 -1.67878 0
M  V30 1932 O 173.777 -0.0465 -1.95845 0
M  V30 1933 H 172.357 -0.717897 -0.206479 0
M  V30 1934 H 175.019 -1.94112 0.175062 0
M  V30 1935 H 174.115 -2.97218 -0.952259 0
M  V30 1936 O 174.455 0.0311049 -1.6147 0
M  V30 1937 H 175.146 0.651916 -1.824 0
M  V30 END ATOM
M  V30 BEGIN BOND
M  V30 END BOND
M  V30 END CTAB
M  END
$$$$
