drugbank_target|O75330 Hyaluronan mediated motility receptor (DB08818)
 OpenBabel12092120573D

  0  0  0     0  0            999 V3000
M  V30 BEGIN CTAB
M  V30 COUNTS 11912 11963 0 0 0
M  V30 BEGIN ATOM
M  V30 1 H -0.908 1.98254 -0.117106 0
M  V30 2 N 0 1.576 0 0
M  V30 3 C 0.933 2.03868 1.02534 0
M  V30 4 C 1.911 0.928543 1.3348 0
M  V30 5 O 3.095 1.19667 1.45644 0
M  V30 6 C 0.222 2.43627 2.35294 0
M  V30 7 C -0.732 3.65373 2.2001 0
M  V30 8 S 0.101 5.13292 1.52614 0
M  V30 9 C 1.257 5.56322 2.86805 0
M  V30 10 H 1.49 2.90518 0.631377 0
M  V30 11 H -0.977 1.52953 0.210867 0
M  V30 12 H 0.981 2.67203 3.11629 0
M  V30 13 H -0.358 1.57376 2.7183 0
M  V30 14 H -1.165 3.90944 3.18086 0
M  V30 15 H -1.563 3.418 1.51819 0
M  V30 16 H 0.729 5.58782 3.83104 0
M  V30 17 H 1.672 6.56266 2.65933 0
M  V30 18 H 2.08 4.83886 2.90714 0
M  V30 19 N 1.4781 -0.272755 1.55222 0
M  V30 20 C 2.7031 -1.02683 1.80197 0
M  V30 21 C 3.1281 -1.79142 0.573551 0
M  V30 22 O 2.4861 -1.74917 -0.476849 0
M  V30 23 C 2.5341 -1.9609 3.02624 0
M  V30 24 O 1.6381 -3.04863 2.77727 0
M  V30 25 H 0.9791 -0.293557 0.595584 0
M  V30 26 H 3.5091 -0.30159 2.02365 0
M  V30 27 H 3.5191 -2.38039 3.31363 0
M  V30 28 H 2.1941 -1.39851 3.91682 0
M  V30 29 H 0.7711 -2.67228 2.60084 0
M  V30 30 N 2.9562 -1.48159 -0.537278 0
M  V30 31 C 4.2032 -1.55804 -1.29349 0
M  V30 32 C 4.5312 -0.228802 -1.9315 0
M  V30 33 O 3.7862 0.780242 -1.79473 0
M  V30 34 C 4.0852 -2.63956 -2.40961 0
M  V30 35 C 3.7512 -4.0662 -1.94861 0
M  V30 36 C 2.4132 -4.45452 -1.82006 0
M  V30 37 C 4.7652 -4.96055 -1.59933 0
M  V30 38 C 2.0932 -5.71531 -1.32547 0
M  V30 39 C 4.4452 -6.22617 -1.11939 0
M  V30 40 C 3.1092 -6.60312 -0.976951 0
M  V30 41 H 2.3792 -0.570129 -0.473322 0
M  V30 42 H 5.0262 -1.81845 -0.600372 0
M  V30 43 H 3.3312 -2.31747 -3.15912 0
M  V30 44 H 5.0282 -2.67089 -2.99107 0
M  V30 45 H 1.6182 -3.75949 -2.05815 0
M  V30 46 H 5.8022 -4.66738 -1.68728 0
M  V30 47 H 1.0582 -5.99468 -1.202 0
M  V30 48 H 5.2322 -6.91318 -0.839811 0
M  V30 49 H 2.8592 -7.57895 -0.591501 0
M  V30 50 N 4.4343 0.785586 -1.36625 0
M  V30 51 C 5.8453 1.36101 -1.27803 0
M  V30 52 C 6.1963 1.96035 0.0804875 0
M  V30 53 O 5.3213 1.92834 0.982042 0
M  V30 54 C 5.9163 2.47442 -2.31426 0
M  V30 55 C 4.4753 3.00789 -2.26281 0
M  V30 56 C 3.6223 1.73896 -2.15999 0
M  V30 57 H 6.5733 0.586928 -1.47448 0
M  V30 58 H 6.5943 3.2656 -1.95291 0
M  V30 59 H 6.1063 2.03791 -3.30289 0
M  V30 60 H 4.2073 3.48851 -1.30896 0
M  V30 61 H 4.3203 3.57343 -3.19128 0
M  V30 62 H 2.6843 1.9628 -1.62316 0
M  V30 63 H 3.4673 1.32368 -3.16755 0
M  V30 64 N 5.9124 1.20967 1.01018 0
M  V30 65 C 6.8594 0.964281 2.09691 0
M  V30 66 C 7.8294 -0.107853 1.65749 0
M  V30 67 O 9.0144 0.0381987 1.90762 0
M  V30 68 C 6.1544 0.52943 3.41015 0
M  V30 69 C 5.2674 1.67043 3.98398 0
M  V30 70 C 4.4024 1.18525 5.17808 0
M  V30 71 C 3.4414 2.29892 5.67288 0
M  V30 72 N 2.5784 1.82546 6.77954 0
M  V30 73 H 7.4184 1.89463 2.30017 0
M  V30 74 H 4.9554 0.944289 1.1279 0
M  V30 75 H 6.9134 0.258588 4.16398 0
M  V30 76 H 5.5434 -0.363919 3.20742 0
M  V30 77 H 4.5954 2.05603 3.20049 0
M  V30 78 H 5.9074 2.50877 4.31117 0
M  V30 79 H 5.0614 0.870762 6.00419 0
M  V30 80 H 3.8004 0.316887 4.86669 0
M  V30 81 H 2.8054 2.6215 4.83278 0
M  V30 82 H 4.0304 3.17216 6.00459 0
M  V30 83 H 1.9764 0.980454 6.48632 0
M  V30 84 H 1.8934 2.59956 7.09901 0
M  V30 85 H 3.1614 1.54115 7.64113 0
M  V30 86 N 7.3905 -1.2043 1.01659 0
M  V30 87 C 8.3535 -2.21433 0.591616 0
M  V30 88 C 9.3535 -1.57203 -0.338226 0
M  V30 89 O 10.5435 -1.73737 -0.126918 0
M  V30 90 C 7.6755 -3.40628 -0.136058 0
M  V30 91 H 8.8685 -2.60545 1.48514 0
M  V30 92 H 6.4215 -1.33893 0.806379 0
M  V30 93 H 7.1565 -3.07019 -1.04449 0
M  V30 94 H 6.9415 -3.88475 0.531917 0
M  V30 95 H 8.4315 -4.15475 -0.420735 0
M  V30 96 N 8.8686 -0.792821 -1.36206 0
M  V30 97 C 10.2796 -0.429513 -1.81692 0
M  V30 98 C 10.6306 1.04695 -1.65932 0
M  V30 99 O 9.7556 1.81256 -1.18218 0
M  V30 100 C 10.3506 -0.772831 -3.29868 0
M  V30 101 C 8.9096 -0.462307 -3.7355 0
M  V30 102 C 8.0566 -1.00569 -2.5842 0
M  V30 103 H 11.0076 -0.985672 -1.24379 0
M  V30 104 H 11.0286 -0.0651928 -3.80444 0
M  V30 105 H 10.5406 -1.84747 -3.41307 0
M  V30 106 H 8.6416 0.604158 -3.67669 0
M  V30 107 H 8.7546 -0.985299 -4.68859 0
M  V30 108 H 7.1186 -0.428734 -2.51066 0
M  V30 109 H 7.9016 -2.08616 -2.72643 0
M  V30 110 N 10.3467 1.47872 -0.545128 0
M  V30 111 C 11.2767 2.32661 0.197793 0
M  V30 112 C 12.2577 1.43041 0.920504 0
M  V30 113 O 13.4427 1.71912 0.90333 0
M  V30 114 C 10.5727 3.24569 1.23582 0
M  V30 115 C 9.5267 4.23333 0.630323 0
M  V30 116 C 8.8527 5.0448 1.77211 0
M  V30 117 C 10.1527 5.20704 -0.407974 0
M  V30 118 H 11.8467 2.95024 -0.510045 0
M  V30 119 H 9.3927 1.4187 -0.246731 0
M  V30 120 H 11.3457 3.8272 1.76362 0
M  V30 121 H 10.0697 2.60236 1.97344 0
M  V30 122 H 8.7287 3.6639 0.123922 0
M  V30 123 H 8.3767 4.36561 2.49847 0
M  V30 124 H 8.0767 5.71339 1.37281 0
M  V30 125 H 9.6007 5.65487 2.3034 0
M  V30 126 H 11.0147 5.7329 0.033305 0
M  V30 127 H 9.4117 5.95699 -0.725486 0
M  V30 128 H 10.4817 4.66917 -1.30828 0
M  V30 129 N 11.8248 0.280983 1.55075 0
M  V30 130 C 12.7718 -0.603937 2.22758 0
M  V30 131 C 13.7418 -1.1452 1.20309 0
M  V30 132 O 14.9268 -1.19343 1.48869 0
M  V30 133 C 12.0668 -1.77947 2.95684 0
M  V30 134 C 11.1798 -1.2715 4.12864 0
M  V30 135 C 10.3148 -2.4093 4.7342 0
M  V30 136 C 9.3538 -1.87165 5.82783 0
M  V30 137 N 8.4908 -2.94441 6.37377 0
M  V30 138 H 13.3308 -0.020124 2.97993 0
M  V30 139 H 10.8678 0.00183425 1.471 0
M  V30 140 H 12.8258 -2.47055 3.36184 0
M  V30 141 H 11.4558 -2.33522 2.22861 0
M  V30 142 H 10.5078 -0.473331 3.77444 0
M  V30 143 H 11.8198 -0.837751 4.91715 0
M  V30 144 H 10.9738 -3.18021 5.1667 0
M  V30 145 H 9.7128 -2.87623 3.93859 0
M  V30 146 H 8.7178 -1.08556 5.38976 0
M  V30 147 H 9.9428 -1.41401 6.64216 0
M  V30 148 H 7.8888 -3.40505 5.60707 0
M  V30 149 H 7.8058 -2.55501 7.11516 0
M  V30 150 H 9.0738 -3.71489 6.85285 0
M  V30 151 N 13.3029 -1.57598 0.00835791 0
M  V30 152 C 14.7189 -1.55764 -0.347822 0
M  V30 153 C 14.9189 -1.01186 -1.74252 0
M  V30 154 O 13.9749 -0.649371 -2.44007 0
M  V30 155 C 15.2879 -2.99927 -0.215407 0
M  V30 156 C 16.8359 -3.11656 -0.289725 0
M  V30 157 C 17.3109 -4.57621 -0.18634 0
M  V30 158 N 18.8019 -4.62557 -0.243978 0
M  V30 159 C 19.5369 -5.73094 -0.18745 0
M  V30 160 N 19.0329 -6.92753 -0.0810331 0
M  V30 161 N 20.8259 -5.61588 -0.239925 0
M  V30 162 H 12.9769 -1.91411 0.92062 0
M  V30 163 H 15.2399 -0.879562 0.353659 0
M  V30 164 H 14.9459 -3.43729 0.744512 0
M  V30 165 H 14.8199 -3.63865 -0.994097 0
M  V30 166 H 17.2069 -2.67779 -1.24009 0
M  V30 167 H 17.2879 -2.5048 0.51898 0
M  V30 168 H 16.9319 -5.02174 0.760519 0
M  V30 169 H 16.8619 -5.16752 -1.01364 0
M  V30 170 H 19.3529 -3.76481 -0.327217 0
M  V30 171 H 19.6659 -7.72787 -0.0440241 0
M  V30 172 H 18.0109 -6.94984 -0.0465419 0
M  V30 173 H 21.2019 -4.66996 -0.321317 0
M  V30 174 H 21.3749 -6.47714 -0.192407 0
M  V30 175 N 14.781 0.264519 -1.55364 0
M  V30 176 C 16.028 0.994986 -1.7637 0
M  V30 177 C 16.356 1.85976 -0.5695 0
M  V30 178 O 15.611 1.90509 0.44776 0
M  V30 179 C 15.91 1.9004 -3.02687 0
M  V30 180 C 15.576 1.19243 -4.34847 0
M  V30 181 C 14.238 0.996709 -4.70764 0
M  V30 182 C 16.59 0.689296 -5.16622 0
M  V30 183 C 13.918 0.285261 -5.86006 0
M  V30 184 C 16.27 -0.00860079 -6.32599 0
M  V30 185 C 14.934 -0.215963 -6.67151 0
M  V30 186 H 14.204 0.364091 -0.645383 0
M  V30 187 H 16.851 0.266543 -1.89636 0
M  V30 188 H 15.156 2.69533 -2.84357 0
M  V30 189 H 16.853 2.46695 -3.16137 0
M  V30 190 H 13.443 1.3549 -4.06621 0
M  V30 191 H 17.627 0.828108 -4.89342 0
M  V30 192 H 12.883 0.113961 -6.11294 0
M  V30 193 H 17.057 -0.406186 -6.95214 0
M  V30 194 H 14.684 -0.769217 -7.56298 0
M  V30 195 N 16.2591 1.48442 0.529413 0
M  V30 196 C 17.2071 1.63452 1.65487 0
M  V30 197 C 18.2011 0.500955 1.61823 0
M  V30 198 O 19.4071 0.679695 1.66674 0
M  V30 199 H 15.7821 0.514905 0.548066 0
M  V30 200 H 17.7531 2.57975 1.49971 0
M  V30 201 C 16.5021 1.69196 3.03756 0
M  V30 202 H 15.8251 2.55784 3.07269 0
M  V30 203 H 17.2651 1.83743 3.82119 0
M  V30 204 C 15.7241 0.430765 3.34135 0
M  V30 205 O 16.2541 -0.4561 3.99102 0
M  V30 206 N 14.4601 0.302293 2.89023 0
M  V30 207 H 14.0071 1.02496 2.36331 0
M  V30 208 H 13.9651 -0.540546 3.09718 0
M  V30 209 N 17.7372 -0.778329 1.37039 0
M  V30 210 C 19.0142 -1.52551 1.22424 0
M  V30 211 C 19.3942 -2.10288 -0.184964 0
M  V30 212 O 18.7422 -1.94953 -1.19187 0
M  V30 213 C 18.9522 -2.61164 2.31504 0
M  V30 214 C 20.3002 -3.28746 2.68721 0
M  V30 215 O 21.3242 -2.71455 2.30631 0
M  V30 216 O 20.1832 -4.3231 3.3432 0
M  V30 217 H 17.2772 -0.675343 0.477326 0
M  V30 218 H 19.8232 -0.815859 1.48801 0
M  V30 219 H 18.5952 -2.16574 3.25901 0
M  V30 220 H 18.2182 -3.39737 2.06554 0
M  V30 221 N 19.2153 -1.21501 -1.00376 0
M  V30 222 C 20.6263 -1.03146 -1.55621 0
M  V30 223 C 20.9773 0.408375 -1.91903 0
M  V30 224 O 20.1023 1.29177 -1.73616 0
M  V30 225 C 20.6973 -1.86612 -2.82775 0
M  V30 226 C 19.2563 -1.72586 -3.34501 0
M  V30 227 C 18.4033 -1.83747 -2.07683 0
M  V30 228 H 21.3543 -1.35505 -0.826081 0
M  V30 229 H 21.3753 -1.3771 -3.54706 0
M  V30 230 H 20.8873 -2.91399 -2.56336 0
M  V30 231 H 18.9883 -0.704877 -3.65872 0
M  V30 232 H 19.1013 -2.54623 -4.05837 0
M  V30 233 H 17.4653 -1.27069 -2.20739 0
M  V30 234 H 18.2483 -2.90044 -1.83655 0
M  V30 235 N 20.6934 1.19889 -1.02296 0
M  V30 236 C 21.9184 1.9393 -0.735237 0
M  V30 237 C 22.3434 1.74639 0.698782 0
M  V30 238 O 21.7014 1.04481 1.48167 0
M  V30 239 C 21.7494 3.43916 -1.08417 0
M  V30 240 O 20.8534 4.11917 -0.199446 0
M  V30 241 H 20.1944 0.605645 -0.272196 0
M  V30 242 H 22.7244 1.52137 -1.36804 0
M  V30 243 H 22.7344 3.9456 -1.03856 0
M  V30 244 H 21.4094 3.5728 -2.12894 0
M  V30 245 H 19.9864 3.71666 -0.303136 0
M  V30 246 N 22.1715 0.800033 1.35784 0
M  V30 247 C 23.4195 0.376597 1.9856 0
M  V30 248 C 23.7405 -1.05812 1.63795 0
M  V30 249 O 23.0105 -1.73103 0.917171 0
M  V30 250 H 21.5905 0.136261 0.734467 0
M  V30 251 H 24.2525 1.02442 1.65806 0
M  V30 252 H 23.3485 0.477002 3.08433 0
M  V30 253 N 23.6496 -1.47581 0.552962 0
M  V30 254 C 24.8896 -2.04379 0.0296245 0
M  V30 255 C 25.2536 -1.4185 -1.29393 0
M  V30 256 O 26.4546 -1.89669 -1.90471 0
M  V30 257 C 24.7256 -3.57339 -0.0661371 0
M  V30 258 S 26.2846 -4.35511 -0.536213 0
M  V30 259 H 23.1026 -0.710625 0.0230991 0
M  V30 260 H 25.7046 -1.81005 0.738734 0
M  V30 261 H 24.4086 -4.00374 0.901596 0
M  V30 262 H 23.9396 -3.85202 -0.798931 0
M  V30 263 H 25.9546 -4.6253 -1.79668 0
M  V30 264 N 25.1277 -0.289203 -1.54924 0
M  V30 265 C 26.0907 0.579144 -2.21762 0
M  V30 266 C 27.0907 1.07047 -1.1999 0
M  V30 267 O 28.2807 0.968384 -1.44803 0
M  V30 268 C 25.4127 1.80055 -2.8947 0
M  V30 269 H 26.6057 -0.00464908 -2.999 0
M  V30 270 H 24.1587 -0.0399306 -1.56249 0
M  V30 271 H 24.8937 2.42449 -2.15381 0
M  V30 272 H 24.6787 1.45602 -3.64064 0
M  V30 273 H 26.1687 2.41773 -3.40493 0
M  V30 274 N 26.6058 1.57591 -0.0167156 0
M  V30 275 C 28.0168 1.79201 0.523834 0
M  V30 276 C 28.3678 0.925796 1.72984 0
M  V30 277 O 27.4928 0.132792 2.15992 0
M  V30 278 C 28.0878 3.25 0.957091 0
M  V30 279 C 26.6468 3.47648 1.44283 0
M  V30 280 C 25.7938 2.74374 0.401757 0
M  V30 281 H 28.7448 1.56831 -0.242816 0
M  V30 282 H 28.7658 3.34031 1.82219 0
M  V30 283 H 28.2778 3.88019 0.0791415 0
M  V30 284 H 26.3788 2.89866 2.34113 0
M  V30 285 H 26.4918 4.56352 1.45877 0
M  V30 286 H 24.8558 2.39485 0.867121 0
M  V30 287 H 25.6388 3.40102 -0.467513 0
M  V30 288 N 28.0839 -0.256276 1.55502 0
M  V30 289 C 29.3089 -1.00766 1.81276 0
M  V30 290 C 29.7339 -1.78524 0.59252 0
M  V30 291 O 29.0919 -1.75413 -0.45827 0
M  V30 292 C 29.1399 -1.92869 3.04687 0
M  V30 293 O 28.2439 -3.019 2.80945 0
M  V30 294 H 27.5849 -0.287224 0.598664 0
M  V30 295 H 30.1149 -0.280109 2.02674 0
M  V30 296 H 30.1249 -2.34511 3.33869 0
M  V30 297 H 28.7999 -1.35689 3.93143 0
M  V30 298 H 27.3769 -2.64454 2.62904 0
M  V30 299 N 29.562 -1.4872 -0.521534 0
M  V30 300 C 30.973 -1.50607 -1.10337 0
M  V30 301 C 31.324 -0.280612 -1.94183 0
M  V30 302 O 30.449 0.611507 -2.0758 0
M  V30 303 C 31.044 -2.72903 -2.00772 0
M  V30 304 C 29.603 -2.77634 -2.54158 0
M  V30 305 C 28.75 -2.44241 -1.31307 0
M  V30 306 H 31.701 -1.55714 -0.306388 0
M  V30 307 H 31.722 -2.519 -2.85178 0
M  V30 308 H 31.234 -3.62077 -1.39721 0
M  V30 309 H 29.335 -1.92689 -3.18907 0
M  V30 310 H 29.448 -3.79283 -2.92714 0
M  V30 311 H 27.812 -1.95577 -1.63161 0
M  V30 312 H 28.595 -3.35666 -0.719943 0
M  V30 313 N 31.0401 0.771051 -1.3745 0
M  V30 314 C 32.2881 1.52661 -1.32435 0
M  V30 315 C 32.6091 1.9479 0.0905024 0
M  V30 316 O 31.8791 1.66348 1.03466 0
M  V30 317 H 30.4591 0.566218 -0.487244 0
M  V30 318 H 33.1211 0.917636 -1.71946 0
M  V30 319 H 32.2171 2.42568 -1.96385 0
M  V30 320 N 32.5182 1.22032 0.997298 0
M  V30 321 C 33.4812 0.987909 2.06816 0
M  V30 322 C 34.4812 -0.0440084 1.6074 0
M  V30 323 O 35.6712 0.194053 1.73116 0
M  V30 324 C 32.8032 0.49132 3.37341 0
M  V30 325 H 33.9962 1.93803 2.28868 0
M  V30 326 H 31.5492 1.03838 1.16822 0
M  V30 327 H 32.2842 -0.463364 3.20973 0
M  V30 328 H 32.0692 1.23575 3.72118 0
M  V30 329 H 33.5592 0.348824 4.16141 0
M  V30 330 N 33.9963 -1.19345 1.0293 0
M  V30 331 C 35.2263 -1.92717 0.744563 0
M  V30 332 C 35.6343 -1.75751 -0.700579 0
M  V30 333 O 34.9773 -1.07703 -1.48815 0
M  V30 334 C 35.0393 -3.44828 1.01657 0
M  V30 335 C 34.7033 -3.85564 2.45335 0
M  V30 336 C 35.7003 -3.90286 3.43472 0
M  V30 337 C 33.3853 -4.1719 2.79746 0
M  V30 338 C 35.3793 -4.26065 4.74075 0
M  V30 339 C 33.0663 -4.52642 4.10559 0
M  V30 340 C 34.0643 -4.57054 5.07534 0
M  V30 341 O 33.7523 -4.91685 6.36004 0
M  V30 342 H 33.4843 -0.618977 0.271742 0
M  V30 343 H 36.0383 -1.52415 1.37691 0
M  V30 344 H 34.2683 -3.85314 0.327084 0
M  V30 345 H 35.9573 -3.99437 0.721427 0
M  V30 346 H 36.7233 -3.66002 3.18225 0
M  V30 347 H 32.6023 -4.1294 2.04943 0
M  V30 348 H 36.1463 -4.29423 5.49765 0
M  V30 349 H 32.0433 -4.76383 4.35579 0
M  V30 350 H 32.8113 -5.09631 6.40483 0
M  V30 351 N 35.4744 -0.807222 -1.35358 0
M  V30 352 C 36.7514 -0.311126 -1.9311 0
M  V30 353 C 37.1314 1.19937 -1.73719 0
M  V30 354 O 36.4794 1.99918 -1.10657 0
M  V30 355 C 36.6894 -0.723226 -3.41424 0
M  V30 356 C 38.0374 -0.713078 -4.18569 0
M  V30 357 O 39.0614 -0.664811 -3.49941 0
M  V30 358 O 37.9204 -0.772022 -5.41019 0
M  V30 359 H 35.0144 -0.081526 -0.822972 0
M  V30 360 H 37.5604 -0.890962 -1.4443 0
M  V30 361 H 36.3324 -1.76426 -3.4927 0
M  V30 362 H 35.9554 -0.118232 -3.97424 0
M  V30 363 N 36.9525 1.47285 -0.560781 0
M  V30 364 C 38.1985 2.02764 -0.0381184 0
M  V30 365 C 38.5315 1.43384 1.30976 0
M  V30 366 O 37.8065 0.590733 1.85312 0
M  V30 367 C 38.0895 3.60064 0.0511427 0
M  V30 368 C 37.9425 4.2987 -1.32408 0
M  V30 369 C 39.2615 4.33439 0.762795 0
M  V30 370 H 36.3805 0.736841 -0.0153264 0
M  V30 371 H 39.0225 1.75675 -0.723759 0
M  V30 372 H 37.1725 3.83274 0.635065 0
M  V30 373 H 38.8445 4.17989 -1.95148 0
M  V30 374 H 37.0875 3.90085 -1.8978 0
M  V30 375 H 37.7585 5.38478 -1.21431 0
M  V30 376 H 40.2345 4.15243 0.266965 0
M  V30 377 H 39.1105 5.43124 0.794221 0
M  V30 378 H 39.3715 4.02915 1.81966 0
M  V30 379 N 38.4306 0.297415 1.54768 0
M  V30 380 C 39.3776 -0.580276 2.23386 0
M  V30 381 C 40.3476 -1.13238 1.21517 0
M  V30 382 O 41.5326 -1.17757 1.50126 0
M  V30 383 C 38.6726 -1.74801 2.97555 0
M  V30 384 C 37.7856 -1.22764 4.1419 0
M  V30 385 C 36.9206 -2.35895 4.75949 0
M  V30 386 C 35.9596 -1.80974 5.84735 0
M  V30 387 N 35.0966 -2.87664 6.40464 0
M  V30 388 H 39.9366 0.0114833 2.97998 0
M  V30 389 H 37.4736 0.0174361 1.4709 0
M  V30 390 H 39.4316 -2.43475 3.38786 0
M  V30 391 H 38.0616 -2.31145 2.25326 0
M  V30 392 H 37.1136 -0.433271 3.77924 0
M  V30 393 H 38.4256 -0.785551 4.92575 0
M  V30 394 H 37.5796 -3.12523 5.20014 0
M  V30 395 H 36.3186 -2.83429 3.96887 0
M  V30 396 H 35.3236 -1.02834 5.40097 0
M  V30 397 H 36.5486 -1.34348 6.65678 0
M  V30 398 H 34.4946 -3.34538 5.64287 0
M  V30 399 H 34.4116 -2.4794 7.14186 0
M  V30 400 H 35.6796 -3.642 6.89187 0
M  V30 401 N 39.9087 -1.5758 0.0250728 0
M  V30 402 C 41.1367 -1.9593 -0.664747 0
M  V30 403 C 41.5517 -0.901352 -1.65895 0
M  V30 404 O 40.9087 0.117255 -1.82123 0
M  V30 405 C 40.9597 -3.34342 -1.37468 0
M  V30 406 O 40.6807 -4.36079 -0.420324 0
M  V30 407 C 42.1817 -3.873 -2.1567 0
M  V30 408 H 39.4017 -0.645405 -0.183557 0
M  V30 409 H 41.9457 -2.04329 0.0836372 0
M  V30 410 H 40.1007 -3.27175 -2.0745 0
M  V30 411 H 40.5147 -5.16297 -0.923991 0
M  V30 412 H 41.9887 -4.86504 -2.60803 0
M  V30 413 H 42.4657 -3.21331 -2.99405 0
M  V30 414 H 43.0717 -3.97723 -1.50654 0
M  V30 415 N 41.3868 0.248026 -1.55636 0
M  V30 416 C 42.3168 1.31079 -1.93237 0
M  V30 417 C 43.2978 1.50264 -0.797174 0
M  V30 418 O 44.4828 1.62891 -1.05737 0
M  V30 419 C 41.6128 2.66575 -2.22609 0
M  V30 420 C 40.5668 2.62087 -3.3837 0
M  V30 421 C 39.8928 4.01369 -3.53281 0
M  V30 422 C 41.1928 2.19171 -4.7409 0
M  V30 423 H 42.8868 0.998556 -2.82257 0
M  V30 424 H 40.4328 0.47891 -1.35803 0
M  V30 425 H 42.3858 3.41057 -2.47503 0
M  V30 426 H 41.1098 2.99432 -1.30414 0
M  V30 427 H 39.7688 1.90063 -3.13483 0
M  V30 428 H 39.4168 4.31489 -2.58508 0
M  V30 429 H 39.1168 3.99254 -4.31127 0
M  V30 430 H 40.6408 4.77552 -3.80495 0
M  V30 431 H 42.0548 2.83384 -4.98363 0
M  V30 432 H 40.4518 2.2817 -5.5503 0
M  V30 433 H 41.5218 1.14336 -4.71227 0
M  V30 434 N 42.8649 1.48995 0.513639 0
M  V30 435 C 43.7749 1.67443 1.64317 0
M  V30 436 C 44.7909 0.556947 1.64846 0
M  V30 437 O 45.9669 0.830082 1.83498 0
M  V30 438 C 43.0319 1.72515 3.00732 0
M  V30 439 C 42.0929 2.96009 3.1093 0
M  V30 440 C 41.3259 3.00829 4.40837 0
M  V30 441 O 41.5489 2.13594 5.28898 0
M  V30 442 O 40.4829 3.93168 4.55744 0
M  V30 443 H 44.3089 2.63106 1.51687 0
M  V30 444 H 41.8939 1.32588 0.688543 0
M  V30 445 H 43.7759 1.78277 3.81831 0
M  V30 446 H 42.4509 0.800278 3.13651 0
M  V30 447 H 41.3579 2.9577 2.29065 0
M  V30 448 H 42.6909 3.87934 3.02933 0
M  V30 449 N 44.343 -0.763751 1.37857 0
M  V30 450 C 45.589 -1.52483 1.33704 0
M  V30 451 C 45.922 -1.94051 -0.0759612 0
M  V30 452 O 45.197 -1.64675 -1.03501 0
M  V30 453 C 45.48 -2.78441 2.28348 0
M  V30 454 C 45.333 -2.43075 3.78463 0
M  V30 455 C 46.652 -3.80415 2.21298 0
M  V30 456 H 43.771 -0.553169 0.487005 0
M  V30 457 H 46.413 -0.875562 1.68624 0
M  V30 458 H 44.563 -3.33842 1.987 0
M  V30 459 H 46.235 -1.93527 4.18742 0
M  V30 460 H 44.478 -1.75666 3.96641 0
M  V30 461 H 45.149 -3.33149 4.40132 0
M  V30 462 H 47.625 -3.34527 2.47449 0
M  V30 463 H 46.501 -4.66257 2.89647 0
M  V30 464 H 46.762 -4.25262 1.20849 0
M  V30 465 N 45.8211 -1.22559 -0.990812 0
M  V30 466 C 46.7511 -1.0218 -2.09956 0
M  V30 467 C 47.7321 0.0579394 -1.70001 0
M  V30 468 O 48.9171 -0.104684 -1.93918 0
M  V30 469 C 46.0471 -0.601023 -3.4206 0
M  V30 470 C 45.0011 -1.62694 -3.95872 0
M  V30 471 C 44.3271 -1.06193 -5.24049 0
M  V30 472 C 45.6271 -3.01743 -4.2632 0
M  V30 473 H 47.3211 -1.94916 -2.27262 0
M  V30 474 H 44.8671 -0.938566 -1.09211 0
M  V30 475 H 46.8201 -0.445561 -4.19038 0
M  V30 476 H 45.5441 0.362005 -3.24588 0
M  V30 477 H 44.2031 -1.77021 -3.21028 0
M  V30 478 H 43.8511 -0.0901903 -5.02919 0
M  V30 479 H 43.5511 -1.74732 -5.61019 0
M  V30 480 H 45.0751 -0.918092 -6.03658 0
M  V30 481 H 46.4891 -2.90777 -4.94087 0
M  V30 482 H 44.8861 -3.67425 -4.74467 0
M  V30 483 H 45.9561 -3.51518 -3.34011 0
M  V30 484 N 47.2992 1.18797 -1.03562 0
M  V30 485 C 48.2462 2.22253 -0.622259 0
M  V30 486 C 49.2162 1.61987 0.36736 0
M  V30 487 O 50.4012 1.88986 0.262492 0
M  V30 488 C 47.5412 3.45097 0.0138462 0
M  V30 489 C 46.6542 4.19722 -1.02263 0
M  V30 490 C 45.7892 5.30009 -0.355573 0
M  V30 491 C 44.8282 5.96399 -1.37749 0
M  V30 492 N 43.9652 6.98234 -0.735766 0
M  V30 493 H 48.8052 2.56968 -1.50903 0
M  V30 494 H 46.3422 1.26245 -0.755017 0
M  V30 495 H 48.3002 4.15279 0.399948 0
M  V30 496 H 46.9302 3.11018 0.864158 0
M  V30 497 H 45.9822 3.48418 -1.52673 0
M  V30 498 H 47.2942 4.65227 -1.79903 0
M  V30 499 H 46.4482 6.0664 0.0850095 0
M  V30 500 H 45.1872 4.85592 0.452967 0
M  V30 501 H 44.1922 5.18512 -1.82826 0
M  V30 502 H 45.4172 6.42899 -2.18764 0
M  V30 503 H 43.3632 6.55979 0.0525597 0
M  V30 504 H 43.2802 7.41965 -1.44995 0
M  V30 505 H 44.5482 7.78845 -0.31941 0
M  V30 506 N 48.7773 0.814389 1.34928 0
M  V30 507 C 50.0253 0.397636 1.9815 0
M  V30 508 C 50.3463 -1.04069 1.64908 0
M  V30 509 O 49.6163 -1.72121 0.93548 0
M  V30 510 H 48.1963 0.144043 0.732981 0
M  V30 511 H 50.8583 1.04195 1.6471 0
M  V30 512 H 49.9543 0.509688 3.0791 0
M  V30 513 N 50.2554 -1.46986 0.568584 0
M  V30 514 C 51.6664 -1.86188 0.138219 0
M  V30 515 C 52.0174 -1.47388 -1.29504 0
M  V30 516 O 51.1424 -0.88219 -1.97602 0
M  V30 517 C 51.7374 -3.3792 0.244065 0
M  V30 518 C 50.2964 -3.76171 -0.131335 0
M  V30 519 C 49.4434 -2.71027 0.586465 0
M  V30 520 H 52.3944 -1.38342 0.777645 0
M  V30 521 H 52.4154 -3.76729 -0.534351 0
M  V30 522 H 51.9274 -3.66128 1.28731 0
M  V30 523 H 50.0284 -3.5358 -1.17526 0
M  V30 524 H 50.1414 -4.78523 0.235146 0
M  V30 525 H 48.5054 -2.54684 0.0282722 0
M  V30 526 H 49.2884 -3.02077 1.63109 0
M  V30 527 N 51.7335 -0.305618 -1.54608 0
M  V30 528 C 52.9795 0.302746 -2.00528 0
M  V30 529 C 53.3125 1.53184 -1.19367 0
M  V30 530 O 52.5875 1.92598 -0.271321 0
M  V30 531 C 52.8705 0.654756 -3.54097 0
M  V30 532 C 52.7235 -0.583793 -4.45995 0
M  V30 533 C 54.0425 1.47947 -4.14487 0
M  V30 534 H 51.1615 0.108564 -0.72896 0
M  V30 535 H 53.8035 -0.418634 -1.85331 0
M  V30 536 H 51.9535 1.26935 -3.67178 0
M  V30 537 H 53.6255 -1.22224 -4.44814 0
M  V30 538 H 51.8685 -1.21615 -4.16404 0
M  V30 539 H 52.5395 -0.293287 -5.5122 0
M  V30 540 H 55.0155 0.96013 -4.04871 0
M  V30 541 H 53.8915 1.69454 -5.22088 0
M  V30 542 H 54.1525 2.47011 -3.66658 0
M  V30 543 N 53.2116 1.57565 -0.0334293 0
M  V30 544 C 54.4366 1.96689 0.657895 0
M  V30 545 C 54.8616 0.910057 1.64619 0
M  V30 546 O 54.2196 -0.128598 1.80843 0
M  V30 547 C 54.2676 3.34905 1.33683 0
M  V30 548 O 53.3716 3.31574 2.45219 0
M  V30 549 H 52.7126 0.641205 0.172489 0
M  V30 550 H 55.2426 2.04372 -0.0965621 0
M  V30 551 H 55.2526 3.71234 1.69262 0
M  V30 552 H 53.9276 4.11366 0.612411 0
M  V30 553 H 52.5046 3.06968 2.11719 0
M  V30 554 N 54.6897 -0.239769 1.55765 0
M  V30 555 C 55.9367 -0.966801 1.7793 0
M  V30 556 C 56.2647 -1.85046 0.599015 0
M  V30 557 O 55.5197 -1.91197 -0.417395 0
M  V30 558 C 55.8187 -1.852 3.05672 0
M  V30 559 C 55.4847 -1.1231 4.36689 0
M  V30 560 C 54.1467 -0.921689 4.72291 0
M  V30 561 C 56.4987 -0.607019 5.17653 0
M  V30 562 C 53.8267 -0.191996 5.86386 0
M  V30 563 C 56.1787 0.109241 6.32506 0
M  V30 564 C 54.8427 0.322073 6.66723 0
M  V30 565 H 54.1127 -0.353778 0.651093 0
M  V30 566 H 56.7597 -0.23634 1.90036 0
M  V30 567 H 55.0647 -2.64975 2.8861 0
M  V30 568 H 56.7617 -2.41635 3.20021 0
M  V30 569 H 53.3517 -1.29004 4.08725 0
M  V30 570 H 57.5357 -0.750153 4.90598 0
M  V30 571 H 52.7917 -0.0166949 6.11398 0
M  V30 572 H 56.9657 0.516737 6.9448 0
M  V30 573 H 54.5927 0.88944 7.54979 0
M  V30 574 N 56.1678 -1.49265 -0.50573 0
M  V30 575 C 57.0998 -1.617 -1.62437 0
M  V30 576 C 58.1128 -0.499924 -1.54934 0
M  V30 577 O 59.3018 -0.771785 -1.60953 0
M  V30 578 C 56.4018 -1.5533 -3.01207 0
M  V30 579 C 55.5748 -2.8249 -3.33943 0
M  V30 580 C 54.6338 -2.69238 -4.52103 0
M  V30 581 O 53.6598 -3.43167 -4.5412 0
M  V30 582 N 54.8618 -1.80468 -5.51735 0
M  V30 583 H 57.6268 -2.58177 -1.52199 0
M  V30 584 H 55.1878 -1.46294 -0.693511 0
M  V30 585 H 57.1798 -1.44125 -3.78167 0
M  V30 586 H 55.7498 -0.667297 -3.05395 0
M  V30 587 H 54.9698 -3.08081 -2.45926 0
M  V30 588 H 56.2578 -3.66802 -3.5261 0
M  V30 589 H 55.6558 -1.19653 -5.52901 0
M  V30 590 H 54.2128 -1.75188 -6.27816 0
M  V30 591 N 57.6459 0.756429 -1.3826 0
M  V30 592 C 58.5929 1.87011 -1.35261 0
M  V30 593 C 59.5629 1.64695 -0.215616 0
M  V30 594 O 60.7479 1.864 -0.407399 0
M  V30 595 C 57.8879 3.24275 -1.18068 0
M  V30 596 C 57.0009 3.58442 -2.41129 0
M  V30 597 C 56.1359 4.84994 -2.16689 0
M  V30 598 C 55.1749 5.11939 -3.35537 0
M  V30 599 N 54.3119 6.29685 -3.10549 0
M  V30 600 H 59.1519 1.8891 -2.30472 0
M  V30 601 H 56.6889 0.923373 -1.14509 0
M  V30 602 H 58.6469 4.03479 -1.06116 0
M  V30 603 H 57.2769 3.21711 -0.264973 0
M  V30 604 H 56.3289 2.74103 -2.63764 0
M  V30 605 H 57.6409 3.74283 -3.29717 0
M  V30 606 H 56.7949 5.72135 -2.01857 0
M  V30 607 H 55.5339 4.71286 -1.25462 0
M  V30 608 H 54.5389 4.23268 -3.50891 0
M  V30 609 H 55.7639 5.27546 -4.27635 0
M  V30 610 H 53.7099 6.17306 -2.21967 0
M  V30 611 H 53.6269 6.46014 -3.92686 0
M  V30 612 H 54.8949 7.19722 -2.99367 0
M  V30 613 N 59.124 1.23083 0.984299 0
M  V30 614 C 60.349 1.088 1.76571 0
M  V30 615 C 60.774 -0.356657 1.84688 0
M  V30 616 O 60.132 -1.25788 1.30565 0
M  V30 617 C 60.18 1.71371 3.17277 0
M  V30 618 O 59.284 0.973213 4.00752 0
M  V30 619 H 58.625 0.381599 0.543395 0
M  V30 620 H 61.155 1.63057 1.23587 0
M  V30 621 H 61.165 1.76449 3.67872 0
M  V30 622 H 59.84 2.76493 3.10684 0
M  V30 623 H 58.417 0.999078 3.59267 0
M  V30 624 N 60.6021 -1.18246 1.0419 0
M  V30 625 C 61.5341 -2.2142 0.592088 0
M  V30 626 C 62.5471 -1.59233 -0.338909 0
M  V30 627 O 63.7361 -1.78002 -0.133231 0
M  V30 628 C 60.8361 -3.38546 -0.154854 0
M  V30 629 C 60.0091 -4.3031 0.784328 0
M  V30 630 C 59.0681 -5.26138 0.0804583 0
M  V30 631 O 58.0941 -5.64738 0.711292 0
M  V30 632 N 59.2961 -5.68261 -1.18574 0
M  V30 633 H 62.0611 -2.60636 1.47949 0
M  V30 634 H 59.6221 -1.33044 0.922544 0
M  V30 635 H 61.6141 -3.99678 -0.635606 0
M  V30 636 H 60.1841 -2.98012 -0.943811 0
M  V30 637 H 59.4041 -3.66764 1.44491 0
M  V30 638 H 60.6921 -4.8852 1.42218 0
M  V30 639 H 60.0901 -5.38957 -1.71876 0
M  V30 640 H 58.6471 -6.31584 -1.61074 0
M  V30 641 N 62.0802 -0.821533 -1.34494 0
M  V30 642 C 63.4962 -0.507117 -1.51329 0
M  V30 643 C 63.6962 0.968964 -1.76673 0
M  V30 644 O 62.7522 1.75348 -1.81685 0
M  V30 645 C 64.0652 -1.36544 -2.67911 0
M  V30 646 C 65.6132 -1.36242 -2.81793 0
M  V30 647 C 66.0882 -2.2052 -4.01416 0
M  V30 648 N 67.5792 -2.18136 -4.08621 0
M  V30 649 C 68.3142 -2.80095 -5.00334 0
M  V30 650 N 67.8102 -3.51039 -5.9728 0
M  V30 651 N 69.6032 -2.69656 -4.93196 0
M  V30 652 H 61.7542 -1.77729 -1.16302 0
M  V30 653 H 64.0172 -0.757291 -0.570276 0
M  V30 654 H 63.7232 -2.41361 -2.55808 0
M  V30 655 H 63.5972 -1.02917 -3.62888 0
M  V30 656 H 65.9842 -0.322041 -2.93338 0
M  V30 657 H 66.0652 -1.73866 -1.87628 0
M  V30 658 H 65.7092 -3.24607 -3.90631 0
M  V30 659 H 65.6392 -1.80247 -4.94791 0
M  V30 660 H 68.1302 -1.6653 -3.39229 0
M  V30 661 H 68.4432 -3.95565 -6.63889 0
M  V30 662 H 66.7882 -3.55145 -5.97409 0
M  V30 663 H 69.9792 -2.13808 -4.16418 0
M  V30 664 H 70.1522 -3.1823 -5.64476 0
M  V30 665 N 63.5583 1.46682 -0.576371 0
M  V30 666 C 64.8053 2.02412 -0.0595339 0
M  V30 667 C 65.1333 1.44859 1.29793 0
M  V30 668 O 64.3883 0.601099 1.8624 0
M  V30 669 C 64.6873 3.57345 0.062886 0
M  V30 670 C 64.3533 4.33908 -1.22616 0
M  V30 671 C 63.0153 4.54544 -1.57933 0
M  V30 672 C 65.3673 4.77919 -2.07948 0
M  V30 673 C 62.6953 5.16444 -2.78393 0
M  V30 674 C 65.0473 5.41149 -3.27629 0
M  V30 675 C 63.7113 5.60014 -3.63236 0
M  V30 676 H 62.9813 0.74068 -0.021785 0
M  V30 677 H 65.6283 1.76128 -0.751735 0
M  V30 678 H 63.9333 3.82729 0.838178 0
M  V30 679 H 65.6303 3.98136 0.478439 0
M  V30 680 H 62.2203 4.18138 -0.941202 0
M  V30 681 H 66.4043 4.61738 -1.81967 0
M  V30 682 H 61.6603 5.29242 -3.06126 0
M  V30 683 H 65.8343 5.74211 -3.94023 0
M  V30 684 H 63.4613 6.07748 -4.56669 0
M  V30 685 N 65.0364 0.313813 1.54444 0
M  V30 686 C 65.9834 -0.55655 2.23989 0
M  V30 687 C 66.9534 -1.11943 1.22711 0
M  V30 688 O 68.1384 -1.16158 1.51367 0
M  V30 689 C 65.2784 -1.71635 2.99392 0
M  V30 690 C 64.3914 -1.18364 4.15468 0
M  V30 691 C 63.5264 -2.30834 4.78424 0
M  V30 692 C 62.5654 -1.74762 5.86622 0
M  V30 693 N 61.7024 -2.80855 6.43479 0
M  V30 694 H 66.5424 0.0430893 2.97969 0
M  V30 695 H 64.0794 0.0330359 1.47063 0
M  V30 696 H 66.0374 -2.39868 3.41349 0
M  V30 697 H 64.6674 -2.28742 2.27765 0
M  V30 698 H 63.7194 -0.393163 3.78363 0
M  V30 699 H 65.0314 -0.733262 4.93381 0
M  V30 700 H 64.1854 -3.0699 5.23299 0
M  V30 701 H 62.9244 -2.79204 3.99871 0
M  V30 702 H 61.9294 -0.970995 5.41158 0
M  V30 703 H 63.1544 -1.2728 6.67066 0
M  V30 704 H 61.1004 -3.28535 5.67804 0
M  V30 705 H 61.0174 -2.40351 7.16776 0
M  V30 706 H 62.2854 -3.5687 6.93011 0
M  V30 707 N 66.5145 -1.57545 0.0417849 0
M  V30 708 C 67.4465 -2.07904 -0.964799 0
M  V30 709 C 68.4595 -1.00497 -1.28079 0
M  V30 710 O 69.6485 -1.28087 -1.24322 0
M  V30 711 C 66.7485 -2.49928 -2.28887 0
M  V30 712 C 65.9215 -3.80562 -2.15619 0
M  V30 713 C 64.9805 -4.08999 -3.31069 0
M  V30 714 O 64.0065 -4.79061 -3.0739 0
M  V30 715 N 65.2085 -3.6017 -4.55256 0
M  V30 716 H 67.9735 -2.94886 -0.535029 0
M  V30 717 H 65.5345 -1.61252 -0.144681 0
M  V30 718 H 67.5265 -2.66034 -3.04972 0
M  V30 719 H 66.0965 -1.68245 -2.63463 0
M  V30 720 H 65.3165 -3.74129 -1.24183 0
M  V30 721 H 66.6045 -4.66126 -2.03971 0
M  V30 722 H 66.0025 -3.03512 -4.77386 0
M  V30 723 H 64.5595 -3.81532 -5.28466 0
M  V30 724 N 67.9926 0.231505 -1.5589 0
M  V30 725 C 68.9246 1.31006 -1.8807 0
M  V30 726 C 69.9376 1.43539 -0.768145 0
M  V30 727 O 71.1266 1.44614 -1.04638 0
M  V30 728 C 68.2266 2.68688 -2.06543 0
M  V30 729 C 67.3996 2.78228 -3.37502 0
M  V30 730 C 66.4586 3.96857 -3.4553 0
M  V30 731 O 65.4846 3.85662 -4.18633 0
M  V30 732 N 66.6866 5.1072 -2.75944 0
M  V30 733 H 69.4516 1.03731 -2.81176 0
M  V30 734 H 67.0126 0.421573 -1.56315 0
M  V30 735 H 69.0046 3.46412 -2.09239 0
M  V30 736 H 67.5746 2.88605 -1.20109 0
M  V30 737 H 66.7946 1.87059 -3.46991 0
M  V30 738 H 68.0826 2.81564 -4.23791 0
M  V30 739 H 67.4806 5.2271 -2.16311 0
M  V30 740 H 66.0376 5.86523 -2.84314 0
M  V30 741 N 69.4707 1.49531 0.497807 0
M  V30 742 C 70.4177 1.66436 1.59899 0
M  V30 743 C 71.3877 0.505793 1.58212 0
M  V30 744 O 72.5727 0.733202 1.7615 0
M  V30 745 C 69.7127 1.7399 2.98029 0
M  V30 746 C 68.8257 3.01172 3.09708 0
M  V30 747 C 67.9607 2.99686 4.38591 0
M  V30 748 C 66.9997 4.21434 4.43914 0
M  V30 749 N 66.1367 4.1784 5.64229 0
M  V30 750 H 70.9767 2.60459 1.44793 0
M  V30 751 H 68.5137 1.29137 0.704423 0
M  V30 752 H 70.4717 1.76352 3.78095 0
M  V30 753 H 69.1017 0.834301 3.11832 0
M  V30 754 H 68.1537 3.08408 2.22685 0
M  V30 755 H 69.4657 3.91165 3.09502 0
M  V30 756 H 68.6197 3.00628 5.2698 0
M  V30 757 H 67.3587 2.07477 4.41367 0
M  V30 758 H 66.3637 4.20733 3.53926 0
M  V30 759 H 67.5887 5.14839 4.42851 0
M  V30 760 H 65.5347 3.28469 5.67841 0
M  V30 761 H 65.4517 5.01571 5.65652 0
M  V30 762 H 66.7197 4.22889 6.54817 0
M  V30 763 N 70.9488 -0.749086 1.3866 0
M  V30 764 C 71.8588 -1.89358 1.38494 0
M  V30 765 C 72.8748 -1.71708 0.281476 0
M  V30 766 O 74.0508 -1.94554 0.520643 0
M  V30 767 C 71.1158 -3.24782 1.21316 0
M  V30 768 C 70.1768 -3.54926 2.41508 0
M  V30 769 C 69.4098 -4.83888 2.2514 0
M  V30 770 O 69.6328 -5.56592 1.24746 0
M  V30 771 O 68.5668 -5.13612 3.13826 0
M  V30 772 H 72.3928 -1.92452 2.34938 0
M  V30 773 H 69.9778 -0.894981 1.19626 0
M  V30 774 H 71.8598 -4.05739 1.13814 0
M  V30 775 H 70.5348 -3.2249 0.279592 0
M  V30 776 H 69.4418 -2.74112 2.54585 0
M  V30 777 H 70.7748 -3.61983 3.3351 0
M  V30 778 N 72.4269 -1.23603 -0.977757 0
M  V30 779 C 73.6519 -1.09735 -1.75991 0
M  V30 780 C 74.0769 0.346858 -1.84874 0
M  V30 781 O 73.4349 1.25093 -1.3123 0
M  V30 782 C 73.4829 -1.73051 -3.16363 0
M  V30 783 O 72.5869 -0.994452 -4.0023 0
M  V30 784 H 71.9279 -0.384476 -0.541364 0
M  V30 785 H 74.4579 -1.6371 -1.2272 0
M  V30 786 H 74.4679 -1.78398 -3.66931 0
M  V30 787 H 73.1429 -2.78137 -3.09213 0
M  V30 788 H 71.7199 -1.01812 -3.58732 0
M  V30 789 N 73.905 1.17692 -1.04816 0
M  V30 790 C 74.852 2.21581 -0.645797 0
M  V30 791 C 75.822 1.62367 0.350159 0
M  V30 792 O 77.007 1.89254 0.242433 0
M  V30 793 C 74.147 3.45092 -0.0227568 0
M  V30 794 C 73.26 4.18613 -1.06709 0
M  V30 795 C 72.395 5.29602 -0.411767 0
M  V30 796 C 71.434 5.94904 -1.44067 0
M  V30 797 N 70.571 6.97414 -0.809781 0
M  V30 798 H 75.411 2.55353 -1.5362 0
M  V30 799 H 72.948 1.25438 -0.768364 0
M  V30 800 H 74.906 4.15679 0.35588 0
M  V30 801 H 73.536 3.11917 0.831122 0
M  V30 802 H 72.588 3.46779 -1.5636 0
M  V30 803 H 73.9 4.63293 -1.84827 0
M  V30 804 H 73.054 6.06696 0.0206623 0
M  V30 805 H 71.793 4.86045 0.401438 0
M  V30 806 H 70.798 5.16544 -1.88316 0
M  V30 807 H 72.023 6.40542 -2.25571 0
M  V30 808 H 69.969 6.55998 -0.0170186 0
M  V30 809 H 69.886 7.40386 -1.52856 0
M  V30 810 H 71.154 7.78463 -0.401999 0
M  V30 811 N 75.3831 0.828654 1.34056 0
M  V30 812 C 76.3151 0.212052 2.28217 0
M  V30 813 C 77.3281 -0.601362 1.51286 0
M  V30 814 O 78.5171 -0.430104 1.73241 0
M  V30 815 C 75.6171 -0.72088 3.31144 0
M  V30 816 C 74.7901 0.0509587 4.3737 0
M  V30 817 C 73.8491 -0.803766 5.20025 0
M  V30 818 O 72.8751 -0.246667 5.68665 0
M  V30 819 N 74.0771 -2.1227 5.40298 0
M  V30 820 H 76.8421 1.02105 2.81771 0
M  V30 821 H 74.4031 0.686153 1.46641 0
M  V30 822 H 76.3951 -1.29742 3.8334 0
M  V30 823 H 74.9651 -1.43061 2.77943 0
M  V30 824 H 74.1851 0.808831 3.85813 0
M  V30 825 H 75.4731 0.582065 5.0546 0
M  V30 826 H 74.8711 -2.59898 5.02464 0
M  V30 827 H 73.4281 -2.64796 5.95589 0
M  V30 828 N 76.8612 -1.46375 0.584142 0
M  V30 829 C 77.8092 -2.32042 -0.161047 0
M  V30 830 C 78.8032 -1.44569 -0.882966 0
M  V30 831 O 80.0092 -1.61186 -0.801191 0
M  V30 832 H 76.3842 -0.748659 -0.0708033 0
M  V30 833 H 78.3552 -2.92704 0.580269 0
M  V30 834 C 77.1042 -3.27762 -1.1605 0
M  V30 835 H 76.4272 -3.95051 -0.614419 0
M  V30 836 H 77.8672 -3.90481 -1.65228 0
M  V30 837 C 76.3262 -2.53218 -2.22221 0
M  V30 838 O 76.8562 -2.29628 -3.29597 0
M  V30 839 N 75.0622 -2.13756 -1.96868 0
M  V30 840 H 74.6092 -2.33142 -1.09557 0
M  V30 841 H 74.5672 -1.642 -2.68115 0
M  V30 842 N 78.3393 -0.321999 -1.54275 0
M  V30 843 C 79.2693 0.537411 -2.27231 0
M  V30 844 C 80.2503 1.12064 -1.27968 0
M  V30 845 O 81.4353 1.14606 -1.56777 0
M  V30 846 C 78.5653 1.69919 -3.02894 0
M  V30 847 C 77.5193 1.24534 -4.09482 0
M  V30 848 C 76.8453 2.49394 -4.72977 0
M  V30 849 C 78.1453 0.361335 -5.21049 0
M  V30 850 H 79.8393 -0.0711406 -2.99315 0
M  V30 851 H 77.3853 -0.0356555 -1.43956 0
M  V30 852 H 79.3383 2.30668 -3.52662 0
M  V30 853 H 78.0623 2.33431 -2.28424 0
M  V30 854 H 76.7213 0.660782 -3.60596 0
M  V30 855 H 76.3693 3.11265 -3.95124 0
M  V30 856 H 76.0693 2.19718 -5.44975 0
M  V30 857 H 77.5933 3.10908 -5.25517 0
M  V30 858 H 79.0073 0.875072 -5.66582 0
M  V30 859 H 77.4043 0.157428 -5.99893 0
M  V30 860 H 78.4743 -0.60822 -4.8107 0
M  V30 861 N 79.8174 1.5752 -0.0501392 0
M  V30 862 C 80.7654 2.12651 0.942459 0
M  V30 863 C 81.7594 1.05807 1.32292 0
M  V30 864 O 82.9654 1.24217 1.3027 0
M  V30 865 H 79.3404 0.679673 0.321789 0
M  V30 866 H 81.3114 2.94951 0.452356 0
M  V30 867 C 80.0604 2.68565 2.20836 0
M  V30 868 H 79.3834 3.50439 1.92439 0
M  V30 869 H 80.8234 3.10761 2.8845 0
M  V30 870 C 79.2824 1.62291 2.95234 0
M  V30 871 O 79.8124 1.03508 3.88135 0
M  V30 872 N 78.0184 1.33836 2.57946 0
M  V30 873 H 77.5654 1.81826 1.82475 0
M  V30 874 H 77.5234 0.629595 3.08032 0
M  V30 875 N 81.2955 -0.223234 1.56011 0
M  V30 876 C 82.5415 -0.949279 1.79211 0
M  V30 877 C 82.8745 -1.84054 0.619494 0
M  V30 878 O 82.1495 -1.90726 -0.381317 0
M  V30 879 C 82.4325 -1.78965 3.12479 0
M  V30 880 C 82.2855 -0.924997 4.40186 0
M  V30 881 C 83.6045 -2.76774 3.42175 0
M  V30 882 H 80.7235 -0.343676 0.651963 0
M  V30 883 H 83.3655 -0.218253 1.88742 0
M  V30 884 H 81.5155 -2.41291 3.04485 0
M  V30 885 H 83.1875 -0.318615 4.60198 0
M  V30 886 H 81.4305 -0.230344 4.33188 0
M  V30 887 H 82.1015 -1.54735 5.29869 0
M  V30 888 H 84.5775 -2.24584 3.50287 0
M  V30 889 H 83.4535 -3.32678 4.36597 0
M  V30 890 H 83.7145 -3.54429 2.64258 0
M  V30 891 N 82.7736 -1.49793 -0.48987 0
M  V30 892 C 84.0506 -1.50348 -1.25119 0
M  V30 893 C 84.4306 -0.237466 -2.0976 0
M  V30 894 O 83.7786 0.77981 -2.14782 0
M  V30 895 C 83.9886 -2.78872 -2.09837 0
M  V30 896 C 85.3366 -3.288 -2.68655 0
M  V30 897 O 86.3606 -2.80065 -2.20096 0
M  V30 898 O 85.2196 -4.13707 -3.57083 0
M  V30 899 H 82.3136 -0.602242 -0.566775 0
M  V30 900 H 84.8596 -1.62067 -0.503229 0
M  V30 901 H 83.6316 -3.62499 -1.47343 0
M  V30 902 H 83.2546 -2.70066 -2.91805 0
M  V30 903 N 84.2517 0.741722 -1.39055 0
M  V30 904 C 85.1987 1.85566 -1.37237 0
M  V30 905 C 86.1687 1.64457 -0.233072 0
M  V30 906 O 87.3537 1.85957 -0.427147 0
M  V30 907 C 84.4937 3.23004 -1.215 0
M  V30 908 C 83.6067 3.55864 -2.44918 0
M  V30 909 C 82.7417 4.82669 -2.21821 0
M  V30 910 C 81.7807 5.08351 -3.40948 0
M  V30 911 N 80.9177 6.26356 -3.17211 0
M  V30 912 H 85.7577 1.86455 -2.32462 0
M  V30 913 H 83.2947 0.911176 -1.15482 0
M  V30 914 H 85.2527 4.02331 -1.10389 0
M  V30 915 H 83.8827 3.21411 -0.29908 0
M  V30 916 H 82.9347 2.7129 -2.66657 0
M  V30 917 H 84.2467 3.70765 -3.33668 0
M  V30 918 H 83.4007 5.69962 -2.07914 0
M  V30 919 H 82.1397 4.69929 -1.30454 0
M  V30 920 H 81.1447 4.19522 -3.55361 0
M  V30 921 H 82.3697 5.22981 -4.33207 0
M  V30 922 H 80.3157 6.14917 -2.28502 0
M  V30 923 H 80.2327 6.41813 -3.99515 0
M  V30 924 H 81.5007 7.16506 -3.06984 0
M  V30 925 N 85.7298 1.2412 0.971189 0
M  V30 926 C 87.0068 0.986867 1.6888 0
M  V30 927 C 87.3868 -0.491857 2.0529 0
M  V30 928 O 86.7348 -1.46531 1.75331 0
M  V30 929 C 86.9448 1.9063 2.92338 0
M  V30 930 C 88.2928 2.17515 3.64654 0
M  V30 931 O 89.3168 1.88254 3.02388 0
M  V30 932 O 88.1758 2.6719 4.7673 0
M  V30 933 H 85.2698 0.372944 0.738134 0
M  V30 934 H 87.8158 1.35203 1.02559 0
M  V30 935 H 86.5878 2.90552 2.62097 0
M  V30 936 H 86.2108 1.54408 3.66393 0
M  V30 937 N 87.2079 -1.17134 1.05439 0
M  V30 938 C 88.4359 -1.91372 0.786414 0
M  V30 939 C 88.8509 -1.76955 -0.658202 0
M  V30 940 O 88.2079 -1.10838 -1.44987 0
M  V30 941 C 88.2589 -3.42356 1.1608 0
M  V30 942 O 87.9799 -3.56332 2.54871 0
M  V30 943 C 89.4809 -4.33663 0.919322 0
M  V30 944 H 86.7009 -0.607118 0.285743 0
M  V30 945 H 89.2449 -1.48525 1.40572 0
M  V30 946 H 87.3999 -3.82939 0.586191 0
M  V30 947 H 87.8139 -4.49896 2.69618 0
M  V30 948 H 89.2879 -5.38099 1.231 0
M  V30 949 H 89.7649 -4.38959 -0.145359 0
M  V30 950 H 90.3709 -3.98796 1.47789 0
M  V30 951 N 88.686 -0.835752 -1.33615 0
M  V30 952 C 89.914 -0.443344 -2.02094 0
M  V30 953 C 90.329 0.954522 -1.62894 0
M  V30 954 O 89.686 1.61982 -0.840723 0
M  V30 955 C 89.737 -0.550775 -3.5728 0
M  V30 956 O 89.458 -1.89356 -3.95065 0
M  V30 957 C 90.959 -0.154919 -4.43029 0
M  V30 958 H 88.179 -0.176359 -0.647409 0
M  V30 959 H 90.723 -1.12746 -1.70612 0
M  V30 960 H 88.878 0.0853997 -3.87306 0
M  V30 961 H 89.292 -1.87687 -4.89769 0
M  V30 962 H 90.766 -0.281144 -5.51284 0
M  V30 963 H 91.243 0.902863 -4.2982 0
M  V30 964 H 91.849 -0.765404 -4.18356 0
M  V30 965 N 90.1641 1.46063 -0.591896 0
M  V30 966 C 91.0941 2.33172 0.123673 0
M  V30 967 C 92.0751 1.45897 0.87453 0
M  V30 968 O 93.2601 1.74698 0.848181 0
M  V30 969 C 90.3901 3.28336 1.13194 0
M  V30 970 C 89.3441 4.25124 0.495324 0
M  V30 971 C 88.6701 5.09863 1.61071 0
M  V30 972 C 89.9701 5.19143 -0.573425 0
M  V30 973 H 91.6641 2.93252 -0.603646 0
M  V30 974 H 89.2101 1.41014 -0.291741 0
M  V30 975 H 91.1631 3.88137 1.64097 0
M  V30 976 H 89.8871 2.66383 1.88965 0
M  V30 977 H 88.5461 3.66599 0.00729452 0
M  V30 978 H 88.1941 4.44288 2.35832 0
M  V30 979 H 87.8941 5.75417 1.19035 0
M  V30 980 H 89.4181 5.72529 2.12233 0
M  V30 981 H 90.8321 5.73106 -0.1491 0
M  V30 982 H 89.2291 5.93089 -0.914636 0
M  V30 983 H 90.2991 4.62519 -1.45617 0
M  V30 984 N 91.6422 0.330177 1.54103 0
M  V30 985 C 93.0532 -0.15652 1.86043 0
M  V30 986 C 93.4042 -1.51086 1.2517 0
M  V30 987 O 92.5292 -2.09023 0.560217 0
M  V30 988 C 93.1242 -0.290784 3.3755 0
M  V30 989 C 91.6832 -0.721705 3.69416 0
M  V30 990 C 90.8302 0.152622 2.7688 0
M  V30 991 H 93.7812 0.550237 1.48856 0
M  V30 992 H 93.8022 -1.12058 3.63625 0
M  V30 993 H 93.3142 0.695068 3.81825 0
M  V30 994 H 91.4152 -1.71706 3.30678 0
M  V30 995 H 91.5282 -0.520869 4.7626 0
M  V30 996 H 89.8922 -0.372894 2.51956 0
M  V30 997 H 90.6752 1.13536 3.23982 0
M  V30 998 N 93.1203 -1.57491 0.0584922 0
M  V30 999 C 94.0833 -2.1085 -0.898617 0
M  V30 1000 C 95.0833 -1.02964 -1.23511 0
M  V30 1001 O 96.2733 -1.29007 -1.17059 0
M  V30 1002 C 93.4053 -2.59881 -2.20623 0
M  V30 1003 H 94.5983 -2.96715 -0.435936 0
M  V30 1004 H 92.1513 -1.55141 -0.190023 0
M  V30 1005 H 92.8863 -1.77431 -2.71457 0
M  V30 1006 H 92.6713 -3.38727 -1.97501 0
M  V30 1007 H 94.1613 -3.01285 -2.89166 0
M  V30 1008 N 94.5984 0.214957 -1.56127 0
M  V30 1009 C 95.8234 0.95924 -1.83884 0
M  V30 1010 C 96.2484 1.7689 -0.639644 0
M  V30 1011 O 95.6064 1.76566 0.411601 0
M  V30 1012 C 95.6544 1.84723 -3.09693 0
M  V30 1013 O 94.7584 2.94346 -2.8885 0
M  V30 1014 H 94.0994 0.27125 -0.606069 0
M  V30 1015 H 96.6294 0.226276 -2.03345 0
M  V30 1016 H 96.6394 2.25576 -3.39969 0
M  V30 1017 H 95.3144 1.25218 -3.96602 0
M  V30 1018 H 93.8914 2.57391 -2.69823 0
M  V30 1019 N 96.0765 1.50051 0.48192 0
M  V30 1020 C 97.0395 1.67584 1.5636 0
M  V30 1021 C 98.0395 0.546894 1.51214 0
M  V30 1022 O 99.2295 0.813725 1.54026 0
M  V30 1023 C 96.3615 1.691 2.96003 0
M  V30 1024 H 97.5545 2.64078 1.42136 0
M  V30 1025 H 95.1075 1.39369 0.707533 0
M  V30 1026 H 95.8425 0.742589 3.15684 0
M  V30 1027 H 95.6275 2.51105 3.01146 0
M  V30 1028 H 97.1175 1.84656 3.74556 0
M  V30 1029 N 97.5546 -0.734337 1.39446 0
M  V30 1030 C 98.9706 -1.03997 1.21065 0
M  V30 1031 C 99.1706 -2.01369 0.0727019 0
M  V30 1032 O 98.2266 -2.45856 -0.575426 0
M  V30 1033 C 99.5396 -1.60163 2.54496 0
M  V30 1034 C 101.088 -1.7224 2.61347 0
M  V30 1035 C 101.563 -2.31814 3.95002 0
M  V30 1036 N 103.054 -2.39223 3.96644 0
M  V30 1037 C 103.789 -2.86258 4.96834 0
M  V30 1038 N 103.285 -3.33184 6.07421 0
M  V30 1039 N 105.078 -2.85473 4.84213 0
M  V30 1040 H 97.2286 -0.0885624 2.12215 0
M  V30 1041 H 99.4916 -0.10191 0.942506 0
M  V30 1042 H 99.1976 -0.960811 3.38321 0
M  V30 1043 H 99.0716 -2.5896 2.74262 0
M  V30 1044 H 101.459 -2.35443 1.77906 0
M  V30 1045 H 101.54 -0.720939 2.4543 0
M  V30 1046 H 101.184 -1.69238 4.78875 0
M  V30 1047 H 101.114 -3.32638 4.08239 0
M  V30 1048 H 103.605 -2.06057 3.16779 0
M  V30 1049 H 103.918 -3.67586 6.7978 0
M  V30 1050 H 102.263 -3.31191 6.11013 0
M  V30 1051 H 105.454 -2.48136 3.96921 0
M  V30 1052 H 105.627 -3.21814 5.62441 0
M  V30 1053 N 99.0327 -1.24633 -0.964593 0
M  V30 1054 C 99.9797 -1.04144 -2.05968 0
M  V30 1055 C 100.95 0.046262 -1.66036 0
M  V30 1056 O 102.135 -0.108972 -1.90489 0
M  V30 1057 C 99.2747 -0.65563 -3.38815 0
M  V30 1058 C 98.3877 -1.81714 -3.91923 0
M  V30 1059 C 97.5227 -1.37662 -5.13052 0
M  V30 1060 C 96.5617 -2.50788 -5.58365 0
M  V30 1061 N 95.6987 -2.07582 -6.70712 0
M  V30 1062 H 100.539 -1.9787 -2.22827 0
M  V30 1063 H 98.0757 -0.9855 -1.09208 0
M  V30 1064 H 100.034 -0.412954 -4.15151 0
M  V30 1065 H 98.6637 0.244627 -3.21872 0
M  V30 1066 H 97.7157 -2.1734 -3.12198 0
M  V30 1067 H 99.0277 -2.66705 -4.21509 0
M  V30 1068 H 98.1817 -1.093 -5.96773 0
M  V30 1069 H 96.9207 -0.497293 -4.85158 0
M  V30 1070 H 95.9257 -2.79906 -4.73215 0
M  V30 1071 H 97.1507 -3.39283 -5.88272 0
M  V30 1072 H 95.0967 -1.22051 -6.44546 0
M  V30 1073 H 95.0137 -2.86125 -6.99763 0
M  V30 1074 H 96.2817 -1.82369 -7.57867 0
M  V30 1075 N 100.511 1.16574 -1.06058 0
M  V30 1076 C 101.757 1.87324 -0.777022 0
M  V30 1077 C 102.09 1.81351 0.694645 0
M  V30 1078 O 101.365 1.22753 1.50871 0
M  V30 1079 C 101.648 3.36991 -1.26922 0
M  V30 1080 C 101.501 3.51667 -2.80447 0
M  V30 1081 C 102.82 4.3131 -0.87521 0
M  V30 1082 H 99.9388 0.680191 -0.28374 0
M  V30 1083 H 102.581 1.37036 -1.3161 0
M  V30 1084 H 100.731 3.79949 -0.81063 0
M  V30 1085 H 102.403 3.17664 -3.34495 0
M  V30 1086 H 100.646 2.93656 -3.19294 0
M  V30 1087 H 101.317 4.56766 -3.0995 0
M  V30 1088 H 103.793 3.9624 -1.27014 0
M  V30 1089 H 102.669 5.34545 -1.2471 0
M  V30 1090 H 102.93 4.41552 0.220071 0
M  V30 1091 N 101.989 0.842826 1.3317 0
M  V30 1092 C 102.936 0.276885 2.29133 0
M  V30 1093 C 103.906 -0.609527 1.54512 0
M  V30 1094 O 105.091 -0.546955 1.82792 0
M  V30 1095 C 102.231 -0.538707 3.40869 0
M  V30 1096 C 101.344 0.372169 4.30394 0
M  V30 1097 C 100.479 -0.454908 5.29249 0
M  V30 1098 C 99.5179 0.45411 6.10413 0
M  V30 1099 N 98.6549 -0.335075 7.013 0
M  V30 1100 H 103.495 1.10052 2.76934 0
M  V30 1101 H 101.032 0.554161 1.36262 0
M  V30 1102 H 102.99 -1.02709 4.0436 0
M  V30 1103 H 101.62 -1.32727 2.9425 0
M  V30 1104 H 100.672 0.97888 3.6759 0
M  V30 1105 H 101.984 1.0703 4.87182 0
M  V30 1106 H 101.138 -1.00695 5.98285 0
M  V30 1107 H 99.8769 -1.18646 4.73048 0
M  V30 1108 H 98.8819 1.01813 5.40291 0
M  V30 1109 H 100.107 1.18409 6.68697 0
M  V30 1110 H 98.0529 -1.04994 6.47543 0
M  V30 1111 H 97.9699 0.304262 7.55387 0
M  V30 1112 H 99.2379 -0.869224 7.74638 0
M  V30 1113 N 103.467 -1.45747 0.599634 0
M  V30 1114 C 104.692 -2.07178 0.0960198 0
M  V30 1115 C 105.117 -1.44268 -1.207 0
M  V30 1116 O 104.475 -0.532503 -1.73303 0
M  V30 1117 C 104.523 -3.60579 -0.0385348 0
M  V30 1118 O 103.627 -3.97713 -1.0908 0
M  V30 1119 H 102.968 -0.660251 0.0704593 0
M  V30 1120 H 105.498 -1.87124 0.827385 0
M  V30 1121 H 105.508 -4.07298 -0.239304 0
M  V30 1122 H 104.183 -4.05756 0.912947 0
M  V30 1123 H 102.76 -3.62678 -0.867135 0
M  V30 1124 N 104.945 -0.338344 -1.53925 0
M  V30 1125 C 106.17 0.263987 -2.05713 0
M  V30 1126 C 106.595 1.43847 -1.21201 0
M  V30 1127 O 105.953 1.79904 -0.224535 0
M  V30 1128 C 106.001 0.662 -3.54471 0
M  V30 1129 O 105.105 1.76265 -3.72833 0
M  V30 1130 H 104.446 0.0448722 -0.662482 0
M  V30 1131 H 106.976 -0.491048 -1.9862 0
M  V30 1132 H 106.986 0.940594 -3.9701 0
M  V30 1133 H 105.661 -0.196937 -4.15433 0
M  V30 1134 H 104.238 1.48173 -3.42198 0
M  V30 1135 N 106.423 1.57458 -0.0668435 0
M  V30 1136 C 107.333 2.15937 0.916975 0
M  V30 1137 C 108.349 1.12123 1.33058 0
M  V30 1138 O 109.525 1.44366 1.40429 0
M  V30 1139 C 106.59 2.70547 2.16807 0
M  V30 1140 C 105.651 3.89215 1.81135 0
M  V30 1141 C 104.884 4.41211 3.0028 0
M  V30 1142 O 105.107 3.92225 4.14144 0
M  V30 1143 O 104.041 5.32605 2.80384 0
M  V30 1144 H 107.867 3.00354 0.449561 0
M  V30 1145 H 105.452 1.48584 0.155949 0
M  V30 1146 H 107.334 3.0557 2.90181 0
M  V30 1147 H 106.009 1.89192 2.62656 0
M  V30 1148 H 104.916 3.59054 1.05028 0
M  V30 1149 H 106.249 4.71848 1.40073 0
M  V30 1150 N 107.901 -0.206675 1.56239 0
M  V30 1151 C 109.126 -0.949474 1.8439 0
M  V30 1152 C 109.551 -1.76549 0.649016 0
M  V30 1153 O 108.909 -1.76782 -0.402231 0
M  V30 1154 C 108.957 -1.83078 3.10668 0
M  V30 1155 O 108.061 -2.9281 2.90407 0
M  V30 1156 H 107.402 -0.268033 0.607499 0
M  V30 1157 H 109.932 -0.215488 2.03462 0
M  V30 1158 H 109.942 -2.2377 3.41161 0
M  V30 1159 H 108.617 -1.23112 3.97261 0
M  V30 1160 H 107.194 -2.55956 2.71184 0
M  V30 1161 N 109.379 -1.50304 -0.473955 0
M  V30 1162 C 110.326 -1.68959 -1.57231 0
M  V30 1163 C 111.296 -0.530899 -1.57387 0
M  V30 1164 O 112.481 -0.761133 -1.74961 0
M  V30 1165 C 109.621 -1.7871 -2.95223 0
M  V30 1166 C 108.734 -3.06061 -3.04878 0
M  V30 1167 C 107.869 -3.06626 -4.33767 0
M  V30 1168 C 106.908 -4.28443 -4.37154 0
M  V30 1169 N 106.045 -4.26763 -5.5751 0
M  V30 1170 H 110.885 -2.6273 -1.40631 0
M  V30 1171 H 108.422 -1.30241 -0.683789 0
M  V30 1172 H 110.38 -1.82344 -3.75242 0
M  V30 1173 H 109.01 -0.883806 -3.10465 0
M  V30 1174 H 108.062 -3.11911 -2.17751 0
M  V30 1175 H 109.374 -3.96039 -3.0324 0
M  V30 1176 H 108.528 -3.08973 -5.22131 0
M  V30 1177 H 107.267 -2.14473 -4.3801 0
M  V30 1178 H 106.272 -4.2631 -3.47188 0
M  V30 1179 H 107.497 -5.2182 -4.34605 0
M  V30 1180 H 105.443 -3.37462 -5.62544 0
M  V30 1181 H 105.36 -5.10507 -5.57601 0
M  V30 1182 H 106.628 -4.33253 -6.48006 0
M  V30 1183 N 110.857 0.726932 -1.39834 0
M  V30 1184 C 111.767 1.87131 -1.41489 0
M  V30 1185 C 112.783 1.71239 -0.308757 0
M  V30 1186 O 113.959 1.93701 -0.551529 0
M  V30 1187 C 111.024 3.22811 -1.26468 0
M  V30 1188 C 110.085 3.51039 -2.47124 0
M  V30 1189 C 109.318 4.80245 -2.3281 0
M  V30 1190 O 109.541 5.54537 -1.33585 0
M  V30 1191 O 108.475 5.08554 -3.21957 0
M  V30 1192 H 112.301 1.8869 -2.3797 0
M  V30 1193 H 109.886 0.875837 -1.21035 0
M  V30 1194 H 111.768 4.03877 -1.20255 0
M  V30 1195 H 110.443 3.22005 -0.330862 0
M  V30 1196 H 109.35 2.70027 -2.58914 0
M  V30 1197 H 110.683 3.56632 -3.39227 0
M  V30 1198 N 112.336 1.25143 0.95797 0
M  V30 1199 C 113.561 1.12521 1.74223 0
M  V30 1200 C 113.986 -0.317402 1.85403 0
M  V30 1201 O 113.344 -1.2299 1.33204 0
M  V30 1202 C 113.392 1.78062 3.1357 0
M  V30 1203 O 112.496 1.058 3.98598 0
M  V30 1204 H 111.837 0.39304 0.535178 0
M  V30 1205 H 114.367 1.65641 1.201 0
M  V30 1206 H 114.377 1.84213 3.64046 0
M  V30 1207 H 113.052 2.83021 3.04749 0
M  V30 1208 H 111.629 1.07506 3.57067 0
M  V30 1209 N 113.814 -1.1601 1.06675 0
M  V30 1210 C 114.746 -2.20115 0.638921 0
M  V30 1211 C 115.759 -1.59916 -0.305057 0
M  V30 1212 O 116.948 -1.78245 -0.0954446 0
M  V30 1213 C 114.048 -3.38798 -0.0830083 0
M  V30 1214 C 113.221 -4.2855 0.875426 0
M  V30 1215 C 112.28 -5.25849 0.192042 0
M  V30 1216 O 111.306 -5.63102 0.830921 0
M  V30 1217 N 112.508 -5.70648 -1.06493 0
M  V30 1218 H 115.273 -2.57439 1.53444 0
M  V30 1219 H 112.834 -1.31057 0.950557 0
M  V30 1220 H 114.826 -4.00936 -0.550685 0
M  V30 1221 H 113.396 -2.99947 -0.880386 0
M  V30 1222 H 112.616 -3.63617 1.52238 0
M  V30 1223 H 113.904 -4.85393 1.52548 0
M  V30 1224 H 113.302 -5.42482 -1.60405 0
M  V30 1225 H 111.859 -6.34859 -1.47641 0
M  V30 1226 N 115.292 -0.849877 -1.32721 0
M  V30 1227 C 116.239 -0.289033 -2.28983 0
M  V30 1228 C 117.209 0.601324 -1.54833 0
M  V30 1229 O 118.394 0.537253 -1.8308 0
M  V30 1230 C 115.534 0.520623 -3.4115 0
M  V30 1231 C 114.647 -0.394989 -4.3019 0
M  V30 1232 C 113.782 0.426834 -5.29482 0
M  V30 1233 C 112.821 -0.486476 -6.10164 0
M  V30 1234 N 111.958 0.297879 -7.01468 0
M  V30 1235 H 116.798 -1.11519 -2.76347 0
M  V30 1236 H 114.335 -0.56138 -1.35967 0
M  V30 1237 H 116.293 1.00563 -4.04899 0
M  V30 1238 H 114.923 1.31165 -2.9495 0
M  V30 1239 H 113.975 -0.99836 -3.67065 0
M  V30 1240 H 115.287 -1.09612 -4.86607 0
M  V30 1241 H 114.441 0.975205 -5.98811 0
M  V30 1242 H 113.18 1.16136 -4.73671 0
M  V30 1243 H 112.185 -1.04677 -5.39743 0
M  V30 1244 H 113.41 -1.21953 -6.6806 0
M  V30 1245 H 111.356 1.01558 -6.48091 0
M  V30 1246 H 111.273 -0.344318 -7.55216 0
M  V30 1247 H 112.541 0.828131 -7.75089 0
M  V30 1248 N 116.77 1.45427 -0.607355 0
M  V30 1249 C 117.718 2.32269 0.12411 0
M  V30 1250 C 118.712 1.45955 0.859854 0
M  V30 1251 O 119.918 1.6244 0.775447 0
M  V30 1252 H 116.293 0.749691 0.0588839 0
M  V30 1253 H 118.264 2.91743 -0.626762 0
M  V30 1254 C 117.013 3.29567 1.1082 0
M  V30 1255 H 116.336 3.95978 0.551492 0
M  V30 1256 H 117.776 3.93061 1.58995 0
M  V30 1257 C 116.235 2.56722 2.18164 0
M  V30 1258 O 116.765 2.34842 3.25902 0
M  V30 1259 N 114.971 2.16861 1.93442 0
M  V30 1260 H 114.518 2.34855 1.05834 0
M  V30 1261 H 114.476 1.68444 2.65469 0
M  V30 1262 N 118.248 0.346503 1.53744 0
M  V30 1263 C 119.525 -0.304532 1.93215 0
M  V30 1264 C 119.905 -1.67993 1.27834 0
M  V30 1265 O 119.253 -2.24411 0.430352 0
M  V30 1266 C 119.463 -0.373852 3.46992 0
M  V30 1267 C 120.811 -0.62329 4.2 0
M  V30 1268 O 121.835 -0.455847 3.53271 0
M  V30 1269 O 120.694 -0.947879 5.38217 0
M  V30 1270 H 117.788 -0.178318 0.807547 0
M  V30 1271 H 120.334 0.397895 1.64969 0
M  V30 1272 H 119.106 0.591224 3.86808 0
M  V30 1273 H 118.729 -1.12294 3.81413 0
M  V30 1274 N 119.726 -1.57421 0.075193 0
M  V30 1275 C 120.673 -2.12915 -0.890843 0
M  V30 1276 C 121.643 -1.04252 -1.29309 0
M  V30 1277 O 122.828 -1.31933 -1.37834 0
M  V30 1278 C 119.968 -2.69795 -2.15186 0
M  V30 1279 C 119.081 -3.92624 -1.80194 0
M  V30 1280 C 118.216 -4.37736 -3.00933 0
M  V30 1281 C 117.255 -5.53205 -2.61974 0
M  V30 1282 N 116.392 -5.9326 -3.75483 0
M  V30 1283 H 121.232 -2.95156 -0.410735 0
M  V30 1284 H 118.769 -1.45854 -0.191086 0
M  V30 1285 H 120.727 -3.00883 -2.89008 0
M  V30 1286 H 119.357 -1.90313 -2.60731 0
M  V30 1287 H 118.409 -3.67977 -0.964218 0
M  V30 1288 H 119.721 -4.76482 -1.47534 0
M  V30 1289 H 118.875 -4.70503 -3.8303 0
M  V30 1290 H 117.614 -3.52739 -3.36789 0
M  V30 1291 H 116.619 -5.20086 -1.783 0
M  V30 1292 H 117.844 -6.39936 -2.27284 0
M  V30 1293 H 115.79 -5.11212 -4.11094 0
M  V30 1294 H 115.707 -6.71865 -3.46602 0
M  V30 1295 H 116.975 -6.30651 -4.58148 0
M  V30 1296 N 121.204 0.198386 -1.56346 0
M  V30 1297 C 122.481 0.944982 -1.71258 0
M  V30 1298 C 122.861 2.0151 -0.629048 0
M  V30 1299 O 122.209 2.25639 0.360473 0
M  V30 1300 C 122.419 1.5344 -3.1346 0
M  V30 1301 C 123.767 2.01778 -3.73591 0
M  V30 1302 O 124.791 1.63288 -3.16568 0
M  V30 1303 O 123.65 2.72594 -4.73661 0
M  V30 1304 H 120.744 0.442939 -0.69838 0
M  V30 1305 H 123.29 0.188342 -1.68652 0
M  V30 1306 H 122.062 0.762869 -3.83792 0
M  V30 1307 H 121.685 2.35596 -3.20282 0
M  V30 1308 N 122.682 1.50554 0.465978 0
M  V30 1309 C 123.612 1.72722 1.57128 0
M  V30 1310 C 124.593 0.576294 1.6004 0
M  V30 1311 O 125.778 0.81598 1.76225 0
M  V30 1312 C 122.908 1.82605 2.95419 0
M  V30 1313 C 121.862 2.97835 3.07373 0
M  V30 1314 C 121.188 2.92867 4.47363 0
M  V30 1315 C 122.488 4.38265 2.84114 0
M  V30 1316 H 124.182 2.65267 1.38829 0
M  V30 1317 H 121.728 1.2765 0.666441 0
M  V30 1318 H 123.681 1.96698 3.72677 0
M  V30 1319 H 122.405 0.866858 3.14886 0
M  V30 1320 H 121.064 2.83401 2.3255 0
M  V30 1321 H 120.712 1.94783 4.63755 0
M  V30 1322 H 120.412 3.70227 4.56296 0
M  V30 1323 H 121.936 3.09015 5.26633 0
M  V30 1324 H 123.35 4.53198 3.51118 0
M  V30 1325 H 121.747 5.17115 3.04487 0
M  V30 1326 H 122.817 4.50281 1.7993 0
M  V30 1327 N 124.16 -0.719506 1.40217 0
M  V30 1328 C 125.107 -1.83359 1.40172 0
M  V30 1329 C 126.077 -1.64065 0.259206 0
M  V30 1330 O 127.262 -1.85254 0.456677 0
M  V30 1331 C 124.402 -3.2103 1.26624 0
M  V30 1332 C 123.515 -3.51923 2.50548 0
M  V30 1333 C 122.65 -4.79079 2.29471 0
M  V30 1334 C 121.689 -5.02863 3.48992 0
M  V30 1335 N 120.826 -6.2123 3.27135 0
M  V30 1336 H 125.666 -1.82733 2.35399 0
M  V30 1337 H 123.203 -0.892688 1.16917 0
M  V30 1338 H 125.161 -4.00524 1.16776 0
M  V30 1339 H 123.791 -3.20895 0.350176 0
M  V30 1340 H 122.843 -2.67014 2.70939 0
M  V30 1341 H 124.155 -3.6541 3.39525 0
M  V30 1342 H 123.309 -5.66582 2.16955 0
M  V30 1343 H 122.048 -4.67794 1.37913 0
M  V30 1344 H 121.053 -4.13816 3.6199 0
M  V30 1345 H 122.278 -5.16023 4.41472 0
M  V30 1346 H 120.224 -6.11204 2.38256 0
M  V30 1347 H 120.141 -6.35375 4.09675 0
M  V30 1348 H 121.409 -7.11532 3.18344 0
M  V30 1349 N 125.638 -1.25649 -0.95132 0
M  V30 1350 C 126.887 -1.09988 -1.69073 0
M  V30 1351 C 127.2 0.358355 -1.92289 0
M  V30 1352 O 128.406 0.635466 -2.63958 0
M  V30 1353 C 126.862 -1.92012 -3.044 0
M  V30 1354 C 126.47 -3.42347 -2.88968 0
M  V30 1355 C 128.214 -1.8493 -3.82101 0
M  V30 1356 C 126.121 -4.16655 -4.19705 0
M  V30 1357 H 125.051 -0.407993 -0.63408 0
M  V30 1358 H 127.702 -1.49873 -1.05879 0
M  V30 1359 H 126.084 -1.44952 -3.68517 0
M  V30 1360 H 127.258 -3.97104 -2.33762 0
M  V30 1361 H 125.573 -3.50557 -2.24719 0
M  V30 1362 H 128.17 -2.37739 -4.78941 0
M  V30 1363 H 128.513 -0.817883 -4.08187 0
M  V30 1364 H 129.046 -2.29758 -3.2474 0
M  V30 1365 H 125.785 -5.20224 -3.98807 0
M  V30 1366 H 125.305 -3.66681 -4.74663 0
M  V30 1367 H 126.984 -4.24551 -4.88227 0
M  V30 1368 N 127.117 1.15442 -1.07289 0
M  V30 1369 C 128.047 2.22312 -0.714107 0
M  V30 1370 C 129.028 1.67467 0.298155 0
M  V30 1371 O 130.213 1.93445 0.171048 0
M  V30 1372 C 127.343 3.47124 -0.110448 0
M  V30 1373 C 126.297 4.14926 -1.04979 0
M  V30 1374 C 125.623 5.33807 -0.308924 0
M  V30 1375 C 126.923 4.64762 -2.38314 0
M  V30 1376 H 128.617 2.5258 -1.6076 0
M  V30 1377 H 126.163 1.21404 -0.77441 0
M  V30 1378 H 128.116 4.21124 0.152482 0
M  V30 1379 H 126.84 3.16187 0.81812 0
M  V30 1380 H 125.499 3.42866 -1.29764 0
M  V30 1381 H 125.147 4.99126 0.623084 0
M  V30 1382 H 124.847 5.80113 -0.935036 0
M  V30 1383 H 126.371 6.10576 -0.0537771 0
M  V30 1384 H 127.785 5.30292 -2.1786 0
M  V30 1385 H 126.182 5.21728 -2.96514 0
M  V30 1386 H 127.252 3.80434 -3.00663 0
M  V30 1387 N 128.595 0.856903 1.32268 0
M  V30 1388 C 129.505 0.306131 2.32594 0
M  V30 1389 C 130.521 -0.577209 1.64147 0
M  V30 1390 O 131.697 -0.477043 1.95669 0
M  V30 1391 C 128.762 -0.494561 3.43154 0
M  V30 1392 C 127.823 0.415186 4.27288 0
M  V30 1393 C 127.056 -0.347387 5.32568 0
M  V30 1394 O 127.279 -1.57708 5.48165 0
M  V30 1395 O 126.213 0.287982 6.01211 0
M  V30 1396 H 130.039 1.13737 2.81598 0
M  V30 1397 H 127.624 0.619902 1.35932 0
M  V30 1398 H 129.506 -0.948944 4.10576 0
M  V30 1399 H 128.181 -1.30257 2.96336 0
M  V30 1400 H 127.088 0.917793 3.62667 0
M  V30 1401 H 128.421 1.18844 4.77637 0
M  V30 1402 N 130.073 -1.45103 0.615059 0
M  V30 1403 C 131.02 -2.30586 -0.0993978 0
M  V30 1404 C 131.99 -1.42544 -0.852669 0
M  V30 1405 O 133.175 -1.71465 -0.836917 0
M  V30 1406 C 130.315 -3.27572 -1.08583 0
M  V30 1407 C 129.428 -4.30717 -0.332656 0
M  V30 1408 C 128.563 -5.14807 -1.30947 0
M  V30 1409 C 127.602 -6.09673 -0.544538 0
M  V30 1410 N 126.739 -6.86517 -1.47101 0
M  V30 1411 H 131.579 -2.91144 0.635542 0
M  V30 1412 H 129.116 -1.4346 0.325206 0
M  V30 1413 H 131.074 -3.82276 -1.67095 0
M  V30 1414 H 129.704 -2.68751 -1.78809 0
M  V30 1415 H 128.756 -3.78615 0.368107 0
M  V30 1416 H 130.068 -4.98102 0.263842 0
M  V30 1417 H 129.222 -5.73948 -1.96643 0
M  V30 1418 H 127.961 -4.47458 -1.9399 0
M  V30 1419 H 126.966 -5.49656 0.126003 0
M  V30 1420 H 128.191 -6.79052 0.080947 0
M  V30 1421 H 126.137 -6.21851 -2.08895 0
M  V30 1422 H 126.054 -7.50281 -0.928137 0
M  V30 1423 H 127.322 -7.50194 -2.11731 0
M  V30 1424 N 131.551 -0.354651 -1.53558 0
M  V30 1425 C 132.461 0.50515 -2.29097 0
M  V30 1426 C 133.477 1.10223 -1.34636 0
M  V30 1427 O 134.653 1.11553 -1.67684 0
M  V30 1428 C 131.718 1.63479 -3.05738 0
M  V30 1429 C 130.779 1.06636 -4.15845 0
M  V30 1430 C 130.012 2.14217 -4.88822 0
M  V30 1431 O 130.235 3.35137 -4.61562 0
M  V30 1432 O 129.169 1.77887 -5.75013 0
M  V30 1433 H 132.995 -0.109237 -3.03503 0
M  V30 1434 H 130.58 -0.119357 -1.48922 0
M  V30 1435 H 132.462 2.2918 -3.5363 0
M  V30 1436 H 131.137 2.23478 -2.34178 0
M  V30 1437 H 130.044 0.373565 -3.7223 0
M  V30 1438 H 131.377 0.511081 -4.89539 0
M  V30 1439 N 133.029 1.57378 -0.0835403 0
M  V30 1440 C 134.278 1.93106 0.582498 0
M  V30 1441 C 134.591 0.96651 1.70053 0
M  V30 1442 O 135.797 1.21705 2.42693 0
M  V30 1443 C 134.253 3.43076 1.08751 0
M  V30 1444 C 133.861 4.48 -0.000146404 0
M  V30 1445 C 135.605 3.87785 1.72694 0
M  V30 1446 C 133.512 5.89113 0.519568 0
M  V30 1447 H 132.442 0.720775 0.221358 0
M  V30 1448 H 135.093 1.82821 -0.157675 0
M  V30 1449 H 133.475 3.48474 1.88101 0
M  V30 1450 H 134.649 4.54233 -0.775199 0
M  V30 1451 H 132.964 4.1283 -0.54406 0
M  V30 1452 H 135.561 4.90604 2.1263 0
M  V30 1453 H 135.904 3.25796 2.59158 0
M  V30 1454 H 136.437 3.8504 0.999457 0
M  V30 1455 H 133.176 6.54775 -0.308186 0
M  V30 1456 H 132.696 5.86376 1.26188 0
M  V30 1457 H 134.375 6.39346 0.992237 0
M  V30 1458 N 134.507 -0.190092 1.56449 0
M  V30 1459 C 135.923 -0.54113 1.50146 0
M  V30 1460 C 136.123 -1.85603 0.784465 0
M  V30 1461 O 135.179 -2.5024 0.337051 0
M  V30 1462 C 136.492 -0.591241 2.9483 0
M  V30 1463 C 138.04 -0.679732 3.0553 0
M  V30 1464 C 138.515 -0.760908 4.51635 0
M  V30 1465 N 140.006 -0.824302 4.55806 0
M  V30 1466 C 140.741 -0.907365 5.66175 0
M  V30 1467 N 140.237 -0.952422 6.86222 0
M  V30 1468 N 142.03 -0.94494 5.541 0
M  V30 1469 H 134.181 0.67235 2.01478 0
M  V30 1470 H 136.444 0.240127 0.917084 0
M  V30 1471 H 136.15 0.305905 3.50367 0
M  V30 1472 H 136.024 -1.44422 3.48457 0
M  V30 1473 H 138.411 -1.56731 2.50039 0
M  V30 1474 H 138.492 0.199549 2.5502 0
M  V30 1475 H 138.136 0.122336 5.07753 0
M  V30 1476 H 138.066 -1.65606 4.99882 0
M  V30 1477 H 140.557 -0.798526 3.69367 0
M  V30 1478 H 140.87 -1.01645 7.66086 0
M  V30 1479 H 139.215 -0.921014 6.8887 0
M  V30 1480 H 142.406 -0.906612 4.59236 0
M  V30 1481 H 142.579 -1.00622 6.4014 0
M  V30 1482 N 135.985 -1.50799 -0.457987 0
M  V30 1483 C 137.231 -1.62683 -1.21088 0
M  V30 1484 C 137.564 -0.332268 -1.91336 0
M  V30 1485 O 136.839 0.667043 -1.82704 0
M  V30 1486 C 137.122 -2.81615 -2.24422 0
M  V30 1487 C 136.975 -4.20989 -1.58392 0
M  V30 1488 C 138.294 -2.96085 -3.2561 0
M  V30 1489 H 135.413 -0.592087 -0.438864 0
M  V30 1490 H 138.055 -1.83225 -0.50286 0
M  V30 1491 H 136.205 -2.64231 -2.84806 0
M  V30 1492 H 137.877 -4.49994 -1.01504 0
M  V30 1493 H 136.12 -4.24641 -0.886704 0
M  V30 1494 H 136.791 -5.0016 -2.33547 0
M  V30 1495 H 139.267 -3.12042 -2.75262 0
M  V30 1496 H 138.143 -3.80902 -3.95228 0
M  V30 1497 H 138.404 -2.0726 -3.90507 0
M  V30 1498 N 137.463 0.71206 -1.40597 0
M  V30 1499 C 138.393 1.83889 -1.43899 0
M  V30 1500 C 139.374 1.67442 -0.299504 0
M  V30 1501 O 140.559 1.87421 -0.508624 0
M  V30 1502 C 137.689 3.21877 -1.30431 0
M  V30 1503 C 136.643 3.53002 -2.42019 0
M  V30 1504 C 135.969 4.90172 -2.13626 0
M  V30 1505 C 137.269 3.53643 -3.84362 0
M  V30 1506 H 138.963 1.81383 -2.38203 0
M  V30 1507 H 136.509 0.871237 -1.14654 0
M  V30 1508 H 138.462 4.00404 -1.31357 0
M  V30 1509 H 137.186 3.24968 -0.326049 0
M  V30 1510 H 135.845 2.76818 -2.40349 0
M  V30 1511 H 135.493 4.89869 -1.14182 0
M  V30 1512 H 135.193 5.11962 -2.88389 0
M  V30 1513 H 136.717 5.71028 -2.1624 0
M  V30 1514 H 138.131 4.22203 -3.87837 0
M  V30 1515 H 136.528 3.86961 -4.58673 0
M  V30 1516 H 137.598 2.52954 -4.13693 0
M  V30 1517 N 138.941 1.26152 0.944643 0
M  V30 1518 C 139.871 1.09902 2.06019 0
M  V30 1519 C 140.852 0.00519538 1.70099 0
M  V30 1520 O 142.037 0.176583 1.93396 0
M  V30 1521 C 139.167 0.727562 3.39594 0
M  V30 1522 C 138.121 1.77274 3.89561 0
M  V30 1523 C 137.447 1.25569 5.19747 0
M  V30 1524 C 138.747 3.17357 4.14827 0
M  V30 1525 H 140.441 2.03217 2.19871 0
M  V30 1526 H 137.987 0.978452 1.05652 0
M  V30 1527 H 139.94 0.600777 4.17095 0
M  V30 1528 H 138.664 -0.241287 3.25707 0
M  V30 1529 H 137.323 1.88814 3.14237 0
M  V30 1530 H 136.971 0.276783 5.02238 0
M  V30 1531 H 136.671 1.95433 5.54148 0
M  V30 1532 H 138.195 1.1415 5.99835 0
M  V30 1533 H 139.609 3.08914 4.82954 0
M  V30 1534 H 138.006 3.84781 4.60504 0
M  V30 1535 H 139.076 3.63673 3.20734 0
M  V30 1536 N 140.419 -1.14872 1.07899 0
M  V30 1537 C 141.351 -2.19425 0.662231 0
M  V30 1538 C 142.364 -1.60231 -0.288079 0
M  V30 1539 O 143.553 -1.78336 -0.076534 0
M  V30 1540 C 140.653 -3.38867 -0.0470695 0
M  V30 1541 C 139.826 -4.27597 0.920831 0
M  V30 1542 C 138.885 -5.25616 0.247805 0
M  V30 1543 O 137.911 -5.62189 0.890599 0
M  V30 1544 N 139.113 -5.71746 -1.00435 0
M  V30 1545 H 141.878 -2.55797 1.56166 0
M  V30 1546 H 139.439 -1.30042 0.964404 0
M  V30 1547 H 141.431 -4.01497 -0.50813 0
M  V30 1548 H 140.001 -3.00864 -0.848523 0
M  V30 1549 H 139.221 -3.61982 1.56087 0
M  V30 1550 H 140.509 -4.83748 1.57688 0
M  V30 1551 H 139.907 -5.44153 -1.54642 0
M  V30 1552 H 138.464 -6.36389 -1.40899 0
M  V30 1553 N 141.898 -0.863906 -1.31812 0
M  V30 1554 C 142.808 -0.318461 -2.32428 0
M  V30 1555 C 143.824 0.568496 -1.64451 0
M  V30 1556 O 145 0.46666 -1.95919 0
M  V30 1557 C 142.065 0.476355 -3.43412 0
M  V30 1558 C 141.126 -0.43784 -4.27061 0
M  V30 1559 C 140.359 0.319138 -5.32745 0
M  V30 1560 O 140.582 1.54799 -5.48993 0
M  V30 1561 O 139.516 -0.319861 -6.01049 0
M  V30 1562 H 143.342 -1.15229 -2.80991 0
M  V30 1563 H 140.927 -0.627103 -1.35602 0
M  V30 1564 H 142.809 0.927156 -4.11074 0
M  V30 1565 H 141.484 1.28683 -2.97022 0
M  V30 1566 H 140.391 -0.937013 -3.62175 0
M  V30 1567 H 141.724 -1.21375 -4.77 0
M  V30 1568 N 143.376 1.44774 -0.622745 0
M  V30 1569 C 144.792 1.56986 -0.287652 0
M  V30 1570 C 144.992 1.61167 1.20944 0
M  V30 1571 O 144.048 1.55015 1.99315 0
M  V30 1572 C 145.361 2.84551 -0.972188 0
M  V30 1573 C 146.909 2.9825 -0.949536 0
M  V30 1574 C 147.384 4.28605 -1.61437 0
M  V30 1575 N 148.875 4.35399 -1.58057 0
M  V30 1576 C 149.61 5.34964 -2.064 0
M  V30 1577 N 149.106 6.40981 -2.62897 0
M  V30 1578 N 150.899 5.26419 -1.97078 0
M  V30 1579 H 143.05 1.40304 -1.59463 0
M  V30 1580 H 145.313 0.671794 -0.668878 0
M  V30 1581 H 145.019 2.87417 -2.02693 0
M  V30 1582 H 144.893 3.73807 -0.504771 0
M  V30 1583 H 147.28 2.94941 0.0967067 0
M  V30 1584 H 147.361 2.10364 -1.45536 0
M  V30 1585 H 147.005 4.32672 -2.66002 0
M  V30 1586 H 146.935 5.15334 -1.08344 0
M  V30 1587 H 149.426 3.59397 -1.16801 0
M  V30 1588 H 149.739 7.13225 -2.97539 0
M  V30 1589 H 148.084 6.4169 -2.66943 0
M  V30 1590 H 151.275 4.42504 -1.52669 0
M  V30 1591 H 151.448 6.03861 -2.35066 0
M  V30 1592 N 144.854 0.36279 1.53368 0
M  V30 1593 C 146.102 -0.227326 2.00817 0
M  V30 1594 C 146.423 -1.49511 1.25186 0
M  V30 1595 O 145.693 -1.92482 0.364348 0
M  V30 1596 H 144.273 -0.0869923 0.741917 0
M  V30 1597 H 146.935 0.488381 1.88682 0
M  V30 1598 H 146.031 -0.456273 3.08747 0
M  V30 1599 N 146.332 -1.57332 0.0918853 0
M  V30 1600 C 147.295 -2.12708 -0.85369 0
M  V30 1601 C 148.295 -1.05561 -1.213 0
M  V30 1602 O 149.485 -1.31461 -1.14296 0
M  V30 1603 C 146.617 -2.64503 -2.15061 0
M  V30 1604 H 147.81 -2.97573 -0.3729 0
M  V30 1605 H 145.363 -1.55509 -0.157072 0
M  V30 1606 H 146.098 -1.83149 -2.67632 0
M  V30 1607 H 145.883 -3.4284 -1.90272 0
M  V30 1608 H 147.373 -3.07351 -2.82711 0
M  V30 1609 N 147.81 0.181792 -1.56548 0
M  V30 1610 C 148.742 1.24956 -1.92142 0
M  V30 1611 C 149.755 1.41022 -0.813422 0
M  V30 1612 O 150.944 1.41212 -1.09186 0
M  V30 1613 C 148.044 2.61981 -2.14987 0
M  V30 1614 C 147.217 2.6735 -3.46183 0
M  V30 1615 C 146.276 3.85664 -3.5798 0
M  V30 1616 O 145.302 3.72148 -4.30691 0
M  V30 1617 N 146.504 5.01683 -2.92053 0
M  V30 1618 H 149.269 0.947329 -2.84334 0
M  V30 1619 H 146.83 0.371629 -1.57577 0
M  V30 1620 H 148.822 3.3958 -2.20154 0
M  V30 1621 H 147.392 2.84637 -1.2923 0
M  V30 1622 H 146.612 1.75925 -3.52766 0
M  V30 1623 H 147.9 2.67939 -4.32534 0
M  V30 1624 H 147.298 5.15564 -2.32832 0
M  V30 1625 H 145.855 5.77181 -3.0283 0
M  V30 1626 N 149.288 1.51039 0.449983 0
M  V30 1627 C 150.565 1.53612 1.21089 0
M  V30 1628 C 150.945 0.292997 2.09057 0
M  V30 1629 O 150.293 -0.72259 2.16774 0
M  V30 1630 C 150.503 2.84337 2.0237 0
M  V30 1631 C 151.851 3.35807 2.59843 0
M  V30 1632 O 152.875 2.85802 2.12593 0
M  V30 1633 O 151.734 4.23029 3.45989 0
M  V30 1634 H 148.828 0.617057 0.550608 0
M  V30 1635 H 151.374 1.63344 0.460082 0
M  V30 1636 H 150.146 3.66278 1.37681 0
M  V30 1637 H 149.769 2.77708 2.84542 0
M  V30 1638 N 150.766 -0.704594 1.40972 0
M  V30 1639 C 152.182 -1.01406 1.23244 0
M  V30 1640 C 152.382 -2.01169 0.115399 0
M  V30 1641 O 151.438 -2.47021 -0.523147 0
M  V30 1642 C 152.751 -1.54728 2.57836 0
M  V30 1643 C 154.299 -1.66658 2.64942 0
M  V30 1644 C 154.774 -2.23383 3.9983 0
M  V30 1645 N 156.265 -2.30756 4.01629 0
M  V30 1646 C 157 -2.75655 5.02794 0
M  V30 1647 N 156.496 -3.20225 6.14352 0
M  V30 1648 N 158.289 -2.75138 4.90159 0
M  V30 1649 H 150.44 -0.0435285 2.12355 0
M  V30 1650 H 152.703 -0.0818951 0.944456 0
M  V30 1651 H 152.409 -0.888832 3.40283 0
M  V30 1652 H 152.283 -2.53084 2.79693 0
M  V30 1653 H 154.67 -2.31617 1.8286 0
M  V30 1654 H 154.751 -0.668717 2.46904 0
M  V30 1655 H 154.395 -1.59043 4.82357 0
M  V30 1656 H 154.325 -3.23904 4.15203 0
M  V30 1657 H 156.816 -1.99291 3.21079 0
M  V30 1658 H 157.129 -3.53084 6.87424 0
M  V30 1659 H 155.474 -3.18156 6.17901 0
M  V30 1660 H 158.665 -2.39661 4.02095 0
M  V30 1661 H 158.838 -3.09812 5.6914 0
M  V30 1662 N 152.244 -1.26651 -0.937939 0
M  V30 1663 C 153.66 -1.03834 -1.21205 0
M  V30 1664 C 153.86 0.234502 -2.00131 0
M  V30 1665 O 152.916 0.942767 -2.3424 0
M  V30 1666 C 154.229 -2.27167 -1.97017 0
M  V30 1667 C 155.777 -2.32101 -2.09996 0
M  V30 1668 C 156.252 -3.55136 -2.8921 0
M  V30 1669 N 157.743 -3.55632 -2.96783 0
M  V30 1670 C 158.478 -4.475 -3.58512 0
M  V30 1671 N 157.974 -5.4966 -4.21717 0
M  V30 1672 N 159.767 -4.35145 -3.55816 0
M  V30 1673 H 151.918 -2.08398 -0.410391 0
M  V30 1674 H 154.181 -0.916031 -0.244114 0
M  V30 1675 H 153.887 -3.19765 -1.46434 0
M  V30 1676 H 153.761 -2.31672 -2.97671 0
M  V30 1677 H 156.148 -1.40015 -2.59769 0
M  V30 1678 H 156.229 -2.31605 -1.08594 0
M  V30 1679 H 155.873 -4.47553 -2.40123 0
M  V30 1680 H 155.803 -3.5288 -3.90875 0
M  V30 1681 H 158.294 -2.81743 -2.51852 0
M  V30 1682 H 158.607 -6.15943 -4.66727 0
M  V30 1683 H 156.952 -5.53514 -4.20294 0
M  V30 1684 H 160.143 -3.5455 -3.05634 0
M  V30 1685 H 160.316 -5.06934 -4.03636 0
M  V30 1686 N 153.722 1.14298 -1.08507 0
M  V30 1687 C 154.971 1.84708 -0.810305 0
M  V30 1688 C 155.284 1.83903 0.666271 0
M  V30 1689 O 156.49 2.50112 1.05624 0
M  V30 1690 C 154.946 3.31572 -1.39957 0
M  V30 1691 C 154.554 3.40791 -2.90801 0
M  V30 1692 C 156.298 4.07087 -1.20334 0
M  V30 1693 C 154.205 4.81872 -3.4286 0
M  V30 1694 H 153.135 0.691985 -0.299454 0
M  V30 1695 H 155.786 1.28841 -1.30661 0
M  V30 1696 H 154.168 3.87183 -0.830976 0
M  V30 1697 H 155.342 2.95225 -3.53806 0
M  V30 1698 H 153.657 2.78732 -3.0935 0
M  V30 1699 H 156.254 5.11225 -1.56693 0
M  V30 1700 H 156.597 4.16054 -0.143237 0
M  V30 1701 H 157.13 3.57779 -1.73893 0
M  V30 1702 H 153.869 4.78094 -4.48449 0
M  V30 1703 H 153.389 5.27972 -2.84615 0
M  V30 1704 H 155.068 5.50765 -3.39509 0
M  V30 1705 N 155.201 0.870884 1.31352 0
M  V30 1706 C 156.133 0.28455 2.27427 0
M  V30 1707 C 157.146 -0.552927 1.53123 0
M  V30 1708 O 158.335 -0.374771 1.74521 0
M  V30 1709 C 155.435 -0.615164 3.3327 0
M  V30 1710 C 154.608 0.190079 4.36987 0
M  V30 1711 C 153.667 -0.637917 5.22319 0
M  V30 1712 O 152.693 -0.065626 5.69162 0
M  V30 1713 N 153.895 -1.94973 5.46778 0
M  V30 1714 H 156.66 1.11017 2.7838 0
M  V30 1715 H 154.221 0.732458 1.44384 0
M  V30 1716 H 156.213 -1.1748 3.87273 0
M  V30 1717 H 154.783 -1.34146 2.82354 0
M  V30 1718 H 154.003 0.931165 3.83044 0
M  V30 1719 H 155.291 0.742579 5.03352 0
M  V30 1720 H 154.689 -2.4378 5.10478 0
M  V30 1721 H 153.246 -2.45713 6.03712 0
M  V30 1722 N 156.679 -1.44442 0.630414 0
M  V30 1723 C 157.956 -1.9549 0.0655657 0
M  V30 1724 C 158.336 -1.5724 -1.40851 0
M  V30 1725 O 157.684 -0.846116 -2.12257 0
M  V30 1726 C 157.894 -3.47812 0.287691 0
M  V30 1727 C 159.242 -4.24216 0.180513 0
M  V30 1728 O 160.266 -3.55526 0.219019 0
M  V30 1729 O 159.125 -5.46434 0.0848493 0
M  V30 1730 H 156.219 -0.826688 -0.0227177 0
M  V30 1731 H 158.765 -1.54496 0.702068 0
M  V30 1732 H 157.537 -3.687 1.31056 0
M  V30 1733 H 157.16 -3.95751 -0.382984 0
M  V30 1734 N 158.157 -0.370918 -1.53173 0
M  V30 1735 C 159.087 0.464847 -2.28826 0
M  V30 1736 C 160.068 1.07936 -1.31468 0
M  V30 1737 O 161.253 1.0956 -1.60344 0
M  V30 1738 C 158.383 1.60196 -3.08147 0
M  V30 1739 C 157.337 1.11443 -4.13237 0
M  V30 1740 C 156.663 2.3422 -4.80672 0
M  V30 1741 C 157.963 0.195384 -5.21934 0
M  V30 1742 H 159.657 -0.166329 -2.98938 0
M  V30 1743 H 157.203 -0.0814359 -1.4377 0
M  V30 1744 H 159.156 2.19332 -3.59822 0
M  V30 1745 H 157.88 2.26045 -2.35735 0
M  V30 1746 H 156.539 0.545727 -3.62515 0
M  V30 1747 H 156.187 2.98537 -4.04827 0
M  V30 1748 H 155.887 2.02269 -5.51689 0
M  V30 1749 H 157.411 2.94032 -5.35143 0
M  V30 1750 H 158.825 0.694375 -5.69079 0
M  V30 1751 H 157.222 -0.0335027 -6.00091 0
M  V30 1752 H 158.292 -0.760961 -4.78892 0
M  V30 1753 N 159.635 1.57281 -0.100228 0
M  V30 1754 C 160.545 2.17833 0.870965 0
M  V30 1755 C 161.561 1.14921 1.30649 0
M  V30 1756 O 162.737 1.47313 1.37335 0
M  V30 1757 C 159.802 2.75085 2.1102 0
M  V30 1758 C 158.863 3.9297 1.72838 0
M  V30 1759 C 158.096 4.47482 2.90854 0
M  V30 1760 O 158.319 4.00922 4.05731 0
M  V30 1761 O 157.253 5.38433 2.69023 0
M  V30 1762 H 161.079 3.0124 0.38575 0
M  V30 1763 H 158.664 1.48881 0.124397 0
M  V30 1764 H 160.546 3.11656 2.83634 0
M  V30 1765 H 159.221 1.94721 2.58584 0
M  V30 1766 H 158.128 3.61201 0.973883 0
M  V30 1767 H 159.461 4.74713 1.30033 0
M  V30 1768 N 161.113 -0.173488 1.56642 0
M  V30 1769 C 162.341 -0.906095 1.86004 0
M  V30 1770 C 162.756 -1.75921 0.685355 0
M  V30 1771 O 162.113 -1.79198 -0.345578 0
M  V30 1772 C 162.164 -1.78462 3.14378 0
M  V30 1773 O 161.885 -0.965914 4.27319 0
M  V30 1774 C 163.386 -2.62707 3.57071 0
M  V30 1775 H 160.606 -0.263341 0.617165 0
M  V30 1776 H 163.15 -0.174236 2.03756 0
M  V30 1777 H 161.305 -2.46984 2.98459 0
M  V30 1778 H 161.719 -1.56655 5.00559 0
M  V30 1779 H 163.193 -3.19969 4.49804 0
M  V30 1780 H 163.67 -3.37472 2.81086 0
M  V30 1781 H 164.276 -1.99521 3.75595 0
M  V30 1782 N 162.591 -1.51276 -0.441967 0
M  V30 1783 C 163.501 -1.75092 -1.56141 0
M  V30 1784 C 164.517 -0.634963 -1.62001 0
M  V30 1785 O 165.693 -0.916686 -1.79329 0
M  V30 1786 C 162.758 -1.86666 -2.92158 0
M  V30 1787 C 161.819 -3.10506 -2.96453 0
M  V30 1788 C 161.052 -3.21519 -4.25982 0
M  V30 1789 O 161.275 -2.38586 -5.18105 0
M  V30 1790 O 160.209 -4.14465 -4.36466 0
M  V30 1791 H 164.035 -2.70044 -1.38961 0
M  V30 1792 H 161.62 -1.35722 -0.624499 0
M  V30 1793 H 163.502 -1.96292 -3.72891 0
M  V30 1794 H 162.177 -0.949014 -3.09476 0
M  V30 1795 H 161.084 -3.06363 -2.14692 0
M  V30 1796 H 162.417 -4.01945 -2.84079 0
M  V30 1797 N 164.069 0.697108 -1.41344 0
M  V30 1798 C 164.999 1.82353 -1.45841 0
M  V30 1799 C 165.98 1.67115 -0.317247 0
M  V30 1800 O 167.165 1.86871 -0.528474 0
M  V30 1801 C 164.295 3.20476 -1.33838 0
M  V30 1802 C 163.249 3.50415 -2.4575 0
M  V30 1803 C 162.575 4.87878 -2.18813 0
M  V30 1804 C 163.875 3.49546 -3.88091 0
M  V30 1805 H 165.569 1.78846 -2.40113 0
M  V30 1806 H 163.115 0.859028 -1.15571 0
M  V30 1807 H 165.068 3.98988 -1.35596 0
M  V30 1808 H 163.792 3.24604 -0.360498 0
M  V30 1809 H 162.451 2.74253 -2.43271 0
M  V30 1810 H 162.099 4.8863 -1.19371 0
M  V30 1811 H 161.799 5.08875 -2.93803 0
M  V30 1812 H 163.323 5.68702 -2.22284 0
M  V30 1813 H 164.737 4.18066 -3.92293 0
M  V30 1814 H 163.134 3.82075 -4.62751 0
M  V30 1815 H 164.204 2.48552 -4.16353 0
M  V30 1816 N 165.547 1.27147 0.931209 0
M  V30 1817 C 166.457 1.11372 2.06478 0
M  V30 1818 C 167.473 0.044645 1.73943 0
M  V30 1819 O 168.649 0.250417 1.99837 0
M  V30 1820 C 165.714 0.758838 3.38294 0
M  V30 1821 C 164.775 1.90841 3.84549 0
M  V30 1822 C 164.008 1.57036 5.10074 0
M  V30 1823 O 164.231 0.476645 5.68405 0
M  V30 1824 O 163.165 2.40839 5.51616 0
M  V30 1825 H 166.991 2.06493 2.22698 0
M  V30 1826 H 164.576 1.06301 1.04978 0
M  V30 1827 H 166.458 0.574098 4.17471 0
M  V30 1828 H 165.133 -0.162879 3.2329 0
M  V30 1829 H 164.04 2.14819 3.06274 0
M  V30 1830 H 165.373 2.81021 4.04089 0
M  V30 1831 N 167.025 -1.13721 1.09112 0
M  V30 1832 C 167.972 -2.19031 0.727591 0
M  V30 1833 C 168.942 -1.63555 -0.289656 0
M  V30 1834 O 170.127 -1.90023 -0.172026 0
M  V30 1835 C 167.267 -3.4477 0.15082 0
M  V30 1836 C 166.38 -4.14365 1.22172 0
M  V30 1837 C 165.515 -5.27709 0.608042 0
M  V30 1838 C 164.554 -5.89147 1.66047 0
M  V30 1839 N 163.691 -6.93929 1.06806 0
M  V30 1840 H 168.531 -2.49475 1.62991 0
M  V30 1841 H 166.068 -1.22499 0.81439 0
M  V30 1842 H 168.026 -4.16714 -0.201358 0
M  V30 1843 H 166.656 -3.14787 -0.714783 0
M  V30 1844 H 165.708 -3.40737 1.69122 0
M  V30 1845 H 167.02 -4.56114 2.01895 0
M  V30 1846 H 166.174 -6.06355 0.204523 0
M  V30 1847 H 164.913 -4.872 -0.220769 0
M  V30 1848 H 163.918 -5.09198 2.07357 0
M  V30 1849 H 165.143 -6.31729 2.49189 0
M  V30 1850 H 163.089 -6.55483 0.260476 0
M  V30 1851 H 163.006 -7.34202 1.8023 0
M  V30 1852 H 164.274 -7.76434 0.690644 0
M  V30 1853 N 168.503 -0.877838 -1.30888 0
M  V30 1854 C 169.436 -0.283995 -2.26426 0
M  V30 1855 C 170.414 0.591361 -1.51465 0
M  V30 1856 O 171.598 0.54304 -1.80509 0
M  V30 1857 C 168.725 0.597129 -3.33395 0
M  V30 1858 C 167.771 -0.207937 -4.25993 0
M  V30 1859 S 168.604 -1.59158 -5.11301 0
M  V30 1860 C 169.76 -0.716791 -6.21782 0
M  V30 1861 H 169.993 -1.09383 -2.76446 0
M  V30 1862 H 167.526 -0.676828 -1.38775 0
M  V30 1863 H 169.484 1.09978 -3.95493 0
M  V30 1864 H 168.145 1.38099 -2.82113 0
M  V30 1865 H 167.338 0.464163 -5.01858 0
M  V30 1866 H 166.94 -0.642963 -3.68432 0
M  V30 1867 H 169.232 0.0692833 -6.77465 0
M  V30 1868 H 170.175 -1.44682 -6.93161 0
M  V30 1869 H 170.583 -0.280855 -5.63801 0
M  V30 1870 N 169.982 1.44106 -0.638065 0
M  V30 1871 C 170.892 2.34513 0.0637334 0
M  V30 1872 C 171.908 1.53018 0.828346 0
M  V30 1873 O 173.084 1.85723 0.779036 0
M  V30 1874 C 170.149 3.31095 1.02844 0
M  V30 1875 C 169.21 4.28497 0.26244 0
M  V30 1876 C 168.443 5.20465 1.1812 0
M  V30 1877 O 168.666 5.16514 2.42011 0
M  V30 1878 O 167.6 5.98251 0.661774 0
M  V30 1879 H 171.426 2.95989 -0.68003 0
M  V30 1880 H 169.011 1.43994 -0.398252 0
M  V30 1881 H 170.893 3.90526 1.58327 0
M  V30 1882 H 169.568 2.72144 1.7527 0
M  V30 1883 H 168.475 3.72592 -0.335602 0
M  V30 1884 H 169.808 4.90388 -0.421936 0
M  V30 1885 N 171.46 0.379036 1.52974 0
M  V30 1886 C 172.423 -0.448865 2.24762 0
M  V30 1887 C 173.423 -0.998689 1.26027 0
M  V30 1888 O 174.613 -0.882313 1.50203 0
M  V30 1889 C 171.745 -1.62872 2.99476 0
M  V30 1890 H 172.938 0.179491 2.99362 0
M  V30 1891 H 170.491 0.13096 1.5575 0
M  V30 1892 H 171.226 -2.29479 2.29151 0
M  V30 1893 H 171.011 -1.24128 3.71934 0
M  V30 1894 H 172.501 -2.2151 3.5401 0
M  V30 1895 N 172.938 -1.57226 0.108567 0
M  V30 1896 C 174.354 -1.5766 -0.248058 0
M  V30 1897 C 174.554 -1.12063 -1.67464 0
M  V30 1898 O 173.61 -0.803236 -2.39383 0
M  V30 1899 C 174.923 -3.0069 -0.0242287 0
M  V30 1900 C 176.471 -3.12868 -0.0909372 0
M  V30 1901 C 176.946 -4.57879 0.105067 0
M  V30 1902 N 178.437 -4.63172 0.0506846 0
M  V30 1903 C 179.172 -5.73126 0.177396 0
M  V30 1904 N 178.668 -6.91866 0.359696 0
M  V30 1905 N 180.461 -5.61977 0.117709 0
M  V30 1906 H 172.612 -1.85169 1.04049 0
M  V30 1907 H 174.875 -0.85529 0.40888 0
M  V30 1908 H 174.581 -3.38299 0.961604 0
M  V30 1909 H 174.455 -3.6945 -0.76068 0
M  V30 1910 H 176.842 -2.75124 -1.06729 0
M  V30 1911 H 176.923 -2.46672 0.677225 0
M  V30 1912 H 176.567 -4.96321 1.07834 0
M  V30 1913 H 176.497 -5.22153 -0.682954 0
M  V30 1914 H 178.988 -3.778 -0.0871266 0
M  V30 1915 H 179.301 -7.71503 0.447529 0
M  V30 1916 H 177.646 -6.93874 0.395536 0
M  V30 1917 H 180.837 -4.68094 -0.0236741 0
M  V30 1918 H 181.01 -6.47627 0.219905 0
M  V30 1919 N 174.416 0.165178 -1.56732 0
M  V30 1920 C 175.346 1.20651 -1.99914 0
M  V30 1921 C 176.327 1.45827 -0.875705 0
M  V30 1922 O 177.512 1.57057 -1.14223 0
M  V30 1923 C 174.642 2.54401 -2.36427 0
M  V30 1924 C 173.596 2.43782 -3.51787 0
M  V30 1925 C 172.922 3.82078 -3.7406 0
M  V30 1926 C 174.222 1.93732 -4.85041 0
M  V30 1927 H 175.916 0.847534 -2.87154 0
M  V30 1928 H 173.462 0.40625 -1.38151 0
M  V30 1929 H 175.415 3.27458 -2.65234 0
M  V30 1930 H 174.139 2.92098 -1.46103 0
M  V30 1931 H 172.798 1.73178 -3.23117 0
M  V30 1932 H 172.446 4.17179 -2.81017 0
M  V30 1933 H 172.146 3.7584 -4.51684 0
M  V30 1934 H 173.67 4.56712 -4.05274 0
M  V30 1935 H 175.084 2.56569 -5.12684 0
M  V30 1936 H 173.481 1.98428 -5.66345 0
M  V30 1937 H 174.551 0.891962 -4.76626 0
M  V30 1938 N 175.894 1.51508 0.433938 0
M  V30 1939 C 176.842 1.73646 1.54757 0
M  V30 1940 C 177.836 0.602854 1.5831 0
M  V30 1941 O 179.042 0.784318 1.62014 0
M  V30 1942 H 175.417 0.548718 0.51421 0
M  V30 1943 H 177.388 2.66991 1.33261 0
M  V30 1944 C 176.137 1.88172 2.92381 0
M  V30 1945 H 175.46 2.74808 2.90381 0
M  V30 1946 H 176.9 2.07672 3.6966 0
M  V30 1947 C 175.359 0.64239 3.30719 0
M  V30 1948 O 175.889 -0.201362 4.01195 0
M  V30 1949 N 174.095 0.485489 2.86516 0
M  V30 1950 H 173.642 1.17318 2.29334 0
M  V30 1951 H 173.6 -0.342482 3.12529 0
M  V30 1952 N 177.372 -0.689602 1.41712 0
M  V30 1953 C 178.335 -1.78521 1.43746 0
M  V30 1954 C 179.335 -1.57436 0.327191 0
M  V30 1955 O 180.525 -1.64 0.587348 0
M  V30 1956 C 177.657 -3.16971 1.25467 0
M  V30 1957 H 178.85 -1.78108 2.41283 0
M  V30 1958 H 176.403 -0.89781 1.27942 0
M  V30 1959 H 177.138 -3.23019 0.287948 0
M  V30 1960 H 176.923 -3.33678 2.05917 0
M  V30 1961 H 178.413 -3.96935 1.2974 0
M  V30 1962 N 178.85 -1.27639 -0.924453 0
M  V30 1963 C 179.813 -1.10681 -2.00705 0
M  V30 1964 C 180.813 -0.0497823 -1.60723 0
M  V30 1965 O 182.003 -0.294654 -1.7169 0
M  V30 1966 C 179.135 -0.687164 -3.33902 0
M  V30 1967 H 180.328 -2.06817 -2.17179 0
M  V30 1968 H 177.881 -1.10473 -1.10569 0
M  V30 1969 H 178.616 0.275439 -3.23128 0
M  V30 1970 H 178.401 -1.45061 -3.6428 0
M  V30 1971 H 179.891 -0.590853 -4.13399 0
M  V30 1972 N 180.328 1.1314 -1.09713 0
M  V30 1973 C 181.258 2.20748 -0.761102 0
M  V30 1974 C 182.239 1.68061 0.262566 0
M  V30 1975 O 183.424 1.93765 0.129977 0
M  V30 1976 C 180.554 3.46812 -0.184054 0
M  V30 1977 C 179.508 4.12606 -1.13757 0
M  V30 1978 C 178.834 5.33031 -0.422083 0
M  V30 1979 C 180.134 4.59603 -2.48118 0
M  V30 1980 H 181.828 2.49113 -1.66082 0
M  V30 1981 H 179.374 1.19734 -0.799987 0
M  V30 1982 H 181.327 4.21353 0.0631215 0
M  V30 1983 H 180.051 3.17851 0.750868 0
M  V30 1984 H 178.71 3.40036 -1.37007 0
M  V30 1985 H 178.358 5.00335 0.517072 0
M  V30 1986 H 178.058 5.77999 -1.05788 0
M  V30 1987 H 179.582 6.10325 -0.183277 0
M  V30 1988 H 180.996 5.25552 -2.29059 0
M  V30 1989 H 179.393 5.15321 -3.07514 0
M  V30 1990 H 180.463 3.73971 -3.08665 0
M  V30 1991 N 181.806 0.884767 1.30421 0
M  V30 1992 C 183.222 0.57874 1.48737 0
M  V30 1993 C 183.422 -0.883567 1.81095 0
M  V30 1994 O 182.478 -1.6648 1.89844 0
M  V30 1995 C 183.791 1.49171 2.61091 0
M  V30 1996 C 185.339 1.49532 2.74971 0
M  V30 1997 C 185.814 2.39421 3.90438 0
M  V30 1998 N 187.305 2.37383 3.97748 0
M  V30 1999 C 188.04 3.03647 4.86401 0
M  V30 2000 N 187.536 3.79136 5.79852 0
M  V30 2001 N 189.329 2.9288 4.79768 0
M  V30 2002 H 181.48 1.83075 1.0769 0
M  V30 2003 H 183.743 0.783637 0.533495 0
M  V30 2004 H 183.449 2.53291 2.44001 0
M  V30 2005 H 183.323 1.20113 3.57565 0
M  V30 2006 H 185.71 0.46163 2.91467 0
M  V30 2007 H 185.791 1.8262 1.79119 0
M  V30 2008 H 185.435 3.42874 3.74699 0
M  V30 2009 H 185.365 2.03649 4.85628 0
M  V30 2010 H 187.856 1.82525 3.30897 0
M  V30 2011 H 188.169 4.26789 6.4426 0
M  V30 2012 H 186.514 3.83243 5.79784 0
M  V30 2013 H 189.705 2.33433 4.05742 0
M  V30 2014 H 189.878 3.448 5.4865 0
M  V30 2015 N 183.284 -1.43765 0.645699 0
M  V30 2016 C 184.194 -2.34544 -0.0512957 0
M  V30 2017 C 185.21 -1.53455 -0.82022 0
M  V30 2018 O 186.386 -1.86133 -0.769176 0
M  V30 2019 C 183.451 -3.31636 -1.01087 0
M  V30 2020 C 182.512 -4.2863 -0.239712 0
M  V30 2021 C 181.745 -5.21084 -1.15358 0
M  V30 2022 O 181.968 -5.1779 -2.39269 0
M  V30 2023 O 180.902 -5.98593 -0.630038 0
M  V30 2024 H 184.728 -2.95624 0.695718 0
M  V30 2025 H 182.313 -1.43781 0.405882 0
M  V30 2026 H 184.195 -3.9136 -1.56254 0
M  V30 2027 H 182.87 -2.73069 -1.73824 0
M  V30 2028 H 181.777 -3.72408 0.355356 0
M  V30 2029 H 183.11 -4.90157 0.447936 0
M  V30 2030 N 184.763 -0.387143 -1.52771 0
M  V30 2031 C 185.71 0.449048 -2.26389 0
M  V30 2032 C 186.68 1.05961 -1.27912 0
M  V30 2033 O 187.865 1.08804 -1.56737 0
M  V30 2034 C 185.005 1.57155 -3.0724 0
M  V30 2035 C 184.118 0.984066 -4.20643 0
M  V30 2036 C 183.253 2.07745 -4.88892 0
M  V30 2037 C 182.292 1.46574 -5.94292 0
M  V30 2038 N 181.429 2.49834 -6.56146 0
M  V30 2039 H 186.269 -0.185205 -2.97424 0
M  V30 2040 H 183.806 -0.103164 -1.46738 0
M  V30 2041 H 185.764 2.23309 -3.52405 0
M  V30 2042 H 184.394 2.17615 -2.38419 0
M  V30 2043 H 183.446 0.212193 -3.79808 0
M  V30 2044 H 184.758 0.497029 -4.96318 0
M  V30 2045 H 183.912 2.81673 -5.3735 0
M  V30 2046 H 182.651 2.59807 -4.12737 0
M  V30 2047 H 181.656 0.711696 -5.45174 0
M  V30 2048 H 182.881 0.953088 -6.72379 0
M  V30 2049 H 180.827 3.0107 -5.82832 0
M  V30 2050 H 180.744 2.05879 -7.27427 0
M  V30 2051 H 182.012 3.23399 -7.09249 0
M  V30 2052 N 186.241 1.57166 -0.116904 0
M  V30 2053 C 187.469 1.99473 0.549383 0
M  V30 2054 C 187.884 0.996541 1.60357 0
M  V30 2055 O 187.241 -0.0108731 1.82497 0
M  V30 2056 C 187.292 3.41788 1.17741 0
M  V30 2057 O 187.013 4.37788 0.165362 0
M  V30 2058 C 188.514 3.99216 1.92722 0
M  V30 2059 H 185.734 0.655009 0.145616 0
M  V30 2060 H 188.278 2.03494 -0.202625 0
M  V30 2061 H 186.433 3.38713 1.88021 0
M  V30 2062 H 186.847 5.20806 0.621403 0
M  V30 2063 H 188.321 5.00882 2.31995 0
M  V30 2064 H 188.798 3.3824 2.80161 0
M  V30 2065 H 189.404 4.0583 1.27209 0
M  V30 2066 N 187.719 -0.156864 1.56817 0
M  V30 2067 C 188.944 -0.890331 1.87318 0
M  V30 2068 C 189.369 -1.74394 0.704855 0
M  V30 2069 O 188.727 -1.77972 -0.345786 0
M  V30 2070 C 188.775 -1.73102 3.16336 0
M  V30 2071 O 187.879 -2.83422 2.99576 0
M  V30 2072 H 187.22 -0.24857 0.615718 0
M  V30 2073 H 189.75 -0.150649 2.04045 0
M  V30 2074 H 189.76 -2.12803 3.48107 0
M  V30 2075 H 188.435 -1.10412 4.00976 0
M  V30 2076 H 187.012 -2.47199 2.7919 0
M  V30 2077 N 189.197 -1.51736 -0.425897 0
M  V30 2078 C 190.127 -1.76827 -1.52494 0
M  V30 2079 C 191.108 -0.618524 -1.58456 0
M  V30 2080 O 192.293 -0.862416 -1.74 0
M  V30 2081 C 189.423 -1.90374 -2.90474 0
M  V30 2082 C 188.377 -3.0588 -2.99369 0
M  V30 2083 C 187.703 -3.04625 -4.3944 0
M  V30 2084 C 189.003 -4.45644 -2.72394 0
M  V30 2085 H 190.697 -2.68855 -1.31748 0
M  V30 2086 H 188.243 -1.29372 -0.632362 0
M  V30 2087 H 190.196 -2.0651 -3.6733 0
M  V30 2088 H 188.92 -0.95004 -3.12477 0
M  V30 2089 H 187.579 -2.89467 -2.24954 0
M  V30 2090 H 187.227 -2.0701 -4.58428 0
M  V30 2091 H 186.927 -3.82195 -4.46319 0
M  V30 2092 H 188.451 -3.22869 -5.18255 0
M  V30 2093 H 189.865 -4.62348 -3.38979 0
M  V30 2094 H 188.262 -5.25006 -2.9067 0
M  V30 2095 H 189.332 -4.54893 -1.67929 0
M  V30 2096 N 190.675 0.682077 -1.42076 0
M  V30 2097 C 191.9 1.47558 -1.45744 0
M  V30 2098 C 192.325 1.87977 -0.0680981 0
M  V30 2099 O 191.683 1.55522 0.9318 0
M  V30 2100 C 191.731 2.70575 -2.38373 0
M  V30 2101 O 190.835 3.68573 -1.85007 0
M  V30 2102 H 190.176 0.443585 -0.494093 0
M  V30 2103 H 192.706 0.837238 -1.86686 0
M  V30 2104 H 192.716 3.18729 -2.54707 0
M  V30 2105 H 191.391 2.40495 -3.39315 0
M  V30 2106 H 189.968 3.2757 -1.78192 0
M  V30 2107 N 192.153 1.28127 0.917671 0
M  V30 2108 C 193.116 1.11744 2.00115 0
M  V30 2109 C 194.116 0.0583052 1.60694 0
M  V30 2110 O 195.306 0.303755 1.71531 0
M  V30 2111 C 192.438 0.704862 3.33533 0
M  V30 2112 H 193.631 2.07966 2.16079 0
M  V30 2113 H 191.184 1.11058 1.09981 0
M  V30 2114 H 191.919 -0.258299 3.2327 0
M  V30 2115 H 191.704 1.4699 3.63505 0
M  V30 2116 H 193.194 0.612768 4.1308 0
M  V30 2117 N 193.631 -1.12557 1.10312 0
M  V30 2118 C 194.579 -2.20325 0.745629 0
M  V30 2119 C 195.573 -1.67429 -0.25763 0
M  V30 2120 O 196.779 -1.79612 -0.118132 0
M  V30 2121 H 193.154 -0.718118 0.223182 0
M  V30 2122 H 195.125 -2.47733 1.66346 0
M  V30 2123 C 193.874 -3.47168 0.192262 0
M  V30 2124 H 193.197 -3.88215 0.955475 0
M  V30 2125 H 194.637 -4.23995 -0.0198274 0
M  V30 2126 C 193.096 -3.19298 -1.07472 0
M  V30 2127 O 193.626 -3.3891 -2.15645 0
M  V30 2128 N 191.832 -2.73113 -0.992847 0
M  V30 2129 H 191.379 -2.57354 -0.112474 0
M  V30 2130 H 191.337 -2.54842 -1.84127 0
M  V30 2131 N 195.109 -0.891671 -1.2995 0
M  V30 2132 C 196.057 -0.353066 -2.29905 0
M  V30 2133 C 197.051 0.543509 -1.60444 0
M  V30 2134 O 198.257 0.4272 -1.74857 0
M  V30 2135 H 194.632 -0.095531 -0.745907 0
M  V30 2136 H 196.603 -1.20961 -2.72784 0
M  V30 2137 C 195.352 0.411475 -3.45257 0
M  V30 2138 H 194.675 -0.269182 -3.98893 0
M  V30 2139 H 196.115 0.753328 -4.17254 0
M  V30 2140 C 194.574 1.6111 -2.9588 0
M  V30 2141 O 195.104 2.71045 -2.96475 0
M  V30 2142 N 193.31 1.45054 -2.51809 0
M  V30 2143 H 192.857 0.556175 -2.51524 0
M  V30 2144 H 192.815 2.25453 -2.1913 0
M  V30 2145 N 196.587 1.43421 -0.653314 0
M  V30 2146 C 197.55 2.29182 0.0287951 0
M  V30 2147 C 198.55 1.42213 0.750465 0
M  V30 2148 O 199.74 1.63843 0.591701 0
M  V30 2149 C 196.872 3.24278 1.05151 0
M  V30 2150 H 198.065 2.90985 -0.725786 0
M  V30 2151 H 195.618 1.50702 -0.414545 0
M  V30 2152 H 196.353 2.6737 1.83532 0
M  V30 2153 H 196.138 3.88396 0.537687 0
M  V30 2154 H 197.628 3.88647 1.52786 0
M  V30 2155 N 198.065 0.39524 1.52563 0
M  V30 2156 C 199.293 -0.184943 2.06072 0
M  V30 2157 C 199.708 -1.40021 1.26647 0
M  V30 2158 O 199.065 -1.79767 0.314672 0
M  V30 2159 C 199.116 -0.549179 3.57304 0
M  V30 2160 O 198.837 0.617813 4.33722 0
M  V30 2161 C 200.338 -1.18459 4.2718 0
M  V30 2162 H 197.558 -0.0265025 0.670476 0
M  V30 2163 H 200.102 0.562184 1.96621 0
M  V30 2164 H 198.257 -1.2462 3.66809 0
M  V30 2165 H 198.671 0.317091 5.23541 0
M  V30 2166 H 200.145 -1.38976 5.34219 0
M  V30 2167 H 200.622 -2.15368 3.82771 0
M  V30 2168 H 201.228 -0.528163 4.22008 0
M  V30 2169 N 199.544 -1.57102 0.125237 0
M  V30 2170 C 200.474 -2.18659 -0.819174 0
M  V30 2171 C 201.455 -1.12843 -1.27281 0
M  V30 2172 O 202.64 -1.41104 -1.33429 0
M  V30 2173 C 199.77 -2.79096 -2.06695 0
M  V30 2174 C 198.724 -3.90548 -1.75088 0
M  V30 2175 C 198.05 -4.37821 -3.06948 0
M  V30 2176 C 199.35 -5.12356 -1.01435 0
M  V30 2177 H 201.044 -2.9783 -0.306202 0
M  V30 2178 H 198.59 -1.4326 -0.145839 0
M  V30 2179 H 200.543 -3.2082 -2.73226 0
M  V30 2180 H 199.267 -1.97223 -2.60328 0
M  V30 2181 H 197.926 -3.49409 -1.10944 0
M  V30 2182 H 197.574 -3.52799 -3.58527 0
M  V30 2183 H 197.274 -5.12982 -2.86571 0
M  V30 2184 H 198.798 -4.822 -3.74587 0
M  V30 2185 H 200.212 -5.5106 -1.58132 0
M  V30 2186 H 198.609 -5.9314 -0.911319 0
M  V30 2187 H 199.679 -4.849 -0.00218681 0
M  V30 2188 N 201.022 0.148545 -1.56898 0
M  V30 2189 C 201.932 1.20293 -2.01412 0
M  V30 2190 C 202.948 1.47107 -0.929273 0
M  V30 2191 O 204.124 1.58807 -1.23863 0
M  V30 2192 C 201.189 2.51682 -2.38447 0
M  V30 2193 C 200.25 2.32529 -3.60872 0
M  V30 2194 C 199.483 3.57653 -3.96132 0
M  V30 2195 O 199.706 4.63771 -3.32073 0
M  V30 2196 O 198.64 3.50408 -4.89385 0
M  V30 2197 H 202.466 0.855025 -2.91416 0
M  V30 2198 H 200.051 0.357151 -1.45068 0
M  V30 2199 H 201.933 3.29147 -2.63135 0
M  V30 2200 H 200.608 2.86006 -1.51599 0
M  V30 2201 H 199.515 1.53019 -3.41373 0
M  V30 2202 H 200.848 2.03121 -4.48333 0
M  V30 2203 N 202.5 1.5196 0.417844 0
M  V30 2204 C 203.447 1.74678 1.50852 0
M  V30 2205 C 204.417 0.588947 1.55308 0
M  V30 2206 O 205.602 0.825544 1.72016 0
M  V30 2207 C 202.742 1.89544 2.88387 0
M  V30 2208 C 201.855 3.17166 2.93309 0
M  V30 2209 C 200.99 3.22513 4.22088 0
M  V30 2210 C 200.029 4.44372 4.20951 0
M  V30 2211 N 199.166 4.47161 5.41287 0
M  V30 2212 H 204.006 2.67768 1.30783 0
M  V30 2213 H 201.543 1.32689 0.63498 0
M  V30 2214 H 203.501 1.96146 3.68216 0
M  V30 2215 H 202.131 0.998424 3.06971 0
M  V30 2216 H 201.183 3.19778 2.06024 0
M  V30 2217 H 202.495 4.07021 2.88332 0
M  V30 2218 H 201.649 3.28139 5.10303 0
M  V30 2219 H 200.388 2.30581 4.29748 0
M  V30 2220 H 199.393 4.38902 3.31127 0
M  V30 2221 H 200.618 5.3759 4.14938 0
M  V30 2222 H 198.564 3.58108 5.49632 0
M  V30 2223 H 198.481 5.3085 5.3827 0
M  V30 2224 H 199.749 4.57005 6.3148 0
M  V30 2225 N 203.978 -0.674533 1.42435 0
M  V30 2226 C 204.91 -1.80005 1.41883 0
M  V30 2227 C 205.923 -1.59667 0.31787 0
M  V30 2228 O 207.112 -1.68781 0.580973 0
M  V30 2229 C 204.212 -3.17114 1.19549 0
M  V30 2230 C 203.385 -3.64299 2.42084 0
M  V30 2231 C 202.444 -4.80142 2.15291 0
M  V30 2232 O 201.47 -4.90673 2.88493 0
M  V30 2233 N 202.672 -5.68869 1.1562 0
M  V30 2234 H 205.437 -1.80964 2.38898 0
M  V30 2235 H 202.998 -0.857633 1.37318 0
M  V30 2236 H 204.99 -3.92267 0.995417 0
M  V30 2237 H 203.56 -3.11053 0.310569 0
M  V30 2238 H 202.78 -2.79822 2.77657 0
M  V30 2239 H 204.068 -3.92567 3.23679 0
M  V30 2240 H 203.466 -5.63012 0.550765 0
M  V30 2241 H 202.023 -6.43833 1.016 0
M  V30 2242 N 205.456 -1.28612 -0.910864 0
M  V30 2243 C 206.386 -1.15326 -2.03032 0
M  V30 2244 C 207.367 -0.0502924 -1.70026 0
M  V30 2245 O 208.552 -0.227797 -1.92859 0
M  V30 2246 C 205.682 -0.817343 -3.37545 0
M  V30 2247 C 204.636 -1.8754 -3.84724 0
M  V30 2248 C 203.962 -1.39305 -5.16235 0
M  V30 2249 C 205.262 -3.28244 -4.06267 0
M  V30 2250 H 206.956 -2.08975 -2.14406 0
M  V30 2251 H 204.502 -1.00612 -1.03021 0
M  V30 2252 H 206.455 -0.711151 -4.15356 0
M  V30 2253 H 205.179 0.154846 -3.26233 0
M  V30 2254 H 203.838 -1.97079 -3.09121 0
M  V30 2255 H 203.486 -0.409846 -5.01328 0
M  V30 2256 H 203.186 -2.10057 -5.48771 0
M  V30 2257 H 204.71 -1.30014 -5.96598 0
M  V30 2258 H 206.124 -3.21611 -4.74594 0
M  V30 2259 H 204.521 -3.96855 -4.5014 0
M  V30 2260 H 205.591 -3.72048 -3.10979 0
M  V30 2261 N 206.934 1.1197 -1.10907 0
M  V30 2262 C 208.183 1.82947 -0.849302 0
M  V30 2263 C 208.496 1.85275 0.627112 0
M  V30 2264 O 209.702 2.52296 1.00295 0
M  V30 2265 C 208.158 3.28529 -1.46959 0
M  V30 2266 C 207.766 3.34546 -2.97965 0
M  V30 2267 C 209.51 4.04443 -1.28942 0
M  V30 2268 C 207.417 4.74491 -3.53004 0
M  V30 2269 H 206.347 0.685477 -0.314065 0
M  V30 2270 H 208.998 1.2604 -1.33365 0
M  V30 2271 H 207.38 3.85333 -0.912917 0
M  V30 2272 H 208.554 2.87654 -3.59989 0
M  V30 2273 H 206.869 2.72108 -3.15192 0
M  V30 2274 H 209.466 5.07787 -1.67502 0
M  V30 2275 H 209.809 4.15656 -0.231456 0
M  V30 2276 H 210.342 3.5401 -1.81443 0
M  V30 2277 H 207.081 4.68474 -4.58489 0
M  V30 2278 H 206.601 5.21816 -2.9575 0
M  V30 2279 H 208.28 5.4344 -3.51115 0
M  V30 2280 N 208.412 0.89855 1.29475 0
M  V30 2281 C 209.322 0.379974 2.31502 0
M  V30 2282 C 210.338 -0.524695 1.659 0
M  V30 2283 O 211.514 -0.414551 1.97087 0
M  V30 2284 C 208.579 -0.385138 3.44554 0
M  V30 2285 C 207.64 0.550914 4.2575 0
M  V30 2286 C 206.873 -0.177778 5.33404 0
M  V30 2287 O 207.096 -1.40189 5.52904 0
M  V30 2288 O 206.03 0.479106 5.9999 0
M  V30 2289 H 209.856 1.22639 2.77837 0
M  V30 2290 H 207.441 0.662834 1.33891 0
M  V30 2291 H 209.323 -0.817841 4.13388 0
M  V30 2292 H 207.998 -1.20763 3.0033 0
M  V30 2293 H 206.905 1.03271 3.59564 0
M  V30 2294 H 208.238 1.33979 4.73614 0
M  V30 2295 N 209.89 -1.43072 0.660911 0
M  V30 2296 C 210.82 -2.33497 -0.0122829 0
M  V30 2297 C 211.801 -1.49903 -0.803925 0
M  V30 2298 O 212.986 -1.78546 -0.763864 0
M  V30 2299 C 210.116 -3.33363 -0.973994 0
M  V30 2300 C 209.07 -4.27003 -0.291928 0
M  V30 2301 C 208.396 -5.16967 -1.36562 0
M  V30 2302 C 209.696 -5.15816 0.820462 0
M  V30 2303 H 211.39 -2.90038 0.742873 0
M  V30 2304 H 208.936 -1.39461 0.358688 0
M  V30 2305 H 210.889 -3.95524 -1.45392 0
M  V30 2306 H 209.613 -2.75095 -1.7604 0
M  V30 2307 H 208.272 -3.66217 0.167623 0
M  V30 2308 H 207.92 -4.55034 -2.14366 0
M  V30 2309 H 207.62 -5.80441 -0.914454 0
M  V30 2310 H 209.144 -5.82003 -1.84675 0
M  V30 2311 H 210.558 -5.71742 0.422366 0
M  V30 2312 H 208.955 -5.8805 1.19656 0
M  V30 2313 H 210.025 -4.55045 1.67518 0
M  V30 2314 N 211.368 -0.403325 -1.52352 0
M  V30 2315 C 212.596 0.174012 -2.06167 0
M  V30 2316 C 213.011 1.39347 -1.27388 0
M  V30 2317 O 212.368 1.79597 -0.324201 0
M  V30 2318 C 212.419 0.530223 -3.5759 0
M  V30 2319 O 212.14 -0.640806 -4.33388 0
M  V30 2320 C 213.641 1.16192 -4.27802 0
M  V30 2321 H 210.861 0.0229464 -0.670608 0
M  V30 2322 H 213.405 -0.572604 -1.9632 0
M  V30 2323 H 211.56 1.22673 -3.67464 0
M  V30 2324 H 211.974 -0.344851 -5.23365 0
M  V30 2325 H 213.448 1.36141 -5.34948 0
M  V30 2326 H 213.925 2.13335 -3.83907 0
M  V30 2327 H 214.531 0.505775 -4.22282 0
M  V30 2328 N 212.846 1.57033 -0.133567 0
M  V30 2329 C 214.262 1.58035 0.222944 0
M  V30 2330 C 214.462 1.14713 1.6566 0
M  V30 2331 O 213.518 0.841218 2.38075 0
M  V30 2332 C 214.831 3.00691 -0.0236116 0
M  V30 2333 C 216.379 3.12973 0.0411512 0
M  V30 2334 C 216.854 4.57654 -0.177899 0
M  V30 2335 N 218.345 4.63033 -0.124365 0
M  V30 2336 C 219.08 5.72771 -0.268553 0
M  V30 2337 N 218.576 6.91206 -0.46972 0
M  V30 2338 N 220.369 5.61718 -0.2071 0
M  V30 2339 H 212.52 1.8349 -1.06981 0
M  V30 2340 H 214.783 0.848677 -0.422436 0
M  V30 2341 H 214.489 3.36726 -1.0153 0
M  V30 2342 H 214.363 3.70614 0.701808 0
M  V30 2343 H 216.75 2.76787 1.02338 0
M  V30 2344 H 216.831 2.45564 -0.716383 0
M  V30 2345 H 216.475 4.94542 -1.15717 0
M  V30 2346 H 216.405 5.23173 0.599797 0
M  V30 2347 H 218.896 3.7789 0.027011 0
M  V30 2348 H 219.209 7.70693 -0.570212 0
M  V30 2349 H 217.554 6.93156 -0.505876 0
M  V30 2350 H 220.745 4.68072 -0.0507986 0
M  V30 2351 H 220.918 6.47195 -0.322909 0
M  V30 2352 N 214.325 -0.140222 1.56975 0
M  V30 2353 C 215.553 -0.866437 1.87884 0
M  V30 2354 C 215.968 -1.74428 0.722517 0
M  V30 2355 O 215.325 -1.79891 -0.30749 0
M  V30 2356 C 215.376 -1.71753 3.18093 0
M  V30 2357 O 215.097 -0.875056 4.29272 0
M  V30 2358 C 216.598 -2.55074 3.62563 0
M  V30 2359 H 213.818 -0.25019 0.622612 0
M  V30 2360 H 216.362 -0.130977 2.0408 0
M  V30 2361 H 214.517 -2.40598 3.03631 0
M  V30 2362 H 214.931 -1.46002 5.03769 0
M  V30 2363 H 216.405 -3.10356 4.5649 0
M  V30 2364 H 216.882 -3.31434 2.88181 0
M  V30 2365 H 217.488 -1.91509 3.79743 0
M  V30 2366 N 215.803 -1.52179 -0.40978 0
M  V30 2367 C 216.751 -1.76086 -1.51975 0
M  V30 2368 C 217.745 -0.627964 -1.57331 0
M  V30 2369 O 218.951 -0.809993 -1.60745 0
M  V30 2370 H 215.326 -0.556829 -0.505416 0
M  V30 2371 H 217.297 -2.69077 -1.28996 0
M  V30 2372 C 216.046 -1.92799 -2.8935 0
M  V30 2373 H 215.369 -2.79392 -2.85972 0
M  V30 2374 H 216.809 -2.13527 -3.66309 0
M  V30 2375 C 215.268 -0.694923 -3.29655 0
M  V30 2376 O 215.798 0.13751 -4.01465 0
M  V30 2377 N 214.004 -0.53101 -2.85707 0
M  V30 2378 H 213.551 -1.20952 -2.27439 0
M  V30 2379 H 213.509 0.292718 -3.13034 0
M  V30 2380 N 217.281 0.66697 -1.42791 0
M  V30 2381 C 218.191 1.80962 -1.49299 0
M  V30 2382 C 219.207 1.69775 -0.381108 0
M  V30 2383 O 220.383 1.91188 -0.633188 0
M  V30 2384 C 217.448 3.17156 -1.40045 0
M  V30 2385 C 216.509 3.40242 -2.6179 0
M  V30 2386 C 215.742 4.69939 -2.52969 0
M  V30 2387 O 215.965 5.48372 -1.56985 0
M  V30 2388 O 214.899 4.94441 -3.43237 0
M  V30 2389 H 218.725 1.78427 -2.45759 0
M  V30 2390 H 216.31 0.823713 -1.24641 0
M  V30 2391 H 218.192 3.98413 -1.37276 0
M  V30 2392 H 216.867 3.20312 -0.467138 0
M  V30 2393 H 215.774 2.58802 -2.70134 0
M  V30 2394 H 217.107 3.41923 -3.54047 0
M  V30 2395 N 218.759 1.29093 0.90403 0
M  V30 2396 C 219.689 1.16401 2.02418 0
M  V30 2397 C 220.67 0.0593085 1.69997 0
M  V30 2398 O 221.855 0.238021 1.92736 0
M  V30 2399 C 218.985 0.835233 3.37107 0
M  V30 2400 C 217.939 1.89578 3.83724 0
M  V30 2401 C 217.265 1.42041 5.15489 0
M  V30 2402 C 218.565 3.30394 4.04521 0
M  V30 2403 H 220.259 2.10109 2.13295 0
M  V30 2404 H 217.805 1.01157 1.02486 0
M  V30 2405 H 219.758 0.733169 4.14973 0
M  V30 2406 H 218.482 -0.137543 3.2631 0
M  V30 2407 H 217.141 1.98715 3.08071 0
M  V30 2408 H 216.789 0.436426 5.01103 0
M  V30 2409 H 216.489 2.12964 5.4765 0
M  V30 2410 H 218.013 1.33176 5.959 0
M  V30 2411 H 219.427 3.24123 4.72882 0
M  V30 2412 H 217.824 3.99237 4.48029 0
M  V30 2413 H 218.894 3.73692 3.09002 0
M  V30 2414 N 220.237 -1.11381 1.11499 0
M  V30 2415 C 221.167 -2.19509 0.796125 0
M  V30 2416 C 222.148 -1.68458 -0.235796 0
M  V30 2417 O 223.333 -1.93947 -0.0991344 0
M  V30 2418 C 220.463 -3.46475 0.239205 0
M  V30 2419 C 219.417 -4.10744 1.20307 0
M  V30 2420 C 218.743 -5.32293 0.50683 0
M  V30 2421 C 220.043 -4.55597 2.55399 0
M  V30 2422 H 221.737 -2.46439 1.70024 0
M  V30 2423 H 219.283 -1.18446 0.818935 0
M  V30 2424 H 221.236 -4.214 0.00392006 0
M  V30 2425 H 219.96 -3.19006 -0.700206 0
M  V30 2426 H 218.619 -3.37813 1.42399 0
M  V30 2427 H 218.267 -5.01095 -0.437408 0
M  V30 2428 H 217.967 -5.76243 1.1497 0
M  V30 2429 H 219.491 -6.09956 0.280351 0
M  V30 2430 H 220.905 -5.21841 2.37391 0
M  V30 2431 H 219.302 -5.10363 3.15673 0
M  V30 2432 H 220.372 -3.69013 3.14575 0
M  V30 2433 N 221.715 -0.905404 -1.28997 0
M  V30 2434 C 222.662 -0.385892 -2.27551 0
M  V30 2435 C 223.632 0.535113 -1.57244 0
M  V30 2436 O 224.817 0.459119 -1.85194 0
M  V30 2437 C 221.957 0.375461 -3.43051 0
M  V30 2438 C 221.07 -0.577092 -4.28128 0
M  V30 2439 C 220.205 0.201879 -5.30816 0
M  V30 2440 C 219.244 -0.744829 -6.07551 0
M  V30 2441 N 218.381 9.42587e-05 -7.021 0
M  V30 2442 H 223.221 -1.23139 -2.71368 0
M  V30 2443 H 220.758 -0.618542 -1.33463 0
M  V30 2444 H 222.716 0.832992 -4.088 0
M  V30 2445 H 221.346 1.18537 -3.00248 0
M  V30 2446 H 220.398 -1.15315 -3.62501 0
M  V30 2447 H 221.71 -1.30152 -4.8152 0
M  V30 2448 H 220.864 0.720351 -6.02408 0
M  V30 2449 H 219.603 0.959413 -4.7817 0
M  V30 2450 H 218.608 -1.27475 -5.34818 0
M  V30 2451 H 219.833 -1.50178 -6.62286 0
M  V30 2452 H 217.779 0.739791 -6.51815 0
M  V30 2453 H 217.696 -0.664321 -7.53076 0
M  V30 2454 H 218.964 0.498644 -7.77903 0
M  V30 2455 N 223.193 1.4272 -0.668489 0
M  V30 2456 C 224.418 2.06484 -0.194758 0
M  V30 2457 C 224.843 1.49862 1.13679 0
M  V30 2458 O 224.201 0.614582 1.70565 0
M  V30 2459 C 224.249 3.60353 -0.133546 0
M  V30 2460 O 223.353 4.02464 0.899806 0
M  V30 2461 H 222.694 0.656137 -0.10188 0
M  V30 2462 H 225.224 1.82964 -0.915722 0
M  V30 2463 H 225.234 4.07976 0.0447041 0
M  V30 2464 H 223.909 4.00938 -1.1055 0
M  V30 2465 H 222.486 3.66402 0.693109 0
M  V30 2466 N 224.671 0.411399 1.52136 0
M  V30 2467 C 225.618 -0.412975 2.27075 0
M  V30 2468 C 226.588 -1.03912 1.29582 0
M  V30 2469 O 227.773 -1.06296 1.58448 0
M  V30 2470 C 224.913 -1.52247 3.09701 0
M  V30 2471 C 224.026 -0.917021 4.22155 0
M  V30 2472 C 223.161 -1.9994 4.92135 0
M  V30 2473 C 222.2 -1.37101 5.96548 0
M  V30 2474 N 221.337 -2.39364 6.60038 0
M  V30 2475 H 226.177 0.232499 2.97092 0
M  V30 2476 H 223.714 0.126496 1.46555 0
M  V30 2477 H 225.672 -2.17674 3.55913 0
M  V30 2478 H 224.302 -2.13794 2.41851 0
M  V30 2479 H 223.354 -0.151742 3.80097 0
M  V30 2480 H 224.666 -0.418006 4.97045 0
M  V30 2481 H 223.82 -2.73088 5.41763 0
M  V30 2482 H 222.559 -2.53208 4.16818 0
M  V30 2483 H 221.564 -0.624873 5.46237 0
M  V30 2484 H 222.789 -0.845998 6.7381 0
M  V30 2485 H 220.735 -2.91759 5.87548 0
M  V30 2486 H 220.652 -1.9428 7.3061 0
M  V30 2487 H 221.92 -3.12074 7.14304 0
M  V30 2488 N 226.149 -1.5696 0.141893 0
M  V30 2489 C 227.396 -1.9596 -0.510492 0
M  V30 2490 C 227.724 -1.02648 -1.65208 0
M  V30 2491 O 226.979 -0.0546947 -1.95624 0
M  V30 2492 C 227.278 -3.41242 -1.06249 0
M  V30 2493 C 226.944 -4.50882 -0.0398791 0
M  V30 2494 C 225.606 -4.80595 0.241247 0
M  V30 2495 C 227.958 -5.17058 0.65578 0
M  V30 2496 C 225.286 -5.73792 1.22393 0
M  V30 2497 C 227.638 -6.11313 1.62724 0
M  V30 2498 C 226.302 -6.39407 1.91612 0
M  V30 2499 H 225.572 -0.717068 -0.186802 0
M  V30 2500 H 228.219 -1.90142 0.227643 0
M  V30 2501 H 226.524 -3.43866 -1.87785 0
M  V30 2502 H 228.221 -3.68742 -1.57576 0
M  V30 2503 H 224.811 -4.27754 -0.269174 0
M  V30 2504 H 228.995 -4.94239 0.451779 0
M  V30 2505 H 224.251 -5.93853 1.45424 0
M  V30 2506 H 228.425 -6.61668 2.17183 0
M  V30 2507 H 226.052 -7.11427 2.6791 0
M  V30 2508 N 227.627 0.131896 -1.57047 0
M  V30 2509 C 228.852 0.860418 -1.8871 0
M  V30 2510 C 229.277 1.73251 -0.73251 0
M  V30 2511 O 228.635 1.785 0.317429 0
M  V30 2512 C 228.683 1.68047 -3.19049 0
M  V30 2513 O 227.787 2.7862 -3.04047 0
M  V30 2514 H 227.128 0.238743 -0.619595 0
M  V30 2515 H 229.658 0.118169 -2.04258 0
M  V30 2516 H 229.668 2.07238 -3.51449 0
M  V30 2517 H 228.343 1.04018 -4.02682 0
M  V30 2518 H 226.92 2.42726 -2.83088 0
M  V30 2519 N 229.106 1.52395 0.401703 0
M  V30 2520 C 230.016 1.7917 1.51444 0
M  V30 2521 C 231.032 0.677691 1.6026 0
M  V30 2522 O 232.208 0.963909 1.76835 0
M  V30 2523 C 229.273 1.94347 2.87107 0
M  V30 2524 C 228.334 3.18257 2.88116 0
M  V30 2525 C 227.567 3.32701 4.17308 0
M  V30 2526 O 227.79 2.52238 5.11598 0
M  V30 2527 O 226.724 4.25891 4.25324 0
M  V30 2528 H 230.55 2.73633 1.31752 0
M  V30 2529 H 228.135 1.3733 0.588296 0
M  V30 2530 H 230.017 2.06109 3.67555 0
M  V30 2531 H 228.692 1.03073 3.06851 0
M  V30 2532 H 227.599 3.11947 2.06494 0
M  V30 2533 H 228.932 4.09336 2.73322 0
M  V30 2534 N 230.584 -0.659388 1.43143 0
M  V30 2535 C 231.532 -1.79374 1.4808 0
M  V30 2536 C 232.526 -1.65639 0.354988 0
M  V30 2537 O 233.732 -1.7206 0.528704 0
M  V30 2538 H 230.107 -0.591705 0.4641 0
M  V30 2539 H 232.078 -1.72329 2.43609 0
M  V30 2540 C 230.827 -3.17606 1.41499 0
M  V30 2541 H 230.15 -3.28809 2.27431 0
M  V30 2542 H 231.59 -3.96951 1.49015 0
M  V30 2543 C 230.049 -3.36642 0.131765 0
M  V30 2544 O 230.579 -3.93461 -0.809386 0
M  V30 2545 N 228.785 -2.90567 0.0439396 0
M  V30 2546 H 228.332 -2.44513 0.810619 0
M  V30 2547 H 228.29 -3.03681 -0.813969 0
M  V30 2548 N 232.062 -1.29571 -0.897171 0
M  V30 2549 C 233.31 -1.17456 -1.64464 0
M  V30 2550 C 233.631 0.273698 -1.9307 0
M  V30 2551 O 232.901 1.18684 -1.55855 0
M  V30 2552 H 231.481 -0.431706 -0.609622 0
M  V30 2553 H 234.143 -1.62531 -1.07562 0
M  V30 2554 H 233.239 -1.72648 -2.59998 0
M  V30 2555 N 233.54 1.10788 -1.12088 0
M  V30 2556 C 234.488 2.19111 -0.780587 0
M  V30 2557 C 235.482 1.67818 0.230961 0
M  V30 2558 O 236.688 1.79777 0.0895427 0
M  V30 2559 H 233.063 0.714477 -0.234578 0
M  V30 2560 H 235.034 2.45055 -1.70266 0
M  V30 2561 C 233.783 3.46818 -0.24747 0
M  V30 2562 H 233.106 3.86646 -1.01712 0
M  V30 2563 H 234.546 4.23973 -0.0476291 0
M  V30 2564 C 233.005 3.20968 1.02378 0
M  V30 2565 O 233.535 3.42298 2.10226 0
M  V30 2566 N 231.741 2.74658 0.949271 0
M  V30 2567 H 231.288 2.57501 0.0715173 0
M  V30 2568 H 231.246 2.57739 1.80049 0
M  V30 2569 N 235.018 0.912232 1.28515 0
M  V30 2570 C 235.95 0.35676 2.26406 0
M  V30 2571 C 236.963 -0.503933 1.54804 0
M  V30 2572 O 238.152 -0.319059 1.75625 0
M  V30 2573 C 235.252 -0.508825 3.35058 0
M  V30 2574 C 234.425 0.329007 4.36161 0
M  V30 2575 C 233.484 -0.471422 5.24084 0
M  V30 2576 O 232.51 0.115482 5.69083 0
M  V30 2577 N 233.712 -1.77479 5.52704 0
M  V30 2578 H 236.477 1.19818 2.74707 0
M  V30 2579 H 234.038 0.778022 1.4198 0
M  V30 2580 H 236.03 -1.051 3.90815 0
M  V30 2581 H 234.6 -1.25095 2.86478 0
M  V30 2582 H 233.82 1.05256 3.79888 0
M  V30 2583 H 235.108 0.90234 5.00735 0
M  V30 2584 H 234.506 -2.27417 5.17975 0
M  V30 2585 H 233.063 -2.26382 6.11224 0
M  V30 2586 N 236.496 -1.42363 0.676048 0
M  V30 2587 C 237.443 -2.308 -0.00150904 0
M  V30 2588 C 238.413 -1.46032 -0.791444 0
M  V30 2589 O 239.598 -1.74861 -0.76344 0
M  V30 2590 C 236.738 -3.31883 -0.945919 0
M  V30 2591 C 235.851 -4.31741 -0.149675 0
M  V30 2592 C 234.986 -5.19898 -1.08995 0
M  V30 2593 C 234.025 -6.11434 -0.285465 0
M  V30 2594 N 233.162 -6.92138 -1.17851 0
M  V30 2595 H 238.002 -2.88187 0.758455 0
M  V30 2596 H 235.539 -1.41952 0.38576 0
M  V30 2597 H 237.497 -3.89019 -1.50731 0
M  V30 2598 H 236.127 -2.76093 -1.6725 0
M  V30 2599 H 235.179 -3.76713 0.528359 0
M  V30 2600 H 236.491 -4.96534 0.474866 0
M  V30 2601 H 235.645 -5.81772 -1.72123 0
M  V30 2602 H 234.384 -4.55284 -1.74837 0
M  V30 2603 H 233.389 -5.48627 0.359018 0
M  V30 2604 H 234.614 -6.78097 0.368883 0
M  V30 2605 H 232.56 -6.30152 -1.82332 0
M  V30 2606 H 232.477 -7.53542 -0.609082 0
M  V30 2607 H 233.745 -7.58499 -1.79722 0
M  V30 2608 N 237.974 -0.419461 -1.51915 0
M  V30 2609 C 238.922 0.415502 -2.28859 0
M  V30 2610 C 239.916 1.03674 -1.3397 0
M  V30 2611 O 241.122 0.973757 -1.51387 0
M  V30 2612 H 237.497 0.152786 -0.736315 0
M  V30 2613 H 239.468 -0.254531 -2.97312 0
M  V30 2614 C 238.217 1.51425 -3.12995 0
M  V30 2615 H 237.54 1.04556 -3.85886 0
M  V30 2616 H 238.98 2.07208 -3.6992 0
M  V30 2617 C 237.439 2.48745 -2.27217 0
M  V30 2618 O 237.969 3.52871 -1.9195 0
M  V30 2619 N 236.175 2.19202 -1.90785 0
M  V30 2620 H 235.722 1.34556 -2.19664 0
M  V30 2621 H 235.68 2.84561 -1.33687 0
M  V30 2622 N 239.452 1.56882 -0.150215 0
M  V30 2623 C 240.382 2.19935 0.784284 0
M  V30 2624 C 241.363 1.14854 1.25469 0
M  V30 2625 O 242.548 1.43209 1.31168 0
M  V30 2626 C 239.678 2.82349 2.02229 0
M  V30 2627 C 238.632 3.93285 1.68853 0
M  V30 2628 C 237.958 4.42649 2.99944 0
M  V30 2629 C 239.258 5.13904 0.932714 0
M  V30 2630 H 240.952 2.9828 0.258781 0
M  V30 2631 H 238.498 1.43473 0.123029 0
M  V30 2632 H 240.451 3.25126 2.68088 0
M  V30 2633 H 239.175 2.0134 2.57157 0
M  V30 2634 H 237.834 3.5113 1.05371 0
M  V30 2635 H 237.482 3.58458 3.52869 0
M  V30 2636 H 237.182 5.17476 2.78374 0
M  V30 2637 H 238.706 4.88099 3.66868 0
M  V30 2638 H 240.12 5.53506 1.49345 0
M  V30 2639 H 238.517 5.94515 0.81684 0
M  V30 2640 H 239.587 4.84842 -0.0749568 0
M  V30 2641 N 240.93 -0.123565 1.57115 0
M  V30 2642 C 242.346 -0.476961 1.52306 0
M  V30 2643 C 242.546 -1.82109 0.86248 0
M  V30 2644 O 241.602 -2.48586 0.442884 0
M  V30 2645 C 242.915 -0.465661 2.97073 0
M  V30 2646 C 244.463 -0.549534 3.08138 0
M  V30 2647 C 244.938 -0.568669 4.54456 0
M  V30 2648 N 246.429 -0.630237 4.58892 0
M  V30 2649 C 247.164 -0.666415 5.69514 0
M  V30 2650 N 246.66 -0.660514 6.89644 0
M  V30 2651 N 248.453 -0.709077 5.5761 0
M  V30 2652 H 240.604 0.757198 1.98445 0
M  V30 2653 H 242.867 0.278808 0.906074 0
M  V30 2654 H 242.573 0.454232 3.48754 0
M  V30 2655 H 242.447 -1.29513 3.54269 0
M  V30 2656 H 244.834 -1.45985 2.56461 0
M  V30 2657 H 244.915 0.307532 2.53945 0
M  V30 2658 H 244.559 0.337581 5.06777 0
M  V30 2659 H 244.489 -1.44256 5.06456 0
M  V30 2660 H 246.98 -0.641146 3.72421 0
M  V30 2661 H 247.293 -0.690616 7.69708 0
M  V30 2662 H 245.638 -0.628012 6.92157 0
M  V30 2663 H 248.829 -0.711019 4.62668 0
M  V30 2664 H 249.002 -0.733804 6.43832 0
M  V30 2665 N 242.408 -1.52605 -0.393616 0
M  V30 2666 C 243.657 -1.66649 -1.13627 0
M  V30 2667 C 243.97 -0.410364 -1.91247 0
M  V30 2668 O 245.176 -0.430854 -2.68059 0
M  V30 2669 C 243.632 -2.9449 -2.06891 0
M  V30 2670 C 243.24 -4.27266 -1.34714 0
M  V30 2671 C 244.984 -3.17899 -2.81319 0
M  V30 2672 C 242.891 -5.46217 -2.26717 0
M  V30 2673 H 241.821 -0.62084 -0.427871 0
M  V30 2674 H 244.472 -1.791 -0.399428 0
M  V30 2675 H 242.854 -2.75774 -2.84191 0
M  V30 2676 H 244.028 -4.56518 -0.626714 0
M  V30 2677 H 242.343 -4.10081 -0.722643 0
M  V30 2678 H 244.94 -4.03949 -3.50328 0
M  V30 2679 H 245.283 -2.32777 -3.45139 0
M  V30 2680 H 245.816 -3.37159 -2.11113 0
M  V30 2681 H 242.555 -6.33733 -1.67521 0
M  V30 2682 H 242.075 -5.21283 -2.96689 0
M  V30 2683 H 243.754 -5.7991 -2.86903 0
M  V30 2684 N 243.887 0.651787 -1.4349 0
M  V30 2685 C 244.817 1.77621 -1.51569 0
M  V30 2686 C 245.798 1.66022 -0.370253 0
M  V30 2687 O 246.983 1.85095 -0.587658 0
M  V30 2688 C 244.113 3.16056 -1.43966 0
M  V30 2689 C 243.067 3.4242 -2.56774 0
M  V30 2690 C 242.393 4.8067 -2.34223 0
M  V30 2691 C 243.693 3.37023 -3.99015 0
M  V30 2692 H 245.387 1.71117 -2.45681 0
M  V30 2693 H 242.933 0.821825 -1.18246 0
M  V30 2694 H 244.886 3.94472 -1.48221 0
M  V30 2695 H 243.61 3.23293 -0.463586 0
M  V30 2696 H 242.269 2.66375 -2.51873 0
M  V30 2697 H 241.917 4.84585 -1.34856 0
M  V30 2698 H 241.617 4.9927 -3.09844 0
M  V30 2699 H 243.141 5.61342 -2.40265 0
M  V30 2700 H 244.555 4.05374 -4.05395 0
M  V30 2701 H 242.952 3.67159 -4.74673 0
M  V30 2702 H 244.022 2.3518 -4.2405 0
M  V30 2703 N 245.365 1.30045 0.890287 0
M  V30 2704 C 246.59 1.21598 1.68014 0
M  V30 2705 C 247.015 -0.218678 1.86825 0
M  V30 2706 O 246.373 -1.15756 1.39536 0
M  V30 2707 C 246.421 1.94434 3.03691 0
M  V30 2708 O 245.525 1.2678 3.92429 0
M  V30 2709 H 244.866 0.420856 0.513592 0
M  V30 2710 H 247.396 1.71775 1.11151 0
M  V30 2711 H 247.406 2.03251 3.5377 0
M  V30 2712 H 246.081 2.98777 2.89318 0
M  V30 2713 H 244.658 1.26282 3.50866 0
M  V30 2714 N 246.843 -1.10192 1.12674 0
M  V30 2715 C 247.773 -2.18652 0.819362 0
M  V30 2716 C 248.754 -1.68698 -0.217915 0
M  V30 2717 O 249.939 -1.94041 -0.0785581 0
M  V30 2718 C 247.069 -3.46202 0.27594 0
M  V30 2719 C 246.023 -4.09444 1.24656 0
M  V30 2720 C 245.349 -5.31725 0.563258 0
M  V30 2721 C 246.649 -4.52863 2.60217 0
M  V30 2722 H 248.343 -2.44622 1.72628 0
M  V30 2723 H 245.889 -1.17571 0.831451 0
M  V30 2724 H 247.842 -4.21372 0.0486149 0
M  V30 2725 H 246.566 -3.1973 -0.666331 0
M  V30 2726 H 245.225 -3.36284 1.45974 0
M  V30 2727 H 244.873 -5.0153 -0.384235 0
M  V30 2728 H 244.573 -5.74991 1.21075 0
M  V30 2729 H 246.097 -6.09624 0.34503 0
M  V30 2730 H 247.511 -5.19294 2.42913 0
M  V30 2731 H 245.908 -5.06986 3.21068 0
M  V30 2732 H 246.978 -3.65656 3.18471 0
M  V30 2733 N 248.321 -0.919034 -1.28029 0
M  V30 2734 C 249.231 -0.416756 -2.30869 0
M  V30 2735 C 250.247 0.498235 -1.66714 0
M  V30 2736 O 251.423 0.383144 -1.97722 0
M  V30 2737 C 248.488 0.330274 -3.45123 0
M  V30 2738 C 247.549 -0.618578 -4.2482 0
M  V30 2739 C 246.782 0.0928959 -5.33619 0
M  V30 2740 O 247.005 1.31375 -5.55065 0
M  V30 2741 O 245.939 -0.574499 -5.99152 0
M  V30 2742 H 249.765 -1.27043 -2.75851 0
M  V30 2743 H 247.35 -0.684052 -1.3282 0
M  V30 2744 H 249.232 0.751972 -4.14636 0
M  V30 2745 H 247.907 1.1597 -3.02213 0
M  V30 2746 H 246.814 -1.08978 -3.57875 0
M  V30 2747 H 248.147 -1.41497 -4.71423 0
M  V30 2748 N 249.799 1.42003 -0.683588 0
M  V30 2749 C 250.729 2.33487 -0.024866 0
M  V30 2750 C 251.71 1.51163 0.779975 0
M  V30 2751 O 252.895 1.79739 0.735362 0
M  V30 2752 C 250.025 3.3487 0.920836 0
M  V30 2753 C 248.979 4.27414 0.223958 0
M  V30 2754 C 248.305 5.19074 1.2832 0
M  V30 2755 C 249.605 5.14445 -0.90242 0
M  V30 2756 H 251.299 2.88819 -0.788921 0
M  V30 2757 H 248.845 1.38873 -0.38083 0
M  V30 2758 H 250.798 3.97787 1.39081 0
M  V30 2759 H 249.522 2.77861 1.71642 0
M  V30 2760 H 248.181 3.65904 -0.225864 0
M  V30 2761 H 247.829 4.58387 2.071 0
M  V30 2762 H 247.529 5.81822 0.821995 0
M  V30 2763 H 249.053 5.84867 1.75392 0
M  V30 2764 H 250.467 5.70998 -0.513272 0
M  V30 2765 H 248.864 5.86072 -1.28997 0
M  V30 2766 H 249.934 4.52322 -1.74737 0
M  V30 2767 N 251.277 0.427512 1.51691 0
M  V30 2768 C 252.21 -0.433876 2.24037 0
M  V30 2769 C 253.188 -1.03287 1.25581 0
M  V30 2770 O 254.372 -1.07722 1.54688 0
M  V30 2771 C 251.499 -1.60385 2.98319 0
M  V30 2772 C 250.545 -1.12648 4.11355 0
M  V30 2773 S 251.378 -0.076543 5.35445 0
M  V30 2774 C 252.534 -1.25141 6.13262 0
M  V30 2775 H 252.767 0.180367 2.96752 0
M  V30 2776 H 250.3 0.211946 1.52938 0
M  V30 2777 H 252.258 -2.27462 3.41718 0
M  V30 2778 H 250.919 -2.18948 2.25213 0
M  V30 2779 H 250.112 -2.0011 4.62571 0
M  V30 2780 H 249.714 -0.534088 3.70167 0
M  V30 2781 H 252.006 -2.17162 6.41753 0
M  V30 2782 H 252.949 -0.779411 7.03797 0
M  V30 2783 H 253.357 -1.48553 5.44603 0
M  V30 2784 N 252.755 -1.56801 0.158532 0
M  V30 2785 C 253.702 -2.17337 -0.776729 0
M  V30 2786 C 254.672 -1.1096 -1.23601 0
M  V30 2787 O 255.857 -1.39054 -1.30647 0
M  V30 2788 C 252.997 -2.80822 -2.00582 0
M  V30 2789 C 252.11 -4.01624 -1.59129 0
M  V30 2790 C 251.245 -4.53072 -2.77306 0
M  V30 2791 C 250.284 -5.66314 -2.32282 0
M  V30 2792 N 249.421 -6.12329 -3.43508 0
M  V30 2793 H 254.261 -2.96918 -0.253701 0
M  V30 2794 H 251.798 -1.46661 -0.113504 0
M  V30 2795 H 253.756 -3.15779 -2.72652 0
M  V30 2796 H 252.386 -2.03866 -2.50277 0
M  V30 2797 H 251.438 -3.72571 -0.767806 0
M  V30 2798 H 252.75 -4.83633 -1.2207 0
M  V30 2799 H 251.904 -4.90145 -3.57551 0
M  V30 2800 H 250.643 -3.70095 -3.17617 0
M  V30 2801 H 249.648 -5.28806 -1.5048 0
M  V30 2802 H 250.873 -6.51085 -1.93043 0
M  V30 2803 H 248.819 -5.32284 -3.83418 0
M  V30 2804 H 248.736 -6.89293 -3.105 0
M  V30 2805 H 250.004 -6.5405 -4.24075 0
M  V30 2806 N 254.233 0.115231 -1.57178 0
M  V30 2807 C 255.163 1.1423 -2.03651 0
M  V30 2808 C 256.144 1.42967 -0.921655 0
M  V30 2809 O 257.329 1.53343 -1.19162 0
M  V30 2810 C 254.459 2.4675 -2.44401 0
M  V30 2811 C 253.413 2.32467 -3.59365 0
M  V30 2812 C 252.739 3.69984 -3.86026 0
M  V30 2813 C 254.039 1.78203 -4.90959 0
M  V30 2814 H 255.733 0.755749 -2.89705 0
M  V30 2815 H 253.279 0.362093 -1.39373 0
M  V30 2816 H 255.232 3.18854 -2.75517 0
M  V30 2817 H 253.956 2.87302 -1.55322 0
M  V30 2818 H 252.615 1.62811 -3.28463 0
M  V30 2819 H 252.263 4.08028 -2.94147 0
M  V30 2820 H 251.963 3.61279 -4.63412 0
M  V30 2821 H 253.487 4.43587 -4.19599 0
M  V30 2822 H 254.901 2.40128 -5.20587 0
M  V30 2823 H 253.298 1.8031 -5.72371 0
M  V30 2824 H 254.368 0.739876 -4.79222 0
M  V30 2825 N 255.711 1.52812 0.385517 0
M  V30 2826 C 257.127 1.4214 0.725829 0
M  V30 2827 C 257.327 0.544589 1.94001 0
M  V30 2828 O 256.383 0.0193693 2.52493 0
M  V30 2829 C 257.696 2.85042 0.957668 0
M  V30 2830 C 259.244 2.94543 1.05892 0
M  V30 2831 C 259.719 4.38464 1.32337 0
M  V30 2832 N 261.21 4.41804 1.39151 0
M  V30 2833 C 261.945 5.5025 1.61285 0
M  V30 2834 N 261.441 6.68775 1.80866 0
M  V30 2835 N 263.234 5.37798 1.63492 0
M  V30 2836 H 255.385 2.08338 -0.413383 0
M  V30 2837 H 257.648 0.940016 -0.122775 0
M  V30 2838 H 257.354 3.51431 0.137568 0
M  V30 2839 H 257.228 3.27505 1.87137 0
M  V30 2840 H 259.615 2.28321 1.86959 0
M  V30 2841 H 259.696 2.55504 0.123057 0
M  V30 2842 H 259.34 5.05254 0.517793 0
M  V30 2843 H 259.27 4.75059 2.27214 0
M  V30 2844 H 261.761 3.56377 1.25713 0
M  V30 2845 H 262.074 7.47197 1.97271 0
M  V30 2846 H 260.419 6.71797 1.78083 0
M  V30 2847 H 263.61 4.44171 1.47749 0
M  V30 2848 H 263.783 6.22382 1.80402 0
M  V30 2849 N 257.189 -0.644168 1.43834 0
M  V30 2850 C 258.137 -1.77793 1.49974 0
M  V30 2851 C 259.131 -1.65253 0.372536 0
M  V30 2852 O 260.337 -1.7149 0.546924 0
M  V30 2853 H 256.712 -0.58675 0.47035 0
M  V30 2854 H 258.683 -1.69736 2.45423 0
M  V30 2855 C 257.432 -3.16087 1.4486 0
M  V30 2856 H 256.755 -3.26378 2.30905 0
M  V30 2857 H 258.195 -3.95349 1.53217 0
M  V30 2858 C 256.654 -3.36484 0.167463 0
M  V30 2859 O 257.184 -3.94298 -0.767609 0
M  V30 2860 N 255.39 -2.90504 0.0747556 0
M  V30 2861 H 254.937 -2.4364 0.836507 0
M  V30 2862 H 254.895 -3.04527 -0.781714 0
M  V30 2863 N 258.668 -1.30515 -0.883378 0
M  V30 2864 C 259.615 -1.17032 -1.98927 0
M  V30 2865 C 260.585 -0.0594241 -1.65994 0
M  V30 2866 O 261.77 -0.229895 -1.8941 0
M  V30 2867 C 258.91 -0.869777 -3.33959 0
M  V30 2868 C 258.023 -2.06271 -3.79574 0
M  V30 2869 C 257.158 -1.70011 -5.03259 0
M  V30 2870 C 256.197 -2.8579 -5.41286 0
M  V30 2871 N 255.334 -2.49816 -6.56153 0
M  V30 2872 H 260.174 -2.1164 -2.09792 0
M  V30 2873 H 257.711 -1.05296 -1.02719 0
M  V30 2874 H 259.669 -0.676138 -4.11685 0
M  V30 2875 H 258.299 0.0394332 -3.22776 0
M  V30 2876 H 257.351 -2.36755 -2.97744 0
M  V30 2877 H 258.663 -2.92971 -4.03694 0
M  V30 2878 H 257.817 -1.47032 -5.88614 0
M  V30 2879 H 256.556 -0.804829 -4.81013 0
M  V30 2880 H 255.561 -3.09434 -4.54456 0
M  V30 2881 H 256.786 -3.76008 -5.65504 0
M  V30 2882 H 254.732 -1.62795 -6.35479 0
M  V30 2883 H 254.649 -3.30048 -6.8015 0
M  V30 2884 H 255.917 -2.30197 -7.44735 0
M  V30 2885 N 260.146 1.09593 -1.13257 0
M  V30 2886 C 261.562 1.33775 -0.870423 0
M  V30 2887 C 261.762 1.95327 0.494926 0
M  V30 2888 O 260.818 2.19853 1.2418 0
M  V30 2889 C 262.131 2.25106 -1.99369 0
M  V30 2890 C 263.679 2.3862 -2.02558 0
M  V30 2891 C 264.154 3.33285 -3.14142 0
M  V30 2892 N 265.645 3.40857 -3.13641 0
M  V30 2893 C 266.38 4.14101 -3.96621 0
M  V30 2894 N 265.876 4.90157 -4.8961 0
M  V30 2895 N 267.669 4.09808 -3.84726 0
M  V30 2896 H 259.82 0.680136 -2.01216 0
M  V30 2897 H 262.083 0.362133 -0.876107 0
M  V30 2898 H 261.789 1.87103 -2.97801 0
M  V30 2899 H 261.663 3.25481 -1.90635 0
M  V30 2900 H 264.05 2.75887 -1.0474 0
M  V30 2901 H 264.131 1.38028 -2.15364 0
M  V30 2902 H 263.775 2.96741 -4.12198 0
M  V30 2903 H 263.705 4.33776 -2.98574 0
M  V30 2904 H 266.196 2.86624 -2.46282 0
M  V30 2905 H 266.509 5.4347 -5.49418 0
M  V30 2906 H 264.854 4.89251 -4.93617 0
M  V30 2907 H 268.045 3.4949 -3.11408 0
M  V30 2908 H 268.218 4.66629 -4.49623 0
M  V30 2909 N 261.624 0.925811 1.2754 0
M  V30 2910 C 262.534 0.428993 2.30644 0
M  V30 2911 C 263.55 -0.489387 1.66976 0
M  V30 2912 O 264.726 -0.372653 1.97922 0
M  V30 2913 C 261.791 -0.311967 3.45294 0
M  V30 2914 C 260.852 0.641098 4.24486 0
M  V30 2915 C 260.085 -0.0645955 5.33661 0
M  V30 2916 O 260.308 -1.28429 5.55754 0
M  V30 2917 O 259.242 0.606265 5.98839 0
M  V30 2918 H 263.068 1.28504 2.75173 0
M  V30 2919 H 260.653 0.691086 1.32455 0
M  V30 2920 H 262.535 -0.729972 4.15029 0
M  V30 2921 H 261.21 -1.14365 3.02824 0
M  V30 2922 H 260.117 1.10874 3.57292 0
M  V30 2923 H 261.45 1.43995 4.70666 0
M  V30 2924 N 263.102 -1.41638 0.69111 0
M  V30 2925 C 264.33 -2.05628 0.22909 0
M  V30 2926 C 264.745 -1.51992 -1.11999 0
M  V30 2927 O 264.102 -0.666322 -1.69901 0
M  V30 2928 C 264.153 -3.61084 0.173283 0
M  V30 2929 O 263.874 -4.12735 1.46907 0
M  V30 2930 C 265.375 -4.42213 -0.310266 0
M  V30 2931 H 262.595 -0.662327 0.107534 0
M  V30 2932 H 265.139 -1.81489 0.942438 0
M  V30 2933 H 263.294 -3.84278 -0.490858 0
M  V30 2934 H 263.708 -5.06743 1.35322 0
M  V30 2935 H 265.182 -5.51194 -0.298196 0
M  V30 2936 H 265.659 -4.1799 -1.34838 0
M  V30 2937 H 266.265 -4.24074 0.322716 0
M  V30 2938 N 264.58 -0.43555 -1.51462 0
M  V30 2939 C 265.527 0.376797 -2.27703 0
M  V30 2940 C 266.497 1.01838 -1.31219 0
M  V30 2941 O 267.682 1.03762 -1.60119 0
M  V30 2942 C 264.822 1.47301 -3.12084 0
M  V30 2943 C 263.935 0.849744 -4.2356 0
M  V30 2944 C 263.07 1.92086 -4.95254 0
M  V30 2945 C 262.109 1.27593 -5.98654 0
M  V30 2946 N 261.246 2.28833 -6.63762 0
M  V30 2947 H 266.086 -0.279734 -2.96684 0
M  V30 2948 H 263.623 -0.149795 -1.46335 0
M  V30 2949 H 265.581 2.11984 -3.59331 0
M  V30 2950 H 264.211 2.0992 -2.45221 0
M  V30 2951 H 263.263 0.0912529 -3.80291 0
M  V30 2952 H 264.575 0.338878 -4.97648 0
M  V30 2953 H 263.729 2.64435 -5.46039 0
M  V30 2954 H 262.468 2.46545 -4.20793 0
M  V30 2955 H 261.473 0.537893 -5.47162 0
M  V30 2956 H 262.698 0.738693 -6.7507 0
M  V30 2957 H 260.644 2.82375 -5.92115 0
M  V30 2958 H 260.561 1.82632 -7.33608 0
M  V30 2959 H 261.829 3.00671 -7.19178 0
M  V30 2960 N 266.058 1.56714 -0.166846 0
M  V30 2961 C 266.991 2.13577 0.80375 0
M  V30 2962 C 267.969 1.06464 1.22899 0
M  V30 2963 O 269.153 1.34413 1.32157 0
M  V30 2964 C 266.28 2.67168 2.0818 0
M  V30 2965 C 265.326 3.86612 1.80093 0
M  V30 2966 S 266.159 5.26565 0.97416 0
M  V30 2967 C 267.315 5.83558 2.26297 0
M  V30 2968 H 267.548 2.9557 0.320267 0
M  V30 2969 H 265.081 1.54326 0.0477555 0
M  V30 2970 H 267.039 2.98692 2.8159 0
M  V30 2971 H 265.7 1.85269 2.53642 0
M  V30 2972 H 264.893 4.22422 2.7491 0
M  V30 2973 H 264.495 3.55951 1.14781 0
M  V30 2974 H 266.787 5.962 3.21795 0
M  V30 2975 H 267.73 6.80731 1.94962 0
M  V30 2976 H 268.138 5.11944 2.37853 0
M  V30 2977 N 267.536 -0.106894 1.57237 0
M  V30 2978 C 268.952 -0.46078 1.52804 0
M  V30 2979 C 269.152 -1.81184 0.881746 0
M  V30 2980 O 268.208 -2.48102 0.469224 0
M  V30 2981 C 269.521 -0.434127 2.9755 0
M  V30 2982 C 271.069 -0.516821 3.08704 0
M  V30 2983 C 271.544 -0.520436 4.55033 0
M  V30 2984 N 273.035 -0.58153 4.59535 0
M  V30 2985 C 273.77 -0.605973 5.70189 0
M  V30 2986 N 273.266 -0.587331 6.90306 0
M  V30 2987 N 275.059 -0.649895 5.5833 0
M  V30 2988 H 267.21 0.778203 1.9763 0
M  V30 2989 H 269.473 0.288403 0.903066 0
M  V30 2990 H 269.179 0.491197 3.48253 0
M  V30 2991 H 269.053 -1.25748 3.55622 0
M  V30 2992 H 271.44 -1.43256 2.57995 0
M  V30 2993 H 271.521 0.334449 2.53604 0
M  V30 2994 H 271.165 0.391313 5.0639 0
M  V30 2995 H 271.095 -1.38876 5.07958 0
M  V30 2996 H 273.586 -0.60161 3.73081 0
M  V30 2997 H 273.899 -0.60894 7.70397 0
M  V30 2998 H 272.244 -0.554564 6.92784 0
M  V30 2999 H 275.435 -0.661907 4.63397 0
M  V30 3000 H 275.608 -0.665476 6.44574 0
M  V30 3001 N 269.014 -1.53014 -0.377408 0
M  V30 3002 C 270.262 -1.6829 -1.11906 0
M  V30 3003 C 270.583 -0.431206 -1.90173 0
M  V30 3004 O 269.853 0.554595 -1.87886 0
M  V30 3005 H 268.433 -0.620371 -0.416112 0
M  V30 3006 H 271.095 -1.90167 -0.426893 0
M  V30 3007 H 270.191 -2.53862 -1.8155 0
M  V30 3008 N 270.492 0.636531 -1.44174 0
M  V30 3009 C 271.425 1.76139 -1.45087 0
M  V30 3010 C 272.403 1.59611 -0.310326 0
M  V30 3011 O 273.587 1.81568 -0.506477 0
M  V30 3012 C 270.714 3.13648 -1.27839 0
M  V30 3013 C 269.76 3.48838 -2.45386 0
M  V30 3014 S 270.593 3.46927 -4.07924 0
M  V30 3015 C 271.749 4.87064 -3.9309 0
M  V30 3016 H 271.982 1.75096 -2.40268 0
M  V30 3017 H 269.515 0.810666 -1.31406 0
M  V30 3018 H 271.473 3.93002 -1.18575 0
M  V30 3019 H 270.134 3.12235 -0.341787 0
M  V30 3020 H 269.327 4.48886 -2.29167 0
M  V30 3021 H 268.929 2.76935 -2.51362 0
M  V30 3022 H 271.221 5.76153 -3.56446 0
M  V30 3023 H 272.164 5.08337 -4.92949 0
M  V30 3024 H 272.572 4.61384 -3.25246 0
M  V30 3025 N 271.97 1.30982 0.876444 0
M  V30 3026 C 272.903 1.12414 1.98591 0
M  V30 3027 C 273.881 0.0294078 1.62573 0
M  V30 3028 O 275.065 0.184598 1.87594 0
M  V30 3029 C 272.192 0.716276 3.3104 0
M  V30 3030 C 271.238 1.81311 3.86042 0
M  V30 3031 S 272.071 3.41727 4.1229 0
M  V30 3032 C 273.227 3.02863 5.47745 0
M  V30 3033 H 273.46 2.06338 2.14037 0
M  V30 3034 H 270.993 1.15393 1.02586 0
M  V30 3035 H 272.951 0.487697 4.07593 0
M  V30 3036 H 271.612 -0.203749 3.13438 0
M  V30 3037 H 270.805 1.48021 4.81774 0
M  V30 3038 H 270.407 1.99641 3.16259 0
M  V30 3039 H 272.699 2.51353 6.29148 0
M  V30 3040 H 273.642 3.97533 5.8598 0
M  V30 3041 H 274.05 2.40487 5.10711 0
M  V30 3042 N 273.449 -1.08991 1.13837 0
M  V30 3043 C 274.412 -2.13925 0.822715 0
M  V30 3044 C 275.412 -1.599 -0.1699 0
M  V30 3045 O 276.602 -1.74104 0.0577251 0
M  V30 3046 C 273.734 -3.40155 0.225318 0
M  V30 3047 H 274.927 -2.43358 1.75262 0
M  V30 3048 H 272.48 -1.24603 0.943594 0
M  V30 3049 H 273.215 -3.16352 -0.713594 0
M  V30 3050 H 273 -3.80661 0.940193 0
M  V30 3051 H 274.49 -4.17594 0.0214784 0
M  V30 3052 N 274.927 -0.932562 -1.27047 0
M  V30 3053 C 275.874 -0.434072 -2.26681 0
M  V30 3054 C 276.844 0.501639 -1.58344 0
M  V30 3055 O 278.029 0.419734 -1.86126 0
M  V30 3056 C 275.169 0.30261 -3.43771 0
M  V30 3057 C 274.282 -0.667774 -4.26808 0
M  V30 3058 C 273.417 0.0892393 -5.31125 0
M  V30 3059 C 272.456 -0.873532 -6.05835 0
M  V30 3060 N 271.593 -0.148832 -7.01942 0
M  V30 3061 H 276.433 -1.28868 -2.68695 0
M  V30 3062 H 273.97 -0.646713 -1.32121 0
M  V30 3063 H 275.928 0.746092 -4.10474 0
M  V30 3064 H 274.558 1.12142 -3.02695 0
M  V30 3065 H 273.61 -1.22978 -3.59973 0
M  V30 3066 H 274.922 -1.40337 -4.78651 0
M  V30 3067 H 274.076 0.592409 -6.03801 0
M  V30 3068 H 272.815 0.85777 -4.80097 0
M  V30 3069 H 271.82 -1.38791 -5.31994 0
M  V30 3070 H 273.045 -1.64193 -6.58952 0
M  V30 3071 H 270.991 0.601365 -6.53238 0
M  V30 3072 H 270.908 -0.82391 -7.51497 0
M  V30 3073 H 272.176 0.333527 -7.78786 0
M  V30 3074 N 276.405 1.4127 -0.698611 0
M  V30 3075 C 277.337 2.292 0.00399731 0
M  V30 3076 C 278.35 1.44944 0.741279 0
M  V30 3077 O 279.539 1.68416 0.591477 0
M  V30 3078 C 276.639 3.22875 1.02979 0
M  V30 3079 C 275.812 4.35904 0.36151 0
M  V30 3080 C 274.871 5.10134 1.29033 0
M  V30 3081 O 273.897 5.63809 0.781562 0
M  V30 3082 N 275.099 5.17885 2.6225 0
M  V30 3083 H 277.864 2.9014 -0.750921 0
M  V30 3084 H 275.425 1.52455 -0.544882 0
M  V30 3085 H 277.417 3.69404 1.65296 0
M  V30 3086 H 275.987 2.63221 1.68622 0
M  V30 3087 H 275.207 3.91719 -0.441584 0
M  V30 3088 H 276.495 5.08696 -0.103055 0
M  V30 3089 H 275.893 4.7573 3.061 0
M  V30 3090 H 274.45 5.6798 3.19754 0
M  V30 3091 N 277.883 0.443576 1.51229 0
M  V30 3092 C 278.793 -0.370721 2.31652 0
M  V30 3093 C 279.809 -1.02186 1.40833 0
M  V30 3094 O 280.985 -1.01586 1.73903 0
M  V30 3095 C 278.05 -1.45376 3.14749 0
M  V30 3096 C 277.111 -0.822099 4.21355 0
M  V30 3097 C 276.344 -1.85353 5.0048 0
M  V30 3098 O 276.567 -3.07656 4.80316 0
M  V30 3099 O 275.501 -1.4406 5.84406 0
M  V30 3100 H 279.327 0.286002 3.0235 0
M  V30 3101 H 276.912 0.20598 1.47973 0
M  V30 3102 H 278.794 -2.08173 3.66391 0
M  V30 3103 H 277.469 -2.09445 2.46809 0
M  V30 3104 H 276.376 -0.155909 3.73775 0
M  V30 3105 H 277.709 -0.224797 4.91686 0
M  V30 3106 N 279.361 -1.56624 0.175154 0
M  V30 3107 C 280.609 -1.96609 -0.467885 0
M  V30 3108 C 280.93 -1.06238 -1.63519 0
M  V30 3109 O 280.2 -0.129523 -1.95471 0
M  V30 3110 H 278.78 -0.726008 -0.175845 0
M  V30 3111 H 281.442 -1.93195 0.257234 0
M  V30 3112 H 280.538 -3.00989 -0.825342 0
M  V30 3113 N 280.839 0.0985539 -1.57292 0
M  V30 3114 C 281.772 1.15082 -1.97057 0
M  V30 3115 C 282.75 1.39025 -0.843255 0
M  V30 3116 O 283.934 1.52842 -1.10325 0
M  V30 3117 C 281.061 2.50069 -2.28437 0
M  V30 3118 C 280.107 2.42428 -3.509 0
M  V30 3119 S 280.94 1.84414 -5.02744 0
M  V30 3120 C 282.096 3.21032 -5.37298 0
M  V30 3121 H 282.329 0.811815 -2.86002 0
M  V30 3122 H 279.862 0.306102 -1.51335 0
M  V30 3123 H 281.82 3.27729 -2.47192 0
M  V30 3124 H 280.481 2.8114 -1.40069 0
M  V30 3125 H 279.674 3.41911 -3.70288 0
M  V30 3126 H 279.276 1.72896 -3.31637 0
M  V30 3127 H 281.568 4.17297 -5.33731 0
M  V30 3128 H 282.511 3.06452 -6.38352 0
M  V30 3129 H 282.919 3.20404 -4.64759 0
M  V30 3130 N 282.317 1.53212 0.369288 0
M  V30 3131 C 283.227 1.82342 1.47609 0
M  V30 3132 C 284.243 0.711532 1.58787 0
M  V30 3133 O 285.419 1.0012 1.74751 0
M  V30 3134 C 282.484 2.00393 2.8292 0
M  V30 3135 C 281.545 3.24297 2.81301 0
M  V30 3136 C 280.778 3.41478 4.10157 0
M  V30 3137 O 281.001 2.63033 5.06132 0
M  V30 3138 O 279.935 4.34817 4.16194 0
M  V30 3139 H 283.761 2.76366 1.25918 0
M  V30 3140 H 281.346 1.38547 0.559034 0
M  V30 3141 H 283.228 2.13859 3.63101 0
M  V30 3142 H 281.903 1.09559 3.04596 0
M  V30 3143 H 280.81 3.16257 1.99831 0
M  V30 3144 H 282.143 4.15041 2.64578 0
M  V30 3145 N 283.795 -0.628877 1.44509 0
M  V30 3146 C 284.728 -1.75367 1.46019 0
M  V30 3147 C 285.706 -1.59444 0.318787 0
M  V30 3148 O 286.89 -1.81297 0.516099 0
M  V30 3149 C 284.017 -3.12965 1.29501 0
M  V30 3150 C 283.063 -3.47532 2.47233 0
M  V30 3151 S 283.896 -3.44758 4.09758 0
M  V30 3152 C 285.052 -4.84973 3.95667 0
M  V30 3153 H 285.285 -1.7382 2.41193 0
M  V30 3154 H 282.818 -0.803686 1.31834 0
M  V30 3155 H 284.776 -3.92367 1.20658 0
M  V30 3156 H 283.437 -3.12049 0.358341 0
M  V30 3157 H 282.63 -4.47664 2.31544 0
M  V30 3158 H 282.232 -2.75598 2.52828 0
M  V30 3159 H 284.524 -5.74255 3.59496 0
M  V30 3160 H 285.467 -5.05716 4.95638 0
M  V30 3161 H 285.875 -4.59653 3.27688 0
M  V30 3162 N 285.273 -1.31445 -0.869486 0
M  V30 3163 C 286.22 -1.19135 -1.97675 0
M  V30 3164 C 287.19 -0.0770266 -1.65921 0
M  V30 3165 O 288.375 -0.249972 -1.89155 0
M  V30 3166 C 285.515 -0.905149 -3.33018 0
M  V30 3167 C 284.628 -2.10285 -3.77365 0
M  V30 3168 C 283.763 -1.75339 -5.01427 0
M  V30 3169 C 282.802 -2.91515 -5.38224 0
M  V30 3170 N 281.939 -2.56762 -6.53466 0
M  V30 3171 H 286.779 -2.13853 -2.07535 0
M  V30 3172 H 284.316 -1.06379 -1.01597 0
M  V30 3173 H 286.274 -0.719765 -4.10944 0
M  V30 3174 H 284.904 0.00519624 -3.228 0
M  V30 3175 H 283.956 -2.39899 -2.95216 0
M  V30 3176 H 285.268 -2.97237 -4.00564 0
M  V30 3177 H 284.422 -1.53266 -5.87022 0
M  V30 3178 H 283.161 -0.855801 -4.80133 0
M  V30 3179 H 282.166 -3.14237 -4.51149 0
M  V30 3180 H 283.391 -3.81985 -5.61484 0
M  V30 3181 H 281.337 -1.69526 -6.33717 0
M  V30 3182 H 281.254 -3.37243 -6.76612 0
M  V30 3183 H 282.522 -2.38083 -7.42251 0
M  V30 3184 N 286.751 1.08385 -1.14413 0
M  V30 3185 C 287.681 2.17321 -0.854044 0
M  V30 3186 C 288.662 1.69024 0.191049 0
M  V30 3187 O 289.847 1.94141 0.0476779 0
M  V30 3188 C 286.977 3.45719 -0.330983 0
M  V30 3189 C 285.931 4.07409 -1.31155 0
M  V30 3190 C 285.257 5.30762 -0.64778 0
M  V30 3191 C 286.557 4.48665 -2.67388 0
M  V30 3192 H 288.251 2.41845 -1.76498 0
M  V30 3193 H 285.797 1.16233 -0.850051 0
M  V30 3194 H 287.75 4.21241 -0.115645 0
M  V30 3195 H 286.474 3.2075 0.615381 0
M  V30 3196 H 285.133 3.33919 -1.51306 0
M  V30 3197 H 284.781 5.02078 0.304398 0
M  V30 3198 H 284.481 5.72992 -1.30207 0
M  V30 3199 H 286.005 6.08998 -0.441972 0
M  V30 3200 H 287.419 5.15364 -2.51143 0
M  V30 3201 H 285.816 5.01814 -3.29093 0
M  V30 3202 H 286.886 3.60543 -3.24248 0
M  V30 3203 N 288.23 0.939286 1.26551 0
M  V30 3204 C 289.162 0.404704 2.25599 0
M  V30 3205 C 290.175 -0.470983 1.55838 0
M  V30 3206 O 291.364 -0.281734 1.76263 0
M  V30 3207 C 288.464 -0.43764 3.36062 0
M  V30 3208 C 287.637 0.421449 4.35365 0
M  V30 3209 C 286.696 -0.36015 5.24966 0
M  V30 3210 O 285.722 0.236167 5.6871 0
M  V30 3211 N 286.924 -1.65715 5.56344 0
M  V30 3212 H 289.689 1.25618 2.72103 0
M  V30 3213 H 287.25 0.807963 1.40298 0
M  V30 3214 H 289.242 -0.967866 3.92956 0
M  V30 3215 H 287.812 -1.18991 2.89067 0
M  V30 3216 H 287.032 1.1329 3.7757 0
M  V30 3217 H 288.32 1.00835 4.98708 0
M  V30 3218 H 287.718 -2.16378 5.22682 0
M  V30 3219 H 286.275 -2.13366 6.15888 0
M  V30 3220 N 289.708 -1.40897 0.706093 0
M  V30 3221 C 290.954 -2.01352 0.241889 0
M  V30 3222 C 291.287 -1.55832 -1.15888 0
M  V30 3223 O 290.562 -0.774145 -1.7843 0
M  V30 3224 C 290.845 -3.58752 0.311311 0
M  V30 3225 C 290.698 -4.1437 1.74978 0
M  V30 3226 C 292.017 -4.38914 -0.322922 0
M  V30 3227 H 289.136 -0.731562 0.0893687 0
M  V30 3228 H 291.778 -1.67504 0.896802 0
M  V30 3229 H 289.928 -3.87718 -0.246302 0
M  V30 3230 H 291.6 -3.96239 2.36205 0
M  V30 3231 H 289.843 -3.69016 2.28057 0
M  V30 3232 H 290.514 -5.23532 1.74981 0
M  V30 3233 H 292.99 -4.15822 0.152089 0
M  V30 3234 H 291.866 -5.48358 -0.243855 0
M  V30 3235 H 292.127 -4.19176 -1.40513 0
M  V30 3236 N 291.186 -0.45159 -1.50991 0
M  V30 3237 C 292.414 0.108334 -2.06616 0
M  V30 3238 C 292.829 1.35224 -1.31757 0
M  V30 3239 O 292.186 1.78475 -0.381174 0
M  V30 3240 C 292.237 0.41619 -3.59096 0
M  V30 3241 O 291.958 -0.778361 -4.3113 0
M  V30 3242 C 293.459 1.02523 -4.31282 0
M  V30 3243 H 290.679 0.00159995 -0.670998 0
M  V30 3244 H 293.223 -0.634771 -1.94399 0
M  V30 3245 H 291.378 1.10921 -3.71181 0
M  V30 3246 H 291.792 -0.511181 -5.22003 0
M  V30 3247 H 293.266 1.19053 -5.39009 0
M  V30 3248 H 293.743 2.01013 -3.905 0
M  V30 3249 H 294.349 0.371173 -4.23677 0
M  V30 3250 N 292.664 1.56529 -0.183458 0
M  V30 3251 C 293.596 2.15747 0.773697 0
M  V30 3252 C 294.609 1.1162 1.1851 0
M  V30 3253 O 295.798 1.3876 1.12285 0
M  V30 3254 C 292.898 2.6952 2.05456 0
M  V30 3255 C 292.071 3.98429 1.8048 0
M  V30 3256 C 291.13 4.37145 2.92901 0
M  V30 3257 O 290.156 5.04791 2.6301 0
M  V30 3258 N 291.358 3.99695 4.2098 0
M  V30 3259 H 294.123 2.98505 0.26736 0
M  V30 3260 H 291.684 1.619 -0.0010878 0
M  V30 3261 H 293.676 2.92412 2.79781 0
M  V30 3262 H 292.246 1.91282 2.47245 0
M  V30 3263 H 291.466 3.8379 0.899947 0
M  V30 3264 H 292.754 4.82597 1.61175 0
M  V30 3265 H 292.152 3.4526 4.48121 0
M  V30 3266 H 290.709 4.27562 4.9197 0
M  V30 3267 N 294.142 -0.090211 1.57342 0
M  V30 3268 C 295.558 -0.444547 1.53284 0
M  V30 3269 C 295.758 -1.80238 0.900914 0
M  V30 3270 O 294.814 -2.4759 0.495513 0
M  V30 3271 C 296.127 -0.402543 2.97993 0
M  V30 3272 C 297.675 -0.48405 3.09234 0
M  V30 3273 C 298.15 -0.472144 4.5556 0
M  V30 3274 N 299.641 -0.532757 4.60126 0
M  V30 3275 C 300.376 -0.545462 5.708 0
M  V30 3276 N 299.872 -0.514082 6.9089 0
M  V30 3277 N 301.665 -0.59064 5.58988 0
M  V30 3278 H 293.816 0.799121 1.96794 0
M  V30 3279 H 296.079 0.297965 0.899956 0
M  V30 3280 H 295.785 0.528106 3.47712 0
M  V30 3281 H 295.659 -1.21969 3.56936 0
M  V30 3282 H 298.046 -1.40512 2.595 0
M  V30 3283 H 298.127 0.361328 2.53235 0
M  V30 3284 H 297.771 0.445 5.05947 0
M  V30 3285 H 297.701 -1.3348 5.09402 0
M  V30 3286 H 300.192 -0.562006 3.73698 0
M  V30 3287 H 300.505 -0.527195 7.71 0
M  V30 3288 H 298.85 -0.481054 6.93333 0
M  V30 3289 H 302.041 -0.61272 4.64073 0
M  V30 3290 H 302.214 -0.597073 6.45243 0
M  V30 3291 N 295.62 -1.53406 -0.361157 0
M  V30 3292 C 296.845 -1.74024 -1.12829 0
M  V30 3293 C 297.27 -0.470069 -1.82132 0
M  V30 3294 O 296.628 0.57619 -1.719 0
M  V30 3295 C 296.676 -2.90903 -2.13091 0
M  V30 3296 O 295.78 -2.59821 -3.20261 0
M  V30 3297 H 295.121 -0.577804 -0.327168 0
M  V30 3298 H 297.651 -2.00307 -0.41693 0
M  V30 3299 H 297.661 -3.17194 -2.56616 0
M  V30 3300 H 296.336 -3.83034 -1.62042 0
M  V30 3301 H 294.913 -2.44362 -2.81677 0
M  V30 3302 N 297.098 0.621204 -1.44841 0
M  V30 3303 C 298.028 1.74366 -1.55303 0
M  V30 3304 C 299.009 1.65199 -0.405385 0
M  V30 3305 O 300.194 1.83807 -0.626787 0
M  V30 3306 C 297.324 3.12931 -1.50637 0
M  V30 3307 C 296.278 3.36896 -2.63979 0
M  V30 3308 C 295.604 4.75594 -2.44366 0
M  V30 3309 C 296.904 3.28483 -4.06074 0
M  V30 3310 H 298.598 1.65867 -2.49256 0
M  V30 3311 H 296.144 0.796558 -1.19962 0
M  V30 3312 H 298.097 3.9124 -1.56555 0
M  V30 3313 H 296.821 3.22237 -0.532057 0
M  V30 3314 H 295.48 2.60972 -2.57467 0
M  V30 3315 H 295.128 4.81616 -1.45105 0
M  V30 3316 H 294.828 4.92586 -3.20364 0
M  V30 3317 H 296.352 5.5612 -2.52117 0
M  V30 3318 H 297.766 3.96684 -4.13902 0
M  V30 3319 H 296.163 3.57008 -4.82354 0
M  V30 3320 H 297.233 2.26133 -4.28943 0
M  V30 3321 N 298.576 1.31904 0.862503 0
M  V30 3322 C 299.486 1.22161 2.00285 0
M  V30 3323 C 300.502 0.136785 1.73462 0
M  V30 3324 O 301.678 0.355994 1.98229 0
M  V30 3325 C 298.743 0.937093 3.33796 0
M  V30 3326 C 297.804 2.10957 3.73893 0
M  V30 3327 C 297.037 1.83853 5.01033 0
M  V30 3328 O 297.26 0.777274 5.65079 0
M  V30 3329 O 296.194 2.69741 5.38074 0
M  V30 3330 H 300.02 2.18008 2.11439 0
M  V30 3331 H 297.605 1.11716 0.991957 0
M  V30 3332 H 299.487 0.794583 4.13841 0
M  V30 3333 H 298.162 0.00871894 3.23699 0
M  V30 3334 H 297.069 2.30752 2.94456 0
M  V30 3335 H 298.402 3.02046 3.88625 0
M  V30 3336 N 300.054 -1.07777 1.14986 0
M  V30 3337 C 300.964 -2.18404 0.856546 0
M  V30 3338 C 301.98 -1.73211 -0.165485 0
M  V30 3339 O 303.156 -2.01399 0.00755219 0
M  V30 3340 C 300.221 -3.44977 0.34526 0
M  V30 3341 C 299.282 -4.0476 1.43065 0
M  V30 3342 C 298.515 -5.25291 0.943663 0
M  V30 3343 O 298.738 -5.70004 -0.212426 0
M  V30 3344 O 297.672 -5.76638 1.72547 0
M  V30 3345 H 301.498 -2.45978 1.78125 0
M  V30 3346 H 299.083 -1.17033 0.928631 0
M  V30 3347 H 300.965 -4.21348 0.0663671 0
M  V30 3348 H 299.64 -3.18965 -0.551631 0
M  V30 3349 H 298.547 -3.29949 1.76309 0
M  V30 3350 H 299.88 -4.35035 2.30229 0
M  V30 3351 N 301.532 -0.945985 -1.26051 0
M  V30 3352 C 302.757 -0.612525 -1.98149 0
M  V30 3353 C 303.182 0.806623 -1.69927 0
M  V30 3354 O 302.54 1.54411 -0.950108 0
M  V30 3355 C 302.588 -0.866981 -3.50023 0
M  V30 3356 O 301.692 0.0585333 -4.12358 0
M  V30 3357 H 301.033 -0.23379 -0.621481 0
M  V30 3358 H 303.563 -1.27023 -1.60395 0
M  V30 3359 H 303.573 -0.789792 -4.00283 0
M  V30 3360 H 302.248 -1.90135 -3.69894 0
M  V30 3361 H 300.825 -0.0701241 -3.72834 0
M  V30 3362 N 303.011 1.40521 -0.713556 0
M  V30 3363 C 303.943 2.29191 -0.0203126 0
M  V30 3364 C 304.956 1.45723 0.725864 0
M  V30 3365 O 306.145 1.69033 0.573581 0
M  V30 3366 C 303.245 3.2395 0.995486 0
M  V30 3367 C 302.418 4.36262 0.315256 0
M  V30 3368 C 301.477 5.11474 1.23616 0
M  V30 3369 O 300.503 5.64606 0.721719 0
M  V30 3370 N 301.705 5.20638 2.56743 0
M  V30 3371 H 304.47 2.89327 -0.781652 0
M  V30 3372 H 302.031 1.51869 -0.561022 0
M  V30 3373 H 304.023 3.71137 1.61368 0
M  V30 3374 H 302.593 2.64995 1.6582 0
M  V30 3375 H 301.813 3.91228 -0.483106 0
M  V30 3376 H 303.101 5.08558 -0.157004 0
M  V30 3377 H 302.499 4.7895 3.01037 0
M  V30 3378 H 301.056 5.71339 3.13712 0
M  V30 3379 N 304.489 0.459591 1.5075 0
M  V30 3380 C 305.737 -0.0991532 2.01857 0
M  V30 3381 C 306.058 -1.41247 1.34441 0
M  V30 3382 O 305.328 -1.89775 0.486022 0
M  V30 3383 H 303.908 -0.039633 0.745948 0
M  V30 3384 H 306.57 0.607387 1.85194 0
M  V30 3385 H 305.666 -0.258998 3.11023 0
M  V30 3386 N 305.967 -1.56429 0.191757 0
M  V30 3387 C 306.914 -2.18936 -0.730454 0
M  V30 3388 C 307.884 -1.13557 -1.21219 0
M  V30 3389 O 309.069 -1.41794 -1.27668 0
M  V30 3390 C 306.209 -2.85013 -1.9458 0
M  V30 3391 C 305.322 -4.04909 -1.50574 0
M  V30 3392 C 304.457 -4.58853 -2.67634 0
M  V30 3393 C 303.496 -5.71114 -2.20217 0
M  V30 3394 N 302.633 -6.19478 -3.30442 0
M  V30 3395 H 307.473 -2.97389 -0.190664 0
M  V30 3396 H 305.01 -1.46869 -0.0823694 0
M  V30 3397 H 306.968 -3.21492 -2.65893 0
M  V30 3398 H 305.598 -2.09129 -2.45896 0
M  V30 3399 H 304.65 -3.74115 -0.688605 0
M  V30 3400 H 305.962 -4.86113 -1.11784 0
M  V30 3401 H 305.116 -4.97619 -3.47074 0
M  V30 3402 H 303.855 -3.76749 -3.09696 0
M  V30 3403 H 302.86 -5.31879 -1.3923 0
M  V30 3404 H 304.085 -6.55033 -1.79189 0
M  V30 3405 H 302.031 -5.40297 -3.72041 0
M  V30 3406 H 301.948 -6.95725 -2.9581 0
M  V30 3407 H 303.216 -6.62898 -4.10106 0
M  V30 3408 N 307.445 0.0818655 -1.57387 0
M  V30 3409 C 308.694 0.781681 -1.85937 0
M  V30 3410 C 309.007 1.79246 -0.782957 0
M  V30 3411 O 310.213 2.54112 -0.955987 0
M  V30 3412 C 308.669 1.44109 -3.29789 0
M  V30 3413 C 308.277 0.469396 -4.45534 0
M  V30 3414 C 310.021 2.12386 -3.67549 0
M  V30 3415 C 307.928 1.13415 -5.80423 0
M  V30 3416 H 306.858 0.295682 -0.693605 0
M  V30 3417 H 309.509 0.0348051 -1.83467 0
M  V30 3418 H 307.891 2.23588 -3.2684 0
M  V30 3419 H 309.065 -0.294856 -4.59856 0
M  V30 3420 H 307.38 -0.108383 -4.16259 0
M  V30 3421 H 309.977 2.62878 -4.65617 0
M  V30 3422 H 310.32 2.91877 -2.96839 0
M  V30 3423 H 310.853 1.39751 -3.72444 0
M  V30 3424 H 307.592 0.379771 -6.54399 0
M  V30 3425 H 307.112 1.8695 -5.69921 0
M  V30 3426 H 308.791 1.65686 -6.25426 0
M  V30 3427 N 308.923 1.53595 0.353017 0
M  V30 3428 C 309.886 1.80232 1.41594 0
M  V30 3429 C 310.886 0.673081 1.46035 0
M  V30 3430 O 312.076 0.941335 1.46576 0
M  V30 3431 C 309.208 1.93578 2.80607 0
M  V30 3432 H 310.401 2.75174 1.19244 0
M  V30 3433 H 307.954 1.44864 0.586872 0
M  V30 3434 H 308.689 1.00746 3.08254 0
M  V30 3435 H 308.474 2.75724 2.78781 0
M  V30 3436 H 309.964 2.15735 3.57558 0
M  V30 3437 N 310.401 -0.613514 1.45168 0
M  V30 3438 C 311.333 -1.73825 1.4939 0
M  V30 3439 C 312.346 -1.58175 0.385304 0
M  V30 3440 O 313.535 -1.66165 0.652036 0
M  V30 3441 C 310.635 -3.11758 1.32891 0
M  V30 3442 C 309.808 -3.53704 2.57317 0
M  V30 3443 C 308.867 -4.70579 2.35462 0
M  V30 3444 O 307.893 -4.77996 3.09044 0
M  V30 3445 N 309.095 -5.63454 1.39644 0
M  V30 3446 H 311.86 -1.70669 2.46358 0
M  V30 3447 H 309.421 -0.79862 1.40832 0
M  V30 3448 H 311.413 -3.87692 1.1609 0
M  V30 3449 H 309.983 -3.09456 0.442218 0
M  V30 3450 H 309.203 -2.67794 2.89275 0
M  V30 3451 H 310.491 -3.78486 3.40038 0
M  V30 3452 H 309.889 -5.6017 0.789062 0
M  V30 3453 H 308.446 -6.38944 1.28816 0
M  V30 3454 N 311.879 -1.3236 -0.855495 0
M  V30 3455 C 312.809 -1.23833 -1.97958 0
M  V30 3456 C 313.79 -0.122361 -1.69659 0
M  V30 3457 O 314.975 -0.30939 -1.9172 0
M  V30 3458 C 312.105 -0.959772 -3.33775 0
M  V30 3459 C 311.059 -2.03689 -3.76424 0
M  V30 3460 C 310.385 -1.61075 -5.09862 0
M  V30 3461 C 311.685 -3.4518 -3.9198 0
M  V30 3462 H 313.379 -2.1788 -2.0535 0
M  V30 3463 H 310.925 -1.04891 -0.986605 0
M  V30 3464 H 312.878 -0.886678 -4.11966 0
M  V30 3465 H 311.602 0.0163404 -3.26596 0
M  V30 3466 H 310.261 -2.10012 -3.00484 0
M  V30 3467 H 309.909 -0.622107 -4.99138 0
M  V30 3468 H 309.609 -2.33143 -5.39368 0
M  V30 3469 H 311.133 -1.55201 -5.90546 0
M  V30 3470 H 312.547 -3.4145 -4.60526 0
M  V30 3471 H 310.944 -4.1559 -4.32903 0
M  V30 3472 H 312.014 -3.84903 -2.94919 0
M  V30 3473 N 313.357 1.07166 -1.15556 0
M  V30 3474 C 314.267 2.17947 -0.868116 0
M  V30 3475 C 315.283 1.73297 0.156297 0
M  V30 3476 O 316.459 2.01392 -0.0182327 0
M  V30 3477 C 313.524 3.44789 -0.36355 0
M  V30 3478 C 312.585 4.03996 -1.45209 0
M  V30 3479 C 311.818 5.24783 -0.971508 0
M  V30 3480 O 312.041 5.70109 0.182194 0
M  V30 3481 O 310.975 5.75715 -1.75603 0
M  V30 3482 H 314.801 2.4503 -1.79427 0
M  V30 3483 H 312.386 1.16539 -0.934824 0
M  V30 3484 H 314.268 4.21307 -0.0887113 0
M  V30 3485 H 312.943 3.19253 0.534708 0
M  V30 3486 H 311.85 3.29009 -1.78056 0
M  V30 3487 H 313.183 4.33808 -2.32533 0
M  V30 3488 N 314.835 0.952656 1.25548 0
M  V30 3489 C 316.083 0.605176 1.92826 0
M  V30 3490 C 316.404 -0.860261 1.74999 0
M  V30 3491 O 315.674 -1.6125 1.11244 0
M  V30 3492 H 314.254 0.220832 0.713612 0
M  V30 3493 H 316.916 1.21047 1.52754 0
M  V30 3494 H 316.012 0.832798 3.00784 0
M  V30 3495 N 316.313 -1.40141 0.720998 0
M  V30 3496 C 317.26 -2.30688 0.071919 0
M  V30 3497 C 318.23 -1.48476 -0.744584 0
M  V30 3498 O 319.415 -1.77201 -0.707423 0
M  V30 3499 C 316.555 -3.34724 -0.839855 0
M  V30 3500 C 315.668 -4.31998 -0.0122438 0
M  V30 3501 C 314.803 -5.23102 -0.923995 0
M  V30 3502 C 313.842 -6.12033 -0.0907969 0
M  V30 3503 N 312.979 -6.95537 -0.957718 0
M  V30 3504 H 317.819 -2.85628 0.849755 0
M  V30 3505 H 315.356 -1.40653 0.430726 0
M  V30 3506 H 317.314 -3.93618 -1.38279 0
M  V30 3507 H 315.944 -2.81274 -1.58381 0
M  V30 3508 H 314.996 -3.74841 0.64794 0
M  V30 3509 H 316.308 -4.94772 0.632595 0
M  V30 3510 H 315.462 -5.86953 -1.53527 0
M  V30 3511 H 314.201 -4.60615 -1.60264 0
M  V30 3512 H 313.206 -5.47207 0.533377 0
M  V30 3513 H 314.431 -6.76581 0.584428 0
M  V30 3514 H 312.377 -6.35633 -1.62192 0
M  V30 3515 H 312.294 -7.55099 -0.36904 0
M  V30 3516 H 313.562 -7.63832 -1.555 0
M  V30 3517 N 317.792 -0.46758 -1.50504 0
M  V30 3518 C 318.722 0.318381 -2.31319 0
M  V30 3519 C 319.703 0.993564 -1.38066 0
M  V30 3520 O 320.888 0.991411 -1.66987 0
M  V30 3521 C 318.018 1.40275 -3.17711 0
M  V30 3522 C 316.972 0.849373 -4.19487 0
M  V30 3523 C 316.298 2.03177 -4.94594 0
M  V30 3524 C 317.598 -0.136942 -5.2212 0
M  V30 3525 H 319.292 -0.356106 -2.97275 0
M  V30 3526 H 316.838 -0.172703 -1.42961 0
M  V30 3527 H 318.791 1.96004 -3.73042 0
M  V30 3528 H 317.515 2.10596 -2.49634 0
M  V30 3529 H 316.174 0.314076 -3.65252 0
M  V30 3530 H 315.822 2.72187 -4.22993 0
M  V30 3531 H 315.522 1.66774 -5.63436 0
M  V30 3532 H 317.046 2.59403 -5.52759 0
M  V30 3533 H 318.46 0.331056 -5.72343 0
M  V30 3534 H 316.857 -0.41507 -5.98663 0
M  V30 3535 H 317.927 -1.06398 -4.73083 0
M  V30 3536 N 319.27 1.56325 -0.20005 0
M  V30 3537 C 320.516 1.98012 0.438059 0
M  V30 3538 C 320.849 1.08702 1.60927 0
M  V30 3539 O 320.124 0.140064 1.93995 0
M  V30 3540 C 320.407 3.48841 0.893419 0
M  V30 3541 C 320.26 4.48928 -0.279947 0
M  V30 3542 C 321.579 4.03498 1.75719 0
M  V30 3543 H 318.698 0.719918 0.157757 0
M  V30 3544 H 321.34 1.87743 -0.291968 0
M  V30 3545 H 319.49 3.57723 1.51547 0
M  V30 3546 H 321.162 4.52079 -0.91772 0
M  V30 3547 H 319.405 4.23694 -0.930919 0
M  V30 3548 H 320.076 5.5194 0.0812601 0
M  V30 3549 H 322.552 3.97427 1.23253 0
M  V30 3550 H 321.428 5.09393 2.04476 0
M  V30 3551 H 321.689 3.4906 2.71311 0
M  V30 3552 N 320.748 -0.0735177 1.57428 0
M  V30 3553 C 321.973 -0.789787 1.91774 0
M  V30 3554 C 322.398 -1.70413 0.796306 0
M  V30 3555 O 321.756 -1.79555 -0.250961 0
M  V30 3556 C 321.804 -1.5609 3.25067 0
M  V30 3557 O 320.908 -2.67144 3.14178 0
M  V30 3558 H 320.249 -0.215582 0.628029 0
M  V30 3559 H 322.779 -0.0422781 2.04556 0
M  V30 3560 H 322.789 -1.94052 3.58898 0
M  V30 3561 H 321.464 -0.890015 4.06265 0
M  V30 3562 H 320.041 -2.32052 2.91901 0
M  V30 3563 N 322.226 -1.5378 -0.344866 0
M  V30 3564 C 323.475 -1.7018 -1.08267 0
M  V30 3565 C 323.788 -0.471 -1.89845 0
M  V30 3566 O 324.994 -0.515917 -2.66553 0
M  V30 3567 C 323.45 -3.00923 -1.97417 0
M  V30 3568 C 323.058 -4.31335 -1.21053 0
M  V30 3569 C 324.802 -3.26688 -2.71063 0
M  V30 3570 C 322.709 -5.53153 -2.09225 0
M  V30 3571 H 321.639 -0.634138 -0.407903 0
M  V30 3572 H 324.29 -1.8028 -0.342246 0
M  V30 3573 H 322.672 -2.84676 -2.75274 0
M  V30 3574 H 323.846 -4.58281 -0.481159 0
M  V30 3575 H 322.161 -4.12173 -0.591813 0
M  V30 3576 H 324.758 -4.1489 -3.37299 0
M  V30 3577 H 325.101 -2.43639 -3.37558 0
M  V30 3578 H 325.634 -3.43705 -2.0028 0
M  V30 3579 H 322.373 -6.38741 -1.47274 0
M  V30 3580 H 321.893 -5.30458 -2.79955 0
M  V30 3581 H 323.572 -5.88744 -2.68308 0
M  V30 3582 N 323.704 0.605807 -1.45491 0
M  V30 3583 C 324.614 1.74466 -1.56839 0
M  V30 3584 C 325.63 1.68006 -0.452772 0
M  V30 3585 O 326.806 1.8833 -0.713708 0
M  V30 3586 C 323.871 3.10931 -1.53371 0
M  V30 3587 C 322.932 3.28832 -2.75986 0
M  V30 3588 C 322.165 4.58787 -2.72673 0
M  V30 3589 O 322.388 5.4122 -1.80102 0
M  V30 3590 O 321.322 4.79438 -3.63899 0
M  V30 3591 H 325.148 1.67843 -2.53106 0
M  V30 3592 H 322.733 0.770108 -1.28022 0
M  V30 3593 H 324.615 3.92233 -1.54051 0
M  V30 3594 H 323.29 3.18042 -0.602572 0
M  V30 3595 H 322.197 2.47112 -2.80867 0
M  V30 3596 H 323.53 3.26599 -3.68231 0
M  V30 3597 N 325.182 1.32811 0.848464 0
M  V30 3598 C 326.129 1.22265 1.95755 0
M  V30 3599 C 327.099 0.103413 1.65778 0
M  V30 3600 O 328.284 0.280033 1.88734 0
M  V30 3601 C 325.424 0.958014 3.31536 0
M  V30 3602 C 324.537 2.16262 3.73971 0
M  V30 3603 C 323.672 1.83295 4.98575 0
M  V30 3604 C 322.711 3.00041 5.33518 0
M  V30 3605 N 321.848 2.67125 6.49299 0
M  V30 3606 H 326.688 2.17128 2.04107 0
M  V30 3607 H 324.225 1.07982 0.998913 0
M  V30 3608 H 326.183 0.785052 4.09747 0
M  V30 3609 H 324.813 0.046159 3.22767 0
M  V30 3610 H 323.865 2.44565 2.91362 0
M  V30 3611 H 325.177 3.03572 3.95785 0
M  V30 3612 H 324.331 1.62586 5.84509 0
M  V30 3613 H 323.07 0.932078 4.7871 0
M  V30 3614 H 322.075 3.21374 4.46093 0
M  V30 3615 H 323.3 3.90869 5.55336 0
M  V30 3616 H 321.246 1.79586 6.3094 0
M  V30 3617 H 321.163 3.47965 6.71161 0
M  V30 3618 H 322.431 2.49861 7.3837 0
M  V30 3619 N 326.66 -1.06551 1.16123 0
M  V30 3620 C 327.57 -2.17484 0.879662 0
M  V30 3621 C 328.586 -1.73377 -0.147104 0
M  V30 3622 O 329.762 -2.01379 0.0289128 0
M  V30 3623 C 326.827 -3.44591 0.381829 0
M  V30 3624 C 325.888 -4.0322 1.4735 0
M  V30 3625 C 325.121 -5.24261 0.999324 0
M  V30 3626 O 325.344 -5.70198 -0.151957 0
M  V30 3627 O 324.278 -5.74775 1.78653 0
M  V30 3628 H 328.104 -2.44075 1.80724 0
M  V30 3629 H 325.689 -1.16042 0.940992 0
M  V30 3630 H 327.571 -4.21254 0.111053 0
M  V30 3631 H 326.246 -3.19532 -0.51777 0
M  V30 3632 H 325.153 -3.2806 1.79798 0
M  V30 3633 H 326.486 -4.32568 2.34831 0
M  V30 3634 N 328.138 -0.959301 -1.25041 0
M  V30 3635 C 329.085 -0.482057 -2.2571 0
M  V30 3636 C 330.055 0.467939 -1.59372 0
M  V30 3637 O 331.24 0.380159 -1.86974 0
M  V30 3638 C 328.38 0.229623 -3.44335 0
M  V30 3639 C 327.493 -0.758156 -4.25295 0
M  V30 3640 C 326.628 -0.0234403 -5.31195 0
M  V30 3641 C 325.667 -1.00184 -6.03846 0
M  V30 3642 N 324.804 -0.29769 -7.01469 0
M  V30 3643 H 329.644 -1.34538 -2.65901 0
M  V30 3644 H 327.181 -0.674592 -1.3072 0
M  V30 3645 H 329.139 0.658856 -4.11965 0
M  V30 3646 H 327.769 1.05696 -3.05005 0
M  V30 3647 H 326.821 -1.30586 -3.57284 0
M  V30 3648 H 328.133 -1.50458 -4.75567 0
M  V30 3649 H 327.287 0.464201 -6.04922 0
M  V30 3650 H 326.026 0.755741 -4.81809 0
M  V30 3651 H 325.031 -1.50044 -5.2893 0
M  V30 3652 H 326.256 -1.78133 -6.55321 0
M  V30 3653 H 324.202 0.462668 -6.54366 0
M  V30 3654 H 324.119 -0.983128 -7.4958 0
M  V30 3655 H 325.387 0.16826 -7.79318 0
M  V30 3656 N 329.616 1.39756 -0.72842 0
M  V30 3657 C 330.865 1.99879 -0.270407 0
M  V30 3658 C 331.178 1.58449 1.14688 0
M  V30 3659 O 332.384 2.11362 1.70407 0
M  V30 3660 C 330.84 3.57292 -0.43252 0
M  V30 3661 C 330.448 4.07688 -1.85727 0
M  V30 3662 C 332.192 4.24485 -0.0359507 0
M  V30 3663 C 330.099 5.5765 -1.96928 0
M  V30 3664 H 329.029 0.747689 -0.0973472 0
M  V30 3665 H 331.68 1.59837 -0.901355 0
M  V30 3666 H 330.062 3.95097 0.267219 0
M  V30 3667 H 331.236 3.81231 -2.58843 0
M  V30 3668 H 329.551 3.53135 -2.20646 0
M  V30 3669 H 332.148 5.34609 -0.0987484 0
M  V30 3670 H 332.491 4.03915 1.00787 0
M  V30 3671 H 333.024 3.9183 -0.686604 0
M  V30 3672 H 329.763 5.8309 -2.99476 0
M  V30 3673 H 329.283 5.8593 -1.28241 0
M  V30 3674 H 330.962 6.22957 -1.74737 0
M  V30 3675 N 331.094 0.475555 1.50254 0
M  V30 3676 C 332.371 -0.139685 1.95101 0
M  V30 3677 C 332.751 -1.56555 1.41611 0
M  V30 3678 O 332.099 -2.19956 0.618993 0
M  V30 3679 C 332.309 -0.0784298 3.48912 0
M  V30 3680 C 333.657 -0.265095 4.23772 0
M  V30 3681 O 334.681 -0.154808 3.55863 0
M  V30 3682 O 333.54 -0.488327 5.44314 0
M  V30 3683 H 330.634 -0.109236 0.819754 0
M  V30 3684 H 333.18 0.536276 1.61004 0
M  V30 3685 H 331.952 0.916918 3.80405 0
M  V30 3686 H 331.575 -0.795655 3.89558 0
M  V30 3687 N 332.573 -1.56217 0.208337 0
M  V30 3688 C 333.483 -2.23316 -0.718836 0
M  V30 3689 C 334.499 -1.23648 -1.22422 0
M  V30 3690 O 335.675 -1.56423 -1.26861 0
M  V30 3691 C 332.74 -2.88968 -1.91568 0
M  V30 3692 C 331.801 -4.03943 -1.45357 0
M  V30 3693 C 331.034 -4.66455 -2.59337 0
M  V30 3694 O 331.257 -4.27919 -3.77149 0
M  V30 3695 O 330.191 -5.55686 -2.31293 0
M  V30 3696 H 334.017 -3.03182 -0.177315 0
M  V30 3697 H 331.602 -1.49384 -0.0215402 0
M  V30 3698 H 333.484 -3.30455 -2.61491 0
M  V30 3699 H 332.159 -2.12071 -2.44556 0
M  V30 3700 H 331.066 -3.67052 -0.722746 0
M  V30 3701 H 332.399 -4.82543 -0.970219 0
M  V30 3702 N 334.051 0.0651679 -1.57465 0
M  V30 3703 C 334.998 1.07675 -2.04144 0
M  V30 3704 C 335.968 1.38071 -0.923335 0
M  V30 3705 O 337.153 1.49026 -1.19146 0
M  V30 3706 C 334.293 2.38337 -2.49579 0
M  V30 3707 C 333.406 2.14413 -3.75035 0
M  V30 3708 C 332.541 3.38686 -4.09225 0
M  V30 3709 C 331.58 3.10156 -5.27702 0
M  V30 3710 N 330.717 4.26778 -5.57499 0
M  V30 3711 H 335.557 0.671716 -2.90331 0
M  V30 3712 H 333.094 0.3201 -1.43575 0
M  V30 3713 H 335.052 3.14632 -2.73975 0
M  V30 3714 H 333.682 2.7663 -1.6636 0
M  V30 3715 H 332.734 1.2878 -3.57939 0
M  V30 3716 H 334.046 1.89344 -4.61466 0
M  V30 3717 H 333.2 4.23373 -4.34558 0
M  V30 3718 H 331.939 3.66837 -3.21374 0
M  V30 3719 H 330.944 2.23866 -5.02159 0
M  V30 3720 H 332.169 2.8332 -6.17176 0
M  V30 3721 H 330.115 4.54948 -4.72608 0
M  V30 3722 H 330.032 4.05005 -6.38362 0
M  V30 3723 H 331.3 5.12443 -5.87386 0
M  V30 3724 N 335.529 1.53961 0.336706 0
M  V30 3725 C 336.754 1.75797 1.10046 0
M  V30 3726 C 337.179 0.498985 1.81361 0
M  V30 3727 O 336.537 -0.548769 1.72795 0
M  V30 3728 C 336.585 2.94257 2.08436 0
M  V30 3729 O 335.689 2.64883 3.16087 0
M  V30 3730 H 335.03 0.582936 0.317934 0
M  V30 3731 H 337.56 2.00945 0.38501 0
M  V30 3732 H 337.57 3.21237 2.51537 0
M  V30 3733 H 336.245 3.85564 1.55927 0
M  V30 3734 H 334.822 2.48812 2.77753 0
M  V30 3735 N 337.007 -0.598083 1.45811 0
M  V30 3736 C 337.917 -1.73632 1.57763 0
M  V30 3737 C 338.933 -1.67763 0.461676 0
M  V30 3738 O 340.109 -1.87949 0.723685 0
M  V30 3739 C 337.174 -3.10114 1.55018 0
M  V30 3740 C 336.235 -3.27364 2.77726 0
M  V30 3741 C 335.468 -4.57334 2.75102 0
M  V30 3742 O 335.691 -5.40258 1.8297 0
M  V30 3743 O 334.625 -4.77502 3.66437 0
M  V30 3744 H 338.451 -1.66498 2.53992 0
M  V30 3745 H 336.036 -0.763308 1.28429 0
M  V30 3746 H 337.918 -3.9141 1.56129 0
M  V30 3747 H 336.593 -3.17718 0.619431 0
M  V30 3748 H 335.5 -2.45619 2.82174 0
M  V30 3749 H 336.833 -3.24641 3.69958 0
M  V30 3750 N 338.485 -1.33259 -0.841409 0
M  V30 3751 C 339.713 -1.27605 -1.62864 0
M  V30 3752 C 340.128 0.153507 -1.88175 0
M  V30 3753 O 339.485 1.09485 -1.46011 0
M  V30 3754 C 339.536 -2.04596 -2.98031 0
M  V30 3755 O 339.257 -3.41975 -2.73834 0
M  V30 3756 C 340.758 -2.06122 -3.92465 0
M  V30 3757 H 337.978 -0.439718 -0.506842 0
M  V30 3758 H 340.522 -1.75591 -1.04824 0
M  V30 3759 H 338.677 -1.60299 -3.5268 0
M  V30 3760 H 339.091 -3.81549 -3.59889 0
M  V30 3761 H 340.565 -2.64451 -4.84531 0
M  V30 3762 H 341.042 -1.05083 -4.26444 0
M  V30 3763 H 341.648 -2.50427 -3.43753 0
M  V30 3764 N 339.963 1.05934 -1.16686 0
M  V30 3765 C 340.873 2.17014 -0.891183 0
M  V30 3766 C 341.889 1.73453 0.137907 0
M  V30 3767 O 343.065 2.01361 -0.039592 0
M  V30 3768 C 340.13 3.44384 -0.400099 0
M  V30 3769 C 339.191 4.02433 -1.49486 0
M  V30 3770 C 338.424 5.23723 -1.02711 0
M  V30 3771 O 338.647 5.7027 0.121716 0
M  V30 3772 O 337.581 5.7382 -1.81699 0
M  V30 3773 H 341.407 2.43113 -1.82015 0
M  V30 3774 H 338.992 1.15541 -0.947132 0
M  V30 3775 H 340.874 4.21189 -0.133392 0
M  V30 3776 H 339.549 3.19802 0.500817 0
M  V30 3777 H 338.456 3.27102 -1.81535 0
M  V30 3778 H 339.789 4.31317 -2.37121 0
M  V30 3779 N 341.441 0.965919 1.2453 0
M  V30 3780 C 342.388 0.49402 2.25451 0
M  V30 3781 C 343.358 -0.45948 1.59618 0
M  V30 3782 O 344.543 -0.370238 1.87173 0
M  V30 3783 C 341.683 -0.211359 3.44452 0
M  V30 3784 C 340.796 0.7807 4.24887 0
M  V30 3785 C 339.931 0.0516105 5.31175 0
M  V30 3786 C 338.97 1.03385 6.03306 0
M  V30 3787 N 338.107 0.334887 7.01301 0
M  V30 3788 H 342.947 1.35946 2.65184 0
M  V30 3789 H 340.484 0.681515 1.3036 0
M  V30 3790 H 342.442 -0.637 4.12308 0
M  V30 3791 H 341.072 -1.04077 3.05562 0
M  V30 3792 H 340.124 1.32479 3.56586 0
M  V30 3793 H 341.436 1.52978 4.74762 0
M  V30 3794 H 340.59 -0.432114 6.05159 0
M  V30 3795 H 339.329 -0.730179 4.82203 0
M  V30 3796 H 338.334 1.52847 5.28127 0
M  V30 3797 H 339.559 1.81606 6.54367 0
M  V30 3798 H 337.505 -0.427959 6.54603 0
M  V30 3799 H 337.422 1.02287 7.49048 0
M  V30 3800 H 338.69 -0.126928 7.79397 0
M  V30 3801 N 342.919 -1.39368 0.735821 0
M  V30 3802 C 343.849 -2.33234 0.111506 0
M  V30 3803 C 344.83 -1.53954 -0.723334 0
M  V30 3804 O 346.015 -1.82344 -0.668147 0
M  V30 3805 C 343.145 -3.38057 -0.795917 0
M  V30 3806 C 342.099 -4.2795 -0.065172 0
M  V30 3807 C 341.425 -5.23479 -1.08967 0
M  V30 3808 C 342.725 -5.10741 1.09273 0
M  V30 3809 H 344.419 -2.85692 0.895571 0
M  V30 3810 H 341.965 -1.37364 0.432109 0
M  V30 3811 H 343.918 -4.02675 -1.24221 0
M  V30 3812 H 342.642 -2.8404 -1.61211 0
M  V30 3813 H 341.301 -3.64813 0.361511 0
M  V30 3814 H 340.949 -4.65758 -1.89944 0
M  V30 3815 H 340.649 -5.84472 -0.605489 0
M  V30 3816 H 342.173 -5.90974 -1.53565 0
M  V30 3817 H 343.587 -5.68699 0.724841 0
M  V30 3818 H 341.984 -5.8088 1.50659 0
M  V30 3819 H 343.054 -4.45525 1.91404 0
M  V30 3820 N 344.397 -0.483516 -1.5 0
M  V30 3821 C 345.327 0.293829 -2.31644 0
M  V30 3822 C 346.308 0.978864 -1.39112 0
M  V30 3823 O 347.493 0.973644 -1.68029 0
M  V30 3824 C 344.623 1.36897 -3.19181 0
M  V30 3825 C 343.577 0.804833 -4.20365 0
M  V30 3826 C 342.903 1.9792 -4.96721 0
M  V30 3827 C 344.203 -0.192313 -5.21946 0
M  V30 3828 H 345.897 -0.387616 -2.9688 0
M  V30 3829 H 343.443 -0.187856 -1.42769 0
M  V30 3830 H 345.396 1.92037 -3.751 0
M  V30 3831 H 344.12 2.07936 -2.51853 0
M  V30 3832 H 342.779 0.275319 -3.65565 0
M  V30 3833 H 342.427 2.67686 -4.25856 0
M  V30 3834 H 342.127 1.60789 -5.65173 0
M  V30 3835 H 343.651 2.53526 -5.55479 0
M  V30 3836 H 345.065 0.270333 -5.72662 0
M  V30 3837 H 343.462 -0.478543 -5.98189 0
M  V30 3838 H 344.532 -1.11409 -4.71928 0
M  V30 3839 N 345.875 1.56104 -0.216619 0
M  V30 3840 C 346.785 2.23694 0.706982 0
M  V30 3841 C 347.801 1.24295 1.21765 0
M  V30 3842 O 348.977 1.57094 1.2603 0
M  V30 3843 C 346.042 2.8998 1.90033 0
M  V30 3844 C 345.103 4.04708 1.43213 0
M  V30 3845 C 344.336 4.67824 2.56859 0
M  V30 3846 O 344.559 4.29913 3.74874 0
M  V30 3847 O 343.493 5.56905 2.28343 0
M  V30 3848 H 347.319 3.03272 0.161235 0
M  V30 3849 H 344.904 1.49394 0.0136177 0
M  V30 3850 H 346.786 3.31837 2.59735 0
M  V30 3851 H 345.461 2.13365 2.43428 0
M  V30 3852 H 344.368 3.6743 0.70327 0
M  V30 3853 H 345.701 4.83051 0.944615 0
M  V30 3854 N 347.353 -0.0568162 1.57498 0
M  V30 3855 C 348.583 -0.764515 1.91934 0
M  V30 3856 C 348.991 -1.70877 0.81227 0
M  V30 3857 O 348.334 -1.82351 -0.222213 0
M  V30 3858 C 348.396 -1.5994 3.21962 0
M  V30 3859 C 348.06 -0.822925 4.4953 0
M  V30 3860 C 349.057 -0.135464 5.19723 0
M  V30 3861 C 346.742 -0.785666 4.96117 0
M  V30 3862 C 348.736 0.578861 6.34766 0
M  V30 3863 C 346.423 -0.0675784 6.11063 0
M  V30 3864 C 347.421 0.613471 6.80239 0
M  V30 3865 O 347.109 1.31996 7.92989 0
M  V30 3866 H 346.841 -0.221647 0.63863 0
M  V30 3867 H 349.395 -0.0268218 2.05382 0
M  V30 3868 H 347.625 -2.38026 3.04763 0
M  V30 3869 H 349.314 -2.18715 3.41934 0
M  V30 3870 H 350.08 -0.155458 4.84751 0
M  V30 3871 H 345.959 -1.30524 4.42136 0
M  V30 3872 H 349.503 1.111 6.88696 0
M  V30 3873 H 345.4 -0.0455636 6.45484 0
M  V30 3874 H 346.168 1.23077 8.09194 0
M  V30 3875 N 348.832 -1.54138 -0.328536 0
M  V30 3876 C 350.081 -1.71318 -1.06456 0
M  V30 3877 C 350.394 -0.491109 -1.89334 0
M  V30 3878 O 351.6 -0.54416 -2.65991 0
M  V30 3879 C 350.056 -3.03 -1.94214 0
M  V30 3880 C 349.664 -4.32595 -1.16471 0
M  V30 3881 C 351.408 -3.29544 -2.67583 0
M  V30 3882 C 349.315 -5.55341 -2.03347 0
M  V30 3883 H 348.245 -0.638429 -0.401155 0
M  V30 3884 H 350.896 -1.80633 -0.323106 0
M  V30 3885 H 349.278 -2.87579 -2.72239 0
M  V30 3886 H 350.452 -4.58766 -0.432525 0
M  V30 3887 H 348.767 -4.12777 -0.548063 0
M  V30 3888 H 351.364 -4.18444 -3.3288 0
M  V30 3889 H 351.707 -2.47206 -3.34955 0
M  V30 3890 H 352.24 -3.45809 -1.96623 0
M  V30 3891 H 348.979 -6.40268 -1.40491 0
M  V30 3892 H 348.499 -5.33397 -2.74313 0
M  V30 3893 H 350.178 -5.91557 -2.62049 0
M  V30 3894 N 350.31 0.590341 -1.46126 0
M  V30 3895 C 351.22 1.72793 -1.58681 0
M  V30 3896 C 352.236 1.67516 -0.470566 0
M  V30 3897 O 353.412 1.87562 -0.733642 0
M  V30 3898 C 350.477 3.09287 -1.5666 0
M  V30 3899 C 349.538 3.25886 -2.79458 0
M  V30 3900 C 348.771 4.55869 -2.77524 0
M  V30 3901 O 348.994 5.3928 -1.85832 0
M  V30 3902 O 347.928 4.75552 -3.68964 0
M  V30 3903 H 351.754 1.65149 -2.54872 0
M  V30 3904 H 349.339 0.756486 -1.28832 0
M  V30 3905 H 351.221 3.90577 -1.58202 0
M  V30 3906 H 349.896 3.17385 -0.636271 0
M  V30 3907 H 348.803 2.44119 -2.83472 0
M  V30 3908 H 350.136 3.22675 -3.71674 0
M  V30 3909 N 351.788 1.33704 0.83433 0
M  V30 3910 C 352.698 1.26382 1.97648 0
M  V30 3911 C 353.714 0.173548 1.73132 0
M  V30 3912 O 354.89 0.397962 1.97429 0
M  V30 3913 C 351.955 1.00769 3.31733 0
M  V30 3914 C 351.016 2.1884 3.69334 0
M  V30 3915 C 350.249 1.9444 4.9702 0
M  V30 3916 O 350.472 0.896961 5.63303 0
M  V30 3917 O 349.406 2.81093 5.32231 0
M  V30 3918 H 353.232 2.22444 2.06767 0
M  V30 3919 H 350.817 1.13795 0.968037 0
M  V30 3920 H 352.699 0.882186 4.12062 0
M  V30 3921 H 351.374 0.0773783 3.23608 0
M  V30 3922 H 350.281 2.36946 2.89495 0
M  V30 3923 H 351.614 3.10221 3.82131 0
M  V30 3924 N 353.266 -1.05314 1.17247 0
M  V30 3925 C 354.515 -1.77685 0.954521 0
M  V30 3926 C 354.828 -1.88616 -0.518025 0
M  V30 3927 O 356.034 -2.57714 -0.854144 0
M  V30 3928 C 354.49 -3.19402 1.65863 0
M  V30 3929 C 354.098 -3.16605 3.16963 0
M  V30 3930 C 355.842 -3.96237 1.52303 0
M  V30 3931 C 353.749 -4.53103 3.80068 0
M  V30 3932 H 352.679 -0.666 0.353496 0
M  V30 3933 H 355.33 -1.1805 1.40486 0
M  V30 3934 H 353.712 -3.79355 1.13602 0
M  V30 3935 H 354.886 -2.66176 3.76148 0
M  V30 3936 H 353.201 -2.53268 3.30521 0
M  V30 3937 H 355.798 -4.97157 1.96822 0
M  V30 3938 H 356.141 -4.136 0.473401 0
M  V30 3939 H 356.674 -3.42829 2.01775 0
M  V30 3940 H 353.413 -4.40946 4.85023 0
M  V30 3941 H 352.933 -5.03686 3.2567 0
M  V30 3942 H 354.612 -5.22045 3.82202 0
M  V30 3943 N 354.744 -0.972509 -1.24016 0
M  V30 3944 C 355.969 -0.654417 -1.96805 0
M  V30 3945 C 356.394 0.770398 -1.716 0
M  V30 3946 O 355.752 1.52361 -0.982647 0
M  V30 3947 C 355.8 -0.941031 -3.48105 0
M  V30 3948 O 354.904 -0.0289472 -4.1239 0
M  V30 3949 H 354.245 -0.24692 -0.616382 0
M  V30 3950 H 356.775 -1.30396 -1.57664 0
M  V30 3951 H 356.785 -0.87452 -3.98517 0
M  V30 3952 H 355.46 -1.97939 -3.65777 0
M  V30 3953 H 354.037 -0.149192 -3.72601 0
M  V30 3954 N 356.222 1.38976 -0.743202 0
M  V30 3955 C 357.462 2.02193 -0.29954 0
M  V30 3956 C 357.826 1.5771 1.09506 0
M  V30 3957 O 359.027 2.13184 1.63726 0
M  V30 3958 C 357.298 3.55077 -0.406822 0
M  V30 3959 S 358.857 4.38778 -0.0442109 0
M  V30 3960 H 355.675 0.701335 -0.116836 0
M  V30 3961 H 358.277 1.69651 -0.971529 0
M  V30 3962 H 356.981 3.84942 -1.42295 0
M  V30 3963 H 356.512 3.92383 0.282707 0
M  V30 3964 H 358.527 4.82222 1.16947 0
M  V30 3965 N 357.7 0.491464 1.49741 0
M  V30 3966 C 358.663 -0.280906 2.27472 0
M  V30 3967 C 359.663 -0.902454 1.33088 0
M  V30 3968 O 360.853 -0.768465 1.56334 0
M  V30 3969 C 357.985 -1.40209 3.10732 0
M  V30 3970 H 359.178 0.401056 2.97206 0
M  V30 3971 H 356.731 0.246131 1.5435 0
M  V30 3972 H 357.466 -2.11849 2.45541 0
M  V30 3973 H 357.251 -0.961969 3.80117 0
M  V30 3974 H 358.741 -1.9464 3.69466 0
M  V30 3975 N 359.178 -1.55987 0.224894 0
M  V30 3976 C 360.403 -2.03232 -0.41369 0
M  V30 3977 C 360.828 -1.10359 -1.52323 0
M  V30 3978 O 360.186 -0.092395 -1.81064 0
M  V30 3979 C 360.234 -3.48682 -0.919405 0
M  V30 3980 O 359.338 -3.58947 -2.03054 0
M  V30 3981 H 358.679 -0.657428 -0.0931903 0
M  V30 3982 H 361.209 -2.01679 0.34451 0
M  V30 3983 H 361.219 -3.8907 -1.22835 0
M  V30 3984 H 359.894 -4.15761 -0.107339 0
M  V30 3985 H 358.471 -3.30448 -1.72796 0
M  V30 3986 N 360.656 0.0484629 -1.57525 0
M  V30 3987 C 361.933 0.777447 -1.79486 0
M  V30 3988 C 362.313 1.94597 -0.818251 0
M  V30 3989 O 361.661 2.28047 0.143767 0
M  V30 3990 C 361.871 1.22864 -3.26658 0
M  V30 3991 C 363.219 1.65251 -3.91123 0
M  V30 3992 O 364.243 1.32372 -3.3069 0
M  V30 3993 O 363.102 2.26207 -4.97486 0
M  V30 3994 H 360.196 0.374357 -0.737419 0
M  V30 3995 H 362.742 0.0267359 -1.69679 0
M  V30 3996 H 361.514 0.393589 -3.89316 0
M  V30 3997 H 361.137 2.03996 -3.41279 0
M  V30 3998 N 362.134 1.5431 0.320358 0
M  V30 3999 C 363.066 1.80262 1.41556 0
M  V30 4000 C 364.079 0.684723 1.477 0
M  V30 4001 O 365.268 0.961886 1.50366 0
M  V30 4002 C 362.368 1.90825 2.8007 0
M  V30 4003 C 361.541 3.21023 2.97091 0
M  V30 4004 C 360.6 3.22247 4.15985 0
M  V30 4005 O 359.626 3.95871 4.08992 0
M  V30 4006 N 360.828 2.46258 5.25678 0
M  V30 4007 H 363.593 2.74778 1.19655 0
M  V30 4008 H 361.154 1.53646 0.510358 0
M  V30 4009 H 363.146 1.89067 3.57821 0
M  V30 4010 H 361.716 1.03392 2.95006 0
M  V30 4011 H 360.936 3.35715 2.06614 0
M  V30 4012 H 362.224 4.0698 3.05361 0
M  V30 4013 H 361.622 1.86037 5.34235 0
M  V30 4014 H 360.179 2.50275 6.01835 0
M  V30 4015 N 363.613 -0.582584 1.46437 0
M  V30 4016 C 364.859 -1.34278 1.51978 0
M  V30 4017 C 365.192 -1.93446 0.170973 0
M  V30 4018 O 364.467 -1.76481 -0.817608 0
M  V30 4019 C 364.75 -2.47203 2.61845 0
M  V30 4020 C 364.603 -1.93069 4.06257 0
M  V30 4021 C 365.922 -3.49247 2.67795 0
M  V30 4022 H 363.041 -0.486876 0.553282 0
M  V30 4023 H 365.683 -0.654437 1.78374 0
M  V30 4024 H 363.833 -3.0592 2.39469 0
M  V30 4025 H 365.505 -1.38808 4.3992 0
M  V30 4026 H 363.748 -1.23898 4.1573 0
M  V30 4027 H 364.419 -2.74586 4.7886 0
M  V30 4028 H 366.895 -3.00411 2.8791 0
M  V30 4029 H 365.771 -4.25719 3.46489 0
M  V30 4030 H 366.032 -4.06482 1.73852 0
M  V30 4031 N 365.091 -1.34144 -0.827227 0
M  V30 4032 C 366.001 -1.27428 -1.96975 0
M  V30 4033 C 367.017 -0.182728 -1.73038 0
M  V30 4034 O 368.193 -0.408426 -1.97215 0
M  V30 4035 C 365.258 -1.02526 -3.31194 0
M  V30 4036 C 364.319 -2.20796 -3.68168 0
M  V30 4037 C 363.552 -1.97073 -4.95982 0
M  V30 4038 O 363.775 -0.926822 -5.6282 0
M  V30 4039 O 362.709 -2.83912 -5.30733 0
M  V30 4040 H 366.535 -2.23537 -2.05584 0
M  V30 4041 H 364.12 -1.14307 -0.961989 0
M  V30 4042 H 366.002 -0.904026 -4.11589 0
M  V30 4043 H 364.677 -0.0945389 -3.23562 0
M  V30 4044 H 363.584 -2.38477 -2.88235 0
M  V30 4045 H 364.917 -3.12243 -3.8048 0
M  V30 4046 N 366.569 1.04691 -1.17803 0
M  V30 4047 C 367.516 2.12557 -0.899343 0
M  V30 4048 C 368.486 1.65339 0.158771 0
M  V30 4049 O 369.671 1.90789 0.0204797 0
M  V30 4050 C 366.811 3.42481 -0.424315 0
M  V30 4051 C 365.924 4.03346 -1.54713 0
M  V30 4052 C 365.059 5.21208 -1.02546 0
M  V30 4053 C 364.098 5.74089 -2.12339 0
M  V30 4054 N 363.235 6.83247 -1.61612 0
M  V30 4055 H 368.075 2.35734 -1.823 0
M  V30 4056 H 365.612 1.1564 -0.909159 0
M  V30 4057 H 367.57 4.16996 -0.130421 0
M  V30 4058 H 366.2 3.19471 0.462377 0
M  V30 4059 H 365.252 3.2622 -1.95664 0
M  V30 4060 H 366.564 4.38628 -2.37501 0
M  V30 4061 H 365.718 6.02812 -0.685718 0
M  V30 4062 H 364.457 4.87414 -0.167084 0
M  V30 4063 H 363.462 4.91111 -2.47165 0
M  V30 4064 H 364.687 6.0993 -2.98601 0
M  V30 4065 H 362.633 6.5134 -0.780533 0
M  V30 4066 H 362.55 7.17559 -2.38003 0
M  V30 4067 H 363.818 7.68491 -1.30545 0
M  V30 4068 N 368.047 0.979072 1.23499 0
M  V30 4069 C 369.277 0.664237 1.95631 0
M  V30 4070 C 369.685 -0.772653 1.72704 0
M  V30 4071 O 369.028 -1.53141 1.01457 0
M  V30 4072 C 369.09 0.873115 3.48736 0
M  V30 4073 C 368.754 2.29182 3.95379 0
M  V30 4074 C 369.751 3.2704 4.04155 0
M  V30 4075 C 367.436 2.62256 4.28401 0
M  V30 4076 C 369.43 4.56052 4.45304 0
M  V30 4077 C 367.117 3.91491 4.69231 0
M  V30 4078 C 368.115 4.88201 4.77649 0
M  V30 4079 O 367.803 6.15129 5.17563 0
M  V30 4080 H 367.535 0.245915 0.629684 0
M  V30 4081 H 370.089 1.3127 1.57979 0
M  V30 4082 H 368.319 0.167476 3.86337 0
M  V30 4083 H 370.008 0.555642 4.02079 0
M  V30 4084 H 370.774 3.02819 3.78848 0
M  V30 4085 H 366.653 1.87692 4.21061 0
M  V30 4086 H 370.197 5.31538 4.51789 0
M  V30 4087 H 366.094 4.15508 4.93987 0
M  V30 4088 H 366.862 6.18862 5.35679 0
M  V30 4089 N 369.525 -1.3858 0.750561 0
M  V30 4090 C 370.472 -2.30483 0.120835 0
M  V30 4091 C 371.442 -1.50022 -0.712923 0
M  V30 4092 O 372.627 -1.78662 -0.669676 0
M  V30 4093 C 369.767 -3.36431 -0.768666 0
M  V30 4094 C 368.88 -4.31927 0.0793922 0
M  V30 4095 C 368.015 -5.24944 -0.81283 0
M  V30 4096 C 367.054 -6.12088 0.0390447 0
M  V30 4097 N 366.191 -6.97412 -0.809969 0
M  V30 4098 H 371.031 -2.83761 0.91015 0
M  V30 4099 H 368.568 -1.39707 0.460463 0
M  V30 4100 H 370.526 -3.96462 -1.29898 0
M  V30 4101 H 369.156 -2.8457 -1.5238 0
M  V30 4102 H 368.208 -3.73382 0.727303 0
M  V30 4103 H 369.52 -4.93319 0.737401 0
M  V30 4104 H 368.674 -5.90078 -1.41042 0
M  V30 4105 H 367.413 -4.63911 -1.50458 0
M  V30 4106 H 366.418 -5.45952 0.649328 0
M  V30 4107 H 367.643 -6.75189 0.727809 0
M  V30 4108 H 365.589 -6.38931 -1.48672 0
M  V30 4109 H 365.506 -7.55712 -0.208789 0
M  V30 4110 H 366.774 -7.66959 -1.39263 0
M  V30 4111 N 371.003 -0.499398 -1.49478 0
M  V30 4112 C 371.933 0.269244 -2.31943 0
M  V30 4113 C 372.914 0.964054 -1.40143 0
M  V30 4114 O 374.099 0.955767 -1.69052 0
M  V30 4115 C 371.229 1.33504 -3.20615 0
M  V30 4116 C 370.183 0.760202 -4.21195 0
M  V30 4117 C 369.509 1.9264 -4.98792 0
M  V30 4118 C 370.809 -0.247661 -5.21712 0
M  V30 4119 H 372.503 -0.419082 -2.96452 0
M  V30 4120 H 370.049 -0.202988 -1.42562 0
M  V30 4121 H 372.002 1.88048 -3.77115 0
M  V30 4122 H 370.726 2.05253 -2.54045 0
M  V30 4123 H 369.385 0.23653 -3.65836 0
M  V30 4124 H 369.033 2.63154 -4.28671 0
M  V30 4125 H 368.733 1.54785 -5.66847 0
M  V30 4126 H 370.257 2.4762 -5.58137 0
M  V30 4127 H 371.671 0.209579 -5.72917 0
M  V30 4128 H 370.068 -0.541962 -5.97648 0
M  V30 4129 H 371.138 -1.16409 -4.7072 0
M  V30 4130 N 372.481 1.55866 -0.233164 0
M  V30 4131 C 373.758 1.90471 0.444988 0
M  V30 4132 C 374.138 1.15209 1.7689 0
M  V30 4133 O 373.486 0.265119 2.26957 0
M  V30 4134 C 373.696 3.4333 0.626559 0
M  V30 4135 C 375.044 4.14319 0.92871 0
M  V30 4136 O 376.068 3.48993 0.712926 0
M  V30 4137 O 374.927 5.29846 1.33887 0
M  V30 4138 H 372.021 0.792347 0.236885 0
M  V30 4139 H 374.567 1.67437 -0.276211 0
M  V30 4140 H 373.339 3.90095 -0.306822 0
M  V30 4141 H 372.962 3.72181 1.39881 0
M  V30 4142 N 373.959 -0.0401083 1.57549 0
M  V30 4143 C 375.208 -0.732108 1.87944 0
M  V30 4144 C 375.521 -1.77107 0.830206 0
M  V30 4145 O 376.727 -2.51488 1.02302 0
M  V30 4146 C 375.183 -1.35315 3.33494 0
M  V30 4147 C 374.791 -0.351105 4.46622 0
M  V30 4148 C 376.535 -2.02566 3.73051 0
M  V30 4149 C 374.442 -0.979859 5.83226 0
M  V30 4150 H 373.372 -0.277188 0.701201 0
M  V30 4151 H 376.023 0.0138501 1.83495 0
M  V30 4152 H 374.405 -2.14844 3.32653 0
M  V30 4153 H 375.579 0.416674 4.58912 0
M  V30 4154 H 373.894 0.218708 4.15825 0
M  V30 4155 H 376.491 -2.50441 4.72423 0
M  V30 4156 H 376.834 -2.83904 3.04474 0
M  V30 4157 H 377.367 -1.29827 3.76018 0
M  V30 4158 H 374.106 -0.206135 6.55176 0
M  V30 4159 H 373.626 -1.71774 5.74677 0
M  V30 4160 H 375.305 -1.49046 6.29599 0
M  V30 4161 N 375.437 -1.54477 -0.31217 0
M  V30 4162 C 376.4 -1.83923 -1.36766 0
M  V30 4163 C 377.4 -0.711563 -1.44199 0
M  V30 4164 O 378.59 -0.979866 -1.44029 0
M  V30 4165 C 375.722 -2.0095 -2.75376 0
M  V30 4166 H 376.915 -2.78239 -1.11906 0
M  V30 4167 H 374.468 -1.46369 -0.548257 0
M  V30 4168 H 375.203 -1.08883 -3.05475 0
M  V30 4169 H 374.988 -2.83018 -2.71373 0
M  V30 4170 H 376.478 -2.2514 -3.51713 0
M  V30 4171 N 376.915 0.57481 -1.46744 0
M  V30 4172 C 377.847 1.69804 -1.53946 0
M  V30 4173 C 378.86 1.57098 -0.427106 0
M  V30 4174 O 380.049 1.64378 -0.695863 0
M  V30 4175 C 377.149 3.08125 -1.4111 0
M  V30 4176 C 376.322 3.46757 -2.66605 0
M  V30 4177 C 375.381 4.6417 -2.47855 0
M  V30 4178 O 374.407 4.69634 -3.21609 0
M  V30 4179 N 375.609 5.59553 -1.54534 0
M  V30 4180 H 378.374 1.64077 -2.50796 0
M  V30 4181 H 375.935 0.761 -1.429 0
M  V30 4182 H 377.927 3.84478 -1.26328 0
M  V30 4183 H 376.497 3.08175 -0.524109 0
M  V30 4184 H 375.717 2.6003 -2.96274 0
M  V30 4185 H 377.005 3.69337 -3.49954 0
M  V30 4186 H 376.403 5.57881 -0.937304 0
M  V30 4187 H 374.96 6.35304 -1.45711 0
M  V30 4188 N 378.394 1.34581 0.820102 0
M  V30 4189 C 379.324 1.29038 1.94606 0
M  V30 4190 C 380.305 0.1673 1.69275 0
M  V30 4191 O 381.49 0.360112 1.90832 0
M  V30 4192 C 378.62 1.04793 3.31113 0
M  V30 4193 C 377.574 2.13597 3.70891 0
M  V30 4194 C 376.9 1.74537 5.05412 0
M  V30 4195 C 378.2 3.55451 3.8269 0
M  V30 4196 H 379.894 2.23248 1.99501 0
M  V30 4197 H 377.44 1.0747 0.958449 0
M  V30 4198 H 379.393 0.995592 4.0947 0
M  V30 4199 H 378.117 0.0702565 3.26524 0
M  V30 4200 H 376.776 2.17905 2.9481 0
M  V30 4201 H 376.424 0.754226 4.97313 0
M  V30 4202 H 376.124 2.47361 5.32997 0
M  V30 4203 H 377.648 1.70803 5.86224 0
M  V30 4204 H 379.062 3.5354 4.51312 0
M  V30 4205 H 377.459 4.26922 4.21732 0
M  V30 4206 H 378.529 3.92587 2.84611 0
M  V30 4207 N 379.872 -1.04064 1.18357 0
M  V30 4208 C 380.782 -2.15569 0.925596 0
M  V30 4209 C 381.798 -1.7365 -0.110295 0
M  V30 4210 O 382.974 -2.01273 0.0716218 0
M  V30 4211 C 380.039 -3.43704 0.454836 0
M  V30 4212 C 379.1 -4.00004 1.55869 0
M  V30 4213 C 378.333 -5.22023 1.1103 0
M  V30 4214 O 378.556 -5.70392 -0.0309756 0
M  V30 4215 O 377.49 -5.70856 1.90805 0
M  V30 4216 H 381.316 -2.40187 1.8586 0
M  V30 4217 H 378.901 -1.1402 0.965394 0
M  V30 4218 H 380.783 -4.20923 0.200382 0
M  V30 4219 H 379.458 -3.20559 -0.449876 0
M  V30 4220 H 378.365 -3.24172 1.86716 0
M  V30 4221 H 379.698 -4.2749 2.43953 0
M  V30 4222 N 381.35 -0.985608 -1.22978 0
M  V30 4223 C 382.26 -0.538548 -2.28335 0
M  V30 4224 C 383.276 0.409163 -1.69121 0
M  V30 4225 O 384.452 0.277797 -1.99475 0
M  V30 4226 C 381.517 0.146867 -3.46389 0
M  V30 4227 C 380.578 -0.842896 -4.20944 0
M  V30 4228 C 379.811 -0.190095 -5.33361 0
M  V30 4229 O 380.034 1.01767 -5.61248 0
M  V30 4230 O 378.968 -0.891289 -5.95264 0
M  V30 4231 H 382.794 -1.41487 -2.68729 0
M  V30 4232 H 380.379 -0.753495 -1.29007 0
M  V30 4233 H 382.261 0.531125 -4.1804 0
M  V30 4234 H 380.936 0.997871 -3.07935 0
M  V30 4235 H 379.843 -1.27795 -3.51595 0
M  V30 4236 H 381.176 -1.66287 -4.6326 0
M  V30 4237 N 382.828 1.3818 -0.7579 0
M  V30 4238 C 383.776 2.32277 -0.122482 0
M  V30 4239 C 384.77 1.54238 0.700505 0
M  V30 4240 O 385.976 1.69737 0.599119 0
M  V30 4241 H 382.351 0.751712 -0.0208143 0
M  V30 4242 H 384.322 2.83469 -0.932099 0
M  V30 4243 C 383.071 3.39447 0.753076 0
M  V30 4244 H 382.394 3.99591 0.129184 0
M  V30 4245 H 383.834 4.07684 1.16489 0
M  V30 4246 C 382.293 2.78375 1.8976 0
M  V30 4247 O 382.823 2.68025 2.99208 0
M  V30 4248 N 381.029 2.36121 1.69397 0
M  V30 4249 H 380.576 2.4474 0.803762 0
M  V30 4250 H 380.534 1.95602 2.46145 0
M  V30 4251 N 384.306 0.507319 1.49211 0
M  V30 4252 C 385.236 -0.256939 2.32082 0
M  V30 4253 C 386.217 -0.956609 1.40652 0
M  V30 4254 O 387.402 -0.946788 1.69557 0
M  V30 4255 C 384.532 -1.31802 3.21318 0
M  V30 4256 C 383.486 -0.737855 4.21592 0
M  V30 4257 C 382.812 -1.89992 4.99807 0
M  V30 4258 C 384.112 0.275325 5.21574 0
M  V30 4259 H 385.806 0.434798 2.96226 0
M  V30 4260 H 383.352 0.210546 1.42452 0
M  V30 4261 H 385.305 -1.86045 3.78107 0
M  V30 4262 H 384.029 -2.03903 2.5513 0
M  V30 4263 H 382.688 -0.217126 3.65956 0
M  V30 4264 H 382.336 -2.60877 4.30061 0
M  V30 4265 H 382.036 -1.51777 5.6766 0
M  V30 4266 H 383.56 -2.44657 5.59442 0
M  V30 4267 H 384.974 -0.179193 5.7302 0
M  V30 4268 H 383.371 0.573649 5.97352 0
M  V30 4269 H 384.441 1.18903 4.70096 0
M  V30 4270 N 385.784 -1.5574 0.241426 0
M  V30 4271 C 386.731 -2.21149 -0.660432 0
M  V30 4272 C 387.701 -1.17356 -1.17545 0
M  V30 4273 O 388.886 -1.45784 -1.23093 0
M  V30 4274 C 386.026 -2.91059 -1.85414 0
M  V30 4275 C 385.139 -4.09495 -1.37616 0
M  V30 4276 C 384.274 -4.67135 -2.529 0
M  V30 4277 C 383.313 -5.77831 -2.01936 0
M  V30 4278 N 382.45 -6.29677 -3.10566 0
M  V30 4279 H 387.29 -2.97845 -0.095955 0
M  V30 4280 H 384.827 -1.47057 -0.0356024 0
M  V30 4281 H 386.785 -3.29788 -2.5553 0
M  V30 4282 H 385.415 -2.16846 -2.39118 0
M  V30 4283 H 384.467 -3.76117 -0.569235 0
M  V30 4284 H 385.779 -4.89423 -0.962618 0
M  V30 4285 H 384.933 -5.08409 -3.31067 0
M  V30 4286 H 383.672 -3.86411 -2.97553 0
M  V30 4287 H 382.677 -5.36039 -1.22238 0
M  V30 4288 H 383.902 -6.60402 -1.58259 0
M  V30 4289 H 381.848 -5.5186 -3.54664 0
M  V30 4290 H 381.765 -7.04783 -2.73526 0
M  V30 4291 H 383.033 -6.75609 -3.88809 0
M  V30 4292 N 387.262 0.0317525 -1.57568 0
M  V30 4293 C 388.172 1.05021 -2.0978 0
M  V30 4294 C 389.188 1.39809 -1.03583 0
M  V30 4295 O 390.364 1.49182 -1.35302 0
M  V30 4296 C 387.429 2.33301 -2.56459 0
M  V30 4297 C 386.49 2.0512 -3.77127 0
M  V30 4298 C 385.723 3.27283 -4.2157 0
M  V30 4299 O 385.946 4.37861 -3.65559 0
M  V30 4300 O 384.88 3.13141 -5.14029 0
M  V30 4301 H 388.706 0.636505 -2.96955 0
M  V30 4302 H 386.291 0.248559 -1.47318 0
M  V30 4303 H 388.173 3.08722 -2.86825 0
M  V30 4304 H 386.848 2.73973 -1.72397 0
M  V30 4305 H 385.755 1.27276 -3.51784 0
M  V30 4306 H 387.088 1.69305 -4.62165 0
M  V30 4307 N 388.74 1.54641 0.303973 0
M  V30 4308 C 389.687 1.85386 1.37479 0
M  V30 4309 C 390.657 0.702528 1.50512 0
M  V30 4310 O 391.842 0.950867 1.65418 0
M  V30 4311 C 388.982 2.10413 2.73533 0
M  V30 4312 C 388.095 3.38049 2.68974 0
M  V30 4313 C 387.23 3.52934 3.97002 0
M  V30 4314 C 386.269 4.74373 3.86829 0
M  V30 4315 N 385.406 4.8608 5.06627 0
M  V30 4316 H 390.246 2.76732 1.1056 0
M  V30 4317 H 387.783 1.37034 0.534805 0
M  V30 4318 H 389.741 2.22919 3.52652 0
M  V30 4319 H 388.371 1.22338 2.98719 0
M  V30 4320 H 387.423 3.3418 1.81736 0
M  V30 4321 H 388.735 4.27288 2.57346 0
M  V30 4322 H 387.889 3.65088 4.84557 0
M  V30 4323 H 386.628 2.61824 4.1146 0
M  V30 4324 H 385.633 4.62255 2.97658 0
M  V30 4325 H 386.858 5.66888 3.73918 0
M  V30 4326 H 384.804 3.97891 5.21554 0
M  V30 4327 H 384.721 5.69315 4.9741 0
M  V30 4328 H 385.989 5.02587 5.95841 0
M  V30 4329 N 390.218 -0.567019 1.47046 0
M  V30 4330 C 391.166 -1.69593 1.59188 0
M  V30 4331 C 392.16 -1.63046 0.459609 0
M  V30 4332 O 393.366 -1.6835 0.637058 0
M  V30 4333 H 389.741 -0.560993 0.500791 0
M  V30 4334 H 391.712 -1.56488 2.54075 0
M  V30 4335 C 390.461 -3.07964 1.61411 0
M  V30 4336 H 389.784 -3.13679 2.47881 0
M  V30 4337 H 391.224 -3.86671 1.73958 0
M  V30 4338 C 389.683 -3.35123 0.34559 0
M  V30 4339 O 390.213 -3.97812 -0.557521 0
M  V30 4340 N 388.419 -2.89699 0.22864 0
M  V30 4341 H 387.966 -2.38863 0.964479 0
M  V30 4342 H 387.924 -3.08242 -0.619192 0
M  V30 4343 N 391.696 -1.35014 -0.812953 0
M  V30 4344 C 392.973 -1.18502 -1.55617 0
M  V30 4345 C 393.353 0.238421 -2.09749 0
M  V30 4346 O 392.701 1.2411 -1.91857 0
M  V30 4347 C 392.911 -2.24783 -2.66971 0
M  V30 4348 C 394.259 -2.60268 -3.35478 0
M  V30 4349 O 395.283 -2.23648 -2.77236 0
M  V30 4350 O 394.142 -3.2321 -4.40678 0
M  V30 4351 H 391.236 -0.459984 -0.687272 0
M  V30 4352 H 393.782 -1.46677 -0.853464 0
M  V30 4353 H 392.554 -3.20284 -2.24798 0
M  V30 4354 H 392.177 -1.97841 -3.44884 0
M  V30 4355 N 393.175 1.03435 -1.18907 0
M  V30 4356 C 394.085 2.15075 -0.937015 0
M  V30 4357 C 395.101 1.73706 0.101085 0
M  V30 4358 O 396.277 2.01232 -0.0822948 0
M  V30 4359 C 393.342 3.43458 -0.473057 0
M  V30 4360 C 392.403 3.99172 -1.57989 0
M  V30 4361 C 391.636 5.21427 -1.13797 0
M  V30 4362 O 391.859 5.704 0.000725941 0
M  V30 4363 O 390.793 5.69837 -1.9383 0
M  V30 4364 H 394.619 2.39198 -1.87131 0
M  V30 4365 H 392.204 1.13506 -0.971427 0
M  V30 4366 H 394.086 4.20811 -0.222702 0
M  V30 4367 H 392.761 3.20793 0.432869 0
M  V30 4368 H 391.668 3.23178 -1.88433 0
M  V30 4369 H 393.001 4.2619 -2.46217 0
M  V30 4370 N 394.653 0.992116 1.22453 0
M  V30 4371 C 395.902 0.662992 1.90492 0
M  V30 4372 C 396.215 -0.808407 1.78113 0
M  V30 4373 O 397.421 -1.24908 2.41061 0
M  V30 4374 C 395.877 1.1353 3.41524 0
M  V30 4375 C 395.485 2.63187 3.62542 0
M  V30 4376 C 397.229 0.880465 4.15269 0
M  V30 4377 C 395.136 3.04024 5.0727 0
M  V30 4378 H 394.066 0.244278 0.713333 0
M  V30 4379 H 396.717 1.20157 1.38688 0
M  V30 4380 H 395.099 0.52485 3.92506 0
M  V30 4381 H 396.273 3.2957 3.22056 0
M  V30 4382 H 394.588 2.86543 3.02129 0
M  V30 4383 H 397.185 1.16128 5.21937 0
M  V30 4384 H 397.528 -0.183408 4.15896 0
M  V30 4385 H 398.061 1.45307 3.70312 0
M  V30 4386 H 394.8 4.09584 5.11782 0
M  V30 4387 H 394.32 2.42343 5.48662 0
M  V30 4388 H 395.999 2.95282 5.75689 0
M  V30 4389 N 396.131 -1.37776 0.765217 0
M  V30 4390 C 397.061 -2.32945 0.160953 0
M  V30 4391 C 398.042 -1.55454 -0.690516 0
M  V30 4392 O 399.227 -1.83721 -0.629318 0
M  V30 4393 C 396.357 -3.39669 -0.724031 0
M  V30 4394 C 395.311 -4.27992 0.0256173 0
M  V30 4395 C 394.637 -5.25673 -0.978383 0
M  V30 4396 C 395.937 -5.08309 1.20082 0
M  V30 4397 H 397.631 -2.83728 0.955969 0
M  V30 4398 H 395.177 -1.36416 0.461149 0
M  V30 4399 H 397.13 -4.05219 -1.15652 0
M  V30 4400 H 395.854 -2.87396 -1.5515 0
M  V30 4401 H 394.513 -3.63964 0.438812 0
M  V30 4402 H 394.161 -4.69682 -1.80022 0
M  V30 4403 H 393.861 -5.85625 -0.481378 0
M  V30 4404 H 395.385 -5.94098 -1.40995 0
M  V30 4405 H 396.799 -5.67034 0.845307 0
M  V30 4406 H 395.196 -5.77554 1.62947 0
M  V30 4407 H 396.266 -4.41365 2.00811 0
M  V30 4408 N 397.609 -0.515225 -1.4894 0
M  V30 4409 C 398.834 0.022727 -2.07388 0
M  V30 4410 C 399.259 1.2876 -1.37122 0
M  V30 4411 O 398.617 1.76067 -0.432431 0
M  V30 4412 C 398.665 0.244869 -3.59768 0
M  V30 4413 O 397.769 1.31667 -3.90817 0
M  V30 4414 H 397.11 -0.0325506 -0.663202 0
M  V30 4415 H 399.64 -0.718918 -1.91553 0
M  V30 4416 H 399.65 0.47205 -4.0526 0
M  V30 4417 H 398.325 -0.679194 -4.10317 0
M  V30 4418 H 396.902 1.07331 -3.5712 0
M  V30 4419 N 399.087 1.5561 -0.249682 0
M  V30 4420 C 400.017 2.24477 0.642826 0
M  V30 4421 C 400.998 1.22601 1.17911 0
M  V30 4422 O 402.183 1.5126 1.21795 0
M  V30 4423 C 399.313 2.94638 1.83863 0
M  V30 4424 C 398.267 4.03227 1.435 0
M  V30 4425 C 397.593 4.60828 2.71186 0
M  V30 4426 C 398.893 5.18796 0.604002 0
M  V30 4427 H 400.587 2.99321 0.0685625 0
M  V30 4428 H 398.133 1.43965 0.0315363 0
M  V30 4429 H 400.086 3.41517 2.46868 0
M  V30 4430 H 398.81 2.17287 2.43832 0
M  V30 4431 H 397.469 3.57121 0.828275 0
M  V30 4432 H 397.117 3.80174 3.29358 0
M  V30 4433 H 396.817 5.34132 2.44901 0
M  V30 4434 H 398.341 5.10442 3.35084 0
M  V30 4435 H 399.755 5.61883 1.13842 0
M  V30 4436 H 398.152 5.98506 0.437097 0
M  V30 4437 H 399.222 4.83384 -0.383147 0
M  V30 4438 N 400.565 -0.0233959 1.57583 0
M  V30 4439 C 401.512 -1.02224 2.06927 0
M  V30 4440 C 402.482 -1.35575 0.959617 0
M  V30 4441 O 403.667 -1.45815 1.23055 0
M  V30 4442 C 400.807 -2.31636 2.5581 0
M  V30 4443 C 399.92 -2.04394 3.80588 0
M  V30 4444 C 399.055 -3.27717 4.18061 0
M  V30 4445 C 398.094 -2.96056 5.3574 0
M  V30 4446 N 397.231 -4.11847 5.68618 0
M  V30 4447 H 402.071 -0.594504 2.9201 0
M  V30 4448 H 399.608 -0.281921 1.44373 0
M  V30 4449 H 401.566 -3.07258 2.82221 0
M  V30 4450 H 400.196 -2.72122 1.73636 0
M  V30 4451 H 399.248 -1.19244 3.61227 0
M  V30 4452 H 400.56 -1.77042 4.66323 0
M  V30 4453 H 399.714 -4.11702 4.4563 0
M  V30 4454 H 398.453 -3.58188 3.30988 0
M  V30 4455 H 397.458 -2.10474 5.07918 0
M  V30 4456 H 398.683 -2.66857 6.24471 0
M  V30 4457 H 396.629 -4.42258 4.84504 0
M  V30 4458 H 396.546 -3.87938 6.48876 0
M  V30 4459 H 397.814 -4.96689 6.00766 0
M  V30 4460 N 402.043 -1.548 -0.295768 0
M  V30 4461 C 402.975 -1.82492 -1.3867 0
M  V30 4462 C 403.988 -0.708134 -1.46592 0
M  V30 4463 O 405.177 -0.985686 -1.48817 0
M  V30 4464 C 402.277 -1.95256 -2.76999 0
M  V30 4465 C 401.45 -3.25709 -2.91946 0
M  V30 4466 C 400.509 -3.28824 -4.10806 0
M  V30 4467 O 399.535 -4.02328 -4.02643 0
M  V30 4468 N 400.737 -2.5459 -5.21694 0
M  V30 4469 H 403.502 -2.76646 -1.15269 0
M  V30 4470 H 401.063 -1.54438 -0.485849 0
M  V30 4471 H 403.055 -1.94736 -3.54768 0
M  V30 4472 H 401.625 -1.08072 -2.93324 0
M  V30 4473 H 400.845 -3.38959 -2.01247 0
M  V30 4474 H 402.133 -4.11786 -2.98847 0
M  V30 4475 H 401.531 -1.94512 -5.31208 0
M  V30 4476 H 400.088 -2.59818 -5.97778 0
M  V30 4477 N 403.521 0.559213 -1.47345 0
M  V30 4478 C 404.746 1.34676 -1.57725 0
M  V30 4479 C 405.171 1.86723 -0.227164 0
M  V30 4480 O 404.529 1.6286 0.796642 0
M  V30 4481 C 404.577 2.49399 -2.60447 0
M  V30 4482 O 403.681 3.51567 -2.15578 0
M  V30 4483 H 403.022 0.400115 -0.52991 0
M  V30 4484 H 405.552 0.676009 -1.93109 0
M  V30 4485 H 405.562 2.95996 -2.80803 0
M  V30 4486 H 404.237 2.10873 -3.58477 0
M  V30 4487 H 402.814 3.11289 -2.05313 0
M  V30 4488 N 404.999 1.35443 0.805782 0
M  V30 4489 C 405.929 1.31095 1.93226 0
M  V30 4490 C 406.91 0.185244 1.69088 0
M  V30 4491 O 408.095 0.380332 1.90439 0
M  V30 4492 C 405.225 1.08299 3.29983 0
M  V30 4493 C 404.179 2.17519 3.68605 0
M  V30 4494 C 403.505 1.79887 5.03532 0
M  V30 4495 C 404.805 3.5949 3.78898 0
M  V30 4496 H 406.499 2.25352 1.97122 0
M  V30 4497 H 404.045 1.0848 0.946996 0
M  V30 4498 H 405.998 1.03897 4.08391 0
M  V30 4499 H 404.722 0.104885 3.26432 0
M  V30 4500 H 403.381 2.2102 2.92482 0
M  V30 4501 H 403.029 0.80693 4.96485 0
M  V30 4502 H 402.729 2.53001 5.30344 0
M  V30 4503 H 404.253 1.77011 5.84379 0
M  V30 4504 H 405.667 3.58307 4.47536 0
M  V30 4505 H 404.064 4.31371 4.1718 0
M  V30 4506 H 405.134 3.95584 2.80431 0
M  V30 4507 N 406.477 -1.02803 1.19454 0
M  V30 4508 C 407.387 -2.14575 0.948408 0
M  V30 4509 C 408.403 -1.73757 -0.091871 0
M  V30 4510 O 409.579 -2.01185 0.0929654 0
M  V30 4511 C 406.644 -3.43202 0.491265 0
M  V30 4512 C 405.705 -3.98328 1.60103 0
M  V30 4513 C 404.938 -5.20816 1.16561 0
M  V30 4514 O 405.161 -5.70392 0.0295238 0
M  V30 4515 O 404.095 -5.68801 1.96849 0
M  V30 4516 H 407.921 -2.38202 1.88397 0
M  V30 4517 H 405.506 -1.12989 0.977433 0
M  V30 4518 H 407.388 -4.20687 0.245015 0
M  V30 4519 H 406.063 -3.21018 -0.415851 0
M  V30 4520 H 404.97 -3.22174 1.90144 0
M  V30 4521 H 406.303 -4.24879 2.48473 0
M  V30 4522 N 407.956 -0.998596 -1.21925 0
M  V30 4523 C 408.866 -0.562736 -2.27751 0
M  V30 4524 C 409.882 0.391203 -1.69545 0
M  V30 4525 O 411.058 0.256625 -1.99758 0
M  V30 4526 C 408.123 0.11012 -3.46525 0
M  V30 4527 C 407.184 -0.887495 -4.20026 0
M  V30 4528 C 406.417 -0.246654 -5.3313 0
M  V30 4529 O 406.64 0.958088 -5.62296 0
M  V30 4530 O 405.574 -0.954374 -5.94286 0
M  V30 4531 H 409.4 -1.44329 -2.67213 0
M  V30 4532 H 406.985 -0.767135 -1.28201 0
M  V30 4533 H 408.867 0.486756 -4.18579 0
M  V30 4534 H 407.542 0.965154 -3.08976 0
M  V30 4535 H 406.449 -1.31517 -3.5022 0
M  V30 4536 H 407.782 -1.71191 -4.6147 0
M  V30 4537 N 409.434 1.37368 -0.772513 0
M  V30 4538 C 410.382 2.32134 -0.147111 0
M  V30 4539 C 411.376 1.54972 0.684106 0
M  V30 4540 O 412.582 1.70363 0.581083 0
M  V30 4541 H 408.957 0.751449 -0.028786 0
M  V30 4542 H 410.928 2.82464 -0.962112 0
M  V30 4543 C 409.677 3.40226 0.71703 0
M  V30 4544 H 409 3.99706 0.0867951 0
M  V30 4545 H 410.44 4.08897 1.12159 0
M  V30 4546 C 408.899 2.80372 1.86797 0
M  V30 4547 O 409.429 2.71183 2.96349 0
M  V30 4548 N 407.635 2.37904 1.66883 0
M  V30 4549 H 407.182 2.45578 0.777759 0
M  V30 4550 H 407.14 1.98202 2.44056 0
M  V30 4551 N 410.912 0.523116 1.48665 0
M  V30 4552 C 412.161 -0.01544 2.01694 0
M  V30 4553 C 412.474 -1.35975 1.40606 0
M  V30 4554 O 413.68 -1.98627 1.85093 0
M  V30 4555 C 412.136 -0.0779303 3.59816 0
M  V30 4556 C 411.744 1.26107 4.29885 0
M  V30 4557 C 413.488 -0.565678 4.20714 0
M  V30 4558 C 411.395 1.15954 5.79921 0
M  V30 4559 H 410.325 -0.00954163 0.75394 0
M  V30 4560 H 412.976 0.665865 1.70993 0
M  V30 4561 H 411.358 -0.824165 3.87329 0
M  V30 4562 H 412.532 2.02233 4.14051 0
M  V30 4563 H 410.847 1.68401 3.80828 0
M  V30 4564 H 413.444 -0.6595 5.30617 0
M  V30 4565 H 413.787 -1.56984 3.85567 0
M  V30 4566 H 414.32 0.12467 3.97605 0
M  V30 4567 H 411.059 2.13864 6.19631 0
M  V30 4568 H 410.579 0.439529 5.98187 0
M  V30 4569 H 412.258 0.847361 6.41427 0
M  V30 4570 N 412.39 -1.55475 0.257931 0
M  V30 4571 C 413.636 -1.99502 -0.364266 0
M  V30 4572 C 413.969 -1.146 -1.56782 0
M  V30 4573 O 413.244 -0.211968 -1.93342 0
M  V30 4574 C 413.527 -3.51917 -0.763333 0
M  V30 4575 C 413.38 -4.4758 0.446371 0
M  V30 4576 C 414.699 -4.09742 -1.60623 0
M  V30 4577 H 411.818 -0.725277 -0.130929 0
M  V30 4578 H 414.46 -1.8653 0.361446 0
M  V30 4579 H 412.61 -3.63101 -1.38166 0
M  V30 4580 H 414.282 -4.48362 1.08487 0
M  V30 4581 H 412.525 -4.19947 1.08753 0
M  V30 4582 H 413.196 -5.51862 0.123645 0
M  V30 4583 H 415.672 -4.01727 -1.08418 0
M  V30 4584 H 414.548 -5.16631 -1.85429 0
M  V30 4585 H 414.809 -3.58889 -2.58169 0
M  V30 4586 N 413.868 0.0150385 -1.57593 0
M  V30 4587 C 415.117 0.702115 -1.89085 0
M  V30 4588 C 415.43 1.75764 -0.858277 0
M  V30 4589 O 416.636 2.49829 -1.0629 0
M  V30 4590 C 415.092 1.29992 -3.35604 0
M  V30 4591 C 414.7 0.280007 -4.47124 0
M  V30 4592 C 416.444 1.96606 -3.76227 0
M  V30 4593 C 414.351 0.886949 -5.84711 0
M  V30 4594 H 413.281 0.265997 -0.705522 0
M  V30 4595 H 415.932 -0.0430408 -1.8345 0
M  V30 4596 H 414.314 2.09525 -3.36029 0
M  V30 4597 H 415.488 -0.489631 -4.58191 0
M  V30 4598 H 413.803 -0.284835 -4.15425 0
M  V30 4599 H 416.4 2.42893 -4.76347 0
M  V30 4600 H 416.743 2.79024 -3.08952 0
M  V30 4601 H 417.276 1.23828 -3.78036 0
M  V30 4602 H 414.015 0.101876 -6.55421 0
M  V30 4603 H 413.535 1.6261 -5.77337 0
M  V30 4604 H 415.214 1.39011 -6.3189 0
M  V30 4605 N 415.346 1.54954 0.287554 0
M  V30 4606 C 416.276 1.89839 1.35954 0
M  V30 4607 C 417.257 0.758675 1.52244 0
M  V30 4608 O 418.442 1.01557 1.65529 0
M  V30 4609 C 415.572 2.15753 2.72154 0
M  V30 4610 C 414.526 3.3159 2.70614 0
M  V30 4611 C 413.852 3.42952 4.10229 0
M  V30 4612 C 415.152 4.68359 2.31165 0
M  V30 4613 H 416.846 2.79625 1.07007 0
M  V30 4614 H 414.392 1.3454 0.513316 0
M  V30 4615 H 416.345 2.38743 3.47246 0
M  V30 4616 H 415.069 1.22752 3.02654 0
M  V30 4617 H 413.728 3.08545 1.97979 0
M  V30 4618 H 413.376 2.47443 4.37928 0
M  V30 4619 H 413.076 4.20826 4.10097 0
M  V30 4620 H 414.6 3.68218 4.87081 0
M  V30 4621 H 416.014 4.9099 2.95976 0
M  V30 4622 H 414.411 5.49044 2.42221 0
M  V30 4623 H 415.481 4.68165 1.26291 0
M  V30 4624 N 416.824 -0.551391 1.4764 0
M  V30 4625 C 418.049 -1.33837 1.58437 0
M  V30 4626 C 418.474 -1.866 0.237063 0
M  V30 4627 O 417.832 -1.6328 -0.787994 0
M  V30 4628 C 417.88 -2.48014 2.61766 0
M  V30 4629 O 416.984 -3.50419 2.1744 0
M  V30 4630 H 416.325 -0.397299 0.532024 0
M  V30 4631 H 418.855 -0.665759 1.93465 0
M  V30 4632 H 418.865 -2.94503 2.82369 0
M  V30 4633 H 417.54 -2.08969 3.5959 0
M  V30 4634 H 416.117 -3.10196 2.06961 0
M  V30 4635 N 418.302 -1.35869 -0.798587 0
M  V30 4636 C 419.249 -1.29446 -1.91082 0
M  V30 4637 C 420.219 -0.16487 -1.6528 0
M  V30 4638 O 421.404 -0.349888 -1.87564 0
M  V30 4639 C 418.544 -1.0804 -3.27752 0
M  V30 4640 C 417.657 -2.29993 -3.65687 0
M  V30 4641 C 416.792 -2.01673 -4.91428 0
M  V30 4642 C 415.831 -3.19636 -5.22015 0
M  V30 4643 N 414.968 -2.91039 -6.38937 0
M  V30 4644 H 419.808 -2.24553 -1.95907 0
M  V30 4645 H 417.345 -1.11615 -0.958148 0
M  V30 4646 H 419.303 -0.936586 -4.06551 0
M  V30 4647 H 417.933 -0.16592 -3.22373 0
M  V30 4648 H 416.985 -2.55211 -2.82085 0
M  V30 4649 H 418.297 -3.18052 -3.84245 0
M  V30 4650 H 417.451 -1.84168 -5.78072 0
M  V30 4651 H 416.19 -1.10911 -4.74921 0
M  V30 4652 H 415.195 -3.37709 -4.33858 0
M  V30 4653 H 416.42 -4.11211 -5.40447 0
M  V30 4654 H 414.366 -2.0288 -6.2384 0
M  V30 4655 H 414.283 -3.72635 -6.57784 0
M  V30 4656 H 415.551 -2.77093 -7.28587 0
M  V30 4657 N 419.78 1.02168 -1.19998 0
M  V30 4658 C 420.712 2.10705 -0.901994 0
M  V30 4659 C 421.725 1.6244 0.108216 0
M  V30 4660 O 422.914 1.78082 -0.12214 0
M  V30 4661 C 420.014 3.37291 -0.329834 0
M  V30 4662 C 419.187 4.14714 -1.39035 0
M  V30 4663 C 418.246 5.19606 -0.830432 0
M  V30 4664 O 417.272 5.48809 -1.50989 0
M  V30 4665 N 418.474 5.79366 0.362696 0
M  V30 4666 H 421.239 2.36856 -1.83628 0
M  V30 4667 H 418.8 1.18518 -1.10296 0
M  V30 4668 H 420.792 4.04657 0.0587633 0
M  V30 4669 H 419.362 3.0843 0.508891 0
M  V30 4670 H 418.582 3.42392 -1.9535 0
M  V30 4671 H 419.87 4.63226 -2.10474 0
M  V30 4672 H 419.268 5.57968 0.932081 0
M  V30 4673 H 417.825 6.48106 0.69299 0
M  V30 4674 N 421.258 1.00505 1.21394 0
M  V30 4675 C 422.504 0.688793 1.90745 0
M  V30 4676 C 422.837 -0.778486 1.77914 0
M  V30 4677 O 422.112 -1.56433 1.15581 0
M  V30 4678 C 422.395 1.11063 3.42545 0
M  V30 4679 C 422.248 2.63737 3.64367 0
M  V30 4680 C 423.567 0.673059 4.34923 0
M  V30 4681 H 420.686 0.251702 0.692687 0
M  V30 4682 H 423.328 1.25074 1.43026 0
M  V30 4683 H 421.478 0.632508 3.83317 0
M  V30 4684 H 423.15 3.19313 3.32922 0
M  V30 4685 H 421.393 3.05248 3.08231 0
M  V30 4686 H 422.064 2.88305 4.70727 0
M  V30 4687 H 424.54 1.08392 4.01734 0
M  V30 4688 H 423.416 0.996383 5.39781 0
M  V30 4689 H 423.677 -0.425808 4.40045 0
M  V30 4690 N 422.737 -1.36956 0.779787 0
M  V30 4691 C 423.647 -2.33965 0.172491 0
M  V30 4692 C 424.663 -1.60574 -0.670222 0
M  V30 4693 O 425.839 -1.92617 -0.588263 0
M  V30 4694 C 422.904 -3.39761 -0.690173 0
M  V30 4695 C 421.965 -4.28964 0.169924 0
M  V30 4696 C 421.198 -5.29707 -0.651662 0
M  V30 4697 O 421.421 -5.38238 -1.88827 0
M  V30 4698 O 420.355 -6.01873 -0.0566264 0
M  V30 4699 H 424.181 -2.87647 0.974321 0
M  V30 4700 H 421.766 -1.39258 0.541078 0
M  V30 4701 H 423.648 -4.04471 -1.1824 0
M  V30 4702 H 422.323 -2.88394 -1.47006 0
M  V30 4703 H 421.23 -3.67326 0.708696 0
M  V30 4704 H 422.563 -4.83656 0.913085 0
M  V30 4705 N 424.215 -0.530993 -1.48385 0
M  V30 4706 C 425.492 0.0671788 -1.95485 0
M  V30 4707 C 425.872 1.51191 -1.47324 0
M  V30 4708 O 425.22 2.17507 -0.700202 0
M  V30 4709 C 425.43 -0.0511206 -3.48963 0
M  V30 4710 C 426.778 0.107632 -4.24464 0
M  V30 4711 O 427.802 0.0226248 -3.56193 0
M  V30 4712 O 426.661 0.285972 -5.45751 0
M  V30 4713 H 423.755 0.0787365 -0.823243 0
M  V30 4714 H 426.301 -0.595662 -1.58902 0
M  V30 4715 H 425.073 -1.05747 -3.7674 0
M  V30 4716 H 424.696 0.650525 -3.92242 0
M  V30 4717 N 425.693 1.55336 -0.266172 0
M  V30 4718 C 426.623 2.25146 0.618981 0
M  V30 4719 C 427.604 1.23845 1.16604 0
M  V30 4720 O 428.789 1.52544 1.20183 0
M  V30 4721 C 425.919 2.96572 1.80728 0
M  V30 4722 C 424.873 4.04726 1.39215 0
M  V30 4723 C 424.199 4.63678 2.66283 0
M  V30 4724 C 425.499 5.19407 0.548942 0
M  V30 4725 H 427.193 2.99377 0.0368116 0
M  V30 4726 H 424.739 1.43991 0.0162651 0
M  V30 4727 H 426.692 3.44116 2.43232 0
M  V30 4728 H 425.416 2.19861 2.41514 0
M  V30 4729 H 424.075 3.57979 0.790351 0
M  V30 4730 H 423.723 3.83646 3.25308 0
M  V30 4731 H 423.423 5.367 2.39222 0
M  V30 4732 H 424.947 5.13967 3.29651 0
M  V30 4733 H 426.361 5.63059 1.07876 0
M  V30 4734 H 424.758 5.98936 0.373593 0
M  V30 4735 H 425.828 4.8295 -0.434394 0
M  V30 4736 N 427.171 -0.0066808 1.57599 0
M  V30 4737 C 428.119 -1.01851 2.09115 0
M  V30 4738 C 429.113 -1.36021 1.00969 0
M  V30 4739 O 430.319 -1.34663 1.19439 0
M  V30 4740 H 426.694 -0.346083 0.667631 0
M  V30 4741 H 428.665 -0.558394 2.93129 0
M  V30 4742 C 427.414 -2.30374 2.60429 0
M  V30 4743 H 426.737 -2.04947 3.43273 0
M  V30 4744 H 428.177 -2.99466 3.00161 0
M  V30 4745 C 426.636 -3.00893 1.51542 0
M  V30 4746 O 427.166 -3.91614 0.894484 0
M  V30 4747 N 425.372 -2.62603 1.2445 0
M  V30 4748 H 424.919 -1.88911 1.75129 0
M  V30 4749 H 424.877 -3.10101 0.518137 0
M  V30 4750 N 428.649 -1.55105 -0.279332 0
M  V30 4751 C 429.895 -1.75672 -1.01327 0
M  V30 4752 C 430.228 -0.552739 -1.86168 0
M  V30 4753 O 429.503 0.449827 -1.89227 0
M  V30 4754 C 429.786 -3.05825 -1.90114 0
M  V30 4755 C 429.639 -4.36565 -1.08309 0
M  V30 4756 C 430.958 -3.31975 -2.8893 0
M  V30 4757 H 428.077 -0.639149 -0.366957 0
M  V30 4758 H 430.719 -1.87833 -0.286154 0
M  V30 4759 H 428.869 -2.95588 -2.52111 0
M  V30 4760 H 430.541 -4.58751 -0.484314 0
M  V30 4761 H 428.784 -4.32076 -0.386362 0
M  V30 4762 H 429.455 -5.23946 -1.73737 0
M  V30 4763 H 431.931 -3.41963 -2.37067 0
M  V30 4764 H 430.807 -4.2432 -3.48201 0
M  V30 4765 H 431.068 -2.51309 -3.63725 0
M  V30 4766 N 430.127 0.543554 -1.4793 0
M  V30 4767 C 431.074 1.64942 -1.6144 0
M  V30 4768 C 432.044 1.59692 -0.456903 0
M  V30 4769 O 433.229 1.78321 -0.678688 0
M  V30 4770 C 430.369 3.03238 -1.64744 0
M  V30 4771 C 429.482 3.18823 -2.91506 0
M  V30 4772 C 428.617 4.47599 -2.86057 0
M  V30 4773 C 427.656 4.56664 -4.07584 0
M  V30 4774 N 426.793 5.76811 -4.00292 0
M  V30 4775 H 431.633 1.52733 -2.55884 0
M  V30 4776 H 429.17 0.7438 -1.2691 0
M  V30 4777 H 431.128 3.83339 -1.64641 0
M  V30 4778 H 429.758 3.1425 -0.738017 0
M  V30 4779 H 428.81 2.32064 -3.01414 0
M  V30 4780 H 430.122 3.21384 -3.81463 0
M  V30 4781 H 429.276 5.35975 -2.84281 0
M  V30 4782 H 428.015 4.47538 -1.93807 0
M  V30 4783 H 427.02 3.66697 -4.09651 0
M  V30 4784 H 428.245 4.58474 -5.00978 0
M  V30 4785 H 426.191 5.77673 -3.10853 0
M  V30 4786 H 426.108 5.80808 -4.8394 0
M  V30 4787 H 427.376 6.67512 -4.02553 0
M  V30 4788 N 431.605 1.3629 0.791371 0
M  V30 4789 C 432.845 1.31792 1.56238 0
M  V30 4790 C 433.209 -0.102237 1.91728 0
M  V30 4791 O 434.41 -0.271759 2.67423 0
M  V30 4792 C 432.681 2.21303 2.80642 0
M  V30 4793 S 434.24 2.34468 3.70904 0
M  V30 4794 H 431.058 0.468141 0.535131 0
M  V30 4795 H 433.66 1.71841 0.932246 0
M  V30 4796 H 432.364 3.23439 2.52617 0
M  V30 4797 H 431.895 1.82266 3.4863 0
M  V30 4798 H 433.91 1.54074 4.71673 0
M  V30 4799 N 433.083 -1.0153 1.20538 0
M  V30 4800 C 434.015 -2.10224 0.913155 0
M  V30 4801 C 435.028 -1.62495 -0.0995998 0
M  V30 4802 O 436.217 -1.78014 0.131582 0
M  V30 4803 C 433.317 -3.37111 0.347717 0
M  V30 4804 C 432.49 -4.13971 1.41233 0
M  V30 4805 C 431.549 -5.19158 0.857976 0
M  V30 4806 O 430.575 -5.48 1.53897 0
M  V30 4807 N 431.777 -5.7955 -0.331966 0
M  V30 4808 H 434.542 -2.35879 1.84881 0
M  V30 4809 H 432.103 -1.17931 1.10923 0
M  V30 4810 H 434.095 -4.04683 -0.0373026 0
M  V30 4811 H 432.665 -3.08696 -0.492527 0
M  V30 4812 H 431.885 -3.41351 1.97163 0
M  V30 4813 H 433.173 -4.62103 2.12928 0
M  V30 4814 H 432.571 -5.58455 -0.902478 0
M  V30 4815 H 431.128 -6.48464 -0.65861 0
M  V30 4816 N 434.561 -1.01147 -1.20859 0
M  V30 4817 C 435.491 -0.597663 -2.25722 0
M  V30 4818 C 436.472 0.384744 -1.65692 0
M  V30 4819 O 437.657 0.271303 -1.92296 0
M  V30 4820 C 434.787 0.0700149 -3.47229 0
M  V30 4821 C 433.741 -0.832843 -4.19819 0
M  V30 4822 C 433.067 -0.0312202 -5.34691 0
M  V30 4823 C 434.367 -2.1385 -4.76514 0
M  V30 4824 H 436.061 -1.47423 -2.60589 0
M  V30 4825 H 433.607 -0.710301 -1.25263 0
M  V30 4826 H 435.56 0.37103 -4.19763 0
M  V30 4827 H 434.284 0.981259 -3.11511 0
M  V30 4828 H 432.943 -1.11778 -3.49144 0
M  V30 4829 H 432.591 0.881515 -4.95215 0
M  V30 4830 H 432.291 -0.632434 -5.84187 0
M  V30 4831 H 433.815 0.26346 -6.10031 0
M  V30 4832 H 435.229 -1.9002 -5.40893 0
M  V30 4833 H 433.626 -2.69012 -5.36426 0
M  V30 4834 H 434.696 -2.80495 -3.95538 0
M  V30 4835 N 436.039 1.36541 -0.78704 0
M  V30 4836 C 436.969 2.32659 -0.197992 0
M  V30 4837 C 437.95 1.56533 0.665697 0
M  V30 4838 O 439.135 1.84698 0.60001 0
M  V30 4839 C 436.265 3.40778 0.669901 0
M  V30 4840 C 435.219 4.27897 -0.0937039 0
M  V30 4841 C 434.545 5.27163 0.894629 0
M  V30 4842 C 435.845 5.06334 -1.28154 0
M  V30 4843 H 437.539 2.82171 -1.00099 0
M  V30 4844 H 435.085 1.35665 -0.482793 0
M  V30 4845 H 437.038 4.07008 1.09191 0
M  V30 4846 H 435.762 2.89827 1.50558 0
M  V30 4847 H 434.421 3.6322 -0.49666 0
M  V30 4848 H 434.069 4.72486 1.72527 0
M  V30 4849 H 433.769 5.86317 0.388149 0
M  V30 4850 H 435.293 5.96266 1.31525 0
M  V30 4851 H 436.707 5.65617 -0.93541 0
M  V30 4852 H 435.104 5.74888 -1.72115 0
M  V30 4853 H 436.174 4.38114 -2.07807 0
M  V30 4854 N 437.518 0.538854 1.48102 0
M  V30 4855 C 438.428 -0.222648 2.33541 0
M  V30 4856 C 439.444 -0.930225 1.47047 0
M  V30 4857 O 440.62 -0.903211 1.80011 0
M  V30 4858 C 437.685 -1.25064 3.23357 0
M  V30 4859 C 436.746 -0.552469 4.2573 0
M  V30 4860 C 435.979 -1.53149 5.11254 0
M  V30 4861 O 436.202 -2.76487 4.9891 0
M  V30 4862 O 435.136 -1.06602 5.92385 0
M  V30 4863 H 438.962 0.477707 2.99919 0
M  V30 4864 H 436.547 0.299669 1.46364 0
M  V30 4865 H 438.429 -1.8445 3.78888 0
M  V30 4866 H 437.104 -1.93325 2.59629 0
M  V30 4867 H 436.011 0.082114 3.7401 0
M  V30 4868 H 437.344 0.0883526 4.92121 0
M  V30 4869 N 438.996 -1.55193 0.274407 0
M  V30 4870 C 439.943 -2.225 -0.613374 0
M  V30 4871 C 440.913 -1.19823 -1.15029 0
M  V30 4872 O 442.098 -1.48362 -1.19973 0
M  V30 4873 C 439.238 -2.94927 -1.79199 0
M  V30 4874 C 438.351 -4.12322 -1.28899 0
M  V30 4875 C 437.486 -4.72394 -2.42934 0
M  V30 4876 C 436.525 -5.81984 -1.89634 0
M  V30 4877 N 435.662 -6.36123 -2.9714 0
M  V30 4878 H 440.502 -2.97982 -0.032756 0
M  V30 4879 H 438.039 -1.47099 -0.00440146 0
M  V30 4880 H 439.997 -3.35134 -2.48478 0
M  V30 4881 H 438.627 -2.2187 -2.34465 0
M  V30 4882 H 437.679 -3.7724 -0.489327 0
M  V30 4883 H 438.991 -4.91355 -0.858587 0
M  V30 4884 H 438.145 -5.15317 -3.20208 0
M  V30 4885 H 436.884 -3.92636 -2.8929 0
M  V30 4886 H 435.889 -5.38511 -1.1084 0
M  V30 4887 H 437.114 -6.6361 -1.44215 0
M  V30 4888 H 435.06 -5.59259 -3.42878 0
M  V30 4889 H 434.977 -7.10427 -2.58515 0
M  V30 4890 H 436.245 -6.83704 -3.74391 0
M  V30 4891 N 440.474 -0.00167713 -1.576 0
M  V30 4892 C 441.384 1.00548 -2.1196 0
M  V30 4893 C 442.4 1.3758 -1.06526 0
M  V30 4894 O 443.576 1.46278 -1.38436 0
M  V30 4895 C 440.641 2.27809 -2.6135 0
M  V30 4896 C 439.702 1.97074 -3.81393 0
M  V30 4897 C 438.935 3.18267 -4.28417 0
M  V30 4898 O 439.158 4.30009 -3.74765 0
M  V30 4899 O 438.092 3.02167 -5.20556 0
M  V30 4900 H 441.918 0.573373 -2.98238 0
M  V30 4901 H 439.503 0.217255 -1.47812 0
M  V30 4902 H 441.385 3.02568 -2.93309 0
M  V30 4903 H 440.06 2.70254 -1.78169 0
M  V30 4904 H 438.967 1.19785 -3.54404 0
M  V30 4905 H 440.3 1.59464 -4.65652 0
M  V30 4906 N 441.952 1.55251 0.271103 0
M  V30 4907 C 442.899 1.88261 1.33516 0
M  V30 4908 C 443.869 0.734296 1.48988 0
M  V30 4909 O 445.054 0.985741 1.63364 0
M  V30 4910 C 442.194 2.16168 2.69008 0
M  V30 4911 C 441.307 3.43678 2.61743 0
M  V30 4912 C 440.442 3.61276 3.89427 0
M  V30 4913 C 439.481 4.82472 3.7668 0
M  V30 4914 N 438.618 4.96717 4.96202 0
M  V30 4915 H 443.458 2.79015 1.04665 0
M  V30 4916 H 440.995 1.38137 0.505618 0
M  V30 4917 H 442.953 2.30349 3.47844 0
M  V30 4918 H 441.583 1.28646 2.96057 0
M  V30 4919 H 440.635 3.37959 1.74607 0
M  V30 4920 H 441.947 4.3265 2.48224 0
M  V30 4921 H 441.101 3.75284 4.76704 0
M  V30 4922 H 439.84 2.70492 4.05814 0
M  V30 4923 H 438.845 4.68465 2.87786 0
M  V30 4924 H 440.07 5.74692 3.61809 0
M  V30 4925 H 438.016 4.08865 5.12997 0
M  V30 4926 H 437.933 5.79738 4.85222 0
M  V30 4927 H 439.201 5.15113 5.85046 0
M  V30 4928 N 443.43 -0.535701 1.48216 0
M  V30 4929 C 444.34 -1.66785 1.64985 0
M  V30 4930 C 445.356 -1.65654 0.532414 0
M  V30 4931 O 446.532 -1.8471 0.80275 0
M  V30 4932 C 443.597 -3.0326 1.68031 0
M  V30 4933 C 442.658 -3.1529 2.9136 0
M  V30 4934 C 441.891 -4.45255 2.94252 0
M  V30 4935 O 442.114 -5.32011 2.05719 0
M  V30 4936 O 441.048 -4.6153 3.86359 0
M  V30 4937 H 444.874 -1.55576 2.60825 0
M  V30 4938 H 442.459 -0.70815 1.31551 0
M  V30 4939 H 444.341 -3.84436 1.72589 0
M  V30 4940 H 443.016 -3.14805 0.753628 0
M  V30 4941 H 441.923 -2.3343 2.92337 0
M  V30 4942 H 443.256 -3.08658 3.83394 0
M  V30 4943 N 444.908 -1.36708 -0.784132 0
M  V30 4944 C 446.185 -1.21776 -1.53069 0
M  V30 4945 C 446.565 0.193876 -2.10208 0
M  V30 4946 O 445.913 1.20012 -1.94446 0
M  V30 4947 C 446.123 -2.30395 -2.62143 0
M  V30 4948 C 447.471 -2.67325 -3.29882 0
M  V30 4949 O 448.495 -2.29478 -2.7243 0
M  V30 4950 O 447.354 -3.32485 -4.33724 0
M  V30 4951 H 444.448 -0.474459 -0.677361 0
M  V30 4952 H 446.994 -1.48454 -0.82216 0
M  V30 4953 H 445.766 -3.2498 -2.17953 0
M  V30 4954 H 445.389 -2.05112 -3.40609 0
M  V30 4955 N 446.386 1.0089 -1.21074 0
M  V30 4956 C 447.336 2.0799 -0.934034 0
M  V30 4957 C 448.32 1.60529 0.10919 0
M  V30 4958 O 449.512 1.76722 -0.0992198 0
M  V30 4959 C 446.641 3.39693 -0.496334 0
M  V30 4960 C 445.727 3.93833 -1.57341 0
M  V30 4961 N 446.118 4.21388 -2.7976 0
M  V30 4962 C 444.416 4.22067 -1.44137 0
M  V30 4963 C 445.117 4.65156 -3.49292 0
M  V30 4964 N 444.093 4.67895 -2.76722 0
M  V30 4965 H 447.895 2.27213 -1.86417 0
M  V30 4966 H 445.409 1.18927 -1.10589 0
M  V30 4967 H 447.406 4.15962 -0.279471 0
M  V30 4968 H 446.066 3.21879 0.427084 0
M  V30 4969 H 447.077 4.10061 -3.1634 0
M  V30 4970 H 443.754 4.1341 -0.582947 0
M  V30 4971 H 445.144 4.95231 -4.54088 0
M  V30 4972 N 447.864 1.01787 1.20321 0
M  V30 4973 C 449.11 0.708985 1.90003 0
M  V30 4974 C 449.443 -0.759572 1.78729 0
M  V30 4975 O 448.718 -1.55198 1.17234 0
M  V30 4976 C 449.001 1.1469 3.41348 0
M  V30 4977 C 448.854 2.67586 3.61549 0
M  V30 4978 C 450.173 0.71915 4.34185 0
M  V30 4979 H 447.292 0.259034 0.689978 0
M  V30 4980 H 449.934 1.26584 1.41692 0
M  V30 4981 H 448.084 0.673128 3.82624 0
M  V30 4982 H 449.756 3.22826 3.29517 0
M  V30 4983 H 447.999 3.085 3.04976 0
M  V30 4984 H 448.67 2.93281 4.67643 0
M  V30 4985 H 451.146 1.12647 4.00562 0
M  V30 4986 H 450.022 1.05358 5.38694 0
M  V30 4987 H 450.283 -0.379111 4.40472 0
M  V30 4988 N 449.342 -1.36122 0.79427 0
M  V30 4989 C 450.29 -2.31871 0.184023 0
M  V30 4990 C 451.284 -1.56041 -0.659365 0
M  V30 4991 O 452.49 -1.71266 -0.553906 0
M  V30 4992 H 448.865 -0.750896 0.0407373 0
M  V30 4993 H 450.836 -2.80898 1.00693 0
M  V30 4994 C 449.585 -3.41324 -0.662813 0
M  V30 4995 H 448.908 -3.99793 -0.0231944 0
M  V30 4996 H 450.348 -4.10629 -1.05639 0
M  V30 4997 C 448.807 -2.83308 -1.82313 0
M  V30 4998 O 449.337 -2.75863 -2.91997 0
M  V30 4999 N 447.543 -2.40529 -1.63077 0
M  V30 5000 H 447.09 -2.46785 -0.738591 0
M  V30 5001 H 447.048 -2.02059 -2.40872 0
M  V30 5002 N 450.82 -0.546701 -1.47814 0
M  V30 5003 C 452.236 -0.205717 -1.58269 0
M  V30 5004 C 452.436 1.29153 -1.54667 0
M  V30 5005 O 451.492 2.07098 -1.44453 0
M  V30 5006 C 452.805 -0.823065 -2.89216 0
M  V30 5007 C 454.353 -0.793328 -3.02779 0
M  V30 5008 C 454.828 -1.38955 -4.36412 0
M  V30 5009 N 456.319 -1.35227 -4.43021 0
M  V30 5010 C 457.054 -1.78333 -5.44963 0
M  V30 5011 N 456.55 -2.29246 -6.53772 0
M  V30 5012 N 458.343 -1.69467 -5.35945 0
M  V30 5013 H 450.494 -1.5196 -1.48398 0
M  V30 5014 H 452.757 -0.633078 -0.705632 0
M  V30 5015 H 452.463 -1.8749 -2.97558 0
M  V30 5016 H 452.337 -0.309915 -3.75925 0
M  V30 5017 H 454.724 0.249784 -2.94041 0
M  V30 5018 H 454.805 -1.34412 -2.17639 0
M  V30 5019 H 454.449 -2.43168 -4.45906 0
M  V30 5020 H 454.379 -0.814291 -5.20266 0
M  V30 5021 H 456.87 -0.979739 -3.64979 0
M  V30 5022 H 457.183 -2.60089 -7.27718 0
M  V30 5023 H 455.528 -2.3325 -6.5469 0
M  V30 5024 H 458.719 -1.29477 -4.49837 0
M  V30 5025 H 458.892 -2.03381 -6.15256 0
M  V30 5026 N 452.299 1.55045 -0.282633 0
M  V30 5027 C 453.247 2.24254 0.617478 0
M  V30 5028 C 454.241 1.24215 1.15183 0
M  V30 5029 O 455.447 1.42123 1.10459 0
M  V30 5030 H 451.822 0.719801 0.217693 0
M  V30 5031 H 453.793 2.98398 0.0110076 0
M  V30 5032 C 452.542 2.98281 1.78672 0
M  V30 5033 H 451.865 3.75053 1.38475 0
M  V30 5034 H 453.305 3.50017 2.393 0
M  V30 5035 C 451.764 2.04184 2.67975 0
M  V30 5036 O 452.294 1.59792 3.6855 0
M  V30 5037 N 450.5 1.70526 2.35307 0
M  V30 5038 H 450.047 2.06821 1.53567 0
M  V30 5039 H 450.005 1.07839 2.95327 0
M  V30 5040 N 453.777 0.010035 1.57597 0
M  V30 5041 C 455.193 -0.346164 1.55801 0
M  V30 5042 C 455.393 -1.74144 1.01371 0
M  V30 5043 O 454.449 -2.43938 0.651968 0
M  V30 5044 C 455.762 -0.212216 2.9995 0
M  V30 5045 C 457.31 -0.286409 3.11687 0
M  V30 5046 C 457.785 -0.18147 4.5764 0
M  V30 5047 N 459.276 -0.239056 4.62583 0
M  V30 5048 C 460.011 -0.181351 5.73113 0
M  V30 5049 N 459.507 -0.073661 6.92761 0
M  V30 5050 N 461.3 -0.233949 5.61613 0
M  V30 5051 H 453.451 0.922657 1.91313 0
M  V30 5052 H 455.714 0.354595 0.879185 0
M  V30 5053 H 455.42 0.748169 3.4365 0
M  V30 5054 H 455.294 -0.990224 3.6397 0
M  V30 5055 H 457.681 -1.23724 2.67911 0
M  V30 5056 H 457.762 0.521645 2.50425 0
M  V30 5057 H 457.406 0.765863 5.02093 0
M  V30 5058 H 457.336 -1.00814 5.1686 0
M  V30 5059 H 459.827 -0.32321 3.76515 0
M  V30 5060 H 460.14 -0.0358003 7.72792 0
M  V30 5061 H 458.485 -0.0391461 6.94989 0
M  V30 5062 H 461.676 -0.316347 4.6703 0
M  V30 5063 H 461.849 -0.185514 6.47734 0
M  V30 5064 N 455.255 -1.55392 -0.262866 0
M  V30 5065 C 456.165 -1.92077 -1.34698 0
M  V30 5066 C 457.181 -0.819227 -1.53508 0
M  V30 5067 O 458.357 -1.11921 -1.67439 0
M  V30 5068 C 455.422 -2.19407 -2.68443 0
M  V30 5069 C 454.483 -3.42905 -2.58292 0
M  V30 5070 C 453.716 -3.68921 -3.85659 0
M  V30 5071 O 453.939 -2.97275 -4.8681 0
M  V30 5072 O 452.873 -4.62455 -3.85252 0
M  V30 5073 H 456.699 -2.84384 -1.06581 0
M  V30 5074 H 454.284 -1.42069 -0.462264 0
M  V30 5075 H 456.166 -2.38365 -3.47506 0
M  V30 5076 H 454.841 -1.30282 -2.96325 0
M  V30 5077 H 453.748 -3.29272 -1.7757 0
M  V30 5078 H 455.081 -4.32282 -2.35358 0
M  V30 5079 N 456.733 0.527833 -1.48498 0
M  V30 5080 C 457.683 1.62844 -1.5958 0
M  V30 5081 C 458.667 1.54397 -0.452809 0
M  V30 5082 O 459.859 1.62381 -0.704364 0
M  V30 5083 C 456.988 3.01557 -1.64067 0
M  V30 5084 C 456.074 3.151 -2.83853 0
M  V30 5085 N 456.465 2.9861 -4.08247 0
M  V30 5086 C 454.763 3.46158 -2.8123 0
M  V30 5087 C 455.464 3.15626 -4.88626 0
M  V30 5088 N 454.44 3.43298 -4.21483 0
M  V30 5089 H 458.242 1.48708 -2.53502 0
M  V30 5090 H 455.756 0.733343 -1.44899 0
M  V30 5091 H 457.753 3.8062 -1.70101 0
M  V30 5092 H 456.413 3.16783 -0.712636 0
M  V30 5093 H 457.424 2.75329 -4.3865 0
M  V30 5094 H 454.101 3.67728 -1.97692 0
M  V30 5095 H 455.491 3.07596 -5.97356 0
M  V30 5096 N 458.211 1.37122 0.776871 0
M  V30 5097 C 459.159 1.32549 1.91138 0
M  V30 5098 C 460.153 0.215119 1.68029 0
M  V30 5099 O 461.359 0.382852 1.75881 0
M  V30 5100 H 457.734 0.412952 0.62847 0
M  V30 5101 H 459.705 2.28332 1.92112 0
M  V30 5102 C 458.454 1.14422 3.28333 0
M  V30 5103 H 457.777 1.99115 3.46689 0
M  V30 5104 H 459.217 1.15272 4.0803 0
M  V30 5105 C 457.676 -0.150434 3.36564 0
M  V30 5106 O 458.206 -1.13584 3.85307 0
M  V30 5107 N 456.412 -0.19939 2.89915 0
M  V30 5108 H 455.959 0.603142 2.5044 0
M  V30 5109 H 455.917 -1.06526 2.95803 0
M  V30 5110 N 459.689 -1.00246 1.21608 0
M  V30 5111 C 460.599 -2.12515 0.993709 0
M  V30 5112 C 461.615 -1.73913 -0.0549939 0
M  V30 5113 O 462.791 -2.00943 0.135619 0
M  V30 5114 C 459.856 -3.42083 0.563953 0
M  V30 5115 C 458.917 -3.94843 1.68516 0
M  V30 5116 C 458.15 -5.18226 1.27582 0
M  V30 5117 O 458.373 -5.70201 0.150506 0
M  V30 5118 O 457.307 -5.64497 2.0887 0
M  V30 5119 H 461.133 -2.34152 1.93407 0
M  V30 5120 H 458.718 -1.10891 1.00118 0
M  V30 5121 H 460.6 -4.20073 0.334194 0
M  V30 5122 H 459.275 -3.21828 -0.347665 0
M  V30 5123 H 458.182 -3.18068 1.96935 0
M  V30 5124 H 459.515 -4.19512 2.5743 0
M  V30 5125 N 461.167 -1.02423 -1.1978 0
M  V30 5126 C 462.115 -0.594474 -2.24875 0
M  V30 5127 C 463.109 0.370598 -1.65296 0
M  V30 5128 O 464.315 0.239684 -1.78397 0
M  V30 5129 H 460.69 -0.173961 -0.731602 0
M  V30 5130 H 462.661 -1.4916 -2.58445 0
M  V30 5131 C 461.41 0.0436512 -3.47673 0
M  V30 5132 H 460.733 -0.689963 -3.93801 0
M  V30 5133 H 462.173 0.307362 -4.22884 0
M  V30 5134 C 460.632 1.28881 -3.11274 0
M  V30 5135 O 461.162 2.38135 -3.23503 0
M  V30 5136 N 459.368 1.1758 -2.6575 0
M  V30 5137 H 458.915 0.286769 -2.55999 0
M  V30 5138 H 458.873 2.00988 -2.41767 0
M  V30 5139 N 462.645 1.35699 -0.801477 0
M  V30 5140 C 463.575 2.32436 -0.222658 0
M  V30 5141 C 464.556 1.5723 0.649057 0
M  V30 5142 O 465.741 1.85324 0.580387 0
M  V30 5143 C 462.871 3.41469 0.633719 0
M  V30 5144 C 461.825 4.27774 -0.139083 0
M  V30 5145 C 461.151 5.28082 0.838666 0
M  V30 5146 C 462.451 5.04946 -1.33517 0
M  V30 5147 H 464.145 2.81094 -1.03086 0
M  V30 5148 H 461.691 1.35146 -0.497155 0
M  V30 5149 H 463.644 4.08143 1.04868 0
M  V30 5150 H 462.368 2.91408 1.47475 0
M  V30 5151 H 461.027 3.62673 -0.535156 0
M  V30 5152 H 460.675 4.7429 1.67506 0
M  V30 5153 H 460.375 5.86695 0.32594 0
M  V30 5154 H 461.899 5.97628 1.25194 0
M  V30 5155 H 463.313 5.64593 -0.995349 0
M  V30 5156 H 461.71 5.7303 -1.78202 0
M  V30 5157 H 462.78 4.35886 -2.12442 0
M  V30 5158 N 464.123 0.554532 1.47522 0
M  V30 5159 C 465.071 -0.207765 2.3167 0
M  V30 5160 C 466.065 -0.911914 1.4276 0
M  V30 5161 O 467.271 -0.833504 1.59539 0
M  V30 5162 H 463.646 -0.0858726 0.747081 0
M  V30 5163 H 465.617 0.521178 2.93813 0
M  V30 5164 C 464.366 -1.2263 3.25357 0
M  V30 5165 H 463.689 -0.693887 3.93732 0
M  V30 5166 H 465.129 -1.73062 3.87073 0
M  V30 5167 C 463.588 -2.27278 2.4869 0
M  V30 5168 O 464.118 -3.34156 2.22941 0
M  V30 5169 N 462.324 -2.01134 2.09746 0
M  V30 5170 H 461.871 -1.14232 2.30887 0
M  V30 5171 H 461.829 -2.71369 1.58765 0
M  V30 5172 N 465.601 -1.54893 0.290851 0
M  V30 5173 C 466.564 -2.21824 -0.576784 0
M  V30 5174 C 467.564 -1.20104 -1.06919 0
M  V30 5175 O 468.754 -1.44906 -0.966843 0
M  V30 5176 C 465.886 -2.89662 -1.79747 0
M  V30 5177 H 467.079 -2.99899 0.00784051 0
M  V30 5178 H 464.632 -1.56245 0.0415934 0
M  V30 5179 H 465.367 -2.15639 -2.42219 0
M  V30 5180 H 465.152 -3.64219 -1.45214 0
M  V30 5181 H 466.642 -3.4075 -2.4141 0
M  V30 5182 N 467.08 -0.0183926 -1.57589 0
M  V30 5183 C 467.99 0.982943 -2.13015 0
M  V30 5184 C 469.006 1.36443 -1.07979 0
M  V30 5185 O 470.182 1.44802 -1.3998 0
M  V30 5186 C 467.247 2.25024 -2.63752 0
M  V30 5187 C 466.308 1.93018 -3.83461 0
M  V30 5188 C 465.541 3.13706 -4.31769 0
M  V30 5189 O 465.764 4.2601 -3.79305 0
M  V30 5190 O 464.698 2.96629 -5.23732 0
M  V30 5191 H 468.524 0.541709 -2.9883 0
M  V30 5192 H 466.109 0.201565 -1.48034 0
M  V30 5193 H 467.991 2.99441 -2.96502 0
M  V30 5194 H 466.666 2.68349 -1.81026 0
M  V30 5195 H 465.573 1.16019 -3.55655 0
M  V30 5196 H 466.906 1.54516 -4.67317 0
M  V30 5197 N 468.558 1.5553 0.254621 0
M  V30 5198 C 469.491 1.84624 1.34124 0
M  V30 5199 C 470.469 0.700693 1.46728 0
M  V30 5200 O 471.653 0.94564 1.63064 0
M  V30 5201 C 468.78 2.02412 2.71564 0
M  V30 5202 C 467.826 3.25028 2.7615 0
M  V30 5203 S 468.659 4.81893 2.33538 0
M  V30 5204 C 469.815 5.02677 3.72917 0
M  V30 5205 H 470.048 2.76501 1.09245 0
M  V30 5206 H 467.581 1.47537 0.455211 0
M  V30 5207 H 469.539 2.13345 3.50705 0
M  V30 5208 H 468.2 1.11391 2.93685 0
M  V30 5209 H 467.393 3.34418 3.77069 0
M  V30 5210 H 466.995 3.12781 2.05046 0
M  V30 5211 H 469.287 4.89546 4.68349 0
M  V30 5212 H 470.23 6.0468 3.68467 0
M  V30 5213 H 470.638 4.30561 3.65072 0
M  V30 5214 N 470.036 -0.519951 1.48776 0
M  V30 5215 C 470.968 -1.63973 1.60142 0
M  V30 5216 C 471.981 -1.55404 0.485117 0
M  V30 5217 O 473.17 -1.61682 0.756391 0
M  V30 5218 C 470.27 -3.02676 1.52449 0
M  V30 5219 C 469.443 -3.36624 2.79291 0
M  V30 5220 C 468.502 -4.54652 2.64912 0
M  V30 5221 O 467.528 -4.57374 3.38818 0
M  V30 5222 N 468.73 -5.53432 1.75195 0
M  V30 5223 H 471.495 -1.54656 2.56713 0
M  V30 5224 H 469.056 -0.707439 1.45626 0
M  V30 5225 H 471.048 -3.79525 1.4051 0
M  V30 5226 H 469.618 -3.06018 0.638125 0
M  V30 5227 H 468.838 -2.48855 3.0572 0
M  V30 5228 H 470.126 -3.56094 3.6342 0
M  V30 5229 H 469.524 -5.54018 1.14371 0
M  V30 5230 H 468.081 -6.29459 1.69189 0
M  V30 5231 N 471.514 -1.37532 -0.769588 0
M  V30 5232 C 472.462 -1.33561 -1.90432 0
M  V30 5233 C 473.456 -0.224027 -1.67912 0
M  V30 5234 O 474.662 -0.392174 -1.75676 0
M  V30 5235 H 471.037 -0.416279 -0.626271 0
M  V30 5236 H 473.008 -2.29348 -1.90899 0
M  V30 5237 C 471.757 -1.16162 -3.27722 0
M  V30 5238 H 471.08 -2.00951 -3.45628 0
M  V30 5239 H 472.52 -1.17434 -4.07413 0
M  V30 5240 C 470.979 0.132583 -3.36639 0
M  V30 5241 O 471.509 1.11539 -3.85904 0
M  V30 5242 N 469.715 0.184013 -2.90017 0
M  V30 5243 H 469.262 -0.616415 -2.50116 0
M  V30 5244 H 469.22 1.04956 -2.96364 0
M  V30 5245 N 472.992 0.995999 -1.22138 0
M  V30 5246 C 473.922 2.10387 -1.01289 0
M  V30 5247 C 474.903 1.69975 0.0651454 0
M  V30 5248 O 476.088 1.9396 -0.0964628 0
M  V30 5249 C 473.218 3.42312 -0.586517 0
M  V30 5250 C 472.172 3.96558 -1.61014 0
M  V30 5251 C 471.498 5.24494 -1.0397 0
M  V30 5252 C 472.798 4.27595 -2.99933 0
M  V30 5253 H 474.492 2.28086 -1.93951 0
M  V30 5254 H 472.038 1.09607 -0.933928 0
M  V30 5255 H 473.991 4.19223 -0.427793 0
M  V30 5256 H 472.715 3.24431 0.375761 0
M  V30 5257 H 471.374 3.21776 -1.75658 0
M  V30 5258 H 471.022 5.02953 -0.0688703 0
M  V30 5259 H 470.722 5.61755 -1.72352 0
M  V30 5260 H 472.246 6.04042 -0.892494 0
M  V30 5261 H 473.66 4.95315 -2.8868 0
M  V30 5262 H 472.057 4.76021 -3.6541 0
M  V30 5263 H 473.127 3.35498 -3.50099 0
M  V30 5264 N 474.47 1.03057 1.19235 0
M  V30 5265 C 475.417 0.612832 2.22515 0
M  V30 5266 C 476.387 -0.374224 1.61829 0
M  V30 5267 O 477.572 -0.270501 1.88873 0
M  V30 5268 C 474.712 -0.028475 3.45088 0
M  V30 5269 C 473.825 1.00483 4.20151 0
M  V30 5270 C 472.96 0.333102 5.30155 0
M  V30 5271 C 471.999 1.3522 5.96977 0
M  V30 5272 N 471.136 0.70616 6.9854 0
M  V30 5273 H 475.976 1.49812 2.57605 0
M  V30 5274 H 473.513 0.749658 1.26564 0
M  V30 5275 H 475.471 -0.417548 4.15105 0
M  V30 5276 H 474.101 -0.877334 3.10649 0
M  V30 5277 H 473.153 1.51194 3.49062 0
M  V30 5278 H 474.465 1.77929 4.65986 0
M  V30 5279 H 473.619 -0.110725 6.06599 0
M  V30 5280 H 472.358 -0.473547 4.85396 0
M  V30 5281 H 471.363 1.80627 5.19282 0
M  V30 5282 H 472.588 2.16037 6.4382 0
M  V30 5283 H 470.534 -0.0803667 6.55951 0
M  V30 5284 H 470.451 1.41848 7.42573 0
M  V30 5285 H 471.719 0.286391 7.78974 0
M  V30 5286 N 475.948 -1.35272 0.808662 0
M  V30 5287 C 476.88 -2.28507 0.178149 0
M  V30 5288 C 477.893 -1.50377 -0.623754 0
M  V30 5289 O 479.082 -1.72583 -0.455774 0
M  V30 5290 C 476.182 -3.30038 -0.769959 0
M  V30 5291 C 475.355 -4.37398 -0.0139749 0
M  V30 5292 C 474.414 -5.18775 -0.880875 0
M  V30 5293 O 473.44 -5.68236 -0.331059 0
M  V30 5294 N 474.642 -5.37087 -2.20267 0
M  V30 5295 H 477.407 -2.83255 0.979106 0
M  V30 5296 H 474.968 -1.47643 0.664308 0
M  V30 5297 H 476.96 -3.81371 -1.35418 0
M  V30 5298 H 475.53 -2.75789 -1.47171 0
M  V30 5299 H 474.75 -3.86971 0.751468 0
M  V30 5300 H 476.038 -5.06268 0.506965 0
M  V30 5301 H 475.436 -4.9855 -2.67328 0
M  V30 5302 H 473.993 -5.91593 -2.73608 0
M  V30 5303 N 477.426 -0.562348 -1.47226 0
M  V30 5304 C 478.373 0.182461 -2.30078 0
M  V30 5305 C 479.343 0.903503 -1.39377 0
M  V30 5306 O 480.528 0.898188 -1.68337 0
M  V30 5307 C 477.668 1.20322 -3.23445 0
M  V30 5308 C 476.781 0.487717 -4.29238 0
M  V30 5309 C 475.916 1.49422 -5.09752 0
M  V30 5310 C 474.955 0.763976 -6.07314 0
M  V30 5311 N 474.092 1.71755 -6.80768 0
M  V30 5312 H 478.932 -0.530169 -2.93246 0
M  V30 5313 H 476.469 -0.273276 -1.44539 0
M  V30 5314 H 478.427 1.80768 -3.76004 0
M  V30 5315 H 477.057 1.88382 -2.6213 0
M  V30 5316 H 476.109 -0.231374 -3.79696 0
M  V30 5317 H 477.421 -0.0841003 -4.98729 0
M  V30 5318 H 476.575 2.17206 -5.66486 0
M  V30 5319 H 475.314 2.09995 -4.40174 0
M  V30 5320 H 474.319 0.0722344 -5.49753 0
M  V30 5321 H 475.544 0.16391 -6.78902 0
M  V30 5322 H 473.49 2.31177 -6.13916 0
M  V30 5323 H 473.407 1.19802 -7.46447 0
M  V30 5324 H 474.675 2.38638 -7.42073 0
M  V30 5325 N 478.904 1.54736 -0.299062 0
M  V30 5326 C 480.151 2.00101 0.310784 0
M  V30 5327 C 480.479 1.18746 1.54045 0
M  V30 5328 O 479.734 0.251198 1.94081 0
M  V30 5329 C 480.033 3.50199 0.713835 0
M  V30 5330 C 479.699 4.48997 -0.413873 0
M  V30 5331 C 478.361 4.7573 -0.723462 0
M  V30 5332 C 480.713 5.07839 -1.17257 0
M  V30 5333 C 478.041 5.5857 -1.79491 0
M  V30 5334 C 480.393 5.91844 -2.23392 0
M  V30 5335 C 479.057 6.16889 -2.54959 0
M  V30 5336 H 478.327 0.732221 0.113724 0
M  V30 5337 H 480.974 1.86888 -0.417756 0
M  V30 5338 H 479.279 3.61012 1.52243 0
M  V30 5339 H 480.976 3.82723 1.19684 0
M  V30 5340 H 477.566 4.28292 -0.162476 0
M  V30 5341 H 481.75 4.87188 -0.946651 0
M  V30 5342 H 477.006 5.76213 -2.04423 0
M  V30 5343 H 481.18 6.36465 -2.8264 0
M  V30 5344 H 478.807 6.80869 -3.38114 0
M  V30 5345 N 480.382 0.0267497 1.57577 0
M  V30 5346 C 481.631 -0.651736 1.9088 0
M  V30 5347 C 481.944 -1.73427 0.904576 0
M  V30 5348 O 483.15 -2.46923 1.12877 0
M  V30 5349 C 481.606 -1.21048 3.38933 0
M  V30 5350 C 481.214 -0.161362 4.47709 0
M  V30 5351 C 482.958 -1.86562 3.81307 0
M  V30 5352 C 480.865 -0.731611 5.86857 0
M  V30 5353 H 479.795 -0.247198 0.712326 0
M  V30 5354 H 482.446 0.0916641 1.83271 0
M  V30 5355 H 480.828 -2.00542 3.41466 0
M  V30 5356 H 482.002 0.61094 4.56732 0
M  V30 5357 H 480.317 0.394877 4.14523 0
M  V30 5358 H 482.914 -2.30178 4.8262 0
M  V30 5359 H 483.257 -2.70735 3.16241 0
M  V30 5360 H 483.79 -1.13762 3.81186 0
M  V30 5361 H 480.529 0.0719329 6.55461 0
M  V30 5362 H 480.049 -1.47245 5.81445 0
M  V30 5363 H 481.728 -1.22208 6.35354 0
M  V30 5364 N 481.861 -1.55662 -0.24637 0
M  V30 5365 C 482.791 -1.93377 -1.30873 0
M  V30 5366 C 483.772 -0.798773 -1.50179 0
M  V30 5367 O 484.957 -1.0591 -1.62778 0
M  V30 5368 C 482.087 -2.22893 -2.66338 0
M  V30 5369 C 481.041 -3.38649 -2.61727 0
M  V30 5370 C 480.367 -3.53708 -4.00992 0
M  V30 5371 C 481.667 -4.74323 -2.18666 0
M  V30 5372 H 483.361 -2.82363 -0.995552 0
M  V30 5373 H 480.907 -1.35854 -0.477464 0
M  V30 5374 H 482.86 -2.47866 -3.40794 0
M  V30 5375 H 481.584 -1.30733 -2.99293 0
M  V30 5376 H 480.243 -3.13685 -1.89729 0
M  V30 5377 H 479.891 -2.58967 -4.31214 0
M  V30 5378 H 479.591 -4.31551 -3.98795 0
M  V30 5379 H 481.115 -3.81003 -4.77147 0
M  V30 5380 H 482.529 -4.98665 -2.82854 0
M  V30 5381 H 480.926 -5.55273 -2.27579 0
M  V30 5382 H 481.996 -4.71349 -1.13834 0
M  V30 5383 N 483.339 0.512053 -1.4905 0
M  V30 5384 C 484.249 1.64139 -1.67617 0
M  V30 5385 C 485.265 1.64786 -0.558701 0
M  V30 5386 O 486.441 1.8341 -0.832034 0
M  V30 5387 C 483.506 3.00548 -1.72835 0
M  V30 5388 C 482.567 3.10615 -2.96339 0
M  V30 5389 C 481.8 4.40517 -3.01298 0
M  V30 5390 O 482.023 5.28671 -2.14157 0
M  V30 5391 O 480.957 4.55325 -3.93653 0
M  V30 5392 H 484.783 1.51407 -2.63267 0
M  V30 5393 H 482.368 0.687131 -1.32661 0
M  V30 5394 H 484.25 3.81641 -1.78683 0
M  V30 5395 H 482.925 3.13566 -0.803616 0
M  V30 5396 H 481.832 2.2875 -2.96014 0
M  V30 5397 H 483.165 3.0252 -3.88256 0
M  V30 5398 N 484.817 1.37938 0.762283 0
M  V30 5399 C 485.749 1.30349 1.88525 0
M  V30 5400 C 486.762 0.217402 1.61342 0
M  V30 5401 O 487.951 0.474291 1.72084 0
M  V30 5402 C 485.051 0.994844 3.23969 0
M  V30 5403 C 484.224 2.18829 3.78725 0
M  V30 5404 C 483.283 1.84844 4.92665 0
M  V30 5405 O 482.309 2.57244 5.07754 0
M  V30 5406 N 483.511 0.798201 5.74986 0
M  V30 5407 H 486.276 2.27114 1.95549 0
M  V30 5408 H 483.837 1.31686 0.941825 0
M  V30 5409 H 485.829 0.748168 3.97724 0
M  V30 5410 H 484.399 0.115446 3.12387 0
M  V30 5411 H 483.619 2.59615 2.96637 0
M  V30 5412 H 484.907 2.98497 4.1204 0
M  V30 5413 H 484.305 0.197611 5.65355 0
M  V30 5414 H 482.862 0.611396 6.48926 0
M  V30 5415 N 486.295 -0.989507 1.22664 0
M  V30 5416 C 487.227 -2.0824 0.957542 0
M  V30 5417 C 488.24 -1.6267 -0.0651098 0
M  V30 5418 O 489.429 -1.77695 0.169312 0
M  V30 5419 C 486.529 -3.36298 0.419145 0
M  V30 5420 C 485.702 -4.10882 1.49982 0
M  V30 5421 C 484.761 -5.17221 0.967904 0
M  V30 5422 O 483.787 -5.44613 1.65487 0
M  V30 5423 N 484.989 -5.80124 -0.20896 0
M  V30 5424 H 487.754 -2.31904 1.89843 0
M  V30 5425 H 485.315 -1.15552 1.13399 0
M  V30 5426 H 487.307 -4.04671 0.0485451 0
M  V30 5427 H 485.877 -3.09671 -0.426937 0
M  V30 5428 H 485.097 -3.37092 2.04359 0
M  V30 5429 H 486.385 -4.57482 2.22682 0
M  V30 5430 H 485.783 -5.60244 -0.783818 0
M  V30 5431 H 484.34 -6.49715 -0.520913 0
M  V30 5432 N 487.773 -1.03688 -1.18687 0
M  V30 5433 C 488.683 -0.634908 -2.25845 0
M  V30 5434 C 489.699 0.337065 -1.70704 0
M  V30 5435 O 490.875 0.192943 -2.00474 0
M  V30 5436 C 487.94 -0.000180054 -3.467 0
M  V30 5437 C 487.001 -1.02067 -4.1699 0
M  V30 5438 C 486.234 -0.41614 -5.32075 0
M  V30 5439 O 486.457 0.778712 -5.65059 0
M  V30 5440 O 485.391 -1.14296 -5.90948 0
M  V30 5441 H 489.217 -1.52757 -2.62486 0
M  V30 5442 H 486.802 -0.807533 -1.25695 0
M  V30 5443 H 488.684 0.353342 -4.19916 0
M  V30 5444 H 487.359 0.866367 -3.11891 0
M  V30 5445 H 486.266 -1.42592 -3.45859 0
M  V30 5446 H 487.599 -1.85786 -4.5579 0
M  V30 5447 N 489.251 1.34841 -0.815825 0
M  V30 5448 C 490.667 1.51543 -0.500697 0
M  V30 5449 C 490.867 1.76261 0.976444 0
M  V30 5450 O 489.923 1.8094 1.76117 0
M  V30 5451 C 491.236 2.68487 -1.35407 0
M  V30 5452 C 492.784 2.82368 -1.35046 0
M  V30 5453 C 493.259 4.02347 -2.18816 0
M  V30 5454 N 494.75 4.09542 -2.16402 0
M  V30 5455 C 495.485 5.01517 -2.77971 0
M  V30 5456 N 494.981 5.98763 -3.48503 0
M  V30 5457 N 496.774 4.94334 -2.67563 0
M  V30 5458 H 488.925 1.17055 -1.77234 0
M  V30 5459 H 491.188 0.573481 -0.754866 0
M  V30 5460 H 490.894 2.56829 -2.40274 0
M  V30 5461 H 490.768 3.63321 -1.01377 0
M  V30 5462 H 493.155 2.93471 -0.309604 0
M  V30 5463 H 493.236 1.88363 -1.73069 0
M  V30 5464 H 492.88 3.92004 -3.22948 0
M  V30 5465 H 492.81 4.95551 -1.78148 0
M  V30 5466 H 495.301 3.39932 -1.65091 0
M  V30 5467 H 495.614 6.6556 -3.92747 0
M  V30 5468 H 493.959 5.98909 -3.52609 0
M  V30 5469 H 497.15 4.1732 -2.12041 0
M  V30 5470 H 497.323 5.6582 -3.15834 0
M  V30 5471 N 490.729 0.570148 1.46925 0
M  V30 5472 C 491.639 -0.173061 2.33961 0
M  V30 5473 C 492.655 -0.898825 1.48987 0
M  V30 5474 O 493.831 -0.864825 1.81887 0
M  V30 5475 C 490.896 -1.18177 3.25937 0
M  V30 5476 C 489.957 -0.462041 4.26806 0
M  V30 5477 C 489.19 -1.4227 5.14388 0
M  V30 5478 O 489.413 -2.65842 5.04662 0
M  V30 5479 O 488.347 -0.940127 5.94513 0
M  V30 5480 H 492.173 0.541216 2.98839 0
M  V30 5481 H 489.758 0.330647 1.45695 0
M  V30 5482 H 491.64 -1.76372 3.82715 0
M  V30 5483 H 490.315 -1.87774 2.63671 0
M  V30 5484 H 489.222 0.161429 3.73752 0
M  V30 5485 H 490.555 0.192719 4.91823 0
M  V30 5486 N 492.207 -1.54576 0.307264 0
M  V30 5487 C 493.154 -2.23751 -0.56604 0
M  V30 5488 C 494.124 -1.22235 -1.12462 0
M  V30 5489 O 495.309 -1.50873 -1.16799 0
M  V30 5490 C 492.449 -2.98661 -1.72903 0
M  V30 5491 C 491.562 -4.14963 -1.20124 0
M  V30 5492 C 490.697 -4.77441 -2.3286 0
M  V30 5493 C 489.736 -5.85875 -1.77247 0
M  V30 5494 N 488.873 -6.42282 -2.8358 0
M  V30 5495 H 493.713 -2.97984 0.0304578 0
M  V30 5496 H 491.25 -1.47076 0.0268015 0
M  V30 5497 H 493.208 -3.40329 -2.41313 0
M  V30 5498 H 491.838 -2.26793 -2.29706 0
M  V30 5499 H 490.89 -3.78193 -0.409198 0
M  V30 5500 H 492.202 -4.93066 -0.754171 0
M  V30 5501 H 491.356 -5.21993 -3.09205 0
M  V30 5502 H 490.095 -3.98684 -2.80896 0
M  V30 5503 H 489.1 -5.40741 -0.993926 0
M  V30 5504 H 490.325 -6.6652 -1.30107 0
M  V30 5505 H 488.271 -5.66406 -3.30939 0
M  V30 5506 H 488.188 -7.1575 -2.43388 0
M  V30 5507 H 489.456 -6.91492 -3.59804 0
M  V30 5508 N 493.685 -0.035106 -1.57561 0
M  V30 5509 C 494.615 0.942993 -2.13612 0
M  V30 5510 C 495.596 1.33531 -1.05373 0
M  V30 5511 O 496.781 1.41287 -1.33235 0
M  V30 5512 C 493.911 2.22332 -2.66807 0
M  V30 5513 C 492.865 1.97156 -3.79886 0
M  V30 5514 C 492.191 3.31506 -4.19533 0
M  V30 5515 C 493.491 1.30596 -5.05709 0
M  V30 5516 H 495.185 0.476179 -2.95589 0
M  V30 5517 H 492.731 0.227602 -1.4219 0
M  V30 5518 H 494.684 2.91142 -3.04654 0
M  V30 5519 H 493.408 2.7119 -1.81999 0
M  V30 5520 H 492.067 1.30763 -3.42486 0
M  V30 5521 H 491.715 3.78134 -3.31698 0
M  V30 5522 H 491.415 3.15465 -4.95738 0
M  V30 5523 H 492.939 4.01574 -4.59968 0
M  V30 5524 H 494.353 1.89416 -5.41105 0
M  V30 5525 H 492.75 1.24934 -5.86951 0
M  V30 5526 H 493.82 0.279742 -4.84092 0
M  V30 5527 N 495.163 1.55791 0.238111 0
M  V30 5528 C 496.095 1.87513 1.31802 0
M  V30 5529 C 497.108 0.762053 1.43863 0
M  V30 5530 O 498.297 1.04024 1.45056 0
M  V30 5531 C 495.397 2.05402 2.69561 0
M  V30 5532 C 494.57 3.3632 2.79656 0
M  V30 5533 C 493.629 3.43844 3.98319 0
M  V30 5534 O 492.655 4.16994 3.87433 0
M  V30 5535 N 493.857 2.73777 5.11885 0
M  V30 5536 H 496.622 2.80734 1.04922 0
M  V30 5537 H 494.183 1.56135 0.428196 0
M  V30 5538 H 496.175 2.07769 3.47296 0
M  V30 5539 H 494.745 1.18884 2.89111 0
M  V30 5540 H 493.965 3.46195 1.88528 0
M  V30 5541 H 495.253 4.22594 2.83358 0
M  V30 5542 H 494.651 2.14094 5.23622 0
M  V30 5543 H 493.208 2.81825 5.87723 0
M  V30 5544 N 496.642 -0.504142 1.49319 0
M  V30 5545 C 497.574 -1.62265 1.61872 0
M  V30 5546 C 498.587 -1.54881 0.501573 0
M  V30 5547 O 499.776 -1.6087 0.773497 0
M  V30 5548 C 496.876 -3.01042 1.55651 0
M  V30 5549 C 496.049 -3.33642 2.82845 0
M  V30 5550 C 495.108 -4.51816 2.69719 0
M  V30 5551 O 494.134 -4.53755 3.4365 0
M  V30 5552 N 495.336 -5.51543 1.81055 0
M  V30 5553 H 498.101 -1.51924 2.58339 0
M  V30 5554 H 495.662 -0.691954 1.46368 0
M  V30 5555 H 497.654 -3.78013 1.44528 0
M  V30 5556 H 496.224 -3.05323 0.670546 0
M  V30 5557 H 495.444 -2.45598 3.08343 0
M  V30 5558 H 496.732 -3.5222 3.67177 0
M  V30 5559 H 496.13 -5.52774 1.20241 0
M  V30 5560 H 494.687 -6.27629 1.75856 0
M  V30 5561 N 498.12 -1.38341 -0.754957 0
M  V30 5562 C 499.067 -1.3546 -1.86867 0
M  V30 5563 C 500.037 -0.217369 -1.64672 0
M  V30 5564 O 501.222 -0.409383 -1.86356 0
M  V30 5565 C 498.362 -1.18413 -3.24149 0
M  V30 5566 C 497.475 -2.41511 -3.58185 0
M  V30 5567 C 496.61 -2.17205 -4.84763 0
M  V30 5568 C 495.649 -3.36081 -5.11582 0
M  V30 5569 N 494.786 -3.11219 -6.29354 0
M  V30 5570 H 499.626 -2.30672 -1.88664 0
M  V30 5571 H 497.163 -1.14607 -0.922154 0
M  V30 5572 H 499.121 -1.06545 -4.03366 0
M  V30 5573 H 497.751 -0.268397 -3.21682 0
M  V30 5574 H 496.803 -2.64056 -2.73822 0
M  V30 5575 H 498.115 -3.30115 -3.73932 0
M  V30 5576 H 497.269 -2.02465 -5.7192 0
M  V30 5577 H 496.008 -1.25964 -4.71152 0
M  V30 5578 H 495.013 -3.51341 -4.22894 0
M  V30 5579 H 496.238 -4.28196 -5.27091 0
M  V30 5580 H 494.184 -2.22624 -6.17069 0
M  V30 5581 H 494.101 -3.93373 -6.45596 0
M  V30 5582 H 495.369 -3.00132 -7.19403 0
M  V30 5583 N 499.598 0.982988 -1.23187 0
M  V30 5584 C 500.508 2.10907 -1.02739 0
M  V30 5585 C 501.524 1.73979 0.0273188 0
M  V30 5586 O 502.7 2.00702 -0.16757 0
M  V30 5587 C 499.765 3.41142 -0.618304 0
M  V30 5588 C 498.826 3.92112 -1.74777 0
M  V30 5589 C 498.059 5.16131 -1.3581 0
M  V30 5590 O 498.282 5.6989 -0.241201 0
M  V30 5591 O 497.216 5.61103 -2.17824 0
M  V30 5592 H 501.042 2.31046 -1.97108 0
M  V30 5593 H 498.627 1.09284 -1.01869 0
M  V30 5594 H 500.509 4.19488 -0.400982 0
M  V30 5595 H 499.184 3.2234 0.296421 0
M  V30 5596 H 498.091 3.14895 -2.0197 0
M  V30 5597 H 499.424 4.15364 -2.64071 0
M  V30 5598 N 501.076 1.04316 1.18135 0
M  V30 5599 C 502.006 0.657299 2.24058 0
M  V30 5600 C 502.987 -0.340678 1.66654 0
M  V30 5601 O 504.172 -0.220223 1.92947 0
M  V30 5602 C 501.302 0.0220715 3.47293 0
M  V30 5603 C 500.256 0.943857 4.17463 0
M  V30 5604 C 499.582 0.172973 5.3442 0
M  V30 5605 C 500.882 2.26409 4.70677 0
M  V30 5606 H 502.576 1.5428 2.56589 0
M  V30 5607 H 500.122 0.743263 1.23335 0
M  V30 5608 H 502.075 -0.259607 4.206 0
M  V30 5609 H 500.799 -0.898323 3.14003 0
M  V30 5610 H 499.458 1.20996 3.46057 0
M  V30 5611 H 499.106 -0.749907 4.97379 0
M  V30 5612 H 498.806 0.787098 5.82304 0
M  V30 5613 H 500.33 -0.101628 6.10515 0
M  V30 5614 H 501.744 2.04294 5.35665 0
M  V30 5615 H 500.141 2.8314 5.29105 0
M  V30 5616 H 501.211 2.90883 3.87962 0
M  V30 5617 N 502.554 -1.34406 0.822964 0
M  V30 5618 C 503.486 -2.28305 0.202375 0
M  V30 5619 C 504.499 -1.5103 -0.60777 0
M  V30 5620 O 505.688 -1.73057 -0.437444 0
M  V30 5621 C 502.788 -3.30836 -0.734911 0
M  V30 5622 C 501.961 -4.37388 0.0324177 0
M  V30 5623 C 501.02 -5.1968 -0.825803 0
M  V30 5624 O 500.046 -5.68556 -0.270771 0
M  V30 5625 N 501.248 -5.39393 -2.14558 0
M  V30 5626 H 504.013 -2.82201 1.00909 0
M  V30 5627 H 501.574 -1.4693 0.67993 0
M  V30 5628 H 503.566 -3.82786 -1.31365 0
M  V30 5629 H 502.136 -2.77334 -1.44238 0
M  V30 5630 H 501.356 -3.86152 0.792469 0
M  V30 5631 H 502.644 -5.05702 0.560633 0
M  V30 5632 H 502.042 -5.01357 -2.62025 0
M  V30 5633 H 500.599 -5.94461 -2.67318 0
M  V30 5634 N 504.032 -0.577932 -1.46621 0
M  V30 5635 C 505.281 -0.0594281 -2.01612 0
M  V30 5636 C 505.594 1.30663 -1.45556 0
M  V30 5637 O 506.8 1.91621 -1.92337 0
M  V30 5638 C 505.256 -0.0556666 -3.59857 0
M  V30 5639 C 504.864 -1.41975 -4.24908 0
M  V30 5640 C 506.608 0.409143 -4.22524 0
M  V30 5641 C 504.515 -1.37397 -5.75218 0
M  V30 5642 H 503.445 -0.0184469 -0.753774 0
M  V30 5643 H 506.096 -0.728869 -1.68404 0
M  V30 5644 H 504.478 0.679843 -3.90121 0
M  V30 5645 H 505.652 -2.17461 -4.0626 0
M  V30 5646 H 503.967 -1.82419 -3.74316 0
M  V30 5647 H 506.564 0.46211 -5.32699 0
M  V30 5648 H 506.907 1.42565 -3.91128 0
M  V30 5649 H 507.44 -0.272152 -3.96868 0
M  V30 5650 H 504.179 -2.36714 -6.11267 0
M  V30 5651 H 503.699 -0.661239 -5.96144 0
M  V30 5652 H 505.378 -1.08484 -6.3784 0
M  V30 5653 N 505.51 1.54411 -0.315457 0
M  V30 5654 C 506.787 1.92562 0.343398 0
M  V30 5655 C 507.167 1.24423 1.70535 0
M  V30 5656 O 506.515 0.385051 2.25232 0
M  V30 5657 C 506.725 3.46168 0.443687 0
M  V30 5658 C 508.073 4.18659 0.707783 0
M  V30 5659 O 509.097 3.52281 0.52693 0
M  V30 5660 O 507.956 5.36198 1.05612 0
M  V30 5661 H 505.05 0.80379 0.194552 0
M  V30 5662 H 507.596 1.65738 -0.364577 0
M  V30 5663 H 506.368 3.8792 -0.513172 0
M  V30 5664 H 505.991 3.79073 1.19956 0
M  V30 5665 N 506.988 0.0434614 1.5754 0
M  V30 5666 C 508.213 -0.645358 1.97104 0
M  V30 5667 C 508.638 -1.64037 0.920521 0
M  V30 5668 O 507.996 -1.80922 -0.11708 0
M  V30 5669 C 508.044 -1.31547 3.35749 0
M  V30 5670 O 507.148 -2.43103 3.33129 0
M  V30 5671 H 506.489 -0.168403 0.64229 0
M  V30 5672 H 509.019 0.109573 2.04306 0
M  V30 5673 H 509.029 -1.66895 3.72304 0
M  V30 5674 H 507.704 -0.586205 4.11748 0
M  V30 5675 H 506.281 -2.0976 3.0831 0
M  V30 5676 N 508.466 -1.55915 -0.229846 0
M  V30 5677 C 509.396 -1.94754 -1.28815 0
M  V30 5678 C 510.377 -0.814657 -1.49323 0
M  V30 5679 O 511.562 -1.07631 -1.61645 0
M  V30 5680 C 508.692 -2.25705 -2.63959 0
M  V30 5681 C 507.646 -3.41406 -2.5812 0
M  V30 5682 C 506.972 -3.57941 -3.97218 0
M  V30 5683 C 508.272 -4.76616 -2.13623 0
M  V30 5684 H 509.966 -2.83404 -0.965547 0
M  V30 5685 H 507.512 -1.36353 -0.463028 0
M  V30 5686 H 509.465 -2.51467 -3.38146 0
M  V30 5687 H 508.189 -1.339 -2.9789 0
M  V30 5688 H 506.848 -3.1568 -1.86391 0
M  V30 5689 H 506.496 -2.63526 -4.28443 0
M  V30 5690 H 506.196 -4.35757 -3.94195 0
M  V30 5691 H 507.72 -3.86042 -4.73079 0
M  V30 5692 H 509.134 -5.01637 -2.77549 0
M  V30 5693 H 507.531 -5.57655 -2.21677 0
M  V30 5694 H 508.601 -4.7253 -1.08829 0
M  V30 5695 N 509.944 0.496216 -1.49584 0
M  V30 5696 C 510.874 1.60576 -1.69521 0
M  V30 5697 C 511.855 1.61169 -0.543933 0
M  V30 5698 O 513.04 1.77834 -0.78031 0
M  V30 5699 C 510.17 2.99038 -1.76616 0
M  V30 5700 C 509.124 3.13312 -2.91581 0
M  V30 5701 C 508.45 4.53172 -2.83794 0
M  V30 5702 C 509.75 2.92886 -4.32452 0
M  V30 5703 H 511.444 1.44146 -2.62416 0
M  V30 5704 H 508.99 0.692024 -1.26282 0
M  V30 5705 H 510.943 3.76564 -1.8915 0
M  V30 5706 H 509.667 3.16568 -0.80324 0
M  V30 5707 H 508.326 2.38213 -2.78658 0
M  V30 5708 H 507.974 4.67585 -1.854 0
M  V30 5709 H 507.674 4.63662 -3.60958 0
M  V30 5710 H 509.198 5.32752 -2.98342 0
M  V30 5711 H 510.612 3.60178 -4.46032 0
M  V30 5712 H 509.009 3.14844 -5.10875 0
M  V30 5713 H 510.079 1.88966 -4.46565 0
M  V30 5714 N 511.423 1.38739 0.74761 0
M  V30 5715 C 512.355 1.32341 1.87132 0
M  V30 5716 C 513.368 0.234502 1.61102 0
M  V30 5717 O 514.557 0.492516 1.71571 0
M  V30 5718 C 511.657 1.02915 3.22896 0
M  V30 5719 C 510.83 2.22834 3.76383 0
M  V30 5720 C 509.889 1.90059 4.90677 0
M  V30 5721 O 508.915 2.62615 5.04997 0
M  V30 5722 N 510.117 0.859141 5.74107 0
M  V30 5723 H 512.882 2.29175 1.93129 0
M  V30 5724 H 510.443 1.32678 0.927805 0
M  V30 5725 H 512.435 0.79031 3.96908 0
M  V30 5726 H 511.005 0.148572 3.12247 0
M  V30 5727 H 510.225 2.62747 2.93867 0
M  V30 5728 H 511.513 3.02851 4.08851 0
M  V30 5729 H 510.911 0.257564 5.65113 0
M  V30 5730 H 509.468 0.680189 6.48241 0
M  V30 5731 N 512.901 -0.976442 1.23707 0
M  V30 5732 C 513.833 -2.07212 0.979574 0
M  V30 5733 C 514.846 -1.6273 -0.0478528 0
M  V30 5734 O 516.035 -1.77506 0.18815 0
M  V30 5735 C 513.135 -3.35835 0.45479 0
M  V30 5736 C 512.308 -4.09268 1.54331 0
M  V30 5737 C 511.367 -5.16166 1.02271 0
M  V30 5738 O 510.393 -5.42827 1.71254 0
M  V30 5739 N 511.595 -5.80313 -0.147419 0
M  V30 5740 H 514.36 -2.29878 1.92292 0
M  V30 5741 H 511.921 -1.14343 1.14618 0
M  V30 5742 H 513.913 -4.04597 0.0914631 0
M  V30 5743 H 512.483 -3.10106 -0.394068 0
M  V30 5744 H 511.703 -3.34906 2.07923 0
M  V30 5745 H 512.991 -4.55095 2.27522 0
M  V30 5746 H 512.389 -5.61043 -0.724353 0
M  V30 5747 H 510.946 -6.50231 -0.451972 0
M  V30 5748 N 514.379 -1.04941 -1.1758 0
M  V30 5749 C 515.289 -0.658826 -2.25159 0
M  V30 5750 C 516.305 0.318941 -1.71052 0
M  V30 5751 O 517.481 0.171669 -2.00667 0
M  V30 5752 C 514.546 -0.0369522 -3.4668 0
M  V30 5753 C 513.607 -1.06484 -4.15884 0
M  V30 5754 C 512.84 -0.472551 -5.31604 0
M  V30 5755 O 513.063 0.718736 -5.65854 0
M  V30 5756 O 511.997 -1.20557 -5.89703 0
M  V30 5757 H 515.823 -1.55533 -2.60851 0
M  V30 5758 H 513.408 -0.820819 -1.24832 0
M  V30 5759 H 515.29 0.308784 -4.20267 0
M  V30 5760 H 513.965 0.833238 -3.12792 0
M  V30 5761 H 512.872 -1.46253 -3.44327 0
M  V30 5762 H 514.205 -1.9061 -4.53794 0
M  V30 5763 N 515.857 1.33968 -0.830081 0
M  V30 5764 C 516.804 2.29387 -0.255008 0
M  V30 5765 C 517.774 1.53923 0.624243 0
M  V30 5766 O 518.959 1.82262 0.564372 0
M  V30 5767 C 516.099 3.4034 0.571209 0
M  V30 5768 C 515.212 4.30729 -0.331083 0
M  V30 5769 C 514.347 5.2879 0.505389 0
M  V30 5770 C 513.386 6.10819 -0.395843 0
M  V30 5771 N 512.523 7.00948 0.401979 0
M  V30 5772 H 517.363 2.77972 -1.07404 0
M  V30 5773 H 514.9 1.36785 -0.541133 0
M  V30 5774 H 516.858 4.03361 1.06562 0
M  V30 5775 H 515.488 2.9297 1.35529 0
M  V30 5776 H 514.54 3.68507 -0.943759 0
M  V30 5777 H 515.852 4.88181 -1.02377 0
M  V30 5778 H 515.006 5.97297 1.06399 0
M  V30 5779 H 513.745 4.71894 1.23155 0
M  V30 5780 H 512.75 5.41238 -0.966529 0
M  V30 5781 H 513.975 6.69797 -1.12023 0
M  V30 5782 H 511.921 6.46512 1.11168 0
M  V30 5783 H 511.838 7.55643 -0.232167 0
M  V30 5784 H 513.106 7.73774 0.943102 0
M  V30 5785 N 517.335 0.585699 1.46312 0
M  V30 5786 C 518.245 -0.148236 2.34131 0
M  V30 5787 C 519.261 -0.882972 1.49932 0
M  V30 5788 O 520.437 -0.845484 1.82794 0
M  V30 5789 C 517.502 -1.14714 3.27172 0
M  V30 5790 C 516.563 -0.416746 4.27272 0
M  V30 5791 C 515.796 -1.36806 5.15868 0
M  V30 5792 O 516.019 -2.60475 5.07454 0
M  V30 5793 O 514.953 -0.877018 5.95476 0
M  V30 5794 H 518.779 0.572882 2.98248 0
M  V30 5795 H 516.364 0.346082 1.45336 0
M  V30 5796 H 518.246 -1.72303 3.84564 0
M  V30 5797 H 516.921 -1.84967 2.65648 0
M  V30 5798 H 515.828 0.201061 3.73559 0
M  V30 5799 H 517.161 0.244872 4.9159 0
M  V30 5800 N 518.813 -1.54241 0.323641 0
M  V30 5801 C 519.743 -2.27289 -0.534993 0
M  V30 5802 C 520.724 -1.28087 -1.11927 0
M  V30 5803 O 521.909 -1.56899 -1.14439 0
M  V30 5804 C 519.039 -3.03075 -1.69596 0
M  V30 5805 C 517.993 -4.09614 -1.24098 0
M  V30 5806 C 517.319 -4.73242 -2.4889 0
M  V30 5807 C 518.619 -5.21087 -0.355789 0
M  V30 5808 H 520.313 -2.99308 0.0743257 0
M  V30 5809 H 517.859 -1.43952 0.0371874 0
M  V30 5810 H 519.812 -3.52907 -2.30293 0
M  V30 5811 H 518.536 -2.28673 -2.33187 0
M  V30 5812 H 517.195 -3.60666 -0.656945 0
M  V30 5813 H 516.843 -3.95455 -3.10845 0
M  V30 5814 H 516.543 -5.45209 -2.19138 0
M  V30 5815 H 518.067 -5.25848 -3.10348 0
M  V30 5816 H 519.481 -5.66675 -0.869042 0
M  V30 5817 H 517.878 -5.9991 -0.151045 0
M  V30 5818 H 518.948 -4.81005 0.613339 0
M  V30 5819 N 520.291 -0.0518155 -1.57515 0
M  V30 5820 C 521.516 0.634896 -1.97443 0
M  V30 5821 C 521.941 1.63546 -0.929207 0
M  V30 5822 O 521.299 1.80981 0.107484 0
M  V30 5823 C 521.347 1.29765 -3.36442 0
M  V30 5824 O 520.451 2.41333 -3.34413 0
M  V30 5825 H 519.792 0.164994 -0.643174 0
M  V30 5826 H 522.322 -0.120407 -2.04245 0
M  V30 5827 H 522.332 1.64918 -3.73184 0
M  V30 5828 H 521.007 0.564361 -4.12053 0
M  V30 5829 H 519.584 2.08122 -3.09418 0
M  V30 5830 N 521.769 1.56035 0.221574 0
M  V30 5831 C 522.994 1.83476 0.967026 0
M  V30 5832 C 523.419 0.632139 1.7716 0
M  V30 5833 O 522.777 -0.419082 1.7639 0
M  V30 5834 C 522.825 3.08907 1.86034 0
M  V30 5835 O 521.929 2.876 2.95567 0
M  V30 5836 H 521.27 0.604913 0.273817 0
M  V30 5837 H 523.8 2.03247 0.234893 0
M  V30 5838 H 523.81 3.3901 2.27016 0
M  V30 5839 H 522.485 3.96068 1.26898 0
M  V30 5840 H 521.062 2.6873 2.58532 0
M  V30 5841 N 523.247 -0.488276 1.49845 0
M  V30 5842 C 524.472 -1.26997 1.63971 0
M  V30 5843 C 524.897 -1.85427 0.315994 0
M  V30 5844 O 524.255 -1.66475 -0.718032 0
M  V30 5845 C 524.303 -2.36689 2.72049 0
M  V30 5846 O 523.407 -3.40882 2.32107 0
M  V30 5847 H 522.748 -0.374376 0.548396 0
M  V30 5848 H 525.278 -0.583104 1.96115 0
M  V30 5849 H 525.288 -2.82262 2.94605 0
M  V30 5850 H 523.963 -1.93529 3.68129 0
M  V30 5851 H 522.54 -3.01139 2.19931 0
M  V30 5852 N 524.725 -1.39134 -0.740242 0
M  V30 5853 C 525.655 -1.40165 -1.86751 0
M  V30 5854 C 526.636 -0.265708 -1.68012 0
M  V30 5855 O 527.821 -0.47076 -1.88408 0
M  V30 5856 C 524.951 -1.2392 -3.2444 0
M  V30 5857 C 523.905 -2.34858 -3.57807 0
M  V30 5858 C 523.231 -2.03707 -4.94376 0
M  V30 5859 C 524.531 -3.77159 -3.61315 0
M  V30 5860 H 526.225 -2.345 -1.86145 0
M  V30 5861 H 523.771 -1.12875 -0.89416 0
M  V30 5862 H 525.724 -1.23263 -4.02969 0
M  V30 5863 H 524.448 -0.26051 -3.25559 0
M  V30 5864 H 523.107 -2.34723 -2.81604 0
M  V30 5865 H 522.755 -1.04289 -4.9207 0
M  V30 5866 H 522.455 -2.78016 -5.17669 0
M  V30 5867 H 523.979 -2.04691 -5.75268 0
M  V30 5868 H 525.393 -3.79252 -4.29931 0
M  V30 5869 H 523.79 -4.50784 -3.96124 0
M  V30 5870 H 524.86 -4.08513 -2.61238 0
M  V30 5871 N 526.204 0.969867 -1.24223 0
M  V30 5872 C 527.154 2.04913 -0.999732 0
M  V30 5873 C 528.138 1.60795 0.0580636 0
M  V30 5874 O 529.33 1.76317 -0.155392 0
M  V30 5875 C 526.459 3.37942 -0.604154 0
M  V30 5876 C 525.545 3.88628 -1.69791 0
M  V30 5877 N 525.936 4.12274 -2.93025 0
M  V30 5878 C 524.234 4.17268 -1.57492 0
M  V30 5879 C 524.935 4.53808 -3.63914 0
M  V30 5880 N 523.911 4.58855 -2.91468 0
M  V30 5881 H 527.713 2.21168 -1.93551 0
M  V30 5882 H 525.227 1.15349 -1.14317 0
M  V30 5883 H 527.224 4.14863 -0.411665 0
M  V30 5884 H 525.884 3.23075 0.324465 0
M  V30 5885 H 526.895 3.99789 -3.29225 0
M  V30 5886 H 523.572 4.11346 -0.714175 0
M  V30 5887 H 524.962 4.80534 -4.69614 0
M  V30 5888 N 527.682 1.05563 1.17022 0
M  V30 5889 C 528.614 0.617888 2.20714 0
M  V30 5890 C 529.627 -0.320303 1.59618 0
M  V30 5891 O 530.816 -0.112449 1.78145 0
M  V30 5892 C 527.916 -0.115333 3.38704 0
M  V30 5893 C 527.089 0.834493 4.29366 0
M  V30 5894 C 526.148 0.141855 5.26009 0
M  V30 5895 O 525.174 0.777151 5.6387 0
M  V30 5896 N 526.376 -1.11934 5.69606 0
M  V30 5897 H 529.141 1.50981 2.58892 0
M  V30 5898 H 526.702 0.938008 1.31958 0
M  V30 5899 H 528.694 -0.588918 4.00392 0
M  V30 5900 H 527.264 -0.908967 2.99093 0
M  V30 5901 H 526.484 1.48762 3.65053 0
M  V30 5902 H 527.772 1.4791 4.86827 0
M  V30 5903 H 527.17 -1.65574 5.40927 0
M  V30 5904 H 525.727 -1.53692 6.33421 0
M  V30 5905 N 529.16 -1.33526 0.837174 0
M  V30 5906 C 530.107 -2.29248 0.267169 0
M  V30 5907 C 531.077 -1.54252 -0.616071 0
M  V30 5908 O 532.262 -1.82559 -0.554699 0
M  V30 5909 C 529.402 -3.40638 -0.553152 0
M  V30 5910 C 528.515 -4.30548 0.353921 0
M  V30 5911 C 527.65 -5.29051 -0.477339 0
M  V30 5912 C 526.689 -6.106 0.42823 0
M  V30 5913 N 525.826 -7.01152 -0.364801 0
M  V30 5914 H 530.666 -2.77398 1.08877 0
M  V30 5915 H 528.203 -1.36496 0.54838 0
M  V30 5916 H 530.161 -4.03921 -1.04422 0
M  V30 5917 H 528.791 -2.93685 -1.33973 0
M  V30 5918 H 527.843 -3.68001 0.963289 0
M  V30 5919 H 529.155 -4.87631 1.04964 0
M  V30 5920 H 528.309 -5.97853 -1.0323 0
M  V30 5921 H 527.048 -4.72541 -1.2065 0
M  V30 5922 H 526.053 -5.40718 0.995219 0
M  V30 5923 H 527.278 -6.69193 1.15573 0
M  V30 5924 H 525.224 -6.47092 -1.07738 0
M  V30 5925 H 525.141 -7.5551 0.272238 0
M  V30 5926 H 526.409 -7.74263 -0.902054 0
M  V30 5927 N 530.638 -0.59345 -1.46 0
M  V30 5928 C 531.568 0.121192 -2.33185 0
M  V30 5929 C 532.549 0.872977 -1.4599 0
M  V30 5930 O 533.734 0.846321 -1.74789 0
M  V30 5931 C 530.864 1.12844 -3.28456 0
M  V30 5932 C 529.818 0.4908 -4.25177 0
M  V30 5933 C 529.144 1.60529 -5.10034 0
M  V30 5934 C 530.444 -0.578949 -5.19081 0
M  V30 5935 H 532.138 -0.606767 -2.93187 0
M  V30 5936 H 529.684 -0.293242 -1.40983 0
M  V30 5937 H 531.637 1.63684 -3.88311 0
M  V30 5938 H 530.361 1.88681 -2.66584 0
M  V30 5939 H 529.02 0.00339328 -3.666 0
M  V30 5940 H 528.668 2.35359 -4.44539 0
M  V30 5941 H 528.368 1.18422 -5.75543 0
M  V30 5942 H 529.892 2.11623 -5.72755 0
M  V30 5943 H 531.306 -0.155199 -5.7309 0
M  V30 5944 H 529.703 -0.920947 -5.92991 0
M  V30 5945 H 530.773 -1.46109 -4.62364 0
M  V30 5946 N 532.116 1.54067 -0.331816 0
M  V30 5947 C 533.356 2.02625 0.26876 0
M  V30 5948 C 533.72 1.21462 1.48697 0
M  V30 5949 O 534.921 1.59863 2.16096 0
M  V30 5950 C 533.192 3.52554 0.586577 0
M  V30 5951 S 534.751 4.23035 1.16563 0
M  V30 5952 H 531.569 0.706395 0.0807862 0
M  V30 5953 H 534.171 1.89844 -0.466856 0
M  V30 5954 H 532.875 4.09242 -0.308046 0
M  V30 5955 H 532.406 3.69432 1.35217 0
M  V30 5956 H 534.421 4.31382 2.45203 0
M  V30 5957 N 533.594 0.0601682 1.57485 0
M  V30 5958 C 534.819 -0.624416 1.97777 0
M  V30 5959 C 535.244 -1.63051 0.937867 0
M  V30 5960 O 534.602 -1.81036 -0.0978845 0
M  V30 5961 C 534.65 -1.27979 3.37126 0
M  V30 5962 O 533.754 -2.39556 3.35688 0
M  V30 5963 H 533.095 -0.161581 0.64404 0
M  V30 5964 H 535.625 0.131237 2.04179 0
M  V30 5965 H 535.635 -1.62937 3.74053 0
M  V30 5966 H 534.31 -0.542501 4.12347 0
M  V30 5967 H 532.887 -2.06478 3.10517 0
M  V30 5968 N 535.072 -1.5615 -0.213296 0
M  V30 5969 C 536.319 -1.79546 -0.936462 0
M  V30 5970 C 536.647 -0.630337 -1.84003 0
M  V30 5971 O 535.902 0.384883 -1.91878 0
M  V30 5972 C 536.201 -3.08772 -1.79985 0
M  V30 5973 C 535.867 -4.38532 -1.04882 0
M  V30 5974 C 534.529 -4.73787 -0.841393 0
M  V30 5975 C 536.881 -5.18609 -0.51907 0
M  V30 5976 C 534.209 -5.86627 -0.0924403 0
M  V30 5977 C 536.561 -6.32229 0.216581 0
M  V30 5978 C 535.225 -6.6608 0.435191 0
M  V30 5979 H 534.495 -0.657004 -0.342676 0
M  V30 5980 H 537.142 -1.9041 -0.204051 0
M  V30 5981 H 535.447 -2.93065 -2.60038 0
M  V30 5982 H 537.144 -3.24077 -2.36168 0
M  V30 5983 H 533.734 -4.10855 -1.22048 0
M  V30 5984 H 537.918 -4.91801 -0.666775 0
M  V30 5985 H 533.174 -6.11338 0.087081 0
M  V30 5986 H 537.348 -6.93503 0.634538 0
M  V30 5987 H 534.975 -7.5336 1.01746 0
M  V30 5988 N 536.55 0.480323 -1.50102 0
M  V30 5989 C 537.482 1.59669 -1.64433 0
M  V30 5990 C 538.495 1.54063 -0.52615 0
M  V30 5991 O 539.684 1.59619 -0.798992 0
M  V30 5992 C 536.784 2.98527 -1.6042 0
M  V30 5993 C 535.957 3.291 -2.88117 0
M  V30 5994 C 535.016 4.47468 -2.76873 0
M  V30 5995 O 534.042 4.4823 -3.50825 0
M  V30 5996 N 535.244 5.48593 -1.89806 0
M  V30 5997 H 538.009 1.47795 -2.60723 0
M  V30 5998 H 535.57 0.66858 -1.4745 0
M  V30 5999 H 537.562 3.75666 -1.50523 0
M  V30 6000 H 536.132 3.04218 -0.719036 0
M  V30 6001 H 535.352 2.40662 -3.12211 0
M  V30 6002 H 536.64 3.46334 -3.72734 0
M  V30 6003 H 536.038 5.50791 -1.2902 0
M  V30 6004 H 534.595 6.24752 -1.85819 0
M  V30 6005 N 538.028 1.39524 0.732853 0
M  V30 6006 C 538.938 1.40695 1.87729 0
M  V30 6007 C 539.954 0.301496 1.71368 0
M  V30 6008 O 541.13 0.543313 1.93933 0
M  V30 6009 C 538.195 1.25098 3.23344 0
M  V30 6010 C 537.256 2.45634 3.52083 0
M  V30 6011 C 536.489 2.30772 4.81228 0
M  V30 6012 O 536.712 1.31233 5.55098 0
M  V30 6013 O 535.646 3.19799 5.09914 0
M  V30 6014 H 539.472 2.37168 1.89697 0
M  V30 6015 H 537.057 1.20663 0.880959 0
M  V30 6016 H 538.939 1.18541 4.04383 0
M  V30 6017 H 537.614 0.317209 3.22142 0
M  V30 6018 H 536.521 2.57767 2.71122 0
M  V30 6019 H 537.854 3.37712 3.58066 0
M  V30 6020 N 539.506 -0.963266 1.24736 0
M  V30 6021 C 540.416 -2.09246 1.06082 0
M  V30 6022 C 541.432 -1.74 0.000363101 0
M  V30 6023 O 542.608 -2.0041 0.199479 0
M  V30 6024 C 539.673 -3.40115 0.672498 0
M  V30 6025 C 538.734 -3.89282 1.80993 0
M  V30 6026 C 537.967 -5.13905 1.44004 0
M  V30 6027 O 538.19 -5.69434 0.331835 0
M  V30 6028 O 537.124 -5.57566 2.26723 0
M  V30 6029 H 540.95 -2.27881 2.00759 0
M  V30 6030 H 538.535 -1.07649 1.03595 0
M  V30 6031 H 540.417 -4.18797 0.467668 0
M  V30 6032 H 539.092 -3.22771 -0.245102 0
M  V30 6033 H 537.999 -3.11642 2.06955 0
M  V30 6034 H 539.332 -4.1111 2.70646 0
M  V30 6035 N 540.985 -1.06182 -1.16461 0
M  V30 6036 C 541.918 -0.615859 -2.19733 0
M  V30 6037 C 542.896 0.360766 -1.58547 0
M  V30 6038 O 544.08 0.270009 -1.86556 0
M  V30 6039 C 541.207 0.097312 -3.3856 0
M  V30 6040 C 540.253 -0.835889 -4.18229 0
M  V30 6041 S 541.086 -2.33052 -4.82128 0
M  V30 6042 C 542.242 -1.62881 -6.04335 0
M  V30 6043 H 542.475 -1.49079 -2.57221 0
M  V30 6044 H 540.008 -0.874692 -1.27234 0
M  V30 6045 H 541.966 0.502563 -4.07412 0
M  V30 6046 H 540.627 0.948418 -2.99439 0
M  V30 6047 H 539.82 -0.283426 -5.03202 0
M  V30 6048 H 539.422 -1.18097 -3.54865 0
M  V30 6049 H 541.714 -0.933764 -6.71034 0
M  V30 6050 H 542.657 -2.45641 -6.64128 0
M  V30 6051 H 543.065 -1.11189 -5.53441 0
M  V30 6052 N 542.463 1.3308 -0.844243 0
M  V30 6053 C 543.709 1.97898 -0.443206 0
M  V30 6054 C 544.042 1.66699 0.99625 0
M  V30 6055 O 543.317 0.949704 1.69738 0
M  V30 6056 C 543.6 3.53801 -0.670606 0
M  V30 6057 C 543.453 3.94667 -2.15772 0
M  V30 6058 C 544.772 4.39936 -0.120226 0
M  V30 6059 H 541.891 0.718861 -0.162504 0
M  V30 6060 H 544.533 1.57633 -1.06075 0
M  V30 6061 H 542.683 3.88229 -0.14496 0
M  V30 6062 H 544.355 3.70469 -2.74865 0
M  V30 6063 H 542.598 3.44203 -2.6402 0
M  V30 6064 H 543.269 5.03275 -2.26757 0
M  V30 6065 H 545.745 4.12183 -0.5696 0
M  V30 6066 H 544.621 5.4803 -0.308984 0
M  V30 6067 H 544.882 4.31184 0.976347 0
M  V30 6068 N 543.941 0.601185 1.45683 0
M  V30 6069 C 544.888 -0.121396 2.30481 0
M  V30 6070 C 545.858 -0.866232 1.41724 0
M  V30 6071 O 547.043 -0.85324 1.70659 0
M  V30 6072 C 544.183 -1.11704 3.26521 0
M  V30 6073 C 543.296 -0.373741 4.3038 0
M  V30 6074 C 542.431 -1.35854 5.13534 0
M  V30 6075 C 541.47 -0.602689 6.09126 0
M  V30 6076 N 540.607 -1.53645 6.85082 0
M  V30 6077 H 545.447 0.607732 2.91737 0
M  V30 6078 H 542.984 0.311502 1.43764 0
M  V30 6079 H 544.942 -1.70735 3.80664 0
M  V30 6080 H 543.572 -1.81366 2.67032 0
M  V30 6081 H 542.624 0.331962 3.78949 0
M  V30 6082 H 543.936 0.2163 4.98331 0
M  V30 6083 H 543.09 -2.02111 5.72046 0
M  V30 6084 H 541.829 -1.98251 4.45587 0
M  V30 6085 H 540.834 0.0735482 5.49751 0
M  V30 6086 H 542.059 0.0161467 6.79098 0
M  V30 6087 H 540.005 -2.14819 6.1983 0
M  V30 6088 H 539.922 -0.999688 7.49361 0
M  V30 6089 H 541.19 -2.1888 7.48139 0
M  V30 6090 N 545.419 -1.53889 0.339982 0
M  V30 6091 C 546.329 -2.28604 -0.526988 0
M  V30 6092 C 547.345 -1.33578 -1.11503 0
M  V30 6093 O 548.521 -1.66612 -1.13148 0
M  V30 6094 C 545.586 -3.04164 -1.66389 0
M  V30 6095 C 544.647 -4.14809 -1.10599 0
M  V30 6096 C 543.88 -4.86756 -2.18871 0
M  V30 6097 O 544.103 -4.58343 -3.39526 0
M  V30 6098 O 543.037 -5.73289 -1.83366 0
M  V30 6099 H 546.863 -3.03594 0.0802707 0
M  V30 6100 H 544.448 -1.4903 0.105141 0
M  V30 6101 H 546.33 -3.51427 -2.32544 0
M  V30 6102 H 545.005 -2.32035 -2.25703 0
M  V30 6103 H 543.912 -3.71857 -0.409067 0
M  V30 6104 H 545.245 -4.89029 -0.557771 0
M  V30 6105 N 546.897 -0.0685191 -1.57451 0
M  V30 6106 C 547.844 0.899861 -2.12535 0
M  V30 6107 C 548.814 1.29749 -1.03703 0
M  V30 6108 O 549.999 1.38392 -1.31348 0
M  V30 6109 C 547.139 2.16328 -2.6888 0
M  V30 6110 C 546.252 1.81857 -3.91857 0
M  V30 6111 C 545.387 3.02786 -4.36457 0
M  V30 6112 C 544.426 2.64317 -5.5209 0
M  V30 6113 N 543.563 3.77994 -5.91663 0
M  V30 6114 H 548.403 0.423243 -2.94979 0
M  V30 6115 H 545.94 0.197268 -1.45771 0
M  V30 6116 H 547.898 2.90281 -2.99655 0
M  V30 6117 H 546.528 2.61536 -1.89206 0
M  V30 6118 H 545.58 0.979808 -3.67565 0
M  V30 6119 H 546.892 1.49553 -4.75852 0
M  V30 6120 H 546.046 3.85021 -4.68875 0
M  V30 6121 H 544.785 3.38281 -3.51308 0
M  V30 6122 H 543.79 1.80503 -5.19325 0
M  V30 6123 H 545.015 2.29995 -6.38967 0
M  V30 6124 H 542.961 4.13258 -5.09464 0
M  V30 6125 H 542.878 3.49447 -6.7039 0
M  V30 6126 H 544.146 4.60818 -6.28703 0
M  V30 6127 N 548.375 1.56261 0.205012 0
M  V30 6128 C 549.323 1.94631 1.27364 0
M  V30 6129 C 550.317 0.830434 1.47649 0
M  V30 6130 O 551.523 1.01538 1.48627 0
M  V30 6131 H 547.898 0.618755 0.427371 0
M  V30 6132 H 549.869 2.83768 0.922941 0
M  V30 6133 C 548.618 2.29358 2.61324 0
M  V30 6134 H 547.941 3.14744 2.46528 0
M  V30 6135 H 549.381 2.60076 3.34868 0
M  V30 6136 C 547.84 1.12461 3.17575 0
M  V30 6137 O 548.37 0.394407 3.99759 0
M  V30 6138 N 546.576 0.904036 2.7618 0
M  V30 6139 H 546.123 1.49956 2.09454 0
M  V30 6140 H 546.081 0.123662 3.14157 0
M  V30 6141 N 549.853 -0.472356 1.50355 0
M  V30 6142 C 550.783 -1.57859 1.72055 0
M  V30 6143 C 551.764 -1.60283 0.569505 0
M  V30 6144 O 552.949 -1.7657 0.808503 0
M  V30 6145 C 550.079 -2.96191 1.81351 0
M  V30 6146 C 549.033 -3.08633 2.96529 0
M  V30 6147 C 548.359 -4.486 2.90968 0
M  V30 6148 C 549.659 -2.85969 4.37057 0
M  V30 6149 H 551.353 -1.39953 2.64676 0
M  V30 6150 H 548.899 -0.671846 1.27367 0
M  V30 6151 H 550.852 -3.73507 1.95117 0
M  V30 6152 H 549.576 -3.15251 0.853502 0
M  V30 6153 H 548.235 -2.33749 2.82413 0
M  V30 6154 H 547.883 -4.64577 1.92815 0
M  V30 6155 H 547.583 -4.57861 3.68289 0
M  V30 6156 H 549.107 -5.27938 3.0678 0
M  V30 6157 H 550.521 -3.53036 4.51706 0
M  V30 6158 H 548.918 -3.06677 5.15819 0
M  V30 6159 H 549.988 -1.81838 4.49514 0
M  V30 6160 N 551.331 -1.39911 -0.725443 0
M  V30 6161 C 552.578 -1.37654 -1.48518 0
M  V30 6162 C 552.906 0.0243982 -1.94485 0
M  V30 6163 O 552.161 1.00708 -1.67799 0
M  V30 6164 C 552.46 -2.30368 -2.7325 0
M  V30 6165 C 552.126 -3.77817 -2.461 0
M  V30 6166 C 550.788 -4.17991 -2.38405 0
M  V30 6167 C 553.14 -4.71036 -2.23103 0
M  V30 6168 C 550.468 -5.49433 -2.05768 0
M  V30 6169 C 552.82 -6.02766 -1.9198 0
M  V30 6170 C 551.484 -6.41993 -1.82761 0
M  V30 6171 H 550.754 -0.503713 -0.543465 0
M  V30 6172 H 553.401 -1.7249 -0.831822 0
M  V30 6173 H 551.706 -1.88683 -3.43375 0
M  V30 6174 H 553.403 -2.2591 -3.31309 0
M  V30 6175 H 549.993 -3.45982 -2.52972 0
M  V30 6176 H 554.177 -4.40823 -2.2801 0
M  V30 6177 H 549.433 -5.78738 -1.9716 0
M  V30 6178 H 553.607 -6.74519 -1.73197 0
M  V30 6179 H 551.234 -7.43761 -1.57237 0
M  V30 6180 N 552.809 0.956637 -1.25245 0
M  V30 6181 C 553.719 2.0868 -1.0719 0
M  V30 6182 C 554.735 1.73997 -0.00959074 0
M  V30 6183 O 555.911 2.00301 -0.210104 0
M  V30 6184 C 552.976 3.39754 -0.690526 0
M  V30 6185 C 552.037 3.88316 -1.83055 0
M  V30 6186 C 551.27 5.13134 -1.46728 0
M  V30 6187 O 551.493 5.6925 -0.362029 0
M  V30 6188 O 550.427 5.56356 -2.29677 0
M  V30 6189 H 554.253 2.26813 -2.01965 0
M  V30 6190 H 551.838 1.07098 -1.04165 0
M  V30 6191 H 553.72 4.18543 -0.489871 0
M  V30 6192 H 552.395 3.22896 0.227981 0
M  V30 6193 H 551.302 3.1054 -2.08604 0
M  V30 6194 H 552.635 4.09669 -2.72822 0
M  V30 6195 N 554.287 1.06798 1.15896 0
M  V30 6196 C 555.197 0.694564 2.24083 0
M  V30 6197 C 556.213 -0.291687 1.71538 0
M  V30 6198 O 557.389 -0.139723 2.00915 0
M  V30 6199 C 554.454 0.0921014 3.46578 0
M  V30 6200 C 553.515 1.13087 4.14137 0
M  V30 6201 C 552.748 0.557064 5.30785 0
M  V30 6202 O 552.971 -0.628623 5.66925 0
M  V30 6203 O 551.905 1.29924 5.8771 0
M  V30 6204 H 555.731 1.59663 2.58344 0
M  V30 6205 H 553.316 0.840575 1.2351 0
M  V30 6206 H 555.198 -0.241884 4.20705 0
M  V30 6207 H 553.873 -0.78337 3.14078 0
M  V30 6208 H 552.78 1.51712 3.41957 0
M  V30 6209 H 554.113 1.97805 4.50704 0
M  V30 6210 N 555.766 -1.3263 0.851289 0
M  V30 6211 C 556.676 -2.32722 0.296268 0
M  V30 6212 C 557.692 -1.63901 -0.584162 0
M  V30 6213 O 558.868 -1.95465 -0.485334 0
M  V30 6214 C 555.933 -3.42942 -0.509103 0
M  V30 6215 C 554.994 -4.2746 0.397069 0
M  V30 6216 C 554.227 -5.32416 -0.36996 0
M  V30 6217 O 554.45 -5.47491 -1.6003 0
M  V30 6218 O 553.384 -6.01327 0.262493 0
M  V30 6219 H 557.21 -2.82078 1.12543 0
M  V30 6220 H 554.795 -1.36194 0.614135 0
M  V30 6221 H 556.677 -4.1017 -0.96634 0
M  V30 6222 H 555.352 -2.95781 -1.31512 0
M  V30 6223 H 554.259 -3.63053 0.902411 0
M  V30 6224 H 555.592 -4.78136 1.16818 0
M  V30 6225 N 557.244 -0.608902 -1.45362 0
M  V30 6226 C 558.174 0.0964526 -2.33301 0
M  V30 6227 C 559.155 0.857444 -1.46908 0
M  V30 6228 O 560.34 0.827735 -1.75676 0
M  V30 6229 C 557.47 1.09354 -3.29635 0
M  V30 6230 C 556.424 0.445676 -4.25673 0
M  V30 6231 C 555.75 1.5511 -5.11708 0
M  V30 6232 C 557.05 -0.633972 -5.18438 0
M  V30 6233 H 558.744 -0.637829 -2.92527 0
M  V30 6234 H 556.29 -0.308178 -1.40664 0
M  V30 6235 H 558.243 1.59556 -3.90025 0
M  V30 6236 H 556.967 1.85843 -2.6857 0
M  V30 6237 H 555.626 -0.0354897 -3.66583 0
M  V30 6238 H 555.274 2.30631 -4.4701 0
M  V30 6239 H 554.974 1.12311 -5.76767 0
M  V30 6240 H 556.498 2.05537 -5.74967 0
M  V30 6241 H 557.912 -0.215974 -5.72893 0
M  V30 6242 H 556.309 -0.983789 -5.91981 0
M  V30 6243 H 557.379 -1.51005 -4.60788 0
M  V30 6244 N 558.722 1.53707 -0.348139 0
M  V30 6245 C 559.669 2.25173 0.506518 0
M  V30 6246 C 560.639 1.25174 1.09182 0
M  V30 6247 O 561.824 1.53917 1.12757 0
M  V30 6248 C 558.964 3.03141 1.64923 0
M  V30 6249 C 558.077 4.18002 1.0908 0
M  V30 6250 C 557.212 4.83447 2.20119 0
M  V30 6251 C 556.251 5.90369 1.61651 0
M  V30 6252 N 555.388 6.49575 2.66451 0
M  V30 6253 H 560.228 2.97799 -0.109452 0
M  V30 6254 H 557.765 1.46953 -0.0657866 0
M  V30 6255 H 559.723 3.46607 2.32205 0
M  V30 6256 H 558.353 2.32803 2.23612 0
M  V30 6257 H 557.405 3.79145 0.308783 0
M  V30 6258 H 558.717 4.94892 0.623178 0
M  V30 6259 H 557.871 5.30008 2.95257 0
M  V30 6260 H 556.61 4.05991 2.70227 0
M  V30 6261 H 555.615 5.43186 0.850209 0
M  V30 6262 H 556.84 6.69735 1.1239 0
M  V30 6263 H 554.786 5.74981 3.15805 0
M  V30 6264 H 554.703 7.21952 2.24325 0
M  V30 6265 H 555.971 7.00789 3.41344 0
M  V30 6266 N 560.2 0.0768682 1.57412 0
M  V30 6267 C 561.132 -0.918248 2.10002 0
M  V30 6268 C 562.145 -1.25808 1.03325 0
M  V30 6269 O 563.334 -1.21438 1.30824 0
M  V30 6270 C 560.434 -2.23263 2.54964 0
M  V30 6271 C 559.607 -2.07088 3.8527 0
M  V30 6272 C 558.666 -3.21876 4.16272 0
M  V30 6273 O 557.692 -2.96643 4.8579 0
M  V30 6274 N 558.894 -4.4712 3.70221 0
M  V30 6275 H 561.659 -0.469209 2.96004 0
M  V30 6276 H 559.22 -0.108725 1.61535 0
M  V30 6277 H 561.212 -2.9897 2.72762 0
M  V30 6278 H 559.782 -2.59649 1.74072 0
M  V30 6279 H 559.002 -1.15818 3.76802 0
M  V30 6280 H 560.29 -1.93537 4.70554 0
M  V30 6281 H 559.688 -4.70506 3.1407 0
M  V30 6282 H 558.245 -5.19837 3.93209 0
M  V30 6283 N 561.678 -1.56367 -0.196722 0
M  V30 6284 C 562.906 -1.84639 -0.933608 0
M  V30 6285 C 563.321 -0.659164 -1.76919 0
M  V30 6286 O 562.678 0.372142 -1.78665 0
M  V30 6287 C 562.729 -3.11694 -1.83109 0
M  V30 6288 O 562.45 -4.25838 -1.02924 0
M  V30 6289 C 563.951 -3.53132 -2.67979 0
M  V30 6290 H 561.171 -0.613188 -0.272473 0
M  V30 6291 H 563.715 -2.03475 -0.204465 0
M  V30 6292 H 561.87 -2.94759 -2.51387 0
M  V30 6293 H 562.284 -4.98178 -1.64069 0
M  V30 6294 H 563.758 -4.45005 -3.26611 0
M  V30 6295 H 564.235 -2.76045 -3.41608 0
M  V30 6296 H 564.841 -3.72592 -2.05074 0
M  V30 6297 N 563.156 0.464375 -1.50603 0
M  V30 6298 C 564.086 1.56944 -1.72889 0
M  V30 6299 C 565.067 1.59979 -0.577997 0
M  V30 6300 O 566.252 1.76138 -0.817855 0
M  V30 6301 C 563.382 2.95225 -1.8292 0
M  V30 6302 C 562.336 3.07056 -2.98162 0
M  V30 6303 C 561.662 4.47051 -2.93343 0
M  V30 6304 C 562.962 2.83648 -4.38567 0
M  V30 6305 H 564.656 1.38547 -2.65415 0
M  V30 6306 H 562.202 0.665082 -1.27721 0
M  V30 6307 H 564.155 3.72467 -1.97095 0
M  V30 6308 H 562.879 3.14793 -0.870209 0
M  V30 6309 H 561.538 2.32248 -2.83648 0
M  V30 6310 H 561.186 4.63547 -1.95276 0
M  V30 6311 H 560.886 4.55902 -3.70712 0
M  V30 6312 H 562.41 5.26304 -3.09575 0
M  V30 6313 H 563.824 3.50636 -4.53572 0
M  V30 6314 H 562.221 3.03937 -5.17438 0
M  V30 6315 H 563.291 1.79451 -4.50472 0
M  V30 6316 N 564.634 1.40294 0.718013 0
M  V30 6317 C 565.911 1.2894 1.47084 0
M  V30 6318 C 566.291 -0.0933625 2.10893 0
M  V30 6319 O 565.639 -1.10598 1.99951 0
M  V30 6320 C 565.849 2.4264 2.50852 0
M  V30 6321 C 567.197 2.8276 3.16752 0
M  V30 6322 O 568.221 2.42215 2.61171 0
M  V30 6323 O 567.08 3.528 4.17366 0
M  V30 6324 H 564.174 0.506236 0.653952 0
M  V30 6325 H 566.72 1.52208 0.750394 0
M  V30 6326 H 565.492 3.35009 2.022 0
M  V30 6327 H 565.115 2.21129 3.30435 0
M  V30 6328 N 566.112 -0.949982 1.2575 0
M  V30 6329 C 567.022 -2.08109 1.08295 0
M  V30 6330 C 568.038 -1.7399 0.0188181 0
M  V30 6331 O 569.214 -2.00187 0.220724 0
M  V30 6332 C 566.279 -3.39383 0.708534 0
M  V30 6333 C 565.34 -3.8734 1.85111 0
M  V30 6334 C 564.573 -5.12349 1.49447 0
M  V30 6335 O 564.796 -5.6905 0.392212 0
M  V30 6336 O 563.73 -5.5513 2.32624 0
M  V30 6337 H 567.556 -2.25738 2.03165 0
M  V30 6338 H 565.141 -1.06545 1.04731 0
M  V30 6339 H 567.023 -4.18277 0.512061 0
M  V30 6340 H 565.698 -3.23013 -0.210854 0
M  V30 6341 H 564.605 -3.09429 2.10248 0
M  V30 6342 H 565.938 -4.08216 2.74991 0
M  V30 6343 N 567.59 -1.07411 -1.15328 0
M  V30 6344 C 568.52 -0.716472 -2.22236 0
M  V30 6345 C 569.501 0.296373 -1.67498 0
M  V30 6346 O 570.686 0.168989 -1.93463 0
M  V30 6347 C 567.816 -0.114142 -3.47112 0
M  V30 6348 C 566.77 -1.05421 -4.14814 0
M  V30 6349 C 566.096 -0.314604 -5.33774 0
M  V30 6350 C 567.396 -2.38808 -4.64508 0
M  V30 6351 H 569.09 -1.61029 -2.52408 0
M  V30 6352 H 566.636 -0.775702 -1.21321 0
M  V30 6353 H 568.589 0.148001 -4.2114 0
M  V30 6354 H 567.313 0.814755 -3.16274 0
M  V30 6355 H 565.972 -1.30128 -3.42728 0
M  V30 6356 H 565.62 0.617772 -4.99192 0
M  V30 6357 H 565.32 -0.941209 -5.80013 0
M  V30 6358 H 566.844 -0.0602747 -6.1057 0
M  V30 6359 H 568.258 -2.18424 -5.3006 0
M  V30 6360 H 566.655 -2.97069 -5.21412 0
M  V30 6361 H 567.725 -3.01067 -3.80114 0
M  V30 6362 N 569.068 1.32177 -0.85831 0
M  V30 6363 C 570.345 1.91781 -0.384624 0
M  V30 6364 C 570.725 1.78171 1.13217 0
M  V30 6365 O 570.073 1.18209 1.95548 0
M  V30 6366 C 570.283 3.38414 -0.853047 0
M  V30 6367 C 571.631 4.15542 -0.872359 0
M  V30 6368 O 572.655 3.47148 -0.797926 0
M  V30 6369 O 571.514 5.37678 -0.978009 0
M  V30 6370 H 568.608 0.819259 -0.112886 0
M  V30 6371 H 571.154 1.40923 -0.945453 0
M  V30 6372 H 569.926 3.4228 -1.89632 0
M  V30 6373 H 569.549 3.96683 -0.269874 0
M  V30 6374 N 570.547 0.616602 1.45037 0
M  V30 6375 C 571.494 -0.0969439 2.30596 0
M  V30 6376 C 572.464 -0.851151 1.42635 0
M  V30 6377 O 573.649 -0.835092 1.71554 0
M  V30 6378 C 570.789 -1.08234 3.27688 0
M  V30 6379 C 569.902 -0.328072 4.30752 0
M  V30 6380 C 569.037 -1.30399 5.14946 0
M  V30 6381 C 568.076 -0.538049 6.09731 0
M  V30 6382 N 567.213 -1.46371 6.86673 0
M  V30 6383 H 572.053 0.63864 2.91076 0
M  V30 6384 H 569.59 0.326733 1.43425 0
M  V30 6385 H 571.548 -1.66688 3.82454 0
M  V30 6386 H 570.178 -1.78523 2.68941 0
M  V30 6387 H 569.23 0.372136 3.78575 0
M  V30 6388 H 570.542 0.269142 4.98073 0
M  V30 6389 H 569.696 -1.96032 5.74157 0
M  V30 6390 H 568.435 -1.93514 4.47665 0
M  V30 6391 H 567.44 0.131852 5.49642 0
M  V30 6392 H 568.665 0.0881732 6.79043 0
M  V30 6393 H 566.611 -2.08233 6.22073 0
M  V30 6394 H 566.528 -0.920152 7.50379 0
M  V30 6395 H 567.796 -2.10932 7.50418 0
M  V30 6396 N 572.025 -1.5352 0.356285 0
M  V30 6397 C 572.955 -2.28372 -0.486661 0
M  V30 6398 C 573.936 -1.30432 -1.09185 0
M  V30 6399 O 575.121 -1.59291 -1.11085 0
M  V30 6400 C 572.251 -3.06604 -1.63129 0
M  V30 6401 C 571.205 -4.12154 -1.15381 0
M  V30 6402 C 570.531 -4.78415 -2.38796 0
M  V30 6403 C 571.831 -5.21724 -0.245179 0
M  V30 6404 H 573.525 -2.99083 0.137797 0
M  V30 6405 H 571.071 -1.43841 0.0677134 0
M  V30 6406 H 573.024 -3.57712 -2.22755 0
M  V30 6407 H 571.748 -2.33568 -2.28284 0
M  V30 6408 H 570.407 -3.61978 -0.580294 0
M  V30 6409 H 570.055 -4.01959 -3.02387 0
M  V30 6410 H 569.755 -5.49734 -2.07524 0
M  V30 6411 H 571.279 -5.32313 -2.99125 0
M  V30 6412 H 572.693 -5.68391 -0.748646 0
M  V30 6413 H 571.09 -6.00095 -0.0237608 0
M  V30 6414 H 572.16 -4.79596 0.715229 0
M  V30 6415 N 573.503 -0.0852151 -1.57369 0
M  V30 6416 C 574.435 0.907099 -2.10486 0
M  V30 6417 C 575.448 1.25259 -1.03991 0
M  V30 6418 O 576.637 1.20743 -1.31467 0
M  V30 6419 C 573.737 2.21908 -2.56145 0
M  V30 6420 C 572.91 2.05042 -3.86363 0
M  V30 6421 C 571.969 3.19664 -4.17973 0
M  V30 6422 O 570.995 2.94062 -4.87356 0
M  V30 6423 N 572.197 4.45151 -3.72587 0
M  V30 6424 H 574.962 0.453505 -2.96249 0
M  V30 6425 H 572.523 0.100157 -1.6159 0
M  V30 6426 H 574.515 2.97519 -2.74343 0
M  V30 6427 H 573.085 2.58723 -1.75446 0
M  V30 6428 H 572.305 1.13819 -3.77411 0
M  V30 6429 H 573.593 1.91039 -4.71574 0
M  V30 6430 H 572.991 4.68834 -3.16561 0
M  V30 6431 H 571.548 5.17744 -3.9596 0
M  V30 6432 N 574.981 1.5647 0.188427 0
M  V30 6433 C 575.913 1.91611 1.25769 0
M  V30 6434 C 576.926 0.807436 1.41366 0
M  V30 6435 O 578.115 1.08586 1.41673 0
M  V30 6436 C 575.215 2.13874 2.6289 0
M  V30 6437 C 574.388 3.45047 2.68815 0
M  V30 6438 C 573.447 3.56342 3.87178 0
M  V30 6439 O 572.473 4.29109 3.73971 0
M  V30 6440 N 573.675 2.89924 5.02916 0
M  V30 6441 H 576.44 2.8393 0.959373 0
M  V30 6442 H 574.001 1.57418 0.378306 0
M  V30 6443 H 575.993 2.18713 3.4051 0
M  V30 6444 H 574.563 1.28022 2.85183 0
M  V30 6445 H 573.783 3.52017 1.77419 0
M  V30 6446 H 575.071 4.31395 2.6977 0
M  V30 6447 H 574.469 2.30644 5.16546 0
M  V30 6448 H 573.026 3.0038 5.78459 0
M  V30 6449 N 576.459 -0.456382 1.50847 0
M  V30 6450 C 577.406 -1.55249 1.70782 0
M  V30 6451 C 578.376 -1.56757 0.549231 0
M  V30 6452 O 579.561 -1.74061 0.7815 0
M  V30 6453 C 576.701 -2.93118 1.82143 0
M  V30 6454 C 575.814 -3.01285 3.09598 0
M  V30 6455 C 574.949 -4.30159 3.11667 0
M  V30 6456 C 573.988 -4.32124 4.33515 0
M  V30 6457 N 573.125 -5.52492 4.3324 0
M  V30 6458 H 577.965 -1.37555 2.64353 0
M  V30 6459 H 575.502 -0.668543 1.3103 0
M  V30 6460 H 577.46 -3.73088 1.86711 0
M  V30 6461 H 576.09 -3.09413 0.919978 0
M  V30 6462 H 575.142 -2.14096 3.14431 0
M  V30 6463 H 576.454 -2.98597 3.99551 0
M  V30 6464 H 575.608 -5.18489 3.15046 0
M  V30 6465 H 574.347 -4.35477 2.1957 0
M  V30 6466 H 573.352 -3.42189 4.30333 0
M  V30 6467 H 574.577 -4.28485 5.26856 0
M  V30 6468 H 572.523 -5.58567 3.44004 0
M  V30 6469 H 572.44 -5.51605 5.16979 0
M  V30 6470 H 573.708 -6.42906 4.40786 0
M  V30 6471 N 577.937 -1.40673 -0.710563 0
M  V30 6472 C 578.847 -1.43663 -1.85467 0
M  V30 6473 C 579.863 -0.328721 -1.70867 0
M  V30 6474 O 581.039 -0.574098 -1.93044 0
M  V30 6475 C 578.104 -1.30226 -3.21313 0
M  V30 6476 C 577.165 -2.51204 -3.48131 0
M  V30 6477 C 576.398 -2.38398 -4.77495 0
M  V30 6478 O 576.621 -1.40048 -5.5294 0
M  V30 6479 O 575.555 -3.2787 -5.04762 0
M  V30 6480 H 579.381 -2.40156 -1.859 0
M  V30 6481 H 576.966 -1.22049 -0.861652 0
M  V30 6482 H 578.848 -1.2496 -4.02446 0
M  V30 6483 H 577.523 -0.368419 -3.21597 0
M  V30 6484 H 576.43 -2.62048 -2.66987 0
M  V30 6485 H 577.763 -3.43366 -3.52648 0
M  V30 6486 N 579.415 0.9433 -1.26252 0
M  V30 6487 C 580.325 2.07532 -1.09397 0
M  V30 6488 C 581.341 1.73977 -0.0280449 0
M  V30 6489 O 582.517 2.00067 -0.231337 0
M  V30 6490 C 579.582 3.39002 -0.726523 0
M  V30 6491 C 578.643 3.86353 -1.87163 0
M  V30 6492 C 577.876 5.11549 -1.52162 0
M  V30 6493 O 578.099 5.68834 -0.422385 0
M  V30 6494 O 577.033 5.53889 -2.35565 0
M  V30 6495 H 580.859 2.24658 -2.04359 0
M  V30 6496 H 578.444 1.05988 -1.05295 0
M  V30 6497 H 580.326 4.18 -0.534236 0
M  V30 6498 H 579.001 3.2312 0.193721 0
M  V30 6499 H 577.908 3.0831 -2.11886 0
M  V30 6500 H 579.241 4.06752 -2.77152 0
M  V30 6501 N 580.893 1.08022 1.14757 0
M  V30 6502 C 581.825 0.664566 2.19354 0
M  V30 6503 C 582.838 -0.286374 1.60261 0
M  V30 6504 O 584.027 -0.0746362 1.78344 0
M  V30 6505 C 581.127 -0.0434634 3.38872 0
M  V30 6506 C 580.3 0.925381 4.27499 0
M  V30 6507 C 579.359 0.253398 5.2559 0
M  V30 6508 O 578.385 0.896581 5.62094 0
M  V30 6509 N 579.587 -0.998263 5.71852 0
M  V30 6510 H 582.352 1.56438 2.55631 0
M  V30 6511 H 579.913 0.965788 1.29939 0
M  V30 6512 H 581.905 -0.503857 4.01551 0
M  V30 6513 H 580.475 -0.845321 3.00954 0
M  V30 6514 H 579.695 1.56472 3.61815 0
M  V30 6515 H 580.983 1.58203 4.8358 0
M  V30 6516 H 580.381 -1.54063 5.44317 0
M  V30 6517 H 578.938 -1.40222 6.36538 0
M  V30 6518 N 582.371 -1.3172 0.865308 0
M  V30 6519 C 583.334 -2.26918 0.322627 0
M  V30 6520 C 584.334 -1.52031 -0.523751 0
M  V30 6521 O 585.524 -1.70973 -0.333727 0
M  V30 6522 C 582.656 -3.36558 -0.542338 0
M  V30 6523 H 583.849 -2.76432 1.16298 0
M  V30 6524 H 581.402 -1.42573 0.640512 0
M  V30 6525 H 582.137 -2.92329 -1.40407 0
M  V30 6526 H 581.922 -3.92048 0.0636395 0
M  V30 6527 H 583.412 -4.07465 -0.91446 0
M  V30 6528 N 583.85 -0.624285 -1.44708 0
M  V30 6529 C 584.76 0.0861083 -2.34442 0
M  V30 6530 C 585.776 0.84291 -1.5222 0
M  V30 6531 O 586.952 0.796723 -1.84971 0
M  V30 6532 C 584.017 1.05999 -3.30099 0
M  V30 6533 C 583.077 0.303316 -4.28227 0
M  V30 6534 C 582.311 1.23081 -5.19314 0
M  V30 6535 O 582.534 2.46929 -5.14181 0
M  V30 6536 O 581.468 0.71883 -5.97592 0
M  V30 6537 H 585.293 -0.651756 -2.96624 0
M  V30 6538 H 582.879 -0.384493 -1.44368 0
M  V30 6539 H 584.76 1.62046 -3.88997 0
M  V30 6540 H 583.436 1.77859 -2.70459 0
M  V30 6541 H 582.343 -0.300033 -3.72895 0
M  V30 6542 H 583.676 -0.375123 -4.90768 0
M  V30 6543 N 585.328 1.53329 -0.364422 0
M  V30 6544 C 586.744 1.59594 -0.0133165 0
M  V30 6545 C 586.944 1.37959 1.46865 0
M  V30 6546 O 586 1.18418 2.2301 0
M  V30 6547 C 587.313 2.97032 -0.468213 0
M  V30 6548 C 588.861 3.10138 -0.422334 0
M  V30 6549 C 589.336 4.49986 -0.853024 0
M  V30 6550 N 590.827 4.56098 -0.808037 0
M  V30 6551 C 591.562 5.62495 -1.11299 0
M  V30 6552 N 591.058 6.7665 -1.48717 0
M  V30 6553 N 592.851 5.52473 -1.03586 0
M  V30 6554 H 585.002 1.65644 -1.32951 0
M  V30 6555 H 587.265 0.77684 -0.543345 0
M  V30 6556 H 586.971 3.18 -1.5023 0
M  V30 6557 H 586.845 3.76918 0.145775 0
M  V30 6558 H 589.232 2.88881 0.602622 0
M  V30 6559 H 589.313 2.32263 -1.0718 0
M  V30 6560 H 588.957 4.7198 -1.87609 0
M  V30 6561 H 588.887 5.26289 -0.180819 0
M  V30 6562 H 591.378 3.74131 -0.532361 0
M  V30 6563 H 591.691 7.53776 -1.70415 0
M  V30 6564 H 590.036 6.78044 -1.52581 0
M  V30 6565 H 593.227 4.6217 -0.742736 0
M  V30 6566 H 593.4 6.35295 -1.27686 0
M  V30 6567 N 586.806 0.0935595 1.57322 0
M  V30 6568 C 587.736 -0.863062 2.16964 0
M  V30 6569 C 588.717 -1.29528 1.10256 0
M  V30 6570 O 589.902 -1.36245 1.38387 0
M  V30 6571 C 587.032 -2.12276 2.74875 0
M  V30 6572 C 585.986 -1.82921 3.86942 0
M  V30 6573 C 585.312 -3.15707 4.31548 0
M  V30 6574 C 586.612 -1.11737 5.10208 0
M  V30 6575 H 588.306 -0.366145 2.97153 0
M  V30 6576 H 585.852 -0.174673 1.42937 0
M  V30 6577 H 587.805 -2.79634 3.1525 0
M  V30 6578 H 586.529 -2.64248 1.91938 0
M  V30 6579 H 585.188 -1.17961 3.47103 0
M  V30 6580 H 584.836 -3.65563 3.45504 0
M  V30 6581 H 584.536 -2.96849 5.07104 0
M  V30 6582 H 586.06 -3.84226 4.74555 0
M  V30 6583 H 587.474 -1.69203 5.47762 0
M  V30 6584 H 585.871 -1.03064 5.91183 0
M  V30 6585 H 586.941 -0.0998818 4.84797 0
M  V30 6586 N 588.284 -1.56567 -0.180126 0
M  V30 6587 C 589.53 -1.81761 -0.899497 0
M  V30 6588 C 589.863 -0.670015 -1.82276 0
M  V30 6589 O 589.138 0.328575 -1.91705 0
M  V30 6590 C 589.421 -3.17296 -1.7028 0
M  V30 6591 C 589.274 -4.4257 -0.803255 0
M  V30 6592 C 590.593 -3.49678 -2.67233 0
M  V30 6593 H 587.712 -0.661192 -0.325567 0
M  V30 6594 H 590.354 -1.89272 -0.16612 0
M  V30 6595 H 588.504 -3.11023 -2.32802 0
M  V30 6596 H 590.176 -4.60902 -0.191585 0
M  V30 6597 H 588.419 -4.33658 -0.110796 0
M  V30 6598 H 589.09 -5.33935 -1.40064 0
M  V30 6599 H 591.566 -3.56347 -2.14839 0
M  V30 6600 H 590.442 -4.45605 -3.20511 0
M  V30 6601 H 590.703 -2.73932 -3.47007 0
M  V30 6602 N 589.762 0.448376 -1.51087 0
M  V30 6603 C 590.709 1.54341 -1.71603 0
M  V30 6604 C 591.679 1.56463 -0.557536 0
M  V30 6605 O 592.864 1.73644 -0.79072 0
M  V30 6606 C 590.004 2.92148 -1.83695 0
M  V30 6607 C 589.117 2.99639 -3.11192 0
M  V30 6608 C 588.252 4.285 -3.13944 0
M  V30 6609 C 587.291 4.29819 -4.35801 0
M  V30 6610 N 586.428 5.50186 -4.36164 0
M  V30 6611 H 591.268 1.36151 -2.65079 0
M  V30 6612 H 588.805 0.661585 -1.31383 0
M  V30 6613 H 590.763 3.72093 -1.88687 0
M  V30 6614 H 589.393 3.0892 -0.936374 0
M  V30 6615 H 588.445 2.12425 -3.15562 0
M  V30 6616 H 589.757 2.96474 -4.01129 0
M  V30 6617 H 588.911 5.16811 -3.17791 0
M  V30 6618 H 587.65 4.34307 -2.21876 0
M  V30 6619 H 586.655 3.39902 -4.32142 0
M  V30 6620 H 587.88 4.25685 -5.29121 0
M  V30 6621 H 585.826 5.56735 -3.46961 0
M  V30 6622 H 585.743 5.48856 -5.19897 0
M  V30 6623 H 587.011 6.40559 -4.44189 0
M  V30 6624 N 591.24 1.41047 0.703093 0
M  V30 6625 C 592.172 1.38228 1.82827 0
M  V30 6626 C 593.185 0.285637 1.60275 0
M  V30 6627 O 594.374 0.54685 1.69917 0
M  V30 6628 C 591.474 1.13136 3.19458 0
M  V30 6629 C 590.647 2.34695 3.69103 0
M  V30 6630 C 589.706 2.05574 4.84382 0
M  V30 6631 O 588.732 2.78549 4.96386 0
M  V30 6632 N 589.934 1.04135 5.71083 0
M  V30 6633 H 592.699 2.35203 1.85741 0
M  V30 6634 H 590.26 1.35562 0.885125 0
M  V30 6635 H 592.252 0.916183 3.94193 0
M  V30 6636 H 590.822 0.247836 3.11616 0
M  V30 6637 H 590.042 2.71963 2.85359 0
M  V30 6638 H 591.33 3.15705 3.99009 0
M  V30 6639 H 590.728 0.43722 5.64008 0
M  V30 6640 H 589.285 0.886078 6.45749 0
M  V30 6641 N 592.718 -0.936591 1.26751 0
M  V30 6642 C 593.648 -2.05315 1.11212 0
M  V30 6643 C 594.629 -1.70092 0.0160262 0
M  V30 6644 O 595.814 -1.93279 0.188894 0
M  V30 6645 C 592.944 -3.39123 0.749171 0
M  V30 6646 C 591.898 -3.88425 1.79751 0
M  V30 6647 C 591.224 -5.18936 1.28876 0
M  V30 6648 C 592.524 -4.12798 3.19992 0
M  V30 6649 H 594.218 -2.18573 2.04613 0
M  V30 6650 H 591.764 -1.05027 0.985159 0
M  V30 6651 H 593.717 -4.16704 0.627323 0
M  V30 6652 H 592.441 -3.25855 -0.220543 0
M  V30 6653 H 591.1 -3.13028 1.90811 0
M  V30 6654 H 590.748 -5.02051 0.308757 0
M  V30 6655 H 590.448 -5.52892 1.98958 0
M  V30 6656 H 591.972 -5.99096 1.17967 0
M  V30 6657 H 593.386 -4.80977 3.11983 0
M  V30 6658 H 591.783 -4.58044 3.87705 0
M  V30 6659 H 592.853 -3.18412 3.65707 0
M  V30 6660 N 594.196 -1.08629 -1.14182 0
M  V30 6661 C 595.106 -0.730126 -2.22949 0
M  V30 6662 C 596.122 0.26436 -1.7198 0
M  V30 6663 O 597.298 0.107742 -2.01112 0
M  V30 6664 C 594.363 -0.147227 -3.46387 0
M  V30 6665 C 593.424 -1.19662 -4.12286 0
M  V30 6666 C 592.657 -0.641437 -5.29831 0
M  V30 6667 O 592.88 0.538351 -5.67854 0
M  V30 6668 O 591.814 -1.39257 -5.85569 0
M  V30 6669 H 595.64 -1.63753 -2.55771 0
M  V30 6670 H 593.225 -0.860118 -1.22157 0
M  V30 6671 H 595.107 0.174923 -4.21037 0
M  V30 6672 H 593.782 0.733304 -3.15285 0
M  V30 6673 H 592.689 -1.57133 -3.395 0
M  V30 6674 H 594.022 -2.0495 -4.475 0
M  V30 6675 N 595.674 1.31259 -0.872281 0
M  V30 6676 C 596.584 2.32221 -0.333255 0
M  V30 6677 C 597.6 1.6481 0.558013 0
M  V30 6678 O 598.776 1.96212 0.454175 0
M  V30 6679 C 595.841 3.43708 0.454479 0
M  V30 6680 C 594.902 4.26774 -0.465024 0
M  V30 6681 C 594.135 5.32937 0.28521 0
M  V30 6682 O 594.358 5.49968 1.513 0
M  V30 6683 O 593.292 6.00834 -0.358126 0
M  V30 6684 H 597.118 2.80252 -1.17016 0
M  V30 6685 H 594.703 1.352 -0.635724 0
M  V30 6686 H 596.585 4.11656 0.900963 0
M  V30 6687 H 595.26 2.97836 1.26789 0
M  V30 6688 H 594.167 3.61571 -0.960055 0
M  V30 6689 H 595.5 4.76217 -1.2441 0
M  V30 6690 N 597.152 0.631951 1.44375 0
M  V30 6691 C 598.062 -0.073674 2.34484 0
M  V30 6692 C 599.078 -0.834825 1.52665 0
M  V30 6693 O 600.254 -0.786902 1.85391 0
M  V30 6694 C 597.319 -1.04247 3.30656 0
M  V30 6695 C 596.38 -0.280602 4.28382 0
M  V30 6696 C 595.613 -1.20325 5.19959 0
M  V30 6697 O 595.836 -2.44199 5.15484 0
M  V30 6698 O 594.77 -0.687128 5.97965 0
M  V30 6699 H 598.596 0.667477 2.96274 0
M  V30 6700 H 596.181 0.392144 1.44162 0
M  V30 6701 H 598.063 -1.59981 3.89851 0
M  V30 6702 H 596.738 -1.76422 2.71398 0
M  V30 6703 H 595.645 0.319804 3.72731 0
M  V30 6704 H 596.978 0.401144 4.90563 0
M  V30 6705 N 598.631 -1.53133 0.372548 0
M  V30 6706 C 599.594 -2.24569 -0.458389 0
M  V30 6707 C 600.594 -1.25603 -1.00402 0
M  V30 6708 O 601.784 -1.49827 -0.888672 0
M  V30 6709 C 598.916 -2.98783 -1.6414 0
M  V30 6710 H 600.109 -2.99436 0.166799 0
M  V30 6711 H 597.662 -1.55805 0.124357 0
M  V30 6712 H 598.397 -2.28176 -2.30448 0
M  V30 6713 H 598.182 -3.71404 -1.25704 0
M  V30 6714 H 599.672 -3.53068 -2.23008 0
M  V30 6715 N 600.109 -0.101901 -1.5727 0
M  V30 6716 C 601.056 0.854577 -2.14396 0
M  V30 6717 C 602.026 1.27521 -1.06432 0
M  V30 6718 O 603.211 1.35575 -1.34253 0
M  V30 6719 C 600.351 2.10576 -2.73408 0
M  V30 6720 C 599.464 1.73504 -3.95626 0
M  V30 6721 C 598.599 2.9346 -4.42781 0
M  V30 6722 C 597.638 2.52547 -5.57572 0
M  V30 6723 N 596.775 3.65359 -5.99547 0
M  V30 6724 H 601.615 0.360578 -2.9581 0
M  V30 6725 H 599.152 0.166303 -1.46157 0
M  V30 6726 H 601.11 2.83859 -3.05745 0
M  V30 6727 H 599.74 2.57463 -1.94711 0
M  V30 6728 H 598.792 0.901622 -3.6956 0
M  V30 6729 H 600.104 1.39426 -4.78917 0
M  V30 6730 H 599.258 3.74988 -4.76937 0
M  V30 6731 H 597.997 3.30753 -3.58404 0
M  V30 6732 H 597.002 1.69446 -5.23037 0
M  V30 6733 H 598.227 2.1639 -6.43702 0
M  V30 6734 H 596.173 4.02358 -5.18116 0
M  V30 6735 H 596.09 3.35148 -6.77652 0
M  V30 6736 H 597.358 4.47378 -6.38336 0
M  V30 6737 N 601.587 1.56661 0.17182 0
M  V30 6738 C 602.812 1.86459 0.908165 0
M  V30 6739 C 603.237 0.688181 1.75059 0
M  V30 6740 O 602.595 -0.362753 1.77634 0
M  V30 6741 C 602.643 3.14669 1.76112 0
M  V30 6742 O 601.747 2.96858 2.86268 0
M  V30 6743 H 601.088 0.613318 0.254434 0
M  V30 6744 H 603.618 2.03892 0.170113 0
M  V30 6745 H 603.628 3.46061 2.16115 0
M  V30 6746 H 602.303 3.99905 1.14233 0
M  V30 6747 H 600.88 2.76819 2.49852 0
M  V30 6748 N 603.065 -0.440357 1.51323 0
M  V30 6749 C 604.481 -0.7766 1.39431 0
M  V30 6750 C 604.681 -1.95838 0.474296 0
M  V30 6751 O 603.737 -2.52398 -0.0716692 0
M  V30 6752 C 605.05 -1.05981 2.81405 0
M  V30 6753 C 606.598 -1.16442 2.90534 0
M  V30 6754 C 607.073 -1.48058 4.33408 0
M  V30 6755 N 608.564 -1.54988 4.36501 0
M  V30 6756 C 609.299 -1.81017 5.44078 0
M  V30 6757 N 608.795 -2.04858 6.61819 0
M  V30 6758 N 610.588 -1.82774 5.31554 0
M  V30 6759 H 602.739 0.338006 2.09693 0
M  V30 6760 H 605.002 0.0888072 0.943831 0
M  V30 6761 H 604.708 -0.264173 3.50706 0
M  V30 6762 H 604.582 -1.98822 3.20546 0
M  V30 6763 H 606.969 -1.95068 2.21432 0
M  V30 6764 H 607.05 -0.215088 2.54894 0
M  V30 6765 H 606.694 -0.699605 5.03059 0
M  V30 6766 H 606.624 -2.44192 4.66559 0
M  V30 6767 H 609.115 -1.38479 3.51613 0
M  V30 6768 H 609.428 -2.2408 7.396 0
M  V30 6769 H 607.773 -2.02187 6.6494 0
M  V30 6770 H 610.964 -1.63665 4.38556 0
M  V30 6771 H 611.137 -2.02722 6.15474 0
M  V30 6772 N 604.543 -1.41418 -0.695603 0
M  V30 6773 C 605.506 -1.42988 -1.79129 0
M  V30 6774 C 606.506 -0.320514 -1.57573 0
M  V30 6775 O 607.696 -0.58039 -1.64247 0
M  V30 6776 C 604.828 -1.24122 -3.175 0
M  V30 6777 H 606.021 -2.40526 -1.7913 0
M  V30 6778 H 603.574 -1.2756 -0.903225 0
M  V30 6779 H 604.309 -0.274253 -3.23138 0
M  V30 6780 H 604.094 -2.045 -3.34547 0
M  V30 6781 H 605.584 -1.28056 -3.97481 0
M  V30 6782 N 606.021 0.929856 -1.27246 0
M  V30 6783 C 606.931 2.0636 -1.11592 0
M  V30 6784 C 607.947 1.73938 -0.046496 0
M  V30 6785 O 609.123 1.9981 -0.252544 0
M  V30 6786 C 606.188 3.38213 -0.762437 0
M  V30 6787 C 605.249 3.84346 -1.9125 0
M  V30 6788 C 604.482 5.09906 -1.57579 0
M  V30 6789 O 604.705 5.68354 -0.482694 0
M  V30 6790 O 603.639 5.51359 -2.41426 0
M  V30 6791 H 607.465 2.22478 -2.0673 0
M  V30 6792 H 605.05 1.04865 -1.06413 0
M  V30 6793 H 606.932 4.1741 -0.57854 0
M  V30 6794 H 605.607 3.23307 0.159439 0
M  V30 6795 H 604.514 3.06045 -2.15144 0
M  V30 6796 H 605.847 4.0379 -2.81451 0
M  V30 6797 N 607.499 1.09233 1.13605 0
M  V30 6798 C 608.409 0.741939 2.22559 0
M  V30 6799 C 609.425 -0.255236 1.72118 0
M  V30 6800 O 610.601 -0.0970747 2.01166 0
M  V30 6801 C 607.666 0.165595 3.46304 0
M  V30 6802 C 606.727 1.21846 4.11645 0
M  V30 6803 C 605.96 0.669526 5.29484 0
M  V30 6804 O 606.183 -0.508228 5.68131 0
M  V30 6805 O 605.117 1.42361 5.84822 0
M  V30 6806 H 608.943 1.65107 2.54899 0
M  V30 6807 H 606.528 0.866584 1.21699 0
M  V30 6808 H 608.41 -0.152592 4.21124 0
M  V30 6809 H 607.085 -0.716573 3.15669 0
M  V30 6810 H 605.992 1.58931 3.38662 0
M  V30 6811 H 607.325 2.07321 4.46407 0
M  V30 6812 N 608.977 -1.30795 0.87923 0
M  V30 6813 C 609.907 -2.30742 0.357796 0
M  V30 6814 C 610.888 -1.60747 -0.556283 0
M  V30 6815 O 612.073 -1.88393 -0.47135 0
M  V30 6816 C 609.203 -3.44583 -0.433555 0
M  V30 6817 C 608.157 -4.26235 0.388251 0
M  V30 6818 C 607.483 -5.32073 -0.529352 0
M  V30 6819 C 608.783 -4.96303 1.62729 0
M  V30 6820 H 610.477 -2.74605 1.19299 0
M  V30 6821 H 608.023 -1.32017 0.575104 0
M  V30 6822 H 609.976 -4.13563 -0.808934 0
M  V30 6823 H 608.7 -2.99511 -1.30234 0
M  V30 6824 H 607.359 -3.58936 0.745695 0
M  V30 6825 H 607.007 -4.83249 -1.39569 0
M  V30 6826 H 606.707 -5.87598 0.0166741 0
M  V30 6827 H 608.231 -6.0391 -0.901373 0
M  V30 6828 H 609.645 -5.5783 1.32283 0
M  V30 6829 H 608.042 -5.61666 2.11309 0
M  V30 6830 H 609.112 -4.22758 2.37494 0
M  V30 6831 N 610.455 -0.639598 -1.44038 0
M  V30 6832 C 611.402 0.0602458 -2.30721 0
M  V30 6833 C 612.372 0.828352 -1.43971 0
M  V30 6834 O 613.557 0.807693 -1.72861 0
M  V30 6835 C 610.697 1.03008 -3.29368 0
M  V30 6836 C 609.81 0.259502 -4.3122 0
M  V30 6837 C 608.945 1.22191 -5.16955 0
M  V30 6838 C 607.984 0.440978 -6.10509 0
M  V30 6839 N 607.121 1.35428 -6.88915 0
M  V30 6840 H 611.961 -0.684867 -2.90023 0
M  V30 6841 H 609.498 -0.349509 -1.42888 0
M  V30 6842 H 611.456 1.60583 -3.85057 0
M  V30 6843 H 610.086 1.74222 -2.71747 0
M  V30 6844 H 609.138 -0.432317 -3.77935 0
M  V30 6845 H 610.45 -0.348347 -4.97582 0
M  V30 6846 H 609.604 1.86873 -5.77203 0
M  V30 6847 H 608.343 1.86367 -4.50687 0
M  V30 6848 H 607.348 -0.219279 -5.49363 0
M  V30 6849 H 608.573 -0.196192 -6.78817 0
M  V30 6850 H 606.519 1.9831 -6.25307 0
M  V30 6851 H 606.436 0.800657 -7.51748 0
M  V30 6852 H 607.704 1.98967 -7.53679 0
M  V30 6853 N 611.933 1.52934 -0.380664 0
M  V30 6854 C 612.863 2.29118 0.450268 0
M  V30 6855 C 613.844 1.32153 1.07096 0
M  V30 6856 O 615.029 1.61038 1.08537 0
M  V30 6857 C 612.159 3.09161 1.58231 0
M  V30 6858 C 611.113 4.13938 1.0881 0
M  V30 6859 C 610.439 4.82153 2.31155 0
M  V30 6860 C 611.739 5.22048 0.162146 0
M  V30 6861 H 613.433 2.98826 -0.185361 0
M  V30 6862 H 610.979 1.43715 -0.0905886 0
M  V30 6863 H 612.932 3.61211 2.17036 0
M  V30 6864 H 611.656 2.3717 2.2454 0
M  V30 6865 H 610.315 3.62855 0.522633 0
M  V30 6866 H 609.963 4.06719 2.95953 0
M  V30 6867 H 609.663 5.52966 1.98752 0
M  V30 6868 H 611.187 5.37004 2.90618 0
M  V30 6869 H 612.601 5.6951 0.658126 0
M  V30 6870 H 610.998 6.00057 -0.0717122 0
M  V30 6871 H 612.068 4.78398 -0.791438 0
M  V30 6872 N 613.412 0.11024 1.57214 0
M  V30 6873 C 614.342 -0.840002 2.17867 0
M  V30 6874 C 615.323 -1.28352 1.11624 0
M  V30 6875 O 616.508 -1.3477 1.39824 0
M  V30 6876 C 613.638 -2.09349 2.77111 0
M  V30 6877 C 612.592 -1.78807 3.8886 0
M  V30 6878 C 611.918 -3.11112 4.34872 0
M  V30 6879 C 613.218 -1.0632 5.11364 0
M  V30 6880 H 614.912 -0.334608 2.97524 0
M  V30 6881 H 612.458 -0.159502 1.43114 0
M  V30 6882 H 614.411 -2.76275 3.18198 0
M  V30 6883 H 613.135 -2.62198 1.9473 0
M  V30 6884 H 611.794 -1.14273 3.48335 0
M  V30 6885 H 611.442 -3.61877 3.49362 0
M  V30 6886 H 611.142 -2.91453 5.10224 0
M  V30 6887 H 612.666 -3.79171 4.78604 0
M  V30 6888 H 614.08 -1.63383 5.49526 0
M  V30 6889 H 612.477 -0.967876 5.92243 0
M  V30 6890 H 613.547 -0.0484569 4.84876 0
M  V30 6891 N 614.89 -1.56749 -0.16351 0
M  V30 6892 C 615.8 -2.00255 -1.2221 0
M  V30 6893 C 616.816 -0.915194 -1.47987 0
M  V30 6894 O 617.992 -1.22342 -1.59982 0
M  V30 6895 C 615.057 -2.36035 -2.53946 0
M  V30 6896 C 614.118 -3.58637 -2.35962 0
M  V30 6897 C 613.351 -3.92701 -3.61416 0
M  V30 6898 O 613.574 -3.27632 -4.66919 0
M  V30 6899 O 612.508 -4.86019 -3.55062 0
M  V30 6900 H 616.334 -2.90586 -0.882794 0
M  V30 6901 H 613.919 -1.44721 -0.370978 0
M  V30 6902 H 615.801 -2.59982 -3.31643 0
M  V30 6903 H 614.476 -1.48863 -2.8744 0
M  V30 6904 H 613.383 -3.39898 -1.5627 0
M  V30 6905 H 614.716 -4.46374 -2.0739 0
M  V30 6906 N 616.368 0.432326 -1.51554 0
M  V30 6907 C 617.278 1.55023 -1.76082 0
M  V30 6908 C 618.294 1.61593 -0.645265 0
M  V30 6909 O 619.47 1.78742 -0.928086 0
M  V30 6910 C 616.535 2.90964 -1.88523 0
M  V30 6911 C 615.596 2.9447 -3.12388 0
M  V30 6912 C 614.829 4.23926 -3.24225 0
M  V30 6913 O 615.052 5.16576 -2.4188 0
M  V30 6914 O 613.986 4.33818 -4.17235 0
M  V30 6915 H 617.812 1.37238 -2.70923 0
M  V30 6916 H 615.397 0.615845 -1.36117 0
M  V30 6917 H 617.279 3.71633 -1.98662 0
M  V30 6918 H 615.954 3.08865 -0.9687 0
M  V30 6919 H 614.861 2.12737 -3.07723 0
M  V30 6920 H 616.194 2.81514 -4.03746 0
M  V30 6921 N 617.846 1.41785 0.688094 0
M  V30 6922 C 618.793 1.44221 1.80191 0
M  V30 6923 C 619.763 0.295688 1.63447 0
M  V30 6924 O 620.948 0.49783 1.84191 0
M  V30 6925 C 618.088 1.33743 3.1813 0
M  V30 6926 C 617.201 2.58325 3.46254 0
M  V30 6927 C 616.336 2.40086 4.73848 0
M  V30 6928 C 615.375 3.60107 4.94964 0
M  V30 6929 N 614.512 3.40892 6.13789 0
M  V30 6930 H 619.352 2.39411 1.77444 0
M  V30 6931 H 616.889 1.18876 0.866423 0
M  V30 6932 H 618.847 1.25669 3.97823 0
M  V30 6933 H 617.477 0.42157 3.20035 0
M  V30 6934 H 616.529 2.7682 2.60912 0
M  V30 6935 H 617.841 3.4758 3.57756 0
M  V30 6936 H 616.995 2.29522 5.61609 0
M  V30 6937 H 615.734 1.483 4.64606 0
M  V30 6938 H 614.739 3.71118 4.05649 0
M  V30 6939 H 615.964 4.52857 5.06061 0
M  V30 6940 H 613.91 2.51812 6.05745 0
M  V30 6941 H 613.827 4.23727 6.26092 0
M  V30 6942 H 615.095 3.34114 7.04264 0
M  V30 6943 N 619.324 -0.923095 1.27737 0
M  V30 6944 C 620.254 -2.04124 1.13383 0
M  V30 6945 C 621.235 -1.70066 0.0340658 0
M  V30 6946 O 622.42 -1.93068 0.209383 0
M  V30 6947 C 619.55 -3.3831 0.785097 0
M  V30 6948 C 618.504 -3.86496 1.8386 0
M  V30 6949 C 617.83 -5.1754 1.34373 0
M  V30 6950 C 619.13 -4.09381 3.24353 0
M  V30 6951 H 620.824 -2.1639 2.06919 0
M  V30 6952 H 618.37 -1.03976 0.996243 0
M  V30 6953 H 620.323 -4.16016 0.671485 0
M  V30 6954 H 619.047 -3.2607 -0.185969 0
M  V30 6955 H 617.706 -3.10987 1.9412 0
M  V30 6956 H 617.354 -5.01696 0.361989 0
M  V30 6957 H 617.054 -5.50751 2.04811 0
M  V30 6958 H 618.578 -5.97811 1.24315 0
M  V30 6959 H 619.992 -4.77641 3.17067 0
M  V30 6960 H 618.389 -4.53906 3.92542 0
M  V30 6961 H 619.459 -3.14515 3.69064 0
M  V30 6962 N 620.802 -1.09834 -1.13024 0
M  V30 6963 C 621.749 -0.741522 -2.18564 0
M  V30 6964 C 622.719 0.279236 -1.63736 0
M  V30 6965 O 623.904 0.159923 -1.90129 0
M  V30 6966 C 621.044 -0.17277 -3.44667 0
M  V30 6967 C 620.157 -1.24808 -4.13578 0
M  V30 6968 C 619.292 -0.641631 -5.27311 0
M  V30 6969 C 618.331 -1.69795 -5.88078 0
M  V30 6970 N 617.468 -1.11223 -6.93234 0
M  V30 6971 H 622.308 -1.64576 -2.48432 0
M  V30 6972 H 619.845 -0.822174 -1.21978 0
M  V30 6973 H 621.803 0.17482 -4.16834 0
M  V30 6974 H 620.433 0.694725 -3.15235 0
M  V30 6975 H 619.485 -1.71288 -3.39653 0
M  V30 6976 H 620.797 -2.04795 -4.54819 0
M  V30 6977 H 619.951 -0.243128 -6.06213 0
M  V30 6978 H 618.69 0.189742 -4.87331 0
M  V30 6979 H 617.695 -2.10595 -5.07868 0
M  V30 6980 H 618.92 -2.53206 -6.3013 0
M  V30 6981 H 616.866 -0.302208 -6.55304 0
M  V30 6982 H 616.783 -1.84901 -7.3304 0
M  V30 6983 H 618.051 -0.740068 -7.75979 0
M  V30 6984 N 622.28 1.30327 -0.886154 0
M  V30 6985 C 623.528 1.9571 -0.504195 0
M  V30 6986 C 623.849 1.70294 0.950003 0
M  V30 6987 O 623.119 1.02718 1.66811 0
M  V30 6988 H 621.699 0.72412 -0.183465 0
M  V30 6989 H 624.361 1.58835 -1.12949 0
M  V30 6990 H 623.457 3.04704 -0.675431 0
M  V30 6991 N 623.758 0.647228 1.43697 0
M  V30 6992 C 624.705 -0.0480092 2.3075 0
M  V30 6993 C 625.675 -0.820705 1.44408 0
M  V30 6994 O 626.86 -0.798515 1.73287 0
M  V30 6995 C 624 -1.01259 3.2991 0
M  V30 6996 C 623.113 -0.236629 4.31351 0
M  V30 6997 C 622.248 -1.19447 5.17596 0
M  V30 6998 C 621.287 -0.408595 6.10735 0
M  V30 6999 N 620.424 -1.31772 6.89623 0
M  V30 7000 H 625.264 0.700238 2.89656 0
M  V30 7001 H 622.801 0.357082 1.427 0
M  V30 7002 H 624.759 -1.58538 3.85903 0
M  V30 7003 H 623.389 -1.72778 2.72667 0
M  V30 7004 H 622.441 0.452353 3.77701 0
M  V30 7005 H 623.753 0.374731 4.9739 0
M  V30 7006 H 622.907 -1.83809 5.78186 0
M  V30 7007 H 621.646 -1.83975 4.51669 0
M  V30 7008 H 620.651 0.24841 5.49239 0
M  V30 7009 H 621.876 0.232188 6.78703 0
M  V30 7010 H 619.822 -1.94991 6.2635 0
M  V30 7011 H 619.739 -0.760779 7.52162 0
M  V30 7012 H 621.007 -1.94967 7.54724 0
M  V30 7013 N 625.236 -1.5273 0.388769 0
M  V30 7014 C 626.146 -2.30165 -0.453993 0
M  V30 7015 C 627.162 -1.37058 -1.07197 0
M  V30 7016 O 628.338 -1.70127 -1.0779 0
M  V30 7017 C 625.403 -3.09303 -1.56628 0
M  V30 7018 C 624.464 -4.18117 -0.973467 0
M  V30 7019 C 623.697 -4.93472 -2.03275 0
M  V30 7020 O 623.92 -4.68913 -3.24772 0
M  V30 7021 O 622.854 -5.78833 -1.65034 0
M  V30 7022 H 626.68 -3.03185 0.176816 0
M  V30 7023 H 624.265 -1.4862 0.152501 0
M  V30 7024 H 626.147 -3.58648 -2.21246 0
M  V30 7025 H 624.822 -2.39098 -2.18206 0
M  V30 7026 H 623.729 -3.7297 -0.290556 0
M  V30 7027 H 625.062 -4.90556 -0.401908 0
M  V30 7028 N 626.714 -0.118576 -1.57153 0
M  V30 7029 C 627.677 0.817464 -2.14127 0
M  V30 7030 C 628.677 1.1949 -1.07604 0
M  V30 7031 O 629.867 1.12048 -1.33382 0
M  V30 7032 C 626.999 2.10541 -2.68115 0
M  V30 7033 H 628.192 0.322339 -2.98163 0
M  V30 7034 H 625.745 0.130655 -1.55753 0
M  V30 7035 H 626.48 2.64485 -1.87665 0
M  V30 7036 H 626.265 1.84425 -3.4602 0
M  V30 7037 H 627.755 2.77453 -3.12105 0
M  V30 7038 N 628.193 1.56834 0.155195 0
M  V30 7039 C 629.103 2.009 1.21146 0
M  V30 7040 C 630.119 0.923029 1.475 0
M  V30 7041 O 631.295 1.23189 1.59331 0
M  V30 7042 C 628.36 2.37378 2.52691 0
M  V30 7043 C 627.421 3.59883 2.34057 0
M  V30 7044 C 626.654 3.94612 3.59329 0
M  V30 7045 O 626.877 3.30104 4.65175 0
M  V30 7046 O 625.811 4.87895 3.52479 0
M  V30 7047 H 629.637 2.9105 0.867371 0
M  V30 7048 H 627.222 1.44916 0.363298 0
M  V30 7049 H 629.104 2.61737 3.3026 0
M  V30 7050 H 627.779 1.50385 2.86646 0
M  V30 7051 H 626.686 3.40722 1.54465 0
M  V30 7052 H 628.019 4.47468 2.0502 0
M  V30 7053 N 629.671 -0.424282 1.51781 0
M  V30 7054 C 630.601 -1.52305 1.7699 0
M  V30 7055 C 631.582 -1.5839 0.620209 0
M  V30 7056 O 632.767 -1.73908 0.864268 0
M  V30 7057 C 629.897 -2.90271 1.90683 0
M  V30 7058 C 628.851 -2.99043 3.06198 0
M  V30 7059 C 628.177 -4.39116 3.05092 0
M  V30 7060 C 629.477 -2.7192 4.45934 0
M  V30 7061 H 631.171 -1.31461 2.68995 0
M  V30 7062 H 628.717 -0.630985 1.29439 0
M  V30 7063 H 630.67 -3.6711 2.06901 0
M  V30 7064 H 629.394 -3.12376 0.953365 0
M  V30 7065 H 628.053 -2.24646 2.89706 0
M  V30 7066 H 627.701 -4.58207 2.07498 0
M  V30 7067 H 627.401 -4.45912 3.82669 0
M  V30 7068 H 628.925 -5.17911 3.2342 0
M  V30 7069 H 630.339 -3.38487 4.62709 0
M  V30 7070 H 628.736 -2.90111 5.25315 0
M  V30 7071 H 629.806 -1.67445 4.55072 0
M  V30 7072 N 631.149 -1.42148 -0.680565 0
M  V30 7073 C 632.059 -1.47565 -1.82378 0
M  V30 7074 C 633.075 -0.36489 -1.70131 0
M  V30 7075 O 634.251 -0.614916 -1.91783 0
M  V30 7076 C 631.316 -1.37013 -3.18478 0
M  V30 7077 C 630.377 -2.58532 -3.42724 0
M  V30 7078 C 629.61 -2.48473 -4.72331 0
M  V30 7079 O 629.833 -1.51745 -5.49845 0
M  V30 7080 O 628.767 -3.38503 -4.97694 0
M  V30 7081 H 632.593 -2.44045 -1.80764 0
M  V30 7082 H 630.178 -1.23849 -0.835569 0
M  V30 7083 H 632.06 -1.33468 -3.99705 0
M  V30 7084 H 630.735 -0.436552 -3.20743 0
M  V30 7085 H 629.642 -2.67652 -2.61368 0
M  V30 7086 H 630.975 -3.50769 -3.45286 0
M  V30 7087 N 632.627 0.916307 -1.28225 0
M  V30 7088 C 633.574 2.01841 -1.11932 0
M  V30 7089 C 634.544 1.66091 -0.0171604 0
M  V30 7090 O 635.729 1.89934 -0.181617 0
M  V30 7091 C 632.869 3.36065 -0.784504 0
M  V30 7092 C 631.982 3.847 -1.96544 0
M  V30 7093 C 631.117 5.07423 -1.57149 0
M  V30 7094 C 630.156 5.48384 -2.71922 0
M  V30 7095 N 629.293 6.62298 -2.33037 0
M  V30 7096 H 634.133 2.1511 -2.06232 0
M  V30 7097 H 631.67 1.05366 -1.02647 0
M  V30 7098 H 633.628 4.13272 -0.571148 0
M  V30 7099 H 632.258 3.22571 0.121565 0
M  V30 7100 H 631.31 3.03673 -2.291 0
M  V30 7101 H 632.622 4.1102 -2.82603 0
M  V30 7102 H 631.776 5.92165 -1.32004 0
M  V30 7103 H 630.515 4.82906 -0.682153 0
M  V30 7104 H 629.52 4.62184 -2.97768 0
M  V30 7105 H 630.745 5.7489 -3.61494 0
M  V30 7106 H 628.691 6.39416 -1.4657 0
M  V30 7107 H 628.608 6.8833 -3.12631 0
M  V30 7108 H 629.876 7.50352 -2.11169 0
M  V30 7109 N 634.105 1.10431 1.1244 0
M  V30 7110 C 635.33 0.869089 1.88313 0
M  V30 7111 C 635.755 -0.574912 1.79099 0
M  V30 7112 O 635.113 -1.40496 1.14589 0
M  V30 7113 C 635.161 1.32208 3.3549 0
M  V30 7114 O 634.265 0.487092 4.09513 0
M  V30 7115 H 633.606 0.313894 0.585121 0
M  V30 7116 H 636.136 1.47111 1.42195 0
M  V30 7117 H 636.146 1.31201 3.86329 0
M  V30 7118 H 634.821 2.37364 3.41513 0
M  V30 7119 H 633.398 0.562372 3.68635 0
M  V30 7120 N 635.583 -1.29855 0.893053 0
M  V30 7121 C 636.808 -2.00512 0.530066 0
M  V30 7122 C 637.233 -1.66446 -0.876199 0
M  V30 7123 O 636.591 -0.885446 -1.58207 0
M  V30 7124 C 636.639 -3.53308 0.721505 0
M  V30 7125 O 635.743 -4.11764 -0.228994 0
M  V30 7126 H 635.084 -0.630617 0.207891 0
M  V30 7127 H 637.614 -1.6551 1.20282 0
M  V30 7128 H 637.624 -4.03206 0.623599 0
M  V30 7129 H 636.299 -3.77439 1.74678 0
M  V30 7130 H 634.876 -3.72805 -0.0841034 0
M  V30 7131 N 637.061 -0.65484 -1.43351 0
M  V30 7132 C 638.024 0.0263562 -2.29185 0
M  V30 7133 C 639.024 0.748951 -1.42293 0
M  V30 7134 O 640.214 0.589957 -1.63906 0
M  V30 7135 C 637.346 1.04806 -3.2439 0
M  V30 7136 H 638.539 -0.728883 -2.90908 0
M  V30 7137 H 636.092 -0.416149 -1.50658 0
M  V30 7138 H 636.827 1.83247 -2.67565 0
M  V30 7139 H 636.612 0.533554 -3.88453 0
M  V30 7140 H 638.102 1.52372 -3.88809 0
M  V30 7141 N 638.539 1.52521 -0.396863 0
M  V30 7142 C 639.502 2.2527 0.422604 0
M  V30 7143 C 640.502 1.27184 0.983913 0
M  V30 7144 O 641.692 1.51222 0.864723 0
M  V30 7145 C 638.824 3.01356 1.59365 0
M  V30 7146 H 640.017 2.99133 -0.214416 0
M  V30 7147 H 637.57 1.55587 -0.149128 0
M  V30 7148 H 638.305 2.31813 2.26789 0
M  V30 7149 H 638.09 3.73357 1.19779 0
M  V30 7150 H 639.58 3.56571 2.17363 0
M  V30 7151 N 640.017 0.126909 1.57088 0
M  V30 7152 C 640.967 -0.831678 2.1229 0
M  V30 7153 C 641.951 -1.22292 1.04564 0
M  V30 7154 O 643.143 -1.19269 1.30782 0
M  V30 7155 C 640.272 -2.07866 2.73215 0
M  V30 7156 C 639.358 -1.71143 3.88035 0
M  V30 7157 N 639.749 -1.05136 4.94753 0
M  V30 7158 C 638.047 -2.00549 3.98367 0
M  V30 7159 C 638.748 -0.877257 5.75047 0
M  V30 7160 N 637.724 -1.40477 5.25135 0
M  V30 7161 H 641.526 -0.317926 2.92175 0
M  V30 7162 H 639.04 -0.0753052 1.62225 0
M  V30 7163 H 641.037 -2.77516 3.11111 0
M  V30 7164 H 639.697 -2.59778 1.94796 0
M  V30 7165 H 640.708 -0.71442 5.12949 0
M  V30 7166 H 637.385 -2.54452 3.30999 0
M  V30 7167 H 638.775 -0.358536 6.70943 0
M  V30 7168 N 641.495 -1.56914 -0.146875 0
M  V30 7169 C 642.723 -1.87515 -0.874394 0
M  V30 7170 C 643.138 -0.715116 -1.74733 0
M  V30 7171 O 642.495 0.315113 -1.79759 0
M  V30 7172 C 642.546 -3.17362 -1.731 0
M  V30 7173 O 642.267 -4.28897 -0.893245 0
M  V30 7174 C 643.768 -3.61479 -2.56609 0
M  V30 7175 H 640.988 -0.621546 -0.252827 0
M  V30 7176 H 643.532 -2.04023 -0.139627 0
M  V30 7177 H 641.687 -3.02608 -2.41883 0
M  V30 7178 H 642.101 -5.03146 -1.48137 0
M  V30 7179 H 643.575 -4.5517 -3.12289 0
M  V30 7180 H 644.052 -2.86773 -3.32653 0
M  V30 7181 H 644.658 -3.78927 -1.93117 0
M  V30 7182 N 642.974 0.416227 -1.52004 0
M  V30 7183 C 643.906 1.52552 -1.71058 0
M  V30 7184 C 644.919 1.51693 -0.59102 0
M  V30 7185 O 646.108 1.56087 -0.865973 0
M  V30 7186 C 643.208 2.91455 -1.72937 0
M  V30 7187 C 642.381 3.16584 -3.01816 0
M  V30 7188 C 641.44 4.35322 -2.95603 0
M  V30 7189 O 640.466 4.32947 -3.6952 0
M  V30 7190 N 641.668 5.40049 -2.12903 0
M  V30 7191 H 644.433 1.36604 -2.66757 0
M  V30 7192 H 641.994 0.60544 -1.50153 0
M  V30 7193 H 643.986 3.68944 -1.66321 0
M  V30 7194 H 642.556 3.00895 -0.847418 0
M  V30 7195 H 641.776 2.27203 -3.22137 0
M  V30 7196 H 643.064 3.30213 -3.87088 0
M  V30 7197 H 642.462 5.44823 -1.52265 0
M  V30 7198 H 641.019 6.16308 -2.1215 0
M  V30 7199 N 644.452 1.42507 0.673017 0
M  V30 7200 C 645.415 1.4582 1.76831 0
M  V30 7201 C 646.415 0.345542 1.57043 0
M  V30 7202 O 647.605 0.606447 1.63303 0
M  V30 7203 C 644.737 1.29158 3.15485 0
M  V30 7204 H 645.93 2.43345 1.7528 0
M  V30 7205 H 643.483 1.28981 0.882817 0
M  V30 7206 H 644.218 0.325626 3.22661 0
M  V30 7207 H 644.003 2.09797 3.31252 0
M  V30 7208 H 645.493 1.34363 3.95394 0
M  V30 7209 N 645.93 -0.909495 1.28709 0
M  V30 7210 C 647.158 -1.69272 1.18973 0
M  V30 7211 C 647.573 -1.87123 -0.251048 0
M  V30 7212 O 646.93 -1.40127 -1.16922 0
M  V30 7213 C 646.981 -3.08257 1.88839 0
M  V30 7214 O 646.702 -2.91228 3.27289 0
M  V30 7215 C 648.203 -4.02642 1.85457 0
M  V30 7216 H 645.423 -0.528999 0.412797 0
M  V30 7217 H 647.967 -1.13803 1.69909 0
M  V30 7218 H 646.122 -3.6053 1.41762 0
M  V30 7219 H 646.536 -3.79223 3.6234 0
M  V30 7220 H 648.01 -4.97613 2.38925 0
M  V30 7221 H 648.487 -4.31327 0.827893 0
M  V30 7222 H 649.093 -3.56298 2.32233 0
M  V30 7223 N 647.408 -1.11026 -1.11852 0
M  V30 7224 C 648.338 -0.786812 -2.19844 0
M  V30 7225 C 649.319 0.242935 -1.68356 0
M  V30 7226 O 650.504 0.107355 -1.93903 0
M  V30 7227 C 647.634 -0.224516 -3.46574 0
M  V30 7228 C 646.588 -1.18564 -4.1125 0
M  V30 7229 C 645.914 -0.484261 -5.32503 0
M  V30 7230 C 647.214 -2.53465 -4.56676 0
M  V30 7231 H 648.908 -1.68978 -2.47158 0
M  V30 7232 H 646.454 -0.813906 -1.18792 0
M  V30 7233 H 648.407 0.0139435 -4.21398 0
M  V30 7234 H 647.131 0.713722 -3.18706 0
M  V30 7235 H 645.79 -1.40966 -3.38414 0
M  V30 7236 H 645.438 0.458646 -5.00905 0
M  V30 7237 H 645.138 -1.12526 -5.76725 0
M  V30 7238 H 646.662 -0.254492 -6.10069 0
M  V30 7239 H 648.076 -2.35177 -5.22843 0
M  V30 7240 H 646.473 -3.13507 -5.11697 0
M  V30 7241 H 647.543 -3.13008 -3.70343 0
M  V30 7242 N 648.886 1.2938 -0.899927 0
M  V30 7243 C 649.816 2.30144 -0.39446 0
M  V30 7244 C 650.797 1.61611 0.530639 0
M  V30 7245 O 651.982 1.89119 0.441319 0
M  V30 7246 C 649.112 3.45229 0.37868 0
M  V30 7247 C 648.066 4.25564 -0.456012 0
M  V30 7248 C 647.392 5.32848 0.444637 0
M  V30 7249 C 648.692 4.93651 -1.70605 0
M  V30 7250 H 650.386 2.72673 -1.23653 0
M  V30 7251 H 647.932 1.31086 -0.596034 0
M  V30 7252 H 649.885 4.14797 0.743037 0
M  V30 7253 H 648.609 3.01545 1.25453 0
M  V30 7254 H 647.268 3.57704 -0.802704 0
M  V30 7255 H 646.916 4.85408 1.31863 0
M  V30 7256 H 646.616 5.87497 -0.110154 0
M  V30 7257 H 648.14 6.05268 0.805182 0
M  V30 7258 H 649.554 5.55655 -1.41141 0
M  V30 7259 H 647.951 5.58233 -2.20217 0
M  V30 7260 H 649.021 4.18926 -2.4419 0
M  V30 7261 N 650.364 0.662433 1.43002 0
M  V30 7262 C 651.294 -0.00979809 2.33498 0
M  V30 7263 C 652.275 -0.802329 1.49989 0
M  V30 7264 O 653.46 -0.761964 1.78627 0
M  V30 7265 C 650.59 -0.970446 3.33466 0
M  V30 7266 C 649.544 -0.287383 4.27034 0
M  V30 7267 C 648.87 -1.36012 5.17112 0
M  V30 7268 C 650.17 0.82595 5.15728 0
M  V30 7269 H 651.864 0.745959 2.89958 0
M  V30 7270 H 649.41 0.360172 1.39423 0
M  V30 7271 H 651.363 -1.44971 3.95679 0
M  V30 7272 H 650.087 -1.75748 2.75282 0
M  V30 7273 H 648.746 0.17152 3.66199 0
M  V30 7274 H 648.394 -2.13882 4.55262 0
M  V30 7275 H 648.094 -0.908276 5.80538 0
M  V30 7276 H 649.618 -1.84056 5.82199 0
M  V30 7277 H 651.032 0.42845 5.71697 0
M  V30 7278 H 649.429 1.20282 5.87922 0
M  V30 7279 H 650.499 1.68003 4.54866 0
M  V30 7280 N 651.842 -1.52309 0.404946 0
M  V30 7281 C 652.774 -2.24579 -0.45791 0
M  V30 7282 C 653.787 -1.2739 -1.01369 0
M  V30 7283 O 654.976 -1.53363 -0.91335 0
M  V30 7284 C 652.076 -2.9608 -1.64893 0
M  V30 7285 C 651.249 -4.20106 -1.21777 0
M  V30 7286 C 650.308 -4.74468 -2.27523 0
M  V30 7287 O 649.334 -5.37157 -1.88285 0
M  V30 7288 N 650.536 -4.55678 -3.59635 0
M  V30 7289 H 653.301 -2.99265 0.161341 0
M  V30 7290 H 650.862 -1.60228 0.232107 0
M  V30 7291 H 652.854 -3.29344 -2.35191 0
M  V30 7292 H 651.424 -2.24606 -2.17419 0
M  V30 7293 H 650.644 -3.92704 -0.343071 0
M  V30 7294 H 651.932 -5.00658 -0.906596 0
M  V30 7295 H 651.33 -4.05673 -3.94266 0
M  V30 7296 H 649.887 -4.9339 -4.25922 0
M  V30 7297 N 653.32 -0.135238 -1.57019 0
M  V30 7298 C 654.23 0.822226 -2.19719 0
M  V30 7299 C 655.246 1.28057 -1.17802 0
M  V30 7300 O 656.422 1.3402 -1.50335 0
M  V30 7301 C 653.487 2.0484 -2.79717 0
M  V30 7302 C 652.548 1.64042 -3.96723 0
M  V30 7303 C 651.781 2.80814 -4.53849 0
M  V30 7304 O 652.004 3.967 -4.0986 0
M  V30 7305 O 650.938 2.56963 -5.44292 0
M  V30 7306 H 654.764 0.318552 -3.02025 0
M  V30 7307 H 652.349 0.0912021 -1.49121 0
M  V30 7308 H 654.231 2.76622 -3.17897 0
M  V30 7309 H 652.906 2.54182 -2.00432 0
M  V30 7310 H 651.813 0.893182 -3.63281 0
M  V30 7311 H 653.146 1.19426 -4.77492 0
M  V30 7312 N 654.798 1.5699 0.138552 0
M  V30 7313 C 655.745 1.98899 1.17081 0
M  V30 7314 C 656.715 0.857922 1.42228 0
M  V30 7315 O 657.9 1.12065 1.54422 0
M  V30 7316 C 655.04 2.38189 2.4972 0
M  V30 7317 C 654.153 3.64624 2.31674 0
M  V30 7318 C 653.288 3.9298 3.57407 0
M  V30 7319 C 652.327 5.1266 3.34435 0
M  V30 7320 N 651.464 5.36983 4.5232 0
M  V30 7321 H 656.304 2.86881 0.80642 0
M  V30 7322 H 653.841 1.41925 0.386727 0
M  V30 7323 H 655.799 2.59 3.2707 0
M  V30 7324 H 654.429 1.53275 2.84089 0
M  V30 7325 H 653.481 3.51542 1.45337 0
M  V30 7326 H 654.793 4.52131 2.10664 0
M  V30 7327 H 653.947 4.14335 4.43183 0
M  V30 7328 H 652.686 3.03912 3.8143 0
M  V30 7329 H 651.691 4.9117 2.47048 0
M  V30 7330 H 652.916 6.03288 3.11802 0
M  V30 7331 H 650.862 4.50871 4.76499 0
M  V30 7332 H 650.779 6.18775 4.34343 0
M  V30 7333 H 652.047 5.62842 5.39285 0
M  V30 7334 N 656.276 -0.40816 1.52223 0
M  V30 7335 C 657.506 -1.17501 1.69932 0
M  V30 7336 C 657.914 -1.84729 0.408874 0
M  V30 7337 O 657.257 -1.7274 -0.625025 0
M  V30 7338 C 657.319 -2.27994 2.77955 0
M  V30 7339 C 656.983 -1.80894 4.19674 0
M  V30 7340 C 657.98 -1.29618 5.03483 0
M  V30 7341 C 655.665 -1.87698 4.65913 0
M  V30 7342 C 657.659 -0.857695 6.31603 0
M  V30 7343 C 655.346 -1.43461 5.94022 0
M  V30 7344 C 656.344 -0.925822 6.76696 0
M  V30 7345 O 656.032 -0.489841 8.02406 0
M  V30 7346 H 655.764 -0.359065 0.572755 0
M  V30 7347 H 658.318 -0.486188 1.99563 0
M  V30 7348 H 656.548 -3.00243 2.43703 0
M  V30 7349 H 658.237 -2.89749 2.84254 0
M  V30 7350 H 659.003 -1.23733 4.68951 0
M  V30 7351 H 654.882 -2.26244 4.01665 0
M  V30 7352 H 658.426 -0.459879 6.96083 0
M  V30 7353 H 654.323 -1.49026 6.28062 0
M  V30 7354 H 655.091 -0.613062 8.16201 0
M  V30 7355 N 657.755 -1.42862 -0.66545 0
M  V30 7356 C 659.032 -1.3431 -1.42197 0
M  V30 7357 C 659.412 0.0150265 -2.11095 0
M  V30 7358 O 658.76 1.03101 -2.03918 0
M  V30 7359 C 658.97 -2.51783 -2.41674 0
M  V30 7360 C 660.318 -2.94321 -3.0604 0
M  V30 7361 O 661.342 -2.51741 -2.52001 0
M  V30 7362 O 660.201 -3.68047 -4.03985 0
M  V30 7363 H 657.295 -0.530159 -0.634713 0
M  V30 7364 H 659.841 -1.54888 -0.693386 0
M  V30 7365 H 658.613 -3.42282 -1.89627 0
M  V30 7366 H 658.236 -2.33241 -3.22001 0
M  V30 7367 N 659.233 0.902656 -1.29189 0
M  V30 7368 C 660.458 1.69167 -1.19989 0
M  V30 7369 C 660.883 1.86607 0.236495 0
M  V30 7370 O 660.241 1.38425 1.17082 0
M  V30 7371 C 660.289 3.05532 -1.91527 0
M  V30 7372 O 659.393 3.93621 -1.2303 0
M  V30 7373 H 658.734 0.517584 -0.415936 0
M  V30 7374 H 661.264 1.12785 -1.70706 0
M  V30 7375 H 661.274 3.55693 -1.99866 0
M  V30 7376 H 659.949 2.92156 -2.96003 0
M  V30 7377 H 658.526 3.52055 -1.22928 0
M  V30 7378 N 660.711 1.11618 1.11262 0
M  V30 7379 C 661.644 0.719995 2.16544 0
M  V30 7380 C 662.622 -0.28471 1.60088 0
M  V30 7381 O 663.806 -0.180693 1.87632 0
M  V30 7382 C 660.933 0.0643302 3.38639 0
M  V30 7383 C 659.979 1.03448 4.13764 0
M  V30 7384 S 660.812 2.55789 4.70459 0
M  V30 7385 C 661.968 1.91529 5.95875 0
M  V30 7386 H 662.201 1.61181 2.49816 0
M  V30 7387 H 659.734 0.934401 1.22916 0
M  V30 7388 H 661.692 -0.307609 4.09346 0
M  V30 7389 H 660.353 -0.804471 3.03623 0
M  V30 7390 H 659.546 0.523188 5.01277 0
M  V30 7391 H 659.148 1.34893 3.48826 0
M  V30 7392 H 661.44 1.25286 6.65815 0
M  V30 7393 H 662.383 2.77047 6.51652 0
M  V30 7394 H 662.791 1.37468 5.47506 0
M  V30 7395 N 662.189 -1.289 0.906776 0
M  V30 7396 C 663.435 -1.95558 0.53712 0
M  V30 7397 C 663.768 -1.71262 -0.915582 0
M  V30 7398 O 663.043 -1.02961 -1.65013 0
M  V30 7399 C 663.326 -3.50198 0.838645 0
M  V30 7400 C 663.179 -3.83923 2.34357 0
M  V30 7401 C 664.498 -4.38861 0.329988 0
M  V30 7402 H 661.617 -0.710289 0.196617 0
M  V30 7403 H 664.259 -1.52392 1.13475 0
M  V30 7404 H 662.409 -3.87096 0.330024 0
M  V30 7405 H 664.081 -3.56933 2.92227 0
M  V30 7406 H 662.324 -3.31215 2.80141 0
M  V30 7407 H 662.995 -4.91883 2.5051 0
M  V30 7408 H 665.471 -4.08996 0.765609 0
M  V30 7409 H 664.347 -5.45931 0.570105 0
M  V30 7410 H 664.608 -4.35352 -0.769511 0
M  V30 7411 N 663.667 -0.670007 -1.42649 0
M  V30 7412 C 664.599 0.0501746 -2.29145 0
M  V30 7413 C 665.612 0.770331 -1.43422 0
M  V30 7414 O 666.801 0.625288 -1.6719 0
M  V30 7415 C 663.901 1.09463 -3.20735 0
M  V30 7416 C 663.074 0.44926 -4.35087 0
M  V30 7417 C 662.133 1.39285 -5.07431 0
M  V30 7418 O 661.159 0.894997 -5.6212 0
M  V30 7419 N 662.361 2.72631 -5.12496 0
M  V30 7420 H 665.126 -0.692312 -2.91594 0
M  V30 7421 H 662.687 -0.514056 -1.53522 0
M  V30 7422 H 664.679 1.72705 -3.65999 0
M  V30 7423 H 663.249 1.73891 -2.59771 0
M  V30 7424 H 662.469 -0.362573 -3.92529 0
M  V30 7425 H 663.757 -0.000544776 -5.088 0
M  V30 7426 H 663.155 3.15623 -4.69467 0
M  V30 7427 H 661.712 3.31132 -5.61422 0
M  V30 7428 N 665.145 1.52092 -0.413018 0
M  V30 7429 C 666.37 2.06756 0.163338 0
M  V30 7430 C 666.795 1.28073 1.37764 0
M  V30 7431 O 666.153 0.312015 1.78595 0
M  V30 7432 C 666.201 3.57278 0.488322 0
M  V30 7433 O 665.305 3.80986 1.57871 0
M  V30 7434 H 664.646 0.663882 0.0125068 0
M  V30 7435 H 667.176 1.95988 -0.587339 0
M  V30 7436 H 667.186 4.01125 0.745836 0
M  V30 7437 H 665.861 4.13978 -0.399327 0
M  V30 7438 H 664.438 3.49017 1.31306 0
M  V30 7439 N 666.623 0.143563 1.56945 0
M  V30 7440 C 667.553 -0.7936 2.196 0
M  V30 7441 C 668.534 -1.25955 1.14321 0
M  V30 7442 O 669.719 -1.31773 1.42651 0
M  V30 7443 C 666.849 -2.03424 2.81489 0
M  V30 7444 C 665.803 -1.70519 3.92565 0
M  V30 7445 C 665.129 -3.01817 4.41373 0
M  V30 7446 C 666.429 -0.95449 5.13504 0
M  V30 7447 H 668.123 -0.271423 2.98167 0
M  V30 7448 H 665.669 -0.12911 1.4342 0
M  V30 7449 H 667.622 -2.69463 3.23987 0
M  V30 7450 H 666.346 -2.58008 2.00248 0
M  V30 7451 H 665.005 -1.06859 3.5068 0
M  V30 7452 H 664.653 -3.54386 3.56959 0
M  V30 7453 H 664.353 -2.80565 5.16292 0
M  V30 7454 H 665.877 -3.68934 4.86539 0
M  V30 7455 H 667.291 -1.5169 5.52868 0
M  V30 7456 H 665.688 -0.842035 5.94163 0
M  V30 7457 H 666.758 0.0544033 4.84869 0
M  V30 7458 N 668.101 -1.57061 -0.130224 0
M  V30 7459 C 669.011 -2.02802 -1.17934 0
M  V30 7460 C 670.027 -0.946378 -1.46013 0
M  V30 7461 O 671.203 -1.25708 -1.57351 0
M  V30 7462 C 668.268 -2.41368 -2.48882 0
M  V30 7463 C 667.329 -3.63561 -2.28301 0
M  V30 7464 C 666.562 -4.00279 -3.53005 0
M  V30 7465 O 666.785 -3.37463 -4.59864 0
M  V30 7466 O 665.719 -4.93441 -3.44673 0
M  V30 7467 H 669.545 -2.92394 -0.820958 0
M  V30 7468 H 667.13 -1.45475 -0.340197 0
M  V30 7469 H 669.012 -2.66958 -3.26054 0
M  V30 7470 H 667.687 -1.54926 -2.84217 0
M  V30 7471 H 666.594 -3.43136 -1.49025 0
M  V30 7472 H 667.927 -4.50673 -1.97875 0
M  V30 7473 N 669.579 0.400081 -1.52437 0
M  V30 7474 C 670.856 1.15973 -1.57511 0
M  V30 7475 C 671.236 2.0798 -0.361572 0
M  V30 7476 O 670.584 2.19032 0.650929 0
M  V30 7477 C 670.794 1.92912 -2.90837 0
M  V30 7478 C 672.142 2.48662 -3.44169 0
M  V30 7479 O 673.166 2.03081 -2.92637 0
M  V30 7480 O 672.025 3.31894 -4.34176 0
M  V30 7481 H 669.119 0.530023 -0.634827 0
M  V30 7482 H 671.665 0.40613 -1.64769 0
M  V30 7483 H 670.437 1.25564 -3.70607 0
M  V30 7484 H 670.06 2.75257 -2.86913 0
M  V30 7485 N 671.057 1.43213 0.657864 0
M  V30 7486 C 672.303 1.44798 1.41991 0
M  V30 7487 C 672.636 0.070256 1.94073 0
M  V30 7488 O 671.911 -0.908177 1.71995 0
M  V30 7489 C 672.194 2.4865 2.60471 0
M  V30 7490 C 672.047 3.95679 2.13911 0
M  V30 7491 C 673.366 2.49292 3.62686 0
M  V30 7492 H 670.485 0.527244 0.514959 0
M  V30 7493 H 673.127 1.74733 0.74621 0
M  V30 7494 H 671.277 2.23254 3.17946 0
M  V30 7495 H 672.949 4.32116 1.61472 0
M  V30 7496 H 671.192 4.08733 1.45325 0
M  V30 7497 H 671.863 4.6395 2.99089 0
M  V30 7498 H 674.339 2.71917 3.14961 0
M  V30 7499 H 673.215 3.23907 4.43143 0
M  V30 7500 H 673.476 1.52502 4.14964 0
M  V30 7501 N 672.536 -0.895792 1.29666 0
M  V30 7502 C 673.764 -1.68001 1.20761 0
M  V30 7503 C 674.179 -1.87379 -0.231187 0
M  V30 7504 O 673.536 -1.41359 -1.15429 0
M  V30 7505 C 673.587 -3.06236 1.92098 0
M  V30 7506 O 673.308 -2.8774 3.30359 0
M  V30 7507 C 674.809 -4.00652 1.89717 0
M  V30 7508 H 672.029 -0.524591 0.418384 0
M  V30 7509 H 674.573 -1.11995 1.71106 0
M  V30 7510 H 672.728 -3.59007 1.45578 0
M  V30 7511 H 673.142 -3.75359 3.66342 0
M  V30 7512 H 674.616 -4.95051 2.44189 0
M  V30 7513 H 675.093 -4.30424 0.873595 0
M  V30 7514 H 675.699 -3.53815 2.35998 0
M  V30 7515 N 674.014 -1.12206 -1.10668 0
M  V30 7516 C 674.977 -0.790867 -2.15123 0
M  V30 7517 C 675.977 0.193618 -1.5963 0
M  V30 7518 O 677.167 -0.0318728 -1.74171 0
M  V30 7519 C 674.299 -0.174797 -3.40452 0
M  V30 7520 H 675.492 -1.7163 -2.45933 0
M  V30 7521 H 673.045 -0.924993 -1.2599 0
M  V30 7522 H 673.78 0.760478 -3.15257 0
M  V30 7523 H 673.565 -0.88358 -3.82015 0
M  V30 7524 H 675.055 0.0405162 -4.1758 0
M  V30 7525 N 675.492 1.28418 -0.913599 0
M  V30 7526 C 676.424 2.26368 -0.359169 0
M  V30 7527 C 677.437 1.54858 0.502285 0
M  V30 7528 O 678.626 1.75659 0.31719 0
M  V30 7529 C 675.726 3.35112 0.50526 0
M  V30 7530 C 674.899 4.36126 -0.333648 0
M  V30 7531 C 673.958 5.24134 0.465845 0
M  V30 7532 O 672.984 5.6907 -0.121538 0
M  V30 7533 N 674.186 5.52892 1.76891 0
M  V30 7534 H 676.951 2.74579 -1.2011 0
M  V30 7535 H 674.512 1.41898 -0.779532 0
M  V30 7536 H 676.504 3.90926 1.04684 0
M  V30 7537 H 675.074 2.86611 1.2479 0
M  V30 7538 H 674.294 3.79776 -1.0566 0
M  V30 7539 H 675.582 5.00638 -0.907669 0
M  V30 7540 H 674.98 5.18217 2.26865 0
M  V30 7541 H 673.537 6.11464 2.25732 0
M  V30 7542 N 676.97 0.677563 1.42291 0
M  V30 7543 C 678.217 0.200975 2.015 0
M  V30 7544 C 678.545 -1.19342 1.53583 0
M  V30 7545 O 677.8 -1.81579 0.7299 0
M  V30 7546 C 678.099 0.187229 3.56909 0
M  V30 7547 C 677.765 1.52667 4.24268 0
M  V30 7548 C 676.427 1.89341 4.42384 0
M  V30 7549 C 678.779 2.40869 4.62203 0
M  V30 7550 C 676.107 3.13836 4.95705 0
M  V30 7551 C 678.459 3.64679 5.16906 0
M  V30 7552 C 677.123 4.01519 5.33234 0
M  V30 7553 H 676.393 0.0735418 0.737342 0
M  V30 7554 H 679.04 0.873095 1.70439 0
M  V30 7555 H 677.345 -0.568407 3.87655 0
M  V30 7556 H 679.042 -0.198773 4.00507 0
M  V30 7557 H 675.632 1.23138 4.1053 0
M  V30 7558 H 679.816 2.1382 4.47878 0
M  V30 7559 H 675.072 3.42396 5.06532 0
M  V30 7560 H 679.246 4.33224 5.45243 0
M  V30 7561 H 676.873 4.98062 5.74316 0
M  V30 7562 N 678.448 -1.51871 0.421078 0
M  V30 7563 C 679.358 -2.31077 -0.405069 0
M  V30 7564 C 680.374 -1.39301 -1.04265 0
M  V30 7565 O 681.55 -1.72376 -1.04157 0
M  V30 7566 C 678.615 -3.12556 -1.50032 0
M  V30 7567 C 677.676 -4.20088 -0.884559 0
M  V30 7568 C 676.909 -4.97673 -1.92762 0
M  V30 7569 O 677.132 -4.75696 -3.14753 0
M  V30 7570 O 676.066 -5.82203 -1.52719 0
M  V30 7571 H 679.892 -3.02742 0.241086 0
M  V30 7572 H 677.477 -1.48263 0.183991 0
M  V30 7573 H 679.359 -3.6326 -2.13589 0
M  V30 7574 H 678.034 -2.43672 -2.13086 0
M  V30 7575 H 676.941 -3.73502 -0.211379 0
M  V30 7576 H 678.274 -4.91298 -0.297763 0
M  V30 7577 N 679.926 -0.151884 -1.56866 0
M  V30 7578 C 681.151 0.508044 -2.01081 0
M  V30 7579 C 681.576 1.57306 -1.03134 0
M  V30 7580 O 680.934 1.81298 -0.0078309 0
M  V30 7581 C 680.982 1.08106 -3.44014 0
M  V30 7582 O 680.086 2.19577 -3.49084 0
M  V30 7583 H 679.427 0.123757 -0.652365 0
M  V30 7584 H 681.957 -0.250055 -2.03066 0
M  V30 7585 H 681.967 1.40851 -3.82916 0
M  V30 7586 H 680.642 0.301168 -4.14808 0
M  V30 7587 H 679.219 1.88023 -3.22027 0
M  V30 7588 N 681.404 1.57128 0.121893 0
M  V30 7589 C 682.634 1.88609 0.843227 0
M  V30 7590 C 683.042 0.740917 1.74089 0
M  V30 7591 O 682.385 -0.297426 1.81276 0
M  V30 7592 C 682.447 3.15073 1.73117 0
M  V30 7593 C 682.111 4.45742 1.0081 0
M  V30 7594 C 683.108 5.18719 0.350255 0
M  V30 7595 C 680.793 4.92444 0.99014 0
M  V30 7596 C 682.787 6.36617 -0.315889 0
M  V30 7597 C 680.474 6.10261 0.320196 0
M  V30 7598 C 681.472 6.82194 -0.331666 0
M  V30 7599 O 681.16 7.97769 -0.990927 0
M  V30 7600 H 680.892 0.628919 0.247865 0
M  V30 7601 H 683.446 2.05096 0.111725 0
M  V30 7602 H 681.676 2.9466 2.50424 0
M  V30 7603 H 683.365 3.32597 2.32667 0
M  V30 7604 H 684.131 4.83693 0.35577 0
M  V30 7605 H 680.01 4.36361 1.48695 0
M  V30 7606 H 683.554 6.92701 -0.825272 0
M  V30 7607 H 679.451 6.44743 0.312433 0
M  V30 7608 H 680.219 8.13591 -0.895113 0
M  V30 7609 N 682.882 -0.391992 1.52647 0
M  V30 7610 C 683.829 -1.47866 1.77213 0
M  V30 7611 C 684.799 -1.54286 0.615223 0
M  V30 7612 O 685.984 -1.7059 0.854622 0
M  V30 7613 C 683.124 -2.85129 1.94411 0
M  V30 7614 C 682.237 -2.87883 3.22098 0
M  V30 7615 C 681.372 -4.16553 3.29631 0
M  V30 7616 C 680.411 -4.13348 4.51453 0
M  V30 7617 N 679.548 -5.33619 4.56284 0
M  V30 7618 H 684.388 -1.26219 2.6995 0
M  V30 7619 H 681.925 -0.612367 1.33748 0
M  V30 7620 H 683.883 -3.64833 2.02367 0
M  V30 7621 H 682.513 -3.05232 1.05038 0
M  V30 7622 H 681.565 -2.00567 3.23229 0
M  V30 7623 H 682.877 -2.81382 4.11856 0
M  V30 7624 H 682.031 -5.0466 3.36753 0
M  V30 7625 H 680.77 -4.25773 2.37842 0
M  V30 7626 H 679.775 -3.23629 4.44459 0
M  V30 7627 H 681 -4.05754 5.44555 0
M  V30 7628 H 678.946 -5.43474 3.67385 0
M  V30 7629 H 678.863 -5.29182 5.3991 0
M  V30 7630 H 680.131 -6.23632 4.67657 0
M  V30 7631 N 684.36 -1.4356 -0.65026 0
M  V30 7632 C 685.323 -1.48615 -1.74489 0
M  V30 7633 C 686.323 -0.370483 -1.56474 0
M  V30 7634 O 687.513 -0.632351 -1.62317 0
M  V30 7635 C 684.645 -1.34161 -3.13391 0
M  V30 7636 H 685.838 -2.46103 -1.71387 0
M  V30 7637 H 683.391 -1.30369 -0.862186 0
M  V30 7638 H 684.126 -0.376918 -3.22102 0
M  V30 7639 H 683.911 -2.1504 -3.27872 0
M  V30 7640 H 685.401 -1.40637 -3.93206 0
M  V30 7641 N 685.838 0.888903 -1.30139 0
M  V30 7642 C 686.768 2.01046 -1.18755 0
M  V30 7643 C 687.749 1.69916 -0.0791438 0
M  V30 7644 O 688.934 1.92445 -0.260498 0
M  V30 7645 C 686.064 3.36109 -0.874518 0
M  V30 7646 C 685.018 3.81486 -1.94043 0
M  V30 7647 C 684.344 5.13796 -1.48047 0
M  V30 7648 C 685.644 4.00637 -3.35093 0
M  V30 7649 H 687.338 2.10828 -2.12584 0
M  V30 7650 H 684.884 1.01298 -1.02346 0
M  V30 7651 H 686.837 4.14089 -0.781548 0
M  V30 7652 H 685.561 3.26449 0.0994519 0
M  V30 7653 H 684.22 3.05731 -2.02297 0
M  V30 7654 H 683.868 5.0056 -0.494878 0
M  V30 7655 H 683.568 5.45127 -2.19341 0
M  V30 7656 H 685.092 5.94305 -1.40121 0
M  V30 7657 H 686.506 4.69067 -3.2962 0
M  V30 7658 H 684.903 4.43339 -4.04438 0
M  V30 7659 H 685.973 3.0462 -3.77273 0
M  V30 7660 N 687.317 1.12792 1.10072 0
M  V30 7661 C 688.545 0.908506 1.85886 0
M  V30 7662 C 688.96 -0.542408 1.80841 0
M  V30 7663 O 688.317 -1.37517 1.1998 0
M  V30 7664 C 688.368 1.37973 3.34134 0
M  V30 7665 O 688.089 2.77378 3.39106 0
M  V30 7666 C 689.59 1.1978 4.26811 0
M  V30 7667 H 686.81 0.3244 0.587372 0
M  V30 7668 H 689.354 1.49882 1.39125 0
M  V30 7669 H 687.509 0.832566 3.78348 0
M  V30 7670 H 687.923 2.98144 4.31521 0
M  V30 7671 H 689.397 1.57635 5.29014 0
M  V30 7672 H 689.874 0.138768 4.38981 0
M  V30 7673 H 690.48 1.73266 3.88406 0
M  V30 7674 N 688.795 -1.27931 0.920396 0
M  V30 7675 C 689.758 -2.25345 0.41858 0
M  V30 7676 C 690.758 -1.54116 -0.458798 0
M  V30 7677 O 691.948 -1.72235 -0.260912 0
M  V30 7678 C 689.08 -3.38556 -0.399104 0
M  V30 7679 H 690.273 -2.71251 1.27918 0
M  V30 7680 H 687.826 -1.39728 0.700406 0
M  V30 7681 H 688.561 -2.98021 -1.27882 0
M  V30 7682 H 688.346 -3.91426 0.229863 0
M  V30 7683 H 689.836 -4.10976 -0.740817 0
M  V30 7684 N 690.273 -0.685099 -1.4193 0
M  V30 7685 C 691.498 -0.218842 -2.06242 0
M  V30 7686 C 691.923 1.11923 -1.51178 0
M  V30 7687 O 691.281 1.69837 -0.634446 0
M  V30 7688 C 691.329 -0.175592 -3.60172 0
M  V30 7689 O 690.433 0.852776 -4.03487 0
M  V30 7690 H 689.774 -0.109531 -0.654904 0
M  V30 7691 H 692.304 -0.937013 -1.81882 0
M  V30 7692 H 692.314 -0.00291151 -4.08 0
M  V30 7693 H 690.989 -1.15222 -3.99621 0
M  V30 7694 H 689.566 0.650301 -3.67186 0
M  V30 7695 N 691.751 1.51645 -0.429126 0
M  V30 7696 C 692.661 2.31288 0.392809 0
M  V30 7697 C 693.677 1.39852 1.03525 0
M  V30 7698 O 694.853 1.72926 1.03241 0
M  V30 7699 C 691.918 3.13347 1.48372 0
M  V30 7700 C 690.979 4.20551 0.862268 0
M  V30 7701 C 690.212 4.98688 1.9012 0
M  V30 7702 O 690.435 4.77359 3.12225 0
M  V30 7703 O 689.369 5.83005 1.4963 0
M  V30 7704 H 693.195 3.02609 -0.257138 0
M  V30 7705 H 690.78 1.48163 -0.191851 0
M  V30 7706 H 692.662 3.64387 2.1166 0
M  V30 7707 H 691.337 2.44799 2.1179 0
M  V30 7708 H 690.244 3.73609 0.191568 0
M  V30 7709 H 691.577 4.91449 0.271704 0
M  V30 7710 N 693.229 0.160201 1.56784 0
M  V30 7711 C 694.478 -0.487619 1.95717 0
M  V30 7712 C 694.791 -1.65136 1.0483 0
M  V30 7713 O 695.997 -2.36468 1.33398 0
M  V30 7714 C 694.453 -0.91888 3.47972 0
M  V30 7715 C 694.061 0.218655 4.47466 0
M  V30 7716 C 695.805 -1.53575 3.95746 0
M  V30 7717 C 693.712 -0.231614 5.90946 0
M  V30 7718 H 692.642 -0.185939 0.730714 0
M  V30 7719 H 695.293 0.246657 1.81835 0
M  V30 7720 H 693.675 -1.70881 3.57234 0
M  V30 7721 H 694.849 0.995825 4.49911 0
M  V30 7722 H 693.164 0.744767 4.09685 0
M  V30 7723 H 695.761 -1.88448 5.00391 0
M  V30 7724 H 696.104 -2.42959 3.38048 0
M  V30 7725 H 696.637 -0.810467 3.89456 0
M  V30 7726 H 693.376 0.62718 6.52493 0
M  V30 7727 H 692.896 -0.974379 5.91833 0
M  V30 7728 H 694.575 -0.67922 6.43425 0
M  V30 7729 N 694.707 -1.5719 -0.113559 0
M  V30 7730 C 695.617 -2.04041 -1.15777 0
M  V30 7731 C 696.633 -0.961812 -1.45001 0
M  V30 7732 O 697.809 -1.2737 -1.56009 0
M  V30 7733 C 694.874 -2.43994 -2.46308 0
M  V30 7734 C 693.935 -3.65962 -2.24433 0
M  V30 7735 C 693.168 -4.04 -3.4874 0
M  V30 7736 O 693.391 -3.42321 -4.56259 0
M  V30 7737 O 692.325 -4.97069 -3.3942 0
M  V30 7738 H 696.151 -2.93248 -0.789899 0
M  V30 7739 H 693.736 -1.45828 -0.324748 0
M  V30 7740 H 695.618 -2.70401 -3.23204 0
M  V30 7741 H 694.293 -1.57932 -2.82558 0
M  V30 7742 H 693.2 -3.44697 -1.45377 0
M  V30 7743 H 694.533 -4.52746 -1.93084 0
M  V30 7744 N 696.185 0.383891 -1.52853 0
M  V30 7745 C 697.462 1.14296 -1.58732 0
M  V30 7746 C 697.842 2.07585 -0.383611 0
M  V30 7747 O 697.19 2.1971 0.627661 0
M  V30 7748 C 697.4 1.89816 -2.92867 0
M  V30 7749 C 698.748 2.44998 -3.46787 0
M  V30 7750 O 699.772 1.99966 -2.94774 0
M  V30 7751 O 698.631 3.2727 -4.37672 0
M  V30 7752 H 695.725 0.52326 -0.640413 0
M  V30 7753 H 698.271 0.388631 -1.6519 0
M  V30 7754 H 697.043 1.21626 -3.71918 0
M  V30 7755 H 696.666 2.72199 -2.89816 0
M  V30 7756 N 697.663 1.43903 0.642637 0
M  V30 7757 C 698.593 1.52697 1.76652 0
M  V30 7758 C 699.574 0.380816 1.65782 0
M  V30 7759 O 700.759 0.599432 1.84717 0
M  V30 7760 C 697.889 1.45975 3.15133 0
M  V30 7761 C 696.843 2.58949 3.40778 0
M  V30 7762 C 696.169 2.37279 4.79169 0
M  V30 7763 C 697.469 4.01153 3.34475 0
M  V30 7764 H 699.163 2.46766 1.69549 0
M  V30 7765 H 696.709 1.18767 0.814279 0
M  V30 7766 H 698.662 1.5073 3.93521 0
M  V30 7767 H 697.386 0.484162 3.22991 0
M  V30 7768 H 696.045 2.53564 2.64765 0
M  V30 7769 H 695.693 1.37939 4.83717 0
M  V30 7770 H 695.393 3.13016 4.97287 0
M  V30 7771 H 696.917 2.43834 5.59801 0
M  V30 7772 H 698.331 4.07968 4.02784 0
M  V30 7773 H 696.728 4.77001 3.64129 0
M  V30 7774 H 697.798 4.25539 2.32475 0
M  V30 7775 N 699.141 -0.881989 1.30609 0
M  V30 7776 C 700.088 -1.98803 1.17244 0
M  V30 7777 C 701.058 -1.65987 0.0611905 0
M  V30 7778 O 702.243 -1.89385 0.231911 0
M  V30 7779 C 699.383 -3.33867 0.87333 0
M  V30 7780 C 698.496 -3.79354 2.06675 0
M  V30 7781 C 697.631 -5.03078 1.70547 0
M  V30 7782 C 696.67 -5.40981 2.86366 0
M  V30 7783 N 695.807 -6.55886 2.50514 0
M  V30 7784 H 700.647 -2.09566 2.11863 0
M  V30 7785 H 698.184 -1.02607 1.05405 0
M  V30 7786 H 700.142 -4.11612 0.680519 0
M  V30 7787 H 698.772 -3.2278 -0.0359983 0
M  V30 7788 H 697.824 -2.97492 2.37071 0
M  V30 7789 H 699.136 -4.03382 2.93401 0
M  V30 7790 H 698.29 -5.88457 1.47658 0
M  V30 7791 H 697.029 -4.80927 0.809947 0
M  V30 7792 H 696.034 -4.54127 3.09917 0
M  V30 7793 H 697.259 -5.65104 3.76609 0
M  V30 7794 H 695.205 -6.35306 1.63471 0
M  V30 7795 H 695.122 -6.79799 3.30771 0
M  V30 7796 H 696.39 -7.44489 2.30989 0
M  V30 7797 N 700.619 -1.13374 -1.09472 0
M  V30 7798 C 701.549 -0.833268 -2.18126 0
M  V30 7799 C 702.53 0.207169 -1.68834 0
M  V30 7800 O 703.715 0.0662012 -1.94087 0
M  V30 7801 C 700.845 -0.297979 -3.46019 0
M  V30 7802 C 699.799 -1.27261 -4.08642 0
M  V30 7803 C 699.125 -0.597104 -5.31356 0
M  V30 7804 C 700.425 -2.63095 -4.51197 0
M  V30 7805 H 702.119 -1.74182 -2.43518 0
M  V30 7806 H 699.665 -0.838921 -1.17039 0
M  V30 7807 H 701.618 -0.0754444 -4.21332 0
M  V30 7808 H 700.342 0.645959 -3.20148 0
M  V30 7809 H 699.001 -1.48113 -3.35348 0
M  V30 7810 H 698.649 0.352293 -5.01765 0
M  V30 7811 H 698.349 -1.24734 -5.74208 0
M  V30 7812 H 699.873 -0.38384 -6.09392 0
M  V30 7813 H 701.287 -2.46214 -5.17737 0
M  V30 7814 H 699.684 -3.2429 -5.04932 0
M  V30 7815 H 700.754 -3.20793 -3.6362 0
M  V30 7816 N 702.098 1.27442 -0.927168 0
M  V30 7817 C 703.008 2.30599 -0.431448 0
M  V30 7818 C 704.024 1.67028 0.48761 0
M  V30 7819 O 705.2 1.97962 0.370546 0
M  V30 7820 C 702.265 3.45327 0.308292 0
M  V30 7821 C 701.326 4.24418 -0.645615 0
M  V30 7822 C 700.559 5.33667 0.0589164 0
M  V30 7823 O 700.782 5.5589 1.27838 0
M  V30 7824 O 699.716 5.98774 -0.612638 0
M  V30 7825 H 703.542 2.75036 -1.28797 0
M  V30 7826 H 701.127 1.32382 -0.692495 0
M  V30 7827 H 703.009 4.15107 0.725555 0
M  V30 7828 H 701.684 3.02945 1.14043 0
M  V30 7829 H 700.591 3.57174 -1.11255 0
M  V30 7830 H 701.924 4.70512 -1.44496 0
M  V30 7831 N 703.576 0.692616 1.41565 0
M  V30 7832 C 704.524 0.0139952 2.32596 0
M  V30 7833 C 705.518 -0.771691 1.50802 0
M  V30 7834 O 706.724 -0.677646 1.66757 0
M  V30 7835 H 703.099 -0.0142745 0.751865 0
M  V30 7836 H 705.07 0.798851 2.87508 0
M  V30 7837 C 703.819 -0.910602 3.35564 0
M  V30 7838 H 703.142 -0.315446 3.98554 0
M  V30 7839 H 704.582 -1.3538 4.01806 0
M  V30 7840 C 703.041 -2.02539 2.6922 0
M  V30 7841 O 703.571 -3.11386 2.53775 0
M  V30 7842 N 701.777 -1.80227 2.27962 0
M  V30 7843 H 701.324 -0.917054 2.40724 0
M  V30 7844 H 701.282 -2.55001 1.83907 0
M  V30 7845 N 705.054 -1.51416 0.437162 0
M  V30 7846 C 706.279 -2.0699 -0.130424 0
M  V30 7847 C 706.704 -1.30249 -1.35709 0
M  V30 7848 O 706.062 -0.340388 -1.78076 0
M  V30 7849 C 706.11 -3.5801 -0.43142 0
M  V30 7850 O 705.214 -3.8345 -1.5179 0
M  V30 7851 H 704.555 -0.663997 -0.00194339 0
M  V30 7852 H 707.085 -1.95029 0.618445 0
M  V30 7853 H 707.095 -4.02261 -0.681926 0
M  V30 7854 H 705.77 -4.13291 0.465137 0
M  V30 7855 H 704.347 -3.51062 -1.25737 0
M  V30 7856 N 706.532 -0.168513 -1.56696 0
M  V30 7857 C 707.757 0.486688 -2.01609 0
M  V30 7858 C 708.182 1.56203 -1.04796 0
M  V30 7859 O 707.54 1.8128 -0.0270596 0
M  V30 7860 C 707.588 1.04451 -3.45141 0
M  V30 7861 O 706.692 2.15862 -3.51393 0
M  V30 7862 H 706.033 0.116831 -0.653641 0
M  V30 7863 H 708.563 -0.271579 -2.0279 0
M  V30 7864 H 708.573 1.36782 -3.84389 0
M  V30 7865 H 707.248 0.257155 -4.15104 0
M  V30 7866 H 705.825 1.84597 -3.24004 0
M  V30 7867 N 708.01 1.57248 0.105221 0
M  V30 7868 C 708.94 2.04374 1.12931 0
M  V30 7869 C 709.921 0.93074 1.42377 0
M  V30 7870 O 711.106 1.20136 1.52581 0
M  V30 7871 C 708.236 2.45967 2.45189 0
M  V30 7872 C 707.19 3.60838 2.30174 0
M  V30 7873 C 706.516 3.88374 3.67518 0
M  V30 7874 C 707.816 4.92084 1.75073 0
M  V30 7875 H 709.51 2.9018 0.737287 0
M  V30 7876 H 707.056 1.39601 0.353211 0
M  V30 7877 H 709.009 2.77542 3.17094 0
M  V30 7878 H 707.733 1.57148 2.86308 0
M  V30 7879 H 706.392 3.29493 1.60716 0
M  V30 7880 H 706.04 2.96739 4.06147 0
M  V30 7881 H 705.74 4.65703 3.58321 0
M  V30 7882 H 707.264 4.22415 4.40906 0
M  V30 7883 H 708.678 5.22106 2.36809 0
M  V30 7884 H 707.075 5.73507 1.76662 0
M  V30 7885 H 708.145 4.79684 0.709347 0
M  V30 7886 N 709.488 -0.375779 1.53054 0
M  V30 7887 C 710.42 -1.47963 1.75042 0
M  V30 7888 C 711.433 -1.50073 0.631031 0
M  V30 7889 O 712.622 -1.53736 0.907052 0
M  V30 7890 C 709.722 -2.86767 1.80604 0
M  V30 7891 C 708.895 -3.08471 3.10104 0
M  V30 7892 C 707.954 -4.27332 3.07041 0
M  V30 7893 O 706.98 -4.22998 3.80869 0
M  V30 7894 N 708.182 -5.34214 2.27147 0
M  V30 7895 H 710.947 -1.29484 2.70285 0
M  V30 7896 H 708.508 -0.565416 1.51706 0
M  V30 7897 H 710.5 -3.64404 1.76045 0
M  V30 7898 H 709.07 -2.98542 0.926897 0
M  V30 7899 H 708.29 -2.18583 3.28048 0
M  V30 7900 H 709.578 -3.19834 3.95706 0
M  V30 7901 H 708.976 -5.40594 1.66656 0
M  V30 7902 H 707.533 -6.10467 2.28415 0
M  V30 7903 N 710.966 -1.44241 -0.634997 0
M  V30 7904 C 711.876 -1.53293 -1.77591 0
M  V30 7905 C 712.892 -0.418831 -1.68884 0
M  V30 7906 O 714.068 -0.675619 -1.8973 0
M  V30 7907 C 711.133 -1.47075 -3.13958 0
M  V30 7908 C 710.194 -2.69304 -3.34326 0
M  V30 7909 C 709.427 -2.63374 -4.64187 0
M  V30 7910 O 709.65 -1.69161 -5.44739 0
M  V30 7911 O 708.584 -3.54166 -4.86673 0
M  V30 7912 H 712.41 -2.49673 -1.72908 0
M  V30 7913 H 709.995 -1.26445 -0.795745 0
M  V30 7914 H 711.877 -1.46117 -3.95257 0
M  V30 7915 H 710.552 -0.538373 -3.19192 0
M  V30 7916 H 709.459 -2.75831 -2.52721 0
M  V30 7917 H 710.792 -3.61576 -3.33951 0
M  V30 7918 N 712.444 0.87505 -1.31075 0
M  V30 7919 C 713.391 1.98178 -1.18296 0
M  V30 7920 C 714.361 1.65952 -0.0699923 0
M  V30 7921 O 715.546 1.8926 -0.241951 0
M  V30 7922 C 712.686 3.33399 -0.891024 0
M  V30 7923 C 711.799 3.78253 -2.08684 0
M  V30 7924 C 710.934 5.02166 -1.73212 0
M  V30 7925 C 709.973 5.39455 -2.89231 0
M  V30 7926 N 709.11 6.54549 -2.53989 0
M  V30 7927 H 713.95 2.0844 -2.12971 0
M  V30 7928 H 711.487 1.02047 -1.05948 0
M  V30 7929 H 713.445 4.11246 -0.702338 0
M  V30 7930 H 712.075 3.22794 0.0188799 0
M  V30 7931 H 711.127 2.9623 -2.38646 0
M  V30 7932 H 712.439 4.01821 -2.95536 0
M  V30 7933 H 711.593 5.87666 -1.50777 0
M  V30 7934 H 710.332 4.80491 -0.83544 0
M  V30 7935 H 709.337 4.52477 -3.12321 0
M  V30 7936 H 710.562 5.63098 -3.79601 0
M  V30 7937 H 708.508 6.3443 -1.66838 0
M  V30 7938 H 708.425 6.78035 -3.34372 0
M  V30 7939 H 709.693 7.43254 -2.34934 0
M  V30 7940 N 713.922 1.13953 1.08869 0
M  V30 7941 C 714.885 0.824991 2.13838 0
M  V30 7942 C 715.885 -0.168198 1.59918 0
M  V30 7943 O 717.075 0.0595778 1.74098 0
M  V30 7944 C 714.207 0.228938 3.4013 0
M  V30 7945 H 715.4 1.75521 2.43171 0
M  V30 7946 H 712.953 0.94492 1.24503 0
M  V30 7947 H 713.688 -0.710227 3.16427 0
M  V30 7948 H 713.473 0.944243 3.80561 0
M  V30 7949 H 714.963 0.0259223 4.17592 0
M  V30 7950 N 715.4 -1.26948 0.933913 0
M  V30 7951 C 716.363 -2.24889 0.442457 0
M  V30 7952 C 717.363 -1.54594 -0.442426 0
M  V30 7953 O 718.553 -1.72502 -0.242629 0
M  V30 7954 C 715.685 -3.3896 -0.363173 0
M  V30 7955 H 716.878 -2.69879 1.30787 0
M  V30 7956 H 714.431 -1.38978 0.715187 0
M  V30 7957 H 715.166 -2.99361 -1.24714 0
M  V30 7958 H 714.951 -3.9116 0.271366 0
M  V30 7959 H 716.441 -4.11739 -0.697186 0
M  V30 7960 N 716.879 -0.700114 -1.41195 0
M  V30 7961 C 717.826 -0.0376652 -2.30769 0
M  V30 7962 C 718.796 0.766544 -1.47354 0
M  V30 7963 O 719.981 0.73365 -1.76131 0
M  V30 7964 C 717.121 0.889452 -3.33441 0
M  V30 7965 C 716.234 0.076373 -4.31932 0
M  V30 7966 C 715.369 1.00155 -5.21673 0
M  V30 7967 C 714.408 0.181644 -6.1183 0
M  V30 7968 N 713.545 1.06087 -6.94039 0
M  V30 7969 H 718.385 -0.80726 -2.86858 0
M  V30 7970 H 715.922 -0.409798 -1.41277 0
M  V30 7971 H 717.88 1.44107 -3.91522 0
M  V30 7972 H 716.51 1.6254 -2.78892 0
M  V30 7973 H 715.562 -0.592223 -3.75762 0
M  V30 7974 H 716.874 -0.559076 -4.95657 0
M  V30 7975 H 716.028 1.62223 -5.8461 0
M  V30 7976 H 714.767 1.67085 -4.58186 0
M  V30 7977 H 713.772 -0.452085 -5.47938 0
M  V30 7978 H 714.997 -0.483925 -6.77374 0
M  V30 7979 H 712.943 1.7161 -6.33156 0
M  V30 7980 H 712.86 0.481094 -7.54468 0
M  V30 7981 H 714.128 1.66822 -7.6144 0
M  V30 7982 N 718.357 1.51182 -0.445186 0
M  V30 7983 C 719.32 2.26501 0.350722 0
M  V30 7984 C 720.32 1.3025 0.942952 0
M  V30 7985 O 721.51 1.53897 0.816175 0
M  V30 7986 C 718.642 3.06274 1.49697 0
M  V30 7987 H 719.835 2.98299 -0.309474 0
M  V30 7988 H 717.388 1.55034 -0.198551 0
M  V30 7989 H 718.123 2.38911 2.19299 0
M  V30 7990 H 717.908 3.76979 1.0784 0
M  V30 7991 H 719.398 3.63306 2.05909 0
M  V30 7992 N 719.835 0.176821 1.56605 0
M  V30 7993 C 721.083 -0.465793 1.96659 0
M  V30 7994 C 721.404 -1.63406 1.06412 0
M  V30 7995 O 720.674 -1.95457 0.131603 0
M  V30 7996 H 719.254 -0.175072 0.726195 0
M  V30 7997 H 721.916 0.25929 1.93168 0
M  V30 7998 H 721.012 -0.822138 3.01077 0
M  V30 7999 N 721.313 -1.57302 -0.09688 0
M  V30 8000 C 722.26 -2.01933 -1.11766 0
M  V30 8001 C 723.23 -0.895329 -1.39904 0
M  V30 8002 O 724.415 -1.16119 -1.51397 0
M  V30 8003 C 721.555 -2.44726 -2.43317 0
M  V30 8004 C 720.668 -3.70639 -2.21925 0
M  V30 8005 C 719.803 -4.02318 -3.46862 0
M  V30 8006 C 718.842 -5.21346 -3.20725 0
M  V30 8007 N 717.979 -5.48787 -4.37924 0
M  V30 8008 H 722.819 -2.88919 -0.730075 0
M  V30 8009 H 720.356 -1.42901 -0.348962 0
M  V30 8010 H 722.314 -2.6758 -3.20088 0
M  V30 8011 H 720.944 -1.60753 -2.79926 0
M  V30 8012 H 719.996 -3.55271 -1.35965 0
M  V30 8013 H 721.308 -4.57557 -1.98603 0
M  V30 8014 H 720.462 -4.25939 -4.32042 0
M  V30 8015 H 719.201 -3.13918 -3.73238 0
M  V30 8016 H 718.206 -4.97547 -2.33938 0
M  V30 8017 H 719.431 -6.11343 -2.95697 0
M  V30 8018 H 717.377 -4.63346 -4.64378 0
M  V30 8019 H 717.294 -6.30073 -4.17785 0
M  V30 8020 H 718.562 -5.76943 -5.24173 0
M  V30 8021 N 722.791 0.367657 -1.53252 0
M  V30 8022 C 723.739 1.47061 -1.8021 0
M  V30 8023 C 724.733 1.55539 -0.671112 0
M  V30 8024 O 725.939 1.58451 -0.854014 0
M  V30 8025 H 722.314 0.489868 -0.570555 0
M  V30 8026 H 724.285 1.21527 -2.72532 0
M  V30 8027 C 723.034 2.83924 -2.00706 0
M  V30 8028 H 722.357 2.78158 -2.87172 0
M  V30 8029 H 723.797 3.60281 -2.23547 0
M  V30 8030 C 722.256 3.27613 -0.785568 0
M  V30 8031 O 722.786 4.01691 0.0267459 0
M  V30 8032 N 720.992 2.84134 -0.609597 0
M  V30 8033 H 720.539 2.24017 -1.27178 0
M  V30 8034 H 720.497 3.13723 0.206281 0
M  V30 8035 N 724.269 1.44576 0.627338 0
M  V30 8036 C 725.232 1.51372 1.72102 0
M  V30 8037 C 726.232 0.395329 1.55865 0
M  V30 8038 O 727.422 0.658094 1.61291 0
M  V30 8039 C 724.554 1.39129 3.11217 0
M  V30 8040 H 725.747 2.48798 1.6745 0
M  V30 8041 H 723.3 1.31724 0.841336 0
M  V30 8042 H 724.035 0.428114 3.21462 0
M  V30 8043 H 723.82 2.20229 3.24409 0
M  V30 8044 H 725.31 1.46874 3.90919 0
M  V30 8045 N 725.747 -0.868086 1.31537 0
M  V30 8046 C 726.657 -2.00801 1.21311 0
M  V30 8047 C 727.673 -1.73518 0.129431 0
M  V30 8048 O 728.849 -1.98378 0.347588 0
M  V30 8049 C 725.914 -3.3419 0.922935 0
M  V30 8050 C 724.975 -3.74783 2.0937 0
M  V30 8051 C 724.208 -5.01807 1.81728 0
M  V30 8052 O 724.431 -5.65404 0.753313 0
M  V30 8053 O 723.365 -5.39213 2.67457 0
M  V30 8054 H 727.191 -2.12361 2.17109 0
M  V30 8055 H 724.776 -0.996684 1.11295 0
M  V30 8056 H 726.658 -4.14174 0.777033 0
M  V30 8057 H 725.333 -3.237 -0.00500301 0
M  V30 8058 H 724.24 -2.95432 2.29501 0
M  V30 8059 H 725.573 -3.89902 3.00396 0
M  V30 8060 N 727.225 -1.14528 -1.08264 0
M  V30 8061 C 728.502 -0.825185 -1.77342 0
M  V30 8062 C 728.882 0.681037 -1.99813 0
M  V30 8063 O 728.23 1.62234 -1.60912 0
M  V30 8064 C 728.44 -1.62556 -3.08831 0
M  V30 8065 C 729.788 -1.82585 -3.83338 0
M  V30 8066 O 730.812 -1.59254 -3.18617 0
M  V30 8067 O 729.671 -2.21598 -4.99556 0
M  V30 8068 H 726.765 -0.302531 -0.769678 0
M  V30 8069 H 729.311 -1.25056 -1.14713 0
M  V30 8070 H 728.083 -2.64862 -2.88035 0
M  V30 8071 H 727.706 -1.1959 -3.79189 0
M  V30 8072 N 728.703 1.26451 -0.940633 0
M  V30 8073 C 729.949 1.94065 -0.58878 0
M  V30 8074 C 730.282 1.7363 0.869853 0
M  V30 8075 O 729.557 1.073 1.62225 0
M  V30 8076 C 729.84 3.47852 -0.931199 0
M  V30 8077 C 729.693 3.77575 -2.44453 0
M  V30 8078 C 731.012 4.37832 -0.446229 0
M  V30 8079 H 728.131 0.704827 -0.21538 0
M  V30 8080 H 730.773 1.4933 -1.17475 0
M  V30 8081 H 728.923 3.86085 -0.432539 0
M  V30 8082 H 730.595 3.49059 -3.01588 0
M  V30 8083 H 728.838 3.23671 -2.88825 0
M  V30 8084 H 729.509 4.85068 -2.63464 0
M  V30 8085 H 731.985 4.06822 -0.873778 0
M  V30 8086 H 730.861 5.44228 -0.714648 0
M  V30 8087 H 731.122 4.37239 0.653815 0
M  V30 8088 N 730.181 0.707592 1.40822 0
M  V30 8089 C 731.113 0.0105968 2.29198 0
M  V30 8090 C 732.126 -0.732035 1.45414 0
M  V30 8091 O 733.315 -0.580741 1.68789 0
M  V30 8092 C 730.415 -1.00921 3.23525 0
M  V30 8093 C 729.588 -0.333747 4.36125 0
M  V30 8094 C 728.647 -1.25783 5.10945 0
M  V30 8095 O 727.673 -0.745646 5.64295 0
M  V30 8096 N 728.875 -2.58947 5.19545 0
M  V30 8097 H 731.64 0.76938 2.89656 0
M  V30 8098 H 729.201 0.554579 1.52105 0
M  V30 8099 H 731.193 -1.6294 3.70449 0
M  V30 8100 H 729.763 -1.66942 2.6429 0
M  V30 8101 H 728.983 0.466518 3.9143 0
M  V30 8102 H 730.271 0.135444 5.0862 0
M  V30 8103 H 729.669 -3.03065 4.7767 0
M  V30 8104 H 728.226 -3.16131 5.70004 0
M  V30 8105 N 731.66 -1.50943 0.453197 0
M  V30 8106 C 732.61 -2.25003 -0.368467 0
M  V30 8107 C 733.594 -1.27864 -0.976714 0
M  V30 8108 O 734.786 -1.52867 -0.892228 0
M  V30 8109 C 731.915 -3.10701 -1.46014 0
M  V30 8110 C 731.001 -4.15278 -0.860506 0
M  V30 8111 N 731.392 -5.05799 0.00849611 0
M  V30 8112 C 729.69 -4.31542 -1.1264 0
M  V30 8113 C 730.391 -5.80664 0.346951 0
M  V30 8114 N 729.367 -5.42912 -0.273426 0
M  V30 8115 H 733.169 -2.92352 0.301246 0
M  V30 8116 H 730.683 -1.60203 0.266233 0
M  V30 8117 H 732.68 -3.62348 -2.06179 0
M  V30 8118 H 731.34 -2.44898 -2.13202 0
M  V30 8119 H 732.351 -5.16533 0.376077 0
M  V30 8120 H 729.028 -3.76962 -1.7946 0
M  V30 8121 H 730.418 -6.63565 1.05507 0
M  V30 8122 N 733.138 -0.185124 -1.56509 0
M  V30 8123 C 734.07 0.771401 -2.15829 0
M  V30 8124 C 735.083 1.18392 -1.11747 0
M  V30 8125 O 736.272 1.12137 -1.38879 0
M  V30 8126 C 733.372 2.05169 -2.69739 0
M  V30 8127 C 732.545 1.80056 -3.98621 0
M  V30 8128 C 731.604 2.92435 -4.37456 0
M  V30 8129 O 730.63 2.62473 -5.05071 0
M  V30 8130 N 731.832 4.20554 -4.00143 0
M  V30 8131 H 734.597 0.264184 -2.98533 0
M  V30 8132 H 732.158 -0.00281069 -1.619 0
M  V30 8133 H 734.15 2.7947 -2.92709 0
M  V30 8134 H 732.72 2.47041 -1.91545 0
M  V30 8135 H 731.94 0.895862 -3.83885 0
M  V30 8136 H 733.228 1.60662 -4.82768 0
M  V30 8137 H 732.626 4.47753 -3.45736 0
M  V30 8138 H 731.183 4.91514 -4.28085 0
M  V30 8139 N 734.616 1.57351 0.0885366 0
M  V30 8140 C 735.865 1.85604 0.789556 0
M  V30 8141 C 736.178 0.775352 1.79576 0
M  V30 8142 O 737.384 0.945206 2.54515 0
M  V30 8143 C 735.84 3.29175 1.45506 0
M  V30 8144 C 735.448 4.45331 0.488278 0
M  V30 8145 C 737.192 3.66646 2.13942 0
M  V30 8146 C 735.099 5.79937 1.15874 0
M  V30 8147 H 734.029 0.692346 0.298619 0
M  V30 8148 H 736.68 1.83451 0.0425821 0
M  V30 8149 H 735.062 3.25889 2.24972 0
M  V30 8150 H 736.236 4.59977 -0.275359 0
M  V30 8151 H 734.551 4.16301 -0.0907363 0
M  V30 8152 H 737.148 4.64498 2.6485 0
M  V30 8153 H 737.491 2.956 2.93132 0
M  V30 8154 H 738.024 3.71848 1.41328 0
M  V30 8155 H 734.763 6.54232 0.407508 0
M  V30 8156 H 734.283 5.69123 1.89364 0
M  V30 8157 H 735.962 6.24718 1.68336 0
M  V30 8158 N 736.094 -0.359525 1.53444 0
M  V30 8159 C 737.024 -1.44662 1.8329 0
M  V30 8160 C 738.005 -1.55617 0.68683 0
M  V30 8161 O 739.19 -1.70086 0.93725 0
M  V30 8162 C 736.32 -2.81923 2.02822 0
M  V30 8163 C 735.274 -2.85787 3.18606 0
M  V30 8164 C 734.6 -4.25781 3.23442 0
M  V30 8165 C 735.9 -2.52762 4.57065 0
M  V30 8166 H 737.594 -1.19934 2.74329 0
M  V30 8167 H 735.14 -0.575517 1.31999 0
M  V30 8168 H 737.093 -3.58005 2.22285 0
M  V30 8169 H 735.817 -3.08051 1.085 0
M  V30 8170 H 734.476 -2.12157 2.98973 0
M  V30 8171 H 734.124 -4.48994 2.26745 0
M  V30 8172 H 733.824 -4.29281 4.01238 0
M  V30 8173 H 735.348 -5.03727 3.45096 0
M  V30 8174 H 736.762 -3.18557 4.76649 0
M  V30 8175 H 735.159 -2.67569 5.37147 0
M  V30 8176 H 736.229 -1.47993 4.61764 0
M  V30 8177 N 737.572 -1.44907 -0.619662 0
M  V30 8178 C 738.535 -1.52282 -1.71297 0
M  V30 8179 C 739.535 -0.40359 -1.55653 0
M  V30 8180 O 740.725 -0.666638 -1.6094 0
M  V30 8181 C 737.857 -1.40778 -3.10474 0
M  V30 8182 H 739.05 -2.49683 -1.66128 0
M  V30 8183 H 736.603 -1.32168 -0.834339 0
M  V30 8184 H 737.338 -0.445156 -3.2123 0
M  V30 8185 H 737.123 -2.21947 -3.23237 0
M  V30 8186 H 738.613 -1.48946 -3.90135 0
M  V30 8187 N 739.05 0.861098 -1.31996 0
M  V30 8188 C 740.278 1.6474 -1.25173 0
M  V30 8189 C 740.693 1.87926 0.181425 0
M  V30 8190 O 740.05 1.4437 1.1164 0
M  V30 8191 C 740.101 3.01036 -2.0015 0
M  V30 8192 O 739.822 2.7888 -3.37872 0
M  V30 8193 C 741.323 3.95481 -2.00273 0
M  V30 8194 H 738.543 0.513314 -0.432146 0
M  V30 8195 H 741.087 1.07419 -1.74016 0
M  V30 8196 H 739.242 3.55021 -1.55046 0
M  V30 8197 H 739.656 3.65514 -3.76165 0
M  V30 8198 H 741.13 4.88403 -2.57229 0
M  V30 8199 H 741.607 4.27957 -0.987407 0
M  V30 8200 H 742.213 3.47433 -2.45296 0
M  V30 8201 N 740.528 1.15101 1.07655 0
M  V30 8202 C 741.438 0.858869 2.18313 0
M  V30 8203 C 742.454 -0.163641 1.73229 0
M  V30 8204 O 743.63 0.00969541 2.01398 0
M  V30 8205 C 740.695 0.34893 3.4494 0
M  V30 8206 C 739.756 1.43495 4.04608 0
M  V30 8207 C 738.989 0.949253 5.2519 0
M  V30 8208 O 739.212 -0.20636 5.70027 0
M  V30 8209 O 738.146 1.73161 5.76454 0
M  V30 8210 H 741.972 1.78386 2.45788 0
M  V30 8211 H 739.557 0.929876 1.16934 0
M  V30 8212 H 741.439 0.070851 4.2134 0
M  V30 8213 H 740.114 -0.548237 3.19024 0
M  V30 8214 H 739.021 1.7666 3.29761 0
M  V30 8215 H 740.354 2.30692 4.3479 0
M  V30 8216 N 742.006 -1.2595 0.947325 0
M  V30 8217 C 743.231 -1.98083 0.614633 0
M  V30 8218 C 743.656 -1.70013 -0.804815 0
M  V30 8219 O 743.014 -0.95175 -1.54309 0
M  V30 8220 C 743.062 -3.4993 0.870706 0
M  V30 8221 O 742.166 -4.12364 -0.0541451 0
M  V30 8222 H 741.507 -0.621232 0.234451 0
M  V30 8223 H 744.037 -1.60259 1.27193 0
M  V30 8224 H 744.047 -4.00198 0.794051 0
M  V30 8225 H 742.722 -3.69691 1.90529 0
M  V30 8226 H 741.299 -3.72826 0.0740917 0
M  V30 8227 N 743.484 -0.715051 -1.40445 0
M  V30 8228 C 744.709 -0.26254 -2.05732 0
M  V30 8229 C 745.134 1.08691 -1.53519 0
M  V30 8230 O 744.492 1.68453 -0.670328 0
M  V30 8231 C 744.54 -0.25195 -3.59719 0
M  V30 8232 O 743.644 0.766998 -4.05205 0
M  V30 8233 H 742.985 -0.123398 -0.652433 0
M  V30 8234 H 745.515 -0.975382 -1.79854 0
M  V30 8235 H 745.525 -0.0894537 -4.07902 0
M  V30 8236 H 744.2 -1.23672 -3.97087 0
M  V30 8237 H 742.777 0.572269 -3.68483 0
M  V30 8238 N 744.962 1.50701 -0.461195 0
M  V30 8239 C 745.91 2.29918 0.352231 0
M  V30 8240 C 746.904 1.36778 0.999403 0
M  V30 8241 O 748.11 1.54015 0.931639 0
M  V30 8242 H 744.485 0.740249 0.132423 0
M  V30 8243 H 746.456 2.96497 -0.336424 0
M  V30 8244 C 745.205 3.17052 1.42736 0
M  V30 8245 H 744.528 3.88623 0.938747 0
M  V30 8246 H 745.968 3.75493 1.96928 0
M  V30 8247 C 744.427 2.3399 2.42384 0
M  V30 8248 O 744.957 2.01608 3.47444 0
M  V30 8249 N 743.163 1.96758 2.13857 0
M  V30 8250 H 742.71 2.23292 1.28447 0
M  V30 8251 H 742.668 1.41484 2.80766 0
M  V30 8252 N 746.441 0.193421 1.56409 0
M  V30 8253 C 747.373 -0.759944 2.16235 0
M  V30 8254 C 748.386 -1.17797 1.12373 0
M  V30 8255 O 749.575 -1.11399 1.39472 0
M  V30 8256 C 746.675 -2.03735 2.70823 0
M  V30 8257 C 745.848 -1.77939 3.9957 0
M  V30 8258 C 744.907 -2.90111 4.39001 0
M  V30 8259 O 743.933 -2.59791 5.06456 0
M  V30 8260 N 745.135 -4.18426 4.02368 0
M  V30 8261 H 747.9 -0.248348 2.98669 0
M  V30 8262 H 745.461 0.0113966 1.61896 0
M  V30 8263 H 747.453 -2.77914 2.94187 0
M  V30 8264 H 746.023 -2.46022 1.92852 0
M  V30 8265 H 745.243 -0.875491 3.84355 0
M  V30 8266 H 746.531 -1.58099 4.83614 0
M  V30 8267 H 745.929 -4.45913 3.48106 0
M  V30 8268 H 744.486 -4.89237 4.30686 0
M  V30 8269 N 747.919 -1.57396 -0.0801906 0
M  V30 8270 C 748.829 -2.06451 -1.11423 0
M  V30 8271 C 749.845 -0.992352 -1.42928 0
M  V30 8272 O 751.021 -1.30651 -1.53272 0
M  V30 8273 C 748.086 -2.49164 -2.41077 0
M  V30 8274 C 747.147 -3.70641 -2.16619 0
M  V30 8275 C 746.38 -4.11307 -3.40092 0
M  V30 8276 O 746.603 -3.51922 -4.48895 0
M  V30 8277 O 745.537 -5.04157 -3.288 0
M  V30 8278 H 749.363 -2.94857 -0.727519 0
M  V30 8279 H 746.948 -1.46484 -0.293743 0
M  V30 8280 H 748.83 -2.77196 -3.17396 0
M  V30 8281 H 747.505 -1.6389 -2.79145 0
M  V30 8282 H 746.412 -3.47703 -1.38033 0
M  V30 8283 H 747.745 -4.5674 -1.83437 0
M  V30 8284 N 749.397 0.351382 -1.53633 0
M  V30 8285 C 750.627 1.11113 -1.74176 0
M  V30 8286 C 751.035 1.83084 -0.477154 0
M  V30 8287 O 750.378 1.74941 0.560483 0
M  V30 8288 C 750.44 2.17521 -2.86225 0
M  V30 8289 C 750.104 1.65193 -4.26099 0
M  V30 8290 C 751.101 1.10842 -5.07947 0
M  V30 8291 C 748.786 1.70277 -4.72558 0
M  V30 8292 C 750.78 0.622689 -6.34351 0
M  V30 8293 C 748.467 1.21316 -5.98937 0
M  V30 8294 C 749.465 0.674033 -6.79666 0
M  V30 8295 O 749.153 0.191696 -8.03671 0
M  V30 8296 H 748.885 0.33756 -0.585687 0
M  V30 8297 H 751.439 0.411786 -2.0123 0
M  V30 8298 H 749.669 2.90991 -2.54678 0
M  V30 8299 H 751.358 2.78999 -2.94812 0
M  V30 8300 H 752.124 1.06243 -4.7322 0
M  V30 8301 H 748.003 2.11181 -4.09785 0
M  V30 8302 H 751.547 0.201216 -6.9731 0
M  V30 8303 H 747.444 1.25613 -6.3316 0
M  V30 8304 H 748.212 0.309712 -8.17914 0
M  V30 8305 N 750.875 1.45233 0.611969 0
M  V30 8306 C 752.121 1.49242 1.37312 0
M  V30 8307 C 752.454 0.131963 1.93751 0
M  V30 8308 O 751.729 -0.852999 1.74798 0
M  V30 8309 C 752.012 2.56811 2.52428 0
M  V30 8310 C 751.865 4.02284 2.01215 0
M  V30 8311 C 753.184 2.60705 3.54572 0
M  V30 8312 H 750.303 0.54336 0.497925 0
M  V30 8313 H 752.945 1.77019 0.690242 0
M  V30 8314 H 751.095 2.33256 3.10683 0
M  V30 8315 H 752.767 4.37035 1.47643 0
M  V30 8316 H 751.01 4.1315 1.32248 0
M  V30 8317 H 751.681 4.7323 2.84178 0
M  V30 8318 H 754.157 2.81799 3.06151 0
M  V30 8319 H 753.033 3.37841 4.32614 0
M  V30 8320 H 753.294 1.65627 4.09903 0
M  V30 8321 N 752.353 -0.854086 1.3245 0
M  V30 8322 C 753.769 -1.14238 1.11453 0
M  V30 8323 C 753.969 -2.01228 -0.10461 0
M  V30 8324 O 753.025 -2.39845 -0.789339 0
M  V30 8325 C 754.338 -1.81916 2.39431 0
M  V30 8326 C 755.886 -1.94549 2.45193 0
M  V30 8327 C 756.361 -2.65642 3.73093 0
M  V30 8328 N 757.852 -2.73167 3.74078 0
M  V30 8329 C 758.587 -3.28828 4.69744 0
M  V30 8330 N 758.083 -3.85295 5.75778 0
M  V30 8331 N 759.876 -3.26936 4.57241 0
M  V30 8332 H 752.027 -0.274786 2.10615 0
M  V30 8333 H 754.29 -0.184375 0.929898 0
M  V30 8334 H 753.996 -1.25452 3.28565 0
M  V30 8335 H 753.87 -2.82068 2.50434 0
M  V30 8336 H 756.257 -2.50172 1.56518 0
M  V30 8337 H 756.338 -0.933914 2.38142 0
M  V30 8338 H 755.982 -2.10683 4.62142 0
M  V30 8339 H 755.912 -3.6724 3.77415 0
M  V30 8340 H 758.403 -2.33108 2.97438 0
M  V30 8341 H 758.716 -4.25925 6.44832 0
M  V30 8342 H 757.061 -3.83625 5.79531 0
M  V30 8343 H 760.252 -2.8207 3.7357 0
M  V30 8344 H 760.425 -3.70014 5.31971 0
M  V30 8345 N 753.831 -1.1567 -1.07043 0
M  V30 8346 C 754.764 -0.799867 -2.13723 0
M  V30 8347 C 755.742 0.225098 -1.61034 0
M  V30 8348 O 756.926 0.11093 -1.88173 0
M  V30 8349 C 754.053 -0.18997 -3.38167 0
M  V30 8350 C 753.099 -1.18733 -4.0964 0
M  V30 8351 S 753.932 -2.73074 -4.60642 0
M  V30 8352 C 755.088 -2.13512 -5.88356 0
M  V30 8353 H 755.321 -1.70342 -2.43661 0
M  V30 8354 H 752.854 -0.979377 -1.19363 0
M  V30 8355 H 754.812 0.155471 -4.10205 0
M  V30 8356 H 753.473 0.691229 -3.064 0
M  V30 8357 H 752.666 -0.708873 -4.9899 0
M  V30 8358 H 752.268 -1.47747 -3.43579 0
M  V30 8359 H 754.56 -1.49911 -6.60706 0
M  V30 8360 H 755.503 -3.01042 -6.40921 0
M  V30 8361 H 755.911 -1.57693 -5.42027 0
M  V30 8362 N 755.309 1.25446 -0.953992 0
M  V30 8363 C 756.239 2.28264 -0.491717 0
M  V30 8364 C 757.22 1.63717 0.461617 0
M  V30 8365 O 758.405 1.90821 0.36071 0
M  V30 8366 C 755.535 3.46525 0.231915 0
M  V30 8367 C 754.489 4.23247 -0.636098 0
M  V30 8368 C 753.815 5.34254 0.218238 0
M  V30 8369 C 755.115 4.85971 -1.91389 0
M  V30 8370 H 756.809 2.67183 -1.35106 0
M  V30 8371 H 754.355 1.2844 -0.651095 0
M  V30 8372 H 756.308 4.17576 0.566439 0
M  V30 8373 H 755.032 3.06594 1.12551 0
M  V30 8374 H 753.691 3.53978 -0.953696 0
M  V30 8375 H 753.339 4.90564 1.11156 0
M  V30 8376 H 753.039 5.86501 -0.359232 0
M  V30 8377 H 754.563 6.08138 0.547743 0
M  V30 8378 H 755.977 5.49168 -1.64581 0
M  V30 8379 H 754.374 5.48391 -2.43696 0
M  V30 8380 H 755.444 4.08192 -2.61738 0
M  V30 8381 N 756.787 0.722489 1.40064 0
M  V30 8382 C 757.717 0.0892452 2.33329 0
M  V30 8383 C 758.698 -0.737992 1.53257 0
M  V30 8384 O 759.883 -0.685516 1.81698 0
M  V30 8385 C 757.013 -0.828139 3.37282 0
M  V30 8386 C 755.967 -0.106005 4.27869 0
M  V30 8387 C 755.293 -1.13957 5.22415 0
M  V30 8388 C 756.593 1.04395 5.11761 0
M  V30 8389 H 758.287 0.868269 2.86534 0
M  V30 8390 H 755.833 0.418982 1.3777 0
M  V30 8391 H 757.786 -1.28058 4.01471 0
M  V30 8392 H 756.51 -1.63914 2.82489 0
M  V30 8393 H 755.169 0.326683 3.65142 0
M  V30 8394 H 754.817 -1.9438 4.63924 0
M  V30 8395 H 754.517 -0.661233 5.83868 0
M  V30 8396 H 756.041 -1.59197 5.89482 0
M  V30 8397 H 757.455 0.670541 5.69365 0
M  V30 8398 H 755.852 1.4511 5.82291 0
M  V30 8399 H 756.922 1.87144 4.47331 0
M  V30 8400 N 758.265 -1.50454 0.469181 0
M  V30 8401 C 759.542 -1.9504 -0.147955 0
M  V30 8402 C 759.922 -1.40946 -1.57154 0
M  V30 8403 O 759.27 -0.609663 -2.20217 0
M  V30 8404 C 759.48 -3.48875 -0.0932198 0
M  V30 8405 C 760.828 -4.23655 -0.283056 0
M  V30 8406 O 761.852 -3.55795 -0.169892 0
M  V30 8407 O 760.711 -5.44102 -0.511396 0
M  V30 8408 H 757.805 -0.819283 -0.11271 0
M  V30 8409 H 760.351 -1.6123 0.529446 0
M  V30 8410 H 759.123 -3.80791 0.900784 0
M  V30 8411 H 758.746 -3.89217 -0.812161 0
M  V30 8412 N 759.743 -0.201713 -1.56304 0
M  V30 8413 C 760.673 0.71155 -2.22394 0
M  V30 8414 C 761.654 1.21625 -1.18917 0
M  V30 8415 O 762.839 1.26388 -1.47444 0
M  V30 8416 C 759.969 1.92837 -2.88845 0
M  V30 8417 C 758.923 1.55831 -3.98623 0
M  V30 8418 C 758.249 2.85228 -4.52271 0
M  V30 8419 C 759.549 0.763249 -5.16693 0
M  V30 8420 H 761.243 0.160573 -2.98969 0
M  V30 8421 H 758.789 0.0757916 -1.438 0
M  V30 8422 H 760.742 2.57253 -3.33764 0
M  V30 8423 H 759.466 2.50398 -2.09686 0
M  V30 8424 H 758.125 0.9377 -3.54405 0
M  V30 8425 H 757.773 3.40893 -3.69866 0
M  V30 8426 H 757.473 2.6121 -5.26349 0
M  V30 8427 H 758.997 3.50622 -4.99897 0
M  V30 8428 H 760.411 1.31066 -5.58117 0
M  V30 8429 H 758.808 0.620935 -5.96879 0
M  V30 8430 H 759.878 -0.234322 -4.84334 0
M  V30 8431 N 761.222 1.57436 0.0718424 0
M  V30 8432 C 762.154 2.00412 1.1121 0
M  V30 8433 C 763.167 0.910074 1.34987 0
M  V30 8434 O 764.356 1.18796 1.33228 0
M  V30 8435 C 761.456 2.32786 2.46301 0
M  V30 8436 C 760.629 3.64036 2.4248 0
M  V30 8437 C 759.688 3.8408 3.59679 0
M  V30 8438 O 758.714 4.55667 3.4111 0
M  V30 8439 N 759.916 3.2643 4.80025 0
M  V30 8440 H 762.681 2.90264 0.746118 0
M  V30 8441 H 760.242 1.59791 0.260495 0
M  V30 8442 H 762.234 2.43368 3.23348 0
M  V30 8443 H 760.804 1.48824 2.74901 0
M  V30 8444 H 760.024 3.64208 1.50818 0
M  V30 8445 H 761.312 4.50217 2.37027 0
M  V30 8446 H 760.71 2.68325 4.98014 0
M  V30 8447 H 759.267 3.42461 5.54584 0
M  V30 8448 N 762.7 -0.34323 1.53817 0
M  V30 8449 C 763.928 -1.10348 1.75017 0
M  V30 8450 C 764.343 -1.82345 0.489475 0
M  V30 8451 O 763.7 -1.74362 -0.538886 0
M  V30 8452 C 763.751 -2.11672 2.93048 0
M  V30 8453 O 763.472 -1.42603 4.14241 0
M  V30 8454 C 764.973 -3.0007 3.26301 0
M  V30 8455 H 762.193 -0.329056 0.584776 0
M  V30 8456 H 764.737 -0.395339 2.00642 0
M  V30 8457 H 762.892 -2.78051 2.69753 0
M  V30 8458 H 763.306 -2.10294 4.80496 0
M  V30 8459 H 764.78 -3.67101 4.12239 0
M  V30 8460 H 765.257 -3.66105 2.42618 0
M  V30 8461 H 765.863 -2.3928 3.51604 0
M  V30 8462 N 764.178 -1.45556 -0.604258 0
M  V30 8463 C 765.125 -1.54482 -1.71476 0
M  V30 8464 C 766.095 -0.390479 -1.61445 0
M  V30 8465 O 767.28 -0.604371 -1.80975 0
M  V30 8466 C 764.42 -1.52064 -3.09791 0
M  V30 8467 C 763.533 -2.78073 -3.30604 0
M  V30 8468 C 762.668 -2.67304 -4.59044 0
M  V30 8469 C 761.707 -3.88352 -4.73127 0
M  V30 8470 N 760.844 -3.76098 -5.9287 0
M  V30 8471 H 765.684 -2.49349 -1.63184 0
M  V30 8472 H 763.221 -1.23725 -0.795641 0
M  V30 8473 H 765.179 -1.48649 -3.89819 0
M  V30 8474 H 763.809 -0.607442 -3.17033 0
M  V30 8475 H 762.861 -2.91561 -2.44329 0
M  V30 8476 H 764.173 -3.67847 -3.36883 0
M  V30 8477 H 763.327 -2.61875 -5.47272 0
M  V30 8478 H 762.066 -1.75135 -4.55169 0
M  V30 8479 H 761.071 -3.94137 -3.83322 0
M  V30 8480 H 762.296 -4.81591 -4.78797 0
M  V30 8481 H 760.242 -2.867 -5.90033 0
M  V30 8482 H 760.159 -4.59509 -6.00323 0
M  V30 8483 H 761.427 -3.74607 -6.83586 0
M  V30 8484 N 765.656 0.84705 -1.32902 0
M  V30 8485 C 766.881 1.63925 -1.27056 0
M  V30 8486 C 767.306 1.87443 0.157136 0
M  V30 8487 O 766.664 1.43266 1.11106 0
M  V30 8488 C 766.712 2.97134 -2.04313 0
M  V30 8489 O 765.816 3.88049 -1.39614 0
M  V30 8490 H 765.157 0.499477 -0.437514 0
M  V30 8491 H 767.687 1.05443 -1.75336 0
M  V30 8492 H 767.697 3.46896 -2.14772 0
M  V30 8493 H 766.372 2.79339 -3.08128 0
M  V30 8494 H 764.949 3.46525 -1.3775 0
M  V30 8495 N 767.134 1.16236 1.06428 0
M  V30 8496 C 768.097 0.870163 2.1204 0
M  V30 8497 C 769.097 -0.134239 1.60239 0
M  V30 8498 O 770.287 0.0964932 1.73933 0
M  V30 8499 C 767.419 0.301033 3.39568 0
M  V30 8500 H 768.612 1.8064 2.39394 0
M  V30 8501 H 766.165 0.971116 1.2247 0
M  V30 8502 H 766.9 -0.642948 3.17863 0
M  V30 8503 H 766.685 1.02475 3.78472 0
M  V30 8504 H 768.175 0.114494 4.17443 0
M  V30 8505 N 768.612 -1.24939 0.960631 0
M  V30 8506 C 769.542 -2.28 0.503815 0
M  V30 8507 C 770.523 -1.63959 -0.452928 0
M  V30 8508 O 771.708 -1.91009 -0.350585 0
M  V30 8509 C 768.838 -3.46643 -0.213535 0
M  V30 8510 C 767.792 -4.22903 0.658535 0
M  V30 8511 C 767.118 -5.34363 -0.189902 0
M  V30 8512 C 768.418 -4.84949 1.93963 0
M  V30 8513 H 770.112 -2.66462 1.36521 0
M  V30 8514 H 767.658 -1.28093 0.657897 0
M  V30 8515 H 769.611 -4.1787 -0.544286 0
M  V30 8516 H 768.335 -3.07187 -1.10923 0
M  V30 8517 H 766.994 -3.53467 0.972455 0
M  V30 8518 H 766.642 -4.91147 -1.08553 0
M  V30 8519 H 766.342 -5.86302 0.390331 0
M  V30 8520 H 767.866 -6.0842 -0.515484 0
M  V30 8521 H 769.28 -5.48288 1.67491 0
M  V30 8522 H 767.677 -5.47091 2.46601 0
M  V30 8523 H 768.747 -4.06799 2.639 0
M  V30 8524 N 770.09 -0.729906 -1.39679 0
M  V30 8525 C 771.037 -0.0866063 -2.30637 0
M  V30 8526 C 772.007 0.735115 -1.48947 0
M  V30 8527 O 773.192 0.696125 -1.77648 0
M  V30 8528 C 770.332 0.818524 -3.35252 0
M  V30 8529 C 769.445 -0.0152635 -4.31997 0
M  V30 8530 C 768.58 0.890669 -5.2368 0
M  V30 8531 C 767.619 0.0518246 -6.12078 0
M  V30 8532 N 766.756 0.913411 -6.96133 0
M  V30 8533 H 771.596 -0.867925 -2.85081 0
M  V30 8534 H 769.133 -0.439673 -1.40376 0
M  V30 8535 H 771.091 1.3577 -3.9449 0
M  V30 8536 H 769.721 1.56587 -2.82277 0
M  V30 8537 H 768.773 -0.671794 -3.74421 0
M  V30 8538 H 770.085 -0.664086 -4.9436 0
M  V30 8539 H 769.239 1.49787 -5.87919 0
M  V30 8540 H 767.978 1.57328 -4.61627 0
M  V30 8541 H 766.983 -0.568209 -5.46856 0
M  V30 8542 H 768.208 -0.627497 -6.76195 0
M  V30 8543 H 766.154 1.58141 -6.36653 0
M  V30 8544 H 766.071 0.320952 -7.55318 0
M  V30 8545 H 767.339 1.50633 -7.64807 0
M  V30 8546 N 771.568 1.50203 -0.477153 0
M  V30 8547 C 772.478 2.32421 0.319027 0
M  V30 8548 C 773.494 1.43075 0.990233 0
M  V30 8549 O 774.67 1.76123 0.976873 0
M  V30 8550 C 771.735 3.17909 1.38328 0
M  V30 8551 C 770.796 4.23082 0.728036 0
M  V30 8552 C 770.029 5.04484 1.74158 0
M  V30 8553 O 770.252 4.8705 2.96881 0
M  V30 8554 O 769.186 5.8747 1.31006 0
M  V30 8555 H 773.012 3.01638 -0.353281 0
M  V30 8556 H 770.597 1.47478 -0.238891 0
M  V30 8557 H 772.479 3.70937 1.9996 0
M  V30 8558 H 771.154 2.51413 2.03895 0
M  V30 8559 H 770.061 3.7403 0.07261 0
M  V30 8560 H 771.394 4.92065 0.115216 0
M  V30 8561 N 773.046 0.209999 1.56195 0
M  V30 8562 C 774.274 -0.429996 2.02382 0
M  V30 8563 C 774.689 -1.54159 1.08998 0
M  V30 8564 O 774.046 -1.82239 0.0974856 0
M  V30 8565 C 774.097 -0.972433 3.48175 0
M  V30 8566 O 773.818 0.0948231 4.37997 0
M  V30 8567 C 775.319 -1.68683 4.09952 0
M  V30 8568 H 772.539 -0.106475 0.662498 0
M  V30 8569 H 775.083 0.323072 2.01932 0
M  V30 8570 H 773.238 -1.67582 3.49278 0
M  V30 8571 H 773.652 -0.31113 5.23576 0
M  V30 8572 H 775.126 -2.01851 5.13771 0
M  V30 8573 H 775.603 -2.59587 3.54276 0
M  V30 8574 H 776.209 -1.02893 4.12666 0
M  V30 8575 N 774.524 -1.57472 -0.0634922 0
M  V30 8576 C 775.434 -2.07621 -1.09227 0
M  V30 8577 C 776.45 -1.00746 -1.41867 0
M  V30 8578 O 777.626 -1.32269 -1.51878 0
M  V30 8579 C 774.691 -2.51707 -2.38421 0
M  V30 8580 C 773.752 -3.72917 -2.12676 0
M  V30 8581 C 772.985 -4.14891 -3.3571 0
M  V30 8582 O 773.208 -3.56663 -4.45137 0
M  V30 8583 O 772.142 -5.07616 -3.23434 0
M  V30 8584 H 775.968 -2.95612 -0.696205 0
M  V30 8585 H 773.553 -1.46787 -0.27819 0
M  V30 8586 H 775.435 -2.80547 -3.14438 0
M  V30 8587 H 774.11 -1.66842 -2.77391 0
M  V30 8588 H 773.017 -3.49148 -1.34337 0
M  V30 8589 H 774.35 -4.5866 -1.78583 0
M  V30 8590 N 776.003 0.335068 -1.53997 0
M  V30 8591 C 777.252 1.07182 -1.70865 0
M  V30 8592 C 777.565 1.89541 -0.483078 0
M  V30 8593 O 778.771 2.66219 -0.532879 0
M  V30 8594 C 777.227 1.95497 -3.02174 0
M  V30 8595 C 776.835 1.18304 -4.32097 0
M  V30 8596 C 778.579 2.68978 -3.28407 0
M  V30 8597 C 776.486 2.05699 -5.54474 0
M  V30 8598 H 775.416 0.403857 -0.636722 0
M  V30 8599 H 778.067 0.33076 -1.80494 0
M  V30 8600 H 776.449 2.73456 -2.86423 0
M  V30 8601 H 777.623 0.451969 -4.58578 0
M  V30 8602 H 775.938 0.565556 -4.12541 0
M  V30 8603 H 778.535 3.34651 -4.17029 0
M  V30 8604 H 778.878 3.36 -2.45784 0
M  V30 8605 H 779.411 1.98087 -3.44973 0
M  V30 8606 H 776.15 1.43204 -6.39666 0
M  V30 8607 H 775.67 2.76572 -5.32229 0
M  V30 8608 H 777.349 2.64554 -5.90441 0
M  V30 8609 N 777.481 1.45874 0.596531 0
M  V30 8610 C 778.428 1.55389 1.70655 0
M  V30 8611 C 779.398 0.399036 1.61236 0
M  V30 8612 O 780.583 0.61396 1.80652 0
M  V30 8613 C 777.723 1.53705 3.0898 0
M  V30 8614 C 776.836 2.79823 3.29125 0
M  V30 8615 C 775.971 2.69735 4.5762 0
M  V30 8616 C 775.01 3.90856 4.71061 0
M  V30 8617 N 774.147 3.79237 5.90867 0
M  V30 8618 H 778.987 2.50211 1.61859 0
M  V30 8619 H 776.524 1.24146 0.789069 0
M  V30 8620 H 778.482 1.50715 3.89026 0
M  V30 8621 H 777.112 0.624247 3.16706 0
M  V30 8622 H 776.164 2.92852 2.42779 0
M  V30 8623 H 777.476 3.69628 3.34927 0
M  V30 8624 H 776.63 2.64773 5.45875 0
M  V30 8625 H 775.369 1.77547 4.54234 0
M  V30 8626 H 774.374 3.96164 3.81227 0
M  V30 8627 H 775.599 4.84124 4.76236 0
M  V30 8628 H 773.545 2.89825 5.88504 0
M  V30 8629 H 773.462 4.62686 5.97877 0
M  V30 8630 H 774.73 3.78227 6.8159 0
M  V30 8631 N 778.959 -0.83999 1.33349 0
M  V30 8632 C 779.869 -1.98182 1.25543 0
M  V30 8633 C 780.885 -1.73204 0.166208 0
M  V30 8634 O 782.061 -1.97596 0.389589 0
M  V30 8635 C 779.126 -3.32157 0.993614 0
M  V30 8636 C 778.187 -3.70258 2.17273 0
M  V30 8637 C 777.42 -4.9784 1.92331 0
M  V30 8638 O 777.643 -5.63679 0.873074 0
M  V30 8639 O 776.577 -5.33418 2.78835 0
M  V30 8640 H 780.403 -2.07708 2.21565 0
M  V30 8641 H 777.988 -0.972852 1.13384 0
M  V30 8642 H 779.87 -4.12433 0.864711 0
M  V30 8643 H 778.545 -3.23637 0.0636596 0
M  V30 8644 H 777.452 -2.90497 2.35716 0
M  V30 8645 H 778.785 -3.83442 3.08598 0
M  V30 8646 N 780.437 -1.16799 -1.0581 0
M  V30 8647 C 781.686 -0.94698 -1.78088 0
M  V30 8648 C 781.999 0.526016 -1.88394 0
M  V30 8649 O 783.205 0.865061 -2.5735 0
M  V30 8650 C 781.661 -1.64508 -3.20102 0
M  V30 8651 C 781.269 -3.15618 -3.17946 0
M  V30 8652 C 783.013 -1.50622 -3.96879 0
M  V30 8653 C 780.92 -3.78144 -4.5471 0
M  V30 8654 H 779.85 -0.35067 -0.667493 0
M  V30 8655 H 782.501 -1.39985 -1.18645 0
M  V30 8656 H 780.883 -1.11993 -3.79834 0
M  V30 8657 H 782.057 -3.75016 -2.67768 0
M  V30 8658 H 780.372 -3.29444 -2.54667 0
M  V30 8659 H 782.969 -1.94713 -4.97987 0
M  V30 8660 H 783.312 -0.455864 -4.13797 0
M  V30 8661 H 783.845 -2.00319 -3.43682 0
M  V30 8662 H 780.584 -4.83149 -4.42998 0
M  V30 8663 H 780.104 -3.23532 -5.05062 0
M  V30 8664 H 781.783 -3.79986 -5.2366 0
M  V30 8665 N 781.915 1.24427 -0.967243 0
M  V30 8666 C 783.143 1.96541 -0.646477 0
M  V30 8667 C 783.558 1.71753 0.783996 0
M  V30 8668 O 782.915 1.00102 1.52597 0
M  V30 8669 C 782.966 3.4983 -0.911098 0
M  V30 8670 O 782.687 3.7377 -2.28534 0
M  V30 8671 C 784.188 4.3916 -0.604458 0
M  V30 8672 H 781.408 0.626129 -0.241255 0
M  V30 8673 H 783.952 1.58268 -1.29505 0
M  V30 8674 H 782.107 3.86168 -0.308741 0
M  V30 8675 H 782.521 4.68154 -2.365 0
M  V30 8676 H 783.995 5.4557 -0.840069 0
M  V30 8677 H 784.472 4.36771 0.461273 0
M  V30 8678 H 785.078 4.08409 -1.1867 0
M  V30 8679 N 783.393 0.737304 1.3929 0
M  V30 8680 C 784.639 0.286681 2.00763 0
M  V30 8681 C 784.972 -1.12388 1.58375 0
M  V30 8682 O 784.247 -1.76661 0.813699 0
M  V30 8683 C 784.53 0.391147 3.57969 0
M  V30 8684 C 784.383 1.84165 4.1037 0
M  V30 8685 C 785.702 -0.225072 4.39524 0
M  V30 8686 H 782.821 0.105642 0.729389 0
M  V30 8687 H 785.463 0.933892 1.65464 0
M  V30 8688 H 783.613 -0.159875 3.88171 0
M  V30 8689 H 785.285 2.44972 3.90879 0
M  V30 8690 H 783.528 2.3622 3.63844 0
M  V30 8691 H 784.199 1.866 5.19504 0
M  V30 8692 H 786.675 0.244677 4.1538 0
M  V30 8693 H 785.551 -0.121646 5.48765 0
M  V30 8694 H 785.812 -1.31141 4.22202 0
M  V30 8695 N 784.871 -1.49948 0.485112 0
M  V30 8696 C 786.096 -2.073 -0.0645059 0
M  V30 8697 C 786.521 -1.345 -1.31497 0
M  V30 8698 O 785.879 -0.39687 -1.76903 0
M  V30 8699 C 785.927 -3.59201 -0.317304 0
M  V30 8700 O 785.031 -3.88085 -1.39514 0
M  V30 8701 H 784.372 -0.663723 0.0191822 0
M  V30 8702 H 786.902 -1.92963 0.680179 0
M  V30 8703 H 786.912 -4.04227 -0.553604 0
M  V30 8704 H 785.587 -4.11602 0.596387 0
M  V30 8705 H 784.164 -3.54885 -1.14504 0
M  V30 8706 N 786.349 -0.21828 -1.56081 0
M  V30 8707 C 787.596 0.414307 -1.98216 0
M  V30 8708 C 787.924 1.60005 -1.10584 0
M  V30 8709 O 787.179 1.95124 -0.150043 0
M  V30 8710 C 787.478 0.894782 -3.46018 0
M  V30 8711 C 787.144 -0.180083 -4.5054 0
M  V30 8712 C 785.806 -0.475367 -4.78846 0
M  V30 8713 C 788.158 -0.907191 -5.13244 0
M  V30 8714 C 785.486 -1.50233 -5.67139 0
M  V30 8715 C 787.838 -1.92347 -6.02649 0
M  V30 8716 C 786.502 -2.22571 -6.293 0
M  V30 8717 H 785.772 0.151606 -0.725325 0
M  V30 8718 H 788.419 -0.320113 -1.88806 0
M  V30 8719 H 786.724 1.7079 -3.52616 0
M  V30 8720 H 788.421 1.39403 -3.75989 0
M  V30 8721 H 785.011 0.06022 -4.28558 0
M  V30 8722 H 789.195 -0.692303 -4.91448 0
M  V30 8723 H 784.451 -1.74215 -5.86054 0
M  V30 8724 H 788.625 -2.49197 -6.50288 0
M  V30 8725 H 786.252 -3.0229 -6.97513 0
M  V30 8726 N 787.827 1.57504 0.0551401 0
M  V30 8727 C 788.757 2.07864 1.06372 0
M  V30 8728 C 789.738 0.975565 1.39344 0
M  V30 8729 O 790.923 1.24929 1.48682 0
M  V30 8730 C 788.053 2.53643 2.3724 0
M  V30 8731 C 787.007 3.67978 2.18578 0
M  V30 8732 C 786.333 3.9987 3.54976 0
M  V30 8733 C 787.633 4.97405 1.59329 0
M  V30 8734 H 789.327 2.92379 0.644595 0
M  V30 8735 H 786.873 1.40654 0.308619 0
M  V30 8736 H 788.826 2.8749 3.08103 0
M  V30 8737 H 787.55 1.66177 2.81163 0
M  V30 8738 H 786.209 3.3444 1.50152 0
M  V30 8739 H 785.857 3.0951 3.965 0
M  V30 8740 H 785.557 4.76867 3.43324 0
M  V30 8741 H 787.081 4.36228 4.27244 0
M  V30 8742 H 788.495 5.29375 2.20078 0
M  V30 8743 H 786.892 5.78837 1.58327 0
M  V30 8744 H 787.962 4.81697 0.55638 0
M  V30 8745 N 789.305 -0.326896 1.54172 0
M  V30 8746 C 790.237 -1.42319 1.79661 0
M  V30 8747 C 791.25 -1.47989 0.678456 0
M  V30 8748 O 792.439 -1.50773 0.955503 0
M  V30 8749 C 789.539 -2.80876 1.89636 0
M  V30 8750 C 788.712 -2.98449 3.19761 0
M  V30 8751 C 787.771 -4.17347 3.2048 0
M  V30 8752 O 786.797 -4.10667 3.94134 0
M  V30 8753 N 787.999 -5.26717 2.44027 0
M  V30 8754 H 790.764 -1.20819 2.74268 0
M  V30 8755 H 788.325 -0.516866 1.53428 0
M  V30 8756 H 790.317 -3.58619 1.87549 0
M  V30 8757 H 788.887 -2.95442 1.02141 0
M  V30 8758 H 788.107 -2.08035 3.34836 0
M  V30 8759 H 789.395 -3.07083 4.05681 0
M  V30 8760 H 788.793 -5.35019 1.8377 0
M  V30 8761 H 787.35 -6.02891 2.47721 0
M  V30 8762 N 790.784 -1.46188 -0.588786 0
M  V30 8763 C 791.731 -1.56292 -1.69828 0
M  V30 8764 C 792.701 -0.407581 -1.61022 0
M  V30 8765 O 793.886 -0.623532 -1.80324 0
M  V30 8766 C 791.026 -1.55341 -3.08161 0
M  V30 8767 C 790.139 -2.81564 -3.27636 0
M  V30 8768 C 789.274 -2.72158 -4.56183 0
M  V30 8769 C 788.313 -3.93348 -4.68981 0
M  V30 8770 N 787.45 -3.82365 -5.88848 0
M  V30 8771 H 792.29 -2.51066 -1.6053 0
M  V30 8772 H 789.827 -1.24562 -0.782474 0
M  V30 8773 H 791.785 -1.52776 -3.88221 0
M  V30 8774 H 790.415 -0.641034 -3.16371 0
M  V30 8775 H 789.467 -2.94136 -2.41223 0
M  V30 8776 H 790.779 -3.714 -3.32962 0
M  V30 8777 H 789.933 -2.67665 -5.44464 0
M  V30 8778 H 788.672 -1.79953 -4.53286 0
M  V30 8779 H 787.677 -3.98181 -3.7912 0
M  V30 8780 H 788.902 -4.86643 -4.73662 0
M  V30 8781 H 786.848 -2.92942 -5.86959 0
M  V30 8782 H 786.765 -4.65851 -5.95415 0
M  V30 8783 H 788.033 -3.81836 -6.79575 0
M  V30 8784 N 792.262 0.832906 -1.33792 0
M  V30 8785 C 793.511 1.58351 -1.24932 0
M  V30 8786 C 793.824 1.94754 0.181703 0
M  V30 8787 O 795.03 2.6865 0.392375 0
M  V30 8788 C 793.486 2.85643 -2.18943 0
M  V30 8789 C 793.094 2.56581 -3.67247 0
M  V30 8790 C 794.838 3.63667 -2.18968 0
M  V30 8791 C 792.745 3.80006 -4.53155 0
M  V30 8792 H 791.675 0.594278 -0.464058 0
M  V30 8793 H 794.326 0.91786 -1.58895 0
M  V30 8794 H 792.708 3.53781 -1.77919 0
M  V30 8795 H 793.882 1.96617 -4.16747 0
M  V30 8796 H 792.197 1.91851 -3.6957 0
M  V30 8797 H 794.794 4.55293 -2.80379 0
M  V30 8798 H 795.137 3.99039 -1.18631 0
M  V30 8799 H 795.67 3.0246 -2.58384 0
M  V30 8800 H 792.409 3.4976 -5.5439 0
M  V30 8801 H 791.929 4.39288 -4.08395 0
M  V30 8802 H 793.608 4.47523 -4.6726 0
M  V30 8803 N 793.74 1.17359 1.05189 0
M  V30 8804 C 794.968 0.986529 1.81866 0
M  V30 8805 C 795.383 -0.46522 1.82979 0
M  V30 8806 O 794.74 -1.32305 1.25705 0
M  V30 8807 C 794.791 1.52021 3.27982 0
M  V30 8808 O 794.512 2.91511 3.27037 0
M  V30 8809 C 796.013 1.37774 4.21347 0
M  V30 8810 H 793.233 0.349021 0.573084 0
M  V30 8811 H 795.777 1.55648 1.32643 0
M  V30 8812 H 793.932 0.992287 3.74476 0
M  V30 8813 H 794.346 3.16178 4.18488 0
M  V30 8814 H 795.82 1.7993 5.21852 0
M  V30 8815 H 796.297 0.32483 4.37997 0
M  V30 8816 H 796.903 1.89583 3.80708 0
M  V30 8817 N 795.218 -1.23913 0.973828 0
M  V30 8818 C 796.495 -1.87539 0.555729 0
M  V30 8819 C 796.875 -1.87641 -0.967162 0
M  V30 8820 O 796.223 -1.35335 -1.84111 0
M  V30 8821 C 796.433 -3.29359 1.15427 0
M  V30 8822 C 797.781 -4.06 1.24294 0
M  V30 8823 O 798.805 -3.38554 1.10723 0
M  V30 8824 O 797.664 -5.26689 1.45813 0
M  V30 8825 H 794.758 -0.805769 0.186188 0
M  V30 8826 H 797.304 -1.31838 1.06849 0
M  V30 8827 H 796.076 -3.23817 2.19678 0
M  V30 8828 H 795.699 -3.92642 0.625925 0
M  V30 8829 N 796.696 -0.74468 -1.38897 0
M  V30 8830 C 797.626 -0.126355 -2.33158 0
M  V30 8831 C 798.607 0.713517 -1.54412 0
M  V30 8832 O 799.792 0.656523 -1.82766 0
M  V30 8833 C 796.922 0.774375 -3.38557 0
M  V30 8834 C 795.876 0.0379214 -4.27983 0
M  V30 8835 C 795.202 1.05631 -5.24162 0
M  V30 8836 C 796.502 -1.12523 -5.10035 0
M  V30 8837 H 798.196 -0.913744 -2.85116 0
M  V30 8838 H 795.742 -0.440847 -1.37086 0
M  V30 8839 H 797.695 1.21655 -4.03458 0
M  V30 8840 H 796.419 1.59399 -2.85061 0
M  V30 8841 H 795.078 -0.384733 -3.64576 0
M  V30 8842 H 794.726 1.86975 -4.66958 0
M  V30 8843 H 794.426 0.568261 -5.84846 0
M  V30 8844 H 795.95 1.49799 -5.9194 0
M  V30 8845 H 797.364 -0.761037 -5.68226 0
M  V30 8846 H 795.761 -1.54355 -5.79909 0
M  V30 8847 H 796.831 -1.94237 -4.44297 0
M  V30 8848 N 798.174 1.49689 -0.493057 0
M  V30 8849 C 799.106 2.26867 0.326195 0
M  V30 8850 C 800.119 1.33083 0.937697 0
M  V30 8851 O 801.308 1.58427 0.822382 0
M  V30 8852 C 798.408 3.0519 1.4735 0
M  V30 8853 C 797.581 4.26491 0.970767 0
M  V30 8854 C 796.64 4.86926 1.99473 0
M  V30 8855 O 795.666 5.47221 1.56647 0
M  V30 8856 N 796.868 4.75871 3.32456 0
M  V30 8857 H 799.633 2.97816 -0.335547 0
M  V30 8858 H 797.194 1.58602 -0.325129 0
M  V30 8859 H 799.186 3.42496 2.15589 0
M  V30 8860 H 797.756 2.369 2.03954 0
M  V30 8861 H 796.976 3.94036 0.113529 0
M  V30 8862 H 798.264 5.05092 0.613156 0
M  V30 8863 H 797.662 4.2797 3.69944 0
M  V30 8864 H 796.219 5.17383 3.96431 0
M  V30 8865 N 799.652 0.226554 1.55963 0
M  V30 8866 C 800.6 -0.697922 2.21882 0
M  V30 8867 C 801.594 -1.19586 1.19981 0
M  V30 8868 O 802.8 -1.15511 1.38048 0
M  V30 8869 H 799.175 -0.243501 0.711485 0
M  V30 8870 H 801.146 -0.118576 2.98164 0
M  V30 8871 C 799.895 -1.89309 2.91646 0
M  V30 8872 H 799.218 -1.51906 3.69817 0
M  V30 8873 H 800.658 -2.51762 3.41162 0
M  V30 8874 C 799.117 -2.75162 1.94391 0
M  V30 8875 O 799.647 -3.74071 1.46402 0
M  V30 8876 N 797.853 -2.41302 1.61932 0
M  V30 8877 H 797.4 -1.60923 2.01151 0
M  V30 8878 H 797.358 -2.99023 0.971219 0
M  V30 8879 N 801.13 -1.57531 -0.0467866 0
M  V30 8880 C 802.062 -2.02156 -1.08007 0
M  V30 8881 C 803.075 -0.931434 -1.33522 0
M  V30 8882 O 804.264 -1.209 -1.31321 0
M  V30 8883 C 801.364 -2.36675 -2.42566 0
M  V30 8884 C 800.537 -3.67848 -2.36658 0
M  V30 8885 C 799.596 -3.89754 -3.53523 0
M  V30 8886 O 798.622 -4.61036 -3.33818 0
M  V30 8887 N 799.824 -3.34025 -4.74771 0
M  V30 8888 H 802.589 -2.91414 -0.699845 0
M  V30 8889 H 800.15 -1.60185 -0.235041 0
M  V30 8890 H 802.142 -2.48482 -3.19435 0
M  V30 8891 H 800.712 -1.53178 -2.72498 0
M  V30 8892 H 799.932 -3.66561 -1.45005 0
M  V30 8893 H 801.22 -4.53931 -2.29835 0
M  V30 8894 H 800.618 -2.76214 -4.93683 0
M  V30 8895 H 799.175 -3.51241 -5.49066 0
M  V30 8896 N 802.608 0.318715 -1.54344 0
M  V30 8897 C 803.538 1.39751 -1.87061 0
M  V30 8898 C 804.519 1.53741 -0.727848 0
M  V30 8899 O 805.704 1.67541 -0.982016 0
M  V30 8900 C 802.834 2.76446 -2.10226 0
M  V30 8901 C 801.788 2.77239 -3.26071 0
M  V30 8902 C 801.114 4.17056 -3.34617 0
M  V30 8903 C 802.414 2.40555 -4.63606 0
M  V30 8904 H 804.108 1.12619 -2.77412 0
M  V30 8905 H 801.654 0.540318 -1.33479 0
M  V30 8906 H 803.607 3.51985 -2.31699 0
M  V30 8907 H 802.331 3.05066 -1.16629 0
M  V30 8908 H 800.99 2.04155 -3.04493 0
M  V30 8909 H 800.638 4.42824 -2.3857 0
M  V30 8910 H 800.338 4.18492 -4.12478 0
M  V30 8911 H 801.862 4.94401 -3.5833 0
M  V30 8912 H 803.276 3.05808 -4.84927 0
M  V30 8913 H 801.673 2.53234 -5.44052 0
M  V30 8914 H 802.743 1.35698 -4.65526 0
M  V30 8915 N 804.086 1.46499 0.581025 0
M  V30 8916 C 805.033 1.5719 1.68997 0
M  V30 8917 C 806.003 0.416114 1.60803 0
M  V30 8918 O 807.188 0.633086 1.79991 0
M  V30 8919 C 804.328 1.56973 3.07333 0
M  V30 8920 C 803.441 2.83298 3.26139 0
M  V30 8921 C 802.576 2.74574 4.54734 0
M  V30 8922 C 801.615 3.9583 4.66889 0
M  V30 8923 N 800.752 3.85482 5.86811 0
M  V30 8924 H 805.592 2.51914 1.59196 0
M  V30 8925 H 803.129 1.24975 0.775857 0
M  V30 8926 H 805.087 1.54832 3.87405 0
M  V30 8927 H 803.717 0.657803 3.16027 0
M  V30 8928 H 802.769 2.95411 2.3966 0
M  V30 8929 H 804.081 3.7316 3.30988 0
M  V30 8930 H 803.235 2.70548 5.43036 0
M  V30 8931 H 801.974 1.82354 4.52325 0
M  V30 8932 H 800.979 4.00186 3.77003 0
M  V30 8933 H 802.204 4.89148 4.71075 0
M  V30 8934 H 800.15 2.96051 5.85397 0
M  V30 8935 H 800.067 4.69002 5.92936 0
M  V30 8936 H 801.335 3.85434 6.7754 0
M  V30 8937 N 805.565 -0.825799 1.34232 0
M  V30 8938 C 806.497 -1.94401 1.21413 0
M  V30 8939 C 807.51 -1.6218 0.141902 0
M  V30 8940 O 808.699 -1.74109 0.3935 0
M  V30 8941 C 805.799 -3.28257 0.842635 0
M  V30 8942 C 804.972 -3.88521 2.00924 0
M  V30 8943 C 804.031 -5.00752 1.61661 0
M  V30 8944 O 803.057 -5.19201 2.33279 0
M  V30 8945 N 804.259 -5.78084 0.52911 0
M  V30 8946 H 807.024 -2.05931 2.17744 0
M  V30 8947 H 804.585 -1.00223 1.27149 0
M  V30 8948 H 806.577 -4.00781 0.561822 0
M  V30 8949 H 805.147 -3.12585 -0.0304029 0
M  V30 8950 H 804.367 -3.08425 2.45495 0
M  V30 8951 H 805.655 -4.25516 2.78951 0
M  V30 8952 H 805.053 -5.65661 -0.0663322 0
M  V30 8953 H 803.61 -6.51072 0.308017 0
M  V30 8954 N 807.043 -1.17915 -1.04565 0
M  V30 8955 C 807.975 -0.859359 -2.1248 0
M  V30 8956 C 808.988 0.140922 -1.62189 0
M  V30 8957 O 810.177 -0.0862361 -1.78292 0
M  V30 8958 C 807.277 -0.261811 -3.37887 0
M  V30 8959 C 806.45 -1.30651 -4.17431 0
M  V30 8960 C 805.509 -0.725575 -5.21174 0
M  V30 8961 O 804.535 -1.39901 -5.51739 0
M  V30 8962 N 805.737 0.479351 -5.78517 0
M  V30 8963 H 808.502 -1.78818 -2.40508 0
M  V30 8964 H 806.063 -1.07885 -1.20716 0
M  V30 8965 H 808.055 0.14028 -4.04457 0
M  V30 8966 H 806.625 0.570929 -3.07342 0
M  V30 8967 H 805.845 -1.88412 -3.46258 0
M  V30 8968 H 807.133 -2.01099 -4.67372 0
M  V30 8969 H 806.531 1.04431 -5.55977 0
M  V30 8970 H 805.088 0.823427 -6.46578 0
M  V30 8971 N 808.521 1.23394 -0.980386 0
M  V30 8972 C 809.431 2.28561 -0.528864 0
M  V30 8973 C 810.447 1.68946 0.416329 0
M  V30 8974 O 811.623 1.99355 0.286251 0
M  V30 8975 C 808.688 3.46323 0.16155 0
M  V30 8976 C 807.749 4.21297 -0.825044 0
M  V30 8977 C 806.982 5.33437 -0.167483 0
M  V30 8978 O 807.205 5.60812 1.04146 0
M  V30 8979 O 806.139 5.95637 -0.866047 0
M  V30 8980 H 809.965 2.69326 -1.40346 0
M  V30 8981 H 807.55 1.29325 -0.748019 0
M  V30 8982 H 809.432 4.17811 0.548841 0
M  V30 8983 H 808.107 3.0751 1.01092 0
M  V30 8984 H 807.014 3.52134 -1.26303 0
M  V30 8985 H 808.347 4.6396 -1.64322 0
M  V30 8986 N 809.999 0.752036 1.385 0
M  V30 8987 C 810.909 0.125318 2.34265 0
M  V30 8988 C 811.925 -0.702437 1.59191 0
M  V30 8989 O 813.101 -0.626951 1.91393 0
M  V30 8990 C 810.166 -0.758486 3.38301 0
M  V30 8991 C 809.227 0.0834636 4.29219 0
M  V30 8992 C 808.46 -0.758252 5.28286 0
M  V30 8993 O 808.683 -1.99632 5.34325 0
M  V30 8994 O 807.617 -0.177878 6.01637 0
M  V30 8995 H 811.443 0.91617 2.89551 0
M  V30 8996 H 809.028 0.512911 1.4032 0
M  V30 8997 H 810.91 -1.26365 4.02007 0
M  V30 8998 H 809.585 -1.52786 2.85374 0
M  V30 8999 H 808.492 0.634545 3.68679 0
M  V30 9000 H 809.825 0.815455 4.85398 0
M  V30 9001 N 811.477 -1.49425 0.500989 0
M  V30 9002 C 812.754 -1.9531 -0.106551 0
M  V30 9003 C 813.134 -1.44248 -1.54129 0
M  V30 9004 O 812.482 -0.656237 -2.18874 0
M  V30 9005 C 812.692 -3.48995 -0.0191972 0
M  V30 9006 C 814.04 -4.24161 -0.193129 0
M  V30 9007 O 815.064 -3.56075 -0.0943843 0
M  V30 9008 O 813.923 -5.45064 -0.395869 0
M  V30 9009 H 811.017 -0.82149 -0.0953068 0
M  V30 9010 H 813.563 -1.6007 0.563526 0
M  V30 9011 H 812.335 -3.78794 0.981353 0
M  V30 9012 H 811.958 -3.90852 -0.72942 0
M  V30 9013 N 812.955 -0.234822 -1.55841 0
M  V30 9014 C 814.202 0.39326 -1.98645 0
M  V30 9015 C 814.53 1.58823 -1.12274 0
M  V30 9016 O 813.785 1.94954 -0.170731 0
M  V30 9017 C 814.084 0.858032 -3.46947 0
M  V30 9018 C 813.75 -0.227858 -4.50324 0
M  V30 9019 C 812.412 -0.526128 -4.78315 0
M  V30 9020 C 814.764 -0.961576 -5.12253 0
M  V30 9021 C 812.092 -1.5624 -5.65514 0
M  V30 9022 C 814.444 -1.98728 -6.00575 0
M  V30 9023 C 813.108 -2.29233 -6.26904 0
M  V30 9024 H 812.378 0.143904 -0.726892 0
M  V30 9025 H 815.025 -0.34012 -1.88455 0
M  V30 9026 H 813.33 1.67041 -3.54408 0
M  V30 9027 H 815.027 1.35407 -3.77447 0
M  V30 9028 H 811.617 0.0147624 -4.28597 0
M  V30 9029 H 815.801 -0.744388 -4.90686 0
M  V30 9030 H 811.057 -1.80422 -5.84173 0
M  V30 9031 H 815.231 -2.5608 -6.47608 0
M  V30 9032 H 812.858 -3.09671 -6.94268 0
M  V30 9033 N 814.433 1.57553 0.0384317 0
M  V30 9034 C 815.849 1.54663 0.39391 0
M  V30 9035 C 816.049 0.959685 1.77179 0
M  V30 9036 O 815.105 0.576647 2.45827 0
M  V30 9037 C 816.418 2.99156 0.304352 0
M  V30 9038 C 817.966 3.10659 0.382119 0
M  V30 9039 C 818.441 4.56866 0.322111 0
M  V30 9040 N 819.932 4.61629 0.38119 0
M  V30 9041 C 820.667 5.72284 0.357501 0
M  V30 9042 N 820.163 6.92207 0.286654 0
M  V30 9043 N 821.956 5.60628 0.406538 0
M  V30 9044 H 814.107 1.9406 -0.86339 0
M  V30 9045 H 816.37 0.889673 -0.327392 0
M  V30 9046 H 816.076 3.45788 -0.642141 0
M  V30 9047 H 815.95 3.60753 1.10168 0
M  V30 9048 H 818.337 2.6398 1.31904 0
M  V30 9049 H 818.418 2.5191 -0.444391 0
M  V30 9050 H 818.062 5.0421 -0.611104 0
M  V30 9051 H 817.992 5.13515 1.1666 0
M  V30 9052 H 820.483 3.75343 0.438838 0
M  V30 9053 H 820.796 7.72316 0.273421 0
M  V30 9054 H 819.141 6.9454 0.252841 0
M  V30 9055 H 822.332 4.65836 0.459812 0
M  V30 9056 H 822.505 6.46858 0.384608 0
M  V30 9057 N 815.911 -0.310526 1.54511 0
M  V30 9058 C 816.858 -1.38264 1.84802 0
M  V30 9059 C 817.828 -1.50808 0.696141 0
M  V30 9060 O 819.013 -1.6582 0.943846 0
M  V30 9061 C 816.153 -2.74422 2.09252 0
M  V30 9062 C 815.266 -2.70405 3.36906 0
M  V30 9063 C 814.401 -3.98495 3.51248 0
M  V30 9064 C 813.44 -3.88836 4.72729 0
M  V30 9065 N 812.577 -5.08683 4.83928 0
M  V30 9066 H 817.417 -1.11732 2.76261 0
M  V30 9067 H 814.954 -0.540609 1.36806 0
M  V30 9068 H 816.912 -3.53593 2.21422 0
M  V30 9069 H 815.542 -2.99235 1.2107 0
M  V30 9070 H 814.594 -1.83151 3.33406 0
M  V30 9071 H 815.906 -2.59155 4.26193 0
M  V30 9072 H 815.06 -4.861 3.63031 0
M  V30 9073 H 813.799 -4.12567 2.60077 0
M  V30 9074 H 812.804 -2.99615 4.60989 0
M  V30 9075 H 814.029 -3.76318 5.65298 0
M  V30 9076 H 811.975 -5.23236 3.95677 0
M  V30 9077 H 811.892 -4.99819 5.67201 0
M  V30 9078 H 813.16 -5.97966 5.00057 0
M  V30 9079 N 817.389 -1.46805 -0.573248 0
M  V30 9080 C 818.321 -1.54127 -1.6964 0
M  V30 9081 C 819.334 -0.428778 -1.57052 0
M  V30 9082 O 820.523 -0.697612 -1.64303 0
M  V30 9083 C 817.623 -1.41438 -3.07975 0
M  V30 9084 C 816.796 -2.66974 -3.46474 0
M  V30 9085 C 815.855 -2.48349 -4.63906 0
M  V30 9086 O 814.881 -3.22109 -4.69292 0
M  V30 9087 N 816.083 -1.55129 -5.59388 0
M  V30 9088 H 818.848 -2.50971 -1.6381 0
M  V30 9089 H 816.409 -1.42981 -0.759479 0
M  V30 9090 H 818.401 -1.26737 -3.84343 0
M  V30 9091 H 816.971 -0.527388 -3.08119 0
M  V30 9092 H 816.191 -2.9655 -2.59715 0
M  V30 9093 H 817.479 -3.50347 -3.68964 0
M  V30 9094 H 816.877 -0.94324 -5.57781 0
M  V30 9095 H 815.434 -1.46387 -6.35149 0
M  V30 9096 N 818.867 0.818669 -1.34668 0
M  V30 9097 C 819.797 1.94468 -1.29245 0
M  V30 9098 C 820.778 1.69257 -0.169101 0
M  V30 9099 O 821.963 1.90794 -0.362143 0
M  V30 9100 C 819.093 3.31001 -1.05145 0
M  V30 9101 C 818.047 3.70663 -2.13992 0
M  V30 9102 C 817.373 5.05226 -1.75074 0
M  V30 9103 C 818.673 3.82312 -3.55858 0
M  V30 9104 H 820.367 1.99263 -2.2346 0
M  V30 9105 H 817.913 0.957304 -1.07572 0
M  V30 9106 H 819.866 4.09364 -0.999949 0
M  V30 9107 H 818.59 3.26517 -0.0737312 0
M  V30 9108 H 817.249 2.94578 -2.18219 0
M  V30 9109 H 816.897 4.97233 -0.759518 0
M  V30 9110 H 816.597 5.32734 -2.47928 0
M  V30 9111 H 818.121 5.86042 -1.71427 0
M  V30 9112 H 819.535 4.50935 -3.5402 0
M  V30 9113 H 817.932 4.21278 -4.2737 0
M  V30 9114 H 819.002 2.84193 -3.9289 0
M  V30 9115 N 820.346 1.18468 1.03938 0
M  V30 9116 C 821.256 0.927889 2.1547 0
M  V30 9117 C 822.272 -0.108447 1.73662 0
M  V30 9118 O 823.448 0.0737636 2.01265 0
M  V30 9119 C 820.513 0.458494 3.43655 0
M  V30 9120 C 819.574 1.56295 3.99838 0
M  V30 9121 C 818.807 1.11586 5.21904 0
M  V30 9122 O 819.03 -0.0249057 5.70395 0
M  V30 9123 O 817.964 1.91412 5.70653 0
M  V30 9124 H 821.79 1.86116 2.39989 0
M  V30 9125 H 819.375 0.966607 1.13917 0
M  V30 9126 H 821.257 0.204861 4.20902 0
M  V30 9127 H 819.932 -0.446464 3.20606 0
M  V30 9128 H 818.839 1.87061 3.23974 0
M  V30 9129 H 820.172 2.44408 4.2723 0
M  V30 9130 N 821.824 -1.22873 0.986916 0
M  V30 9131 C 823.101 -1.86939 0.575589 0
M  V30 9132 C 823.481 -1.88656 -0.947205 0
M  V30 9133 O 822.829 -1.3728 -1.82665 0
M  V30 9134 C 823.039 -3.28117 1.18914 0
M  V30 9135 C 824.387 -4.04659 1.28593 0
M  V30 9136 O 825.411 -3.3736 1.14308 0
M  V30 9137 O 824.27 -5.25112 1.51391 0
M  V30 9138 H 821.364 -0.803748 0.194724 0
M  V30 9139 H 823.91 -1.30698 1.08241 0
M  V30 9140 H 822.682 -3.21468 2.231 0
M  V30 9141 H 822.305 -3.91956 0.667535 0
M  V30 9142 N 823.302 -0.75937 -1.38099 0
M  V30 9143 C 824.212 -0.13774 -2.34195 0
M  V30 9144 C 825.228 0.693985 -1.59561 0
M  V30 9145 O 826.404 0.616792 -1.91723 0
M  V30 9146 C 823.469 0.740535 -3.38699 0
M  V30 9147 C 822.53 -0.106225 -4.29169 0
M  V30 9148 C 821.763 0.730225 -5.28681 0
M  V30 9149 O 821.986 1.96796 -5.35376 0
M  V30 9150 O 820.92 0.145969 -6.01723 0
M  V30 9151 H 824.746 -0.931512 -2.89061 0
M  V30 9152 H 822.331 -0.520345 -1.40046 0
M  V30 9153 H 824.213 1.24232 -4.02672 0
M  V30 9154 H 822.888 1.51271 -2.8618 0
M  V30 9155 H 821.795 -0.654088 -3.68337 0
M  V30 9156 H 823.128 -0.841186 -4.84959 0
M  V30 9157 N 824.78 1.49157 -0.508906 0
M  V30 9158 C 825.69 2.33045 0.269656 0
M  V30 9159 C 826.706 1.45143 0.959662 0
M  V30 9160 O 827.882 1.78155 0.939295 0
M  V30 9161 C 824.947 3.20772 1.31554 0
M  V30 9162 C 824.008 4.24531 0.638131 0
M  V30 9163 C 823.241 5.08065 1.63418 0
M  V30 9164 O 823.464 4.93238 2.86483 0
M  V30 9165 O 822.398 5.90117 1.18516 0
M  V30 9166 H 826.224 3.00821 -0.417183 0
M  V30 9167 H 823.809 1.46938 -0.270119 0
M  V30 9168 H 825.691 3.75095 1.92047 0
M  V30 9169 H 824.366 2.55681 1.98516 0
M  V30 9170 H 823.273 3.74099 -0.00674357 0
M  V30 9171 H 824.606 4.92199 0.0108155 0
M  V30 9172 N 826.258 0.243083 1.55714 0
M  V30 9173 C 827.506 -0.381964 1.98458 0
M  V30 9174 C 827.827 -1.58745 1.13247 0
M  V30 9175 O 827.097 -1.94723 0.214384 0
M  V30 9176 H 825.677 -0.144114 0.732967 0
M  V30 9177 H 828.339 0.340985 1.91894 0
M  V30 9178 H 827.435 -0.693702 3.04293 0
M  V30 9179 N 827.736 -1.57571 -0.0300757 0
M  V30 9180 C 829.152 -1.54869 -0.385703 0
M  V30 9181 C 829.352 -0.969068 -1.76667 0
M  V30 9182 O 828.408 -0.589676 -2.45518 0
M  V30 9183 C 829.721 -2.99313 -0.288482 0
M  V30 9184 C 831.269 -3.10857 -0.365638 0
M  V30 9185 C 831.744 -4.5703 -0.297878 0
M  V30 9186 N 833.235 -4.61825 -0.356703 0
M  V30 9187 C 833.97 -5.72466 -0.327146 0
M  V30 9188 N 833.466 -6.92349 -0.249941 0
M  V30 9189 N 835.259 -5.60836 -0.376801 0
M  V30 9190 H 827.41 -1.936 0.87367 0
M  V30 9191 H 829.673 -0.887924 0.332106 0
M  V30 9192 H 829.379 -3.45443 0.66047 0
M  V30 9193 H 829.253 -3.61332 -1.08253 0
M  V30 9194 H 831.64 -2.64676 -1.30502 0
M  V30 9195 H 831.721 -2.51671 0.457744 0
M  V30 9196 H 831.365 -5.03879 0.637835 0
M  V30 9197 H 831.295 -5.14127 -1.13935 0
M  V30 9198 H 833.786 -3.75571 -0.418926 0
M  V30 9199 H 834.099 -7.7245 -0.23246 0
M  V30 9200 H 832.444 -6.94664 -0.216004 0
M  V30 9201 H 835.635 -4.66073 -0.435101 0
M  V30 9202 H 835.808 -6.47052 -0.350298 0
M  V30 9203 N 829.214 0.302327 -1.54673 0
M  V30 9204 C 830.161 1.37282 -1.85532 0
M  V30 9205 C 831.131 1.50437 -0.704129 0
M  V30 9206 O 832.316 1.65317 -0.952627 0
M  V30 9207 C 829.456 2.73309 -2.10704 0
M  V30 9208 C 828.569 2.68614 -3.38335 0
M  V30 9209 C 827.704 3.96626 -3.53357 0
M  V30 9210 C 826.743 3.86324 -4.74784 0
M  V30 9211 N 825.88 5.06109 -4.86619 0
M  V30 9212 H 830.72 1.10265 -2.76849 0
M  V30 9213 H 828.257 0.533346 -1.37091 0
M  V30 9214 H 830.215 3.52414 -2.23294 0
M  V30 9215 H 828.845 2.98589 -1.22656 0
M  V30 9216 H 827.897 1.81381 -3.34373 0
M  V30 9217 H 829.209 2.56891 -4.27561 0
M  V30 9218 H 828.363 4.84168 -3.65604 0
M  V30 9219 H 827.102 4.11182 -2.62261 0
M  V30 9220 H 826.107 2.97166 -4.62572 0
M  V30 9221 H 827.332 3.73315 -5.67286 0
M  V30 9222 H 825.278 5.2113 -3.98446 0
M  V30 9223 H 825.195 4.96804 -5.69844 0
M  V30 9224 H 826.463 5.95306 -5.03221 0
M  V30 9225 N 830.692 1.47107 0.565454 0
M  V30 9226 C 831.655 1.58535 1.65527 0
M  V30 9227 C 832.655 0.461081 1.54048 0
M  V30 9228 O 833.845 0.725911 1.58355 0
M  V30 9229 C 830.977 1.52204 3.05036 0
M  V30 9230 H 832.17 2.55676 1.56747 0
M  V30 9231 H 829.723 1.35174 0.78471 0
M  V30 9232 H 830.458 0.564071 3.19357 0
M  V30 9233 H 830.243 2.3379 3.14777 0
M  V30 9234 H 831.733 1.63322 3.84338 0
M  V30 9235 N 832.17 -0.811516 1.35101 0
M  V30 9236 C 833.08 -1.95475 1.29718 0
M  V30 9237 C 834.096 -1.72813 0.202909 0
M  V30 9238 O 835.272 -1.96725 0.431414 0
M  V30 9239 C 832.337 -3.29975 1.06385 0
M  V30 9240 C 831.398 -3.65566 2.25077 0
M  V30 9241 C 830.631 -4.93648 2.02848 0
M  V30 9242 O 830.854 -5.617 0.992442 0
M  V30 9243 O 829.788 -5.27384 2.90087 0
M  V30 9244 H 833.614 -2.02961 2.25921 0
M  V30 9245 H 831.199 -0.948583 1.15422 0
M  V30 9246 H 833.081 -4.10506 0.951999 0
M  V30 9247 H 831.756 -3.2343 0.132294 0
M  V30 9248 H 830.663 -2.85432 2.41825 0
M  V30 9249 H 831.996 -3.7681 3.16662 0
M  V30 9250 N 833.648 -1.19017 -1.03309 0
M  V30 9251 C 834.595 -0.924088 -2.11493 0
M  V30 9252 C 835.565 0.139464 -1.65513 0
M  V30 9253 O 836.75 -0.00178761 -1.908 0
M  V30 9254 C 833.89 -0.464255 -3.41963 0
M  V30 9255 C 833.003 -1.5941 -4.01513 0
M  V30 9256 C 832.138 -1.08622 -5.19976 0
M  V30 9257 C 831.177 -2.19024 -5.71572 0
M  V30 9258 N 830.314 -1.69575 -6.81314 0
M  V30 9259 H 835.154 -1.85039 -2.33591 0
M  V30 9260 H 832.691 -0.922593 -1.14572 0
M  V30 9261 H 834.649 -0.179078 -4.16815 0
M  V30 9262 H 833.279 0.425062 -3.19989 0
M  V30 9263 H 832.331 -1.99458 -3.23915 0
M  V30 9264 H 833.643 -2.42604 -4.35826 0
M  V30 9265 H 832.797 -0.756022 -6.01971 0
M  V30 9266 H 831.536 -0.223955 -4.87186 0
M  V30 9267 H 830.541 -2.5288 -4.88193 0
M  V30 9268 H 831.766 -3.05699 -6.06403 0
M  V30 9269 H 829.712 -0.856494 -6.50385 0
M  V30 9270 H 829.629 -2.46361 -7.14732 0
M  V30 9271 H 830.897 -1.39505 -7.66915 0
M  V30 9272 N 835.127 1.22348 -0.993418 0
M  V30 9273 C 836.037 2.27987 -0.553076 0
M  V30 9274 C 837.053 1.69378 0.398386 0
M  V30 9275 O 838.229 1.99648 0.26509 0
M  V30 9276 C 835.294 3.46475 0.124809 0
M  V30 9277 C 834.355 4.20399 -0.869682 0
M  V30 9278 C 833.588 5.33229 -0.224052 0
M  V30 9279 O 833.811 5.61885 0.981915 0
M  V30 9280 O 832.745 5.94685 -0.929174 0
M  V30 9281 H 836.571 2.67822 -1.43195 0
M  V30 9282 H 834.156 1.28525 -0.761694 0
M  V30 9283 H 836.038 4.18369 0.504496 0
M  V30 9284 H 834.713 3.08565 0.978243 0
M  V30 9285 H 833.62 3.50774 -1.30031 0
M  V30 9286 H 834.953 4.62191 -1.69233 0
M  V30 9287 N 836.605 0.766683 1.37694 0
M  V30 9288 C 837.553 0.137269 2.32195 0
M  V30 9289 C 838.547 -0.69067 1.54681 0
M  V30 9290 O 839.753 -0.588299 1.70115 0
M  V30 9291 H 836.128 0.0256003 0.751564 0
M  V30 9292 H 838.099 0.950129 2.82869 0
M  V30 9293 C 836.848 -0.731446 3.39919 0
M  V30 9294 H 836.171 -0.103738 3.99665 0
M  V30 9295 H 837.611 -1.13891 4.08417 0
M  V30 9296 C 836.07 -1.87984 2.79578 0
M  V30 9297 O 836.6 -2.97496 2.69924 0
M  V30 9298 N 834.806 -1.6789 2.37195 0
M  V30 9299 H 834.353 -0.788162 2.45246 0
M  V30 9300 H 834.311 -2.44894 1.97165 0
M  V30 9301 N 838.083 -1.48885 0.516809 0
M  V30 9302 C 839.311 -2.06892 -0.0184017 0
M  V30 9303 C 839.726 -1.37511 -1.29368 0
M  V30 9304 O 839.083 -0.458409 -1.76649 0
M  V30 9305 C 839.134 -3.60566 -0.259673 0
M  V30 9306 O 838.855 -4.27338 0.965065 0
M  V30 9307 C 840.356 -4.35331 -0.836751 0
M  V30 9308 H 837.576 -0.670433 0.0275743 0
M  V30 9309 H 840.12 -1.91455 0.718689 0
M  V30 9310 H 838.275 -3.75653 -0.94678 0
M  V30 9311 H 838.689 -5.19287 0.737647 0
M  V30 9312 H 840.163 -5.43675 -0.955065 0
M  V30 9313 H 840.64 -3.9887 -1.83845 0
M  V30 9314 H 841.246 -4.2489 -0.186622 0
M  V30 9315 N 839.561 -0.251338 -1.55583 0
M  V30 9316 C 840.789 0.376187 -2.03451 0
M  V30 9317 C 841.204 1.51215 -1.13047 0
M  V30 9318 O 840.561 1.81917 -0.145769 0
M  V30 9319 C 840.612 0.879779 -3.50631 0
M  V30 9320 O 840.333 -0.210917 -4.37592 0
M  V30 9321 C 841.834 1.57754 -4.14281 0
M  V30 9322 H 839.054 0.0888722 -0.665089 0
M  V30 9323 H 841.598 -0.376497 -2.01004 0
M  V30 9324 H 839.753 1.58263 -3.53598 0
M  V30 9325 H 840.167 0.172203 -5.24217 0
M  V30 9326 H 841.641 1.88158 -5.18942 0
M  V30 9327 H 842.118 2.50103 -3.61034 0
M  V30 9328 H 842.724 0.919154 -4.15249 0
M  V30 9329 N 841.039 1.57585 0.0217189 0
M  V30 9330 C 842.002 2.06004 1.00474 0
M  V30 9331 C 843.002 0.965461 1.2859 0
M  V30 9332 O 844.192 1.22884 1.23471 0
M  V30 9333 C 841.324 2.48319 2.33561 0
M  V30 9334 H 842.517 2.94112 0.586346 0
M  V30 9335 H 840.07 1.53973 0.268716 0
M  V30 9336 H 840.805 1.63389 2.80133 0
M  V30 9337 H 840.59 3.28239 2.1448 0
M  V30 9338 H 842.08 2.86181 3.04122 0
M  V30 9339 N 842.517 -0.29412 1.54831 0
M  V30 9340 C 843.427 -1.3854 1.89325 0
M  V30 9341 C 844.443 -1.55127 0.788133 0
M  V30 9342 O 845.619 -1.6966 1.08524 0
M  V30 9343 C 842.684 -2.72809 2.13954 0
M  V30 9344 C 841.745 -2.65148 3.37631 0
M  V30 9345 C 840.978 -3.93014 3.61076 0
M  V30 9346 O 841.201 -4.927 2.87406 0
M  V30 9347 O 840.135 -3.94491 4.54599 0
M  V30 9348 H 843.961 -1.12289 2.82179 0
M  V30 9349 H 841.546 -0.490793 1.41108 0
M  V30 9350 H 843.428 -3.52238 2.31315 0
M  V30 9351 H 842.103 -2.9889 1.24285 0
M  V30 9352 H 841.01 -1.84168 3.25627 0
M  V30 9353 H 842.343 -2.4402 4.27452 0
M  V30 9354 N 843.995 -1.47404 -0.557645 0
M  V30 9355 C 844.925 -1.62736 -1.67449 0
M  V30 9356 C 845.906 -0.476824 -1.6328 0
M  V30 9357 O 847.091 -0.706108 -1.80908 0
M  V30 9358 C 844.221 -1.641 -3.06086 0
M  V30 9359 C 843.175 -2.78377 -3.25101 0
M  V30 9360 C 842.501 -2.64812 -4.6452 0
M  V30 9361 C 843.801 -4.19971 -3.10518 0
M  V30 9362 H 845.495 -2.56232 -1.54873 0
M  V30 9363 H 843.041 -1.23312 -0.743649 0
M  V30 9364 H 844.994 -1.73417 -3.84063 0
M  V30 9365 H 843.718 -0.671652 -3.19619 0
M  V30 9366 H 842.377 -2.6857 -2.49531 0
M  V30 9367 H 842.025 -1.65906 -4.74852 0
M  V30 9368 H 841.725 -3.41477 -4.78191 0
M  V30 9369 H 843.249 -2.76057 -5.44633 0
M  V30 9370 H 844.663 -4.30757 -3.78313 0
M  V30 9371 H 843.06 -4.97419 -3.35699 0
M  V30 9372 H 844.13 -4.38369 -2.0727 0
M  V30 9373 N 845.473 0.80434 -1.35529 0
M  V30 9374 C 846.701 1.59283 -1.32048 0
M  V30 9375 C 847.116 1.88527 0.101556 0
M  V30 9376 O 846.473 1.48975 1.05417 0
M  V30 9377 C 846.524 2.92276 -2.12737 0
M  V30 9378 O 846.245 2.64299 -3.49396 0
M  V30 9379 C 847.746 3.86631 -2.16867 0
M  V30 9380 H 844.966 0.494523 -0.453528 0
M  V30 9381 H 847.51 0.999415 -1.78415 0
M  V30 9382 H 845.665 3.48125 -1.69964 0
M  V30 9383 H 846.079 3.4923 -3.91329 0
M  V30 9384 H 847.553 4.77053 -2.77712 0
M  V30 9385 H 848.03 4.23384 -1.16803 0
M  V30 9386 H 848.636 3.36717 -2.59811 0
M  V30 9387 N 846.951 1.19563 1.02676 0
M  V30 9388 C 847.861 0.950691 2.14474 0
M  V30 9389 C 848.877 -0.0900219 1.73767 0
M  V30 9390 O 850.053 0.0951063 2.01175 0
M  V30 9391 C 847.118 0.494917 3.43149 0
M  V30 9392 C 846.179 1.60527 3.98158 0
M  V30 9393 C 845.412 1.17115 5.20692 0
M  V30 9394 O 845.635 0.0355937 5.70389 0
M  V30 9395 O 844.569 1.97454 5.68591 0
M  V30 9396 H 848.395 1.88651 2.38001 0
M  V30 9397 H 845.98 0.978635 1.12885 0
M  V30 9398 H 847.862 0.249492 4.20661 0
M  V30 9399 H 846.537 -0.412434 3.21062 0
M  V30 9400 H 845.444 1.90487 3.21971 0
M  V30 9401 H 846.777 2.48925 4.24614 0
M  V30 9402 N 848.429 -1.21819 0.999893 0
M  V30 9403 C 849.339 -2.27691 0.565159 0
M  V30 9404 C 850.355 -1.69587 -0.389398 0
M  V30 9405 O 851.531 -1.99786 -0.254499 0
M  V30 9406 C 848.596 -3.46537 -0.106432 0
M  V30 9407 C 847.657 -4.19932 0.891964 0
M  V30 9408 C 846.89 -5.33103 0.252327 0
M  V30 9409 O 847.113 -5.62398 -0.952103 0
M  V30 9410 O 846.047 -5.94184 0.960698 0
M  V30 9411 H 849.873 -2.67059 1.44613 0
M  V30 9412 H 847.458 -1.28119 0.768499 0
M  V30 9413 H 849.34 -4.18631 -0.482301 0
M  V30 9414 H 848.015 -3.09079 -0.961865 0
M  V30 9415 H 846.922 -3.5008 1.3189 0
M  V30 9416 H 848.255 -4.61287 1.71682 0
M  V30 9417 N 849.908 -0.773975 -1.37286 0
M  V30 9418 C 851.157 -0.335977 -1.98882 0
M  V30 9419 C 851.47 1.09416 -1.62134 0
M  V30 9420 O 852.676 1.63366 -2.1685 0
M  V30 9421 C 851.132 -0.549756 -3.55676 0
M  V30 9422 C 850.74 -1.9903 -4.01361 0
M  V30 9423 C 852.484 -0.175493 -4.24137 0
M  V30 9424 C 850.391 -2.15156 -5.50874 0
M  V30 9425 H 849.321 -0.121877 -0.744085 0
M  V30 9426 H 851.972 -0.953419 -1.56787 0
M  V30 9427 H 850.354 0.137175 -3.95762 0
M  V30 9428 H 851.528 -2.71237 -3.72515 0
M  V30 9429 H 849.843 -2.32137 -3.4569 0
M  V30 9430 H 852.44 -0.274463 -5.33995 0
M  V30 9431 H 852.783 0.874524 -4.07011 0
M  V30 9432 H 853.316 -0.815058 -3.89361 0
M  V30 9433 H 850.055 -3.18485 -5.72929 0
M  V30 9434 H 849.575 -1.47435 -5.81397 0
M  V30 9435 H 851.254 -1.95124 -6.16876 0
M  V30 9436 N 851.386 1.48609 -0.524698 0
M  V30 9437 C 852.334 2.31205 0.254398 0
M  V30 9438 C 853.328 1.40894 0.940491 0
M  V30 9439 O 854.534 1.57827 0.865478 0
M  V30 9440 H 850.909 0.745199 0.100907 0
M  V30 9441 H 852.88 2.94804 -0.461876 0
M  V30 9442 C 851.629 3.2282 1.2916 0
M  V30 9443 H 850.952 3.92255 0.773074 0
M  V30 9444 H 852.392 3.83508 1.80825 0
M  V30 9445 C 850.851 2.4406 2.32242 0
M  V30 9446 O 851.381 2.16163 3.3858 0
M  V30 9447 N 849.587 2.05651 2.05319 0
M  V30 9448 H 849.134 2.28539 1.18861 0
M  V30 9449 H 849.092 1.53265 2.74513 0
M  V30 9450 N 852.864 0.259585 1.55447 0
M  V30 9451 C 853.811 -0.634578 2.21905 0
M  V30 9452 C 854.781 -1.16168 1.18719 0
M  V30 9453 O 855.966 -1.21383 1.4721 0
M  V30 9454 C 853.106 -1.82005 2.93203 0
M  V30 9455 C 852.219 -1.32828 4.11073 0
M  V30 9456 C 851.354 -2.47431 4.70055 0
M  V30 9457 C 850.393 -1.95179 5.80148 0
M  V30 9458 N 849.53 -3.03197 6.33258 0
M  V30 9459 H 854.37 -0.0611886 2.97937 0
M  V30 9460 H 851.907 -0.0184378 1.47088 0
M  V30 9461 H 853.865 -2.51664 3.32748 0
M  V30 9462 H 852.495 -2.36571 2.19622 0
M  V30 9463 H 851.547 -0.525301 3.76756 0
M  V30 9464 H 852.859 -0.905435 4.90513 0
M  V30 9465 H 852.013 -3.25111 5.12238 0
M  V30 9466 H 850.752 -2.93023 3.89857 0
M  V30 9467 H 849.757 -1.15974 5.37429 0
M  V30 9468 H 850.982 -1.50541 6.62204 0
M  V30 9469 H 848.928 -3.48199 5.55961 0
M  V30 9470 H 848.845 -2.65282 7.07928 0
M  V30 9471 H 850.113 -3.80898 6.80101 0
M  V30 9472 N 854.342 -1.57594 -0.0133615 0
M  V30 9473 C 855.588 -1.91105 -0.696457 0
M  V30 9474 C 855.943 -0.859872 -1.72116 0
M  V30 9475 O 855.236 0.129579 -1.91161 0
M  V30 9476 C 855.43 -3.29121 -1.39336 0
M  V30 9477 C 855.259 -4.47565 -0.437666 0
M  V30 9478 C 854.029 -5.05272 -0.0529454 0
M  V30 9479 C 856.227 -5.13479 0.290537 0
M  V30 9480 N 854.209 -6.07232 0.902355 0
M  V30 9481 C 855.58 -6.10147 1.10097 0
M  V30 9482 C 857.635 -4.96627 0.355804 0
M  V30 9483 C 856.338 -6.91778 1.97069 0
M  V30 9484 C 858.364 -5.78833 1.21271 0
M  V30 9485 C 857.726 -6.75083 2.01102 0
M  V30 9486 H 853.825 -0.747882 -0.228464 0
M  V30 9487 H 856.409 -1.94651 0.0438462 0
M  V30 9488 H 854.58 -3.26474 -2.10403 0
M  V30 9489 H 856.312 -3.501 -2.03008 0
M  V30 9490 H 853.067 -4.71747 -0.418486 0
M  V30 9491 H 853.491 -6.6289 1.37498 0
M  V30 9492 H 858.133 -4.22077 -0.247105 0
M  V30 9493 H 855.851 -7.65662 2.58433 0
M  V30 9494 H 859.437 -5.67838 1.26694 0
M  V30 9495 H 858.317 -7.37587 2.66337 0
M  V30 9496 N 855.82 0.285905 -1.54985 0
M  V30 9497 C 857.236 0.632405 -1.46536 0
M  V30 9498 C 857.436 1.90074 -0.668888 0
M  V30 9499 O 856.492 2.51839 -0.182586 0
M  V30 9500 C 857.805 0.771361 -2.90638 0
M  V30 9501 C 859.353 0.866262 -3.00774 0
M  V30 9502 C 859.828 1.0371 -4.46103 0
M  V30 9503 N 861.319 1.10294 -4.49877 0
M  V30 9504 C 862.054 1.25369 -5.59527 0
M  V30 9505 N 861.55 1.37246 -6.7907 0
M  V30 9506 N 863.343 1.28377 -5.47244 0
M  V30 9507 H 855.494 -0.547226 -2.0523 0
M  V30 9508 H 857.757 -0.183298 -0.930111 0
M  V30 9509 H 857.463 -0.0899485 -3.51585 0
M  V30 9510 H 857.337 1.65569 -3.3892 0
M  V30 9511 H 859.724 1.71805 -2.39931 0
M  V30 9512 H 859.805 -0.0424049 -2.55765 0
M  V30 9513 H 859.449 0.190021 -5.07544 0
M  V30 9514 H 859.379 1.96022 -4.88757 0
M  V30 9515 H 861.87 1.02407 -3.6376 0
M  V30 9516 H 862.183 1.48546 -7.58389 0
M  V30 9517 H 860.528 1.34274 -6.81906 0
M  V30 9518 H 863.719 1.1872 -4.52795 0
M  V30 9519 H 863.892 1.39782 -6.32744 0
M  V30 9520 N 857.298 1.47698 0.54982 0
M  V30 9521 C 858.228 1.63622 1.66583 0
M  V30 9522 C 859.209 0.485477 1.63025 0
M  V30 9523 O 860.394 0.715692 1.80531 0
M  V30 9524 C 857.524 1.65721 3.05211 0
M  V30 9525 C 856.478 2.80097 3.2362 0
M  V30 9526 C 855.804 2.67272 4.63109 0
M  V30 9527 C 857.104 4.21612 3.08286 0
M  V30 9528 H 858.798 2.57049 1.53512 0
M  V30 9529 H 856.344 1.23705 0.737099 0
M  V30 9530 H 858.297 1.75451 3.83138 0
M  V30 9531 H 857.021 0.688593 3.19258 0
M  V30 9532 H 855.68 2.69889 2.48104 0
M  V30 9533 H 855.328 1.68422 4.73965 0
M  V30 9534 H 855.028 3.44008 4.76374 0
M  V30 9535 H 856.552 2.78942 5.43161 0
M  V30 9536 H 857.966 4.32758 3.76024 0
M  V30 9537 H 856.363 4.99193 3.33057 0
M  V30 9538 H 857.433 4.39462 2.04942 0
M  V30 9539 N 858.776 -0.797141 1.35954 0
M  V30 9540 C 859.706 -1.92387 1.32323 0
M  V30 9541 C 860.687 -1.68967 0.196007 0
M  V30 9542 O 861.872 -1.90193 0.39245 0
M  V30 9543 C 859.002 -3.29286 1.10398 0
M  V30 9544 C 857.956 -3.67212 2.19862 0
M  V30 9545 C 857.282 -5.02377 1.8309 0
M  V30 9546 C 858.582 -3.76602 3.61896 0
M  V30 9547 H 860.276 -1.95683 2.26602 0
M  V30 9548 H 857.822 -0.94007 1.09081 0
M  V30 9549 H 859.775 -4.07721 1.06495 0
M  V30 9550 H 858.499 -3.26358 0.125668 0
M  V30 9551 H 857.158 -2.91069 2.22878 0
M  V30 9552 H 856.806 -4.95961 0.838527 0
M  V30 9553 H 856.506 -5.28722 2.56372 0
M  V30 9554 H 858.03 -5.8324 1.80729 0
M  V30 9555 H 859.444 -4.45246 3.6115 0
M  V30 9556 H 857.841 -4.14425 4.34018 0
M  V30 9557 H 858.911 -2.77906 3.97361 0
M  V30 9558 N 860.254 -1.20106 -1.0204 0
M  V30 9559 C 861.484 -1.0329 -1.78927 0
M  V30 9560 C 861.892 0.421115 -1.84454 0
M  V30 9561 O 861.235 1.30422 -1.29367 0
M  V30 9562 C 861.297 -1.53627 -3.25021 0
M  V30 9563 C 860.961 -3.01869 -3.4311 0
M  V30 9564 C 861.958 -3.9956 -3.32638 0
M  V30 9565 C 859.643 -3.40746 -3.6905 0
M  V30 9566 C 861.637 -5.34119 -3.47844 0
M  V30 9567 C 859.324 -4.75462 -3.839 0
M  V30 9568 C 860.322 -5.71957 -3.73302 0
M  V30 9569 O 860.01 -7.04231 -3.87703 0
M  V30 9570 H 859.742 -0.363962 -0.569656 0
M  V30 9571 H 862.296 -1.59551 -1.29354 0
M  V30 9572 H 860.526 -0.917481 -3.75658 0
M  V30 9573 H 862.215 -1.32889 -3.8353 0
M  V30 9574 H 862.981 -3.70869 -3.12539 0
M  V30 9575 H 858.86 -2.66182 -3.76388 0
M  V30 9576 H 862.404 -6.09421 -3.39488 0
M  V30 9577 H 858.301 -5.03844 -4.03499 0
M  V30 9578 H 859.069 -7.11425 -4.04744 0
M  V30 9579 N 861.732 1.21287 -1.00634 0
M  V30 9580 C 862.642 2.27388 -0.577226 0
M  V30 9581 C 863.658 1.69791 0.380399 0
M  V30 9582 O 864.834 1.99918 0.2439 0
M  V30 9583 C 861.899 3.46588 0.0880532 0
M  V30 9584 C 860.96 4.19453 -0.914222 0
M  V30 9585 C 860.193 5.32962 -0.280596 0
M  V30 9586 O 860.416 5.62895 0.922265 0
M  V30 9587 O 859.35 5.93666 -0.992196 0
M  V30 9588 H 863.176 2.66289 -1.46028 0
M  V30 9589 H 860.761 1.2771 -0.775283 0
M  V30 9590 H 862.643 4.18881 0.460094 0
M  V30 9591 H 861.318 3.09585 0.945461 0
M  V30 9592 H 860.225 3.49376 -1.33744 0
M  V30 9593 H 861.558 4.6037 -1.74126 0
M  V30 9594 N 863.21 0.781244 1.36873 0
M  V30 9595 C 864.12 0.174981 2.33947 0
M  V30 9596 C 865.136 -0.668512 1.60645 0
M  V30 9597 O 866.312 -0.586213 1.9268 0
M  V30 9598 C 863.377 -0.686557 3.39834 0
M  V30 9599 C 862.438 0.174489 4.28945 0
M  V30 9600 C 861.671 -0.646024 5.29776 0
M  V30 9601 O 861.894 -1.88254 5.38439 0
M  V30 9602 O 860.828 -0.0502214 6.01879 0
M  V30 9603 H 864.654 0.977382 2.87543 0
M  V30 9604 H 862.239 0.542559 1.392 0
M  V30 9605 H 864.121 -1.1781 4.04597 0
M  V30 9606 H 862.796 -1.46699 2.8855 0
M  V30 9607 H 861.703 0.712604 3.6725 0
M  V30 9608 H 863.036 0.918232 4.83559 0
M  V30 9609 N 864.689 -1.48329 0.532571 0
M  V30 9610 C 865.619 -2.32485 -0.217511 0
M  V30 9611 C 866.6 -1.42255 -0.932598 0
M  V30 9612 O 867.785 -1.7114 -0.917873 0
M  V30 9613 C 864.915 -3.23509 -1.26329 0
M  V30 9614 C 863.869 -4.22784 -0.666191 0
M  V30 9615 C 863.195 -5.0296 -1.81482 0
M  V30 9616 C 864.495 -5.21031 0.363813 0
M  V30 9617 H 866.189 -2.95445 0.485014 0
M  V30 9618 H 863.735 -1.42075 0.234694 0
M  V30 9619 H 865.688 -3.81211 -1.79601 0
M  V30 9620 H 864.412 -2.58554 -1.99543 0
M  V30 9621 H 863.071 -3.66272 -0.15498 0
M  V30 9622 H 862.719 -4.34427 -2.5354 0
M  V30 9623 H 862.419 -5.70154 -1.4212 0
M  V30 9624 H 863.943 -5.63514 -2.35126 0
M  V30 9625 H 865.357 -5.73241 -0.0819079 0
M  V30 9626 H 863.754 -5.96292 0.674956 0
M  V30 9627 H 864.824 -4.6801 1.26865 0
M  V30 9628 N 866.167 -0.267825 -1.55308 0
M  V30 9629 C 867.397 0.354073 -2.03543 0
M  V30 9630 C 867.805 1.50554 -1.14586 0
M  V30 9631 O 867.148 1.83028 -0.156991 0
M  V30 9632 C 867.21 0.904148 -3.47945 0
M  V30 9633 C 866.874 -0.11775 -4.56848 0
M  V30 9634 C 867.871 -0.934707 -5.11429 0
M  V30 9635 C 865.556 -0.249885 -5.01678 0
M  V30 9636 C 867.55 -1.87005 -6.0935 0
M  V30 9637 C 865.237 -1.18872 -5.99427 0
M  V30 9638 C 866.235 -1.99731 -6.53144 0
M  V30 9639 O 865.923 -2.92028 -7.48983 0
M  V30 9640 H 865.655 0.0857765 -0.670536 0
M  V30 9641 H 868.209 -0.395515 -2.01556 0
M  V30 9642 H 866.439 1.70368 -3.47148 0
M  V30 9643 H 868.128 1.43835 -3.79561 0
M  V30 9644 H 868.894 -0.84332 -4.77612 0
M  V30 9645 H 864.773 0.369469 -4.59517 0
M  V30 9646 H 868.317 -2.5016 -6.51203 0
M  V30 9647 H 864.214 -1.28095 -6.32663 0
M  V30 9648 H 864.982 -2.86627 -7.66673 0
M  V30 9649 N 867.645 1.57599 0.00500368 0
M  V30 9650 C 868.593 2.09223 1.01628 0
M  V30 9651 C 869.587 1.01113 1.35913 0
M  V30 9652 O 870.793 1.19583 1.34536 0
M  V30 9653 H 867.168 0.667999 0.345372 0
M  V30 9654 H 869.139 2.93188 0.555274 0
M  V30 9655 C 867.888 2.60674 2.30097 0
M  V30 9656 H 867.211 3.43491 2.04582 0
M  V30 9657 H 868.651 3.00479 2.99146 0
M  V30 9658 C 867.11 1.51862 3.00731 0
M  V30 9659 O 867.64 0.898651 3.91519 0
M  V30 9660 N 865.846 1.24729 2.62471 0
M  V30 9661 H 865.393 1.7533 1.88725 0
M  V30 9662 H 865.351 0.521437 3.10046 0
M  V30 9663 N 869.123 -0.277682 1.55134 0
M  V30 9664 C 870.07 -1.34313 1.87693 0
M  V30 9665 C 871.04 -1.49298 0.727973 0
M  V30 9666 O 872.225 -1.6378 0.978807 0
M  V30 9667 C 869.365 -2.69922 2.15026 0
M  V30 9668 C 868.478 -2.63197 3.42565 0
M  V30 9669 C 867.613 -3.90955 3.59622 0
M  V30 9670 C 866.652 -3.78722 4.8087 0
M  V30 9671 N 865.789 -4.98303 4.94609 0
M  V30 9672 H 870.629 -1.05847 2.78569 0
M  V30 9673 H 868.166 -0.511469 1.37922 0
M  V30 9674 H 870.124 -3.48817 2.28872 0
M  V30 9675 H 868.754 -2.966 1.2739 0
M  V30 9676 H 867.806 -1.76038 3.37216 0
M  V30 9677 H 869.118 -2.50056 4.31594 0
M  V30 9678 H 868.272 -4.78291 3.7326 0
M  V30 9679 H 867.011 -4.06957 2.6877 0
M  V30 9680 H 866.016 -2.89769 4.67241 0
M  V30 9681 H 867.241 -3.64242 5.73153 0
M  V30 9682 H 865.187 -5.14725 4.06687 0
M  V30 9683 H 865.104 -4.87675 5.77676 0
M  V30 9684 H 866.372 -5.87225 5.12628 0
M  V30 9685 N 870.601 -1.47988 -0.541979 0
M  V30 9686 C 871.829 -1.59034 -1.32347 0
M  V30 9687 C 872.244 -0.246123 -1.87189 0
M  V30 9688 O 871.601 0.762889 -1.6579 0
M  V30 9689 C 871.652 -2.62759 -2.48274 0
M  V30 9690 O 871.373 -3.91963 -1.95695 0
M  V30 9691 C 872.874 -2.84133 -3.4027 0
M  V30 9692 H 870.094 -0.536574 -0.402901 0
M  V30 9693 H 872.638 -1.93725 -0.655045 0
M  V30 9694 H 870.793 -2.3096 -3.11025 0
M  V30 9695 H 871.207 -4.48769 -2.7149 0
M  V30 9696 H 872.681 -3.60538 -4.17991 0
M  V30 9697 H 873.158 -1.92512 -3.9476 0
M  V30 9698 H 873.764 -3.17188 -2.83322 0
M  V30 9699 N 872.079 0.78992 -1.36375 0
M  V30 9700 C 873.026 1.90254 -1.3066 0
M  V30 9701 C 873.996 1.65171 -0.17539 0
M  V30 9702 O 875.181 1.87338 -0.361824 0
M  V30 9703 C 872.321 3.27057 -1.10125 0
M  V30 9704 C 871.434 3.64215 -2.32317 0
M  V30 9705 C 870.569 4.90134 -2.04798 0
M  V30 9706 C 869.608 5.19969 -3.22953 0
M  V30 9707 N 868.745 6.37071 -2.95102 0
M  V30 9708 H 873.585 1.94474 -2.25796 0
M  V30 9709 H 871.122 0.951022 -1.12223 0
M  V30 9710 H 873.08 4.05947 -0.962453 0
M  V30 9711 H 871.71 3.22261 -0.186444 0
M  V30 9712 H 870.762 2.80454 -2.57002 0
M  V30 9713 H 872.074 3.82212 -3.20492 0
M  V30 9714 H 871.228 5.76888 -1.87845 0
M  V30 9715 H 869.967 4.74205 -1.13932 0
M  V30 9716 H 868.972 4.31699 -3.40465 0
M  V30 9717 H 870.197 5.37817 -4.14644 0
M  V30 9718 H 868.143 6.22535 -2.06848 0
M  V30 9719 H 868.06 6.55398 -3.76815 0
M  V30 9720 H 869.328 7.26808 -2.81727 0
M  V30 9721 N 873.557 1.20646 1.01402 0
M  V30 9722 C 874.968 1.01823 1.56489 0
M  V30 9723 C 875.319 -0.42463 1.9155 0
M  V30 9724 O 874.444 -1.30644 1.72514 0
M  V30 9725 C 875.039 1.84208 2.84347 0
M  V30 9726 C 873.598 1.69743 3.35953 0
M  V30 9727 C 872.745 1.8198 2.09233 0
M  V30 9728 H 875.696 1.348 0.837539 0
M  V30 9729 H 875.717 1.34698 3.55861 0
M  V30 9730 H 875.229 2.89215 2.58798 0
M  V30 9731 H 873.33 0.673833 3.66456 0
M  V30 9732 H 873.443 2.51173 4.07981 0
M  V30 9733 H 871.807 1.25193 2.21808 0
M  V30 9734 H 872.59 2.88477 1.86107 0
M  V30 9735 N 875.035 -1.20752 1.01276 0
M  V30 9736 C 876.282 -1.90021 0.699887 0
M  V30 9737 C 876.61 -1.78604 -0.770113 0
M  V30 9738 O 875.865 -1.16195 -1.57471 0
M  V30 9739 C 876.164 -3.40808 1.07633 0
M  V30 9740 C 875.83 -3.72423 2.54189 0
M  V30 9741 C 874.492 -3.80762 2.94234 0
M  V30 9742 C 876.844 -3.87025 3.49086 0
M  V30 9743 C 874.172 -4.01158 4.28123 0
M  V30 9744 C 876.524 -4.0893 4.82658 0
M  V30 9745 C 875.188 -4.15498 5.22415 0
M  V30 9746 H 874.458 -0.695335 0.256107 0
M  V30 9747 H 877.105 -1.43096 1.27263 0
M  V30 9748 H 875.41 -3.89521 0.421944 0
M  V30 9749 H 877.107 -3.92693 0.811997 0
M  V30 9750 H 873.697 -3.66529 2.22158 0
M  V30 9751 H 877.881 -3.79942 3.19309 0
M  V30 9752 H 873.137 -4.04476 4.58486 0
M  V30 9753 H 877.311 -4.19172 5.56119 0
M  V30 9754 H 874.938 -4.31055 6.26176 0
M  V30 9755 N 876.513 -0.788492 -1.36457 0
M  V30 9756 C 877.445 -0.144208 -2.28746 0
M  V30 9757 C 878.458 0.646009 -1.49434 0
M  V30 9758 O 879.647 0.481344 -1.71888 0
M  V30 9759 C 876.747 0.818869 -3.28858 0
M  V30 9760 C 875.92 0.0789055 -4.37329 0
M  V30 9761 C 874.979 0.957791 -5.1741 0
M  V30 9762 O 874.005 0.415378 -5.67682 0
M  V30 9763 N 875.207 2.28216 -5.33758 0
M  V30 9764 H 877.972 -0.936949 -2.84678 0
M  V30 9765 H 875.533 -0.642317 -1.48613 0
M  V30 9766 H 877.525 1.41065 -3.79319 0
M  V30 9767 H 876.095 1.51249 -2.73573 0
M  V30 9768 H 875.315 -0.693939 -3.88044 0
M  V30 9769 H 876.603 -0.431753 -5.06965 0
M  V30 9770 H 876.001 2.747 -4.94527 0
M  V30 9771 H 874.558 2.8236 -5.87466 0
M  V30 9772 N 877.991 1.48044 -0.54043 0
M  V30 9773 C 878.921 2.32597 0.205178 0
M  V30 9774 C 879.902 1.42748 0.925041 0
M  V30 9775 O 881.087 1.71624 0.908784 0
M  V30 9776 C 878.217 3.24175 1.24612 0
M  V30 9777 C 877.171 4.23131 0.64376 0
M  V30 9778 C 876.497 5.03915 1.78812 0
M  V30 9779 C 877.797 5.20831 -0.39144 0
M  V30 9780 H 879.491 2.95184 -0.500676 0
M  V30 9781 H 877.037 1.41948 -0.242225 0
M  V30 9782 H 878.99 3.82158 1.77576 0
M  V30 9783 H 877.714 2.59608 1.98169 0
M  V30 9784 H 876.373 3.66349 0.135554 0
M  V30 9785 H 876.021 4.35765 2.51232 0
M  V30 9786 H 875.721 5.709 1.39094 0
M  V30 9787 H 877.245 5.64753 2.32134 0
M  V30 9788 H 878.659 5.73277 0.0515064 0
M  V30 9789 H 877.056 5.95926 -0.706569 0
M  V30 9790 H 878.126 4.6733 -1.29345 0
M  V30 9791 N 879.47 0.276058 1.55163 0
M  V30 9792 C 880.402 -0.644254 2.19959 0
M  V30 9793 C 881.415 -1.11675 1.18459 0
M  V30 9794 O 882.604 -1.0385 1.45181 0
M  V30 9795 C 879.704 -1.89093 2.81242 0
M  V30 9796 C 878.877 -1.56509 4.08441 0
M  V30 9797 C 877.936 -2.66433 4.53762 0
M  V30 9798 O 876.962 -2.32579 5.19515 0
M  V30 9799 N 878.164 -3.96509 4.23982 0
M  V30 9800 H 880.929 -0.0896808 2.99566 0
M  V30 9801 H 878.49 0.0971981 1.61608 0
M  V30 9802 H 880.482 -2.61929 3.08505 0
M  V30 9803 H 879.052 -2.35453 2.05622 0
M  V30 9804 H 878.272 -0.670522 3.88455 0
M  V30 9805 H 879.56 -1.32242 4.91314 0
M  V30 9806 H 878.958 -4.26834 3.71254 0
M  V30 9807 H 877.515 -4.6572 4.56014 0
M  V30 9808 N 880.948 -1.576 0.00335426 0
M  V30 9809 C 881.878 -2.11668 -0.985839 0
M  V30 9810 C 882.859 -1.02661 -1.35627 0
M  V30 9811 O 884.044 -1.30361 -1.43943 0
M  V30 9812 C 881.174 -2.62273 -2.27662 0
M  V30 9813 C 880.128 -3.75837 -2.0477 0
M  V30 9814 C 879.454 -4.12769 -3.39891 0
M  V30 9815 C 880.754 -5.02975 -1.40759 0
M  V30 9816 H 882.448 -2.9457 -0.535637 0
M  V30 9817 H 879.994 -1.41702 -0.256204 0
M  V30 9818 H 881.947 -2.98727 -2.97221 0
M  V30 9819 H 880.671 -1.76498 -2.74802 0
M  V30 9820 H 879.33 -3.39782 -1.37636 0
M  V30 9821 H 878.978 -3.24013 -3.8474 0
M  V30 9822 H 878.678 -4.89281 -3.25389 0
M  V30 9823 H 880.202 -4.51784 -4.1076 0
M  V30 9824 H 881.616 -5.37179 -2.00279 0
M  V30 9825 H 880.013 -5.84315 -1.36734 0
M  V30 9826 H 881.083 -4.83431 -0.377218 0
M  V30 9827 N 882.426 0.269451 -1.5528 0
M  V30 9828 C 883.703 1.02207 -1.66773 0
M  V30 9829 C 884.083 2.04168 -0.536536 0
M  V30 9830 O 883.431 2.23761 0.462956 0
M  V30 9831 C 883.641 1.67569 -3.0614 0
M  V30 9832 C 884.989 2.18599 -3.64005 0
M  V30 9833 O 886.013 1.7755 -3.08795 0
M  V30 9834 O 884.872 2.93903 -4.60742 0
M  V30 9835 H 881.966 0.474314 -0.677462 0
M  V30 9836 H 884.512 0.265026 -1.67618 0
M  V30 9837 H 883.284 0.937029 -3.79915 0
M  V30 9838 H 882.907 2.49951 -3.09209 0
M  V30 9839 N 883.904 1.48273 0.534124 0
M  V30 9840 C 884.867 1.6201 1.62127 0
M  V30 9841 C 885.867 0.493653 1.53035 0
M  V30 9842 O 887.057 0.759337 1.56779 0
M  V30 9843 C 884.189 1.5864 3.01739 0
M  V30 9844 H 885.382 2.58944 1.51288 0
M  V30 9845 H 882.935 1.36808 0.755861 0
M  V30 9846 H 883.67 0.631685 3.18088 0
M  V30 9847 H 883.455 2.40415 3.09747 0
M  V30 9848 H 884.945 1.71438 3.80787 0
M  V30 9849 N 885.382 -0.782676 1.36792 0
M  V30 9850 C 886.629 -1.54083 1.31395 0
M  V30 9851 C 886.957 -1.94217 -0.104797 0
M  V30 9852 O 886.212 -1.63491 -1.0756 0
M  V30 9853 C 886.511 -2.82542 2.18872 0
M  V30 9854 C 886.177 -2.61512 3.67317 0
M  V30 9855 C 884.839 -2.55486 4.07775 0
M  V30 9856 C 887.191 -2.42389 4.61407 0
M  V30 9857 C 884.519 -2.28311 5.40454 0
M  V30 9858 C 886.871 -2.1674 5.94312 0
M  V30 9859 C 885.535 -2.09151 6.33887 0
M  V30 9860 H 884.805 -0.563829 0.48081 0
M  V30 9861 H 887.452 -0.902436 1.68903 0
M  V30 9862 H 885.757 -3.50883 1.74323 0
M  V30 9863 H 887.454 -3.40367 2.12017 0
M  V30 9864 H 884.044 -2.67062 3.35225 0
M  V30 9865 H 888.228 -2.46043 4.31018 0
M  V30 9866 H 883.484 -2.20922 5.70091 0
M  V30 9867 H 887.658 -2.0094 6.6678 0
M  V30 9868 H 885.285 -1.87857 7.36623 0
M  V30 9869 N 886.86 -1.21182 -1.00761 0
M  V30 9870 C 887.77 -0.984691 -2.12934 0
M  V30 9871 C 888.786 0.0623657 -1.73888 0
M  V30 9872 O 889.962 -0.1271 -2.00999 0
M  V30 9873 C 887.027 -0.549447 -3.42319 0
M  V30 9874 C 886.088 -1.66841 -3.95553 0
M  V30 9875 C 885.321 -1.25384 -5.18763 0
M  V30 9876 O 885.544 -0.126333 -5.7026 0
M  V30 9877 O 884.478 -2.06475 -5.65377 0
M  V30 9878 H 888.304 -1.92413 -2.3497 0
M  V30 9879 H 885.889 -0.99647 -1.11314 0
M  V30 9880 H 887.771 -0.316384 -4.20211 0
M  V30 9881 H 886.446 0.361304 -3.21677 0
M  V30 9882 H 885.353 -1.95585 -3.189 0
M  V30 9883 H 886.686 -2.55649 -4.206 0
M  V30 9884 N 888.338 1.20213 -1.01915 0
M  V30 9885 C 889.584 1.89928 -0.711007 0
M  V30 9886 C 889.917 1.7881 0.75767 0
M  V30 9887 O 889.192 1.17399 1.55073 0
M  V30 9888 C 889.475 3.41225 -1.15053 0
M  V30 9889 C 889.328 3.61264 -2.67971 0
M  V30 9890 C 890.647 4.34108 -0.72377 0
M  V30 9891 H 887.766 0.689702 -0.259768 0
M  V30 9892 H 890.408 1.41557 -1.26734 0
M  V30 9893 H 888.558 3.82552 -0.677199 0
M  V30 9894 H 890.23 3.29173 -3.23176 0
M  V30 9895 H 888.473 3.04647 -3.08824 0
M  V30 9896 H 889.144 4.67331 -2.93779 0
M  V30 9897 H 891.62 4.00442 -1.13073 0
M  V30 9898 H 890.496 5.38581 -1.05931 0
M  V30 9899 H 890.757 4.40512 0.374424 0
M  V30 9900 N 889.816 0.795718 1.36037 0
M  V30 9901 C 890.726 0.199784 2.33748 0
M  V30 9902 C 891.742 -0.651436 1.61345 0
M  V30 9903 O 892.918 -0.565743 1.93291 0
M  V30 9904 C 889.983 -0.650475 3.40543 0
M  V30 9905 C 889.044 0.219974 4.28736 0
M  V30 9906 C 888.277 -0.589798 5.30431 0
M  V30 9907 O 888.5 -1.82532 5.40406 0
M  V30 9908 O 887.434 0.0136187 6.01898 0
M  V30 9909 H 891.26 1.00782 2.8649 0
M  V30 9910 H 888.845 0.557293 1.38617 0
M  V30 9911 H 890.727 -1.13512 4.05824 0
M  V30 9912 H 889.402 -1.4363 2.9009 0
M  V30 9913 H 888.309 0.751516 3.66474 0
M  V30 9914 H 889.642 0.969468 4.82558 0
M  V30 9915 N 891.294 -1.47756 0.548274 0
M  V30 9916 C 892.241 -2.29893 -0.204408 0
M  V30 9917 C 893.211 -1.38509 -0.916761 0
M  V30 9918 O 894.396 -1.67472 -0.91421 0
M  V30 9919 C 891.536 -3.22282 -1.23403 0
M  V30 9920 C 890.649 -4.28753 -0.528654 0
M  V30 9921 C 889.784 -5.08303 -1.54279 0
M  V30 9922 C 888.823 -6.06557 -0.821893 0
M  V30 9923 N 887.96 -6.79098 -1.78243 0
M  V30 9924 H 892.8 -2.93739 0.502163 0
M  V30 9925 H 890.337 -1.44793 0.259471 0
M  V30 9926 H 892.295 -3.74262 -1.84348 0
M  V30 9927 H 890.925 -2.6032 -1.90875 0
M  V30 9928 H 889.977 -3.79899 0.195132 0
M  V30 9929 H 891.289 -4.98787 0.0365066 0
M  V30 9930 H 890.443 -5.64388 -2.22602 0
M  V30 9931 H 889.182 -4.3815 -2.14186 0
M  V30 9932 H 888.187 -5.49659 -0.12469 0
M  V30 9933 H 889.412 -6.78715 -0.228685 0
M  V30 9934 H 887.358 -6.11682 -2.37025 0
M  V30 9935 H 887.275 -7.4527 -1.26919 0
M  V30 9936 H 888.543 -7.39762 -2.45709 0
M  V30 9937 N 892.772 -0.284283 -1.55015 0
M  V30 9938 C 893.704 0.63258 -2.20298 0
M  V30 9939 C 894.717 1.11045 -1.1905 0
M  V30 9940 O 895.906 1.03078 -1.4573 0
M  V30 9941 C 893.006 1.87599 -2.82241 0
M  V30 9942 C 892.179 1.5434 -4.09265 0
M  V30 9943 C 891.238 2.64023 -4.55169 0
M  V30 9944 O 890.264 2.29821 -5.20741 0
M  V30 9945 N 891.466 3.94255 -4.26079 0
M  V30 9946 H 894.231 0.0737928 -2.99609 0
M  V30 9947 H 891.792 -0.105767 -1.61554 0
M  V30 9948 H 893.784 2.60289 -3.0989 0
M  V30 9949 H 892.354 2.3436 -2.06868 0
M  V30 9950 H 891.574 0.649912 -3.88806 0
M  V30 9951 H 892.862 1.29634 -4.92009 0
M  V30 9952 H 892.26 4.24859 -3.73512 0
M  V30 9953 H 890.817 4.63295 -4.58477 0
M  V30 9954 N 894.251 1.57596 -0.0117121 0
M  V30 9955 C 895.214 2.08089 0.960816 0
M  V30 9956 C 896.214 0.992519 1.26514 0
M  V30 9957 O 897.404 1.25475 1.20837 0
M  V30 9958 C 894.536 2.53217 2.28241 0
M  V30 9959 H 895.729 2.9529 0.523829 0
M  V30 9960 H 893.282 1.54508 0.235995 0
M  V30 9961 H 894.017 1.69294 2.76604 0
M  V30 9962 H 893.802 3.32714 2.0747 0
M  V30 9963 H 895.292 2.92568 2.97983 0
M  V30 9964 N 895.729 -0.261212 1.5542 0
M  V30 9965 C 896.659 -1.32712 1.92119 0
M  V30 9966 C 897.64 -1.50934 0.784406 0
M  V30 9967 O 898.825 -1.63781 1.04352 0
M  V30 9968 C 895.955 -2.68453 2.20341 0
M  V30 9969 C 894.909 -2.64947 3.36136 0
M  V30 9970 C 894.235 -4.04349 3.49865 0
M  V30 9971 C 895.535 -2.23182 4.72215 0
M  V30 9972 H 897.229 -1.02245 2.81401 0
M  V30 9973 H 894.775 -0.490406 1.35392 0
M  V30 9974 H 896.728 -3.43144 2.44603 0
M  V30 9975 H 895.452 -3.00527 1.27871 0
M  V30 9976 H 894.111 -1.92714 3.11861 0
M  V30 9977 H 893.759 -4.33665 2.5484 0
M  V30 9978 H 893.459 -4.02895 4.27726 0
M  V30 9979 H 894.983 -4.80761 3.76432 0
M  V30 9980 H 896.397 -2.87599 4.95943 0
M  V30 9981 H 894.794 -2.32867 5.53076 0
M  V30 9982 H 895.864 -1.18327 4.70241 0
M  V30 9983 N 897.207 -1.48554 -0.526253 0
M  V30 9984 C 898.137 -1.66252 -1.63959 0
M  V30 9985 C 899.118 -0.511351 -1.62232 0
M  V30 9986 O 900.303 -0.744322 -1.7937 0
M  V30 9987 C 897.433 -1.70556 -3.02536 0
M  V30 9988 C 896.387 -2.8521 -3.19123 0
M  V30 9989 C 895.713 -2.74606 -4.58798 0
M  V30 9990 C 897.013 -4.26463 -3.0154 0
M  V30 9991 H 898.707 -2.59459 -1.49404 0
M  V30 9992 H 896.253 -1.24862 -0.717326 0
M  V30 9993 H 898.206 -1.81524 -3.80298 0
M  V30 9994 H 896.93 -0.739297 -3.18123 0
M  V30 9995 H 895.589 -2.73802 -2.43779 0
M  V30 9996 H 895.237 -1.75941 -4.71226 0
M  V30 9997 H 894.937 -3.51544 -4.70841 0
M  V30 9998 H 896.461 -2.87548 -5.38655 0
M  V30 9999 H 897.875 -4.38685 -3.69091 0
M  V30 10000 H 896.272 -5.04428 -3.25073 0
M  V30 10001 H 897.342 -4.42667 -1.97925 0
M  V30 10002 N 898.685 0.775411 -1.37205 0
M  V30 10003 C 899.633 1.90996 -1.32752 0
M  V30 10004 C 900.627 1.68006 -0.216907 0
M  V30 10005 O 901.833 1.7584 -0.384723 0
M  V30 10006 H 898.208 0.62803 -0.413621 0
M  V30 10007 H 900.179 1.91869 -2.28536 0
M  V30 10008 C 898.928 3.28211 -1.14772 0
M  V30 10009 H 898.251 3.46477 -1.99484 0
M  V30 10010 H 899.691 4.07907 -1.15706 0
M  V30 10011 C 898.15 3.3658 0.146852 0
M  V30 10012 O 898.68 3.85428 1.13173 0
M  V30 10013 N 896.886 2.89936 0.196305 0
M  V30 10014 H 896.433 2.50375 -0.605807 0
M  V30 10015 H 896.391 2.95916 1.06212 0
M  V30 10016 N 900.163 1.21714 1.00117 0
M  V30 10017 C 901.073 0.99597 2.12409 0
M  V30 10018 C 902.089 -0.0531431 1.73919 0
M  V30 10019 O 903.265 0.137757 2.00928 0
M  V30 10020 C 900.33 0.567593 3.42022 0
M  V30 10021 C 899.391 1.68936 3.94663 0
M  V30 10022 C 898.624 1.28133 5.1809 0
M  V30 10023 O 898.847 0.156574 5.70185 0
M  V30 10024 O 897.781 2.0947 5.64275 0
M  V30 10025 H 901.607 1.93657 2.33946 0
M  V30 10026 H 899.192 1.00236 1.10784 0
M  V30 10027 H 901.074 0.338664 4.20037 0
M  V30 10028 H 899.749 -0.34424 3.21864 0
M  V30 10029 H 898.656 1.97274 3.17858 0
M  V30 10030 H 899.989 2.57876 4.19238 0
M  V30 10031 N 901.641 -1.19671 1.02551 0
M  V30 10032 C 902.591 -2.20655 0.574037 0
M  V30 10033 C 903.575 -1.56459 -0.375412 0
M  V30 10034 O 904.767 -1.75901 -0.196929 0
M  V30 10035 C 901.896 -3.43213 -0.0772031 0
M  V30 10036 C 900.982 -4.1456 0.894485 0
M  V30 10037 N 901.373 -4.62147 2.05557 0
M  V30 10038 C 899.671 -4.40196 0.717205 0
M  V30 10039 C 900.372 -5.16899 2.66814 0
M  V30 10040 N 899.348 -5.07496 1.94804 0
M  V30 10041 H 903.15 -2.55124 1.45908 0
M  V30 10042 H 900.664 -1.35707 0.89204 0
M  V30 10043 H 902.661 -4.14797 -0.41824 0
M  V30 10044 H 901.321 -3.10247 -0.957973 0
M  V30 10045 H 902.332 -4.5708 2.43513 0
M  V30 10046 H 899.009 -4.17342 -0.114758 0
M  V30 10047 H 900.399 -5.64032 3.65126 0
M  V30 10048 N 903.119 -0.802921 -1.35613 0
M  V30 10049 C 904.367 -0.380822 -1.9848 0
M  V30 10050 C 904.688 1.05464 -1.6402 0
M  V30 10051 O 903.958 1.72908 -0.920854 0
M  V30 10052 H 902.538 -0.137824 -0.734176 0
M  V30 10053 H 905.2 -1.02795 -1.65587 0
M  V30 10054 H 904.296 -0.483565 -3.08331 0
M  V30 10055 N 904.597 1.47463 -0.556102 0
M  V30 10056 C 905.56 2.28478 0.181743 0
M  V30 10057 C 906.56 1.36886 0.843738 0
M  V30 10058 O 907.75 1.59527 0.69977 0
M  V30 10059 C 904.882 3.16534 1.26566 0
M  V30 10060 H 906.075 2.95182 -0.529892 0
M  V30 10061 H 903.628 1.53134 -0.313005 0
M  V30 10062 H 904.363 2.5452 2.00973 0
M  V30 10063 H 904.148 3.83939 0.795798 0
M  V30 10064 H 905.638 3.77579 1.78393 0
M  V30 10065 N 906.075 0.2925 1.54862 0
M  V30 10066 C 907.038 -0.574423 2.21885 0
M  V30 10067 C 908.038 -1.06791 1.20218 0
M  V30 10068 O 909.228 -0.9653 1.45009 0
M  V30 10069 C 906.36 -1.79438 2.89853 0
M  V30 10070 H 907.553 0.0110319 2.99898 0
M  V30 10071 H 905.106 0.043256 1.5624 0
M  V30 10072 H 905.841 -2.4199 2.15897 0
M  V30 10073 H 905.626 -1.44827 3.64373 0
M  V30 10074 H 907.116 -2.41048 3.41007 0
M  V30 10075 N 907.553 -1.57587 0.0200696 0
M  V30 10076 C 908.485 -2.06555 -0.993359 0
M  V30 10077 C 909.498 -0.987227 -1.29451 0
M  V30 10078 O 910.687 -1.26361 -1.26075 0
M  V30 10079 C 907.787 -2.4675 -2.3231 0
M  V30 10080 C 906.96 -3.77554 -2.20843 0
M  V30 10081 C 906.019 -4.04397 -3.36674 0
M  V30 10082 O 905.045 -4.7478 -3.13963 0
M  V30 10083 N 906.247 -3.53861 -4.60176 0
M  V30 10084 H 909.012 -2.9412 -0.575617 0
M  V30 10085 H 906.573 -1.61038 -0.166889 0
M  V30 10086 H 908.565 -2.61806 -3.08609 0
M  V30 10087 H 907.135 -1.64598 -2.65756 0
M  V30 10088 H 906.355 -3.72382 -1.29327 0
M  V30 10089 H 907.643 -4.63271 -2.10375 0
M  V30 10090 H 907.041 -2.96904 -4.81523 0
M  V30 10091 H 905.598 -3.74213 -5.33674 0
M  V30 10092 N 909.032 0.252966 -1.55557 0
M  V30 10093 C 909.942 1.33472 -1.92931 0
M  V30 10094 C 910.958 1.52983 -0.828985 0
M  V30 10095 O 912.134 1.66723 -1.12984 0
M  V30 10096 C 909.199 2.6704 -2.21112 0
M  V30 10097 C 908.26 2.56103 -3.44542 0
M  V30 10098 C 907.493 3.83302 -3.71369 0
M  V30 10099 O 907.716 4.84907 -3.00368 0
M  V30 10100 O 906.65 3.823 -4.64898 0
M  V30 10101 H 910.476 1.04768 -2.85057 0
M  V30 10102 H 908.061 0.453208 -1.4236 0
M  V30 10103 H 909.943 3.45981 -2.40572 0
M  V30 10104 H 908.618 2.95489 -1.32166 0
M  V30 10105 H 907.525 1.7547 -3.30396 0
M  V30 10106 H 908.858 2.32601 -4.33772 0
M  V30 10107 N 910.51 1.48831 0.518367 0
M  V30 10108 C 911.442 1.60317 1.63802 0
M  V30 10109 C 912.455 0.486771 1.55352 0
M  V30 10110 O 913.644 0.758111 1.61601 0
M  V30 10111 C 910.744 1.52771 3.02513 0
M  V30 10112 C 909.917 2.79649 3.36326 0
M  V30 10113 C 908.976 2.65396 4.54369 0
M  V30 10114 O 908.002 3.39304 4.57013 0
M  V30 10115 N 909.204 1.75784 5.53245 0
M  V30 10116 H 911.969 2.56878 1.54383 0
M  V30 10117 H 909.53 1.45701 0.705889 0
M  V30 10118 H 911.522 1.40914 3.79375 0
M  V30 10119 H 910.092 0.641381 3.05949 0
M  V30 10120 H 909.312 3.05985 2.48529 0
M  V30 10121 H 910.6 3.63799 3.55707 0
M  V30 10122 H 909.998 1.14961 5.53896 0
M  V30 10123 H 908.555 1.69859 6.29278 0
M  V30 10124 N 911.988 -0.768124 1.37614 0
M  V30 10125 C 912.918 -1.89537 1.36374 0
M  V30 10126 C 913.899 -1.68513 0.231803 0
M  V30 10127 O 915.084 -1.89318 0.432705 0
M  V30 10128 C 912.214 -3.26871 1.17358 0
M  V30 10129 C 911.168 -3.62466 2.27602 0
M  V30 10130 C 910.494 -4.9838 1.93705 0
M  V30 10131 C 911.794 -3.68841 3.69802 0
M  V30 10132 H 913.488 -1.90832 2.30702 0
M  V30 10133 H 911.034 -0.91672 1.11051 0
M  V30 10134 H 912.987 -4.05371 1.15119 0
M  V30 10135 H 911.711 -3.26018 0.194865 0
M  V30 10136 H 910.37 -2.86276 2.29002 0
M  V30 10137 H 910.018 -4.94071 0.943539 0
M  V30 10138 H 909.718 -5.23165 2.6753 0
M  V30 10139 H 911.242 -5.79276 1.93059 0
M  V30 10140 H 912.656 -4.37485 3.70513 0
M  V30 10141 H 911.053 -4.05126 4.42711 0
M  V30 10142 H 912.123 -2.69415 4.03167 0
M  V30 10143 N 913.466 -1.22244 -0.994698 0
M  V30 10144 C 914.414 -0.988118 -2.10568 0
M  V30 10145 C 915.408 0.0681541 -1.69263 0
M  V30 10146 O 916.614 -0.0841311 -1.79803 0
M  V30 10147 H 912.989 -0.302343 -0.688544 0
M  V30 10148 H 914.96 -1.93091 -2.27505 0
M  V30 10149 C 913.709 -0.580557 -3.42819 0
M  V30 10150 H 913.032 -1.385 -3.75044 0
M  V30 10151 H 914.472 -0.456004 -4.21541 0
M  V30 10152 C 912.931 0.709692 -3.2934 0
M  V30 10153 O 913.461 1.76259 -3.60965 0
M  V30 10154 N 911.667 0.680155 -2.82528 0
M  V30 10155 H 911.214 -0.176977 -2.56991 0
M  V30 10156 H 911.172 1.54372 -2.73892 0
M  V30 10157 N 914.944 1.19125 -1.03184 0
M  V30 10158 C 915.891 2.2245 -0.6152 0
M  V30 10159 C 916.861 1.61869 0.372502 0
M  V30 10160 O 918.046 1.88901 0.268491 0
M  V30 10161 C 915.186 3.45091 0.0248027 0
M  V30 10162 C 914.299 4.20044 -1.0093 0
M  V30 10163 C 913.434 5.30119 -0.338744 0
M  V30 10164 C 912.473 5.96833 -1.35855 0
M  V30 10165 N 911.61 6.98464 -0.713594 0
M  V30 10166 H 916.45 2.57445 -1.50086 0
M  V30 10167 H 913.987 1.26485 -0.751005 0
M  V30 10168 H 915.945 4.15149 0.413131 0
M  V30 10169 H 914.575 3.10742 0.874028 0
M  V30 10170 H 913.627 3.48901 -1.51566 0
M  V30 10171 H 914.939 4.65796 -1.78425 0
M  V30 10172 H 914.093 6.0661 0.104269 0
M  V30 10173 H 912.832 4.85446 0.468382 0
M  V30 10174 H 911.837 5.1909 -1.81179 0
M  V30 10175 H 913.062 6.4359 -2.16722 0
M  V30 10176 H 911.008 6.55959 0.0733863 0
M  V30 10177 H 910.925 7.42422 -1.42638 0
M  V30 10178 H 912.193 7.78943 -0.294681 0
M  V30 10179 N 916.422 0.810101 1.35185 0
M  V30 10180 C 917.671 0.388589 1.97921 0
M  V30 10181 C 917.984 -1.05079 1.64978 0
M  V30 10182 O 919.19 -1.57559 2.21105 0
M  V30 10183 C 917.646 0.643864 3.54094 0
M  V30 10184 C 917.254 2.09602 3.95943 0
M  V30 10185 C 918.998 0.287883 4.23523 0
M  V30 10186 C 916.905 2.29686 5.44976 0
M  V30 10187 H 915.835 0.141562 0.740592 0
M  V30 10188 H 918.486 0.994653 1.54204 0
M  V30 10189 H 916.868 -0.0321978 3.95987 0
M  V30 10190 H 918.042 2.81018 3.65192 0
M  V30 10191 H 916.357 2.4122 3.39414 0
M  V30 10192 H 918.954 0.415946 5.3308 0
M  V30 10193 H 919.297 -0.766305 4.09186 0
M  V30 10194 H 919.83 0.918004 3.87063 0
M  V30 10195 H 916.569 3.33563 5.64284 0
M  V30 10196 H 916.089 1.62798 5.77284 0
M  V30 10197 H 917.768 2.11411 6.11485 0
M  V30 10198 N 917.9 -1.47166 0.563914 0
M  V30 10199 C 919.316 -1.58018 0.224173 0
M  V30 10200 C 919.516 -1.56163 -1.27339 0
M  V30 10201 O 918.572 -1.4686 -2.05398 0
M  V30 10202 C 919.885 -2.88236 0.856762 0
M  V30 10203 C 921.433 -3.01833 0.82861 0
M  V30 10204 C 921.908 -4.34761 1.44039 0
M  V30 10205 N 923.399 -4.41413 1.40388 0
M  V30 10206 C 924.134 -5.42845 1.84681 0
M  V30 10207 N 923.63 -6.51052 2.3686 0
M  V30 10208 N 925.423 -5.33931 1.75711 0
M  V30 10209 H 917.574 -1.46615 1.53681 0
M  V30 10210 H 919.837 -0.698195 0.64127 0
M  V30 10211 H 919.543 -2.95349 1.90949 0
M  V30 10212 H 919.417 -3.75537 0.353766 0
M  V30 10213 H 921.804 -2.94312 -0.215451 0
M  V30 10214 H 921.885 -2.16056 1.36943 0
M  V30 10215 H 921.529 -4.43037 2.48355 0
M  V30 10216 H 921.459 -5.1928 0.874953 0
M  V30 10217 H 923.95 -3.63811 1.02227 0
M  V30 10218 H 924.263 -7.24633 2.68564 0
M  V30 10219 H 922.608 -6.51924 2.40875 0
M  V30 10220 H 925.799 -4.48295 1.34718 0
M  V30 10221 H 925.972 -6.12841 2.10547 0
M  V30 10222 N 919.378 -0.300708 -1.54705 0
M  V30 10223 C 920.655 0.361757 -1.92226 0
M  V30 10224 C 921.035 1.71714 -1.2279 0
M  V30 10225 O 920.383 2.2559 -0.363542 0
M  V30 10226 C 920.593 0.476699 -3.45729 0
M  V30 10227 C 921.941 0.7477 -4.17965 0
M  V30 10228 O 922.965 0.560521 -3.51762 0
M  V30 10229 O 921.824 1.10724 -5.35166 0
M  V30 10230 H 918.918 0.202213 -0.801897 0
M  V30 10231 H 921.464 -0.348746 -1.66078 0
M  V30 10232 H 920.236 -0.476132 -3.88392 0
M  V30 10233 H 919.859 1.23568 -3.77911 0
M  V30 10234 N 920.856 1.57574 -0.0284266 0
M  V30 10235 C 922.081 1.96479 0.664137 0
M  V30 10236 C 922.506 0.904826 1.64908 0
M  V30 10237 O 921.864 -0.134339 1.80802 0
M  V30 10238 C 921.912 3.34479 1.34745 0
M  V30 10239 O 921.016 3.30794 2.46271 0
M  V30 10240 H 920.357 0.640654 0.174524 0
M  V30 10241 H 922.887 2.04402 -0.0900729 0
M  V30 10242 H 922.897 3.70694 1.7044 0
M  V30 10243 H 921.572 4.1117 0.625468 0
M  V30 10244 H 920.149 3.06294 2.12693 0
M  V30 10245 N 922.334 -0.244713 1.55689 0
M  V30 10246 C 923.564 -0.988508 1.81417 0
M  V30 10247 C 923.972 -1.79362 0.602143 0
M  V30 10248 O 923.315 -1.78386 -0.438639 0
M  V30 10249 C 923.377 -1.97287 3.0053 0
M  V30 10250 C 923.041 -1.35448 4.36466 0
M  V30 10251 C 924.038 -0.755874 5.14376 0
M  V30 10252 C 921.723 -1.37319 4.83165 0
M  V30 10253 C 923.717 -0.184218 6.37134 0
M  V30 10254 C 921.404 -0.797681 6.05871 0
M  V30 10255 C 922.402 -0.204224 6.82695 0
M  V30 10256 O 922.09 0.362392 8.03083 0
M  V30 10257 H 921.822 -0.296412 0.607549 0
M  V30 10258 H 924.376 -0.272185 2.03589 0
M  V30 10259 H 922.606 -2.72756 2.74119 0
M  V30 10260 H 924.295 -2.58028 3.13331 0
M  V30 10261 H 925.061 -0.733912 4.79415 0
M  V30 10262 H 920.94 -1.8245 4.23359 0
M  V30 10263 H 924.484 0.279624 6.97039 0
M  V30 10264 H 920.381 -0.816978 6.40309 0
M  V30 10265 H 921.149 0.254467 8.18104 0
M  V30 10266 N 923.813 -1.49104 -0.510467 0
M  V30 10267 C 924.776 -1.64569 -1.59529 0
M  V30 10268 C 925.776 -0.517937 -1.5223 0
M  V30 10269 O 926.966 -0.784183 -1.55551 0
M  V30 10270 C 924.098 -1.6342 -2.99177 0
M  V30 10271 H 925.291 -2.61318 -1.4715 0
M  V30 10272 H 922.844 -1.37993 -0.734001 0
M  V30 10273 H 923.579 -0.68221 -3.17043 0
M  V30 10274 H 923.364 -2.45312 -3.05883 0
M  V30 10275 H 924.854 -1.77474 -3.78011 0
M  V30 10276 N 925.291 0.760815 -1.38019 0
M  V30 10277 C 926.238 1.8744 -1.34666 0
M  V30 10278 C 927.208 1.64762 -0.210386 0
M  V30 10279 O 928.393 1.86528 -0.401479 0
M  V30 10280 C 925.533 3.24648 -1.17037 0
M  V30 10281 C 924.646 3.59206 -2.3999 0
M  V30 10282 C 923.781 4.8568 -2.15148 0
M  V30 10283 C 922.82 5.13002 -3.3391 0
M  V30 10284 N 921.957 6.30668 -3.08549 0
M  V30 10285 H 926.797 1.8964 -2.29871 0
M  V30 10286 H 924.334 0.927004 -1.14215 0
M  V30 10287 H 926.292 4.03814 -1.04834 0
M  V30 10288 H 924.922 3.21793 -0.254758 0
M  V30 10289 H 923.974 2.74939 -2.62893 0
M  V30 10290 H 925.286 3.75328 -3.28527 0
M  V30 10291 H 924.44 5.72773 -2.00039 0
M  V30 10292 H 923.179 4.71682 -1.23965 0
M  V30 10293 H 922.184 4.2438 -3.49545 0
M  V30 10294 H 923.409 5.28901 -4.25958 0
M  V30 10295 H 921.355 6.18008 -2.20006 0
M  V30 10296 H 921.272 6.47257 -3.90633 0
M  V30 10297 H 922.54 7.20669 -2.9708 0
M  V30 10298 N 926.769 1.22769 0.988202 0
M  V30 10299 C 927.699 1.02627 2.09738 0
M  V30 10300 C 928.68 -0.0543211 1.70013 0
M  V30 10301 O 929.865 0.108811 1.93895 0
M  V30 10302 C 926.995 0.608302 3.41931 0
M  V30 10303 C 925.949 1.63536 3.95525 0
M  V30 10304 C 925.275 1.07308 5.23822 0
M  V30 10305 C 926.575 3.02649 4.25677 0
M  V30 10306 H 928.269 1.954 2.26847 0
M  V30 10307 H 925.815 0.940888 1.09011 0
M  V30 10308 H 927.768 0.454478 4.18942 0
M  V30 10309 H 926.492 -0.355095 3.24664 0
M  V30 10310 H 925.151 1.77704 3.20651 0
M  V30 10311 H 924.799 0.100894 5.02899 0
M  V30 10312 H 924.499 1.75925 5.60646 0
M  V30 10313 H 926.023 0.930938 6.03462 0
M  V30 10314 H 927.437 2.91828 4.93467 0
M  V30 10315 H 925.834 3.68434 4.73684 0
M  V30 10316 H 926.904 3.52228 3.33262 0
M  V30 10317 N 928.247 -1.18576 1.03814 0
M  V30 10318 C 929.177 -2.24334 0.647795 0
M  V30 10319 C 930.158 -1.66508 -0.34774 0
M  V30 10320 O 931.343 -1.92852 -0.228401 0
M  V30 10321 C 928.473 -3.47299 0.00734922 0
M  V30 10322 C 927.427 -4.17859 0.926152 0
M  V30 10323 C 926.753 -5.34489 0.150317 0
M  V30 10324 C 928.053 -4.71632 2.24411 0
M  V30 10325 H 929.747 -2.57241 1.53191 0
M  V30 10326 H 927.293 -1.23649 0.738028 0
M  V30 10327 H 929.246 -4.20486 -0.277434 0
M  V30 10328 H 927.97 -3.13619 -0.911626 0
M  V30 10329 H 926.629 -3.46567 1.19528 0
M  V30 10330 H 926.277 -4.97056 -0.770985 0
M  V30 10331 H 925.977 -5.82633 0.762407 0
M  V30 10332 H 927.501 -6.10467 -0.127508 0
M  V30 10333 H 928.915 -5.36526 2.02021 0
M  V30 10334 H 927.312 -5.303 2.80894 0
M  V30 10335 H 928.382 -3.89192 2.89236 0
M  V30 10336 N 929.725 -0.817259 -1.34754 0
M  V30 10337 C 930.973 -0.401852 -1.98065 0
M  V30 10338 C 931.294 1.03718 -1.65129 0
M  V30 10339 O 930.564 1.71921 -0.939141 0
M  V30 10340 H 929.144 -0.145603 -0.732672 0
M  V30 10341 H 931.806 -1.04545 -1.64488 0
M  V30 10342 H 930.902 -0.516241 -3.07801 0
M  V30 10343 N 931.203 1.46865 -0.571711 0
M  V30 10344 C 932.153 2.27219 0.188503 0
M  V30 10345 C 933.137 1.35221 0.872019 0
M  V30 10346 O 934.329 1.59474 0.76793 0
M  V30 10347 C 931.458 3.21321 1.20862 0
M  V30 10348 C 930.544 4.20803 0.527783 0
M  V30 10349 N 930.935 5.04132 -0.410403 0
M  V30 10350 C 929.233 4.39128 0.779909 0
M  V30 10351 C 929.934 5.76071 -0.80728 0
M  V30 10352 N 928.91 5.43368 -0.158865 0
M  V30 10353 H 932.712 2.89034 -0.532611 0
M  V30 10354 H 930.226 1.57581 -0.392696 0
M  V30 10355 H 932.223 3.77586 1.76733 0
M  V30 10356 H 930.883 2.61065 1.93067 0
M  V30 10357 H 931.894 5.11911 -0.785351 0
M  V30 10358 H 928.571 3.90031 1.48937 0
M  V30 10359 H 929.961 6.53082 -1.57903 0
M  V30 10360 N 932.681 0.308908 1.54543 0
M  V30 10361 C 933.613 -0.597453 2.21276 0
M  V30 10362 C 934.626 -1.09137 1.20801 0
M  V30 10363 O 935.815 -1.00747 1.47351 0
M  V30 10364 C 932.915 -1.83085 2.85189 0
M  V30 10365 C 932.088 -1.4781 4.11669 0
M  V30 10366 C 931.147 -2.56748 4.59311 0
M  V30 10367 O 930.173 -2.21507 5.24331 0
M  V30 10368 N 931.375 -3.87427 4.32297 0
M  V30 10369 H 934.14 -0.0261183 2.99689 0
M  V30 10370 H 931.701 0.131456 1.61365 0
M  V30 10371 H 933.693 -2.55326 3.13992 0
M  V30 10372 H 932.263 -2.31039 2.1057 0
M  V30 10373 H 931.483 -0.587974 3.8979 0
M  V30 10374 H 932.771 -1.2179 4.94009 0
M  V30 10375 H 932.169 -4.18863 3.80224 0
M  V30 10376 H 930.726 -4.55942 4.6579 0
M  V30 10377 N 934.159 -1.57557 0.0367827 0
M  V30 10378 C 935.107 -2.11844 -0.960454 0
M  V30 10379 C 936.101 -1.04681 -1.33185 0
M  V30 10380 O 937.307 -1.23108 -1.31318 0
M  V30 10381 H 933.682 -0.676921 -0.32754 0
M  V30 10382 H 935.653 -2.94557 -0.477346 0
M  V30 10383 C 934.402 -2.66683 -2.23105 0
M  V30 10384 H 933.725 -3.48795 -1.95403 0
M  V30 10385 H 935.165 -3.08305 -2.91074 0
M  V30 10386 C 933.624 -1.59782 -2.96599 0
M  V30 10387 O 934.154 -1.00214 -3.88999 0
M  V30 10388 N 932.36 -1.31644 -2.59072 0
M  V30 10389 H 931.907 -1.80272 -1.8401 0
M  V30 10390 H 931.865 -0.603457 -3.08554 0
M  V30 10391 N 935.637 0.236453 -1.55816 0
M  V30 10392 C 936.567 1.29639 -1.94206 0
M  V30 10393 C 937.548 1.49667 -0.808319 0
M  V30 10394 O 938.733 1.621 -1.06945 0
M  V30 10395 C 935.863 2.64914 -2.24584 0
M  V30 10396 C 934.817 2.59565 -3.40308 0
M  V30 10397 C 934.143 3.98732 -3.56254 0
M  V30 10398 C 935.443 2.15642 -4.75706 0
M  V30 10399 H 937.137 0.977552 -2.82992 0
M  V30 10400 H 934.683 0.468804 -1.36155 0
M  V30 10401 H 936.636 3.39209 -2.50031 0
M  V30 10402 H 935.36 2.98455 -1.32636 0
M  V30 10403 H 934.019 1.87728 -3.14887 0
M  V30 10404 H 933.667 4.29556 -2.61707 0
M  V30 10405 H 933.367 3.96039 -4.34082 0
M  V30 10406 H 934.891 4.74711 -3.84033 0
M  V30 10407 H 936.305 2.79673 -5.00456 0
M  V30 10408 H 934.702 2.24039 -5.56711 0
M  V30 10409 H 935.772 1.10831 -4.72064 0
M  V30 10410 N 937.115 1.49373 0.502552 0
M  V30 10411 C 938.062 1.65927 1.60427 0
M  V30 10412 C 939.032 0.500768 1.58371 0
M  V30 10413 O 940.217 0.727606 1.76382 0
M  V30 10414 C 937.357 1.73043 2.9858 0
M  V30 10415 C 936.47 3.00187 3.10663 0
M  V30 10416 C 935.605 2.98292 4.3954 0
M  V30 10417 C 934.644 4.20022 4.4525 0
M  V30 10418 N 933.781 4.16046 5.65553 0
M  V30 10419 H 938.621 2.59998 1.45619 0
M  V30 10420 H 936.158 1.28912 0.708519 0
M  V30 10421 H 938.116 1.7515 3.78653 0
M  V30 10422 H 936.746 0.824397 3.12095 0
M  V30 10423 H 935.798 3.07699 2.23663 0
M  V30 10424 H 937.11 3.9018 3.10742 0
M  V30 10425 H 936.264 2.98953 5.27932 0
M  V30 10426 H 935.003 2.06075 4.42023 0
M  V30 10427 H 934.008 4.19607 3.5526 0
M  V30 10428 H 935.233 5.13431 4.44484 0
M  V30 10429 H 933.179 3.26665 5.68881 0
M  V30 10430 H 933.096 4.99773 5.67242 0
M  V30 10431 H 934.364 4.20807 6.56156 0
M  V30 10432 N 938.594 -0.753485 1.38421 0
M  V30 10433 C 939.526 -1.87692 1.31547 0
M  V30 10434 C 940.539 -1.612 0.227671 0
M  V30 10435 O 941.728 -1.71778 0.485238 0
M  V30 10436 C 938.828 -3.23329 1.01545 0
M  V30 10437 C 938.001 -3.77324 2.21236 0
M  V30 10438 C 937.06 -4.91478 1.87977 0
M  V30 10439 O 936.086 -5.06106 2.60472 0
M  V30 10440 N 937.288 -5.74466 0.834796 0
M  V30 10441 H 940.053 -1.94099 2.28354 0
M  V30 10442 H 937.614 -0.933421 1.32283 0
M  V30 10443 H 939.606 -3.9724 0.773477 0
M  V30 10444 H 938.176 -3.12307 0.135334 0
M  V30 10445 H 937.396 -2.94978 2.61498 0
M  V30 10446 H 938.684 -4.10131 3.01115 0
M  V30 10447 H 938.082 -5.65217 0.233606 0
M  V30 10448 H 936.639 -6.48524 0.652703 0
M  V30 10449 N 940.072 -1.23292 -0.981677 0
M  V30 10450 C 941.019 -1.01296 -2.07383 0
M  V30 10451 C 941.989 0.069139 -1.65956 0
M  V30 10452 O 943.174 -0.0827108 -1.90621 0
M  V30 10453 C 940.314 -0.608876 -3.39686 0
M  V30 10454 C 939.427 -1.76296 -3.9439 0
M  V30 10455 C 938.562 -1.30578 -5.14901 0
M  V30 10456 C 937.601 -2.4307 -5.61768 0
M  V30 10457 N 936.738 -1.98319 -6.73509 0
M  V30 10458 H 941.578 -1.9478 -2.25532 0
M  V30 10459 H 939.115 -0.970356 -1.10555 0
M  V30 10460 H 941.073 -0.355702 -4.15681 0
M  V30 10461 H 939.703 0.288961 -3.21504 0
M  V30 10462 H 938.755 -2.13017 -3.15163 0
M  V30 10463 H 940.067 -2.60871 -4.25145 0
M  V30 10464 H 939.221 -1.01066 -5.98223 0
M  V30 10465 H 937.96 -0.430386 -4.85797 0
M  V30 10466 H 936.965 -2.73358 -4.77028 0
M  V30 10467 H 938.19 -3.31144 -5.92892 0
M  V30 10468 H 936.136 -1.13157 -6.46167 0
M  V30 10469 H 936.053 -2.76454 -7.0364 0
M  V30 10470 H 937.321 -1.71907 -7.60308 0
M  V30 10471 N 941.55 1.18024 -1.04442 0
M  V30 10472 C 942.799 1.8743 -0.745185 0
M  V30 10473 C 943.112 1.81459 0.730206 0
M  V30 10474 O 944.318 2.46263 1.1431 0
M  V30 10475 C 942.774 3.36266 -1.28271 0
M  V30 10476 C 942.382 3.50757 -2.787 0
M  V30 10477 C 944.126 4.11048 -1.06018 0
M  V30 10478 C 942.033 4.93573 -3.25791 0
M  V30 10479 H 940.963 0.702038 -0.27506 0
M  V30 10480 H 943.614 1.33333 -1.26073 0
M  V30 10481 H 941.996 3.89853 -0.695002 0
M  V30 10482 H 943.17 3.07423 -3.43261 0
M  V30 10483 H 941.485 2.89385 -2.99408 0
M  V30 10484 H 944.082 5.16395 -1.38711 0
M  V30 10485 H 944.425 4.163 0.00241716 0
M  V30 10486 H 944.958 3.63644 -1.61269 0
M  V30 10487 H 941.697 4.93491 -4.31447 0
M  V30 10488 H 941.217 5.37607 -2.65968 0
M  V30 10489 H 942.896 5.62307 -3.20031 0
M  V30 10490 N 943.028 0.824394 1.34319 0
M  V30 10491 C 943.975 0.245282 2.29493 0
M  V30 10492 C 944.945 -0.630762 1.53657 0
M  V30 10493 O 946.13 -0.572094 1.82021 0
M  V30 10494 C 943.27 -0.585631 3.40095 0
M  V30 10495 C 942.383 0.312821 4.30866 0
M  V30 10496 C 941.518 -0.527801 5.28571 0
M  V30 10497 C 940.557 0.369946 6.10981 0
M  V30 10498 N 939.694 -0.43169 7.00772 0
M  V30 10499 H 944.534 1.06225 2.78425 0
M  V30 10500 H 942.071 0.53533 1.37013 0
M  V30 10501 H 944.029 -1.08271 4.02906 0
M  V30 10502 H 942.659 -1.3677 2.92393 0
M  V30 10503 H 941.711 0.928129 3.68904 0
M  V30 10504 H 943.023 1.00306 4.8861 0
M  V30 10505 H 942.177 -1.0893 5.96841 0
M  V30 10506 H 940.916 -1.25154 4.71368 0
M  V30 10507 H 939.921 0.943577 5.41643 0
M  V30 10508 H 941.146 1.09182 6.70266 0
M  V30 10509 H 939.092 -1.13908 6.46035 0
M  V30 10510 H 939.009 0.200133 7.55735 0
M  V30 10511 H 940.277 -0.975894 7.73367 0
M  V30 10512 N 944.506 -1.46559 0.579492 0
M  V30 10513 C 945.456 -2.27316 -0.17645 0
M  V30 10514 C 946.44 -1.35681 -0.864835 0
M  V30 10515 O 947.632 -1.59879 -0.759462 0
M  V30 10516 C 944.761 -3.21957 -1.19157 0
M  V30 10517 C 943.847 -4.21077 -0.505459 0
M  V30 10518 N 944.238 -5.03908 0.437133 0
M  V30 10519 C 942.536 -4.39535 -0.75661 0
M  V30 10520 C 943.237 -5.75635 0.837819 0
M  V30 10521 N 942.213 -5.43276 0.187679 0
M  V30 10522 H 946.015 -2.88747 0.547932 0
M  V30 10523 H 943.529 -1.5737 0.401048 0
M  V30 10524 H 945.526 -3.78518 -1.74728 0
M  V30 10525 H 944.186 -2.62085 -1.9168 0
M  V30 10526 H 945.197 -5.11487 0.812488 0
M  V30 10527 H 941.874 -3.90815 -1.46867 0
M  V30 10528 H 943.264 -6.52235 1.61364 0
M  V30 10529 N 945.984 -0.3171 -1.54377 0
M  V30 10530 C 947.23 0.287836 -2.00747 0
M  V30 10531 C 947.563 1.52292 -1.20502 0
M  V30 10532 O 946.838 1.92391 -0.285626 0
M  V30 10533 C 947.121 0.628423 -3.54574 0
M  V30 10534 C 946.974 -0.616922 -4.45549 0
M  V30 10535 C 948.293 1.44862 -4.15575 0
M  V30 10536 H 945.412 0.103144 -0.729747 0
M  V30 10537 H 948.054 -0.432396 -1.85014 0
M  V30 10538 H 946.204 1.24203 -3.68111 0
M  V30 10539 H 947.876 -1.25526 -4.43893 0
M  V30 10540 H 946.119 -1.24706 -4.15489 0
M  V30 10541 H 946.79 -0.334243 -5.50987 0
M  V30 10542 H 949.266 0.930015 -4.05574 0
M  V30 10543 H 948.142 1.6557 -5.23333 0
M  V30 10544 H 948.403 2.44279 -3.68484 0
M  V30 10545 N 947.462 1.57535 -0.0451378 0
M  V30 10546 C 948.708 1.92736 0.630921 0
M  V30 10547 C 949.041 0.923265 1.70849 0
M  V30 10548 O 948.316 -0.0516512 1.94431 0
M  V30 10549 C 948.599 3.38348 1.23259 0
M  V30 10550 C 948.452 4.49503 0.16349 0
M  V30 10551 C 949.771 3.84233 2.14599 0
M  V30 10552 H 946.89 0.700884 0.227883 0
M  V30 10553 H 949.532 1.89706 -0.10567 0
M  V30 10554 H 947.682 3.41061 1.86037 0
M  V30 10555 H 949.354 4.58919 -0.46808 0
M  V30 10556 H 947.597 4.30802 -0.509166 0
M  V30 10557 H 948.268 5.48457 0.624382 0
M  V30 10558 H 950.744 3.83358 1.6179 0
M  V30 10559 H 949.62 4.86781 2.53644 0
M  V30 10560 H 949.881 3.20646 3.04366 0
M  V30 10561 N 948.94 -0.228186 1.55939 0
M  V30 10562 C 949.887 -1.28274 1.91871 0
M  V30 10563 C 950.857 -1.46906 0.775103 0
M  V30 10564 O 952.042 -1.60583 1.03042 0
M  V30 10565 C 949.182 -2.62945 2.23504 0
M  V30 10566 C 948.295 -2.52166 3.50766 0
M  V30 10567 C 947.43 -3.79316 3.71878 0
M  V30 10568 C 946.469 -3.63231 4.92676 0
M  V30 10569 N 945.606 -4.82315 5.10212 0
M  V30 10570 H 950.446 -0.96931 2.81795 0
M  V30 10571 H 947.983 -0.467331 1.39479 0
M  V30 10572 H 949.941 -3.41359 2.39854 0
M  V30 10573 H 948.571 -2.92397 1.36762 0
M  V30 10574 H 947.623 -1.65221 3.42646 0
M  V30 10575 H 948.935 -2.36199 4.39331 0
M  V30 10576 H 948.089 -4.66173 3.88288 0
M  V30 10577 H 946.828 -3.982 2.81581 0
M  V30 10578 H 945.833 -2.74757 4.76223 0
M  V30 10579 H 947.058 -3.45823 5.84451 0
M  V30 10580 H 945.004 -5.01526 4.22856 0
M  V30 10581 H 944.921 -4.6905 5.92898 0
M  V30 10582 H 946.189 -5.70618 5.31051 0
M  V30 10583 N 950.418 -1.49637 -0.494624 0
M  V30 10584 C 951.348 -1.69692 -1.60396 0
M  V30 10585 C 952.329 -0.545648 -1.61111 0
M  V30 10586 O 953.514 -0.782202 -1.77751 0
M  V30 10587 C 950.644 -1.76934 -2.9885 0
M  V30 10588 C 949.598 -2.91915 -3.13001 0
M  V30 10589 C 948.924 -2.84276 -4.5287 0
M  V30 10590 C 950.224 -4.32764 -2.92426 0
M  V30 10591 H 951.918 -2.6257 -1.43866 0
M  V30 10592 H 949.464 -1.26355 -0.690679 0
M  V30 10593 H 951.417 -1.8955 -3.76362 0
M  V30 10594 H 950.141 -0.806609 -3.16483 0
M  V30 10595 H 948.8 -2.78911 -2.37916 0
M  V30 10596 H 948.448 -1.85897 -4.67388 0
M  V30 10597 H 948.148 -3.61452 -4.63278 0
M  V30 10598 H 949.672 -2.98909 -5.32434 0
M  V30 10599 H 951.086 -4.46415 -3.59703 0
M  V30 10600 H 949.483 -5.1121 -3.143 0
M  V30 10601 H 950.553 -4.46765 -1.88491 0
M  V30 10602 N 951.896 0.746133 -1.38819 0
M  V30 10603 C 952.843 1.86001 -1.36647 0
M  V30 10604 C 953.813 1.6453 -0.227849 0
M  V30 10605 O 954.998 1.86092 -0.421241 0
M  V30 10606 C 952.138 3.23388 -1.20474 0
M  V30 10607 C 951.251 3.5664 -2.43786 0
M  V30 10608 C 950.386 4.8337 -2.20287 0
M  V30 10609 C 949.425 5.09431 -3.39332 0
M  V30 10610 N 948.562 6.2736 -3.1522 0
M  V30 10611 H 953.402 1.87192 -2.31869 0
M  V30 10612 H 950.939 0.914838 -1.15192 0
M  V30 10613 H 952.897 4.02679 -1.09112 0
M  V30 10614 H 951.527 3.21505 -0.288874 0
M  V30 10615 H 950.579 2.72135 -2.65794 0
M  V30 10616 H 951.891 3.71823 -3.3249 0
M  V30 10617 H 951.045 5.70619 -2.06103 0
M  V30 10618 H 949.784 4.70341 -1.28961 0
M  V30 10619 H 948.789 4.20648 -3.54027 0
M  V30 10620 H 950.014 5.24354 -4.31544 0
M  V30 10621 H 947.96 6.15639 -2.26549 0
M  V30 10622 H 947.877 6.43078 -3.97476 0
M  V30 10623 H 949.145 7.17477 -3.04707 0
M  V30 10624 N 953.375 1.23811 0.975125 0
M  V30 10625 C 954.652 0.9815 1.69192 0
M  V30 10626 C 955.032 -0.498373 2.05133 0
M  V30 10627 O 954.38 -1.47087 1.74864 0
M  V30 10628 C 954.59 1.89701 2.92941 0
M  V30 10629 C 955.938 2.16357 3.65342 0
M  V30 10630 O 956.962 1.87293 3.02985 0
M  V30 10631 O 955.821 2.65675 4.77576 0
M  V30 10632 H 952.915 0.370599 0.739314 0
M  V30 10633 H 955.461 1.34876 1.02988 0
M  V30 10634 H 954.233 2.89719 2.63018 0
M  V30 10635 H 953.856 1.53244 3.66881 0
M  V30 10636 N 954.853 -1.17469 1.05066 0
M  V30 10637 C 955.763 -2.25089 0.661222 0
M  V30 10638 C 956.779 -1.71086 -0.31712 0
M  V30 10639 O 957.955 -2.00685 -0.169534 0
M  V30 10640 C 955.02 -3.46676 0.0406415 0
M  V30 10641 C 954.081 -4.15771 1.06927 0
M  V30 10642 C 953.314 -5.31553 0.478208 0
M  V30 10643 O 953.537 -5.6593 -0.712714 0
M  V30 10644 O 952.471 -5.89574 1.21185 0
M  V30 10645 H 956.297 -2.60685 1.5581 0
M  V30 10646 H 953.882 -1.24744 0.822147 0
M  V30 10647 H 955.764 -4.203 -0.304312 0
M  V30 10648 H 954.439 -3.1288 -0.829909 0
M  V30 10649 H 953.346 -3.44171 1.46619 0
M  V30 10650 H 954.679 -4.53591 1.91092 0
M  V30 10651 N 956.331 -0.831506 -1.3388 0
M  V30 10652 C 957.279 -0.247896 -2.31275 0
M  V30 10653 C 958.273 0.616083 -1.578 0
M  V30 10654 O 959.479 0.506465 -1.72728 0
M  V30 10655 H 955.854 -0.0614293 -0.749487 0
M  V30 10656 H 957.825 -1.08401 -2.78014 0
M  V30 10657 C 956.574 0.568434 -3.43022 0
M  V30 10658 H 955.897 -0.0870654 -3.99705 0
M  V30 10659 H 957.337 0.942751 -4.13386 0
M  V30 10660 C 955.796 1.74431 -2.88228 0
M  V30 10661 O 956.326 2.84278 -2.83811 0
M  V30 10662 N 954.532 1.56382 -2.44935 0
M  V30 10663 H 954.079 0.670255 -2.48727 0
M  V30 10664 H 954.037 2.35208 -2.08625 0
M  V30 10665 N 957.809 1.4625 -0.587256 0
M  V30 10666 C 959.034 2.07252 -0.0784517 0
M  V30 10667 C 959.459 1.43239 1.21919 0
M  V30 10668 O 958.817 0.517791 1.73749 0
M  V30 10669 C 958.865 3.60534 0.0691037 0
M  V30 10670 O 957.969 3.96773 1.12448 0
M  V30 10671 H 957.31 0.660825 -0.064859 0
M  V30 10672 H 959.84 1.87819 -0.811491 0
M  V30 10673 H 959.85 4.0708 0.273826 0
M  V30 10674 H 958.525 4.06516 -0.878514 0
M  V30 10675 H 957.102 3.6193 0.897852 0
M  V30 10676 N 959.287 0.325282 1.54207 0
M  V30 10677 C 960.219 -0.57395 2.21897 0
M  V30 10678 C 961.232 -1.0785 1.21952 0
M  V30 10679 O 962.421 -0.991782 1.48411 0
M  V30 10680 C 959.521 -1.8005 2.87115 0
M  V30 10681 C 958.694 -1.43435 4.13213 0
M  V30 10682 C 957.753 -2.51862 4.62009 0
M  V30 10683 O 956.779 -2.15934 5.26651 0
M  V30 10684 N 957.981 -3.8282 4.36382 0
M  V30 10685 H 960.746 0.00566918 2.99699 0
M  V30 10686 H 958.307 0.148563 1.61217 0
M  V30 10687 H 960.299 -2.51981 3.16682 0
M  V30 10688 H 958.869 -2.28792 2.13009 0
M  V30 10689 H 958.089 -0.546598 3.90392 0
M  V30 10690 H 959.377 -1.16544 4.95273 0
M  V30 10691 H 958.775 -4.14807 3.84645 0
M  V30 10692 H 957.332 -4.50976 4.70599 0
M  V30 10693 N 960.765 -1.57509 0.0534917 0
M  V30 10694 C 961.695 -2.14698 -0.917999 0
M  V30 10695 C 962.676 -1.06924 -1.32292 0
M  V30 10696 O 963.861 -1.34875 -1.39723 0
M  V30 10697 C 960.991 -2.69383 -2.19203 0
M  V30 10698 C 959.945 -3.82161 -1.9271 0
M  V30 10699 C 959.271 -4.23373 -3.26587 0
M  V30 10700 C 960.571 -5.07199 -1.24686 0
M  V30 10701 H 962.265 -2.96125 -0.44165 0
M  V30 10702 H 959.811 -1.42446 -0.210993 0
M  V30 10703 H 961.764 -3.08031 -2.87567 0
M  V30 10704 H 960.488 -1.85151 -2.69048 0
M  V30 10705 H 959.147 -3.43989 -1.26757 0
M  V30 10706 H 958.795 -3.36089 -3.74237 0
M  V30 10707 H 958.495 -4.99385 -3.09658 0
M  V30 10708 H 960.019 -4.64623 -3.96178 0
M  V30 10709 H 961.433 -5.43279 -1.83088 0
M  V30 10710 H 959.83 -5.88369 -1.18076 0
M  V30 10711 H 960.9 -4.84386 -0.223227 0
M  V30 10712 N 962.243 0.219913 -1.56058 0
M  V30 10713 C 963.19 1.27254 -1.92549 0
M  V30 10714 C 964.16 1.46493 -0.782883 0
M  V30 10715 O 965.345 1.60035 -1.03892 0
M  V30 10716 C 962.485 2.61756 -2.24896 0
M  V30 10717 C 961.598 2.50302 -3.52098 0
M  V30 10718 C 960.733 3.77338 -3.73884 0
M  V30 10719 C 959.772 3.60613 -4.94595 0
M  V30 10720 N 958.909 4.79603 -5.12763 0
M  V30 10721 H 963.749 0.954352 -2.82305 0
M  V30 10722 H 961.286 0.459928 -1.39725 0
M  V30 10723 H 963.244 3.40082 -2.4166 0
M  V30 10724 H 961.874 2.91668 -1.38311 0
M  V30 10725 H 960.926 1.63401 -3.43517 0
M  V30 10726 H 962.238 2.33866 -4.40577 0
M  V30 10727 H 961.392 4.64108 -3.90754 0
M  V30 10728 H 960.131 3.96702 -2.83689 0
M  V30 10729 H 959.136 2.72228 -4.77674 0
M  V30 10730 H 960.361 3.42719 -5.86277 0
M  V30 10731 H 958.307 4.99277 -4.2551 0
M  V30 10732 H 958.224 4.65899 -5.95377 0
M  V30 10733 H 959.492 5.67794 -5.34069 0
M  V30 10734 N 963.721 1.49897 0.486681 0
M  V30 10735 C 964.946 1.64106 1.26823 0
M  V30 10736 C 965.371 0.317967 1.85393 0
M  V30 10737 O 964.729 -0.71626 1.66551 0
M  V30 10738 C 964.777 2.72301 2.36399 0
M  V30 10739 O 963.881 2.32469 3.40634 0
M  V30 10740 H 963.222 0.548794 0.373793 0
M  V30 10741 H 965.752 1.96177 0.581017 0
M  V30 10742 H 965.762 2.94906 2.81948 0
M  V30 10743 H 964.437 3.68335 1.93137 0
M  V30 10744 H 963.014 2.20251 3.00905 0
M  V30 10745 N 965.199 -0.738761 1.39212 0
M  V30 10746 C 966.109 -1.88324 1.39897 0
M  V30 10747 C 967.125 -1.71494 0.294229 0
M  V30 10748 O 968.301 -1.94162 0.535087 0
M  V30 10749 C 965.366 -3.23871 1.23726 0
M  V30 10750 C 964.427 -3.53121 2.44139 0
M  V30 10751 C 963.66 -4.82202 2.2873 0
M  V30 10752 O 963.883 -5.55649 1.28879 0
M  V30 10753 O 962.817 -5.11265 3.17634 0
M  V30 10754 H 966.643 -1.90701 2.36362 0
M  V30 10755 H 964.228 -0.886067 1.20288 0
M  V30 10756 H 966.11 -4.04882 1.16826 0
M  V30 10757 H 964.785 -3.22274 0.303551 0
M  V30 10758 H 963.692 -2.72212 2.56615 0
M  V30 10759 H 965.025 -3.59495 3.36191 0
M  V30 10760 N 966.677 -1.24326 -0.968545 0
M  V30 10761 C 967.923 -1.08406 -1.71394 0
M  V30 10762 C 968.256 0.376353 -1.90518 0
M  V30 10763 O 967.531 1.27816 -1.46606 0
M  V30 10764 C 967.814 -1.82344 -3.1052 0
M  V30 10765 C 967.667 -3.3613 -2.98893 0
M  V30 10766 C 968.986 -1.59545 -4.10163 0
M  V30 10767 H 966.105 -0.395205 -0.622079 0
M  V30 10768 H 968.747 -1.52983 -1.12677 0
M  V30 10769 H 966.897 -1.44452 -3.60646 0
M  V30 10770 H 968.569 -3.83614 -2.56199 0
M  V30 10771 H 966.812 -3.64553 -2.35124 0
M  V30 10772 H 967.483 -3.83064 -3.97449 0
M  V30 10773 H 969.959 -1.92504 -3.68892 0
M  V30 10774 H 968.835 -2.13736 -5.05577 0
M  V30 10775 H 969.096 -0.533503 -4.38869 0
M  V30 10776 N 968.156 1.1691 -1.05688 0
M  V30 10777 C 969.381 1.91745 -0.790478 0
M  V30 10778 C 969.806 1.76568 0.648478 0
M  V30 10779 O 969.164 1.08682 1.45114 0
M  V30 10780 C 969.212 3.4067 -1.18222 0
M  V30 10781 O 968.316 4.11177 -0.317341 0
M  V30 10782 H 967.657 0.5976 -0.28943 0
M  V30 10783 H 970.187 1.48157 -1.41105 0
M  V30 10784 H 970.197 3.91424 -1.15114 0
M  V30 10785 H 968.872 3.51036 -2.2304 0
M  V30 10786 H 967.449 3.70645 -0.409459 0
M  V30 10787 N 969.634 0.838594 1.33437 0
M  V30 10788 C 970.581 0.269609 2.2922 0
M  V30 10789 C 971.551 -0.614429 1.54318 0
M  V30 10790 O 972.736 -0.552756 1.82618 0
M  V30 10791 C 969.876 -0.549527 3.40697 0
M  V30 10792 C 968.989 0.358502 4.3051 0
M  V30 10793 C 968.124 -0.471709 5.29101 0
M  V30 10794 C 967.163 0.434728 6.10554 0
M  V30 10795 N 966.3 -0.357339 7.0119 0
M  V30 10796 H 971.14 1.09172 2.77282 0
M  V30 10797 H 968.677 0.549832 1.36438 0
M  V30 10798 H 970.635 -1.03992 4.04032 0
M  V30 10799 H 969.265 -1.33661 2.93828 0
M  V30 10800 H 968.317 0.967204 3.67899 0
M  V30 10801 H 969.629 1.05483 4.87519 0
M  V30 10802 H 968.783 -1.02594 5.97963 0
M  V30 10803 H 967.522 -1.20147 4.72669 0
M  V30 10804 H 966.527 1.00097 5.40611 0
M  V30 10805 H 967.752 1.16285 6.6907 0
M  V30 10806 H 965.698 -1.07049 6.47207 0
M  V30 10807 H 965.615 0.280277 7.5548 0
M  V30 10808 H 966.883 -0.893814 7.74359 0
M  V30 10809 N 971.112 -1.45937 0.595003 0
M  V30 10810 C 972.042 -2.33198 -0.11871 0
M  V30 10811 C 973.023 -1.46083 -0.871423 0
M  V30 10812 O 974.208 -1.74879 -0.844461 0
M  V30 10813 C 971.338 -3.28576 -1.12495 0
M  V30 10814 C 970.292 -4.25229 -0.486275 0
M  V30 10815 C 969.618 -5.10204 -1.59986 0
M  V30 10816 C 970.918 -5.19019 0.584473 0
M  V30 10817 H 972.612 -2.93122 0.609886 0
M  V30 10818 H 970.158 -1.40951 0.294742 0
M  V30 10819 H 972.111 -3.88485 -1.6327 0
M  V30 10820 H 970.835 -2.66784 -1.88398 0
M  V30 10821 H 969.494 -3.666 0.000507962 0
M  V30 10822 H 969.142 -4.44789 -2.34886 0
M  V30 10823 H 968.842 -5.75669 -1.1781 0
M  V30 10824 H 970.366 -5.7298 -2.11014 0
M  V30 10825 H 971.78 -5.73073 0.161297 0
M  V30 10826 H 970.177 -5.92893 0.927256 0
M  V30 10827 H 971.247 -4.62208 1.46601 0
M  V30 10828 N 972.59 -0.333456 -1.54032 0
M  V30 10829 C 974.006 0.0188405 -1.59589 0
M  V30 10830 C 974.206 1.49615 -1.34972 0
M  V30 10831 O 973.262 2.2535 -1.13901 0
M  V30 10832 C 974.575 -0.408273 -2.97915 0
M  V30 10833 C 976.123 -0.359763 -3.10926 0
M  V30 10834 C 976.598 -0.76219 -4.51613 0
M  V30 10835 N 978.089 -0.715981 -4.57633 0
M  V30 10836 C 978.824 -0.999436 -5.64623 0
M  V30 10837 N 978.32 -1.35053 -6.79509 0
M  V30 10838 N 980.113 -0.924343 -5.54448 0
M  V30 10839 H 972.264 -1.29587 -1.68289 0
M  V30 10840 H 974.527 -0.527584 -0.787629 0
M  V30 10841 H 974.233 -1.43793 -3.20962 0
M  V30 10842 H 974.107 0.221685 -3.76548 0
M  V30 10843 H 976.494 0.660703 -2.87609 0
M  V30 10844 H 976.575 -1.02479 -2.34375 0
M  V30 10845 H 976.219 -1.78062 -4.75664 0
M  V30 10846 H 976.149 -0.0747478 -5.26547 0
M  V30 10847 H 978.64 -0.456875 -3.75128 0
M  V30 10848 H 978.953 -1.55194 -7.57057 0
M  V30 10849 H 977.298 -1.38889 -6.80981 0
M  V30 10850 H 980.489 -0.649469 -4.63573 0
M  V30 10851 H 980.662 -1.1486 -6.37739 0
M  V30 10852 N 974.068 1.57479 -0.061844 0
M  V30 10853 C 975.308 1.94982 0.613309 0
M  V30 10854 C 975.672 0.940729 1.67375 0
M  V30 10855 O 976.873 1.20307 2.40374 0
M  V30 10856 C 975.144 3.37208 1.18429 0
M  V30 10857 S 976.703 3.96678 1.87596 0
M  V30 10858 H 973.521 0.681969 0.201096 0
M  V30 10859 H 976.123 1.95045 -0.133328 0
M  V30 10860 H 974.827 4.08441 0.400522 0
M  V30 10861 H 974.358 3.40665 1.96751 0
M  V30 10862 H 976.373 3.82772 3.15754 0
M  V30 10863 N 975.546 -0.211634 1.56173 0
M  V30 10864 C 976.478 -1.286 1.89723 0
M  V30 10865 C 977.491 -1.42549 0.786361 0
M  V30 10866 O 978.68 -1.4327 1.06471 0
M  V30 10867 C 975.78 -2.66036 2.09948 0
M  V30 10868 C 974.953 -2.73908 3.41018 0
M  V30 10869 C 974.012 -3.92425 3.50555 0
M  V30 10870 O 973.038 -3.803 4.2351 0
M  V30 10871 N 974.24 -5.07165 2.82426 0
M  V30 10872 H 977.005 -1.00142 2.82474 0
M  V30 10873 H 974.566 -0.401633 1.56839 0
M  V30 10874 H 976.558 -3.43719 2.13634 0
M  V30 10875 H 975.128 -2.87052 1.23774 0
M  V30 10876 H 974.348 -1.82625 3.49345 0
M  V30 10877 H 975.636 -2.76145 4.27342 0
M  V30 10878 H 975.034 -5.19913 2.2295 0
M  V30 10879 H 973.591 -5.82855 2.9176 0
M  V30 10880 N 977.024 -1.50153 -0.478725 0
M  V30 10881 C 977.954 -1.71384 -1.58587 0
M  V30 10882 C 978.935 -0.562705 -1.60523 0
M  V30 10883 O 980.12 -0.80101 -1.76911 0
M  V30 10884 C 977.25 -1.80094 -2.96957 0
M  V30 10885 C 976.204 -2.95218 -3.09888 0
M  V30 10886 C 975.53 -2.89063 -4.49829 0
M  V30 10887 C 976.83 -4.35841 -2.8782 0
M  V30 10888 H 978.524 -2.64081 -1.41073 0
M  V30 10889 H 976.07 -1.27081 -0.677239 0
M  V30 10890 H 978.023 -1.93531 -3.74331 0
M  V30 10891 H 976.747 -0.840131 -3.1561 0
M  V30 10892 H 975.406 -2.81419 -2.34944 0
M  V30 10893 H 975.054 -1.90844 -4.6539 0
M  V30 10894 H 974.754 -3.66345 -4.59418 0
M  V30 10895 H 976.278 -3.04539 -5.29234 0
M  V30 10896 H 977.692 -4.50205 -3.54948 0
M  V30 10897 H 976.089 -5.14515 -3.0886 0
M  V30 10898 H 977.159 -4.48739 -1.83742 0
M  V30 10899 N 978.502 0.731368 -1.39602 0
M  V30 10900 C 979.465 1.8271 -1.38383 0
M  V30 10901 C 980.465 1.58338 -0.280309 0
M  V30 10902 O 981.655 1.65671 -0.538402 0
M  V30 10903 C 978.787 3.20556 -1.16002 0
M  V30 10904 H 979.98 1.85193 -2.35889 0
M  V30 10905 H 977.533 0.935396 -1.2522 0
M  V30 10906 H 978.268 3.23732 -0.191927 0
M  V30 10907 H 978.053 3.39643 -1.9592 0
M  V30 10908 H 979.543 4.00612 -1.17899 0
M  V30 10909 N 979.98 1.24838 0.961938 0
M  V30 10910 C 980.927 1.04582 2.05745 0
M  V30 10911 C 981.897 -0.0427281 1.66045 0
M  V30 10912 O 983.082 0.113026 1.90465 0
M  V30 10913 C 980.222 0.66284 3.38675 0
M  V30 10914 C 979.335 1.82548 3.91536 0
M  V30 10915 C 978.47 1.38753 5.12758 0
M  V30 10916 C 977.509 2.51976 5.5783 0
M  V30 10917 N 976.646 2.09009 6.70268 0
M  V30 10918 H 981.486 1.98343 2.22405 0
M  V30 10919 H 979.023 0.987822 1.08998 0
M  V30 10920 H 980.981 0.421788 4.15062 0
M  V30 10921 H 979.611 -0.237776 3.21923 0
M  V30 10922 H 978.663 2.18004 3.11735 0
M  V30 10923 H 979.975 2.67601 4.20941 0
M  V30 10924 H 979.129 1.1057 5.96539 0
M  V30 10925 H 977.868 0.507618 4.85051 0
M  V30 10926 H 976.873 2.80912 4.72619 0
M  V30 10927 H 978.098 3.40534 5.87549 0
M  V30 10928 H 976.044 1.23423 6.44285 0
M  V30 10929 H 975.961 2.87613 6.99153 0
M  V30 10930 H 977.229 1.83981 7.57477 0
M  V30 10931 N 981.458 -1.16348 1.06306 0
M  V30 10932 C 982.405 -2.20741 0.673962 0
M  V30 10933 C 983.375 -1.628 -0.329454 0
M  V30 10934 O 984.56 -1.89547 -0.218313 0
M  V30 10935 C 981.7 -3.45036 0.0667008 0
M  V30 10936 C 980.813 -4.17221 1.12031 0
M  V30 10937 C 979.948 -5.29034 0.479176 0
M  V30 10938 C 978.987 -5.93021 1.51631 0
M  V30 10939 N 978.124 -6.96327 0.898528 0
M  V30 10940 H 982.964 -2.53376 1.56859 0
M  V30 10941 H 980.501 -1.24449 0.784276 0
M  V30 10942 H 982.459 -4.16099 -0.302916 0
M  V30 10943 H 981.089 -3.1295 -0.791333 0
M  V30 10944 H 980.141 -3.4476 1.60763 0
M  V30 10945 H 981.453 -4.60902 1.90712 0
M  V30 10946 H 980.607 -6.06674 0.0565993 0
M  V30 10947 H 979.346 -4.86517 -0.33951 0
M  V30 10948 H 978.351 -5.14104 1.94878 0
M  V30 10949 H 979.576 -6.37618 2.3371 0
M  V30 10950 H 977.522 -6.55923 0.100555 0
M  V30 10951 H 977.439 -7.38379 1.62272 0
M  V30 10952 H 978.707 -7.77888 0.5011 0
M  V30 10953 N 982.937 -0.845659 -1.3299 0
M  V30 10954 C 983.884 -0.281761 -2.29074 0
M  V30 10955 C 984.854 0.606237 -1.54641 0
M  V30 10956 O 986.039 0.543063 -1.82908 0
M  V30 10957 C 983.179 0.531451 -3.40983 0
M  V30 10958 C 982.292 -0.381328 -4.30314 0
M  V30 10959 C 981.427 0.443643 -5.29344 0
M  V30 10960 C 980.466 -0.467101 -6.10315 0
M  V30 10961 N 979.603 0.320148 -7.0137 0
M  V30 10962 H 984.443 -1.10641 -2.76699 0
M  V30 10963 H 981.98 -0.55706 -1.36144 0
M  V30 10964 H 983.938 1.01848 -4.04577 0
M  V30 10965 H 982.568 1.32101 -2.94532 0
M  V30 10966 H 981.62 -0.986701 -3.6738 0
M  V30 10967 H 982.932 -1.08067 -4.86953 0
M  V30 10968 H 982.086 0.994212 -5.98498 0
M  V30 10969 H 980.825 1.17639 -4.73299 0
M  V30 10970 H 979.83 -1.02963 -5.40073 0
M  V30 10971 H 981.055 -1.19832 -6.68444 0
M  V30 10972 H 979.001 1.03615 -6.47765 0
M  V30 10973 H 978.918 -0.320338 -7.55321 0
M  V30 10974 H 980.186 0.852735 -7.74822 0
M  V30 10975 N 984.415 1.45619 -0.602734 0
M  V30 10976 C 985.347 2.28662 0.157012 0
M  V30 10977 C 986.36 1.39672 0.836396 0
M  V30 10978 O 987.549 1.64091 0.702599 0
M  V30 10979 C 984.649 3.1528 1.24306 0
M  V30 10980 C 983.822 4.32517 0.651731 0
M  V30 10981 C 982.881 5.00381 1.62804 0
M  V30 10982 O 981.907 5.57333 1.15624 0
M  V30 10983 N 983.109 4.99221 2.96241 0
M  V30 10984 H 985.874 2.94506 -0.555535 0
M  V30 10985 H 983.435 1.55753 -0.441881 0
M  V30 10986 H 985.427 3.57544 1.8959 0
M  V30 10987 H 983.997 2.51376 1.85819 0
M  V30 10988 H 983.217 3.93793 -0.17907 0
M  V30 10989 H 984.505 5.08249 0.236802 0
M  V30 10990 H 983.903 4.54232 3.37179 0
M  V30 10991 H 982.46 5.45364 3.56961 0
M  V30 10992 N 985.893 0.34162 1.53853 0
M  V30 10993 C 987.118 -0.259608 2.05769 0
M  V30 10994 C 987.543 -1.43588 1.21507 0
M  V30 10995 O 986.901 -1.79856 0.228364 0
M  V30 10996 C 986.949 -0.654455 3.54611 0
M  V30 10997 O 986.053 -1.75472 3.73207 0
M  V30 10998 H 985.394 -0.0434621 0.662576 0
M  V30 10999 H 987.924 0.495274 1.98515 0
M  V30 11000 H 987.934 -0.932142 3.97209 0
M  V30 11001 H 986.609 0.205779 4.15391 0
M  V30 11002 H 985.186 -1.47444 3.42512 0
M  V30 11003 N 987.371 -1.57444 0.0701946 0
M  V30 11004 C 988.281 -2.16132 -0.912377 0
M  V30 11005 C 989.297 -1.12406 -1.32819 0
M  V30 11006 O 990.473 -1.44665 -1.40121 0
M  V30 11007 C 987.538 -2.71008 -2.16231 0
M  V30 11008 C 986.599 -3.896 -1.80306 0
M  V30 11009 C 985.832 -4.4185 -2.9934 0
M  V30 11010 O 986.055 -3.93106 -4.13309 0
M  V30 11011 O 984.989 -5.33201 -2.7925 0
M  V30 11012 H 988.815 -3.00449 -0.443167 0
M  V30 11013 H 986.4 -1.48617 -0.152786 0
M  V30 11014 H 988.282 -3.06186 -2.8953 0
M  V30 11015 H 986.957 -1.8975 -2.62253 0
M  V30 11016 H 985.864 -3.59277 -1.04264 0
M  V30 11017 H 987.197 -4.72145 -1.39068 0
M  V30 11018 N 988.849 0.203349 -1.56283 0
M  V30 11019 C 990.077 0.941426 -1.84241 0
M  V30 11020 C 990.492 1.77197 -0.651658 0
M  V30 11021 O 989.849 1.78506 0.379713 0
M  V30 11022 C 989.9 1.84429 -3.10915 0
M  V30 11023 O 989.621 1.04729 -4.25398 0
M  V30 11024 C 991.122 2.69474 -3.51993 0
M  V30 11025 H 988.342 0.27507 -0.612027 0
M  V30 11026 H 990.886 0.213088 -2.03387 0
M  V30 11027 H 989.041 2.52635 -2.93691 0
M  V30 11028 H 989.455 1.66179 -4.97478 0
M  V30 11029 H 990.929 3.28495 -4.43616 0
M  V30 11030 H 991.406 3.42775 -2.74594 0
M  V30 11031 H 992.012 2.06652 -3.71719 0
M  V30 11032 N 990.327 1.50405 0.470755 0
M  V30 11033 C 991.274 1.69293 1.56871 0
M  V30 11034 C 992.244 0.534248 1.57274 0
M  V30 11035 O 993.429 0.764855 1.74799 0
M  V30 11036 C 990.569 1.79338 2.94842 0
M  V30 11037 C 989.682 3.06709 3.04226 0
M  V30 11038 C 988.817 3.07548 4.33114 0
M  V30 11039 C 987.856 4.29372 4.36241 0
M  V30 11040 N 986.993 4.27949 5.56601 0
M  V30 11041 H 991.833 2.63029 1.40071 0
M  V30 11042 H 989.37 1.30386 0.681016 0
M  V30 11043 H 991.328 1.83143 3.74853 0
M  V30 11044 H 989.958 0.890411 3.10277 0
M  V30 11045 H 989.01 3.12374 2.17086 0
M  V30 11046 H 990.322 3.96684 3.02396 0
M  V30 11047 H 989.476 3.10084 5.21472 0
M  V30 11048 H 988.215 2.15404 4.37553 0
M  V30 11049 H 987.22 4.27048 3.4628 0
M  V30 11050 H 988.445 5.22743 4.33493 0
M  V30 11051 H 986.391 3.38658 5.61824 0
M  V30 11052 H 986.308 5.11692 5.56513 0
M  V30 11053 H 987.576 4.34631 6.47083 0
M  V30 11054 N 991.805 -0.723954 1.39988 0
M  V30 11055 C 992.735 -1.85103 1.42335 0
M  V30 11056 C 993.716 -1.6769 0.285297 0
M  V30 11057 O 994.901 -1.87846 0.492716 0
M  V30 11058 C 992.031 -3.22972 1.27697 0
M  V30 11059 C 990.985 -3.55041 2.39018 0
M  V30 11060 C 990.311 -4.91965 2.09462 0
M  V30 11061 C 991.611 -3.56889 3.8135 0
M  V30 11062 H 993.305 -1.83396 2.36656 0
M  V30 11063 H 990.851 -0.880926 1.13911 0
M  V30 11064 H 992.804 -4.01503 1.27958 0
M  V30 11065 H 991.528 -3.25233 0.298487 0
M  V30 11066 H 990.187 -2.78845 2.37993 0
M  V30 11067 H 989.835 -4.90819 1.10025 0
M  V30 11068 H 989.535 -5.14389 2.84038 0
M  V30 11069 H 991.059 -5.7284 2.11391 0
M  V30 11070 H 992.473 -4.25476 3.84243 0
M  V30 11071 H 990.87 -3.90836 4.55376 0
M  V30 11072 H 991.94 -2.56452 4.11534 0
M  V30 11073 N 993.283 -1.25346 -0.955304 0
M  V30 11074 C 994.215 -1.0146 -2.0552 0
M  V30 11075 C 995.228 0.0202256 -1.62787 0
M  V30 11076 O 996.417 -0.218251 -1.77161 0
M  V30 11077 C 993.517 -0.511727 -3.35014 0
M  V30 11078 C 992.69 -1.61256 -4.0659 0
M  V30 11079 C 991.749 -1.11017 -5.14356 0
M  V30 11080 O 990.775 -1.80443 -5.39842 0
M  V30 11081 N 991.977 0.0489001 -5.80479 0
M  V30 11082 H 994.742 -1.96166 -2.26581 0
M  V30 11083 H 992.303 -1.16543 -1.12381 0
M  V30 11084 H 994.295 -0.160123 -4.04383 0
M  V30 11085 H 992.865 0.341377 -3.1073 0
M  V30 11086 H 992.085 -2.13577 -3.31328 0
M  V30 11087 H 993.373 -2.35213 -4.51168 0
M  V30 11088 H 992.771 0.629021 -5.62192 0
M  V30 11089 H 991.328 0.341542 -6.50905 0
M  V30 11090 N 994.761 1.15782 -1.06922 0
M  V30 11091 C 995.671 2.24008 -0.696948 0
M  V30 11092 C 996.687 1.71569 0.289862 0
M  V30 11093 O 997.863 2.00929 0.137585 0
M  V30 11094 C 994.928 3.46568 -0.0957895 0
M  V30 11095 C 993.989 4.14017 -1.13528 0
M  V30 11096 C 993.222 5.30725 -0.562713 0
M  V30 11097 O 993.445 5.66992 0.62259 0
M  V30 11098 O 992.379 5.87572 -1.30549 0
M  V30 11099 H 996.205 2.58174 -1.59938 0
M  V30 11100 H 993.79 1.2342 -0.841889 0
M  V30 11101 H 995.672 4.20731 0.237407 0
M  V30 11102 H 994.347 3.14161 0.780027 0
M  V30 11103 H 993.254 3.41795 -1.52076 0
M  V30 11104 H 994.587 4.50493 -1.98285 0
M  V30 11105 N 996.239 0.8527 1.3254 0
M  V30 11106 C 997.149 0.298744 2.3269 0
M  V30 11107 C 998.165 -0.582418 1.63963 0
M  V30 11108 O 999.341 -0.483253 1.95516 0
M  V30 11109 C 996.406 -0.505453 3.42996 0
M  V30 11110 C 995.467 0.401618 4.27417 0
M  V30 11111 C 994.7 -0.364294 5.32455 0
M  V30 11112 O 994.923 -1.59448 5.47661 0
M  V30 11113 O 993.857 0.268892 6.01299 0
M  V30 11114 H 997.683 1.12843 2.81958 0
M  V30 11115 H 995.268 0.615584 1.36128 0
M  V30 11116 H 997.15 -0.961974 4.10273 0
M  V30 11117 H 995.825 -1.31197 2.95921 0
M  V30 11118 H 994.732 0.906274 3.62957 0
M  V30 11119 H 996.065 1.17327 4.78012 0
M  V30 11120 N 997.718 -1.45297 0.610449 0
M  V30 11121 C 998.648 -2.33311 -0.0939698 0
M  V30 11122 C 999.629 -1.46999 -0.85588 0
M  V30 11123 O 1000.81 -1.75764 -0.825865 0
M  V30 11124 C 997.944 -3.29751 -1.09003 0
M  V30 11125 C 996.898 -4.2572 -0.441146 0
M  V30 11126 C 996.224 -5.11873 -1.54566 0
M  V30 11127 C 997.524 -5.1837 0.639489 0
M  V30 11128 H 999.218 -2.92459 0.640941 0
M  V30 11129 H 996.764 -1.40631 0.309675 0
M  V30 11130 H 998.717 -3.90195 -1.59141 0
M  V30 11131 H 997.441 -2.68768 -1.85557 0
M  V30 11132 H 996.1 -3.66579 0.0393908 0
M  V30 11133 H 995.748 -4.47256 -2.30155 0
M  V30 11134 H 995.448 -5.76886 -1.11698 0
M  V30 11135 H 996.972 -5.75185 -2.04925 0
M  V30 11136 H 998.386 -5.7287 0.22207 0
M  V30 11137 H 996.783 -5.91876 0.990089 0
M  V30 11138 H 997.853 -4.60627 1.51495 0
M  V30 11139 N 999.196 -0.349774 -1.5367 0
M  V30 11140 C 1000.14 0.519396 -2.26727 0
M  V30 11141 C 1001.14 1.09673 -1.29105 0
M  V30 11142 O 1002.34 1.04176 -1.46791 0
M  V30 11143 H 998.719 0.186192 -0.728585 0
M  V30 11144 H 1000.69 -0.118736 -2.98164 0
M  V30 11145 C 999.439 1.65535 -3.05767 0
M  V30 11146 H 998.762 1.22038 -3.80719 0
M  V30 11147 H 1000.2 2.23856 -3.6009 0
M  V30 11148 C 998.661 2.58844 -2.15642 0
M  V30 11149 O 999.191 3.61254 -1.75665 0
M  V30 11150 N 997.397 2.27671 -1.80595 0
M  V30 11151 H 996.944 1.44429 -2.13302 0
M  V30 11152 H 996.902 2.90359 -1.20577 0
M  V30 11153 N 1000.67 1.57404 -0.0785433 0
M  V30 11154 C 1001.62 2.13104 0.88631 0
M  V30 11155 C 1002.59 1.04527 1.29086 0
M  V30 11156 O 1003.78 1.32226 1.37553 0
M  V30 11157 C 1000.92 2.70252 2.14611 0
M  V30 11158 C 1000.03 3.93007 1.79358 0
M  V30 11159 C 999.164 4.38376 3 0
M  V30 11160 C 998.203 5.53761 2.60796 0
M  V30 11161 N 997.34 5.94058 3.74219 0
M  V30 11162 H 1002.18 2.95243 0.404452 0
M  V30 11163 H 999.717 1.45894 0.187982 0
M  V30 11164 H 1001.67 3.01497 2.88367 0
M  V30 11165 H 1000.3 1.90868 2.60326 0
M  V30 11166 H 999.357 3.68181 0.956384 0
M  V30 11167 H 1000.67 4.76795 1.4652 0
M  V30 11168 H 999.823 4.71317 3.82027 0
M  V30 11169 H 998.562 3.53455 3.36037 0
M  V30 11170 H 997.567 5.20464 1.77192 0
M  V30 11171 H 998.792 6.40419 2.25922 0
M  V30 11172 H 996.738 5.12085 4.10005 0
M  V30 11173 H 996.655 6.72602 3.45171 0
M  V30 11174 H 997.923 6.31624 4.56805 0
M  V30 11175 N 1002.15 -0.195058 1.56388 0
M  V30 11176 C 1003.4 -0.9168 1.80894 0
M  V30 11177 C 1003.73 -1.82907 0.652592 0
M  V30 11178 O 1003.01 -1.91382 -0.346853 0
M  V30 11179 C 1003.29 -1.733 3.15657 0
M  V30 11180 C 1003.14 -0.845449 4.41783 0
M  V30 11181 C 1004.46 -2.70557 3.47112 0
M  V30 11182 H 1001.58 -0.331861 0.658056 0
M  V30 11183 H 1004.22 -0.184174 1.89105 0
M  V30 11184 H 1002.37 -2.3576 3.08787 0
M  V30 11185 H 1004.04 -0.235557 4.60698 0
M  V30 11186 H 1002.29 -0.152172 4.33533 0
M  V30 11187 H 1002.96 -1.45152 5.32574 0
M  V30 11188 H 1005.43 -2.1823 3.54281 0
M  V30 11189 H 1004.31 -3.24749 4.42526 0
M  V30 11190 H 1004.57 -3.49605 2.70608 0
M  V30 11191 N 1003.63 -1.50653 -0.462772 0
M  V30 11192 C 1004.56 -1.73056 -1.5676 0
M  V30 11193 C 1005.54 -0.579699 -1.59917 0
M  V30 11194 O 1006.73 -0.819729 -1.76051 0
M  V30 11195 C 1003.86 -1.83234 -2.9503 0
M  V30 11196 C 1002.81 -2.98488 -3.06739 0
M  V30 11197 C 1002.14 -2.93818 -4.46738 0
M  V30 11198 C 1003.44 -4.38869 -2.83181 0
M  V30 11199 H 1005.13 -2.65562 -1.38265 0
M  V30 11200 H 1002.68 -1.27792 -0.663722 0
M  V30 11201 H 1004.63 -1.97491 -3.72257 0
M  V30 11202 H 1003.35 -0.873558 -3.14701 0
M  V30 11203 H 1002.01 -2.83895 -2.31946 0
M  V30 11204 H 1001.66 -1.95769 -4.63339 0
M  V30 11205 H 1001.36 -3.71197 -4.55507 0
M  V30 11206 H 1002.88 -3.10135 -5.25974 0
M  V30 11207 H 1004.3 -4.53945 -3.50153 0
M  V30 11208 H 1002.69 -5.17762 -3.03386 0
M  V30 11209 H 1003.76 -4.50663 -1.78972 0
M  V30 11210 N 1005.11 0.71652 -1.4037 0
M  V30 11211 C 1006.36 1.47347 -1.38324 0
M  V30 11212 C 1006.68 1.94995 0.0139949 0
M  V30 11213 O 1005.95 1.7028 0.968585 0
M  V30 11214 H 1004.53 0.546662 -0.509087 0
M  V30 11215 H 1007.19 0.849455 -1.75415 0
M  V30 11216 H 1006.29 2.34675 -2.05752 0
M  V30 11217 N 1006.59 1.25851 0.948643 0
M  V30 11218 C 1007.84 1.10347 1.68838 0
M  V30 11219 C 1008.15 -0.354262 1.92365 0
M  V30 11220 O 1009.35 -0.629847 2.64093 0
M  V30 11221 C 1007.81 1.92659 3.03991 0
M  V30 11222 C 1007.42 3.42962 2.88238 0
M  V30 11223 C 1009.16 1.85743 3.81707 0
M  V30 11224 C 1007.07 4.17547 4.18818 0
M  V30 11225 H 1006 0.409342 0.63321 0
M  V30 11226 H 1008.65 1.50098 1.05559 0
M  V30 11227 H 1007.03 1.45736 3.68208 0
M  V30 11228 H 1008.21 3.97601 2.32917 0
M  V30 11229 H 1006.52 3.51035 2.23972 0
M  V30 11230 H 1009.12 2.38758 4.78434 0
M  V30 11231 H 1009.46 0.826568 4.08012 0
M  V30 11232 H 1009.99 2.30449 3.2425 0
M  V30 11233 H 1006.73 5.21072 3.97699 0
M  V30 11234 H 1006.25 3.6769 4.73882 0
M  V30 11235 H 1007.93 4.25589 4.87322 0
M  V30 11236 N 1008.06 -1.15214 1.07534 0
M  V30 11237 C 1009.01 -2.20013 0.697337 0
M  V30 11238 C 1009.98 -1.6314 -0.312168 0
M  V30 11239 O 1011.17 -1.89768 -0.198196 0
M  V30 11240 C 1008.31 -3.44945 0.103293 0
M  V30 11241 C 1007.42 -4.16009 1.1645 0
M  V30 11242 C 1006.55 -5.28496 0.535261 0
M  V30 11243 C 1005.59 -5.9138 1.57912 0
M  V30 11244 N 1004.73 -6.95335 0.972332 0
M  V30 11245 H 1009.57 -2.51698 1.59538 0
M  V30 11246 H 1007.11 -1.2361 0.797431 0
M  V30 11247 H 1009.07 -4.16397 -0.258766 0
M  V30 11248 H 1007.7 -3.13772 -0.758096 0
M  V30 11249 H 1006.75 -3.43035 1.64411 0
M  V30 11250 H 1008.06 -4.58853 1.9559 0
M  V30 11251 H 1007.21 -6.06579 0.120942 0
M  V30 11252 H 1005.95 -4.8685 -0.287889 0
M  V30 11253 H 1004.96 -5.12008 2.0032 0
M  V30 11254 H 1006.18 -6.35103 2.40459 0
M  V30 11255 H 1004.13 -6.55779 0.170119 0
M  V30 11256 H 1004.05 -7.36616 1.70095 0
M  V30 11257 H 1005.31 -7.77312 0.583577 0
M  V30 11258 N 1009.54 -0.859717 -1.32086 0
M  V30 11259 C 1010.49 -0.279715 -2.26278 0
M  V30 11260 C 1011.48 0.577348 -1.50185 0
M  V30 11261 O 1012.67 0.425903 -1.71799 0
M  V30 11262 C 1009.8 0.526622 -3.39237 0
M  V30 11263 C 1008.88 -0.343112 -4.2271 0
M  V30 11264 N 1009.27 -1.43176 -4.85113 0
M  V30 11265 C 1007.57 -0.133744 -4.45799 0
M  V30 11266 C 1008.27 -1.96725 -5.47425 0
M  V30 11267 N 1007.25 -1.26569 -5.2866 0
M  V30 11268 H 1011.05 -1.11191 -2.72055 0
M  V30 11269 H 1008.57 -0.706372 -1.46233 0
M  V30 11270 H 1010.56 0.958587 -4.0573 0
M  V30 11271 H 1009.22 1.35655 -2.95005 0
M  V30 11272 H 1010.23 -1.81469 -4.85066 0
M  V30 11273 H 1006.91 0.661064 -4.12233 0
M  V30 11274 H 1008.3 -2.88006 -6.07044 0
M  V30 11275 N 1011.02 1.44971 -0.618145 0
M  V30 11276 C 1012.27 2.02159 -0.117482 0
M  V30 11277 C 1012.6 1.48517 1.2559 0
M  V30 11278 O 1011.85 0.654192 1.84442 0
M  V30 11279 C 1012.15 3.57378 -0.0394861 0
M  V30 11280 C 1011.82 4.30218 -1.34993 0
M  V30 11281 C 1010.48 4.49835 -1.70886 0
M  V30 11282 C 1012.83 4.71768 -2.21551 0
M  V30 11283 C 1010.16 5.08258 -2.9307 0
M  V30 11284 C 1012.51 5.31543 -3.42993 0
M  V30 11285 C 1011.17 5.49381 -3.79126 0
M  V30 11286 H 1010.44 0.739752 -0.0429897 0
M  V30 11287 H 1013.09 1.73903 -0.801871 0
M  V30 11288 H 1011.4 3.84973 0.728217 0
M  V30 11289 H 1013.09 3.99343 0.364213 0
M  V30 11290 H 1009.68 4.15271 -1.06057 0
M  V30 11291 H 1013.87 4.56336 -1.95117 0
M  V30 11292 H 1009.12 5.20257 -3.21158 0
M  V30 11293 H 1013.3 5.62691 -4.10308 0
M  V30 11294 H 1010.92 5.94419 -4.73888 0
M  V30 11295 N 1012.5 0.357919 1.53482 0
M  V30 11296 C 1013.78 -0.290164 1.93436 0
M  V30 11297 C 1014.16 -1.67039 1.29079 0
M  V30 11298 O 1013.5 -2.24085 0.447017 0
M  V30 11299 C 1013.71 -0.348055 3.4726 0
M  V30 11300 C 1015.06 -0.59206 4.20452 0
M  V30 11301 O 1016.09 -0.429581 3.536 0
M  V30 11302 O 1014.94 -0.907855 5.38907 0
M  V30 11303 H 1012.04 -0.172312 0.80885 0
M  V30 11304 H 1014.58 0.410144 1.64669 0
M  V30 11305 H 1013.36 0.619953 3.86358 0
M  V30 11306 H 1012.98 -1.09457 3.82237 0
M  V30 11307 N 1013.98 -1.5736 0.0868897 0
M  V30 11308 C 1015.39 -1.81356 -0.443499 0
M  V30 11309 C 1015.74 -1.00192 -1.68689 0
M  V30 11310 O 1014.86 -0.228863 -2.15186 0
M  V30 11311 C 1015.46 -3.28941 -0.811387 0
M  V30 11312 C 1014.02 -3.53729 -1.28656 0
M  V30 11313 C 1013.16 -2.75891 -0.279153 0
M  V30 11314 H 1016.12 -1.55594 0.312427 0
M  V30 11315 H 1016.14 -3.41815 -1.6716 0
M  V30 11316 H 1015.65 -3.87987 0.0937598 0
M  V30 11317 H 1013.75 -3.00005 -2.2097 0
M  V30 11318 H 1013.86 -4.62396 -1.25406 0
M  V30 11319 H 1012.23 -2.4311 -0.759595 0
M  V30 11320 H 1013.01 -3.37682 0.618529 0
M  V30 11321 N 1015.45 0.186762 -1.56489 0
M  V30 11322 C 1016.68 0.925916 -1.85584 0
M  V30 11323 C 1017.1 1.75708 -0.671446 0
M  V30 11324 O 1016.46 1.7728 0.379687 0
M  V30 11325 C 1016.51 1.79107 -3.12975 0
M  V30 11326 O 1015.61 2.89088 -2.94112 0
M  V30 11327 H 1014.96 0.260275 -0.610863 0
M  V30 11328 H 1017.49 0.189561 -2.0372 0
M  V30 11329 H 1017.5 2.19408 -3.43983 0
M  V30 11330 H 1016.17 1.18044 -3.98796 0
M  V30 11331 H 1014.75 2.52482 -2.74422 0
M  V30 11332 N 1016.93 1.50896 0.454776 0
M  V30 11333 C 1017.88 1.70947 1.55067 0
M  V30 11334 C 1018.85 0.550899 1.56698 0
M  V30 11335 O 1020.03 0.783352 1.73978 0
M  V30 11336 C 1017.17 1.82455 2.92924 0
M  V30 11337 C 1016.29 3.09919 3.00956 0
M  V30 11338 C 1015.42 3.12125 4.29827 0
M  V30 11339 C 1014.46 4.33975 4.31662 0
M  V30 11340 N 1013.6 4.33828 5.5203 0
M  V30 11341 H 1018.44 2.645 1.37273 0
M  V30 11342 H 1015.98 1.31101 0.667148 0
M  V30 11343 H 1017.93 1.87108 3.72889 0
M  V30 11344 H 1016.56 0.92327 3.09315 0
M  V30 11345 H 1015.62 3.14659 2.13761 0
M  V30 11346 H 1016.93 3.99869 2.98172 0
M  V30 11347 H 1016.08 3.15598 5.18154 0
M  V30 11348 H 1014.82 2.20033 4.35243 0
M  V30 11349 H 1013.83 4.30697 3.41731 0
M  V30 11350 H 1015.05 5.27312 4.27924 0
M  V30 11351 H 1013 3.44598 5.58201 0
M  V30 11352 H 1012.91 5.17566 5.51055 0
M  V30 11353 H 1014.18 4.4147 6.42437 0
M  V30 11354 N 1018.41 -0.709066 1.40748 0
M  V30 11355 C 1019.37 -1.80485 1.41272 0
M  V30 11356 C 1020.37 -1.57872 0.305463 0
M  V30 11357 O 1021.56 -1.64793 0.564691 0
M  V30 11358 C 1018.7 -3.1867 1.21087 0
M  V30 11359 H 1019.89 -1.81417 2.38805 0
M  V30 11360 H 1017.44 -0.915356 1.26692 0
M  V30 11361 H 1018.18 -3.23385 0.243406 0
M  V30 11362 H 1017.96 -3.36484 2.01299 0
M  V30 11363 H 1019.45 -3.98685 1.24257 0
M  V30 11364 N 1019.89 -1.26353 -0.941956 0
M  V30 11365 C 1021.14 -1.11851 -1.68806 0
M  V30 11366 C 1021.46 0.33829 -1.91535 0
M  V30 11367 O 1020.72 1.26495 -1.49324 0
M  V30 11368 C 1021.02 -1.83195 -3.06879 0
M  V30 11369 C 1020.68 -3.33093 -3.03908 0
M  V30 11370 C 1019.35 -3.73982 -3.02805 0
M  V30 11371 C 1021.7 -4.28803 -2.96273 0
M  V30 11372 C 1019.03 -5.08971 -2.91832 0
M  V30 11373 C 1021.38 -5.6383 -2.86842 0
M  V30 11374 C 1020.04 -6.04032 -2.84081 0
M  V30 11375 H 1019.31 -0.409293 -0.617706 0
M  V30 11376 H 1021.96 -1.56785 -1.09957 0
M  V30 11377 H 1020.26 -1.30728 -3.69347 0
M  V30 11378 H 1021.96 -1.69416 -3.63455 0
M  V30 11379 H 1018.55 -3.00566 -3.05546 0
M  V30 11380 H 1022.74 -3.98195 -2.96234 0
M  V30 11381 H 1017.99 -5.39282 -2.88072 0
M  V30 11382 H 1022.17 -6.37676 -2.79898 0
M  V30 11383 H 1019.79 -7.08586 -2.75335 0
M  V30 11384 N 1021.37 1.14642 -1.08144 0
M  V30 11385 C 1022.32 2.17665 -0.678661 0
M  V30 11386 C 1023.3 1.58072 0.300336 0
M  V30 11387 O 1024.49 1.7664 0.112781 0
M  V30 11388 C 1021.62 3.43191 -0.0866362 0
M  V30 11389 C 1020.71 4.0982 -1.09126 0
M  V30 11390 N 1021.1 4.51814 -2.27372 0
M  V30 11391 C 1019.4 4.36272 -0.926411 0
M  V30 11392 C 1020.1 5.03581 -2.91172 0
M  V30 11393 N 1019.07 4.97624 -2.18795 0
M  V30 11394 H 1022.88 2.47872 -1.57914 0
M  V30 11395 H 1020.39 1.31296 -0.955772 0
M  V30 11396 H 1022.39 4.1632 0.219859 0
M  V30 11397 H 1021.05 3.14464 0.80886 0
M  V30 11398 H 1022.06 4.44941 -2.65044 0
M  V30 11399 H 1018.74 4.17414 -0.084492 0
M  V30 11400 H 1020.13 5.45969 -3.91621 0
M  V30 11401 N 1022.85 0.866709 1.31628 0
M  V30 11402 C 1023.8 0.291712 2.26126 0
M  V30 11403 C 1024.78 -0.569375 1.50489 0
M  V30 11404 O 1025.97 -0.416786 1.72023 0
M  V30 11405 C 1023.1 -0.508624 3.39511 0
M  V30 11406 C 1022.19 0.365524 4.22522 0
M  V30 11407 N 1022.58 1.45747 4.84346 0
M  V30 11408 C 1020.88 0.157384 4.45722 0
M  V30 11409 C 1021.58 1.99625 5.46374 0
M  V30 11410 N 1020.55 1.29371 5.27981 0
M  V30 11411 H 1024.35 1.12633 2.71461 0
M  V30 11412 H 1021.87 0.714118 1.45857 0
M  V30 11413 H 1023.87 -0.937057 4.06233 0
M  V30 11414 H 1022.53 -1.34089 2.9572 0
M  V30 11415 H 1023.54 1.84039 4.84097 0
M  V30 11416 H 1020.21 -0.639193 4.12578 0
M  V30 11417 H 1021.6 2.91222 6.05508 0
M  V30 11418 N 1024.32 -1.44642 0.625825 0
M  V30 11419 C 1025.23 -2.34451 -0.0836134 0
M  V30 11420 C 1026.25 -1.5231 -0.841289 0
M  V30 11421 O 1027.43 -1.85056 -0.794754 0
M  V30 11422 C 1024.49 -3.30211 -1.05648 0
M  V30 11423 C 1023.55 -4.28259 -0.298759 0
M  V30 11424 C 1022.78 -5.19444 -1.22528 0
M  V30 11425 O 1023.01 -5.14444 -2.46382 0
M  V30 11426 O 1021.94 -5.97668 -0.71247 0
M  V30 11427 H 1025.77 -2.96555 0.654912 0
M  V30 11428 H 1023.35 -1.44327 0.386029 0
M  V30 11429 H 1025.23 -3.8917 -1.61632 0
M  V30 11430 H 1023.91 -2.70648 -1.77571 0
M  V30 11431 H 1022.82 -3.72863 0.304001 0
M  V30 11432 H 1024.15 -4.90728 0.380345 0
M  V30 11433 N 1025.8 -0.366053 -1.5329 0
M  V30 11434 C 1027.03 0.226839 -2.06156 0
M  V30 11435 C 1027.45 1.41637 -1.23776 0
M  V30 11436 O 1026.81 1.7947 -0.256948 0
M  V30 11437 C 1026.86 0.597956 -3.55608 0
M  V30 11438 O 1025.96 1.69512 -3.75951 0
M  V30 11439 H 1025.3 0.0329156 -0.663184 0
M  V30 11440 H 1027.83 -0.526793 -1.97702 0
M  V30 11441 H 1027.84 0.868831 -3.98642 0
M  V30 11442 H 1026.52 -0.271838 -4.15011 0
M  V30 11443 H 1025.09 1.41976 -3.44815 0
M  V30 11444 N 1027.28 1.57312 -0.0952337 0
M  V30 11445 C 1028.23 2.14032 0.863657 0
M  V30 11446 C 1029.2 1.0589 1.27971 0
M  V30 11447 O 1030.38 1.33678 1.36143 0
M  V30 11448 C 1027.52 2.72513 2.11733 0
M  V30 11449 C 1026.63 3.94887 1.7518 0
M  V30 11450 C 1025.77 4.41533 2.95334 0
M  V30 11451 C 1024.81 5.56496 2.54908 0
M  V30 11452 N 1023.95 5.97993 3.67897 0
M  V30 11453 H 1028.79 2.95655 0.373115 0
M  V30 11454 H 1026.32 1.46085 0.172497 0
M  V30 11455 H 1028.28 3.04539 2.85153 0
M  V30 11456 H 1026.91 1.93618 2.58287 0
M  V30 11457 H 1025.96 3.69175 0.917279 0
M  V30 11458 H 1027.27 4.78322 1.41455 0
M  V30 11459 H 1026.43 4.75343 3.77007 0
M  V30 11460 H 1025.17 3.56999 3.3227 0
M  V30 11461 H 1024.17 5.22314 1.71662 0
M  V30 11462 H 1025.4 6.42779 2.19117 0
M  V30 11463 H 1023.34 5.16405 4.04551 0
M  V30 11464 H 1023.26 6.76225 3.38018 0
M  V30 11465 H 1024.53 6.36434 4.5008 0
M  V30 11466 N 1028.76 -0.17846 1.56586 0
M  V30 11467 C 1029.67 -1.24115 1.9908 0
M  V30 11468 C 1030.68 -1.48854 0.901031 0
M  V30 11469 O 1031.86 -1.61142 1.2081 0
M  V30 11470 C 1028.92 -2.56187 2.33601 0
M  V30 11471 C 1027.99 -2.39373 3.56369 0
M  V30 11472 C 1027.22 -3.65147 3.89234 0
M  V30 11473 O 1027.44 -4.70024 3.23162 0
M  V30 11474 O 1026.38 -3.59683 4.82609 0
M  V30 11475 H 1030.2 -0.910482 2.89731 0
M  V30 11476 H 1027.79 -0.38477 1.4436 0
M  V30 11477 H 1029.67 -3.34109 2.56806 0
M  V30 11478 H 1028.34 -2.88847 1.46113 0
M  V30 11479 H 1027.25 -1.59506 3.38391 0
M  V30 11480 H 1028.58 -2.1164 4.44375 0
M  V30 11481 N 1030.24 -1.51135 -0.446768 0
M  V30 11482 C 1031.18 -1.72328 -1.56224 0
M  V30 11483 C 1032.18 -0.589411 -1.58815 0
M  V30 11484 O 1033.38 -0.770554 -1.62673 0
M  V30 11485 H 1029.76 -0.544339 -0.518844 0
M  V30 11486 H 1031.73 -2.65851 -1.3552 0
M  V30 11487 C 1030.48 -1.85686 -2.93966 0
M  V30 11488 H 1029.8 -2.72336 -2.927 0
M  V30 11489 H 1031.24 -2.0453 -3.71407 0
M  V30 11490 C 1029.7 -0.614328 -3.31252 0
M  V30 11491 O 1030.23 0.235369 -4.0101 0
M  V30 11492 N 1028.44 -0.461181 -2.86917 0
M  V30 11493 H 1027.98 -1.15369 -2.30321 0
M  V30 11494 H 1027.94 0.368966 -3.12227 0
M  V30 11495 N 1031.71 0.701592 -1.41122 0
M  V30 11496 C 1032.96 1.4616 -1.40155 0
M  V30 11497 C 1033.29 1.94498 -0.00861553 0
M  V30 11498 O 1032.54 1.69484 0.978452 0
M  V30 11499 C 1032.84 2.693 -2.34973 0
M  V30 11500 C 1032.51 2.39652 -3.81939 0
M  V30 11501 C 1031.17 2.31277 -4.21977 0
M  V30 11502 C 1033.52 2.15076 -4.74755 0
M  V30 11503 C 1030.85 1.96413 -5.52846 0
M  V30 11504 C 1033.2 1.81722 -6.05937 0
M  V30 11505 C 1031.87 1.71838 -6.45002 0
M  V30 11506 H 1031.14 0.534837 -0.512865 0
M  V30 11507 H 1033.78 0.802425 -1.73878 0
M  V30 11508 H 1032.09 3.40123 -1.94484 0
M  V30 11509 H 1033.79 3.27427 -2.31501 0
M  V30 11510 H 1030.38 2.47063 -3.50226 0
M  V30 11511 H 1034.56 2.20495 -4.4463 0
M  V30 11512 H 1029.82 1.87308 -5.82001 0
M  V30 11513 H 1033.99 1.61723 -6.77362 0
M  V30 11514 H 1031.62 1.44591 -7.46323 0
M  V30 11515 N 1033.19 1.2685 0.935242 0
M  V30 11516 C 1034.15 1.08975 2.01636 0
M  V30 11517 C 1035.15 0.0361543 1.60759 0
M  V30 11518 O 1036.34 0.280087 1.71934 0
M  V30 11519 C 1033.48 0.658831 3.34473 0
M  V30 11520 H 1034.67 2.04968 2.18925 0
M  V30 11521 H 1032.22 1.09531 1.11501 0
M  V30 11522 H 1032.96 -0.302824 3.22883 0
M  V30 11523 H 1032.74 1.41967 3.65497 0
M  V30 11524 H 1034.23 0.555783 4.13885 0
M  V30 11525 N 1034.67 -1.14067 1.0875 0
M  V30 11526 C 1035.6 -2.21385 0.74236 0
M  V30 11527 C 1036.58 -1.67833 -0.276805 0
M  V30 11528 O 1037.77 -1.93647 -0.1464 0
M  V30 11529 C 1034.9 -3.46956 0.154644 0
M  V30 11530 C 1033.85 -4.13555 1.10255 0
M  V30 11531 C 1033.18 -5.3337 0.376877 0
M  V30 11532 C 1034.48 -4.6169 2.44213 0
M  V30 11533 H 1036.17 -2.50512 1.63964 0
M  V30 11534 H 1033.72 -1.20408 0.789807 0
M  V30 11535 H 1035.67 -4.21284 -0.0988419 0
M  V30 11536 H 1034.39 -3.17203 -0.777789 0
M  V30 11537 H 1033.05 -3.41186 1.34119 0
M  V30 11538 H 1032.7 -4.99879 -0.559472 0
M  V30 11539 H 1032.4 -5.78875 1.00884 0
M  V30 11540 H 1033.92 -6.10458 0.131527 0
M  V30 11541 H 1035.34 -5.27475 2.24595 0
M  V30 11542 H 1033.74 -5.17909 3.03134 0
M  V30 11543 H 1034.81 -3.76574 3.05483 0
M  V30 11544 N 1036.15 -0.873678 -1.31166 0
M  V30 11545 C 1037.1 -0.330288 -2.28424 0
M  V30 11546 C 1038.07 0.573299 -1.55893 0
M  V30 11547 O 1039.25 0.504143 -1.84019 0
M  V30 11548 C 1036.39 0.459004 -3.42034 0
M  V30 11549 C 1035.5 -0.472519 -4.29408 0
M  V30 11550 C 1034.64 0.331261 -5.30166 0
M  V30 11551 C 1033.68 -0.596453 -6.09187 0
M  V30 11552 N 1032.81 0.171305 -7.01891 0
M  V30 11553 H 1037.65 -1.16485 -2.7429 0
M  V30 11554 H 1035.19 -0.585813 -1.34932 0
M  V30 11555 H 1037.15 0.932432 -4.06647 0
M  V30 11556 H 1035.78 1.25824 -2.97268 0
M  V30 11557 H 1034.83 -1.06441 -3.65205 0
M  V30 11558 H 1036.14 -1.18372 -4.84551 0
M  V30 11559 H 1035.3 0.867038 -6.00473 0
M  V30 11560 H 1034.04 1.07573 -4.75688 0
M  V30 11561 H 1033.04 -1.14395 -5.37767 0
M  V30 11562 H 1034.27 -1.33983 -6.65752 0
M  V30 11563 H 1032.21 0.89852 -6.49817 0
M  V30 11564 H 1032.13 -0.480481 -7.54472 0
M  V30 11565 H 1033.4 0.688192 -7.76456 0
M  V30 11566 N 1037.63 1.44308 -0.633487 0
M  V30 11567 C 1038.85 2.06384 -0.146063 0
M  V30 11568 C 1039.27 1.47357 1.18031 0
M  V30 11569 O 1038.63 0.597334 1.72448 0
M  V30 11570 C 1038.68 3.61489 -0.0276722 0
M  V30 11571 O 1038.4 4.18318 -1.3016 0
M  V30 11572 C 1039.9 4.40604 0.488168 0
M  V30 11573 H 1037.12 0.666122 -0.0807632 0
M  V30 11574 H 1039.66 1.85139 -0.868557 0
M  V30 11575 H 1037.82 3.81988 0.645273 0
M  V30 11576 H 1038.23 5.11783 -1.14797 0
M  V30 11577 H 1039.71 5.49545 0.520013 0
M  V30 11578 H 1040.18 4.12218 1.51568 0
M  V30 11579 H 1040.79 4.2503 -0.151608 0
M  V30 11580 N 1039.1 0.374177 1.53094 0
M  V30 11581 C 1040.52 -0.103172 1.86415 0
M  V30 11582 C 1040.87 -1.47439 1.29446 0
M  V30 11583 O 1039.99 -2.07333 0.619853 0
M  V30 11584 C 1040.59 -0.193988 3.38244 0
M  V30 11585 C 1039.15 -0.615605 3.71332 0
M  V30 11586 C 1038.29 0.23186 2.76329 0
M  V30 11587 H 1041.24 0.592644 1.47219 0
M  V30 11588 H 1041.26 -1.01597 3.66686 0
M  V30 11589 H 1040.78 0.80414 3.79678 0
M  V30 11590 H 1038.88 -1.62165 3.3546 0
M  V30 11591 H 1038.99 -0.38425 4.77557 0
M  V30 11592 H 1037.35 -0.300579 2.5292 0
M  V30 11593 H 1038.14 1.22769 3.20597 0
M  V30 11594 N 1040.58 -1.57259 0.103575 0
M  V30 11595 C 1041.51 -2.17509 -0.84923 0
M  V30 11596 C 1042.49 -1.11079 -1.28824 0
M  V30 11597 O 1043.68 -1.39252 -1.35361 0
M  V30 11598 C 1040.81 -2.76221 -2.10522 0
M  V30 11599 C 1039.76 -3.88098 -1.80454 0
M  V30 11600 C 1039.09 -4.33549 -3.12952 0
M  V30 11601 C 1040.39 -5.10909 -1.08486 0
M  V30 11602 H 1042.08 -2.9738 -0.347217 0
M  V30 11603 H 1039.63 -1.43045 -0.165568 0
M  V30 11604 H 1041.58 -3.17024 -2.77621 0
M  V30 11605 H 1040.31 -1.93617 -2.63021 0
M  V30 11606 H 1038.96 -3.47847 -1.15749 0
M  V30 11607 H 1038.61 -3.47825 -3.63355 0
M  V30 11608 H 1038.31 -5.08984 -2.93614 0
M  V30 11609 H 1039.84 -4.76992 -3.81196 0
M  V30 11610 H 1041.25 -5.48828 -1.65711 0
M  V30 11611 H 1039.65 -5.91828 -0.992973 0
M  V30 11612 H 1040.72 -4.84851 -0.0690108 0
M  V30 11613 N 1042.06 0.170153 -1.56679 0
M  V30 11614 C 1043.01 1.21064 -1.965 0
M  V30 11615 C 1043.98 1.43928 -0.829092 0
M  V30 11616 O 1045.16 1.56649 -1.08931 0
M  V30 11617 C 1042.3 2.54468 -2.33109 0
M  V30 11618 C 1041.42 2.38974 -3.59883 0
M  V30 11619 C 1040.55 3.65252 -3.857 0
M  V30 11620 C 1039.59 3.44696 -5.05817 0
M  V30 11621 N 1038.73 4.63047 -5.27761 0
M  V30 11622 H 1043.57 0.864055 -2.85198 0
M  V30 11623 H 1041.1 0.415243 -1.41117 0
M  V30 11624 H 1043.06 3.32222 -2.52358 0
M  V30 11625 H 1041.69 2.8712 -1.4752 0
M  V30 11626 H 1040.74 1.5239 -3.48542 0
M  V30 11627 H 1042.06 2.19731 -4.47794 0
M  V30 11628 H 1041.21 4.51441 -4.05322 0
M  V30 11629 H 1039.95 3.87475 -2.96166 0
M  V30 11630 H 1038.95 2.56893 -4.86092 0
M  V30 11631 H 1040.18 3.23894 -5.96883 0
M  V30 11632 H 1038.12 4.85487 -4.41179 0
M  V30 11633 H 1038.04 4.46722 -6.09898 0
M  V30 11634 H 1039.31 5.50516 -5.51863 0
M  V30 11635 N 1043.54 1.5137 0.438746 0
M  V30 11636 C 1044.45 1.75424 1.55768 0
M  V30 11637 C 1045.46 0.638409 1.61865 0
M  V30 11638 O 1046.64 0.9205 1.79133 0
M  V30 11639 C 1043.71 1.87288 2.9176 0
M  V30 11640 C 1042.77 3.11137 2.95791 0
M  V30 11641 C 1042 3.22425 4.25297 0
M  V30 11642 O 1042.22 2.39688 5.17596 0
M  V30 11643 O 1041.16 4.15393 4.35583 0
M  V30 11644 H 1044.98 2.70339 1.38386 0
M  V30 11645 H 1042.57 1.35854 0.621609 0
M  V30 11646 H 1044.45 1.97085 3.72472 0
M  V30 11647 H 1043.12 0.955599 3.09273 0
M  V30 11648 H 1042.03 3.06819 2.1404 0
M  V30 11649 H 1043.36 4.02549 2.83223 0
M  V30 11650 N 1045.02 -0.694098 1.41492 0
M  V30 11651 C 1046.26 -1.45127 1.4065 0
M  V30 11652 C 1046.59 -1.94993 0.0170289 0
M  V30 11653 O 1045.86 -1.71799 -0.941372 0
M  V30 11654 H 1044.44 -0.538493 0.51772 0
M  V30 11655 H 1047.1 -0.821441 1.76744 0
M  V30 11656 H 1046.19 -2.31372 2.0946 0
M  V30 11657 N 1046.49 -1.27344 -0.928501 0
M  V30 11658 C 1047.44 -1.09835 -2.05034 0
M  V30 11659 C 1048.44 -0.0216643 -1.69386 0
M  V30 11660 O 1049.64 -0.179323 -1.79105 0
M  V30 11661 H 1046.02 -0.338416 -0.671549 0
M  V30 11662 H 1047.99 -2.04879 -2.1695 0
M  V30 11663 C 1046.74 -0.761462 -3.3926 0
M  V30 11664 H 1046.06 -1.58186 -3.67175 0
M  V30 11665 H 1047.5 -0.678812 -4.18531 0
M  V30 11666 C 1045.96 0.534118 -3.32639 0
M  V30 11667 O 1046.49 1.56877 -3.69801 0
M  V30 11668 N 1044.7 0.529437 -2.85736 0
M  V30 11669 H 1044.24 -0.312954 -2.55692 0
M  V30 11670 H 1044.2 1.39637 -2.81689 0
M  V30 11671 N 1047.97 1.13488 -1.09353 0
M  V30 11672 C 1049.2 1.88592 -0.850915 0
M  V30 11673 C 1049.62 1.79087 0.597761 0
M  V30 11674 O 1048.97 1.15695 1.41142 0
M  V30 11675 C 1049.02 3.38219 -1.27633 0
M  V30 11676 O 1048.74 3.47476 -2.66819 0
M  V30 11677 C 1050.25 4.30293 -1.06598 0
M  V30 11678 H 1047.47 0.597069 -0.306185 0
M  V30 11679 H 1050.01 1.43668 -1.45533 0
M  V30 11680 H 1048.16 3.80729 -0.715828 0
M  V30 11681 H 1048.58 4.40485 -2.84733 0
M  V30 11682 H 1050.05 5.33611 -1.41293 0
M  V30 11683 H 1050.53 4.392 -0.0037135 0
M  V30 11684 H 1051.14 3.9355 -1.6124 0
M  V30 11685 N 1049.45 0.880621 1.30701 0
M  V30 11686 C 1050.4 0.333562 2.30196 0
M  V30 11687 C 1051.39 -0.557092 1.59978 0
M  V30 11688 O 1052.6 -0.442009 1.74489 0
M  V30 11689 H 1048.97 0.0892036 0.746691 0
M  V30 11690 H 1050.95 1.18644 2.73799 0
M  V30 11691 C 1049.69 -0.440731 3.44895 0
M  V30 11692 H 1049.02 0.235353 3.99107 0
M  V30 11693 H 1050.46 -0.788676 4.166 0
M  V30 11694 C 1048.92 -1.63613 2.94504 0
M  V30 11695 O 1049.45 -2.73549 2.94166 0
M  V30 11696 N 1047.65 -1.47183 2.5057 0
M  V30 11697 H 1047.2 -0.577479 2.51044 0
M  V30 11698 H 1047.16 -2.27303 2.17211 0
M  V30 11699 N 1050.93 -1.4397 0.641131 0
M  V30 11700 C 1052.17 -2.03826 0.153071 0
M  V30 11701 C 1052.53 -1.4941 -1.20585 0
M  V30 11702 O 1053.73 -2.00832 -1.78661 0
M  V30 11703 C 1052.01 -3.57085 0.149914 0
M  V30 11704 S 1053.56 -4.37956 -0.272065 0
M  V30 11705 H 1050.38 -0.70793 0.0659981 0
M  V30 11706 H 1052.98 -1.76211 0.846761 0
M  V30 11707 H 1051.69 -3.94194 1.14188 0
M  V30 11708 H 1051.22 -3.89326 -0.564703 0
M  V30 11709 H 1053.23 -4.72542 -1.5139 0
M  V30 11710 N 1052.41 -0.382291 -1.52893 0
M  V30 11711 C 1053.64 0.202114 -2.05609 0
M  V30 11712 C 1054.05 1.4164 -1.25438 0
M  V30 11713 O 1053.39 1.81359 -0.292324 0
M  V30 11714 C 1053.45 0.64356 -3.53693 0
M  V30 11715 C 1053.11 -0.456305 -4.54716 0
M  V30 11716 C 1054.11 -1.3115 -5.03086 0
M  V30 11717 C 1051.8 -0.621329 -4.98442 0
M  V30 11718 C 1053.79 -2.3169 -5.938 0
M  V30 11719 C 1051.48 -1.63008 -5.88958 0
M  V30 11720 C 1052.48 -2.47629 -6.36529 0
M  V30 11721 O 1052.16 -3.46781 -7.25257 0
M  V30 11722 H 1051.9 0.0358014 -0.675051 0
M  V30 11723 H 1054.45 -0.543935 -1.98067 0
M  V30 11724 H 1052.68 1.44148 -3.58829 0
M  V30 11725 H 1054.37 1.15284 -3.89184 0
M  V30 11726 H 1055.13 -1.19528 -4.70041 0
M  V30 11727 H 1051.01 0.027593 -4.60992 0
M  V30 11728 H 1054.56 -2.97776 -6.30853 0
M  V30 11729 H 1050.45 -1.74671 -6.21418 0
M  V30 11730 H 1051.22 -3.42707 -7.433 0
M  V30 11731 N 1053.89 1.57202 -0.111913 0
M  V30 11732 C 1055.3 1.57713 0.244702 0
M  V30 11733 C 1055.5 1.12419 1.67225 0
M  V30 11734 O 1054.56 0.808329 2.39212 0
M  V30 11735 C 1055.87 3.00695 0.0178289 0
M  V30 11736 C 1057.42 3.12887 0.0842781 0
M  V30 11737 C 1057.89 4.57856 -0.114812 0
M  V30 11738 N 1059.38 4.6316 -0.0605423 0
M  V30 11739 C 1060.12 5.73086 -0.189594 0
M  V30 11740 N 1059.62 6.91787 -0.37442 0
M  V30 11741 N 1061.41 5.6195 -0.12967 0
M  V30 11742 H 1053.56 1.84947 -1.04443 0
M  V30 11743 H 1055.82 0.854418 -0.4107 0
M  V30 11744 H 1055.53 3.38093 -0.968802 0
M  V30 11745 H 1055.4 3.69611 0.752815 0
M  V30 11746 H 1057.79 2.7535 1.06143 0
M  V30 11747 H 1057.87 2.46528 -0.682474 0
M  V30 11748 H 1057.51 4.9609 -1.0889 0
M  V30 11749 H 1057.44 5.22297 0.671839 0
M  V30 11750 H 1059.94 3.77817 0.0790856 0
M  V30 11751 H 1060.25 7.71406 -0.463948 0
M  V30 11752 H 1058.59 6.93788 -0.410303 0
M  V30 11753 H 1061.78 4.68098 0.0137115 0
M  V30 11754 H 1061.96 6.47578 -0.233688 0
M  V30 11755 N 1055.36 -0.161842 1.56767 0
M  V30 11756 C 1056.33 -1.18404 1.96247 0
M  V30 11757 C 1057.33 -1.3667 0.84722 0
M  V30 11758 O 1058.52 -1.33915 1.11411 0
M  V30 11759 C 1055.65 -2.54728 2.26553 0
M  V30 11760 H 1056.84 -0.845703 2.87729 0
M  V30 11761 H 1054.39 -0.404645 1.50971 0
M  V30 11762 H 1055.13 -2.93559 1.37816 0
M  V30 11763 H 1054.91 -2.42834 3.07854 0
M  V30 11764 H 1056.4 -3.28378 2.57987 0
M  V30 11765 N 1056.84 -1.516 -0.430713 0
M  V30 11766 C 1058.25 -1.57 -1.01035 0
M  V30 11767 C 1058.6 -0.397439 -1.92132 0
M  V30 11768 O 1057.73 0.484954 -2.10896 0
M  V30 11769 C 1058.32 -2.84536 -1.83915 0
M  V30 11770 C 1056.88 -2.92485 -2.36917 0
M  V30 11771 C 1056.03 -2.5173 -1.16308 0
M  V30 11772 H 1058.98 -1.57281 -0.211734 0
M  V30 11773 H 1059 -2.68672 -2.69435 0
M  V30 11774 H 1058.51 -3.69858 -1.17586 0
M  V30 11775 H 1056.61 -2.11608 -3.0668 0
M  V30 11776 H 1056.73 -3.96277 -2.6926 0
M  V30 11777 H 1055.09 -2.05079 -1.51045 0
M  V30 11778 H 1055.87 -3.39403 -0.515793 0
M  V30 11779 N 1058.32 0.686584 -1.41858 0
M  V30 11780 C 1059.25 1.81107 -1.38836 0
M  V30 11781 C 1060.23 1.60599 -0.254293 0
M  V30 11782 O 1061.41 1.83229 -0.442641 0
M  V30 11783 C 1058.54 3.17928 -1.16787 0
M  V30 11784 C 1057.59 3.5721 -2.33031 0
M  V30 11785 S 1058.42 3.60986 -3.95536 0
M  V30 11786 C 1059.58 5.00519 -3.75808 0
M  V30 11787 H 1059.81 1.83396 -2.33994 0
M  V30 11788 H 1057.34 0.856146 -1.28489 0
M  V30 11789 H 1059.3 3.9691 -1.04752 0
M  V30 11790 H 1057.96 3.1324 -0.232335 0
M  V30 11791 H 1057.15 4.56629 -2.13321 0
M  V30 11792 H 1056.76 2.8556 -2.41519 0
M  V30 11793 H 1059.05 5.88272 -3.36069 0
M  V30 11794 H 1059.99 5.25273 -4.74862 0
M  V30 11795 H 1060.4 4.72481 -3.08904 0
M  V30 11796 N 1059.8 1.27835 0.921735 0
M  V30 11797 C 1060.71 1.12904 2.05645 0
M  V30 11798 C 1061.72 0.0575704 1.73905 0
M  V30 11799 O 1062.9 0.265261 1.99645 0
M  V30 11800 C 1059.96 0.783957 3.3772 0
M  V30 11801 C 1059.03 1.93694 3.8312 0
M  V30 11802 C 1058.26 1.60823 5.08893 0
M  V30 11803 O 1058.48 0.518873 5.68035 0
M  V30 11804 O 1057.42 2.44932 5.49811 0
M  V30 11805 H 1061.24 2.08143 2.21157 0
M  V30 11806 H 1058.83 1.07078 1.04185 0
M  V30 11807 H 1060.71 0.605107 4.17033 0
M  V30 11808 H 1059.38 -0.138849 3.23402 0
M  V30 11809 H 1058.29 2.17089 3.04669 0
M  V30 11810 H 1059.62 2.84016 4.0199 0
M  V30 11811 N 1061.28 -1.12907 1.09954 0
M  V30 11812 C 1062.52 -1.8595 0.848643 0
M  V30 11813 C 1062.88 -1.81897 -0.614621 0
M  V30 11814 O 1064.08 -2.50233 -0.981667 0
M  V30 11815 C 1062.35 -3.29859 1.3758 0
M  V30 11816 S 1063.91 -4.20333 1.25959 0
M  V30 11817 H 1060.73 -0.641404 0.306793 0
M  V30 11818 H 1063.33 -1.36045 1.40399 0
M  V30 11819 H 1062.03 -3.30365 2.43489 0
M  V30 11820 H 1061.57 -3.84827 0.816806 0
M  V30 11821 H 1063.58 -4.95738 0.214038 0
M  V30 11822 N 1062.75 -0.88754 -1.30232 0
M  V30 11823 C 1063.69 -0.313488 -2.27046 0
M  V30 11824 C 1064.7 0.533383 -1.53814 0
M  V30 11825 O 1065.89 0.352516 -1.74984 0
M  V30 11826 C 1062.99 0.572674 -3.34026 0
M  V30 11827 C 1062.16 -0.245712 -4.36709 0
M  V30 11828 C 1061.22 0.57135 -5.23089 0
M  V30 11829 O 1060.25 -0.00685948 -5.692 0
M  V30 11830 N 1061.45 1.87994 -5.49216 0
M  V30 11831 H 1064.21 -1.14553 -2.76943 0
M  V30 11832 H 1061.77 -0.750785 -1.43439 0
M  V30 11833 H 1063.77 1.12539 -3.88738 0
M  V30 11834 H 1062.34 1.3054 -2.84039 0
M  V30 11835 H 1061.56 -0.979869 -3.81827 0
M  V30 11836 H 1062.84 -0.806618 -5.02366 0
M  V30 11837 H 1062.24 2.3726 -5.13541 0
M  V30 11838 H 1060.8 2.38005 -6.06792 0
M  V30 11839 N 1064.23 1.43628 -0.648757 0
M  V30 11840 C 1065.14 2.34554 0.0463037 0
M  V30 11841 C 1066.16 1.53629 0.816952 0
M  V30 11842 O 1067.33 1.86297 0.765212 0
M  V30 11843 C 1064.4 3.3185 1.00381 0
M  V30 11844 C 1063.46 4.2868 0.230589 0
M  V30 11845 C 1062.69 5.21328 1.14249 0
M  V30 11846 O 1062.92 5.18298 2.38166 0
M  V30 11847 O 1061.85 5.98726 0.617296 0
M  V30 11848 H 1065.68 2.95475 -0.702008 0
M  V30 11849 H 1063.26 1.43694 -0.408942 0
M  V30 11850 H 1065.14 3.91692 1.5542 0
M  V30 11851 H 1063.82 2.73439 1.73243 0
M  V30 11852 H 1062.73 3.72332 -0.363282 0
M  V30 11853 H 1064.06 4.90061 -0.458368 0
M  V30 11854 N 1065.71 0.390394 1.52688 0
M  V30 11855 C 1066.94 -0.194013 2.06491 0
M  V30 11856 C 1067.36 -1.3965 1.26014 0
M  V30 11857 O 1066.72 -1.79038 0.285468 0
M  V30 11858 C 1066.77 -0.541306 3.56514 0
M  V30 11859 O 1065.87 -1.63509 3.78601 0
M  V30 11860 H 1065.21 -0.0223608 0.663623 0
M  V30 11861 H 1067.74 0.558179 1.96839 0
M  V30 11862 H 1067.75 -0.805301 3.99974 0
M  V30 11863 H 1066.43 0.337828 4.14526 0
M  V30 11864 H 1065 -1.36473 3.4703 0
M  V30 11865 N 1067.19 -1.57141 0.120249 0
M  V30 11866 C 1068.43 -1.9632 -0.531989 0
M  V30 11867 C 1068.79 -1.00265 -1.64209 0
M  V30 11868 O 1068.08 -0.0328969 -1.91572 0
M  V30 11869 C 1068.28 -3.39745 -1.10941 0
M  V30 11870 C 1068.11 -4.49664 -0.0567772 0
M  V30 11871 C 1066.88 -5.03903 0.375466 0
M  V30 11872 C 1069.07 -5.09169 0.724667 0
M  V30 11873 N 1067.06 -5.974 1.41374 0
M  V30 11874 C 1068.43 -5.98621 1.61411 0
M  V30 11875 C 1070.48 -4.91825 0.775417 0
M  V30 11876 C 1069.18 -6.72587 2.54988 0
M  V30 11877 C 1071.21 -5.66473 1.69891 0
M  V30 11878 C 1070.57 -6.55611 2.57592 0
M  V30 11879 H 1066.67 -0.764554 -0.164259 0
M  V30 11880 H 1069.26 -1.93579 0.208656 0
M  V30 11881 H 1067.43 -3.43131 -1.81977 0
M  V30 11882 H 1069.16 -3.66045 -1.72607 0
M  V30 11883 H 1065.91 -4.73597 -0.0171723 0
M  V30 11884 H 1066.34 -6.48852 1.93184 0
M  V30 11885 H 1070.98 -4.22653 0.111497 0
M  V30 11886 H 1068.7 -7.41005 3.22393 0
M  V30 11887 H 1072.28 -5.55057 1.74363 0
M  V30 11888 H 1071.16 -7.12361 3.27889 0
M  V30 11889 N 1068.67 0.153526 -1.5685 0
M  V30 11890 C 1069.61 1.18973 -1.97773 0
M  V30 11891 C 1070.58 1.43041 -0.844311 0
M  V30 11892 O 1071.77 1.55484 -1.10586 0
M  V30 11893 C 1068.91 2.51981 -2.35795 0
M  V30 11894 C 1068.02 2.35143 -3.62397 0
M  V30 11895 C 1067.16 3.61141 -3.89552 0
M  V30 11896 C 1066.2 3.39311 -5.09445 0
M  V30 11897 N 1065.33 4.57423 -5.32643 0
M  V30 11898 H 1070.17 0.833758 -2.86099 0
M  V30 11899 H 1067.71 0.400252 -1.4155 0
M  V30 11900 H 1069.67 3.29527 -2.55867 0
M  V30 11901 H 1068.3 2.85539 -1.50557 0
M  V30 11902 H 1067.35 1.48684 -3.50139 0
M  V30 11903 H 1068.66 2.14969 -4.501 0
M  V30 11904 H 1067.82 4.47117 -4.10087 0
M  V30 11905 H 1066.55 3.84312 -3.00259 0
M  V30 11906 H 1065.56 2.51723 -4.8879 0
M  V30 11907 H 1066.78 3.17545 -6.00285 0
M  V30 11908 H 1064.73 4.8078 -4.46303 0
M  V30 11909 H 1064.65 4.40228 -6.14602 0
M  V30 11910 H 1065.92 5.44632 -5.57671 0
M  V30 11911 O 1070.18 1.58721 0.298301 0
M  V30 11912 H 1070.87 1.69072 0.945216 0
M  V30 END ATOM
M  V30 BEGIN BOND
M  V30 END BOND
M  V30 END CTAB
M  END
$$$$
