drugbank_target|O75306 NADH dehydrogenase [ubiquinone] iron-sulfur protein 2, mitochondrial (DB00157)
 OpenBabel12092119383D

  0  0  0     0  0            999 V3000
M  V30 BEGIN CTAB
M  V30 COUNTS 7376 7472 0 0 0
M  V30 BEGIN ATOM
M  V30 1 H -0.908 1.98254 -0.117106 0
M  V30 2 N 0 1.576 0 0
M  V30 3 C 0.933 2.03868 1.02534 0
M  V30 4 C 1.911 0.928543 1.3348 0
M  V30 5 O 3.095 1.19667 1.45644 0
M  V30 6 C 0.222 2.43627 2.35294 0
M  V30 7 C -0.732 3.65373 2.2001 0
M  V30 8 S 0.101 5.13292 1.52614 0
M  V30 9 C 1.257 5.56322 2.86805 0
M  V30 10 H 1.49 2.90518 0.631377 0
M  V30 11 H -0.977 1.52953 0.210867 0
M  V30 12 H 0.981 2.67203 3.11629 0
M  V30 13 H -0.358 1.57376 2.7183 0
M  V30 14 H -1.165 3.90944 3.18086 0
M  V30 15 H -1.563 3.418 1.51819 0
M  V30 16 H 0.729 5.58782 3.83104 0
M  V30 17 H 1.672 6.56266 2.65933 0
M  V30 18 H 2.08 4.83886 2.90714 0
M  V30 19 N 1.4781 -0.272755 1.55222 0
M  V30 20 C 2.4411 -1.32041 1.87344 0
M  V30 21 C 3.4411 -1.42342 0.74803 0
M  V30 22 O 4.6311 -1.41488 1.0162 0
M  V30 23 C 1.7631 -2.70173 2.07893 0
M  V30 24 H 2.9561 -1.04789 2.80997 0
M  V30 25 H 0.5091 -0.51083 1.47717 0
M  V30 26 H 1.2441 -3.02605 1.16622 0
M  V30 27 H 1.0291 -2.64082 2.89833 0
M  V30 28 H 2.5191 -3.45869 2.34017 0
M  V30 29 N 2.9562 -1.48159 -0.537278 0
M  V30 30 C 3.9192 -1.61665 -1.62472 0
M  V30 31 C 4.9192 -0.490395 -1.5314 0
M  V30 32 O 6.1092 -0.755998 -1.5694 0
M  V30 33 C 3.2412 -1.57997 -3.02076 0
M  V30 34 H 4.4342 -2.58621 -1.51839 0
M  V30 35 H 1.9872 -1.36647 -0.758771 0
M  V30 36 H 2.7222 -0.624913 -3.18222 0
M  V30 37 H 2.5072 -2.39755 -3.10258 0
M  V30 38 H 3.9972 -1.70627 -3.81151 0
M  V30 39 N 4.4343 0.785586 -1.36625 0
M  V30 40 C 5.3643 1.91259 -1.33949 0
M  V30 41 C 6.3453 1.68795 -0.210325 0
M  V30 42 O 7.5303 1.89854 -0.408561 0
M  V30 43 C 4.6603 3.28339 -1.13186 0
M  V30 44 C 3.6143 3.65335 -2.22967 0
M  V30 45 C 2.9403 5.00806 -1.87342 0
M  V30 46 C 4.2403 3.7352 -3.65075 0
M  V30 47 H 5.9343 1.93755 -2.28253 0
M  V30 48 H 3.4803 0.930788 -1.09874 0
M  V30 49 H 5.4333 4.06804 -1.09948 0
M  V30 50 H 4.1573 3.2624 -0.153332 0
M  V30 51 H 2.8163 2.89169 -2.25337 0
M  V30 52 H 2.4643 4.95233 -0.880545 0
M  V30 53 H 2.1643 5.26529 -2.60846 0
M  V30 54 H 3.6883 5.81687 -1.85667 0
M  V30 55 H 5.1023 4.42168 -3.64911 0
M  V30 56 H 3.4993 4.10731 -4.37516 0
M  V30 57 H 4.5693 2.74527 -3.99703 0
M  V30 58 N 5.9124 1.20967 1.01018 0
M  V30 59 C 7.3284 0.965905 1.27053 0
M  V30 60 C 7.5284 -0.350785 1.98423 0
M  V30 61 O 6.5844 -1.07773 2.28344 0
M  V30 62 C 7.8974 2.15294 2.09926 0
M  V30 63 C 9.4454 2.19463 2.23171 0
M  V30 64 C 9.9204 3.3767 3.09424 0
M  V30 65 N 11.4114 3.37724 3.17012 0
M  V30 66 C 12.1464 4.25837 3.83993 0
M  V30 67 N 11.6424 5.24138 4.53047 0
M  V30 68 N 13.4354 4.1366 3.80581 0
M  V30 69 H 5.5864 2.0565 0.531194 0
M  V30 70 H 7.8494 0.90024 0.297106 0
M  V30 71 H 7.5554 3.10684 1.64828 0
M  V30 72 H 7.4294 2.13923 3.10672 0
M  V30 73 H 9.8164 1.24632 2.6749 0
M  V30 74 H 9.8974 2.2488 1.21912 0
M  V30 75 H 9.5414 4.32791 2.65808 0
M  V30 76 H 9.4714 3.29491 4.10784 0
M  V30 77 H 11.9624 2.6658 2.6785 0
M  V30 78 H 12.2754 5.87684 5.01844 0
M  V30 79 H 10.6204 5.28068 4.5185 0
M  V30 80 H 13.8114 3.36127 3.25785 0
M  V30 81 H 13.9844 4.82538 4.32505 0
M  V30 82 N 7.3905 -1.2043 1.01659 0
M  V30 83 C 8.3535 -2.21433 0.591616 0
M  V30 84 C 9.3535 -1.57203 -0.338226 0
M  V30 85 O 10.5435 -1.73737 -0.126918 0
M  V30 86 C 7.6755 -3.40628 -0.136058 0
M  V30 87 H 8.8685 -2.60545 1.48514 0
M  V30 88 H 6.4215 -1.33893 0.806379 0
M  V30 89 H 7.1565 -3.07019 -1.04449 0
M  V30 90 H 6.9415 -3.88475 0.531917 0
M  V30 91 H 8.4315 -4.15475 -0.420735 0
M  V30 92 N 8.8686 -0.792821 -1.36206 0
M  V30 93 C 9.7986 -0.207853 -2.32573 0
M  V30 94 C 10.7796 0.659055 -1.56813 0
M  V30 95 O 11.9646 0.592176 -1.84951 0
M  V30 96 C 9.0946 0.655449 -3.41059 0
M  V30 97 C 8.0486 -0.111842 -4.27854 0
M  V30 98 C 7.3746 0.872274 -5.27537 0
M  V30 99 C 8.6746 -1.30299 -5.05786 0
M  V30 100 H 10.3686 -1.01294 -2.81744 0
M  V30 101 H 7.9146 -0.48854 -1.3546 0
M  V30 102 H 9.8676 1.07464 -4.07467 0
M  V30 103 H 8.5916 1.49328 -2.90463 0
M  V30 104 H 7.2506 -0.512053 -3.63006 0
M  V30 105 H 6.8986 1.70523 -4.73214 0
M  V30 106 H 6.5986 0.363291 -5.86476 0
M  V30 107 H 8.1226 1.28996 -5.96818 0
M  V30 108 H 9.5366 -0.959379 -5.65216 0
M  V30 109 H 7.9336 -1.7455 -5.74154 0
M  V30 110 H 9.0036 -2.09663 -4.37229 0
M  V30 111 N 10.3467 1.47872 -0.545128 0
M  V30 112 C 11.5867 2.04391 -0.0187854 0
M  V30 113 C 11.9507 1.41162 1.30144 0
M  V30 114 O 13.1517 1.88656 1.91474 0
M  V30 115 C 11.4227 3.57299 0.0850867 0
M  V30 116 S 12.9817 4.35221 0.559302 0
M  V30 117 H 9.7997 0.710737 -0.0193301 0
M  V30 118 H 12.4017 1.81395 -0.729125 0
M  V30 119 H 11.1057 4.00847 -0.880351 0
M  V30 120 H 10.6367 3.84773 0.819348 0
M  V30 121 H 12.6517 4.61571 1.82118 0
M  V30 122 N 11.8248 0.280983 1.55075 0
M  V30 123 C 13.0728 -0.333455 1.9933 0
M  V30 124 C 13.3938 -1.55937 1.17085 0
M  V30 125 O 12.6638 -1.94143 0.261805 0
M  V30 126 H 11.2438 -0.126197 0.736263 0
M  V30 127 H 13.9058 0.387678 1.91005 0
M  V30 128 H 13.0018 -0.619292 3.05894 0
M  V30 129 N 13.3029 -1.57598 0.00835791 0
M  V30 130 C 14.5499 -1.90928 -0.674732 0
M  V30 131 C 14.8779 -0.88277 -1.73313 0
M  V30 132 O 14.1329 0.111294 -1.95383 0
M  V30 133 C 14.4319 -3.3101 -1.34787 0
M  V30 134 C 14.0979 -4.48922 -0.421861 0
M  V30 135 C 12.7599 -4.8091 -0.166927 0
M  V30 136 C 15.1119 -5.20755 0.215211 0
M  V30 137 C 12.4399 -5.821 0.733232 0
M  V30 138 C 14.7919 -6.22905 1.1033 0
M  V30 139 C 13.4559 -6.53346 1.36733 0
M  V30 140 H 12.7259 -0.698656 -0.246902 0
M  V30 141 H 15.3729 -1.91387 0.0656779 0
M  V30 142 H 13.6779 -3.26714 -2.16253 0
M  V30 143 H 15.3749 -3.54061 -1.8826 0
M  V30 144 H 11.9649 -4.23934 -0.630729 0
M  V30 145 H 16.1489 -4.9629 0.0312829 0
M  V30 146 H 11.4049 -6.04042 0.945712 0
M  V30 147 H 15.5789 -6.77694 1.60325 0
M  V30 148 H 13.2059 -7.31573 2.06652 0
M  V30 149 N 14.781 0.264519 -1.55364 0
M  V30 150 C 16.197 0.61215 -1.47394 0
M  V30 151 C 16.397 1.89134 -0.695018 0
M  V30 152 O 15.453 2.51563 -0.217275 0
M  V30 153 C 16.766 0.731235 -2.91674 0
M  V30 154 C 18.314 0.82473 -3.01939 0
M  V30 155 C 18.789 0.975522 -4.4749 0
M  V30 156 N 20.28 1.04083 -4.51354 0
M  V30 157 C 21.015 1.17646 -5.61201 0
M  V30 158 N 20.511 1.27874 -6.80896 0
M  V30 159 N 22.304 1.20823 -5.48961 0
M  V30 160 H 14.455 -0.575456 -2.04456 0
M  V30 161 H 16.718 -0.196099 -0.927496 0
M  V30 162 H 16.424 -0.138392 -3.51428 0
M  V30 163 H 16.298 1.60883 -3.41169 0
M  V30 164 H 18.685 1.68482 -2.42276 0
M  V30 165 H 18.766 -0.0776479 -2.55682 0
M  V30 166 H 18.41 0.120058 -5.07758 0
M  V30 167 H 18.34 1.89268 -4.91412 0
M  V30 168 H 20.831 0.973846 -3.65136 0
M  V30 169 H 21.144 1.38081 -7.60364 0
M  V30 170 H 19.489 1.24863 -6.83692 0
M  V30 171 H 22.68 1.12469 -4.54388 0
M  V30 172 H 22.853 1.31049 -6.3461 0
M  V30 173 N 16.2591 1.48442 0.529413 0
M  V30 174 C 17.5071 1.56179 1.28267 0
M  V30 175 C 17.8281 0.237721 1.93546 0
M  V30 176 O 17.0981 -0.740779 1.81354 0
M  V30 177 H 15.6781 0.575367 0.476405 0
M  V30 178 H 18.3401 1.84909 0.61602 0
M  V30 179 H 17.4361 2.34312 2.06165 0
M  V30 180 N 17.7372 -0.778329 1.37039 0
M  V30 181 C 18.9832 -1.53892 1.32079 0
M  V30 182 C 19.3162 -1.9396 -0.0965386 0
M  V30 183 O 18.5912 -1.63568 -1.05242 0
M  V30 184 C 18.8742 -2.80847 2.25382 0
M  V30 185 C 18.7272 -2.47076 3.75864 0
M  V30 186 C 20.0462 -3.82741 2.1725 0
M  V30 187 H 17.1652 -0.558303 0.48111 0
M  V30 188 H 19.8072 -0.893397 1.67685 0
M  V30 189 H 17.9572 -3.35931 1.95148 0
M  V30 190 H 19.6292 -1.97957 4.16666 0
M  V30 191 H 17.8722 -1.79863 3.94755 0
M  V30 192 H 18.5432 -3.37798 4.36574 0
M  V30 193 H 21.0192 -3.37133 2.43887 0
M  V30 194 H 19.8952 -4.69303 2.84686 0
M  V30 195 H 20.1562 -4.2652 1.16331 0
M  V30 196 N 19.2153 -1.21501 -1.00376 0
M  V30 197 C 20.1783 -0.976927 -2.07337 0
M  V30 198 C 21.1783 0.0525322 -1.60714 0
M  V30 199 O 22.3683 -0.184869 -1.73216 0
M  V30 200 C 19.5003 -0.473423 -3.37597 0
M  V30 201 H 20.6933 -1.92587 -2.29892 0
M  V30 202 H 18.2463 -1.03217 -1.17371 0
M  V30 203 H 18.9813 0.480379 -3.20722 0
M  V30 204 H 18.7663 -1.216 -3.72768 0
M  V30 205 H 20.2563 -0.32675 -4.1632 0
M  V30 206 N 20.6934 1.19889 -1.02296 0
M  V30 207 C 21.6564 2.21116 -0.603351 0
M  V30 208 C 22.6564 1.5738 0.329884 0
M  V30 209 O 23.8464 1.73802 0.117702 0
M  V30 210 C 20.9784 3.40696 0.117992 0
M  V30 211 H 22.1714 2.59754 -1.49893 0
M  V30 212 H 19.7244 1.33463 -0.813468 0
M  V30 213 H 20.4594 3.07569 1.0282 0
M  V30 214 H 20.2444 3.88188 -0.552511 0
M  V30 215 H 21.7344 4.15692 0.398696 0
M  V30 216 N 22.1715 0.800033 1.35784 0
M  V30 217 C 23.1035 0.163596 2.28615 0
M  V30 218 C 24.1165 -0.633317 1.49976 0
M  V30 219 O 25.3055 -0.466754 1.72289 0
M  V30 220 C 22.4055 -0.790958 3.29541 0
M  V30 221 C 21.5785 -0.0418255 4.3738 0
M  V30 222 C 20.6375 -0.91389 5.18203 0
M  V30 223 O 19.6635 -0.367234 5.68014 0
M  V30 224 N 20.8655 -2.23682 5.35674 0
M  V30 225 H 23.6305 0.96105 2.83873 0
M  V30 226 H 21.1915 0.654894 1.48063 0
M  V30 227 H 23.1835 -1.37844 3.80501 0
M  V30 228 H 21.7535 -1.48925 2.74846 0
M  V30 229 H 20.9735 0.726813 3.87442 0
M  V30 230 H 22.2615 0.474719 5.06581 0
M  V30 231 H 21.6595 -2.70497 4.96838 0
M  V30 232 H 20.2165 -2.77369 5.89839 0
M  V30 233 N 23.6496 -1.47581 0.552962 0
M  V30 234 C 24.8956 -2.02782 0.0273648 0
M  V30 235 C 25.2286 -1.42687 -1.31734 0
M  V30 236 O 24.5036 -0.580897 -1.85623 0
M  V30 237 C 24.7866 -3.60031 -0.0702371 0
M  V30 238 C 24.6396 -4.30566 1.30126 0
M  V30 239 C 25.9586 -4.33028 -0.785771 0
M  V30 240 H 23.0776 -0.736912 0.0114185 0
M  V30 241 H 25.7196 -1.76056 0.714432 0
M  V30 242 H 23.8696 -3.82932 -0.655382 0
M  V30 243 H 25.5416 -4.19018 1.92929 0
M  V30 244 H 23.7846 -3.91086 1.87709 0
M  V30 245 H 24.4556 -5.39114 1.18573 0
M  V30 246 H 26.9316 -4.15095 -0.288982 0
M  V30 247 H 25.8076 -5.42695 -0.823013 0
M  V30 248 H 26.0686 -4.01945 -1.841 0
M  V30 249 N 25.1277 -0.289203 -1.54924 0
M  V30 250 C 26.0577 0.58549 -2.2604 0
M  V30 251 C 27.0387 1.14753 -1.25562 0
M  V30 252 O 28.2237 1.17906 -1.54311 0
M  V30 253 C 25.3537 1.76305 -2.99222 0
M  V30 254 C 24.3077 1.33191 -4.06748 0
M  V30 255 C 23.6337 2.5937 -4.6758 0
M  V30 256 C 24.9337 0.471775 -5.20165 0
M  V30 257 H 26.6277 -0.00763532 -2.99399 0
M  V30 258 H 24.1737 -0.00511229 -1.43999 0
M  V30 259 H 26.1267 2.38097 -3.47689 0
M  V30 260 H 24.8507 2.38223 -2.23422 0
M  V30 261 H 23.5097 0.737121 -3.59113 0
M  V30 262 H 23.1577 3.19576 -3.88433 0
M  V30 263 H 22.8577 2.31228 -5.40192 0
M  V30 264 H 24.3817 3.21985 -5.18804 0
M  V30 265 H 25.7957 0.995056 -5.64599 0
M  V30 266 H 24.1927 0.284639 -5.99425 0
M  V30 267 H 25.2627 -0.506041 -4.82252 0
M  V30 268 N 26.6058 1.57591 -0.0167156 0
M  V30 269 C 28.0218 1.55946 0.339557 0
M  V30 270 C 28.2218 1.02109 1.73713 0
M  V30 271 O 27.2778 0.662303 2.43659 0
M  V30 272 C 28.5908 3.00037 0.199499 0
M  V30 273 C 30.1388 3.11805 0.273193 0
M  V30 274 C 30.6138 4.57713 0.162068 0
M  V30 275 N 32.1048 4.6268 0.219444 0
M  V30 276 C 32.8398 5.73185 0.157054 0
M  V30 277 N 32.3358 6.92786 0.0442936 0
M  V30 278 N 34.1288 5.61707 0.21014 0
M  V30 279 H 26.2798 1.90921 -0.930758 0
M  V30 280 H 28.5428 0.877674 -0.358319 0
M  V30 281 H 28.2488 3.4333 -0.76273 0
M  V30 282 H 28.1228 3.64387 0.974786 0
M  V30 283 H 30.5098 2.68433 1.22587 0
M  V30 284 H 30.5908 2.50201 -0.532256 0
M  V30 285 H 30.2348 5.01763 -0.78714 0
M  V30 286 H 30.1648 5.17283 0.986222 0
M  V30 287 H 32.6558 3.76649 0.307246 0
M  V30 288 H 32.9688 7.728 0.00304069 0
M  V30 289 H 31.3138 6.94999 0.00968457 0
M  V30 290 H 34.5048 4.6716 0.296546 0
M  V30 291 H 34.6778 6.47807 0.158054 0
M  V30 292 N 28.0839 -0.256276 1.55502 0
M  V30 293 C 29.4949 -0.826068 1.67431 0
M  V30 294 C 29.8459 -1.86396 0.612446 0
M  V30 295 O 28.9709 -2.15031 -0.243025 0
M  V30 296 C 29.5659 -1.50512 3.03532 0
M  V30 297 C 28.1249 -2.02273 3.17431 0
M  V30 298 C 27.2719 -0.870548 2.63281 0
M  V30 299 H 30.2229 -0.0322728 1.58667 0
M  V30 300 H 30.2439 -2.37279 2.97454 0
M  V30 301 H 29.7559 -0.749484 3.80794 0
M  V30 302 H 27.8569 -2.80746 2.44974 0
M  V30 303 H 27.9699 -2.22655 4.24219 0
M  V30 304 H 26.3339 -1.26851 2.20864 0
M  V30 305 H 27.1169 -0.128149 3.43061 0
M  V30 306 N 29.562 -1.4872 -0.521534 0
M  V30 307 C 30.81 -1.56857 -1.27437 0
M  V30 308 C 31.131 -0.247982 -1.93417 0
M  V30 309 O 30.401 0.731151 -1.81744 0
M  V30 310 H 28.981 -0.577885 -0.473347 0
M  V30 311 H 31.643 -1.85233 -0.606205 0
M  V30 312 H 30.739 -2.35402 -2.0492 0
M  V30 313 N 31.0401 0.771051 -1.3745 0
M  V30 314 C 32.0031 1.86598 -1.33093 0
M  V30 315 C 33.0031 1.59076 -0.234845 0
M  V30 316 O 34.1931 1.67145 -0.490732 0
M  V30 317 C 31.3251 3.23747 -1.06773 0
M  V30 318 H 32.5181 1.91873 -2.30488 0
M  V30 319 H 30.0711 0.970876 -1.2249 0
M  V30 320 H 30.8061 3.24148 -0.099129 0
M  V30 321 H 30.5911 3.45115 -1.86112 0
M  V30 322 H 32.0811 4.03824 -1.06377 0
M  V30 323 N 32.5182 1.22032 0.997298 0
M  V30 324 C 33.7662 1.04016 1.73278 0
M  V30 325 C 34.0872 -0.426255 1.90284 0
M  V30 326 O 33.3572 -1.30694 1.45931 0
M  V30 327 H 31.9372 0.381897 0.642 0
M  V30 328 H 34.5992 1.5347 1.20137 0
M  V30 329 H 33.6952 1.51441 2.72896 0
M  V30 330 N 33.9963 -1.19345 1.0293 0
M  V30 331 C 35.2423 -1.89318 0.727083 0
M  V30 332 C 35.5753 -1.79446 -0.742483 0
M  V30 333 O 34.8503 -1.1871 -1.54072 0
M  V30 334 C 35.1333 -3.40238 1.17942 0
M  V30 335 C 34.9863 -3.58979 2.71024 0
M  V30 336 C 36.3053 -4.33479 0.760548 0
M  V30 337 H 33.4243 -0.687475 0.265606 0
M  V30 338 H 36.0663 -1.40477 1.2793 0
M  V30 339 H 34.2163 -3.81964 0.709608 0
M  V30 340 H 35.8883 -3.26421 3.25955 0
M  V30 341 H 34.1313 -3.02018 3.11396 0
M  V30 342 H 34.8023 -4.64823 2.9773 0
M  V30 343 H 37.2783 -3.99469 1.16464 0
M  V30 344 H 36.1543 -5.37664 1.10493 0
M  V30 345 H 36.4153 -4.40813 -0.337063 0
M  V30 346 N 35.4744 -0.807222 -1.35358 0
M  V30 347 C 36.8904 -0.491038 -1.51858 0
M  V30 348 C 37.0904 0.987648 -1.75635 0
M  V30 349 O 36.1464 1.77265 -1.79815 0
M  V30 350 C 37.4594 -1.33695 -2.69344 0
M  V30 351 C 39.0074 -1.33246 -2.83222 0
M  V30 352 C 39.4824 -2.1625 -4.03733 0
M  V30 353 N 40.9734 -2.1379 -4.10911 0
M  V30 354 C 41.7084 -2.74772 -5.03277 0
M  V30 355 N 41.2044 -3.44684 -6.0097 0
M  V30 356 N 42.9974 -2.6441 -4.96028 0
M  V30 357 H 35.1484 -1.76485 -1.18181 0
M  V30 358 H 37.4114 -0.751199 -0.578276 0
M  V30 359 H 37.1174 -2.38634 -2.58354 0
M  V30 360 H 36.9914 -0.990618 -3.6396 0
M  V30 361 H 39.3784 -0.290911 -2.93663 0
M  V30 362 H 39.4594 -1.71866 -1.89461 0
M  V30 363 H 39.1034 -3.20445 -3.94052 0
M  V30 364 H 39.0334 -1.74989 -4.96675 0
M  V30 365 H 41.5244 -1.62923 -3.40976 0
M  V30 366 H 41.8374 -3.88501 -6.68047 0
M  V30 367 H 40.1824 -3.48788 -6.01142 0
M  V30 368 H 43.3734 -2.0938 -4.18662 0
M  V30 369 H 43.5464 -3.12225 -5.6782 0
M  V30 370 N 36.9525 1.47285 -0.560781 0
M  V30 371 C 37.8825 2.32857 0.173105 0
M  V30 372 C 38.8635 1.44009 0.905281 0
M  V30 373 O 40.0485 1.7286 0.885046 0
M  V30 374 C 37.1785 3.25861 1.20133 0
M  V30 375 C 36.1325 4.23978 0.585388 0
M  V30 376 C 35.4585 5.06332 1.7185 0
M  V30 377 C 36.7585 5.20242 -0.463178 0
M  V30 378 H 38.4525 2.94466 -0.541307 0
M  V30 379 H 35.9985 1.41601 -0.261764 0
M  V30 380 H 37.9515 3.84569 1.72293 0
M  V30 381 H 36.6755 2.62315 1.94573 0
M  V30 382 H 35.3345 3.66501 0.085054 0
M  V30 383 H 34.9825 4.39186 2.45203 0
M  V30 384 H 34.6825 5.72762 1.31213 0
M  V30 385 H 36.2065 5.67899 2.24329 0
M  V30 386 H 37.6205 5.73293 -0.027502 0
M  V30 387 H 36.0175 5.94896 -0.788627 0
M  V30 388 H 37.0875 4.65504 -1.35773 0
M  V30 389 N 38.4306 0.297415 1.54768 0
M  V30 390 C 39.8416 -0.195947 1.85669 0
M  V30 391 C 40.1926 -1.53707 1.21937 0
M  V30 392 O 39.3176 -2.10164 0.515754 0
M  V30 393 C 39.9126 -0.362318 3.36857 0
M  V30 394 C 38.4716 -0.799901 3.67802 0
M  V30 395 C 37.6186 0.0938578 2.77141 0
M  V30 396 H 40.5696 0.518538 1.4999 0
M  V30 397 H 40.5906 -1.19745 3.61167 0
M  V30 398 H 40.1026 0.613921 3.83214 0
M  V30 399 H 38.2036 -1.78682 3.26961 0
M  V30 400 H 38.3166 -0.621773 4.75048 0
M  V30 401 H 36.6806 -0.426254 2.51108 0
M  V30 402 H 37.4636 1.06639 3.26318 0
M  V30 403 N 39.9087 -1.5758 0.0250728 0
M  V30 404 C 41.1577 -1.90811 -0.653767 0
M  V30 405 C 41.4707 -0.90273 -1.73523 0
M  V30 406 O 42.6767 -1.12614 -2.47043 0
M  V30 407 C 41.1327 -3.38804 -1.21409 0
M  V30 408 C 40.7407 -4.47692 -0.166126 0
M  V30 409 C 42.4847 -3.81108 -1.86967 0
M  V30 410 C 40.3917 -5.86779 -0.737856 0
M  V30 411 H 39.3217 -0.712063 -0.247956 0
M  V30 412 H 41.9727 -1.83281 0.0897137 0
M  V30 413 H 40.3547 -3.41252 -2.00905 0
M  V30 414 H 41.5287 -4.56797 0.606079 0
M  V30 415 H 39.8437 -4.14565 0.390466 0
M  V30 416 H 42.4407 -4.82375 -2.30692 0
M  V30 417 H 42.7837 -3.15953 -2.71071 0
M  V30 418 H 43.3167 -3.81065 -1.14167 0
M  V30 419 H 40.0557 -6.55468 0.0649577 0
M  V30 420 H 39.5757 -5.81288 -1.47864 0
M  V30 421 H 41.2547 -6.35223 -1.22884 0
M  V30 422 N 41.3868 0.248026 -1.55636 0
M  V30 423 C 42.3188 1.32993 -1.8667 0
M  V30 424 C 43.3318 1.44345 -0.752877 0
M  V30 425 O 44.5208 1.45715 -1.03098 0
M  V30 426 C 41.6208 2.70863 -2.03682 0
M  V30 427 C 40.7938 2.81792 -3.34532 0
M  V30 428 C 39.8528 4.005 -3.41301 0
M  V30 429 O 38.8788 3.9008 -4.14519 0
M  V30 430 N 40.0808 5.13618 -2.70512 0
M  V30 431 H 42.8458 1.06707 -2.8006 0
M  V30 432 H 40.4068 0.438129 -1.55859 0
M  V30 433 H 42.3988 3.48612 -2.05553 0
M  V30 434 H 40.9688 2.89862 -1.17041 0
M  V30 435 H 40.1888 1.90729 -3.44987 0
M  V30 436 H 41.4768 2.86043 -4.20781 0
M  V30 437 H 40.8748 5.24975 -2.10755 0
M  V30 438 H 39.4318 5.89505 -2.78077 0
M  V30 439 N 42.8649 1.48995 0.513639 0
M  V30 440 C 44.2759 1.5119 1.09537 0
M  V30 441 C 44.6269 0.290906 1.94031 0
M  V30 442 O 43.7519 -0.60049 2.07902 0
M  V30 443 C 44.3469 2.73964 1.99322 0
M  V30 444 C 42.9059 2.78978 2.52682 0
M  V30 445 C 42.0529 2.44934 1.30009 0
M  V30 446 H 45.0039 1.55875 0.298125 0
M  V30 447 H 45.0249 2.53409 2.83838 0
M  V30 448 H 44.5369 3.62813 1.37799 0
M  V30 449 H 42.6379 1.94378 3.1788 0
M  V30 450 H 42.7509 3.8083 2.90698 0
M  V30 451 H 41.1149 1.9644 1.62122 0
M  V30 452 H 41.8979 3.36043 0.702131 0
M  V30 453 N 44.343 -0.763751 1.37857 0
M  V30 454 C 45.568 -1.55805 1.36893 0
M  V30 455 C 45.993 -1.88054 -0.0416135 0
M  V30 456 O 45.351 -1.49825 -1.02089 0
M  V30 457 C 45.399 -2.84012 2.22192 0
M  V30 458 O 44.503 -3.78732 1.63204 0
M  V30 459 H 43.844 -0.471638 0.46739 0
M  V30 460 H 46.374 -0.944657 1.81487 0
M  V30 461 H 46.384 -3.33037 2.35691 0
M  V30 462 H 45.059 -2.59869 3.24716 0
M  V30 463 H 43.636 -3.37402 1.58791 0
M  V30 464 N 45.8211 -1.22559 -0.990812 0
M  V30 465 C 47.2371 -0.985996 -1.255 0
M  V30 466 C 47.4371 0.319173 -1.98956 0
M  V30 467 O 46.4931 1.04127 -2.3003 0
M  V30 468 C 47.8061 -2.18607 -2.06474 0
M  V30 469 C 49.3541 -2.22985 -2.19651 0
M  V30 470 C 49.8291 -3.4255 -3.04012 0
M  V30 471 N 51.3201 -3.42725 -3.11599 0
M  V30 472 C 52.0551 -4.31892 -3.7717 0
M  V30 473 N 51.5511 -5.31279 -4.44651 0
M  V30 474 N 53.3441 -4.19662 -3.73952 0
M  V30 475 H 45.4951 -2.06469 -0.49841 0
M  V30 476 H 47.7581 -0.904853 -0.282747 0
M  V30 477 H 47.4641 -3.13267 -1.59865 0
M  V30 478 H 47.3381 -2.18838 -3.07229 0
M  V30 479 H 49.7251 -1.28871 -2.65474 0
M  V30 480 H 49.8061 -2.26791 -1.18319 0
M  V30 481 H 49.4501 -4.36965 -2.58889 0
M  V30 482 H 49.3801 -3.35984 -4.0549 0
M  V30 483 H 51.8711 -2.70807 -2.63575 0
M  V30 484 H 52.1841 -5.95593 -4.92431 0
M  V30 485 H 50.5291 -5.3519 -4.43392 0
M  V30 486 H 53.7201 -3.41268 -3.20396 0
M  V30 487 H 53.8931 -4.89358 -4.24774 0
M  V30 488 N 47.2992 1.18797 -1.03562 0
M  V30 489 C 48.5472 1.88278 -0.734569 0
M  V30 490 C 48.8682 1.8043 0.739586 0
M  V30 491 O 48.1382 1.21925 1.53333 0
M  V30 492 H 46.7182 0.696991 -0.268725 0
M  V30 493 H 49.3802 1.44192 -1.31129 0
M  V30 494 H 48.4762 2.94443 -1.03489 0
M  V30 495 N 48.7773 0.814389 1.34928 0
M  V30 496 C 50.0233 0.399013 1.98836 0
M  V30 497 C 50.3563 -1.03314 1.64438 0
M  V30 498 O 49.6313 -1.71811 0.911659 0
M  V30 499 C 49.9143 0.591629 3.55207 0
M  V30 500 C 49.7673 2.06928 3.99376 0
M  V30 501 C 51.0863 0.022199 4.40094 0
M  V30 502 H 48.2053 0.146451 0.722303 0
M  V30 503 H 50.8473 1.02537 1.59957 0
M  V30 504 H 48.9973 0.0584441 3.88456 0
M  V30 505 H 50.6693 2.66544 3.76499 0
M  V30 506 H 48.9123 2.56287 3.49999 0
M  V30 507 H 49.5833 2.1549 5.08201 0
M  V30 508 H 52.0593 0.477643 4.13349 0
M  V30 509 H 50.9353 0.186832 5.48582 0
M  V30 510 H 51.1963 -1.07215 4.28902 0
M  V30 511 N 50.2554 -1.46986 0.568584 0
M  V30 512 C 51.6714 -1.57946 0.229189 0
M  V30 513 C 51.8714 -1.56567 -1.26843 0
M  V30 514 O 50.9274 -1.47511 -2.04931 0
M  V30 515 C 52.2404 -2.87963 0.865909 0
M  V30 516 C 53.7884 -3.01568 0.838188 0
M  V30 517 C 54.2634 -4.34301 1.45419 0
M  V30 518 N 55.7544 -4.40965 1.41788 0
M  V30 519 C 56.4894 -5.42256 1.86403 0
M  V30 520 N 55.9854 -6.50297 2.38926 0
M  V30 521 N 57.7784 -5.3337 1.77405 0
M  V30 522 H 49.9294 -1.46126 1.54146 0
M  V30 523 H 52.1924 -0.696156 0.643484 0
M  V30 524 H 51.8984 -2.94742 1.91886 0
M  V30 525 H 51.7724 -3.75423 0.365687 0
M  V30 526 H 54.1594 -2.94379 -0.206106 0
M  V30 527 H 54.2404 -2.1562 1.37629 0
M  V30 528 H 53.8844 -4.42247 2.49761 0
M  V30 529 H 53.8144 -5.19 0.891435 0
M  V30 530 H 56.3054 -3.63484 1.03381 0
M  V30 531 H 56.6184 -7.23777 2.70863 0
M  V30 532 H 54.9634 -6.51155 2.42944 0
M  V30 533 H 58.1544 -4.47865 1.3614 0
M  V30 534 H 58.3274 -6.12169 2.12492 0
M  V30 535 N 51.7335 -0.305618 -1.54608 0
M  V30 536 C 52.6655 0.602161 -2.21149 0
M  V30 537 C 53.6785 1.09394 -1.20569 0
M  V30 538 O 54.8675 1.0106 -1.47136 0
M  V30 539 C 51.9675 1.83692 -2.84799 0
M  V30 540 C 51.1405 1.48686 -4.11353 0
M  V30 541 C 50.1995 2.57725 -4.58764 0
M  V30 542 O 49.2255 2.22623 -5.23858 0
M  V30 543 N 50.4275 3.88346 -4.31471 0
M  V30 544 H 53.1925 0.0324966 -2.99682 0
M  V30 545 H 50.7535 -0.128021 -1.61393 0
M  V30 546 H 52.7455 2.55994 -3.13448 0
M  V30 547 H 51.3155 2.31486 -2.10078 0
M  V30 548 H 50.5355 0.596269 -3.89664 0
M  V30 549 H 51.8235 1.22842 -4.93748 0
M  V30 550 H 51.2215 4.19671 -3.79331 0
M  V30 551 H 49.7785 4.56932 -4.64818 0
M  V30 552 N 53.2116 1.57565 -0.0334293 0
M  V30 553 C 54.4576 1.93088 0.639417 0
M  V30 554 C 54.8126 0.910589 1.69488 0
M  V30 555 O 54.1056 -0.0727725 1.91462 0
M  V30 556 C 54.2996 3.33112 1.29504 0
M  V30 557 C 54.1286 4.48667 0.304604 0
M  V30 558 C 52.8986 5.05207 -0.0970777 0
M  V30 559 C 55.0966 5.1239 -0.442845 0
M  V30 560 N 53.0786 6.04286 -1.08223 0
M  V30 561 C 54.4496 6.06609 -1.28161 0
M  V30 562 C 56.5046 4.95352 -0.50308 0
M  V30 563 C 55.2076 6.85622 -2.17519 0
M  V30 564 C 57.2336 5.74978 -1.38401 0
M  V30 565 C 56.5956 6.68816 -2.21054 0
M  V30 566 H 52.6946 0.754335 0.206161 0
M  V30 567 H 55.2786 1.94435 -0.101613 0
M  V30 568 H 53.4496 3.32576 2.00618 0
M  V30 569 H 55.1816 3.55972 1.92525 0
M  V30 570 H 51.9366 4.72782 0.278255 0
M  V30 571 H 52.3606 6.58516 -1.57117 0
M  V30 572 H 57.0026 4.22625 0.121694 0
M  V30 573 H 54.7206 7.57652 -2.81049 0
M  V30 574 H 58.3066 5.63826 -1.43496 0
M  V30 575 H 57.1866 7.29355 -2.88116 0
M  V30 576 N 54.6897 -0.239769 1.55765 0
M  V30 577 C 55.6217 -1.32001 1.87372 0
M  V30 578 C 56.6347 -1.43944 0.760522 0
M  V30 579 O 57.8237 -1.45167 1.0387 0
M  V30 580 C 54.9237 -2.69779 2.05115 0
M  V30 581 C 54.0967 -2.80014 3.36022 0
M  V30 582 C 53.1557 -3.98684 3.4342 0
M  V30 583 O 52.1817 -3.87877 4.16582 0
M  V30 584 N 53.3837 -5.12176 2.73232 0
M  V30 585 H 56.1487 -1.0522 2.80622 0
M  V30 586 H 53.7097 -0.429857 1.56089 0
M  V30 587 H 55.7017 -3.47517 2.07399 0
M  V30 588 H 54.2717 -2.89237 1.18577 0
M  V30 589 H 53.4917 -1.88896 3.45994 0
M  V30 590 H 54.7797 -2.83808 4.22292 0
M  V30 591 H 54.1777 -5.2385 2.13536 0
M  V30 592 H 52.7347 -5.88022 2.81199 0
M  V30 593 N 56.1678 -1.49265 -0.50573 0
M  V30 594 C 57.5788 -1.51769 -1.08734 0
M  V30 595 C 57.9298 -0.301192 -1.93874 0
M  V30 596 O 57.0548 0.589456 -2.08217 0
M  V30 597 C 57.6498 -2.75017 -1.97867 0
M  V30 598 C 56.2088 -2.80314 -2.51199 0
M  V30 599 C 55.3558 -2.4562 -1.28709 0
M  V30 600 H 58.3068 -1.56031 -0.289855 0
M  V30 601 H 58.3278 -2.5491 -2.82491 0
M  V30 602 H 57.8398 -3.63539 -1.35873 0
M  V30 603 H 55.9408 -1.96061 -3.16845 0
M  V30 604 H 56.0538 -3.82366 -2.88675 0
M  V30 605 H 54.4178 -1.97297 -1.61078 0
M  V30 606 H 55.2008 -3.36411 -0.6843 0
M  V30 607 N 57.6459 0.756429 -1.3826 0
M  V30 608 C 58.9229 1.50584 -1.24835 0
M  V30 609 C 59.3029 2.10556 0.151485 0
M  V30 610 O 58.6509 1.96825 1.1607 0
M  V30 611 C 58.8609 2.57448 -2.3563 0
M  V30 612 C 60.2089 3.24429 -2.73917 0
M  V30 613 O 61.2329 2.67751 -2.34921 0
M  V30 614 O 60.0919 4.26937 -3.41156 0
M  V30 615 H 57.1859 0.667664 -0.48801 0
M  V30 616 H 59.7319 0.792083 -1.5008 0
M  V30 617 H 58.5039 2.11362 -3.29305 0
M  V30 618 H 58.1269 3.36408 -2.11933 0
M  V30 619 N 59.124 1.23083 0.984299 0
M  V30 620 C 60.37 1.06214 1.72761 0
M  V30 621 C 60.703 -0.400584 1.90024 0
M  V30 622 O 59.978 -1.29672 1.44967 0
M  V30 623 C 60.261 1.78375 3.12817 0
M  V30 624 C 60.114 3.32296 3.03149 0
M  V30 625 C 61.433 1.54309 4.12161 0
M  V30 626 H 58.552 0.387251 0.627061 0
M  V30 627 H 61.194 1.51536 1.14616 0
M  V30 628 H 59.344 1.39848 3.62457 0
M  V30 629 H 61.016 3.8032 2.61064 0
M  V30 630 H 59.259 3.6153 2.39747 0
M  V30 631 H 59.93 3.77972 4.02295 0
M  V30 632 H 62.406 1.87791 3.71314 0
M  V30 633 H 61.282 2.07281 5.08258 0
M  V30 634 H 61.543 0.477572 4.39513 0
M  V30 635 N 60.6021 -1.18246 1.0419 0
M  V30 636 C 61.5121 -2.25574 0.644476 0
M  V30 637 C 62.5281 -1.70845 -0.329826 0
M  V30 638 O 63.7041 -2.00554 -0.184443 0
M  V30 639 C 60.7691 -3.46697 0.014877 0
M  V30 640 C 59.8301 -4.16554 1.03834 0
M  V30 641 C 59.0631 -5.31894 0.438692 0
M  V30 642 O 59.2861 -5.65385 -0.754752 0
M  V30 643 O 58.2201 -5.90459 1.168 0
M  V30 644 H 62.0461 -2.61836 1.53869 0
M  V30 645 H 59.6311 -1.25352 0.812854 0
M  V30 646 H 61.5131 -4.20062 -0.335538 0
M  V30 647 H 60.1881 -3.12255 -0.853138 0
M  V30 648 H 59.0951 -3.45251 1.44057 0
M  V30 649 H 60.4281 -4.54998 1.87716 0
M  V30 650 N 62.0802 -0.821533 -1.34494 0
M  V30 651 C 63.3262 -0.418729 -1.99043 0
M  V30 652 C 63.6812 1.00672 -1.6396 0
M  V30 653 O 62.9742 1.69132 -0.900271 0
M  V30 654 C 63.1682 -0.556512 -3.53041 0
M  V30 655 C 62.9972 -1.9938 -4.03085 0
M  V30 656 C 61.7672 -2.62539 -4.31742 0
M  V30 657 C 63.9652 -2.96035 -4.20556 0
M  V30 658 N 61.9472 -3.97523 -4.67813 0
M  V30 659 C 63.3182 -4.15924 -4.59791 0
M  V30 660 C 65.3732 -2.9267 -4.02801 0
M  V30 661 C 64.0762 -5.32899 -4.83126 0
M  V30 662 C 66.1022 -4.08861 -4.27302 0
M  V30 663 C 65.4642 -5.275 -4.66822 0
M  V30 664 H 61.5632 -0.201299 -0.755647 0
M  V30 665 H 64.1472 -1.06594 -1.62929 0
M  V30 666 H 62.3182 0.0607924 -3.88352 0
M  V30 667 H 64.0502 -0.126842 -4.04501 0
M  V30 668 H 60.8052 -2.13789 -4.22601 0
M  V30 669 H 61.2292 -4.67061 -4.90085 0
M  V30 670 H 65.8712 -2.02088 -3.71376 0
M  V30 671 H 63.5892 -6.24041 -5.13418 0
M  V30 672 H 67.1752 -4.07654 -4.15101 0
M  V30 673 H 66.0552 -6.15913 -4.85408 0
M  V30 674 N 63.5583 1.46682 -0.576371 0
M  V30 675 C 64.5213 2.28707 0.150239 0
M  V30 676 C 65.5213 1.38035 0.824794 0
M  V30 677 O 66.7113 1.60476 0.677719 0
M  V30 678 C 63.8433 3.18248 1.22192 0
M  V30 679 H 65.0363 2.94423 -0.570521 0
M  V30 680 H 62.5893 1.52688 -0.334078 0
M  V30 681 H 63.3243 2.57265 1.97447 0
M  V30 682 H 63.1093 3.85 0.742812 0
M  V30 683 H 64.5993 3.80001 1.73172 0
M  V30 684 N 65.0364 0.313813 1.54444 0
M  V30 685 C 65.9684 -0.590425 2.21465 0
M  V30 686 C 66.9814 -1.08753 1.21147 0
M  V30 687 O 68.1704 -1.00278 1.4767 0
M  V30 688 C 65.2704 -1.82179 2.85769 0
M  V30 689 C 64.4434 -1.46502 4.12136 0
M  V30 690 C 63.5024 -2.55288 4.60124 0
M  V30 691 O 62.5284 -2.19842 5.25032 0
M  V30 692 N 63.7304 -3.86053 4.33525 0
M  V30 693 H 66.4954 -0.0166033 2.99695 0
M  V30 694 H 64.0564 0.136578 1.61323 0
M  V30 695 H 66.0484 -2.54328 3.14801 0
M  V30 696 H 64.6184 -2.30369 2.11303 0
M  V30 697 H 63.8384 -0.575595 3.89975 0
M  V30 698 H 65.1264 -1.20221 4.94393 0
M  V30 699 H 64.5244 -4.17654 3.81552 0
M  V30 700 H 63.0814 -4.54461 4.67235 0
M  V30 701 N 66.5145 -1.57545 0.0417849 0
M  V30 702 C 67.4465 -2.07904 -0.964799 0
M  V30 703 C 68.4595 -1.00497 -1.28079 0
M  V30 704 O 69.6485 -1.28087 -1.24322 0
M  V30 705 C 66.7485 -2.49928 -2.28887 0
M  V30 706 C 65.9215 -3.80562 -2.15619 0
M  V30 707 C 64.9805 -4.08999 -3.31069 0
M  V30 708 O 64.0065 -4.79061 -3.0739 0
M  V30 709 N 65.2085 -3.6017 -4.55256 0
M  V30 710 H 67.9735 -2.94886 -0.535029 0
M  V30 711 H 65.5345 -1.61252 -0.144681 0
M  V30 712 H 67.5265 -2.66034 -3.04972 0
M  V30 713 H 66.0965 -1.68245 -2.63463 0
M  V30 714 H 65.3165 -3.74129 -1.24183 0
M  V30 715 H 66.6045 -4.66126 -2.03971 0
M  V30 716 H 66.0025 -3.03512 -4.77386 0
M  V30 717 H 64.5595 -3.81532 -5.28466 0
M  V30 718 N 67.9926 0.231505 -1.5589 0
M  V30 719 C 69.2396 0.957352 -1.78441 0
M  V30 720 C 69.5676 1.84726 -0.60882 0
M  V30 721 O 68.8226 1.91416 0.40725 0
M  V30 722 C 69.1216 1.83577 -3.0665 0
M  V30 723 C 68.7876 1.09993 -4.37278 0
M  V30 724 C 67.4496 0.896629 -4.72773 0
M  V30 725 C 69.8016 0.579558 -5.17968 0
M  V30 726 C 67.1296 0.160896 -5.86479 0
M  V30 727 C 69.4816 -0.142783 -6.32439 0
M  V30 728 C 68.1456 -0.357427 -6.66542 0
M  V30 729 H 67.4156 0.35032 -0.65296 0
M  V30 730 H 70.0626 0.226259 -1.90159 0
M  V30 731 H 68.3676 2.63441 -2.90011 0
M  V30 732 H 70.0646 2.39934 -3.21298 0
M  V30 733 H 66.6546 1.26835 -4.09403 0
M  V30 734 H 70.8386 0.724125 -4.90989 0
M  V30 735 H 66.0946 -0.0157293 -6.11398 0
M  V30 736 H 70.2686 -0.553559 -6.94196 0
M  V30 737 H 67.8956 -0.929466 -7.54497 0
M  V30 738 N 69.4707 1.49531 0.497807 0
M  V30 739 C 70.7187 1.58865 1.24926 0
M  V30 740 C 71.0397 0.278721 1.92998 0
M  V30 741 O 70.3097 -0.702144 1.82885 0
M  V30 742 H 68.8897 0.585343 0.464094 0
M  V30 743 H 71.5517 1.86174 0.57666 0
M  V30 744 H 70.6477 2.38633 2.01149 0
M  V30 745 N 70.9488 -0.749086 1.3866 0
M  V30 746 C 72.1968 -1.50535 1.34847 0
M  V30 747 C 72.5178 -1.94909 -0.0595016 0
M  V30 748 O 71.7878 -1.67973 -1.00806 0
M  V30 749 H 70.3678 -0.558395 0.49619 0
M  V30 750 H 73.0298 -0.890165 1.73384 0
M  V30 751 H 72.1258 -2.39413 2.00219 0
M  V30 752 N 72.4269 -1.23603 -0.977757 0
M  V30 753 C 73.3899 -1.02069 -2.05218 0
M  V30 754 C 74.3899 0.0184305 -1.60789 0
M  V30 755 O 75.5799 -0.221569 -1.72785 0
M  V30 756 C 72.7119 -0.544926 -3.36517 0
M  V30 757 H 73.9049 -1.9742 -2.25755 0
M  V30 758 H 71.4579 -1.05684 -1.15155 0
M  V30 759 H 72.1929 0.412241 -3.21669 0
M  V30 760 H 71.9779 -1.2948 -3.70105 0
M  V30 761 H 73.4679 -0.414985 -4.15533 0
M  V30 762 N 73.905 1.17692 -1.04816 0
M  V30 763 C 75.151 1.88137 -0.75711 0
M  V30 764 C 75.484 1.80604 0.713841 0
M  V30 765 O 74.759 1.21146 1.52164 0
M  V30 766 C 75.042 3.38318 -1.2334 0
M  V30 767 C 74.895 3.54622 -2.76701 0
M  V30 768 C 76.214 4.32214 -0.829415 0
M  V30 769 H 73.333 0.683163 -0.27651 0
M  V30 770 H 75.975 1.38424 -1.30149 0
M  V30 771 H 74.125 3.80787 -0.770286 0
M  V30 772 H 75.797 3.21194 -3.31107 0
M  V30 773 H 74.04 2.97026 -3.16161 0
M  V30 774 H 74.711 4.60028 -3.05088 0
M  V30 775 H 77.187 3.97565 -1.22805 0
M  V30 776 H 76.063 5.35838 -1.19033 0
M  V30 777 H 76.324 4.41294 0.266891 0
M  V30 778 N 75.3831 0.828654 1.34056 0
M  V30 779 C 76.3161 0.199763 2.27324 0
M  V30 780 C 77.2941 -0.647168 1.49166 0
M  V30 781 O 78.4781 -0.609661 1.78369 0
M  V30 782 C 75.6051 -0.720455 3.30949 0
M  V30 783 C 74.6511 0.0496888 4.26471 0
M  V30 784 S 75.4841 1.40072 5.16856 0
M  V30 785 C 76.6401 0.485527 6.24014 0
M  V30 786 H 76.8731 0.990478 2.80316 0
M  V30 787 H 74.4061 0.624857 1.41191 0
M  V30 788 H 76.3641 -1.24581 3.91139 0
M  V30 789 H 75.0251 -1.48474 2.76793 0
M  V30 790 H 74.2181 -0.650104 4.9979 0
M  V30 791 H 73.8201 0.505779 3.70564 0
M  V30 792 H 76.1121 -0.320672 6.76741 0
M  V30 793 H 77.0551 1.18856 6.98054 0
M  V30 794 H 77.4631 0.0714109 5.64455 0
M  V30 795 N 76.8612 -1.46375 0.584142 0
M  V30 796 C 78.0912 -2.06461 0.0758195 0
M  V30 797 C 78.4992 -1.43322 -1.23512 0
M  V30 798 O 77.8422 -0.533216 -1.75791 0
M  V30 799 C 77.9042 -3.59131 -0.162773 0
M  V30 800 C 77.5682 -4.4447 1.06279 0
M  V30 801 C 78.5652 -4.80918 1.97519 0
M  V30 802 C 76.2502 -4.85584 1.28504 0
M  V30 803 C 78.2442 -5.57309 3.09331 0
M  V30 804 C 75.9312 -5.61734 2.4062 0
M  V30 805 C 76.9292 -5.9751 3.30863 0
M  V30 806 O 76.6172 -6.72121 4.41032 0
M  V30 807 H 76.3492 -0.673745 0.0551725 0
M  V30 808 H 78.9032 -1.88969 0.804984 0
M  V30 809 H 77.1332 -3.74936 -0.946565 0
M  V30 810 H 78.8222 -4.0114 -0.619782 0
M  V30 811 H 79.5882 -4.49732 1.81565 0
M  V30 812 H 75.4672 -4.57187 0.591702 0
M  V30 813 H 79.0112 -5.85152 3.79793 0
M  V30 814 H 74.9082 -5.92334 2.56537 0
M  V30 815 H 75.6762 -6.90547 4.39417 0
M  V30 816 N 78.3393 -0.321999 -1.54275 0
M  V30 817 C 79.7503 0.166384 -1.85957 0
M  V30 818 C 80.1013 1.51747 -1.24367 0
M  V30 819 O 79.2263 2.09317 -0.549124 0
M  V30 820 C 79.8213 0.308681 -3.37391 0
M  V30 821 C 78.3803 0.741286 -3.69028 0
M  V30 822 C 77.5273 -0.137937 -2.76957 0
M  V30 823 H 80.4783 -0.542335 -1.49146 0
M  V30 824 H 80.4993 1.13984 -3.63026 0
M  V30 825 H 80.0113 -0.674809 -3.82188 0
M  V30 826 H 78.1123 1.73458 -3.29762 0
M  V30 827 H 78.2253 0.546118 -4.75977 0
M  V30 828 H 76.5893 0.386251 -2.51754 0
M  V30 829 H 77.3723 -1.11816 -3.2458 0
M  V30 830 N 79.8174 1.5752 -0.0501392 0
M  V30 831 C 81.0424 1.97376 0.636997 0
M  V30 832 C 81.4674 0.927466 1.63645 0
M  V30 833 O 80.8254 -0.10941 1.8097 0
M  V30 834 C 80.8734 3.36304 1.30123 0
M  V30 835 O 79.9774 3.34156 2.41689 0
M  V30 836 H 79.3184 0.642998 0.165679 0
M  V30 837 H 81.8484 2.04258 -0.118233 0
M  V30 838 H 81.8584 3.73008 1.65315 0
M  V30 839 H 80.5334 4.11993 0.568746 0
M  V30 840 H 79.1104 3.09196 2.08451 0
M  V30 841 N 81.2955 -0.223234 1.56011 0
M  V30 842 C 82.2425 -1.27664 1.92277 0
M  V30 843 C 83.2125 -1.46659 0.779763 0
M  V30 844 O 84.3975 -1.60256 1.03551 0
M  V30 845 C 81.5375 -2.62234 2.24338 0
M  V30 846 C 80.6505 -2.51051 3.51564 0
M  V30 847 C 79.7855 -3.78133 3.7308 0
M  V30 848 C 78.8245 -3.61665 4.93827 0
M  V30 849 N 77.9615 -4.80693 5.11741 0
M  V30 850 H 82.8015 -0.960358 2.82101 0
M  V30 851 H 80.3385 -0.462901 1.39627 0
M  V30 852 H 82.2965 -3.40596 2.40936 0
M  V30 853 H 80.9265 -2.91961 1.3769 0
M  V30 854 H 79.9785 -1.64132 3.43169 0
M  V30 855 H 81.2905 -2.34803 4.40079 0
M  V30 856 H 80.4445 -4.64938 3.89766 0
M  V30 857 H 79.1835 -3.97304 2.82844 0
M  V30 858 H 78.1885 -2.73244 4.77093 0
M  V30 859 H 79.4135 -3.43966 5.85546 0
M  V30 860 H 77.3595 -5.00181 4.24446 0
M  V30 861 H 77.2765 -4.67165 5.94384 0
M  V30 862 H 78.5445 -5.6893 5.3286 0
M  V30 863 N 82.7736 -1.49793 -0.48987 0
M  V30 864 C 83.6836 -1.70036 -1.61632 0
M  V30 865 C 84.6996 -0.583102 -1.63939 0
M  V30 866 O 85.8756 -0.859169 -1.82154 0
M  V30 867 C 82.9406 -1.77277 -2.97949 0
M  V30 868 C 82.0016 -3.00918 -3.06181 0
M  V30 869 C 81.2346 -3.07804 -4.35996 0
M  V30 870 O 81.4576 -2.21982 -5.25433 0
M  V30 871 O 80.3916 -4.00369 -4.49431 0
M  V30 872 H 84.2176 -2.65486 -1.47482 0
M  V30 873 H 81.8026 -1.33666 -0.667362 0
M  V30 874 H 83.6846 -1.84329 -3.78947 0
M  V30 875 H 82.3596 -0.850076 -3.12339 0
M  V30 876 H 81.2666 -2.99377 -2.2433 0
M  V30 877 H 82.5996 -3.92704 -2.96723 0
M  V30 878 N 84.2517 0.741722 -1.39055 0
M  V30 879 C 85.4797 1.53098 -1.39171 0
M  V30 880 C 85.8947 1.88794 0.0155099 0
M  V30 881 O 85.2517 1.53626 0.985159 0
M  V30 882 C 85.3027 2.82274 -2.2584 0
M  V30 883 O 85.0237 2.48097 -3.61081 0
M  V30 884 C 86.5247 3.76343 -2.34266 0
M  V30 885 H 83.7447 0.473335 -0.4756 0
M  V30 886 H 86.2887 0.917045 -1.82785 0
M  V30 887 H 84.4437 3.40015 -1.85656 0
M  V30 888 H 84.8577 3.31029 -4.06842 0
M  V30 889 H 86.3317 4.63898 -2.9917 0
M  V30 890 H 86.8087 4.17619 -1.35982 0
M  V30 891 H 87.4147 3.24523 -2.74891 0
M  V30 892 N 85.7298 1.2412 0.971189 0
M  V30 893 C 86.6928 1.03156 2.04674 0
M  V30 894 C 87.6928 -0.00990322 1.60797 0
M  V30 895 O 88.8828 0.230729 1.72665 0
M  V30 896 C 86.0148 0.562765 3.36223 0
M  V30 897 H 87.2078 1.98614 2.24705 0
M  V30 898 H 84.7608 1.06293 1.14593 0
M  V30 899 H 85.4958 -0.395176 3.21883 0
M  V30 900 H 85.2808 1.31441 3.69413 0
M  V30 901 H 86.7708 0.437015 4.15307 0
M  V30 902 N 87.2079 -1.17134 1.05439 0
M  V30 903 C 88.1579 -2.1919 0.627675 0
M  V30 904 C 89.1419 -1.57328 -0.337147 0
M  V30 905 O 90.3339 -1.76329 -0.153976 0
M  V30 906 C 87.4629 -3.43299 0.00651435 0
M  V30 907 C 86.5489 -4.12255 0.995312 0
M  V30 908 N 86.9399 -4.56997 2.16765 0
M  V30 909 C 85.2379 -4.38316 0.824336 0
M  V30 910 C 85.9389 -5.10239 2.7934 0
M  V30 911 N 84.9149 -5.02595 2.07122 0
M  V30 912 H 88.7169 -2.5149 1.52086 0
M  V30 913 H 86.2309 -1.33491 0.924868 0
M  V30 914 H 88.2279 -4.15693 -0.316965 0
M  V30 915 H 86.8879 -3.1249 -0.882033 0
M  V30 916 H 87.8989 -4.51006 2.54587 0
M  V30 917 H 84.5759 -4.17498 -0.0129526 0
M  V30 918 H 85.9659 -5.54961 3.78772 0
M  V30 919 N 88.686 -0.835752 -1.33615 0
M  V30 920 C 89.932 -0.439817 -1.98588 0
M  V30 921 C 90.287 0.989274 -1.65019 0
M  V30 922 O 89.58 1.68168 -0.918159 0
M  V30 923 C 89.774 -0.593925 -3.52431 0
M  V30 924 C 89.603 -2.03644 -4.00948 0
M  V30 925 C 88.373 -2.67103 -4.28934 0
M  V30 926 C 90.571 -3.00479 -4.17393 0
M  V30 927 N 88.553 -4.02462 -4.6357 0
M  V30 928 C 89.924 -4.20777 -4.55353 0
M  V30 929 C 91.979 -2.96926 -3.99674 0
M  V30 930 C 90.682 -5.37994 -4.77447 0
M  V30 931 C 92.708 -4.1337 -4.22941 0
M  V30 932 C 92.07 -5.32422 -4.61201 0
M  V30 933 H 88.169 -0.209303 -0.75347 0
M  V30 934 H 90.753 -1.08316 -1.61789 0
M  V30 935 H 88.924 0.019599 -3.88395 0
M  V30 936 H 90.656 -0.169738 -4.04344 0
M  V30 937 H 87.411 -2.18259 -4.20309 0
M  V30 938 H 87.835 -4.72232 -4.85104 0
M  V30 939 H 92.477 -2.06015 -3.69212 0
M  V30 940 H 90.195 -6.29451 -5.06771 0
M  V30 941 H 93.781 -4.12034 -4.10754 0
M  V30 942 H 92.661 -6.21027 -4.78848 0
M  V30 943 N 90.1641 1.46063 -0.591896 0
M  V30 944 C 91.1111 2.30399 0.136069 0
M  V30 945 C 92.0811 1.41169 0.875238 0
M  V30 946 O 93.2661 1.70112 0.86409 0
M  V30 947 C 90.4061 3.25804 1.13781 0
M  V30 948 C 89.5191 4.30134 0.401137 0
M  V30 949 C 88.6541 5.12659 1.39121 0
M  V30 950 C 87.6931 6.0873 0.641462 0
M  V30 951 N 86.8301 6.8409 1.58004 0
M  V30 952 H 91.6701 2.92118 -0.589144 0
M  V30 953 H 89.2071 1.43959 -0.302342 0
M  V30 954 H 91.1651 3.79569 1.73156 0
M  V30 955 H 89.7951 2.65872 1.83062 0
M  V30 956 H 88.8471 3.79152 -0.307826 0
M  V30 957 H 90.1591 4.98458 -0.184565 0
M  V30 958 H 89.3131 5.70747 2.05749 0
M  V30 959 H 88.0521 4.44316 2.01084 0
M  V30 960 H 87.0571 5.49786 -0.0385419 0
M  V30 961 H 88.2821 6.79095 0.0270945 0
M  V30 962 H 86.2281 6.18449 2.18761 0
M  V30 963 H 86.1451 7.48709 1.04738 0
M  V30 964 H 87.4131 7.4673 2.23639 0
M  V30 965 N 91.6422 0.330177 1.54103 0
M  V30 966 C 93.0532 -0.15652 1.86043 0
M  V30 967 C 93.4042 -1.51086 1.2517 0
M  V30 968 O 92.5292 -2.09023 0.560217 0
M  V30 969 C 93.1242 -0.290784 3.3755 0
M  V30 970 C 91.6832 -0.721705 3.69416 0
M  V30 971 C 90.8302 0.152622 2.7688 0
M  V30 972 H 93.7812 0.550237 1.48856 0
M  V30 973 H 93.8022 -1.12058 3.63625 0
M  V30 974 H 93.3142 0.695068 3.81825 0
M  V30 975 H 91.4152 -1.71706 3.30678 0
M  V30 976 H 91.5282 -0.520869 4.7626 0
M  V30 977 H 89.8922 -0.372894 2.51956 0
M  V30 978 H 90.6752 1.13536 3.23982 0
M  V30 979 N 93.1203 -1.57491 0.0584922 0
M  V30 980 C 94.5313 -1.80526 -0.476138 0
M  V30 981 C 94.8823 -0.971334 -1.70469 0
M  V30 982 O 94.0073 -0.190012 -2.15564 0
M  V30 983 C 94.6023 -3.27424 -0.870587 0
M  V30 984 C 93.1613 -3.51351 -1.35015 0
M  V30 985 C 92.3083 -2.75343 -0.32887 0
M  V30 986 H 95.2593 -1.56133 0.284312 0
M  V30 987 H 95.2803 -3.38745 -1.73299 0
M  V30 988 H 94.7923 -3.88093 0.0237627 0
M  V30 989 H 92.8933 -2.95971 -2.26345 0
M  V30 990 H 93.0063 -4.60059 -1.33726 0
M  V30 991 H 91.3703 -2.417 -0.803321 0
M  V30 992 H 92.1533 -3.38743 0.557521 0
M  V30 993 N 94.5984 0.214957 -1.56127 0
M  V30 994 C 96.0094 0.781386 -1.69562 0
M  V30 995 C 96.3604 1.84707 -0.66165 0
M  V30 996 O 95.4854 2.156 0.185927 0
M  V30 997 C 96.0804 1.42411 -3.07416 0
M  V30 998 C 94.6394 1.93786 -3.22683 0
M  V30 999 C 93.7864 0.800438 -2.65496 0
M  V30 1000 H 96.7374 -0.00980633 -1.58697 0
M  V30 1001 H 96.7584 2.29309 -3.0364 0
M  V30 1002 H 96.2704 0.64826 -3.82648 0
M  V30 1003 H 94.3714 2.74152 -2.52332 0
M  V30 1004 H 94.4844 2.1133 -4.29973 0
M  V30 1005 H 92.8484 1.2095 -2.2415 0
M  V30 1006 H 93.6314 0.0371471 -3.4328 0
M  V30 1007 N 96.0765 1.50051 0.48192 0
M  V30 1008 C 97.3225 1.61706 1.2338 0
M  V30 1009 C 97.6775 0.308488 1.89911 0
M  V30 1010 O 96.9705 -0.692798 1.78636 0
M  V30 1011 C 97.1645 2.72717 2.30998 0
M  V30 1012 C 96.9935 4.14242 1.75024 0
M  V30 1013 C 95.7635 4.80786 1.55476 0
M  V30 1014 C 97.9615 4.98846 1.25128 0
M  V30 1015 N 95.9435 6.06563 0.946311 0
M  V30 1016 C 97.3145 6.15258 0.765382 0
M  V30 1017 C 99.3695 4.84702 1.13881 0
M  V30 1018 C 98.0725 7.19079 0.178113 0
M  V30 1019 C 100.098 5.8869 0.565486 0
M  V30 1020 C 99.4605 7.04343 0.0899105 0
M  V30 1021 H 95.5595 0.645958 0.440753 0
M  V30 1022 H 98.1435 1.8713 0.537624 0
M  V30 1023 H 96.3145 2.49033 2.98055 0
M  V30 1024 H 98.0465 2.73789 2.9803 0
M  V30 1025 H 94.8015 4.37899 1.80392 0
M  V30 1026 H 95.2255 6.73767 0.660812 0
M  V30 1027 H 99.8675 3.95583 1.49244 0
M  V30 1028 H 97.5855 8.07882 -0.187749 0
M  V30 1029 H 101.171 5.79808 0.480974 0
M  V30 1030 H 100.051 7.83433 -0.346782 0
M  V30 1031 N 97.5546 -0.734337 1.39446 0
M  V30 1032 C 98.5026 -1.86971 1.38364 0
M  V30 1033 C 99.4966 -1.67288 0.266687 0
M  V30 1034 O 100.703 -1.74621 0.436755 0
M  V30 1035 H 97.0776 -0.615474 0.432082 0
M  V30 1036 H 99.0486 -1.85 2.34132 0
M  V30 1037 C 97.7976 -3.2466 1.24465 0
M  V30 1038 H 97.1206 -3.40402 2.09682 0
M  V30 1039 H 98.5606 -4.04292 1.27764 0
M  V30 1040 C 97.0196 -3.36867 -0.0468674 0
M  V30 1041 O 97.5496 -3.88618 -1.01681 0
M  V30 1042 N 95.7556 -2.90391 -0.110145 0
M  V30 1043 H 95.3026 -2.48466 0.679868 0
M  V30 1044 H 95.2606 -2.98939 -0.973799 0
M  V30 1045 N 99.0327 -1.24633 -0.964593 0
M  V30 1046 C 100.31 -0.995809 -1.68354 0
M  V30 1047 C 100.69 0.480964 -2.05548 0
M  V30 1048 O 100.038 1.45599 -1.76105 0
M  V30 1049 C 100.248 -1.92177 -2.91323 0
M  V30 1050 C 101.596 -2.19446 -3.63495 0
M  V30 1051 O 102.62 -1.89855 -3.01386 0
M  V30 1052 O 101.479 -2.69714 -4.75307 0
M  V30 1053 H 98.5727 -0.376854 -0.736146 0
M  V30 1054 H 101.119 -1.35745 -1.0184 0
M  V30 1055 H 99.8907 -2.91938 -2.60553 0
M  V30 1056 H 99.5137 -1.56349 -3.65569 0
M  V30 1057 N 100.511 1.16574 -1.06058 0
M  V30 1058 C 101.757 1.87324 -0.777022 0
M  V30 1059 C 102.09 1.81351 0.694645 0
M  V30 1060 O 101.365 1.22753 1.50871 0
M  V30 1061 C 101.648 3.36991 -1.26922 0
M  V30 1062 C 101.501 3.51667 -2.80447 0
M  V30 1063 C 102.82 4.3131 -0.87521 0
M  V30 1064 H 99.9388 0.680191 -0.28374 0
M  V30 1065 H 102.581 1.37036 -1.3161 0
M  V30 1066 H 100.731 3.79949 -0.81063 0
M  V30 1067 H 102.403 3.17664 -3.34495 0
M  V30 1068 H 100.646 2.93656 -3.19294 0
M  V30 1069 H 101.317 4.56766 -3.0995 0
M  V30 1070 H 103.793 3.9624 -1.27014 0
M  V30 1071 H 102.669 5.34545 -1.2471 0
M  V30 1072 H 102.93 4.41552 0.220071 0
M  V30 1073 N 101.989 0.842826 1.3317 0
M  V30 1074 C 103.266 0.362216 1.92217 0
M  V30 1075 C 103.646 -1.15289 1.76838 0
M  V30 1076 O 102.994 -1.96914 1.15919 0
M  V30 1077 C 103.204 0.813495 3.39387 0
M  V30 1078 C 104.552 0.823804 4.16532 0
M  V30 1079 O 105.576 0.757358 3.48055 0
M  V30 1080 O 104.435 0.915193 5.38782 0
M  V30 1081 H 101.529 0.103317 0.820521 0
M  V30 1082 H 104.075 0.928942 1.42017 0
M  V30 1083 H 102.847 1.85624 3.4447 0
M  V30 1084 H 102.47 0.223561 3.96971 0
M  V30 1085 N 103.467 -1.45747 0.599634 0
M  V30 1086 C 104.878 -1.85853 0.177681 0
M  V30 1087 C 105.229 -1.50102 -1.26348 0
M  V30 1088 O 104.354 -0.923905 -1.95686 0
M  V30 1089 C 104.949 -3.37326 0.315688 0
M  V30 1090 C 103.508 -3.76365 -0.0515144 0
M  V30 1091 C 102.655 -2.69722 0.643822 0
M  V30 1092 H 105.606 -1.36661 0.806814 0
M  V30 1093 H 105.627 -3.77778 -0.454321 0
M  V30 1094 H 105.139 -3.63315 1.36468 0
M  V30 1095 H 103.24 -3.55993 -1.09999 0
M  V30 1096 H 103.353 -4.77916 0.336594 0
M  V30 1097 H 101.717 -2.54567 0.0822881 0
M  V30 1098 H 102.5 -2.98549 1.6948 0
M  V30 1099 N 104.945 -0.338344 -1.53925 0
M  V30 1100 C 106.356 0.146651 -1.86123 0
M  V30 1101 C 106.707 1.5042 -1.2597 0
M  V30 1102 O 105.832 2.08723 -0.571294 0
M  V30 1103 C 106.427 0.272879 -3.37699 0
M  V30 1104 C 104.986 0.702103 -3.69794 0
M  V30 1105 C 104.133 -0.167304 -2.76795 0
M  V30 1106 H 107.084 -0.558123 -1.48562 0
M  V30 1107 H 107.105 1.10128 -3.64214 0
M  V30 1108 H 106.617 -0.715307 -3.81451 0
M  V30 1109 H 104.718 1.6995 -3.31584 0
M  V30 1110 H 104.831 0.495604 -4.7653 0
M  V30 1111 H 103.195 0.359527 -2.5215 0
M  V30 1112 H 103.978 -1.15253 -3.23375 0
M  V30 1113 N 106.423 1.57458 -0.0668435 0
M  V30 1114 C 107.37 2.12439 0.902122 0
M  V30 1115 C 108.34 1.03565 1.2986 0
M  V30 1116 O 109.525 1.312 1.38532 0
M  V30 1117 C 106.665 2.6865 2.16614 0
M  V30 1118 C 105.778 3.91663 1.82274 0
M  V30 1119 C 104.913 4.36134 3.0325 0
M  V30 1120 C 103.952 5.51808 2.64904 0
M  V30 1121 N 103.089 5.9126 3.78624 0
M  V30 1122 H 107.929 2.94934 0.426382 0
M  V30 1123 H 105.466 1.4575 0.198819 0
M  V30 1124 H 107.424 2.99346 2.90599 0
M  V30 1125 H 106.054 1.88928 2.61737 0
M  V30 1126 H 105.106 3.6746 0.983719 0
M  V30 1127 H 106.418 4.75693 1.50059 0
M  V30 1128 H 105.572 4.68465 3.85519 0
M  V30 1129 H 104.311 3.50948 3.38655 0
M  V30 1130 H 103.316 5.19133 1.81055 0
M  V30 1131 H 104.541 6.38722 2.30675 0
M  V30 1132 H 102.487 5.09024 4.138 0
M  V30 1133 H 102.404 6.70018 3.5016 0
M  V30 1134 H 103.672 6.28212 4.61486 0
M  V30 1135 N 107.901 -0.206675 1.56239 0
M  V30 1136 C 109.178 -0.954051 1.70755 0
M  V30 1137 C 109.558 -2.01841 0.618353 0
M  V30 1138 O 108.906 -2.25444 -0.372434 0
M  V30 1139 C 109.116 -1.551 3.12642 0
M  V30 1140 C 110.464 -2.03757 3.72516 0
M  V30 1141 O 111.488 -1.64965 3.15698 0
M  V30 1142 O 110.347 -2.75103 4.72208 0
M  V30 1143 H 107.441 -0.446636 0.696021 0
M  V30 1144 H 109.987 -0.197283 1.68549 0
M  V30 1145 H 108.759 -0.783212 3.83382 0
M  V30 1146 H 108.382 -2.37291 3.19028 0
M  V30 1147 N 109.379 -1.50304 -0.473955 0
M  V30 1148 C 110.607 -1.64902 -1.24959 0
M  V30 1149 C 111.022 -0.331198 -1.85872 0
M  V30 1150 O 110.379 0.68652 -1.69095 0
M  V30 1151 C 110.43 -2.73803 -2.36038 0
M  V30 1152 O 110.151 -4.00477 -1.77624 0
M  V30 1153 C 111.652 -2.99349 -3.26964 0
M  V30 1154 H 108.872 -0.554383 -0.378022 0
M  V30 1155 H 111.416 -1.9651 -0.566054 0
M  V30 1156 H 109.571 -2.44898 -3.00173 0
M  V30 1157 H 109.985 -4.60678 -2.5075 0
M  V30 1158 H 111.459 -3.79217 -4.01121 0
M  V30 1159 H 111.936 -2.10307 -3.85574 0
M  V30 1160 H 112.542 -3.29774 -2.68569 0
M  V30 1161 N 110.857 0.726932 -1.39834 0
M  V30 1162 C 112.106 1.48214 -1.36805 0
M  V30 1163 C 112.419 1.95576 0.0305291 0
M  V30 1164 O 113.625 2.7088 0.183417 0
M  V30 1165 C 112.081 2.67854 -2.40379 0
M  V30 1166 C 111.689 2.27408 -3.85992 0
M  V30 1167 C 113.433 3.45641 -2.46439 0
M  V30 1168 C 111.34 3.43819 -4.81189 0
M  V30 1169 H 110.27 0.556606 -0.508631 0
M  V30 1170 H 112.921 0.792216 -1.65518 0
M  V30 1171 H 111.303 3.3896 -2.04749 0
M  V30 1172 H 112.477 1.63795 -4.30706 0
M  V30 1173 H 110.792 1.62692 -3.83302 0
M  V30 1174 H 113.389 4.32244 -3.14753 0
M  V30 1175 H 113.732 3.88669 -1.49139 0
M  V30 1176 H 114.265 2.8157 -2.81004 0
M  V30 1177 H 111.004 3.05834 -5.79781 0
M  V30 1178 H 110.524 4.06385 -4.41148 0
M  V30 1179 H 112.203 4.10043 -5.00474 0
M  V30 1180 N 112.336 1.25143 0.95797 0
M  V30 1181 C 113.582 1.09855 1.70469 0
M  V30 1182 C 113.915 -0.360187 1.90831 0
M  V30 1183 O 113.19 -1.26568 1.47685 0
M  V30 1184 C 113.473 1.8497 3.08963 0
M  V30 1185 C 113.326 3.38652 2.96032 0
M  V30 1186 C 114.645 1.63016 4.08795 0
M  V30 1187 H 111.764 0.400465 0.618706 0
M  V30 1188 H 114.406 1.53933 1.11376 0
M  V30 1189 H 112.556 1.47505 3.59409 0
M  V30 1190 H 114.228 3.85772 2.52938 0
M  V30 1191 H 112.471 3.66534 2.32025 0
M  V30 1192 H 113.142 3.8642 3.94187 0
M  V30 1193 H 115.618 1.95625 3.67247 0
M  V30 1194 H 114.494 2.18015 5.03747 0
M  V30 1195 H 114.755 0.570692 4.38401 0
M  V30 1196 N 113.814 -1.1601 1.06675 0
M  V30 1197 C 114.761 -2.20525 0.680967 0
M  V30 1198 C 115.731 -1.62904 -0.324283 0
M  V30 1199 O 116.916 -1.89615 -0.212294 0
M  V30 1200 C 114.056 -3.45013 0.0776551 0
M  V30 1201 C 113.169 -4.16863 1.13355 0
M  V30 1202 C 112.304 -5.2888 0.49597 0
M  V30 1203 C 111.343 -5.92537 1.53513 0
M  V30 1204 N 110.48 -6.96038 0.920631 0
M  V30 1205 H 115.32 -2.52876 1.57663 0
M  V30 1206 H 112.857 -1.24199 0.788223 0
M  V30 1207 H 114.815 -4.16193 -0.289704 0
M  V30 1208 H 113.445 -3.132 -0.781393 0
M  V30 1209 H 112.497 -3.44248 1.61857 0
M  V30 1210 H 113.809 -4.60294 1.92174 0
M  V30 1211 H 112.963 -6.06653 0.0758604 0
M  V30 1212 H 111.702 -4.86622 -0.324062 0
M  V30 1213 H 110.707 -5.13482 1.9651 0
M  V30 1214 H 111.932 -6.36873 2.35733 0
M  V30 1215 H 109.878 -6.55888 0.12138 0
M  V30 1216 H 109.795 -7.3786 1.64616 0
M  V30 1217 H 111.063 -7.77725 0.525795 0
M  V30 1218 N 115.292 -0.849877 -1.32721 0
M  V30 1219 C 116.24 -0.279745 -2.30912 0
M  V30 1220 C 117.234 0.594278 -1.58634 0
M  V30 1221 O 118.44 0.482613 -1.73409 0
M  V30 1222 H 114.815 -0.0717521 -0.748569 0
M  V30 1223 H 116.786 -1.12222 -2.76494 0
M  V30 1224 C 115.535 0.521108 -3.43773 0
M  V30 1225 H 114.858 -0.142141 -3.99547 0
M  V30 1226 H 116.298 0.885693 -4.14646 0
M  V30 1227 C 114.757 1.70442 -2.90605 0
M  V30 1228 O 115.287 2.8034 -2.87702 0
M  V30 1229 N 113.493 1.52991 -2.47067 0
M  V30 1230 H 113.04 0.635914 -2.49628 0
M  V30 1231 H 112.998 2.32311 -2.11847 0
M  V30 1232 N 116.77 1.45427 -0.607355 0
M  V30 1233 C 118.019 2.01452 -0.100036 0
M  V30 1234 C 118.332 1.48159 1.27704 0
M  V30 1235 O 119.538 1.96159 1.87707 0
M  V30 1236 C 117.994 3.59672 -0.128158 0
M  V30 1237 C 117.602 4.21962 -1.50507 0
M  V30 1238 C 119.346 4.23262 0.323932 0
M  V30 1239 C 117.253 5.72333 -1.48959 0
M  V30 1240 H 116.183 0.75325 -0.0336299 0
M  V30 1241 H 118.834 1.66901 -0.76265 0
M  V30 1242 H 117.216 3.91411 0.601105 0
M  V30 1243 H 118.39 4.01796 -2.25602 0
M  V30 1244 H 116.705 3.70565 -1.89923 0
M  V30 1245 H 119.302 5.33522 0.354691 0
M  V30 1246 H 119.645 3.93921 1.34656 0
M  V30 1247 H 120.178 3.96239 -0.352056 0
M  V30 1248 H 116.917 6.06373 -2.48981 0
M  V30 1249 H 116.437 5.94691 -0.781214 0
M  V30 1250 H 118.116 6.35525 -1.21313 0
M  V30 1251 N 118.248 0.346503 1.53744 0
M  V30 1252 C 119.476 -0.25041 2.05379 0
M  V30 1253 C 119.891 -1.43979 1.22129 0
M  V30 1254 O 119.248 -1.80677 0.257321 0
M  V30 1255 C 119.299 -0.662575 3.55376 0
M  V30 1256 O 119.02 0.479515 4.35468 0
M  V30 1257 C 120.521 -1.31989 4.23195 0
M  V30 1258 H 117.741 -0.0478198 0.669294 0
M  V30 1259 H 120.285 0.499346 1.9831 0
M  V30 1260 H 118.44 -1.36227 3.62658 0
M  V30 1261 H 118.854 0.15037 5.24284 0
M  V30 1262 H 120.328 -1.55902 5.29527 0
M  V30 1263 H 120.805 -2.27436 3.75725 0
M  V30 1264 H 121.411 -0.662154 4.20114 0
M  V30 1265 N 119.726 -1.57421 0.075193 0
M  V30 1266 C 120.656 -2.15942 -0.888324 0
M  V30 1267 C 121.637 -1.08737 -1.30806 0
M  V30 1268 O 122.822 -1.36787 -1.37851 0
M  V30 1269 C 119.952 -2.72379 -2.1547 0
M  V30 1270 C 118.906 -3.8478 -1.87425 0
M  V30 1271 C 118.232 -4.27834 -3.20721 0
M  V30 1272 C 119.532 -5.08869 -1.17684 0
M  V30 1273 H 121.226 -2.96705 -0.400799 0
M  V30 1274 H 118.772 -1.42723 -0.191342 0
M  V30 1275 H 120.725 -3.11965 -2.83295 0
M  V30 1276 H 119.449 -1.88841 -2.6647 0
M  V30 1277 H 118.108 -3.45703 -1.22004 0
M  V30 1278 H 117.756 -3.41214 -3.6957 0
M  V30 1279 H 117.456 -5.03605 -3.02746 0
M  V30 1280 H 118.98 -4.70039 -3.89738 0
M  V30 1281 H 120.394 -5.4575 -1.75584 0
M  V30 1282 H 118.791 -5.8994 -1.09956 0
M  V30 1283 H 119.861 -4.84648 -0.156453 0
M  V30 1284 N 121.204 0.198386 -1.56346 0
M  V30 1285 C 122.152 1.26538 -1.95169 0
M  V30 1286 C 123.146 1.47295 -0.836685 0
M  V30 1287 O 124.352 1.48195 -1.02167 0
M  V30 1288 H 120.727 0.424744 -0.620561 0
M  V30 1289 H 122.698 0.910904 -2.84157 0
M  V30 1290 C 121.447 2.6035 -2.30463 0
M  V30 1291 H 120.77 2.45192 -3.15786 0
M  V30 1292 H 122.21 3.33762 -2.61494 0
M  V30 1293 C 120.669 3.17096 -1.13806 0
M  V30 1294 O 121.199 3.99588 -0.41135 0
M  V30 1295 N 119.405 2.75795 -0.915736 0
M  V30 1296 H 118.952 2.08816 -1.50843 0
M  V30 1297 H 118.91 3.14101 -0.136979 0
M  V30 1298 N 122.682 1.50554 0.465978 0
M  V30 1299 C 123.929 1.61798 1.21768 0
M  V30 1300 C 124.257 0.320696 1.91838 0
M  V30 1301 O 123.512 -0.693724 1.82992 0
M  V30 1302 C 123.811 2.75152 2.28093 0
M  V30 1303 C 123.477 4.15454 1.75239 0
M  V30 1304 C 122.139 4.53628 1.60546 0
M  V30 1305 C 124.491 5.03121 1.36083 0
M  V30 1306 C 121.819 5.77204 1.05128 0
M  V30 1307 C 124.171 6.27249 0.821056 0
M  V30 1308 C 122.835 6.64221 0.660795 0
M  V30 1309 H 122.105 0.592063 0.445582 0
M  V30 1310 H 124.752 1.84503 0.512927 0
M  V30 1311 H 123.057 2.46556 3.04496 0
M  V30 1312 H 124.754 2.81055 2.86023 0
M  V30 1313 H 121.344 3.85341 1.87644 0
M  V30 1314 H 125.528 4.74257 1.46267 0
M  V30 1315 H 120.784 6.0452 0.91462 0
M  V30 1316 H 124.958 6.94537 0.509018 0
M  V30 1317 H 122.585 7.59854 0.229226 0
M  V30 1318 N 124.16 -0.719506 1.40217 0
M  V30 1319 C 125.408 -1.47641 1.3801 0
M  V30 1320 C 125.729 -1.94992 -0.018145 0
M  V30 1321 O 124.999 -1.70073 -0.972207 0
M  V30 1322 H 123.579 -0.547744 0.507923 0
M  V30 1323 H 126.241 -0.853187 1.75233 0
M  V30 1324 H 125.337 -2.35112 2.05253 0
M  V30 1325 N 125.638 -1.25649 -0.95132 0
M  V30 1326 C 127.049 -1.09654 -1.51106 0
M  V30 1327 C 127.4 0.326615 -1.93462 0
M  V30 1328 O 126.525 1.21697 -1.78938 0
M  V30 1329 C 127.12 -1.98437 -2.74605 0
M  V30 1330 C 125.679 -1.86618 -3.2688 0
M  V30 1331 C 124.826 -1.9239 -1.99703 0
M  V30 1332 H 127.777 -1.38887 -0.767865 0
M  V30 1333 H 127.798 -1.5263 -3.48546 0
M  V30 1334 H 127.31 -3.02009 -2.43746 0
M  V30 1335 H 125.411 -0.859421 -3.62553 0
M  V30 1336 H 125.524 -2.71607 -3.94673 0
M  V30 1337 H 123.888 -1.36317 -2.15151 0
M  V30 1338 H 124.671 -2.97573 -1.71188 0
M  V30 1339 N 127.117 1.15442 -1.07289 0
M  V30 1340 C 128.049 2.19773 -0.650585 0
M  V30 1341 C 129.062 1.60076 0.296572 0
M  V30 1342 O 130.251 1.78293 0.0859905 0
M  V30 1343 C 127.351 3.38838 0.0650398 0
M  V30 1344 C 126.524 4.2808 -0.898141 0
M  V30 1345 C 125.583 5.2574 -0.219926 0
M  V30 1346 O 124.609 5.62654 -0.860773 0
M  V30 1347 N 125.811 5.71205 1.03466 0
M  V30 1348 H 128.576 2.56622 -1.54808 0
M  V30 1349 H 126.137 1.30551 -0.957494 0
M  V30 1350 H 128.129 4.01222 0.529415 0
M  V30 1351 H 126.699 3.00409 0.864466 0
M  V30 1352 H 125.919 3.62804 -1.54165 0
M  V30 1353 H 127.207 4.84577 -1.5512 0
M  V30 1354 H 126.605 5.43325 1.57526 0
M  V30 1355 H 125.162 6.35633 1.44272 0
M  V30 1356 N 128.595 0.856903 1.32268 0
M  V30 1357 C 129.545 0.274899 2.26337 0
M  V30 1358 C 130.529 -0.580543 1.50062 0
M  V30 1359 O 131.721 -0.429559 1.71708 0
M  V30 1360 C 128.85 -0.533841 3.39124 0
M  V30 1361 C 127.936 0.334114 4.22782 0
M  V30 1362 N 128.327 1.42143 4.85416 0
M  V30 1363 C 126.625 0.124256 4.45827 0
M  V30 1364 C 127.326 1.95559 5.47843 0
M  V30 1365 N 126.302 1.25444 5.28928 0
M  V30 1366 H 130.104 1.10612 2.72291 0
M  V30 1367 H 127.618 0.703258 1.46383 0
M  V30 1368 H 129.615 -0.96722 4.05525 0
M  V30 1369 H 128.275 -1.36283 2.94715 0
M  V30 1370 H 129.286 1.80436 4.85451 0
M  V30 1371 H 125.963 -0.669837 4.12092 0
M  V30 1372 H 127.353 2.86714 6.07655 0
M  V30 1373 N 130.073 -1.45103 0.615059 0
M  V30 1374 C 131.484 -1.85654 0.197383 0
M  V30 1375 C 131.835 -1.51433 -1.24749 0
M  V30 1376 O 130.96 -0.944608 -1.94695 0
M  V30 1377 C 131.555 -3.36972 0.351448 0
M  V30 1378 C 130.114 -3.76398 -0.011593 0
M  V30 1379 C 129.261 -2.69024 0.672394 0
M  V30 1380 H 132.212 -1.35797 0.821263 0
M  V30 1381 H 132.233 -3.78239 -0.414227 0
M  V30 1382 H 131.745 -3.61847 1.40314 0
M  V30 1383 H 129.846 -3.5714 -1.06217 0
M  V30 1384 H 129.959 -4.77532 0.387265 0
M  V30 1385 H 128.323 -2.54465 0.109284 0
M  V30 1386 H 129.106 -2.96735 1.72636 0
M  V30 1387 N 131.551 -0.354651 -1.53558 0
M  V30 1388 C 132.514 0.484566 -2.24019 0
M  V30 1389 C 133.514 1.01861 -1.24422 0
M  V30 1390 O 134.704 0.906097 -1.4878 0
M  V30 1391 C 131.836 1.67615 -2.96847 0
M  V30 1392 H 133.029 -0.131843 -2.9961 0
M  V30 1393 H 130.582 -0.106165 -1.55939 0
M  V30 1394 H 131.317 2.33095 -2.25471 0
M  V30 1395 H 131.102 1.30029 -3.69912 0
M  V30 1396 H 132.592 2.27114 -3.50441 0
M  V30 1397 N 133.029 1.57378 -0.0835403 0
M  V30 1398 C 133.992 2.12252 0.864959 0
M  V30 1399 C 134.992 1.04916 1.21858 0
M  V30 1400 O 136.182 1.30853 1.14991 0
M  V30 1401 C 133.314 2.63358 2.16461 0
M  V30 1402 H 134.507 2.97371 0.388676 0
M  V30 1403 H 132.06 1.55423 0.165317 0
M  V30 1404 H 132.795 1.81727 2.686 0
M  V30 1405 H 132.58 3.41826 1.92087 0
M  V30 1406 H 134.07 3.05847 2.84337 0
M  V30 1407 N 134.507 -0.190092 1.56449 0
M  V30 1408 C 135.457 -1.23977 1.91347 0
M  V30 1409 C 136.441 -1.40747 0.779693 0
M  V30 1410 O 137.633 -1.43033 1.04262 0
M  V30 1411 C 134.762 -2.58347 2.26079 0
M  V30 1412 C 133.848 -2.4535 3.45925 0
M  V30 1413 N 134.239 -2.02039 4.63696 0
M  V30 1414 C 132.537 -2.76229 3.50162 0
M  V30 1415 C 133.238 -2.01053 5.4585 0
M  V30 1416 N 132.214 -2.42747 4.8639 0
M  V30 1417 H 136.016 -0.896318 2.79899 0
M  V30 1418 H 133.53 -0.398496 1.57435 0
M  V30 1419 H 135.527 -3.34173 2.49267 0
M  V30 1420 H 134.187 -2.93512 1.38856 0
M  V30 1421 H 135.198 -1.7267 4.88268 0
M  V30 1422 H 131.875 -3.15556 2.73369 0
M  V30 1423 H 133.265 -1.69426 6.50188 0
M  V30 1424 N 135.985 -1.50799 -0.457987 0
M  V30 1425 C 137.233 -1.62121 -1.2067 0
M  V30 1426 C 137.554 -0.329793 -1.92191 0
M  V30 1427 O 136.824 0.653409 -1.84682 0
M  V30 1428 H 135.404 -0.597441 -0.448411 0
M  V30 1429 H 138.066 -1.87637 -0.527096 0
M  V30 1430 H 137.162 -2.43882 -1.94751 0
M  V30 1431 N 137.463 0.71206 -1.40597 0
M  V30 1432 C 138.709 1.47416 -1.39271 0
M  V30 1433 C 139.042 1.942 0.00388791 0
M  V30 1434 O 138.317 1.68403 0.973179 0
M  V30 1435 C 138.6 2.69774 -2.38525 0
M  V30 1436 C 138.453 2.28861 -3.87224 0
M  V30 1437 C 139.772 3.71939 -2.35264 0
M  V30 1438 H 136.891 0.534713 -0.5072 0
M  V30 1439 H 139.533 0.812375 -1.71757 0
M  V30 1440 H 137.683 3.26238 -2.10953 0
M  V30 1441 H 139.355 1.77852 -4.25636 0
M  V30 1442 H 137.598 1.60824 -4.02887 0
M  V30 1443 H 138.269 3.16584 -4.52193 0
M  V30 1444 H 140.745 3.25113 -2.59694 0
M  V30 1445 H 139.621 4.55186 -3.06753 0
M  V30 1446 H 139.882 4.20484 -1.36549 0
M  V30 1447 N 138.941 1.26152 0.944643 0
M  V30 1448 C 139.871 1.09902 2.06019 0
M  V30 1449 C 140.852 0.00519538 1.70099 0
M  V30 1450 O 142.037 0.176583 1.93396 0
M  V30 1451 C 139.167 0.727562 3.39594 0
M  V30 1452 C 138.121 1.77274 3.89561 0
M  V30 1453 C 137.447 1.25569 5.19747 0
M  V30 1454 C 138.747 3.17357 4.14827 0
M  V30 1455 H 140.441 2.03217 2.19871 0
M  V30 1456 H 137.987 0.978452 1.05652 0
M  V30 1457 H 139.94 0.600777 4.17095 0
M  V30 1458 H 138.664 -0.241287 3.25707 0
M  V30 1459 H 137.323 1.88814 3.14237 0
M  V30 1460 H 136.971 0.276783 5.02238 0
M  V30 1461 H 136.671 1.95433 5.54148 0
M  V30 1462 H 138.195 1.1415 5.99835 0
M  V30 1463 H 139.609 3.08914 4.82954 0
M  V30 1464 H 138.006 3.84781 4.60504 0
M  V30 1465 H 139.076 3.63673 3.20734 0
M  V30 1466 N 140.419 -1.14872 1.07899 0
M  V30 1467 C 141.835 -1.37776 0.805606 0
M  V30 1468 C 142.035 -1.92743 -0.587555 0
M  V30 1469 O 141.091 -2.13678 -1.34528 0
M  V30 1470 C 142.404 -2.34361 1.88402 0
M  V30 1471 C 143.952 -2.48012 1.90942 0
M  V30 1472 C 144.427 -3.47893 2.97883 0
M  V30 1473 N 145.918 -3.55433 2.97021 0
M  V30 1474 C 146.653 -4.32553 3.76412 0
M  V30 1475 N 146.149 -5.12959 4.65666 0
M  V30 1476 N 147.942 -4.27697 3.64735 0
M  V30 1477 H 140.093 -0.775365 1.97742 0
M  V30 1478 H 142.356 -0.403521 0.857831 0
M  V30 1479 H 142.062 -2.01098 2.88535 0
M  V30 1480 H 141.936 -3.34206 1.74889 0
M  V30 1481 H 144.323 -2.8057 0.914579 0
M  V30 1482 H 144.404 -1.48147 2.08534 0
M  V30 1483 H 144.048 -3.16069 3.97571 0
M  V30 1484 H 143.978 -4.47527 2.77538 0
M  V30 1485 H 146.469 -2.98048 2.32326 0
M  V30 1486 H 146.782 -5.69065 5.22862 0
M  V30 1487 H 145.127 -5.12245 4.69712 0
M  V30 1488 H 148.318 -3.63949 2.94378 0
M  V30 1489 H 148.491 -4.8755 4.26848 0
M  V30 1490 N 141.898 -0.863906 -1.31812 0
M  V30 1491 C 142.828 -0.330843 -2.31144 0
M  V30 1492 C 143.809 0.575005 -1.60087 0
M  V30 1493 O 144.994 0.493304 -1.8783 0
M  V30 1494 C 142.124 0.47374 -3.44054 0
M  V30 1495 C 141.078 -0.338481 -4.26659 0
M  V30 1496 C 140.404 0.591412 -5.31419 0
M  V30 1497 C 141.704 -1.56926 -4.98168 0
M  V30 1498 H 143.398 -1.16086 -2.75979 0
M  V30 1499 H 140.944 -0.559657 -1.32679 0
M  V30 1500 H 142.897 0.857143 -4.12591 0
M  V30 1501 H 141.621 1.33721 -2.9797 0
M  V30 1502 H 140.28 -0.703754 -3.59782 0
M  V30 1503 H 139.928 1.45199 -4.81587 0
M  V30 1504 H 139.628 0.0519022 -5.87577 0
M  V30 1505 H 141.152 0.97179 -6.02817 0
M  V30 1506 H 142.566 -1.25764 -5.59336 0
M  V30 1507 H 140.963 -2.04739 -5.64094 0
M  V30 1508 H 142.033 -2.32544 -4.25501 0
M  V30 1509 N 143.376 1.44774 -0.622745 0
M  V30 1510 C 144.622 2.0242 -0.124083 0
M  V30 1511 C 144.955 1.4881 1.24777 0
M  V30 1512 O 144.23 0.668799 1.8264 0
M  V30 1513 C 144.513 3.59957 -0.101619 0
M  V30 1514 C 144.366 4.23867 -1.50521 0
M  V30 1515 C 145.685 4.36284 0.578272 0
M  V30 1516 H 142.804 0.735528 -0.0465645 0
M  V30 1517 H 145.446 1.72447 -0.797617 0
M  V30 1518 H 143.596 3.85623 0.471934 0
M  V30 1519 H 145.268 4.09336 -2.12701 0
M  V30 1520 H 143.511 3.81684 -2.06154 0
M  V30 1521 H 144.182 5.32843 -1.4416 0
M  V30 1522 H 146.658 4.16001 0.0906057 0
M  V30 1523 H 145.534 5.46004 0.563149 0
M  V30 1524 H 145.795 4.10271 1.64713 0
M  V30 1525 N 144.854 0.36279 1.53368 0
M  V30 1526 C 145.787 -0.528507 2.21996 0
M  V30 1527 C 146.765 -1.0852 1.21087 0
M  V30 1528 O 147.949 -1.14186 1.4998 0
M  V30 1529 C 145.076 -1.72893 2.91249 0
M  V30 1530 C 144.122 -1.29994 4.06207 0
M  V30 1531 S 144.955 -0.303575 5.34639 0
M  V30 1532 C 146.111 -1.51039 6.07403 0
M  V30 1533 H 146.344 0.0543423 2.9725 0
M  V30 1534 H 143.877 0.146889 1.537 0
M  V30 1535 H 145.835 -2.41751 3.31763 0
M  V30 1536 H 144.496 -2.28303 2.15724 0
M  V30 1537 H 143.689 -2.19549 4.53667 0
M  V30 1538 H 143.291 -0.690608 3.67569 0
M  V30 1539 H 145.583 -2.44186 6.31965 0
M  V30 1540 H 146.526 -1.07721 6.99858 0
M  V30 1541 H 146.934 -1.71518 5.37812 0
M  V30 1542 N 146.332 -1.57332 0.0918853 0
M  V30 1543 C 147.242 -2.17368 -0.882505 0
M  V30 1544 C 148.258 -1.14226 -1.31257 0
M  V30 1545 O 149.434 -1.46582 -1.38115 0
M  V30 1546 C 146.499 -2.73962 -2.12476 0
M  V30 1547 C 145.56 -3.92048 -1.7492 0
M  V30 1548 C 144.793 -4.45933 -2.93223 0
M  V30 1549 O 145.016 -3.98764 -4.07852 0
M  V30 1550 O 143.95 -5.36999 -2.71875 0
M  V30 1551 H 147.776 -3.01031 -0.40172 0
M  V30 1552 H 145.361 -1.48813 -0.132291 0
M  V30 1553 H 147.243 -3.10147 -2.85283 0
M  V30 1554 H 145.918 -1.93347 -2.59613 0
M  V30 1555 H 144.825 -3.6068 -0.993025 0
M  V30 1556 H 146.158 -4.74017 -1.32548 0
M  V30 1557 N 147.81 0.181792 -1.56548 0
M  V30 1558 C 148.74 1.22765 -1.98623 0
M  V30 1559 C 149.721 1.46747 -0.860189 0
M  V30 1560 O 150.906 1.58259 -1.12551 0
M  V30 1561 C 148.036 2.56894 -2.33715 0
M  V30 1562 C 146.99 2.475 -3.49182 0
M  V30 1563 C 146.316 3.86023 -3.69986 0
M  V30 1564 C 147.616 1.98866 -4.82959 0
M  V30 1565 H 149.31 0.877942 -2.86239 0
M  V30 1566 H 146.856 0.42088 -1.37712 0
M  V30 1567 H 148.809 3.30253 -2.61746 0
M  V30 1568 H 147.533 2.93632 -1.42997 0
M  V30 1569 H 146.192 1.76596 -3.21262 0
M  V30 1570 H 145.84 4.20136 -2.76576 0
M  V30 1571 H 145.54 3.80609 -4.47672 0
M  V30 1572 H 147.064 4.60984 -4.00407 0
M  V30 1573 H 148.478 2.61992 -5.09934 0
M  V30 1574 H 146.875 2.04424 -5.64208 0
M  V30 1575 H 147.945 0.942465 -4.75653 0
M  V30 1576 N 149.288 1.51039 0.449983 0
M  V30 1577 C 150.513 1.6715 1.22783 0
M  V30 1578 C 150.938 0.363081 1.84563 0
M  V30 1579 O 150.296 -0.675433 1.68249 0
M  V30 1580 C 150.344 2.77985 2.29689 0
M  V30 1581 O 149.448 2.40707 3.34864 0
M  V30 1582 H 148.789 0.557746 0.360299 0
M  V30 1583 H 151.319 1.97535 0.533005 0
M  V30 1584 H 151.329 3.01693 2.74673 0
M  V30 1585 H 150.004 3.72935 1.84098 0
M  V30 1586 H 148.581 2.27523 2.95445 0
M  V30 1587 N 150.766 -0.704594 1.40972 0
M  V30 1588 C 152.014 -1.46169 1.39568 0
M  V30 1589 C 152.335 -1.95 0.00253745 0
M  V30 1590 O 151.605 -1.71095 -0.954114 0
M  V30 1591 H 150.185 -0.542326 0.513704 0
M  V30 1592 H 152.847 -0.834553 1.76128 0
M  V30 1593 H 151.943 -2.32922 2.07735 0
M  V30 1594 N 152.244 -1.26651 -0.937939 0
M  V30 1595 C 153.154 -1.10276 -2.07066 0
M  V30 1596 C 154.17 -0.0354197 -1.73964 0
M  V30 1597 O 155.346 -0.239816 -1.99967 0
M  V30 1598 C 152.411 -0.740887 -3.38691 0
M  V30 1599 C 151.472 -1.88799 -3.85556 0
M  V30 1600 C 150.705 -1.54329 -5.10899 0
M  V30 1601 O 150.928 -0.446494 -5.6865 0
M  V30 1602 O 149.862 -2.37911 -5.52885 0
M  V30 1603 H 153.688 -2.05309 -2.23789 0
M  V30 1604 H 151.273 -1.05743 -1.0554 0
M  V30 1605 H 153.155 -0.55195 -4.1777 0
M  V30 1606 H 151.83 0.180022 -3.23199 0
M  V30 1607 H 150.737 -2.13191 -3.07409 0
M  V30 1608 H 152.07 -2.78874 -4.05574 0
M  V30 1609 N 153.722 1.14298 -1.08507 0
M  V30 1610 C 154.655 2.18447 -0.660004 0
M  V30 1611 C 155.633 1.59242 0.328749 0
M  V30 1612 O 156.817 1.87062 0.232367 0
M  V30 1613 C 153.944 3.38688 0.0290807 0
M  V30 1614 C 152.99 4.1646 -0.919982 0
M  V30 1615 S 153.823 4.77334 -2.42718 0
M  V30 1616 C 154.979 6.00931 -1.75024 0
M  V30 1617 H 155.212 2.54166 -1.54231 0
M  V30 1618 H 152.745 1.25446 -0.900149 0
M  V30 1619 H 154.703 4.08342 0.420378 0
M  V30 1620 H 153.364 3.01289 0.887895 0
M  V30 1621 H 152.557 5.02529 -0.384751 0
M  V30 1622 H 152.159 3.52414 -1.25223 0
M  V30 1623 H 154.451 6.69017 -1.06877 0
M  V30 1624 H 155.394 6.59044 -2.58971 0
M  V30 1625 H 155.802 5.51089 -1.22317 0
M  V30 1626 N 155.201 0.870884 1.31352 0
M  V30 1627 C 156.447 0.482987 1.96965 0
M  V30 1628 C 156.78 -0.962462 1.68672 0
M  V30 1629 O 156.055 -1.6779 0.98371 0
M  V30 1630 C 156.338 0.741752 3.52378 0
M  V30 1631 C 156.191 2.2368 3.9024 0
M  V30 1632 C 157.51 0.208838 4.39604 0
M  V30 1633 H 154.629 0.176955 0.715441 0
M  V30 1634 H 157.271 1.09229 1.55464 0
M  V30 1635 H 155.421 0.223149 3.87859 0
M  V30 1636 H 157.093 2.82273 3.64856 0
M  V30 1637 H 155.336 2.70901 3.38814 0
M  V30 1638 H 156.007 2.3685 4.98604 0
M  V30 1639 H 158.483 0.652529 4.10952 0
M  V30 1640 H 157.359 0.419336 5.47296 0
M  V30 1641 H 157.62 -0.889275 4.33064 0
M  V30 1642 N 156.679 -1.44442 0.630414 0
M  V30 1643 C 158.095 -1.56832 0.295973 0
M  V30 1644 C 158.295 -1.61806 -1.20088 0
M  V30 1645 O 157.351 -1.5607 -1.9849 0
M  V30 1646 C 158.664 -2.84031 0.987264 0
M  V30 1647 C 160.212 -2.97742 0.96534 0
M  V30 1648 C 160.687 -4.27743 1.63708 0
M  V30 1649 N 162.178 -4.34555 1.60364 0
M  V30 1650 C 162.913 -5.33862 2.09234 0
M  V30 1651 N 162.409 -6.39578 2.66292 0
M  V30 1652 N 164.202 -5.25366 1.99867 0
M  V30 1653 H 156.353 -1.39457 1.60205 0
M  V30 1654 H 158.616 -0.668237 0.672431 0
M  V30 1655 H 158.322 -2.86338 2.04215 0
M  V30 1656 H 158.196 -3.73534 0.524588 0
M  V30 1657 H 160.583 -2.94989 -0.0810639 0
M  V30 1658 H 160.664 -2.09589 1.4665 0
M  V30 1659 H 160.308 -4.31255 2.68293 0
M  V30 1660 H 160.238 -5.14752 1.11076 0
M  V30 1661 H 162.729 -3.58772 1.18705 0
M  V30 1662 H 163.042 -7.11637 3.01317 0
M  V30 1663 H 161.387 -6.40265 2.70343 0
M  V30 1664 H 164.578 -4.41688 1.55013 0
M  V30 1665 H 164.751 -6.02606 2.38265 0
M  V30 1666 N 158.157 -0.370918 -1.53173 0
M  V30 1667 C 159.104 0.473035 -2.259 0
M  V30 1668 C 160.074 1.07311 -1.26781 0
M  V30 1669 O 161.259 1.1046 -1.55574 0
M  V30 1670 C 158.399 1.60405 -3.05556 0
M  V30 1671 C 157.512 1.02863 -4.19575 0
M  V30 1672 C 156.647 2.12918 -4.86661 0
M  V30 1673 C 155.686 1.52869 -5.92704 0
M  V30 1674 N 154.823 2.56779 -6.53459 0
M  V30 1675 H 159.663 -0.153649 -2.97604 0
M  V30 1676 H 157.2 -0.0875946 -1.46839 0
M  V30 1677 H 159.158 2.27034 -3.50016 0
M  V30 1678 H 157.788 2.20131 -2.36097 0
M  V30 1679 H 156.84 0.252465 -3.79561 0
M  V30 1680 H 158.152 0.549642 -4.95762 0
M  V30 1681 H 157.306 2.87356 -5.34333 0
M  V30 1682 H 156.045 2.6417 -4.09958 0
M  V30 1683 H 155.05 0.769479 -5.44389 0
M  V30 1684 H 156.275 1.02435 -6.7133 0
M  V30 1685 H 154.221 3.07235 -5.79606 0
M  V30 1686 H 154.138 2.13583 -7.25202 0
M  V30 1687 H 155.406 3.30903 -7.05779 0
M  V30 1688 N 159.635 1.57281 -0.100228 0
M  V30 1689 C 160.875 1.96419 0.56558 0
M  V30 1690 C 161.239 0.981265 1.65031 0
M  V30 1691 O 162.44 1.26133 2.37369 0
M  V30 1692 C 160.711 3.39996 1.10171 0
M  V30 1693 S 162.27 4.01134 1.77867 0
M  V30 1694 H 159.088 0.68667 0.184406 0
M  V30 1695 H 161.69 1.94662 -0.180851 0
M  V30 1696 H 160.394 4.09296 0.300803 0
M  V30 1697 H 159.925 3.45361 1.88385 0
M  V30 1698 H 161.94 3.90358 3.06326 0
M  V30 1699 N 161.113 -0.173488 1.56642 0
M  V30 1700 C 162.39 -0.917617 1.7274 0
M  V30 1701 C 162.77 -2.00484 0.661027 0
M  V30 1702 O 162.118 -2.26184 -0.32453 0
M  V30 1703 C 162.328 -1.48433 3.15862 0
M  V30 1704 C 163.676 -1.95809 3.76754 0
M  V30 1705 O 164.7 -1.58231 3.19126 0
M  V30 1706 O 163.559 -2.65024 4.77938 0
M  V30 1707 H 160.653 -0.431772 0.705338 0
M  V30 1708 H 163.199 -0.161487 1.6893 0
M  V30 1709 H 161.971 -0.701715 3.84957 0
M  V30 1710 H 161.594 -2.30471 3.23989 0
M  V30 1711 N 162.591 -1.51276 -0.441967 0
M  V30 1712 C 164.002 -1.56244 -1.02199 0
M  V30 1713 C 164.353 -0.383149 -1.92422 0
M  V30 1714 O 163.478 0.500613 -2.1053 0
M  V30 1715 C 164.073 -2.83162 -1.86024 0
M  V30 1716 C 162.632 -2.90716 -2.39084 0
M  V30 1717 C 161.779 -2.50858 -1.18175 0
M  V30 1718 H 164.73 -1.5712 -0.223416 0
M  V30 1719 H 164.751 -2.66663 -2.71425 0
M  V30 1720 H 164.263 -3.68974 -1.20331 0
M  V30 1721 H 162.364 -2.09323 -3.08244 0
M  V30 1722 H 162.477 -3.94266 -2.72198 0
M  V30 1723 H 160.841 -2.03951 -1.52565 0
M  V30 1724 H 161.624 -3.3901 -0.541001 0
M  V30 1725 N 164.069 0.697108 -1.41344 0
M  V30 1726 C 165.019 1.80313 -1.39539 0
M  V30 1727 C 166.003 1.58618 -0.270001 0
M  V30 1728 O 167.195 1.69477 -0.510551 0
M  V30 1729 C 164.324 3.18606 -1.27848 0
M  V30 1730 C 163.41 3.46001 -2.45244 0
M  V30 1731 N 163.801 3.44103 -3.70711 0
M  V30 1732 C 162.099 3.76542 -2.39023 0
M  V30 1733 C 162.8 3.7036 -4.48563 0
M  V30 1734 N 161.776 3.90027 -3.78655 0
M  V30 1735 H 165.578 1.77207 -2.34468 0
M  V30 1736 H 163.092 0.897031 -1.35378 0
M  V30 1737 H 165.089 3.97833 -1.24637 0
M  V30 1738 H 163.749 3.22925 -0.339032 0
M  V30 1739 H 164.76 3.2452 -4.03618 0
M  V30 1740 H 161.437 3.88241 -1.53542 0
M  V30 1741 H 162.827 3.75042 -5.57488 0
M  V30 1742 N 165.547 1.27147 0.931209 0
M  V30 1743 C 166.796 1.12664 1.67302 0
M  V30 1744 C 167.109 -0.327718 1.92835 0
M  V30 1745 O 168.315 -0.593392 2.64936 0
M  V30 1746 C 166.771 1.9683 3.01307 0
M  V30 1747 C 166.379 3.46901 2.83485 0
M  V30 1748 C 168.123 1.90985 3.79111 0
M  V30 1749 C 166.03 4.23279 4.13024 0
M  V30 1750 H 164.96 0.41803 0.627509 0
M  V30 1751 H 167.611 1.51539 1.03481 0
M  V30 1752 H 165.993 1.50797 3.66164 0
M  V30 1753 H 167.167 4.00773 2.27415 0
M  V30 1754 H 165.482 3.54088 2.19113 0
M  V30 1755 H 168.079 2.45328 4.75098 0
M  V30 1756 H 168.422 0.882718 4.06834 0
M  V30 1757 H 168.955 2.34895 3.21044 0
M  V30 1758 H 165.694 5.26503 3.90481 0
M  V30 1759 H 165.214 3.74186 4.6877 0
M  V30 1760 H 166.893 4.32265 4.81411 0
M  V30 1761 N 167.025 -1.13721 1.09112 0
M  V30 1762 C 168.273 -1.84559 0.823562 0
M  V30 1763 C 168.594 -1.83754 -0.652658 0
M  V30 1764 O 167.864 -1.29102 -1.47342 0
M  V30 1765 H 166.444 -0.683376 0.301673 0
M  V30 1766 H 169.106 -1.37771 1.37859 0
M  V30 1767 H 168.202 -2.8917 1.17419 0
M  V30 1768 N 168.503 -0.877838 -1.30888 0
M  V30 1769 C 169.433 -0.35534 -2.3078 0
M  V30 1770 C 170.414 0.557994 -1.60687 0
M  V30 1771 O 171.599 0.473355 -1.88343 0
M  V30 1772 C 168.729 0.437221 -3.44537 0
M  V30 1773 C 167.683 -0.383715 -4.26276 0
M  V30 1774 C 167.009 0.535014 -5.32017 0
M  V30 1775 C 168.309 -1.62201 -4.96476 0
M  V30 1776 H 170.003 -1.19007 -2.74732 0
M  V30 1777 H 167.549 -0.573698 -1.32078 0
M  V30 1778 H 169.502 0.813334 -4.13477 0
M  V30 1779 H 168.226 1.30553 -2.99372 0
M  V30 1780 H 166.885 -0.741874 -3.59015 0
M  V30 1781 H 166.533 1.40083 -4.831 0
M  V30 1782 H 166.233 -0.0104211 -5.87599 0
M  V30 1783 H 167.757 0.907799 -6.03814 0
M  V30 1784 H 169.171 -1.31689 -5.5797 0
M  V30 1785 H 167.568 -2.10711 -5.61891 0
M  V30 1786 H 168.638 -2.37044 -4.23011 0
M  V30 1787 N 169.982 1.44106 -0.638065 0
M  V30 1788 C 170.912 2.33448 0.0494287 0
M  V30 1789 C 171.893 1.48606 0.827672 0
M  V30 1790 O 173.078 1.77308 0.792173 0
M  V30 1791 C 170.208 3.31771 1.02691 0
M  V30 1792 C 169.162 4.26485 0.359823 0
M  V30 1793 C 168.488 5.14729 1.44769 0
M  V30 1794 C 169.788 5.17056 -0.738296 0
M  V30 1795 H 171.482 2.91183 -0.696636 0
M  V30 1796 H 169.028 1.40014 -0.336456 0
M  V30 1797 H 170.981 3.93161 1.51666 0
M  V30 1798 H 169.705 2.7226 1.80395 0
M  V30 1799 H 168.364 3.66437 -0.10934 0
M  V30 1800 H 168.012 4.51566 2.21578 0
M  V30 1801 H 167.712 5.78913 1.00668 0
M  V30 1802 H 169.236 5.78991 1.93911 0
M  V30 1803 H 170.65 5.72342 -0.331354 0
M  V30 1804 H 169.047 5.89879 -1.10286 0
M  V30 1805 H 170.117 4.57652 -1.60258 0
M  V30 1806 N 171.46 0.379036 1.52974 0
M  V30 1807 C 172.41 -0.477772 2.22938 0
M  V30 1808 C 173.394 -1.03792 1.22948 0
M  V30 1809 O 174.586 -0.965725 1.48333 0
M  V30 1810 C 171.715 -1.60994 3.03209 0
M  V30 1811 C 170.801 -1.06203 4.10587 0
M  V30 1812 N 171.192 -0.238214 5.05239 0
M  V30 1813 C 169.49 -1.33554 4.25534 0
M  V30 1814 C 170.191 0.0633235 5.81666 0
M  V30 1815 N 169.167 -0.537901 5.40932 0
M  V30 1816 H 172.969 0.158295 2.93473 0
M  V30 1817 H 170.483 0.187778 1.61311 0
M  V30 1818 H 172.48 -2.23607 3.5186 0
M  V30 1819 H 171.14 -2.24893 2.34207 0
M  V30 1820 H 172.151 0.123695 5.17752 0
M  V30 1821 H 168.828 -1.97632 3.6776 0
M  V30 1822 H 170.218 0.730161 6.67921 0
M  V30 1823 N 172.938 -1.57226 0.108567 0
M  V30 1824 C 174.354 -1.5766 -0.248058 0
M  V30 1825 C 174.554 -1.12063 -1.67464 0
M  V30 1826 O 173.61 -0.803236 -2.39383 0
M  V30 1827 C 174.923 -3.0069 -0.0242287 0
M  V30 1828 C 176.471 -3.12868 -0.0909372 0
M  V30 1829 C 176.946 -4.57879 0.105067 0
M  V30 1830 N 178.437 -4.63172 0.0506846 0
M  V30 1831 C 179.172 -5.73126 0.177396 0
M  V30 1832 N 178.668 -6.91866 0.359696 0
M  V30 1833 N 180.461 -5.61977 0.117709 0
M  V30 1834 H 172.612 -1.85169 1.04049 0
M  V30 1835 H 174.875 -0.85529 0.40888 0
M  V30 1836 H 174.581 -3.38299 0.961604 0
M  V30 1837 H 174.455 -3.6945 -0.76068 0
M  V30 1838 H 176.842 -2.75124 -1.06729 0
M  V30 1839 H 176.923 -2.46672 0.677225 0
M  V30 1840 H 176.567 -4.96321 1.07834 0
M  V30 1841 H 176.497 -5.22153 -0.682954 0
M  V30 1842 H 178.988 -3.778 -0.0871266 0
M  V30 1843 H 179.301 -7.71503 0.447529 0
M  V30 1844 H 177.646 -6.93874 0.395536 0
M  V30 1845 H 180.837 -4.68094 -0.0236741 0
M  V30 1846 H 181.01 -6.47627 0.219905 0
M  V30 1847 N 174.416 0.165178 -1.56732 0
M  V30 1848 C 175.664 0.879068 -1.8198 0
M  V30 1849 C 175.985 1.82514 -0.686561 0
M  V30 1850 O 175.255 1.93694 0.293146 0
M  V30 1851 H 173.835 0.327608 -0.671329 0
M  V30 1852 H 176.497 0.163526 -1.94213 0
M  V30 1853 H 175.593 1.45228 -2.76252 0
M  V30 1854 N 175.894 1.51508 0.433938 0
M  V30 1855 C 177.122 1.68157 1.20543 0
M  V30 1856 C 177.537 0.380362 1.84929 0
M  V30 1857 O 176.894 -0.641446 1.70856 0
M  V30 1858 C 176.945 2.79965 2.28696 0
M  V30 1859 O 176.666 4.05045 1.66943 0
M  V30 1860 C 178.167 3.07912 3.18912 0
M  V30 1861 H 175.387 0.56421 0.363191 0
M  V30 1862 H 177.931 1.97941 0.513754 0
M  V30 1863 H 176.086 2.5277 2.93574 0
M  V30 1864 H 176.5 4.67165 2.38448 0
M  V30 1865 H 177.974 3.89719 3.90926 0
M  V30 1866 H 178.451 2.20456 3.79863 0
M  V30 1867 H 179.057 3.36779 2.59731 0
M  V30 1868 N 177.372 -0.689602 1.41712 0
M  V30 1869 C 178.282 -1.83314 1.46401 0
M  V30 1870 C 179.298 -1.7036 0.35405 0
M  V30 1871 O 180.474 -1.92171 0.602692 0
M  V30 1872 C 177.539 -3.19344 1.34982 0
M  V30 1873 C 176.6 -3.44363 2.56344 0
M  V30 1874 C 175.833 -4.73904 2.45461 0
M  V30 1875 O 176.056 -5.508 1.48241 0
M  V30 1876 O 174.99 -4.99839 3.35328 0
M  V30 1877 H 178.816 -1.82314 2.42889 0
M  V30 1878 H 176.401 -0.843438 1.23315 0
M  V30 1879 H 178.283 -4.00547 1.3092 0
M  V30 1880 H 176.958 -3.21014 0.41612 0
M  V30 1881 H 175.865 -2.63067 2.65982 0
M  V30 1882 H 177.198 -3.47512 3.48563 0
M  V30 1883 N 178.85 -1.27639 -0.924453 0
M  V30 1884 C 179.797 -1.10644 -2.0255 0
M  V30 1885 C 180.767 -0.00658438 -1.66099 0
M  V30 1886 O 181.952 -0.16952 -1.90045 0
M  V30 1887 C 179.092 -0.76309 -3.36557 0
M  V30 1888 C 178.205 -1.94091 -3.85944 0
M  V30 1889 C 177.34 -1.53914 -5.08413 0
M  V30 1890 C 176.379 -2.68425 -5.50104 0
M  V30 1891 N 175.516 -2.28815 -6.63768 0
M  V30 1892 H 180.356 -2.04858 -2.16419 0
M  V30 1893 H 177.893 -1.01974 -1.06017 0
M  V30 1894 H 179.851 -0.544822 -4.13627 0
M  V30 1895 H 178.481 0.142102 -3.22487 0
M  V30 1896 H 177.533 -2.27162 -3.05125 0
M  V30 1897 H 178.845 -2.7998 -4.12811 0
M  V30 1898 H 177.999 -1.28231 -5.92994 0
M  V30 1899 H 176.738 -0.651391 -4.8333 0
M  V30 1900 H 175.743 -2.94819 -4.64071 0
M  V30 1901 H 176.968 -3.57826 -5.7718 0
M  V30 1902 H 174.914 -1.42495 -6.40337 0
M  V30 1903 H 174.831 -3.08242 -6.90306 0
M  V30 1904 H 176.099 -2.06387 -7.51681 0
M  V30 1905 N 180.328 1.1314 -1.09713 0
M  V30 1906 C 181.258 2.20748 -0.761102 0
M  V30 1907 C 182.239 1.68061 0.262566 0
M  V30 1908 O 183.424 1.93765 0.129977 0
M  V30 1909 C 180.554 3.46812 -0.184054 0
M  V30 1910 C 179.508 4.12606 -1.13757 0
M  V30 1911 C 178.834 5.33031 -0.422083 0
M  V30 1912 C 180.134 4.59603 -2.48118 0
M  V30 1913 H 181.828 2.49113 -1.66082 0
M  V30 1914 H 179.374 1.19734 -0.799987 0
M  V30 1915 H 181.327 4.21353 0.0631215 0
M  V30 1916 H 180.051 3.17851 0.750868 0
M  V30 1917 H 178.71 3.40036 -1.37007 0
M  V30 1918 H 178.358 5.00335 0.517072 0
M  V30 1919 H 178.058 5.77999 -1.05788 0
M  V30 1920 H 179.582 6.10325 -0.183277 0
M  V30 1921 H 180.996 5.25552 -2.29059 0
M  V30 1922 H 179.393 5.15321 -3.07514 0
M  V30 1923 H 180.463 3.73971 -3.08665 0
M  V30 1924 N 181.806 0.884767 1.30421 0
M  V30 1925 C 183.055 0.499164 1.95426 0
M  V30 1926 C 183.368 -0.95645 1.70621 0
M  V30 1927 O 184.574 -1.44889 2.29607 0
M  V30 1928 C 183.03 0.84177 3.49917 0
M  V30 1929 C 182.638 2.31514 3.83543 0
M  V30 1930 C 184.382 0.525355 4.21237 0
M  V30 1931 C 182.289 2.59939 5.31212 0
M  V30 1932 H 181.219 0.182944 0.73147 0
M  V30 1933 H 183.87 1.07971 1.48373 0
M  V30 1934 H 182.252 0.190311 3.95542 0
M  V30 1935 H 183.426 3.0109 3.48829 0
M  V30 1936 H 181.741 2.59907 3.25326 0
M  V30 1937 H 184.338 0.714762 5.29901 0
M  V30 1938 H 184.681 -0.535222 4.12845 0
M  V30 1939 H 185.214 1.134 3.81294 0
M  V30 1940 H 181.953 3.64736 5.44654 0
M  V30 1941 H 181.473 1.94972 5.67227 0
M  V30 1942 H 183.152 2.45429 5.98643 0
M  V30 1943 N 183.284 -1.43765 0.645699 0
M  V30 1944 C 184.194 -2.34544 -0.0512957 0
M  V30 1945 C 185.21 -1.53455 -0.82022 0
M  V30 1946 O 186.386 -1.86133 -0.769176 0
M  V30 1947 C 183.451 -3.31636 -1.01087 0
M  V30 1948 C 182.512 -4.2863 -0.239712 0
M  V30 1949 C 181.745 -5.21084 -1.15358 0
M  V30 1950 O 181.968 -5.1779 -2.39269 0
M  V30 1951 O 180.902 -5.98593 -0.630038 0
M  V30 1952 H 184.728 -2.95624 0.695718 0
M  V30 1953 H 182.313 -1.43781 0.405882 0
M  V30 1954 H 184.195 -3.9136 -1.56254 0
M  V30 1955 H 182.87 -2.73069 -1.73824 0
M  V30 1956 H 181.777 -3.72408 0.355356 0
M  V30 1957 H 183.11 -4.90157 0.447936 0
M  V30 1958 N 184.763 -0.387143 -1.52771 0
M  V30 1959 C 185.993 0.195585 -2.05672 0
M  V30 1960 C 186.401 1.41241 -1.25887 0
M  V30 1961 O 185.744 1.81265 -0.298081 0
M  V30 1962 C 185.806 0.632327 -3.53895 0
M  V30 1963 C 185.47 -0.470739 -4.54569 0
M  V30 1964 C 186.467 -1.32746 -5.02667 0
M  V30 1965 C 184.152 -0.637151 -4.98243 0
M  V30 1966 C 186.146 -2.33574 -5.93061 0
M  V30 1967 C 183.833 -1.64877 -5.88438 0
M  V30 1968 C 184.831 -2.49649 -6.35739 0
M  V30 1969 O 184.519 -3.49082 -7.24153 0
M  V30 1970 H 184.251 0.033658 -0.675162 0
M  V30 1971 H 186.805 -0.550221 -1.97893 0
M  V30 1972 H 185.035 1.43008 -3.59285 0
M  V30 1973 H 186.724 1.14048 -3.89548 0
M  V30 1974 H 187.49 -1.21019 -4.69659 0
M  V30 1975 H 183.369 0.0129567 -4.60998 0
M  V30 1976 H 186.913 -2.99777 -6.29904 0
M  V30 1977 H 182.81 -1.76643 -6.2086 0
M  V30 1978 H 183.578 -3.45065 -7.42208 0
M  V30 1979 N 186.241 1.57166 -0.116904 0
M  V30 1980 C 187.188 2.15202 0.83408 0
M  V30 1981 C 188.158 1.07644 1.26499 0
M  V30 1982 O 189.343 1.35541 1.34288 0
M  V30 1983 C 186.483 2.75405 2.07957 0
M  V30 1984 C 185.596 3.97264 1.69721 0
M  V30 1985 C 184.731 4.45561 2.89221 0
M  V30 1986 C 183.77 5.59956 2.47215 0
M  V30 1987 N 182.907 6.03006 3.59622 0
M  V30 1988 H 187.747 2.96141 0.332335 0
M  V30 1989 H 185.284 1.46309 0.152349 0
M  V30 1990 H 187.242 3.08439 2.80929 0
M  V30 1991 H 185.872 1.97159 2.55594 0
M  V30 1992 H 184.924 3.70404 0.866316 0
M  V30 1993 H 186.236 4.80226 1.34849 0
M  V30 1994 H 185.39 4.80493 3.7042 0
M  V30 1995 H 184.129 3.61544 3.27318 0
M  V30 1996 H 183.134 5.2463 1.64448 0
M  V30 1997 H 184.359 6.45738 2.10238 0
M  V30 1998 H 182.305 5.21931 3.97396 0
M  V30 1999 H 182.222 6.80819 3.28667 0
M  V30 2000 H 183.49 6.42576 4.41267 0
M  V30 2001 N 187.719 -0.156864 1.56817 0
M  V30 2002 C 188.947 -0.886316 1.86955 0
M  V30 2003 C 189.362 -1.75185 0.703975 0
M  V30 2004 O 188.719 -1.79555 -0.326552 0
M  V30 2005 C 188.77 -1.75117 3.16253 0
M  V30 2006 O 188.491 -0.920537 4.2832 0
M  V30 2007 C 189.992 -2.58905 3.59837 0
M  V30 2008 H 187.212 -0.25678 0.619923 0
M  V30 2009 H 189.756 -0.152615 2.0393 0
M  V30 2010 H 187.911 -2.43805 3.01062 0
M  V30 2011 H 188.325 -1.51337 5.02192 0
M  V30 2012 H 189.799 -3.1518 4.53172 0
M  V30 2013 H 190.276 -3.34472 2.84649 0
M  V30 2014 H 190.882 -1.95526 3.7769 0
M  V30 2015 N 189.197 -1.51736 -0.425897 0
M  V30 2016 C 190.427 -1.68549 -1.19476 0
M  V30 2017 C 190.835 -0.387288 -1.85194 0
M  V30 2018 O 190.178 0.645142 -1.71999 0
M  V30 2019 C 190.24 -2.75275 -2.31223 0
M  V30 2020 C 189.904 -4.17534 -1.8578 0
M  V30 2021 C 190.901 -5.01936 -1.35485 0
M  V30 2022 C 188.586 -4.6369 -1.93123 0
M  V30 2023 C 190.58 -6.30559 -0.931347 0
M  V30 2024 C 188.267 -5.92307 -1.50384 0
M  V30 2025 C 189.265 -6.75569 -1.00473 0
M  V30 2026 O 188.953 -8.0178 -0.583452 0
M  V30 2027 H 188.685 -0.568525 -0.365725 0
M  V30 2028 H 191.239 -1.98982 -0.509444 0
M  V30 2029 H 189.469 -2.40182 -3.03067 0
M  V30 2030 H 191.158 -2.80853 -2.93047 0
M  V30 2031 H 191.924 -4.67475 -1.29197 0
M  V30 2032 H 187.803 -3.98997 -2.30916 0
M  V30 2033 H 191.347 -6.95498 -0.541084 0
M  V30 2034 H 187.244 -6.2628 -1.56346 0
M  V30 2035 H 188.012 -8.1543 -0.708275 0
M  V30 2036 N 190.675 0.682077 -1.42076 0
M  V30 2037 C 191.605 1.80796 -1.47767 0
M  V30 2038 C 192.586 1.6677 -0.334954 0
M  V30 2039 O 193.771 1.863 -0.548264 0
M  V30 2040 C 190.901 3.19038 -1.37229 0
M  V30 2041 C 189.855 3.47789 -2.49453 0
M  V30 2042 C 189.181 4.8553 -2.23975 0
M  V30 2043 C 190.481 3.45411 -3.91776 0
M  V30 2044 H 192.175 1.7629 -2.41997 0
M  V30 2045 H 189.721 0.846721 -1.16476 0
M  V30 2046 H 191.674 3.97528 -1.39821 0
M  V30 2047 H 190.398 3.24204 -0.394907 0
M  V30 2048 H 189.057 2.71657 -2.46166 0
M  V30 2049 H 188.705 4.87337 -1.24547 0
M  V30 2050 H 188.405 5.0573 -2.99184 0
M  V30 2051 H 189.929 5.66312 -2.28304 0
M  V30 2052 H 191.343 4.13882 -3.96705 0
M  V30 2053 H 189.74 3.77145 -4.66778 0
M  V30 2054 H 190.81 2.44122 -4.18966 0
M  V30 2055 N 192.153 1.28127 0.917671 0
M  V30 2056 C 193.085 1.07517 2.02417 0
M  V30 2057 C 194.098 0.0281099 1.62776 0
M  V30 2058 O 195.287 0.270748 1.76435 0
M  V30 2059 C 192.387 0.610957 3.33347 0
M  V30 2060 C 191.56 1.73255 4.01624 0
M  V30 2061 C 190.619 1.26238 5.10833 0
M  V30 2062 O 189.645 1.96389 5.34247 0
M  V30 2063 N 190.847 0.123448 5.80369 0
M  V30 2064 H 193.612 2.02806 2.20658 0
M  V30 2065 H 191.173 1.19827 1.08871 0
M  V30 2066 H 193.165 0.280101 4.0373 0
M  V30 2067 H 191.735 -0.24898 3.11607 0
M  V30 2068 H 190.955 2.23319 3.24842 0
M  V30 2069 H 192.243 2.48503 4.43986 0
M  V30 2070 H 191.641 -0.461847 5.63812 0
M  V30 2071 H 190.198 -0.148158 6.51632 0
M  V30 2072 N 193.631 -1.12557 1.10312 0
M  V30 2073 C 194.594 -2.16434 0.75424 0
M  V30 2074 C 195.594 -1.59278 -0.220685 0
M  V30 2075 O 196.784 -1.742 0.00230591 0
M  V30 2076 C 193.916 -3.40699 0.116987 0
M  V30 2077 H 195.109 -2.48811 1.67431 0
M  V30 2078 H 192.662 -1.27542 0.903475 0
M  V30 2079 H 193.397 -3.13921 -0.813877 0
M  V30 2080 H 193.182 -3.83459 0.818613 0
M  V30 2081 H 194.672 -4.17451 -0.111387 0
M  V30 2082 N 195.109 -0.891671 -1.2995 0
M  V30 2083 C 196.039 -0.379797 -2.30391 0
M  V30 2084 C 197.02 0.540919 -1.6127 0
M  V30 2085 O 198.205 0.453352 -1.88834 0
M  V30 2086 C 195.335 0.400654 -3.44981 0
M  V30 2087 C 194.289 -0.428905 -4.25846 0
M  V30 2088 C 193.615 0.478557 -5.32554 0
M  V30 2089 C 194.915 -1.67458 -4.94727 0
M  V30 2090 H 196.609 -1.21914 -2.73454 0
M  V30 2091 H 194.155 -0.587675 -1.31462 0
M  V30 2092 H 196.108 0.769434 -4.14316 0
M  V30 2093 H 194.832 1.27371 -3.0074 0
M  V30 2094 H 193.491 -0.779911 -3.58208 0
M  V30 2095 H 193.139 1.34951 -4.84559 0
M  V30 2096 H 192.839 -0.0727433 -5.87555 0
M  V30 2097 H 194.363 0.843705 -6.04743 0
M  V30 2098 H 195.777 -1.376 -5.56542 0
M  V30 2099 H 194.174 -2.16659 -5.59624 0
M  V30 2100 H 195.244 -2.41518 -4.20473 0
M  V30 2101 N 196.587 1.43421 -0.653314 0
M  V30 2102 C 197.998 1.85065 -0.246537 0
M  V30 2103 C 198.349 1.54688 1.2069 0
M  V30 2104 O 197.474 0.995896 1.92122 0
M  V30 2105 C 198.069 3.35922 -0.440666 0
M  V30 2106 C 196.628 3.76297 -0.0882064 0
M  V30 2107 C 195.775 2.67147 -0.743484 0
M  V30 2108 H 198.726 1.33572 -0.856979 0
M  V30 2109 H 198.747 3.79204 0.313798 0
M  V30 2110 H 198.259 3.58 -1.49858 0
M  V30 2111 H 196.36 3.5983 0.96711 0
M  V30 2112 H 196.473 4.76338 -0.513738 0
M  V30 2113 H 194.837 2.54086 -0.176712 0
M  V30 2114 H 195.62 2.92053 -1.80443 0
M  V30 2115 N 198.065 0.39524 1.52563 0
M  V30 2116 C 199.295 -0.184675 2.05773 0
M  V30 2117 C 199.703 -1.40571 1.26635 0
M  V30 2118 O 199.046 -1.81105 0.30769 0
M  V30 2119 C 199.108 -0.613551 3.54226 0
M  V30 2120 C 198.772 0.49484 4.54313 0
M  V30 2121 C 199.769 1.3541 5.01956 0
M  V30 2122 C 197.454 0.663565 4.97898 0
M  V30 2123 C 199.448 2.36716 5.91814 0
M  V30 2124 C 197.135 1.67996 5.87555 0
M  V30 2125 C 198.133 2.53017 6.34406 0
M  V30 2126 O 197.821 3.52917 7.22291 0
M  V30 2127 H 197.553 -0.030077 0.675331 0
M  V30 2128 H 200.107 0.560708 1.97599 0
M  V30 2129 H 198.337 -1.411 3.60038 0
M  V30 2130 H 200.026 -1.11981 3.90148 0
M  V30 2131 H 200.792 1.23509 4.6901 0
M  V30 2132 H 196.671 0.0114913 4.60999 0
M  V30 2133 H 200.215 3.03113 6.28306 0
M  V30 2134 H 196.112 1.79933 6.19915 0
M  V30 2135 H 196.88 3.48996 7.40367 0
M  V30 2136 N 199.544 -1.57102 0.125237 0
M  V30 2137 C 200.791 -1.95407 -0.531248 0
M  V30 2138 C 201.119 -1.0089 -1.66287 0
M  V30 2139 O 200.374 -0.0339431 -1.95671 0
M  V30 2140 C 200.673 -3.40096 -1.09862 0
M  V30 2141 C 200.339 -4.50815 -0.0876989 0
M  V30 2142 C 199.001 -4.80824 0.19026 0
M  V30 2143 C 201.353 -5.17724 0.600902 0
M  V30 2144 C 198.681 -5.75058 1.163 0
M  V30 2145 C 201.033 -6.13005 1.56231 0
M  V30 2146 C 199.697 -6.41403 1.8482 0
M  V30 2147 H 198.967 -0.715046 -0.194397 0
M  V30 2148 H 201.614 -1.90373 0.207463 0
M  V30 2149 H 199.919 -3.41855 -1.91422 0
M  V30 2150 H 201.616 -3.6705 -1.61478 0
M  V30 2151 H 198.206 -4.27444 -0.314528 0
M  V30 2152 H 202.39 -4.94691 0.399333 0
M  V30 2153 H 197.646 -5.95362 1.39117 0
M  V30 2154 H 201.82 -6.63934 2.10153 0
M  V30 2155 H 199.447 -7.14229 2.60349 0
M  V30 2156 N 201.022 0.148545 -1.56898 0
M  V30 2157 C 202.299 0.890019 -1.74178 0
M  V30 2158 C 202.679 1.99407 -0.692839 0
M  V30 2159 O 202.027 2.26671 0.288505 0
M  V30 2160 C 202.237 1.43389 -3.18183 0
M  V30 2161 C 203.585 1.89791 -3.79822 0
M  V30 2162 O 204.609 1.53134 -3.21603 0
M  V30 2163 O 203.468 2.57387 -4.82093 0
M  V30 2164 H 200.562 0.420496 -0.712118 0
M  V30 2165 H 203.108 0.134591 -1.69165 0
M  V30 2166 H 201.88 0.640383 -3.86024 0
M  V30 2167 H 201.503 2.25287 -3.27615 0
M  V30 2168 N 202.5 1.5196 0.417844 0
M  V30 2169 C 203.916 1.40569 0.755816 0
M  V30 2170 C 204.116 0.503316 1.95113 0
M  V30 2171 O 203.172 -0.0341925 2.52477 0
M  V30 2172 C 204.485 2.82947 1.01791 0
M  V30 2173 C 206.033 2.92231 1.12116 0
M  V30 2174 C 206.508 4.35559 1.41608 0
M  V30 2175 N 207.999 4.38753 1.48491 0
M  V30 2176 C 208.734 5.46705 1.7292 0
M  V30 2177 N 208.23 6.64788 1.95011 0
M  V30 2178 N 210.023 5.34209 1.74863 0
M  V30 2179 H 202.174 2.09168 -0.369098 0
M  V30 2180 H 204.437 0.942409 -0.102809 0
M  V30 2181 H 204.143 3.5106 0.212081 0
M  V30 2182 H 204.017 3.23462 1.94042 0
M  V30 2183 H 206.404 2.24304 1.9176 0
M  V30 2184 H 206.485 2.55185 0.177225 0
M  V30 2185 H 206.129 5.04042 0.624848 0
M  V30 2186 H 206.059 4.70133 2.37239 0
M  V30 2187 H 208.55 3.5363 1.33244 0
M  V30 2188 H 208.863 7.42845 2.13076 0
M  V30 2189 H 207.208 6.67869 1.92293 0
M  V30 2190 H 210.399 4.40937 1.57137 0
M  V30 2191 H 210.572 6.18415 1.93563 0
M  V30 2192 N 203.978 -0.674533 1.42435 0
M  V30 2193 C 204.908 -1.80009 1.48724 0
M  V30 2194 C 205.889 -1.6659 0.343793 0
M  V30 2195 O 207.074 -1.86007 0.558137 0
M  V30 2196 C 204.204 -3.18306 1.38919 0
M  V30 2197 C 203.158 -3.46461 2.51294 0
M  V30 2198 C 202.484 -4.84335 2.26547 0
M  V30 2199 C 203.784 -3.43328 3.93603 0
M  V30 2200 H 205.478 -1.75004 2.42928 0
M  V30 2201 H 203.024 -0.840533 1.16923 0
M  V30 2202 H 204.977 -3.9678 1.41927 0
M  V30 2203 H 203.701 -3.2399 0.412094 0
M  V30 2204 H 202.36 -2.70348 2.47604 0
M  V30 2205 H 202.008 -4.86669 1.2713 0
M  V30 2206 H 201.708 -5.04136 3.01861 0
M  V30 2207 H 203.232 -5.65094 2.31304 0
M  V30 2208 H 204.646 -4.11772 3.98894 0
M  V30 2209 H 203.043 -3.74664 4.68771 0
M  V30 2210 H 204.113 -2.41897 4.20255 0
M  V30 2211 N 205.456 -1.28612 -0.910864 0
M  V30 2212 C 206.733 -1.06632 -1.63979 0
M  V30 2213 C 207.113 0.393351 -2.07403 0
M  V30 2214 O 206.461 1.37999 -1.82122 0
M  V30 2215 C 206.671 -2.0436 -2.8291 0
M  V30 2216 C 208.019 -2.34666 -3.5386 0
M  V30 2217 O 209.043 -2.02467 -2.93062 0
M  V30 2218 O 207.902 -2.89631 -4.63439 0
M  V30 2219 H 204.996 -0.407737 -0.7195 0
M  V30 2220 H 207.542 -1.39942 -0.959914 0
M  V30 2221 H 206.314 -3.02727 -2.47936 0
M  V30 2222 H 205.937 -1.71714 -3.58609 0
M  V30 2223 N 206.934 1.1197 -1.10907 0
M  V30 2224 C 208.164 1.8713 -0.875553 0
M  V30 2225 C 208.572 1.8016 0.577843 0
M  V30 2226 O 207.915 1.17699 1.41042 0
M  V30 2227 C 207.977 3.37005 -1.2517 0
M  V30 2228 C 207.641 3.67748 -2.71313 0
M  V30 2229 C 208.638 3.65698 -3.69542 0
M  V30 2230 C 206.323 3.96928 -3.07821 0
M  V30 2231 C 208.317 3.92395 -5.023 0
M  V30 2232 C 206.004 4.23284 -4.40765 0
M  V30 2233 C 207.002 4.21005 -5.37814 0
M  V30 2234 O 206.69 4.46704 -6.68364 0
M  V30 2235 H 206.422 0.598786 -0.313737 0
M  V30 2236 H 208.976 1.42568 -1.47863 0
M  V30 2237 H 207.206 3.82146 -0.591741 0
M  V30 2238 H 208.895 3.93519 -0.994877 0
M  V30 2239 H 209.661 3.43211 -3.42682 0
M  V30 2240 H 205.54 3.97841 -2.32902 0
M  V30 2241 H 209.084 3.90531 -5.78041 0
M  V30 2242 H 204.981 4.45246 -4.67361 0
M  V30 2243 H 205.749 4.64299 -6.74069 0
M  V30 2244 N 208.412 0.89855 1.29475 0
M  V30 2245 C 209.658 0.524658 1.95896 0
M  V30 2246 C 209.991 -0.926468 1.70676 0
M  V30 2247 O 209.266 -1.65665 1.01908 0
M  V30 2248 C 209.549 0.81633 3.50725 0
M  V30 2249 C 209.402 2.31907 3.85408 0
M  V30 2250 C 210.721 0.302038 4.39062 0
M  V30 2251 H 207.84 0.19209 0.711527 0
M  V30 2252 H 210.482 1.12502 1.53112 0
M  V30 2253 H 208.632 0.305369 3.87298 0
M  V30 2254 H 210.304 2.89949 3.58786 0
M  V30 2255 H 208.547 2.78027 3.32992 0
M  V30 2256 H 209.218 2.47373 4.93468 0
M  V30 2257 H 211.694 0.739551 4.09475 0
M  V30 2258 H 210.57 0.535331 5.46283 0
M  V30 2259 H 210.831 -0.797216 4.34853 0
M  V30 2260 N 209.89 -1.43072 0.660911 0
M  V30 2261 C 211.115 -2.06584 0.183805 0
M  V30 2262 C 211.54 -1.49257 -1.14472 0
M  V30 2263 O 210.898 -0.605528 -1.70889 0
M  V30 2264 C 210.946 -3.60418 0.114434 0
M  V30 2265 O 210.05 -4.01981 -0.921137 0
M  V30 2266 H 209.391 -0.656669 0.0983994 0
M  V30 2267 H 211.921 -1.83447 0.906006 0
M  V30 2268 H 211.931 -4.07946 -0.0663394 0
M  V30 2269 H 210.606 -4.01519 1.08422 0
M  V30 2270 H 209.183 -3.66029 -0.71253 0
M  V30 2271 N 211.368 -0.403325 -1.52352 0
M  V30 2272 C 212.301 0.469463 -2.23319 0
M  V30 2273 C 213.279 1.05272 -1.23922 0
M  V30 2274 O 214.463 1.10169 -1.52954 0
M  V30 2275 C 211.59 1.6511 -2.9573 0
M  V30 2276 C 210.636 1.19178 -4.0951 0
M  V30 2277 S 211.469 0.161718 -5.35256 0
M  V30 2278 C 212.625 1.34882 -6.11194 0
M  V30 2279 H 212.858 -0.133134 -2.97002 0
M  V30 2280 H 210.391 -0.187588 -1.53256 0
M  V30 2281 H 212.349 2.3287 -3.38056 0
M  V30 2282 H 211.01 2.22503 -2.21701 0
M  V30 2283 H 210.203 2.07444 -4.59329 0
M  V30 2284 H 209.805 0.592911 -3.6927 0
M  V30 2285 H 212.097 2.27345 -6.38217 0
M  V30 2286 H 213.04 0.89128 -7.02468 0
M  V30 2287 H 213.448 1.57198 -5.42171 0
M  V30 2288 N 212.846 1.57033 -0.133567 0
M  V30 2289 C 213.779 2.11824 0.848872 0
M  V30 2290 C 214.757 1.03833 1.2513 0
M  V30 2291 O 215.941 1.31579 1.34978 0
M  V30 2292 C 213.068 2.62692 2.138 0
M  V30 2293 C 212.114 3.82705 1.88253 0
M  V30 2294 S 212.947 5.2438 1.08563 0
M  V30 2295 C 214.103 5.78627 2.38624 0
M  V30 2296 H 214.336 2.94824 0.38289 0
M  V30 2297 H 211.869 1.5419 0.0804796 0
M  V30 2298 H 213.827 2.92652 2.87863 0
M  V30 2299 H 212.488 1.79847 2.57515 0
M  V30 2300 H 211.681 4.16496 2.83809 0
M  V30 2301 H 211.283 3.53437 1.22305 0
M  V30 2302 H 213.575 5.8924 3.34369 0
M  V30 2303 H 214.518 6.76443 2.09358 0
M  V30 2304 H 214.926 5.06783 2.48658 0
M  V30 2305 N 214.325 -0.140222 1.56975 0
M  V30 2306 C 215.565 -0.857823 1.85528 0
M  V30 2307 C 215.929 -1.78039 0.718768 0
M  V30 2308 O 217.13 -2.53795 0.885521 0
M  V30 2309 C 215.401 -1.60615 3.19277 0
M  V30 2310 S 216.96 -2.36824 3.69405 0
M  V30 2311 H 213.778 -0.286727 0.650622 0
M  V30 2312 H 216.38 -0.117408 1.95147 0
M  V30 2313 H 215.084 -0.919994 3.99955 0
M  V30 2314 H 214.615 -2.38735 3.12681 0
M  V30 2315 H 216.63 -3.62148 3.3921 0
M  V30 2316 N 215.803 -1.52179 -0.40978 0
M  V30 2317 C 216.751 -1.76086 -1.51975 0
M  V30 2318 C 217.745 -0.627964 -1.57331 0
M  V30 2319 O 218.951 -0.809993 -1.60745 0
M  V30 2320 H 215.326 -0.556829 -0.505416 0
M  V30 2321 H 217.297 -2.69077 -1.28996 0
M  V30 2322 C 216.046 -1.92799 -2.8935 0
M  V30 2323 H 215.369 -2.79392 -2.85972 0
M  V30 2324 H 216.809 -2.13527 -3.66309 0
M  V30 2325 C 215.268 -0.694923 -3.29655 0
M  V30 2326 O 215.798 0.13751 -4.01465 0
M  V30 2327 N 214.004 -0.53101 -2.85707 0
M  V30 2328 H 213.551 -1.20952 -2.27439 0
M  V30 2329 H 213.509 0.292718 -3.13034 0
M  V30 2330 N 217.281 0.66697 -1.42791 0
M  V30 2331 C 218.191 1.80962 -1.49299 0
M  V30 2332 C 219.207 1.69775 -0.381108 0
M  V30 2333 O 220.383 1.91188 -0.633188 0
M  V30 2334 C 217.448 3.17156 -1.40045 0
M  V30 2335 C 216.509 3.40242 -2.6179 0
M  V30 2336 C 215.742 4.69939 -2.52969 0
M  V30 2337 O 215.965 5.48372 -1.56985 0
M  V30 2338 O 214.899 4.94441 -3.43237 0
M  V30 2339 H 218.725 1.78427 -2.45759 0
M  V30 2340 H 216.31 0.823713 -1.24641 0
M  V30 2341 H 218.192 3.98413 -1.37276 0
M  V30 2342 H 216.867 3.20312 -0.467138 0
M  V30 2343 H 215.774 2.58802 -2.70134 0
M  V30 2344 H 217.107 3.41923 -3.54047 0
M  V30 2345 N 218.759 1.29093 0.90403 0
M  V30 2346 C 219.691 1.09658 2.01266 0
M  V30 2347 C 220.704 0.0453729 1.62737 0
M  V30 2348 O 221.893 0.289446 1.76138 0
M  V30 2349 C 218.993 0.646278 3.32681 0
M  V30 2350 C 218.166 1.77505 3.99763 0
M  V30 2351 C 217.225 1.31649 5.09465 0
M  V30 2352 O 216.251 2.02045 5.32134 0
M  V30 2353 N 217.453 0.184997 5.80205 0
M  V30 2354 H 220.218 2.05135 2.18494 0
M  V30 2355 H 217.779 1.20975 1.07594 0
M  V30 2356 H 219.771 0.322906 4.0341 0
M  V30 2357 H 218.341 -0.215916 3.11853 0
M  V30 2358 H 217.561 2.26752 3.22455 0
M  V30 2359 H 218.849 2.53198 4.41325 0
M  V30 2360 H 218.247 -0.402021 5.6427 0
M  V30 2361 H 216.804 -0.0790358 6.51752 0
M  V30 2362 N 220.237 -1.11381 1.11499 0
M  V30 2363 C 221.2 -2.15622 0.777153 0
M  V30 2364 C 222.2 -1.59504 -0.203779 0
M  V30 2365 O 223.39 -1.74188 0.020782 0
M  V30 2366 C 220.522 -3.40556 0.153116 0
M  V30 2367 H 221.715 -2.47021 1.70061 0
M  V30 2368 H 219.268 -1.26577 0.916952 0
M  V30 2369 H 220.003 -3.14767 -0.780536 0
M  V30 2370 H 219.788 -3.8257 0.859238 0
M  V30 2371 H 221.278 -4.17546 -0.0671044 0
M  V30 2372 N 221.715 -0.905404 -1.28997 0
M  V30 2373 C 222.945 -0.549049 -1.99171 0
M  V30 2374 C 223.353 0.87203 -1.67906 0
M  V30 2375 O 222.696 1.58796 -0.923561 0
M  V30 2376 C 222.758 -0.668306 -3.53234 0
M  V30 2377 C 222.422 -2.0574 -4.08069 0
M  V30 2378 C 223.419 -3.0292 -4.22534 0
M  V30 2379 C 221.104 -2.36833 -4.42962 0
M  V30 2380 C 223.098 -4.29314 -4.71135 0
M  V30 2381 C 220.785 -3.63467 -4.91258 0
M  V30 2382 C 221.783 -4.59522 -5.053 0
M  V30 2383 O 221.471 -5.83907 -5.52546 0
M  V30 2384 H 221.203 -0.208784 -0.64295 0
M  V30 2385 H 223.757 -1.21836 -1.65363 0
M  V30 2386 H 221.987 0.0580547 -3.86656 0
M  V30 2387 H 223.676 -0.320273 -4.04634 0
M  V30 2388 H 224.442 -2.80216 -3.95859 0
M  V30 2389 H 220.321 -1.62824 -4.31288 0
M  V30 2390 H 223.865 -5.04293 -4.8201 0
M  V30 2391 H 219.762 -3.86 -5.17372 0
M  V30 2392 H 220.53 -5.86578 -5.70849 0
M  V30 2393 N 223.193 1.4272 -0.668489 0
M  V30 2394 C 224.418 2.06484 -0.194758 0
M  V30 2395 C 224.843 1.49862 1.13679 0
M  V30 2396 O 224.201 0.614582 1.70565 0
M  V30 2397 C 224.249 3.60353 -0.133546 0
M  V30 2398 O 223.353 4.02464 0.899806 0
M  V30 2399 H 222.694 0.656137 -0.10188 0
M  V30 2400 H 225.224 1.82964 -0.915722 0
M  V30 2401 H 225.234 4.07976 0.0447041 0
M  V30 2402 H 223.909 4.00938 -1.1055 0
M  V30 2403 H 222.486 3.66402 0.693109 0
M  V30 2404 N 224.671 0.411399 1.52136 0
M  V30 2405 C 225.601 -0.404015 2.29978 0
M  V30 2406 C 226.582 -1.04412 1.34284 0
M  V30 2407 O 227.767 -1.0527 1.63192 0
M  V30 2408 C 224.897 -1.5197 3.12286 0
M  V30 2409 C 223.851 -1.00448 4.16046 0
M  V30 2410 C 223.177 -2.21393 4.86712 0
M  V30 2411 C 224.477 -0.0569336 5.22269 0
M  V30 2412 H 226.171 0.245529 2.98392 0
M  V30 2413 H 223.717 0.119525 1.43503 0
M  V30 2414 H 225.67 -2.09715 3.6551 0
M  V30 2415 H 224.394 -2.19716 2.41646 0
M  V30 2416 H 223.053 -0.449421 3.63835 0
M  V30 2417 H 222.701 -2.87699 4.12599 0
M  V30 2418 H 222.401 -1.87571 5.56858 0
M  V30 2419 H 223.925 -2.7974 5.4275 0
M  V30 2420 H 225.339 -0.54325 5.7072 0
M  V30 2421 H 223.736 0.192594 5.99791 0
M  V30 2422 H 224.806 0.887663 4.76706 0
M  V30 2423 N 226.149 -1.5696 0.141893 0
M  V30 2424 C 227.112 -2.15316 -0.785587 0
M  V30 2425 C 228.112 -1.09366 -1.1788 0
M  V30 2426 O 229.302 -1.35031 -1.10056 0
M  V30 2427 C 226.434 -2.71211 -2.06537 0
M  V30 2428 H 227.627 -2.98608 -0.278041 0
M  V30 2429 H 225.18 -1.5593 -0.107519 0
M  V30 2430 H 225.915 -1.91571 -2.6167 0
M  V30 2431 H 225.7 -3.4872 -1.79268 0
M  V30 2432 H 227.19 -3.16189 -2.72789 0
M  V30 2433 N 227.627 0.131896 -1.57047 0
M  V30 2434 C 228.873 0.843179 -1.84441 0
M  V30 2435 C 229.206 1.80129 -0.725749 0
M  V30 2436 O 228.481 1.92624 0.269469 0
M  V30 2437 C 228.764 1.60442 -3.22382 0
M  V30 2438 C 228.617 0.666782 -4.4483 0
M  V30 2439 C 229.936 2.56354 -3.5773 0
M  V30 2440 H 227.055 0.305081 -0.670891 0
M  V30 2441 H 229.697 0.107839 -1.89694 0
M  V30 2442 H 227.847 2.23128 -3.18035 0
M  V30 2443 H 229.519 0.0497646 -4.61273 0
M  V30 2444 H 227.762 -0.022609 -4.33794 0
M  V30 2445 H 228.433 1.23579 -5.37989 0
M  V30 2446 H 230.909 2.0378 -3.62785 0
M  V30 2447 H 229.785 3.06657 -4.5525 0
M  V30 2448 H 230.046 3.38419 -2.84473 0
M  V30 2449 N 229.106 1.52395 0.401703 0
M  V30 2450 C 230.016 1.7917 1.51444 0
M  V30 2451 C 231.032 0.677691 1.6026 0
M  V30 2452 O 232.208 0.963909 1.76835 0
M  V30 2453 C 229.273 1.94347 2.87107 0
M  V30 2454 C 228.334 3.18257 2.88116 0
M  V30 2455 C 227.567 3.32701 4.17308 0
M  V30 2456 O 227.79 2.52238 5.11598 0
M  V30 2457 O 226.724 4.25891 4.25324 0
M  V30 2458 H 230.55 2.73633 1.31752 0
M  V30 2459 H 228.135 1.3733 0.588296 0
M  V30 2460 H 230.017 2.06109 3.67555 0
M  V30 2461 H 228.692 1.03073 3.06851 0
M  V30 2462 H 227.599 3.11947 2.06494 0
M  V30 2463 H 228.932 4.09336 2.73322 0
M  V30 2464 N 230.584 -0.659388 1.43143 0
M  V30 2465 C 231.531 -1.77249 1.47822 0
M  V30 2466 C 232.501 -1.62818 0.328558 0
M  V30 2467 O 233.686 -1.83151 0.534838 0
M  V30 2468 C 230.826 -3.15371 1.40126 0
M  V30 2469 C 229.939 -3.4098 2.65249 0
M  V30 2470 C 229.074 -4.68915 2.49584 0
M  V30 2471 C 228.113 -4.87608 3.70006 0
M  V30 2472 N 227.25 -6.06796 3.53189 0
M  V30 2473 H 232.09 -1.72584 2.42938 0
M  V30 2474 H 229.627 -0.842297 1.20598 0
M  V30 2475 H 231.585 -3.9521 1.33659 0
M  V30 2476 H 230.215 -3.19121 0.485964 0
M  V30 2477 H 229.267 -2.55282 2.8202 0
M  V30 2478 H 230.579 -3.50681 3.54717 0
M  V30 2479 H 229.733 -5.56871 2.4079 0
M  V30 2480 H 228.472 -4.61524 1.5763 0
M  V30 2481 H 227.477 -3.9809 3.79215 0
M  V30 2482 H 228.702 -4.96834 4.62961 0
M  V30 2483 H 226.648 -6.00549 2.63965 0
M  V30 2484 H 226.565 -6.17428 4.36255 0
M  V30 2485 H 227.833 -6.9739 3.48236 0
M  V30 2486 N 232.062 -1.29571 -0.897171 0
M  V30 2487 C 232.992 -1.17473 -2.01798 0
M  V30 2488 C 233.973 -0.068323 -1.69963 0
M  V30 2489 O 235.158 -0.248239 -1.92607 0
M  V30 2490 C 232.288 -0.853099 -3.36659 0
M  V30 2491 C 231.242 -1.9161 -3.82713 0
M  V30 2492 C 230.568 -1.44773 -5.14728 0
M  V30 2493 C 231.868 -3.32535 -4.02763 0
M  V30 2494 H 233.562 -2.11237 -2.12177 0
M  V30 2495 H 231.108 -1.01699 -1.01948 0
M  V30 2496 H 233.061 -0.755165 -4.14578 0
M  V30 2497 H 231.785 0.120236 -3.26379 0
M  V30 2498 H 230.444 -2.00346 -3.07013 0
M  V30 2499 H 230.092 -0.462995 -5.00865 0
M  V30 2500 H 229.792 -2.15865 -5.46513 0
M  V30 2501 H 231.316 -1.36334 -5.95185 0
M  V30 2502 H 232.73 -3.26626 -4.71156 0
M  V30 2503 H 231.127 -4.01607 -4.45905 0
M  V30 2504 H 232.197 -3.75326 -3.07016 0
M  V30 2505 N 233.54 1.10788 -1.12088 0
M  V30 2506 C 234.47 2.19083 -0.807755 0
M  V30 2507 C 235.451 1.6858 0.226859 0
M  V30 2508 O 236.636 1.93997 0.0888475 0
M  V30 2509 C 233.766 3.46344 -0.257576 0
M  V30 2510 C 232.72 4.101 -1.22483 0
M  V30 2511 C 232.046 5.32016 -0.535052 0
M  V30 2512 C 233.346 4.54236 -2.57811 0
M  V30 2513 H 235.04 2.45534 -1.71328 0
M  V30 2514 H 232.586 1.1801 -0.825205 0
M  V30 2515 H 234.539 4.21392 -0.0262679 0
M  V30 2516 H 233.263 3.19373 0.683278 0
M  V30 2517 H 231.922 3.37054 -1.44189 0
M  V30 2518 H 231.57 5.01319 0.410827 0
M  V30 2519 H 231.27 5.75625 -1.18024 0
M  V30 2520 H 232.794 6.09799 -0.312695 0
M  V30 2521 H 234.208 5.20575 -2.40155 0
M  V30 2522 H 232.605 5.08682 -3.18375 0
M  V30 2523 H 233.675 3.6734 -3.16528 0
M  V30 2524 N 235.018 0.912232 1.28515 0
M  V30 2525 C 235.966 0.389597 2.29314 0
M  V30 2526 C 236.96 -0.517915 1.61289 0
M  V30 2527 O 238.166 -0.399328 1.75515 0
M  V30 2528 H 234.541 0.107386 0.744293 0
M  V30 2529 H 236.512 1.25286 2.70825 0
M  V30 2530 C 235.261 -0.356496 3.45868 0
M  V30 2531 H 234.584 0.332608 3.98414 0
M  V30 2532 H 236.024 -0.686851 4.184 0
M  V30 2533 C 234.483 -1.56383 2.98406 0
M  V30 2534 O 235.013 -2.66294 3.00749 0
M  V30 2535 N 233.219 -1.41029 2.54085 0
M  V30 2536 H 232.766 -0.516089 2.52377 0
M  V30 2537 H 232.724 -2.21939 2.22689 0
M  V30 2538 N 236.496 -1.42363 0.676048 0
M  V30 2539 C 237.745 -2.00745 0.196037 0
M  V30 2540 C 238.058 -1.54083 -1.20489 0
M  V30 2541 O 239.264 -2.04891 -1.78134 0
M  V30 2542 C 237.72 -3.58651 0.299616 0
M  V30 2543 C 237.328 -4.143 1.70468 0
M  V30 2544 C 239.072 -4.24326 -0.121619 0
M  V30 2545 C 236.979 -5.64574 1.76096 0
M  V30 2546 H 235.909 -0.750787 0.0695301 0
M  V30 2547 H 238.56 -1.63072 0.841412 0
M  V30 2548 H 236.942 -3.93833 -0.413673 0
M  V30 2549 H 238.116 -3.90575 2.44515 0
M  V30 2550 H 236.431 -3.61081 2.07387 0
M  V30 2551 H 239.028 -5.34607 -0.0997362 0
M  V30 2552 H 239.371 -3.99897 -1.15708 0
M  V30 2553 H 239.904 -3.94108 0.540706 0
M  V30 2554 H 236.643 -5.93804 2.77628 0
M  V30 2555 H 236.163 -5.90286 1.06406 0
M  V30 2556 H 237.842 -6.29013 1.51496 0
M  V30 2557 N 237.974 -0.419461 -1.51915 0
M  V30 2558 C 239.39 -0.0708431 -1.59443 0
M  V30 2559 C 239.59 1.41796 -1.43164 0
M  V30 2560 O 238.646 2.18596 -1.26381 0
M  V30 2561 C 239.959 -0.574991 -2.95151 0
M  V30 2562 C 241.507 -0.533867 -3.08413 0
M  V30 2563 C 241.982 -1.01469 -4.46618 0
M  V30 2564 N 243.473 -0.971939 -4.52888 0
M  V30 2565 C 244.208 -1.31505 -5.58116 0
M  V30 2566 N 243.704 -1.73014 -6.70849 0
M  V30 2567 N 245.497 -1.23436 -5.48379 0
M  V30 2568 H 237.648 -1.38836 -1.60743 0
M  V30 2569 H 239.911 -0.570998 -0.756747 0
M  V30 2570 H 239.617 -1.61597 -3.12377 0
M  V30 2571 H 239.491 0.00979777 -3.77199 0
M  V30 2572 H 241.878 0.498086 -2.90866 0
M  V30 2573 H 241.959 -1.15484 -2.28248 0
M  V30 2574 H 241.603 -2.04502 -4.6491 0
M  V30 2575 H 241.533 -0.370433 -5.25295 0
M  V30 2576 H 244.024 -0.666893 -3.71969 0
M  V30 2577 H 244.337 -1.97479 -7.47143 0
M  V30 2578 H 242.682 -1.76926 -6.72103 0
M  V30 2579 H 245.873 -0.908869 -4.59192 0
M  V30 2580 H 246.046 -1.50506 -6.30279 0
M  V30 2581 N 239.452 1.56882 -0.150215 0
M  V30 2582 C 240.863 1.82995 0.370076 0
M  V30 2583 C 241.214 1.06907 1.64515 0
M  V30 2584 O 240.339 0.315369 2.1409 0
M  V30 2585 C 240.934 3.31942 0.678208 0
M  V30 2586 C 239.493 3.58625 1.14301 0
M  V30 2587 C 238.64 2.76792 0.167778 0
M  V30 2588 H 241.591 1.54209 -0.374858 0
M  V30 2589 H 241.612 3.48272 1.53254 0
M  V30 2590 H 241.124 3.87294 -0.249991 0
M  V30 2591 H 239.225 3.08664 2.08704 0
M  V30 2592 H 239.338 4.67073 1.06676 0
M  V30 2593 H 237.702 2.45972 0.661037 0
M  V30 2594 H 238.485 3.34916 -0.754069 0
M  V30 2595 N 240.93 -0.123565 1.57115 0
M  V30 2596 C 242.341 -0.681198 1.73829 0
M  V30 2597 C 242.692 -1.80535 0.768214 0
M  V30 2598 O 241.817 -2.16317 -0.0599103 0
M  V30 2599 C 242.412 -1.24246 3.15196 0
M  V30 2600 C 240.971 -1.74643 3.33432 0
M  V30 2601 C 240.118 -0.644284 2.69711 0
M  V30 2602 H 243.069 0.102315 1.5837 0
M  V30 2603 H 243.09 -2.11216 3.16493 0
M  V30 2604 H 242.602 -0.424062 3.85776 0
M  V30 2605 H 240.703 -2.58974 2.67886 0
M  V30 2606 H 240.816 -1.85902 4.41562 0
M  V30 2607 H 239.18 -1.07676 2.3082 0
M  V30 2608 H 239.963 0.163058 3.42913 0
M  V30 2609 N 242.408 -1.52605 -0.393616 0
M  V30 2610 C 243.819 -1.59417 -0.971761 0
M  V30 2611 C 244.17 -0.444173 -1.91106 0
M  V30 2612 O 243.295 0.433382 -2.12016 0
M  V30 2613 C 243.89 -2.88936 -1.76921 0
M  V30 2614 C 242.449 -2.98175 -2.29714 0
M  V30 2615 C 241.596 -2.54491 -1.10135 0
M  V30 2616 H 244.547 -1.57751 -0.173317 0
M  V30 2617 H 244.568 -2.75163 -2.62804 0
M  V30 2618 H 244.08 -3.72616 -1.08532 0
M  V30 2619 H 242.181 -2.19024 -3.01429 0
M  V30 2620 H 242.294 -4.02726 -2.59517 0
M  V30 2621 H 240.658 -2.08702 -1.45999 0
M  V30 2622 H 241.441 -3.4056 -0.432874 0
M  V30 2623 N 243.887 0.651787 -1.4349 0
M  V30 2624 C 245.303 0.96762 -1.26922 0
M  V30 2625 C 245.503 2.00602 -0.189982 0
M  V30 2626 O 244.559 2.48793 0.431107 0
M  V30 2627 C 245.872 1.45052 -2.63401 0
M  V30 2628 C 247.42 1.5671 -2.70945 0
M  V30 2629 C 247.895 2.0839 -4.07845 0
M  V30 2630 N 249.386 2.1569 -4.09917 0
M  V30 2631 C 250.121 2.56804 -5.12679 0
M  V30 2632 N 249.617 2.97203 -6.25813 0
M  V30 2633 N 251.41 2.56756 -5.00033 0
M  V30 2634 H 243.561 -0.0353158 -2.12371 0
M  V30 2635 H 245.824 0.0467858 -0.946845 0
M  V30 2636 H 245.53 0.761926 -3.43348 0
M  V30 2637 H 245.404 2.42529 -2.88894 0
M  V30 2638 H 247.791 2.2467 -1.9133 0
M  V30 2639 H 247.872 0.57662 -2.49216 0
M  V30 2640 H 247.516 1.41031 -4.87927 0
M  V30 2641 H 247.446 3.08271 -4.26938 0
M  V30 2642 H 249.937 1.87237 -3.28254 0
M  V30 2643 H 250.25 3.27328 -7.00055 0
M  V30 2644 H 248.595 2.95004 -6.29283 0
M  V30 2645 H 251.786 2.24572 -4.10713 0
M  V30 2646 H 251.959 2.88475 -5.80247 0
M  V30 2647 N 245.365 1.30045 0.890287 0
M  V30 2648 C 246.328 1.15963 1.977 0
M  V30 2649 C 247.328 0.0923777 1.60534 0
M  V30 2650 O 248.518 0.340071 1.70848 0
M  V30 2651 C 245.65 0.775451 3.31963 0
M  V30 2652 H 246.843 2.12502 2.11619 0
M  V30 2653 H 244.396 1.13366 1.07601 0
M  V30 2654 H 245.131 -0.189671 3.23745 0
M  V30 2655 H 244.916 1.54668 3.60306 0
M  V30 2656 H 246.406 0.700251 4.11687 0
M  V30 2657 N 246.843 -1.10192 1.12674 0
M  V30 2658 C 247.775 -2.16418 0.754701 0
M  V30 2659 C 248.788 -1.61309 -0.21986 0
M  V30 2660 O 249.977 -1.785 -0.000826841 0
M  V30 2661 C 247.077 -3.38762 0.096698 0
M  V30 2662 C 246.25 -4.23307 1.10136 0
M  V30 2663 C 245.309 -5.24092 0.470513 0
M  V30 2664 O 244.335 -5.57906 1.12824 0
M  V30 2665 N 245.537 -5.75491 -0.760948 0
M  V30 2666 H 248.302 -2.48943 1.66875 0
M  V30 2667 H 245.863 -1.25834 1.01869 0
M  V30 2668 H 247.855 -4.03291 -0.337384 0
M  V30 2669 H 246.425 -3.04192 -0.720153 0
M  V30 2670 H 245.645 -3.55036 1.71299 0
M  V30 2671 H 246.933 -4.76624 1.78064 0
M  V30 2672 H 246.331 -5.50222 -1.31424 0
M  V30 2673 H 244.888 -6.41792 -1.13781 0
M  V30 2674 N 248.321 -0.919034 -1.28029 0
M  V30 2675 C 249.567 -0.565221 -1.95389 0
M  V30 2676 C 249.922 0.882325 -1.70976 0
M  V30 2677 O 249.215 1.61988 -1.02325 0
M  V30 2678 C 249.409 -0.816855 -3.4794 0
M  V30 2679 C 249.238 -2.28731 -3.87185 0
M  V30 2680 C 248.008 -2.93841 -4.11079 0
M  V30 2681 C 250.206 -3.26415 -3.97439 0
M  V30 2682 N 248.188 -4.31129 -4.37037 0
M  V30 2683 C 249.559 -4.48884 -4.27672 0
M  V30 2684 C 251.614 -3.21742 -3.79982 0
M  V30 2685 C 250.317 -5.67268 -4.42266 0
M  V30 2686 C 252.343 -4.39431 -3.95796 0
M  V30 2687 C 251.705 -5.60675 -4.26407 0
M  V30 2688 H 247.804 -0.256797 -0.738633 0
M  V30 2689 H 250.388 -1.18386 -1.54573 0
M  V30 2690 H 248.559 -0.227445 -3.87733 0
M  V30 2691 H 250.291 -0.426542 -4.02446 0
M  V30 2692 H 247.046 -2.44547 -4.05578 0
M  V30 2693 H 247.47 -5.02127 -4.5409 0
M  V30 2694 H 252.112 -2.29079 -3.55363 0
M  V30 2695 H 249.83 -6.60406 -4.65714 0
M  V30 2696 H 253.416 -4.37323 -3.83719 0
M  V30 2697 H 252.296 -6.50223 -4.38383 0
M  V30 2698 N 249.799 1.42003 -0.683588 0
M  V30 2699 C 251.048 2.00638 -0.206681 0
M  V30 2700 C 251.361 1.5472 1.19671 0
M  V30 2701 O 252.567 2.05833 1.77045 0
M  V30 2702 C 251.023 3.58487 -0.318632 0
M  V30 2703 C 250.631 4.1339 -1.72663 0
M  V30 2704 C 252.375 4.24384 0.0991141 0
M  V30 2705 C 250.282 5.63633 -1.79087 0
M  V30 2706 H 249.212 0.750408 -0.0735107 0
M  V30 2707 H 251.863 1.62624 -0.850048 0
M  V30 2708 H 250.245 3.94047 0.392781 0
M  V30 2709 H 251.419 3.89273 -2.46583 0
M  V30 2710 H 249.734 3.59976 -2.09299 0
M  V30 2711 H 252.331 5.34652 0.0713833 0
M  V30 2712 H 252.674 4.00505 1.13586 0
M  V30 2713 H 253.207 3.93816 -0.561599 0
M  V30 2714 H 249.946 5.92323 -2.80774 0
M  V30 2715 H 249.466 5.89714 -1.09535 0
M  V30 2716 H 251.145 6.28201 -1.5483 0
M  V30 2717 N 251.277 0.427512 1.51691 0
M  V30 2718 C 252.693 0.0792977 1.59403 0
M  V30 2719 C 252.893 -1.41035 1.43914 0
M  V30 2720 O 251.949 -2.17922 1.27539 0
M  V30 2721 C 253.262 0.590636 2.94842 0
M  V30 2722 C 254.81 0.550215 3.08126 0
M  V30 2723 C 255.285 1.03836 4.46074 0
M  V30 2724 N 256.776 0.995943 4.52366 0
M  V30 2725 C 257.511 1.34463 5.57411 0
M  V30 2726 N 257.007 1.76569 6.69922 0
M  V30 2727 N 258.8 1.26343 5.47717 0
M  V30 2728 H 250.951 1.39687 1.60004 0
M  V30 2729 H 253.214 0.575003 0.753708 0
M  V30 2730 H 252.92 1.63251 3.11516 0
M  V30 2731 H 252.794 0.0102061 3.77199 0
M  V30 2732 H 255.181 -0.482654 2.91126 0
M  V30 2733 H 255.262 1.16693 2.27632 0
M  V30 2734 H 254.906 2.06965 4.63819 0
M  V30 2735 H 254.836 0.398286 5.25092 0
M  V30 2736 H 257.327 0.68661 3.7161 0
M  V30 2737 H 257.64 2.01438 7.46085 0
M  V30 2738 H 255.985 1.80488 6.71155 0
M  V30 2739 H 259.176 0.933209 4.58703 0
M  V30 2740 H 259.349 1.53846 6.29472 0
M  V30 2741 N 252.755 -1.56801 0.158532 0
M  V30 2742 C 254.001 -1.96781 -0.490405 0
M  V30 2743 C 254.334 -1.04397 -1.63753 0
M  V30 2744 O 253.609 -0.0885805 -1.94298 0
M  V30 2745 C 253.892 -3.4635 -0.985594 0
M  V30 2746 C 253.745 -4.49512 0.160824 0
M  V30 2747 C 255.064 -3.98697 -1.86355 0
M  V30 2748 H 252.183 -0.715482 -0.176788 0
M  V30 2749 H 254.825 -1.88451 0.242088 0
M  V30 2750 H 252.975 -3.53579 -1.60978 0
M  V30 2751 H 254.647 -4.54353 0.797537 0
M  V30 2752 H 252.89 -4.26013 0.818256 0
M  V30 2753 H 253.561 -5.51531 -0.227569 0
M  V30 2754 H 256.037 -3.94019 -1.33746 0
M  V30 2755 H 254.913 -5.03792 -2.17909 0
M  V30 2756 H 255.174 -3.41744 -2.8047 0
M  V30 2757 N 254.233 0.115231 -1.57178 0
M  V30 2758 C 255.163 1.1423 -2.03651 0
M  V30 2759 C 256.144 1.42967 -0.921655 0
M  V30 2760 O 257.329 1.53343 -1.19162 0
M  V30 2761 C 254.459 2.4675 -2.44401 0
M  V30 2762 C 253.413 2.32467 -3.59365 0
M  V30 2763 C 252.739 3.69984 -3.86026 0
M  V30 2764 C 254.039 1.78203 -4.90959 0
M  V30 2765 H 255.733 0.755749 -2.89705 0
M  V30 2766 H 253.279 0.362093 -1.39373 0
M  V30 2767 H 255.232 3.18854 -2.75517 0
M  V30 2768 H 253.956 2.87302 -1.55322 0
M  V30 2769 H 252.615 1.62811 -3.28463 0
M  V30 2770 H 252.263 4.08028 -2.94147 0
M  V30 2771 H 251.963 3.61279 -4.63412 0
M  V30 2772 H 253.487 4.43587 -4.19599 0
M  V30 2773 H 254.901 2.40128 -5.20587 0
M  V30 2774 H 253.298 1.8031 -5.72371 0
M  V30 2775 H 254.368 0.739876 -4.79222 0
M  V30 2776 N 255.711 1.52812 0.385517 0
M  V30 2777 C 256.958 1.68026 1.1302 0
M  V30 2778 C 257.286 0.421934 1.89868 0
M  V30 2779 O 256.541 -0.595749 1.86412 0
M  V30 2780 C 256.84 2.86856 2.13187 0
M  V30 2781 C 256.506 4.24159 1.5297 0
M  V30 2782 C 255.168 4.61501 1.36274 0
M  V30 2783 C 257.52 5.09627 1.09223 0
M  V30 2784 C 254.848 5.81966 0.743837 0
M  V30 2785 C 257.2 6.30719 0.487411 0
M  V30 2786 C 255.864 6.6679 0.307777 0
M  V30 2787 H 255.134 0.614849 0.413571 0
M  V30 2788 H 257.781 1.86962 0.414405 0
M  V30 2789 H 256.086 2.6235 2.90998 0
M  V30 2790 H 257.783 2.95821 2.70722 0
M  V30 2791 H 254.373 3.94746 1.66954 0
M  V30 2792 H 258.557 4.81343 1.20922 0
M  V30 2793 H 253.813 6.08519 0.592891 0
M  V30 2794 H 257.987 6.96259 0.140143 0
M  V30 2795 H 255.614 7.60001 -0.173879 0
M  V30 2796 N 257.189 -0.644168 1.43834 0
M  V30 2797 C 258.437 -1.40117 1.45642 0
M  V30 2798 C 258.758 -1.94814 0.0852413 0
M  V30 2799 O 258.028 -1.74988 -0.880688 0
M  V30 2800 H 256.608 -0.52005 0.536243 0
M  V30 2801 H 259.27 -0.7591 1.7951 0
M  V30 2802 H 258.366 -2.23902 2.17427 0
M  V30 2803 N 258.668 -1.30515 -0.883378 0
M  V30 2804 C 259.578 -1.18959 -2.02203 0
M  V30 2805 C 260.594 -0.109172 -1.73657 0
M  V30 2806 O 261.77 -0.324413 -1.9877 0
M  V30 2807 C 258.835 -0.883871 -3.35244 0
M  V30 2808 C 257.896 -2.04982 -3.77201 0
M  V30 2809 C 257.129 -1.75859 -5.03894 0
M  V30 2810 O 257.352 -0.687276 -5.66244 0
M  V30 2811 O 256.286 -2.61146 -5.42297 0
M  V30 2812 H 260.112 -2.14616 -2.1488 0
M  V30 2813 H 257.697 -1.10124 -1.0096 0
M  V30 2814 H 259.579 -0.728644 -4.15053 0
M  V30 2815 H 258.254 0.0427798 -3.23672 0
M  V30 2816 H 257.161 -2.26038 -2.9809 0
M  V30 2817 H 258.494 -2.95825 -3.93381 0
M  V30 2818 N 260.146 1.09593 -1.13257 0
M  V30 2819 C 261.395 1.81105 -0.887917 0
M  V30 2820 C 261.708 1.86563 0.587672 0
M  V30 2821 O 262.914 2.54367 0.949204 0
M  V30 2822 C 261.37 3.25338 -1.53895 0
M  V30 2823 C 260.978 3.28151 -3.04994 0
M  V30 2824 C 262.722 4.01617 -1.37492 0
M  V30 2825 C 260.629 4.66897 -3.6299 0
M  V30 2826 H 259.559 0.678661 -0.328534 0
M  V30 2827 H 262.21 1.23183 -1.36008 0
M  V30 2828 H 260.592 3.8331 -0.994446 0
M  V30 2829 H 261.766 2.79953 -3.66009 0
M  V30 2830 H 260.081 2.65361 -3.20893 0
M  V30 2831 H 262.678 5.04119 -1.78235 0
M  V30 2832 H 263.021 4.15072 -0.31957 0
M  V30 2833 H 263.554 3.50082 -1.88912 0
M  V30 2834 H 260.293 4.58643 -4.68323 0
M  V30 2835 H 259.813 5.15426 -3.06752 0
M  V30 2836 H 261.492 5.3587 -3.62563 0
M  V30 2837 N 261.624 0.925811 1.2754 0
M  V30 2838 C 262.852 0.581509 1.9856 0
M  V30 2839 C 263.267 -0.840041 1.69082 0
M  V30 2840 O 262.624 -1.55805 0.950312 0
M  V30 2841 C 262.675 0.795589 3.52637 0
M  V30 2842 O 262.396 2.16121 3.81082 0
M  V30 2843 C 263.897 0.459744 4.4091 0
M  V30 2844 H 261.117 0.220538 0.633722 0
M  V30 2845 H 263.661 1.24232 1.6244 0
M  V30 2846 H 261.816 0.18161 3.86974 0
M  V30 2847 H 262.23 2.2098 4.75676 0
M  V30 2848 H 263.704 0.660244 5.48037 0
M  V30 2849 H 264.181 -0.604625 4.35018 0
M  V30 2850 H 264.787 1.05178 4.12089 0
M  V30 2851 N 263.102 -1.41638 0.69111 0
M  V30 2852 C 264.518 -1.55435 0.362224 0
M  V30 2853 C 264.718 -1.66754 -1.13117 0
M  V30 2854 O 263.774 -1.64348 -1.91692 0
M  V30 2855 C 265.087 -2.79588 1.10684 0
M  V30 2856 C 266.635 -2.9338 1.09075 0
M  V30 2857 C 267.11 -4.20414 1.81703 0
M  V30 2858 N 268.601 -4.27362 1.7865 0
M  V30 2859 C 269.336 -5.24507 2.31689 0
M  V30 2860 N 268.832 -6.27708 2.93179 0
M  V30 2861 N 270.625 -5.16416 2.2197 0
M  V30 2862 H 262.776 -1.32536 1.65976 0
M  V30 2863 H 265.039 -0.639115 0.700168 0
M  V30 2864 H 264.745 -2.77419 2.16175 0
M  V30 2865 H 264.619 -3.70973 0.682545 0
M  V30 2866 H 267.006 -2.95067 0.0441238 0
M  V30 2867 H 267.087 -2.0318 1.55407 0
M  V30 2868 H 266.731 -4.19488 2.86343 0
M  V30 2869 H 266.661 -5.09578 1.32808 0
M  V30 2870 H 269.152 -3.53415 1.33815 0
M  V30 2871 H 269.465 -6.98217 3.31229 0
M  V30 2872 H 267.81 -6.28223 2.97255 0
M  V30 2873 H 271.001 -4.34716 1.73607 0
M  V30 2874 H 271.174 -5.91958 2.63609 0
M  V30 2875 N 264.58 -0.43555 -1.51462 0
M  V30 2876 C 265.51 0.367376 -2.30592 0
M  V30 2877 C 266.491 1.02263 -1.35928 0
M  V30 2878 O 267.676 1.02661 -1.64847 0
M  V30 2879 C 264.806 1.46983 -3.14664 0
M  V30 2880 C 263.76 0.938161 -4.17591 0
M  V30 2881 C 263.086 2.13622 -4.90173 0
M  V30 2882 C 264.386 -0.0261621 -5.22293 0
M  V30 2883 H 266.08 -0.292969 -2.97963 0
M  V30 2884 H 263.626 -0.14234 -1.43295 0
M  V30 2885 H 265.579 2.03873 -3.688 0
M  V30 2886 H 264.303 2.15843 -2.4511 0
M  V30 2887 H 262.962 0.391481 -3.64504 0
M  V30 2888 H 262.61 2.81098 -4.17124 0
M  V30 2889 H 262.31 1.78688 -5.59772 0
M  V30 2890 H 263.834 2.7107 -5.47132 0
M  V30 2891 H 265.248 0.452384 -5.71512 0
M  V30 2892 H 263.645 -0.287992 -5.99409 0
M  V30 2893 H 264.715 -0.963391 -4.75233 0
M  V30 2894 N 266.058 1.56714 -0.166846 0
M  V30 2895 C 266.988 2.20754 0.760913 0
M  V30 2896 C 267.969 1.16178 1.24244 0
M  V30 2897 O 269.154 1.44592 1.29641 0
M  V30 2898 C 266.284 2.84478 1.99223 0
M  V30 2899 C 265.238 3.95053 1.64672 0
M  V30 2900 C 264.564 4.45805 2.95232 0
M  V30 2901 C 265.864 5.14865 0.878155 0
M  V30 2902 H 267.558 2.98537 0.22713 0
M  V30 2903 H 265.104 1.43596 0.107805 0
M  V30 2904 H 267.057 3.27951 2.64624 0
M  V30 2905 H 265.781 2.04056 2.55007 0
M  V30 2906 H 264.44 3.52228 1.01641 0
M  V30 2907 H 264.088 3.62181 3.49047 0
M  V30 2908 H 263.788 5.204 2.7287 0
M  V30 2909 H 265.312 4.91962 3.6167 0
M  V30 2910 H 266.726 5.55059 1.43466 0
M  V30 2911 H 265.123 5.95348 0.753738 0
M  V30 2912 H 266.193 4.84735 -0.126377 0
M  V30 2913 N 267.536 -0.106894 1.57237 0
M  V30 2914 C 268.484 -1.14944 2.02215 0
M  V30 2915 C 269.478 -1.42167 0.92114 0
M  V30 2916 O 270.684 -1.41987 1.10634 0
M  V30 2917 H 267.059 -0.387841 0.64427 0
M  V30 2918 H 269.03 -0.743683 2.88984 0
M  V30 2919 C 267.779 -2.4647 2.4525 0
M  V30 2920 H 267.102 -2.26363 3.29545 0
M  V30 2921 H 268.542 -3.17948 2.80508 0
M  V30 2922 C 267.001 -3.09921 1.321 0
M  V30 2923 O 267.531 -3.9651 0.643622 0
M  V30 2924 N 265.737 -2.69986 1.07497 0
M  V30 2925 H 265.284 -1.99667 1.62761 0
M  V30 2926 H 265.242 -3.12769 0.319876 0
M  V30 2927 N 269.014 -1.53014 -0.377408 0
M  V30 2928 C 269.964 -1.74996 -1.46152 0
M  V30 2929 C 270.948 -0.604236 -1.49123 0
M  V30 2930 O 272.14 -0.862489 -1.54564 0
M  V30 2931 C 269.269 -1.93267 -2.8373 0
M  V30 2932 C 268.355 -3.13807 -2.85283 0
M  V30 2933 N 268.746 -4.35941 -2.56493 0
M  V30 2934 C 267.044 -3.14288 -3.16448 0
M  V30 2935 C 267.745 -5.17615 -2.65424 0
M  V30 2936 N 266.721 -4.53559 -2.99641 0
M  V30 2937 H 270.523 -2.67044 -1.22738 0
M  V30 2938 H 268.037 -1.51479 -0.585479 0
M  V30 2939 H 270.034 -2.0714 -3.61799 0
M  V30 2940 H 268.694 -1.0244 -3.08117 0
M  V30 2941 H 269.705 -4.63876 -2.30302 0
M  V30 2942 H 266.382 -2.33312 -3.46225 0
M  V30 2943 H 267.772 -6.25006 -2.46612 0
M  V30 2944 N 270.492 0.636531 -1.44174 0
M  V30 2945 C 271.741 1.39213 -1.45954 0
M  V30 2946 C 272.054 1.95374 -0.0939119 0
M  V30 2947 O 273.26 2.71498 0.0107767 0
M  V30 2948 C 271.716 2.52025 -2.56927 0
M  V30 2949 C 271.324 2.024 -3.99673 0
M  V30 2950 C 273.068 3.29269 -2.67922 0
M  V30 2951 C 270.975 3.12521 -5.0208 0
M  V30 2952 H 269.905 0.523132 -0.542999 0
M  V30 2953 H 272.556 0.685349 -1.70221 0
M  V30 2954 H 270.938 3.25253 -2.25891 0
M  V30 2955 H 272.112 1.36073 -4.40251 0
M  V30 2956 H 270.427 1.37987 -3.92872 0
M  V30 2957 H 273.024 4.11352 -3.41605 0
M  V30 2958 H 273.367 3.78397 -1.73555 0
M  V30 2959 H 273.9 2.63129 -2.98342 0
M  V30 2960 H 270.639 2.68343 -5.98057 0
M  V30 2961 H 270.159 3.77507 -4.66099 0
M  V30 2962 H 271.838 3.77385 -5.25538 0
M  V30 2963 N 271.97 1.30982 0.876444 0
M  V30 2964 C 272.903 1.12414 1.98591 0
M  V30 2965 C 273.881 0.0294078 1.62573 0
M  V30 2966 O 275.065 0.184598 1.87594 0
M  V30 2967 C 272.192 0.716276 3.3104 0
M  V30 2968 C 271.238 1.81311 3.86042 0
M  V30 2969 S 272.071 3.41727 4.1229 0
M  V30 2970 C 273.227 3.02863 5.47745 0
M  V30 2971 H 273.46 2.06338 2.14037 0
M  V30 2972 H 270.993 1.15393 1.02586 0
M  V30 2973 H 272.951 0.487697 4.07593 0
M  V30 2974 H 271.612 -0.203749 3.13438 0
M  V30 2975 H 270.805 1.48021 4.81774 0
M  V30 2976 H 270.407 1.99641 3.16259 0
M  V30 2977 H 272.699 2.51353 6.29148 0
M  V30 2978 H 273.642 3.97533 5.8598 0
M  V30 2979 H 274.05 2.40487 5.10711 0
M  V30 2980 N 273.449 -1.08991 1.13837 0
M  V30 2981 C 274.412 -2.13925 0.822715 0
M  V30 2982 C 275.412 -1.599 -0.1699 0
M  V30 2983 O 276.602 -1.74104 0.0577251 0
M  V30 2984 C 273.734 -3.40155 0.225318 0
M  V30 2985 H 274.927 -2.43358 1.75262 0
M  V30 2986 H 272.48 -1.24603 0.943594 0
M  V30 2987 H 273.215 -3.16352 -0.713594 0
M  V30 2988 H 273 -3.80661 0.940193 0
M  V30 2989 H 274.49 -4.17594 0.0214784 0
M  V30 2990 N 274.927 -0.932562 -1.27047 0
M  V30 2991 C 276.173 -0.576412 -1.94436 0
M  V30 2992 C 276.506 0.880891 -1.73072 0
M  V30 2993 O 275.781 1.62905 -1.06264 0
M  V30 2994 C 276.064 -0.909031 -3.48437 0
M  V30 2995 C 275.917 -2.42044 -3.79123 0
M  V30 2996 C 277.236 -0.418341 -4.38107 0
M  V30 2997 H 274.355 -0.210888 -0.706184 0
M  V30 2998 H 276.997 -1.16522 -1.50075 0
M  V30 2999 H 275.147 -0.407947 -3.86352 0
M  V30 3000 H 276.819 -2.99359 -3.50973 0
M  V30 3001 H 275.062 -2.86758 -3.25503 0
M  V30 3002 H 275.733 -2.6037 -4.86736 0
M  V30 3003 H 278.209 -0.847856 -4.0737 0
M  V30 3004 H 277.085 -0.679981 -5.44672 0
M  V30 3005 H 277.346 0.681642 -4.36814 0
M  V30 3006 N 276.405 1.4127 -0.698611 0
M  V30 3007 C 277.633 2.05503 -0.239992 0
M  V30 3008 C 278.048 1.52584 1.11191 0
M  V30 3009 O 277.405 0.675323 1.69545 0
M  V30 3010 C 277.456 3.60987 -0.192429 0
M  V30 3011 O 277.177 4.1195 -1.49094 0
M  V30 3012 C 278.678 4.42371 0.28681 0
M  V30 3013 H 275.898 0.661748 -0.111045 0
M  V30 3014 H 278.442 1.80987 -0.95205 0
M  V30 3015 H 276.597 3.84533 0.470472 0
M  V30 3016 H 277.011 5.06018 -1.38007 0
M  V30 3017 H 278.485 5.51344 0.26896 0
M  V30 3018 H 278.962 4.18699 1.32619 0
M  V30 3019 H 279.568 4.23897 -0.345201 0
M  V30 3020 N 277.883 0.443576 1.51229 0
M  V30 3021 C 279.111 -0.11929 2.06556 0
M  V30 3022 C 279.526 -1.35921 1.31038 0
M  V30 3023 O 278.883 -1.78675 0.371704 0
M  V30 3024 C 278.934 -0.435228 3.5887 0
M  V30 3025 O 278.655 0.755486 4.31537 0
M  V30 3026 C 280.156 -1.04808 4.30732 0
M  V30 3027 H 277.376 -0.0051584 0.67098 0
M  V30 3028 H 279.92 0.624453 1.94733 0
M  V30 3029 H 278.075 -1.12887 3.70588 0
M  V30 3030 H 278.489 0.483491 5.22267 0
M  V30 3031 H 279.963 -1.2191 5.3837 0
M  V30 3032 H 280.44 -2.03081 3.89429 0
M  V30 3033 H 281.046 -0.393637 4.23474 0
M  V30 3034 N 279.361 -1.56624 0.175154 0
M  V30 3035 C 280.311 -2.14747 -0.766004 0
M  V30 3036 C 281.295 -1.08275 -1.19018 0
M  V30 3037 O 282.487 -1.34388 -1.15191 0
M  V30 3038 C 279.616 -2.79478 -1.99366 0
M  V30 3039 C 278.702 -3.93114 -1.5913 0
M  V30 3040 N 279.093 -4.97752 -0.89872 0
M  V30 3041 C 277.391 -4.04345 -1.88204 0
M  V30 3042 C 278.092 -5.77473 -0.700012 0
M  V30 3043 N 277.068 -5.29207 -1.24263 0
M  V30 3044 H 280.87 -2.93015 -0.22793 0
M  V30 3045 H 278.384 -1.6238 -0.0253843 0
M  V30 3046 H 280.381 -3.19498 -2.67818 0
M  V30 3047 H 279.041 -2.02692 -2.53665 0
M  V30 3048 H 280.052 -5.14903 -0.556347 0
M  V30 3049 H 276.729 -3.38667 -2.44153 0
M  V30 3050 H 278.119 -6.71728 -0.152047 0
M  V30 3051 N 280.839 0.0985539 -1.57292 0
M  V30 3052 C 281.802 1.10402 -2.00858 0
M  V30 3053 C 282.802 1.33146 -0.901593 0
M  V30 3054 O 283.992 1.29318 -1.16716 0
M  V30 3055 C 281.124 2.45394 -2.36632 0
M  V30 3056 H 282.317 0.729099 -2.90902 0
M  V30 3057 H 279.87 0.343495 -1.52479 0
M  V30 3058 H 280.605 2.87769 -1.49531 0
M  V30 3059 H 280.39 2.30235 -3.17387 0
M  V30 3060 H 281.88 3.17718 -2.71007 0
M  V30 3061 N 282.317 1.53212 0.369288 0
M  V30 3062 C 283.247 1.82365 1.45826 0
M  V30 3063 C 284.228 0.676907 1.56051 0
M  V30 3064 O 285.413 0.926401 1.70679 0
M  V30 3065 C 282.543 2.01023 2.83208 0
M  V30 3066 C 281.497 3.1678 2.8781 0
M  V30 3067 C 280.823 3.20724 4.27832 0
M  V30 3068 C 282.123 4.55447 2.55667 0
M  V30 3069 H 283.817 2.73559 1.21678 0
M  V30 3070 H 281.363 1.3163 0.583911 0
M  V30 3071 H 283.316 2.20001 3.59413 0
M  V30 3072 H 282.04 1.06536 3.08736 0
M  V30 3073 H 280.699 2.97616 2.14056 0
M  V30 3074 H 280.347 2.23882 4.50429 0
M  V30 3075 H 280.047 3.98496 4.31827 0
M  V30 3076 H 281.571 3.41881 5.05915 0
M  V30 3077 H 282.985 4.74611 3.21586 0
M  V30 3078 H 281.382 5.35432 2.70984 0
M  V30 3079 H 282.452 4.60812 1.5093 0
M  V30 3080 N 283.795 -0.628877 1.44509 0
M  V30 3081 C 285.072 -1.38733 1.37886 0
M  V30 3082 C 285.452 -2.11065 0.0387008 0
M  V30 3083 O 284.8 -2.06476 -0.97878 0
M  V30 3084 C 285.01 -2.35188 2.57852 0
M  V30 3085 C 286.358 -2.9845 3.02014 0
M  V30 3086 O 287.382 -2.45513 2.58073 0
M  V30 3087 O 286.241 -3.94487 3.78209 0
M  V30 3088 H 283.335 -0.621015 0.54614 0
M  V30 3089 H 285.881 -0.653744 1.56602 0
M  V30 3090 H 284.653 -1.80855 3.46998 0
M  V30 3091 H 284.276 -3.1596 2.4136 0
M  V30 3092 N 285.273 -1.31445 -0.869486 0
M  V30 3093 C 286.203 -1.21727 -1.99261 0
M  V30 3094 C 287.184 -0.104359 -1.6978 0
M  V30 3095 O 288.369 -0.289038 -1.92037 0
M  V30 3096 C 285.499 -0.924317 -3.34774 0
M  V30 3097 C 284.453 -1.99685 -3.78563 0
M  V30 3098 C 283.779 -1.55658 -5.11541 0
M  V30 3099 C 285.079 -3.41003 -3.95619 0
M  V30 3100 H 286.773 -2.1569 -2.07649 0
M  V30 3101 H 284.319 -1.03839 -0.997675 0
M  V30 3102 H 286.272 -0.842934 -4.12883 0
M  V30 3103 H 284.996 0.0509793 -3.2656 0
M  V30 3104 H 283.655 -2.06813 -3.02694 0
M  V30 3105 H 283.303 -0.569132 -4.9977 0
M  V30 3106 H 283.003 -2.27409 -5.41811 0
M  V30 3107 H 284.527 -1.48928 -5.92159 0
M  V30 3108 H 285.941 -3.36547 -4.64122 0
M  V30 3109 H 284.338 -4.10975 -4.37286 0
M  V30 3110 H 285.408 -3.81754 -2.98985 0
M  V30 3111 N 286.751 1.08385 -1.14413 0
M  V30 3112 C 287.999 1.80419 -0.910679 0
M  V30 3113 C 288.32 1.86658 0.564243 0
M  V30 3114 O 287.59 1.35985 1.41014 0
M  V30 3115 H 286.17 0.668204 -0.333934 0
M  V30 3116 H 288.832 1.31037 -1.44275 0
M  V30 3117 H 287.928 2.83238 -1.31082 0
M  V30 3118 N 288.23 0.939286 1.26551 0
M  V30 3119 C 289.193 0.451987 2.24699 0
M  V30 3120 C 290.193 -0.435869 1.5478 0
M  V30 3121 O 291.383 -0.235314 1.72603 0
M  V30 3122 C 288.515 -0.348801 3.39111 0
M  V30 3123 H 289.708 1.3193 2.69322 0
M  V30 3124 H 287.261 0.721072 1.38673 0
M  V30 3125 H 287.996 -1.23444 2.99887 0
M  V30 3126 H 287.781 0.287945 3.91041 0
M  V30 3127 H 289.271 -0.679726 4.12031 0
M  V30 3128 N 289.708 -1.40897 0.706093 0
M  V30 3129 C 290.641 -2.282 -0.00328781 0
M  V30 3130 C 291.619 -1.42816 -0.77732 0
M  V30 3131 O 292.803 -1.72237 -0.765944 0
M  V30 3132 C 289.93 -3.23226 -1.01205 0
M  V30 3133 C 288.976 -4.25222 -0.329955 0
M  V30 3134 S 289.809 -5.27269 0.935298 0
M  V30 3135 C 290.965 -6.25859 -0.0716061 0
M  V30 3136 H 291.198 -2.88016 0.737143 0
M  V30 3137 H 288.731 -1.46191 0.496756 0
M  V30 3138 H 290.689 -3.78503 -1.58888 0
M  V30 3139 H 289.35 -2.62485 -1.72513 0
M  V30 3140 H 288.543 -4.92023 -1.09221 0
M  V30 3141 H 288.145 -3.73595 0.174069 0
M  V30 3142 H 290.437 -6.71204 -0.921521 0
M  V30 3143 H 291.38 -7.0586 0.562765 0
M  V30 3144 H 291.788 -5.62852 -0.431088 0
M  V30 3145 N 291.186 -0.45159 -1.50991 0
M  V30 3146 C 292.414 0.108334 -2.06616 0
M  V30 3147 C 292.829 1.35224 -1.31757 0
M  V30 3148 O 292.186 1.78475 -0.381174 0
M  V30 3149 C 292.237 0.41619 -3.59096 0
M  V30 3150 O 291.958 -0.778361 -4.3113 0
M  V30 3151 C 293.459 1.02523 -4.31282 0
M  V30 3152 H 290.679 0.00159995 -0.670998 0
M  V30 3153 H 293.223 -0.634771 -1.94399 0
M  V30 3154 H 291.378 1.10921 -3.71181 0
M  V30 3155 H 291.792 -0.511181 -5.22003 0
M  V30 3156 H 293.266 1.19053 -5.39009 0
M  V30 3157 H 293.743 2.01013 -3.905 0
M  V30 3158 H 294.349 0.371173 -4.23677 0
M  V30 3159 N 292.664 1.56529 -0.183458 0
M  V30 3160 C 294.075 1.83739 0.331177 0
M  V30 3161 C 294.426 1.10373 1.62211 0
M  V30 3162 O 293.551 0.36071 2.13373 0
M  V30 3163 C 294.146 3.33306 0.607646 0
M  V30 3164 C 292.705 3.60969 1.06668 0
M  V30 3165 C 291.852 2.77086 0.109029 0
M  V30 3166 H 294.803 1.53379 -0.407484 0
M  V30 3167 H 294.824 3.51444 1.45832 0
M  V30 3168 H 294.336 3.86677 -0.332086 0
M  V30 3169 H 292.437 3.13021 2.0211 0
M  V30 3170 H 292.55 4.69231 0.967447 0
M  V30 3171 H 290.914 2.47319 0.608714 0
M  V30 3172 H 291.697 3.33241 -0.82494 0
M  V30 3173 N 294.142 -0.090211 1.57342 0
M  V30 3174 C 295.389 -0.792807 1.86335 0
M  V30 3175 C 295.717 -1.78494 0.772662 0
M  V30 3176 O 294.972 -1.94305 -0.233258 0
M  V30 3177 C 295.271 -1.55222 3.21933 0
M  V30 3178 C 294.937 -0.701765 4.45406 0
M  V30 3179 C 293.599 -0.467334 4.78925 0
M  V30 3180 C 295.951 -0.11086 5.21082 0
M  V30 3181 C 293.279 0.367785 5.85546 0
M  V30 3182 C 295.631 0.711609 6.28585 0
M  V30 3183 C 294.295 0.956086 6.60617 0
M  V30 3184 H 293.565 -0.290109 0.681849 0
M  V30 3185 H 296.212 -0.0541332 1.91423 0
M  V30 3186 H 294.517 -2.3626 3.12551 0
M  V30 3187 H 296.214 -2.10032 3.41595 0
M  V30 3188 H 292.804 -0.894598 4.1916 0
M  V30 3189 H 296.988 -0.279129 4.95514 0
M  V30 3190 H 292.244 0.566128 6.08773 0
M  V30 3191 H 296.418 1.17632 6.86393 0
M  V30 3192 H 294.045 1.60499 7.43064 0
M  V30 3193 N 295.62 -1.53406 -0.361157 0
M  V30 3194 C 296.867 -1.69802 -1.10333 0
M  V30 3195 C 297.195 -0.452087 -1.89173 0
M  V30 3196 O 296.45 0.566017 -1.87336 0
M  V30 3197 C 296.749 -2.90211 -2.08596 0
M  V30 3198 C 296.415 -4.26539 -1.46203 0
M  V30 3199 C 295.077 -4.6361 -1.28915 0
M  V30 3200 C 297.429 -5.113 -1.01101 0
M  V30 3201 C 294.757 -5.83075 -0.651157 0
M  V30 3202 C 297.109 -6.31415 -0.387007 0
M  V30 3203 C 295.773 -6.67195 -0.201657 0
M  V30 3204 H 295.043 -0.621351 -0.403737 0
M  V30 3205 H 297.69 -1.87598 -0.384609 0
M  V30 3206 H 295.995 -2.66946 -2.86788 0
M  V30 3207 H 297.692 -3.00091 -2.65982 0
M  V30 3208 H 294.282 -3.97352 -1.60653 0
M  V30 3209 H 298.466 -4.83206 -1.13249 0
M  V30 3210 H 293.722 -6.09385 -0.496006 0
M  V30 3211 H 297.896 -6.96394 -0.0293563 0
M  V30 3212 H 295.523 -7.59628 0.294766 0
M  V30 3213 N 297.098 0.621204 -1.44841 0
M  V30 3214 C 298.344 1.38073 -1.49357 0
M  V30 3215 C 298.699 1.91973 -0.128115 0
M  V30 3216 O 297.992 1.71311 0.858087 0
M  V30 3217 C 298.186 2.55675 -2.4973 0
M  V30 3218 C 298.015 2.13289 -3.95901 0
M  V30 3219 C 296.785 2.001 -4.63991 0
M  V30 3220 C 298.983 1.7159 -4.84831 0
M  V30 3221 N 296.965 1.51381 -5.94943 0
M  V30 3222 C 298.336 1.34188 -6.05304 0
M  V30 3223 C 300.391 1.59059 -4.7181 0
M  V30 3224 C 299.094 0.855085 -7.14199 0
M  V30 3225 C 301.12 1.11784 -5.8074 0
M  V30 3226 C 300.482 0.753385 -7.0036 0
M  V30 3227 H 296.581 0.499675 -0.601539 0
M  V30 3228 H 299.165 0.711609 -1.8123 0
M  V30 3229 H 297.336 3.20201 -2.19832 0
M  V30 3230 H 299.068 3.22509 -2.4448 0
M  V30 3231 H 295.823 2.20863 -4.18947 0
M  V30 3232 H 296.247 1.29293 -6.64539 0
M  V30 3233 H 300.889 1.85865 -3.79755 0
M  V30 3234 H 298.607 0.574552 -8.06055 0
M  V30 3235 H 302.193 1.02533 -5.72694 0
M  V30 3236 H 301.073 0.393183 -7.83214 0
M  V30 3237 N 298.576 1.31904 0.862503 0
M  V30 3238 C 299.506 1.22782 1.98612 0
M  V30 3239 C 300.487 0.113362 1.69722 0
M  V30 3240 O 301.672 0.299218 1.91881 0
M  V30 3241 C 298.802 0.942058 3.34279 0
M  V30 3242 C 297.756 2.0169 3.77499 0
M  V30 3243 C 297.082 1.58369 5.10709 0
M  V30 3244 C 298.382 3.43096 3.93805 0
M  V30 3245 H 300.076 2.16788 2.06502 0
M  V30 3246 H 297.622 1.04366 0.992154 0
M  V30 3247 H 299.575 0.864818 4.1243 0
M  V30 3248 H 298.299 -0.0336603 3.26583 0
M  V30 3249 H 296.958 2.08416 3.01593 0
M  V30 3250 H 296.606 0.595628 4.99461 0
M  V30 3251 H 296.306 2.30279 5.40597 0
M  V30 3252 H 297.83 1.52067 5.91361 0
M  V30 3253 H 299.244 3.39003 4.62331 0
M  V30 3254 H 297.641 4.13288 4.35101 0
M  V30 3255 H 298.711 3.83334 2.96957 0
M  V30 3256 N 300.054 -1.07777 1.14986 0
M  V30 3257 C 301.301 -1.8029 0.922056 0
M  V30 3258 C 301.629 -1.86531 -0.55105 0
M  V30 3259 O 300.884 -1.34189 -1.42449 0
M  V30 3260 C 301.183 -3.25495 1.47608 0
M  V30 3261 C 300.849 -3.39361 2.96893 0
M  V30 3262 C 299.511 -3.42852 3.37647 0
M  V30 3263 C 301.863 -3.42512 3.92854 0
M  V30 3264 C 299.191 -3.47094 4.73015 0
M  V30 3265 C 301.543 -3.4829 5.28088 0
M  V30 3266 C 300.207 -3.50058 5.68345 0
M  V30 3267 H 299.477 -0.659727 0.337404 0
M  V30 3268 H 302.124 -1.26854 1.43459 0
M  V30 3269 H 300.429 -3.81683 0.88463 0
M  V30 3270 H 302.126 -3.80168 1.27568 0
M  V30 3271 H 298.716 -3.37339 2.64387 0
M  V30 3272 H 302.9 -3.3904 3.62444 0
M  V30 3273 H 298.156 -3.46758 5.03556 0
M  V30 3274 H 302.33 -3.49675 6.02246 0
M  V30 3275 H 299.957 -3.53097 6.73221 0
M  V30 3276 N 301.532 -0.945985 -1.26051 0
M  V30 3277 C 302.442 -0.465633 -2.29933 0
M  V30 3278 C 303.458 0.462761 -1.67733 0
M  V30 3279 O 304.634 0.341118 -1.9849 0
M  V30 3280 C 301.699 0.256994 -3.45746 0
M  V30 3281 C 300.76 -0.708549 -4.23412 0
M  V30 3282 C 299.993 -0.0203135 -5.33696 0
M  V30 3283 O 300.216 1.19571 -5.57726 0
M  V30 3284 O 299.15 -0.701459 -5.97799 0
M  V30 3285 H 302.976 -1.32866 -2.73094 0
M  V30 3286 H 300.561 -0.712071 -1.31339 0
M  V30 3287 H 302.443 0.663852 -4.16138 0
M  V30 3288 H 301.118 1.09533 -3.04605 0
M  V30 3289 H 300.025 -1.16545 -3.55483 0
M  V30 3290 H 301.358 -1.51465 -4.68315 0
M  V30 3291 N 303.011 1.40521 -0.713556 0
M  V30 3292 C 303.921 2.34522 -0.0606667 0
M  V30 3293 C 304.937 1.57193 0.74607 0
M  V30 3294 O 306.113 1.89591 0.679493 0
M  V30 3295 C 303.178 3.36081 0.851491 0
M  V30 3296 C 302.239 4.29286 0.0349339 0
M  V30 3297 C 301.472 5.25994 0.903649 0
M  V30 3298 O 301.695 5.28616 2.14292 0
M  V30 3299 O 300.629 6.00918 0.343723 0
M  V30 3300 H 304.455 2.91968 -0.835972 0
M  V30 3301 H 302.04 1.41681 -0.47402 0
M  V30 3302 H 303.922 3.98369 1.37404 0
M  V30 3303 H 302.597 2.81052 1.60598 0
M  V30 3304 H 301.504 3.70289 -0.532633 0
M  V30 3305 H 302.837 4.87462 -0.681287 0
M  V30 3306 N 304.489 0.459591 1.5075 0
M  V30 3307 C 305.905 0.113092 1.59199 0
M  V30 3308 C 306.105 -1.37951 1.46874 0
M  V30 3309 O 305.161 -2.15168 1.32132 0
M  V30 3310 C 306.474 0.653043 2.93523 0
M  V30 3311 C 308.022 0.615449 3.0689 0
M  V30 3312 C 308.497 1.13275 4.43771 0
M  V30 3313 N 309.988 1.09167 4.50152 0
M  V30 3314 C 310.723 1.46256 5.54434 0
M  V30 3315 N 310.219 1.90739 6.66026 0
M  V30 3316 N 312.012 1.37932 5.44914 0
M  V30 3317 H 304.163 1.43049 1.57005 0
M  V30 3318 H 306.426 0.590861 0.741341 0
M  V30 3319 H 306.132 1.69822 3.07983 0
M  V30 3320 H 306.006 0.0902132 3.77092 0
M  V30 3321 H 308.393 -0.420793 2.92084 0
M  V30 3322 H 308.474 1.21495 2.25106 0
M  V30 3323 H 308.118 2.16757 4.59324 0
M  V30 3324 H 308.048 0.509576 5.24129 0
M  V30 3325 H 310.539 0.76528 3.7007 0
M  V30 3326 H 310.852 2.17218 7.41644 0
M  V30 3327 H 309.197 1.94683 6.67176 0
M  V30 3328 H 312.388 1.0303 4.56621 0
M  V30 3329 H 312.561 1.67164 6.26067 0
M  V30 3330 N 305.967 -1.56429 0.191757 0
M  V30 3331 C 306.877 -2.22541 -0.742481 0
M  V30 3332 C 307.893 -1.22342 -1.23727 0
M  V30 3333 O 309.069 -1.55069 -1.28513 0
M  V30 3334 C 306.134 -2.8692 -1.94623 0
M  V30 3335 C 305.195 -4.02378 -1.49633 0
M  V30 3336 C 304.428 -4.63678 -2.6427 0
M  V30 3337 O 304.651 -4.23895 -3.81666 0
M  V30 3338 O 303.585 -5.53202 -2.37174 0
M  V30 3339 H 307.411 -3.02977 -0.209462 0
M  V30 3340 H 304.996 -1.49353 -0.0373832 0
M  V30 3341 H 306.878 -3.27663 -2.64982 0
M  V30 3342 H 305.553 -2.09466 -2.46791 0
M  V30 3343 H 304.46 -3.66265 -0.761636 0
M  V30 3344 H 305.793 -4.81487 -1.02134 0
M  V30 3345 N 307.445 0.0818655 -1.57387 0
M  V30 3346 C 308.392 1.09834 -2.0299 0
M  V30 3347 C 309.362 1.39043 -0.908639 0
M  V30 3348 O 310.547 1.50282 -1.17559 0
M  V30 3349 C 307.687 2.40971 -2.47037 0
M  V30 3350 C 306.8 2.18379 -3.7274 0
M  V30 3351 C 305.935 3.43008 -4.0561 0
M  V30 3352 C 304.974 3.15736 -5.24383 0
M  V30 3353 N 304.111 4.32667 -5.52941 0
M  V30 3354 H 308.951 0.702472 -2.89602 0
M  V30 3355 H 306.488 0.33531 -1.43227 0
M  V30 3356 H 308.446 3.1752 -2.70623 0
M  V30 3357 H 307.076 2.78379 -1.63417 0
M  V30 3358 H 306.128 1.32569 -3.56552 0
M  V30 3359 H 307.44 1.94227 -4.59431 0
M  V30 3360 H 306.594 4.27958 -4.30043 0
M  V30 3361 H 305.333 3.70225 -3.17466 0
M  V30 3362 H 304.338 2.2918 -4.99757 0
M  V30 3363 H 305.563 2.8985 -6.14136 0
M  V30 3364 H 303.509 4.59935 -4.67756 0
M  V30 3365 H 303.426 4.11753 -6.34031 0
M  V30 3366 H 304.694 5.18644 -5.81918 0
M  V30 3367 N 308.923 1.53595 0.353017 0
M  V30 3368 C 309.856 1.7572 1.45594 0
M  V30 3369 C 310.834 0.605961 1.50887 0
M  V30 3370 O 312.018 0.840023 1.68748 0
M  V30 3371 C 309.145 1.84732 2.83887 0
M  V30 3372 C 308.191 3.06808 2.96262 0
M  V30 3373 S 309.024 4.66065 2.63711 0
M  V30 3374 C 310.18 4.77943 4.04131 0
M  V30 3375 H 310.413 2.68994 1.26608 0
M  V30 3376 H 307.946 1.44343 0.548117 0
M  V30 3377 H 309.904 1.9061 3.63563 0
M  V30 3378 H 308.565 0.92488 3.00175 0
M  V30 3379 H 307.758 3.09761 3.97573 0
M  V30 3380 H 307.36 2.99108 2.24523 0
M  V30 3381 H 309.652 4.5877 4.98534 0
M  V30 3382 H 310.595 5.80022 4.06177 0
M  V30 3383 H 311.003 4.06472 3.91715 0
M  V30 3384 N 310.401 -0.613514 1.45168 0
M  V30 3385 C 311.648 -1.37268 1.48875 0
M  V30 3386 C 311.976 -1.94077 0.128161 0
M  V30 3387 O 311.231 -1.75178 -0.872416 0
M  V30 3388 C 311.53 -2.54347 2.51083 0
M  V30 3389 C 311.196 -2.1572 3.95949 0
M  V30 3390 C 309.858 -2.04899 4.35396 0
M  V30 3391 C 312.21 -1.85485 4.87078 0
M  V30 3392 C 309.538 -1.62057 5.63875 0
M  V30 3393 C 311.89 -1.4413 6.15962 0
M  V30 3394 C 310.554 -1.31863 6.54346 0
M  V30 3395 H 309.824 -0.502299 0.544773 0
M  V30 3396 H 312.471 -0.694021 1.78481 0
M  V30 3397 H 310.776 -3.27524 2.15024 0
M  V30 3398 H 312.473 -3.12577 2.51191 0
M  V30 3399 H 309.063 -2.25066 3.64751 0
M  V30 3400 H 313.247 -1.92745 4.57343 0
M  V30 3401 H 308.503 -1.51177 5.92415 0
M  V30 3402 H 312.677 -1.19778 6.86022 0
M  V30 3403 H 310.304 -0.984392 7.538 0
M  V30 3404 N 311.879 -1.3236 -0.855495 0
M  V30 3405 C 312.789 -1.23221 -1.99634 0
M  V30 3406 C 313.805 -0.145983 -1.73387 0
M  V30 3407 O 314.981 -0.366502 -1.98037 0
M  V30 3408 C 312.046 -0.954782 -3.33294 0
M  V30 3409 C 311.107 -2.12937 -3.72769 0
M  V30 3410 C 310.34 -1.86508 -5.00051 0
M  V30 3411 O 310.563 -0.807231 -5.64659 0
M  V30 3412 O 309.497 -2.72591 -5.36636 0
M  V30 3413 H 313.323 -2.19126 -2.1028 0
M  V30 3414 H 310.908 -1.12241 -0.986018 0
M  V30 3415 H 312.79 -0.816519 -4.13414 0
M  V30 3416 H 311.465 -0.0258854 -3.2369 0
M  V30 3417 H 310.372 -2.3231 -2.93228 0
M  V30 3418 H 311.705 -3.04102 -3.87018 0
M  V30 3419 N 313.357 1.07166 -1.15556 0
M  V30 3420 C 314.604 1.79798 -0.931604 0
M  V30 3421 C 314.932 1.8682 0.54115 0
M  V30 3422 O 314.187 1.34942 1.41736 0
M  V30 3423 C 314.486 3.24707 -1.49332 0
M  V30 3424 C 314.152 3.37781 -2.98688 0
M  V30 3425 C 312.814 3.41057 -3.39461 0
M  V30 3426 C 315.166 3.40424 -3.94665 0
M  V30 3427 C 312.494 3.4458 -4.74849 0
M  V30 3428 C 314.846 3.45485 -5.29927 0
M  V30 3429 C 313.51 3.47039 -5.70193 0
M  V30 3430 H 312.78 0.657928 -0.340898 0
M  V30 3431 H 315.427 1.26091 -1.44129 0
M  V30 3432 H 313.732 3.81208 -0.904859 0
M  V30 3433 H 315.429 3.79486 -1.29582 0
M  V30 3434 H 312.019 3.35932 -2.66172 0
M  V30 3435 H 316.203 3.37113 -3.64237 0
M  V30 3436 H 311.459 3.44083 -5.05388 0
M  V30 3437 H 315.633 3.46476 -6.04092 0
M  V30 3438 H 313.26 3.49522 -6.75084 0
M  V30 3439 N 314.835 0.952656 1.25548 0
M  V30 3440 C 316.065 0.622592 1.96996 0
M  V30 3441 C 316.473 -0.809112 1.71026 0
M  V30 3442 O 315.816 -1.55258 0.981861 0
M  V30 3443 C 315.878 0.798946 3.5051 0
M  V30 3444 C 315.542 2.20744 4.00151 0
M  V30 3445 C 316.539 3.18394 4.11001 0
M  V30 3446 C 314.224 2.5311 4.33867 0
M  V30 3447 C 316.218 4.46504 4.54877 0
M  V30 3448 C 313.905 3.8145 4.7743 0
M  V30 3449 C 314.903 4.77959 4.87897 0
M  V30 3450 O 314.591 6.04012 5.30494 0
M  V30 3451 H 314.323 0.232503 0.634758 0
M  V30 3452 H 316.877 1.2789 1.60728 0
M  V30 3453 H 315.107 0.0854903 3.86605 0
M  V30 3454 H 316.796 0.47023 4.03167 0
M  V30 3455 H 317.562 2.94715 3.85186 0
M  V30 3456 H 313.441 1.78719 4.24948 0
M  V30 3457 H 316.985 5.21835 4.62962 0
M  V30 3458 H 312.882 4.04936 5.0269 0
M  V30 3459 H 313.65 6.0736 5.48685 0
M  V30 3460 N 316.313 -1.40141 0.720998 0
M  V30 3461 C 317.223 -2.34486 0.0731031 0
M  V30 3462 C 318.239 -1.57587 -0.737723 0
M  V30 3463 O 319.415 -1.89949 -0.669429 0
M  V30 3464 C 316.48 -3.36528 -0.833656 0
M  V30 3465 C 315.541 -4.29298 -0.0121673 0
M  V30 3466 C 314.774 -5.26466 -0.875742 0
M  V30 3467 O 314.997 -5.29745 -2.11485 0
M  V30 3468 O 313.931 -6.01092 -0.31185 0
M  V30 3469 H 317.757 -2.9152 0.851444 0
M  V30 3470 H 315.342 -1.41427 0.481527 0
M  V30 3471 H 317.224 -3.99093 -1.35289 0
M  V30 3472 H 315.899 -2.81899 -1.59105 0
M  V30 3473 H 314.806 -3.70001 0.552262 0
M  V30 3474 H 316.139 -4.87094 0.707129 0
M  V30 3475 N 317.792 -0.46758 -1.50504 0
M  V30 3476 C 319.208 -0.121533 -1.59137 0
M  V30 3477 C 319.408 1.3717 -1.47603 0
M  V30 3478 O 318.464 2.14464 -1.33272 0
M  V30 3479 C 319.777 -0.6686 -2.93173 0
M  V30 3480 C 321.325 -0.631716 -3.06559 0
M  V30 3481 C 321.8 -1.15627 -4.43164 0
M  V30 3482 N 323.291 -1.11553 -4.49567 0
M  V30 3483 C 324.026 -1.49195 -5.5365 0
M  V30 3484 N 323.522 -1.94269 -6.65005 0
M  V30 3485 N 325.315 -1.4082 -5.44175 0
M  V30 3486 H 317.466 -1.4388 -1.56245 0
M  V30 3487 H 319.729 -0.594784 -0.738198 0
M  V30 3488 H 319.435 -1.71453 -3.07078 0
M  V30 3489 H 319.309 -0.11021 -3.77039 0
M  V30 3490 H 321.696 0.405297 -2.92304 0
M  V30 3491 H 321.777 -1.22687 -2.24458 0
M  V30 3492 H 321.421 -2.1919 -4.58168 0
M  V30 3493 H 321.351 -0.537365 -5.23851 0
M  V30 3494 H 323.842 -0.784895 -3.69659 0
M  V30 3495 H 324.155 -2.21148 -7.40482 0
M  V30 3496 H 322.5 -1.98219 -6.66134 0
M  V30 3497 H 325.691 -1.0545 -4.56068 0
M  V30 3498 H 325.864 -1.70481 -6.25172 0
M  V30 3499 N 319.27 1.56325 -0.20005 0
M  V30 3500 C 320.516 1.98012 0.438059 0
M  V30 3501 C 320.849 1.08702 1.60927 0
M  V30 3502 O 320.124 0.140064 1.93995 0
M  V30 3503 C 320.407 3.48841 0.893419 0
M  V30 3504 C 320.26 4.48928 -0.279947 0
M  V30 3505 C 321.579 4.03498 1.75719 0
M  V30 3506 H 318.698 0.719918 0.157757 0
M  V30 3507 H 321.34 1.87743 -0.291968 0
M  V30 3508 H 319.49 3.57723 1.51547 0
M  V30 3509 H 321.162 4.52079 -0.91772 0
M  V30 3510 H 319.405 4.23694 -0.930919 0
M  V30 3511 H 320.076 5.5194 0.0812601 0
M  V30 3512 H 322.552 3.97427 1.23253 0
M  V30 3513 H 321.428 5.09393 2.04476 0
M  V30 3514 H 321.689 3.4906 2.71311 0
M  V30 3515 N 320.748 -0.0735177 1.57428 0
M  V30 3516 C 321.973 -0.789787 1.91774 0
M  V30 3517 C 322.398 -1.70413 0.796306 0
M  V30 3518 O 321.756 -1.79555 -0.250961 0
M  V30 3519 C 321.804 -1.5609 3.25067 0
M  V30 3520 O 320.908 -2.67144 3.14178 0
M  V30 3521 H 320.249 -0.215582 0.628029 0
M  V30 3522 H 322.779 -0.0422781 2.04556 0
M  V30 3523 H 322.789 -1.94052 3.58898 0
M  V30 3524 H 321.464 -0.890015 4.06265 0
M  V30 3525 H 320.041 -2.32052 2.91901 0
M  V30 3526 N 322.226 -1.5378 -0.344866 0
M  V30 3527 C 323.474 -1.70625 -1.08311 0
M  V30 3528 C 323.795 -0.471447 -1.89215 0
M  V30 3529 O 323.065 0.514616 -1.8902 0
M  V30 3530 H 321.645 -0.629058 -0.402859 0
M  V30 3531 H 324.307 -1.9103 -0.386459 0
M  V30 3532 H 323.403 -2.57656 -1.76124 0
M  V30 3533 N 323.704 0.605807 -1.45491 0
M  V30 3534 C 324.667 1.69836 -1.5391 0
M  V30 3535 C 325.667 1.55261 -0.418424 0
M  V30 3536 O 326.857 1.60296 -0.681965 0
M  V30 3537 C 323.989 3.09117 -1.43734 0
M  V30 3538 H 325.182 1.63738 -2.51257 0
M  V30 3539 H 322.735 0.821689 -1.32959 0
M  V30 3540 H 323.47 3.20791 -0.475788 0
M  V30 3541 H 323.255 3.21104 -2.25021 0
M  V30 3542 H 324.745 3.88696 -1.52661 0
M  V30 3543 N 325.182 1.32811 0.848464 0
M  V30 3544 C 326.598 1.11937 1.13764 0
M  V30 3545 C 326.798 -0.0960789 2.01271 0
M  V30 3546 O 325.854 -0.779165 2.40178 0
M  V30 3547 C 327.167 2.402 1.809 0
M  V30 3548 C 328.715 2.46016 1.93508 0
M  V30 3549 C 329.19 3.74215 2.64059 0
M  V30 3550 N 330.681 3.75232 2.71579 0
M  V30 3551 C 331.416 4.71134 3.26833 0
M  V30 3552 N 330.912 5.77406 3.8285 0
M  V30 3553 N 332.705 4.58623 3.24995 0
M  V30 3554 H 324.856 2.1073 0.265855 0
M  V30 3555 H 327.119 0.930671 0.180431 0
M  V30 3556 H 326.825 3.29093 1.24058 0
M  V30 3557 H 326.699 2.51628 2.81004 0
M  V30 3558 H 329.086 1.57577 2.49506 0
M  V30 3559 H 329.167 2.38536 0.923811 0
M  V30 3560 H 328.811 4.63031 2.08722 0
M  V30 3561 H 328.741 3.78968 3.65637 0
M  V30 3562 H 331.232 2.98423 2.31845 0
M  V30 3563 H 331.545 6.46632 4.23187 0
M  V30 3564 H 329.89 5.81152 3.81165 0
M  V30 3565 H 333.081 3.74762 2.80484 0
M  V30 3566 H 333.254 5.33535 3.67756 0
M  V30 3567 N 326.66 -1.06551 1.16123 0
M  V30 3568 C 327.593 -2.13382 0.80892 0
M  V30 3569 C 328.571 -1.61128 -0.21827 0
M  V30 3570 O 329.755 -1.88219 -0.102952 0
M  V30 3571 C 326.882 -3.38083 0.204303 0
M  V30 3572 C 325.928 -4.09133 1.20469 0
M  V30 3573 S 326.761 -4.5948 2.75024 0
M  V30 3574 C 327.917 -5.87446 2.16005 0
M  V30 3575 H 328.15 -2.42937 1.71373 0
M  V30 3576 H 325.683 -1.18947 0.984428 0
M  V30 3577 H 327.641 -4.10268 -0.138081 0
M  V30 3578 H 326.302 -3.0669 -0.678234 0
M  V30 3579 H 325.495 -4.98685 0.730019 0
M  V30 3580 H 325.097 -3.4295 1.49202 0
M  V30 3581 H 327.389 -6.60065 1.5271 0
M  V30 3582 H 328.332 -6.39639 3.03756 0
M  V30 3583 H 328.74 -5.41354 1.59989 0
M  V30 3584 N 328.138 -0.959301 -1.25041 0
M  V30 3585 C 329.088 -0.453888 -2.23436 0
M  V30 3586 C 330.072 0.459461 -1.542 0
M  V30 3587 O 331.264 0.291752 -1.74579 0
M  V30 3588 C 328.393 0.262667 -3.42294 0
M  V30 3589 C 327.479 -0.669022 -4.1879 0
M  V30 3590 N 327.87 -1.80267 -4.72586 0
M  V30 3591 C 326.168 -0.47814 -4.4343 0
M  V30 3592 C 326.869 -2.38475 -5.3057 0
M  V30 3593 N 325.845 -1.67078 -5.17287 0
M  V30 3594 H 329.647 -1.319 -2.6264 0
M  V30 3595 H 327.161 -0.817358 -1.40332 0
M  V30 3596 H 329.158 0.641911 -4.11929 0
M  V30 3597 H 327.818 1.12432 -3.04613 0
M  V30 3598 H 328.829 -2.18442 -4.69578 0
M  V30 3599 H 325.506 0.340249 -4.16111 0
M  V30 3600 H 326.896 -3.34094 -5.8295 0
M  V30 3601 N 329.616 1.39756 -0.72842 0
M  V30 3602 C 330.579 2.29012 -0.0927297 0
M  V30 3603 C 331.579 1.45992 0.674025 0
M  V30 3604 O 332.769 1.66749 0.50402 0
M  V30 3605 C 329.901 3.29396 0.878137 0
M  V30 3606 H 331.094 2.86729 -0.879011 0
M  V30 3607 H 328.647 1.48293 -0.493847 0
M  V30 3608 H 329.382 2.76722 1.69101 0
M  V30 3609 H 329.167 3.907 0.331051 0
M  V30 3610 H 330.657 3.96199 1.3197 0
M  V30 3611 N 331.094 0.475555 1.50254 0
M  V30 3612 C 332.057 -0.305016 2.27161 0
M  V30 3613 C 333.057 -0.916519 1.32123 0
M  V30 3614 O 334.247 -0.785003 1.5551 0
M  V30 3615 C 331.379 -1.43496 3.09227 0
M  V30 3616 H 332.572 0.369511 2.97615 0
M  V30 3617 H 330.125 0.229747 1.54602 0
M  V30 3618 H 330.86 -2.14441 2.43281 0
M  V30 3619 H 330.645 -1.00223 3.79075 0
M  V30 3620 H 332.135 -1.98548 3.67381 0
M  V30 3621 N 332.573 -1.56217 0.208337 0
M  V30 3622 C 333.803 -2.02043 -0.431523 0
M  V30 3623 C 334.211 -1.08755 -1.54819 0
M  V30 3624 O 333.554 -0.0870009 -1.83494 0
M  V30 3625 C 333.616 -3.44239 -1.03633 0
M  V30 3626 C 333.28 -4.56965 -0.0567502 0
M  V30 3627 C 334.277 -5.14624 0.738773 0
M  V30 3628 C 331.962 -5.02266 0.0581736 0
M  V30 3629 C 333.956 -6.16045 1.63605 0
M  V30 3630 C 331.643 -6.03528 0.959001 0
M  V30 3631 C 332.641 -6.60293 1.7465 0
M  V30 3632 O 332.329 -7.59586 2.6322 0
M  V30 3633 H 332.061 -0.666772 -0.111313 0
M  V30 3634 H 334.615 -2.02919 0.318277 0
M  V30 3635 H 332.845 -3.40391 -1.83497 0
M  V30 3636 H 334.534 -3.73793 -1.58221 0
M  V30 3637 H 335.3 -4.80483 0.660364 0
M  V30 3638 H 331.179 -4.57771 -0.544633 0
M  V30 3639 H 334.723 -6.60279 2.25116 0
M  V30 3640 H 330.62 -6.37092 1.03848 0
M  V30 3641 H 331.388 -7.77057 2.57148 0
M  V30 3642 N 334.051 0.0651679 -1.57465 0
M  V30 3643 C 335.3 0.761916 -1.86756 0
M  V30 3644 C 335.613 1.78406 -0.801925 0
M  V30 3645 O 336.819 2.53084 -0.982885 0
M  V30 3646 C 335.275 1.40603 -3.31299 0
M  V30 3647 C 334.883 0.422115 -4.46007 0
M  V30 3648 C 336.627 2.08476 -3.69781 0
M  V30 3649 C 334.534 1.07252 -5.81593 0
M  V30 3650 H 333.464 0.288308 -0.696702 0
M  V30 3651 H 336.115 0.015344 -1.83494 0
M  V30 3652 H 334.497 2.20109 -3.29193 0
M  V30 3653 H 335.671 -0.343613 -4.59517 0
M  V30 3654 H 333.986 -0.152527 -4.16121 0
M  V30 3655 H 336.583 2.57925 -4.68379 0
M  V30 3656 H 336.926 2.88712 -2.99919 0
M  V30 3657 H 337.459 1.35792 -3.73905 0
M  V30 3658 H 334.198 0.310342 -6.54765 0
M  V30 3659 H 333.718 1.80895 -5.71872 0
M  V30 3660 H 335.397 1.59043 -6.27148 0
M  V30 3661 N 335.529 1.53961 0.336706 0
M  V30 3662 C 336.945 1.44378 0.680241 0
M  V30 3663 C 337.145 0.606034 1.9217 0
M  V30 3664 O 336.201 0.099688 2.52303 0
M  V30 3665 C 337.514 2.87945 0.8665 0
M  V30 3666 C 339.062 2.97763 0.964682 0
M  V30 3667 C 339.537 4.42453 1.18321 0
M  V30 3668 N 341.028 4.46008 1.25025 0
M  V30 3669 C 341.763 5.55102 1.43697 0
M  V30 3670 N 341.259 6.7419 1.59498 0
M  V30 3671 N 343.052 5.42727 1.463 0
M  V30 3672 H 335.203 2.06918 -0.479455 0
M  V30 3673 H 337.466 0.935634 -0.152619 0
M  V30 3674 H 337.172 3.51691 0.0256937 0
M  V30 3675 H 337.046 3.33293 1.76623 0
M  V30 3676 H 339.433 2.34153 1.796 0
M  V30 3677 H 339.514 2.55766 0.041708 0
M  V30 3678 H 339.158 5.06645 0.356788 0
M  V30 3679 H 339.088 4.82048 2.11985 0
M  V30 3680 H 341.579 3.60196 1.14312 0
M  V30 3681 H 341.892 7.53095 1.734 0
M  V30 3682 H 340.237 6.77123 1.56621 0
M  V30 3683 H 343.428 4.48647 1.33543 0
M  V30 3684 H 343.601 6.27806 1.6051 0
M  V30 3685 N 337.007 -0.598083 1.45811 0
M  V30 3686 C 338.418 -1.18011 1.44673 0
M  V30 3687 C 338.769 -1.95378 0.179364 0
M  V30 3688 O 337.894 -2.04124 -0.718509 0
M  V30 3689 C 338.489 -2.14677 2.62105 0
M  V30 3690 C 337.048 -2.68236 2.64057 0
M  V30 3691 C 336.195 -1.43816 2.37091 0
M  V30 3692 H 339.146 -0.38686 1.53913 0
M  V30 3693 H 339.167 -2.97878 2.36746 0
M  V30 3694 H 338.679 -1.5834 3.5433 0
M  V30 3695 H 336.78 -3.28486 1.75864 0
M  V30 3696 H 336.893 -3.12021 3.63566 0
M  V30 3697 H 335.257 -1.731 1.86838 0
M  V30 3698 H 336.04 -0.893333 3.31473 0
M  V30 3699 N 338.485 -1.33259 -0.841409 0
M  V30 3700 C 339.733 -1.24326 -1.59334 0
M  V30 3701 C 340.054 0.191564 -1.94057 0
M  V30 3702 O 339.324 1.11967 -1.60749 0
M  V30 3703 H 337.904 -0.457174 -0.590763 0
M  V30 3704 H 340.566 -1.66947 -1.00571 0
M  V30 3705 H 339.662 -1.8352 -2.52442 0
M  V30 3706 N 339.963 1.05934 -1.16686 0
M  V30 3707 C 341.211 1.78447 -0.948744 0
M  V30 3708 C 341.532 1.87813 0.524523 0
M  V30 3709 O 340.802 1.38945 1.38098 0
M  V30 3710 H 339.382 0.660971 -0.348033 0
M  V30 3711 H 342.044 1.27947 -1.47022 0
M  V30 3712 H 341.14 2.80394 -1.37061 0
M  V30 3713 N 341.441 0.965919 1.2453 0
M  V30 3714 C 342.687 0.62776 1.92839 0
M  V30 3715 C 343.02 -0.834694 1.75347 0
M  V30 3716 O 342.295 -1.60031 1.10546 0
M  V30 3717 C 342.578 1.00109 3.45905 0
M  V30 3718 C 342.431 2.52011 3.72573 0
M  V30 3719 C 343.75 0.53435 4.36844 0
M  V30 3720 H 340.869 0.229537 0.700344 0
M  V30 3721 H 343.511 1.2046 1.46933 0
M  V30 3722 H 341.661 0.510238 3.85135 0
M  V30 3723 H 343.333 3.08559 3.42912 0
M  V30 3724 H 341.576 2.95287 3.17786 0
M  V30 3725 H 342.247 2.73183 4.79661 0
M  V30 3726 H 344.723 0.955565 4.04979 0
M  V30 3727 H 343.599 0.824152 5.42678 0
M  V30 3728 H 343.86 -0.565589 4.38467 0
M  V30 3729 N 342.919 -1.39368 0.735821 0
M  V30 3730 C 343.869 -2.27885 0.0724287 0
M  V30 3731 C 344.853 -1.44301 -0.711756 0
M  V30 3732 O 346.045 -1.67206 -0.58063 0
M  V30 3733 C 343.174 -3.33029 -0.833454 0
M  V30 3734 C 342.26 -4.24078 -0.0433749 0
M  V30 3735 N 342.651 -4.96138 0.983903 0
M  V30 3736 C 340.949 -4.45164 -0.272905 0
M  V30 3737 C 341.65 -5.63069 1.4604 0
M  V30 3738 N 340.626 -5.37991 0.778857 0
M  V30 3739 H 344.428 -2.81052 0.859467 0
M  V30 3740 H 341.942 -1.5206 0.570227 0
M  V30 3741 H 343.939 -3.95311 -1.32419 0
M  V30 3742 H 342.599 -2.81421 -1.61964 0
M  V30 3743 H 343.61 -4.9958 1.36528 0
M  V30 3744 H 340.287 -4.04497 -1.03383 0
M  V30 3745 H 341.677 -6.30755 2.31511 0
M  V30 3746 N 344.397 -0.483516 -1.5 0
M  V30 3747 C 345.329 0.340634 -2.26655 0
M  V30 3748 C 346.342 0.946152 -1.32483 0
M  V30 3749 O 347.531 0.832453 -1.579 0
M  V30 3750 C 344.631 1.4929 -3.04246 0
M  V30 3751 C 343.804 0.997903 -4.25865 0
M  V30 3752 C 342.863 2.02569 -4.85646 0
M  V30 3753 O 341.889 1.60128 -5.46212 0
M  V30 3754 N 343.091 3.3548 -4.73744 0
M  V30 3755 H 345.856 -0.316577 -2.98023 0
M  V30 3756 H 343.417 -0.315024 -1.58806 0
M  V30 3757 H 345.409 2.17766 -3.41116 0
M  V30 3758 H 343.979 2.05458 -2.35597 0
M  V30 3759 H 343.199 0.138617 -3.93956 0
M  V30 3760 H 344.487 0.645305 -5.04691 0
M  V30 3761 H 343.885 3.72661 -4.25605 0
M  V30 3762 H 342.442 3.99718 -5.14848 0
M  V30 3763 N 345.875 1.56104 -0.216619 0
M  V30 3764 C 347.152 1.89988 0.465165 0
M  V30 3765 C 347.532 1.13326 1.78102 0
M  V30 3766 O 346.88 0.241033 2.27225 0
M  V30 3767 C 347.09 3.42646 0.662939 0
M  V30 3768 C 348.438 4.13311 0.972602 0
M  V30 3769 O 349.462 3.48217 0.749901 0
M  V30 3770 O 348.321 5.28396 1.39499 0
M  V30 3771 H 345.415 0.78979 0.245276 0
M  V30 3772 H 347.961 1.67721 -0.258436 0
M  V30 3773 H 346.733 3.90399 -0.26543 0
M  V30 3774 H 346.356 3.70677 1.43821 0
M  V30 3775 N 347.353 -0.0568162 1.57498 0
M  V30 3776 C 348.283 -1.06593 2.0775 0
M  V30 3777 C 349.264 -1.39448 0.974082 0
M  V30 3778 O 350.449 -1.48815 1.24771 0
M  V30 3779 C 347.579 -2.37509 2.5339 0
M  V30 3780 C 346.533 -2.1897 3.67745 0
M  V30 3781 C 345.859 -3.55402 3.99492 0
M  V30 3782 C 347.159 -1.59859 4.97235 0
M  V30 3783 H 348.853 -0.647706 2.9231 0
M  V30 3784 H 346.399 -0.310116 1.40621 0
M  V30 3785 H 348.352 -3.08409 2.87162 0
M  V30 3786 H 347.076 -2.8134 1.65878 0
M  V30 3787 H 345.735 -1.50508 3.3428 0
M  V30 3788 H 345.383 -3.9683 3.09088 0
M  V30 3789 H 345.083 -3.43831 4.76502 0
M  V30 3790 H 346.607 -4.27708 4.35773 0
M  V30 3791 H 348.021 -2.20642 5.29141 0
M  V30 3792 H 346.418 -1.58942 5.78669 0
M  V30 3793 H 347.488 -0.561506 4.81638 0
M  V30 3794 N 348.832 -1.54138 -0.328536 0
M  V30 3795 C 350.243 -1.63395 -0.903272 0
M  V30 3796 C 350.594 -0.524828 -1.8905 0
M  V30 3797 O 349.719 0.343068 -2.13663 0
M  V30 3798 C 350.314 -2.9618 -1.64507 0
M  V30 3799 C 348.873 -3.0765 -2.1686 0
M  V30 3800 C 348.02 -2.58933 -0.992416 0
M  V30 3801 H 350.971 -1.58344 -0.106253 0
M  V30 3802 H 350.992 -2.86061 -2.50897 0
M  V30 3803 H 350.504 -3.76884 -0.926302 0
M  V30 3804 H 348.605 -2.31611 -2.91868 0
M  V30 3805 H 348.718 -4.1337 -2.42202 0
M  V30 3806 H 347.082 -2.14706 -1.37016 0
M  V30 3807 H 347.865 -3.42089 -0.288041 0
M  V30 3808 N 350.31 0.590341 -1.46126 0
M  V30 3809 C 351.24 1.71032 -1.58966 0
M  V30 3810 C 352.221 1.64302 -0.440335 0
M  V30 3811 O 353.406 1.82436 -0.665634 0
M  V30 3812 C 350.536 3.09665 -1.57241 0
M  V30 3813 C 349.49 3.31221 -2.71066 0
M  V30 3814 C 348.816 4.70303 -2.54399 0
M  V30 3815 C 350.116 3.19796 -4.1295 0
M  V30 3816 H 351.81 1.60543 -2.52718 0
M  V30 3817 H 349.356 0.770933 -1.21625 0
M  V30 3818 H 351.309 3.87831 -1.64819 0
M  V30 3819 H 350.033 3.21036 -0.600289 0
M  V30 3820 H 348.692 2.55452 -2.62944 0
M  V30 3821 H 348.34 4.78429 -1.55288 0
M  V30 3822 H 348.04 4.85679 -3.30741 0
M  V30 3823 H 349.564 5.50647 -2.63857 0
M  V30 3824 H 350.978 3.87815 -4.22223 0
M  V30 3825 H 349.375 3.46696 -4.89818 0
M  V30 3826 H 350.445 2.16983 -4.33643 0
M  V30 3827 N 351.788 1.33704 0.83433 0
M  V30 3828 C 353.036 1.25169 1.58673 0
M  V30 3829 C 353.357 -0.18127 1.94156 0
M  V30 3830 O 352.627 -1.11113 1.6134 0
M  V30 3831 H 351.207 0.4603 0.58833 0
M  V30 3832 H 353.869 1.67478 0.996847 0
M  V30 3833 H 352.965 1.84856 2.51465 0
M  V30 3834 N 353.266 -1.05314 1.17247 0
M  V30 3835 C 354.196 -2.1498 0.911362 0
M  V30 3836 C 355.177 -1.69471 -0.146169 0
M  V30 3837 O 356.362 -1.942 0.003812 0
M  V30 3838 C 353.492 -3.4472 0.422528 0
M  V30 3839 C 352.446 -4.03789 1.4191 0
M  V30 3840 C 351.772 -5.28858 0.788274 0
M  V30 3841 C 353.072 -4.41418 2.7919 0
M  V30 3842 H 354.766 -2.3708 1.82848 0
M  V30 3843 H 352.312 -1.13938 0.880569 0
M  V30 3844 H 354.265 -4.20787 0.227289 0
M  V30 3845 H 352.989 -3.22269 -0.530123 0
M  V30 3846 H 351.648 -3.2979 1.60106 0
M  V30 3847 H 351.296 -5.02709 -0.171173 0
M  V30 3848 H 350.996 -5.69338 1.45353 0
M  V30 3849 H 352.52 -6.07612 0.603282 0
M  V30 3850 H 353.934 -5.08524 2.64719 0
M  V30 3851 H 352.331 -4.92913 3.42282 0
M  V30 3852 H 353.401 -3.51819 3.33693 0
M  V30 3853 N 354.744 -0.972509 -1.24016 0
M  V30 3854 C 355.677 -0.45117 -2.23696 0
M  V30 3855 C 356.655 0.477378 -1.55434 0
M  V30 3856 O 357.839 0.407647 -1.84039 0
M  V30 3857 C 354.966 0.34818 -3.36906 0
M  V30 3858 C 354.012 -0.523355 -4.23277 0
M  V30 3859 S 354.845 -1.96647 -4.98087 0
M  V30 3860 C 356.001 -1.17604 -6.14752 0
M  V30 3861 H 356.234 -1.29588 -2.67571 0
M  V30 3862 H 353.767 -0.777903 -1.33372 0
M  V30 3863 H 355.725 0.803387 -4.02562 0
M  V30 3864 H 354.386 1.16792 -2.91579 0
M  V30 3865 H 353.579 0.0906181 -5.03919 0
M  V30 3866 H 353.181 -0.914485 -3.62647 0
M  V30 3867 H 355.473 -0.433434 -6.76112 0
M  V30 3868 H 356.416 -1.95701 -6.8052 0
M  V30 3869 H 356.824 -0.698295 -5.60164 0
M  V30 3870 N 356.222 1.38976 -0.743202 0
M  V30 3871 C 357.499 1.94351 -0.220705 0
M  V30 3872 C 357.879 1.67935 1.2791 0
M  V30 3873 O 357.227 1.01211 2.04862 0
M  V30 3874 C 357.437 3.44426 -0.563171 0
M  V30 3875 C 358.785 4.2144 -0.517046 0
M  V30 3876 O 359.809 3.52661 -0.500846 0
M  V30 3877 O 358.668 5.44032 -0.518806 0
M  V30 3878 H 355.762 0.825879 -0.043047 0
M  V30 3879 H 358.308 1.48429 -0.822618 0
M  V30 3880 H 357.08 3.5712 -1.59941 0
M  V30 3881 H 356.703 3.97543 0.0672883 0
M  V30 3882 N 357.7 0.491464 1.49741 0
M  V30 3883 C 358.977 -0.118984 1.95238 0
M  V30 3884 C 359.357 -1.55044 1.43264 0
M  V30 3885 O 358.705 -2.19287 0.642287 0
M  V30 3886 C 358.915 -0.0414187 3.48975 0
M  V30 3887 C 360.263 -0.220133 4.24029 0
M  V30 3888 O 361.287 -0.117055 3.56008 0
M  V30 3889 O 360.146 -0.430567 5.44801 0
M  V30 3890 H 357.24 -0.100536 0.820866 0
M  V30 3891 H 359.786 0.553322 1.60426 0
M  V30 3892 H 358.558 0.957214 3.79412 0
M  V30 3893 H 358.181 -0.754292 3.9038 0
M  V30 3894 N 359.178 -1.55987 0.224894 0
M  V30 3895 C 360.427 -1.97566 -0.406273 0
M  V30 3896 C 360.74 -1.11569 -1.6066 0
M  V30 3897 O 361.946 -1.43062 -2.3075 0
M  V30 3898 C 360.402 -3.51474 -0.774207 0
M  V30 3899 C 360.01 -4.46179 0.403496 0
M  V30 3900 C 361.754 -4.01758 -1.37079 0
M  V30 3901 C 359.661 -5.91399 0.0129412 0
M  V30 3902 H 358.591 -0.737777 -0.155565 0
M  V30 3903 H 361.242 -1.80659 0.321635 0
M  V30 3904 H 359.624 -3.63994 -1.55963 0
M  V30 3905 H 360.798 -4.45409 1.18101 0
M  V30 3906 H 359.113 -4.06255 0.913536 0
M  V30 3907 H 361.71 -5.07756 -1.67596 0
M  V30 3908 H 362.053 -3.47805 -2.28773 0
M  V30 3909 H 362.586 -3.92475 -0.648733 0
M  V30 3910 H 359.325 -6.49341 0.896451 0
M  V30 3911 H 358.845 -5.95356 -0.728821 0
M  V30 3912 H 360.524 -6.45683 -0.412582 0
M  V30 3913 N 360.656 0.0484629 -1.57525 0
M  V30 3914 C 361.886 0.754326 -1.92337 0
M  V30 3915 C 362.294 1.70443 -0.82132 0
M  V30 3916 O 361.637 1.82466 0.21254 0
M  V30 3917 C 361.699 1.58231 -3.22805 0
M  V30 3918 C 361.363 0.799074 -4.4996 0
M  V30 3919 C 362.36 0.1079 -5.19788 0
M  V30 3920 C 360.045 0.759345 -4.96527 0
M  V30 3921 C 362.039 -0.612516 -6.3445 0
M  V30 3922 C 359.726 0.0351713 -6.1109 0
M  V30 3923 C 360.724 -0.649537 -6.79904 0
M  V30 3924 O 360.412 -1.36199 -7.92278 0
M  V30 3925 H 360.144 0.218257 -0.639797 0
M  V30 3926 H 362.698 0.0159295 -2.05394 0
M  V30 3927 H 360.928 2.36406 -3.06021 0
M  V30 3928 H 362.617 2.16898 -3.43089 0
M  V30 3929 H 363.383 0.129748 -4.84826 0
M  V30 3930 H 359.262 1.28177 -4.42822 0
M  V30 3931 H 362.806 -1.14751 -6.88097 0
M  V30 3932 H 358.703 0.0113314 -6.45499 0
M  V30 3933 H 359.471 -1.27366 -8.0853 0
M  V30 3934 N 362.134 1.5431 0.320358 0
M  V30 3935 C 363.066 1.80262 1.41556 0
M  V30 3936 C 364.079 0.684723 1.477 0
M  V30 3937 O 365.268 0.961886 1.50366 0
M  V30 3938 C 362.368 1.90825 2.8007 0
M  V30 3939 C 361.541 3.21023 2.97091 0
M  V30 3940 C 360.6 3.22247 4.15985 0
M  V30 3941 O 359.626 3.95871 4.08992 0
M  V30 3942 N 360.828 2.46258 5.25678 0
M  V30 3943 H 363.593 2.74778 1.19655 0
M  V30 3944 H 361.154 1.53646 0.510358 0
M  V30 3945 H 363.146 1.89067 3.57821 0
M  V30 3946 H 361.716 1.03392 2.95006 0
M  V30 3947 H 360.936 3.35715 2.06614 0
M  V30 3948 H 362.224 4.0698 3.05361 0
M  V30 3949 H 361.622 1.86037 5.34235 0
M  V30 3950 H 360.179 2.50275 6.01835 0
M  V30 3951 N 363.613 -0.582584 1.46437 0
M  V30 3952 C 364.86 -1.34079 1.51753 0
M  V30 3953 C 365.188 -1.93762 0.169299 0
M  V30 3954 O 364.443 -1.76989 -0.835062 0
M  V30 3955 C 364.742 -2.48964 2.56421 0
M  V30 3956 C 364.408 -2.07273 4.00436 0
M  V30 3957 C 363.07 -1.95618 4.39644 0
M  V30 3958 C 365.422 -1.75111 4.90903 0
M  V30 3959 C 362.75 -1.5006 5.67185 0
M  V30 3960 C 365.102 -1.31032 6.18881 0
M  V30 3961 C 363.766 -1.17954 6.56996 0
M  V30 3962 H 363.036 -0.49063 0.555304 0
M  V30 3963 H 365.683 -0.656007 1.79913 0
M  V30 3964 H 363.988 -3.22889 2.21923 0
M  V30 3965 H 365.685 -3.07178 2.57765 0
M  V30 3966 H 362.275 -2.17279 3.69443 0
M  V30 3967 H 366.459 -1.83001 4.61329 0
M  V30 3968 H 361.715 -1.38577 5.95488 0
M  V30 3969 H 365.889 -1.052 6.88408 0
M  V30 3970 H 363.516 -0.824279 7.55718 0
M  V30 3971 N 365.091 -1.34144 -0.827227 0
M  V30 3972 C 366.316 -1.29476 -1.62021 0
M  V30 3973 C 366.741 0.129292 -1.87655 0
M  V30 3974 O 366.099 1.08967 -1.449 0
M  V30 3975 C 366.147 -2.08702 -2.94068 0
M  V30 3976 O 365.251 -1.45359 -3.85933 0
M  V30 3977 H 364.592 -0.444881 -0.492927 0
M  V30 3978 H 367.122 -1.76882 -1.02829 0
M  V30 3979 H 367.132 -2.19898 -3.43669 0
M  V30 3980 H 365.807 -3.12241 -2.74734 0
M  V30 3981 H 364.384 -1.42879 -3.44442 0
M  V30 3982 N 366.569 1.04691 -1.17803 0
M  V30 3983 C 367.516 2.12557 -0.899343 0
M  V30 3984 C 368.486 1.65339 0.158771 0
M  V30 3985 O 369.671 1.90789 0.0204797 0
M  V30 3986 C 366.811 3.42481 -0.424315 0
M  V30 3987 C 365.924 4.03346 -1.54713 0
M  V30 3988 C 365.059 5.21208 -1.02546 0
M  V30 3989 C 364.098 5.74089 -2.12339 0
M  V30 3990 N 363.235 6.83247 -1.61612 0
M  V30 3991 H 368.075 2.35734 -1.823 0
M  V30 3992 H 365.612 1.1564 -0.909159 0
M  V30 3993 H 367.57 4.16996 -0.130421 0
M  V30 3994 H 366.2 3.19471 0.462377 0
M  V30 3995 H 365.252 3.2622 -1.95664 0
M  V30 3996 H 366.564 4.38628 -2.37501 0
M  V30 3997 H 365.718 6.02812 -0.685718 0
M  V30 3998 H 364.457 4.87414 -0.167084 0
M  V30 3999 H 363.462 4.91111 -2.47165 0
M  V30 4000 H 364.687 6.0993 -2.98601 0
M  V30 4001 H 362.633 6.5134 -0.780533 0
M  V30 4002 H 362.55 7.17559 -2.38003 0
M  V30 4003 H 363.818 7.68491 -1.30545 0
M  V30 4004 N 368.047 0.979072 1.23499 0
M  V30 4005 C 368.995 0.510604 2.26926 0
M  V30 4006 C 369.989 -0.431691 1.63807 0
M  V30 4007 O 371.195 -0.30573 1.77385 0
M  V30 4008 H 367.57 0.146688 0.737554 0
M  V30 4009 H 369.541 1.39466 2.63803 0
M  V30 4010 C 368.29 -0.172658 3.47271 0
M  V30 4011 H 367.613 0.543331 3.96091 0
M  V30 4012 H 369.053 -0.464101 4.21452 0
M  V30 4013 C 367.512 -1.40345 3.06276 0
M  V30 4014 O 368.042 -2.49978 3.14442 0
M  V30 4015 N 366.248 -1.27362 2.61203 0
M  V30 4016 H 365.795 -0.381584 2.54758 0
M  V30 4017 H 365.753 -2.09822 2.34141 0
M  V30 4018 N 369.525 -1.3858 0.750561 0
M  V30 4019 C 370.772 -2.00184 0.305373 0
M  V30 4020 C 371.1 -1.59575 -1.11203 0
M  V30 4021 O 370.355 -0.823236 -1.77542 0
M  V30 4022 C 370.654 -3.55455 0.372373 0
M  V30 4023 C 370.32 -4.15765 1.745 0
M  V30 4024 C 368.982 -4.31951 2.12065 0
M  V30 4025 C 371.334 -4.49067 2.64553 0
M  V30 4026 C 368.662 -4.78734 3.39162 0
M  V30 4027 C 371.014 -4.97265 3.91038 0
M  V30 4028 C 369.678 -5.11658 4.28676 0
M  V30 4029 H 368.948 -0.732526 0.111744 0
M  V30 4030 H 371.595 -1.65673 0.960451 0
M  V30 4031 H 369.9 -3.90084 -0.366272 0
M  V30 4032 H 371.597 -4.00999 0.00953918 0
M  V30 4033 H 368.187 -4.03579 1.44297 0
M  V30 4034 H 372.371 -4.36166 2.36796 0
M  V30 4035 H 367.627 -4.88062 3.68246 0
M  V30 4036 H 371.801 -5.22003 4.60962 0
M  V30 4037 H 369.428 -5.47668 5.27222 0
M  V30 4038 N 371.003 -0.499398 -1.49478 0
M  V30 4039 C 372.228 0.044722 -2.07352 0
M  V30 4040 C 372.653 1.30207 -1.35749 0
M  V30 4041 O 372.011 1.76516 -0.413732 0
M  V30 4042 C 372.059 0.283013 -3.59488 0
M  V30 4043 O 371.163 1.35804 -3.89398 0
M  V30 4044 H 370.504 -0.0255147 -0.66351 0
M  V30 4045 H 373.034 -0.698561 -1.92305 0
M  V30 4046 H 373.044 0.515007 -4.04737 0
M  V30 4047 H 371.719 -0.635636 -4.11014 0
M  V30 4048 H 370.296 1.11113 -3.55961 0
M  V30 4049 N 372.481 1.55866 -0.233164 0
M  V30 4050 C 373.411 2.23783 0.666599 0
M  V30 4051 C 374.392 1.21343 1.19205 0
M  V30 4052 O 375.577 1.4996 1.23392 0
M  V30 4053 C 372.707 2.92671 1.86978 0
M  V30 4054 C 371.661 4.01682 1.47768 0
M  V30 4055 C 370.987 4.57926 2.76058 0
M  V30 4056 C 372.287 5.18126 0.658993 0
M  V30 4057 H 373.981 2.99232 0.100306 0
M  V30 4058 H 371.527 1.43924 0.046804 0
M  V30 4059 H 373.48 3.3888 2.50476 0
M  V30 4060 H 372.204 2.14688 2.46123 0
M  V30 4061 H 370.863 3.56222 0.866106 0
M  V30 4062 H 370.511 3.76659 3.33372 0
M  V30 4063 H 370.211 5.31505 2.50552 0
M  V30 4064 H 371.735 5.06859 3.40479 0
M  V30 4065 H 373.149 5.60644 1.19795 0
M  V30 4066 H 371.546 5.98009 0.500552 0
M  V30 4067 H 372.616 4.83763 -0.331856 0
M  V30 4068 N 373.959 -0.0401083 1.57549 0
M  V30 4069 C 375.375 -0.395556 1.54621 0
M  V30 4070 C 375.575 -1.77281 0.957799 0
M  V30 4071 O 374.631 -2.45888 0.574031 0
M  V30 4072 C 375.944 -0.307535 2.99123 0
M  V30 4073 C 377.492 -0.385425 3.10618 0
M  V30 4074 C 377.967 -0.326973 4.56831 0
M  V30 4075 N 379.458 -0.386102 4.61588 0
M  V30 4076 C 380.193 -0.363591 5.72246 0
M  V30 4077 N 379.689 -0.29402 6.92176 0
M  V30 4078 N 381.482 -0.412503 5.60584 0
M  V30 4079 H 373.633 0.861325 1.94152 0
M  V30 4080 H 375.896 0.326445 0.890021 0
M  V30 4081 H 375.602 0.638461 3.45856 0
M  V30 4082 H 375.476 -1.10552 3.60636 0
M  V30 4083 H 377.863 -1.32185 2.63839 0
M  V30 4084 H 377.944 0.44171 2.51957 0
M  V30 4085 H 377.588 0.605738 5.04275 0
M  V30 4086 H 377.518 -1.17207 5.13391 0
M  V30 4087 H 380.009 -0.442832 3.75296 0
M  V30 4088 H 380.322 -0.28164 7.72287 0
M  V30 4089 H 378.667 -0.260232 6.94513 0
M  V30 4090 H 381.858 -0.464769 4.65787 0
M  V30 4091 H 382.031 -0.391492 6.46816 0
M  V30 4092 N 375.437 -1.54477 -0.31217 0
M  V30 4093 C 376.367 -1.87652 -1.38957 0
M  V30 4094 C 377.348 -0.734358 -1.53431 0
M  V30 4095 O 378.533 -0.98911 -1.67123 0
M  V30 4096 C 375.663 -2.11396 -2.75552 0
M  V30 4097 C 374.617 -3.27243 -2.75855 0
M  V30 4098 C 373.943 -3.36382 -4.15633 0
M  V30 4099 C 375.243 -4.64622 -2.38587 0
M  V30 4100 H 376.937 -2.77887 -1.11442 0
M  V30 4101 H 374.483 -1.33707 -0.534655 0
M  V30 4102 H 376.436 -2.33189 -3.51 0
M  V30 4103 H 375.16 -1.17921 -3.04569 0
M  V30 4104 H 373.819 -3.05356 -2.02863 0
M  V30 4105 H 373.467 -2.40445 -4.41809 0
M  V30 4106 H 373.167 -4.14249 -4.1674 0
M  V30 4107 H 374.691 -3.60422 -4.92877 0
M  V30 4108 H 376.105 -4.86219 -3.03749 0
M  V30 4109 H 374.502 -5.45121 -2.50925 0
M  V30 4110 H 375.572 -4.66097 -1.33723 0
M  V30 4111 N 376.915 0.57481 -1.46744 0
M  V30 4112 C 378.192 1.3352 -1.4294 0
M  V30 4113 C 378.572 2.10775 -0.117009 0
M  V30 4114 O 377.92 2.09966 0.901474 0
M  V30 4115 C 378.13 2.25456 -2.66403 0
M  V30 4116 C 379.478 2.87035 -3.12883 0
M  V30 4117 O 380.502 2.35766 -2.67007 0
M  V30 4118 O 379.361 3.80179 -3.92589 0
M  V30 4119 H 376.455 0.600318 -0.568812 0
M  V30 4120 H 379.001 0.595171 -1.58921 0
M  V30 4121 H 377.773 1.67851 -3.53471 0
M  V30 4122 H 377.396 3.06785 -2.52921 0
M  V30 4123 N 378.394 1.34581 0.820102 0
M  V30 4124 C 379.304 1.28471 1.96297 0
M  V30 4125 C 380.32 0.191902 1.72939 0
M  V30 4126 O 381.496 0.418879 1.96996 0
M  V30 4127 C 378.561 1.04281 3.30645 0
M  V30 4128 C 377.622 2.22745 3.66992 0
M  V30 4129 C 376.855 1.997 4.9493 0
M  V30 4130 O 377.078 0.956656 5.6232 0
M  V30 4131 O 376.012 2.86723 5.2922 0
M  V30 4132 H 379.838 2.24624 2.04396 0
M  V30 4133 H 377.423 1.14816 0.955913 0
M  V30 4134 H 379.305 0.925841 4.11104 0
M  V30 4135 H 377.98 0.111697 3.23507 0
M  V30 4136 H 376.887 2.40003 2.86966 0
M  V30 4137 H 378.22 3.14257 3.78819 0
M  V30 4138 N 379.872 -1.04064 1.18357 0
M  V30 4139 C 380.802 -2.14001 0.934113 0
M  V30 4140 C 381.783 -1.69616 -0.128186 0
M  V30 4141 O 382.968 -1.94185 0.0244093 0
M  V30 4142 C 380.098 -3.44253 0.459066 0
M  V30 4143 C 379.052 -4.02261 1.46185 0
M  V30 4144 C 378.378 -5.27992 0.844322 0
M  V30 4145 C 379.678 -4.38432 2.83856 0
M  V30 4146 H 381.372 -2.35127 1.85352 0
M  V30 4147 H 378.918 -1.12998 0.892604 0
M  V30 4148 H 380.871 -4.20522 0.271907 0
M  V30 4149 H 379.595 -3.22813 -0.495912 0
M  V30 4150 H 378.254 -3.28074 1.63595 0
M  V30 4151 H 377.902 -5.02862 -0.117845 0
M  V30 4152 H 377.602 -5.67765 1.51384 0
M  V30 4153 H 379.126 -6.06938 0.667693 0
M  V30 4154 H 380.54 -5.05688 2.70098 0
M  V30 4155 H 378.937 -4.89254 3.47491 0
M  V30 4156 H 380.007 -3.4826 3.37406 0
M  V30 4157 N 381.35 -0.985608 -1.22978 0
M  V30 4158 C 382.26 -0.538548 -2.28335 0
M  V30 4159 C 383.276 0.409163 -1.69121 0
M  V30 4160 O 384.452 0.277797 -1.99475 0
M  V30 4161 C 381.517 0.146867 -3.46389 0
M  V30 4162 C 380.578 -0.842896 -4.20944 0
M  V30 4163 C 379.811 -0.190095 -5.33361 0
M  V30 4164 O 380.034 1.01767 -5.61248 0
M  V30 4165 O 378.968 -0.891289 -5.95264 0
M  V30 4166 H 382.794 -1.41487 -2.68729 0
M  V30 4167 H 380.379 -0.753495 -1.29007 0
M  V30 4168 H 382.261 0.531125 -4.1804 0
M  V30 4169 H 380.936 0.997871 -3.07935 0
M  V30 4170 H 379.843 -1.27795 -3.51595 0
M  V30 4171 H 381.176 -1.66287 -4.6326 0
M  V30 4172 N 382.828 1.3818 -0.7579 0
M  V30 4173 C 383.738 2.3421 -0.135247 0
M  V30 4174 C 384.754 1.59487 0.695683 0
M  V30 4175 O 385.93 1.91657 0.618832 0
M  V30 4176 C 382.995 3.3862 0.744139 0
M  V30 4177 C 382.056 4.2918 -0.101658 0
M  V30 4178 C 381.289 5.28603 0.735851 0
M  V30 4179 O 381.512 5.35166 1.97366 0
M  V30 4180 O 380.446 6.01707 0.152372 0
M  V30 4181 H 384.272 2.8916 -0.928436 0
M  V30 4182 H 381.857 1.40101 -0.518855 0
M  V30 4183 H 383.739 4.02539 1.2466 0
M  V30 4184 H 382.414 2.86019 1.51575 0
M  V30 4185 H 381.321 3.68407 -0.650167 0
M  V30 4186 H 382.654 4.85048 -0.836024 0
M  V30 4187 N 384.306 0.507319 1.49211 0
M  V30 4188 C 385.236 -0.256939 2.32082 0
M  V30 4189 C 386.217 -0.956609 1.40652 0
M  V30 4190 O 387.402 -0.946788 1.69557 0
M  V30 4191 C 384.532 -1.31802 3.21318 0
M  V30 4192 C 383.486 -0.737855 4.21592 0
M  V30 4193 C 382.812 -1.89992 4.99807 0
M  V30 4194 C 384.112 0.275325 5.21574 0
M  V30 4195 H 385.806 0.434798 2.96226 0
M  V30 4196 H 383.352 0.210546 1.42452 0
M  V30 4197 H 385.305 -1.86045 3.78107 0
M  V30 4198 H 384.029 -2.03903 2.5513 0
M  V30 4199 H 382.688 -0.217126 3.65956 0
M  V30 4200 H 382.336 -2.60877 4.30061 0
M  V30 4201 H 382.036 -1.51777 5.6766 0
M  V30 4202 H 383.56 -2.44657 5.59442 0
M  V30 4203 H 384.974 -0.179193 5.7302 0
M  V30 4204 H 383.371 0.573649 5.97352 0
M  V30 4205 H 384.441 1.18903 4.70096 0
M  V30 4206 N 385.784 -1.5574 0.241426 0
M  V30 4207 C 386.714 -2.24133 -0.654722 0
M  V30 4208 C 387.695 -1.21974 -1.1856 0
M  V30 4209 O 388.88 -1.50612 -1.22595 0
M  V30 4210 C 386.01 -2.93659 -1.85423 0
M  V30 4211 C 384.964 -4.0246 -1.45636 0
M  V30 4212 C 384.29 -4.59383 -2.73626 0
M  V30 4213 C 385.59 -5.18468 -0.631506 0
M  V30 4214 H 387.284 -2.99281 -0.0844353 0
M  V30 4215 H 384.83 -1.43947 -0.0391707 0
M  V30 4216 H 386.783 -3.40203 -2.48676 0
M  V30 4217 H 385.507 -2.15991 -2.44981 0
M  V30 4218 H 384.166 -3.56676 -0.847202 0
M  V30 4219 H 383.814 -3.78422 -3.3137 0
M  V30 4220 H 383.514 -5.32826 -2.4773 0
M  V30 4221 H 385.038 -5.08658 -3.37786 0
M  V30 4222 H 386.452 -5.61272 -1.1682 0
M  V30 4223 H 384.849 -5.98266 -0.468831 0
M  V30 4224 H 385.919 -4.8358 0.357506 0
M  V30 4225 N 387.262 0.0317525 -1.57568 0
M  V30 4226 C 388.49 0.734949 -1.93407 0
M  V30 4227 C 388.905 1.69036 -0.84096 0
M  V30 4228 O 388.262 1.81582 0.182836 0
M  V30 4229 C 388.313 1.49432 -3.29169 0
M  V30 4230 O 388.034 0.577261 -4.3428 0
M  V30 4231 C 389.535 2.29492 -3.79273 0
M  V30 4232 H 386.755 0.206706 -0.638368 0
M  V30 4233 H 389.299 -0.00992046 -2.04498 0
M  V30 4234 H 387.454 2.1911 -3.19483 0
M  V30 4235 H 387.868 1.10952 -5.1263 0
M  V30 4236 H 389.342 2.78172 -4.76785 0
M  V30 4237 H 389.819 3.10794 -3.10328 0
M  V30 4238 H 390.425 1.64894 -3.92033 0
M  V30 4239 N 388.74 1.54641 0.303973 0
M  V30 4240 C 389.688 1.86137 1.39484 0
M  V30 4241 C 390.682 0.734854 1.52631 0
M  V30 4242 O 391.888 0.918803 1.54784 0
M  V30 4243 H 388.263 0.590324 0.465856 0
M  V30 4244 H 390.234 2.77324 1.10154 0
M  V30 4245 C 388.983 2.12274 2.75382 0
M  V30 4246 H 388.306 2.98429 2.66046 0
M  V30 4247 H 389.746 2.38254 3.5073 0
M  V30 4248 C 388.205 0.920365 3.24085 0
M  V30 4249 O 388.735 0.139377 4.01458 0
M  V30 4250 N 386.941 0.726566 2.81371 0
M  V30 4251 H 386.488 1.36332 2.18567 0
M  V30 4252 H 386.446 -0.0763799 3.14307 0
M  V30 4253 N 390.218 -0.567019 1.47046 0
M  V30 4254 C 391.166 -1.69593 1.59188 0
M  V30 4255 C 392.16 -1.63046 0.459609 0
M  V30 4256 O 393.366 -1.6835 0.637058 0
M  V30 4257 H 389.741 -0.560993 0.500791 0
M  V30 4258 H 391.712 -1.56488 2.54075 0
M  V30 4259 C 390.461 -3.07964 1.61411 0
M  V30 4260 H 389.784 -3.13679 2.47881 0
M  V30 4261 H 391.224 -3.86671 1.73958 0
M  V30 4262 C 389.683 -3.35123 0.34559 0
M  V30 4263 O 390.213 -3.97812 -0.557521 0
M  V30 4264 N 388.419 -2.89699 0.22864 0
M  V30 4265 H 387.966 -2.38863 0.964479 0
M  V30 4266 H 387.924 -3.08242 -0.619192 0
M  V30 4267 N 391.696 -1.35014 -0.812953 0
M  V30 4268 C 393.112 -1.14914 -1.10757 0
M  V30 4269 C 393.312 0.0426818 -2.01455 0
M  V30 4270 O 392.368 0.715212 -2.42159 0
M  V30 4271 C 393.681 -2.44911 -1.74468 0
M  V30 4272 C 395.229 -2.5106 -1.86917 0
M  V30 4273 C 395.704 -3.81085 -2.54044 0
M  V30 4274 N 397.195 -3.82301 -2.61535 0
M  V30 4275 C 397.93 -4.79634 -3.14227 0
M  V30 4276 N 397.426 -5.87353 -3.67407 0
M  V30 4277 N 399.219 -4.67078 -3.12721 0
M  V30 4278 H 391.37 -2.1136 -0.20989 0
M  V30 4279 H 393.633 -0.935128 -0.155692 0
M  V30 4280 H 393.339 -3.32267 -1.15289 0
M  V30 4281 H 393.213 -2.58989 -2.74234 0
M  V30 4282 H 395.6 -1.64137 -2.45241 0
M  V30 4283 H 395.681 -2.40901 -0.860242 0
M  V30 4284 H 395.325 -4.68402 -1.96372 0
M  V30 4285 H 395.255 -3.88529 -3.55461 0
M  V30 4286 H 397.746 -3.04465 -2.23851 0
M  V30 4287 H 398.059 -6.57624 -4.05894 0
M  V30 4288 H 396.404 -5.91054 -3.65623 0
M  V30 4289 H 399.595 -3.82067 -2.70449 0
M  V30 4290 H 399.768 -5.43098 -3.53481 0
M  V30 4291 N 393.175 1.03435 -1.18907 0
M  V30 4292 C 394.424 1.76143 -0.982669 0
M  V30 4293 C 394.737 1.89416 0.487953 0
M  V30 4294 O 395.943 2.59041 0.813036 0
M  V30 4295 C 394.399 3.16722 -1.70924 0
M  V30 4296 C 394.007 3.11522 -3.21959 0
M  V30 4297 C 395.751 3.93764 -1.58588 0
M  V30 4298 C 393.658 4.46999 -3.87228 0
M  V30 4299 H 392.588 0.660292 -0.364047 0
M  V30 4300 H 395.239 1.158 -1.42347 0
M  V30 4301 H 393.621 3.775 -1.19623 0
M  V30 4302 H 394.795 2.60158 -3.80335 0
M  V30 4303 H 393.11 2.47978 -3.34508 0
M  V30 4304 H 395.707 4.93963 -2.04707 0
M  V30 4305 H 396.05 4.12794 -0.539142 0
M  V30 4306 H 396.583 3.39576 -2.07203 0
M  V30 4307 H 393.322 4.33174 -4.91976 0
M  V30 4308 H 392.842 4.98441 -3.33642 0
M  V30 4309 H 394.521 5.15898 -3.90459 0
M  V30 4310 N 394.653 0.992116 1.22453 0
M  V30 4311 C 395.899 0.678177 1.91761 0
M  V30 4312 C 396.254 -0.781141 1.75829 0
M  V30 4313 O 395.547 -1.55747 1.11595 0
M  V30 4314 C 395.741 1.01832 3.42586 0
M  V30 4315 C 395.57 2.50916 3.73191 0
M  V30 4316 C 394.34 3.17308 3.93248 0
M  V30 4317 C 396.538 3.49032 3.77732 0
M  V30 4318 N 394.52 4.55876 4.11157 0
M  V30 4319 C 395.891 4.73055 4.00773 0
M  V30 4320 C 397.946 3.43349 3.60577 0
M  V30 4321 C 396.649 5.92089 4.0844 0
M  V30 4322 C 398.675 4.61759 3.69503 0
M  V30 4323 C 398.037 5.84582 3.92993 0
M  V30 4324 H 394.136 0.299425 0.722405 0
M  V30 4325 H 396.72 1.27197 1.47408 0
M  V30 4326 H 394.891 0.453118 3.85748 0
M  V30 4327 H 396.623 0.660454 3.99274 0
M  V30 4328 H 393.378 2.67778 3.9063 0
M  V30 4329 H 393.802 5.27748 4.24042 0
M  V30 4330 H 398.444 2.49408 3.41402 0
M  V30 4331 H 396.162 6.86435 4.26418 0
M  V30 4332 H 399.748 4.58951 3.57569 0
M  V30 4333 H 398.628 6.74676 3.99728 0
M  V30 4334 N 396.131 -1.37776 0.765217 0
M  V30 4335 C 397.547 -1.53297 0.444108 0
M  V30 4336 C 397.747 -1.72515 -1.04119 0
M  V30 4337 O 396.803 -1.74278 -1.82711 0
M  V30 4338 C 398.116 -2.73328 1.25349 0
M  V30 4339 C 399.664 -2.87185 1.24473 0
M  V30 4340 C 400.139 -4.10191 2.03733 0
M  V30 4341 N 401.63 -4.17291 2.01053 0
M  V30 4342 C 402.365 -5.11488 2.59166 0
M  V30 4343 N 401.861 -6.11285 3.26041 0
M  V30 4344 N 403.654 -5.03924 2.49032 0
M  V30 4345 H 395.805 -1.23552 1.72768 0
M  V30 4346 H 398.068 -0.601103 0.733062 0
M  V30 4347 H 397.774 -2.6557 2.30577 0
M  V30 4348 H 397.648 -3.66834 0.87823 0
M  V30 4349 H 400.035 -2.94418 0.20047 0
M  V30 4350 H 400.116 -1.94657 1.65959 0
M  V30 4351 H 399.76 -4.0372 3.08176 0
M  V30 4352 H 399.69 -5.01821 1.59633 0
M  V30 4353 H 402.181 -3.45825 1.5236 0
M  V30 4354 H 402.494 -6.79678 3.67774 0
M  V30 4355 H 400.839 -6.11583 3.30138 0
M  V30 4356 H 404.03 -4.24902 1.96407 0
M  V30 4357 H 404.203 -5.77152 2.94617 0
M  V30 4358 N 397.609 -0.515225 -1.4894 0
M  V30 4359 C 398.557 0.269115 -2.31038 0
M  V30 4360 C 399.551 0.949443 -1.40292 0
M  V30 4361 O 400.757 0.87551 -1.57273 0
M  V30 4362 H 397.132 0.10565 -0.744542 0
M  V30 4363 H 399.103 -0.443096 -2.95092 0
M  V30 4364 C 397.852 1.31213 -3.21991 0
M  V30 4365 H 397.175 0.798034 -3.91754 0
M  V30 4366 H 398.615 1.83263 -3.82349 0
M  V30 4367 C 397.074 2.33791 -2.42576 0
M  V30 4368 O 397.604 3.3995 -2.14003 0
M  V30 4369 N 395.81 2.06625 -2.0434 0
M  V30 4370 H 395.357 1.20314 -2.27777 0
M  V30 4371 H 395.315 2.75483 -1.51514 0
M  V30 4372 N 399.087 1.5561 -0.249682 0
M  V30 4373 C 400.503 1.59254 0.105103 0
M  V30 4374 C 400.703 1.26685 1.56694 0
M  V30 4375 O 399.759 1.0155 2.31179 0
M  V30 4376 C 401.072 2.99687 -0.246592 0
M  V30 4377 C 402.62 3.12416 -0.191118 0
M  V30 4378 C 403.095 4.55074 -0.516885 0
M  V30 4379 N 404.586 4.60835 -0.467489 0
M  V30 4380 C 405.321 5.69201 -0.69268 0
M  V30 4381 N 404.817 6.85817 -0.981146 0
M  V30 4382 N 406.61 5.58635 -0.623198 0
M  V30 4383 H 398.761 1.75049 -1.20298 0
M  V30 4384 H 401.024 0.815003 -0.484225 0
M  V30 4385 H 400.73 3.28267 -1.26228 0
M  V30 4386 H 400.604 3.74798 0.424962 0
M  V30 4387 H 402.991 2.83615 0.815247 0
M  V30 4388 H 403.072 2.39573 -0.896563 0
M  V30 4389 H 402.716 4.84596 -1.52082 0
M  V30 4390 H 402.646 5.26181 0.210068 0
M  V30 4391 H 405.137 3.7705 -0.253373 0
M  V30 4392 H 405.45 7.64341 -1.14032 0
M  V30 4393 H 403.795 6.87494 -1.01865 0
M  V30 4394 H 406.986 4.66406 -0.397863 0
M  V30 4395 H 407.159 6.43017 -0.802093 0
M  V30 4396 N 400.565 -0.0233959 1.57583 0
M  V30 4397 C 401.793 -0.724682 1.93794 0
M  V30 4398 C 402.208 -1.68588 0.849912 0
M  V30 4399 O 401.565 -1.81676 -0.173204 0
M  V30 4400 C 401.616 -1.47684 3.29957 0
M  V30 4401 O 401.337 -0.554222 4.3458 0
M  V30 4402 C 402.838 -2.27477 3.80485 0
M  V30 4403 H 400.058 -0.203317 0.639455 0
M  V30 4404 H 402.602 0.0207653 2.04489 0
M  V30 4405 H 400.757 -2.17412 3.20641 0
M  V30 4406 H 401.171 -1.08232 5.13212 0
M  V30 4407 H 402.645 -2.7564 4.78254 0
M  V30 4408 H 403.122 -3.09144 3.11972 0
M  V30 4409 H 403.728 -1.62813 3.92902 0
M  V30 4410 N 402.043 -1.548 -0.295768 0
M  V30 4411 C 403.292 -1.73538 -1.02798 0
M  V30 4412 C 403.605 -0.531159 -1.8825 0
M  V30 4413 O 404.811 -0.600458 -2.64777 0
M  V30 4414 C 403.267 -3.07051 -1.87744 0
M  V30 4415 C 402.875 -4.34968 -1.07269 0
M  V30 4416 C 404.619 -3.35146 -2.60533 0
M  V30 4417 C 402.526 -5.5953 -1.91521 0
M  V30 4418 H 401.456 -0.646794 -0.387522 0
M  V30 4419 H 404.107 -1.81278 -0.284718 0
M  V30 4420 H 402.489 -2.93289 -2.66078 0
M  V30 4421 H 403.663 -4.5958 -0.335117 0
M  V30 4422 H 401.978 -4.13847 -0.460384 0
M  V30 4423 H 404.575 -4.2541 -3.23929 0
M  V30 4424 H 404.918 -2.54255 -3.29636 0
M  V30 4425 H 405.451 -3.49902 -1.89244 0
M  V30 4426 H 402.19 -6.43103 -1.26878 0
M  V30 4427 H 401.71 -5.39096 -2.62937 0
M  V30 4428 H 403.389 -5.96982 -2.49442 0
M  V30 4429 N 403.521 0.559213 -1.47345 0
M  V30 4430 C 404.798 1.31997 -1.44348 0
M  V30 4431 C 405.178 2.1064 -0.139358 0
M  V30 4432 O 404.526 2.1091 0.879153 0
M  V30 4433 C 404.736 2.22618 -2.68779 0
M  V30 4434 C 406.084 2.83701 -3.1591 0
M  V30 4435 O 407.108 2.32921 -2.69493 0
M  V30 4436 O 405.967 3.75993 -3.966 0
M  V30 4437 H 403.061 0.594251 -0.575147 0
M  V30 4438 H 405.607 0.578282 -1.59543 0
M  V30 4439 H 404.379 1.64093 -3.55231 0
M  V30 4440 H 404.002 3.04085 -2.5616 0
M  V30 4441 N 404.999 1.35443 0.805782 0
M  V30 4442 C 406.248 1.28097 1.55801 0
M  V30 4443 C 406.561 -0.142428 1.95081 0
M  V30 4444 O 407.767 -0.33817 2.69386 0
M  V30 4445 C 406.223 2.24653 2.81174 0
M  V30 4446 C 405.831 3.72342 2.49129 0
M  V30 4447 C 407.575 2.2625 3.59181 0
M  V30 4448 C 405.482 4.60719 3.70799 0
M  V30 4449 H 404.412 0.475937 0.584808 0
M  V30 4450 H 407.063 1.60712 0.885661 0
M  V30 4451 H 405.445 1.85011 3.50124 0
M  V30 4452 H 406.619 4.20624 1.88181 0
M  V30 4453 H 404.934 3.73361 1.84366 0
M  V30 4454 H 407.531 2.89495 4.49552 0
M  V30 4455 H 407.874 1.26647 3.96568 0
M  V30 4456 H 408.407 2.64426 2.97193 0
M  V30 4457 H 405.146 5.61324 3.3852 0
M  V30 4458 H 404.666 4.17163 4.3097 0
M  V30 4459 H 406.345 4.76182 4.38018 0
M  V30 4460 N 406.477 -1.02803 1.19454 0
M  V30 4461 C 407.725 -1.75869 0.995722 0
M  V30 4462 C 408.046 -1.89138 -0.474543 0
M  V30 4463 O 407.316 -1.42558 -1.34366 0
M  V30 4464 H 405.896 -0.651511 0.365435 0
M  V30 4465 H 408.558 -1.24004 1.50363 0
M  V30 4466 H 407.654 -2.76661 1.44447 0
M  V30 4467 N 407.956 -0.998596 -1.21925 0
M  V30 4468 C 409.202 -0.678667 -1.91107 0
M  V30 4469 C 409.535 0.78791 -1.77498 0
M  V30 4470 O 408.81 1.57043 -1.1475 0
M  V30 4471 C 409.093 -1.09245 -3.43129 0
M  V30 4472 C 408.946 -2.61801 -3.6576 0
M  V30 4473 C 410.265 -0.649984 -4.35274 0
M  V30 4474 H 407.384 -0.248025 -0.694012 0
M  V30 4475 H 410.026 -1.24314 -1.43688 0
M  V30 4476 H 408.176 -0.612171 -3.83647 0
M  V30 4477 H 409.848 -3.17543 -3.34611 0
M  V30 4478 H 408.091 -3.03609 -3.09845 0
M  V30 4479 H 408.762 -2.85804 -4.7225 0
M  V30 4480 H 411.238 -1.0626 -4.02303 0
M  V30 4481 H 410.114 -0.967743 -5.40302 0
M  V30 4482 H 410.375 0.449139 -4.39813 0
M  V30 4483 N 409.434 1.37368 -0.772513 0
M  V30 4484 C 410.68 1.99969 -0.337681 0
M  V30 4485 C 411.013 1.61184 1.08321 0
M  V30 4486 O 410.288 0.858395 1.74533 0
M  V30 4487 C 410.571 3.56858 -0.482121 0
M  V30 4488 C 410.424 4.0555 -1.94549 0
M  V30 4489 C 411.743 4.39955 0.113143 0
M  V30 4490 H 408.862 0.726464 -0.124171 0
M  V30 4491 H 411.504 1.63034 -0.975699 0
M  V30 4492 H 409.654 3.88452 0.0610361 0
M  V30 4493 H 411.326 3.84518 -2.54841 0
M  V30 4494 H 409.569 3.57715 -2.45403 0
M  V30 4495 H 410.24 5.14587 -1.9976 0
M  V30 4496 H 412.716 4.14623 -0.35031 0
M  V30 4497 H 411.592 5.48897 -0.0180514 0
M  V30 4498 H 411.853 4.25403 1.20354 0
M  V30 4499 N 410.912 0.523116 1.48665 0
M  V30 4500 C 412.14 -0.0096312 2.06898 0
M  V30 4501 C 412.555 -1.28784 1.38059 0
M  V30 4502 O 411.912 -1.76453 0.465893 0
M  V30 4503 C 411.963 -0.244386 3.60673 0
M  V30 4504 O 411.684 0.983172 4.26925 0
M  V30 4505 C 413.185 -0.818289 4.35682 0
M  V30 4506 H 410.405 0.0304161 0.67031 0
M  V30 4507 H 412.949 0.726799 1.91149 0
M  V30 4508 H 411.104 -0.930847 3.76051 0
M  V30 4509 H 411.518 0.759653 5.1897 0
M  V30 4510 H 412.992 -0.93201 5.44075 0
M  V30 4511 H 413.469 -1.82153 3.99646 0
M  V30 4512 H 414.075 -0.168609 4.24966 0
M  V30 4513 N 412.39 -1.55475 0.257931 0
M  V30 4514 C 413.353 -2.20551 -0.623706 0
M  V30 4515 C 414.353 -1.17809 -1.09443 0
M  V30 4516 O 415.543 -1.42823 -0.997362 0
M  V30 4517 C 412.675 -2.85784 -1.8585 0
M  V30 4518 H 413.868 -2.99848 -0.0557743 0
M  V30 4519 H 411.421 -1.56298 0.0084422 0
M  V30 4520 H 412.156 -2.10453 -2.46739 0
M  V30 4521 H 411.941 -3.61057 -1.52907 0
M  V30 4522 H 413.431 -3.35553 -2.48584 0
M  V30 4523 N 413.868 0.0150385 -1.57593 0
M  V30 4524 C 414.778 1.02791 -2.10882 0
M  V30 4525 C 415.794 1.38702 -1.0506 0
M  V30 4526 O 416.97 1.47739 -1.36877 0
M  V30 4527 C 414.035 2.30568 -2.58919 0
M  V30 4528 C 413.096 2.01108 -3.79281 0
M  V30 4529 C 412.329 3.22794 -4.25018 0
M  V30 4530 O 412.552 4.33959 -3.70183 0
M  V30 4531 O 411.486 3.07672 -5.17322 0
M  V30 4532 H 415.312 0.604973 -2.97613 0
M  V30 4533 H 412.897 0.23292 -1.47573 0
M  V30 4534 H 414.779 3.05662 -2.90084 0
M  V30 4535 H 413.454 2.72129 -1.75293 0
M  V30 4536 H 412.361 1.23537 -3.53114 0
M  V30 4537 H 413.694 1.64394 -4.63935 0
M  V30 4538 N 415.346 1.54954 0.287554 0
M  V30 4539 C 416.256 1.8991 1.37736 0
M  V30 4540 C 417.272 0.794701 1.54792 0
M  V30 4541 O 418.448 1.09243 1.69198 0
M  V30 4542 C 415.513 2.15108 2.71899 0
M  V30 4543 C 414.574 3.38752 2.63715 0
M  V30 4544 C 413.807 3.62739 3.91479 0
M  V30 4545 O 414.03 2.89492 4.91478 0
M  V30 4546 O 412.964 4.56267 3.92561 0
M  V30 4547 H 416.79 2.82652 1.11092 0
M  V30 4548 H 414.375 1.41315 0.484807 0
M  V30 4549 H 416.257 2.32806 3.51254 0
M  V30 4550 H 414.932 1.25551 2.9836 0
M  V30 4551 H 413.839 3.26405 1.82786 0
M  V30 4552 H 415.172 4.28483 2.42205 0
M  V30 4553 N 416.824 -0.551391 1.4764 0
M  V30 4554 C 417.787 -1.64007 1.60107 0
M  V30 4555 C 418.787 -1.53601 0.47576 0
M  V30 4556 O 419.977 -1.57655 0.740988 0
M  V30 4557 C 417.109 -3.03569 1.55108 0
M  V30 4558 H 418.302 -1.543 2.57161 0
M  V30 4559 H 415.855 -0.771776 1.35917 0
M  V30 4560 H 416.59 -3.18804 0.594519 0
M  V30 4561 H 416.375 -3.12532 2.36783 0
M  V30 4562 H 417.865 -3.82762 1.66982 0
M  V30 4563 N 418.302 -1.35869 -0.798587 0
M  V30 4564 C 419.232 -1.32118 -1.92528 0
M  V30 4565 C 420.213 -0.194209 -1.68988 0
M  V30 4566 O 421.398 -0.390426 -1.90235 0
M  V30 4567 C 418.528 -1.10047 -3.29404 0
M  V30 4568 C 417.482 -2.19471 -3.67446 0
M  V30 4569 C 416.808 -1.82555 -5.02571 0
M  V30 4570 C 418.108 -3.61495 -3.76987 0
M  V30 4571 H 419.802 -2.26394 -1.95924 0
M  V30 4572 H 417.348 -1.08981 -0.94123 0
M  V30 4573 H 419.301 -1.06061 -4.07835 0
M  V30 4574 H 418.025 -0.122195 -3.26371 0
M  V30 4575 H 416.684 -2.22568 -2.91306 0
M  V30 4576 H 416.332 -0.833249 -4.9605 0
M  V30 4577 H 416.032 -2.5581 -5.28995 0
M  V30 4578 H 417.556 -1.80108 -5.83432 0
M  V30 4579 H 418.97 -3.60676 -4.4563 0
M  V30 4580 H 417.367 -4.33577 -4.14887 0
M  V30 4581 H 418.437 -3.97065 -2.78329 0
M  V30 4582 N 419.78 1.02168 -1.19998 0
M  V30 4583 C 420.728 2.12717 -0.940967 0
M  V30 4584 C 421.722 1.69069 0.105841 0
M  V30 4585 O 422.928 1.79946 -0.0440583 0
M  V30 4586 H 419.303 0.695108 -0.28693 0
M  V30 4587 H 421.274 2.3175 -1.87975 0
M  V30 4588 C 420.023 3.44027 -0.504049 0
M  V30 4589 H 419.346 3.78036 -1.30112 0
M  V30 4590 H 420.786 4.22452 -0.361991 0
M  V30 4591 C 419.245 3.27678 0.782878 0
M  V30 4592 O 419.775 3.56949 1.84256 0
M  V30 4593 N 417.981 2.80943 0.742921 0
M  V30 4594 H 417.528 2.57322 -0.119687 0
M  V30 4595 H 417.486 2.70385 1.60435 0
M  V30 4596 N 421.258 1.00505 1.21394 0
M  V30 4597 C 422.488 0.705584 1.94178 0
M  V30 4598 C 422.896 -0.735846 1.74304 0
M  V30 4599 O 422.239 -1.50954 1.04683 0
M  V30 4600 C 422.301 0.94689 3.46806 0
M  V30 4601 C 421.965 2.37517 3.90429 0
M  V30 4602 C 422.962 3.35539 3.97127 0
M  V30 4603 C 420.647 2.71284 4.22742 0
M  V30 4604 C 422.641 4.65395 4.3553 0
M  V30 4605 C 420.328 4.01356 4.60822 0
M  V30 4606 C 421.326 4.98223 4.67186 0
M  V30 4607 O 421.014 6.25969 5.04399 0
M  V30 4608 H 420.746 0.259216 0.624326 0
M  V30 4609 H 423.3 1.34592 1.55159 0
M  V30 4610 H 421.53 0.249386 3.85895 0
M  V30 4611 H 423.219 0.640804 4.0081 0
M  V30 4612 H 423.985 3.10786 3.7234 0
M  V30 4613 H 419.864 1.96581 4.16985 0
M  V30 4614 H 423.408 5.41002 4.40412 0
M  V30 4615 H 419.305 4.25893 4.85063 0
M  V30 4616 H 420.073 6.30085 5.22431 0
M  V30 4617 N 422.737 -1.36956 0.779787 0
M  V30 4618 C 423.985 -1.99097 0.347079 0
M  V30 4619 C 424.306 -1.62206 -1.08232 0
M  V30 4620 O 423.576 -0.891373 -1.74446 0
M  V30 4621 H 422.156 -0.736409 0.125342 0
M  V30 4622 H 424.818 -1.67308 0.999696 0
M  V30 4623 H 423.914 -3.09107 0.431162 0
M  V30 4624 N 424.215 -0.530993 -1.48385 0
M  V30 4625 C 425.462 0.0027373 -2.025 0
M  V30 4626 C 425.79 1.34186 -1.40799 0
M  V30 4627 O 425.045 1.88 -0.543544 0
M  V30 4628 C 425.344 0.172742 -3.56982 0
M  V30 4629 C 425.01 -1.09215 -4.37473 0
M  V30 4630 C 423.672 -1.43881 -4.59186 0
M  V30 4631 C 426.024 -1.93153 -4.84088 0
M  V30 4632 C 423.352 -2.62381 -5.2476 0
M  V30 4633 C 425.704 -3.10833 -5.50968 0
M  V30 4634 C 424.368 -3.45843 -5.70919 0
M  V30 4635 H 423.638 0.00100165 -0.740999 0
M  V30 4636 H 426.285 -0.697219 -1.78357 0
M  V30 4637 H 424.59 0.955473 -3.79971 0
M  V30 4638 H 426.287 0.600642 -3.96476 0
M  V30 4639 H 422.877 -0.812177 -4.20834 0
M  V30 4640 H 427.061 -1.67683 -4.67115 0
M  V30 4641 H 422.317 -2.89707 -5.38405 0
M  V30 4642 H 426.491 -3.7618 -5.86056 0
M  V30 4643 H 424.118 -4.37764 -6.21503 0
M  V30 4644 N 425.693 1.55336 -0.266172 0
M  V30 4645 C 426.918 2.04258 0.359661 0
M  V30 4646 C 427.343 1.14359 1.49344 0
M  V30 4647 O 426.701 0.140369 1.80756 0
M  V30 4648 C 426.749 3.50997 0.826635 0
M  V30 4649 O 425.853 3.64204 1.93466 0
M  V30 4650 H 425.194 0.659668 0.075727 0
M  V30 4651 H 427.724 2.00694 -0.39786 0
M  V30 4652 H 427.734 3.9219 1.12477 0
M  V30 4653 H 426.409 4.159 -0.00293032 0
M  V30 4654 H 424.986 3.34913 1.63974 0
M  V30 4655 N 427.171 -0.0066808 1.57599 0
M  V30 4656 C 428.419 -0.691552 1.899 0
M  V30 4657 C 428.74 -1.74682 0.866672 0
M  V30 4658 O 428.01 -1.95661 -0.0968189 0
M  V30 4659 H 426.59 -0.258416 0.700878 0
M  V30 4660 H 429.252 0.0326655 1.94873 0
M  V30 4661 H 428.348 -1.16702 2.8946 0
M  V30 4662 N 428.649 -1.55105 -0.279332 0
M  V30 4663 C 429.895 -1.75672 -1.01327 0
M  V30 4664 C 430.228 -0.552739 -1.86168 0
M  V30 4665 O 429.503 0.449827 -1.89227 0
M  V30 4666 C 429.786 -3.05825 -1.90114 0
M  V30 4667 C 429.639 -4.36565 -1.08309 0
M  V30 4668 C 430.958 -3.31975 -2.8893 0
M  V30 4669 H 428.077 -0.639149 -0.366957 0
M  V30 4670 H 430.719 -1.87833 -0.286154 0
M  V30 4671 H 428.869 -2.95588 -2.52111 0
M  V30 4672 H 430.541 -4.58751 -0.484314 0
M  V30 4673 H 428.784 -4.32076 -0.386362 0
M  V30 4674 H 429.455 -5.23946 -1.73737 0
M  V30 4675 H 431.931 -3.41963 -2.37067 0
M  V30 4676 H 430.807 -4.2432 -3.48201 0
M  V30 4677 H 431.068 -2.51309 -3.63725 0
M  V30 4678 N 430.127 0.543554 -1.4793 0
M  V30 4679 C 431.06 1.66556 -1.55995 0
M  V30 4680 C 432.038 1.57315 -0.411205 0
M  V30 4681 O 433.222 1.7798 -0.620922 0
M  V30 4682 C 430.349 3.04883 -1.47527 0
M  V30 4683 C 429.395 3.32526 -2.67074 0
M  V30 4684 S 430.228 3.20282 -4.29162 0
M  V30 4685 C 431.384 4.61079 -4.23269 0
M  V30 4686 H 431.617 1.59462 -2.50917 0
M  V30 4687 H 429.15 0.725456 -1.36296 0
M  V30 4688 H 431.108 3.84665 -1.43328 0
M  V30 4689 H 429.769 3.09429 -0.539665 0
M  V30 4690 H 428.962 4.33403 -2.5725 0
M  V30 4691 H 428.564 2.60389 -2.68466 0
M  V30 4692 H 430.856 5.52318 -3.92365 0
M  V30 4693 H 431.799 4.75959 -5.24279 0
M  V30 4694 H 432.207 4.39766 -3.5393 0
M  V30 4695 N 431.605 1.3629 0.791371 0
M  V30 4696 C 432.535 1.33137 1.91825 0
M  V30 4697 C 433.516 0.203168 1.68882 0
M  V30 4698 O 434.701 0.400509 1.90025 0
M  V30 4699 C 431.831 1.11793 3.28816 0
M  V30 4700 C 430.785 2.21417 3.66277 0
M  V30 4701 C 430.111 1.85218 5.01596 0
M  V30 4702 C 431.411 3.63489 3.75064 0
M  V30 4703 H 433.105 2.2743 1.9472 0
M  V30 4704 H 430.651 1.09479 0.935437 0
M  V30 4705 H 432.604 1.08222 4.07266 0
M  V30 4706 H 431.328 0.139501 3.26302 0
M  V30 4707 H 429.987 2.2411 2.90121 0
M  V30 4708 H 429.635 0.859544 4.95602 0
M  V30 4709 H 429.335 2.58611 5.27631 0
M  V30 4710 H 430.859 1.832 5.82469 0
M  V30 4711 H 432.273 3.63034 4.43711 0
M  V30 4712 H 430.67 4.35771 4.12582 0
M  V30 4713 H 431.74 3.98536 2.76219 0
M  V30 4714 N 433.083 -1.0153 1.20538 0
M  V30 4715 C 434.499 -1.27461 0.96051 0
M  V30 4716 C 434.699 -1.98273 -0.359193 0
M  V30 4717 O 433.755 -2.27886 -1.0874 0
M  V30 4718 C 435.068 -2.10837 2.14402 0
M  V30 4719 C 436.616 -2.24099 2.18515 0
M  V30 4720 C 437.091 -3.10852 3.36355 0
M  V30 4721 N 438.582 -3.18441 3.36377 0
M  V30 4722 C 439.317 -3.85795 4.24205 0
M  V30 4723 N 438.813 -4.55264 5.22213 0
M  V30 4724 N 440.606 -3.82331 4.12043 0
M  V30 4725 H 432.757 -0.539907 2.05423 0
M  V30 4726 H 435.02 -0.30092 0.898972 0
M  V30 4727 H 434.726 -1.66144 3.09983 0
M  V30 4728 H 434.6 -3.11576 2.12604 0
M  V30 4729 H 436.987 -2.68016 1.23497 0
M  V30 4730 H 437.068 -1.22865 2.24361 0
M  V30 4731 H 436.712 -2.6764 4.31661 0
M  V30 4732 H 436.642 -4.12177 3.27746 0
M  V30 4733 H 439.133 -2.68978 2.65442 0
M  V30 4734 H 439.446 -5.04331 5.85551 0
M  V30 4735 H 437.791 -4.54085 5.26148 0
M  V30 4736 H 440.982 -3.27207 3.34743 0
M  V30 4737 H 441.155 -4.34547 4.807 0
M  V30 4738 N 434.561 -1.01147 -1.20859 0
M  V30 4739 C 435.809 -0.696486 -1.89719 0
M  V30 4740 C 436.13 0.775788 -1.78904 0
M  V30 4741 O 435.4 1.55759 -1.18811 0
M  V30 4742 H 433.98 -0.254628 -0.702263 0
M  V30 4743 H 436.642 -1.28197 -1.46804 0
M  V30 4744 H 435.738 -0.975357 -2.96468 0
M  V30 4745 N 436.039 1.36541 -0.78704 0
M  V30 4746 C 437.264 2.0409 -0.369053 0
M  V30 4747 C 437.689 1.58957 1.00569 0
M  V30 4748 O 437.047 0.756926 1.64743 0
M  V30 4749 C 437.095 3.57924 -0.438466 0
M  V30 4750 O 436.199 4.08642 0.555479 0
M  V30 4751 H 435.54 0.645142 -0.157122 0
M  V30 4752 H 438.07 1.74545 -1.06749 0
M  V30 4753 H 438.08 4.06887 -0.301218 0
M  V30 4754 H 436.755 3.90127 -1.44132 0
M  V30 4755 H 435.332 3.70958 0.380088 0
M  V30 4756 N 437.518 0.538854 1.48102 0
M  V30 4757 C 438.766 0.00798599 2.02098 0
M  V30 4758 C 439.087 -1.33922 1.41739 0
M  V30 4759 O 438.357 -1.86932 0.585934 0
M  V30 4760 H 436.937 -3.62179e-05 0.747 0
M  V30 4761 H 439.599 0.7047 1.81714 0
M  V30 4762 H 438.695 -0.0937672 3.11959 0
M  V30 4763 N 438.996 -1.55193 0.274407 0
M  V30 4764 C 440.245 -1.98758 -0.343213 0
M  V30 4765 C 440.558 -1.16624 -1.5703 0
M  V30 4766 O 441.764 -1.5033 -2.26082 0
M  V30 4767 C 440.22 -3.53759 -0.661996 0
M  V30 4768 C 439.828 -4.4467 0.54524 0
M  V30 4769 C 441.572 -4.05916 -1.24228 0
M  V30 4770 C 439.479 -5.91058 0.201084 0
M  V30 4771 H 438.409 -0.742353 -0.132014 0
M  V30 4772 H 441.06 -1.79545 0.378948 0
M  V30 4773 H 439.442 -3.68772 -1.44304 0
M  V30 4774 H 440.616 -4.41426 1.32212 0
M  V30 4775 H 438.931 -4.03143 1.04232 0
M  V30 4776 H 441.528 -5.12831 -1.51357 0
M  V30 4777 H 441.871 -3.54908 -2.17592 0
M  V30 4778 H 442.404 -3.9434 -0.523542 0
M  V30 4779 H 439.143 -6.46161 1.10258 0
M  V30 4780 H 438.663 -5.97373 -0.539045 0
M  V30 4781 H 440.342 -6.46669 -0.206954 0
M  V30 4782 N 440.474 -0.00167713 -1.576 0
M  V30 4783 C 441.406 1.0174 -2.05382 0
M  V30 4784 C 442.419 1.30595 -0.972052 0
M  V30 4785 O 443.608 1.27542 -1.24882 0
M  V30 4786 C 440.708 2.35174 -2.44022 0
M  V30 4787 C 439.881 2.25234 -3.74951 0
M  V30 4788 C 438.94 3.4137 -4.00441 0
M  V30 4789 O 437.966 3.19483 -4.71083 0
M  V30 4790 N 439.168 4.64275 -3.48467 0
M  V30 4791 H 441.933 0.609902 -2.93428 0
M  V30 4792 H 439.494 0.185672 -1.60832 0
M  V30 4793 H 441.486 3.11643 -2.58187 0
M  V30 4794 H 440.056 2.67659 -1.61485 0
M  V30 4795 H 439.276 1.33664 -3.70847 0
M  V30 4796 H 440.564 2.15767 -4.60784 0
M  V30 4797 H 439.962 4.84955 -2.91264 0
M  V30 4798 H 438.519 5.38005 -3.67959 0
M  V30 4799 N 441.952 1.55251 0.271103 0
M  V30 4800 C 443.198 1.7713 0.999832 0
M  V30 4801 C 443.553 0.56659 1.83868 0
M  V30 4802 O 442.846 -0.44069 1.86463 0
M  V30 4803 C 443.04 3.01879 1.91321 0
M  V30 4804 C 442.869 4.34368 1.16426 0
M  V30 4805 C 441.639 4.97593 0.879169 0
M  V30 4806 C 443.837 5.1131 0.553749 0
M  V30 4807 N 441.819 6.13813 0.103618 0
M  V30 4808 C 443.19 6.19938 -0.0875442 0
M  V30 4809 C 445.245 4.95754 0.461782 0
M  V30 4810 C 443.948 7.14703 -0.811942 0
M  V30 4811 C 445.974 5.90875 -0.249027 0
M  V30 4812 C 445.336 6.98893 -0.879051 0
M  V30 4813 H 441.435 0.700407 0.347784 0
M  V30 4814 H 444.019 1.92744 0.275314 0
M  V30 4815 H 442.19 2.87637 2.60997 0
M  V30 4816 H 443.922 3.12154 2.57569 0
M  V30 4817 H 440.677 4.58538 1.18491 0
M  V30 4818 H 441.101 6.76455 -0.271543 0
M  V30 4819 H 445.743 4.12342 0.934552 0
M  V30 4820 H 443.461 7.97634 -1.29639 0
M  V30 4821 H 447.047 5.80916 -0.320529 0
M  V30 4822 H 445.927 7.71231 -1.42031 0
M  V30 4823 N 443.43 -0.535701 1.48216 0
M  V30 4824 C 444.707 -1.29683 1.46429 0
M  V30 4825 C 445.087 -2.10391 0.172852 0
M  V30 4826 O 444.435 -2.12282 -0.845488 0
M  V30 4827 C 444.645 -2.18313 2.72287 0
M  V30 4828 C 445.993 -2.78639 3.20383 0
M  V30 4829 O 447.017 -2.28604 2.73164 0
M  V30 4830 O 445.876 -3.69636 4.02531 0
M  V30 4831 H 442.97 -0.585026 0.584529 0
M  V30 4832 H 445.516 -0.552827 1.60443 0
M  V30 4833 H 444.288 -1.58421 3.57797 0
M  V30 4834 H 443.911 -2.99971 2.60966 0
M  V30 4835 N 444.908 -1.36708 -0.784132 0
M  V30 4836 C 445.838 -1.34153 -1.91116 0
M  V30 4837 C 446.819 -0.212121 -1.68772 0
M  V30 4838 O 448.004 -0.410581 -1.8981 0
M  V30 4839 C 445.134 -1.13535 -3.28218 0
M  V30 4840 C 444.088 -2.23356 -3.65097 0
M  V30 4841 C 443.414 -1.87875 -5.00607 0
M  V30 4842 C 444.714 -3.65473 -3.73131 0
M  V30 4843 H 446.408 -2.28459 -1.93512 0
M  V30 4844 H 443.954 -1.09973 -0.929618 0
M  V30 4845 H 445.907 -1.10381 -4.06687 0
M  V30 4846 H 444.631 -0.156804 -3.26223 0
M  V30 4847 H 443.29 -2.25645 -2.88929 0
M  V30 4848 H 442.938 -0.885814 -4.95139 0
M  V30 4849 H 442.638 -2.61406 -5.26252 0
M  V30 4850 H 444.162 -1.86286 -5.81489 0
M  V30 4851 H 445.576 -3.65382 -4.41779 0
M  V30 4852 H 443.973 -4.37953 -4.10265 0
M  V30 4853 H 445.043 -3.99995 -2.74102 0
M  V30 4854 N 446.386 1.0089 -1.21074 0
M  V30 4855 C 447.802 1.2695 -0.967257 0
M  V30 4856 C 448.002 1.9846 0.348673 0
M  V30 4857 O 447.058 2.28459 1.0753 0
M  V30 4858 C 448.371 2.09697 -2.15517 0
M  V30 4859 C 449.919 2.22937 -2.197 0
M  V30 4860 C 450.394 3.09064 -3.37999 0
M  V30 4861 N 451.885 3.16653 -3.38061 0
M  V30 4862 C 452.62 3.8354 -4.26245 0
M  V30 4863 N 452.116 4.52488 -5.2462 0
M  V30 4864 N 453.909 3.80141 -4.14064 0
M  V30 4865 H 446.06 0.529005 -2.05707 0
M  V30 4866 H 448.323 0.296148 -0.900556 0
M  V30 4867 H 448.029 1.64497 -3.10859 0
M  V30 4868 H 447.903 3.10444 -2.14253 0
M  V30 4869 H 450.29 2.67357 -1.24916 0
M  V30 4870 H 450.371 1.21673 -2.2501 0
M  V30 4871 H 450.015 2.65347 -4.33074 0
M  V30 4872 H 449.945 4.10433 -3.29928 0
M  V30 4873 H 452.436 2.67566 -2.66865 0
M  V30 4874 H 452.749 5.01219 -5.88217 0
M  V30 4875 H 451.094 4.51288 -5.28549 0
M  V30 4876 H 454.285 3.25427 -3.36474 0
M  V30 4877 H 454.458 4.31992 -4.82998 0
M  V30 4878 N 447.864 1.01787 1.20321 0
M  V30 4879 C 448.811 0.589197 2.23153 0
M  V30 4880 C 449.781 -0.391367 1.61423 0
M  V30 4881 O 450.966 -0.290518 1.88575 0
M  V30 4882 C 448.106 -0.0650747 3.45039 0
M  V30 4883 C 447.219 0.960207 4.21194 0
M  V30 4884 C 446.354 0.276854 5.30478 0
M  V30 4885 C 445.393 1.2888 5.98378 0
M  V30 4886 N 444.53 0.632031 6.99249 0
M  V30 4887 H 449.37 1.47071 2.59179 0
M  V30 4888 H 446.907 0.736192 1.27352 0
M  V30 4889 H 448.865 -0.461552 4.14639 0
M  V30 4890 H 447.495 -0.910233 3.09701 0
M  V30 4891 H 446.547 1.47484 3.50646 0
M  V30 4892 H 447.859 1.72977 4.67847 0
M  V30 4893 H 447.013 -0.175056 6.06447 0
M  V30 4894 H 445.752 -0.525004 4.84866 0
M  V30 4895 H 444.757 1.75109 5.21169 0
M  V30 4896 H 445.982 2.09196 6.46076 0
M  V30 4897 H 443.928 -0.149935 6.55829 0
M  V30 4898 H 443.845 1.33964 7.44036 0
M  V30 4899 H 445.113 0.203755 7.79234 0
M  V30 4900 N 449.342 -1.36122 0.79427 0
M  V30 4901 C 450.57 -2.03362 0.380989 0
M  V30 4902 C 450.985 -1.59881 -1.00416 0
M  V30 4903 O 450.342 -0.790515 -1.6449 0
M  V30 4904 C 450.393 -3.58804 0.440649 0
M  V30 4905 O 450.114 -4.007 1.77118 0
M  V30 4906 C 451.615 -4.43296 0.0186117 0
M  V30 4907 H 448.835 -0.652526 0.156367 0
M  V30 4908 H 451.379 -1.73998 1.07447 0
M  V30 4909 H 449.534 -3.8686 -0.204458 0
M  V30 4910 H 449.948 -4.95309 1.72538 0
M  V30 4911 H 451.422 -5.51887 0.111488 0
M  V30 4912 H 451.899 -4.2684 -1.03461 0
M  V30 4913 H 452.505 -4.20512 0.636395 0
M  V30 4914 N 450.82 -0.546701 -1.47814 0
M  V30 4915 C 451.752 0.244196 -2.27895 0
M  V30 4916 C 452.765 0.88911 -1.36377 0
M  V30 4917 O 453.954 0.764733 -1.61289 0
M  V30 4918 C 451.054 1.36252 -3.10304 0
M  V30 4919 C 450.227 0.816382 -4.29714 0
M  V30 4920 C 449.286 1.81789 -4.93801 0
M  V30 4921 O 448.312 1.36818 -5.52512 0
M  V30 4922 N 449.514 3.15085 -4.87547 0
M  V30 4923 H 452.279 -0.442694 -2.96412 0
M  V30 4924 H 449.84 -0.382095 -1.57327 0
M  V30 4925 H 451.832 2.03102 -3.50045 0
M  V30 4926 H 450.402 1.95281 -2.44099 0
M  V30 4927 H 449.622 -0.0285981 -3.9419 0
M  V30 4928 H 450.91 0.430668 -5.06974 0
M  V30 4929 H 450.308 3.54275 -4.41028 0
M  V30 4930 H 448.865 3.77522 -5.31339 0
M  V30 4931 N 452.299 1.55045 -0.282633 0
M  V30 4932 C 453.71 1.85473 0.213655 0
M  V30 4933 C 454.061 1.20465 1.54863 0
M  V30 4934 O 453.186 0.495676 2.10647 0
M  V30 4935 C 453.781 3.36496 0.394445 0
M  V30 4936 C 452.34 3.67022 0.834961 0
M  V30 4937 C 451.487 2.77218 -0.0674081 0
M  V30 4938 H 454.438 1.50478 -0.504202 0
M  V30 4939 H 454.459 3.60007 1.23186 0
M  V30 4940 H 453.971 3.83782 -0.577326 0
M  V30 4941 H 452.072 3.25241 1.81794 0
M  V30 4942 H 452.185 4.74433 0.667075 0
M  V30 4943 H 450.549 2.5069 0.450196 0
M  V30 4944 H 451.332 3.2732 -1.0352 0
M  V30 4945 N 453.777 0.010035 1.57597 0
M  V30 4946 C 455.007 -0.682422 1.95004 0
M  V30 4947 C 455.415 -1.67278 0.884014 0
M  V30 4948 O 454.758 -1.83129 -0.144672 0
M  V30 4949 C 454.82 -1.46141 3.28456 0
M  V30 4950 C 454.484 -0.631523 4.52615 0
M  V30 4951 C 455.481 0.0850905 5.1983 0
M  V30 4952 C 453.166 -0.574539 4.99003 0
M  V30 4953 C 455.16 0.847566 6.3174 0
M  V30 4954 C 452.847 0.191655 6.10799 0
M  V30 4955 C 453.845 0.901432 6.77025 0
M  V30 4956 O 453.533 1.65511 7.86677 0
M  V30 4957 H 453.265 -0.194361 0.647456 0
M  V30 4958 H 455.819 0.060312 2.05311 0
M  V30 4959 H 454.049 -2.24885 3.14585 0
M  V30 4960 H 455.738 -2.04016 3.50902 0
M  V30 4961 H 456.504 0.0502812 4.84974 0
M  V30 4962 H 452.383 -1.11654 4.47274 0
M  V30 4963 H 455.927 1.4021 6.83364 0
M  V30 4964 H 451.824 0.228249 6.45096 0
M  V30 4965 H 452.592 1.57287 8.03245 0
M  V30 4966 N 455.255 -1.55392 -0.262866 0
M  V30 4967 C 456.532 -1.67204 -1.01499 0
M  V30 4968 C 456.912 -0.545186 -2.03939 0
M  V30 4969 O 456.26 0.453467 -2.23955 0
M  V30 4970 C 456.47 -3.06847 -1.6627 0
M  V30 4971 C 457.818 -3.64928 -2.17054 0
M  V30 4972 O 458.842 -3.09545 -1.76239 0
M  V30 4973 O 457.701 -4.61984 -2.91947 0
M  V30 4974 H 454.795 -0.679467 -0.471438 0
M  V30 4975 H 457.341 -1.67729 -0.257918 0
M  V30 4976 H 456.113 -3.80309 -0.920915 0
M  V30 4977 H 455.736 -3.10266 -2.48638 0
M  V30 4978 N 456.733 0.527833 -1.48498 0
M  V30 4979 C 457.979 1.28545 -1.56857 0
M  V30 4980 C 458.312 1.92678 -0.242651 0
M  V30 4981 O 457.587 1.79394 0.751545 0
M  V30 4982 C 457.87 2.37314 -2.70839 0
M  V30 4983 C 457.723 1.77858 -4.13142 0
M  V30 4984 C 459.042 3.39068 -2.80573 0
M  V30 4985 H 456.161 0.466006 -0.570971 0
M  V30 4986 H 458.803 0.587784 -1.8068 0
M  V30 4987 H 456.953 2.96821 -2.50658 0
M  V30 4988 H 458.625 1.22385 -4.44769 0
M  V30 4989 H 456.868 1.08383 -4.20042 0
M  V30 4990 H 457.539 2.56624 -4.88721 0
M  V30 4991 H 460.015 2.89518 -2.98862 0
M  V30 4992 H 458.891 4.12566 -3.6205 0
M  V30 4993 H 459.152 3.9975 -1.88818 0
M  V30 4994 N 458.211 1.37122 0.776871 0
M  V30 4995 C 459.441 1.35034 1.56363 0
M  V30 4996 C 459.849 -0.0674681 1.8908 0
M  V30 4997 O 459.192 -1.03826 1.51545 0
M  V30 4998 C 459.254 2.11894 2.90415 0
M  V30 4999 C 458.918 3.60897 2.80362 0
M  V30 5000 C 459.915 4.54887 2.51742 0
M  V30 5001 C 457.6 4.03951 2.98545 0
M  V30 5002 C 459.594 5.89909 2.41426 0
M  V30 5003 C 457.281 5.3906 2.87849 0
M  V30 5004 C 458.279 6.31852 2.5933 0
M  V30 5005 O 457.967 7.64479 2.48651 0
M  V30 5006 H 457.699 0.464402 0.49123 0
M  V30 5007 H 460.253 1.80992 0.971127 0
M  V30 5008 H 458.483 1.60618 3.51765 0
M  V30 5009 H 460.172 2.02505 3.51776 0
M  V30 5010 H 460.938 4.22934 2.37385 0
M  V30 5011 H 456.817 3.3209 3.19746 0
M  V30 5012 H 460.361 6.62304 2.19086 0
M  V30 5013 H 456.258 5.70617 3.01773 0
M  V30 5014 H 457.026 7.74742 2.64039 0
M  V30 5015 N 459.689 -1.00246 1.21608 0
M  V30 5016 C 460.966 -1.71336 0.943568 0
M  V30 5017 C 461.346 -2.03972 -0.543943 0
M  V30 5018 O 460.694 -1.71545 -1.50946 0
M  V30 5019 C 460.904 -2.97094 1.83128 0
M  V30 5020 C 462.252 -3.70071 2.08165 0
M  V30 5021 O 463.276 -3.07081 1.80498 0
M  V30 5022 O 462.135 -4.83376 2.54971 0
M  V30 5023 H 459.229 -0.747386 0.354039 0
M  V30 5024 H 461.775 -1.05967 1.32549 0
M  V30 5025 H 460.547 -2.69407 2.83788 0
M  V30 5026 H 460.17 -3.70204 1.45034 0
M  V30 5027 N 461.167 -1.02423 -1.1978 0
M  V30 5028 C 462.099 -0.559152 -2.22275 0
M  V30 5029 C 463.112 0.36251 -1.58713 0
M  V30 5030 O 464.301 0.159641 -1.77785 0
M  V30 5031 C 461.401 0.205094 -3.38279 0
M  V30 5032 C 460.574 -0.720361 -4.31427 0
M  V30 5033 C 459.633 -0.00234368 -5.262 0
M  V30 5034 O 458.659 -0.627378 -5.65732 0
M  V30 5035 N 459.861 1.26996 -5.66438 0
M  V30 5036 H 462.626 -1.44064 -2.62804 0
M  V30 5037 H 460.187 -0.902692 -1.34399 0
M  V30 5038 H 462.179 0.694868 -3.9869 0
M  V30 5039 H 460.749 0.987947 -2.96578 0
M  V30 5040 H 459.969 -1.39031 -3.68869 0
M  V30 5041 H 461.257 -1.3495 -4.90577 0
M  V30 5042 H 460.655 1.79858 -5.36347 0
M  V30 5043 H 459.212 1.70432 -6.29123 0
M  V30 5044 N 462.645 1.35699 -0.801477 0
M  V30 5045 C 463.891 1.99208 -0.380022 0
M  V30 5046 C 464.224 1.63445 1.04878 0
M  V30 5047 O 463.499 0.895223 1.72673 0
M  V30 5048 C 463.782 3.55755 -0.557708 0
M  V30 5049 C 463.635 4.01332 -2.03107 0
M  V30 5050 C 464.954 4.40096 0.0197968 0
M  V30 5051 H 462.073 0.723667 -0.139552 0
M  V30 5052 H 464.715 1.60928 -1.01006 0
M  V30 5053 H 462.865 3.88494 -0.0213741 0
M  V30 5054 H 464.537 3.79026 -2.62939 0
M  V30 5055 H 462.78 3.52429 -2.52936 0
M  V30 5056 H 463.451 5.10234 -2.1063 0
M  V30 5057 H 465.927 4.13786 -0.438179 0
M  V30 5058 H 464.803 5.48735 -0.134477 0
M  V30 5059 H 465.064 4.2786 1.11303 0
M  V30 5060 N 464.123 0.554532 1.47522 0
M  V30 5061 C 465.033 -0.197865 2.33764 0
M  V30 5062 C 466.049 -0.914576 1.48025 0
M  V30 5063 O 467.225 -0.884067 1.80959 0
M  V30 5064 C 464.29 -1.21628 3.24665 0
M  V30 5065 C 463.351 -0.507283 4.26292 0
M  V30 5066 C 462.584 -1.47718 5.1285 0
M  V30 5067 O 462.807 -2.7118 5.01814 0
M  V30 5068 O 461.741 -1.00313 5.93482 0
M  V30 5069 H 465.567 0.50949 2.99396 0
M  V30 5070 H 463.152 0.315176 1.46038 0
M  V30 5071 H 465.034 -1.80421 3.80823 0
M  V30 5072 H 463.709 -1.9056 2.61665 0
M  V30 5073 H 462.616 0.121778 3.73902 0
M  V30 5074 H 463.949 0.140544 4.91999 0
M  V30 5075 N 465.601 -1.54893 0.290851 0
M  V30 5076 C 466.848 -1.99933 -0.321391 0
M  V30 5077 C 467.176 -1.17927 -1.54672 0
M  V30 5078 O 466.431 -0.240902 -1.94212 0
M  V30 5079 C 466.73 -3.49815 -0.732397 0
M  V30 5080 C 466.396 -4.4921 0.390056 0
M  V30 5081 C 465.058 -4.76107 0.698223 0
M  V30 5082 C 467.41 -5.08453 1.14562 0
M  V30 5083 C 464.738 -5.59514 1.76526 0
M  V30 5084 C 467.09 -5.9302 2.2025 0
M  V30 5085 C 465.754 -6.18232 2.51684 0
M  V30 5086 H 465.024 -0.731608 -0.117605 0
M  V30 5087 H 467.671 -1.87107 0.407839 0
M  V30 5088 H 465.976 -3.60199 -1.54155 0
M  V30 5089 H 467.673 -3.82083 -1.21712 0
M  V30 5090 H 464.263 -4.28372 0.13976 0
M  V30 5091 H 468.447 -4.87683 0.920801 0
M  V30 5092 H 463.703 -5.77289 2.01364 0
M  V30 5093 H 467.877 -6.37955 2.7926 0
M  V30 5094 H 465.504 -6.82653 3.34499 0
M  V30 5095 N 467.08 -0.0183926 -1.57589 0
M  V30 5096 C 468.357 0.700621 -1.82622 0
M  V30 5097 C 468.737 1.90951 -0.90005 0
M  V30 5098 O 468.085 2.28452 0.0469145 0
M  V30 5099 C 468.295 1.08899 -3.31575 0
M  V30 5100 C 469.643 1.48514 -3.9778 0
M  V30 5101 O 470.667 1.18227 -3.36007 0
M  V30 5102 O 469.526 2.04903 -5.06633 0
M  V30 5103 H 466.62 0.342743 -0.752633 0
M  V30 5104 H 469.166 -0.0452548 -1.6964 0
M  V30 5105 H 467.938 0.228113 -3.90635 0
M  V30 5106 H 467.561 1.89338 -3.49624 0
M  V30 5107 N 468.558 1.5553 0.254621 0
M  V30 5108 C 469.804 1.77262 0.985193 0
M  V30 5109 C 470.137 0.582286 1.85265 0
M  V30 5110 O 469.412 -0.419666 1.89919 0
M  V30 5111 C 469.695 3.0881 1.85225 0
M  V30 5112 C 469.548 4.38233 1.0135 0
M  V30 5113 C 470.867 3.3653 2.83612 0
M  V30 5114 H 467.986 0.644906 0.356742 0
M  V30 5115 H 470.628 1.88264 0.256236 0
M  V30 5116 H 468.778 2.99562 2.47376 0
M  V30 5117 H 470.45 4.59463 0.411269 0
M  V30 5118 H 468.693 4.32636 0.317574 0
M  V30 5119 H 469.364 5.26644 1.65379 0
M  V30 5120 H 471.84 3.45691 2.31596 0
M  V30 5121 H 470.716 4.29805 3.41407 0
M  V30 5122 H 470.977 2.57064 3.59681 0
M  V30 5123 N 470.036 -0.519951 1.48776 0
M  V30 5124 C 471.447 -1.10177 1.50725 0
M  V30 5125 C 471.798 -1.94153 0.282678 0
M  V30 5126 O 470.923 -2.07645 -0.609298 0
M  V30 5127 C 471.518 -2.00482 2.73116 0
M  V30 5128 C 470.077 -2.53862 2.77905 0
M  V30 5129 C 469.224 -1.31047 2.44381 0
M  V30 5130 H 472.175 -0.30473 1.55747 0
M  V30 5131 H 472.196 -2.8491 2.52203 0
M  V30 5132 H 471.708 -1.39335 3.62225 0
M  V30 5133 H 469.809 -3.18702 1.93029 0
M  V30 5134 H 469.922 -2.9231 3.79594 0
M  V30 5135 H 468.286 -1.62953 1.95751 0
M  V30 5136 H 469.069 -0.71637 3.35743 0
M  V30 5137 N 471.514 -1.37532 -0.769588 0
M  V30 5138 C 472.76 -1.33057 -1.53048 0
M  V30 5139 C 473.093 0.0841865 -1.94017 0
M  V30 5140 O 472.368 1.04198 -1.64235 0
M  V30 5141 C 472.651 -2.27166 -2.79406 0
M  V30 5142 C 472.504 -3.77429 -2.44677 0
M  V30 5143 C 473.823 -2.19683 -3.81349 0
M  V30 5144 H 470.942 -0.484655 -0.555228 0
M  V30 5145 H 473.584 -1.68251 -0.882702 0
M  V30 5146 H 471.734 -1.97283 -3.34682 0
M  V30 5147 H 473.406 -4.17918 -1.953 0
M  V30 5148 H 471.649 -3.95892 -1.77346 0
M  V30 5149 H 472.32 -4.38716 -3.35011 0
M  V30 5150 H 474.796 -2.46029 -3.35573 0
M  V30 5151 H 473.672 -2.87668 -4.67481 0
M  V30 5152 H 473.933 -1.19045 -4.25771 0
M  V30 5153 N 472.992 0.995999 -1.22138 0
M  V30 5154 C 474.24 1.73167 -1.042 0
M  V30 5155 C 474.561 1.90329 0.42423 0
M  V30 5156 O 473.831 1.4607 1.30539 0
M  V30 5157 H 472.411 0.641593 -0.38258 0
M  V30 5158 H 475.073 1.19974 -1.53598 0
M  V30 5159 H 474.169 2.72734 -1.51731 0
M  V30 5160 N 474.47 1.03057 1.19235 0
M  V30 5161 C 475.695 0.74757 1.93458 0
M  V30 5162 C 476.12 -0.687648 1.7508 0
M  V30 5163 O 475.478 -1.47499 1.05422 0
M  V30 5164 C 475.526 1.10604 3.43219 0
M  V30 5165 O 474.63 0.225671 4.11782 0
M  V30 5166 H 473.971 0.276047 0.603899 0
M  V30 5167 H 476.501 1.3777 1.51263 0
M  V30 5168 H 476.511 1.06366 3.93891 0
M  V30 5169 H 475.186 2.15165 3.55917 0
M  V30 5170 H 473.763 0.326795 3.71465 0
M  V30 5171 N 475.948 -1.35272 0.808662 0
M  V30 5172 C 477.364 -1.51806 0.492653 0
M  V30 5173 C 477.564 -1.7574 -0.985778 0
M  V30 5174 O 476.62 -1.80003 -1.77074 0
M  V30 5175 C 477.933 -2.69202 1.33981 0
M  V30 5176 C 479.481 -2.8308 1.33547 0
M  V30 5177 C 479.956 -4.03502 2.16679 0
M  V30 5178 N 481.447 -4.10684 2.14227 0
M  V30 5179 C 482.182 -5.02984 2.75308 0
M  V30 5180 N 481.678 -6.00603 3.45323 0
M  V30 5181 N 483.471 -4.95746 2.64938 0
M  V30 5182 H 475.622 -1.17993 1.76611 0
M  V30 5183 H 477.885 -0.577476 0.751814 0
M  V30 5184 H 477.591 -2.581 2.38909 0
M  V30 5185 H 477.465 -3.63854 0.994491 0
M  V30 5186 H 479.852 -2.93631 0.294036 0
M  V30 5187 H 479.933 -1.89278 1.72068 0
M  V30 5188 H 479.577 -3.93711 3.20864 0
M  V30 5189 H 479.507 -4.96489 1.75517 0
M  V30 5190 H 481.998 -3.40802 1.63285 0
M  V30 5191 H 482.311 -6.67633 3.89212 0
M  V30 5192 H 480.656 -6.0077 3.49428 0
M  V30 5193 H 483.847 -4.18439 2.09825 0
M  V30 5194 H 484.02 -5.67487 3.12829 0
M  V30 5195 N 477.426 -0.562348 -1.47226 0
M  V30 5196 C 478.674 -0.0401371 -2.0206 0
M  V30 5197 C 478.995 1.3165 -1.43852 0
M  V30 5198 O 478.265 1.85976 -0.615599 0
M  V30 5199 H 476.845 -0.0118479 -0.746906 0
M  V30 5200 H 479.507 -0.73352 -1.8057 0
M  V30 5201 H 478.603 0.0441254 -3.12069 0
M  V30 5202 N 478.904 1.54736 -0.299062 0
M  V30 5203 C 480.181 1.92187 0.363802 0
M  V30 5204 C 480.561 1.22607 1.71845 0
M  V30 5205 O 479.909 0.361141 2.25628 0
M  V30 5206 C 480.119 3.45678 0.480377 0
M  V30 5207 C 481.467 4.17885 0.752147 0
M  V30 5208 O 482.491 3.51702 0.564264 0
M  V30 5209 O 481.35 5.35048 1.11294 0
M  V30 5210 H 478.444 0.801681 0.203066 0
M  V30 5211 H 480.99 1.66115 -0.346978 0
M  V30 5212 H 479.762 3.88443 -0.471999 0
M  V30 5213 H 479.385 3.77779 1.2397 0
M  V30 5214 N 480.382 0.0267497 1.57577 0
M  V30 5215 C 481.622 -0.65659 1.93567 0
M  V30 5216 C 481.986 -1.69429 0.903213 0
M  V30 5217 O 483.187 -2.42994 1.14923 0
M  V30 5218 C 481.458 -1.25912 3.34486 0
M  V30 5219 S 483.017 -1.96386 3.924 0
M  V30 5220 H 479.835 -0.216237 0.67732 0
M  V30 5221 H 482.437 0.0898475 1.95293 0
M  V30 5222 H 481.141 -0.491405 4.07447 0
M  V30 5223 H 480.672 -2.04291 3.36198 0
M  V30 5224 H 482.687 -3.24202 3.75643 0
M  V30 5225 N 481.861 -1.55662 -0.24637 0
M  V30 5226 C 483.091 -1.81312 -0.990438 0
M  V30 5227 C 483.499 -0.600234 -1.79426 0
M  V30 5228 O 482.842 0.440537 -1.78339 0
M  V30 5229 C 482.904 -3.0032 -1.97607 0
M  V30 5230 C 482.568 -4.36322 -1.35912 0
M  V30 5231 C 483.565 -5.14295 -0.761348 0
M  V30 5232 C 481.25 -4.83019 -1.37833 0
M  V30 5233 C 483.244 -6.37114 -0.190998 0
M  V30 5234 C 480.931 -6.05786 -0.804128 0
M  V30 5235 C 481.929 -6.82672 -0.211489 0
M  V30 5236 O 481.617 -8.03121 0.353845 0
M  V30 5237 H 481.349 -0.607233 -0.297058 0
M  V30 5238 H 483.903 -2.0356 -0.274351 0
M  V30 5239 H 482.133 -2.73829 -2.73047 0
M  V30 5240 H 483.822 -3.13057 -2.58361 0
M  V30 5241 H 484.588 -4.79337 -0.739013 0
M  V30 5242 H 480.467 -4.23165 -1.829 0
M  V30 5243 H 484.011 -6.97069 0.272206 0
M  V30 5244 H 479.908 -6.40222 -0.823792 0
M  V30 5245 H 480.676 -8.18131 0.245761 0
M  V30 5246 N 483.339 0.512053 -1.4905 0
M  V30 5247 C 484.616 1.27337 -1.48474 0
M  V30 5248 C 484.996 2.1009 -0.206301 0
M  V30 5249 O 484.344 2.136 0.811609 0
M  V30 5250 C 484.554 2.13954 -2.75726 0
M  V30 5251 C 485.902 2.73507 -3.24776 0
M  V30 5252 O 486.926 2.24229 -2.76767 0
M  V30 5253 O 485.785 3.63186 -4.08361 0
M  V30 5254 H 482.879 0.575652 -0.593762 0
M  V30 5255 H 485.425 0.527232 -1.61302 0
M  V30 5256 H 484.197 1.52709 -3.60272 0
M  V30 5257 H 483.82 2.95782 -2.65705 0
M  V30 5258 N 484.817 1.37938 0.762283 0
M  V30 5259 C 486.233 1.18945 1.06415 0
M  V30 5260 C 486.433 0.0321163 2.01474 0
M  V30 5261 O 485.489 -0.624844 2.44647 0
M  V30 5262 C 486.802 2.51218 1.65258 0
M  V30 5263 C 488.35 2.57824 1.7747 0
M  V30 5264 C 488.825 3.90251 2.39725 0
M  V30 5265 N 490.316 3.91744 2.47166 0
M  V30 5266 C 491.051 4.90966 2.96209 0
M  V30 5267 N 490.547 6.00585 3.45354 0
M  V30 5268 N 492.34 4.78363 2.9517 0
M  V30 5269 H 484.491 2.11994 0.131301 0
M  V30 5270 H 486.754 0.940262 0.120879 0
M  V30 5271 H 486.46 3.36317 1.02878 0
M  V30 5272 H 486.334 2.68989 2.64433 0
M  V30 5273 H 488.721 1.73126 2.3898 0
M  V30 5274 H 488.802 2.43928 0.770241 0
M  V30 5275 H 488.446 4.75368 1.78852 0
M  V30 5276 H 488.376 4.01454 3.40796 0
M  V30 5277 H 490.867 3.12563 2.12397 0
M  V30 5278 H 491.18 6.72236 3.81207 0
M  V30 5279 H 489.525 6.04217 3.43434 0
M  V30 5280 H 492.716 3.91841 2.56082 0
M  V30 5281 H 492.889 5.55843 3.33081 0
M  V30 5282 N 486.295 -0.989507 1.22664 0
M  V30 5283 C 487.525 -1.7624 1.0781 0
M  V30 5284 C 487.933 -1.85466 -0.374036 0
M  V30 5285 O 487.276 -1.32645 -1.27087 0
M  V30 5286 C 487.338 -3.21007 1.61849 0
M  V30 5287 C 487.002 -3.35316 3.10503 0
M  V30 5288 C 487.999 -3.22362 4.07896 0
M  V30 5289 C 485.684 -3.60258 3.50028 0
M  V30 5290 C 487.678 -3.34139 5.42798 0
M  V30 5291 C 485.365 -3.71676 4.85078 0
M  V30 5292 C 486.363 -3.58625 5.81272 0
M  V30 5293 O 486.051 -3.69655 7.1387 0
M  V30 5294 H 485.783 -0.560209 0.378341 0
M  V30 5295 H 488.337 -1.25252 1.62792 0
M  V30 5296 H 486.567 -3.73202 1.01279 0
M  V30 5297 H 488.256 -3.80024 1.42606 0
M  V30 5298 H 489.022 -3.03 3.78703 0
M  V30 5299 H 484.901 -3.69492 2.75675 0
M  V30 5300 H 488.445 -3.23869 6.17863 0
M  V30 5301 H 484.342 -3.90545 5.1395 0
M  V30 5302 H 485.11 -3.86507 7.21495 0
M  V30 5303 N 487.773 -1.03688 -1.18687 0
M  V30 5304 C 488.703 -0.645407 -2.24403 0
M  V30 5305 C 489.684 0.349511 -1.66471 0
M  V30 5306 O 490.869 0.230453 -1.92828 0
M  V30 5307 C 487.999 -0.00365337 -3.473 0
M  V30 5308 C 486.953 -0.921705 -4.17958 0
M  V30 5309 C 486.279 -0.144629 -5.34504 0
M  V30 5310 C 487.579 -2.23909 -4.71871 0
M  V30 5311 H 489.273 -1.52917 -2.57404 0
M  V30 5312 H 486.819 -0.736711 -1.23728 0
M  V30 5313 H 488.772 0.281908 -4.20456 0
M  V30 5314 H 487.496 0.914963 -3.13522 0
M  V30 5315 H 486.155 -1.19159 -3.46694 0
M  V30 5316 H 485.803 0.776274 -4.96974 0
M  V30 5317 H 485.503 -0.756206 -5.82714 0
M  V30 5318 H 487.027 0.134004 -6.10453 0
M  V30 5319 H 488.441 -2.0145 -5.36741 0
M  V30 5320 H 486.838 -2.8033 -5.30599 0
M  V30 5321 H 487.908 -2.88822 -3.895 0
M  V30 5322 N 489.251 1.34841 -0.815825 0
M  V30 5323 C 490.491 2.00321 -0.406297 0
M  V30 5324 C 490.855 1.63293 1.00992 0
M  V30 5325 O 492.056 2.21563 1.52195 0
M  V30 5326 C 490.327 3.52421 -0.594469 0
M  V30 5327 S 491.886 4.37926 -0.276735 0
M  V30 5328 H 488.704 0.694155 -0.153848 0
M  V30 5329 H 491.306 1.64263 -1.06009 0
M  V30 5330 H 490.01 3.76858 -1.625 0
M  V30 5331 H 489.541 3.9333 0.0743157 0
M  V30 5332 H 491.556 4.87743 0.912215 0
M  V30 5333 N 490.729 0.570148 1.46925 0
M  V30 5334 C 492.145 0.23087 1.57921 0
M  V30 5335 C 492.345 -1.26676 1.56702 0
M  V30 5336 O 491.401 -2.04774 1.47729 0
M  V30 5337 C 492.714 0.868973 2.8787 0
M  V30 5338 C 494.262 0.841397 3.01479 0
M  V30 5339 C 494.737 1.45881 4.34146 0
M  V30 5340 N 496.228 1.42258 4.40814 0
M  V30 5341 C 496.963 1.8698 5.42057 0
M  V30 5342 N 496.459 2.39618 6.50042 0
M  V30 5343 N 498.252 1.77972 5.33181 0
M  V30 5344 H 490.403 1.54301 1.45962 0
M  V30 5345 H 492.666 0.644224 0.69547 0
M  V30 5346 H 492.372 1.922 2.94537 0
M  V30 5347 H 492.246 0.369682 3.75384 0
M  V30 5348 H 494.633 -0.202973 2.94401 0
M  V30 5349 H 494.714 1.37858 2.15474 0
M  V30 5350 H 494.358 2.50231 4.4198 0
M  V30 5351 H 494.288 0.896958 5.18905 0
M  V30 5352 H 496.779 1.03768 3.63374 0
M  V30 5353 H 497.092 2.71633 7.23488 0
M  V30 5354 H 495.437 2.43636 6.50897 0
M  V30 5355 H 498.628 1.36617 4.4772 0
M  V30 5356 H 498.801 2.13143 6.11943 0
M  V30 5357 N 492.207 -1.54576 0.307264 0
M  V30 5358 C 493.453 -2.0056 -0.300612 0
M  V30 5359 C 493.786 -1.1953 -1.53057 0
M  V30 5360 O 493.061 -0.27337 -1.92569 0
M  V30 5361 C 493.344 -3.54167 -0.650987 0
M  V30 5362 C 493.197 -4.45933 0.588539 0
M  V30 5363 C 494.516 -4.14645 -1.47506 0
M  V30 5364 H 491.635 -0.729075 -0.107788 0
M  V30 5365 H 494.277 -1.85286 0.420606 0
M  V30 5366 H 492.427 -3.67313 -1.26544 0
M  V30 5367 H 494.099 -4.44683 1.22697 0
M  V30 5368 H 492.342 -4.16274 1.22058 0
M  V30 5369 H 493.013 -5.51189 0.299153 0
M  V30 5370 H 495.489 -4.04973 -0.955821 0
M  V30 5371 H 494.365 -5.22269 -1.68899 0
M  V30 5372 H 494.626 -3.66921 -2.4662 0
M  V30 5373 N 493.685 -0.035106 -1.57561 0
M  V30 5374 C 494.595 0.960295 -2.14046 0
M  V30 5375 C 495.611 1.3529 -1.0942 0
M  V30 5376 O 496.787 1.43309 -1.41508 0
M  V30 5377 C 493.852 2.22214 -2.66124 0
M  V30 5378 C 492.913 1.8894 -3.85487 0
M  V30 5379 C 492.146 3.09109 -4.35072 0
M  V30 5380 O 492.369 4.21963 -3.83802 0
M  V30 5381 O 491.303 2.91058 -5.26848 0
M  V30 5382 H 495.129 0.509983 -2.99387 0
M  V30 5383 H 492.714 0.185853 -1.48239 0
M  V30 5384 H 494.596 2.96279 -2.99661 0
M  V30 5385 H 493.271 2.66414 -1.83862 0
M  V30 5386 H 492.178 1.12241 -3.56865 0
M  V30 5387 H 493.511 1.49551 -4.6893 0
M  V30 5388 N 495.163 1.55791 0.238111 0
M  V30 5389 C 496.073 1.94196 1.31625 0
M  V30 5390 C 497.089 0.843545 1.52185 0
M  V30 5391 O 498.265 1.1457 1.65637 0
M  V30 5392 C 495.33 2.2365 2.64918 0
M  V30 5393 C 494.391 3.46971 2.52804 0
M  V30 5394 C 493.624 3.7501 3.79741 0
M  V30 5395 O 493.847 3.04982 4.82019 0
M  V30 5396 O 492.781 4.68525 3.77846 0
M  V30 5397 H 496.607 2.86044 1.02043 0
M  V30 5398 H 494.192 1.42786 0.439603 0
M  V30 5399 H 496.074 2.43863 3.4367 0
M  V30 5400 H 494.749 1.34979 2.94215 0
M  V30 5401 H 493.656 3.32055 1.72309 0
M  V30 5402 H 494.989 4.35971 2.28451 0
M  V30 5403 N 496.642 -0.504142 1.49319 0
M  V30 5404 C 497.575 -1.62361 1.60356 0
M  V30 5405 C 498.553 -1.56169 0.45277 0
M  V30 5406 O 499.737 -1.76271 0.667892 0
M  V30 5407 C 496.864 -3.00864 1.55559 0
M  V30 5408 C 495.91 -3.25328 2.75797 0
M  V30 5409 S 496.743 -3.08791 4.37503 0
M  V30 5410 C 497.899 -4.49695 4.35345 0
M  V30 5411 H 498.132 -1.52753 2.55056 0
M  V30 5412 H 495.665 -0.689065 1.38171 0
M  V30 5413 H 497.623 -3.8073 1.53477 0
M  V30 5414 H 496.284 -3.0789 0.621515 0
M  V30 5415 H 495.477 -4.2643 2.68651 0
M  V30 5416 H 495.079 -2.53179 2.75275 0
M  V30 5417 H 497.371 -5.41721 4.06871 0
M  V30 5418 H 498.314 -4.61891 5.36714 0
M  V30 5419 H 498.722 -4.30227 3.65465 0
M  V30 5420 N 498.12 -1.38341 -0.754957 0
M  V30 5421 C 499.536 -1.19508 -1.05783 0
M  V30 5422 C 499.736 -0.0428005 -2.01455 0
M  V30 5423 O 498.792 0.611861 -2.44975 0
M  V30 5424 C 500.105 -2.52091 -1.63923 0
M  V30 5425 C 501.653 -2.58762 -1.76101 0
M  V30 5426 C 502.128 -3.91517 -2.37652 0
M  V30 5427 N 503.619 -3.93049 -2.45085 0
M  V30 5428 C 504.354 -4.9253 -2.93602 0
M  V30 5429 N 503.85 -6.02408 -3.42165 0
M  V30 5430 N 505.643 -4.79921 -2.92629 0
M  V30 5431 H 497.794 -2.1206 -0.120056 0
M  V30 5432 H 500.057 -0.94089 -0.11589 0
M  V30 5433 H 499.763 -3.36858 -1.01093 0
M  V30 5434 H 499.637 -2.70388 -2.63003 0
M  V30 5435 H 502.024 -1.74391 -2.38058 0
M  V30 5436 H 502.105 -2.44333 -0.757294 0
M  V30 5437 H 501.749 -4.76309 -1.76329 0
M  V30 5438 H 501.679 -4.03256 -3.38662 0
M  V30 5439 H 504.17 -3.13685 -2.10736 0
M  V30 5440 H 504.483 -6.74248 -3.77637 0
M  V30 5441 H 502.828 -6.0603 -3.40225 0
M  V30 5442 H 506.019 -3.93194 -2.54001 0
M  V30 5443 H 506.192 -5.57601 -3.30128 0
M  V30 5444 N 499.598 0.982988 -1.23187 0
M  V30 5445 C 500.53 2.07729 -0.968572 0
M  V30 5446 C 501.543 1.62702 0.0564821 0
M  V30 5447 O 502.732 1.77603 -0.178733 0
M  V30 5448 C 499.832 3.36071 -0.436974 0
M  V30 5449 C 499.005 4.10081 -1.52159 0
M  V30 5450 C 498.064 5.16701 -0.99532 0
M  V30 5451 O 497.09 5.43727 -1.68373 0
M  V30 5452 N 498.292 5.80226 0.178192 0
M  V30 5453 H 501.057 2.30894 -1.9107 0
M  V30 5454 H 498.618 1.14949 -1.1401 0
M  V30 5455 H 500.61 4.04639 -0.0700051 0
M  V30 5456 H 499.18 3.09893 0.410509 0
M  V30 5457 H 498.4 3.36004 -2.06144 0
M  V30 5458 H 499.688 4.56295 -2.25105 0
M  V30 5459 H 499.086 5.60651 0.754096 0
M  V30 5460 H 497.643 6.49982 0.486449 0
M  V30 5461 N 501.076 1.04316 1.18135 0
M  V30 5462 C 502.301 0.768047 1.92655 0
M  V30 5463 C 502.726 -0.66904 1.758 0
M  V30 5464 O 502.084 -1.46372 1.06981 0
M  V30 5465 C 502.132 1.14239 3.42026 0
M  V30 5466 O 501.236 0.269333 4.1152 0
M  V30 5467 H 500.577 0.282436 0.600937 0
M  V30 5468 H 503.107 1.39367 1.49793 0
M  V30 5469 H 503.117 1.10538 3.92741 0
M  V30 5470 H 501.792 2.18928 3.53615 0
M  V30 5471 H 500.369 0.366175 3.71098 0
M  V30 5472 N 502.554 -1.34406 0.822964 0
M  V30 5473 C 503.484 -2.32052 0.259608 0
M  V30 5474 C 504.465 -1.58243 -0.623961 0
M  V30 5475 O 505.65 -1.86224 -0.55083 0
M  V30 5476 C 502.78 -3.42434 -0.579314 0
M  V30 5477 C 501.734 -4.27499 0.20712 0
M  V30 5478 C 501.06 -5.29349 -0.754547 0
M  V30 5479 C 502.36 -5.02758 1.41533 0
M  V30 5480 H 504.054 -2.79418 1.07545 0
M  V30 5481 H 501.6 -1.34338 0.518593 0
M  V30 5482 H 503.553 -4.0976 -0.983612 0
M  V30 5483 H 502.277 -2.93717 -1.4282 0
M  V30 5484 H 500.936 -3.61776 0.592787 0
M  V30 5485 H 500.584 -4.76895 -1.59939 0
M  V30 5486 H 500.284 -5.8714 -0.232561 0
M  V30 5487 H 501.808 -5.99544 -1.1567 0
M  V30 5488 H 503.222 -5.62938 1.08504 0
M  V30 5489 H 501.619 -5.70123 1.87296 0
M  V30 5490 H 502.689 -4.32451 2.1935 0
M  V30 5491 N 504.032 -0.577932 -1.46621 0
M  V30 5492 C 505.448 -0.239242 -1.57797 0
M  V30 5493 C 505.648 1.25843 -1.57371 0
M  V30 5494 O 504.704 2.03988 -1.48813 0
M  V30 5495 C 506.017 -0.884227 -2.87405 0
M  V30 5496 C 507.565 -0.857373 -3.01028 0
M  V30 5497 C 508.04 -1.48181 -4.33366 0
M  V30 5498 N 509.531 -1.44593 -4.40053 0
M  V30 5499 C 510.266 -1.89852 -5.41058 0
M  V30 5500 N 509.762 -2.43062 -6.48762 0
M  V30 5501 N 511.555 -1.80797 -5.3223 0
M  V30 5502 H 503.706 -1.55073 -1.45142 0
M  V30 5503 H 505.969 -0.647903 -0.692044 0
M  V30 5504 H 505.675 -1.93759 -2.93514 0
M  V30 5505 H 505.549 -0.389585 -3.75183 0
M  V30 5506 H 507.936 0.187357 -2.94505 0
M  V30 5507 H 508.017 -1.38999 -2.14739 0
M  V30 5508 H 507.661 -2.52572 -4.40647 0
M  V30 5509 H 507.591 -0.924464 -5.18422 0
M  V30 5510 H 510.082 -1.05694 -3.62819 0
M  V30 5511 H 510.395 -2.75466 -7.22038 0
M  V30 5512 H 508.74 -2.47085 -6.49595 0
M  V30 5513 H 511.931 -1.38989 -4.46989 0
M  V30 5514 H 512.104 -2.16385 -6.10804 0
M  V30 5515 N 505.51 1.54411 -0.315457 0
M  V30 5516 C 506.759 1.99599 0.290395 0
M  V30 5517 C 507.072 1.20746 1.53882 0
M  V30 5518 O 508.278 1.56272 2.22017 0
M  V30 5519 C 506.734 3.5539 0.56797 0
M  V30 5520 C 506.342 4.43068 -0.662945 0
M  V30 5521 C 508.086 4.09067 1.13422 0
M  V30 5522 C 505.993 5.90317 -0.357722 0
M  V30 5523 H 504.923 0.745592 0.112286 0
M  V30 5524 H 507.574 1.78477 -0.426418 0
M  V30 5525 H 505.956 3.72468 1.34476 0
M  V30 5526 H 507.13 4.37765 -1.43869 0
M  V30 5527 H 505.445 4.00238 -1.14884 0
M  V30 5528 H 508.042 5.16663 1.37707 0
M  V30 5529 H 508.385 3.60552 2.08106 0
M  V30 5530 H 508.918 3.95589 0.418805 0
M  V30 5531 H 505.657 6.4301 -1.27351 0
M  V30 5532 H 505.177 5.98592 0.380472 0
M  V30 5533 H 506.856 6.4699 0.0354284 0
M  V30 5534 N 506.988 0.0434614 1.5754 0
M  V30 5535 C 508.237 -0.631454 1.91561 0
M  V30 5536 C 508.55 -1.72457 0.92292 0
M  V30 5537 O 509.756 -2.45712 1.15489 0
M  V30 5538 C 508.212 -1.17447 3.40197 0
M  V30 5539 C 507.82 -0.113867 4.47855 0
M  V30 5540 C 509.564 -1.82507 3.83264 0
M  V30 5541 C 507.471 -0.669326 5.876 0
M  V30 5542 H 506.401 -0.239629 0.714908 0
M  V30 5543 H 509.052 0.111097 1.83163 0
M  V30 5544 H 507.434 -1.96909 3.43574 0
M  V30 5545 H 508.608 0.659348 4.56058 0
M  V30 5546 H 506.923 0.438821 4.14081 0
M  V30 5547 H 509.52 -2.25047 4.85034 0
M  V30 5548 H 509.863 -2.67365 3.19095 0
M  V30 5549 H 510.396 -1.09712 3.82372 0
M  V30 5550 H 507.135 0.141449 6.55347 0
M  V30 5551 H 506.655 -1.4107 5.82974 0
M  V30 5552 H 508.334 -1.15463 6.36614 0
M  V30 5553 N 508.466 -1.55915 -0.229846 0
M  V30 5554 C 509.429 -1.90914 -1.26824 0
M  V30 5555 C 510.429 -0.786999 -1.40225 0
M  V30 5556 O 511.619 -1.05484 -1.38632 0
M  V30 5557 C 508.751 -2.15264 -2.64337 0
M  V30 5558 H 509.944 -2.8378 -0.969998 0
M  V30 5559 H 507.497 -1.49069 -0.4699 0
M  V30 5560 H 508.232 -1.24923 -2.99274 0
M  V30 5561 H 508.017 -2.97005 -2.55989 0
M  V30 5562 H 509.507 -2.43467 -3.39284 0
M  V30 5563 N 509.944 0.496216 -1.49584 0
M  V30 5564 C 510.876 1.61404 -1.62731 0
M  V30 5565 C 511.889 1.54613 -0.50978 0
M  V30 5566 O 513.078 1.60458 -0.782017 0
M  V30 5567 C 510.178 3.00212 -1.57245 0
M  V30 5568 C 509.351 3.32138 -2.84611 0
M  V30 5569 C 508.41 4.5038 -2.72112 0
M  V30 5570 O 507.436 4.51926 -3.46051 0
M  V30 5571 N 508.638 5.50575 -1.83977 0
M  V30 5572 H 511.403 1.50552 -2.59141 0
M  V30 5573 H 508.964 0.684182 -1.46733 0
M  V30 5574 H 510.956 3.77241 -1.4653 0
M  V30 5575 H 509.526 3.04964 -0.686729 0
M  V30 5576 H 508.746 2.4396 -3.09641 0
M  V30 5577 H 510.034 3.50268 -3.69039 0
M  V30 5578 H 509.432 5.52128 -1.23171 0
M  V30 5579 H 507.989 6.26687 -1.79182 0
M  V30 5580 N 511.423 1.38739 0.74761 0
M  V30 5581 C 512.663 1.36695 1.51966 0
M  V30 5582 C 513.027 -0.0411889 1.91956 0
M  V30 5583 O 514.228 -0.186543 2.68152 0
M  V30 5584 C 512.499 2.30119 2.73459 0
M  V30 5585 S 514.058 2.4615 3.63257 0
M  V30 5586 H 510.876 0.484929 0.519966 0
M  V30 5587 H 513.478 1.7472 0.877104 0
M  V30 5588 H 512.182 3.31312 2.422 0
M  V30 5589 H 511.713 1.93265 3.42655 0
M  V30 5590 H 513.728 1.69001 4.66533 0
M  V30 5591 N 512.901 -0.976442 1.23707 0
M  V30 5592 C 513.831 -2.08749 1.04624 0
M  V30 5593 C 514.812 -1.70057 -0.0380956 0
M  V30 5594 O 515.997 -1.93782 0.127308 0
M  V30 5595 C 513.127 -3.41335 0.640902 0
M  V30 5596 C 512.081 -3.93947 1.67302 0
M  V30 5597 C 511.407 -5.22774 1.12301 0
M  V30 5598 C 512.707 -4.22769 3.06697 0
M  V30 5599 H 514.401 -2.24972 1.97555 0
M  V30 5600 H 511.947 -1.08108 0.951247 0
M  V30 5601 H 513.9 -4.18489 0.494434 0
M  V30 5602 H 512.624 -3.24988 -0.324099 0
M  V30 5603 H 511.283 -3.18941 1.80755 0
M  V30 5604 H 510.931 -5.0278 0.148877 0
M  V30 5605 H 510.631 -5.58942 1.81267 0
M  V30 5606 H 512.155 -6.02546 0.988479 0
M  V30 5607 H 513.569 -4.90659 2.96524 0
M  V30 5608 H 511.966 -4.70147 3.72937 0
M  V30 5609 H 513.036 -3.29885 3.55392 0
M  V30 5610 N 514.379 -1.04941 -1.1758 0
M  V30 5611 C 515.327 -0.64204 -2.23563 0
M  V30 5612 C 516.321 0.335453 -1.66045 0
M  V30 5613 O 517.527 0.20179 -1.78865 0
M  V30 5614 H 513.902 -0.18944 -0.727748 0
M  V30 5615 H 515.873 -1.54609 -2.55223 0
M  V30 5616 C 514.622 -0.0301051 -3.47687 0
M  V30 5617 H 513.945 -0.773339 -3.92249 0
M  V30 5618 H 515.385 0.217592 -4.23441 0
M  V30 5619 C 513.844 1.2225 -3.13937 0
M  V30 5620 O 514.374 2.3122 -3.28482 0
M  V30 5621 N 512.58 1.11917 -2.68185 0
M  V30 5622 H 512.127 0.232403 -2.5655 0
M  V30 5623 H 512.085 1.95814 -2.45976 0
M  V30 5624 N 515.857 1.33968 -0.830081 0
M  V30 5625 C 516.804 2.29387 -0.255008 0
M  V30 5626 C 517.774 1.53923 0.624243 0
M  V30 5627 O 518.959 1.82262 0.564372 0
M  V30 5628 C 516.099 3.4034 0.571209 0
M  V30 5629 C 515.212 4.30729 -0.331083 0
M  V30 5630 C 514.347 5.2879 0.505389 0
M  V30 5631 C 513.386 6.10819 -0.395843 0
M  V30 5632 N 512.523 7.00948 0.401979 0
M  V30 5633 H 517.363 2.77972 -1.07404 0
M  V30 5634 H 514.9 1.36785 -0.541133 0
M  V30 5635 H 516.858 4.03361 1.06562 0
M  V30 5636 H 515.488 2.9297 1.35529 0
M  V30 5637 H 514.54 3.68507 -0.943759 0
M  V30 5638 H 515.852 4.88181 -1.02377 0
M  V30 5639 H 515.006 5.97297 1.06399 0
M  V30 5640 H 513.745 4.71894 1.23155 0
M  V30 5641 H 512.75 5.41238 -0.966529 0
M  V30 5642 H 513.975 6.69797 -1.12023 0
M  V30 5643 H 511.921 6.46512 1.11168 0
M  V30 5644 H 511.838 7.55643 -0.232167 0
M  V30 5645 H 513.106 7.73774 0.943102 0
M  V30 5646 N 517.335 0.585699 1.46312 0
M  V30 5647 C 518.268 -0.194257 2.27372 0
M  V30 5648 C 519.246 -0.894116 1.3581 0
M  V30 5649 O 520.43 -0.907402 1.65222 0
M  V30 5650 C 517.557 -1.27901 3.13622 0
M  V30 5651 C 516.603 -0.684666 4.20969 0
M  V30 5652 S 517.436 0.490745 5.33247 0
M  V30 5653 C 518.592 -0.595137 6.23064 0
M  V30 5654 H 518.825 0.493515 2.93175 0
M  V30 5655 H 516.358 0.372666 1.49835 0
M  V30 5656 H 518.316 -1.90008 3.63878 0
M  V30 5657 H 516.977 -1.93875 2.47126 0
M  V30 5658 H 516.17 -1.50015 4.81156 0
M  V30 5659 H 515.772 -0.139204 3.73741 0
M  V30 5660 H 518.064 -1.48002 6.61137 0
M  V30 5661 H 519.007 -0.0299446 7.08094 0
M  V30 5662 H 519.415 -0.900627 5.57269 0
M  V30 5663 N 518.813 -1.54241 0.323641 0
M  V30 5664 C 520.224 -1.85975 -0.164405 0
M  V30 5665 C 520.575 -1.24529 -1.51615 0
M  V30 5666 O 519.7 -0.551351 -2.09258 0
M  V30 5667 C 520.295 -3.37424 -0.305091 0
M  V30 5668 C 518.854 -3.69107 -0.737358 0
M  V30 5669 C 518.001 -2.76942 0.140884 0
M  V30 5670 H 520.952 -1.49088 0.543922 0
M  V30 5671 H 520.973 -3.63147 -1.13598 0
M  V30 5672 H 520.485 -3.82116 0.678876 0
M  V30 5673 H 518.586 -3.29947 -1.73107 0
M  V30 5674 H 518.699 -4.76035 -0.541053 0
M  V30 5675 H 517.063 -2.51795 -0.383572 0
M  V30 5676 H 517.846 -3.24461 1.12162 0
M  V30 5677 N 520.291 -0.0518155 -1.57515 0
M  V30 5678 C 521.702 0.483787 -1.80323 0
M  V30 5679 C 522.053 1.70879 -0.964099 0
M  V30 5680 O 521.178 2.15643 -0.180872 0
M  V30 5681 C 521.773 0.884459 -3.27052 0
M  V30 5682 C 520.332 1.36504 -3.50776 0
M  V30 5683 C 519.479 0.340539 -2.75201 0
M  V30 5684 H 522.43 -0.277691 -1.56252 0
M  V30 5685 H 522.451 1.74733 -3.38007 0
M  V30 5686 H 521.963 -0.00731093 -3.88099 0
M  V30 5687 H 520.064 2.27598 -2.95009 0
M  V30 5688 H 520.177 1.35675 -4.59488 0
M  V30 5689 H 518.541 0.81356 -2.41357 0
M  V30 5690 H 519.324 -0.543156 -3.38976 0
M  V30 5691 N 521.769 1.56035 0.221574 0
M  V30 5692 C 523.017 1.78693 0.944102 0
M  V30 5693 C 523.338 0.620317 1.8487 0
M  V30 5694 O 522.608 -0.362784 1.92512 0
M  V30 5695 H 521.188 0.659082 0.351597 0
M  V30 5696 H 523.85 1.93497 0.233435 0
M  V30 5697 H 522.946 2.70837 1.55093 0
M  V30 5698 N 523.247 -0.488276 1.49845 0
M  V30 5699 C 524.157 -1.61451 1.70207 0
M  V30 5700 C 525.173 -1.63877 0.584846 0
M  V30 5701 O 526.349 -1.82063 0.861107 0
M  V30 5702 C 523.414 -2.9776 1.77594 0
M  V30 5703 C 522.475 -3.05861 3.01243 0
M  V30 5704 C 521.708 -4.35668 3.08268 0
M  V30 5705 O 521.931 -5.25197 2.22541 0
M  V30 5706 O 520.865 -4.49005 4.00847 0
M  V30 5707 H 524.691 -1.47199 2.65643 0
M  V30 5708 H 522.276 -0.665939 1.33737 0
M  V30 5709 H 524.158 -3.7875 1.84732 0
M  V30 5710 H 522.833 -3.12248 0.8534 0
M  V30 5711 H 521.74 -2.24012 2.99616 0
M  V30 5712 H 523.073 -2.96304 3.9302 0
M  V30 5713 N 524.725 -1.39134 -0.740242 0
M  V30 5714 C 525.974 -1.35384 -1.49512 0
M  V30 5715 C 526.287 0.04919 -1.95538 0
M  V30 5716 O 527.493 0.209257 -2.70692 0
M  V30 5717 C 525.949 -2.37812 -2.70136 0
M  V30 5718 C 525.557 -3.83804 -2.31081 0
M  V30 5719 C 527.301 -2.4313 -3.47977 0
M  V30 5720 C 525.208 -4.77886 -3.48395 0
M  V30 5721 H 524.138 -0.503297 -0.561434 0
M  V30 5722 H 526.789 -1.64754 -0.807974 0
M  V30 5723 H 525.171 -2.01505 -3.40899 0
M  V30 5724 H 526.345 -4.29123 -1.67898 0
M  V30 5725 H 524.66 -3.81732 -1.66343 0
M  V30 5726 H 527.257 -3.10614 -4.35228 0
M  V30 5727 H 527.6 -1.45423 -3.90074 0
M  V30 5728 H 528.133 -2.78304 -2.84239 0
M  V30 5729 H 524.872 -5.76836 -3.11353 0
M  V30 5730 H 524.392 -4.3725 -4.10576 0
M  V30 5731 H 526.071 -4.96538 -4.148 0
M  V30 5732 N 526.204 0.969867 -1.24223 0
M  V30 5733 C 527.151 2.06407 -1.0327 0
M  V30 5734 C 528.121 1.66014 0.0533 0
M  V30 5735 O 529.306 1.90533 -0.100896 0
M  V30 5736 C 526.446 3.3909 -0.641262 0
M  V30 5737 C 525.559 3.9269 -1.80051 0
M  V30 5738 C 524.694 5.13631 -1.35486 0
M  V30 5739 C 523.733 5.59423 -2.48419 0
M  V30 5740 N 522.87 6.71586 -2.04737 0
M  V30 5741 H 527.71 2.23663 -1.96923 0
M  V30 5742 H 525.247 1.09624 -0.980862 0
M  V30 5743 H 527.205 4.15323 -0.395351 0
M  V30 5744 H 525.835 3.21765 0.258269 0
M  V30 5745 H 524.887 3.13116 -2.16014 0
M  V30 5746 H 526.199 4.22636 -2.64916 0
M  V30 5747 H 525.353 5.97231 -1.0677 0
M  V30 5748 H 524.092 4.85364 -0.476722 0
M  V30 5749 H 523.097 4.74398 -2.77897 0
M  V30 5750 H 524.322 5.89705 -3.36786 0
M  V30 5751 H 522.268 6.45058 -1.19318 0
M  V30 5752 H 522.185 7.0097 -2.83156 0
M  V30 5753 H 523.453 7.58633 -1.79154 0
M  V30 5754 N 527.682 1.05563 1.17022 0
M  V30 5755 C 528.928 0.769074 1.87652 0
M  V30 5756 C 529.261 -0.702326 1.81055 0
M  V30 5757 O 528.536 -1.5139 1.22112 0
M  V30 5758 C 528.819 1.25492 3.37526 0
M  V30 5759 C 528.672 2.78953 3.52853 0
M  V30 5760 C 529.991 0.856919 4.31677 0
M  V30 5761 H 527.11 0.280854 0.681388 0
M  V30 5762 H 529.752 1.31027 1.37593 0
M  V30 5763 H 527.902 0.794516 3.80289 0
M  V30 5764 H 529.574 3.33146 3.19079 0
M  V30 5765 H 527.817 3.18046 2.95007 0
M  V30 5766 H 528.488 3.08011 4.58076 0
M  V30 5767 H 530.964 1.25334 3.96775 0
M  V30 5768 H 529.84 1.22443 5.35069 0
M  V30 5769 H 530.101 -0.238787 4.41455 0
M  V30 5770 N 529.16 -1.33526 0.837174 0
M  V30 5771 C 530.437 -1.92369 0.354065 0
M  V30 5772 C 530.817 -1.76348 -1.16038 0
M  V30 5773 O 530.165 -1.15083 -1.97403 0
M  V30 5774 C 530.375 -3.39728 0.799101 0
M  V30 5775 C 531.723 -4.16877 0.806139 0
M  V30 5776 O 532.747 -3.48373 0.742597 0
M  V30 5777 O 531.606 -5.39166 0.892345 0
M  V30 5778 H 528.7 -0.820952 0.0998378 0
M  V30 5779 H 531.246 -1.42409 0.922913 0
M  V30 5780 H 530.018 -3.45254 1.84162 0
M  V30 5781 H 529.641 -3.97062 0.206731 0
M  V30 5782 N 530.638 -0.59345 -1.46 0
M  V30 5783 C 531.915 -0.0157933 -1.95594 0
M  V30 5784 C 532.295 1.44807 -1.53604 0
M  V30 5785 O 531.643 2.14342 -0.791824 0
M  V30 5786 C 531.853 -0.199081 -3.48432 0
M  V30 5787 C 533.201 -0.0724943 -4.24538 0
M  V30 5788 O 534.225 -0.128469 -3.55968 0
M  V30 5789 O 533.084 0.0542426 -5.46473 0
M  V30 5790 H 530.178 0.043749 -0.825842 0
M  V30 5791 H 532.724 -0.662522 -1.56233 0
M  V30 5792 H 531.496 -1.21631 -3.71916 0
M  V30 5793 H 531.119 0.483576 -3.94648 0
M  V30 5794 N 532.116 1.54067 -0.331816 0
M  V30 5795 C 533.079 2.23275 0.517768 0
M  V30 5796 C 534.079 1.22897 1.03697 0
M  V30 5797 O 535.269 1.47419 0.928084 0
M  V30 5798 C 532.401 2.94326 1.72004 0
M  V30 5799 H 533.594 2.99773 -0.0873507 0
M  V30 5800 H 531.147 1.56079 -0.0830042 0
M  V30 5801 H 531.882 2.21986 2.36417 0
M  V30 5802 H 531.667 3.67941 1.35507 0
M  V30 5803 H 533.157 3.47031 2.32291 0
M  V30 5804 N 533.594 0.0601682 1.57485 0
M  V30 5805 C 534.541 -0.91112 2.12055 0
M  V30 5806 C 535.511 -1.30298 1.03013 0
M  V30 5807 O 536.696 -1.39087 1.30612 0
M  V30 5808 C 533.836 -2.1775 2.67729 0
M  V30 5809 C 532.949 -1.83933 3.90887 0
M  V30 5810 C 532.084 -3.05096 4.34845 0
M  V30 5811 C 531.123 -2.67241 5.5068 0
M  V30 5812 N 530.26 -3.81127 5.8965 0
M  V30 5813 H 535.1 -0.43888 2.9475 0
M  V30 5814 H 532.637 -0.204995 1.45665 0
M  V30 5815 H 534.595 -2.91866 2.98111 0
M  V30 5816 H 533.225 -2.62535 1.87816 0
M  V30 5817 H 532.277 -0.999287 3.6704 0
M  V30 5818 H 533.589 -1.52074 4.75052 0
M  V30 5819 H 532.743 -3.87502 4.66827 0
M  V30 5820 H 531.482 -3.40139 3.49509 0
M  V30 5821 H 530.487 -1.83254 5.18361 0
M  V30 5822 H 531.712 -2.3338 6.37738 0
M  V30 5823 H 529.658 -4.15954 5.07266 0
M  V30 5824 H 529.575 -3.52997 6.68528 0
M  V30 5825 H 530.843 -4.64145 6.2625 0
M  V30 5826 N 535.072 -1.5615 -0.213296 0
M  V30 5827 C 536.318 -1.79812 -0.937849 0
M  V30 5828 C 536.651 -0.631201 -1.83656 0
M  V30 5829 O 535.926 0.369165 -1.90964 0
M  V30 5830 C 536.209 -3.13613 -1.76972 0
M  V30 5831 C 536.062 -4.40766 -0.89695 0
M  V30 5832 C 537.381 -3.43931 -2.7459 0
M  V30 5833 H 534.5 -0.654138 -0.339518 0
M  V30 5834 H 537.142 -1.88877 -0.20623 0
M  V30 5835 H 535.292 -3.06015 -2.39347 0
M  V30 5836 H 536.964 -4.60392 -0.289306 0
M  V30 5837 H 535.207 -4.33326 -0.202756 0
M  V30 5838 H 535.878 -5.30843 -1.51358 0
M  V30 5839 H 538.354 -3.5171 -2.22349 0
M  V30 5840 H 537.23 -4.38706 -3.29891 0
M  V30 5841 H 537.491 -2.6651 -3.52739 0
M  V30 5842 N 536.55 0.480323 -1.50102 0
M  V30 5843 C 537.775 1.26126 -1.64642 0
M  V30 5844 C 538.2 1.85257 -0.325823 0
M  V30 5845 O 537.558 1.66854 0.709194 0
M  V30 5846 C 537.606 2.35243 -2.73301 0
M  V30 5847 O 536.71 3.39646 -2.33911 0
M  V30 5848 H 536.051 0.371463 -0.550374 0
M  V30 5849 H 538.581 0.572696 -1.96421 0
M  V30 5850 H 538.591 2.80695 -2.96098 0
M  V30 5851 H 537.266 1.91574 -3.6915 0
M  V30 5852 H 535.843 2.99969 -2.21525 0
M  V30 5853 N 538.028 1.39524 0.732853 0
M  V30 5854 C 539.439 1.32905 1.31122 0
M  V30 5855 C 539.79 -0.00558708 1.96199 0
M  V30 5856 O 538.915 -0.907706 1.96443 0
M  V30 5857 C 539.51 2.40704 2.38426 0
M  V30 5858 C 538.069 2.37599 2.91931 0
M  V30 5859 C 537.216 2.2248 1.65523 0
M  V30 5860 H 540.167 1.49581 0.530207 0
M  V30 5861 H 540.188 2.07616 3.18867 0
M  V30 5862 H 539.7 3.37829 1.91033 0
M  V30 5863 H 537.801 1.44119 3.43599 0
M  V30 5864 H 537.914 3.32538 3.44899 0
M  V30 5865 H 536.278 1.69691 1.8994 0
M  V30 5866 H 537.061 3.21577 1.20178 0
M  V30 5867 N 539.506 -0.963266 1.24736 0
M  V30 5868 C 540.917 -1.52145 1.08207 0
M  V30 5869 C 541.268 -1.93142 -0.345061 0
M  V30 5870 O 540.393 -1.77769 -1.23399 0
M  V30 5871 C 540.988 -2.76486 1.95808 0
M  V30 5872 C 539.547 -3.28646 1.8349 0
M  V30 5873 C 538.694 -2.01529 1.90476 0
M  V30 5874 H 541.645 -0.781083 1.38148 0
M  V30 5875 H 541.666 -3.49986 1.49297 0
M  V30 5876 H 541.178 -2.46617 2.99669 0
M  V30 5877 H 539.279 -3.63357 0.824787 0
M  V30 5878 H 539.392 -3.97246 2.67829 0
M  V30 5879 H 537.756 -2.16442 1.34258 0
M  V30 5880 H 538.539 -1.7402 2.95926 0
M  V30 5881 N 540.985 -1.06182 -1.16461 0
M  V30 5882 C 541.932 -0.671613 -2.20812 0
M  V30 5883 C 542.902 0.331186 -1.62765 0
M  V30 5884 O 544.087 0.22033 -1.89524 0
M  V30 5885 C 541.227 -0.063029 -3.45042 0
M  V30 5886 C 540.34 -1.11587 -4.1734 0
M  V30 5887 C 539.475 -0.473546 -5.29085 0
M  V30 5888 C 538.514 -1.51 -5.93182 0
M  V30 5889 N 537.651 -0.891118 -6.96422 0
M  V30 5890 H 542.491 -1.56589 -2.53542 0
M  V30 5891 H 540.028 -0.782951 -1.24532 0
M  V30 5892 H 541.986 0.307344 -4.16066 0
M  V30 5893 H 540.616 0.794663 -3.12866 0
M  V30 5894 H 539.668 -1.60396 -3.44931 0
M  V30 5895 H 540.98 -1.90221 -4.61104 0
M  V30 5896 H 540.134 -0.0501432 -6.06679 0
M  V30 5897 H 538.873 0.344687 -4.8648 0
M  V30 5898 H 537.878 -1.94331 -5.14311 0
M  V30 5899 H 539.103 -2.33031 -6.37866 0
M  V30 5900 H 537.049 -0.0935753 -6.55933 0
M  V30 5901 H 536.966 -1.61486 -7.38551 0
M  V30 5902 H 538.234 -0.492822 -7.77941 0
M  V30 5903 N 542.463 1.3308 -0.844243 0
M  V30 5904 C 543.879 1.50447 -0.532729 0
M  V30 5905 C 544.079 1.78292 0.938837 0
M  V30 5906 O 543.135 1.84635 1.72239 0
M  V30 5907 C 544.448 2.65555 -1.41072 0
M  V30 5908 C 545.996 2.7944 -1.41005 0
M  V30 5909 C 546.471 3.97616 -2.27301 0
M  V30 5910 N 547.962 4.0486 -2.2504 0
M  V30 5911 C 548.697 4.95508 -2.88547 0
M  V30 5912 N 548.193 5.91236 -3.61126 0
M  V30 5913 N 549.986 4.88548 -2.77989 0
M  V30 5914 H 542.137 1.13269 -1.79677 0
M  V30 5915 H 544.4 0.55734 -0.766861 0
M  V30 5916 H 544.106 2.51675 -2.45668 0
M  V30 5917 H 543.98 3.61089 -1.09061 0
M  V30 5918 H 546.367 2.92749 -0.371784 0
M  V30 5919 H 546.448 1.8465 -1.77026 0
M  V30 5920 H 546.092 3.85066 -3.3119 0
M  V30 5921 H 546.022 4.91661 -1.88619 0
M  V30 5922 H 548.513 3.36353 -1.72264 0
M  V30 5923 H 548.826 6.57079 -4.06776 0
M  V30 5924 H 547.171 5.91295 -3.65234 0
M  V30 5925 H 550.362 4.12729 -2.20846 0
M  V30 5926 H 550.535 5.58994 -3.27765 0
M  V30 5927 N 543.941 0.601185 1.45683 0
M  V30 5928 C 544.904 -0.111398 2.28929 0
M  V30 5929 C 545.904 -0.801246 1.39416 0
M  V30 5930 O 547.094 -0.650383 1.61603 0
M  V30 5931 C 544.226 -1.16773 3.20276 0
M  V30 5932 H 545.419 0.620412 2.93413 0
M  V30 5933 H 542.972 0.359946 1.52099 0
M  V30 5934 H 543.707 -1.93051 2.60579 0
M  V30 5935 H 543.492 -0.677358 3.86205 0
M  V30 5936 H 544.982 -1.66698 3.82886 0
M  V30 5937 N 545.419 -1.53889 0.339982 0
M  V30 5938 C 546.329 -2.28604 -0.526988 0
M  V30 5939 C 547.345 -1.33578 -1.11503 0
M  V30 5940 O 548.521 -1.66612 -1.13148 0
M  V30 5941 C 545.586 -3.04164 -1.66389 0
M  V30 5942 C 544.647 -4.14809 -1.10599 0
M  V30 5943 C 543.88 -4.86756 -2.18871 0
M  V30 5944 O 544.103 -4.58343 -3.39526 0
M  V30 5945 O 543.037 -5.73289 -1.83366 0
M  V30 5946 H 546.863 -3.03594 0.0802707 0
M  V30 5947 H 544.448 -1.4903 0.105141 0
M  V30 5948 H 546.33 -3.51427 -2.32544 0
M  V30 5949 H 545.005 -2.32035 -2.25703 0
M  V30 5950 H 543.912 -3.71857 -0.409067 0
M  V30 5951 H 545.245 -4.89029 -0.557771 0
M  V30 5952 N 546.897 -0.0685191 -1.57451 0
M  V30 5953 C 547.83 0.935736 -2.08133 0
M  V30 5954 C 548.808 1.29317 -0.985698 0
M  V30 5955 O 549.992 1.40304 -1.25886 0
M  V30 5956 C 547.119 2.2448 -2.53627 0
M  V30 5957 C 546.165 2.03917 -3.74593 0
M  V30 5958 S 546.998 1.30154 -5.19442 0
M  V30 5959 C 548.154 2.62346 -5.68265 0
M  V30 5960 H 548.387 0.504473 -2.92989 0
M  V30 5961 H 545.92 0.144169 -1.53725 0
M  V30 5962 H 547.878 2.99718 -2.80499 0
M  V30 5963 H 546.539 2.64731 -1.69045 0
M  V30 5964 H 545.732 3.00788 -4.04404 0
M  V30 5965 H 545.334 1.36815 -3.48077 0
M  V30 5966 H 547.626 3.58448 -5.7491 0
M  V30 5967 H 548.569 2.3715 -6.67207 0
M  V30 5968 H 548.977 2.69401 -4.96068 0
M  V30 5969 N 548.375 1.56261 0.205012 0
M  V30 5970 C 549.322 1.93754 1.25411 0
M  V30 5971 C 550.292 0.796826 1.45739 0
M  V30 5972 O 551.477 1.05414 1.59036 0
M  V30 5973 C 548.617 2.27383 2.59598 0
M  V30 5974 C 547.73 3.5447 2.46931 0
M  V30 5975 C 546.865 3.77468 3.73753 0
M  V30 5976 C 545.904 4.98014 3.55877 0
M  V30 5977 N 545.041 5.17316 4.74688 0
M  V30 5978 H 549.881 2.83203 0.92737 0
M  V30 5979 H 547.418 1.40158 0.446574 0
M  V30 5980 H 549.376 2.44895 3.37761 0
M  V30 5981 H 548.006 1.41088 2.90335 0
M  V30 5982 H 547.058 3.45061 1.60116 0
M  V30 5983 H 548.37 4.42789 2.29651 0
M  V30 5984 H 547.524 3.95165 4.60358 0
M  V30 5985 H 546.263 2.87461 3.93976 0
M  V30 5986 H 545.268 4.80249 2.67657 0
M  V30 5987 H 546.493 5.8952 3.37109 0
M  V30 5988 H 544.439 4.30255 4.95194 0
M  V30 5989 H 544.356 5.99796 4.60197 0
M  V30 5990 H 545.624 5.39463 5.62672 0
M  V30 5991 N 549.853 -0.472356 1.50355 0
M  V30 5992 C 551.081 -1.24784 1.65035 0
M  V30 5993 C 551.496 -1.85837 0.333176 0
M  V30 5994 O 550.853 -1.69168 -0.68472 0
M  V30 5995 C 550.904 -2.35747 2.74054 0
M  V30 5996 O 550.625 -1.77197 4.00665 0
M  V30 5997 C 552.126 -3.26645 2.99696 0
M  V30 5998 H 549.346 -0.377432 0.554785 0
M  V30 5999 H 551.89 -0.563962 1.9657 0
M  V30 6000 H 550.045 -2.99912 2.45217 0
M  V30 6001 H 550.459 -2.5026 4.60945 0
M  V30 6002 H 551.933 -4.00718 3.79644 0
M  V30 6003 H 552.41 -3.8535 2.10718 0
M  V30 6004 H 553.016 -2.68218 3.3006 0
M  V30 6005 N 551.331 -1.39911 -0.725443 0
M  V30 6006 C 552.556 -1.41137 -1.5197 0
M  V30 6007 C 552.981 -0.010262 -1.88097 0
M  V30 6008 O 552.339 0.979184 -1.52583 0
M  V30 6009 C 552.387 -2.2994 -2.77777 0
M  V30 6010 O 551.491 -1.73586 -3.74088 0
M  V30 6011 H 550.832 -0.480219 -0.458569 0
M  V30 6012 H 553.362 -1.84023 -0.894249 0
M  V30 6013 H 553.372 -2.44785 -3.26411 0
M  V30 6014 H 552.047 -3.31759 -2.50816 0
M  V30 6015 H 550.624 -1.68035 -3.32894 0
M  V30 6016 N 552.809 0.956637 -1.25245 0
M  V30 6017 C 553.742 2.05232 -0.99775 0
M  V30 6018 C 554.72 1.62439 0.0723137 0
M  V30 6019 O 555.904 1.88381 -0.066926 0
M  V30 6020 C 553.031 3.34871 -0.507861 0
M  V30 6021 C 552.077 3.96625 -1.56815 0
M  V30 6022 S 552.91 4.32853 -3.15276 0
M  V30 6023 C 554.066 5.65613 -2.68017 0
M  V30 6024 H 554.299 2.26521 -1.9255 0
M  V30 6025 H 551.832 1.09601 -1.08752 0
M  V30 6026 H 553.79 4.09845 -0.231858 0
M  V30 6027 H 552.451 3.11551 0.399356 0
M  V30 6028 H 551.644 4.90087 -1.17604 0
M  V30 6029 H 551.246 3.28124 -1.79473 0
M  V30 6030 H 553.538 6.43635 -2.11518 0
M  V30 6031 H 554.481 6.09693 -3.60112 0
M  V30 6032 H 554.889 5.24751 -2.0808 0
M  V30 6033 N 554.287 1.06798 1.15896 0
M  V30 6034 C 555.197 0.694564 2.24083 0
M  V30 6035 C 556.213 -0.291687 1.71538 0
M  V30 6036 O 557.389 -0.139723 2.00915 0
M  V30 6037 C 554.454 0.0921014 3.46578 0
M  V30 6038 C 553.515 1.13087 4.14137 0
M  V30 6039 C 552.748 0.557064 5.30785 0
M  V30 6040 O 552.971 -0.628623 5.66925 0
M  V30 6041 O 551.905 1.29924 5.8771 0
M  V30 6042 H 555.731 1.59663 2.58344 0
M  V30 6043 H 553.316 0.840575 1.2351 0
M  V30 6044 H 555.198 -0.241884 4.20705 0
M  V30 6045 H 553.873 -0.78337 3.14078 0
M  V30 6046 H 552.78 1.51712 3.41957 0
M  V30 6047 H 554.113 1.97805 4.50704 0
M  V30 6048 N 555.766 -1.3263 0.851289 0
M  V30 6049 C 556.991 -2.02097 0.466006 0
M  V30 6050 C 557.416 -1.63574 -0.928709 0
M  V30 6051 O 556.774 -0.834665 -1.60944 0
M  V30 6052 C 556.822 -3.55425 0.608737 0
M  V30 6053 O 555.926 -4.10827 -0.359878 0
M  V30 6054 H 555.267 -0.636911 0.187724 0
M  V30 6055 H 557.797 -1.69253 1.14955 0
M  V30 6056 H 557.807 -4.04986 0.495006 0
M  V30 6057 H 556.482 -3.82806 1.62581 0
M  V30 6058 H 555.059 -3.72349 -0.202666 0
M  V30 6059 N 557.244 -0.608902 -1.45362 0
M  V30 6060 C 558.174 0.0964526 -2.33301 0
M  V30 6061 C 559.155 0.857444 -1.46908 0
M  V30 6062 O 560.34 0.827735 -1.75676 0
M  V30 6063 C 557.47 1.09354 -3.29635 0
M  V30 6064 C 556.424 0.445676 -4.25673 0
M  V30 6065 C 555.75 1.5511 -5.11708 0
M  V30 6066 C 557.05 -0.633972 -5.18438 0
M  V30 6067 H 558.744 -0.637829 -2.92527 0
M  V30 6068 H 556.29 -0.308178 -1.40664 0
M  V30 6069 H 558.243 1.59556 -3.90025 0
M  V30 6070 H 556.967 1.85843 -2.6857 0
M  V30 6071 H 555.626 -0.0354897 -3.66583 0
M  V30 6072 H 555.274 2.30631 -4.4701 0
M  V30 6073 H 554.974 1.12311 -5.76767 0
M  V30 6074 H 556.498 2.05537 -5.74967 0
M  V30 6075 H 557.912 -0.215974 -5.72893 0
M  V30 6076 H 556.309 -0.983789 -5.91981 0
M  V30 6077 H 557.379 -1.51005 -4.60788 0
M  V30 6078 N 558.722 1.53707 -0.348139 0
M  V30 6079 C 559.971 2.0017 0.247992 0
M  V30 6080 C 560.284 1.23983 1.51286 0
M  V30 6081 O 561.49 1.60946 2.18652 0
M  V30 6082 C 559.946 3.56515 0.492459 0
M  V30 6083 C 559.554 4.41562 -0.756777 0
M  V30 6084 C 561.298 4.11381 1.0472 0
M  V30 6085 C 559.205 5.89426 -0.482856 0
M  V30 6086 H 558.135 0.747806 0.0964452 0
M  V30 6087 H 560.786 1.77532 -0.464179 0
M  V30 6088 H 559.168 3.75236 1.26545 0
M  V30 6089 H 560.342 4.34615 -1.53122 0
M  V30 6090 H 558.657 3.97711 -1.23348 0
M  V30 6091 H 561.254 5.19468 1.26717 0
M  V30 6092 H 561.597 3.64885 2.00411 0
M  V30 6093 H 562.13 3.96389 0.334801 0
M  V30 6094 H 558.869 6.40164 -1.40962 0
M  V30 6095 H 558.389 5.99264 0.253416 0
M  V30 6096 H 560.068 6.4692 -0.101816 0
M  V30 6097 N 560.2 0.0768682 1.57412 0
M  V30 6098 C 561.15 -0.898795 2.09537 0
M  V30 6099 C 562.134 -1.25556 1.0062 0
M  V30 6100 O 563.326 -1.23369 1.26921 0
M  V30 6101 C 560.455 -2.16453 2.66464 0
M  V30 6102 C 559.541 -1.83401 3.82393 0
M  V30 6103 N 559.932 -1.20823 4.91157 0
M  V30 6104 C 558.23 -2.13121 3.91785 0
M  V30 6105 C 558.931 -1.05976 5.71965 0
M  V30 6106 N 557.907 -1.57113 5.204 0
M  V30 6107 H 561.709 -0.410718 2.91016 0
M  V30 6108 H 559.223 -0.126878 1.61904 0
M  V30 6109 H 561.22 -2.87274 3.02125 0
M  V30 6110 H 559.88 -2.65844 1.86433 0
M  V30 6111 H 560.891 -0.877249 5.10416 0
M  V30 6112 H 557.568 -2.64854 3.22736 0
M  V30 6113 H 558.958 -0.571809 6.69462 0
M  V30 6114 N 561.678 -1.56367 -0.196722 0
M  V30 6115 C 562.628 -1.9082 -1.24787 0
M  V30 6116 C 563.612 -0.773719 -1.41076 0
M  V30 6117 O 564.804 -1.03655 -1.43474 0
M  V30 6118 C 561.933 -2.24982 -2.59303 0
M  V30 6119 C 561.019 -3.44882 -2.46814 0
M  V30 6120 N 561.41 -4.62835 -2.04003 0
M  V30 6121 C 559.708 -3.48988 -2.77711 0
M  V30 6122 C 560.409 -5.44993 -2.03366 0
M  V30 6123 N 559.385 -4.85356 -2.44807 0
M  V30 6124 H 563.187 -2.79516 -0.908175 0
M  V30 6125 H 560.701 -1.57265 -0.405166 0
M  V30 6126 H 562.698 -2.47848 -3.35227 0
M  V30 6127 H 561.358 -1.37611 -2.94098 0
M  V30 6128 H 562.369 -4.87532 -1.74738 0
M  V30 6129 H 559.046 -2.72029 -3.16712 0
M  V30 6130 H 560.436 -6.49464 -1.72181 0
M  V30 6131 N 563.156 0.464375 -1.50603 0
M  V30 6132 C 564.403 1.21596 -1.61928 0
M  V30 6133 C 564.731 1.91804 -0.322737 0
M  V30 6134 O 563.986 1.83065 0.691776 0
M  V30 6135 C 564.285 2.278 -2.75394 0
M  V30 6136 C 563.951 1.74797 -4.1564 0
M  V30 6137 C 562.613 1.60063 -4.53799 0
M  V30 6138 C 564.965 1.35548 -5.03266 0
M  V30 6139 C 562.293 1.04514 -5.77316 0
M  V30 6140 C 564.645 0.814381 -6.27336 0
M  V30 6141 C 563.309 0.653726 -6.64291 0
M  V30 6142 H 562.579 0.444951 -0.592536 0
M  V30 6143 H 565.226 0.510964 -1.84557 0
M  V30 6144 H 563.531 3.04233 -2.46879 0
M  V30 6145 H 565.228 2.85723 -2.81359 0
M  V30 6146 H 561.818 1.87234 -3.8554 0
M  V30 6147 H 566.002 1.45763 -4.74412 0
M  V30 6148 H 561.258 0.908186 -6.04617 0
M  V30 6149 H 565.432 0.501626 -6.94591 0
M  V30 6150 H 563.059 0.22114 -7.59878 0
M  V30 6151 N 564.634 1.40294 0.718013 0
M  V30 6152 C 565.581 1.40367 1.8321 0
M  V30 6153 C 566.551 0.260952 1.64037 0
M  V30 6154 O 567.736 0.458648 1.85205 0
M  V30 6155 C 564.876 1.26965 3.20895 0
M  V30 6156 C 563.989 2.50922 3.51656 0
M  V30 6157 C 563.124 2.29981 4.78834 0
M  V30 6158 C 562.163 3.49527 5.02491 0
M  V30 6159 N 561.3 3.27796 6.20882 0
M  V30 6160 H 566.14 2.35593 1.82482 0
M  V30 6161 H 563.677 1.17012 0.891444 0
M  V30 6162 H 565.635 1.17202 4.00399 0
M  V30 6163 H 564.265 0.353591 3.20858 0
M  V30 6164 H 563.317 2.71223 2.66725 0
M  V30 6165 H 564.629 3.39913 3.65048 0
M  V30 6166 H 563.783 2.17558 5.66351 0
M  V30 6167 H 562.522 1.38411 4.67647 0
M  V30 6168 H 561.527 3.6243 4.1343 0
M  V30 6169 H 562.752 4.42021 5.15553 0
M  V30 6170 H 560.698 2.38906 6.1095 0
M  V30 6171 H 560.615 4.10351 6.34939 0
M  V30 6172 H 561.883 3.19101 7.11193 0
M  V30 6173 N 566.112 -0.949982 1.2575 0
M  V30 6174 C 567.042 -2.06483 1.09028 0
M  V30 6175 C 568.023 -1.701 -0.00201532 0
M  V30 6176 O 569.208 -1.93469 0.168383 0
M  V30 6177 C 566.338 -3.39899 0.71316 0
M  V30 6178 C 565.292 -3.90309 1.75621 0
M  V30 6179 C 564.618 -5.20274 1.23365 0
M  V30 6180 C 565.918 -4.16169 3.15596 0
M  V30 6181 H 567.612 -2.20731 2.02283 0
M  V30 6182 H 565.158 -1.06066 0.973964 0
M  V30 6183 H 567.111 -4.17346 0.58309 0
M  V30 6184 H 565.835 -3.25602 -0.255091 0
M  V30 6185 H 564.494 -3.15035 1.8748 0
M  V30 6186 H 564.142 -5.02351 0.255491 0
M  V30 6187 H 563.842 -5.54971 1.93082 0
M  V30 6188 H 565.366 -6.00314 1.11607 0
M  V30 6189 H 566.78 -4.84259 3.06864 0
M  V30 6190 H 565.177 -4.62131 3.82825 0
M  V30 6191 H 566.247 -3.22273 3.6231 0
M  V30 6192 N 567.59 -1.07411 -1.15328 0
M  V30 6193 C 568.82 -0.817595 -1.89734 0
M  V30 6194 C 569.228 0.63297 -1.78298 0
M  V30 6195 O 568.571 1.44594 -1.13306 0
M  V30 6196 C 568.633 -1.14748 -3.40695 0
M  V30 6197 C 568.297 -2.59876 -3.75917 0
M  V30 6198 C 569.294 -3.58122 -3.76888 0
M  V30 6199 C 566.979 -2.95469 -4.06206 0
M  V30 6200 C 568.973 -4.89996 -4.07655 0
M  V30 6201 C 566.66 -4.2754 -4.36638 0
M  V30 6202 C 567.658 -5.24614 -4.37344 0
M  V30 6203 O 567.346 -6.54312 -4.67045 0
M  V30 6204 H 567.078 -0.295175 -0.608151 0
M  V30 6205 H 569.632 -1.43409 -1.47048 0
M  V30 6206 H 567.862 -0.47395 -3.83785 0
M  V30 6207 H 569.551 -0.873397 -3.96392 0
M  V30 6208 H 570.317 -3.31966 -3.53587 0
M  V30 6209 H 566.196 -2.20558 -4.04815 0
M  V30 6210 H 569.74 -5.65759 -4.08121 0
M  V30 6211 H 565.637 -4.53449 -4.59407 0
M  V30 6212 H 566.405 -6.59473 -4.84807 0
M  V30 6213 N 569.068 1.32177 -0.85831 0
M  V30 6214 C 570.296 2.01313 -0.477582 0
M  V30 6215 C 570.711 1.6449 0.926736 0
M  V30 6216 O 570.068 0.868096 1.60531 0
M  V30 6217 C 570.119 3.56293 -0.611337 0
M  V30 6218 O 569.84 3.91794 -1.96034 0
M  V30 6219 C 571.341 4.42702 -0.230093 0
M  V30 6220 H 568.561 0.644323 -0.187322 0
M  V30 6221 H 571.105 1.68674 -1.15626 0
M  V30 6222 H 569.26 3.87395 0.0196494 0
M  V30 6223 H 569.674 4.86513 -1.95973 0
M  V30 6224 H 571.148 5.50727 -0.374674 0
M  V30 6225 H 571.625 4.3129 0.829779 0
M  V30 6226 H 572.231 4.16997 -0.836302 0
M  V30 6227 N 570.547 0.616602 1.45037 0
M  V30 6228 C 571.457 -0.0985401 2.34393 0
M  V30 6229 C 572.473 -0.850971 1.51771 0
M  V30 6230 O 573.649 -0.806521 1.84546 0
M  V30 6231 C 570.714 -1.07748 3.29532 0
M  V30 6232 C 569.775 -0.326022 4.2806 0
M  V30 6233 C 569.008 -1.25833 5.18654 0
M  V30 6234 O 569.231 -2.49652 5.12864 0
M  V30 6235 O 568.165 -0.750512 5.97203 0
M  V30 6236 H 571.991 0.636016 2.96966 0
M  V30 6237 H 569.576 0.376832 1.44569 0
M  V30 6238 H 571.458 -1.64107 3.88133 0
M  V30 6239 H 570.133 -1.79291 2.69512 0
M  V30 6240 H 569.04 0.280253 3.73049 0
M  V30 6241 H 570.373 0.349091 4.9096 0
M  V30 6242 N 572.025 -1.5352 0.356285 0
M  V30 6243 C 573.273 -2.00719 -0.235837 0
M  V30 6244 C 573.594 -1.24551 -1.5004 0
M  V30 6245 O 572.864 -0.356185 -1.92635 0
M  V30 6246 H 571.444 -0.741542 -0.0901366 0
M  V30 6247 H 574.106 -1.88887 0.480378 0
M  V30 6248 H 573.202 -3.08551 -0.469357 0
M  V30 6249 N 573.503 -0.0852151 -1.57369 0
M  V30 6250 C 574.733 0.588605 -1.98038 0
M  V30 6251 C 575.141 1.62869 -0.962817 0
M  V30 6252 O 574.484 1.83611 0.057134 0
M  V30 6253 C 574.546 1.30303 -3.35054 0
M  V30 6254 C 574.21 0.414855 -4.55113 0
M  V30 6255 C 575.207 -0.333011 -5.18832 0
M  V30 6256 C 572.892 0.335804 -5.01176 0
M  V30 6257 C 574.886 -1.14801 -6.26976 0
M  V30 6258 C 572.573 -0.482857 -6.09189 0
M  V30 6259 C 573.571 -1.22342 -6.71953 0
M  V30 6260 O 573.259 -2.02855 -7.77885 0
M  V30 6261 H 572.991 0.163249 -0.655992 0
M  V30 6262 H 575.545 -0.1582 -2.0479 0
M  V30 6263 H 573.775 2.0962 -3.24956 0
M  V30 6264 H 575.464 1.87041 -3.60237 0
M  V30 6265 H 576.23 -0.281611 -4.84182 0
M  V30 6266 H 572.109 0.901869 -4.52092 0
M  V30 6267 H 575.653 -1.72654 -6.75897 0
M  V30 6268 H 571.55 -0.535773 -6.43273 0
M  V30 6269 H 572.318 -1.95432 -7.94826 0
M  V30 6270 N 574.981 1.5647 0.188427 0
M  V30 6271 C 575.913 1.91611 1.25769 0
M  V30 6272 C 576.926 0.807436 1.41366 0
M  V30 6273 O 578.115 1.08586 1.41673 0
M  V30 6274 C 575.215 2.13874 2.6289 0
M  V30 6275 C 574.388 3.45047 2.68815 0
M  V30 6276 C 573.447 3.56342 3.87178 0
M  V30 6277 O 572.473 4.29109 3.73971 0
M  V30 6278 N 573.675 2.89924 5.02916 0
M  V30 6279 H 576.44 2.8393 0.959373 0
M  V30 6280 H 574.001 1.57418 0.378306 0
M  V30 6281 H 575.993 2.18713 3.4051 0
M  V30 6282 H 574.563 1.28022 2.85183 0
M  V30 6283 H 573.783 3.52017 1.77419 0
M  V30 6284 H 575.071 4.31395 2.6977 0
M  V30 6285 H 574.469 2.30644 5.16546 0
M  V30 6286 H 573.026 3.0038 5.78459 0
M  V30 6287 N 576.459 -0.456382 1.50847 0
M  V30 6288 C 577.705 -1.20914 1.62811 0
M  V30 6289 C 578.038 -1.91301 0.334304 0
M  V30 6290 O 577.313 -1.82775 -0.665098 0
M  V30 6291 C 577.596 -2.24122 2.81853 0
M  V30 6292 C 577.449 -1.57944 4.21158 0
M  V30 6293 C 578.768 -3.25295 2.96431 0
M  V30 6294 H 575.887 -0.438233 0.592554 0
M  V30 6295 H 578.529 -0.50091 1.83278 0
M  V30 6296 H 576.679 -2.84524 2.64534 0
M  V30 6297 H 578.351 -1.01025 4.50102 0
M  V30 6298 H 576.594 -0.882185 4.24735 0
M  V30 6299 H 577.265 -2.33014 5.00408 0
M  V30 6300 H 579.741 -2.7493 3.12335 0
M  V30 6301 H 578.617 -3.94822 3.81322 0
M  V30 6302 H 578.878 -3.90286 2.07676 0
M  V30 6303 N 577.937 -1.40673 -0.710563 0
M  V30 6304 C 579.348 -1.34975 -1.28991 0
M  V30 6305 C 579.699 -0.0256272 -1.96183 0
M  V30 6306 O 578.824 0.876339 -1.97862 0
M  V30 6307 C 579.419 -2.44467 -2.34567 0
M  V30 6308 C 577.978 -2.42213 -2.88114 0
M  V30 6309 C 577.125 -2.25085 -1.61963 0
M  V30 6310 H 580.076 -1.50406 -0.506343 0
M  V30 6311 H 580.097 -2.12663 -3.15523 0
M  V30 6312 H 579.609 -3.40825 -1.85634 0
M  V30 6313 H 577.71 -1.49568 -3.41263 0
M  V30 6314 H 577.823 -3.37983 -3.39565 0
M  V30 6315 H 576.187 -1.72691 -1.87216 0
M  V30 6316 H 576.97 -3.23449 -1.15047 0
M  V30 6317 N 579.415 0.9433 -1.26252 0
M  V30 6318 C 580.826 1.50404 -1.10614 0
M  V30 6319 C 581.177 1.93666 0.31429 0
M  V30 6320 O 580.302 1.79709 1.20555 0
M  V30 6321 C 580.897 2.73336 -2.00182 0
M  V30 6322 C 579.456 3.25686 -1.88695 0
M  V30 6323 C 578.603 1.98474 -1.93658 0
M  V30 6324 H 581.554 0.759006 -1.39373 0
M  V30 6325 H 581.575 3.47567 -1.54847 0
M  V30 6326 H 581.087 2.41818 -3.03555 0
M  V30 6327 H 579.188 3.61998 -0.882489 0
M  V30 6328 H 579.301 3.92935 -2.74115 0
M  V30 6329 H 577.665 2.14278 -1.37684 0
M  V30 6330 H 578.448 1.6929 -2.98657 0
M  V30 6331 N 580.893 1.08022 1.14757 0
M  V30 6332 C 582.141 0.805913 1.85336 0
M  V30 6333 C 582.462 -0.670162 1.83122 0
M  V30 6334 O 581.732 -1.48567 1.2769 0
M  V30 6335 H 580.312 0.295138 0.686223 0
M  V30 6336 H 582.974 1.36538 1.3908 0
M  V30 6337 H 582.07 1.14655 2.90277 0
M  V30 6338 N 582.371 -1.3172 0.865308 0
M  V30 6339 C 583.334 -2.26918 0.322627 0
M  V30 6340 C 584.334 -1.52031 -0.523751 0
M  V30 6341 O 585.524 -1.70973 -0.333727 0
M  V30 6342 C 582.656 -3.36558 -0.542338 0
M  V30 6343 H 583.849 -2.76432 1.16298 0
M  V30 6344 H 581.402 -1.42573 0.640512 0
M  V30 6345 H 582.137 -2.92329 -1.40407 0
M  V30 6346 H 581.922 -3.92048 0.0636395 0
M  V30 6347 H 583.412 -4.07465 -0.91446 0
M  V30 6348 N 583.85 -0.624285 -1.44708 0
M  V30 6349 C 585.077 -0.132919 -2.06473 0
M  V30 6350 C 585.493 1.18967 -1.46602 0
M  V30 6351 O 584.85 1.72824 -0.586341 0
M  V30 6352 C 584.901 -0.00465418 -3.615 0
M  V30 6353 O 584.622 -1.27494 -4.19138 0
M  V30 6354 C 586.123 0.516213 -4.40284 0
M  V30 6355 H 583.343 -0.0765201 -0.666623 0
M  V30 6356 H 585.887 -0.856751 -1.85688 0
M  V30 6357 H 584.042 0.669583 -3.8157 0
M  V30 6358 H 584.456 -1.11536 -5.12504 0
M  V30 6359 H 585.93 0.554994 -5.49203 0
M  V30 6360 H 586.407 1.5419 -4.11245 0
M  V30 6361 H 587.013 -0.124542 -4.25118 0
M  V30 6362 N 585.328 1.53329 -0.364422 0
M  V30 6363 C 586.558 2.05359 0.226096 0
M  V30 6364 C 586.966 1.23777 1.43094 0
M  V30 6365 O 586.309 0.271139 1.81688 0
M  V30 6366 C 586.371 3.52918 0.684794 0
M  V30 6367 C 586.035 4.55218 -0.403206 0
M  V30 6368 C 587.032 5.04583 -1.2527 0
M  V30 6369 C 584.717 4.99134 -0.563117 0
M  V30 6370 C 586.711 5.96463 -2.24745 0
M  V30 6371 C 584.398 5.9082 -1.56124 0
M  V30 6372 C 585.396 6.39375 -2.40184 0
M  V30 6373 O 585.084 7.29255 -3.38293 0
M  V30 6374 H 584.816 0.674588 0.0436772 0
M  V30 6375 H 587.37 1.98688 -0.520782 0
M  V30 6376 H 585.6 3.57122 1.48326 0
M  V30 6377 H 587.289 3.87812 1.19818 0
M  V30 6378 H 588.055 4.71403 -1.14034 0
M  V30 6379 H 583.934 4.60928 0.0813909 0
M  V30 6380 H 587.478 6.34285 -2.90393 0
M  V30 6381 H 583.375 6.23414 -1.67407 0
M  V30 6382 H 584.143 7.47249 -3.34009 0
M  V30 6383 N 586.806 0.0935595 1.57322 0
M  V30 6384 C 588.034 -0.578934 1.98635 0
M  V30 6385 C 588.449 -1.61819 0.972626 0
M  V30 6386 O 587.806 -1.82461 -0.0379638 0
M  V30 6387 C 587.857 -1.22802 3.40003 0
M  V30 6388 O 587.578 -0.230334 4.37494 0
M  V30 6389 C 589.079 -1.98627 3.96311 0
M  V30 6390 H 586.299 -0.155324 0.652775 0
M  V30 6391 H 588.843 0.172393 2.03772 0
M  V30 6392 H 586.998 -1.93029 3.35885 0
M  V30 6393 H 587.412 -0.698649 5.19826 0
M  V30 6394 H 588.886 -2.39405 4.97382 0
M  V30 6395 H 589.363 -2.85151 3.34044 0
M  V30 6396 H 589.969 -1.3322 4.03897 0
M  V30 6397 N 588.284 -1.56567 -0.180126 0
M  V30 6398 C 589.247 -1.94852 -1.20686 0
M  V30 6399 C 590.247 -0.831212 -1.3765 0
M  V30 6400 O 591.437 -1.09841 -1.35206 0
M  V30 6401 C 588.569 -2.23565 -2.57355 0
M  V30 6402 H 589.762 -2.86722 -0.879225 0
M  V30 6403 H 587.315 -1.50489 -0.422237 0
M  V30 6404 H 588.05 -1.34381 -2.95148 0
M  V30 6405 H 587.835 -3.04999 -2.46411 0
M  V30 6406 H 589.325 -2.54137 -3.31367 0
M  V30 6407 N 589.762 0.448376 -1.51087 0
M  V30 6408 C 591.011 1.19561 -1.62444 0
M  V30 6409 C 591.324 1.92602 -0.341151 0
M  V30 6410 O 592.53 2.69439 -0.333936 0
M  V30 6411 C 590.986 2.17373 -2.8684 0
M  V30 6412 C 590.594 1.5003 -4.22131 0
M  V30 6413 C 592.338 2.92597 -3.0755 0
M  V30 6414 C 590.245 2.46262 -5.37689 0
M  V30 6415 H 589.175 0.449975 -0.605011 0
M  V30 6416 H 591.826 0.463735 -1.77544 0
M  V30 6417 H 590.208 2.93948 -2.65349 0
M  V30 6418 H 591.382 0.790886 -4.53962 0
M  V30 6419 H 589.697 0.870011 -4.0721 0
M  V30 6420 H 592.294 3.64663 -3.91056 0
M  V30 6421 H 592.637 3.53306 -2.20183 0
M  V30 6422 H 593.17 2.23131 -3.29329 0
M  V30 6423 H 589.909 1.90258 -6.27281 0
M  V30 6424 H 589.429 3.15289 -5.10248 0
M  V30 6425 H 591.108 3.07623 -5.6919 0
M  V30 6426 N 591.24 1.41047 0.703093 0
M  V30 6427 C 592.15 1.44645 1.84703 0
M  V30 6428 C 593.166 0.337778 1.7069 0
M  V30 6429 O 594.342 0.584327 1.92737 0
M  V30 6430 C 591.407 1.31928 3.20618 0
M  V30 6431 C 590.468 2.53047 3.46794 0
M  V30 6432 C 589.701 2.40927 4.76224 0
M  V30 6433 O 589.924 1.42978 5.5219 0
M  V30 6434 O 588.858 3.30543 5.03016 0
M  V30 6435 H 592.684 2.41139 1.84624 0
M  V30 6436 H 590.269 1.22504 0.855167 0
M  V30 6437 H 592.151 1.27092 4.01778 0
M  V30 6438 H 590.826 0.385469 3.21397 0
M  V30 6439 H 589.733 2.6346 2.65593 0
M  V30 6440 H 591.066 3.45231 3.50822 0
M  V30 6441 N 592.718 -0.936591 1.26751 0
M  V30 6442 C 593.681 -2.01752 1.08761 0
M  V30 6443 C 594.681 -1.60763 0.0344435 0
M  V30 6444 O 595.871 -1.71963 0.278258 0
M  V30 6445 C 593.003 -3.34543 0.655271 0
M  V30 6446 H 594.196 -2.19143 2.04735 0
M  V30 6447 H 591.749 -1.11618 1.09413 0
M  V30 6448 H 592.484 -3.22851 -0.30626 0
M  V30 6449 H 592.269 -3.65647 1.41578 0
M  V30 6450 H 593.759 -4.13944 0.551378 0
M  V30 6451 N 594.196 -1.08629 -1.14182 0
M  V30 6452 C 595.607 -0.838003 -1.66836 0
M  V30 6453 C 595.958 0.634885 -1.85644 0
M  V30 6454 O 595.083 1.49008 -1.56926 0
M  V30 6455 C 595.678 -1.51465 -3.03058 0
M  V30 6456 C 594.237 -1.31355 -3.52736 0
M  V30 6457 C 593.384 -1.57599 -2.28162 0
M  V30 6458 H 596.335 -1.24656 -0.982165 0
M  V30 6459 H 596.356 -0.943134 -3.68626 0
M  V30 6460 H 595.868 -2.58661 -2.89337 0
M  V30 6461 H 593.969 -0.262384 -3.71675 0
M  V30 6462 H 594.082 -2.04275 -4.33369 0
M  V30 6463 H 592.446 -0.997659 -2.34348 0
M  V30 6464 H 593.229 -2.66006 -2.17015 0
M  V30 6465 N 595.674 1.31259 -0.872281 0
M  V30 6466 C 596.621 2.28459 -0.327857 0
M  V30 6467 C 597.591 1.55831 0.574957 0
M  V30 6468 O 598.776 1.83965 0.506101 0
M  V30 6469 C 595.916 3.41985 0.462644 0
M  V30 6470 C 595.029 4.29458 -0.467949 0
M  V30 6471 C 594.164 5.30131 0.336903 0
M  V30 6472 C 593.203 6.0925 -0.58997 0
M  V30 6473 N 592.34 7.01872 0.178775 0
M  V30 6474 H 597.18 2.74414 -1.16193 0
M  V30 6475 H 594.717 1.34994 -0.584376 0
M  V30 6476 H 596.675 4.06547 0.936759 0
M  V30 6477 H 595.305 2.97134 1.2614 0
M  V30 6478 H 594.357 3.65318 -1.06052 0
M  V30 6479 H 595.669 4.84677 -1.17856 0
M  V30 6480 H 594.823 6.0038 0.873427 0
M  V30 6481 H 593.562 4.75573 1.08079 0
M  V30 6482 H 592.567 5.37889 -1.13823 0
M  V30 6483 H 593.792 6.65894 -1.33275 0
M  V30 6484 H 591.738 6.49721 0.905435 0
M  V30 6485 H 591.655 7.54522 -0.472452 0
M  V30 6486 H 592.923 7.76382 0.696454 0
M  V30 6487 N 597.152 0.631951 1.44375 0
M  V30 6488 C 598.4 0.136497 2.01639 0
M  V30 6489 C 598.721 -1.24637 1.49969 0
M  V30 6490 O 597.991 -1.82827 0.70363 0
M  V30 6491 H 596.571 0.0474703 0.74549 0
M  V30 6492 H 599.233 0.818837 1.76865 0
M  V30 6493 H 598.329 0.104817 3.11924 0
M  V30 6494 N 598.631 -1.53133 0.372548 0
M  V30 6495 C 599.541 -2.29671 -0.478379 0
M  V30 6496 C 600.557 -1.35913 -1.08644 0
M  V30 6497 O 601.733 -1.68975 -1.09588 0
M  V30 6498 C 598.798 -3.07625 -1.599 0
M  V30 6499 C 597.859 -4.17061 -1.01776 0
M  V30 6500 C 597.092 -4.91289 -2.08497 0
M  V30 6501 O 597.315 -4.65442 -3.29727 0
M  V30 6502 O 596.249 -5.7705 -1.71164 0
M  V30 6503 H 600.075 -3.03355 0.144649 0
M  V30 6504 H 597.66 -1.48773 0.136729 0
M  V30 6505 H 599.542 -3.56281 -2.25038 0
M  V30 6506 H 598.217 -2.3677 -2.2073 0
M  V30 6507 H 597.124 -3.72641 -0.330098 0
M  V30 6508 H 598.457 -4.90102 -0.453915 0
M  V30 6509 N 600.109 -0.101901 -1.5727 0
M  V30 6510 C 601.356 0.560197 -1.94597 0
M  V30 6511 C 601.684 1.67767 -0.984101 0
M  V30 6512 O 600.939 1.95699 -0.00489193 0
M  V30 6513 C 601.238 1.14898 -3.38427 0
M  V30 6514 C 600.904 0.154613 -4.50635 0
M  V30 6515 C 599.566 -0.118861 -4.81053 0
M  V30 6516 C 601.918 -0.523979 -5.18559 0
M  V30 6517 C 599.246 -1.0775 -5.76721 0
M  V30 6518 C 601.598 -1.47114 -6.15256 0
M  V30 6519 C 600.262 -1.75278 -6.44076 0
M  V30 6520 H 599.532 0.204991 -0.712081 0
M  V30 6521 H 602.179 -0.17918 -1.9066 0
M  V30 6522 H 600.484 1.96476 -3.38976 0
M  V30 6523 H 602.181 1.66909 -3.64613 0
M  V30 6524 H 598.771 0.377948 -4.2693 0
M  V30 6525 H 602.955 -0.325851 -4.95229 0
M  V30 6526 H 598.211 -1.30263 -5.97362 0
M  V30 6527 H 602.385 -2.00274 -6.66981 0
M  V30 6528 H 600.012 -2.49717 -7.18015 0
M  V30 6529 N 601.587 1.56661 0.17182 0
M  V30 6530 C 602.835 1.81606 0.886774 0
M  V30 6531 C 603.156 0.678818 1.82803 0
M  V30 6532 O 602.426 -0.301354 1.93568 0
M  V30 6533 H 601.006 0.669934 0.330451 0
M  V30 6534 H 603.668 1.94142 0.171757 0
M  V30 6535 H 602.764 2.75634 1.46398 0
M  V30 6536 N 603.065 -0.440357 1.51323 0
M  V30 6537 C 604.311 -1.19181 1.64085 0
M  V30 6538 C 604.644 -1.90936 0.354575 0
M  V30 6539 O 603.919 -1.8347 -0.645675 0
M  V30 6540 C 604.202 -2.2112 2.84215 0
M  V30 6541 C 604.055 -1.53468 4.22809 0
M  V30 6542 C 605.374 -3.22133 2.99864 0
M  V30 6543 H 602.493 -0.431924 0.597169 0
M  V30 6544 H 605.135 -0.481443 1.83799 0
M  V30 6545 H 603.285 -2.81703 2.67537 0
M  V30 6546 H 604.957 -0.962455 4.51148 0
M  V30 6547 H 603.2 -0.837086 4.25647 0
M  V30 6548 H 603.871 -2.27694 5.02852 0
M  V30 6549 H 606.347 -2.71601 3.15233 0
M  V30 6550 H 605.223 -3.90756 3.85488 0
M  V30 6551 H 605.484 -3.88061 2.11804 0
M  V30 6552 N 604.543 -1.41418 -0.695603 0
M  V30 6553 C 605.773 -1.43921 -1.48224 0
M  V30 6554 C 606.181 -0.0428855 -1.89151 0
M  V30 6555 O 605.524 0.948138 -1.5734 0
M  V30 6556 C 605.586 -2.28466 -2.77567 0
M  V30 6557 C 605.25 -3.76629 -2.58844 0
M  V30 6558 C 606.247 -4.6879 -2.24793 0
M  V30 6559 C 603.932 -4.2067 -2.74485 0
M  V30 6560 C 605.926 -6.02981 -2.06622 0
M  V30 6561 C 603.613 -5.54926 -2.55931 0
M  V30 6562 C 604.611 -6.45897 -2.2205 0
M  V30 6563 O 604.299 -7.77675 -2.03657 0
M  V30 6564 H 604.031 -0.492252 -0.463318 0
M  V30 6565 H 606.585 -1.86347 -0.863952 0
M  V30 6566 H 604.815 -1.80853 -3.41802 0
M  V30 6567 H 606.504 -2.2267 -3.39371 0
M  V30 6568 H 607.27 -4.36055 -2.12323 0
M  V30 6569 H 603.149 -3.50167 -2.9984 0
M  V30 6570 H 606.693 -6.73951 -1.80099 0
M  V30 6571 H 602.59 -5.8724 -2.67991 0
M  V30 6572 H 603.358 -7.88819 -2.1842 0
M  V30 6573 N 606.021 0.929856 -1.27246 0
M  V30 6574 C 606.951 2.04722 -1.12299 0
M  V30 6575 C 607.932 1.70082 -0.0250464 0
M  V30 6576 O 609.117 1.93176 -0.199141 0
M  V30 6577 C 606.247 3.38721 -0.767145 0
M  V30 6578 C 605.201 3.87466 -1.81808 0
M  V30 6579 C 604.527 5.18246 -1.31626 0
M  V30 6580 C 605.827 4.11095 -3.22177 0
M  V30 6581 H 607.521 2.17485 -2.05769 0
M  V30 6582 H 605.067 1.04503 -0.990715 0
M  V30 6583 H 607.02 4.16366 -0.649413 0
M  V30 6584 H 605.744 3.25967 0.203259 0
M  V30 6585 H 604.403 3.12012 -1.92468 0
M  V30 6586 H 604.051 5.01881 -0.335378 0
M  V30 6587 H 603.751 5.51829 -2.01887 0
M  V30 6588 H 605.275 5.98462 -1.21143 0
M  V30 6589 H 606.689 4.79316 -3.1453 0
M  V30 6590 H 605.086 4.55982 -3.90129 0
M  V30 6591 H 606.156 3.16468 -3.67391 0
M  V30 6592 N 607.499 1.09233 1.13605 0
M  V30 6593 C 608.745 0.828385 1.8511 0
M  V30 6594 C 609.078 -0.64437 1.83198 0
M  V30 6595 O 608.353 -1.47428 1.26867 0
M  V30 6596 C 608.636 1.36167 3.33363 0
M  V30 6597 C 608.489 2.90038 3.438 0
M  V30 6598 C 609.808 0.993819 4.28732 0
M  V30 6599 H 606.927 0.30239 0.672108 0
M  V30 6600 H 609.569 1.35339 1.33355 0
M  V30 6601 H 607.719 0.9151 3.77569 0
M  V30 6602 H 609.391 3.43128 3.08319 0
M  V30 6603 H 607.634 3.27271 2.84739 0
M  V30 6604 H 608.305 3.22428 4.48045 0
M  V30 6605 H 610.781 1.37893 3.92587 0
M  V30 6606 H 609.657 1.39403 5.30903 0
M  V30 6607 H 609.918 -0.0982206 4.41991 0
M  V30 6608 N 608.977 -1.30795 0.87923 0
M  V30 6609 C 610.202 -2.01063 0.508769 0
M  V30 6610 C 610.627 -1.65508 -0.893803 0
M  V30 6611 O 609.985 -0.868616 -1.59138 0
M  V30 6612 C 610.033 -3.54054 0.683991 0
M  V30 6613 O 609.137 -4.11498 -0.272654 0
M  V30 6614 H 608.478 -0.632786 0.201191 0
M  V30 6615 H 611.008 -1.66776 1.18519 0
M  V30 6616 H 611.018 -4.03845 0.580798 0
M  V30 6617 H 609.693 -3.79271 1.70665 0
M  V30 6618 H 608.27 -3.72695 -0.12364 0
M  V30 6619 N 610.455 -0.639598 -1.44038 0
M  V30 6620 C 611.732 -0.078012 -1.95444 0
M  V30 6621 C 612.112 1.39847 -1.58133 0
M  V30 6622 O 611.46 2.11714 -0.859614 0
M  V30 6623 C 611.67 -0.309832 -3.47622 0
M  V30 6624 C 613.018 -0.207521 -4.24093 0
M  V30 6625 O 614.042 -0.241653 -3.55379 0
M  V30 6626 O 612.901 -0.119641 -5.46369 0
M  V30 6627 H 609.995 0.0174534 -0.826816 0
M  V30 6628 H 612.541 -0.711891 -1.54046 0
M  V30 6629 H 611.313 -1.33401 -3.67858 0
M  V30 6630 H 610.936 0.357777 -3.95987 0
M  V30 6631 N 611.933 1.52934 -0.380664 0
M  V30 6632 C 613.181 2.01069 0.203874 0
M  V30 6633 C 613.502 1.26922 1.4804 0
M  V30 6634 O 612.772 0.386787 1.92044 0
M  V30 6635 H 611.352 0.742882 0.0783279 0
M  V30 6636 H 614.014 1.88099 -0.510368 0
M  V30 6637 H 613.11 3.09258 0.42021 0
M  V30 6638 N 613.412 0.11024 1.57214 0
M  V30 6639 C 614.637 -0.561179 1.99664 0
M  V30 6640 C 615.062 -1.59985 0.989266 0
M  V30 6641 O 614.42 -1.81255 -0.0402399 0
M  V30 6642 C 614.468 -1.17189 3.41027 0
M  V30 6643 O 613.572 -2.28755 3.4314 0
M  V30 6644 H 612.913 -0.14101 0.648855 0
M  V30 6645 H 615.443 0.196128 2.03658 0
M  V30 6646 H 615.453 -1.50954 3.79047 0
M  V30 6647 H 614.128 -0.411041 4.13864 0
M  V30 6648 H 612.705 -1.96495 3.16929 0
M  V30 6649 N 614.89 -1.56749 -0.16351 0
M  V30 6650 C 616.115 -1.86938 -0.898264 0
M  V30 6651 C 616.54 -0.697456 -1.74692 0
M  V30 6652 O 615.898 0.353327 -1.77824 0
M  V30 6653 C 615.946 -3.15599 -1.74441 0
M  V30 6654 O 615.05 -2.98371 -2.8469 0
M  V30 6655 H 614.391 -0.614659 -0.251178 0
M  V30 6656 H 616.921 -2.03979 -0.159298 0
M  V30 6657 H 616.931 -3.47202 -2.14277 0
M  V30 6658 H 615.606 -4.00505 -1.1211 0
M  V30 6659 H 614.183 -2.7814 -2.4838 0
M  V30 6660 N 616.368 0.432326 -1.51554 0
M  V30 6661 C 617.784 0.769195 -1.39841 0
M  V30 6662 C 617.984 1.95584 -0.484675 0
M  V30 6663 O 617.04 2.52433 0.0582829 0
M  V30 6664 C 618.353 1.04487 -2.81963 0
M  V30 6665 C 619.901 1.149 -2.91148 0
M  V30 6666 C 620.376 1.45758 -4.34187 0
M  V30 6667 N 621.867 1.52671 -4.37317 0
M  V30 6668 C 622.602 1.78129 -5.4503 0
M  V30 6669 N 622.098 2.01345 -6.62897 0
M  V30 6670 N 623.891 1.79953 -5.32516 0
M  V30 6671 H 616.042 -0.349122 -2.09511 0
M  V30 6672 H 618.305 -0.0938113 -0.943347 0
M  V30 6673 H 618.011 0.24557 -3.50842 0
M  V30 6674 H 617.885 1.97119 -3.21596 0
M  V30 6675 H 620.272 1.93891 -2.22464 0
M  V30 6676 H 620.353 0.201568 -2.55005 0
M  V30 6677 H 619.997 0.672917 -5.03423 0
M  V30 6678 H 619.927 2.41715 -4.67848 0
M  V30 6679 H 622.418 1.36612 -3.52343 0
M  V30 6680 H 622.731 2.20155 -7.40778 0
M  V30 6681 H 621.076 1.98657 -6.66003 0
M  V30 6682 H 624.267 1.61337 -4.39418 0
M  V30 6683 H 624.44 1.99455 -6.1654 0
M  V30 6684 N 617.846 1.41785 0.688094 0
M  V30 6685 C 619.257 1.3701 1.26828 0
M  V30 6686 C 619.608 0.056835 1.96118 0
M  V30 6687 O 618.733 -0.84475 1.99231 0
M  V30 6688 C 619.328 2.48168 2.30648 0
M  V30 6689 C 617.887 2.46766 2.84224 0
M  V30 6690 C 617.034 2.27633 1.58361 0
M  V30 6691 H 619.985 1.51192 0.482351 0
M  V30 6692 H 620.006 2.17655 3.121 0
M  V30 6693 H 619.518 3.43735 1.80188 0
M  V30 6694 H 617.619 1.54978 3.3884 0
M  V30 6695 H 617.732 3.43342 3.34145 0
M  V30 6696 H 616.096 1.75648 1.84445 0
M  V30 6697 H 616.879 3.25238 1.09887 0
M  V30 6698 N 619.324 -0.923095 1.27737 0
M  V30 6699 C 620.554 -1.70277 1.17001 0
M  V30 6700 C 620.962 -1.87188 -0.275199 0
M  V30 6701 O 620.305 -1.39195 -1.19877 0
M  V30 6702 C 620.367 -3.11976 1.78637 0
M  V30 6703 C 620.031 -3.18386 3.27841 0
M  V30 6704 C 621.028 -3.00287 4.2441 0
M  V30 6705 C 618.713 -3.41198 3.68632 0
M  V30 6706 C 620.707 -3.04896 5.59747 0
M  V30 6707 C 618.394 -3.4544 5.04097 0
M  V30 6708 C 619.392 -3.27309 5.99465 0
M  V30 6709 O 619.08 -3.31295 7.32461 0
M  V30 6710 H 618.812 -0.539366 0.407505 0
M  V30 6711 H 621.366 -1.16446 1.69202 0
M  V30 6712 H 619.596 -3.67308 1.20919 0
M  V30 6713 H 621.285 -3.7193 1.6255 0
M  V30 6714 H 622.051 -2.825 3.94232 0
M  V30 6715 H 617.93 -3.54359 2.94873 0
M  V30 6716 H 621.474 -2.90662 6.34162 0
M  V30 6717 H 617.371 -3.62753 5.33929 0
M  V30 6718 H 618.139 -3.47719 7.40968 0
M  V30 6719 N 620.802 -1.09834 -1.13024 0
M  V30 6720 C 622.218 -0.828875 -1.36388 0
M  V30 6721 C 622.418 0.554756 -1.93713 0
M  V30 6722 O 621.474 1.30882 -2.15931 0
M  V30 6723 C 622.787 -1.92352 -2.3113 0
M  V30 6724 C 624.335 -1.95124 -2.44735 0
M  V30 6725 C 624.81 -3.03745 -3.42787 0
M  V30 6726 N 626.301 -3.03012 -3.5034 0
M  V30 6727 C 627.036 -3.83699 -4.26101 0
M  V30 6728 N 626.532 -4.74306 -5.04981 0
M  V30 6729 N 628.325 -3.71942 -4.21445 0
M  V30 6730 H 620.476 -1.99029 -0.74169 0
M  V30 6731 H 622.739 -0.864557 -0.388903 0
M  V30 6732 H 622.445 -2.91906 -1.96172 0
M  V30 6733 H 622.319 -1.80536 -3.3119 0
M  V30 6734 H 624.706 -0.962069 -2.78977 0
M  V30 6735 H 624.787 -2.11018 -1.44586 0
M  V30 6736 H 624.431 -4.02878 -3.09276 0
M  V30 6737 H 624.361 -2.85094 -4.42752 0
M  V30 6738 H 626.852 -2.37352 -2.94062 0
M  V30 6739 H 627.165 -5.32446 -5.60108 0
M  V30 6740 H 625.51 -4.78339 -5.04199 0
M  V30 6741 H 628.701 -3.00513 -3.589 0
M  V30 6742 H 628.874 -4.35062 -4.80235 0
M  V30 6743 N 622.28 1.30327 -0.886154 0
M  V30 6744 C 623.52 1.97886 -0.511912 0
M  V30 6745 C 623.884 1.68417 0.921944 0
M  V30 6746 O 625.085 2.29319 1.40237 0
M  V30 6747 C 623.356 3.48775 -0.780444 0
M  V30 6748 S 624.915 4.35844 -0.508482 0
M  V30 6749 H 621.733 0.685024 -0.190428 0
M  V30 6750 H 624.335 1.58413 -1.14567 0
M  V30 6751 H 623.039 3.67714 -1.82248 0
M  V30 6752 H 622.57 3.93171 -0.134284 0
M  V30 6753 H 624.585 4.91893 0.65239 0
M  V30 6754 N 623.758 0.647228 1.43697 0
M  V30 6755 C 624.705 -0.0480092 2.3075 0
M  V30 6756 C 625.675 -0.820705 1.44408 0
M  V30 6757 O 626.86 -0.798515 1.73287 0
M  V30 6758 C 624 -1.01259 3.2991 0
M  V30 6759 C 623.113 -0.236629 4.31351 0
M  V30 6760 C 622.248 -1.19447 5.17596 0
M  V30 6761 C 621.287 -0.408595 6.10735 0
M  V30 6762 N 620.424 -1.31772 6.89623 0
M  V30 6763 H 625.264 0.700238 2.89656 0
M  V30 6764 H 622.801 0.357082 1.427 0
M  V30 6765 H 624.759 -1.58538 3.85903 0
M  V30 6766 H 623.389 -1.72778 2.72667 0
M  V30 6767 H 622.441 0.452353 3.77701 0
M  V30 6768 H 623.753 0.374731 4.9739 0
M  V30 6769 H 622.907 -1.83809 5.78186 0
M  V30 6770 H 621.646 -1.83975 4.51669 0
M  V30 6771 H 620.651 0.24841 5.49239 0
M  V30 6772 H 621.876 0.232188 6.78703 0
M  V30 6773 H 619.822 -1.94991 6.2635 0
M  V30 6774 H 619.739 -0.760779 7.52162 0
M  V30 6775 H 621.007 -1.94967 7.54724 0
M  V30 6776 N 625.236 -1.5273 0.388769 0
M  V30 6777 C 626.485 -2.00757 -0.194833 0
M  V30 6778 C 626.798 -1.27951 -1.47946 0
M  V30 6779 O 628.004 -1.66686 -2.14308 0
M  V30 6780 C 626.46 -3.57695 -0.397762 0
M  V30 6781 C 626.068 -4.394 0.873583 0
M  V30 6782 C 627.812 -4.14012 -0.937759 0
M  V30 6783 C 625.719 -5.87938 0.638962 0
M  V30 6784 H 624.649 -0.750101 -0.0765845 0
M  V30 6785 H 627.3 -1.76239 0.511086 0
M  V30 6786 H 625.682 -3.7846 -1.16552 0
M  V30 6787 H 626.856 -4.30403 1.64591 0
M  V30 6788 H 625.171 -3.94301 1.33849 0
M  V30 6789 H 627.768 -5.22645 -1.12899 0
M  V30 6790 H 628.111 -3.7007 -1.90666 0
M  V30 6791 H 628.644 -3.97137 -0.229588 0
M  V30 6792 H 625.383 -6.36202 1.57885 0
M  V30 6793 H 624.903 -5.99726 -0.094443 0
M  V30 6794 H 626.582 -6.46423 0.273299 0
M  V30 6795 N 626.714 -0.118576 -1.57153 0
M  V30 6796 C 627.661 0.831789 -2.1529 0
M  V30 6797 C 628.631 1.26385 -1.07778 0
M  V30 6798 O 629.816 1.34144 -1.35684 0
M  V30 6799 C 626.956 2.07664 -2.75626 0
M  V30 6800 C 626.069 1.69298 -3.97444 0
M  V30 6801 C 625.204 2.88747 -4.45868 0
M  V30 6802 C 624.243 2.46619 -5.60219 0
M  V30 6803 N 623.38 3.5898 -6.03389 0
M  V30 6804 H 628.22 0.329183 -2.96176 0
M  V30 6805 H 625.757 0.150792 -1.46325 0
M  V30 6806 H 627.715 2.80601 -3.08738 0
M  V30 6807 H 626.345 2.55384 -1.97431 0
M  V30 6808 H 625.397 0.862374 -3.70496 0
M  V30 6809 H 626.709 1.34338 -4.80369 0
M  V30 6810 H 625.863 3.69909 -4.80887 0
M  V30 6811 H 624.602 3.26933 -3.61892 0
M  V30 6812 H 623.607 1.63889 -5.24805 0
M  V30 6813 H 624.832 2.0955 -6.45961 0
M  V30 6814 H 622.778 3.9684 -5.22354 0
M  V30 6815 H 622.695 3.27942 -6.81168 0
M  V30 6816 H 623.963 4.40583 -6.43045 0
M  V30 6817 N 628.193 1.56834 0.155195 0
M  V30 6818 C 629.156 1.96748 1.17571 0
M  V30 6819 C 630.156 0.853006 1.3631 0
M  V30 6820 O 631.346 1.11978 1.33441 0
M  V30 6821 C 628.478 2.27631 2.53765 0
M  V30 6822 H 629.671 2.88085 0.833498 0
M  V30 6823 H 627.224 1.51141 0.398242 0
M  V30 6824 H 627.959 1.39059 2.92973 0
M  V30 6825 H 627.744 3.0888 2.41527 0
M  V30 6826 H 629.234 2.59377 3.27282 0
M  V30 6827 N 629.671 -0.424282 1.51781 0
M  V30 6828 C 631.082 -1.00368 1.57427 0
M  V30 6829 C 631.433 -1.91962 0.40558 0
M  V30 6830 O 630.558 -2.111 -0.47601 0
M  V30 6831 C 631.153 -1.82707 2.85313 0
M  V30 6832 C 629.712 -2.35675 2.93487 0
M  V30 6833 C 628.859 -1.1524 2.5222 0
M  V30 6834 H 631.81 -0.205064 1.5737 0
M  V30 6835 H 631.831 -2.68294 2.69812 0
M  V30 6836 H 631.343 -1.16017 3.70353 0
M  V30 6837 H 629.444 -3.05781 2.12906 0
M  V30 6838 H 629.557 -2.67578 3.97415 0
M  V30 6839 H 627.921 -1.50174 2.05718 0
M  V30 6840 H 628.704 -0.5014 3.39619 0
M  V30 6841 N 631.149 -1.42148 -0.680565 0
M  V30 6842 C 632.397 -1.42029 -1.43779 0
M  V30 6843 C 632.718 -0.0356347 -1.94967 0
M  V30 6844 O 631.988 0.924936 -1.7269 0
M  V30 6845 H 630.568 -0.522835 -0.533529 0
M  V30 6846 H 633.23 -1.7752 -0.804538 0
M  V30 6847 H 632.326 -2.11658 -2.29363 0
M  V30 6848 N 632.627 0.916307 -1.28225 0
M  V30 6849 C 633.874 1.66518 -1.1523 0
M  V30 6850 C 634.202 1.92178 0.299632 0
M  V30 6851 O 633.457 1.51842 1.2346 0
M  V30 6852 C 633.756 3.03125 -1.8934 0
M  V30 6853 C 633.422 2.97135 -3.39148 0
M  V30 6854 C 632.084 2.95208 -3.80007 0
M  V30 6855 C 634.436 2.87574 -4.34685 0
M  V30 6856 C 631.764 2.81518 -5.14747 0
M  V30 6857 C 634.116 2.75424 -5.69495 0
M  V30 6858 C 632.78 2.71854 -6.09632 0
M  V30 6859 H 632.05 0.609334 -0.421655 0
M  V30 6860 H 634.697 1.06776 -1.58969 0
M  V30 6861 H 633.002 3.66639 -1.38143 0
M  V30 6862 H 634.699 3.59968 -1.76704 0
M  V30 6863 H 631.289 2.99428 -3.06661 0
M  V30 6864 H 635.473 2.88152 -4.04082 0
M  V30 6865 H 630.729 2.77148 -5.44976 0
M  V30 6866 H 634.903 2.66993 -6.43185 0
M  V30 6867 H 632.53 2.61003 -7.1399 0
M  V30 6868 N 634.105 1.10431 1.1244 0
M  V30 6869 C 635.068 0.756542 2.16354 0
M  V30 6870 C 636.068 -0.21899 1.59302 0
M  V30 6871 O 637.258 0.00415969 1.742 0
M  V30 6872 C 634.39 0.120612 3.40687 0
M  V30 6873 H 635.583 1.67696 2.48632 0
M  V30 6874 H 633.136 0.904832 1.27446 0
M  V30 6875 H 633.871 -0.810536 3.14008 0
M  V30 6876 H 633.656 0.822693 3.83372 0
M  V30 6877 H 635.146 -0.106945 4.17463 0
M  V30 6878 N 635.583 -1.29855 0.893053 0
M  V30 6879 C 636.533 -2.25493 0.337211 0
M  V30 6880 C 637.517 -1.51606 -0.53894 0
M  V30 6881 O 638.709 -1.72828 -0.382043 0
M  V30 6882 C 635.838 -3.40467 -0.440117 0
M  V30 6883 C 634.924 -4.217 0.450578 0
M  V30 6884 N 635.315 -4.81312 1.55476 0
M  V30 6885 C 633.613 -4.45315 0.247154 0
M  V30 6886 C 634.314 -5.42241 2.10593 0
M  V30 6887 N 633.29 -5.25267 1.39982 0
M  V30 6888 H 637.092 -2.69137 1.18079 0
M  V30 6889 H 634.606 -1.44388 0.743359 0
M  V30 6890 H 636.603 -4.08038 -0.855021 0
M  V30 6891 H 635.263 -2.98361 -1.28104 0
M  V30 6892 H 636.274 -4.80291 1.93755 0
M  V30 6893 H 632.951 -4.13782 -0.555939 0
M  V30 6894 H 634.341 -5.99517 3.03362 0
M  V30 6895 N 637.061 -0.65484 -1.43351 0
M  V30 6896 C 637.991 0.0221809 -2.33489 0
M  V30 6897 C 638.972 0.810272 -1.49561 0
M  V30 6898 O 640.157 0.771426 -1.78221 0
M  V30 6899 C 637.287 0.988117 -3.32947 0
M  V30 6900 C 636.241 0.310026 -4.26876 0
M  V30 6901 C 635.567 1.38752 -5.16384 0
M  V30 6902 C 636.867 -0.798589 -5.16159 0
M  V30 6903 H 638.561 -0.730571 -2.9035 0
M  V30 6904 H 636.107 -0.352773 -1.39612 0
M  V30 6905 H 638.06 1.47067 -3.94904 0
M  V30 6906 H 636.784 1.77205 -2.74346 0
M  V30 6907 H 635.443 -0.152097 -3.66284 0
M  V30 6908 H 635.091 2.16293 -4.54121 0
M  V30 6909 H 634.791 0.939051 -5.80048 0
M  V30 6910 H 636.315 1.87141 -5.81215 0
M  V30 6911 H 637.729 -0.398126 -5.71916 0
M  V30 6912 H 636.126 -1.17163 -5.88552 0
M  V30 6913 H 637.196 -1.65588 -4.55751 0
M  V30 6914 N 638.539 1.52521 -0.396863 0
M  V30 6915 C 639.502 2.2527 0.422604 0
M  V30 6916 C 640.502 1.27184 0.983913 0
M  V30 6917 O 641.692 1.51222 0.864723 0
M  V30 6918 C 638.824 3.01356 1.59365 0
M  V30 6919 H 640.017 2.99133 -0.214416 0
M  V30 6920 H 637.57 1.55587 -0.149128 0
M  V30 6921 H 638.305 2.31813 2.26789 0
M  V30 6922 H 638.09 3.73357 1.19779 0
M  V30 6923 H 639.58 3.56571 2.17363 0
M  V30 6924 N 640.017 0.126909 1.57088 0
M  V30 6925 C 641.265 -0.528123 1.95078 0
M  V30 6926 C 641.586 -1.66708 1.0116 0
M  V30 6927 O 640.856 -1.95777 0.0693527 0
M  V30 6928 H 639.436 -0.198087 0.720257 0
M  V30 6929 H 642.098 0.197703 1.93895 0
M  V30 6930 H 641.194 -0.917507 2.98309 0
M  V30 6931 N 641.495 -1.56914 -0.146875 0
M  V30 6932 C 642.425 -2.01308 -1.1831 0
M  V30 6933 C 643.406 -0.892664 -1.44795 0
M  V30 6934 O 644.591 -1.16048 -1.55713 0
M  V30 6935 C 641.721 -2.3938 -2.51624 0
M  V30 6936 C 640.675 -3.54608 -2.3966 0
M  V30 6937 C 640.001 -3.78493 -3.77686 0
M  V30 6938 C 641.301 -4.87269 -1.88058 0
M  V30 6939 H 642.995 -2.88123 -0.813964 0
M  V30 6940 H 640.541 -1.38615 -0.3901 0
M  V30 6941 H 642.494 -2.69037 -3.24341 0
M  V30 6942 H 641.218 -1.49502 -2.90373 0
M  V30 6943 H 639.877 -3.25116 -1.69396 0
M  V30 6944 H 639.525 -2.85866 -4.13871 0
M  V30 6945 H 639.225 -4.56039 -3.70543 0
M  V30 6946 H 640.749 -4.10576 -4.51951 0
M  V30 6947 H 642.163 -5.15644 -2.50568 0
M  V30 6948 H 640.56 -5.68622 -1.91805 0
M  V30 6949 H 641.63 -4.77634 -0.836277 0
M  V30 6950 N 642.974 0.416227 -1.52004 0
M  V30 6951 C 644.251 1.17637 -1.56272 0
M  V30 6952 C 644.631 2.08352 -0.339493 0
M  V30 6953 O 643.979 2.1833 0.674124 0
M  V30 6954 C 644.189 1.95986 -2.88774 0
M  V30 6955 C 645.537 2.52299 -3.41512 0
M  V30 6956 O 646.561 2.06174 -2.90467 0
M  V30 6957 O 645.42 3.3648 -4.30631 0
M  V30 6958 H 642.514 0.536726 -0.629169 0
M  V30 6959 H 645.06 0.423583 -1.64329 0
M  V30 6960 H 643.832 1.29487 -3.69254 0
M  V30 6961 H 643.455 2.78285 -2.83978 0
M  V30 6962 N 644.452 1.42507 0.673017 0
M  V30 6963 C 645.399 1.46124 1.78651 0
M  V30 6964 C 646.369 0.313007 1.63124 0
M  V30 6965 O 647.554 0.517337 1.83653 0
M  V30 6966 C 644.694 1.3711 3.16694 0
M  V30 6967 C 643.807 2.61983 3.43495 0
M  V30 6968 C 642.942 2.45098 4.71275 0
M  V30 6969 C 641.981 3.65336 4.91117 0
M  V30 6970 N 641.118 3.47383 6.10139 0
M  V30 6971 H 645.958 2.4128 1.74895 0
M  V30 6972 H 643.495 1.19788 0.853766 0
M  V30 6973 H 645.453 1.29881 3.96468 0
M  V30 6974 H 644.083 0.45549 3.1957 0
M  V30 6975 H 643.135 2.79571 2.57961 0
M  V30 6976 H 644.447 3.51355 3.5405 0
M  V30 6977 H 643.601 2.35466 5.59143 0
M  V30 6978 H 642.34 1.53219 4.63007 0
M  V30 6979 H 641.345 3.754 4.0169 0
M  V30 6980 H 642.57 4.58199 5.01229 0
M  V30 6981 H 640.516 2.58222 6.0304 0
M  V30 6982 H 640.433 4.30344 6.21563 0
M  V30 6983 H 641.701 3.41565 7.00681 0
M  V30 6984 N 645.93 -0.909495 1.28709 0
M  V30 6985 C 646.863 -2.01388 1.07323 0
M  V30 6986 C 647.841 -1.62596 -0.0119757 0
M  V30 6987 O 649.025 -1.88003 0.136796 0
M  V30 6988 C 646.152 -3.32755 0.631797 0
M  V30 6989 C 645.198 -3.90532 1.71428 0
M  V30 6990 S 646.031 -4.20853 3.31124 0
M  V30 6991 C 647.187 -5.55276 2.88825 0
M  V30 6992 H 647.42 -2.19219 2.00824 0
M  V30 6993 H 644.953 -1.05489 1.12745 0
M  V30 6994 H 646.911 -4.08702 0.38381 0
M  V30 6995 H 645.572 -3.12818 -0.283451 0
M  V30 6996 H 644.765 -4.85385 1.35712 0
M  V30 6997 H 644.367 -3.21237 1.91528 0
M  V30 6998 H 646.659 -6.35341 2.3526 0
M  V30 6999 H 647.602 -5.95907 3.82492 0
M  V30 7000 H 648.01 -5.16666 2.27412 0
M  V30 7001 N 647.408 -1.11026 -1.11852 0
M  V30 7002 C 648.633 -0.879064 -1.87849 0
M  V30 7003 C 649.058 0.565406 -1.79401 0
M  V30 7004 O 648.416 1.39886 -1.15333 0
M  V30 7005 C 648.464 -1.33985 -3.34784 0
M  V30 7006 O 647.568 -0.508803 -4.09249 0
M  V30 7007 H 646.909 -0.316992 -0.583448 0
M  V30 7008 H 649.439 -1.47863 -1.41413 0
M  V30 7009 H 649.449 -1.33248 -3.85628 0
M  V30 7010 H 648.124 -2.39172 -3.40249 0
M  V30 7011 H 646.701 -0.581913 -3.68332 0
M  V30 7012 N 648.886 1.2938 -0.899927 0
M  V30 7013 C 649.833 2.27713 -0.376243 0
M  V30 7014 C 650.803 1.57016 0.541774 0
M  V30 7015 O 651.988 1.84997 0.466966 0
M  V30 7016 C 649.128 3.42889 0.39 0
M  V30 7017 C 648.241 4.28369 -0.558938 0
M  V30 7018 C 647.376 5.30726 0.224379 0
M  V30 7019 C 646.415 6.07862 -0.719068 0
M  V30 7020 N 645.552 7.02094 0.0298569 0
M  V30 7021 H 650.392 2.71888 -1.21988 0
M  V30 7022 H 647.929 1.33724 -0.612879 0
M  V30 7023 H 649.887 4.08443 0.850314 0
M  V30 7024 H 648.517 2.99743 1.19809 0
M  V30 7025 H 647.569 3.62986 -1.13777 0
M  V30 7026 H 648.881 4.82068 -1.2811 0
M  V30 7027 H 648.035 6.02098 0.745881 0
M  V30 7028 H 646.774 4.77759 0.979674 0
M  V30 7029 H 645.779 5.35353 -1.25207 0
M  V30 7030 H 647.004 6.62917 -1.4737 0
M  V30 7031 H 644.95 6.51496 0.767415 0
M  V30 7032 H 644.867 7.5335 -0.632391 0
M  V30 7033 H 646.135 7.77685 0.531615 0
M  V30 7034 N 650.364 0.662433 1.43002 0
M  V30 7035 C 651.612 0.179237 2.01304 0
M  V30 7036 C 651.933 -1.21428 1.52579 0
M  V30 7037 O 651.203 -1.81294 0.742252 0
M  V30 7038 H 649.783 0.0632725 0.744316 0
M  V30 7039 H 652.445 0.856169 1.75088 0
M  V30 7040 H 651.541 0.170957 3.11631 0
M  V30 7041 N 651.842 -1.52309 0.404946 0
M  V30 7042 C 652.792 -2.23717 -0.439864 0
M  V30 7043 C 653.776 -1.24692 -1.0169 0
M  V30 7044 O 654.968 -1.49951 -0.940409 0
M  V30 7045 C 652.097 -3.05898 -1.55825 0
M  V30 7046 C 651.183 -4.12331 -0.992188 0
M  V30 7047 N 651.574 -5.0557 -0.152424 0
M  V30 7048 C 649.872 -4.2774 -1.26312 0
M  V30 7049 C 650.573 -5.81474 0.162041 0
M  V30 7050 N 649.549 -5.41767 -0.44601 0
M  V30 7051 H 653.351 -2.93162 0.208084 0
M  V30 7052 H 650.865 -1.60969 0.215131 0
M  V30 7053 H 652.862 -3.55605 -2.17603 0
M  V30 7054 H 651.522 -2.37991 -2.20886 0
M  V30 7055 H 652.533 -5.17468 0.211556 0
M  V30 7056 H 649.21 -3.71062 -1.91362 0
M  V30 7057 H 650.6 -6.66585 0.843423 0
M  V30 7058 N 653.32 -0.135238 -1.57019 0
M  V30 7059 C 654.253 0.846618 -2.11914 0
M  V30 7060 C 655.231 1.25019 -1.03966 0
M  V30 7061 O 656.415 1.34838 -1.31723 0
M  V30 7062 C 653.542 2.1352 -2.6292 0
M  V30 7063 C 652.588 1.87846 -3.82905 0
M  V30 7064 S 653.421 1.08005 -5.24495 0
M  V30 7065 C 654.577 2.38008 -5.78881 0
M  V30 7066 H 654.81 0.379752 -2.94865 0
M  V30 7067 H 652.343 0.0788387 -1.54199 0
M  V30 7068 H 654.301 2.87551 -2.92958 0
M  V30 7069 H 652.962 2.57323 -1.80121 0
M  V30 7070 H 652.155 2.83365 -4.16797 0
M  V30 7071 H 651.757 1.21929 -3.53567 0
M  V30 7072 H 654.049 3.33742 -5.89595 0
M  V30 7073 H 654.992 2.08638 -6.76665 0
M  V30 7074 H 655.4 2.48119 -5.07048 0
M  V30 7075 N 654.798 1.5699 0.138552 0
M  V30 7076 C 655.728 2.01933 1.17241 0
M  V30 7077 C 656.709 0.90033 1.44319 0
M  V30 7078 O 657.894 1.16872 1.55095 0
M  V30 7079 C 655.024 2.40711 2.50351 0
M  V30 7080 C 653.978 3.55874 2.37776 0
M  V30 7081 C 653.304 3.80491 3.75674 0
M  V30 7082 C 654.604 4.8826 1.85472 0
M  V30 7083 H 656.298 2.88551 0.798672 0
M  V30 7084 H 653.844 1.3882 0.382743 0
M  V30 7085 H 655.797 2.70754 3.22909 0
M  V30 7086 H 654.521 1.5104 2.89576 0
M  V30 7087 H 653.18 3.2601 1.67669 0
M  V30 7088 H 652.828 2.88057 4.12349 0
M  V30 7089 H 652.528 4.57998 3.68119 0
M  V30 7090 H 654.052 4.12967 4.49767 0
M  V30 7091 H 655.466 5.16965 2.4783 0
M  V30 7092 H 653.863 5.69631 1.88787 0
M  V30 7093 H 654.933 4.78071 0.810935 0
M  V30 7094 N 656.276 -0.40816 1.52223 0
M  V30 7095 C 657.239 -1.48 1.7501 0
M  V30 7096 C 658.239 -1.48367 0.619996 0
M  V30 7097 O 659.429 -1.49874 0.887881 0
M  V30 7098 C 656.561 -2.87403 1.83336 0
M  V30 7099 H 657.754 -1.29086 2.70697 0
M  V30 7100 H 655.307 -0.638715 1.42654 0
M  V30 7101 H 656.042 -3.11686 0.895677 0
M  V30 7102 H 655.827 -2.8854 2.65494 0
M  V30 7103 H 657.317 -3.65103 2.02705 0
M  V30 7104 N 657.755 -1.42862 -0.66545 0
M  V30 7105 C 659.032 -1.3431 -1.42197 0
M  V30 7106 C 659.412 0.0150265 -2.11095 0
M  V30 7107 O 658.76 1.03101 -2.03918 0
M  V30 7108 C 658.97 -2.51783 -2.41674 0
M  V30 7109 C 660.318 -2.94321 -3.0604 0
M  V30 7110 O 661.342 -2.51741 -2.52001 0
M  V30 7111 O 660.201 -3.68047 -4.03985 0
M  V30 7112 H 657.295 -0.530159 -0.634713 0
M  V30 7113 H 659.841 -1.54888 -0.693386 0
M  V30 7114 H 658.613 -3.42282 -1.89627 0
M  V30 7115 H 658.236 -2.33241 -3.22001 0
M  V30 7116 N 659.233 0.902656 -1.29189 0
M  V30 7117 C 660.479 1.65532 -1.17163 0
M  V30 7118 C 660.812 1.92216 0.276879 0
M  V30 7119 O 660.087 1.53048 1.20027 0
M  V30 7120 C 660.37 3.00629 -1.98228 0
M  V30 7121 C 660.223 2.81029 -3.51202 0
M  V30 7122 C 661.542 4.01321 -1.80635 0
M  V30 7123 H 658.661 0.60071 -0.426985 0
M  V30 7124 H 661.303 1.04578 -1.5863 0
M  V30 7125 H 659.453 3.52656 -1.62991 0
M  V30 7126 H 661.125 2.35927 -3.96404 0
M  V30 7127 H 659.368 2.1587 -3.76275 0
M  V30 7128 H 660.039 3.77014 -4.03192 0
M  V30 7129 H 662.515 3.58394 -2.11406 0
M  V30 7130 H 661.391 4.93792 -2.3971 0
M  V30 7131 H 661.652 4.35505 -0.760754 0
M  V30 7132 N 660.711 1.11618 1.11262 0
M  V30 7133 C 661.957 0.867463 1.83311 0
M  V30 7134 C 662.29 -0.605366 1.84524 0
M  V30 7135 O 661.565 -1.44704 1.29965 0
M  V30 7136 C 661.848 1.43207 3.30399 0
M  V30 7137 C 661.701 2.97265 3.3757 0
M  V30 7138 C 663.02 1.08454 4.26528 0
M  V30 7139 H 660.139 0.316578 0.665543 0
M  V30 7140 H 662.781 1.38137 1.30454 0
M  V30 7141 H 660.931 0.994982 3.75543 0
M  V30 7142 H 662.603 3.49591 3.00971 0
M  V30 7143 H 660.846 3.33237 2.77733 0
M  V30 7144 H 661.517 3.31859 4.41105 0
M  V30 7145 H 663.993 1.4619 3.89574 0
M  V30 7146 H 662.869 1.50633 5.27826 0
M  V30 7147 H 663.13 -0.00444568 4.421 0
M  V30 7148 N 662.189 -1.289 0.906776 0
M  V30 7149 C 663.152 -2.25777 0.394656 0
M  V30 7150 C 664.152 -1.53621 -0.475119 0
M  V30 7151 O 665.342 -1.71949 -0.279165 0
M  V30 7152 C 662.474 -3.38113 -0.43499 0
M  V30 7153 H 663.667 -2.72592 1.25033 0
M  V30 7154 H 661.22 -1.40463 0.685547 0
M  V30 7155 H 661.955 -2.96648 -1.31036 0
M  V30 7156 H 661.74 -3.91647 0.188334 0
M  V30 7157 H 663.23 -4.10168 -0.784365 0
M  V30 7158 N 663.667 -0.670007 -1.42649 0
M  V30 7159 C 664.916 -0.187526 -2.00826 0
M  V30 7160 C 665.229 1.21142 -1.53571 0
M  V30 7161 O 666.435 1.79001 -2.04134 0
M  V30 7162 C 664.891 -0.284409 -3.58774 0
M  V30 7163 C 664.499 -1.6871 -4.15019 0
M  V30 7164 C 666.243 0.139605 -4.2427 0
M  V30 7165 C 664.15 -1.73701 -5.65316 0
M  V30 7166 H 663.08 -0.0663468 -0.751075 0
M  V30 7167 H 665.731 -0.834492 -1.63427 0
M  V30 7168 H 664.113 0.430364 -3.93655 0
M  V30 7169 H 665.287 -2.42857 -3.91608 0
M  V30 7170 H 663.602 -2.05855 -3.61957 0
M  V30 7171 H 666.199 0.122398 -5.3456 0
M  V30 7172 H 666.542 1.17403 -3.99402 0
M  V30 7173 H 667.075 -0.523995 -3.94334 0
M  V30 7174 H 663.814 -2.75109 -5.94975 0
M  V30 7175 H 663.334 -1.03903 -5.90732 0
M  V30 7176 H 665.013 -1.48829 -6.2965 0
M  V30 7177 N 665.145 1.52092 -0.413018 0
M  V30 7178 C 666.394 2.01041 0.16287 0
M  V30 7179 C 666.707 1.30288 1.45892 0
M  V30 7180 O 667.913 1.70075 2.11629 0
M  V30 7181 C 666.369 3.58283 0.340806 0
M  V30 7182 C 665.977 4.37955 -0.943377 0
M  V30 7183 C 667.721 4.15452 0.871774 0
M  V30 7184 C 665.628 5.86847 -0.732417 0
M  V30 7185 H 664.558 0.751224 0.0646414 0
M  V30 7186 H 667.209 1.75404 -0.539059 0
M  V30 7187 H 665.591 3.80266 1.10516 0
M  V30 7188 H 666.765 4.2773 -1.71418 0
M  V30 7189 H 665.08 3.92122 -1.40105 0
M  V30 7190 H 667.677 5.24375 1.0457 0
M  V30 7191 H 668.02 3.73057 1.84755 0
M  V30 7192 H 668.553 3.97452 0.166377 0
M  V30 7193 H 665.292 6.33609 -1.67986 0
M  V30 7194 H 664.812 5.998 -0.000980058 0
M  V30 7195 H 666.491 6.45906 -0.376105 0
M  V30 7196 N 666.623 0.143563 1.56945 0
M  V30 7197 C 667.871 -0.507402 1.95627 0
M  V30 7198 C 668.192 -1.65626 1.02922 0
M  V30 7199 O 667.462 -1.95693 0.0901136 0
M  V30 7200 H 666.042 -0.190436 0.722318 0
M  V30 7201 H 668.704 0.218257 1.93674 0
M  V30 7202 H 667.8 -0.885816 2.99265 0
M  V30 7203 N 668.101 -1.57061 -0.130224 0
M  V30 7204 C 669.329 -1.88432 -0.854456 0
M  V30 7205 C 669.744 -0.733608 -1.73964 0
M  V30 7206 O 669.101 0.296029 -1.80083 0
M  V30 7207 C 669.152 -3.1918 -1.69724 0
M  V30 7208 O 668.873 -4.2982 -0.847705 0
M  V30 7209 C 670.374 -3.6418 -2.5276 0
M  V30 7210 H 667.594 -0.624193 -0.246221 0
M  V30 7211 H 670.138 -2.04159 -0.11798 0
M  V30 7212 H 668.293 -3.05156 -2.3866 0
M  V30 7213 H 668.707 -5.04689 -1.42792 0
M  V30 7214 H 670.181 -4.58457 -3.07443 0
M  V30 7215 H 670.658 -2.90285 -3.29592 0
M  V30 7216 H 671.264 -3.80954 -1.89087 0
M  V30 7217 N 669.579 0.400081 -1.52437 0
M  V30 7218 C 670.511 1.50729 -1.72666 0
M  V30 7219 C 671.524 1.51058 -0.607075 0
M  V30 7220 O 672.713 1.5516 -0.88248 0
M  V30 7221 C 669.813 2.89604 -1.76019 0
M  V30 7222 C 668.986 3.13365 -3.05157 0
M  V30 7223 C 668.045 4.32163 -3.00203 0
M  V30 7224 O 667.071 4.29004 -3.74092 0
M  V30 7225 N 668.273 5.3776 -2.18619 0
M  V30 7226 H 671.038 1.33767 -2.68191 0
M  V30 7227 H 668.599 0.58948 -1.50787 0
M  V30 7228 H 670.591 3.67159 -1.70225 0
M  V30 7229 H 669.161 2.99979 -0.879284 0
M  V30 7230 H 668.381 2.23774 -3.24529 0
M  V30 7231 H 669.669 3.26089 -3.90568 0
M  V30 7232 H 669.067 5.43177 -1.58035 0
M  V30 7233 H 667.624 6.14023 -2.18674 0
M  V30 7234 N 671.057 1.43213 0.657864 0
M  V30 7235 C 672.334 1.35063 1.41483 0
M  V30 7236 C 672.714 -0.0038314 2.111 0
M  V30 7237 O 672.062 -1.02018 2.04462 0
M  V30 7238 C 672.272 2.53061 2.40335 0
M  V30 7239 C 673.62 2.9594 3.04474 0
M  V30 7240 O 674.644 2.53074 2.50663 0
M  V30 7241 O 673.503 3.70184 4.02027 0
M  V30 7242 H 670.597 0.533517 0.631893 0
M  V30 7243 H 673.143 1.55253 0.685162 0
M  V30 7244 H 671.915 3.43283 1.87809 0
M  V30 7245 H 671.538 2.34945 3.20759 0
M  V30 7246 N 672.536 -0.895792 1.29666 0
M  V30 7247 C 673.785 -1.64131 1.17234 0
M  V30 7248 C 674.098 -1.93665 -0.274416 0
M  V30 7249 O 675.304 -2.66472 -0.520105 0
M  V30 7250 C 673.76 -2.95764 2.05065 0
M  V30 7251 C 673.368 -2.7381 3.54587 0
M  V30 7252 C 675.112 -3.737 2.01367 0
M  V30 7253 C 673.019 -4.01194 4.34508 0
M  V30 7254 H 671.949 -0.615742 0.435175 0
M  V30 7255 H 674.6 -0.992626 1.54335 0
M  V30 7256 H 672.982 -3.61867 1.60837 0
M  V30 7257 H 674.156 -2.16277 4.06892 0
M  V30 7258 H 672.471 -2.09265 3.59996 0
M  V30 7259 H 675.068 -4.68152 2.58337 0
M  V30 7260 H 675.411 -4.04245 0.994575 0
M  V30 7261 H 675.944 -3.14444 2.43659 0
M  V30 7262 H 672.683 -3.75813 5.37071 0
M  V30 7263 H 672.203 -4.58272 3.86971 0
M  V30 7264 H 673.882 -4.69307 4.45376 0
M  V30 7265 N 674.014 -1.12206 -1.10668 0
M  V30 7266 C 675.26 -0.877172 -1.82848 0
M  V30 7267 C 675.593 0.595571 -1.84842 0
M  V30 7268 O 674.868 1.44013 -1.30731 0
M  V30 7269 C 675.151 -1.44957 -3.29635 0
M  V30 7270 C 675.004 -2.99051 -3.35989 0
M  V30 7271 C 676.323 -1.10714 -4.25946 0
M  V30 7272 H 673.442 -0.320103 -0.663854 0
M  V30 7273 H 676.084 -1.38827 -1.2972 0
M  V30 7274 H 674.234 -1.01488 -3.7501 0
M  V30 7275 H 675.906 -3.51182 -2.99113 0
M  V30 7276 H 674.149 -3.34705 -2.75962 0
M  V30 7277 H 674.82 -3.34194 -4.39339 0
M  V30 7278 H 677.296 -1.48254 -3.88793 0
M  V30 7279 H 676.172 -1.5343 -5.2702 0
M  V30 7280 H 676.433 -0.019 -4.42096 0
M  V30 7281 N 675.492 1.28418 -0.913599 0
M  V30 7282 C 676.739 1.94981 -0.546674 0
M  V30 7283 C 677.067 1.7192 0.909606 0
M  V30 7284 O 676.322 1.03314 1.66207 0
M  V30 7285 C 676.621 3.48283 -0.802099 0
M  V30 7286 C 676.287 3.91444 -2.2379 0
M  V30 7287 C 674.949 4.02939 -2.63046 0
M  V30 7288 C 677.301 4.13542 -3.17227 0
M  V30 7289 C 674.629 4.3391 -3.94891 0
M  V30 7290 C 676.981 4.45992 -4.48636 0
M  V30 7291 C 675.645 4.55698 -4.87746 0
M  V30 7292 H 674.915 0.713487 -0.200042 0
M  V30 7293 H 677.562 1.52756 -1.15489 0
M  V30 7294 H 675.867 3.91643 -0.111076 0
M  V30 7295 H 677.564 3.97903 -0.497375 0
M  V30 7296 H 674.154 3.83024 -1.9233 0
M  V30 7297 H 678.338 4.04114 -2.88107 0
M  V30 7298 H 673.594 4.39631 -4.24894 0
M  V30 7299 H 677.768 4.62038 -5.21051 0
M  V30 7300 H 675.395 4.79451 -5.89942 0
M  V30 7301 N 676.97 0.677563 1.42291 0
M  V30 7302 C 678.218 0.200578 2.01102 0
M  V30 7303 C 678.539 -1.19803 1.53858 0
M  V30 7304 O 677.809 -1.80496 0.761439 0
M  V30 7305 H 676.389 0.0711634 0.743603 0
M  V30 7306 H 679.051 0.874691 1.7417 0
M  V30 7307 H 678.147 0.204 3.11433 0
M  V30 7308 N 678.448 -1.51871 0.421078 0
M  V30 7309 C 679.358 -2.31077 -0.405069 0
M  V30 7310 C 680.374 -1.39301 -1.04265 0
M  V30 7311 O 681.55 -1.72376 -1.04157 0
M  V30 7312 C 678.615 -3.12556 -1.50032 0
M  V30 7313 C 677.676 -4.20088 -0.884559 0
M  V30 7314 C 676.909 -4.97673 -1.92762 0
M  V30 7315 O 677.132 -4.75696 -3.14753 0
M  V30 7316 O 676.066 -5.82203 -1.52719 0
M  V30 7317 H 679.892 -3.02742 0.241086 0
M  V30 7318 H 677.477 -1.48263 0.183991 0
M  V30 7319 H 679.359 -3.6326 -2.13589 0
M  V30 7320 H 678.034 -2.43672 -2.13086 0
M  V30 7321 H 676.941 -3.73502 -0.211379 0
M  V30 7322 H 678.274 -4.91298 -0.297763 0
M  V30 7323 N 679.926 -0.151884 -1.56866 0
M  V30 7324 C 681.172 0.498742 -1.96572 0
M  V30 7325 C 681.505 1.64194 -1.03702 0
M  V30 7326 O 680.78 1.94334 -0.0803432 0
M  V30 7327 C 681.063 1.00027 -3.45929 0
M  V30 7328 C 680.916 -0.141767 -4.49577 0
M  V30 7329 C 682.235 1.88044 -3.97904 0
M  V30 7330 H 679.354 0.17982 -0.714726 0
M  V30 7331 H 681.996 -0.234097 -1.88552 0
M  V30 7332 H 680.146 1.62476 -3.52894 0
M  V30 7333 H 681.818 -0.778269 -4.54687 0
M  V30 7334 H 680.061 -0.80019 -4.26356 0
M  V30 7335 H 680.732 0.250947 -5.51429 0
M  V30 7336 H 683.208 1.35416 -3.93449 0
M  V30 7337 H 682.084 2.20043 -5.02864 0
M  V30 7338 H 682.345 2.81916 -3.40552 0
M  V30 7339 N 681.404 1.57128 0.121893 0
M  V30 7340 C 682.681 1.75664 0.860327 0
M  V30 7341 C 683.061 0.726585 1.98202 0
M  V30 7342 O 682.409 -0.24999 2.27128 0
M  V30 7343 C 682.619 3.20571 1.37968 0
M  V30 7344 C 683.967 3.82988 1.83317 0
M  V30 7345 O 684.991 3.24156 1.47654 0
M  V30 7346 O 683.85 4.86393 2.49168 0
M  V30 7347 H 680.944 0.719153 0.408348 0
M  V30 7348 H 683.49 1.6937 0.105859 0
M  V30 7349 H 682.262 3.87056 0.57477 0
M  V30 7350 H 681.885 3.31392 2.19694 0
M  V30 7351 N 682.882 -0.391992 1.52647 0
M  V30 7352 C 684.298 -0.731848 1.41831 0
M  V30 7353 C 684.498 -1.9423 0.536361 0
M  V30 7354 O 683.554 -2.52499 0.00866571 0
M  V30 7355 C 684.867 -0.969743 2.84634 0
M  V30 7356 C 686.415 -1.0714 2.94092 0
M  V30 7357 C 686.89 -1.34195 4.37899 0
M  V30 7358 N 688.381 -1.41023 4.41211 0
M  V30 7359 C 689.116 -1.63616 5.49561 0
M  V30 7360 N 688.612 -1.83699 6.68002 0
M  V30 7361 N 690.405 -1.65771 5.371 0
M  V30 7362 H 682.556 0.404547 2.08512 0
M  V30 7363 H 684.819 0.11879 0.940528 0
M  V30 7364 H 684.525 -0.152465 3.51369 0
M  V30 7365 H 684.399 -1.88523 3.26709 0
M  V30 7366 H 686.786 -1.87925 2.27526 0
M  V30 7367 H 686.867 -0.133887 2.55449 0
M  V30 7368 H 686.511 -0.539207 5.0503 0
M  V30 7369 H 686.441 -2.29226 4.74092 0
M  V30 7370 H 688.932 -1.27223 3.55841 0
M  V30 7371 H 689.245 -2.00437 7.46354 0
M  V30 7372 H 687.59 -1.8093 6.71036 0
M  V30 7373 H 690.781 -1.4963 4.43541 0
M  V30 7374 H 690.954 -1.83038 6.21612 0
M  V30 7375 O 684.399 -1.52278 -0.537924 0
M  V30 7376 H 685.09 -1.52597 -1.19306 0
M  V30 END ATOM
M  V30 BEGIN BOND
M  V30 END BOND
M  V30 END CTAB
M  END
$$$$
