drugbank_target|O75340 Programmed cell death protein 6 (DB01373; DB01593; DB11093; DB11348; DB14481; DB14487)
 OpenBabel12092121033D

  0  0  0     0  0            999 V3000
M  V30 BEGIN CTAB
M  V30 COUNTS 3024 3063 0 0 0
M  V30 BEGIN ATOM
M  V30 1 H -0.908 1.98254 -0.117106 0
M  V30 2 N 0 1.576 0 0
M  V30 3 C 0.933 2.03868 1.02534 0
M  V30 4 C 1.911 0.928543 1.3348 0
M  V30 5 O 3.095 1.19667 1.45644 0
M  V30 6 C 0.222 2.43627 2.35294 0
M  V30 7 C -0.732 3.65373 2.2001 0
M  V30 8 S 0.101 5.13292 1.52614 0
M  V30 9 C 1.257 5.56322 2.86805 0
M  V30 10 H 1.49 2.90518 0.631377 0
M  V30 11 H -0.977 1.52953 0.210867 0
M  V30 12 H 0.981 2.67203 3.11629 0
M  V30 13 H -0.358 1.57376 2.7183 0
M  V30 14 H -1.165 3.90944 3.18086 0
M  V30 15 H -1.563 3.418 1.51819 0
M  V30 16 H 0.729 5.58782 3.83104 0
M  V30 17 H 1.672 6.56266 2.65933 0
M  V30 18 H 2.08 4.83886 2.90714 0
M  V30 19 N 1.4781 -0.272755 1.55222 0
M  V30 20 C 2.4411 -1.32041 1.87344 0
M  V30 21 C 3.4411 -1.42342 0.74803 0
M  V30 22 O 4.6311 -1.41488 1.0162 0
M  V30 23 C 1.7631 -2.70173 2.07893 0
M  V30 24 H 2.9561 -1.04789 2.80997 0
M  V30 25 H 0.5091 -0.51083 1.47717 0
M  V30 26 H 1.2441 -3.02605 1.16622 0
M  V30 27 H 1.0291 -2.64082 2.89833 0
M  V30 28 H 2.5191 -3.45869 2.34017 0
M  V30 29 N 2.9562 -1.48159 -0.537278 0
M  V30 30 C 3.9192 -1.61665 -1.62472 0
M  V30 31 C 4.9192 -0.490395 -1.5314 0
M  V30 32 O 6.1092 -0.755998 -1.5694 0
M  V30 33 C 3.2412 -1.57997 -3.02076 0
M  V30 34 H 4.4342 -2.58621 -1.51839 0
M  V30 35 H 1.9872 -1.36647 -0.758771 0
M  V30 36 H 2.7222 -0.624913 -3.18222 0
M  V30 37 H 2.5072 -2.39755 -3.10258 0
M  V30 38 H 3.9972 -1.70627 -3.81151 0
M  V30 39 N 4.4343 0.785586 -1.36625 0
M  V30 40 C 5.6643 1.5722 -1.34036 0
M  V30 41 C 6.0723 1.89033 0.0795062 0
M  V30 42 O 5.4153 1.50881 1.04789 0
M  V30 43 C 5.4773 2.91759 -2.10041 0
M  V30 44 C 5.1413 2.82654 -3.59104 0
M  V30 45 C 6.1383 2.54634 -4.53274 0
M  V30 46 C 3.8233 3.01111 -4.02042 0
M  V30 47 C 5.8173 2.45177 -5.88359 0
M  V30 48 C 3.5043 2.91276 -5.37216 0
M  V30 49 C 4.5023 2.63348 -6.30188 0
M  V30 50 O 4.1903 2.53514 -7.6288 0
M  V30 51 H 3.9223 0.494177 -0.461265 0
M  V30 52 H 6.4763 0.982632 -1.8037 0
M  V30 53 H 4.7063 3.52781 -1.58375 0
M  V30 54 H 6.3953 3.53059 -2.00261 0
M  V30 55 H 7.1613 2.40073 -4.21414 0
M  V30 56 H 3.0403 3.21854 -3.30047 0
M  V30 57 H 6.5843 2.23299 -6.60896 0
M  V30 58 H 2.4813 3.054 -5.68684 0
M  V30 59 H 3.2493 2.68967 -7.73045 0
M  V30 60 N 5.9124 1.20967 1.01018 0
M  V30 61 C 7.1374 1.0503 1.78839 0
M  V30 62 C 7.5624 -0.395752 1.8389 0
M  V30 63 O 6.9204 -1.28529 1.27867 0
M  V30 64 C 6.9684 1.64602 3.2084 0
M  V30 65 O 6.0724 0.887988 4.02726 0
M  V30 66 H 5.4134 0.369987 0.551367 0
M  V30 67 H 7.9434 1.60399 1.27018 0
M  V30 68 H 7.9534 1.68607 3.71532 0
M  V30 69 H 6.6284 2.69841 3.16479 0
M  V30 70 H 5.2054 0.922648 3.61305 0
M  V30 71 N 7.3905 -1.2043 1.01659 0
M  V30 72 C 8.6205 -1.93496 0.724081 0
M  V30 73 C 9.0285 -1.74998 -0.71918 0
M  V30 74 O 8.3715 -1.06118 -1.49949 0
M  V30 75 C 8.4335 -3.45886 0.97994 0
M  V30 76 C 8.0975 -3.88145 2.41232 0
M  V30 77 C 9.0945 -3.93907 3.39313 0
M  V30 78 C 6.7795 -4.20134 2.75305 0
M  V30 79 C 8.7735 -4.31069 4.6953 0
M  V30 80 C 6.4605 -4.56971 4.05735 0
M  V30 81 C 7.4585 -4.62411 5.02658 0
M  V30 82 O 7.1465 -4.98403 6.30754 0
M  V30 83 H 6.8785 -0.621824 0.265162 0
M  V30 84 H 9.4325 -1.53867 1.36066 0
M  V30 85 H 7.6625 -3.85639 0.286198 0
M  V30 86 H 9.3515 -4.0018 0.679021 0
M  V30 87 H 10.1175 -3.69357 3.14325 0
M  V30 88 H 5.9965 -4.1509 2.00551 0
M  V30 89 H 9.5405 -4.3523 5.45179 0
M  V30 90 H 5.4375 -4.80977 4.30502 0
M  V30 91 H 6.2055 -5.16395 6.35042 0
M  V30 92 N 8.8686 -0.792821 -1.36206 0
M  V30 93 C 10.2846 -0.474903 -1.52371 0
M  V30 94 C 10.4846 1.00622 -1.74578 0
M  V30 95 O 9.5406 1.79162 -1.77924 0
M  V30 96 C 10.8536 -1.3083 -2.70747 0
M  V30 97 C 12.4016 -1.30234 -2.84619 0
M  V30 98 C 12.8766 -2.11956 -4.06004 0
M  V30 99 N 14.3676 -2.09419 -4.13156 0
M  V30 100 C 15.1026 -2.69419 -5.06163 0
M  V30 101 N 14.5986 -3.3829 -6.04592 0
M  V30 102 N 16.3916 -2.59134 -4.98804 0
M  V30 103 H 8.5426 -1.75222 -1.20046 0
M  V30 104 H 10.8056 -0.745024 -0.586211 0
M  V30 105 H 10.5116 -2.35881 -2.6087 0
M  V30 106 H 10.3856 -0.95196 -3.6499 0
M  V30 107 H 12.7726 -0.259748 -2.93955 0
M  V30 108 H 12.8536 -1.69847 -1.91274 0
M  V30 109 H 12.4976 -3.16248 -3.97429 0
M  V30 110 H 12.4276 -1.69711 -4.98503 0
M  V30 111 H 14.9186 -1.59297 -3.42685 0
M  V30 112 H 15.2316 -3.81394 -6.7213 0
M  V30 113 H 13.5766 -3.42393 -6.04807 0
M  V30 114 H 16.7676 -2.04927 -4.20859 0
M  V30 115 H 16.9406 -3.06185 -5.711 0
M  V30 116 N 10.3467 1.47872 -0.545128 0
M  V30 117 C 11.7577 1.86384 -0.108581 0
M  V30 118 C 12.1087 1.45309 1.31832 0
M  V30 119 O 11.2337 0.850641 1.9898 0
M  V30 120 C 11.8287 3.38265 -0.190274 0
M  V30 121 C 10.3877 3.75914 0.191164 0
M  V30 122 C 9.5347 2.71926 -0.543273 0
M  V30 123 H 12.4857 1.39561 -0.755537 0
M  V30 124 H 12.5067 3.75831 0.594217 0
M  V30 125 H 12.0187 3.6813 -1.2289 0
M  V30 126 H 10.1197 3.51665 1.23136 0
M  V30 127 H 10.2327 4.78836 -0.158987 0
M  V30 128 H 8.5967 2.54697 0.0122495 0
M  V30 129 H 9.3797 3.04634 -1.58282 0
M  V30 130 N 11.8248 0.280983 1.55075 0
M  V30 131 C 13.0728 -0.333455 1.9933 0
M  V30 132 C 13.3938 -1.55937 1.17085 0
M  V30 133 O 12.6638 -1.94143 0.261805 0
M  V30 134 H 11.2438 -0.126197 0.736263 0
M  V30 135 H 13.9058 0.387678 1.91005 0
M  V30 136 H 13.0018 -0.619292 3.05894 0
M  V30 137 N 13.3029 -1.57598 0.00835791 0
M  V30 138 C 14.7139 -1.7892 -0.53333 0
M  V30 139 C 15.0649 -0.916609 -1.73473 0
M  V30 140 O 14.1899 -0.121336 -2.1606 0
M  V30 141 C 14.7849 -3.24488 -0.974313 0
M  V30 142 C 13.3439 -3.46878 -1.46125 0
M  V30 143 C 12.4909 -2.74157 -0.416302 0
M  V30 144 H 15.4419 -1.56958 0.234495 0
M  V30 145 H 15.4629 -3.3306 -1.83988 0
M  V30 146 H 14.9749 -3.87972 -0.099718 0
M  V30 147 H 13.0759 -2.8862 -2.35646 0
M  V30 148 H 13.1889 -4.55572 -1.48295 0
M  V30 149 H 11.5529 -2.39022 -0.87981 0
M  V30 150 H 12.3359 -3.40345 0.44947 0
M  V30 151 N 14.781 0.264519 -1.55364 0
M  V30 152 C 16.029 0.993021 -1.76021 0
M  V30 153 C 16.35 1.86511 -0.569099 0
M  V30 154 O 15.62 1.91438 0.415735 0
M  V30 155 H 14.2 0.369639 -0.649135 0
M  V30 156 H 16.862 0.286707 -1.9278 0
M  V30 157 H 15.958 1.62502 -2.66457 0
M  V30 158 N 16.2591 1.48442 0.529413 0
M  V30 159 C 17.2221 1.62524 1.61612 0
M  V30 160 C 18.2221 0.498509 1.52877 0
M  V30 161 O 19.4121 0.76431 1.56537 0
M  V30 162 C 16.5441 1.59597 3.01233 0
M  V30 163 H 17.7371 2.59423 1.50465 0
M  V30 164 H 15.2901 1.37047 0.751514 0
M  V30 165 H 16.0251 0.641781 3.17886 0
M  V30 166 H 15.8101 2.41397 3.08982 0
M  V30 167 H 17.3001 1.72646 3.80241 0
M  V30 168 N 17.7372 -0.778329 1.37039 0
M  V30 169 C 18.9852 -1.53361 1.31623 0
M  V30 170 C 19.3062 -1.94739 -0.100831 0
M  V30 171 O 18.5762 -1.65797 -1.04347 0
M  V30 172 H 17.1562 -0.568794 0.484234 0
M  V30 173 H 19.8182 -0.926742 1.71457 0
M  V30 174 H 18.9142 -2.43606 1.95096 0
M  V30 175 N 19.2153 -1.21501 -1.00376 0
M  V30 176 C 20.6263 -1.03146 -1.55621 0
M  V30 177 C 20.9773 0.408375 -1.91903 0
M  V30 178 O 20.1023 1.29177 -1.73616 0
M  V30 179 C 20.6973 -1.86612 -2.82775 0
M  V30 180 C 19.2563 -1.72586 -3.34501 0
M  V30 181 C 18.4033 -1.83747 -2.07683 0
M  V30 182 H 21.3543 -1.35505 -0.826081 0
M  V30 183 H 21.3753 -1.3771 -3.54706 0
M  V30 184 H 20.8873 -2.91399 -2.56336 0
M  V30 185 H 18.9883 -0.704877 -3.65872 0
M  V30 186 H 19.1013 -2.54623 -4.05837 0
M  V30 187 H 17.4653 -1.27069 -2.20739 0
M  V30 188 H 18.2483 -2.90044 -1.83655 0
M  V30 189 N 20.6934 1.19889 -1.02296 0
M  V30 190 C 21.9414 1.89046 -0.714558 0
M  V30 191 C 22.2624 1.79636 0.758681 0
M  V30 192 O 21.5324 1.20292 1.54618 0
M  V30 193 H 20.1124 0.699802 -0.261317 0
M  V30 194 H 22.7744 1.45574 -1.29592 0
M  V30 195 H 21.8704 2.95524 -1.0036 0
M  V30 196 N 22.1715 0.800033 1.35784 0
M  V30 197 C 23.5825 0.439142 1.81462 0
M  V30 198 C 23.9335 -1.03813 1.66485 0
M  V30 199 O 23.0585 -1.80626 1.19177 0
M  V30 200 C 23.6535 0.790314 3.29453 0
M  V30 201 C 22.2125 0.482111 3.733 0
M  V30 202 C 21.3595 1.01938 2.57883 0
M  V30 203 H 24.3105 0.992254 1.23855 0
M  V30 204 H 24.3315 0.0853677 3.80404 0
M  V30 205 H 23.8435 1.86554 3.40322 0
M  V30 206 H 21.9445 -0.584652 3.67984 0
M  V30 207 H 22.0575 1.01015 4.6833 0
M  V30 208 H 20.4215 0.442043 2.50835 0
M  V30 209 H 21.2045 2.10059 2.71533 0
M  V30 210 N 23.6496 -1.47581 0.552962 0
M  V30 211 C 24.6126 -2.28439 -0.186605 0
M  V30 212 C 25.6126 -1.36706 -0.84665 0
M  V30 213 O 26.8026 -1.59378 -0.703164 0
M  V30 214 C 23.9346 -3.16264 -1.2724 0
M  V30 215 H 25.1276 -2.95294 0.523609 0
M  V30 216 H 22.6806 -1.532 0.309745 0
M  V30 217 H 23.4156 -2.54091 -2.01514 0
M  V30 218 H 23.2006 -3.83769 -0.803968 0
M  V30 219 H 24.6906 -3.77198 -1.79196 0
M  V30 220 N 25.1277 -0.289203 -1.54924 0
M  V30 221 C 26.0907 0.579144 -2.21762 0
M  V30 222 C 27.0907 1.07047 -1.1999 0
M  V30 223 O 28.2807 0.968384 -1.44803 0
M  V30 224 C 25.4127 1.80055 -2.8947 0
M  V30 225 H 26.6057 -0.00464908 -2.999 0
M  V30 226 H 24.1587 -0.0399306 -1.56249 0
M  V30 227 H 24.8937 2.42449 -2.15381 0
M  V30 228 H 24.6787 1.45602 -3.64064 0
M  V30 229 H 26.1687 2.41773 -3.40493 0
M  V30 230 N 26.6058 1.57591 -0.0167156 0
M  V30 231 C 27.8538 1.90906 0.663285 0
M  V30 232 C 28.1748 0.892509 1.73376 0
M  V30 233 O 27.4448 -0.0677623 1.95783 0
M  V30 234 H 26.0248 0.704637 0.247983 0
M  V30 235 H 28.6868 1.94803 -0.0615909 0
M  V30 236 H 27.7828 2.9116 1.12393 0
M  V30 237 N 28.0839 -0.256276 1.55502 0
M  V30 238 C 29.0469 -1.30047 1.88734 0
M  V30 239 C 30.0469 -1.4154 0.763086 0
M  V30 240 O 31.2369 -1.40403 1.03115 0
M  V30 241 C 28.3689 -2.67953 2.10747 0
M  V30 242 H 29.5619 -1.01802 2.82093 0
M  V30 243 H 27.1149 -0.495134 1.4825 0
M  V30 244 H 27.8499 -3.01351 1.19825 0
M  V30 245 H 27.6349 -2.60993 2.92617 0
M  V30 246 H 29.1249 -3.43368 2.37673 0
M  V30 247 N 29.562 -1.4872 -0.521534 0
M  V30 248 C 30.525 -1.63379 -1.60748 0
M  V30 249 C 31.525 -0.50661 -1.52611 0
M  V30 250 O 32.715 -0.772601 -1.5613 0
M  V30 251 C 29.847 -1.61192 -3.00383 0
M  V30 252 H 31.04 -2.60217 -1.49087 0
M  V30 253 H 28.593 -1.37444 -0.744235 0
M  V30 254 H 29.328 -0.65863 -3.17541 0
M  V30 255 H 29.113 -2.43032 -3.07698 0
M  V30 256 H 30.603 -1.7466 -3.7932 0
M  V30 257 N 31.0401 0.771051 -1.3745 0
M  V30 258 C 31.9701 1.89827 -1.3597 0
M  V30 259 C 32.9511 1.68562 -0.228216 0
M  V30 260 O 34.1361 1.8941 -0.428675 0
M  V30 261 C 31.2661 3.2712 -1.16662 0
M  V30 262 C 30.2201 3.6295 -2.2683 0
M  V30 263 C 29.5461 4.98791 -1.92644 0
M  V30 264 C 30.8461 3.69627 -3.69017 0
M  V30 265 H 32.5401 1.91323 -2.30295 0
M  V30 266 H 30.0861 0.919082 -1.10855 0
M  V30 267 H 32.0391 4.05615 -1.14256 0
M  V30 268 H 30.7631 3.26059 -0.187926 0
M  V30 269 H 29.4221 2.86763 -2.28392 0
M  V30 270 H 29.0701 4.94271 -0.933021 0
M  V30 271 H 28.7701 5.23733 -2.66416 0
M  V30 272 H 30.2941 5.79685 -1.91826 0
M  V30 273 H 31.7081 4.38273 -3.69581 0
M  V30 274 H 30.1051 4.06067 -4.41848 0
M  V30 275 H 31.1751 2.70273 -4.02592 0
M  V30 276 N 32.5182 1.22032 0.997298 0
M  V30 277 C 33.9292 1.0397 1.55071 0
M  V30 278 C 34.2802 -0.398192 1.92117 0
M  V30 279 O 33.4052 -1.28254 1.74298 0
M  V30 280 C 34.0002 1.88109 2.81781 0
M  V30 281 C 32.5592 1.74357 3.33581 0
M  V30 282 C 31.7062 1.84846 2.06706 0
M  V30 283 H 34.6572 1.35941 0.818883 0
M  V30 284 H 34.6782 1.39589 3.53971 0
M  V30 285 H 34.1902 2.92754 2.54787 0
M  V30 286 H 32.2912 0.72427 3.65493 0
M  V30 287 H 32.4042 2.56772 4.04481 0
M  V30 288 H 30.7682 1.28238 2.20062 0
M  V30 289 H 31.5512 2.91014 1.82114 0
M  V30 290 N 33.9963 -1.19345 1.0293 0
M  V30 291 C 35.2733 -1.84811 0.640642 0
M  V30 292 C 35.6533 -1.91855 -0.88062 0
M  V30 293 O 35.0013 -1.43587 -1.7775 0
M  V30 294 C 35.2113 -3.23755 1.30321 0
M  V30 295 C 36.5593 -3.99912 1.42673 0
M  V30 296 O 37.5833 -3.33155 1.26041 0
M  V30 297 O 36.4423 -5.19494 1.6967 0
M  V30 298 H 33.5363 -0.796443 0.222726 0
M  V30 299 H 36.0823 -1.26831 1.12748 0
M  V30 300 H 34.8543 -3.13466 2.34211 0
M  V30 301 H 34.4773 -3.89381 0.804261 0
M  V30 302 N 35.4744 -0.807222 -1.35358 0
M  V30 303 C 36.4064 -0.175717 -2.28525 0
M  V30 304 C 37.4194 0.625354 -1.5031 0
M  V30 305 O 38.6084 0.457611 -1.72535 0
M  V30 306 C 35.7084 0.773471 -3.29956 0
M  V30 307 C 34.8814 0.0186296 -4.37396 0
M  V30 308 C 33.9404 0.886395 -5.18681 0
M  V30 309 O 32.9664 0.337106 -5.68201 0
M  V30 310 N 34.1684 2.20839 -5.36852 0
M  V30 311 H 36.9334 -0.976091 -2.83359 0
M  V30 312 H 34.4944 -0.662737 -1.47714 0
M  V30 313 H 36.4864 1.35824 -3.81227 0
M  V30 314 H 35.0564 1.47465 -2.75632 0
M  V30 315 H 34.2764 -0.747349 -3.87051 0
M  V30 316 H 35.5644 -0.501577 -5.06322 0
M  V30 317 H 34.9624 2.67858 -4.98265 0
M  V30 318 H 33.5194 2.74237 -5.91301 0
M  V30 319 N 36.9525 1.47285 -0.560781 0
M  V30 320 C 38.1775 2.07359 -0.0410566 0
M  V30 321 C 38.6025 1.41017 1.24483 0
M  V30 322 O 37.9605 0.486368 1.74654 0
M  V30 323 C 38.0085 3.6035 0.134123 0
M  V30 324 O 37.1125 3.94681 1.19587 0
M  V30 325 H 36.4535 0.661887 -0.0529291 0
M  V30 326 H 38.9835 1.89252 -0.777482 0
M  V30 327 H 38.9935 4.0652 0.347207 0
M  V30 328 H 37.6685 4.08034 -0.805047 0
M  V30 329 H 36.2455 3.60251 0.962987 0
M  V30 330 N 38.4306 0.297415 1.54768 0
M  V30 331 C 39.6776 -0.312913 2.00068 0
M  V30 332 C 40.0056 -1.54171 1.18582 0
M  V30 333 O 39.2606 -1.94108 0.249133 0
M  V30 334 C 39.5596 -0.717561 3.50123 0
M  V30 335 C 39.2256 0.409095 4.4904 0
M  V30 336 C 37.8876 0.718399 4.75807 0
M  V30 337 C 40.2396 1.16717 5.07963 0
M  V30 338 C 37.5676 1.78896 5.5876 0
M  V30 339 C 39.9196 2.22762 5.92081 0
M  V30 340 C 38.5836 2.54303 6.1716 0
M  V30 341 H 37.8536 -0.114503 0.7321 0
M  V30 342 H 40.5006 0.415767 1.86932 0
M  V30 343 H 38.8056 -1.52627 3.60849 0
M  V30 344 H 40.5026 -1.20091 3.82595 0
M  V30 345 H 37.0926 0.157918 4.28309 0
M  V30 346 H 41.2766 0.941466 4.87289 0
M  V30 347 H 36.5326 2.0381 5.7643 0
M  V30 348 H 40.7066 2.81962 6.36765 0
M  V30 349 H 38.3336 3.3739 6.81229 0
M  V30 350 N 39.9087 -1.5758 0.0250728 0
M  V30 351 C 40.8387 -2.13007 -0.956575 0
M  V30 352 C 41.8197 -1.0452 -1.342 0
M  V30 353 O 43.0047 -1.32332 -1.42133 0
M  V30 354 C 40.1347 -2.65386 -2.24026 0
M  V30 355 C 39.0887 -3.78623 -1.99571 0
M  V30 356 C 38.4147 -4.17414 -3.3417 0
M  V30 357 C 39.7147 -5.04867 -1.33814 0
M  V30 358 H 41.4087 -2.9528 -0.494991 0
M  V30 359 H 38.9547 -1.42042 -0.236651 0
M  V30 360 H 40.9077 -3.02794 -2.93076 0
M  V30 361 H 39.6317 -1.80268 -2.72343 0
M  V30 362 H 38.2907 -3.41646 -1.32941 0
M  V30 363 H 37.9387 -3.29284 -3.80238 0
M  V30 364 H 37.6387 -4.93719 -3.18615 0
M  V30 365 H 39.1627 -4.57402 -4.04495 0
M  V30 366 H 40.5767 -5.39888 -1.92857 0
M  V30 367 H 38.9737 -5.86144 -1.28669 0
M  V30 368 H 40.0437 -4.83904 -0.310561 0
M  V30 369 N 41.3868 0.248026 -1.55636 0
M  V30 370 C 42.6328 0.973427 -1.78594 0
M  V30 371 C 42.9878 1.83007 -0.593823 0
M  V30 372 O 42.2808 1.87097 0.412961 0
M  V30 373 C 42.4748 1.86819 -3.04686 0
M  V30 374 C 42.3038 1.09965 -4.36048 0
M  V30 375 C 41.0738 0.805204 -4.98843 0
M  V30 376 C 43.2718 0.477783 -5.12076 0
M  V30 377 N 41.2538 0.0124859 -6.13899 0
M  V30 378 C 42.6248 -0.179565 -6.1974 0
M  V30 379 C 44.6798 0.388136 -4.96385 0
M  V30 380 C 43.3828 -0.91795 -7.13419 0
M  V30 381 C 45.4088 -0.336716 -5.90441 0
M  V30 382 C 44.7708 -0.982705 -6.97511 0
M  V30 383 H 40.8698 0.337348 -0.705493 0
M  V30 384 H 43.4538 0.24667 -1.93131 0
M  V30 385 H 41.6248 2.56698 -2.9148 0
M  V30 386 H 43.3568 2.52907 -3.15944 0
M  V30 387 H 40.1118 1.11671 -4.60246 0
M  V30 388 H 40.5358 -0.371933 -6.75978 0
M  V30 389 H 45.1778 0.873237 -4.13684 0
M  V30 390 H 42.8958 -1.41466 -7.95621 0
M  V30 391 H 46.4818 -0.406731 -5.80377 0
M  V30 392 H 45.3618 -1.53464 -7.69037 0
M  V30 393 N 42.8649 1.48995 0.513639 0
M  V30 394 C 43.8129 1.65199 1.63744 0
M  V30 395 C 44.8069 0.51809 1.61283 0
M  V30 396 O 46.0129 0.697335 1.65943 0
M  V30 397 H 42.3879 0.52069 0.542574 0
M  V30 398 H 44.3589 2.59552 1.47226 0
M  V30 399 C 43.1079 1.72409 3.01945 0
M  V30 400 H 42.4309 2.59029 3.04539 0
M  V30 401 H 43.8709 1.87785 3.80148 0
M  V30 402 C 42.3299 0.46618 3.33659 0
M  V30 403 O 42.8599 -0.413744 3.99564 0
M  V30 404 N 41.0659 0.332931 2.88687 0
M  V30 405 H 40.6129 1.04996 2.35231 0
M  V30 406 H 40.5709 -0.507665 3.10274 0
M  V30 407 N 44.343 -0.763751 1.37857 0
M  V30 408 C 45.589 -1.52483 1.33704 0
M  V30 409 C 45.922 -1.94051 -0.0759612 0
M  V30 410 O 45.197 -1.64675 -1.03501 0
M  V30 411 C 45.48 -2.78441 2.28348 0
M  V30 412 C 45.333 -2.43075 3.78463 0
M  V30 413 C 46.652 -3.80415 2.21298 0
M  V30 414 H 43.771 -0.553169 0.487005 0
M  V30 415 H 46.413 -0.875562 1.68624 0
M  V30 416 H 44.563 -3.33842 1.987 0
M  V30 417 H 46.235 -1.93527 4.18742 0
M  V30 418 H 44.478 -1.75666 3.96641 0
M  V30 419 H 45.149 -3.33149 4.40132 0
M  V30 420 H 47.625 -3.34527 2.47449 0
M  V30 421 H 46.501 -4.66257 2.89647 0
M  V30 422 H 46.762 -4.25262 1.20849 0
M  V30 423 N 45.8211 -1.22559 -0.990812 0
M  V30 424 C 47.0681 -1.05141 -1.73065 0
M  V30 425 C 47.3961 0.413191 -1.9006 0
M  V30 426 O 46.6511 1.32257 -1.44245 0
M  V30 427 C 46.9501 -1.71011 -3.13831 0
M  V30 428 C 46.6161 -3.20911 -3.16745 0
M  V30 429 C 45.2781 -3.61812 -3.17247 0
M  V30 430 C 47.6301 -4.16846 -3.12872 0
M  V30 431 C 44.9581 -4.97127 -3.1158 0
M  V30 432 C 47.3101 -5.5214 -3.08746 0
M  V30 433 C 45.9741 -5.92419 -3.07565 0
M  V30 434 H 45.2441 -0.384738 -0.633291 0
M  V30 435 H 47.8911 -1.5235 -1.16025 0
M  V30 436 H 46.1961 -1.16133 -3.74193 0
M  V30 437 H 47.8931 -1.55023 -3.69823 0
M  V30 438 H 44.4831 -2.88344 -3.17105 0
M  V30 439 H 48.6671 -3.86263 -3.11632 0
M  V30 440 H 43.9231 -5.27562 -3.09012 0
M  V30 441 H 48.0971 -6.26201 -3.04705 0
M  V30 442 H 45.7241 -6.97236 -3.02929 0
M  V30 443 N 47.2992 1.18797 -1.03562 0
M  V30 444 C 48.2312 2.21731 -0.580337 0
M  V30 445 C 49.2442 1.59051 0.347349 0
M  V30 446 O 50.4332 1.77929 0.142669 0
M  V30 447 C 47.5332 3.38459 0.172805 0
M  V30 448 C 46.7062 4.3072 -0.761496 0
M  V30 449 C 45.7652 5.26174 -0.0525547 0
M  V30 450 O 44.7912 5.65108 -0.681333 0
M  V30 451 N 45.9932 5.67624 1.21586 0
M  V30 452 H 48.7582 2.61417 -1.46565 0
M  V30 453 H 46.3192 1.33531 -0.915476 0
M  V30 454 H 48.3112 3.99335 0.656793 0
M  V30 455 H 46.8812 2.97507 0.959602 0
M  V30 456 H 46.1012 3.67525 -1.42544 0
M  V30 457 H 47.3892 4.89267 -1.39626 0
M  V30 458 H 46.7872 5.38038 1.74732 0
M  V30 459 H 45.3442 6.30721 1.64421 0
M  V30 460 N 48.7773 0.814389 1.34928 0
M  V30 461 C 50.1933 0.499084 1.51596 0
M  V30 462 C 50.3933 -0.978319 1.76157 0
M  V30 463 O 49.4493 -1.76309 1.80752 0
M  V30 464 C 50.7623 1.35121 2.68631 0
M  V30 465 C 52.3103 1.34746 2.82511 0
M  V30 466 C 52.7853 2.18388 4.0258 0
M  V30 467 N 54.2763 2.15966 4.09772 0
M  V30 468 C 55.0113 2.77437 5.01813 0
M  V30 469 N 54.5073 3.47866 5.99134 0
M  V30 470 N 56.3003 2.67037 4.94619 0
M  V30 471 H 48.4513 1.7711 1.17243 0
M  V30 472 H 50.7143 0.754256 0.574284 0
M  V30 473 H 50.4203 2.40001 2.57085 0
M  V30 474 H 50.2943 1.00991 3.63429 0
M  V30 475 H 52.6813 0.30648 2.93504 0
M  V30 476 H 52.7623 1.72869 1.88547 0
M  V30 477 H 52.4063 3.2253 3.92347 0
M  V30 478 H 52.3363 1.77621 4.9574 0
M  V30 479 H 54.8273 1.64729 3.40107 0
M  V30 480 H 55.1403 3.92038 6.65977 0
M  V30 481 H 53.4853 3.51972 5.99284 0
M  V30 482 H 56.6763 2.11597 4.17546 0
M  V30 483 H 56.8493 3.15232 5.66156 0
M  V30 484 N 50.2554 -1.46986 0.568584 0
M  V30 485 C 51.5014 -2.02741 0.0488709 0
M  V30 486 C 51.8344 -1.44077 -1.30214 0
M  V30 487 O 51.1094 -0.600552 -1.84996 0
M  V30 488 C 51.3924 -3.60086 -0.032047 0
M  V30 489 C 51.2454 -4.29162 1.34686 0
M  V30 490 C 52.5644 -4.33838 -0.739798 0
M  V30 491 H 49.6834 -0.736749 0.0192338 0
M  V30 492 H 52.3254 -1.75289 0.733065 0
M  V30 493 H 50.4754 -3.83606 -0.61473 0
M  V30 494 H 52.1474 -4.16948 1.97362 0
M  V30 495 H 50.3904 -3.89073 1.91846 0
M  V30 496 H 51.0614 -5.37826 1.24285 0
M  V30 497 H 53.5374 -4.15378 -0.244939 0
M  V30 498 H 52.4134 -5.43537 -0.765406 0
M  V30 499 H 52.6744 -4.03875 -1.79827 0
M  V30 500 N 51.7335 -0.305618 -1.54608 0
M  V30 501 C 53.0105 0.355652 -1.92339 0
M  V30 502 C 53.3905 1.71324 -1.23335 0
M  V30 503 O 52.7385 2.25473 -0.370702 0
M  V30 504 C 52.9485 0.46572 -3.45879 0
M  V30 505 C 54.2965 0.734426 -4.182 0
M  V30 506 O 55.3205 0.54935 -3.51938 0
M  V30 507 O 54.1795 1.09024 -5.35515 0
M  V30 508 H 51.2735 0.199666 -0.802535 0
M  V30 509 H 53.8195 -0.354017 -1.65966 0
M  V30 510 H 52.5915 -0.488461 -3.88239 0
M  V30 511 H 52.2145 1.22367 -3.78301 0
M  V30 512 N 53.2116 1.57565 -0.0334293 0
M  V30 513 C 54.1586 2.10478 0.946981 0
M  V30 514 C 55.1286 1.00787 1.32027 0
M  V30 515 O 56.3136 1.28232 1.41284 0
M  V30 516 C 53.4536 2.63994 2.22263 0
M  V30 517 C 52.5666 3.87709 1.90541 0
M  V30 518 C 51.7016 4.29604 3.12433 0
M  V30 519 C 50.7406 5.46065 2.76549 0
M  V30 520 N 49.8776 5.83096 3.9108 0
M  V30 521 H 54.7176 2.93963 0.488846 0
M  V30 522 H 52.2546 1.45296 0.22969 0
M  V30 523 H 54.2126 2.93114 2.96884 0
M  V30 524 H 52.8426 1.83333 2.65685 0
M  V30 525 H 51.8946 3.65291 1.06144 0
M  V30 526 H 53.2066 4.72403 1.60116 0
M  V30 527 H 52.3606 4.60182 3.9537 0
M  V30 528 H 51.0996 3.43685 3.46023 0
M  V30 529 H 50.1046 5.15176 1.92026 0
M  V30 530 H 51.3296 6.33685 2.44171 0
M  V30 531 H 49.2756 5.00132 4.24504 0
M  V30 532 H 49.1926 6.6244 3.64293 0
M  V30 533 H 50.4606 6.18282 4.74708 0
M  V30 534 N 54.6897 -0.239769 1.55765 0
M  V30 535 C 55.9667 -0.990056 1.68693 0
M  V30 536 C 56.3467 -2.03107 0.5754 0
M  V30 537 O 55.6947 -2.24604 -0.42017 0
M  V30 538 C 55.9047 -1.61696 3.09282 0
M  V30 539 C 57.2527 -2.11613 3.6811 0
M  V30 540 O 58.2767 -1.71624 3.12127 0
M  V30 541 O 57.1357 -2.85057 4.66267 0
M  V30 542 H 54.2297 -0.461299 0.686391 0
M  V30 543 H 56.7757 -0.232991 1.68093 0
M  V30 544 H 55.5477 -0.864357 3.81634 0
M  V30 545 H 55.1707 -2.44005 3.13923 0
M  V30 546 N 56.1678 -1.49265 -0.50573 0
M  V30 547 C 57.5838 -1.35923 -0.836486 0
M  V30 548 C 57.7838 -0.388704 -1.97715 0
M  V30 549 O 56.8398 0.181336 -2.51848 0
M  V30 550 C 58.1528 -2.76531 -1.18115 0
M  V30 551 C 59.7008 -2.85197 -1.28964 0
M  V30 552 C 60.1758 -4.26561 -1.66761 0
M  V30 553 N 61.6668 -4.2935 -1.73819 0
M  V30 554 C 62.4018 -5.35693 -2.045 0
M  V30 555 N 61.8978 -6.52287 -2.33438 0
M  V30 556 N 63.6908 -5.23105 -2.05711 0
M  V30 557 H 55.8418 -2.10965 0.246519 0
M  V30 558 H 58.1048 -0.9468 0.0476887 0
M  V30 559 H 57.8108 -3.49226 -0.416398 0
M  V30 560 H 57.6848 -3.11599 -2.1257 0
M  V30 561 H 60.0718 -2.12742 -2.04511 0
M  V30 562 H 60.1528 -2.53718 -0.325704 0
M  V30 563 H 59.7968 -4.99541 -0.917656 0
M  V30 564 H 59.7268 -4.55502 -2.64246 0
M  V30 565 H 62.2178 -3.4526 -1.53635 0
M  V30 566 H 62.5308 -7.29158 -2.56024 0
M  V30 567 H 60.8758 -6.55521 -2.30905 0
M  V30 568 H 64.0668 -4.31026 -1.82577 0
M  V30 569 H 64.2398 -6.06078 -2.29289 0
M  V30 570 N 57.6459 0.756429 -1.3826 0
M  V30 571 C 58.8709 1.55077 -1.37717 0
M  V30 572 C 59.2959 1.88073 0.03164 0
M  V30 573 O 58.6539 1.50364 1.01293 0
M  V30 574 C 58.7019 2.8283 -2.23695 0
M  V30 575 O 57.8059 3.77862 -1.6521 0
M  V30 576 H 57.1469 0.469152 -0.469885 0
M  V30 577 H 59.6769 0.935019 -1.81985 0
M  V30 578 H 59.6869 3.31783 -2.37453 0
M  V30 579 H 58.3619 2.58144 -3.2609 0
M  V30 580 H 56.9389 3.36555 -1.60578 0
M  V30 581 N 59.124 1.23083 0.984299 0
M  V30 582 C 60.372 1.05848 1.72165 0
M  V30 583 C 60.693 -0.406049 1.90726 0
M  V30 584 O 59.963 -1.29139 1.47309 0
M  V30 585 H 58.543 0.388685 0.637913 0
M  V30 586 H 61.205 1.54736 1.18503 0
M  V30 587 H 60.301 1.54327 2.71274 0
M  V30 588 N 60.6021 -1.18246 1.0419 0
M  V30 589 C 61.8481 -1.88536 0.747122 0
M  V30 590 C 62.1811 -1.80223 -0.723409 0
M  V30 591 O 61.4561 -1.20337 -1.52804 0
M  V30 592 C 61.7391 -3.38968 1.21544 0
M  V30 593 C 61.5921 -3.56084 2.74816 0
M  V30 594 C 62.9111 -4.32648 0.806482 0
M  V30 595 H 60.0301 -0.684619 0.272883 0
M  V30 596 H 62.6721 -1.39113 1.29413 0
M  V30 597 H 60.8221 -3.8119 0.750081 0
M  V30 598 H 62.4941 -3.22946 3.29399 0
M  V30 599 H 60.7371 -2.98699 3.14582 0
M  V30 600 H 61.4081 -4.61639 3.02644 0
M  V30 601 H 63.8841 -3.98211 1.20695 0
M  V30 602 H 62.7601 -5.36462 1.1619 0
M  V30 603 H 63.0211 -4.41146 -0.29029 0
M  V30 604 N 62.0802 -0.821533 -1.34494 0
M  V30 605 C 63.3292 -0.405355 -1.97585 0
M  V30 606 C 63.6422 1.03677 -1.65863 0
M  V30 607 O 64.8482 1.55679 -2.22433 0
M  V30 608 C 63.3042 -0.673861 -3.53535 0
M  V30 609 C 62.9122 -2.12951 -3.94152 0
M  V30 610 C 64.6562 -0.32378 -4.23263 0
M  V30 611 C 62.5632 -2.34298 -5.43009 0
M  V30 612 H 61.4932 -0.147836 -0.739365 0
M  V30 613 H 64.1442 -1.00769 -1.53355 0
M  V30 614 H 62.5262 -0.00137554 -3.96 0
M  V30 615 H 63.7002 -2.84104 -3.62797 0
M  V30 616 H 62.0152 -2.44089 -3.37356 0
M  V30 617 H 64.6122 -0.461126 -5.32708 0
M  V30 618 H 64.9552 0.731586 -4.09821 0
M  V30 619 H 65.4882 -0.950786 -3.8627 0
M  V30 620 H 62.2272 -3.38335 -5.61435 0
M  V30 621 H 61.7472 -1.67687 -5.75883 0
M  V30 622 H 63.4262 -2.16588 -6.09671 0
M  V30 623 N 63.5583 1.46682 -0.576371 0
M  V30 624 C 64.7833 2.07304 -0.0630475 0
M  V30 625 C 65.2083 1.42329 1.2298 0
M  V30 626 O 64.5663 0.504865 1.74129 0
M  V30 627 C 64.6143 3.60472 0.095895 0
M  V30 628 O 63.7183 3.95927 1.15394 0
M  V30 629 H 63.0593 0.661288 -0.0599463 0
M  V30 630 H 65.5893 1.88417 -0.797511 0
M  V30 631 H 65.5993 4.06865 0.304071 0
M  V30 632 H 64.2743 4.07157 -0.84828 0
M  V30 633 H 62.8513 3.61252 0.924724 0
M  V30 634 N 65.0364 0.313813 1.54444 0
M  V30 635 C 66.3134 -0.345447 1.92525 0
M  V30 636 C 66.6934 -1.70667 1.24242 0
M  V30 637 O 66.0414 -2.25273 0.382654 0
M  V30 638 C 66.2514 -0.44737 3.46121 0
M  V30 639 C 67.5994 -0.712238 4.18584 0
M  V30 640 O 68.6234 -0.530678 3.52225 0
M  V30 641 O 67.4824 -1.06183 5.36085 0
M  V30 642 H 64.5764 -0.195407 0.803583 0
M  V30 643 H 67.1224 0.362813 1.65776 0
M  V30 644 H 65.8944 0.509043 3.87975 0
M  V30 645 H 65.5174 -1.20359 3.78945 0
M  V30 646 N 66.5145 -1.57545 0.0417849 0
M  V30 647 C 67.7425 -1.96624 -0.643928 0
M  V30 648 C 68.1575 -0.918897 -1.64929 0
M  V30 649 O 67.5145 0.0979323 -1.82237 0
M  V30 650 C 67.5655 -3.35781 -1.33914 0
M  V30 651 O 67.2865 -4.365 -0.374048 0
M  V30 652 C 68.7875 -3.89566 -2.1155 0
M  V30 653 H 66.0075 -0.647316 -0.176702 0
M  V30 654 H 68.5515 -2.04229 0.105304 0
M  V30 655 H 66.7065 -3.29357 -2.03968 0
M  V30 656 H 67.1205 -5.17248 -0.869179 0
M  V30 657 H 68.5945 -4.89242 -2.55628 0
M  V30 658 H 69.0715 -3.24488 -2.9598 0
M  V30 659 H 69.6775 -3.99298 -1.46427 0
M  V30 660 N 67.9926 0.231505 -1.5589 0
M  V30 661 C 68.9026 1.308 -1.94752 0
M  V30 662 C 69.9186 1.51826 -0.849989 0
M  V30 663 O 71.0946 1.6515 -1.15271 0
M  V30 664 C 68.1596 2.63968 -2.24771 0
M  V30 665 C 67.2206 2.51331 -3.48039 0
M  V30 666 C 66.4536 3.78148 -3.76616 0
M  V30 667 O 66.6766 4.80722 -3.07022 0
M  V30 668 O 65.6106 3.75857 -4.70123 0
M  V30 669 H 69.4366 1.0083 -2.86474 0
M  V30 670 H 67.0216 0.433547 -1.42971 0
M  V30 671 H 68.9036 3.42633 -2.45318 0
M  V30 672 H 67.5786 2.9364 -1.36225 0
M  V30 673 H 66.4856 1.709 -3.32782 0
M  V30 674 H 67.8186 2.26601 -4.36936 0
M  V30 675 N 69.4707 1.49531 0.497807 0
M  V30 676 C 70.4007 1.6935 1.60757 0
M  V30 677 C 71.3817 0.542218 1.61227 0
M  V30 678 O 72.5667 0.778417 1.77917 0
M  V30 679 C 69.6967 1.76298 2.99226 0
M  V30 680 C 68.6507 2.91248 3.13622 0
M  V30 681 C 67.9767 2.83312 4.53474 0
M  V30 682 C 69.2767 4.3214 2.93346 0
M  V30 683 H 70.9707 2.62263 1.44425 0
M  V30 684 H 68.5167 1.26208 0.693367 0
M  V30 685 H 70.4697 1.88749 3.76765 0
M  V30 686 H 69.1937 0.799871 3.16654 0
M  V30 687 H 67.8527 2.78404 2.38509 0
M  V30 688 H 67.5007 1.84902 4.67782 0
M  V30 689 H 67.2007 3.60465 4.64046 0
M  V30 690 H 68.7247 2.97775 5.33069 0
M  V30 691 H 70.1387 4.45649 3.60652 0
M  V30 692 H 68.5357 5.1054 3.15387 0
M  V30 693 H 69.6057 4.46363 1.89441 0
M  V30 694 N 70.9488 -0.749086 1.3866 0
M  V30 695 C 71.8808 -1.87273 1.32142 0
M  V30 696 C 72.8938 -1.61127 0.232787 0
M  V30 697 O 74.0828 -1.71623 0.49069 0
M  V30 698 C 71.1828 -3.23005 1.02571 0
M  V30 699 C 70.3558 -3.7662 2.22433 0
M  V30 700 C 69.4148 -4.90879 1.89537 0
M  V30 701 O 68.4408 -5.05276 2.62078 0
M  V30 702 N 69.6428 -5.74198 0.853031 0
M  V30 703 H 72.4078 -1.93373 2.28969 0
M  V30 704 H 69.9688 -0.929216 1.32579 0
M  V30 705 H 71.9608 -3.96992 0.786085 0
M  V30 706 H 70.5308 -3.12262 0.145249 0
M  V30 707 H 69.7508 -2.94147 2.62434 0
M  V30 708 H 71.0388 -4.09173 3.02415 0
M  V30 709 H 70.4368 -5.6514 0.25155 0
M  V30 710 H 68.9938 -6.48313 0.67329 0
M  V30 711 N 72.4269 -1.23603 -0.977757 0
M  V30 712 C 73.3589 -0.977369 -2.07317 0
M  V30 713 C 74.3719 0.0495845 -1.62724 0
M  V30 714 O 75.5609 -0.186261 -1.77526 0
M  V30 715 C 72.6609 -0.451216 -3.35883 0
M  V30 716 C 71.8339 -1.53896 -4.09432 0
M  V30 717 C 70.8929 -1.01721 -5.16274 0
M  V30 718 O 69.9189 -1.70676 -5.43009 0
M  V30 719 N 71.1209 0.153594 -5.80297 0
M  V30 720 H 73.8859 -1.92047 -2.30082 0
M  V30 721 H 71.4469 -1.14497 -1.14465 0
M  V30 722 H 73.4389 -0.0871574 -4.04606 0
M  V30 723 H 72.0089 0.397368 -3.10064 0
M  V30 724 H 71.2289 -2.07566 -3.35127 0
M  V30 725 H 72.5169 -2.27037 -4.55337 0
M  V30 726 H 71.9149 0.730323 -5.60966 0
M  V30 727 H 70.4719 0.458892 -6.50183 0
M  V30 728 N 73.905 1.17692 -1.04816 0
M  V30 729 C 74.868 2.19787 -0.650117 0
M  V30 730 C 75.868 1.58044 0.296427 0
M  V30 731 O 77.058 1.74012 0.0808097 0
M  V30 732 C 74.19 3.40869 0.0456987 0
M  V30 733 H 75.383 2.56516 -1.5537 0
M  V30 734 H 72.936 1.31708 -0.841594 0
M  V30 735 H 73.671 3.09681 0.962726 0
M  V30 736 H 73.456 3.86928 -0.634727 0
M  V30 737 H 74.946 4.16445 0.310432 0
M  V30 738 N 75.3831 0.828654 1.34056 0
M  V30 739 C 76.3131 0.269443 2.3194 0
M  V30 740 C 77.2941 -0.617247 1.58506 0
M  V30 741 O 78.4791 -0.542931 1.86456 0
M  V30 742 C 75.6091 -0.564793 3.42677 0
M  V30 743 C 74.5631 0.225241 4.27407 0
M  V30 744 C 73.8891 -0.7321 5.29664 0
M  V30 745 C 75.1891 1.43663 5.02154 0
M  V30 746 H 76.8831 1.08728 2.7896 0
M  V30 747 H 74.4291 0.524283 1.34117 0
M  V30 748 H 76.3821 -0.966233 4.10173 0
M  V30 749 H 75.1061 -1.41574 2.9432 0
M  V30 750 H 73.7651 0.608117 3.61521 0
M  V30 751 H 73.4131 -1.57916 4.77568 0
M  V30 752 H 73.1131 -0.20767 5.87233 0
M  V30 753 H 74.6371 -1.13128 6.00029 0
M  V30 754 H 76.0511 1.1089 5.62473 0
M  V30 755 H 74.4481 1.89711 5.69324 0
M  V30 756 H 75.5181 2.21181 4.31517 0
M  V30 757 N 76.8612 -1.46375 0.584142 0
M  V30 758 C 78.0862 -2.07268 0.0740405 0
M  V30 759 C 78.5112 -1.42979 -1.22223 0
M  V30 760 O 77.8692 -0.514092 -1.73859 0
M  V30 761 C 77.9172 -3.60518 -0.0767769 0
M  V30 762 O 77.0212 -3.96533 -1.13292 0
M  V30 763 H 76.3622 -0.660961 0.0634524 0
M  V30 764 H 78.8922 -1.87991 0.807492 0
M  V30 765 H 78.9022 -4.07021 -0.282489 0
M  V30 766 H 77.5772 -4.06702 0.86986 0
M  V30 767 H 76.1542 -3.61738 -0.905553 0
M  V30 768 N 78.3393 -0.321999 -1.54275 0
M  V30 769 C 79.2873 0.560206 -2.25753 0
M  V30 770 C 80.2813 1.11984 -1.27106 0
M  V30 771 O 81.4873 1.06806 -1.44888 0
M  V30 772 H 77.8623 0.199304 -0.725108 0
M  V30 773 H 79.8333 -0.0649365 -2.98329 0
M  V30 774 C 78.5823 1.71023 -3.02731 0
M  V30 775 H 77.9053 1.28885 -3.78456 0
M  V30 776 H 79.3453 2.30314 -3.55993 0
M  V30 777 C 77.8043 2.62692 -2.10938 0
M  V30 778 O 78.3343 3.64364 -1.6912 0
M  V30 779 N 76.5403 2.30891 -1.76459 0
M  V30 780 H 76.0873 1.48253 -2.10663 0
M  V30 781 H 76.0453 2.92487 -1.1532 0
M  V30 782 N 79.8174 1.5752 -0.0501392 0
M  V30 783 C 81.0654 1.9227 0.622642 0
M  V30 784 C 81.3864 0.929083 1.71444 0
M  V30 785 O 80.6564 -0.0262186 1.95882 0
M  V30 786 H 79.2364 0.709739 0.232981 0
M  V30 787 H 81.8984 1.94628 -0.102898 0
M  V30 788 H 80.9944 2.93479 1.06191 0
M  V30 789 N 81.2955 -0.223234 1.56011 0
M  V30 790 C 82.5235 -0.964812 1.83027 0
M  V30 791 C 82.9385 -1.78013 0.62904 0
M  V30 792 O 82.2955 -1.78008 -0.402414 0
M  V30 793 C 82.3465 -1.88373 3.08542 0
M  V30 794 O 82.0675 -1.10137 4.2403 0
M  V30 795 C 83.5685 -2.73934 3.48533 0
M  V30 796 H 80.7885 -0.282842 0.608475 0
M  V30 797 H 83.3325 -0.238971 2.03099 0
M  V30 798 H 81.4875 -2.56354 2.9045 0
M  V30 799 H 81.9015 -1.72501 4.95322 0
M  V30 800 H 83.3755 -3.34117 4.39397 0
M  V30 801 H 83.8525 -3.46244 2.70207 0
M  V30 802 H 84.4585 -2.11369 3.69057 0
M  V30 803 N 82.7736 -1.49793 -0.48987 0
M  V30 804 C 84.0196 -1.61049 -1.24236 0
M  V30 805 C 84.3746 -0.298412 -1.90072 0
M  V30 806 O 83.6676 0.702262 -1.78266 0
M  V30 807 C 83.8616 -2.71488 -2.32441 0
M  V30 808 C 83.6906 -4.13308 -1.77218 0
M  V30 809 C 82.4606 -4.79955 -1.58023 0
M  V30 810 C 84.6586 -4.98176 -1.27772 0
M  V30 811 N 82.6406 -6.06052 -0.978465 0
M  V30 812 C 84.0116 -6.14843 -0.798 0
M  V30 813 C 86.0666 -4.84091 -1.16449 0
M  V30 814 C 84.7696 -7.18975 -0.216245 0
M  V30 815 C 86.7956 -5.88382 -0.596698 0
M  V30 816 C 86.1576 -7.04285 -0.127262 0
M  V30 817 H 82.2566 -0.643611 -0.444172 0
M  V30 818 H 84.8406 -1.86842 -0.54754 0
M  V30 819 H 83.0116 -2.47449 -2.99372 0
M  V30 820 H 84.7436 -2.72205 -2.99477 0
M  V30 821 H 81.4986 -4.36936 -1.82712 0
M  V30 822 H 81.9226 -6.73407 -0.696534 0
M  V30 823 H 86.5646 -3.94786 -1.5134 0
M  V30 824 H 84.2826 -8.0797 0.144903 0
M  V30 825 H 87.8686 -5.79545 -0.511716 0
M  V30 826 H 86.7486 -7.83606 0.30523 0
M  V30 827 N 84.2517 0.741722 -1.39055 0
M  V30 828 C 85.4797 1.53098 -1.39171 0
M  V30 829 C 85.8947 1.88794 0.0155099 0
M  V30 830 O 85.2517 1.53626 0.985159 0
M  V30 831 C 85.3027 2.82274 -2.2584 0
M  V30 832 O 85.0237 2.48097 -3.61081 0
M  V30 833 C 86.5247 3.76343 -2.34266 0
M  V30 834 H 83.7447 0.473335 -0.4756 0
M  V30 835 H 86.2887 0.917045 -1.82785 0
M  V30 836 H 84.4437 3.40015 -1.85656 0
M  V30 837 H 84.8577 3.31029 -4.06842 0
M  V30 838 H 86.3317 4.63898 -2.9917 0
M  V30 839 H 86.8087 4.17619 -1.35982 0
M  V30 840 H 87.4147 3.24523 -2.74891 0
M  V30 841 N 85.7298 1.2412 0.971189 0
M  V30 842 C 87.1408 1.07236 1.52831 0
M  V30 843 C 87.4918 -0.357352 1.92918 0
M  V30 844 O 86.6168 -1.24528 1.76979 0
M  V30 845 C 87.2118 1.94043 2.77728 0
M  V30 846 C 85.7708 1.81394 3.29808 0
M  V30 847 C 84.9178 1.89189 2.02738 0
M  V30 848 H 87.8688 1.37648 0.789864 0
M  V30 849 H 87.8898 1.47066 3.5093 0
M  V30 850 H 87.4018 2.98093 2.4852 0
M  V30 851 H 85.5028 0.801634 3.63874 0
M  V30 852 H 85.6158 2.65294 3.98944 0
M  V30 853 H 83.9798 1.32877 2.17292 0
M  V30 854 H 84.7628 2.94812 1.759 0
M  V30 855 N 87.2079 -1.17134 1.05439 0
M  V30 856 C 88.4549 -1.87456 0.765942 0
M  V30 857 C 88.7829 -1.81189 -0.707153 0
M  V30 858 O 88.0379 -1.21633 -1.5331 0
M  V30 859 C 88.3369 -3.36833 1.19491 0
M  V30 860 C 88.0029 -3.63301 2.67063 0
M  V30 861 C 86.6649 -3.70234 3.07376 0
M  V30 862 C 89.0169 -3.74575 3.62413 0
M  V30 863 C 86.3449 -3.85933 4.41896 0
M  V30 864 C 88.6969 -3.91793 4.9667 0
M  V30 865 C 87.3609 -3.96966 5.36633 0
M  V30 866 H 86.6309 -0.685948 0.280278 0
M  V30 867 H 89.2779 -1.38556 1.32192 0
M  V30 868 H 87.5829 -3.87807 0.557969 0
M  V30 869 H 89.2799 -3.89611 0.948893 0
M  V30 870 H 85.8699 -3.58532 2.34846 0
M  V30 871 H 90.0539 -3.68537 3.32406 0
M  V30 872 H 85.3099 -3.88187 4.72357 0
M  V30 873 H 89.4839 -3.99458 5.70444 0
M  V30 874 H 87.1109 -4.08883 6.40874 0
M  V30 875 N 88.686 -0.835752 -1.33615 0
M  V30 876 C 89.634 -0.255238 -2.31195 0
M  V30 877 C 90.628 0.61107 -1.57995 0
M  V30 878 O 91.834 0.500979 -1.72888 0
M  V30 879 H 88.209 -0.0638085 -0.749288 0
M  V30 880 H 90.18 -1.09283 -2.77669 0
M  V30 881 C 88.929 0.55754 -3.43201 0
M  V30 882 H 88.252 -0.0997553 -3.99676 0
M  V30 883 H 89.692 0.929622 -4.13683 0
M  V30 884 C 88.151 1.73515 -2.88781 0
M  V30 885 O 88.681 2.83376 -2.84712 0
M  V30 886 N 86.887 1.55603 -2.4543 0
M  V30 887 H 86.434 0.662354 -2.48939 0
M  V30 888 H 86.392 2.34545 -2.09371 0
M  V30 889 N 90.1641 1.46063 -0.591896 0
M  V30 890 C 91.5751 1.85944 -0.167822 0
M  V30 891 C 91.9261 1.49429 1.27143 0
M  V30 892 O 91.0511 0.913515 1.96173 0
M  V30 893 C 91.6461 3.37489 -0.297794 0
M  V30 894 C 90.2051 3.76332 0.0714732 0
M  V30 895 C 89.3521 2.7006 -0.629509 0
M  V30 896 H 92.3031 1.37087 -0.799555 0
M  V30 897 H 92.3241 3.77532 0.474349 0
M  V30 898 H 91.8361 3.64034 -1.3454 0
M  V30 899 H 89.9371 3.55405 1.11886 0
M  V30 900 H 90.0501 4.78088 -0.311245 0
M  V30 901 H 88.4141 2.54607 -0.0687867 0
M  V30 902 H 89.1971 2.99444 -1.67894 0
M  V30 903 N 91.6422 0.330177 1.54103 0
M  V30 904 C 92.8882 -0.270806 2.00984 0
M  V30 905 C 93.2212 -1.51265 1.21789 0
M  V30 906 O 92.4962 -1.92142 0.301927 0
M  V30 907 C 92.7792 -0.598339 3.55094 0
M  V30 908 C 92.6322 0.654674 4.4501 0
M  V30 909 C 93.9512 -1.41334 4.16789 0
M  V30 910 H 91.0702 -0.0969531 0.730595 0
M  V30 911 H 93.7122 0.448066 1.84641 0
M  V30 912 H 91.8622 -1.21078 3.69151 0
M  V30 913 H 93.5342 1.29285 4.42813 0
M  V30 914 H 91.7772 1.28224 4.14416 0
M  V30 915 H 92.4482 0.380944 5.50684 0
M  V30 916 H 94.9242 -0.895597 4.06347 0
M  V30 917 H 93.8002 -1.61127 5.24718 0
M  V30 918 H 94.0612 -2.41146 3.70541 0
M  V30 919 N 93.1203 -1.57491 0.0584922 0
M  V30 920 C 94.3483 -1.97296 -0.623037 0
M  V30 921 C 94.7633 -0.936338 -1.63946 0
M  V30 922 O 94.1203 0.0785981 -1.82331 0
M  V30 923 C 94.1713 -3.37183 -1.30345 0
M  V30 924 O 93.8923 -4.36872 -0.32773 0
M  V30 925 C 95.3933 -3.91788 -2.07406 0
M  V30 926 H 92.6133 -0.649153 -0.169826 0
M  V30 927 H 95.1573 -2.04106 0.12696 0
M  V30 928 H 93.3123 -3.31502 -2.00463 0
M  V30 929 H 93.7263 -5.18141 -0.814269 0
M  V30 930 H 95.2003 -4.91926 -2.50425 0
M  V30 931 H 95.6773 -3.27609 -2.92521 0
M  V30 932 H 96.2833 -4.00829 -1.42184 0
M  V30 933 N 94.5984 0.214957 -1.56127 0
M  V30 934 C 95.8444 0.939762 -1.79712 0
M  V30 935 C 96.1774 1.83723 -0.629247 0
M  V30 936 O 95.4524 1.90925 0.371197 0
M  V30 937 C 95.7354 1.77306 -3.13424 0
M  V30 938 C 95.5884 0.90164 -4.40671 0
M  V30 939 C 96.9074 2.74956 -3.43638 0
M  V30 940 H 94.0264 0.340214 -0.653776 0
M  V30 941 H 96.6684 0.20824 -1.88855 0
M  V30 942 H 94.8184 2.39673 -3.0576 0
M  V30 943 H 96.4904 0.294206 -4.60361 0
M  V30 944 H 94.7334 0.207368 -4.33304 0
M  V30 945 H 95.4044 1.51923 -5.30682 0
M  V30 946 H 97.8804 2.22724 -3.51473 0
M  V30 947 H 96.7564 3.30358 -4.38355 0
M  V30 948 H 97.0174 3.53023 -2.66134 0
M  V30 949 N 96.0765 1.50051 0.48192 0
M  V30 950 C 97.4925 1.37237 0.814756 0
M  V30 951 C 97.6925 0.420109 1.97072 0
M  V30 952 O 96.7485 -0.141246 2.52105 0
M  V30 953 C 98.0615 2.78375 1.13701 0
M  V30 954 C 99.6095 2.87213 1.2441 0
M  V30 955 C 100.084 4.29161 1.59954 0
M  V30 956 N 101.575 4.32061 1.66967 0
M  V30 957 C 102.31 5.38879 1.95952 0
M  V30 958 N 101.806 6.55918 2.23031 0
M  V30 959 N 103.599 5.26312 1.97363 0
M  V30 960 H 95.7505 2.10546 -0.28005 0
M  V30 961 H 98.0135 0.945921 -0.0627454 0
M  V30 962 H 97.7195 3.49845 0.360787 0
M  V30 963 H 97.5935 3.14941 2.07586 0
M  V30 964 H 99.9805 2.15969 2.01101 0
M  V30 965 H 100.061 2.54204 0.285299 0
M  V30 966 H 99.7055 5.00938 0.838067 0
M  V30 967 H 99.6355 4.59648 2.56966 0
M  V30 968 H 102.126 3.47661 1.48123 0
M  V30 969 H 102.439 7.33139 2.44391 0
M  V30 970 H 100.784 6.59112 2.20447 0
M  V30 971 H 103.975 4.33876 1.75697 0
M  V30 972 H 104.148 6.09649 2.19618 0
M  V30 973 N 97.5546 -0.734337 1.39446 0
M  V30 974 C 98.7796 -1.52866 1.40167 0
M  V30 975 C 99.2046 -1.881 -0.00171513 0
M  V30 976 O 98.5626 -1.51957 -0.988879 0
M  V30 977 C 98.6106 -2.79235 2.28167 0
M  V30 978 O 97.7146 -3.75185 1.71201 0
M  V30 979 H 97.0556 -0.461618 0.477289 0
M  V30 980 H 99.5856 -0.905949 1.8345 0
M  V30 981 H 99.5956 -3.27963 2.42702 0
M  V30 982 H 98.2706 -2.52923 3.30156 0
M  V30 983 H 96.8476 -3.33958 1.65912 0
M  V30 984 N 99.0327 -1.24633 -0.964593 0
M  V30 985 C 100.282 -1.08188 -1.7023 0
M  V30 986 C 100.595 0.37873 -1.91898 0
M  V30 987 O 101.801 0.663427 -2.6327 0
M  V30 988 C 100.257 -1.88773 -3.06419 0
M  V30 989 C 99.8647 -3.39263 -2.92582 0
M  V30 990 C 101.609 -1.80867 -3.84041 0
M  V30 991 C 99.5157 -4.1218 -4.24101 0
M  V30 992 H 98.4457 -0.401245 -0.638372 0
M  V30 993 H 101.097 -1.48742 -1.07462 0
M  V30 994 H 99.4787 -1.41035 -3.70034 0
M  V30 995 H 100.653 -3.94603 -2.37961 0
M  V30 996 H 98.9677 -3.48154 -2.28424 0
M  V30 997 H 101.565 -2.32646 -4.81435 0
M  V30 998 H 101.908 -0.774543 -4.09031 0
M  V30 999 H 102.441 -2.26301 -3.27159 0
M  V30 1000 H 99.1797 -5.15965 -4.04303 0
M  V30 1001 H 98.6997 -3.61626 -4.78526 0
M  V30 1002 H 100.379 -4.19349 -4.92702 0
M  V30 1003 N 100.511 1.16574 -1.06058 0
M  V30 1004 C 101.76 1.86385 -0.770944 0
M  V30 1005 C 102.073 1.82448 0.705129 0
M  V30 1006 O 103.279 2.47815 1.10905 0
M  V30 1007 C 101.735 3.34466 -1.32893 0
M  V30 1008 C 101.343 3.46883 -2.83507 0
M  V30 1009 C 103.087 4.09548 -1.11672 0
M  V30 1010 C 100.994 4.89036 -3.32562 0
M  V30 1011 H 99.9238 0.698181 -0.284709 0
M  V30 1012 H 102.575 1.31583 -1.27899 0
M  V30 1013 H 100.957 3.88859 -0.748662 0
M  V30 1014 H 102.131 3.02663 -3.47465 0
M  V30 1015 H 100.446 2.85232 -3.03368 0
M  V30 1016 H 103.043 5.14434 -1.45814 0
M  V30 1017 H 103.386 4.16264 -0.0549535 0
M  V30 1018 H 103.919 3.61387 -1.66265 0
M  V30 1019 H 100.658 4.87499 -4.38207 0
M  V30 1020 H 100.178 5.3389 -2.73351 0
M  V30 1021 H 101.857 5.57843 -3.2775 0
M  V30 1022 N 101.989 0.842826 1.3317 0
M  V30 1023 C 103.214 0.453129 2.02389 0
M  V30 1024 C 103.639 -0.939105 1.6298 0
M  V30 1025 O 102.997 -1.61472 0.8244 0
M  V30 1026 C 103.045 0.586094 3.55805 0
M  V30 1027 O 102.149 -0.386029 4.10589 0
M  V30 1028 H 101.49 0.183664 0.638094 0
M  V30 1029 H 104.02 1.13875 1.69981 0
M  V30 1030 H 104.03 0.469209 4.05293 0
M  V30 1031 H 102.705 1.6014 3.83833 0
M  V30 1032 H 101.282 -0.226371 3.72212 0
M  V30 1033 N 103.467 -1.45747 0.599634 0
M  V30 1034 C 104.4 -2.27547 -0.172552 0
M  V30 1035 C 105.378 -1.36657 -0.881116 0
M  V30 1036 O 106.562 -1.66081 -0.891595 0
M  V30 1037 C 103.689 -3.14829 -1.24903 0
M  V30 1038 C 102.735 -4.21603 -0.644465 0
M  V30 1039 S 103.568 -5.32754 0.541606 0
M  V30 1040 C 104.724 -6.23604 -0.535656 0
M  V30 1041 H 104.957 -2.92691 0.521468 0
M  V30 1042 H 102.49 -1.49473 0.386947 0
M  V30 1043 H 104.448 -3.65675 -1.86527 0
M  V30 1044 H 103.109 -2.48965 -1.91508 0
M  V30 1045 H 102.302 -4.82566 -1.45417 0
M  V30 1046 H 101.904 -3.73857 -0.103534 0
M  V30 1047 H 104.196 -6.62519 -1.41686 0
M  V30 1048 H 105.139 -7.0809 0.0376246 0
M  V30 1049 H 105.547 -5.58103 -0.84741 0
M  V30 1050 N 104.945 -0.338344 -1.53925 0
M  V30 1051 C 106.192 0.259758 -2.00827 0
M  V30 1052 C 106.52 1.50973 -1.22628 0
M  V30 1053 O 105.775 1.93379 -0.300509 0
M  V30 1054 C 106.074 0.62448 -3.51902 0
M  V30 1055 C 105.74 -0.528006 -4.47798 0
M  V30 1056 C 104.402 -0.844298 -4.73735 0
M  V30 1057 C 106.754 -1.30143 -5.0469 0
M  V30 1058 C 104.082 -1.93648 -5.53821 0
M  V30 1059 C 106.434 -2.38382 -5.85967 0
M  V30 1060 C 105.098 -2.70576 -6.10201 0
M  V30 1061 H 104.368 0.0950523 -0.734878 0
M  V30 1062 H 107.015 -0.465182 -1.85764 0
M  V30 1063 H 105.32 1.43006 -3.64769 0
M  V30 1064 H 107.017 1.09905 -3.85645 0
M  V30 1065 H 103.607 -0.271421 -4.2774 0
M  V30 1066 H 107.791 -1.07033 -4.84621 0
M  V30 1067 H 103.047 -2.19021 -5.70824 0
M  V30 1068 H 107.221 -2.98746 -6.29066 0
M  V30 1069 H 104.848 -3.55333 -6.72044 0
M  V30 1070 N 106.423 1.57458 -0.0668435 0
M  V30 1071 C 107.7 1.8469 0.644132 0
M  V30 1072 C 108.08 0.958343 1.88093 0
M  V30 1073 O 107.428 0.0233579 2.28488 0
M  V30 1074 C 107.638 3.34767 0.986509 0
M  V30 1075 C 108.986 4.02159 1.36212 0
M  V30 1076 O 110.01 3.39484 1.07839 0
M  V30 1077 O 108.869 5.12694 1.89227 0
M  V30 1078 H 105.963 0.762816 0.319437 0
M  V30 1079 H 108.509 1.6942 -0.0973986 0
M  V30 1080 H 107.281 3.91151 0.107883 0
M  V30 1081 H 106.904 3.55281 1.78497 0
M  V30 1082 N 107.901 -0.206675 1.56239 0
M  V30 1083 C 109.317 -0.557025 1.49564 0
M  V30 1084 C 109.517 -1.86424 0.764735 0
M  V30 1085 O 108.573 -2.50584 0.310491 0
M  V30 1086 C 109.886 -0.622478 2.94186 0
M  V30 1087 C 111.434 -0.712099 3.04792 0
M  V30 1088 C 111.909 -0.808767 4.50803 0
M  V30 1089 N 113.4 -0.8726 4.54907 0
M  V30 1090 C 114.135 -0.967365 5.65181 0
M  V30 1091 N 113.631 -1.02515 6.85173 0
M  V30 1092 N 115.424 -1.00366 5.53067 0
M  V30 1093 H 107.575 0.650943 2.02179 0
M  V30 1094 H 109.838 0.230387 0.919579 0
M  V30 1095 H 109.544 0.268727 3.50672 0
M  V30 1096 H 109.418 -1.4811 3.46905 0
M  V30 1097 H 111.805 -1.59374 2.48363 0
M  V30 1098 H 111.886 0.172489 2.55218 0
M  V30 1099 H 111.53 0.0684754 5.07854 0
M  V30 1100 H 111.46 -1.70899 4.98098 0
M  V30 1101 H 113.951 -0.837657 3.68499 0
M  V30 1102 H 114.264 -1.09765 7.64965 0
M  V30 1103 H 112.609 -0.994026 6.87855 0
M  V30 1104 H 115.8 -0.95527 4.58249 0
M  V30 1105 H 115.973 -1.07405 6.39037 0
M  V30 1106 N 109.379 -1.50304 -0.473955 0
M  V30 1107 C 110.289 -1.7174 -1.5982 0
M  V30 1108 C 111.305 -0.600457 -1.63311 0
M  V30 1109 O 112.481 -0.878441 -1.81233 0
M  V30 1110 C 109.546 -1.80427 -2.96052 0
M  V30 1111 C 108.607 -3.04148 -3.02972 0
M  V30 1112 C 107.84 -3.12411 -4.32706 0
M  V30 1113 O 108.063 -2.27542 -5.23049 0
M  V30 1114 O 106.997 -4.05113 -4.45159 0
M  V30 1115 H 110.823 -2.67035 -1.44657 0
M  V30 1116 H 108.408 -1.34366 -0.653148 0
M  V30 1117 H 110.29 -1.88338 -3.7697 0
M  V30 1118 H 108.965 -0.883156 -3.11419 0
M  V30 1119 H 107.872 -3.0174 -2.21142 0
M  V30 1120 H 109.205 -3.95829 -2.92541 0
M  V30 1121 N 110.857 0.726932 -1.39834 0
M  V30 1122 C 111.805 1.86235 -1.39353 0
M  V30 1123 C 112.799 1.67144 -0.275555 0
M  V30 1124 O 114.005 1.74387 -0.44601 0
M  V30 1125 H 110.38 0.613174 -0.43534 0
M  V30 1126 H 112.351 1.83756 -2.35109 0
M  V30 1127 C 111.1 3.23995 -1.26185 0
M  V30 1128 H 110.423 3.39285 -2.11484 0
M  V30 1129 H 111.863 4.03609 -1.29907 0
M  V30 1130 C 110.322 3.36888 0.0290018 0
M  V30 1131 O 110.852 3.89152 0.99619 0
M  V30 1132 N 109.058 2.90446 0.0947437 0
M  V30 1133 H 108.605 2.48102 -0.693035 0
M  V30 1134 H 108.563 2.99451 0.957932 0
M  V30 1135 N 112.336 1.25143 0.95797 0
M  V30 1136 C 113.283 1.05235 2.05412 0
M  V30 1137 C 114.253 -0.0374561 1.66058 0
M  V30 1138 O 115.438 0.119073 1.90428 0
M  V30 1139 C 112.578 0.673589 3.38462 0
M  V30 1140 C 111.691 1.8379 3.90954 0
M  V30 1141 C 110.826 1.40381 5.12315 0
M  V30 1142 C 109.865 2.53746 5.57027 0
M  V30 1143 N 109.002 2.11136 6.69601 0
M  V30 1144 H 113.842 1.99048 2.21774 0
M  V30 1145 H 111.379 0.991277 1.08683 0
M  V30 1146 H 113.337 0.434964 4.14926 0
M  V30 1147 H 111.967 -0.227554 3.21997 0
M  V30 1148 H 111.019 2.18992 3.11041 0
M  V30 1149 H 112.331 2.68937 4.20089 0
M  V30 1150 H 111.485 1.12464 5.96185 0
M  V30 1151 H 110.224 0.523015 4.84887 0
M  V30 1152 H 109.229 2.82412 4.71724 0
M  V30 1153 H 110.454 3.42398 5.86464 0
M  V30 1154 H 108.4 1.25468 6.4389 0
M  V30 1155 H 108.317 2.89832 6.98236 0
M  V30 1156 H 109.585 1.86385 7.56889 0
M  V30 1157 N 113.814 -1.1601 1.06675 0
M  V30 1158 C 114.777 -2.18724 0.685001 0
M  V30 1159 C 115.777 -1.58496 -0.271246 0
M  V30 1160 O 116.967 -1.74119 -0.0531156 0
M  V30 1161 C 114.099 -3.40899 0.00853648 0
M  V30 1162 H 115.292 -2.54011 1.59431 0
M  V30 1163 H 112.845 -1.30352 0.862441 0
M  V30 1164 H 113.58 -3.11173 -0.913337 0
M  V30 1165 H 113.365 -3.8587 0.696204 0
M  V30 1166 H 114.855 -4.16886 -0.24414 0
M  V30 1167 N 115.292 -0.849877 -1.32721 0
M  V30 1168 C 116.54 -0.450032 -1.97026 0
M  V30 1169 C 116.861 0.996604 -1.67609 0
M  V30 1170 O 116.131 1.6958 -0.980786 0
M  V30 1171 H 114.711 -0.163426 -0.728904 0
M  V30 1172 H 117.373 -1.08526 -1.6189 0
M  V30 1173 H 116.469 -0.591146 -3.0645 0
M  V30 1174 N 116.77 1.45427 -0.607355 0
M  V30 1175 C 118.016 2.0254 -0.102607 0
M  V30 1176 C 118.349 1.47478 1.26348 0
M  V30 1177 O 117.624 0.64939 1.83339 0
M  V30 1178 C 117.907 3.60044 -0.0634347 0
M  V30 1179 C 117.76 4.2544 -1.46017 0
M  V30 1180 C 119.079 4.35646 0.624514 0
M  V30 1181 H 116.198 0.73598 -0.0387607 0
M  V30 1182 H 118.84 1.73284 -0.779282 0
M  V30 1183 H 116.99 3.85101 0.512808 0
M  V30 1184 H 118.662 4.11569 -2.08347 0
M  V30 1185 H 116.905 3.83849 -2.02094 0
M  V30 1186 H 117.576 5.34342 -1.385 0
M  V30 1187 H 120.052 4.15882 0.134723 0
M  V30 1188 H 118.928 5.45376 0.621028 0
M  V30 1189 H 119.189 4.08501 1.69055 0
M  V30 1190 N 118.248 0.346503 1.53744 0
M  V30 1191 C 119.196 -0.52422 2.26616 0
M  V30 1192 C 120.19 -1.09948 1.28871 0
M  V30 1193 O 121.396 -1.04488 1.46568 0
M  V30 1194 H 117.771 -0.187743 0.728187 0
M  V30 1195 H 119.742 0.11239 2.98188 0
M  V30 1196 C 118.491 -1.66186 3.05414 0
M  V30 1197 H 117.814 -1.22848 3.80458 0
M  V30 1198 H 119.254 -2.24622 3.59612 0
M  V30 1199 C 117.713 -2.59302 2.1509 0
M  V30 1200 O 118.243 -3.61628 1.74895 0
M  V30 1201 N 116.449 -2.28055 1.8011 0
M  V30 1202 H 115.996 -1.44883 2.12994 0
M  V30 1203 H 115.954 -2.90615 1.19958 0
M  V30 1204 N 119.726 -1.57421 0.075193 0
M  V30 1205 C 120.973 -1.93618 -0.593146 0
M  V30 1206 C 121.301 -0.955484 -1.69413 0
M  V30 1207 O 120.556 0.0283251 -1.9568 0
M  V30 1208 C 120.855 -3.36428 -1.20626 0
M  V30 1209 C 120.521 -4.50307 -0.231078 0
M  V30 1210 C 119.183 -4.81186 0.0371936 0
M  V30 1211 C 121.535 -5.19374 0.435888 0
M  V30 1212 C 118.863 -5.78466 0.979461 0
M  V30 1213 C 121.215 -6.17665 1.3665 0
M  V30 1214 C 119.879 -6.46958 1.6432 0
M  V30 1215 H 119.149 -0.708499 -0.217047 0
M  V30 1216 H 121.796 -1.90937 0.146793 0
M  V30 1217 H 120.101 -3.35592 -2.02201 0
M  V30 1218 H 121.798 -3.61727 -1.73073 0
M  V30 1219 H 118.388 -4.26227 -0.450357 0
M  V30 1220 H 122.572 -4.95711 0.241748 0
M  V30 1221 H 117.828 -5.99487 1.20106 0
M  V30 1222 H 122.002 -6.70284 1.88924 0
M  V30 1223 H 119.629 -7.2215 2.37494 0
M  V30 1224 N 121.204 0.198386 -1.56346 0
M  V30 1225 C 122.429 0.939682 -1.84891 0
M  V30 1226 C 122.854 1.76202 -0.658369 0
M  V30 1227 O 122.212 1.76993 0.392851 0
M  V30 1228 C 122.26 1.81428 -3.11635 0
M  V30 1229 O 121.364 2.91265 -2.91956 0
M  V30 1230 H 120.705 0.264807 -0.608912 0
M  V30 1231 H 123.235 0.204695 -2.03573 0
M  V30 1232 H 123.245 2.21958 -3.42343 0
M  V30 1233 H 121.92 1.21004 -3.97908 0
M  V30 1234 H 120.497 2.54514 -2.72538 0
M  V30 1235 N 122.682 1.50554 0.465978 0
M  V30 1236 C 123.592 1.72585 1.58907 0
M  V30 1237 C 124.608 0.60911 1.6299 0
M  V30 1238 O 125.784 0.88804 1.80765 0
M  V30 1239 C 122.849 1.81995 2.95091 0
M  V30 1240 C 121.91 3.05751 3.01355 0
M  V30 1241 C 121.143 3.14702 4.31043 0
M  V30 1242 O 121.366 2.30313 5.21835 0
M  V30 1243 O 120.3 4.07468 4.43005 0
M  V30 1244 H 124.126 2.67799 1.43239 0
M  V30 1245 H 121.711 1.34711 0.646013 0
M  V30 1246 H 123.593 1.90335 3.75966 0
M  V30 1247 H 122.268 0.899659 3.10947 0
M  V30 1248 H 121.175 3.02908 2.19539 0
M  V30 1249 H 122.508 3.97375 2.90437 0
M  V30 1250 N 124.16 -0.719506 1.40217 0
M  V30 1251 C 125.407 -1.47933 1.38283 0
M  V30 1252 C 125.735 -1.94493 -0.0161536 0
M  V30 1253 O 124.99 -1.68224 -0.999956 0
M  V30 1254 C 125.289 -2.72271 2.31524 0
M  V30 1255 C 124.955 -2.44496 3.78857 0
M  V30 1256 C 123.617 -2.36631 4.18998 0
M  V30 1257 C 125.969 -2.21104 4.71977 0
M  V30 1258 C 123.297 -2.03437 5.503 0
M  V30 1259 C 125.649 -1.89423 6.03574 0
M  V30 1260 C 124.313 -1.80038 6.42762 0
M  V30 1261 H 123.583 -0.541325 0.506012 0
M  V30 1262 H 126.23 -0.824502 1.72842 0
M  V30 1263 H 124.535 -3.42572 1.90137 0
M  V30 1264 H 126.232 -3.30348 2.27313 0
M  V30 1265 H 122.822 -2.51503 3.47051 0
M  V30 1266 H 127.006 -2.26139 4.41786 0
M  V30 1267 H 122.262 -1.94705 5.79569 0
M  V30 1268 H 126.436 -1.70336 6.75247 0
M  V30 1269 H 124.063 -1.54083 7.44421 0
M  V30 1270 N 125.638 -1.25649 -0.95132 0
M  V30 1271 C 126.866 -1.13343 -1.73092 0
M  V30 1272 C 127.281 0.312434 -1.86197 0
M  V30 1273 O 126.638 1.21465 -1.36207 0
M  V30 1274 C 126.689 -1.78602 -3.14299 0
M  V30 1275 O 126.41 -3.17537 -3.01831 0
M  V30 1276 C 127.911 -1.72119 -4.08522 0
M  V30 1277 H 125.131 -0.395181 -0.542285 0
M  V30 1278 H 127.675 -1.66076 -1.19328 0
M  V30 1279 H 125.83 -1.29832 -3.64996 0
M  V30 1280 H 126.244 -3.49676 -3.90931 0
M  V30 1281 H 127.718 -2.22435 -5.052 0
M  V30 1282 H 128.195 -0.685635 -4.33815 0
M  V30 1283 H 128.801 -2.20393 -3.63741 0
M  V30 1284 N 127.117 1.15442 -1.07289 0
M  V30 1285 C 128.365 1.85845 -0.794096 0
M  V30 1286 C 128.686 1.82692 0.681809 0
M  V30 1287 O 127.956 1.26741 1.49377 0
M  V30 1288 H 126.536 0.688089 -0.290763 0
M  V30 1289 H 129.198 1.39947 -1.3565 0
M  V30 1290 H 128.294 2.91001 -1.12804 0
M  V30 1291 N 128.595 0.856903 1.32268 0
M  V30 1292 C 129.841 0.462069 1.97466 0
M  V30 1293 C 130.174 -0.980298 1.67642 0
M  V30 1294 O 129.449 -1.68824 0.965858 0
M  V30 1295 C 129.732 0.704336 3.53145 0
M  V30 1296 C 129.585 2.19529 3.9259 0
M  V30 1297 C 130.904 0.1622 4.39801 0
M  V30 1298 H 128.023 0.169357 0.717278 0
M  V30 1299 H 130.665 1.07574 1.56614 0
M  V30 1300 H 128.815 0.181999 3.88073 0
M  V30 1301 H 130.487 2.78387 3.67829 0
M  V30 1302 H 128.73 2.67292 3.41668 0
M  V30 1303 H 129.401 2.31549 5.01088 0
M  V30 1304 H 131.877 0.608905 4.11621 0
M  V30 1305 H 130.753 0.361265 5.4771 0
M  V30 1306 H 131.014 -0.935158 4.32096 0
M  V30 1307 N 130.073 -1.45103 0.615059 0
M  V30 1308 C 131.319 -2.03035 0.121804 0
M  V30 1309 C 131.674 -1.47393 -1.23665 0
M  V30 1310 O 130.967 -0.642061 -1.80522 0
M  V30 1311 C 131.161 -3.57386 0.0318797 0
M  V30 1312 C 130.99 -4.28 1.38007 0
M  V30 1313 C 129.76 -4.65624 1.9627 0
M  V30 1314 C 131.958 -4.5948 2.31047 0
M  V30 1315 N 129.94 -5.21132 3.24492 0
M  V30 1316 C 131.311 -5.159 3.43872 0
M  V30 1317 C 133.366 -4.41423 2.30326 0
M  V30 1318 C 132.069 -5.56165 4.5615 0
M  V30 1319 C 134.095 -4.82726 3.41658 0
M  V30 1320 C 133.457 -5.39245 4.53205 0
M  V30 1321 H 129.556 -0.77702 0.0881159 0
M  V30 1322 H 132.14 -1.76819 0.815044 0
M  V30 1323 H 130.311 -3.83247 -0.630599 0
M  V30 1324 H 132.043 -4.01976 -0.468721 0
M  V30 1325 H 128.798 -4.49421 1.49392 0
M  V30 1326 H 129.222 -5.53377 3.90004 0
M  V30 1327 H 133.864 -3.97033 1.45343 0
M  V30 1328 H 131.582 -5.99517 5.41854 0
M  V30 1329 H 135.168 -4.7048 3.42257 0
M  V30 1330 H 134.048 -5.70616 5.37929 0
M  V30 1331 N 131.551 -0.354651 -1.53558 0
M  V30 1332 C 132.498 0.496968 -2.25386 0
M  V30 1333 C 133.468 1.0865 -1.25636 0
M  V30 1334 O 134.653 1.12104 -1.54394 0
M  V30 1335 C 131.793 1.63637 -3.03837 0
M  V30 1336 C 130.906 1.07307 -4.18461 0
M  V30 1337 C 130.041 2.18068 -4.84376 0
M  V30 1338 C 129.08 1.59147 -5.91049 0
M  V30 1339 N 128.217 2.63695 -6.50699 0
M  V30 1340 H 133.057 -0.122075 -2.9775 0
M  V30 1341 H 130.594 -0.0720154 -1.46924 0
M  V30 1342 H 132.552 2.30734 -3.47589 0
M  V30 1343 H 131.182 2.22623 -2.33749 0
M  V30 1344 H 130.234 0.292708 -3.79272 0
M  V30 1345 H 131.546 0.602193 -4.95152 0
M  V30 1346 H 130.7 2.93007 -5.31255 0
M  V30 1347 H 129.439 2.68504 -4.07133 0
M  V30 1348 H 128.444 0.827175 -5.43542 0
M  V30 1349 H 129.669 1.09549 -6.70206 0
M  V30 1350 H 127.615 3.13365 -5.76315 0
M  V30 1351 H 127.532 2.21263 -7.22896 0
M  V30 1352 H 128.8 3.3837 -7.02229 0
M  V30 1353 N 133.029 1.57378 -0.0835403 0
M  V30 1354 C 134.259 1.97975 0.590713 0
M  V30 1355 C 134.667 0.961083 1.62972 0
M  V30 1356 O 134.01 -0.0590879 1.83605 0
M  V30 1357 C 134.072 3.34915 1.3066 0
M  V30 1358 C 133.736 4.55069 0.419698 0
M  V30 1359 C 134.733 5.18868 -0.32749 0
M  V30 1360 C 132.418 5.0114 0.341137 0
M  V30 1361 C 134.412 6.27098 -1.14134 0
M  V30 1362 C 132.099 6.0924 -0.476374 0
M  V30 1363 C 133.097 6.72083 -1.21627 0
M  V30 1364 O 132.785 7.781 -2.02028 0
M  V30 1365 H 132.517 0.655818 0.163947 0
M  V30 1366 H 135.071 2.04807 -0.156021 0
M  V30 1367 H 133.301 3.24733 2.09966 0
M  V30 1368 H 134.99 3.60037 1.87424 0
M  V30 1369 H 135.756 4.84211 -0.276459 0
M  V30 1370 H 131.635 4.51996 0.90668 0
M  V30 1371 H 135.179 6.7608 -1.71935 0
M  V30 1372 H 131.076 6.43329 -0.528927 0
M  V30 1373 H 131.844 7.95034 -1.94586 0
M  V30 1374 N 134.507 -0.190092 1.56449 0
M  V30 1375 C 135.756 -0.907912 1.80111 0
M  V30 1376 C 136.069 -1.84214 0.657619 0
M  V30 1377 O 137.275 -2.60094 0.778663 0
M  V30 1378 C 135.731 -1.66485 3.19078 0
M  V30 1379 C 135.339 -0.7752 4.41242 0
M  V30 1380 C 137.083 -2.37201 3.52045 0
M  V30 1381 C 134.99 -1.53129 5.71231 0
M  V30 1382 H 133.92 -0.34276 0.671589 0
M  V30 1383 H 136.571 -0.161109 1.82791 0
M  V30 1384 H 134.953 -2.45572 3.10661 0
M  V30 1385 H 136.127 -0.0226298 4.60794 0
M  V30 1386 H 134.442 -0.178627 4.16017 0
M  V30 1387 H 137.039 -2.94329 4.46402 0
M  V30 1388 H 137.382 -3.11632 2.76028 0
M  V30 1389 H 137.915 -1.65075 3.61932 0
M  V30 1390 H 134.654 -0.82967 6.50228 0
M  V30 1391 H 134.174 -2.25767 5.55688 0
M  V30 1392 H 135.853 -2.08377 6.12526 0
M  V30 1393 N 135.985 -1.50799 -0.457987 0
M  V30 1394 C 137.213 -1.66218 -1.23203 0
M  V30 1395 C 137.628 -0.350894 -1.85511 0
M  V30 1396 O 136.985 0.668546 -1.69814 0
M  V30 1397 C 137.036 -2.76291 -2.33121 0
M  V30 1398 O 136.757 -4.02338 -1.73366 0
M  V30 1399 C 138.258 -3.028 -3.2377 0
M  V30 1400 H 135.478 -0.558361 -0.372121 0
M  V30 1401 H 138.022 -1.97099 -0.545179 0
M  V30 1402 H 136.177 -2.48068 -2.97558 0
M  V30 1403 H 136.591 -4.63312 -2.4585 0
M  V30 1404 H 138.065 -3.8345 -3.97077 0
M  V30 1405 H 138.542 -2.14385 -3.83322 0
M  V30 1406 H 139.148 -3.32604 -2.65056 0
M  V30 1407 N 137.463 0.71206 -1.40597 0
M  V30 1408 C 138.74 1.46536 -1.29563 0
M  V30 1409 C 139.12 2.10931 0.0844217 0
M  V30 1410 O 138.468 2.00418 1.0975 0
M  V30 1411 C 138.678 2.49821 -2.43701 0
M  V30 1412 C 140.026 3.15551 -2.841 0
M  V30 1413 O 141.05 2.60142 -2.4332 0
M  V30 1414 O 139.909 4.15867 -3.54566 0
M  V30 1415 H 137.003 0.651801 -0.509004 0
M  V30 1416 H 139.549 0.743935 -1.52524 0
M  V30 1417 H 138.321 2.00778 -3.35863 0
M  V30 1418 H 137.944 3.29495 -2.22528 0
M  V30 1419 N 138.941 1.26152 0.944643 0
M  V30 1420 C 140.187 1.12665 1.69346 0
M  V30 1421 C 140.542 -0.3273 1.89596 0
M  V30 1422 O 139.835 -1.23717 1.46303 0
M  V30 1423 C 140.029 1.82541 3.07268 0
M  V30 1424 C 139.858 3.34582 3.00475 0
M  V30 1425 C 138.628 4.03863 3.03681 0
M  V30 1426 C 140.826 4.30828 2.80877 0
M  V30 1427 N 138.808 5.42603 2.87151 0
M  V30 1428 C 140.179 5.5672 2.7288 0
M  V30 1429 C 142.234 4.21122 2.65633 0
M  V30 1430 C 140.937 6.74013 2.51196 0
M  V30 1431 C 142.963 5.38118 2.45323 0
M  V30 1432 C 142.325 6.62955 2.38055 0
M  V30 1433 H 138.424 0.467041 0.627214 0
M  V30 1434 H 141.008 1.59391 1.11815 0
M  V30 1435 H 139.179 1.38296 3.62945 0
M  V30 1436 H 140.911 1.61708 3.70989 0
M  V30 1437 H 137.666 3.55198 3.1326 0
M  V30 1438 H 138.09 6.15443 2.82063 0
M  V30 1439 H 142.732 3.25344 2.70021 0
M  V30 1440 H 140.45 7.6989 2.4555 0
M  V30 1441 H 144.036 5.32475 2.34439 0
M  V30 1442 H 142.916 7.51959 2.22546 0
M  V30 1443 N 140.419 -1.14872 1.07899 0
M  V30 1444 C 141.351 -2.19425 0.662231 0
M  V30 1445 C 142.364 -1.60231 -0.288079 0
M  V30 1446 O 143.553 -1.78336 -0.076534 0
M  V30 1447 C 140.653 -3.38867 -0.0470695 0
M  V30 1448 C 139.826 -4.27597 0.920831 0
M  V30 1449 C 138.885 -5.25616 0.247805 0
M  V30 1450 O 137.911 -5.62189 0.890599 0
M  V30 1451 N 139.113 -5.71746 -1.00435 0
M  V30 1452 H 141.878 -2.55797 1.56166 0
M  V30 1453 H 139.439 -1.30042 0.964404 0
M  V30 1454 H 141.431 -4.01497 -0.50813 0
M  V30 1455 H 140.001 -3.00864 -0.848523 0
M  V30 1456 H 139.221 -3.61982 1.56087 0
M  V30 1457 H 140.509 -4.83748 1.57688 0
M  V30 1458 H 139.907 -5.44153 -1.54642 0
M  V30 1459 H 138.464 -6.36389 -1.40899 0
M  V30 1460 N 141.898 -0.863906 -1.31812 0
M  V30 1461 C 142.846 -0.30422 -2.30602 0
M  V30 1462 C 143.84 0.577419 -1.59255 0
M  V30 1463 O 145.046 0.464194 -1.73912 0
M  V30 1464 H 141.421 -0.0796877 -0.747766 0
M  V30 1465 H 143.392 -1.15148 -2.75288 0
M  V30 1466 C 142.141 0.484617 -3.44306 0
M  V30 1467 H 141.464 -0.18451 -3.99374 0
M  V30 1468 H 142.904 0.841664 -4.15562 0
M  V30 1469 C 141.363 1.6735 -2.92396 0
M  V30 1470 O 141.893 2.77273 -2.90659 0
M  V30 1471 N 140.099 1.50362 -2.48676 0
M  V30 1472 H 139.646 0.609402 -2.50288 0
M  V30 1473 H 139.604 2.30051 -2.14299 0
M  V30 1474 N 143.376 1.44774 -0.622745 0
M  V30 1475 C 144.622 2.0242 -0.124083 0
M  V30 1476 C 144.955 1.4881 1.24777 0
M  V30 1477 O 144.23 0.668799 1.8264 0
M  V30 1478 C 144.513 3.59957 -0.101619 0
M  V30 1479 C 144.366 4.23867 -1.50521 0
M  V30 1480 C 145.685 4.36284 0.578272 0
M  V30 1481 H 142.804 0.735528 -0.0465645 0
M  V30 1482 H 145.446 1.72447 -0.797617 0
M  V30 1483 H 143.596 3.85623 0.471934 0
M  V30 1484 H 145.268 4.09336 -2.12701 0
M  V30 1485 H 143.511 3.81684 -2.06154 0
M  V30 1486 H 144.182 5.32843 -1.4416 0
M  V30 1487 H 146.658 4.16001 0.0906057 0
M  V30 1488 H 145.534 5.46004 0.563149 0
M  V30 1489 H 145.795 4.10271 1.64713 0
M  V30 1490 N 144.854 0.36279 1.53368 0
M  V30 1491 C 146.101 -0.227776 2.01215 0
M  V30 1492 C 146.429 -1.49003 1.25014 0
M  V30 1493 O 145.684 -1.92876 0.331236 0
M  V30 1494 C 145.983 -0.568417 3.52851 0
M  V30 1495 C 145.649 0.59918 4.46901 0
M  V30 1496 C 144.311 0.919559 4.72332 0
M  V30 1497 C 146.663 1.38156 5.02556 0
M  V30 1498 C 143.991 2.02434 5.5067 0
M  V30 1499 C 146.343 2.47674 5.821 0
M  V30 1500 C 145.007 2.8025 6.05819 0
M  V30 1501 H 144.277 -0.083349 0.736297 0
M  V30 1502 H 146.924 0.494677 1.85001 0
M  V30 1503 H 145.229 -1.37185 3.66998 0
M  V30 1504 H 146.926 -1.03756 3.87344 0
M  V30 1505 H 143.516 0.339437 4.27254 0
M  V30 1506 H 147.7 1.14729 4.82857 0
M  V30 1507 H 142.956 2.28075 5.67267 0
M  V30 1508 H 147.13 3.08716 6.24234 0
M  V30 1509 H 144.757 3.65979 6.66306 0
M  V30 1510 N 146.332 -1.57332 0.0918853 0
M  V30 1511 C 147.748 -1.57389 -0.264766 0
M  V30 1512 C 147.948 -1.10281 -1.68643 0
M  V30 1513 O 147.004 -0.777801 -2.40222 0
M  V30 1514 C 148.317 -3.00648 -0.0561195 0
M  V30 1515 C 149.865 -3.12754 -0.124116 0
M  V30 1516 C 150.34 -4.57965 0.0564972 0
M  V30 1517 N 151.831 -4.632 0.00155611 0
M  V30 1518 C 152.566 -5.73281 0.116598 0
M  V30 1519 N 152.062 -6.92208 0.286294 0
M  V30 1520 N 153.855 -5.6207 0.0580973 0
M  V30 1521 H 146.006 -1.86262 1.02079 0
M  V30 1522 H 148.269 -0.859579 0.399786 0
M  V30 1523 H 147.975 -3.393 0.925669 0
M  V30 1524 H 147.849 -3.68623 -0.799823 0
M  V30 1525 H 150.236 -2.73976 -1.09641 0
M  V30 1526 H 150.317 -2.47377 0.651024 0
M  V30 1527 H 149.961 -4.97436 1.02564 0
M  V30 1528 H 149.891 -5.21399 -0.738297 0
M  V30 1529 H 152.382 -3.77686 -0.127192 0
M  V30 1530 H 152.695 -7.71934 0.365676 0
M  V30 1531 H 151.04 -6.94254 0.32192 0
M  V30 1532 H 154.231 -4.68043 -0.0733204 0
M  V30 1533 H 154.404 -6.47824 0.151203 0
M  V30 1534 N 147.81 0.181792 -1.56548 0
M  V30 1535 C 149.038 0.915947 -1.85521 0
M  V30 1536 C 149.453 1.76282 -0.676016 0
M  V30 1537 O 148.81 1.79012 0.355077 0
M  V30 1538 C 148.861 1.80126 -3.13427 0
M  V30 1539 O 148.582 0.988562 -4.26801 0
M  V30 1540 C 150.083 2.64597 -3.55673 0
M  V30 1541 H 147.303 0.26661 -0.61576 0
M  V30 1542 H 149.847 0.185039 -2.03661 0
M  V30 1543 H 148.002 2.48563 -2.97145 0
M  V30 1544 H 148.416 1.59308 -4.99721 0
M  V30 1545 H 149.89 3.2235 -4.48101 0
M  V30 1546 H 150.367 3.38958 -2.79292 0
M  V30 1547 H 150.973 2.0151 -3.74532 0
M  V30 1548 N 149.288 1.51039 0.449983 0
M  V30 1549 C 150.518 1.66627 1.22143 0
M  V30 1550 C 150.926 0.357776 1.85786 0
M  V30 1551 O 150.269 -0.672424 1.70951 0
M  V30 1552 C 150.331 2.71562 2.35573 0
M  V30 1553 C 149.995 4.14526 1.92399 0
M  V30 1554 C 150.992 4.99717 1.43453 0
M  V30 1555 C 148.677 4.60559 2.00475 0
M  V30 1556 C 150.671 6.28998 1.03155 0
M  V30 1557 C 148.358 5.8984 1.59788 0
M  V30 1558 C 149.356 6.73886 1.11208 0
M  V30 1559 O 149.044 8.0075 0.710935 0
M  V30 1560 H 148.776 0.562635 0.374724 0
M  V30 1561 H 151.33 1.98146 0.541036 0
M  V30 1562 H 149.56 2.3533 3.06849 0
M  V30 1563 H 151.249 2.76156 2.97478 0
M  V30 1564 H 152.015 4.65361 1.36618 0
M  V30 1565 H 147.894 3.95273 2.37235 0
M  V30 1566 H 151.438 6.9455 0.651663 0
M  V30 1567 H 147.335 6.23713 1.66289 0
M  V30 1568 H 148.103 8.142 0.837913 0
M  V30 1569 N 150.766 -0.704594 1.40972 0
M  V30 1570 C 152.043 -1.45847 1.30338 0
M  V30 1571 C 152.423 -2.10973 -0.0732344 0
M  V30 1572 O 151.771 -2.00997 -1.08685 0
M  V30 1573 C 151.981 -2.48525 2.45023 0
M  V30 1574 C 153.329 -3.1404 2.8577 0
M  V30 1575 O 154.353 -2.58848 2.44696 0
M  V30 1576 O 153.212 -4.13981 3.56766 0
M  V30 1577 H 150.306 -0.649092 0.512454 0
M  V30 1578 H 152.852 -0.735836 1.52917 0
M  V30 1579 H 151.624 -1.98994 3.36923 0
M  V30 1580 H 151.247 -3.2831 2.24272 0
M  V30 1581 N 152.244 -1.26651 -0.937939 0
M  V30 1582 C 153.66 -1.03834 -1.21205 0
M  V30 1583 C 153.86 0.234502 -2.00131 0
M  V30 1584 O 152.916 0.942767 -2.3424 0
M  V30 1585 C 154.229 -2.27167 -1.97017 0
M  V30 1586 C 155.777 -2.32101 -2.09996 0
M  V30 1587 C 156.252 -3.55136 -2.8921 0
M  V30 1588 N 157.743 -3.55632 -2.96783 0
M  V30 1589 C 158.478 -4.475 -3.58512 0
M  V30 1590 N 157.974 -5.4966 -4.21717 0
M  V30 1591 N 159.767 -4.35145 -3.55816 0
M  V30 1592 H 151.918 -2.08398 -0.410391 0
M  V30 1593 H 154.181 -0.916031 -0.244114 0
M  V30 1594 H 153.887 -3.19765 -1.46434 0
M  V30 1595 H 153.761 -2.31672 -2.97671 0
M  V30 1596 H 156.148 -1.40015 -2.59769 0
M  V30 1597 H 156.229 -2.31605 -1.08594 0
M  V30 1598 H 155.873 -4.47553 -2.40123 0
M  V30 1599 H 155.803 -3.5288 -3.90875 0
M  V30 1600 H 158.294 -2.81743 -2.51852 0
M  V30 1601 H 158.607 -6.15943 -4.66727 0
M  V30 1602 H 156.952 -5.53514 -4.20294 0
M  V30 1603 H 160.143 -3.5455 -3.05634 0
M  V30 1604 H 160.316 -5.06934 -4.03636 0
M  V30 1605 N 153.722 1.14298 -1.08507 0
M  V30 1606 C 154.999 1.81544 -0.728088 0
M  V30 1607 C 155.379 1.95838 0.78808 0
M  V30 1608 O 154.727 1.51904 1.70697 0
M  V30 1609 C 154.937 3.17169 -1.45619 0
M  V30 1610 C 156.285 3.9265 -1.61591 0
M  V30 1611 O 157.309 3.26762 -1.41793 0
M  V30 1612 O 156.168 5.10807 -1.94263 0
M  V30 1613 H 153.262 0.78491 -0.260471 0
M  V30 1614 H 155.808 1.21307 -1.18671 0
M  V30 1615 H 154.58 3.01934 -2.489 0
M  V30 1616 H 154.203 3.851 -0.989124 0
M  V30 1617 N 155.201 0.870884 1.31352 0
M  V30 1618 C 156.149 0.316445 2.30437 0
M  V30 1619 C 157.143 -0.568965 1.59559 0
M  V30 1620 O 158.349 -0.454964 1.74155 0
M  V30 1621 H 154.724 0.0836521 0.747333 0
M  V30 1622 H 156.695 1.16606 2.74673 0
M  V30 1623 C 155.444 -0.46635 3.44558 0
M  V30 1624 H 154.767 0.205687 3.99271 0
M  V30 1625 H 156.207 -0.819614 4.16003 0
M  V30 1626 C 154.666 -1.65797 2.9328 0
M  V30 1627 O 155.196 -2.75728 2.92125 0
M  V30 1628 N 153.402 -1.49041 2.4947 0
M  V30 1629 H 152.949 -0.59612 2.50608 0
M  V30 1630 H 152.907 -2.28911 2.15516 0
M  V30 1631 N 156.679 -1.44442 0.630414 0
M  V30 1632 C 157.904 -2.06927 0.139944 0
M  V30 1633 C 158.329 -1.46795 -1.17613 0
M  V30 1634 O 157.687 -0.569144 -1.72135 0
M  V30 1635 C 157.735 -3.6058 0.0379581 0
M  V30 1636 O 156.839 -3.99937 -1.0062 0
M  V30 1637 H 156.18 -0.658608 0.0844483 0
M  V30 1638 H 158.71 -1.85327 0.866891 0
M  V30 1639 H 158.72 -4.07714 -0.152856 0
M  V30 1640 H 157.395 -4.03728 0.998809 0
M  V30 1641 H 155.972 -3.64436 -0.79001 0
M  V30 1642 N 158.157 -0.370918 -1.53173 0
M  V30 1643 C 159.405 0.216673 -2.00935 0
M  V30 1644 C 159.726 1.48845 -1.25977 0
M  V30 1645 O 158.996 1.92286 -0.374551 0
M  V30 1646 H 157.576 0.0830565 -0.742368 0
M  V30 1647 H 160.238 -0.49838 -1.8842 0
M  V30 1648 H 159.334 0.439893 -3.08984 0
M  V30 1649 N 159.635 1.57281 -0.100228 0
M  V30 1650 C 160.568 2.09976 0.893612 0
M  V30 1651 C 161.546 1.01155 1.27304 0
M  V30 1652 O 162.73 1.28687 1.37739 0
M  V30 1653 C 159.857 2.58098 2.19324 0
M  V30 1654 C 158.903 3.78626 1.96328 0
M  V30 1655 S 159.736 5.21959 1.19662 0
M  V30 1656 C 160.892 5.73435 2.50844 0
M  V30 1657 H 161.125 2.93946 0.44534 0
M  V30 1658 H 158.658 1.53985 0.113167 0
M  V30 1659 H 160.616 2.8648 2.94005 0
M  V30 1660 H 159.277 1.74344 2.61272 0
M  V30 1661 H 158.47 4.10382 2.92579 0
M  V30 1662 H 158.072 3.50763 1.29775 0
M  V30 1663 H 160.364 5.82015 3.46792 0
M  V30 1664 H 161.307 6.7185 2.23659 0
M  V30 1665 H 161.715 5.01395 2.59352 0
M  V30 1666 N 161.113 -0.173488 1.56642 0
M  V30 1667 C 162.362 -0.888758 1.81063 0
M  V30 1668 C 162.675 -1.83506 0.67712 0
M  V30 1669 O 163.881 -2.59254 0.806206 0
M  V30 1670 C 162.337 -1.63091 3.20826 0
M  V30 1671 C 161.945 -0.728357 4.4204 0
M  V30 1672 C 163.689 -2.33454 3.54541 0
M  V30 1673 C 161.596 -1.47062 5.72823 0
M  V30 1674 H 160.526 -0.335618 0.675186 0
M  V30 1675 H 163.177 -0.141712 1.82952 0
M  V30 1676 H 161.559 -2.42263 3.13248 0
M  V30 1677 H 162.733 0.0262449 4.60793 0
M  V30 1678 H 161.048 -0.134492 4.16183 0
M  V30 1679 H 163.645 -2.89578 4.49498 0
M  V30 1680 H 163.988 -3.08687 2.79317 0
M  V30 1681 H 164.521 -1.61227 3.63663 0
M  V30 1682 H 161.26 -0.760658 6.51072 0
M  V30 1683 H 160.78 -2.1986 5.58052 0
M  V30 1684 H 162.459 -2.01868 6.14702 0
M  V30 1685 N 162.591 -1.51276 -0.441967 0
M  V30 1686 C 163.868 -1.54252 -1.20273 0
M  V30 1687 C 164.248 -0.30408 -2.08898 0
M  V30 1688 O 163.596 0.711084 -2.17154 0
M  V30 1689 C 163.806 -2.85406 -2.00859 0
M  V30 1690 C 165.154 -3.37181 -2.58059 0
M  V30 1691 O 166.178 -2.86925 -2.11074 0
M  V30 1692 O 165.037 -4.24858 -3.43741 0
M  V30 1693 H 162.131 -0.619969 -0.547328 0
M  V30 1694 H 164.677 -1.63586 -0.451413 0
M  V30 1695 H 163.449 -3.67003 -1.35736 0
M  V30 1696 H 163.072 -2.79213 -2.83065 0
M  V30 1697 N 164.069 0.697108 -1.41344 0
M  V30 1698 C 165.016 1.81106 -1.43071 0
M  V30 1699 C 165.986 1.63632 -0.285275 0
M  V30 1700 O 167.171 1.84504 -0.486091 0
M  V30 1701 C 164.311 3.18975 -1.31715 0
M  V30 1702 C 163.424 3.47892 -2.56115 0
M  V30 1703 C 162.559 4.75367 -2.37064 0
M  V30 1704 C 161.598 4.97247 -3.56948 0
M  V30 1705 N 160.735 6.15947 -3.36977 0
M  V30 1706 H 165.575 1.78965 -2.38276 0
M  V30 1707 H 163.112 0.873975 -1.18322 0
M  V30 1708 H 165.07 3.98615 -1.23133 0
M  V30 1709 H 163.7 3.20297 -0.401183 0
M  V30 1710 H 162.752 2.62669 -2.75153 0
M  V30 1711 H 164.064 3.59962 -3.45295 0
M  V30 1712 H 163.218 5.63059 -2.25941 0
M  V30 1713 H 161.957 4.65541 -1.45338 0
M  V30 1714 H 160.962 4.08004 -3.68527 0
M  V30 1715 H 162.187 5.08934 -4.49626 0
M  V30 1716 H 160.133 6.07336 -2.47949 0
M  V30 1717 H 160.05 6.28777 -4.19732 0
M  V30 1718 H 161.318 7.06377 -3.29623 0
M  V30 1719 N 165.547 1.27147 0.931209 0
M  V30 1720 C 166.495 1.09398 2.05268 0
M  V30 1721 C 167.489 0.0180591 1.6939 0
M  V30 1722 O 168.695 0.17551 1.79142 0
M  V30 1723 H 165.07 0.336986 0.672268 0
M  V30 1724 H 167.041 2.04416 2.17386 0
M  V30 1725 C 165.79 0.75424 3.39421 0
M  V30 1726 H 165.113 1.57404 3.67511 0
M  V30 1727 H 166.553 0.669903 4.18674 0
M  V30 1728 C 165.012 -0.541197 3.32525 0
M  V30 1729 O 165.542 -1.57664 3.69466 0
M  V30 1730 N 163.748 -0.535517 2.85623 0
M  V30 1731 H 163.295 0.307511 2.55758 0
M  V30 1732 H 163.253 -1.40236 2.81392 0
M  V30 1733 N 167.025 -1.13721 1.09112 0
M  V30 1734 C 167.935 -2.22638 0.73957 0
M  V30 1735 C 168.951 -1.72091 -0.257068 0
M  V30 1736 O 170.127 -2.01155 -0.0992154 0
M  V30 1737 C 167.192 -3.46322 0.16191 0
M  V30 1738 C 166.253 -4.11775 1.21408 0
M  V30 1739 C 165.486 -5.29555 0.663891 0
M  V30 1740 O 165.709 -5.68077 -0.514274 0
M  V30 1741 O 164.643 -5.84973 1.41738 0
M  V30 1742 H 168.469 -2.55074 1.64836 0
M  V30 1743 H 166.054 -1.21791 0.865289 0
M  V30 1744 H 167.936 -4.21107 -0.157073 0
M  V30 1745 H 166.611 -3.15593 -0.719932 0
M  V30 1746 H 165.518 -3.3883 1.58571 0
M  V30 1747 H 166.851 -4.46627 2.06845 0
M  V30 1748 N 168.503 -0.877838 -1.30888 0
M  V30 1749 C 169.433 -0.35534 -2.3078 0
M  V30 1750 C 170.414 0.557994 -1.60687 0
M  V30 1751 O 171.599 0.473355 -1.88343 0
M  V30 1752 C 168.729 0.437221 -3.44537 0
M  V30 1753 C 167.683 -0.383715 -4.26276 0
M  V30 1754 C 167.009 0.535014 -5.32017 0
M  V30 1755 C 168.309 -1.62201 -4.96476 0
M  V30 1756 H 170.003 -1.19007 -2.74732 0
M  V30 1757 H 167.549 -0.573698 -1.32078 0
M  V30 1758 H 169.502 0.813334 -4.13477 0
M  V30 1759 H 168.226 1.30553 -2.99372 0
M  V30 1760 H 166.885 -0.741874 -3.59015 0
M  V30 1761 H 166.533 1.40083 -4.831 0
M  V30 1762 H 166.233 -0.0104211 -5.87599 0
M  V30 1763 H 167.757 0.907799 -6.03814 0
M  V30 1764 H 169.171 -1.31689 -5.5797 0
M  V30 1765 H 167.568 -2.10711 -5.61891 0
M  V30 1766 H 168.638 -2.37044 -4.23011 0
M  V30 1767 N 169.982 1.44106 -0.638065 0
M  V30 1768 C 170.929 2.30715 0.062701 0
M  V30 1769 C 171.899 1.43882 0.829883 0
M  V30 1770 O 173.084 1.72775 0.809532 0
M  V30 1771 C 170.224 3.29258 1.03358 0
M  V30 1772 C 169.337 4.31192 0.26409 0
M  V30 1773 C 168.472 5.16825 1.22741 0
M  V30 1774 C 167.511 6.10462 0.447475 0
M  V30 1775 N 166.648 6.8877 1.36161 0
M  V30 1776 H 171.488 2.90096 -0.681781 0
M  V30 1777 H 169.025 1.42925 -0.347988 0
M  V30 1778 H 170.983 3.84886 1.60992 0
M  V30 1779 H 169.613 2.71562 1.74511 0
M  V30 1780 H 168.665 3.77981 -0.428295 0
M  V30 1781 H 169.977 4.97619 -0.343052 0
M  V30 1782 H 169.131 5.77004 1.87487 0
M  V30 1783 H 167.87 4.50488 1.86847 0
M  V30 1784 H 166.875 5.49386 -0.213433 0
M  V30 1785 H 168.1 6.78837 -0.188968 0
M  V30 1786 H 166.046 6.25096 1.98975 0
M  V30 1787 H 165.963 7.51663 0.808656 0
M  V30 1788 H 167.231 7.53467 1.99769 0
M  V30 1789 N 171.46 0.379036 1.52974 0
M  V30 1790 C 172.392 -0.495963 2.2377 0
M  V30 1791 C 173.405 -1.03517 1.25651 0
M  V30 1792 O 174.594 -0.939249 1.51791 0
M  V30 1793 C 171.694 -1.69894 2.93239 0
M  V30 1794 C 170.867 -1.2889 4.17979 0
M  V30 1795 C 169.926 -2.35543 4.70538 0
M  V30 1796 O 168.952 -1.97375 5.33883 0
M  V30 1797 N 170.154 -3.67318 4.49508 0
M  V30 1798 H 172.919 0.110523 2.99496 0
M  V30 1799 H 170.48 0.204878 1.60598 0
M  V30 1800 H 172.472 -2.40747 3.25304 0
M  V30 1801 H 171.042 -2.212 2.20883 0
M  V30 1802 H 170.262 -0.409676 3.92065 0
M  V30 1803 H 171.55 -0.991443 4.99047 0
M  V30 1804 H 170.948 -4.01095 3.98923 0
M  V30 1805 H 169.505 -4.34235 4.8609 0
M  V30 1806 N 172.938 -1.57226 0.108567 0
M  V30 1807 C 173.901 -2.13602 -0.831082 0
M  V30 1808 C 174.901 -1.06841 -1.20173 0
M  V30 1809 O 176.091 -1.32666 -1.12895 0
M  V30 1810 C 173.223 -2.66769 -2.12243 0
M  V30 1811 H 174.416 -2.97951 -0.341317 0
M  V30 1812 H 171.969 -1.55667 -0.14057 0
M  V30 1813 H 172.704 -1.85977 -2.65675 0
M  V30 1814 H 172.489 -3.44839 -1.86625 0
M  V30 1815 H 173.979 -3.10332 -2.79435 0
M  V30 1816 N 174.416 0.165178 -1.56732 0
M  V30 1817 C 175.346 1.20651 -1.99914 0
M  V30 1818 C 176.327 1.45827 -0.875705 0
M  V30 1819 O 177.512 1.57057 -1.14223 0
M  V30 1820 C 174.642 2.54401 -2.36427 0
M  V30 1821 C 173.596 2.43782 -3.51787 0
M  V30 1822 C 172.922 3.82078 -3.7406 0
M  V30 1823 C 174.222 1.93732 -4.85041 0
M  V30 1824 H 175.916 0.847534 -2.87154 0
M  V30 1825 H 173.462 0.40625 -1.38151 0
M  V30 1826 H 175.415 3.27458 -2.65234 0
M  V30 1827 H 174.139 2.92098 -1.46103 0
M  V30 1828 H 172.798 1.73178 -3.23117 0
M  V30 1829 H 172.446 4.17179 -2.81017 0
M  V30 1830 H 172.146 3.7584 -4.51684 0
M  V30 1831 H 173.67 4.56712 -4.05274 0
M  V30 1832 H 175.084 2.56569 -5.12684 0
M  V30 1833 H 173.481 1.98428 -5.66345 0
M  V30 1834 H 174.551 0.891962 -4.76626 0
M  V30 1835 N 175.894 1.51508 0.433938 0
M  V30 1836 C 177.119 1.68443 1.21003 0
M  V30 1837 C 177.544 0.382636 1.84167 0
M  V30 1838 O 176.902 -0.65755 1.68956 0
M  V30 1839 C 176.95 2.80405 2.26727 0
M  V30 1840 O 176.054 2.44245 3.32292 0
M  V30 1841 H 175.395 0.561536 0.354363 0
M  V30 1842 H 177.925 1.9809 0.512024 0
M  V30 1843 H 177.935 3.0459 2.71457 0
M  V30 1844 H 176.61 3.74867 1.80132 0
M  V30 1845 H 175.187 2.30644 2.93015 0
M  V30 1846 N 177.372 -0.689602 1.41712 0
M  V30 1847 C 178.62 -1.4468 1.4111 0
M  V30 1848 C 178.941 -1.94986 0.0232196 0
M  V30 1849 O 178.211 -1.72097 -0.935913 0
M  V30 1850 H 176.791 -0.536847 0.519427 0
M  V30 1851 H 179.453 -0.815825 1.77004 0
M  V30 1852 H 178.549 -2.30706 2.10193 0
M  V30 1853 N 178.85 -1.27639 -0.924453 0
M  V30 1854 C 180.097 -1.14167 -1.67249 0
M  V30 1855 C 180.425 0.311863 -1.91984 0
M  V30 1856 O 179.68 1.24425 -1.51053 0
M  V30 1857 C 179.979 -1.87407 -3.04325 0
M  V30 1858 C 179.645 -3.37249 -2.99289 0
M  V30 1859 C 178.307 -3.7812 -2.97622 0
M  V30 1860 C 180.659 -4.32845 -2.90336 0
M  V30 1861 C 177.987 -5.12944 -2.8479 0
M  V30 1862 C 180.339 -5.6773 -2.79045 0
M  V30 1863 C 179.003 -6.07889 -2.7573 0
M  V30 1864 H 178.273 -0.417766 -0.612007 0
M  V30 1865 H 180.92 -1.58286 -1.07786 0
M  V30 1866 H 179.225 -1.35805 -3.67511 0
M  V30 1867 H 180.922 -1.74408 -3.61086 0
M  V30 1868 H 177.512 -3.04748 -3.01374 0
M  V30 1869 H 181.696 -4.02239 -2.90719 0
M  V30 1870 H 176.952 -5.432 -2.80612 0
M  V30 1871 H 181.126 -6.41472 -2.71083 0
M  V30 1872 H 178.753 -7.12314 -2.65544 0
M  V30 1873 N 180.328 1.1314 -1.09713 0
M  V30 1874 C 181.576 1.84119 -0.833338 0
M  V30 1875 C 181.897 1.84097 0.642904 0
M  V30 1876 O 181.167 1.29881 1.46655 0
M  V30 1877 H 179.747 0.681766 -0.305293 0
M  V30 1878 H 182.409 1.37038 -1.38588 0
M  V30 1879 H 181.505 2.88543 -1.18951 0
M  V30 1880 N 181.806 0.884767 1.30421 0
M  V30 1881 C 183.036 0.517293 2.00019 0
M  V30 1882 C 183.444 -0.898632 1.66497 0
M  V30 1883 O 182.787 -1.60245 0.898181 0
M  V30 1884 C 182.849 0.612025 3.54252 0
M  V30 1885 C 182.513 1.99222 4.1129 0
M  V30 1886 C 183.51 2.9616 4.273 0
M  V30 1887 C 181.195 2.29755 4.46674 0
M  V30 1888 C 183.189 4.21764 4.77906 0
M  V30 1889 C 180.876 3.55606 4.96979 0
M  V30 1890 C 181.874 4.51425 5.12547 0
M  V30 1891 O 181.562 5.75043 5.61766 0
M  V30 1892 H 181.294 0.198529 0.64619 0
M  V30 1893 H 183.848 1.1919 1.67281 0
M  V30 1894 H 182.078 -0.119561 3.86515 0
M  V30 1895 H 183.767 0.255859 4.05093 0
M  V30 1896 H 184.533 2.73882 4.00267 0
M  V30 1897 H 180.412 1.55942 4.33824 0
M  V30 1898 H 183.956 4.96561 4.89972 0
M  V30 1899 H 179.853 3.7772 5.23448 0
M  V30 1900 H 180.621 5.77422 5.80109 0
M  V30 1901 N 183.284 -1.43765 0.645699 0
M  V30 1902 C 184.7 -1.56509 0.312591 0
M  V30 1903 C 184.9 -1.6307 -1.18365 0
M  V30 1904 O 183.956 -1.58167 -1.96824 0
M  V30 1905 C 185.269 -2.82968 1.01733 0
M  V30 1906 C 186.817 -2.96701 0.996865 0
M  V30 1907 C 187.292 -4.25982 1.68236 0
M  V30 1908 N 188.783 -4.32829 1.64964 0
M  V30 1909 C 189.518 -5.31613 2.14885 0
M  V30 1910 N 189.014 -6.36718 2.73061 0
M  V30 1911 N 190.807 -5.23217 2.05428 0
M  V30 1912 H 182.958 -1.3775 1.61675 0
M  V30 1913 H 185.221 -0.661067 0.679481 0
M  V30 1914 H 184.927 -2.84156 2.0724 0
M  V30 1915 H 184.801 -3.72957 0.564177 0
M  V30 1916 H 187.188 -2.95058 -0.0497719 0
M  V30 1917 H 187.269 -2.08022 1.48865 0
M  V30 1918 H 186.913 -4.28386 2.72852 0
M  V30 1919 H 186.843 -5.13545 1.16529 0
M  V30 1920 H 189.334 -3.57493 1.22503 0
M  V30 1921 H 189.647 -7.08401 3.08848 0
M  V30 1922 H 187.992 -6.37362 2.77118 0
M  V30 1923 H 191.183 -4.40019 1.59689 0
M  V30 1924 H 191.356 -6.00045 2.44643 0
M  V30 1925 N 184.763 -0.387143 -1.52771 0
M  V30 1926 C 185.693 0.440551 -2.29306 0
M  V30 1927 C 186.674 1.06535 -1.32606 0
M  V30 1928 O 187.859 1.07853 -1.61497 0
M  V30 1929 C 184.989 1.56919 -3.09829 0
M  V30 1930 C 183.943 1.07054 -4.14395 0
M  V30 1931 C 183.269 2.29109 -4.83129 0
M  V30 1932 C 184.569 0.140015 -5.22112 0
M  V30 1933 H 186.263 -0.198026 -2.98744 0
M  V30 1934 H 183.809 -0.09668 -1.43675 0
M  V30 1935 H 185.762 2.15503 -3.62128 0
M  V30 1936 H 184.486 2.23532 -2.3812 0
M  V30 1937 H 183.145 0.507247 -3.63074 0
M  V30 1938 H 182.793 2.94227 -4.0797 0
M  V30 1939 H 182.493 1.96406 -5.53804 0
M  V30 1940 H 184.017 2.88339 -5.38231 0
M  V30 1941 H 185.431 0.633978 -5.69784 0
M  V30 1942 H 183.828 -0.0971485 -6.00021 0
M  V30 1943 H 184.898 -0.811711 -4.78058 0
M  V30 1944 N 186.241 1.57166 -0.116904 0
M  V30 1945 C 187.466 1.999 0.55271 0
M  V30 1946 C 187.891 0.996039 1.59564 0
M  V30 1947 O 187.249 -0.032556 1.81271 0
M  V30 1948 C 187.297 3.4152 1.15742 0
M  V30 1949 O 186.401 3.44106 2.27299 0
M  V30 1950 H 185.742 0.649447 0.138258 0
M  V30 1951 H 188.272 2.03573 -0.204759 0
M  V30 1952 H 188.282 3.79684 1.49346 0
M  V30 1953 H 186.957 4.14034 0.393493 0
M  V30 1954 H 185.534 3.17759 1.9515 0
M  V30 1955 N 187.719 -0.156864 1.56817 0
M  V30 1956 C 188.996 -0.899244 1.73704 0
M  V30 1957 C 189.376 -1.99771 0.682254 0
M  V30 1958 O 188.724 -2.26515 -0.300522 0
M  V30 1959 C 188.934 -1.45075 3.17418 0
M  V30 1960 C 190.282 -1.91802 3.7881 0
M  V30 1961 O 191.306 -1.54838 3.20786 0
M  V30 1962 O 190.165 -2.5994 4.80722 0
M  V30 1963 H 187.259 -0.424267 0.709878 0
M  V30 1964 H 189.805 -0.143561 1.69092 0
M  V30 1965 H 188.577 -0.660846 3.85679 0
M  V30 1966 H 188.2 -2.27021 3.26416 0
M  V30 1967 N 189.197 -1.51736 -0.425897 0
M  V30 1968 C 190.129 -1.70083 -1.53638 0
M  V30 1969 C 191.142 -0.581349 -1.52066 0
M  V30 1970 O 192.331 -0.856017 -1.56635 0
M  V30 1971 C 189.431 -1.71078 -2.9255 0
M  V30 1972 C 188.604 -2.99795 -3.185 0
M  V30 1973 C 187.663 -2.92825 -4.37196 0
M  V30 1974 O 186.689 -3.66756 -4.35291 0
M  V30 1975 N 187.891 -2.0946 -5.41393 0
M  V30 1976 H 190.656 -2.65882 -1.383 0
M  V30 1977 H 188.217 -1.49765 -0.614988 0
M  V30 1978 H 190.209 -1.63969 -3.69995 0
M  V30 1979 H 188.779 -0.828242 -3.01428 0
M  V30 1980 H 187.999 -3.20684 -2.2925 0
M  V30 1981 H 189.287 -3.84977 -3.32671 0
M  V30 1982 H 188.685 -1.48792 -5.45781 0
M  V30 1983 H 187.242 -2.08221 -6.17647 0
M  V30 1984 N 190.675 0.682077 -1.42076 0
M  V30 1985 C 191.922 1.44215 -1.42156 0
M  V30 1986 C 192.25 1.94468 -0.0354186 0
M  V30 1987 O 191.505 1.70816 0.955002 0
M  V30 1988 C 191.804 2.66036 -2.38662 0
M  V30 1989 C 191.47 2.34366 -3.85206 0
M  V30 1990 C 190.132 2.25439 -4.25124 0
M  V30 1991 C 192.484 2.08513 -4.77673 0
M  V30 1992 C 189.812 1.88775 -5.55501 0
M  V30 1993 C 192.164 1.73354 -6.08384 0
M  V30 1994 C 190.828 1.62933 -6.47309 0
M  V30 1995 H 190.098 0.527718 -0.520187 0
M  V30 1996 H 192.745 0.778387 -1.74967 0
M  V30 1997 H 191.05 3.3741 -1.99152 0
M  V30 1998 H 192.747 3.24205 -2.35991 0
M  V30 1999 H 189.337 2.42213 -3.53597 0
M  V30 2000 H 193.521 2.14346 -4.47626 0
M  V30 2001 H 188.777 1.7927 -5.84527 0
M  V30 2002 H 192.951 1.52373 -6.79526 0
M  V30 2003 H 190.578 1.34292 -7.48244 0
M  V30 2004 N 192.153 1.28127 0.917671 0
M  V30 2005 C 193.103 1.08361 2.00604 0
M  V30 2006 C 194.087 0.00847518 1.60898 0
M  V30 2007 O 195.279 0.228167 1.75523 0
M  V30 2008 C 192.408 0.743376 3.35155 0
M  V30 2009 C 191.494 1.85716 3.81275 0
M  V30 2010 N 191.885 3.09822 3.99805 0
M  V30 2011 C 190.183 1.74612 4.10398 0
M  V30 2012 C 190.884 3.82368 4.38372 0
M  V30 2013 N 189.86 3.10192 4.4641 0
M  V30 2014 H 193.662 2.02531 2.12975 0
M  V30 2015 H 191.176 1.18989 1.10523 0
M  V30 2016 H 193.173 0.582859 4.12805 0
M  V30 2017 H 191.833 -0.190595 3.2414 0
M  V30 2018 H 192.844 3.45475 3.85833 0
M  V30 2019 H 189.521 0.883657 4.08041 0
M  V30 2020 H 190.911 4.89082 4.60704 0
M  V30 2021 N 193.631 -1.12557 1.10312 0
M  V30 2022 C 194.908 -1.80363 0.756878 0
M  V30 2023 C 195.288 -1.97067 -0.756824 0
M  V30 2024 O 194.636 -1.54601 -1.68259 0
M  V30 2025 C 194.846 -3.14812 1.50647 0
M  V30 2026 C 196.194 -3.90029 1.67817 0
M  V30 2027 O 197.218 -3.24464 1.46974 0
M  V30 2028 O 196.077 -5.07652 2.02365 0
M  V30 2029 H 193.171 -0.780667 0.272926 0
M  V30 2030 H 195.717 -1.19404 1.20586 0
M  V30 2031 H 194.489 -2.97936 2.53672 0
M  V30 2032 H 194.112 -3.83478 1.05026 0
M  V30 2033 N 195.109 -0.891671 -1.2995 0
M  V30 2034 C 196.358 -0.509521 -1.95158 0
M  V30 2035 C 196.671 0.947388 -1.71125 0
M  V30 2036 O 197.877 1.43669 -2.30372 0
M  V30 2037 C 196.333 -0.860315 -3.49466 0
M  V30 2038 C 195.941 -2.33545 -3.8231 0
M  V30 2039 C 197.685 -0.547687 -4.20952 0
M  V30 2040 C 195.592 -2.62752 -5.29826 0
M  V30 2041 H 194.522 -0.18682 -0.730489 0
M  V30 2042 H 197.173 -1.08756 -1.47798 0
M  V30 2043 H 195.555 -0.211285 -3.95436 0
M  V30 2044 H 196.729 -3.02936 -3.47227 0
M  V30 2045 H 195.044 -2.61629 -3.23944 0
M  V30 2046 H 197.641 -0.742854 -5.29515 0
M  V30 2047 H 197.984 0.51332 -4.13123 0
M  V30 2048 H 198.517 -1.1542 -3.80688 0
M  V30 2049 H 195.256 -3.6762 -5.42712 0
M  V30 2050 H 194.776 -1.97977 -5.66185 0
M  V30 2051 H 196.455 -2.48601 -5.97333 0
M  V30 2052 N 196.587 1.43421 -0.653314 0
M  V30 2053 C 197.517 2.33487 0.0246656 0
M  V30 2054 C 198.498 1.49475 0.811863 0
M  V30 2055 O 199.683 1.78139 0.773322 0
M  V30 2056 C 196.813 3.32841 0.99166 0
M  V30 2057 C 195.767 4.26842 0.314568 0
M  V30 2058 C 195.093 5.16236 1.39302 0
M  V30 2059 C 196.393 5.16243 -0.793095 0
M  V30 2060 H 198.087 2.90427 -0.727481 0
M  V30 2061 H 195.633 1.39649 -0.351287 0
M  V30 2062 H 197.586 3.94747 1.47487 0
M  V30 2063 H 196.31 2.74158 1.77497 0
M  V30 2064 H 194.969 3.663 -0.148199 0
M  V30 2065 H 194.617 4.53891 2.16776 0
M  V30 2066 H 194.317 5.79948 0.945223 0
M  V30 2067 H 195.841 5.81015 1.87759 0
M  V30 2068 H 197.255 5.71958 -0.392039 0
M  V30 2069 H 195.652 5.88676 -1.16536 0
M  V30 2070 H 196.722 4.55927 -1.65103 0
M  V30 2071 N 198.065 0.39524 1.52563 0
M  V30 2072 C 199.314 -0.186321 2.00838 0
M  V30 2073 C 199.627 -1.47402 1.28577 0
M  V30 2074 O 200.833 -2.13599 1.67593 0
M  V30 2075 C 199.289 -0.382595 3.57861 0
M  V30 2076 C 198.897 0.892202 4.39026 0
M  V30 2077 C 200.641 -0.9202 4.14406 0
M  V30 2078 C 198.548 0.66388 5.87662 0
M  V30 2079 H 197.478 -0.0734041 0.750418 0
M  V30 2080 H 200.129 0.518552 1.76021 0
M  V30 2081 H 198.511 -1.14946 3.7895 0
M  V30 2082 H 199.685 1.66414 4.29701 0
M  V30 2083 H 198 1.35519 3.9373 0
M  V30 2084 H 200.597 -1.10683 5.23119 0
M  V30 2085 H 200.94 -1.89096 3.70875 0
M  V30 2086 H 201.473 -0.212751 3.97231 0
M  V30 2087 H 198.212 1.6058 6.35527 0
M  V30 2088 H 197.732 -0.0690193 5.9976 0
M  V30 2089 H 199.411 0.300699 6.46301 0
M  V30 2090 N 199.544 -1.57102 0.125237 0
M  V30 2091 C 200.96 -1.57915 -0.231322 0
M  V30 2092 C 201.16 -1.13833 -1.66266 0
M  V30 2093 O 200.216 -0.828581 -2.38518 0
M  V30 2094 C 201.529 -3.00699 0.00766489 0
M  V30 2095 C 203.077 -3.12947 -0.0577483 0
M  V30 2096 C 203.552 -4.57742 0.153626 0
M  V30 2097 N 205.043 -4.63092 0.0998073 0
M  V30 2098 C 205.778 -5.72905 0.238174 0
M  V30 2099 N 205.274 -6.91445 0.433057 0
M  V30 2100 N 207.067 -5.6182 0.177308 0
M  V30 2101 H 199.218 -1.84055 1.06007 0
M  V30 2102 H 201.481 -0.850905 0.417929 0
M  V30 2103 H 201.187 -3.3726 0.997431 0
M  V30 2104 H 201.061 -3.70236 -0.721452 0
M  V30 2105 H 203.448 -2.7624 -1.03804 0
M  V30 2106 H 203.529 -2.4594 0.70335 0
M  V30 2107 H 203.173 -4.95149 1.13092 0
M  V30 2108 H 203.103 -5.22848 -0.627534 0
M  V30 2109 H 205.594 -3.77871 -0.047051 0
M  V30 2110 H 205.907 -7.70985 0.529332 0
M  V30 2111 H 204.252 -6.93415 0.469109 0
M  V30 2112 H 207.443 -4.68093 0.0259748 0
M  V30 2113 H 207.616 -6.47357 0.288582 0
M  V30 2114 N 201.022 0.148545 -1.56898 0
M  V30 2115 C 201.969 1.18345 -1.98149 0
M  V30 2116 C 202.939 1.42772 -0.848848 0
M  V30 2117 O 204.124 1.55132 -1.11079 0
M  V30 2118 C 201.264 2.51231 -2.36594 0
M  V30 2119 C 200.377 2.33991 -3.63142 0
M  V30 2120 C 199.512 3.59902 -3.90697 0
M  V30 2121 C 198.551 3.37692 -5.1052 0
M  V30 2122 N 197.688 4.5573 -5.34092 0
M  V30 2123 H 202.528 0.82467 -2.86362 0
M  V30 2124 H 200.065 0.395756 -1.41676 0
M  V30 2125 H 202.023 3.28713 -2.56912 0
M  V30 2126 H 200.653 2.85059 -1.51463 0
M  V30 2127 H 199.705 1.47572 -3.50609 0
M  V30 2128 H 201.017 2.13539 -4.5078 0
M  V30 2129 H 200.171 4.45813 -4.11505 0
M  V30 2130 H 198.91 3.83357 -3.01477 0
M  V30 2131 H 197.915 2.5017 -4.89587 0
M  V30 2132 H 199.14 3.15637 -6.0129 0
M  V30 2133 H 197.086 4.79361 -4.47827 0
M  V30 2134 H 197.003 4.38274 -6.15996 0
M  V30 2135 H 198.271 5.42858 -5.59397 0
M  V30 2136 N 202.5 1.5196 0.417844 0
M  V30 2137 C 203.747 1.65591 1.16559 0
M  V30 2138 C 204.075 0.381565 1.90721 0
M  V30 2139 O 203.33 -0.635156 1.85106 0
M  V30 2140 C 203.629 2.82269 2.19223 0
M  V30 2141 C 203.295 4.20819 1.61933 0
M  V30 2142 C 201.957 4.58506 1.46033 0
M  V30 2143 C 204.309 5.07196 1.20008 0
M  V30 2144 C 201.637 5.80257 0.867113 0
M  V30 2145 C 203.989 6.29544 0.621086 0
M  V30 2146 C 202.653 6.65987 0.449144 0
M  V30 2147 H 201.923 0.605939 0.42652 0
M  V30 2148 H 204.57 1.86041 0.45397 0
M  V30 2149 H 202.875 2.56118 2.96498 0
M  V30 2150 H 204.572 2.90012 2.76936 0
M  V30 2151 H 201.162 3.91116 1.7529 0
M  V30 2152 H 205.346 4.7867 1.31105 0
M  V30 2153 H 200.602 6.07124 0.721833 0
M  V30 2154 H 204.776 6.95805 0.287798 0
M  V30 2155 H 202.403 7.60199 -0.012632 0
M  V30 2156 N 203.978 -0.674533 1.42435 0
M  V30 2157 C 205.255 -1.4305 1.33402 0
M  V30 2158 C 205.635 -2.11081 -0.0284674 0
M  V30 2159 O 204.983 -2.03257 -1.04397 0
M  V30 2160 C 205.193 -2.43272 2.50239 0
M  V30 2161 C 206.541 -3.07907 2.92367 0
M  V30 2162 O 207.565 -2.53599 2.50132 0
M  V30 2163 O 206.424 -4.0632 3.65467 0
M  V30 2164 H 203.518 -0.638076 0.526106 0
M  V30 2165 H 206.064 -0.703235 1.54443 0
M  V30 2166 H 204.836 -1.91803 3.41068 0
M  V30 2167 H 204.459 -3.23479 2.31186 0
M  V30 2168 N 205.456 -1.28612 -0.910864 0
M  V30 2169 C 206.872 -1.06381 -1.18976 0
M  V30 2170 C 207.072 0.191998 -2.00583 0
M  V30 2171 O 206.128 0.892869 -2.36187 0
M  V30 2172 C 207.441 -2.31295 -1.92154 0
M  V30 2173 C 208.989 -2.36503 -2.05025 0
M  V30 2174 C 209.464 -3.61191 -2.81612 0
M  V30 2175 N 210.955 -3.61847 -2.89172 0
M  V30 2176 C 211.69 -4.55004 -3.4894 0
M  V30 2177 N 211.186 -5.58482 -4.09963 0
M  V30 2178 N 212.979 -4.42594 -3.46506 0
M  V30 2179 H 205.13 -2.09221 -0.366094 0
M  V30 2180 H 207.393 -0.921003 -0.224629 0
M  V30 2181 H 207.099 -3.228 -1.39618 0
M  V30 2182 H 206.973 -2.37934 -2.9269 0
M  V30 2183 H 209.36 -1.45494 -2.5674 0
M  V30 2184 H 209.441 -2.33857 -1.03657 0
M  V30 2185 H 209.085 -4.52545 -2.30576 0
M  V30 2186 H 209.015 -3.61092 -3.83302 0
M  V30 2187 H 211.506 -2.87022 -2.45819 0
M  V30 2188 H 211.819 -6.25704 -4.53557 0
M  V30 2189 H 210.164 -5.62305 -4.08459 0
M  V30 2190 H 213.355 -3.60953 -2.98045 0
M  V30 2191 H 213.528 -5.15381 -3.92793 0
M  V30 2192 N 206.934 1.1197 -1.10907 0
M  V30 2193 C 207.866 2.17592 -0.720175 0
M  V30 2194 C 208.879 1.60938 0.245495 0
M  V30 2195 O 210.068 1.78476 0.0292245 0
M  V30 2196 C 207.168 3.38873 -0.0427917 0
M  V30 2197 C 206.341 4.25006 -1.03388 0
M  V30 2198 C 205.4 5.24774 -0.387075 0
M  V30 2199 O 204.426 5.59631 -1.03934 0
M  V30 2200 N 205.628 5.74208 0.852407 0
M  V30 2201 H 208.393 2.51567 -1.62893 0
M  V30 2202 H 205.954 1.27439 -0.998543 0
M  V30 2203 H 207.946 4.02703 0.401501 0
M  V30 2204 H 206.516 3.03007 0.768456 0
M  V30 2205 H 205.736 3.57716 -1.65629 0
M  V30 2206 H 207.024 4.79397 -1.70458 0
M  V30 2207 H 206.422 5.48062 1.40161 0
M  V30 2208 H 204.979 6.39901 1.23977 0
M  V30 2209 N 208.412 0.89855 1.29475 0
M  V30 2210 C 209.66 0.522847 1.9522 0
M  V30 2211 C 209.981 -0.93371 1.71192 0
M  V30 2212 O 209.251 -1.65823 1.04305 0
M  V30 2213 H 207.831 0.190366 0.722336 0
M  V30 2214 H 210.493 1.14459 1.5775 0
M  V30 2215 H 209.589 0.704476 3.04045 0
M  V30 2216 N 209.89 -1.43072 0.660911 0
M  V30 2217 C 211.306 -1.56169 0.329173 0
M  V30 2218 C 211.506 -1.64317 -1.16629 0
M  V30 2219 O 210.562 -1.60245 -1.95135 0
M  V30 2220 C 211.875 -2.81873 1.04729 0
M  V30 2221 C 213.423 -2.95627 1.02828 0
M  V30 2222 C 213.898 -4.24174 1.72744 0
M  V30 2223 N 215.389 -4.31055 1.69545 0
M  V30 2224 C 216.124 -5.29304 2.20511 0
M  V30 2225 N 215.62 -6.33786 2.79799 0
M  V30 2226 N 217.413 -5.21008 2.10966 0
M  V30 2227 H 209.564 -1.36027 1.63127 0
M  V30 2228 H 211.827 -0.653823 0.686454 0
M  V30 2229 H 211.533 -2.81942 2.10242 0
M  V30 2230 H 211.407 -3.72338 0.603702 0
M  V30 2231 H 213.794 -2.95094 -0.0184742 0
M  V30 2232 H 213.875 -2.06431 1.51063 0
M  V30 2233 H 213.519 -4.25467 2.7738 0
M  V30 2234 H 213.449 -5.1228 1.2197 0
M  V30 2235 H 215.94 -3.56174 1.26288 0
M  V30 2236 H 216.253 -7.05086 3.16344 0
M  V30 2237 H 214.598 -6.34387 2.83863 0
M  V30 2238 H 217.789 -4.38301 1.64347 0
M  V30 2239 H 217.962 -5.97416 2.50993 0
M  V30 2240 N 211.368 -0.403325 -1.52352 0
M  V30 2241 C 212.616 0.174003 -2.0135 0
M  V30 2242 C 212.937 1.46139 -1.29106 0
M  V30 2243 O 212.207 1.91448 -0.415253 0
M  V30 2244 H 210.787 0.0672911 -0.743963 0
M  V30 2245 H 213.449 -0.538235 -1.87321 0
M  V30 2246 H 212.545 0.374254 -3.09848 0
M  V30 2247 N 212.846 1.57033 -0.133567 0
M  V30 2248 C 213.778 2.13176 0.841944 0
M  V30 2249 C 214.791 1.07794 1.22001 0
M  V30 2250 O 215.98 1.35117 1.16643 0
M  V30 2251 C 213.08 2.62847 2.13926 0
M  V30 2252 C 212.253 3.92486 1.93064 0
M  V30 2253 C 211.312 4.27605 3.0666 0
M  V30 2254 O 210.338 4.96168 2.78937 0
M  V30 2255 N 211.54 3.861 4.33483 0
M  V30 2256 H 214.305 2.97503 0.362192 0
M  V30 2257 H 211.866 1.61821 0.05042 0
M  V30 2258 H 213.858 2.83363 2.88942 0
M  V30 2259 H 212.428 1.83319 2.53205 0
M  V30 2260 H 211.648 3.80732 1.02159 0
M  V30 2261 H 212.936 4.77225 1.76447 0
M  V30 2262 H 212.334 3.30828 4.58878 0
M  V30 2263 H 210.891 4.11694 5.05323 0
M  V30 2264 N 214.325 -0.140222 1.56975 0
M  V30 2265 C 215.574 -0.850152 1.82908 0
M  V30 2266 C 215.887 -1.82028 0.715892 0
M  V30 2267 O 217.093 -2.57485 0.861016 0
M  V30 2268 C 215.549 -1.5625 3.24213 0
M  V30 2269 C 215.157 -0.63443 4.43485 0
M  V30 2270 C 216.901 -2.25881 3.59413 0
M  V30 2271 C 214.808 -1.34879 5.75814 0
M  V30 2272 H 213.738 -0.321221 0.682153 0
M  V30 2273 H 216.389 -0.102874 1.83211 0
M  V30 2274 H 214.771 -2.35565 3.18316 0
M  V30 2275 H 215.945 0.12398 4.60633 0
M  V30 2276 H 214.26 -0.0461836 4.16374 0
M  V30 2277 H 216.857 -2.79978 4.5554 0
M  V30 2278 H 217.2 -3.02693 2.85802 0
M  V30 2279 H 217.733 -1.53477 3.67001 0
M  V30 2280 H 214.472 -0.622385 6.52539 0
M  V30 2281 H 213.992 -2.07974 5.6259 0
M  V30 2282 H 215.671 -1.88784 6.18845 0
M  V30 2283 N 215.803 -1.52179 -0.40978 0
M  V30 2284 C 216.766 -1.74853 -1.48186 0
M  V30 2285 C 217.766 -0.618417 -1.48433 0
M  V30 2286 O 218.956 -0.886286 -1.49969 0
M  V30 2287 C 216.088 -1.8303 -2.87598 0
M  V30 2288 H 217.281 -2.70559 -1.29374 0
M  V30 2289 H 214.834 -1.42586 -0.640233 0
M  V30 2290 H 215.569 -0.89236 -3.11781 0
M  V30 2291 H 215.354 -2.65187 -2.88822 0
M  V30 2292 H 216.844 -2.02316 -3.65319 0
M  V30 2293 N 217.281 0.66697 -1.42791 0
M  V30 2294 C 218.528 1.42699 -1.43678 0
M  V30 2295 C 218.856 1.94419 -0.0560425 0
M  V30 2296 O 218.111 1.7182 0.936831 0
M  V30 2297 C 218.41 2.6349 -2.4147 0
M  V30 2298 C 218.076 2.30267 -3.8767 0
M  V30 2299 C 216.738 2.20918 -4.27491 0
M  V30 2300 C 219.09 2.03435 -4.79858 0
M  V30 2301 C 216.418 1.82873 -5.57471 0
M  V30 2302 C 218.77 1.66892 -6.10188 0
M  V30 2303 C 217.434 1.56058 -6.49001 0
M  V30 2304 H 216.704 0.522171 -0.525755 0
M  V30 2305 H 219.351 0.759785 -1.75783 0
M  V30 2306 H 217.656 3.35279 -2.0272 0
M  V30 2307 H 219.353 3.21684 -2.39417 0
M  V30 2308 H 215.943 2.38449 -3.56146 0
M  V30 2309 H 220.127 2.09586 -4.49875 0
M  V30 2310 H 215.383 1.7306 -5.86396 0
M  V30 2311 H 219.557 1.45157 -6.81104 0
M  V30 2312 H 217.184 1.26348 -7.49627 0
M  V30 2313 N 218.759 1.29093 0.90403 0
M  V30 2314 C 220.036 1.075 1.63411 0
M  V30 2315 C 220.416 -0.382346 2.07609 0
M  V30 2316 O 219.764 -1.37031 1.82851 0
M  V30 2317 C 219.974 2.05858 2.81822 0
M  V30 2318 C 221.322 2.36539 3.52611 0
M  V30 2319 O 222.346 2.04019 2.91984 0
M  V30 2320 O 221.205 2.92085 4.61897 0
M  V30 2321 H 218.299 0.411547 0.717327 0
M  V30 2322 H 220.845 1.40449 0.952479 0
M  V30 2323 H 219.617 3.04037 2.46327 0
M  V30 2324 H 219.24 1.73613 3.57693 0
M  V30 2325 N 220.237 -1.11381 1.11499 0
M  V30 2326 C 221.514 -1.7955 0.775965 0
M  V30 2327 C 221.894 -1.97859 -0.73588 0
M  V30 2328 O 221.242 -1.56376 -1.66609 0
M  V30 2329 C 221.452 -3.13196 1.53977 0
M  V30 2330 C 222.8 -3.88227 1.71944 0
M  V30 2331 O 223.824 -3.22887 1.50407 0
M  V30 2332 O 222.683 -5.05477 2.07738 0
M  V30 2333 H 219.777 -0.777728 0.28119 0
M  V30 2334 H 222.323 -1.18118 1.21845 0
M  V30 2335 H 221.095 -2.95229 2.56818 0
M  V30 2336 H 220.718 -3.82342 1.09088 0
M  V30 2337 N 221.715 -0.905404 -1.28997 0
M  V30 2338 C 222.962 -0.534248 -1.95325 0
M  V30 2339 C 223.29 0.920535 -1.71337 0
M  V30 2340 O 222.545 1.66861 -1.02254 0
M  V30 2341 C 222.844 -0.779906 -3.48787 0
M  V30 2342 C 222.51 -2.21293 -3.92861 0
M  V30 2343 C 221.172 -2.60475 -4.04606 0
M  V30 2344 C 223.524 -3.14587 -4.15553 0
M  V30 2345 C 220.852 -3.9212 -4.36416 0
M  V30 2346 C 223.204 -4.45787 -4.48839 0
M  V30 2347 C 221.868 -4.84834 -4.58794 0
M  V30 2348 H 221.138 -0.195495 -0.714747 0
M  V30 2349 H 223.785 -1.14514 -1.53488 0
M  V30 2350 H 222.09 -0.0861365 -3.91705 0
M  V30 2351 H 223.787 -0.472029 -3.98212 0
M  V30 2352 H 220.377 -1.89887 -3.84241 0
M  V30 2353 H 224.561 -2.85528 -4.0594 0
M  V30 2354 H 219.817 -4.22086 -4.42327 0
M  V30 2355 H 223.991 -5.18098 -4.65346 0
M  V30 2356 H 221.618 -5.86877 -4.83197 0
M  V30 2357 N 223.193 1.4272 -0.668489 0
M  V30 2358 C 224.442 2.00846 -0.185389 0
M  V30 2359 C 224.755 1.53442 1.21305 0
M  V30 2360 O 225.961 2.03944 1.79218 0
M  V30 2361 C 224.417 3.58805 -0.280591 0
M  V30 2362 C 224.025 4.15198 -1.68268 0
M  V30 2363 C 225.769 4.24255 0.14412 0
M  V30 2364 C 223.676 5.655 -1.73099 0
M  V30 2365 H 222.606 0.751145 -0.0655475 0
M  V30 2366 H 225.257 1.63516 -0.832752 0
M  V30 2367 H 223.639 3.93608 0.434553 0
M  V30 2368 H 224.813 3.91866 -2.42441 0
M  V30 2369 H 223.128 3.62176 -2.05469 0
M  V30 2370 H 225.725 5.34547 0.128086 0
M  V30 2371 H 226.068 3.99277 1.17827 0
M  V30 2372 H 226.601 3.94389 -0.519798 0
M  V30 2373 H 223.34 5.95268 -2.74475 0
M  V30 2374 H 222.86 5.90842 -1.03274 0
M  V30 2375 H 224.539 6.29808 -1.48158 0
M  V30 2376 N 224.671 0.411399 1.52136 0
M  V30 2377 C 225.603 -0.448386 2.24771 0
M  V30 2378 C 226.616 -1.00828 1.27818 0
M  V30 2379 O 227.805 -0.906841 1.53749 0
M  V30 2380 C 224.905 -1.63636 2.96777 0
M  V30 2381 C 224.078 -1.19995 4.20618 0
M  V30 2382 C 223.137 -2.25509 4.75428 0
M  V30 2383 O 222.163 -1.86007 5.3795 0
M  V30 2384 N 223.365 -3.577 4.57199 0
M  V30 2385 H 226.13 0.174025 2.99194 0
M  V30 2386 H 223.691 0.238897 1.60128 0
M  V30 2387 H 225.683 -2.33793 3.30338 0
M  V30 2388 H 224.253 -2.16465 2.25526 0
M  V30 2389 H 223.473 -0.326421 3.92846 0
M  V30 2390 H 224.761 -0.885365 5.01038 0
M  V30 2391 H 224.159 -3.92543 4.07341 0
M  V30 2392 H 222.716 -4.23827 4.95191 0
M  V30 2393 N 226.149 -1.5696 0.141893 0
M  V30 2394 C 227.397 -1.95573 -0.509484 0
M  V30 2395 C 227.718 -1.02746 -1.65736 0
M  V30 2396 O 226.988 -0.0880311 -1.95702 0
M  V30 2397 H 225.568 -0.722115 -0.191205 0
M  V30 2398 H 228.23 -1.93697 0.216196 0
M  V30 2399 H 227.326 -2.99171 -0.889 0
M  V30 2400 N 227.627 0.131896 -1.57047 0
M  V30 2401 C 228.867 0.847972 -1.85981 0
M  V30 2402 C 229.231 1.77655 -0.7282 0
M  V30 2403 O 230.432 2.53322 -0.898968 0
M  V30 2404 C 228.703 1.58919 -3.20124 0
M  V30 2405 S 230.262 2.34862 -3.70655 0
M  V30 2406 H 227.08 0.283273 -0.652133 0
M  V30 2407 H 229.682 0.107057 -1.95207 0
M  V30 2408 H 228.386 0.898771 -4.00438 0
M  V30 2409 H 227.917 2.37073 -3.13942 0
M  V30 2410 H 229.932 3.60344 -3.41126 0
M  V30 2411 N 229.106 1.52395 0.401703 0
M  V30 2412 C 230.355 1.66044 1.14509 0
M  V30 2413 C 230.668 0.400216 1.91462 0
M  V30 2414 O 231.874 0.416632 2.68284 0
M  V30 2415 C 230.33 2.93388 2.0845 0
M  V30 2416 C 229.938 4.26545 1.36978 0
M  V30 2417 C 231.682 3.16402 2.83001 0
M  V30 2418 C 229.589 5.45007 2.29611 0
M  V30 2419 H 228.519 0.618562 0.431158 0
M  V30 2420 H 231.17 1.78886 0.40892 0
M  V30 2421 H 229.552 2.74263 2.8565 0
M  V30 2422 H 230.726 4.56179 0.650916 0
M  V30 2423 H 229.041 4.09692 0.74438 0
M  V30 2424 H 231.638 4.02085 3.52465 0
M  V30 2425 H 231.981 2.30943 3.46368 0
M  V30 2426 H 232.514 3.36034 2.12898 0
M  V30 2427 H 229.253 6.32835 1.70879 0
M  V30 2428 H 228.773 5.19702 2.9945 0
M  V30 2429 H 230.452 5.7838 2.89974 0
M  V30 2430 N 230.584 -0.659388 1.43143 0
M  V30 2431 C 231.83 -1.42145 1.44647 0
M  V30 2432 C 232.163 -1.9408 0.0681907 0
M  V30 2433 O 231.438 -1.71899 -0.910007 0
M  V30 2434 C 231.721 -2.60735 2.48373 0
M  V30 2435 C 231.574 -2.14332 3.95451 0
M  V30 2436 C 232.893 -3.62951 2.48906 0
M  V30 2437 H 230.012 -0.51552 0.526696 0
M  V30 2438 H 232.654 -0.748069 1.74654 0
M  V30 2439 H 230.804 -3.18184 2.22916 0
M  V30 2440 H 232.476 -1.61932 4.31944 0
M  V30 2441 H 230.719 -1.4576 4.08578 0
M  V30 2442 H 231.39 -2.99583 4.63631 0
M  V30 2443 H 233.866 -3.1525 2.71582 0
M  V30 2444 H 232.742 -4.43487 3.23435 0
M  V30 2445 H 233.003 -4.15126 1.52061 0
M  V30 2446 N 232.062 -1.29571 -0.897171 0
M  V30 2447 C 232.992 -1.17473 -2.01798 0
M  V30 2448 C 233.973 -0.068323 -1.69963 0
M  V30 2449 O 235.158 -0.248239 -1.92607 0
M  V30 2450 C 232.288 -0.853099 -3.36659 0
M  V30 2451 C 231.242 -1.9161 -3.82713 0
M  V30 2452 C 230.568 -1.44773 -5.14728 0
M  V30 2453 C 231.868 -3.32535 -4.02763 0
M  V30 2454 H 233.562 -2.11237 -2.12177 0
M  V30 2455 H 231.108 -1.01699 -1.01948 0
M  V30 2456 H 233.061 -0.755165 -4.14578 0
M  V30 2457 H 231.785 0.120236 -3.26379 0
M  V30 2458 H 230.444 -2.00346 -3.07013 0
M  V30 2459 H 230.092 -0.462995 -5.00865 0
M  V30 2460 H 229.792 -2.15865 -5.46513 0
M  V30 2461 H 231.316 -1.36334 -5.95185 0
M  V30 2462 H 232.73 -3.26626 -4.71156 0
M  V30 2463 H 231.127 -4.01607 -4.45905 0
M  V30 2464 H 232.197 -3.75326 -3.07016 0
M  V30 2465 N 233.54 1.10788 -1.12088 0
M  V30 2466 C 234.472 2.16816 -0.743213 0
M  V30 2467 C 235.485 1.6119 0.228412 0
M  V30 2468 O 236.674 1.78497 0.0102931 0
M  V30 2469 C 233.774 3.38809 -0.0787313 0
M  V30 2470 C 232.947 4.23885 -1.0789 0
M  V30 2471 C 232.006 5.24334 -0.442713 0
M  V30 2472 O 231.032 5.58497 -1.09864 0
M  V30 2473 N 232.234 5.75079 0.791457 0
M  V30 2474 H 234.999 2.49825 -1.65552 0
M  V30 2475 H 232.56 1.26373 -1.012 0
M  V30 2476 H 234.552 4.03107 0.358766 0
M  V30 2477 H 233.122 3.03805 0.736275 0
M  V30 2478 H 232.342 3.55939 -1.69414 0
M  V30 2479 H 233.63 4.77562 -1.75533 0
M  V30 2480 H 233.028 5.49517 1.3434 0
M  V30 2481 H 231.585 6.4118 1.17183 0
M  V30 2482 N 235.018 0.912232 1.28515 0
M  V30 2483 C 236.434 0.610159 1.47476 0
M  V30 2484 C 236.634 -0.844955 1.82928 0
M  V30 2485 O 235.69 -1.62416 1.93332 0
M  V30 2486 C 237.003 1.54675 2.57868 0
M  V30 2487 C 238.551 1.55331 2.71738 0
M  V30 2488 C 239.026 2.47649 3.85272 0
M  V30 2489 N 240.517 2.45767 3.92623 0
M  V30 2490 C 241.252 3.13896 4.79851 0
M  V30 2491 N 240.748 3.9135 5.71679 0
M  V30 2492 N 242.541 3.02991 4.73448 0
M  V30 2493 H 234.692 1.85318 1.03783 0
M  V30 2494 H 236.955 0.794777 0.516753 0
M  V30 2495 H 236.661 2.5841 2.38574 0
M  V30 2496 H 236.535 1.27671 3.54937 0
M  V30 2497 H 238.922 0.52335 2.90422 0
M  V30 2498 H 239.003 1.86378 1.75205 0
M  V30 2499 H 238.647 3.50745 3.67342 0
M  V30 2500 H 238.577 2.13904 4.81199 0
M  V30 2501 H 241.068 1.89503 3.26951 0
M  V30 2502 H 241.381 4.40359 6.35062 0
M  V30 2503 H 239.726 3.95455 5.71524 0
M  V30 2504 H 242.917 2.41987 4.007 0
M  V30 2505 H 243.09 3.5636 5.41213 0
M  V30 2506 N 236.496 -1.42363 0.676048 0
M  V30 2507 C 237.426 -2.33497 0.0124832 0
M  V30 2508 C 238.407 -1.50748 -0.787981 0
M  V30 2509 O 239.592 -1.79346 -0.744884 0
M  V30 2510 C 236.722 -3.34377 -0.938582 0
M  V30 2511 C 235.676 -4.27289 -0.246622 0
M  V30 2512 C 235.002 -5.18386 -1.31071 0
M  V30 2513 C 236.302 -5.14916 0.875125 0
M  V30 2514 H 237.996 -2.89233 0.773593 0
M  V30 2515 H 235.542 -1.39073 0.37346 0
M  V30 2516 H 237.495 -3.97044 -1.41188 0
M  V30 2517 H 236.219 -2.76947 -1.73113 0
M  V30 2518 H 234.878 -3.66018 0.206456 0
M  V30 2519 H 234.526 -4.57282 -2.09528 0
M  V30 2520 H 234.226 -5.81378 -0.852839 0
M  V30 2521 H 235.75 -5.83929 -1.78492 0
M  V30 2522 H 237.164 -5.71262 0.482983 0
M  V30 2523 H 235.561 -5.86747 1.25887 0
M  V30 2524 H 236.631 -4.53242 1.72335 0
M  V30 2525 N 237.974 -0.419461 -1.51915 0
M  V30 2526 C 239.202 0.152136 -2.0634 0
M  V30 2527 C 239.617 1.37988 -1.28859 0
M  V30 2528 O 238.974 1.79243 -0.343232 0
M  V30 2529 C 239.025 0.492266 -3.58133 0
M  V30 2530 O 238.746 -0.686736 -4.32684 0
M  V30 2531 C 240.247 1.11648 -4.2901 0
M  V30 2532 H 237.467 0.0158325 -0.670813 0
M  V30 2533 H 240.011 -0.593394 -1.95702 0
M  V30 2534 H 238.166 1.18769 -3.68745 0
M  V30 2535 H 238.58 -0.400341 -5.2297 0
M  V30 2536 H 240.054 1.3046 -5.36362 0
M  V30 2537 H 240.531 2.09251 -3.86148 0
M  V30 2538 H 241.137 0.460958 -4.22795 0
M  V30 2539 N 239.452 1.56882 -0.150215 0
M  V30 2540 C 240.729 1.87844 0.545327 0
M  V30 2541 C 241.109 1.0567 1.82749 0
M  V30 2542 O 240.457 0.144442 2.28043 0
M  V30 2543 C 240.667 3.39526 0.80767 0
M  V30 2544 C 242.015 4.08814 1.14703 0
M  V30 2545 O 243.039 3.44723 0.896917 0
M  V30 2546 O 241.898 5.22004 1.61784 0
M  V30 2547 H 238.992 0.778677 0.278553 0
M  V30 2548 H 241.538 1.68666 -0.187068 0
M  V30 2549 H 240.31 3.91173 -0.0996096 0
M  V30 2550 H 239.933 3.64243 1.59413 0
M  V30 2551 N 240.93 -0.123565 1.57115 0
M  V30 2552 C 242.179 -0.830704 1.83799 0
M  V30 2553 C 242.492 -1.81259 0.735158 0
M  V30 2554 O 243.698 -2.56558 0.888278 0
M  V30 2555 C 242.154 -1.52802 3.25852 0
M  V30 2556 C 241.762 -0.587356 4.44133 0
M  V30 2557 C 243.506 -2.22056 3.61789 0
M  V30 2558 C 241.413 -1.28764 5.77212 0
M  V30 2559 H 240.343 -0.313967 0.685522 0
M  V30 2560 H 242.994 -0.0834359 1.8331 0
M  V30 2561 H 241.376 -2.32175 3.20797 0
M  V30 2562 H 242.55 0.172829 4.60476 0
M  V30 2563 H 240.865 -0.00201892 4.164 0
M  V30 2564 H 243.462 -2.75131 4.58483 0
M  V30 2565 H 243.805 -2.99644 2.88997 0
M  V30 2566 H 244.338 -1.49576 3.68608 0
M  V30 2567 H 241.077 -0.55314 6.53162 0
M  V30 2568 H 240.597 -2.01995 5.64764 0
M  V30 2569 H 242.276 -1.8221 6.20813 0
M  V30 2570 N 242.408 -1.52605 -0.393616 0
M  V30 2571 C 243.655 -1.67424 -1.1391 0
M  V30 2572 C 243.983 -0.411859 -1.90089 0
M  V30 2573 O 243.238 0.605626 -1.86093 0
M  V30 2574 C 243.537 -2.85721 -2.14705 0
M  V30 2575 C 243.203 -4.23342 -1.55218 0
M  V30 2576 C 241.865 -4.60771 -1.3872 0
M  V30 2577 C 244.217 -5.09041 -1.11924 0
M  V30 2578 C 241.545 -5.81563 -0.774689 0
M  V30 2579 C 243.897 -6.30452 -0.520853 0
M  V30 2580 C 242.561 -6.66617 -0.343134 0
M  V30 2581 H 241.831 -0.612648 -0.416826 0
M  V30 2582 H 244.478 -1.8674 -0.424315 0
M  V30 2583 H 242.783 -2.60803 -2.92385 0
M  V30 2584 H 244.48 -2.94382 -2.72288 0
M  V30 2585 H 241.07 -3.93855 -1.69045 0
M  V30 2586 H 245.254 -4.80695 -1.23473 0
M  V30 2587 H 240.51 -6.08196 -0.625154 0
M  V30 2588 H 244.684 -6.96175 -0.177065 0
M  V30 2589 H 242.311 -7.60083 0.133571 0
M  V30 2590 N 243.887 0.651787 -1.4349 0
M  V30 2591 C 245.303 0.96762 -1.26922 0
M  V30 2592 C 245.503 2.00602 -0.189982 0
M  V30 2593 O 244.559 2.48793 0.431107 0
M  V30 2594 C 245.872 1.45052 -2.63401 0
M  V30 2595 C 247.42 1.5671 -2.70945 0
M  V30 2596 C 247.895 2.0839 -4.07845 0
M  V30 2597 N 249.386 2.1569 -4.09917 0
M  V30 2598 C 250.121 2.56804 -5.12679 0
M  V30 2599 N 249.617 2.97203 -6.25813 0
M  V30 2600 N 251.41 2.56756 -5.00033 0
M  V30 2601 H 243.561 -0.0353158 -2.12371 0
M  V30 2602 H 245.824 0.0467858 -0.946845 0
M  V30 2603 H 245.53 0.761926 -3.43348 0
M  V30 2604 H 245.404 2.42529 -2.88894 0
M  V30 2605 H 247.791 2.2467 -1.9133 0
M  V30 2606 H 247.872 0.57662 -2.49216 0
M  V30 2607 H 247.516 1.41031 -4.87927 0
M  V30 2608 H 247.446 3.08271 -4.26938 0
M  V30 2609 H 249.937 1.87237 -3.28254 0
M  V30 2610 H 250.25 3.27328 -7.00055 0
M  V30 2611 H 248.595 2.95004 -6.29283 0
M  V30 2612 H 251.786 2.24572 -4.10713 0
M  V30 2613 H 251.959 2.88475 -5.80247 0
M  V30 2614 N 245.365 1.30045 0.890287 0
M  V30 2615 C 246.781 1.08261 1.17268 0
M  V30 2616 C 246.981 -0.160063 2.00863 0
M  V30 2617 O 246.037 -0.855181 2.37577 0
M  V30 2618 C 247.35 2.34323 1.8845 0
M  V30 2619 C 248.898 2.39735 2.01237 0
M  V30 2620 C 249.373 3.65625 2.7583 0
M  V30 2621 N 250.864 3.66402 2.83379 0
M  V30 2622 C 251.599 4.60498 3.41657 0
M  V30 2623 N 251.095 5.64933 4.01026 0
M  V30 2624 N 252.888 4.48051 3.39421 0
M  V30 2625 H 245.039 2.09777 0.332762 0
M  V30 2626 H 247.302 0.92446 0.209948 0
M  V30 2627 H 247.008 3.2498 1.34465 0
M  V30 2628 H 246.882 2.4256 2.88867 0
M  V30 2629 H 249.269 1.4956 2.54393 0
M  V30 2630 H 249.35 2.35476 0.999232 0
M  V30 2631 H 248.994 4.56156 2.23347 0
M  V30 2632 H 248.924 3.67144 3.77509 0
M  V30 2633 H 251.415 2.90896 2.41222 0
M  V30 2634 H 251.728 6.32841 4.43545 0
M  V30 2635 H 250.073 5.68732 3.99461 0
M  V30 2636 H 253.264 3.65649 2.92264 0
M  V30 2637 H 253.437 5.21565 3.84544 0
M  V30 2638 N 246.843 -1.10192 1.12674 0
M  V30 2639 C 248.073 -1.85713 0.905213 0
M  V30 2640 C 248.481 -1.81056 -0.549108 0
M  V30 2641 O 247.824 -1.19927 -1.39151 0
M  V30 2642 C 247.886 -3.34972 1.30516 0
M  V30 2643 C 247.55 -3.63385 2.77129 0
M  V30 2644 C 248.547 -3.59772 3.75313 0
M  V30 2645 C 246.232 -3.91981 3.14096 0
M  V30 2646 C 248.226 -3.84354 5.08479 0
M  V30 2647 C 245.913 -4.16218 4.47443 0
M  V30 2648 C 246.911 -4.12395 5.44444 0
M  V30 2649 O 246.599 -4.36014 6.75387 0
M  V30 2650 H 246.331 -0.593719 0.323223 0
M  V30 2651 H 248.885 -1.40198 1.50112 0
M  V30 2652 H 247.115 -3.81156 0.652463 0
M  V30 2653 H 248.804 -3.91886 1.05736 0
M  V30 2654 H 249.57 -3.37716 3.48099 0
M  V30 2655 H 245.449 -3.94085 2.39202 0
M  V30 2656 H 248.993 -3.81285 5.84181 0
M  V30 2657 H 244.89 -4.37754 4.74386 0
M  V30 2658 H 245.658 -4.53516 6.8137 0
M  V30 2659 N 248.321 -0.919034 -1.28029 0
M  V30 2660 C 249.598 -0.473668 -1.89778 0
M  V30 2661 C 249.978 1.04783 -1.83259 0
M  V30 2662 O 249.326 1.8982 -1.27202 0
M  V30 2663 C 249.536 -1.00998 -3.34066 0
M  V30 2664 C 250.884 -1.06525 -4.1102 0
M  V30 2665 O 251.908 -0.958996 -3.43048 0
M  V30 2666 O 250.767 -1.22776 -5.3253 0
M  V30 2667 H 247.861 -0.15098 -0.813101 0
M  V30 2668 H 250.407 -1.01016 -1.36359 0
M  V30 2669 H 249.179 -2.05392 -3.33061 0
M  V30 2670 H 248.802 -0.454626 -3.94992 0
M  V30 2671 N 249.799 1.42003 -0.683588 0
M  V30 2672 C 251.027 2.05746 -0.218182 0
M  V30 2673 C 251.442 1.51396 1.12804 0
M  V30 2674 O 250.799 0.657303 1.70252 0
M  V30 2675 C 250.85 3.61171 -0.154131 0
M  V30 2676 O 250.571 4.13508 -1.44716 0
M  V30 2677 C 252.072 4.42042 0.333713 0
M  V30 2678 H 249.292 0.662888 -0.10402 0
M  V30 2679 H 251.836 1.81987 -0.9328 0
M  V30 2680 H 249.991 3.84012 0.511231 0
M  V30 2681 H 250.405 5.07453 -1.32632 0
M  V30 2682 H 251.879 5.51028 0.327423 0
M  V30 2683 H 252.356 4.17269 1.37053 0
M  V30 2684 H 252.962 4.24239 -0.300222 0
M  V30 2685 N 251.277 0.427512 1.51691 0
M  V30 2686 C 252.554 -0.201684 1.94557 0
M  V30 2687 C 252.934 -1.60981 1.36559 0
M  V30 2688 O 252.282 -2.21814 0.548702 0
M  V30 2689 C 252.492 -0.189394 3.48486 0
M  V30 2690 C 253.84 -0.39978 4.22714 0
M  V30 2691 O 254.864 -0.267945 3.55191 0
M  V30 2692 O 253.723 -0.661249 5.42485 0
M  V30 2693 H 250.817 -0.135261 0.815864 0
M  V30 2694 H 253.363 0.484782 1.62628 0
M  V30 2695 H 252.135 0.795431 3.8313 0
M  V30 2696 H 251.758 -0.919187 3.86829 0
M  V30 2697 N 252.755 -1.56801 0.158532 0
M  V30 2698 C 253.687 -2.14488 -0.807923 0
M  V30 2699 C 254.7 -1.09721 -1.20271 0
M  V30 2700 O 255.889 -1.36956 -1.14478 0
M  V30 2701 C 252.989 -2.66217 -2.09718 0
M  V30 2702 C 252.162 -3.95507 -1.86796 0
M  V30 2703 C 251.221 -4.3243 -2.99818 0
M  V30 2704 O 250.247 -5.00543 -2.71008 0
M  V30 2705 N 251.449 -3.92947 -4.27285 0
M  V30 2706 H 254.214 -2.98042 -0.314816 0
M  V30 2707 H 251.775 -1.61881 -0.0246692 0
M  V30 2708 H 253.767 -2.87924 -2.84398 0
M  V30 2709 H 252.337 -1.87324 -2.50257 0
M  V30 2710 H 251.557 -3.82309 -0.96089 0
M  V30 2711 H 252.845 -4.79972 -1.68833 0
M  V30 2712 H 252.243 -3.38087 -4.53557 0
M  V30 2713 H 250.8 -4.19681 -4.9871 0
M  V30 2714 N 254.233 0.115231 -1.57178 0
M  V30 2715 C 255.51 0.852873 -1.76027 0
M  V30 2716 C 255.89 1.97892 -0.73498 0
M  V30 2717 O 255.238 2.27232 0.24036 0
M  V30 2718 C 255.448 1.36608 -3.21153 0
M  V30 2719 C 256.796 1.81692 -3.83762 0
M  V30 2720 O 257.82 1.46278 -3.24779 0
M  V30 2721 O 256.679 2.47104 -4.87444 0
M  V30 2722 H 253.773 0.405296 -0.720877 0
M  V30 2723 H 256.319 0.0986785 -1.69413 0
M  V30 2724 H 255.091 0.558357 -3.87296 0
M  V30 2725 H 254.714 2.18287 -3.3232 0
M  V30 2726 N 255.711 1.52812 0.385517 0
M  V30 2727 C 256.959 1.67694 1.12797 0
M  V30 2728 C 257.28 0.421115 1.90399 0
M  V30 2729 O 256.55 -0.564551 1.87589 0
M  V30 2730 H 255.13 0.618155 0.419396 0
M  V30 2731 H 257.792 1.89938 0.436972 0
M  V30 2732 H 256.888 2.52896 1.82894 0
M  V30 2733 N 257.189 -0.644168 1.43834 0
M  V30 2734 C 258.435 -1.40431 1.47141 0
M  V30 2735 C 258.79 -1.92153 0.0975577 0
M  V30 2736 O 258.083 -1.69924 -0.885232 0
M  V30 2737 C 258.277 -2.59615 2.45631 0
M  V30 2738 C 258.106 -2.1956 3.92458 0
M  V30 2739 C 256.876 -2.07456 4.60749 0
M  V30 2740 C 259.074 -1.79281 4.8204 0
M  V30 2741 N 257.056 -1.60827 5.92459 0
M  V30 2742 C 258.427 -1.43801 6.03093 0
M  V30 2743 C 260.482 -1.66545 4.6922 0
M  V30 2744 C 259.185 -0.968599 7.12749 0
M  V30 2745 C 261.211 -1.21008 5.78888 0
M  V30 2746 C 260.573 -0.864711 6.99072 0
M  V30 2747 H 256.672 -0.509182 0.593513 0
M  V30 2748 H 259.256 -0.740351 1.80075 0
M  V30 2749 H 257.427 -3.23658 2.1471 0
M  V30 2750 H 259.159 -3.26357 2.39318 0
M  V30 2751 H 255.914 -2.275 4.1538 0
M  V30 2752 H 256.338 -1.39848 6.62398 0
M  V30 2753 H 260.98 -1.91883 3.7675 0
M  V30 2754 H 258.698 -0.702715 8.05039 0
M  V30 2755 H 262.284 -1.11631 5.7099 0
M  V30 2756 H 261.164 -0.517736 7.82489 0
M  V30 2757 N 258.668 -1.30515 -0.883378 0
M  V30 2758 C 259.917 -1.18795 -1.63005 0
M  V30 2759 C 260.23 0.255923 -1.93919 0
M  V30 2760 O 261.436 0.494654 -2.66956 0
M  V30 2761 C 259.892 -2.07878 -2.93794 0
M  V30 2762 C 259.5 -3.57184 -2.70414 0
M  V30 2763 C 261.244 -2.04924 -3.71761 0
M  V30 2764 C 259.151 -4.38317 -3.97029 0
M  V30 2765 H 258.081 -0.441031 -0.611562 0
M  V30 2766 H 260.732 -1.55275 -0.977854 0
M  V30 2767 H 259.114 -1.64283 -3.60315 0
M  V30 2768 H 260.288 -4.08937 -2.12384 0
M  V30 2769 H 258.603 -3.61976 -2.0582 0
M  V30 2770 H 261.2 -2.62792 -4.65665 0
M  V30 2771 H 261.543 -1.0331 -4.03277 0
M  V30 2772 H 262.076 -2.46649 -3.12104 0
M  V30 2773 H 258.815 -5.40632 -3.70671 0
M  V30 2774 H 258.335 -3.91326 -4.54559 0
M  V30 2775 H 260.014 -4.49834 -4.65036 0
M  V30 2776 N 260.146 1.09593 -1.13257 0
M  V30 2777 C 261.078 2.16015 -0.766167 0
M  V30 2778 C 262.091 1.61423 0.211303 0
M  V30 2779 O 263.28 1.78498 -0.00863946 0
M  V30 2780 C 260.38 3.38706 -0.114662 0
M  V30 2781 C 259.553 4.22717 -1.12379 0
M  V30 2782 C 258.612 5.23835 -0.498301 0
M  V30 2783 O 257.638 5.573 -1.15781 0
M  V30 2784 N 258.84 5.75886 0.730417 0
M  V30 2785 H 261.605 2.48055 -1.68193 0
M  V30 2786 H 259.166 1.25292 -1.02535 0
M  V30 2787 H 261.158 4.03464 0.315991 0
M  V30 2788 H 259.728 3.04569 0.704011 0
M  V30 2789 H 258.948 3.54122 -1.73179 0
M  V30 2790 H 260.236 4.75673 -1.80589 0
M  V30 2791 H 259.634 5.50911 1.28504 0
M  V30 2792 H 258.191 6.42387 1.10376 0
M  V30 2793 N 261.624 0.925811 1.2754 0
M  V30 2794 C 262.87 0.566092 1.94739 0
M  V30 2795 C 263.203 -0.890057 1.72603 0
M  V30 2796 O 262.478 -1.63467 1.05399 0
M  V30 2797 C 262.761 0.89054 3.48915 0
M  V30 2798 C 262.614 2.4003 3.80402 0
M  V30 2799 C 263.933 0.395101 4.38323 0
M  V30 2800 H 261.052 0.20714 0.707292 0
M  V30 2801 H 263.694 1.15725 1.50691 0
M  V30 2802 H 261.844 0.387452 3.86563 0
M  V30 2803 H 263.516 2.97494 3.52555 0
M  V30 2804 H 261.759 2.85028 3.2702 0
M  V30 2805 H 262.43 2.57785 4.8811 0
M  V30 2806 H 264.906 0.826241 4.07814 0
M  V30 2807 H 263.782 0.651086 5.45025 0
M  V30 2808 H 264.043 -0.704798 4.36446 0
M  V30 2809 N 263.102 -1.41638 0.69111 0
M  V30 2810 C 264.327 -2.06148 0.227583 0
M  V30 2811 C 264.752 -1.51652 -1.11281 0
M  V30 2812 O 264.11 -0.64164 -1.69566 0
M  V30 2813 C 264.158 -3.60095 0.190858 0
M  V30 2814 O 263.262 -4.03845 -0.835664 0
M  V30 2815 H 262.603 -0.654434 0.112306 0
M  V30 2816 H 265.133 -1.81484 0.944714 0
M  V30 2817 H 265.143 -4.07995 0.020207 0
M  V30 2818 H 263.818 -3.99129 1.16915 0
M  V30 2819 H 262.395 -3.67458 -0.63473 0
M  V30 2820 N 264.58 -0.43555 -1.51462 0
M  V30 2821 C 265.81 0.130053 -2.0619 0
M  V30 2822 C 266.218 1.37164 -1.30317 0
M  V30 2823 O 265.561 1.80225 -0.355598 0
M  V30 2824 C 265.623 0.519418 -3.55728 0
M  V30 2825 C 265.287 -0.615119 -4.52841 0
M  V30 2826 C 266.284 -1.48671 -4.9819 0
M  V30 2827 C 263.969 -0.795341 -4.95963 0
M  V30 2828 C 265.963 -2.52324 -5.8533 0
M  V30 2829 C 263.65 -1.83514 -5.82894 0
M  V30 2830 C 264.648 -2.69748 -6.27475 0
M  V30 2831 O 264.336 -3.71944 -7.1268 0
M  V30 2832 H 264.068 0.0121612 -0.675891 0
M  V30 2833 H 266.622 -0.6129 -1.96043 0
M  V30 2834 H 264.852 1.31505 -3.63653 0
M  V30 2835 H 266.541 1.01597 -3.92979 0
M  V30 2836 H 267.307 -1.359 -4.65571 0
M  V30 2837 H 263.186 -0.133713 -4.60806 0
M  V30 2838 H 266.73 -3.19665 -6.20048 0
M  V30 2839 H 262.627 -1.96306 -6.14926 0
M  V30 2840 H 263.395 -3.68503 -7.30854 0
M  V30 2841 N 266.058 1.56714 -0.166846 0
M  V30 2842 C 266.968 2.21331 0.777791 0
M  V30 2843 C 267.984 1.20358 1.25658 0
M  V30 2844 O 269.16 1.53005 1.30964 0
M  V30 2845 C 266.225 2.83787 1.99163 0
M  V30 2846 C 265.286 3.99947 1.56016 0
M  V30 2847 C 264.519 4.59415 2.71613 0
M  V30 2848 O 264.742 4.17769 3.88362 0
M  V30 2849 O 263.676 5.49359 2.45945 0
M  V30 2850 H 267.502 3.02605 0.257636 0
M  V30 2851 H 265.087 1.49275 0.0611393 0
M  V30 2852 H 266.969 3.23405 2.70161 0
M  V30 2853 H 265.644 2.05513 2.50092 0
M  V30 2854 H 264.551 3.65007 0.819809 0
M  V30 2855 H 265.884 4.79801 1.09782 0
M  V30 2856 N 267.536 -0.106894 1.57237 0
M  V30 2857 C 268.468 -1.15646 1.97885 0
M  V30 2858 C 269.481 -1.36981 0.879779 0
M  V30 2859 O 270.67 -1.35841 1.15799 0
M  V30 2860 C 267.77 -2.51425 2.27241 0
M  V30 2861 C 266.943 -2.50529 3.58545 0
M  V30 2862 C 266.002 -3.68145 3.75973 0
M  V30 2863 O 265.028 -3.51176 4.47956 0
M  V30 2864 N 266.23 -4.87177 3.15656 0
M  V30 2865 H 268.995 -0.81059 2.8853 0
M  V30 2866 H 266.556 -0.296024 1.59171 0
M  V30 2867 H 268.548 -3.28689 2.36105 0
M  V30 2868 H 267.118 -2.78147 1.42663 0
M  V30 2869 H 266.338 -1.58894 3.60758 0
M  V30 2870 H 267.626 -2.46997 4.44826 0
M  V30 2871 H 267.024 -5.03868 2.57165 0
M  V30 2872 H 265.581 -5.62075 3.30023 0
M  V30 2873 N 269.014 -1.53014 -0.377408 0
M  V30 2874 C 270.244 -1.72265 -1.14054 0
M  V30 2875 C 270.652 -0.44601 -1.83868 0
M  V30 2876 O 269.995 0.590095 -1.73964 0
M  V30 2877 C 270.057 -2.82492 -2.22348 0
M  V30 2878 C 269.721 -4.23233 -1.72402 0
M  V30 2879 C 270.718 -5.05992 -1.19448 0
M  V30 2880 C 268.403 -4.696 -1.78273 0
M  V30 2881 C 270.397 -6.33203 -0.730268 0
M  V30 2882 C 268.084 -5.96792 -1.31464 0
M  V30 2883 C 269.082 -6.78424 -0.789297 0
M  V30 2884 O 268.77 -8.0323 -0.328077 0
M  V30 2885 H 268.502 -0.579873 -0.347453 0
M  V30 2886 H 271.056 -2.00502 -0.445882 0
M  V30 2887 H 269.286 -2.49702 -2.95272 0
M  V30 2888 H 270.975 -2.90034 -2.83963 0
M  V30 2889 H 271.741 -4.71349 -1.14259 0
M  V30 2890 H 267.62 -4.06142 -2.18106 0
M  V30 2891 H 271.164 -6.96868 -0.319542 0
M  V30 2892 H 267.061 -6.30937 -1.36342 0
M  V30 2893 H 267.829 -8.1727 -0.448493 0
M  V30 2894 N 270.492 0.636531 -1.44174 0
M  V30 2895 C 271.422 1.76003 -1.53444 0
M  V30 2896 C 272.403 1.65619 -0.387841 0
M  V30 2897 O 273.588 1.84461 -0.607257 0
M  V30 2898 C 270.718 3.14511 -1.4731 0
M  V30 2899 C 269.672 3.39677 -2.60391 0
M  V30 2900 C 268.998 4.78159 -2.39308 0
M  V30 2901 C 270.298 3.32772 -4.02567 0
M  V30 2902 H 271.992 1.68501 -2.47483 0
M  V30 2903 H 269.538 0.809237 -1.19111 0
M  V30 2904 H 271.491 3.92878 -1.52397 0
M  V30 2905 H 270.215 3.22783 -0.49785 0
M  V30 2906 H 268.874 2.63688 -2.54684 0
M  V30 2907 H 268.522 4.83128 -1.39988 0
M  V30 2908 H 268.222 4.95956 -3.15122 0
M  V30 2909 H 269.746 5.58762 -2.46205 0
M  V30 2910 H 271.16 4.01051 -4.09672 0
M  V30 2911 H 269.557 3.62104 -4.7854 0
M  V30 2912 H 270.627 2.30669 -4.2652 0
M  V30 2913 N 271.97 1.30982 0.876444 0
M  V30 2914 C 273.195 1.23373 1.66715 0
M  V30 2915 C 273.62 -0.19885 1.87046 0
M  V30 2916 O 272.978 -1.1427 1.40756 0
M  V30 2917 C 273.026 1.97644 3.01611 0
M  V30 2918 O 272.13 1.30935 3.91062 0
M  V30 2919 H 271.471 0.426279 0.509099 0
M  V30 2920 H 274.001 1.72944 1.09323 0
M  V30 2921 H 274.011 2.06992 3.51594 0
M  V30 2922 H 272.686 3.01829 2.86133 0
M  V30 2923 H 271.263 1.29996 3.49507 0
M  V30 2924 N 273.449 -1.08991 1.13837 0
M  V30 2925 C 274.382 -2.15049 0.763477 0
M  V30 2926 C 275.36 -1.60629 -0.252398 0
M  V30 2927 O 276.544 -1.87958 -0.142853 0
M  V30 2928 C 273.671 -3.38441 0.132545 0
M  V30 2929 C 272.717 -4.11596 1.11763 0
M  V30 2930 S 273.55 -4.6521 2.65216 0
M  V30 2931 C 274.706 -5.91896 2.03495 0
M  V30 2932 H 274.939 -2.46518 1.66182 0
M  V30 2933 H 272.472 -1.21008 0.958976 0
M  V30 2934 H 274.43 -4.09883 -0.225074 0
M  V30 2935 H 273.091 -3.05182 -0.743135 0
M  V30 2936 H 272.284 -5.00121 0.624076 0
M  V30 2937 H 271.886 -3.46038 1.41894 0
M  V30 2938 H 274.178 -6.63156 1.38675 0
M  V30 2939 H 275.121 -6.45938 2.9012 0
M  V30 2940 H 275.529 -5.44625 1.48471 0
M  V30 2941 N 274.927 -0.932562 -1.27047 0
M  V30 2942 C 276.173 -0.576412 -1.94436 0
M  V30 2943 C 276.506 0.880891 -1.73072 0
M  V30 2944 O 275.781 1.62905 -1.06264 0
M  V30 2945 C 276.064 -0.909031 -3.48437 0
M  V30 2946 C 275.917 -2.42044 -3.79123 0
M  V30 2947 C 277.236 -0.418341 -4.38107 0
M  V30 2948 H 274.355 -0.210888 -0.706184 0
M  V30 2949 H 276.997 -1.16522 -1.50075 0
M  V30 2950 H 275.147 -0.407947 -3.86352 0
M  V30 2951 H 276.819 -2.99359 -3.50973 0
M  V30 2952 H 275.062 -2.86758 -3.25503 0
M  V30 2953 H 275.733 -2.6037 -4.86736 0
M  V30 2954 H 278.209 -0.847856 -4.0737 0
M  V30 2955 H 277.085 -0.679981 -5.44672 0
M  V30 2956 H 277.346 0.681642 -4.36814 0
M  V30 2957 N 276.405 1.4127 -0.698611 0
M  V30 2958 C 277.652 2.0118 -0.230865 0
M  V30 2959 C 277.98 1.55338 1.17049 0
M  V30 2960 O 277.235 0.756775 1.80475 0
M  V30 2961 C 277.534 3.56592 -0.240192 0
M  V30 2962 C 277.2 4.21955 -1.58948 0
M  V30 2963 C 275.862 4.39524 -1.95887 0
M  V30 2964 C 278.214 4.58576 -2.47704 0
M  V30 2965 C 275.542 4.90992 -3.2116 0
M  V30 2966 C 277.894 5.11435 -3.72313 0
M  V30 2967 C 276.558 5.27215 -4.0939 0
M  V30 2968 H 275.828 0.736169 -0.0844796 0
M  V30 2969 H 278.475 1.69124 -0.8983 0
M  V30 2970 H 276.78 3.88456 0.510797 0
M  V30 2971 H 278.477 4.00758 0.139296 0
M  V30 2972 H 275.067 4.08657 -1.29219 0
M  V30 2973 H 279.251 4.44654 -2.20445 0
M  V30 2974 H 274.507 5.01393 -3.49878 0
M  V30 2975 H 278.681 5.38752 -4.4127 0
M  V30 2976 H 276.308 5.66859 -5.06533 0
M  V30 2977 N 277.883 0.443576 1.51229 0
M  V30 2978 C 279.108 -0.121648 2.07043 0
M  V30 2979 C 279.533 -1.35156 1.30823 0
M  V30 2980 O 278.891 -1.7793 0.347934 0
M  V30 2981 C 278.939 -0.41624 3.5819 0
M  V30 2982 O 278.043 -1.50163 3.8409 0
M  V30 2983 H 277.384 0.000871367 0.663999 0
M  V30 2984 H 279.914 0.626706 1.94765 0
M  V30 2985 H 279.924 -0.664867 4.02546 0
M  V30 2986 H 278.599 0.482653 4.1309 0
M  V30 2987 H 277.176 -1.24248 3.51592 0
M  V30 2988 N 279.361 -1.56624 0.175154 0
M  V30 2989 C 280.61 -1.96173 -0.468921 0
M  V30 2990 C 280.923 -1.06401 -1.64128 0
M  V30 2991 O 282.129 -1.35648 -2.35185 0
M  V30 2992 C 280.585 -3.48833 -0.885633 0
M  V30 2993 C 280.193 -4.47237 0.261343 0
M  V30 2994 C 281.937 -3.97194 -1.49791 0
M  V30 2995 C 279.844 -5.9114 -0.175214 0
M  V30 2996 H 278.774 -0.732455 -0.178958 0
M  V30 2997 H 281.425 -1.81591 0.263997 0
M  V30 2998 H 279.807 -3.58848 -1.67464 0
M  V30 2999 H 280.981 -4.4894 1.03871 0
M  V30 3000 H 279.296 -4.08956 0.783827 0
M  V30 3001 H 281.893 -5.02167 -1.83665 0
M  V30 3002 H 282.236 -3.40351 -2.39722 0
M  V30 3003 H 282.769 -3.90212 -0.773267 0
M  V30 3004 H 279.508 -6.51865 0.689414 0
M  V30 3005 H 279.028 -5.92735 -0.91786 0
M  V30 3006 H 280.707 -6.44044 -0.617792 0
M  V30 3007 N 280.839 0.0985539 -1.57292 0
M  V30 3008 C 282.085 0.803867 -1.86188 0
M  V30 3009 C 282.418 1.78549 -0.763794 0
M  V30 3010 O 281.693 1.93153 0.22855 0
M  V30 3011 C 281.976 1.53568 -3.25713 0
M  V30 3012 C 281.829 0.572277 -4.46145 0
M  V30 3013 C 283.148 2.48708 -3.63087 0
M  V30 3014 H 280.267 0.290781 -0.677211 0
M  V30 3015 H 282.909 0.0675783 -1.8988 0
M  V30 3016 H 281.059 2.16332 -3.22696 0
M  V30 3017 H 282.731 -0.0480894 -4.61275 0
M  V30 3018 H 280.974 -0.114618 -4.33649 0
M  V30 3019 H 281.645 1.12139 -5.40489 0
M  V30 3020 H 284.121 1.96039 -3.67026 0
M  V30 3021 H 282.997 2.96932 -4.61652 0
M  V30 3022 H 283.258 3.32309 -2.91588 0
M  V30 3023 O 282.356 1.59668 0.242586 0
M  V30 3024 H 283.047 1.72276 0.885483 0
M  V30 END ATOM
M  V30 BEGIN BOND
M  V30 END BOND
M  V30 END CTAB
M  END
$$$$
