drugbank_target|O75521 Enoyl-CoA delta isomerase 2, mitochondrial (DB08231)
 OpenBabel12092120493D

  0  0  0     0  0            999 V3000
M  V30 BEGIN CTAB
M  V30 COUNTS 6160 6223 0 0 0
M  V30 BEGIN ATOM
M  V30 1 H -0.908 1.98254 -0.117106 0
M  V30 2 N 0 1.576 0 0
M  V30 3 C 0.933 2.03868 1.02534 0
M  V30 4 C 1.911 0.928543 1.3348 0
M  V30 5 O 3.095 1.19667 1.45644 0
M  V30 6 C 0.222 2.43627 2.35294 0
M  V30 7 C -0.732 3.65373 2.2001 0
M  V30 8 S 0.101 5.13292 1.52614 0
M  V30 9 C 1.257 5.56322 2.86805 0
M  V30 10 H 1.49 2.90518 0.631377 0
M  V30 11 H -0.977 1.52953 0.210867 0
M  V30 12 H 0.981 2.67203 3.11629 0
M  V30 13 H -0.358 1.57376 2.7183 0
M  V30 14 H -1.165 3.90944 3.18086 0
M  V30 15 H -1.563 3.418 1.51819 0
M  V30 16 H 0.729 5.58782 3.83104 0
M  V30 17 H 1.672 6.56266 2.65933 0
M  V30 18 H 2.08 4.83886 2.90714 0
M  V30 19 N 1.4781 -0.272755 1.55222 0
M  V30 20 C 2.4411 -1.32041 1.87344 0
M  V30 21 C 3.4411 -1.42342 0.74803 0
M  V30 22 O 4.6311 -1.41488 1.0162 0
M  V30 23 C 1.7631 -2.70173 2.07893 0
M  V30 24 H 2.9561 -1.04789 2.80997 0
M  V30 25 H 0.5091 -0.51083 1.47717 0
M  V30 26 H 1.2441 -3.02605 1.16622 0
M  V30 27 H 1.0291 -2.64082 2.89833 0
M  V30 28 H 2.5191 -3.45869 2.34017 0
M  V30 29 N 2.9562 -1.48159 -0.537278 0
M  V30 30 C 3.8892 -1.567 -1.65893 0
M  V30 31 C 4.8672 -0.41787 -1.57139 0
M  V30 32 O 6.0512 -0.628461 -1.77715 0
M  V30 33 C 3.1782 -1.48818 -3.04255 0
M  V30 34 C 2.2242 -2.68482 -3.31391 0
M  V30 35 S 3.0572 -4.30516 -3.1846 0
M  V30 36 C 4.2132 -4.2522 -4.59281 0
M  V30 37 H 4.4462 -2.5159 -1.58397 0
M  V30 38 H 1.9792 -1.36602 -0.719672 0
M  V30 39 H 3.9372 -1.44958 -3.84054 0
M  V30 40 H 2.5982 -0.552777 -3.09198 0
M  V30 41 H 1.7912 -2.59085 -4.32309 0
M  V30 42 H 1.3932 -2.69567 -2.59248 0
M  V30 43 H 3.6852 -3.94703 -5.5065 0
M  V30 44 H 4.6282 -5.26292 -4.73732 0
M  V30 45 H 5.0362 -3.55791 -4.38261 0
M  V30 46 N 4.4343 0.785586 -1.36625 0
M  V30 47 C 5.3973 1.87999 -1.31107 0
M  V30 48 C 6.3973 1.59316 -0.217959 0
M  V30 49 O 7.5873 1.67656 -0.472977 0
M  V30 50 C 4.7193 3.24861 -1.03334 0
M  V30 51 H 5.9123 1.94307 -2.2844 0
M  V30 52 H 3.4653 0.983813 -1.21453 0
M  V30 53 H 4.2003 3.24235 -0.0647432 0
M  V30 54 H 3.9853 3.4707 -1.82441 0
M  V30 55 H 5.4753 4.04929 -1.02088 0
M  V30 56 N 5.9124 1.20967 1.01018 0
M  V30 57 C 7.1424 1.04803 1.78044 0
M  V30 58 C 7.5504 -0.405462 1.84804 0
M  V30 59 O 6.8934 -1.2932 1.30468 0
M  V30 60 C 6.9554 1.56377 3.23707 0
M  V30 61 C 6.6194 3.04767 3.40538 0
M  V30 62 C 7.6164 4.02366 3.29239 0
M  V30 63 C 5.3014 3.43862 3.66147 0
M  V30 64 C 7.2954 5.37049 3.43304 0
M  V30 65 C 4.9824 4.78699 3.79855 0
M  V30 66 C 5.9804 5.75101 3.68439 0
M  V30 67 O 5.6684 7.07493 3.81719 0
M  V30 68 H 5.4004 0.368778 0.56655 0
M  V30 69 H 7.9544 1.60642 1.27997 0
M  V30 70 H 6.1844 0.949297 3.74867 0
M  V30 71 H 7.8734 1.36136 3.8239 0
M  V30 72 H 8.6394 3.73506 3.09384 0
M  V30 73 H 4.5184 2.69364 3.74118 0
M  V30 74 H 8.0624 6.12277 3.34309 0
M  V30 75 H 3.9594 5.07247 3.99213 0
M  V30 76 H 4.7274 7.1483 3.98697 0
M  V30 77 N 7.3905 -1.2043 1.01659 0
M  V30 78 C 8.3205 -2.25466 0.607226 0
M  V30 79 C 9.3015 -1.65853 -0.377716 0
M  V30 80 O 10.4865 -1.92409 -0.263149 0
M  V30 81 C 7.6165 -3.47256 -0.0552949 0
M  V30 82 C 6.5705 -4.19462 0.850632 0
M  V30 83 C 5.8965 -5.34673 0.0538859 0
M  V30 84 C 7.1965 -4.75603 2.15868 0
M  V30 85 H 8.8905 -2.59962 1.48526 0
M  V30 86 H 6.4365 -1.2496 0.715605 0
M  V30 87 H 8.3895 -4.19917 -0.353233 0
M  V30 88 H 7.1135 -3.11924 -0.968045 0
M  V30 89 H 5.7725 -3.48667 1.13257 0
M  V30 90 H 5.4205 -4.95585 -0.860514 0
M  V30 91 H 5.1205 -5.83913 0.657192 0
M  V30 92 H 6.6445 -6.10138 -0.237598 0
M  V30 93 H 8.0585 -5.40083 1.92311 0
M  V30 94 H 6.4555 -5.3528 2.71284 0
M  V30 95 H 7.5255 -3.94346 2.82169 0
M  V30 96 N 8.8686 -0.792821 -1.36206 0
M  V30 97 C 9.8316 -0.199459 -2.2833 0
M  V30 98 C 10.8316 0.605189 -1.48977 0
M  V30 99 O 12.0216 0.425685 -1.68919 0
M  V30 100 C 9.1536 0.723523 -3.33134 0
M  V30 101 H 10.3466 -1.01181 -2.82316 0
M  V30 102 H 7.8996 -0.562485 -1.45828 0
M  V30 103 H 8.6346 1.56008 -2.84309 0
M  V30 104 H 8.4196 0.148436 -3.91819 0
M  V30 105 H 9.9096 1.13344 -4.01924 0
M  V30 106 N 10.3467 1.47872 -0.545128 0
M  V30 107 C 11.5927 2.03385 -0.0247951 0
M  V30 108 C 11.9477 1.41325 1.30556 0
M  V30 109 O 11.2407 0.5552 1.8338 0
M  V30 110 C 11.4347 3.57131 0.13867 0
M  V30 111 C 11.2637 4.34097 -1.17429 0
M  V30 112 C 10.0337 4.74458 -1.73831 0
M  V30 113 C 12.2317 4.6998 -2.08861 0
M  V30 114 N 10.2137 5.3602 -2.99258 0
M  V30 115 C 11.5847 5.31719 -3.18866 0
M  V30 116 C 13.6397 4.5191 -2.09003 0
M  V30 117 C 12.3427 5.77295 -4.29096 0
M  V30 118 C 14.3687 4.98477 -3.18237 0
M  V30 119 C 13.7307 5.60253 -4.26961 0
M  V30 120 H 9.8297 0.780339 -0.050943 0
M  V30 121 H 12.4137 1.80507 -0.729753 0
M  V30 122 H 10.5847 3.79802 0.812733 0
M  V30 123 H 12.3167 3.99282 0.659976 0
M  V30 124 H 9.0717 4.56037 -1.2778 0
M  V30 125 H 9.4957 5.71355 -3.63157 0
M  V30 126 H 14.1377 4.03516 -1.26234 0
M  V30 127 H 11.8557 6.24687 -5.12633 0
M  V30 128 H 15.4417 4.86274 -3.1942 0
M  V30 129 H 14.3217 5.95631 -5.10091 0
M  V30 130 N 11.8248 0.280983 1.55075 0
M  V30 131 C 13.2408 -0.0729964 1.59433 0
M  V30 132 C 13.4408 -1.5411 1.29817 0
M  V30 133 O 12.4968 -2.29086 1.06187 0
M  V30 134 C 13.8098 0.306921 2.9913 0
M  V30 135 C 15.3578 0.254023 3.11968 0
M  V30 136 C 15.8328 0.608467 4.5394 0
M  V30 137 N 17.3238 0.560241 4.59799 0
M  V30 138 C 18.0588 0.80722 5.6769 0
M  V30 139 N 17.5548 1.11912 6.83701 0
M  V30 140 N 19.3478 0.735623 5.57266 0
M  V30 141 H 11.4988 1.238 1.7259 0
M  V30 142 H 13.7618 0.500547 0.805082 0
M  V30 143 H 13.4678 1.32816 3.25657 0
M  V30 144 H 13.3418 -0.349363 3.75579 0
M  V30 145 H 15.7288 -0.75794 2.852 0
M  V30 146 H 15.8098 0.944649 2.37718 0
M  V30 147 H 15.4538 1.61814 4.81434 0
M  V30 148 H 15.3838 -0.104013 5.26497 0
M  V30 149 H 17.8748 0.329288 3.76463 0
M  V30 150 H 18.1878 1.29409 7.61888 0
M  V30 151 H 16.5328 1.15695 6.85303 0
M  V30 152 H 19.7238 0.491752 4.6551 0
M  V30 153 H 19.8968 0.931482 6.4127 0
M  V30 154 N 13.3029 -1.57598 0.00835791 0
M  V30 155 C 14.2329 -2.1198 -0.979113 0
M  V30 156 C 15.2139 -1.03091 -1.35301 0
M  V30 157 O 16.3989 -1.30818 -1.43528 0
M  V30 158 C 13.5289 -2.62995 -2.26828 0
M  V30 159 C 12.4829 -3.76485 -2.03576 0
M  V30 160 C 11.8089 -4.13846 -3.38579 0
M  V30 161 C 13.1089 -5.0342 -1.39161 0
M  V30 162 H 14.8029 -2.94738 -0.526281 0
M  V30 163 H 12.3489 -1.41783 -0.251704 0
M  V30 164 H 14.3019 -2.99669 -2.96271 0
M  V30 165 H 13.0259 -1.7737 -2.7424 0
M  V30 166 H 11.6849 -3.40217 -1.36557 0
M  V30 167 H 11.3329 -3.25232 -3.83709 0
M  V30 168 H 11.0329 -4.90312 -3.23834 0
M  V30 169 H 12.5569 -4.53086 -4.09323 0
M  V30 170 H 13.9709 -5.37812 -1.98573 0
M  V30 171 H 12.3679 -5.84746 -1.34878 0
M  V30 172 H 13.4379 -4.83548 -0.361868 0
M  V30 173 N 14.781 0.264519 -1.55364 0
M  V30 174 C 15.744 1.31046 -1.88042 0
M  V30 175 C 16.744 1.41943 -0.755569 0
M  V30 176 O 17.934 1.40947 -1.02369 0
M  V30 177 C 15.066 2.69067 -2.09323 0
M  V30 178 H 16.259 1.03297 -2.81549 0
M  V30 179 H 13.812 0.502989 -1.47986 0
M  V30 180 H 14.547 3.01982 -1.18226 0
M  V30 181 H 14.332 2.62542 -2.91229 0
M  V30 182 H 15.822 3.44623 -2.35848 0
M  V30 183 N 16.2591 1.48442 0.529413 0
M  V30 184 C 17.6751 1.34575 0.858004 0
M  V30 185 C 17.8751 0.3572 1.98309 0
M  V30 186 O 16.9311 -0.221379 2.51528 0
M  V30 187 C 18.2441 2.74617 1.22499 0
M  V30 188 C 19.7921 2.83109 1.33484 0
M  V30 189 C 20.2671 4.23854 1.73526 0
M  V30 190 N 21.7581 4.2653 1.80628 0
M  V30 191 C 22.4931 5.32372 2.12997 0
M  V30 192 N 21.9891 6.48491 2.43786 0
M  V30 193 N 23.7821 5.19766 2.14008 0
M  V30 194 H 15.9331 2.1133 -0.212925 0
M  V30 195 H 18.1961 0.947439 -0.0326199 0
M  V30 196 H 17.9021 3.4852 0.471905 0
M  V30 197 H 17.7761 3.08177 2.17501 0
M  V30 198 H 20.1631 2.09462 2.0787 0
M  V30 199 H 20.2441 2.53168 0.366027 0
M  V30 200 H 19.8881 4.98018 0.997013 0
M  V30 201 H 19.8181 4.5124 2.71459 0
M  V30 202 H 22.3091 3.42772 1.59108 0
M  V30 203 H 22.6221 7.24993 2.67592 0
M  V30 204 H 20.9671 6.51765 2.41304 0
M  V30 205 H 24.1581 4.28066 1.89412 0
M  V30 206 H 24.3311 6.02354 2.38902 0
M  V30 207 N 17.7372 -0.778329 1.37039 0
M  V30 208 C 19.1532 -1.07796 1.17695 0
M  V30 209 C 19.3532 -2.01498 0.00860115 0
M  V30 210 O 18.4092 -2.43901 -0.653352 0
M  V30 211 C 19.7222 -1.68178 2.49272 0
M  V30 212 C 21.2702 -1.80467 2.55735 0
M  V30 213 C 21.7452 -2.44263 3.87427 0
M  V30 214 N 23.2362 -2.51721 3.88833 0
M  V30 215 C 23.9712 -3.01919 4.87476 0
M  V30 216 N 23.4672 -3.5234 5.96513 0
M  V30 217 N 25.2602 -3.00733 4.74885 0
M  V30 218 H 17.4112 -0.156032 2.11826 0
M  V30 219 H 19.6742 -0.131844 0.938787 0
M  V30 220 H 19.3802 -1.06796 3.35093 0
M  V30 221 H 19.2542 -2.67554 2.65885 0
M  V30 222 H 21.6412 -2.40984 1.70325 0
M  V30 223 H 21.7222 -0.798656 2.43013 0
M  V30 224 H 21.3662 -1.84388 4.73248 0
M  V30 225 H 21.2962 -3.45458 3.9745 0
M  V30 226 H 23.7872 -2.1603 3.10063 0
M  V30 227 H 24.1002 -3.89027 6.67741 0
M  V30 228 H 22.4452 -3.50462 6.00168 0
M  V30 229 H 25.6362 -2.60638 3.88826 0
M  V30 230 H 25.8092 -3.39545 5.51918 0
M  V30 231 N 19.2153 -1.21501 -1.00376 0
M  V30 232 C 20.4403 -1.05977 -1.78279 0
M  V30 233 C 20.8653 0.385994 -1.84097 0
M  V30 234 O 20.2233 1.27849 -1.28547 0
M  V30 235 C 20.2713 -1.66302 -3.19963 0
M  V30 236 O 19.3753 -0.909333 -4.0225 0
M  V30 237 H 18.7163 -0.372906 -0.549397 0
M  V30 238 H 21.2463 -1.6107 -1.26165 0
M  V30 239 H 21.2563 -1.70574 -3.70632 0
M  V30 240 H 19.9313 -2.71515 -3.15043 0
M  V30 241 H 18.5083 -0.941795 -3.60811 0
M  V30 242 N 20.6934 1.19889 -1.02296 0
M  V30 243 C 21.9334 1.91125 -0.724602 0
M  V30 244 C 22.2974 1.77464 0.732835 0
M  V30 245 O 23.4984 2.43241 1.144 0
M  V30 246 C 21.7694 3.38187 -1.15604 0
M  V30 247 S 23.3284 4.27702 -0.980621 0
M  V30 248 H 20.1464 0.66018 -0.263976 0
M  V30 249 H 22.7484 1.44978 -1.31155 0
M  V30 250 H 21.4524 3.45653 -2.21251 0
M  V30 251 H 20.9834 3.89363 -0.562131 0
M  V30 252 H 22.9984 4.96073 0.112225 0
M  V30 253 N 22.1715 0.800033 1.35784 0
M  V30 254 C 23.5825 0.439142 1.81462 0
M  V30 255 C 23.9335 -1.03813 1.66485 0
M  V30 256 O 23.0585 -1.80626 1.19177 0
M  V30 257 C 23.6535 0.790314 3.29453 0
M  V30 258 C 22.2125 0.482111 3.733 0
M  V30 259 C 21.3595 1.01938 2.57883 0
M  V30 260 H 24.3105 0.992254 1.23855 0
M  V30 261 H 24.3315 0.0853677 3.80404 0
M  V30 262 H 23.8435 1.86554 3.40322 0
M  V30 263 H 21.9445 -0.584652 3.67984 0
M  V30 264 H 22.0575 1.01015 4.6833 0
M  V30 265 H 20.4215 0.442043 2.50835 0
M  V30 266 H 21.2045 2.10059 2.71533 0
M  V30 267 N 23.6496 -1.47581 0.552962 0
M  V30 268 C 24.8746 -2.07378 0.0300593 0
M  V30 269 C 25.2996 -1.40355 -1.25229 0
M  V30 270 O 24.6576 -0.477099 -1.7491 0
M  V30 271 C 24.7056 -3.60274 -0.153231 0
M  V30 272 O 23.8096 -3.94041 -1.21678 0
M  V30 273 H 23.1506 -0.662158 0.0494182 0
M  V30 274 H 25.6806 -1.89662 0.767434 0
M  V30 275 H 25.6906 -4.0633 -0.368761 0
M  V30 276 H 24.3656 -4.08455 0.783397 0
M  V30 277 H 22.9426 -3.59735 -0.982079 0
M  V30 278 N 25.1277 -0.289203 -1.54924 0
M  V30 279 C 26.3527 0.329299 -2.04769 0
M  V30 280 C 26.7777 1.4763 -1.16564 0
M  V30 281 O 26.1357 1.80527 -0.167186 0
M  V30 282 C 26.1837 0.774438 -3.52186 0
M  V30 283 O 25.2877 1.88038 -3.67036 0
M  V30 284 H 24.6287 0.0659259 -0.660719 0
M  V30 285 H 27.1587 -0.42761 -2.00082 0
M  V30 286 H 27.1687 1.06642 -3.93816 0
M  V30 287 H 25.8437 -0.0646707 -4.1585 0
M  V30 288 H 24.4207 1.58985 -3.3731 0
M  V30 289 N 26.6058 1.57591 -0.0167156 0
M  V30 290 C 27.5358 2.12496 0.967858 0
M  V30 291 C 28.5168 1.03807 1.34752 0
M  V30 292 O 29.7018 1.31577 1.42833 0
M  V30 293 C 26.8318 2.64194 2.25431 0
M  V30 294 C 25.7858 3.77559 2.01576 0
M  V30 295 C 25.1118 4.15636 3.36379 0
M  V30 296 C 26.4118 5.04151 1.36489 0
M  V30 297 H 28.1058 2.95013 0.510643 0
M  V30 298 H 25.6518 1.41915 0.244181 0
M  V30 299 H 27.6048 3.01236 2.94678 0
M  V30 300 H 26.3288 1.78821 2.73296 0
M  V30 301 H 24.9878 3.40937 1.34751 0
M  V30 302 H 24.6358 3.27263 3.81979 0
M  V30 303 H 24.3358 4.92022 3.21229 0
M  V30 304 H 25.8598 4.5525 4.06915 0
M  V30 305 H 27.2738 5.38857 1.95718 0
M  V30 306 H 25.6708 5.85453 1.31776 0
M  V30 307 H 26.7408 4.83733 0.336219 0
M  V30 308 N 28.0839 -0.256276 1.55502 0
M  V30 309 C 29.0159 -1.33981 1.85962 0
M  V30 310 C 30.0289 -1.44743 0.745212 0
M  V30 311 O 31.2179 -1.4626 1.02324 0
M  V30 312 C 28.3179 -2.7194 2.02242 0
M  V30 313 C 27.4909 -2.83562 3.33033 0
M  V30 314 C 26.5499 -4.02304 3.39172 0
M  V30 315 O 25.5759 -3.92273 4.12444 0
M  V30 316 N 26.7779 -5.15045 2.67784 0
M  V30 317 H 29.5429 -1.08191 2.7949 0
M  V30 318 H 27.1039 -0.446388 1.55624 0
M  V30 319 H 29.0959 -3.49697 2.03701 0
M  V30 320 H 27.6659 -2.90479 1.15502 0
M  V30 321 H 26.8859 -1.92555 3.43971 0
M  V30 322 H 28.1739 -2.88271 4.19258 0
M  V30 323 H 27.5719 -5.26085 2.07968 0
M  V30 324 H 26.1289 -5.90972 2.74947 0
M  V30 325 N 29.562 -1.4872 -0.521534 0
M  V30 326 C 30.808 -1.574 -1.27879 0
M  V30 327 C 31.141 -0.250817 -1.92573 0
M  V30 328 O 30.416 0.743934 -1.79711 0
M  V30 329 C 30.699 -2.71843 -2.36164 0
M  V30 330 C 30.552 -4.13893 -1.76105 0
M  V30 331 C 31.871 -2.82008 -3.37875 0
M  V30 332 H 28.99 -0.572941 -0.463581 0
M  V30 333 H 31.632 -1.80927 -0.580119 0
M  V30 334 H 29.782 -2.51914 -2.95756 0
M  V30 335 H 31.454 -4.45284 -1.20499 0
M  V30 336 H 29.697 -4.20498 -1.06601 0
M  V30 337 H 30.368 -4.89804 -2.5455 0
M  V30 338 H 32.844 -3.00086 -2.88249 0
M  V30 339 H 31.72 -3.63796 -4.11028 0
M  V30 340 H 31.981 -1.90511 -3.98946 0
M  V30 341 N 31.0401 0.771051 -1.3745 0
M  V30 342 C 32.2681 1.56015 -1.35893 0
M  V30 343 C 32.6831 1.88718 0.0555523 0
M  V30 344 O 32.0401 1.51502 1.01752 0
M  V30 345 C 32.0911 2.87001 -2.19801 0
M  V30 346 O 31.8121 2.557 -3.55738 0
M  V30 347 C 33.3131 3.81228 -2.26231 0
M  V30 348 H 30.5331 0.483317 -0.465453 0
M  V30 349 H 33.0771 0.955611 -1.80799 0
M  V30 350 H 31.2321 3.43877 -1.78402 0
M  V30 351 H 31.6461 3.39584 -3.99729 0
M  V30 352 H 33.1201 4.70139 -2.89263 0
M  V30 353 H 33.5971 4.20409 -1.27093 0
M  V30 354 H 34.2031 3.30281 -2.67945 0
M  V30 355 N 32.5182 1.22032 0.997298 0
M  V30 356 C 33.7432 1.06921 1.77715 0
M  V30 357 C 34.1682 -0.376226 1.84299 0
M  V30 358 O 33.5262 -1.27165 1.29223 0
M  V30 359 C 33.5742 1.67996 3.19076 0
M  V30 360 O 32.6782 0.930653 4.01762 0
M  V30 361 H 32.0192 0.375814 0.547412 0
M  V30 362 H 34.5492 1.61737 1.25309 0
M  V30 363 H 34.5592 1.72538 3.69723 0
M  V30 364 H 33.2342 2.73182 3.13599 0
M  V30 365 H 31.8112 0.960917 3.60307 0
M  V30 366 N 33.9963 -1.19345 1.0293 0
M  V30 367 C 35.2433 -1.89038 0.726008 0
M  V30 368 C 35.5713 -1.79649 -0.745427 0
M  V30 369 O 34.8263 -1.18354 -1.55855 0
M  V30 370 C 35.1253 -3.39292 1.12319 0
M  V30 371 C 34.7913 -3.68885 2.59297 0
M  V30 372 C 33.4533 -3.76671 2.99453 0
M  V30 373 C 35.8053 -3.82178 3.54386 0
M  V30 374 C 33.1333 -3.9522 4.33611 0
M  V30 375 C 35.4853 -4.0224 4.88248 0
M  V30 376 C 34.1493 -4.08259 5.28092 0
M  V30 377 H 33.4193 -0.691739 0.265665 0
M  V30 378 H 36.0663 -1.41328 1.29223 0
M  V30 379 H 34.3713 -3.88903 0.475584 0
M  V30 380 H 36.0683 -3.91536 0.866037 0
M  V30 381 H 32.6583 -3.63433 2.27189 0
M  V30 382 H 36.8423 -3.75505 3.24514 0
M  V30 383 H 32.0983 -3.98119 4.64016 0
M  V30 384 H 36.2723 -4.11468 5.61843 0
M  V30 385 H 33.8993 -4.22384 6.32057 0
M  V30 386 N 35.4744 -0.807222 -1.35358 0
M  V30 387 C 36.8854 -0.44876 -1.81226 0
M  V30 388 C 37.2364 1.02929 -1.67033 0
M  V30 389 O 36.3614 1.79991 -1.20133 0
M  V30 390 C 36.9564 -0.807774 -3.2903 0
M  V30 391 C 35.5154 -0.501901 -3.73039 0
M  V30 392 C 34.6624 -1.03304 -2.57339 0
M  V30 393 H 37.6134 -0.998808 -1.23327 0
M  V30 394 H 37.6344 -0.10554 -3.80354 0
M  V30 395 H 37.1464 -1.88357 -3.39328 0
M  V30 396 H 35.2474 0.565128 -3.68289 0
M  V30 397 H 35.3604 -1.03497 -4.67787 0
M  V30 398 H 33.7244 -0.455339 -2.50597 0
M  V30 399 H 34.5074 -2.11496 -2.70415 0
M  V30 400 N 36.9525 1.47285 -0.560781 0
M  V30 401 C 38.1985 2.02764 -0.0381184 0
M  V30 402 C 38.5315 1.43384 1.30976 0
M  V30 403 O 37.8065 0.590733 1.85312 0
M  V30 404 C 38.0895 3.60064 0.0511427 0
M  V30 405 C 37.9425 4.2987 -1.32408 0
M  V30 406 C 39.2615 4.33439 0.762795 0
M  V30 407 H 36.3805 0.736841 -0.0153264 0
M  V30 408 H 39.0225 1.75675 -0.723759 0
M  V30 409 H 37.1725 3.83274 0.635065 0
M  V30 410 H 38.8445 4.17989 -1.95148 0
M  V30 411 H 37.0875 3.90085 -1.8978 0
M  V30 412 H 37.7585 5.38478 -1.21431 0
M  V30 413 H 40.2345 4.15243 0.266965 0
M  V30 414 H 39.1105 5.43124 0.794221 0
M  V30 415 H 39.3715 4.02915 1.81966 0
M  V30 416 N 38.4306 0.297415 1.54768 0
M  V30 417 C 39.6766 -0.313376 2.00364 0
M  V30 418 C 40.0096 -1.53815 1.18553 0
M  V30 419 O 39.2846 -1.92739 0.261103 0
M  V30 420 C 39.5676 -0.673525 3.53745 0
M  V30 421 C 39.4206 0.560133 4.46299 0
M  V30 422 C 40.7396 -1.50143 4.13697 0
M  V30 423 H 37.8586 -0.112428 0.728374 0
M  V30 424 H 40.5006 0.4088 1.8555 0
M  V30 425 H 38.6506 -1.28881 3.665 0
M  V30 426 H 40.3226 1.19863 4.45455 0
M  V30 427 H 38.5656 1.19405 4.17043 0
M  V30 428 H 39.2366 0.26405 5.51368 0
M  V30 429 H 41.7126 -0.981588 4.04356 0
M  V30 430 H 40.5886 -1.72221 5.21182 0
M  V30 431 H 40.8496 -2.48952 3.65343 0
M  V30 432 N 39.9087 -1.5758 0.0250728 0
M  V30 433 C 40.8407 -2.06869 -0.986796 0
M  V30 434 C 41.8537 -0.991332 -1.29137 0
M  V30 435 O 43.0427 -1.26761 -1.25674 0
M  V30 436 C 40.1427 -2.47486 -2.31525 0
M  V30 437 C 39.3157 -3.78253 -2.19643 0
M  V30 438 C 38.3747 -4.05464 -3.35388 0
M  V30 439 O 37.4007 -4.75774 -3.12454 0
M  V30 440 N 38.6027 -3.55321 -4.59051 0
M  V30 441 H 41.3677 -2.94302 -0.566276 0
M  V30 442 H 38.9287 -1.6109 -0.161776 0
M  V30 443 H 40.9207 -2.62785 -3.07776 0
M  V30 444 H 39.4907 -1.65441 -2.65232 0
M  V30 445 H 38.7107 -3.7279 -1.28144 0
M  V30 446 H 39.9987 -4.63936 -2.08903 0
M  V30 447 H 39.3967 -2.98431 -4.80578 0
M  V30 448 H 37.9537 -3.75905 -5.32483 0
M  V30 449 N 41.3868 0.248026 -1.55636 0
M  V30 450 C 42.3168 1.31079 -1.93237 0
M  V30 451 C 43.2978 1.50264 -0.797174 0
M  V30 452 O 44.4828 1.62891 -1.05737 0
M  V30 453 C 41.6128 2.66575 -2.22609 0
M  V30 454 C 40.5668 2.62087 -3.3837 0
M  V30 455 C 39.8928 4.01369 -3.53281 0
M  V30 456 C 41.1928 2.19171 -4.7409 0
M  V30 457 H 42.8868 0.998556 -2.82257 0
M  V30 458 H 40.4328 0.47891 -1.35803 0
M  V30 459 H 42.3858 3.41057 -2.47503 0
M  V30 460 H 41.1098 2.99432 -1.30414 0
M  V30 461 H 39.7688 1.90063 -3.13483 0
M  V30 462 H 39.4168 4.31489 -2.58508 0
M  V30 463 H 39.1168 3.99254 -4.31127 0
M  V30 464 H 40.6408 4.77552 -3.80495 0
M  V30 465 H 42.0548 2.83384 -4.98363 0
M  V30 466 H 40.4518 2.2817 -5.5503 0
M  V30 467 H 41.5218 1.14336 -4.71227 0
M  V30 468 N 42.8649 1.48995 0.513639 0
M  V30 469 C 43.8149 1.61127 1.61314 0
M  V30 470 C 44.7989 0.467521 1.53958 0
M  V30 471 O 45.9909 0.719826 1.61702 0
M  V30 472 C 43.1199 1.66937 2.99978 0
M  V30 473 C 42.2059 2.86847 3.12377 0
M  V30 474 N 42.5969 4.11078 2.94701 0
M  V30 475 C 40.8949 2.84521 3.43459 0
M  V30 476 C 41.5959 4.91615 3.10949 0
M  V30 477 N 40.5719 4.24739 3.3926 0
M  V30 478 H 44.3739 2.54909 1.46282 0
M  V30 479 H 41.8879 1.45593 0.719483 0
M  V30 480 H 43.8849 1.73725 3.78979 0
M  V30 481 H 42.5449 0.742831 3.16089 0
M  V30 482 H 43.5559 4.41258 2.71131 0
M  V30 483 H 40.2329 2.01192 3.65825 0
M  V30 484 H 41.6229 6.00264 3.01882 0
M  V30 485 N 44.343 -0.763751 1.37857 0
M  V30 486 C 45.276 -1.88486 1.28639 0
M  V30 487 C 46.254 -1.61757 0.165363 0
M  V30 488 O 47.438 -1.85391 0.340948 0
M  V30 489 C 44.565 -3.23884 0.990811 0
M  V30 490 C 43.611 -3.69514 2.12983 0
M  V30 491 S 44.444 -3.82244 3.75033 0
M  V30 492 C 45.6 -5.20477 3.47641 0
M  V30 493 H 45.833 -1.96017 2.23527 0
M  V30 494 H 43.366 -0.925684 1.23574 0
M  V30 495 H 45.324 -4.02081 0.827101 0
M  V30 496 H 43.985 -3.14044 0.0592832 0
M  V30 497 H 43.178 -4.67696 1.87821 0
M  V30 498 H 42.78 -2.98441 2.25408 0
M  V30 499 H 45.072 -6.05905 3.03125 0
M  V30 500 H 46.015 -5.50655 4.4518 0
M  V30 501 H 46.423 -4.88793 2.82385 0
M  V30 502 N 45.8211 -1.22559 -0.990812 0
M  V30 503 C 46.7691 -0.994798 -2.10253 0
M  V30 504 C 47.7631 0.0627798 -1.69284 0
M  V30 505 O 48.9691 -0.0898392 -1.79776 0
M  V30 506 H 45.3441 -0.304527 -0.687581 0
M  V30 507 H 47.3151 -1.93812 -2.26891 0
M  V30 508 C 46.0641 -0.591439 -3.42633 0
M  V30 509 H 45.3871 -1.3969 -3.74602 0
M  V30 510 H 46.8271 -0.469385 -4.21394 0
M  V30 511 C 45.2861 0.699232 -3.29564 0
M  V30 512 O 45.8161 1.75112 -3.61523 0
M  V30 513 N 44.0221 0.671182 -2.82743 0
M  V30 514 H 43.5691 -0.185136 -2.56934 0
M  V30 515 H 43.5271 1.53502 -2.7438 0
M  V30 516 N 47.2992 1.18797 -1.03562 0
M  V30 517 C 48.7152 1.40671 -0.753917 0
M  V30 518 C 48.9152 1.9043 0.658686 0
M  V30 519 O 47.9712 2.08538 1.42366 0
M  V30 520 C 49.2842 2.41192 -1.79574 0
M  V30 521 C 50.8322 2.54928 -1.81606 0
M  V30 522 C 51.3072 3.58709 -2.84766 0
M  V30 523 N 52.7982 3.66212 -2.83625 0
M  V30 524 C 53.5332 4.46225 -3.60098 0
M  V30 525 N 53.0292 5.29888 -4.46308 0
M  V30 526 N 54.8222 4.40939 -3.4861 0
M  V30 527 H 46.9732 0.848221 -1.94728 0
M  V30 528 H 49.2362 0.435081 -0.842264 0
M  V30 529 H 48.9422 2.11669 -2.80872 0
M  V30 530 H 48.8162 3.40467 -1.62365 0
M  V30 531 H 51.2032 2.83771 -0.809817 0
M  V30 532 H 51.2842 1.55784 -2.02891 0
M  V30 533 H 50.9282 3.30607 -3.85566 0
M  V30 534 H 50.8582 4.57519 -2.60737 0
M  V30 535 H 53.3492 3.06466 -2.21105 0
M  V30 536 H 53.6622 5.88078 -5.01382 0
M  V30 537 H 52.0072 5.29326 -4.50377 0
M  V30 538 H 55.1982 3.74624 -2.80668 0
M  V30 539 H 55.3712 5.03056 -4.08459 0
M  V30 540 N 48.7773 0.814389 1.34928 0
M  V30 541 C 50.0053 0.411136 2.02774 0
M  V30 542 C 50.4203 -0.980316 1.61354 0
M  V30 543 O 49.7773 -1.63299 0.814847 0
M  V30 544 C 49.8283 0.493865 3.58111 0
M  V30 545 O 49.5493 1.83047 3.98027 0
M  V30 546 C 51.0503 0.0844174 4.4322 0
M  V30 547 H 48.2703 0.166037 0.650133 0
M  V30 548 H 50.8143 1.10018 1.72384 0
M  V30 549 H 48.9693 -0.147006 3.87121 0
M  V30 550 H 49.3833 1.79872 4.92693 0
M  V30 551 H 50.8573 0.193404 5.51661 0
M  V30 552 H 51.3343 -0.97113 4.28329 0
M  V30 553 H 51.9403 0.69875 4.19521 0
M  V30 554 N 50.2554 -1.46986 0.568584 0
M  V30 555 C 51.2184 -2.28624 -0.162366 0
M  V30 556 C 52.2184 -1.37596 -0.832103 0
M  V30 557 O 53.4084 -1.60115 -0.68622 0
M  V30 558 C 50.5404 -3.17596 -1.23878 0
M  V30 559 H 51.7334 -2.94722 0.554899 0
M  V30 560 H 49.2864 -1.52863 0.325976 0
M  V30 561 H 50.0214 -2.56214 -1.98808 0
M  V30 562 H 49.8064 -3.846 -0.763219 0
M  V30 563 H 51.2964 -3.79078 -1.75185 0
M  V30 564 N 51.7335 -0.305618 -1.54608 0
M  V30 565 C 52.6665 0.610536 -2.19881 0
M  V30 566 C 53.6445 1.1294 -1.16976 0
M  V30 567 O 54.8285 1.19673 -1.45638 0
M  V30 568 C 51.9555 1.83583 -2.84631 0
M  V30 569 C 51.0015 1.4498 -4.01102 0
M  V30 570 S 51.8345 0.501793 -5.33144 0
M  V30 571 C 52.9905 1.73478 -6.01379 0
M  V30 572 H 53.2235 0.0560177 -2.97247 0
M  V30 573 H 50.7565 -0.0897434 -1.54139 0
M  V30 574 H 52.7145 2.53898 -3.22562 0
M  V30 575 H 51.3755 2.36152 -2.07102 0
M  V30 576 H 50.5685 2.36236 -4.45206 0
M  V30 577 H 50.1705 0.826553 -3.64752 0
M  V30 578 H 52.4625 2.67473 -6.22467 0
M  V30 579 H 53.4055 1.33622 -6.95378 0
M  V30 580 H 53.8135 1.9136 -5.31076 0
M  V30 581 N 53.2116 1.57565 -0.0334293 0
M  V30 582 C 54.6276 1.56297 0.322997 0
M  V30 583 C 54.8276 1.03945 1.7262 0
M  V30 584 O 53.8836 0.688109 2.42943 0
M  V30 585 C 55.1966 3.00232 0.167664 0
M  V30 586 C 56.7446 3.12078 0.240107 0
M  V30 587 C 57.2196 4.57859 0.113513 0
M  V30 588 N 58.7106 4.62887 0.170359 0
M  V30 589 C 59.4456 5.73319 0.0962517 0
M  V30 590 N 58.9416 6.92794 -0.0291881 0
M  V30 591 N 60.7346 5.61898 0.150551 0
M  V30 592 H 52.8856 1.89923 -0.950956 0
M  V30 593 H 55.1486 0.873824 -0.367608 0
M  V30 594 H 54.8546 3.42501 -0.799102 0
M  V30 595 H 54.7286 3.654 0.936083 0
M  V30 596 H 57.1156 2.69718 1.19733 0
M  V30 597 H 57.1966 2.49623 -0.558763 0
M  V30 598 H 56.8406 5.009 -0.840314 0
M  V30 599 H 56.7706 5.18299 0.931302 0
M  V30 600 H 59.2616 3.76954 0.26728 0
M  V30 601 H 59.5746 7.7276 -0.0789252 0
M  V30 602 H 57.9196 6.94971 -0.0640299 0
M  V30 603 H 61.1106 4.67448 0.246981 0
M  V30 604 H 61.2836 6.47938 0.0893365 0
M  V30 605 N 54.6897 -0.239769 1.55765 0
M  V30 606 C 55.6527 -1.28038 1.90103 0
M  V30 607 C 56.6527 -1.40723 0.778055 0
M  V30 608 O 57.8427 -1.39301 1.04599 0
M  V30 609 C 54.9747 -2.65702 2.13577 0
M  V30 610 H 56.1677 -0.988048 2.83157 0
M  V30 611 H 53.7207 -0.479382 1.48767 0
M  V30 612 H 54.4557 -3.00063 1.23015 0
M  V30 613 H 54.2407 -2.57875 2.95369 0
M  V30 614 H 55.7307 -3.40828 2.41301 0
M  V30 615 N 56.1678 -1.49265 -0.50573 0
M  V30 616 C 57.3928 -1.62478 -1.28902 0
M  V30 617 C 57.8178 -0.294332 -1.85783 0
M  V30 618 O 57.1758 0.737412 -1.65626 0
M  V30 619 C 57.2238 -2.69268 -2.39848 0
M  V30 620 O 56.3278 -2.28113 -3.43567 0
M  V30 621 H 55.6688 -0.54399 -0.380751 0
M  V30 622 H 58.1988 -1.95421 -0.605952 0
M  V30 623 H 58.2088 -2.91291 -2.85681 0
M  V30 624 H 56.8838 -3.65846 -1.97812 0
M  V30 625 H 55.4608 -2.16401 -3.03685 0
M  V30 626 N 57.6459 0.756429 -1.3826 0
M  V30 627 C 58.5779 1.87971 -1.31147 0
M  V30 628 C 59.5909 1.61248 -0.224239 0
M  V30 629 O 60.7799 1.71881 -0.481581 0
M  V30 630 C 57.8799 3.23545 -1.00857 0
M  V30 631 C 57.0529 3.77794 -2.20432 0
M  V30 632 C 56.1119 4.91877 -1.86931 0
M  V30 633 O 55.1379 5.06659 -2.59395 0
M  V30 634 N 56.3399 5.74643 -0.822568 0
M  V30 635 H 59.1049 1.94585 -2.2794 0
M  V30 636 H 56.6659 0.936234 -1.32084 0
M  V30 637 H 58.6579 3.97403 -0.765021 0
M  V30 638 H 57.2279 3.12335 -0.128687 0
M  V30 639 H 56.4479 2.95534 -2.6087 0
M  V30 640 H 57.7359 4.10771 -3.00241 0
M  V30 641 H 57.1339 5.65266 -0.221575 0
M  V30 642 H 55.6909 6.48661 -0.638899 0
M  V30 643 N 59.124 1.23083 0.984299 0
M  V30 644 C 60.071 1.00854 2.07598 0
M  V30 645 C 61.041 -0.0726709 1.65941 0
M  V30 646 O 62.226 0.0786535 1.90638 0
M  V30 647 C 59.366 0.601645 3.39815 0
M  V30 648 C 58.479 1.75456 3.94765 0
M  V30 649 C 57.614 1.29482 5.15177 0
M  V30 650 C 56.653 2.41873 5.62284 0
M  V30 651 N 55.79 1.96885 6.73929 0
M  V30 652 H 60.63 1.943 2.25946 0
M  V30 653 H 58.167 0.968001 1.10762 0
M  V30 654 H 60.125 0.346854 4.15756 0
M  V30 655 H 58.755 -0.295803 3.21442 0
M  V30 656 H 57.807 2.12346 3.15616 0
M  V30 657 H 59.119 2.59965 4.25699 0
M  V30 658 H 58.273 0.997923 5.98437 0
M  V30 659 H 57.012 0.420046 4.85888 0
M  V30 660 H 56.017 2.72342 4.77608 0
M  V30 661 H 57.242 3.29881 5.93595 0
M  V30 662 H 55.188 1.11782 6.46406 0
M  V30 663 H 55.105 2.74956 7.04227 0
M  V30 664 H 56.373 1.70289 7.60672 0
M  V30 665 N 60.6021 -1.18246 1.0419 0
M  V30 666 C 61.8791 -1.84121 0.660208 0
M  V30 667 C 62.2591 -1.92778 -0.860221 0
M  V30 668 O 61.6071 -1.45464 -1.76217 0
M  V30 669 C 61.8171 -3.22355 1.33747 0
M  V30 670 C 63.1651 -3.98376 1.46906 0
M  V30 671 O 64.1891 -3.31799 1.29568 0
M  V30 672 O 63.0481 -5.17665 1.75171 0
M  V30 673 H 60.1421 -0.794036 0.231161 0
M  V30 674 H 62.6881 -1.25628 1.14087 0
M  V30 675 H 61.4601 -3.10964 2.37522 0
M  V30 676 H 61.0831 -3.88506 0.845515 0
M  V30 677 N 62.0802 -0.821533 -1.34494 0
M  V30 678 C 63.3272 -0.408946 -1.98328 0
M  V30 679 C 63.6552 1.02764 -1.65136 0
M  V30 680 O 62.9102 1.73026 -0.914349 0
M  V30 681 C 63.2092 -0.556512 -3.53041 0
M  V30 682 C 62.8752 -1.95861 -4.0614 0
M  V30 683 C 61.5372 -2.34217 -4.20352 0
M  V30 684 C 63.8892 -2.87523 -4.34718 0
M  V30 685 C 61.2172 -3.63572 -4.6047 0
M  V30 686 C 63.5692 -4.1634 -4.76281 0
M  V30 687 C 62.2332 -4.54675 -4.88699 0
M  V30 688 H 61.5032 -0.149644 -0.725732 0
M  V30 689 H 64.1502 -1.04521 -1.6046 0
M  V30 690 H 62.4552 0.163148 -3.9146 0
M  V30 691 H 64.1522 -0.217826 -4.00408 0
M  V30 692 H 60.7422 -1.65066 -3.95539 0
M  V30 693 H 64.9262 -2.59133 -4.23277 0
M  V30 694 H 60.1822 -3.93101 -4.68275 0
M  V30 695 H 64.3562 -4.87455 -4.97354 0
M  V30 696 H 61.9832 -5.54959 -5.19542 0
M  V30 697 N 63.5583 1.46682 -0.576371 0
M  V30 698 C 64.4683 2.34032 0.163141 0
M  V30 699 C 65.4843 1.49367 0.892501 0
M  V30 700 O 66.6603 1.82252 0.857106 0
M  V30 701 C 63.7253 3.26435 1.16795 0
M  V30 702 C 62.7863 4.26998 0.443944 0
M  V30 703 C 62.0193 5.14986 1.40088 0
M  V30 704 O 62.2423 5.05785 2.637 0
M  V30 705 O 61.1763 5.94906 0.914917 0
M  V30 706 H 65.0023 2.98607 -0.55388 0
M  V30 707 H 62.5873 1.45554 -0.336821 0
M  V30 708 H 64.4693 3.83459 1.74748 0
M  V30 709 H 63.1443 2.64465 1.86655 0
M  V30 710 H 62.0513 3.7368 -0.177271 0
M  V30 711 H 63.3843 4.91736 -0.213566 0
M  V30 712 N 65.0364 0.313813 1.54444 0
M  V30 713 C 65.9844 -0.572171 2.25453 0
M  V30 714 C 66.9784 -1.12657 1.2651 0
M  V30 715 O 68.1844 -1.07573 1.44319 0
M  V30 716 H 64.5594 -0.203146 0.724041 0
M  V30 717 H 66.5304 0.0491145 2.9836 0
M  V30 718 C 65.2794 -1.72626 3.0182 0
M  V30 719 H 64.6024 -1.30891 3.77767 0
M  V30 720 H 66.0424 -2.32199 3.54767 0
M  V30 721 C 64.5014 -2.63806 2.09542 0
M  V30 722 O 65.0314 -3.65256 1.67185 0
M  V30 723 N 63.2374 -2.31824 1.75232 0
M  V30 724 H 62.7844 -1.49368 2.09873 0
M  V30 725 H 62.7424 -2.93095 1.13767 0
M  V30 726 N 66.5145 -1.57545 0.0417849 0
M  V30 727 C 67.7395 -1.97035 -0.647455 0
M  V30 728 C 68.1645 -0.918775 -1.64135 0
M  V30 729 O 67.5225 0.119006 -1.80909 0
M  V30 730 C 67.5705 -3.35609 -1.31905 0
M  V30 731 O 66.6745 -3.3287 -2.43457 0
M  V30 732 H 66.0155 -0.64211 -0.169086 0
M  V30 733 H 68.5455 -2.04318 0.107399 0
M  V30 734 H 68.5555 -3.72126 -1.67291 0
M  V30 735 H 67.2305 -4.11685 -0.590586 0
M  V30 736 H 65.8075 -3.08087 -2.10088 0
M  V30 737 N 67.9926 0.231505 -1.5589 0
M  V30 738 C 68.9256 1.31369 -1.86595 0
M  V30 739 C 69.9036 1.45671 -0.722397 0
M  V30 740 O 71.0876 1.61642 -0.969743 0
M  V30 741 C 68.2146 2.68529 -2.06421 0
M  V30 742 C 67.2606 2.71295 -3.29092 0
M  V30 743 S 68.0936 2.26358 -4.85306 0
M  V30 744 C 69.2496 3.65414 -5.08157 0
M  V30 745 H 69.4826 1.05128 -2.78092 0
M  V30 746 H 67.0156 0.433259 -1.48197 0
M  V30 747 H 68.9736 3.47499 -2.18528 0
M  V30 748 H 67.6346 2.91999 -1.15738 0
M  V30 749 H 66.8276 3.72063 -3.39978 0
M  V30 750 H 66.4296 2.0038 -3.15791 0
M  V30 751 H 68.7216 4.6103 -4.96445 0
M  V30 752 H 69.6646 3.5945 -6.10083 0
M  V30 753 H 70.0726 3.5864 -4.35933 0
M  V30 754 N 69.4707 1.49531 0.497807 0
M  V30 755 C 70.4187 1.66926 1.61983 0
M  V30 756 C 71.4127 0.535167 1.60724 0
M  V30 757 O 72.6187 0.714896 1.65195 0
M  V30 758 H 68.9937 0.526415 0.537021 0
M  V30 759 H 70.9647 2.61098 1.44465 0
M  V30 760 C 69.7137 1.75602 3.00099 0
M  V30 761 H 69.0367 2.62244 3.01775 0
M  V30 762 H 70.4767 1.91807 3.78135 0
M  V30 763 C 68.9357 0.501543 3.33146 0
M  V30 764 O 69.4657 -0.371342 3.9998 0
M  V30 765 N 67.6717 0.363531 2.88317 0
M  V30 766 H 67.2187 1.07485 2.34104 0
M  V30 767 H 67.1767 -0.474728 3.10795 0
M  V30 768 N 70.9488 -0.749086 1.3866 0
M  V30 769 C 71.8808 -1.87273 1.32142 0
M  V30 770 C 72.8938 -1.61127 0.232787 0
M  V30 771 O 74.0828 -1.71623 0.49069 0
M  V30 772 C 71.1828 -3.23005 1.02571 0
M  V30 773 C 70.3558 -3.7662 2.22433 0
M  V30 774 C 69.4148 -4.90879 1.89537 0
M  V30 775 O 68.4408 -5.05276 2.62078 0
M  V30 776 N 69.6428 -5.74198 0.853031 0
M  V30 777 H 72.4078 -1.93373 2.28969 0
M  V30 778 H 69.9688 -0.929216 1.32579 0
M  V30 779 H 71.9608 -3.96992 0.786085 0
M  V30 780 H 70.5308 -3.12262 0.145249 0
M  V30 781 H 69.7508 -2.94147 2.62434 0
M  V30 782 H 71.0388 -4.09173 3.02415 0
M  V30 783 H 70.4368 -5.6514 0.25155 0
M  V30 784 H 68.9938 -6.48313 0.67329 0
M  V30 785 N 72.4269 -1.23603 -0.977757 0
M  V30 786 C 73.6729 -1.07129 -1.72195 0
M  V30 787 C 74.0059 0.390501 -1.90233 0
M  V30 788 O 73.2809 1.28902 -1.45653 0
M  V30 789 C 73.5639 -1.80031 -3.11867 0
M  V30 790 C 73.4169 -3.33899 -3.01383 0
M  V30 791 C 74.7359 -1.56492 -4.11337 0
M  V30 792 H 71.8549 -0.390571 -0.624999 0
M  V30 793 H 74.4969 -1.52142 -1.13811 0
M  V30 794 H 72.6469 -1.41768 -3.6171 0
M  V30 795 H 74.3189 -3.81699 -2.59043 0
M  V30 796 H 72.5619 -3.62796 -2.37827 0
M  V30 797 H 73.2329 -3.801 -4.00285 0
M  V30 798 H 75.7089 -1.89757 -3.70313 0
M  V30 799 H 74.5849 -2.09973 -5.07151 0
M  V30 800 H 74.8459 -0.500874 -4.39254 0
M  V30 801 N 73.905 1.17692 -1.04816 0
M  V30 802 C 74.852 2.21581 -0.645797 0
M  V30 803 C 75.822 1.62367 0.350159 0
M  V30 804 O 77.007 1.89254 0.242433 0
M  V30 805 C 74.147 3.45092 -0.0227568 0
M  V30 806 C 73.26 4.18613 -1.06709 0
M  V30 807 C 72.395 5.29602 -0.411767 0
M  V30 808 C 71.434 5.94904 -1.44067 0
M  V30 809 N 70.571 6.97414 -0.809781 0
M  V30 810 H 75.411 2.55353 -1.5362 0
M  V30 811 H 72.948 1.25438 -0.768364 0
M  V30 812 H 74.906 4.15679 0.35588 0
M  V30 813 H 73.536 3.11917 0.831122 0
M  V30 814 H 72.588 3.46779 -1.5636 0
M  V30 815 H 73.9 4.63293 -1.84827 0
M  V30 816 H 73.054 6.06696 0.0206623 0
M  V30 817 H 71.793 4.86045 0.401438 0
M  V30 818 H 70.798 5.16544 -1.88316 0
M  V30 819 H 72.023 6.40542 -2.25571 0
M  V30 820 H 69.969 6.55998 -0.0170186 0
M  V30 821 H 69.886 7.40386 -1.52856 0
M  V30 822 H 71.154 7.78463 -0.401999 0
M  V30 823 N 75.3831 0.828654 1.34056 0
M  V30 824 C 76.3131 0.269443 2.3194 0
M  V30 825 C 77.2941 -0.617247 1.58506 0
M  V30 826 O 78.4791 -0.542931 1.86456 0
M  V30 827 C 75.6091 -0.564793 3.42677 0
M  V30 828 C 74.5631 0.225241 4.27407 0
M  V30 829 C 73.8891 -0.7321 5.29664 0
M  V30 830 C 75.1891 1.43663 5.02154 0
M  V30 831 H 76.8831 1.08728 2.7896 0
M  V30 832 H 74.4291 0.524283 1.34117 0
M  V30 833 H 76.3821 -0.966233 4.10173 0
M  V30 834 H 75.1061 -1.41574 2.9432 0
M  V30 835 H 73.7651 0.608117 3.61521 0
M  V30 836 H 73.4131 -1.57916 4.77568 0
M  V30 837 H 73.1131 -0.20767 5.87233 0
M  V30 838 H 74.6371 -1.13128 6.00029 0
M  V30 839 H 76.0511 1.1089 5.62473 0
M  V30 840 H 74.4481 1.89711 5.69324 0
M  V30 841 H 75.5181 2.21181 4.31517 0
M  V30 842 N 76.8612 -1.46375 0.584142 0
M  V30 843 C 77.7912 -2.33103 -0.136037 0
M  V30 844 C 78.7722 -1.45431 -0.882255 0
M  V30 845 O 79.9572 -1.74246 -0.857434 0
M  V30 846 C 77.0872 -3.27731 -1.14933 0
M  V30 847 C 76.0412 -4.24855 -0.517862 0
M  V30 848 C 75.3672 -5.09001 -1.63773 0
M  V30 849 C 76.6672 -5.19439 0.545886 0
M  V30 850 H 78.3612 -2.93568 0.588086 0
M  V30 851 H 75.9072 -1.41166 0.284259 0
M  V30 852 H 77.8602 -3.87261 -1.66153 0
M  V30 853 H 76.5842 -2.65377 -1.90375 0
M  V30 854 H 75.2432 -3.6659 -0.0267361 0
M  V30 855 H 74.8912 -4.43031 -2.38185 0
M  V30 856 H 74.5912 -5.74777 -1.22085 0
M  V30 857 H 76.1152 -5.71396 -2.15266 0
M  V30 858 H 77.5292 -5.73177 0.118704 0
M  V30 859 H 75.9262 -5.93566 0.88317 0
M  V30 860 H 76.9962 -4.63285 1.43162 0
M  V30 861 N 78.3393 -0.321999 -1.54275 0
M  V30 862 C 79.2863 0.544664 -2.24281 0
M  V30 863 C 80.2563 1.1129 -1.23303 0
M  V30 864 O 81.4413 1.15354 -1.51981 0
M  V30 865 C 78.5813 1.70045 -3.00298 0
M  V30 866 C 77.6943 1.16159 -4.1609 0
M  V30 867 C 76.8293 2.28293 -4.79641 0
M  V30 868 C 75.8683 1.71648 -5.8754 0
M  V30 869 N 75.0053 2.77438 -6.44959 0
M  V30 870 H 79.8453 -0.0588907 -2.97942 0
M  V30 871 H 77.3823 -0.0408345 -1.47043 0
M  V30 872 H 79.3403 2.38054 -3.42616 0
M  V30 873 H 77.9703 2.27531 -2.28975 0
M  V30 874 H 77.0223 0.373092 -3.78566 0
M  V30 875 H 78.3343 0.707087 -4.93763 0
M  V30 876 H 77.4883 3.0421 -5.2492 0
M  V30 877 H 76.2273 2.77079 -4.01346 0
M  V30 878 H 75.2323 0.942282 -5.41665 0
M  V30 879 H 76.4573 1.23741 -6.67731 0
M  V30 880 H 74.4033 3.25519 -5.69538 0
M  V30 881 H 74.3203 2.36547 -7.1804 0
M  V30 882 H 75.5883 3.53189 -6.94894 0
M  V30 883 N 79.8174 1.5752 -0.0501392 0
M  V30 884 C 80.7644 2.1147 0.924603 0
M  V30 885 C 81.7344 1.02182 1.30951 0
M  V30 886 O 82.9194 1.29723 1.39916 0
M  V30 887 C 80.0594 2.66337 2.19451 0
M  V30 888 C 79.1724 3.89708 1.86418 0
M  V30 889 C 78.3074 4.32893 3.07859 0
M  V30 890 C 77.3464 5.48967 2.70742 0
M  V30 891 N 76.4834 5.87211 3.84874 0
M  V30 892 H 81.3234 2.94465 0.457639 0
M  V30 893 H 78.8604 1.45531 0.214266 0
M  V30 894 H 80.8184 2.96247 2.93758 0
M  V30 895 H 79.4484 1.86141 2.63726 0
M  V30 896 H 78.5004 3.66396 1.02264 0
M  V30 897 H 79.8124 4.74074 1.55096 0
M  V30 898 H 78.9664 4.6435 3.90466 0
M  V30 899 H 77.7054 3.47336 3.42358 0
M  V30 900 H 76.7104 5.17183 1.86551 0
M  V30 901 H 77.9354 6.3624 2.37436 0
M  V30 902 H 75.8814 5.04607 4.19175 0
M  V30 903 H 75.7984 6.66266 3.57247 0
M  V30 904 H 77.0664 6.23282 4.68123 0
M  V30 905 N 81.2955 -0.223234 1.56011 0
M  V30 906 C 82.5725 -0.972108 1.69733 0
M  V30 907 C 82.9525 -2.02485 0.59691 0
M  V30 908 O 82.3005 -2.25037 -0.396324 0
M  V30 909 C 82.5105 -1.58407 3.10979 0
M  V30 910 C 83.8585 -2.07696 3.70334 0
M  V30 911 O 84.8825 -1.68304 3.1393 0
M  V30 912 O 83.7415 -2.80096 4.69264 0
M  V30 913 H 80.8355 -0.453993 0.691245 0
M  V30 914 H 83.3815 -0.215149 1.68331 0
M  V30 915 H 82.1535 -0.823831 3.82529 0
M  V30 916 H 81.7765 -2.40661 3.16493 0
M  V30 917 N 82.7736 -1.49793 -0.48987 0
M  V30 918 C 84.1846 -1.52914 -1.07118 0
M  V30 919 C 84.5356 -0.321738 -1.93544 0
M  V30 920 O 83.6606 0.567338 -2.08831 0
M  V30 921 C 84.2556 -2.771 -1.94938 0
M  V30 922 C 82.8146 -2.82963 -2.48212 0
M  V30 923 C 81.9616 -2.46972 -1.26096 0
M  V30 924 H 84.9126 -1.56329 -0.273289 0
M  V30 925 H 84.9336 -2.57892 -2.79771 0
M  V30 926 H 84.4456 -3.64959 -1.32009 0
M  V30 927 H 82.5466 -1.99411 -3.14748 0
M  V30 928 H 82.6596 -3.85406 -2.84603 0
M  V30 929 H 81.0236 -1.98994 -1.58976 0
M  V30 930 H 81.8066 -3.37118 -0.648581 0
M  V30 931 N 84.2517 0.741722 -1.39055 0
M  V30 932 C 85.4997 1.49818 -1.35643 0
M  V30 933 C 85.8207 1.94938 0.0491642 0
M  V30 934 O 85.0907 1.68505 0.999141 0
M  V30 935 H 83.6707 0.555755 -0.499144 0
M  V30 936 H 86.3327 0.880957 -1.73854 0
M  V30 937 H 85.4287 2.38348 -2.01486 0
M  V30 938 N 85.7298 1.2412 0.971189 0
M  V30 939 C 86.6778 1.02812 2.08644 0
M  V30 940 C 87.6718 -0.0358403 1.69362 0
M  V30 941 O 88.8778 0.118429 1.7961 0
M  V30 942 H 85.2528 0.315428 0.682649 0
M  V30 943 H 87.2238 1.97397 2.23779 0
M  V30 944 C 85.9728 0.645874 3.41649 0
M  V30 945 H 85.2958 1.45632 3.72332 0
M  V30 946 H 86.7358 0.536366 4.20594 0
M  V30 947 C 85.1948 -0.646713 3.30635 0
M  V30 948 O 85.7248 -1.69338 3.64263 0
M  V30 949 N 83.9308 -0.626115 2.83775 0
M  V30 950 H 83.4778 0.225988 2.56607 0
M  V30 951 H 83.4358 -1.49117 2.76788 0
M  V30 952 N 87.2079 -1.17134 1.05439 0
M  V30 953 C 88.1179 -2.24878 0.668365 0
M  V30 954 C 89.1339 -1.71186 -0.311687 0
M  V30 955 O 90.3099 -2.00738 -0.163161 0
M  V30 956 C 87.3749 -3.46662 0.051648 0
M  V30 957 C 86.4359 -4.15429 1.08246 0
M  V30 958 C 85.6689 -5.31399 0.495082 0
M  V30 959 O 85.8919 -5.66153 -0.694743 0
M  V30 960 O 84.8259 -5.89187 1.23056 0
M  V30 961 H 88.6519 -2.60189 1.56637 0
M  V30 962 H 86.2369 -1.24482 0.826104 0
M  V30 963 H 88.1189 -4.20394 -0.290966 0
M  V30 964 H 86.7939 -3.13142 -0.819971 0
M  V30 965 H 85.7009 -3.43704 1.47711 0
M  V30 966 H 87.0339 -4.52982 1.92532 0
M  V30 967 N 88.686 -0.835752 -1.33615 0
M  V30 968 C 89.932 -0.430596 -1.98176 0
M  V30 969 C 90.265 1.00684 -1.66061 0
M  V30 970 O 89.54 1.70339 -0.938877 0
M  V30 971 C 89.823 -0.648065 -3.5422 0
M  V30 972 C 89.676 -2.13255 -3.96033 0
M  V30 973 C 90.995 -0.0922113 -4.40003 0
M  V30 974 H 88.114 -0.157924 -0.719881 0
M  V30 975 H 90.756 -1.05069 -1.58305 0
M  V30 976 H 88.906 -0.120237 -3.88314 0
M  V30 977 H 90.578 -2.725 -3.72211 0
M  V30 978 H 88.821 -2.61823 -3.45878 0
M  V30 979 H 89.492 -2.23547 -5.04708 0
M  V30 980 H 91.968 -0.543343 -4.12537 0
M  V30 981 H 90.844 -0.274083 -5.48215 0
M  V30 982 H 91.105 1.00378 -4.30554 0
M  V30 983 N 90.1641 1.46063 -0.591896 0
M  V30 984 C 91.1111 2.30399 0.136069 0
M  V30 985 C 92.0811 1.41169 0.875238 0
M  V30 986 O 93.2661 1.70112 0.86409 0
M  V30 987 C 90.4061 3.25804 1.13781 0
M  V30 988 C 89.5191 4.30134 0.401137 0
M  V30 989 C 88.6541 5.12659 1.39121 0
M  V30 990 C 87.6931 6.0873 0.641462 0
M  V30 991 N 86.8301 6.8409 1.58004 0
M  V30 992 H 91.6701 2.92118 -0.589144 0
M  V30 993 H 89.2071 1.43959 -0.302342 0
M  V30 994 H 91.1651 3.79569 1.73156 0
M  V30 995 H 89.7951 2.65872 1.83062 0
M  V30 996 H 88.8471 3.79152 -0.307826 0
M  V30 997 H 90.1591 4.98458 -0.184565 0
M  V30 998 H 89.3131 5.70747 2.05749 0
M  V30 999 H 88.0521 4.44316 2.01084 0
M  V30 1000 H 87.0571 5.49786 -0.0385419 0
M  V30 1001 H 88.2821 6.79095 0.0270945 0
M  V30 1002 H 86.2281 6.18449 2.18761 0
M  V30 1003 H 86.1451 7.48709 1.04738 0
M  V30 1004 H 87.4131 7.4673 2.23639 0
M  V30 1005 N 91.6422 0.330177 1.54103 0
M  V30 1006 C 92.5722 -0.525353 2.27513 0
M  V30 1007 C 93.5532 -1.11383 1.2856 0
M  V30 1008 O 94.7382 -1.13773 1.57383 0
M  V30 1009 C 91.8682 -1.6831 3.03791 0
M  V30 1010 C 90.8222 -1.2236 4.10137 0
M  V30 1011 C 90.1482 -2.46882 4.74293 0
M  V30 1012 C 91.4482 -0.333697 5.21233 0
M  V30 1013 H 93.1422 0.087013 2.99274 0
M  V30 1014 H 90.6882 0.0432893 1.43935 0
M  V30 1015 H 92.6412 -2.28795 3.5388 0
M  V30 1016 H 91.3652 -2.32216 2.29659 0
M  V30 1017 H 90.0242 -0.64165 3.60941 0
M  V30 1018 H 89.6722 -3.09165 3.96769 0
M  V30 1019 H 89.3722 -2.16825 5.46133 0
M  V30 1020 H 90.8962 -3.08117 5.27159 0
M  V30 1021 H 92.3102 -0.845013 5.67038 0
M  V30 1022 H 90.7072 -0.125612 5.99969 0
M  V30 1023 H 91.7772 0.633724 4.80741 0
M  V30 1024 N 93.1203 -1.57491 0.0584922 0
M  V30 1025 C 94.0673 -2.11958 -0.913376 0
M  V30 1026 C 95.0373 -1.02875 -1.30407 0
M  V30 1027 O 96.2223 -1.30464 -1.39226 0
M  V30 1028 C 93.3623 -2.67497 -2.18035 0
M  V30 1029 C 92.4753 -3.90691 -1.84349 0
M  V30 1030 C 91.6103 -4.3452 -3.05559 0
M  V30 1031 C 90.6493 -5.50395 -2.67827 0
M  V30 1032 N 89.7863 -5.89244 -3.81754 0
M  V30 1033 H 94.6263 -2.94704 -0.442017 0
M  V30 1034 H 92.1633 -1.45643 -0.206545 0
M  V30 1035 H 94.1213 -2.978 -2.92183 0
M  V30 1036 H 92.7513 -1.87537 -2.62735 0
M  V30 1037 H 91.8033 -3.66934 -1.00319 0
M  V30 1038 H 93.1153 -4.7489 -1.5258 0
M  V30 1039 H 92.2693 -4.66414 -3.87998 0
M  V30 1040 H 91.0083 -3.49147 -3.40511 0
M  V30 1041 H 90.0133 -5.18165 -1.83806 0
M  V30 1042 H 91.2383 -6.3749 -2.34059 0
M  V30 1043 H 89.1843 -5.06823 -4.16493 0
M  V30 1044 H 89.1013 -6.68151 -3.53708 0
M  V30 1045 H 90.3693 -6.25756 -4.64811 0
M  V30 1046 N 94.5984 0.214957 -1.56127 0
M  V30 1047 C 95.5284 1.2695 -1.95974 0
M  V30 1048 C 96.5094 1.48539 -0.828868 0
M  V30 1049 O 97.6944 1.60611 -1.09168 0
M  V30 1050 C 94.8244 2.61794 -2.28214 0
M  V30 1051 C 93.7784 2.54851 -3.43853 0
M  V30 1052 C 93.1044 3.93785 -3.61715 0
M  V30 1053 C 94.4044 2.09065 -4.78632 0
M  V30 1054 H 96.0984 0.93846 -2.84312 0
M  V30 1055 H 93.6444 0.449996 -1.36788 0
M  V30 1056 H 95.5974 3.35731 -2.54682 0
M  V30 1057 H 94.3214 2.96599 -1.36736 0
M  V30 1058 H 92.9804 1.8337 -3.17444 0
M  V30 1059 H 92.6284 4.25908 -2.67602 0
M  V30 1060 H 92.3284 3.90019 -4.39498 0
M  V30 1061 H 93.8524 4.69374 -3.90539 0
M  V30 1062 H 95.2664 2.7275 -5.04262 0
M  V30 1063 H 93.6634 2.16346 -5.59745 0
M  V30 1064 H 94.7334 1.04315 -4.73547 0
M  V30 1065 N 96.0765 1.50051 0.48192 0
M  V30 1066 C 97.3065 1.63999 1.2565 0
M  V30 1067 C 97.7145 0.318288 1.86504 0
M  V30 1068 O 97.0575 -0.708534 1.69486 0
M  V30 1069 C 97.1195 2.66504 2.4128 0
M  V30 1070 C 96.7835 4.10352 2.01148 0
M  V30 1071 C 97.7805 4.96562 1.54021 0
M  V30 1072 C 95.4655 4.56203 2.10199 0
M  V30 1073 C 97.4595 6.26668 1.16473 0
M  V30 1074 C 95.1465 5.86318 1.72264 0
M  V30 1075 C 96.1445 6.71375 1.25477 0
M  V30 1076 O 95.8325 7.99062 0.880626 0
M  V30 1077 H 95.5645 0.55456 0.386574 0
M  V30 1078 H 98.1185 1.96954 0.582944 0
M  V30 1079 H 96.3485 2.28769 3.11772 0
M  V30 1080 H 98.0375 2.69783 3.03268 0
M  V30 1081 H 98.8035 4.62358 1.46458 0
M  V30 1082 H 94.6825 3.90152 2.45566 0
M  V30 1083 H 98.2265 6.93011 0.798841 0
M  V30 1084 H 94.1235 6.20046 1.79482 0
M  V30 1085 H 94.8915 8.12239 1.01043 0
M  V30 1086 N 97.5546 -0.734337 1.39446 0
M  V30 1087 C 98.5176 -1.83004 1.37994 0
M  V30 1088 C 99.5176 -1.58397 0.276938 0
M  V30 1089 O 100.708 -1.65785 0.534875 0
M  V30 1090 C 97.8396 -3.20802 1.1532 0
M  V30 1091 H 99.0326 -1.85694 2.35494 0
M  V30 1092 H 96.5856 -0.938059 1.25021 0
M  V30 1093 H 97.3206 -3.23772 0.185036 0
M  V30 1094 H 97.1056 -3.4006 1.95197 0
M  V30 1095 H 98.5956 -4.00862 1.17046 0
M  V30 1096 N 99.0327 -1.24633 -0.964593 0
M  V30 1097 C 99.9627 -1.06611 -2.07741 0
M  V30 1098 C 100.944 0.0218666 -1.70086 0
M  V30 1099 O 102.129 -0.145793 -1.93652 0
M  V30 1100 C 99.2587 -0.673444 -3.40708 0
M  V30 1101 C 98.2127 -1.71054 -3.92332 0
M  V30 1102 C 97.5387 -1.17285 -5.21678 0
M  V30 1103 C 98.8387 -3.10718 -4.19824 0
M  V30 1104 H 100.533 -1.99693 -2.23076 0
M  V30 1105 H 98.0787 -0.96152 -1.07195 0
M  V30 1106 H 100.032 -0.534345 -4.17998 0
M  V30 1107 H 98.7557 0.293073 -3.25282 0
M  V30 1108 H 97.4147 -1.83791 -3.17201 0
M  V30 1109 H 97.0627 -0.196847 -5.02615 0
M  V30 1110 H 96.7627 -1.86592 -5.57187 0
M  V30 1111 H 98.2867 -1.04593 -6.01575 0
M  V30 1112 H 99.7007 -3.01192 -4.87808 0
M  V30 1113 H 98.0977 -3.77406 -4.66567 0
M  V30 1114 H 99.1677 -3.58524 -3.26479 0
M  V30 1115 N 100.511 1.16574 -1.06058 0
M  V30 1116 C 101.741 1.90675 -0.795397 0
M  V30 1117 C 102.149 1.77547 0.653735 0
M  V30 1118 O 101.492 1.11611 1.45907 0
M  V30 1119 C 101.554 3.42011 -1.10764 0
M  V30 1120 C 101.218 3.78924 -2.55471 0
M  V30 1121 C 102.215 3.81042 -3.53699 0
M  V30 1122 C 99.8998 4.09626 -2.90708 0
M  V30 1123 C 101.894 4.13346 -4.85205 0
M  V30 1124 C 99.5808 4.41597 -4.22416 0
M  V30 1125 C 100.579 4.43436 -5.19474 0
M  V30 1126 O 100.267 4.74649 -6.48817 0
M  V30 1127 H 99.9988 0.611554 -0.288058 0
M  V30 1128 H 102.553 1.48711 -1.41683 0
M  V30 1129 H 100.783 3.84312 -0.429128 0
M  V30 1130 H 102.472 3.97384 -0.827077 0
M  V30 1131 H 103.238 3.57437 -3.27817 0
M  V30 1132 H 99.1168 4.07361 -2.15819 0
M  V30 1133 H 102.661 4.14696 -5.60957 0
M  V30 1134 H 98.5578 4.64667 -4.48056 0
M  V30 1135 H 99.3258 4.9247 -6.5377 0
M  V30 1136 N 101.989 0.842826 1.3317 0
M  V30 1137 C 102.936 0.276885 2.29133 0
M  V30 1138 C 103.906 -0.609527 1.54512 0
M  V30 1139 O 105.091 -0.546955 1.82792 0
M  V30 1140 C 102.231 -0.538707 3.40869 0
M  V30 1141 C 101.344 0.372169 4.30394 0
M  V30 1142 C 100.479 -0.454908 5.29249 0
M  V30 1143 C 99.5179 0.45411 6.10413 0
M  V30 1144 N 98.6549 -0.335075 7.013 0
M  V30 1145 H 103.495 1.10052 2.76934 0
M  V30 1146 H 101.032 0.554161 1.36262 0
M  V30 1147 H 102.99 -1.02709 4.0436 0
M  V30 1148 H 101.62 -1.32727 2.9425 0
M  V30 1149 H 100.672 0.97888 3.6759 0
M  V30 1150 H 101.984 1.0703 4.87182 0
M  V30 1151 H 101.138 -1.00695 5.98285 0
M  V30 1152 H 99.8769 -1.18646 4.73048 0
M  V30 1153 H 98.8819 1.01813 5.40291 0
M  V30 1154 H 100.107 1.18409 6.68697 0
M  V30 1155 H 98.0529 -1.04994 6.47543 0
M  V30 1156 H 97.9699 0.304262 7.55387 0
M  V30 1157 H 99.2379 -0.869224 7.74638 0
M  V30 1158 N 103.467 -1.45747 0.599634 0
M  V30 1159 C 104.399 -2.28628 -0.161879 0
M  V30 1160 C 105.412 -1.39494 -0.839367 0
M  V30 1161 O 106.601 -1.63941 -0.706089 0
M  V30 1162 C 103.701 -3.15014 -1.24976 0
M  V30 1163 C 102.874 -4.32378 -0.660935 0
M  V30 1164 C 101.933 -5.00033 -1.63869 0
M  V30 1165 O 100.959 -5.57085 -1.1681 0
M  V30 1166 N 102.161 -4.98589 -2.97303 0
M  V30 1167 H 104.926 -2.94624 0.549265 0
M  V30 1168 H 102.487 -1.55847 0.438565 0
M  V30 1169 H 104.479 -3.5714 -1.9035 0
M  V30 1170 H 103.049 -2.5098 -1.86354 0
M  V30 1171 H 102.269 -3.9383 0.170688 0
M  V30 1172 H 103.557 -5.08197 -0.247619 0
M  V30 1173 H 102.955 -4.53514 -3.38145 0
M  V30 1174 H 101.512 -5.44603 -3.58121 0
M  V30 1175 N 104.945 -0.338344 -1.53925 0
M  V30 1176 C 105.908 0.508299 -2.23493 0
M  V30 1177 C 106.908 1.03175 -1.23335 0
M  V30 1178 O 108.098 0.921826 -1.47811 0
M  V30 1179 C 105.23 1.70754 -2.95052 0
M  V30 1180 H 106.423 -0.100058 -2.99733 0
M  V30 1181 H 103.976 -0.0896198 -1.56043 0
M  V30 1182 H 104.711 2.35474 -2.22986 0
M  V30 1183 H 104.496 1.33946 -3.68512 0
M  V30 1184 H 105.986 2.30818 -3.48013 0
M  V30 1185 N 106.423 1.57458 -0.0668435 0
M  V30 1186 C 107.651 1.97624 0.612565 0
M  V30 1187 C 108.066 0.94502 1.63447 0
M  V30 1188 O 107.423 -0.0689276 1.8237 0
M  V30 1189 C 107.474 3.37869 1.28555 0
M  V30 1190 O 107.195 4.3704 0.304557 0
M  V30 1191 C 108.696 3.92882 2.05325 0
M  V30 1192 H 105.916 0.650045 0.166381 0
M  V30 1193 H 108.46 2.04035 -0.137782 0
M  V30 1194 H 106.615 3.3256 1.98702 0
M  V30 1195 H 107.029 5.18565 0.786779 0
M  V30 1196 H 108.503 4.93247 2.47812 0
M  V30 1197 H 108.98 3.29156 2.9078 0
M  V30 1198 H 109.586 4.01577 1.40056 0
M  V30 1199 N 107.901 -0.206675 1.56239 0
M  V30 1200 C 108.811 -1.27686 1.96808 0
M  V30 1201 C 109.827 -1.50455 0.874035 0
M  V30 1202 O 111.003 -1.63295 1.17884 0
M  V30 1203 C 108.068 -2.60358 2.28942 0
M  V30 1204 C 107.129 -2.45762 3.51994 0
M  V30 1205 C 106.362 -3.72108 3.82585 0
M  V30 1206 O 106.585 -4.75776 3.14631 0
M  V30 1207 O 105.519 -3.6833 4.76043 0
M  V30 1208 H 109.345 -0.962593 2.88041 0
M  V30 1209 H 106.93 -0.410746 1.43643 0
M  V30 1210 H 108.812 -3.38687 2.50737 0
M  V30 1211 H 107.487 -2.91435 1.4088 0
M  V30 1212 H 106.394 -1.65584 3.35459 0
M  V30 1213 H 107.727 -2.19621 4.40486 0
M  V30 1214 N 109.379 -1.50304 -0.473955 0
M  V30 1215 C 110.627 -1.60832 -1.22382 0
M  V30 1216 C 110.948 -0.30939 -1.9253 0
M  V30 1217 O 110.218 0.67296 -1.83978 0
M  V30 1218 H 108.798 -0.592652 -0.454723 0
M  V30 1219 H 111.46 -1.87068 -0.546968 0
M  V30 1220 H 110.556 -2.41803 -1.97327 0
M  V30 1221 N 110.857 0.726932 -1.39834 0
M  V30 1222 C 112.268 1.30558 -1.3346 0
M  V30 1223 C 112.619 1.962 -0.00273003 0
M  V30 1224 O 111.744 1.96826 0.899371 0
M  V30 1225 C 112.339 2.37404 -2.41713 0
M  V30 1226 C 110.898 2.90921 -2.38835 0
M  V30 1227 C 110.045 1.64578 -2.2318 0
M  V30 1228 H 112.996 0.523862 -1.49804 0
M  V30 1229 H 113.017 3.17984 -2.08966 0
M  V30 1230 H 112.529 1.89599 -3.38635 0
M  V30 1231 H 110.63 3.42985 -1.45575 0
M  V30 1232 H 110.743 3.43487 -3.33997 0
M  V30 1233 H 109.107 1.89219 -1.70494 0
M  V30 1234 H 109.89 1.18814 -3.22084 0
M  V30 1235 N 112.336 1.25143 0.95797 0
M  V30 1236 C 113.576 1.10893 1.71703 0
M  V30 1237 C 113.94 -0.34478 1.88879 0
M  V30 1238 O 115.141 -0.609014 2.6181 0
M  V30 1239 C 113.412 1.83889 3.06463 0
M  V30 1240 S 114.971 1.85491 3.97666 0
M  V30 1241 H 111.789 0.396428 0.590226 0
M  V30 1242 H 114.391 1.58618 1.14283 0
M  V30 1243 H 113.095 2.88756 2.9163 0
M  V30 1244 H 112.626 1.36538 3.68946 0
M  V30 1245 H 114.641 0.929553 4.87415 0
M  V30 1246 N 113.814 -1.1601 1.06675 0
M  V30 1247 C 114.762 -2.22586 0.675157 0
M  V30 1248 C 115.756 -1.66525 -0.310766 0
M  V30 1249 O 116.962 -1.79145 -0.175215 0
M  V30 1250 H 113.337 -0.724855 0.200223 0
M  V30 1251 H 115.308 -2.52899 1.58381 0
M  V30 1252 C 114.057 -3.47604 0.0817162 0
M  V30 1253 H 113.38 -3.91058 0.831484 0
M  V30 1254 H 114.82 -4.23718 -0.154708 0
M  V30 1255 C 113.279 -3.15718 -1.17576 0
M  V30 1256 O 113.809 -3.31878 -2.26318 0
M  V30 1257 N 112.015 -2.69816 -1.07923 0
M  V30 1258 H 111.562 -2.56866 -0.194293 0
M  V30 1259 H 111.52 -2.48855 -1.92141 0
M  V30 1260 N 115.292 -0.849877 -1.32721 0
M  V30 1261 C 116.225 -0.235903 -2.26977 0
M  V30 1262 C 117.203 0.623355 -1.50177 0
M  V30 1263 O 118.387 0.581207 -1.79316 0
M  V30 1264 C 115.514 0.667712 -3.32053 0
M  V30 1265 C 114.56 -0.11753 -4.26338 0
M  V30 1266 S 115.393 -1.48277 -5.14562 0
M  V30 1267 C 116.549 -0.584741 -6.23163 0
M  V30 1268 H 116.782 -1.03495 -2.78704 0
M  V30 1269 H 114.315 -0.64724 -1.40179 0
M  V30 1270 H 116.273 1.18343 -3.93072 0
M  V30 1271 H 114.934 1.44052 -2.7912 0
M  V30 1272 H 114.127 0.57051 -5.00761 0
M  V30 1273 H 113.729 -0.564668 -3.69713 0
M  V30 1274 H 116.021 0.212968 -6.77165 0
M  V30 1275 H 116.964 -1.29947 -6.96074 0
M  V30 1276 H 117.372 -0.161202 -5.6427 0
M  V30 1277 N 116.77 1.45427 -0.607355 0
M  V30 1278 C 118.181 1.85756 -0.187535 0
M  V30 1279 C 118.532 1.5077 1.25551 0
M  V30 1280 O 117.657 0.93427 1.95193 0
M  V30 1281 C 118.252 3.37154 -0.333572 0
M  V30 1282 C 116.811 3.76387 0.0315542 0
M  V30 1283 C 115.958 2.69377 -0.658117 0
M  V30 1284 H 118.909 1.36231 -0.81405 0
M  V30 1285 H 118.93 3.78014 0.43428 0
M  V30 1286 H 118.442 3.62586 -1.38393 0
M  V30 1287 H 116.543 3.56571 1.0811 0
M  V30 1288 H 116.656 4.77731 -0.361935 0
M  V30 1289 H 115.02 2.5452 -0.0957873 0
M  V30 1290 H 115.803 2.97646 -1.7106 0
M  V30 1291 N 118.248 0.346503 1.53744 0
M  V30 1292 C 119.195 -0.508914 2.25119 0
M  V30 1293 C 120.165 -1.09315 1.25058 0
M  V30 1294 O 121.35 -1.12921 1.53797 0
M  V30 1295 C 118.49 -1.65246 3.02965 0
M  V30 1296 C 117.603 -1.09525 4.17886 0
M  V30 1297 C 116.738 -2.20634 4.83212 0
M  V30 1298 C 115.777 -1.62279 5.90196 0
M  V30 1299 N 114.914 -2.67143 6.49291 0
M  V30 1300 H 119.754 0.106283 2.9781 0
M  V30 1301 H 117.291 0.0642227 1.4696 0
M  V30 1302 H 119.249 -2.32574 3.4636 0
M  V30 1303 H 117.879 -2.2386 2.32565 0
M  V30 1304 H 116.931 -0.312818 3.79112 0
M  V30 1305 H 118.243 -0.628444 4.94825 0
M  V30 1306 H 117.397 -2.95821 5.29693 0
M  V30 1307 H 116.136 -2.70659 4.05703 0
M  V30 1308 H 115.141 -0.855989 5.43096 0
M  V30 1309 H 116.366 -1.13102 6.69615 0
M  V30 1310 H 114.312 -3.16417 5.74645 0
M  V30 1311 H 114.229 -2.25093 7.21713 0
M  V30 1312 H 115.497 -3.4209 7.00425 0
M  V30 1313 N 119.726 -1.57421 0.075193 0
M  V30 1314 C 121.137 -1.81021 -0.456964 0
M  V30 1315 C 121.488 -0.98936 -1.69429 0
M  V30 1316 O 120.613 -0.212865 -2.15351 0
M  V30 1317 C 121.208 -3.28329 -0.83581 0
M  V30 1318 C 119.767 -3.52764 -1.31281 0
M  V30 1319 C 118.914 -2.75676 -0.299648 0
M  V30 1320 H 121.865 -1.55822 0.300856 0
M  V30 1321 H 121.886 -3.40564 -1.69696 0
M  V30 1322 H 121.398 -3.88046 0.0649238 0
M  V30 1323 H 119.499 -2.98355 -2.23193 0
M  V30 1324 H 119.612 -4.61451 -1.28839 0
M  V30 1325 H 117.976 -2.42538 -0.777641 0
M  V30 1326 H 118.759 -3.38132 0.593417 0
M  V30 1327 N 121.204 0.198386 -1.56346 0
M  V30 1328 C 122.452 0.91747 -1.80075 0
M  V30 1329 C 122.773 1.83929 -0.647692 0
M  V30 1330 O 122.043 1.93029 0.334166 0
M  V30 1331 H 120.623 0.341774 -0.664228 0
M  V30 1332 H 123.285 0.204684 -1.93822 0
M  V30 1333 H 122.381 1.51055 -2.7311 0
M  V30 1334 N 122.682 1.50554 0.465978 0
M  V30 1335 C 123.928 1.62038 1.21949 0
M  V30 1336 C 124.261 0.322116 1.9151 0
M  V30 1337 O 123.536 -0.676723 1.82348 0
M  V30 1338 C 123.819 2.80421 2.25912 0
M  V30 1339 C 123.672 4.20144 1.60622 0
M  V30 1340 C 124.991 2.94354 3.27176 0
M  V30 1341 H 122.11 0.589752 0.441998 0
M  V30 1342 H 124.752 1.82956 0.51257 0
M  V30 1343 H 122.902 2.62717 2.86203 0
M  V30 1344 H 124.574 4.49449 1.03889 0
M  V30 1345 H 122.817 4.24165 0.909211 0
M  V30 1346 H 123.488 4.98914 2.36196 0
M  V30 1347 H 125.964 3.10578 2.76913 0
M  V30 1348 H 124.84 3.788 3.97242 0
M  V30 1349 H 125.101 2.05186 3.916 0
M  V30 1350 N 124.16 -0.719506 1.40217 0
M  V30 1351 C 125.407 -1.47933 1.38283 0
M  V30 1352 C 125.735 -1.94493 -0.0161536 0
M  V30 1353 O 124.99 -1.68224 -0.999956 0
M  V30 1354 C 125.289 -2.72271 2.31524 0
M  V30 1355 C 124.955 -2.44496 3.78857 0
M  V30 1356 C 123.617 -2.36631 4.18998 0
M  V30 1357 C 125.969 -2.21104 4.71977 0
M  V30 1358 C 123.297 -2.03437 5.503 0
M  V30 1359 C 125.649 -1.89423 6.03574 0
M  V30 1360 C 124.313 -1.80038 6.42762 0
M  V30 1361 H 123.583 -0.541325 0.506012 0
M  V30 1362 H 126.23 -0.824502 1.72842 0
M  V30 1363 H 124.535 -3.42572 1.90137 0
M  V30 1364 H 126.232 -3.30348 2.27313 0
M  V30 1365 H 122.822 -2.51503 3.47051 0
M  V30 1366 H 127.006 -2.26139 4.41786 0
M  V30 1367 H 122.262 -1.94705 5.79569 0
M  V30 1368 H 126.436 -1.70336 6.75247 0
M  V30 1369 H 124.063 -1.54083 7.44421 0
M  V30 1370 N 125.638 -1.25649 -0.95132 0
M  V30 1371 C 126.915 -1.01361 -1.67288 0
M  V30 1372 C 127.295 0.459135 -2.06046 0
M  V30 1373 O 126.643 1.43723 -1.7764 0
M  V30 1374 C 126.853 -1.95256 -2.89268 0
M  V30 1375 C 128.201 -2.23289 -3.61147 0
M  V30 1376 O 129.225 -1.93041 -2.99355 0
M  V30 1377 O 128.084 -2.74741 -4.72419 0
M  V30 1378 H 125.178 -0.38464 -0.732107 0
M  V30 1379 H 127.724 -1.36817 -1.00395 0
M  V30 1380 H 126.496 -2.94685 -2.57442 0
M  V30 1381 H 126.119 -1.60218 -3.6389 0
M  V30 1382 N 127.117 1.15442 -1.07289 0
M  V30 1383 C 128.047 2.22312 -0.714107 0
M  V30 1384 C 129.028 1.67467 0.298155 0
M  V30 1385 O 130.213 1.93445 0.171048 0
M  V30 1386 C 127.343 3.47124 -0.110448 0
M  V30 1387 C 126.297 4.14926 -1.04979 0
M  V30 1388 C 125.623 5.33807 -0.308924 0
M  V30 1389 C 126.923 4.64762 -2.38314 0
M  V30 1390 H 128.617 2.5258 -1.6076 0
M  V30 1391 H 126.163 1.21404 -0.77441 0
M  V30 1392 H 128.116 4.21124 0.152482 0
M  V30 1393 H 126.84 3.16187 0.81812 0
M  V30 1394 H 125.499 3.42866 -1.29764 0
M  V30 1395 H 125.147 4.99126 0.623084 0
M  V30 1396 H 124.847 5.80113 -0.935036 0
M  V30 1397 H 126.371 6.10576 -0.0537771 0
M  V30 1398 H 127.785 5.30292 -2.1786 0
M  V30 1399 H 126.182 5.21728 -2.96514 0
M  V30 1400 H 127.252 3.80434 -3.00663 0
M  V30 1401 N 128.595 0.856903 1.32268 0
M  V30 1402 C 129.844 0.457599 1.96441 0
M  V30 1403 C 130.157 -0.992426 1.68553 0
M  V30 1404 O 131.363 -1.49727 2.26482 0
M  V30 1405 C 129.819 0.767358 3.51624 0
M  V30 1406 C 129.427 2.23326 3.88367 0
M  V30 1407 C 131.171 0.435887 4.22256 0
M  V30 1408 C 129.078 2.48613 5.36606 0
M  V30 1409 H 128.008 0.167387 0.735185 0
M  V30 1410 H 130.659 1.048 1.5063 0
M  V30 1411 H 129.041 0.106367 3.95857 0
M  V30 1412 H 130.215 2.93623 3.55137 0
M  V30 1413 H 128.53 2.52948 3.30766 0
M  V30 1414 H 131.127 0.602202 5.31298 0
M  V30 1415 H 131.47 -0.622672 4.11617 0
M  V30 1416 H 132.003 1.05286 3.83614 0
M  V30 1417 H 128.742 3.53101 5.52268 0
M  V30 1418 H 128.262 1.82896 5.71235 0
M  V30 1419 H 129.941 2.32676 6.03714 0
M  V30 1420 N 130.073 -1.45103 0.615059 0
M  V30 1421 C 131.021 -2.32331 -0.111791 0
M  V30 1422 C 132.015 -1.46409 -0.852102 0
M  V30 1423 O 133.221 -1.62849 -0.766821 0
M  V30 1424 H 129.596 -0.749993 -0.0549072 0
M  V30 1425 H 131.567 -2.91407 0.642225 0
M  V30 1426 C 130.316 -3.3015 -1.09071 0
M  V30 1427 H 129.639 -3.96265 -0.530485 0
M  V30 1428 H 131.079 -3.93898 -1.56908 0
M  V30 1429 C 129.538 -2.57875 -2.168 0
M  V30 1430 O 130.068 -2.36567 -3.24652 0
M  V30 1431 N 128.274 -2.17884 -1.92289 0
M  V30 1432 H 127.821 -2.35413 -1.04587 0
M  V30 1433 H 127.779 -1.6985 -2.64572 0
M  V30 1434 N 131.551 -0.354651 -1.53558 0
M  V30 1435 C 132.498 0.496968 -2.25386 0
M  V30 1436 C 133.468 1.0865 -1.25636 0
M  V30 1437 O 134.653 1.12104 -1.54394 0
M  V30 1438 C 131.793 1.63637 -3.03837 0
M  V30 1439 C 130.906 1.07307 -4.18461 0
M  V30 1440 C 130.041 2.18068 -4.84376 0
M  V30 1441 C 129.08 1.59147 -5.91049 0
M  V30 1442 N 128.217 2.63695 -6.50699 0
M  V30 1443 H 133.057 -0.122075 -2.9775 0
M  V30 1444 H 130.594 -0.0720154 -1.46924 0
M  V30 1445 H 132.552 2.30734 -3.47589 0
M  V30 1446 H 131.182 2.22623 -2.33749 0
M  V30 1447 H 130.234 0.292708 -3.79272 0
M  V30 1448 H 131.546 0.602193 -4.95152 0
M  V30 1449 H 130.7 2.93007 -5.31255 0
M  V30 1450 H 129.439 2.68504 -4.07133 0
M  V30 1451 H 128.444 0.827175 -5.43542 0
M  V30 1452 H 129.669 1.09549 -6.70206 0
M  V30 1453 H 127.615 3.13365 -5.76315 0
M  V30 1454 H 127.532 2.21263 -7.22896 0
M  V30 1455 H 128.8 3.3837 -7.02229 0
M  V30 1456 N 133.029 1.57378 -0.0835403 0
M  V30 1457 C 133.992 2.12252 0.864959 0
M  V30 1458 C 134.992 1.04916 1.21858 0
M  V30 1459 O 136.182 1.30853 1.14991 0
M  V30 1460 C 133.314 2.63358 2.16461 0
M  V30 1461 H 134.507 2.97371 0.388676 0
M  V30 1462 H 132.06 1.55423 0.165317 0
M  V30 1463 H 132.795 1.81727 2.686 0
M  V30 1464 H 132.58 3.41826 1.92087 0
M  V30 1465 H 134.07 3.05847 2.84337 0
M  V30 1466 N 134.507 -0.190092 1.56449 0
M  V30 1467 C 135.454 -1.23557 1.94942 0
M  V30 1468 C 136.424 -1.44972 0.810696 0
M  V30 1469 O 137.609 -1.58023 1.06927 0
M  V30 1470 C 134.749 -2.57416 2.2985 0
M  V30 1471 C 133.862 -2.43537 3.5681 0
M  V30 1472 C 132.997 -3.70134 3.81017 0
M  V30 1473 C 132.036 -3.51109 5.01387 0
M  V30 1474 N 131.173 -4.6973 5.21822 0
M  V30 1475 H 136.013 -0.900304 2.84075 0
M  V30 1476 H 133.55 -0.43318 1.40577 0
M  V30 1477 H 135.508 -3.35409 2.48106 0
M  V30 1478 H 134.138 -2.88975 1.43852 0
M  V30 1479 H 133.19 -1.56816 3.46573 0
M  V30 1480 H 134.502 -2.25415 4.4496 0
M  V30 1481 H 133.656 -4.56566 3.9954 0
M  V30 1482 H 132.395 -3.91215 2.91207 0
M  V30 1483 H 131.4 -2.63063 4.82782 0
M  V30 1484 H 132.625 -3.31468 5.9271 0
M  V30 1485 H 130.571 -4.91065 4.34961 0
M  V30 1486 H 130.488 -4.54452 6.0416 0
M  V30 1487 H 131.756 -5.57499 5.44808 0
M  V30 1488 N 135.985 -1.50799 -0.457987 0
M  V30 1489 C 137.231 -1.63648 -1.20792 0
M  V30 1490 C 137.586 -0.338662 -1.89396 0
M  V30 1491 O 136.879 0.664291 -1.79716 0
M  V30 1492 C 137.073 -2.76358 -2.2663 0
M  V30 1493 C 136.902 -4.16974 -1.68411 0
M  V30 1494 C 135.672 -4.83199 -1.47807 0
M  V30 1495 C 137.87 -5.00774 -1.17176 0
M  V30 1496 N 135.852 -6.07991 -0.849692 0
M  V30 1497 C 137.223 -6.16397 -0.667403 0
M  V30 1498 C 139.278 -4.86452 -1.06155 0
M  V30 1499 C 137.981 -7.19272 -0.0636908 0
M  V30 1500 C 140.007 -5.89515 -0.471759 0
M  V30 1501 C 139.369 -7.04397 0.0221557 0
M  V30 1502 H 135.468 -0.652888 -0.43042 0
M  V30 1503 H 138.052 -1.87962 -0.507785 0
M  V30 1504 H 136.223 -2.53744 -2.94056 0
M  V30 1505 H 137.955 -2.78496 -2.93636 0
M  V30 1506 H 134.71 -4.40714 -1.73403 0
M  V30 1507 H 135.134 -6.74733 -0.553537 0
M  V30 1508 H 139.776 -3.97907 -1.42932 0
M  V30 1509 H 137.494 -8.07481 0.316253 0
M  V30 1510 H 141.08 -5.805 -0.388671 0
M  V30 1511 H 139.96 -7.82782 0.471375 0
M  V30 1512 N 137.463 0.71206 -1.40597 0
M  V30 1513 C 138.74 1.46536 -1.29563 0
M  V30 1514 C 139.12 2.10931 0.0844217 0
M  V30 1515 O 138.468 2.00418 1.0975 0
M  V30 1516 C 138.678 2.49821 -2.43701 0
M  V30 1517 C 140.026 3.15551 -2.841 0
M  V30 1518 O 141.05 2.60142 -2.4332 0
M  V30 1519 O 139.909 4.15867 -3.54566 0
M  V30 1520 H 137.003 0.651801 -0.509004 0
M  V30 1521 H 139.549 0.743935 -1.52524 0
M  V30 1522 H 138.321 2.00778 -3.35863 0
M  V30 1523 H 137.944 3.29495 -2.22528 0
M  V30 1524 N 138.941 1.26152 0.944643 0
M  V30 1525 C 139.904 1.07474 2.0244 0
M  V30 1526 C 140.904 0.0242064 1.60782 0
M  V30 1527 O 142.094 0.267302 1.72137 0
M  V30 1528 C 139.226 0.633956 3.34953 0
M  V30 1529 H 140.419 2.03336 2.20442 0
M  V30 1530 H 137.972 1.087 1.12312 0
M  V30 1531 H 138.707 -0.326811 3.22649 0
M  V30 1532 H 138.492 1.39247 3.66542 0
M  V30 1533 H 139.982 0.52501 4.14287 0
M  V30 1534 N 140.419 -1.14872 1.07899 0
M  V30 1535 C 141.665 -1.86289 0.81657 0
M  V30 1536 C 142.02 -1.8107 -0.65049 0
M  V30 1537 O 141.313 -1.22684 -1.47171 0
M  V30 1538 C 141.507 -3.34223 1.26609 0
M  V30 1539 C 141.336 -3.53846 2.77531 0
M  V30 1540 C 140.106 -3.68995 3.45212 0
M  V30 1541 C 142.304 -3.51201 3.75716 0
M  V30 1542 N 140.286 -3.76725 4.84718 0
M  V30 1543 C 141.657 -3.65112 5.01092 0
M  V30 1544 C 143.712 -3.34507 3.68794 0
M  V30 1545 C 142.415 -3.64056 6.20368 0
M  V30 1546 C 144.441 -3.34752 4.8754 0
M  V30 1547 C 143.803 -3.49199 6.11751 0
M  V30 1548 H 139.902 -0.698579 0.351443 0
M  V30 1549 H 142.486 -1.37713 1.37634 0
M  V30 1550 H 140.657 -3.81402 0.73395 0
M  V30 1551 H 142.389 -3.93377 0.95062 0
M  V30 1552 H 139.144 -3.70006 2.95622 0
M  V30 1553 H 139.568 -3.8432 5.5734 0
M  V30 1554 H 144.21 -3.22253 2.73702 0
M  V30 1555 H 141.928 -3.75087 7.15776 0
M  V30 1556 H 145.514 -3.23055 4.83866 0
M  V30 1557 H 144.394 -3.49328 7.02097 0
M  V30 1558 N 141.898 -0.863906 -1.31812 0
M  V30 1559 C 142.846 -0.30422 -2.30602 0
M  V30 1560 C 143.84 0.577419 -1.59255 0
M  V30 1561 O 145.046 0.464194 -1.73912 0
M  V30 1562 H 141.421 -0.0796877 -0.747766 0
M  V30 1563 H 143.392 -1.15148 -2.75288 0
M  V30 1564 C 142.141 0.484617 -3.44306 0
M  V30 1565 H 141.464 -0.18451 -3.99374 0
M  V30 1566 H 142.904 0.841664 -4.15562 0
M  V30 1567 C 141.363 1.6735 -2.92396 0
M  V30 1568 O 141.893 2.77273 -2.90659 0
M  V30 1569 N 140.099 1.50362 -2.48676 0
M  V30 1570 H 139.646 0.609402 -2.50288 0
M  V30 1571 H 139.604 2.30051 -2.14299 0
M  V30 1572 N 143.376 1.44774 -0.622745 0
M  V30 1573 C 144.339 2.29069 0.0774015 0
M  V30 1574 C 145.339 1.4059 0.780461 0
M  V30 1575 O 146.529 1.62551 0.626322 0
M  V30 1576 C 143.661 3.21974 1.12006 0
M  V30 1577 H 144.854 2.92459 -0.663901 0
M  V30 1578 H 142.407 1.51548 -0.382486 0
M  V30 1579 H 143.142 2.63417 1.89162 0
M  V30 1580 H 142.927 3.87168 0.619951 0
M  V30 1581 H 144.417 3.85318 1.60995 0
M  V30 1582 N 144.854 0.36279 1.53368 0
M  V30 1583 C 145.784 -0.476976 2.28576 0
M  V30 1584 C 146.765 -1.08631 1.30894 0
M  V30 1585 O 147.95 -1.10409 1.59761 0
M  V30 1586 C 145.08 -1.61828 3.07293 0
M  V30 1587 C 144.034 -1.13633 4.1264 0
M  V30 1588 C 143.36 -2.36766 4.79423 0
M  V30 1589 C 144.66 -0.223061 5.21823 0
M  V30 1590 H 146.354 0.150474 2.99022 0
M  V30 1591 H 143.9 0.0738103 1.43811 0
M  V30 1592 H 145.853 -2.21237 3.58653 0
M  V30 1593 H 144.577 -2.27292 2.34533 0
M  V30 1594 H 143.236 -0.564945 3.62221 0
M  V30 1595 H 142.884 -3.0068 4.03238 0
M  V30 1596 H 142.584 -2.05192 5.50609 0
M  V30 1597 H 144.108 -2.96865 5.33576 0
M  V30 1598 H 145.522 -0.724545 5.68703 0
M  V30 1599 H 143.919 0.001678 6.001 0
M  V30 1600 H 144.989 0.735553 4.79289 0
M  V30 1601 N 146.332 -1.57332 0.0918853 0
M  V30 1602 C 147.58 -1.93853 -0.571446 0
M  V30 1603 C 147.901 -0.974212 -1.6892 0
M  V30 1604 O 147.171 -0.0257254 -1.95883 0
M  V30 1605 H 145.751 -0.715666 -0.214082 0
M  V30 1606 H 148.413 -1.94287 0.154464 0
M  V30 1607 H 147.509 -2.96191 -0.983729 0
M  V30 1608 N 147.81 0.181792 -1.56548 0
M  V30 1609 C 149.035 0.920019 -1.85877 0
M  V30 1610 C 149.46 1.75494 -0.677021 0
M  V30 1611 O 148.818 1.77399 0.374056 0
M  V30 1612 C 148.866 1.78112 -3.13542 0
M  V30 1613 O 147.97 2.88152 -2.95029 0
M  V30 1614 H 147.311 0.258334 -0.611686 0
M  V30 1615 H 149.841 0.183092 -2.03779 0
M  V30 1616 H 149.851 2.18314 -3.44678 0
M  V30 1617 H 148.526 1.16777 -3.99169 0
M  V30 1618 H 147.103 2.51609 -2.75222 0
M  V30 1619 N 149.288 1.51039 0.449983 0
M  V30 1620 C 150.218 1.74379 1.55288 0
M  V30 1621 C 151.199 0.593236 1.5942 0
M  V30 1622 O 152.384 0.834625 1.7535 0
M  V30 1623 C 149.514 1.85728 2.93466 0
M  V30 1624 C 148.468 3.01078 3.04197 0
M  V30 1625 C 147.794 2.97595 4.44231 0
M  V30 1626 C 149.094 4.41254 2.7945 0
M  V30 1627 H 150.788 2.66725 1.36008 0
M  V30 1628 H 148.334 1.2835 0.652864 0
M  V30 1629 H 150.287 2.0064 3.70569 0
M  V30 1630 H 149.011 0.900207 3.13949 0
M  V30 1631 H 147.67 2.85851 2.29531 0
M  V30 1632 H 147.318 1.99691 4.61663 0
M  V30 1633 H 147.018 3.75046 4.52343 0
M  V30 1634 H 148.542 3.14583 5.23326 0
M  V30 1635 H 149.956 4.56897 3.46292 0
M  V30 1636 H 148.353 5.20315 2.98985 0
M  V30 1637 H 149.423 4.52164 1.75144 0
M  V30 1638 N 150.766 -0.704594 1.40972 0
M  V30 1639 C 152.177 -1.28418 1.3552 0
M  V30 1640 C 152.528 -1.96171 0.0339434 0
M  V30 1641 O 151.653 -1.98231 -0.867944 0
M  V30 1642 C 152.248 -2.33528 2.45459 0
M  V30 1643 C 150.807 -2.87085 2.43433 0
M  V30 1644 C 149.954 -1.61007 2.2577 0
M  V30 1645 H 152.905 -0.499963 1.50619 0
M  V30 1646 H 152.926 -3.14619 2.13998 0
M  V30 1647 H 152.438 -1.84187 3.41609 0
M  V30 1648 H 150.539 -3.40626 1.51013 0
M  V30 1649 H 150.652 -3.3813 3.39419 0
M  V30 1650 H 149.016 -1.86482 1.73483 0
M  V30 1651 H 149.799 -1.13675 3.23933 0
M  V30 1652 N 152.244 -1.26651 -0.937939 0
M  V30 1653 C 153.191 -1.0849 -2.03712 0
M  V30 1654 C 154.161 0.011033 -1.66096 0
M  V30 1655 O 155.346 -0.149353 -1.90215 0
M  V30 1656 C 152.486 -0.72735 -3.37348 0
M  V30 1657 C 151.599 -1.89986 -3.87981 0
M  V30 1658 C 150.734 -1.48513 -5.10017 0
M  V30 1659 C 149.773 -2.62575 -5.5292 0
M  V30 1660 N 148.91 -2.21762 -6.66158 0
M  V30 1661 H 153.75 -2.02551 -2.18579 0
M  V30 1662 H 151.287 -1.00844 -1.07093 0
M  V30 1663 H 153.245 -0.50092 -4.14182 0
M  V30 1664 H 151.875 0.176298 -3.22318 0
M  V30 1665 H 150.927 -2.23913 -3.07518 0
M  V30 1666 H 152.239 -2.75586 -4.15757 0
M  V30 1667 H 151.393 -1.21934 -5.94321 0
M  V30 1668 H 150.132 -0.60009 -4.83994 0
M  V30 1669 H 149.137 -2.8988 -4.67172 0
M  V30 1670 H 150.362 -3.51685 -5.80943 0
M  V30 1671 H 148.308 -1.35696 -6.41812 0
M  V30 1672 H 148.225 -3.00903 -6.93537 0
M  V30 1673 H 149.493 -1.98403 -7.53828 0
M  V30 1674 N 153.722 1.14298 -1.08507 0
M  V30 1675 C 154.632 2.23027 -0.727753 0
M  V30 1676 C 155.648 1.71952 0.26619 0
M  V30 1677 O 156.824 2.011 0.109882 0
M  V30 1678 C 153.889 3.46403 -0.143541 0
M  V30 1679 C 152.95 4.12413 -1.19223 0
M  V30 1680 C 152.183 5.29899 -0.635798 0
M  V30 1681 O 152.406 5.67796 0.544393 0
M  V30 1682 O 151.34 5.85717 -1.38634 0
M  V30 1683 H 155.166 2.55945 -1.63481 0
M  V30 1684 H 152.751 1.22248 -0.858817 0
M  V30 1685 H 154.633 4.21018 0.179404 0
M  V30 1686 H 153.308 3.15206 0.736659 0
M  V30 1687 H 152.215 3.39667 -1.56772 0
M  V30 1688 H 153.548 4.47718 -2.04474 0
M  V30 1689 N 155.201 0.870884 1.31352 0
M  V30 1690 C 156.164 0.332243 2.26779 0
M  V30 1691 C 157.164 -0.517302 1.52252 0
M  V30 1692 O 158.354 -0.326477 1.71113 0
M  V30 1693 C 155.486 -0.528066 3.36785 0
M  V30 1694 H 156.679 1.17469 2.75937 0
M  V30 1695 H 154.232 0.64655 1.423 0
M  V30 1696 H 154.967 -1.39167 2.92922 0
M  V30 1697 H 154.752 0.0802582 3.92018 0
M  V30 1698 H 156.242 -0.897179 4.07849 0
M  V30 1699 N 156.679 -1.44442 0.630414 0
M  V30 1700 C 157.642 -2.29107 -0.0652523 0
M  V30 1701 C 158.642 -1.41002 -0.772995 0
M  V30 1702 O 159.832 -1.62881 -0.617692 0
M  V30 1703 C 156.964 -3.22564 -1.10296 0
M  V30 1704 H 158.157 -2.92103 0.679401 0
M  V30 1705 H 155.71 -1.51343 0.390517 0
M  V30 1706 H 156.445 -2.64416 -1.87762 0
M  V30 1707 H 156.23 -3.87491 -0.59941 0
M  V30 1708 H 157.72 -3.86167 -1.5895 0
M  V30 1709 N 158.157 -0.370918 -1.53173 0
M  V30 1710 C 159.573 -0.0200818 -1.59587 0
M  V30 1711 C 159.773 1.46279 -1.38581 0
M  V30 1712 O 158.829 2.22506 -1.19363 0
M  V30 1713 C 160.142 -0.4808 -2.96831 0
M  V30 1714 C 161.69 -0.435477 -3.09956 0
M  V30 1715 C 162.165 -0.872092 -4.4962 0
M  V30 1716 N 163.656 -0.827364 -4.55751 0
M  V30 1717 C 164.391 -1.13683 -5.62018 0
M  V30 1718 N 163.887 -1.51584 -6.76014 0
M  V30 1719 N 165.68 -1.05927 -5.52029 0
M  V30 1720 H 157.831 -1.33652 -1.65079 0
M  V30 1721 H 160.094 -0.546634 -0.774529 0
M  V30 1722 H 159.8 -1.51577 -3.1736 0
M  V30 1723 H 159.674 0.129796 -3.76977 0
M  V30 1724 H 162.061 0.590371 -2.89134 0
M  V30 1725 H 162.142 -1.08164 -2.31806 0
M  V30 1726 H 161.786 -1.89608 -4.71181 0
M  V30 1727 H 161.716 -0.203127 -5.26208 0
M  V30 1728 H 164.207 -0.548216 -3.73902 0
M  V30 1729 H 164.52 -1.73609 -7.53047 0
M  V30 1730 H 162.865 -1.55454 -6.77391 0
M  V30 1731 H 166.056 -0.762321 -4.61851 0
M  V30 1732 H 166.229 -1.30378 -6.34749 0
M  V30 1733 N 159.635 1.57281 -0.100228 0
M  V30 1734 C 160.567 2.11342 0.886972 0
M  V30 1735 C 161.58 1.05182 1.24261 0
M  V30 1736 O 162.769 1.32613 1.19483 0
M  V30 1737 C 159.869 2.5825 2.19454 0
M  V30 1738 C 159.042 3.88302 2.01346 0
M  V30 1739 C 158.101 4.21004 3.15661 0
M  V30 1740 O 157.127 4.9014 2.89398 0
M  V30 1741 N 158.329 3.76818 4.41575 0
M  V30 1742 H 161.094 2.96668 0.425216 0
M  V30 1743 H 158.655 1.61678 0.0847334 0
M  V30 1744 H 160.647 2.7717 2.94888 0
M  V30 1745 H 159.217 1.77907 2.57037 0
M  V30 1746 H 158.437 3.7848 1.10212 0
M  V30 1747 H 159.725 4.73375 1.8653 0
M  V30 1748 H 159.123 3.2102 4.65792 0
M  V30 1749 H 157.68 4.00882 5.13942 0
M  V30 1750 N 161.113 -0.173488 1.56642 0
M  V30 1751 C 162.061 -1.23417 1.97157 0
M  V30 1752 C 163.055 -1.45946 0.860013 0
M  V30 1753 O 164.261 -1.46551 1.04512 0
M  V30 1754 H 160.636 -0.414818 0.62724 0
M  V30 1755 H 162.607 -0.865582 2.8557 0
M  V30 1756 C 161.356 -2.5665 2.34576 0
M  V30 1757 H 160.679 -2.40137 3.19647 0
M  V30 1758 H 162.119 -3.2956 2.6677 0
M  V30 1759 C 160.578 -3.15245 1.18836 0
M  V30 1760 O 161.108 -3.98883 0.474869 0
M  V30 1761 N 159.314 -2.74303 0.959497 0
M  V30 1762 H 158.861 -2.0639 1.54146 0
M  V30 1763 H 158.819 -3.13844 0.186932 0
M  V30 1764 N 162.591 -1.51276 -0.441967 0
M  V30 1765 C 163.821 -1.67273 -1.21257 0
M  V30 1766 C 164.229 -0.367624 -1.85594 0
M  V30 1767 O 163.572 0.663349 -1.71305 0
M  V30 1768 C 163.634 -2.72807 -2.34129 0
M  V30 1769 C 163.298 -4.1554 -1.90198 0
M  V30 1770 C 164.295 -5.00471 -1.40801 0
M  V30 1771 C 161.98 -4.61616 -1.9803 0
M  V30 1772 C 163.974 -6.29536 -0.998174 0
M  V30 1773 C 161.661 -5.90679 -1.56658 0
M  V30 1774 C 162.659 -6.74466 -1.07633 0
M  V30 1775 O 162.347 -8.01116 -0.668459 0
M  V30 1776 H 162.079 -0.564614 -0.371734 0
M  V30 1777 H 164.633 -1.9843 -0.530521 0
M  V30 1778 H 162.863 -2.36954 -3.05597 0
M  V30 1779 H 164.552 -2.77729 -2.96009 0
M  V30 1780 H 165.318 -4.66079 -1.34148 0
M  V30 1781 H 161.197 -3.96526 -2.35135 0
M  V30 1782 H 164.741 -6.94885 -0.61482 0
M  V30 1783 H 160.638 -6.24586 -1.62979 0
M  V30 1784 H 161.406 -8.14633 -0.794722 0
M  V30 1785 N 164.069 0.697108 -1.41344 0
M  V30 1786 C 165.315 1.4593 -1.40827 0
M  V30 1787 C 165.648 1.94193 -0.0167098 0
M  V30 1788 O 164.923 1.69425 0.955263 0
M  V30 1789 C 165.206 2.67229 -2.41373 0
M  V30 1790 C 165.059 2.24741 -3.8963 0
M  V30 1791 C 166.378 3.69423 -2.39196 0
M  V30 1792 H 163.497 0.529303 -0.512842 0
M  V30 1793 H 166.139 0.794112 -1.72609 0
M  V30 1794 H 164.289 3.23982 -2.14401 0
M  V30 1795 H 165.961 1.73327 -4.27499 0
M  V30 1796 H 164.204 1.56542 -4.0457 0
M  V30 1797 H 164.875 3.1177 -4.55525 0
M  V30 1798 H 167.351 3.2234 -2.63128 0
M  V30 1799 H 166.227 4.51907 -3.11563 0
M  V30 1800 H 166.488 4.19012 -1.41001 0
M  V30 1801 N 165.547 1.27147 0.931209 0
M  V30 1802 C 166.824 1.0401 1.65654 0
M  V30 1803 C 167.204 -0.426297 2.06751 0
M  V30 1804 O 166.552 -1.40879 1.79904 0
M  V30 1805 C 166.762 1.99834 2.86125 0
M  V30 1806 C 168.11 2.29007 3.57549 0
M  V30 1807 O 169.134 1.97779 2.96246 0
M  V30 1808 O 167.993 2.82222 4.67989 0
M  V30 1809 H 165.087 0.396239 0.725895 0
M  V30 1810 H 167.633 1.38397 0.982056 0
M  V30 1811 H 166.405 2.98744 2.52721 0
M  V30 1812 H 166.028 1.65987 3.61295 0
M  V30 1813 N 167.025 -1.13721 1.09112 0
M  V30 1814 C 167.955 -2.21148 0.749385 0
M  V30 1815 C 168.936 -1.6792 -0.271475 0
M  V30 1816 O 170.121 -1.93693 -0.140251 0
M  V30 1817 C 167.251 -3.46905 0.165659 0
M  V30 1818 C 166.205 -4.13203 1.11567 0
M  V30 1819 C 165.531 -5.33248 0.393809 0
M  V30 1820 C 166.831 -4.60912 2.45678 0
M  V30 1821 H 168.525 -2.4999 1.64758 0
M  V30 1822 H 166.071 -1.20156 0.793626 0
M  V30 1823 H 168.024 -4.21313 -0.085466 0
M  V30 1824 H 166.748 -3.17449 -0.767714 0
M  V30 1825 H 165.407 -3.40758 1.35202 0
M  V30 1826 H 165.055 -5.00054 -0.543599 0
M  V30 1827 H 164.755 -5.78552 1.02721 0
M  V30 1828 H 166.279 -6.10413 0.150908 0
M  V30 1829 H 167.693 -5.26759 2.26269 0
M  V30 1830 H 166.09 -5.16944 3.04776 0
M  V30 1831 H 167.16 -3.75603 3.06677 0
M  V30 1832 N 168.503 -0.877838 -1.30888 0
M  V30 1833 C 169.749 -0.493426 -1.96706 0
M  V30 1834 C 170.082 0.953504 -1.6918 0
M  V30 1835 O 169.357 1.67266 -0.992594 0
M  V30 1836 C 169.64 -0.760429 -3.51979 0
M  V30 1837 C 169.493 -2.25747 -3.89048 0
M  V30 1838 C 170.812 -0.232148 -4.39487 0
M  V30 1839 H 167.931 -0.180746 -0.714493 0
M  V30 1840 H 170.573 -1.10052 -1.54882 0
M  V30 1841 H 168.723 -0.243715 -3.87735 0
M  V30 1842 H 170.395 -2.84204 -3.63354 0
M  V30 1843 H 168.638 -2.72694 -3.37373 0
M  V30 1844 H 169.309 -2.39491 -4.97341 0
M  V30 1845 H 171.785 -0.674314 -4.106 0
M  V30 1846 H 170.661 -0.448355 -5.47066 0
M  V30 1847 H 170.922 0.866297 -4.33529 0
M  V30 1848 N 169.982 1.44106 -0.638065 0
M  V30 1849 C 171.207 2.0685 -0.150916 0
M  V30 1850 C 171.632 1.47417 1.16833 0
M  V30 1851 O 170.99 0.578264 1.71831 0
M  V30 1852 C 171.038 3.60555 -0.05708 0
M  V30 1853 O 170.142 4.00465 0.984972 0
M  V30 1854 H 169.483 0.658151 -0.0879399 0
M  V30 1855 H 172.013 1.84865 -0.876707 0
M  V30 1856 H 172.023 4.07789 0.131232 0
M  V30 1857 H 170.698 4.03193 -1.02021 0
M  V30 1858 H 169.275 3.64849 0.770672 0
M  V30 1859 N 171.46 0.379036 1.52974 0
M  V30 1860 C 172.685 -0.209353 2.06341 0
M  V30 1861 C 173.11 -1.40583 1.24972 0
M  V30 1862 O 172.468 -1.79246 0.272155 0
M  V30 1863 C 172.516 -0.567786 3.56102 0
M  V30 1864 O 171.62 -1.66318 3.77375 0
M  V30 1865 H 170.961 -0.0272919 0.663439 0
M  V30 1866 H 173.491 0.543536 1.97248 0
M  V30 1867 H 173.501 -0.835003 3.99364 0
M  V30 1868 H 172.176 0.307013 4.14765 0
M  V30 1869 H 170.753 -1.39048 3.46006 0
M  V30 1870 N 172.938 -1.57226 0.108567 0
M  V30 1871 C 173.868 -2.17778 -0.84232 0
M  V30 1872 C 174.849 -1.11487 -1.2847 0
M  V30 1873 O 176.034 -1.39681 -1.34918 0
M  V30 1874 C 173.164 -2.76888 -2.09644 0
M  V30 1875 C 172.118 -3.88669 -1.79221 0
M  V30 1876 C 171.444 -4.34541 -3.11574 0
M  V30 1877 C 172.744 -5.11251 -1.06864 0
M  V30 1878 H 174.438 -2.97489 -0.337774 0
M  V30 1879 H 171.984 -1.43097 -0.161025 0
M  V30 1880 H 173.937 -3.17904 -2.76614 0
M  V30 1881 H 172.661 -1.94451 -2.62405 0
M  V30 1882 H 171.32 -3.48213 -1.14644 0
M  V30 1883 H 170.968 -3.48977 -3.62249 0
M  V30 1884 H 170.668 -5.09914 -2.91996 0
M  V30 1885 H 172.192 -4.782 -3.7968 0
M  V30 1886 H 173.606 -5.49352 -1.63968 0
M  V30 1887 H 172.003 -5.9214 -0.974178 0
M  V30 1888 H 173.073 -4.8487 -0.0536168 0
M  V30 1889 N 174.416 0.165178 -1.56732 0
M  V30 1890 C 175.641 0.900253 -1.86843 0
M  V30 1891 C 176.066 1.74766 -0.695596 0
M  V30 1892 O 175.424 1.77786 0.35522 0
M  V30 1893 C 175.472 1.74777 -3.15413 0
M  V30 1894 O 174.576 2.85007 -2.98068 0
M  V30 1895 H 173.917 0.251832 -0.614391 0
M  V30 1896 H 176.447 0.161468 -2.03962 0
M  V30 1897 H 176.457 2.14646 -3.46974 0
M  V30 1898 H 175.132 1.12537 -4.00385 0
M  V30 1899 H 173.709 2.48676 -2.77875 0
M  V30 1900 N 175.894 1.51508 0.433938 0
M  V30 1901 C 177.305 1.56784 1.01369 0
M  V30 1902 C 177.656 0.393349 1.92217 0
M  V30 1903 O 176.781 -0.489441 2.10792 0
M  V30 1904 C 177.376 2.84144 1.8452 0
M  V30 1905 C 175.935 2.9198 2.37539 0
M  V30 1906 C 175.082 2.51482 1.16843 0
M  V30 1907 H 178.033 1.57236 0.215081 0
M  V30 1908 H 178.054 2.68098 2.70007 0
M  V30 1909 H 177.566 3.69607 1.18373 0
M  V30 1910 H 175.667 2.10955 3.0713 0
M  V30 1911 H 175.78 3.95704 2.70103 0
M  V30 1912 H 174.144 2.04758 1.51481 0
M  V30 1913 H 174.927 3.39293 0.523015 0
M  V30 1914 N 177.372 -0.689602 1.41712 0
M  V30 1915 C 178.597 -1.48329 1.44959 0
M  V30 1916 C 179.022 -1.8801 0.0581283 0
M  V30 1917 O 178.38 -1.55026 -0.940035 0
M  V30 1918 C 178.428 -2.71835 2.36935 0
M  V30 1919 O 177.532 -3.69549 1.8305 0
M  V30 1920 H 176.873 -0.446199 0.491734 0
M  V30 1921 H 179.403 -0.847127 1.86239 0
M  V30 1922 H 179.413 -3.20076 2.53013 0
M  V30 1923 H 178.088 -2.42291 3.38035 0
M  V30 1924 H 176.665 -3.2851 1.76452 0
M  V30 1925 N 178.85 -1.27639 -0.924453 0
M  V30 1926 C 179.78 -1.13166 -2.04244 0
M  V30 1927 C 180.761 -0.032256 -1.70069 0
M  V30 1928 O 181.946 -0.207328 -1.9309 0
M  V30 1929 C 179.076 -0.781496 -3.38393 0
M  V30 1930 C 178.03 -1.83449 -3.86692 0
M  V30 1931 C 177.356 -1.33822 -5.17683 0
M  V30 1932 C 178.656 -3.23917 -4.09726 0
M  V30 1933 H 180.35 -2.06689 -2.1661 0
M  V30 1934 H 177.896 -0.995136 -1.04082 0
M  V30 1935 H 179.849 -0.667057 -4.16087 0
M  V30 1936 H 178.573 0.189439 -3.2605 0
M  V30 1937 H 177.232 -1.93789 -3.11193 0
M  V30 1938 H 176.88 -0.35665 -5.01734 0
M  V30 1939 H 176.58 -2.04224 -5.50968 0
M  V30 1940 H 178.104 -1.23679 -5.97943 0
M  V30 1941 H 179.518 -3.16559 -4.77978 0
M  V30 1942 H 177.915 -3.92059 -4.54324 0
M  V30 1943 H 178.985 -3.68729 -3.14908 0
M  V30 1944 N 180.328 1.1314 -1.09713 0
M  V30 1945 C 181.238 2.22242 -0.751367 0
M  V30 1946 C 182.254 1.72224 0.247938 0
M  V30 1947 O 183.43 2.01205 0.0885463 0
M  V30 1948 C 180.495 3.46231 -0.180274 0
M  V30 1949 C 179.556 4.11125 -1.2359 0
M  V30 1950 C 178.789 5.29195 -0.691966 0
M  V30 1951 O 179.012 5.68342 0.48414 0
M  V30 1952 O 177.946 5.84214 -1.44838 0
M  V30 1953 H 181.772 2.54197 -1.66186 0
M  V30 1954 H 179.357 1.21331 -0.871735 0
M  V30 1955 H 181.239 4.21185 0.134739 0
M  V30 1956 H 179.914 3.1597 0.703185 0
M  V30 1957 H 178.821 3.37985 -1.60366 0
M  V30 1958 H 180.154 4.45524 -2.09211 0
M  V30 1959 N 181.806 0.884767 1.30421 0
M  V30 1960 C 183.031 0.517288 2.00845 0
M  V30 1961 C 183.456 -0.886779 1.65885 0
M  V30 1962 O 182.814 -1.58768 0.875354 0
M  V30 1963 C 182.862 0.698994 3.5376 0
M  V30 1964 O 181.966 -0.255208 4.1161 0
M  V30 1965 H 181.307 0.203872 0.631927 0
M  V30 1966 H 183.837 1.19225 1.66272 0
M  V30 1967 H 183.847 0.597912 4.03595 0
M  V30 1968 H 182.522 1.72271 3.78544 0
M  V30 1969 H 181.099 -0.10784 3.72744 0
M  V30 1970 N 183.284 -1.43765 0.645699 0
M  V30 1971 C 184.509 -2.06767 0.161883 0
M  V30 1972 C 184.934 -1.48034 -1.16049 0
M  V30 1973 O 184.292 -0.587369 -1.71522 0
M  V30 1974 C 184.34 -3.60519 0.0762003 0
M  V30 1975 O 183.444 -4.00982 -0.963721 0
M  V30 1976 H 182.785 -0.657675 0.091429 0
M  V30 1977 H 185.315 -1.84397 0.886499 0
M  V30 1978 H 185.325 -4.07853 -0.109604 0
M  V30 1979 H 184 -4.02646 1.04157 0
M  V30 1980 H 182.577 -3.65253 -0.751312 0
M  V30 1981 N 184.763 -0.387143 -1.52771 0
M  V30 1982 C 185.988 0.198407 -2.06449 0
M  V30 1983 C 186.413 1.39918 -1.25716 0
M  V30 1984 O 185.771 1.79099 -0.281657 0
M  V30 1985 C 185.819 0.548893 -3.56398 0
M  V30 1986 O 184.923 1.64315 -3.78252 0
M  V30 1987 H 184.264 0.0237731 -0.663574 0
M  V30 1988 H 186.794 -0.553989 -1.96957 0
M  V30 1989 H 186.804 0.813812 -3.99801 0
M  V30 1990 H 185.479 -0.329005 -4.14597 0
M  V30 1991 H 184.056 1.37211 -3.46738 0
M  V30 1992 N 186.241 1.57166 -0.116904 0
M  V30 1993 C 187.173 2.12271 0.864507 0
M  V30 1994 C 188.186 1.06494 1.23138 0
M  V30 1995 O 189.375 1.33873 1.18069 0
M  V30 1996 C 186.475 2.60564 2.16702 0
M  V30 1997 C 185.648 3.90416 1.97216 0
M  V30 1998 C 184.707 4.24329 3.11178 0
M  V30 1999 O 183.733 4.93182 2.84184 0
M  V30 2000 N 184.935 3.8148 4.37554 0
M  V30 2001 H 187.7 2.97102 0.393726 0
M  V30 2002 H 185.261 1.61759 0.0675805 0
M  V30 2003 H 187.253 2.80282 2.91932 0
M  V30 2004 H 185.823 1.80623 2.55135 0
M  V30 2005 H 185.043 3.79627 1.06192 0
M  V30 2006 H 186.331 4.75327 1.81499 0
M  V30 2007 H 185.729 3.25943 4.62361 0
M  V30 2008 H 184.286 4.06311 5.09661 0
M  V30 2009 N 187.719 -0.156864 1.56817 0
M  V30 2010 C 188.965 -0.872416 1.83076 0
M  V30 2011 C 189.298 -1.81261 0.697001 0
M  V30 2012 O 188.573 -1.92171 -0.30008 0
M  V30 2013 C 188.856 -1.65551 3.19789 0
M  V30 2014 C 188.709 -0.737467 4.43713 0
M  V30 2015 C 190.028 -2.62012 3.53606 0
M  V30 2016 H 187.147 -0.315715 0.665953 0
M  V30 2017 H 189.789 -0.138004 1.89498 0
M  V30 2018 H 187.939 -2.28159 3.14445 0
M  V30 2019 H 189.611 -0.123143 4.61136 0
M  V30 2020 H 187.854 -0.0464067 4.33775 0
M  V30 2021 H 188.525 -1.32122 5.35955 0
M  V30 2022 H 191.001 -2.09525 3.59497 0
M  V30 2023 H 189.877 -3.13861 4.50314 0
M  V30 2024 H 190.138 -3.42902 2.79053 0
M  V30 2025 N 189.197 -1.51736 -0.425897 0
M  V30 2026 C 190.107 -1.76738 -1.54275 0
M  V30 2027 C 191.123 -0.65211 -1.61318 0
M  V30 2028 O 192.299 -0.935654 -1.78346 0
M  V30 2029 C 189.364 -1.89755 -2.90162 0
M  V30 2030 C 188.425 -3.13633 -2.93143 0
M  V30 2031 C 187.658 -3.2602 -4.22548 0
M  V30 2032 O 187.881 -2.44067 -5.15546 0
M  V30 2033 O 186.815 -4.19071 -4.32046 0
M  V30 2034 H 190.641 -2.71502 -1.36089 0
M  V30 2035 H 188.226 -1.36376 -0.610069 0
M  V30 2036 H 190.108 -2.00236 -3.70788 0
M  V30 2037 H 188.783 -0.981785 -3.08452 0
M  V30 2038 H 187.69 -3.08622 -2.11431 0
M  V30 2039 H 189.023 -4.04936 -2.798 0
M  V30 2040 N 190.675 0.682077 -1.42076 0
M  V30 2041 C 192.086 1.26246 -1.37546 0
M  V30 2042 C 192.437 1.96092 -0.0651481 0
M  V30 2043 O 191.562 1.99587 0.836297 0
M  V30 2044 C 192.157 2.29594 -2.49143 0
M  V30 2045 C 190.716 2.83175 -2.47969 0
M  V30 2046 C 189.863 1.57395 -2.28303 0
M  V30 2047 H 192.814 0.475937 -1.51395 0
M  V30 2048 H 192.835 3.11175 -2.18976 0
M  V30 2049 H 192.347 1.78729 -3.44496 0
M  V30 2050 H 190.448 3.3818 -1.56413 0
M  V30 2051 H 190.561 3.32687 -3.44755 0
M  V30 2052 H 188.925 1.83699 -1.76428 0
M  V30 2053 H 189.708 1.08507 -3.25701 0
M  V30 2054 N 192.153 1.28127 0.917671 0
M  V30 2055 C 193.401 1.14825 1.66312 0
M  V30 2056 C 193.722 -0.304379 1.9261 0
M  V30 2057 O 192.992 -1.21149 1.53947 0
M  V30 2058 H 191.572 0.421953 0.616413 0
M  V30 2059 H 194.234 1.608 1.10134 0
M  V30 2060 H 193.33 1.68489 2.62712 0
M  V30 2061 N 193.631 -1.12557 1.10312 0
M  V30 2062 C 194.859 -1.87864 0.866873 0
M  V30 2063 C 195.274 -1.79588 -0.582557 0
M  V30 2064 O 194.631 -1.16887 -1.40156 0
M  V30 2065 C 194.682 -3.37125 1.30496 0
M  V30 2066 O 194.403 -3.45201 2.69755 0
M  V30 2067 C 195.904 -4.29373 1.10243 0
M  V30 2068 H 193.124 -0.594452 0.311236 0
M  V30 2069 H 195.668 -1.42429 1.46745 0
M  V30 2070 H 193.823 -3.80109 0.748081 0
M  V30 2071 H 194.237 -4.38056 2.88457 0
M  V30 2072 H 195.711 -5.32394 1.45811 0
M  V30 2073 H 196.188 -4.39181 0.0409492 0
M  V30 2074 H 196.794 -3.92169 1.64571 0
M  V30 2075 N 195.109 -0.891671 -1.2995 0
M  V30 2076 C 196.386 -0.433307 -1.9074 0
M  V30 2077 C 196.766 1.08646 -1.80995 0
M  V30 2078 O 196.114 1.92476 -1.23147 0
M  V30 2079 C 196.324 -0.938895 -3.36134 0
M  V30 2080 C 197.672 -0.977829 -4.13187 0
M  V30 2081 O 198.696 -0.886015 -3.45005 0
M  V30 2082 O 197.555 -1.11453 -5.35015 0
M  V30 2083 H 194.649 -0.133699 -0.816121 0
M  V30 2084 H 197.195 -0.981011 -1.38471 0
M  V30 2085 H 195.967 -1.98281 -3.37343 0
M  V30 2086 H 195.59 -0.37074 -3.95868 0
M  V30 2087 N 196.587 1.43421 -0.653314 0
M  V30 2088 C 198.003 1.56341 -0.320886 0
M  V30 2089 C 198.203 1.63696 1.17499 0
M  V30 2090 O 197.259 1.59208 1.95982 0
M  V30 2091 C 198.572 2.82424 -1.03233 0
M  V30 2092 C 200.12 2.96168 -1.01259 0
M  V30 2093 C 200.595 4.25084 -1.70492 0
M  V30 2094 N 202.086 4.31948 -1.67257 0
M  V30 2095 C 202.821 5.30466 -2.17701 0
M  V30 2096 N 202.317 6.35261 -2.76434 0
M  V30 2097 N 204.11 5.2212 -2.082 0
M  V30 2098 H 196.261 1.3689 -1.62403 0
M  V30 2099 H 198.524 0.657455 -0.682977 0
M  V30 2100 H 198.23 2.83053 -2.08744 0
M  V30 2101 H 198.104 3.72653 -0.583948 0
M  V30 2102 H 200.491 2.9508 0.0341235 0
M  V30 2103 H 200.572 2.07229 -1.49966 0
M  V30 2104 H 200.216 4.26932 -2.7512 0
M  V30 2105 H 200.146 5.1292 -1.19251 0
M  V30 2106 H 202.637 3.56838 -1.24398 0
M  V30 2107 H 202.95 7.06754 -3.12601 0
M  V30 2108 H 201.295 6.35884 -2.80495 0
M  V30 2109 H 204.486 4.39166 -1.62021 0
M  V30 2110 H 204.659 5.98739 -2.47822 0
M  V30 2111 N 198.065 0.39524 1.52563 0
M  V30 2112 C 199.012 -0.437036 2.26624 0
M  V30 2113 C 199.982 -1.05281 1.28472 0
M  V30 2114 O 201.167 -1.07971 1.57311 0
M  V30 2115 C 198.307 -1.55524 3.08069 0
M  V30 2116 C 197.42 -0.961745 4.21158 0
M  V30 2117 C 196.555 -2.05149 4.89987 0
M  V30 2118 C 195.594 -1.4342 5.95061 0
M  V30 2119 N 194.731 -2.46351 6.57462 0
M  V30 2120 H 199.571 0.200976 2.97322 0
M  V30 2121 H 197.108 0.110944 1.46681 0
M  V30 2122 H 199.066 -2.21437 3.53584 0
M  V30 2123 H 197.696 -2.16348 2.3957 0
M  V30 2124 H 196.748 -0.192048 3.79915 0
M  V30 2125 H 198.06 -0.470701 4.96574 0
M  V30 2126 H 197.214 -2.78819 5.38837 0
M  V30 2127 H 195.953 -2.57615 4.14109 0
M  V30 2128 H 194.958 -0.682774 5.45544 0
M  V30 2129 H 196.183 -0.917416 6.72875 0
M  V30 2130 H 194.129 -2.97975 5.8442 0
M  V30 2131 H 194.046 -2.02019 7.28508 0
M  V30 2132 H 195.314 -3.19633 7.10954 0
M  V30 2133 N 199.544 -1.57102 0.125237 0
M  V30 2134 C 200.769 -2.0019 -0.542101 0
M  V30 2135 C 201.194 -1.00449 -1.59034 0
M  V30 2136 O 200.552 0.0229423 -1.81285 0
M  V30 2137 C 200.6 -3.42129 -1.13929 0
M  V30 2138 O 199.704 -3.45307 -2.2547 0
M  V30 2139 H 199.045 -0.650171 -0.134812 0
M  V30 2140 H 201.575 -2.03461 0.215553 0
M  V30 2141 H 201.585 -3.80471 -1.4733 0
M  V30 2142 H 200.26 -4.14237 -0.371531 0
M  V30 2143 H 198.837 -3.1879 -1.93462 0
M  V30 2144 N 201.022 0.148545 -1.56898 0
M  V30 2145 C 202.25 0.876389 -1.87422 0
M  V30 2146 C 202.665 1.74809 -0.713256 0
M  V30 2147 O 202.022 1.79725 0.317025 0
M  V30 2148 C 202.073 1.73438 -3.17178 0
M  V30 2149 O 201.794 0.897809 -4.28802 0
M  V30 2150 C 203.295 2.56993 -3.61205 0
M  V30 2151 H 200.515 0.253489 -0.621277 0
M  V30 2152 H 203.059 0.141798 -2.04008 0
M  V30 2153 H 201.214 2.42205 -3.0235 0
M  V30 2154 H 201.628 1.48672 -5.02988 0
M  V30 2155 H 203.102 3.12773 -4.54838 0
M  V30 2156 H 203.579 3.32958 -2.86419 0
M  V30 2157 H 204.185 1.9352 -3.78722 0
M  V30 2158 N 202.5 1.5196 0.417844 0
M  V30 2159 C 203.748 1.65263 1.16329 0
M  V30 2160 C 204.069 0.380634 1.91249 0
M  V30 2161 O 203.339 -0.604214 1.86349 0
M  V30 2162 H 201.919 0.60912 0.432414 0
M  V30 2163 H 204.581 1.88969 0.477162 0
M  V30 2164 H 203.677 2.4896 1.88217 0
M  V30 2165 N 203.978 -0.674533 1.42435 0
M  V30 2166 C 205.225 -1.43459 1.42919 0
M  V30 2167 C 205.553 -1.94446 0.0457312 0
M  V30 2168 O 204.808 -1.7132 -0.94593 0
M  V30 2169 C 205.107 -2.64767 2.40069 0
M  V30 2170 C 204.773 -2.3232 3.86443 0
M  V30 2171 C 203.435 -2.23182 4.26314 0
M  V30 2172 C 205.787 -2.05977 4.78773 0
M  V30 2173 C 203.115 -1.85827 5.56494 0
M  V30 2174 C 205.467 -1.70125 6.09295 0
M  V30 2175 C 204.131 -1.59498 6.48164 0
M  V30 2176 H 203.401 -0.524952 0.522978 0
M  V30 2177 H 206.048 -0.769097 1.75377 0
M  V30 2178 H 204.353 -3.36349 2.00939 0
M  V30 2179 H 206.05 -3.22949 2.37707 0
M  V30 2180 H 202.64 -2.40334 3.54877 0
M  V30 2181 H 206.824 -2.11969 4.48757 0
M  V30 2182 H 202.08 -1.76168 5.8547 0
M  V30 2183 H 206.254 -1.48767 6.80324 0
M  V30 2184 H 203.881 -1.30322 7.48946 0
M  V30 2185 N 205.456 -1.28612 -0.910864 0
M  V30 2186 C 206.366 -1.14643 -2.0468 0
M  V30 2187 C 207.382 -0.0723121 -1.7385 0
M  V30 2188 O 208.558 -0.282178 -1.99413 0
M  V30 2189 C 205.623 -0.812561 -3.37044 0
M  V30 2190 C 204.684 -1.96935 -3.81465 0
M  V30 2191 C 203.917 -1.65131 -5.07511 0
M  V30 2192 O 204.14 -0.567013 -5.67575 0
M  V30 2193 O 203.074 -2.49585 -5.47714 0
M  V30 2194 H 206.9 -2.1001 -2.19384 0
M  V30 2195 H 204.485 -1.07958 -1.03274 0
M  V30 2196 H 206.367 -0.640441 -4.16505 0
M  V30 2197 H 205.042 0.111426 -3.23508 0
M  V30 2198 H 203.949 -2.19664 -3.02818 0
M  V30 2199 H 205.282 -2.87414 -3.99567 0
M  V30 2200 N 206.934 1.1197 -1.10907 0
M  V30 2201 C 208.162 1.87402 -0.876824 0
M  V30 2202 C 208.577 1.79894 0.573025 0
M  V30 2203 O 207.934 1.17629 1.39534 0
M  V30 2204 C 207.985 3.36428 -1.32282 0
M  V30 2205 O 207.706 3.43765 -2.71582 0
M  V30 2206 C 209.207 4.28783 -1.12518 0
M  V30 2207 H 206.427 0.592793 -0.314384 0
M  V30 2208 H 208.971 1.41649 -1.47499 0
M  V30 2209 H 207.126 3.79706 -0.768229 0
M  V30 2210 H 207.54 4.3652 -2.90776 0
M  V30 2211 H 209.014 5.31613 -1.48633 0
M  V30 2212 H 209.491 4.39153 -0.0642394 0
M  V30 2213 H 210.097 3.91291 -1.66648 0
M  V30 2214 N 208.412 0.89855 1.29475 0
M  V30 2215 C 209.342 0.39201 2.30186 0
M  V30 2216 C 210.323 -0.532359 1.61555 0
M  V30 2217 O 211.508 -0.443331 1.89072 0
M  V30 2218 C 208.638 -0.382353 3.45189 0
M  V30 2219 C 207.592 0.451483 4.25612 0
M  V30 2220 C 206.918 -0.450307 5.328 0
M  V30 2221 C 208.218 1.70079 4.93832 0
M  V30 2222 H 209.912 1.23362 2.72804 0
M  V30 2223 H 207.458 0.594638 1.31149 0
M  V30 2224 H 209.411 -0.747451 4.14718 0
M  V30 2225 H 208.135 -1.25774 3.01411 0
M  V30 2226 H 206.794 0.798897 3.57789 0
M  V30 2227 H 206.442 -1.32379 4.85268 0
M  V30 2228 H 206.142 0.103902 5.87508 0
M  V30 2229 H 207.666 -0.811623 6.05182 0
M  V30 2230 H 209.08 1.40549 5.55805 0
M  V30 2231 H 207.477 2.19623 5.58467 0
M  V30 2232 H 208.547 2.43744 4.19186 0
M  V30 2233 N 209.89 -1.43072 0.660911 0
M  V30 2234 C 211.136 -2.0202 0.177708 0
M  V30 2235 C 211.469 -1.52066 -1.20787 0
M  V30 2236 O 210.744 -0.716987 -1.80802 0
M  V30 2237 C 211.027 -3.59561 0.197019 0
M  V30 2238 C 210.88 -4.19727 1.61706 0
M  V30 2239 C 212.199 -4.37664 -0.462396 0
M  V30 2240 H 209.318 -0.734034 0.0660494 0
M  V30 2241 H 211.96 -1.70272 0.843058 0
M  V30 2242 H 210.11 -3.86739 -0.369527 0
M  V30 2243 H 211.782 -4.03553 2.23479 0
M  V30 2244 H 210.025 -3.76084 2.16201 0
M  V30 2245 H 210.696 -5.28834 1.58237 0
M  V30 2246 H 213.172 -4.16095 0.0197215 0
M  V30 2247 H 212.048 -5.47305 -0.418188 0
M  V30 2248 H 212.309 -4.14493 -1.53778 0
M  V30 2249 N 211.368 -0.403325 -1.52352 0
M  V30 2250 C 212.614 0.174605 -2.02047 0
M  V30 2251 C 212.947 1.45282 -1.28867 0
M  V30 2252 O 212.222 1.90483 -0.393257 0
M  V30 2253 C 212.505 0.428238 -3.57545 0
M  V30 2254 C 212.358 -0.866248 -4.4138 0
M  V30 2255 C 213.677 1.21287 -4.23057 0
M  V30 2256 H 210.796 0.0619851 -0.734389 0
M  V30 2257 H 213.438 -0.53565 -1.82293 0
M  V30 2258 H 211.588 1.03327 -3.74507 0
M  V30 2259 H 213.26 -1.50265 -4.3614 0
M  V30 2260 H 211.503 -1.47851 -4.07827 0
M  V30 2261 H 212.174 -0.643249 -5.48239 0
M  V30 2262 H 214.65 0.700703 -4.10158 0
M  V30 2263 H 213.526 1.35909 -5.31808 0
M  V30 2264 H 213.787 2.23193 -3.81625 0
M  V30 2265 N 212.846 1.57033 -0.133567 0
M  V30 2266 C 214.074 2.00044 0.528195 0
M  V30 2267 C 214.489 1.01349 1.59291 0
M  V30 2268 O 213.846 0.00848369 1.82498 0
M  V30 2269 C 213.897 3.43018 1.1411 0
M  V30 2270 O 213.618 4.37939 0.11892 0
M  V30 2271 C 215.119 4.01237 1.88477 0
M  V30 2272 H 212.339 0.656517 0.138661 0
M  V30 2273 H 214.883 2.03267 -0.224196 0
M  V30 2274 H 213.038 3.40688 1.84418 0
M  V30 2275 H 213.452 5.21436 0.56613 0
M  V30 2276 H 214.926 5.03314 2.26669 0
M  V30 2277 H 215.403 3.41193 2.76558 0
M  V30 2278 H 216.009 4.07156 1.22898 0
M  V30 2279 N 214.325 -0.140222 1.56975 0
M  V30 2280 C 215.55 -0.870414 1.88251 0
M  V30 2281 C 215.975 -1.73637 0.723312 0
M  V30 2282 O 215.333 -1.78329 -0.32689 0
M  V30 2283 C 215.381 -1.69737 3.18154 0
M  V30 2284 O 214.485 -2.80229 3.02565 0
M  V30 2285 H 213.826 -0.242025 0.61832 0
M  V30 2286 H 216.356 -0.128999 2.04193 0
M  V30 2287 H 216.366 -2.09099 3.50345 0
M  V30 2288 H 215.041 -1.06152 4.02125 0
M  V30 2289 H 213.618 -2.44224 2.81796 0
M  V30 2290 N 215.803 -1.52179 -0.40978 0
M  V30 2291 C 216.713 -1.78364 -1.52392 0
M  V30 2292 C 217.729 -0.669183 -1.60617 0
M  V30 2293 O 218.905 -0.954518 -1.77344 0
M  V30 2294 C 215.97 -1.92822 -2.88133 0
M  V30 2295 C 215.031 -3.16725 -2.898 0
M  V30 2296 C 214.264 -3.30483 -4.19067 0
M  V30 2297 O 214.487 -2.49522 -5.12928 0
M  V30 2298 O 213.421 -4.2363 -4.27576 0
M  V30 2299 H 217.247 -2.72931 -1.33201 0
M  V30 2300 H 214.832 -1.37016 -0.59557 0
M  V30 2301 H 216.714 -2.04157 -3.68643 0
M  V30 2302 H 215.389 -1.01444 -3.07393 0
M  V30 2303 H 214.296 -3.10848 -2.08146 0
M  V30 2304 H 215.629 -4.07881 -2.75489 0
M  V30 2305 N 217.281 0.66697 -1.42791 0
M  V30 2306 C 218.558 1.4234 -1.34159 0
M  V30 2307 C 218.938 2.11093 0.0172729 0
M  V30 2308 O 218.286 2.03808 1.03318 0
M  V30 2309 C 218.496 2.41942 -2.51526 0
M  V30 2310 C 219.844 3.06353 -2.93995 0
M  V30 2311 O 220.868 2.52269 -2.51473 0
M  V30 2312 O 219.727 4.04376 -3.67617 0
M  V30 2313 H 216.821 0.635277 -0.529483 0
M  V30 2314 H 219.367 0.695034 -1.54814 0
M  V30 2315 H 218.139 1.89991 -3.42081 0
M  V30 2316 H 217.762 3.22249 -2.32898 0
M  V30 2317 N 218.759 1.29093 0.90403 0
M  V30 2318 C 220.007 1.16583 1.65085 0
M  V30 2319 C 220.328 -0.283933 1.92922 0
M  V30 2320 O 219.598 -1.19509 1.55224 0
M  V30 2321 H 218.178 0.428467 0.611903 0
M  V30 2322 H 220.84 1.61959 1.08422 0
M  V30 2323 H 219.936 1.71266 2.6091 0
M  V30 2324 N 220.237 -1.11381 1.11499 0
M  V30 2325 C 221.486 -1.82494 0.858993 0
M  V30 2326 C 221.799 -1.85605 -0.617278 0
M  V30 2327 O 223.005 -2.52824 -0.989552 0
M  V30 2328 C 221.461 -3.27745 1.48699 0
M  V30 2329 C 221.069 -3.32961 2.99735 0
M  V30 2330 C 222.813 -4.03754 1.31085 0
M  V30 2331 C 220.72 -4.72612 3.55516 0
M  V30 2332 H 219.65 -0.683802 0.317696 0
M  V30 2333 H 222.301 -1.25331 1.34031 0
M  V30 2334 H 220.683 -3.84844 0.933339 0
M  V30 2335 H 221.857 -2.85741 3.61509 0
M  V30 2336 H 220.172 -2.70433 3.16631 0
M  V30 2337 H 222.769 -5.06891 1.70192 0
M  V30 2338 H 223.112 -4.15527 0.253496 0
M  V30 2339 H 223.645 -3.53043 1.83318 0
M  V30 2340 H 220.384 -4.66036 4.60967 0
M  V30 2341 H 219.904 -5.2024 2.98513 0
M  V30 2342 H 221.583 -5.4157 3.53992 0
M  V30 2343 N 221.715 -0.905404 -1.28997 0
M  V30 2344 C 222.943 -0.549846 -1.9946 0
M  V30 2345 C 223.358 0.866834 -1.67724 0
M  V30 2346 O 222.715 1.57298 -0.925404 0
M  V30 2347 C 222.766 -0.739387 -3.53858 0
M  V30 2348 O 222.487 -2.10031 -3.84472 0
M  V30 2349 C 223.988 -0.389541 -4.41585 0
M  V30 2350 H 221.208 -0.210429 -0.637151 0
M  V30 2351 H 223.752 -1.21632 -1.64396 0
M  V30 2352 H 221.907 -0.120023 -3.87214 0
M  V30 2353 H 222.321 -2.13385 -4.79132 0
M  V30 2354 H 223.795 -0.572972 -5.49018 0
M  V30 2355 H 224.272 0.673756 -4.34001 0
M  V30 2356 H 224.878 -0.986089 -4.1371 0
M  V30 2357 N 223.193 1.4272 -0.668489 0
M  V30 2358 C 224.14 2.30796 0.0137489 0
M  V30 2359 C 225.11 1.4561 0.799177 0
M  V30 2360 O 226.295 1.74453 0.772702 0
M  V30 2361 C 223.435 3.31377 0.963507 0
M  V30 2362 C 222.548 4.31655 0.172569 0
M  V30 2363 C 221.683 5.19312 1.1175 0
M  V30 2364 C 220.722 6.11274 0.317886 0
M  V30 2365 N 219.859 6.91504 1.2152 0
M  V30 2366 H 224.699 2.88585 -0.743161 0
M  V30 2367 H 222.236 1.42154 -0.378226 0
M  V30 2368 H 224.194 3.88214 1.52792 0
M  V30 2369 H 222.824 2.75202 1.68712 0
M  V30 2370 H 221.876 3.76988 -0.508374 0
M  V30 2371 H 223.188 4.96779 -0.448527 0
M  V30 2372 H 222.342 5.80851 1.75206 0
M  V30 2373 H 221.081 4.5435 1.77249 0
M  V30 2374 H 220.086 5.48809 -0.329918 0
M  V30 2375 H 221.311 6.78283 -0.332917 0
M  V30 2376 H 219.257 6.29176 1.85671 0
M  V30 2377 H 219.174 7.53209 0.649036 0
M  V30 2378 H 220.442 7.57535 1.83742 0
M  V30 2379 N 224.671 0.411399 1.52136 0
M  V30 2380 C 225.92 -0.165009 2.01024 0
M  V30 2381 C 226.233 -1.4603 1.30133 0
M  V30 2382 O 227.439 -2.1181 1.69849 0
M  V30 2383 C 225.895 -0.344618 3.58246 0
M  V30 2384 C 225.503 0.938716 4.38055 0
M  V30 2385 C 227.247 -0.876195 4.15359 0
M  V30 2386 C 225.154 0.726172 5.86925 0
M  V30 2387 H 224.084 -0.0654407 0.751155 0
M  V30 2388 H 226.735 0.537192 1.75461 0
M  V30 2389 H 225.117 -1.10921 3.80148 0
M  V30 2390 H 226.291 1.70963 4.27912 0
M  V30 2391 H 224.606 1.39688 3.92271 0
M  V30 2392 H 227.203 -1.05128 5.24263 0
M  V30 2393 H 227.546 -1.85152 3.7286 0
M  V30 2394 H 228.079 -0.170607 3.97434 0
M  V30 2395 H 224.818 1.67312 6.33788 0
M  V30 2396 H 224.338 -0.00540283 5.998 0
M  V30 2397 H 226.017 0.369231 6.45946 0
M  V30 2398 N 226.149 -1.5696 0.141893 0
M  V30 2399 C 227.082 -2.12271 -0.837627 0
M  V30 2400 C 228.06 -1.04495 -1.24578 0
M  V30 2401 O 229.244 -1.32293 -1.34278 0
M  V30 2402 C 226.371 -2.63822 -2.12404 0
M  V30 2403 C 225.417 -3.83698 -1.86221 0
M  V30 2404 S 226.25 -5.24948 -1.05781 0
M  V30 2405 C 227.406 -5.79884 -2.35552 0
M  V30 2406 H 227.639 -2.95023 -0.367249 0
M  V30 2407 H 225.172 -1.54231 -0.0723014 0
M  V30 2408 H 227.13 -2.94175 -2.86307 0
M  V30 2409 H 225.791 -1.8121 -2.56557 0
M  V30 2410 H 224.984 -4.17995 -2.81596 0
M  V30 2411 H 224.586 -3.5408 -1.20429 0
M  V30 2412 H 226.878 -5.91005 -3.31239 0
M  V30 2413 H 227.821 -6.77544 -2.05767 0
M  V30 2414 H 228.229 -5.08095 -2.45967 0
M  V30 2415 N 227.627 0.131896 -1.57047 0
M  V30 2416 C 228.874 0.841932 -1.84168 0
M  V30 2417 C 229.202 1.8048 -0.725066 0
M  V30 2418 O 228.457 1.93618 0.284692 0
M  V30 2419 C 228.756 1.63703 -3.17704 0
M  V30 2420 C 228.422 0.81961 -4.43388 0
M  V30 2421 C 227.084 0.594148 -4.77518 0
M  V30 2422 C 229.436 0.248977 -5.20605 0
M  V30 2423 C 226.764 -0.212409 -5.86315 0
M  V30 2424 C 229.116 -0.544701 -6.30251 0
M  V30 2425 C 227.78 -0.780599 -6.6292 0
M  V30 2426 H 227.05 0.308085 -0.673917 0
M  V30 2427 H 229.697 0.104867 -1.91213 0
M  V30 2428 H 228.002 2.44464 -3.06177 0
M  V30 2429 H 229.699 2.19015 -3.35907 0
M  V30 2430 H 226.289 1.00542 -4.16641 0
M  V30 2431 H 230.473 0.410408 -4.946 0
M  V30 2432 H 225.729 -0.404524 -6.1006 0
M  V30 2433 H 229.903 -0.993922 -6.89271 0
M  V30 2434 H 227.53 -1.40742 -7.47058 0
M  V30 2435 N 229.106 1.52395 0.401703 0
M  V30 2436 C 230.054 1.7689 1.51039 0
M  V30 2437 C 231.048 0.636298 1.56996 0
M  V30 2438 O 232.254 0.818507 1.60314 0
M  V30 2439 H 228.629 0.559502 0.502456 0
M  V30 2440 H 230.6 2.69757 1.27568 0
M  V30 2441 C 229.349 1.94331 2.88324 0
M  V30 2442 H 228.672 2.80905 2.84486 0
M  V30 2443 H 230.112 2.15466 3.65172 0
M  V30 2444 C 228.571 0.712396 3.29282 0
M  V30 2445 O 229.101 -0.116218 4.01532 0
M  V30 2446 N 227.307 0.546154 2.85422 0
M  V30 2447 H 226.854 1.22156 2.26794 0
M  V30 2448 H 226.812 -0.276113 3.13185 0
M  V30 2449 N 230.584 -0.659388 1.43143 0
M  V30 2450 C 232 -0.974337 1.26407 0
M  V30 2451 C 232.2 -2.007 0.179341 0
M  V30 2452 O 231.256 -2.4856 -0.444295 0
M  V30 2453 C 232.569 -1.46447 2.62628 0
M  V30 2454 C 234.117 -1.58144 2.7011 0
M  V30 2455 C 234.592 -2.1055 4.06734 0
M  V30 2456 N 236.083 -2.17861 4.08767 0
M  V30 2457 C 236.818 -2.59519 5.1131 0
M  V30 2458 N 236.314 -3.00518 6.24228 0
M  V30 2459 N 238.107 -2.59404 4.98664 0
M  V30 2460 H 230.258 0.0240528 2.12386 0
M  V30 2461 H 232.521 -0.0518065 0.946583 0
M  V30 2462 H 232.227 -0.780123 3.42939 0
M  V30 2463 H 232.101 -2.44058 2.87603 0
M  V30 2464 H 234.488 -2.25682 1.90136 0
M  V30 2465 H 234.569 -0.589828 2.48907 0
M  V30 2466 H 234.213 -1.43616 4.87172 0
M  V30 2467 H 234.143 -3.10531 4.25298 0
M  V30 2468 H 236.634 -1.88975 3.27257 0
M  V30 2469 H 236.947 -3.31036 6.98309 0
M  V30 2470 H 235.292 -2.98337 6.2771 0
M  V30 2471 H 238.483 -2.26747 4.09516 0
M  V30 2472 H 238.656 -2.91548 5.78709 0
M  V30 2473 N 232.062 -1.29571 -0.897171 0
M  V30 2474 C 233.473 -1.15964 -1.46319 0
M  V30 2475 C 233.824 0.244267 -1.94674 0
M  V30 2476 O 232.949 1.13998 -1.83939 0
M  V30 2477 C 233.544 -2.09906 -2.65942 0
M  V30 2478 C 232.103 -2.00314 -3.18671 0
M  V30 2479 C 231.25 -2.00687 -1.91363 0
M  V30 2480 H 234.201 -1.42019 -0.708268 0
M  V30 2481 H 234.222 -1.67276 -3.41759 0
M  V30 2482 H 233.734 -3.12075 -2.30718 0
M  V30 2483 H 231.835 -1.01242 -3.58582 0
M  V30 2484 H 231.948 -2.88102 -3.82798 0
M  V30 2485 H 230.312 -1.45319 -2.09175 0
M  V30 2486 H 231.095 -3.04566 -1.58413 0
M  V30 2487 N 233.54 1.10788 -1.12088 0
M  V30 2488 C 234.487 2.17025 -0.785407 0
M  V30 2489 C 235.457 1.64265 0.246191 0
M  V30 2490 O 236.642 1.90412 0.121584 0
M  V30 2491 C 233.782 3.44249 -0.242177 0
M  V30 2492 C 232.895 4.1098 -1.33115 0
M  V30 2493 C 232.03 5.25911 -0.747741 0
M  V30 2494 C 231.069 5.84538 -1.81609 0
M  V30 2495 N 230.206 6.90853 -1.25167 0
M  V30 2496 H 235.046 2.45066 -1.69548 0
M  V30 2497 H 232.583 1.20297 -0.846582 0
M  V30 2498 H 234.541 4.17101 0.0908026 0
M  V30 2499 H 233.171 3.16571 0.631072 0
M  V30 2500 H 232.223 3.36133 -1.78097 0
M  V30 2501 H 233.535 4.50601 -2.13917 0
M  V30 2502 H 232.689 6.056 -0.365216 0
M  V30 2503 H 231.428 4.87614 0.0915188 0
M  V30 2504 H 230.433 5.03522 -2.20785 0
M  V30 2505 H 231.658 6.249 -2.6585 0
M  V30 2506 H 229.604 6.54562 -0.434174 0
M  V30 2507 H 229.521 7.29166 -1.99633 0
M  V30 2508 H 230.789 7.7433 -0.896259 0
M  V30 2509 N 235.018 0.912232 1.28515 0
M  V30 2510 C 235.965 0.397954 2.27343 0
M  V30 2511 C 236.935 -0.526766 1.57526 0
M  V30 2512 O 238.12 -0.449292 1.85435 0
M  V30 2513 C 235.26 -0.357263 3.43246 0
M  V30 2514 C 234.373 0.599788 4.27816 0
M  V30 2515 C 233.508 -0.173725 5.30916 0
M  V30 2516 C 232.547 0.777039 6.07148 0
M  V30 2517 N 231.684 0.0371398 7.0209 0
M  V30 2518 H 236.524 1.24577 2.70711 0
M  V30 2519 H 234.061 0.625612 1.33133 0
M  V30 2520 H 236.019 -0.8113 4.09236 0
M  V30 2521 H 234.649 -1.16943 3.00872 0
M  V30 2522 H 233.701 1.17235 3.61884 0
M  V30 2523 H 235.013 1.32704 4.80823 0
M  V30 2524 H 234.167 -0.688394 6.02782 0
M  V30 2525 H 232.906 -0.934041 4.78672 0
M  V30 2526 H 231.911 1.3031 5.34134 0
M  V30 2527 H 233.136 1.53689 6.61481 0
M  V30 2528 H 231.082 -0.705213 6.52198 0
M  V30 2529 H 230.999 0.704249 7.52713 0
M  V30 2530 H 232.267 -0.457383 7.78157 0
M  V30 2531 N 236.496 -1.42363 0.676048 0
M  V30 2532 C 237.443 -2.308 -0.00150904 0
M  V30 2533 C 238.413 -1.46032 -0.791444 0
M  V30 2534 O 239.598 -1.74861 -0.76344 0
M  V30 2535 C 236.738 -3.31883 -0.945919 0
M  V30 2536 C 235.851 -4.31741 -0.149675 0
M  V30 2537 C 234.986 -5.19898 -1.08995 0
M  V30 2538 C 234.025 -6.11434 -0.285465 0
M  V30 2539 N 233.162 -6.92138 -1.17851 0
M  V30 2540 H 238.002 -2.88187 0.758455 0
M  V30 2541 H 235.539 -1.41952 0.38576 0
M  V30 2542 H 237.497 -3.89019 -1.50731 0
M  V30 2543 H 236.127 -2.76093 -1.6725 0
M  V30 2544 H 235.179 -3.76713 0.528359 0
M  V30 2545 H 236.491 -4.96534 0.474866 0
M  V30 2546 H 235.645 -5.81772 -1.72123 0
M  V30 2547 H 234.384 -4.55284 -1.74837 0
M  V30 2548 H 233.389 -5.48627 0.359018 0
M  V30 2549 H 234.614 -6.78097 0.368883 0
M  V30 2550 H 232.56 -6.30152 -1.82332 0
M  V30 2551 H 232.477 -7.53542 -0.609082 0
M  V30 2552 H 233.745 -7.58499 -1.79722 0
M  V30 2553 N 237.974 -0.419461 -1.51915 0
M  V30 2554 C 238.922 0.415502 -2.28859 0
M  V30 2555 C 239.916 1.03674 -1.3397 0
M  V30 2556 O 241.122 0.973757 -1.51387 0
M  V30 2557 H 237.497 0.152786 -0.736315 0
M  V30 2558 H 239.468 -0.254531 -2.97312 0
M  V30 2559 C 238.217 1.51425 -3.12995 0
M  V30 2560 H 237.54 1.04556 -3.85886 0
M  V30 2561 H 238.98 2.07208 -3.6992 0
M  V30 2562 C 237.439 2.48745 -2.27217 0
M  V30 2563 O 237.969 3.52871 -1.9195 0
M  V30 2564 N 236.175 2.19202 -1.90785 0
M  V30 2565 H 235.722 1.34556 -2.19664 0
M  V30 2566 H 235.68 2.84561 -1.33687 0
M  V30 2567 N 239.452 1.56882 -0.150215 0
M  V30 2568 C 240.415 2.1573 0.774157 0
M  V30 2569 C 241.415 1.0999 1.17298 0
M  V30 2570 O 242.605 1.35613 1.09338 0
M  V30 2571 C 239.737 2.72302 2.05096 0
M  V30 2572 H 240.93 2.98752 0.262201 0
M  V30 2573 H 238.483 1.55985 0.099248 0
M  V30 2574 H 239.218 1.92956 2.6065 0
M  V30 2575 H 239.003 3.49665 1.77416 0
M  V30 2576 H 240.493 3.17632 2.71109 0
M  V30 2577 N 240.93 -0.123565 1.57115 0
M  V30 2578 C 242.179 -0.830704 1.83799 0
M  V30 2579 C 242.492 -1.81259 0.735158 0
M  V30 2580 O 243.698 -2.56558 0.888278 0
M  V30 2581 C 242.154 -1.52802 3.25852 0
M  V30 2582 C 241.762 -0.587356 4.44133 0
M  V30 2583 C 243.506 -2.22056 3.61789 0
M  V30 2584 C 241.413 -1.28764 5.77212 0
M  V30 2585 H 240.343 -0.313967 0.685522 0
M  V30 2586 H 242.994 -0.0834359 1.8331 0
M  V30 2587 H 241.376 -2.32175 3.20797 0
M  V30 2588 H 242.55 0.172829 4.60476 0
M  V30 2589 H 240.865 -0.00201892 4.164 0
M  V30 2590 H 243.462 -2.75131 4.58483 0
M  V30 2591 H 243.805 -2.99644 2.88997 0
M  V30 2592 H 244.338 -1.49576 3.68608 0
M  V30 2593 H 241.077 -0.55314 6.53162 0
M  V30 2594 H 240.597 -2.01995 5.64764 0
M  V30 2595 H 242.276 -1.8221 6.20813 0
M  V30 2596 N 242.408 -1.52605 -0.393616 0
M  V30 2597 C 243.356 -1.77688 -1.50099 0
M  V30 2598 C 244.35 -0.644615 -1.56656 0
M  V30 2599 O 245.556 -0.826997 -1.59877 0
M  V30 2600 H 241.931 -0.562159 -0.499481 0
M  V30 2601 H 243.902 -2.7043 -1.26135 0
M  V30 2602 C 242.651 -1.95858 -2.87289 0
M  V30 2603 H 241.974 -2.8241 -2.82992 0
M  V30 2604 H 243.414 -2.174 -3.64024 0
M  V30 2605 C 241.873 -0.729848 -3.28899 0
M  V30 2606 O 242.403 0.0949217 -4.01588 0
M  V30 2607 N 240.609 -0.561283 -2.85128 0
M  V30 2608 H 240.156 -1.23357 -2.26143 0
M  V30 2609 H 240.114 0.2595 -3.13327 0
M  V30 2610 N 243.887 0.651787 -1.4349 0
M  V30 2611 C 245.115 1.43937 -1.48626 0
M  V30 2612 C 245.53 1.8851 -0.104587 0
M  V30 2613 O 244.887 1.5958 0.885464 0
M  V30 2614 C 244.938 2.6734 -2.43334 0
M  V30 2615 O 244.659 2.24631 -3.76128 0
M  V30 2616 C 246.16 3.60683 -2.57726 0
M  V30 2617 H 243.38 0.44213 -0.504739 0
M  V30 2618 H 245.924 0.798944 -1.88248 0
M  V30 2619 H 244.079 3.2752 -2.06904 0
M  V30 2620 H 244.493 3.04485 -4.2707 0
M  V30 2621 H 245.967 4.43933 -3.28067 0
M  V30 2622 H 246.444 4.08126 -1.62265 0
M  V30 2623 H 247.05 3.06384 -2.94973 0
M  V30 2624 N 245.365 1.30045 0.890287 0
M  V30 2625 C 246.275 1.17885 2.02831 0
M  V30 2626 C 247.291 0.0999609 1.73713 0
M  V30 2627 O 248.467 0.313867 1.98939 0
M  V30 2628 C 245.532 0.866079 3.35708 0
M  V30 2629 C 244.593 2.02979 3.78283 0
M  V30 2630 C 243.826 1.73184 5.0482 0
M  V30 2631 O 244.049 0.657237 5.66601 0
M  V30 2632 O 242.983 2.58267 5.43674 0
M  V30 2633 H 246.809 2.13474 2.16015 0
M  V30 2634 H 244.394 1.09587 1.01543 0
M  V30 2635 H 246.276 0.706623 4.15433 0
M  V30 2636 H 244.951 -0.0599443 3.23644 0
M  V30 2637 H 243.858 2.24454 2.99285 0
M  V30 2638 H 245.191 2.93734 3.94944 0
M  V30 2639 N 246.843 -1.10192 1.12674 0
M  V30 2640 C 247.776 -2.15847 0.740625 0
M  V30 2641 C 248.754 -1.60352 -0.269421 0
M  V30 2642 O 249.938 -1.87796 -0.16278 0
M  V30 2643 C 247.065 -3.38562 0.096641 0
M  V30 2644 C 246.111 -4.12758 1.07391 0
M  V30 2645 S 246.944 -4.67997 2.60267 0
M  V30 2646 C 248.1 -5.94021 1.97206 0
M  V30 2647 H 248.333 -2.48266 1.63558 0
M  V30 2648 H 245.866 -1.22019 0.946087 0
M  V30 2649 H 247.824 -4.09621 -0.268535 0
M  V30 2650 H 246.485 -3.04377 -0.775462 0
M  V30 2651 H 245.678 -5.00755 0.570997 0
M  V30 2652 H 245.28 -3.47523 1.38216 0
M  V30 2653 H 247.572 -6.64589 1.31634 0
M  V30 2654 H 248.515 -6.48979 2.83253 0
M  V30 2655 H 248.923 -5.46169 1.42686 0
M  V30 2656 N 248.321 -0.919034 -1.28029 0
M  V30 2657 C 249.551 -0.570143 -1.98577 0
M  V30 2658 C 249.959 0.854172 -1.68821 0
M  V30 2659 O 249.302 1.57807 -0.940351 0
M  V30 2660 C 249.364 -0.705734 -3.52505 0
M  V30 2661 C 249.028 -2.10057 -4.05863 0
M  V30 2662 C 250.025 -3.07385 -4.19298 0
M  V30 2663 C 247.71 -2.41517 -4.40426 0
M  V30 2664 C 249.704 -4.34287 -4.66555 0
M  V30 2665 C 247.391 -3.68657 -4.87376 0
M  V30 2666 C 248.389 -4.64856 -5.00398 0
M  V30 2667 O 248.077 -5.89735 -5.46322 0
M  V30 2668 H 247.809 -0.215592 -0.6407 0
M  V30 2669 H 250.363 -1.23583 -1.64062 0
M  V30 2670 H 248.593 0.0170414 -3.86696 0
M  V30 2671 H 250.282 -0.363172 -4.04272 0
M  V30 2672 H 251.048 -2.84398 -3.92865 0
M  V30 2673 H 246.927 -1.67389 -4.29537 0
M  V30 2674 H 250.471 -5.09377 -4.76635 0
M  V30 2675 H 246.368 -3.91466 -5.13249 0
M  V30 2676 H 247.136 -5.92599 -5.64596 0
M  V30 2677 N 249.799 1.42003 -0.683588 0
M  V30 2678 C 250.749 2.27997 0.0121992 0
M  V30 2679 C 251.733 1.4156 0.764822 0
M  V30 2680 O 252.925 1.64935 0.642287 0
M  V30 2681 C 250.054 3.29706 0.956482 0
M  V30 2682 C 249.14 4.23625 0.200739 0
M  V30 2683 N 249.531 4.99448 -0.799087 0
M  V30 2684 C 247.829 4.43845 0.437937 0
M  V30 2685 C 248.53 5.68102 -1.25041 0
M  V30 2686 N 247.506 5.40511 -0.578648 0
M  V30 2687 H 251.308 2.84048 -0.754564 0
M  V30 2688 H 248.822 1.54071 -0.513398 0
M  V30 2689 H 250.819 3.90124 1.47 0
M  V30 2690 H 249.479 2.75216 1.72297 0
M  V30 2691 H 250.49 5.04303 -1.17893 0
M  V30 2692 H 247.167 4.00382 1.18325 0
M  V30 2693 H 248.557 6.38913 -2.07942 0
M  V30 2694 N 251.277 0.427512 1.51691 0
M  V30 2695 C 252.187 -0.39527 2.31246 0
M  V30 2696 C 253.203 -1.03674 1.39742 0
M  V30 2697 O 254.379 -1.03425 1.72816 0
M  V30 2698 C 251.444 -1.48706 3.13189 0
M  V30 2699 C 250.505 -0.866743 4.20459 0
M  V30 2700 C 249.738 -1.90651 4.98486 0
M  V30 2701 O 249.961 -3.12733 4.77026 0
M  V30 2702 O 248.895 -1.5025 5.82845 0
M  V30 2703 H 252.721 0.253918 3.02637 0
M  V30 2704 H 250.306 0.190274 1.48183 0
M  V30 2705 H 252.188 -2.12047 3.64162 0
M  V30 2706 H 250.863 -2.12051 2.44573 0
M  V30 2707 H 249.77 -0.195544 3.73589 0
M  V30 2708 H 251.103 -0.276934 4.9142 0
M  V30 2709 N 252.755 -1.56801 0.158532 0
M  V30 2710 C 254.004 -1.95665 -0.489702 0
M  V30 2711 C 254.317 -1.04654 -1.65248 0
M  V30 2712 O 255.523 -1.33146 -2.3661 0
M  V30 2713 C 253.979 -3.47874 -0.922582 0
M  V30 2714 C 253.587 -4.47489 0.213893 0
M  V30 2715 C 255.331 -3.95583 -1.53996 0
M  V30 2716 C 253.238 -5.90921 -0.237903 0
M  V30 2717 H 252.168 -0.730516 -0.186716 0
M  V30 2718 H 254.819 -1.81861 0.244722 0
M  V30 2719 H 253.201 -3.57051 -1.71261 0
M  V30 2720 H 254.375 -4.50017 0.991036 0
M  V30 2721 H 252.69 -4.09764 0.740407 0
M  V30 2722 H 255.287 -5.0019 -1.8898 0
M  V30 2723 H 255.63 -3.37789 -2.43319 0
M  V30 2724 H 256.163 -3.8937 -0.814611 0
M  V30 2725 H 252.902 -6.52559 0.620236 0
M  V30 2726 H 252.422 -5.91729 -0.980676 0
M  V30 2727 H 254.101 -6.43352 -0.686067 0
M  V30 2728 N 254.233 0.115231 -1.57178 0
M  V30 2729 C 255.166 1.17166 -1.95825 0
M  V30 2730 C 256.144 1.39912 -0.828463 0
M  V30 2731 O 257.328 1.54004 -1.08697 0
M  V30 2732 C 254.455 2.52478 -2.25771 0
M  V30 2733 C 253.501 2.46136 -3.48309 0
M  V30 2734 S 254.334 1.89736 -5.0076 0
M  V30 2735 C 255.49 3.26713 -5.33863 0
M  V30 2736 H 255.723 0.842103 -2.85124 0
M  V30 2737 H 253.256 0.322136 -1.51002 0
M  V30 2738 H 255.214 3.30332 -2.43702 0
M  V30 2739 H 253.875 2.82609 -1.37079 0
M  V30 2740 H 253.068 3.45819 -3.66641 0
M  V30 2741 H 252.67 1.76404 -3.29784 0
M  V30 2742 H 254.962 4.22935 -5.29275 0
M  V30 2743 H 255.905 3.13205 -6.35065 0
M  V30 2744 H 256.313 3.25316 -4.61335 0
M  V30 2745 N 255.711 1.52812 0.385517 0
M  V30 2746 C 257.127 1.4214 0.725829 0
M  V30 2747 C 257.327 0.544589 1.94001 0
M  V30 2748 O 256.383 0.0193693 2.52493 0
M  V30 2749 C 257.696 2.85042 0.957668 0
M  V30 2750 C 259.244 2.94543 1.05892 0
M  V30 2751 C 259.719 4.38464 1.32337 0
M  V30 2752 N 261.21 4.41804 1.39151 0
M  V30 2753 C 261.945 5.5025 1.61285 0
M  V30 2754 N 261.441 6.68775 1.80866 0
M  V30 2755 N 263.234 5.37798 1.63492 0
M  V30 2756 H 255.385 2.08338 -0.413383 0
M  V30 2757 H 257.648 0.940016 -0.122775 0
M  V30 2758 H 257.354 3.51431 0.137568 0
M  V30 2759 H 257.228 3.27505 1.87137 0
M  V30 2760 H 259.615 2.28321 1.86959 0
M  V30 2761 H 259.696 2.55504 0.123057 0
M  V30 2762 H 259.34 5.05254 0.517793 0
M  V30 2763 H 259.27 4.75059 2.27214 0
M  V30 2764 H 261.761 3.56377 1.25713 0
M  V30 2765 H 262.074 7.47197 1.97271 0
M  V30 2766 H 260.419 6.71797 1.78083 0
M  V30 2767 H 263.61 4.44171 1.47749 0
M  V30 2768 H 263.783 6.22382 1.80402 0
M  V30 2769 N 257.189 -0.644168 1.43834 0
M  V30 2770 C 258.152 -1.73857 1.49353 0
M  V30 2771 C 259.152 -1.56315 0.377112 0
M  V30 2772 O 260.342 -1.62048 0.639226 0
M  V30 2773 C 257.474 -3.12819 1.35488 0
M  V30 2774 H 258.667 -1.70342 2.46827 0
M  V30 2775 H 256.22 -0.856652 1.30733 0
M  V30 2776 H 256.955 -3.2194 0.390569 0
M  V30 2777 H 256.74 -3.26958 2.16428 0
M  V30 2778 H 258.23 -3.92606 1.42302 0
M  V30 2779 N 258.668 -1.30515 -0.883378 0
M  V30 2780 C 259.598 -1.19607 -2.00541 0
M  V30 2781 C 260.579 -0.086346 -1.69881 0
M  V30 2782 O 261.764 -0.268654 -1.92333 0
M  V30 2783 C 258.894 -0.888758 -3.35736 0
M  V30 2784 C 257.848 -1.95659 -3.8066 0
M  V30 2785 C 257.174 -1.50224 -5.13164 0
M  V30 2786 C 258.474 -3.36788 -3.99213 0
M  V30 2787 H 260.168 -2.13476 -2.09925 0
M  V30 2788 H 257.714 -1.02775 -1.00863 0
M  V30 2789 H 259.667 -0.799094 -4.13754 0
M  V30 2790 H 258.391 0.0856125 -3.26488 0
M  V30 2791 H 257.05 -2.03591 -3.04871 0
M  V30 2792 H 256.698 -0.516092 -5.00345 0
M  V30 2793 H 256.398 -2.2165 -5.44192 0
M  V30 2794 H 257.922 -1.42639 -5.93706 0
M  V30 2795 H 259.336 -3.31605 -4.67665 0
M  V30 2796 H 257.733 -4.06314 -4.41621 0
M  V30 2797 H 258.803 -3.78561 -3.03017 0
M  V30 2798 N 260.146 1.09593 -1.13257 0
M  V30 2799 C 261.093 2.1618 -0.808381 0
M  V30 2800 C 262.063 1.64517 0.228754 0
M  V30 2801 O 263.248 1.9053 0.101381 0
M  V30 2802 C 260.388 3.43973 -0.278675 0
M  V30 2803 C 259.501 4.09545 -1.37466 0
M  V30 2804 C 258.636 5.25088 -0.803479 0
M  V30 2805 C 257.675 5.82579 -1.87799 0
M  V30 2806 N 256.812 6.89486 -1.32488 0
M  V30 2807 H 261.652 2.43254 -1.72138 0
M  V30 2808 H 259.189 1.19392 -0.859294 0
M  V30 2809 H 261.147 4.17174 0.0465583 0
M  V30 2810 H 259.777 3.17223 0.597459 0
M  V30 2811 H 258.829 3.34226 -1.81652 0
M  V30 2812 H 260.141 4.48307 -2.18684 0
M  V30 2813 H 259.295 6.05178 -0.429427 0
M  V30 2814 H 258.034 4.87684 0.0397956 0
M  V30 2815 H 257.039 5.01152 -2.26113 0
M  V30 2816 H 258.264 6.22045 -2.72463 0
M  V30 2817 H 256.21 6.54064 -0.503575 0
M  V30 2818 H 256.127 7.27007 -2.07355 0
M  V30 2819 H 257.395 7.73336 -0.978336 0
M  V30 2820 N 261.624 0.925811 1.2754 0
M  V30 2821 C 262.587 0.428129 2.25166 0
M  V30 2822 C 263.587 -0.452261 1.54309 0
M  V30 2823 O 264.777 -0.253608 1.72344 0
M  V30 2824 C 261.909 -0.384749 3.38722 0
M  V30 2825 H 263.102 1.29066 2.70706 0
M  V30 2826 H 260.655 0.706323 1.3943 0
M  V30 2827 H 261.39 -1.26618 2.98561 0
M  V30 2828 H 261.175 0.246454 3.91325 0
M  V30 2829 H 262.665 -0.723389 4.11287 0
M  V30 2830 N 263.102 -1.41638 0.69111 0
M  V30 2831 C 264.065 -2.29178 0.0319786 0
M  V30 2832 C 265.065 -1.44153 -0.712496 0
M  V30 2833 O 266.255 -1.65354 -0.548053 0
M  V30 2834 C 263.387 -3.26952 -0.965161 0
M  V30 2835 H 264.58 -2.88959 0.802681 0
M  V30 2836 H 262.133 -1.4955 0.454356 0
M  V30 2837 H 262.868 -2.72142 -1.76378 0
M  V30 2838 H 262.653 -3.89685 -0.434522 0
M  V30 2839 H 264.143 -3.92561 -1.42428 0
M  V30 2840 N 264.58 -0.43555 -1.51462 0
M  V30 2841 C 265.805 0.132627 -2.06976 0
M  V30 2842 C 266.23 1.35848 -1.30104 0
M  V30 2843 O 265.588 1.78112 -0.338493 0
M  V30 2844 C 265.636 0.43523 -3.57964 0
M  V30 2845 O 264.74 1.52198 -3.83288 0
M  V30 2846 H 264.081 0.00265 -0.663995 0
M  V30 2847 H 266.611 -0.616369 -1.95095 0
M  V30 2848 H 266.621 0.686206 -4.02188 0
M  V30 2849 H 265.296 -0.460739 -4.1334 0
M  V30 2850 H 263.873 1.2611 -3.50928 0
M  V30 2851 N 266.058 1.56714 -0.166846 0
M  V30 2852 C 267.005 2.17746 0.765193 0
M  V30 2853 C 267.975 1.11614 1.23011 0
M  V30 2854 O 269.16 1.39745 1.29908 0
M  V30 2855 C 266.3 2.81882 1.9909 0
M  V30 2856 C 265.413 4.02462 1.56997 0
M  V30 2857 C 264.548 4.54537 2.749 0
M  V30 2858 C 263.587 5.67538 2.29275 0
M  V30 2859 N 262.724 6.14142 3.40255 0
M  V30 2860 H 267.564 2.97048 0.237952 0
M  V30 2861 H 265.101 1.4672 0.105725 0
M  V30 2862 H 267.059 3.17221 2.70974 0
M  V30 2863 H 265.689 2.05191 2.49192 0
M  V30 2864 H 264.741 3.72973 0.748037 0
M  V30 2865 H 266.053 4.84273 1.19503 0
M  V30 2866 H 265.207 4.92035 3.54946 0
M  V30 2867 H 263.946 3.71774 3.1565 0
M  V30 2868 H 262.951 5.29597 1.47674 0
M  V30 2869 H 264.176 6.52099 1.89588 0
M  V30 2870 H 262.122 5.3431 3.8059 0
M  V30 2871 H 262.039 6.9093 3.06841 0
M  V30 2872 H 263.307 6.56289 4.206 0
M  V30 2873 N 267.536 -0.106894 1.57237 0
M  V30 2874 C 268.813 -0.843526 1.76477 0
M  V30 2875 C 269.193 -1.97499 0.745464 0
M  V30 2876 O 268.541 -2.27357 -0.228306 0
M  V30 2877 C 268.751 -1.34903 3.21873 0
M  V30 2878 C 270.099 -1.79654 3.8472 0
M  V30 2879 O 271.123 -1.44554 3.2555 0
M  V30 2880 O 269.982 -2.44515 4.88748 0
M  V30 2881 H 267.076 -0.401468 0.723016 0
M  V30 2882 H 269.622 -0.0896927 1.69463 0
M  V30 2883 H 268.394 -0.53781 3.87586 0
M  V30 2884 H 268.017 -2.16522 3.33473 0
M  V30 2885 N 269.014 -1.53014 -0.377408 0
M  V30 2886 C 270.291 -1.59215 -1.13622 0
M  V30 2887 C 270.671 -0.392407 -2.07421 0
M  V30 2888 O 270.019 0.618342 -2.19975 0
M  V30 2889 C 270.229 -2.93669 -1.88573 0
M  V30 2890 C 271.577 -3.47822 -2.43526 0
M  V30 2891 O 272.601 -2.9562 -1.98715 0
M  V30 2892 O 271.46 -4.39055 -3.25412 0
M  V30 2893 H 268.554 -0.642625 -0.52054 0
M  V30 2894 H 271.1 -1.65353 -0.381625 0
M  V30 2895 H 269.872 -3.7243 -1.20048 0
M  V30 2896 H 269.495 -2.90968 -2.70968 0
M  V30 2897 N 270.492 0.636531 -1.44174 0
M  V30 2898 C 271.717 1.42847 -1.50364 0
M  V30 2899 C 272.142 1.87665 -0.127867 0
M  V30 2900 O 271.5 1.58408 0.88185 0
M  V30 2901 C 271.548 2.62854 -2.4686 0
M  V30 2902 O 270.652 3.62501 -1.9664 0
M  V30 2903 H 269.993 0.427642 -0.507955 0
M  V30 2904 H 272.523 0.777422 -1.89255 0
M  V30 2905 H 272.533 3.10465 -2.64718 0
M  V30 2906 H 271.208 2.29578 -3.46795 0
M  V30 2907 H 269.785 3.21735 -1.88523 0
M  V30 2908 N 271.97 1.30982 0.876444 0
M  V30 2909 C 273.219 1.19658 1.62373 0
M  V30 2910 C 273.532 -0.245636 1.94052 0
M  V30 2911 O 274.738 -0.48049 2.67214 0
M  V30 2912 C 273.194 2.09433 2.92687 0
M  V30 2913 C 272.802 3.58613 2.68516 0
M  V30 2914 C 274.546 2.06893 3.70669 0
M  V30 2915 C 272.453 4.40416 3.94699 0
M  V30 2916 H 271.383 0.444268 0.609214 0
M  V30 2917 H 274.034 1.55791 0.969605 0
M  V30 2918 H 272.416 1.66191 3.59439 0
M  V30 2919 H 273.59 4.10058 2.10212 0
M  V30 2920 H 271.905 3.63063 2.03898 0
M  V30 2921 H 274.502 2.65258 4.64265 0
M  V30 2922 H 274.845 1.05448 4.02724 0
M  V30 2923 H 275.378 2.48301 3.10792 0
M  V30 2924 H 272.117 5.42591 3.67798 0
M  V30 2925 H 271.637 3.93731 4.52477 0
M  V30 2926 H 273.316 4.52294 4.62644 0
M  V30 2927 N 273.449 -1.08991 1.13837 0
M  V30 2928 C 274.698 -1.80631 0.897509 0
M  V30 2929 C 275.011 -1.86872 -0.57777 0
M  V30 2930 O 276.217 -2.54866 -0.935701 0
M  V30 2931 C 274.673 -3.24517 1.55618 0
M  V30 2932 C 274.281 -3.26529 3.0673 0
M  V30 2933 C 276.025 -4.00882 1.3962 0
M  V30 2934 C 273.932 -4.64965 3.65461 0
M  V30 2935 H 272.862 -0.67691 0.332129 0
M  V30 2936 H 275.513 -1.2246 1.3666 0
M  V30 2937 H 273.895 -3.82778 1.01476 0
M  V30 2938 H 275.069 -2.78008 3.67489 0
M  V30 2939 H 273.384 -2.63656 3.22296 0
M  V30 2940 H 275.981 -5.03167 1.80906 0
M  V30 2941 H 276.324 -4.14896 0.341578 0
M  V30 2942 H 276.857 -3.49075 1.90766 0
M  V30 2943 H 273.596 -4.56153 4.70749 0
M  V30 2944 H 273.116 -5.13792 3.09481 0
M  V30 2945 H 274.795 -5.3394 3.654 0
M  V30 2946 N 274.927 -0.932562 -1.27047 0
M  V30 2947 C 276.155 -0.592031 -1.98249 0
M  V30 2948 C 276.57 0.831062 -1.69525 0
M  V30 2949 O 275.927 1.55299 -0.958561 0
M  V30 2950 C 275.978 -0.814279 -3.5221 0
M  V30 2951 O 275.699 -2.18139 -3.7993 0
M  V30 2952 C 277.2 -0.483121 -4.4066 0
M  V30 2953 H 274.42 -0.223896 -0.632544 0
M  V30 2954 H 276.964 -1.25091 -1.61779 0
M  V30 2955 H 275.119 -0.20213 -3.86872 0
M  V30 2956 H 275.533 -2.235 -4.74498 0
M  V30 2957 H 277.007 -0.689298 -5.47679 0
M  V30 2958 H 277.484 0.581546 -4.35333 0
M  V30 2959 H 278.09 -1.07362 -4.11526 0
M  V30 2960 N 276.405 1.4127 -0.698611 0
M  V30 2961 C 277.651 2.01478 -0.231207 0
M  V30 2962 C 277.984 1.55215 1.16713 0
M  V30 2963 O 277.259 0.764672 1.78838 0
M  V30 2964 C 277.542 3.58912 -0.292281 0
M  V30 2965 C 277.395 4.15293 -1.72778 0
M  V30 2966 C 278.714 4.38736 0.346194 0
M  V30 2967 H 275.833 0.732025 -0.0854878 0
M  V30 2968 H 278.475 1.67977 -0.887906 0
M  V30 2969 H 276.625 3.87582 0.26686 0
M  V30 2970 H 278.297 3.97486 -2.341 0
M  V30 2971 H 276.54 3.7022 -2.26096 0
M  V30 2972 H 277.211 5.24452 -1.72202 0
M  V30 2973 H 279.687 4.15897 -0.130035 0
M  V30 2974 H 278.563 5.48221 0.272932 0
M  V30 2975 H 278.824 4.18425 1.42734 0
M  V30 2976 N 277.883 0.443576 1.51229 0
M  V30 2977 C 278.813 -0.355142 2.30783 0
M  V30 2978 C 279.794 -1.0154 1.36468 0
M  V30 2979 O 280.979 -1.01785 1.65389 0
M  V30 2980 C 278.109 -1.45312 3.15439 0
M  V30 2981 C 277.063 -0.916002 4.18083 0
M  V30 2982 C 276.389 -2.1102 4.91299 0
M  V30 2983 C 277.689 0.0538602 5.22272 0
M  V30 2984 H 279.383 0.308767 2.97804 0
M  V30 2985 H 276.929 0.149937 1.43217 0
M  V30 2986 H 278.882 -2.01914 3.69876 0
M  V30 2987 H 277.606 -2.14541 2.46252 0
M  V30 2988 H 276.265 -0.372145 3.64706 0
M  V30 2989 H 275.913 -2.78882 4.18609 0
M  V30 2990 H 275.613 -1.75717 5.60712 0
M  V30 2991 H 277.137 -2.68164 5.48562 0
M  V30 2992 H 278.551 -0.422069 5.71744 0
M  V30 2993 H 276.948 0.319776 5.99247 0
M  V30 2994 H 278.018 0.98858 4.74716 0
M  V30 2995 N 279.361 -1.56624 0.175154 0
M  V30 2996 C 280.589 -2.01374 -0.474971 0
M  V30 2997 C 281.004 -1.05537 -1.56548 0
M  V30 2998 O 280.361 -0.0568668 -1.82411 0
M  V30 2999 C 280.412 -3.45923 -1.04975 0
M  V30 3000 O 280.133 -4.381 -0.00276605 0
M  V30 3001 C 281.634 -4.06093 -1.77773 0
M  V30 3002 H 278.854 -0.659962 -0.121206 0
M  V30 3003 H 281.398 -2.02601 0.27801 0
M  V30 3004 H 279.553 -3.45458 -1.75321 0
M  V30 3005 H 279.967 -5.22753 -0.427681 0
M  V30 3006 H 281.441 -5.09147 -2.13245 0
M  V30 3007 H 281.918 -3.48405 -2.67414 0
M  V30 3008 H 282.524 -4.10272 -1.12059 0
M  V30 3009 N 280.839 0.0985539 -1.57292 0
M  V30 3010 C 282.087 0.801092 -1.85545 0
M  V30 3011 C 282.408 1.79438 -0.763353 0
M  V30 3012 O 281.678 1.94763 0.21073 0
M  V30 3013 H 280.258 0.29884 -0.684619 0
M  V30 3014 H 282.92 0.0810064 -1.94732 0
M  V30 3015 H 282.016 1.3338 -2.82163 0
M  V30 3016 N 282.317 1.53212 0.369288 0
M  V30 3017 C 283.265 1.80054 1.47253 0
M  V30 3018 C 284.259 0.669456 1.55611 0
M  V30 3019 O 285.465 0.852328 1.58541 0
M  V30 3020 H 281.84 0.570034 0.490475 0
M  V30 3021 H 283.811 2.72403 1.21817 0
M  V30 3022 C 282.56 2.00403 2.84137 0
M  V30 3023 H 281.883 2.86876 2.78464 0
M  V30 3024 H 283.323 2.23164 3.60519 0
M  V30 3025 C 281.782 0.782081 3.27697 0
M  V30 3026 O 282.312 -0.0310205 4.01688 0
M  V30 3027 N 280.518 0.606573 2.84199 0
M  V30 3028 H 280.065 1.26939 2.24152 0
M  V30 3029 H 280.023 -0.20962 3.137 0
M  V30 3030 N 283.795 -0.628877 1.44509 0
M  V30 3031 C 285.043 -1.38565 1.4712 0
M  V30 3032 C 285.364 -1.94712 0.105899 0
M  V30 3033 O 284.634 -1.75912 -0.862079 0
M  V30 3034 H 283.214 -0.514333 0.541729 0
M  V30 3035 H 285.876 -0.740018 1.80305 0
M  V30 3036 H 284.972 -2.21583 2.19789 0
M  V30 3037 N 285.273 -1.31445 -0.869486 0
M  V30 3038 C 286.55 -1.11795 -1.60503 0
M  V30 3039 C 286.93 0.327168 -2.08549 0
M  V30 3040 O 286.278 1.32135 -1.8642 0
M  V30 3041 C 286.488 -2.13258 -2.76265 0
M  V30 3042 C 287.836 -2.45805 -3.46215 0
M  V30 3043 O 288.86 -2.11688 -2.86473 0
M  V30 3044 O 287.719 -3.04228 -4.5399 0
M  V30 3045 H 284.813 -0.430421 -0.706163 0
M  V30 3046 H 287.359 -1.42925 -0.914907 0
M  V30 3047 H 286.131 -3.10461 -2.3818 0
M  V30 3048 H 285.754 -1.83035 -3.52964 0
M  V30 3049 N 286.751 1.08385 -1.14413 0
M  V30 3050 C 287.981 1.8425 -0.934644 0
M  V30 3051 C 288.389 1.81907 0.520234 0
M  V30 3052 O 287.732 1.22126 1.37226 0
M  V30 3053 C 287.794 3.32853 -1.35828 0
M  V30 3054 C 287.458 3.5893 -2.82875 0
M  V30 3055 C 288.455 3.53756 -3.80989 0
M  V30 3056 C 286.14 3.86934 -3.20293 0
M  V30 3057 C 288.134 3.76216 -5.14529 0
M  V30 3058 C 285.821 4.09047 -4.54008 0
M  V30 3059 C 286.819 4.03682 -5.50936 0
M  V30 3060 O 286.507 4.25214 -6.82238 0
M  V30 3061 H 286.239 0.588502 -0.332628 0
M  V30 3062 H 288.793 1.37792 -1.52324 0
M  V30 3063 H 287.023 3.8007 -0.713019 0
M  V30 3064 H 288.712 3.90154 -1.11957 0
M  V30 3065 H 289.478 3.32135 -3.53428 0
M  V30 3066 H 285.357 3.9023 -2.45442 0
M  V30 3067 H 288.901 3.71943 -5.90173 0
M  V30 3068 H 284.798 4.30151 -4.8129 0
M  V30 3069 H 285.566 4.42619 -6.88499 0
M  V30 3070 N 288.23 0.939286 1.26551 0
M  V30 3071 C 289.46 0.601663 1.97645 0
M  V30 3072 C 289.868 -0.827206 1.70159 0
M  V30 3073 O 289.211 -1.56291 0.965338 0
M  V30 3074 C 289.273 0.761725 3.51337 0
M  V30 3075 C 288.937 2.16487 4.0247 0
M  V30 3076 C 289.934 3.14016 4.14355 0
M  V30 3077 C 287.619 2.48494 4.36527 0
M  V30 3078 C 289.613 4.41654 4.59587 0
M  V30 3079 C 287.3 3.76364 4.81449 0
M  V30 3080 C 288.298 4.72758 4.92939 0
M  V30 3081 O 287.986 5.98352 5.36871 0
M  V30 3082 H 287.718 0.225758 0.637189 0
M  V30 3083 H 290.272 1.26178 1.62075 0
M  V30 3084 H 288.502 0.0444808 3.86674 0
M  V30 3085 H 290.191 0.427442 4.03643 0
M  V30 3086 H 290.957 2.90613 3.8829 0
M  V30 3087 H 286.836 1.74202 4.26819 0
M  V30 3088 H 290.38 5.16896 4.68471 0
M  V30 3089 H 286.277 3.99582 5.06956 0
M  V30 3090 H 287.045 6.01507 5.55096 0
M  V30 3091 N 289.708 -1.40897 0.706093 0
M  V30 3092 C 290.933 -2.05895 0.249435 0
M  V30 3093 C 291.358 -1.52823 -1.09666 0
M  V30 3094 O 290.716 -0.659589 -1.68876 0
M  V30 3095 C 290.764 -3.59872 0.22904 0
M  V30 3096 O 289.868 -4.04708 -0.792784 0
M  V30 3097 H 289.209 -0.653206 0.119241 0
M  V30 3098 H 291.739 -1.80471 0.96391 0
M  V30 3099 H 291.749 -4.07951 0.0634791 0
M  V30 3100 H 290.424 -3.97866 1.21141 0
M  V30 3101 H 289.001 -3.68111 -0.59572 0
M  V30 3102 N 291.186 -0.45159 -1.50991 0
M  V30 3103 C 292.411 0.110667 -2.07105 0
M  V30 3104 C 292.836 1.3446 -1.31538 0
M  V30 3105 O 292.194 1.77743 -0.357365 0
M  V30 3106 C 292.242 0.397238 -3.58405 0
M  V30 3107 O 291.346 1.48124 -3.84881 0
M  V30 3108 H 290.687 -0.00439271 -0.663985 0
M  V30 3109 H 293.217 -0.637026 -1.9443 0
M  V30 3110 H 293.227 0.64351 -4.02893 0
M  V30 3111 H 291.902 -0.504553 -4.12828 0
M  V30 3112 H 290.479 1.22381 -3.52246 0
M  V30 3113 N 292.664 1.56529 -0.183458 0
M  V30 3114 C 293.912 1.96855 0.457452 0
M  V30 3115 C 294.233 1.07104 1.62953 0
M  V30 3116 O 293.503 0.139887 1.954 0
M  V30 3117 H 292.083 0.72693 0.171992 0
M  V30 3118 H 294.745 1.93056 -0.267476 0
M  V30 3119 H 293.841 3.01423 0.809368 0
M  V30 3120 N 294.142 -0.090211 1.57342 0
M  V30 3121 C 295.09 -1.12792 2.03422 0
M  V30 3122 C 296.084 -1.41182 0.936166 0
M  V30 3123 O 297.29 -1.40805 1.12133 0
M  V30 3124 H 293.665 -0.380986 0.648347 0
M  V30 3125 H 295.636 -0.71299 2.89757 0
M  V30 3126 C 294.385 -2.43855 2.47851 0
M  V30 3127 H 293.708 -2.22855 3.31927 0
M  V30 3128 H 295.148 -3.14955 2.83865 0
M  V30 3129 C 293.607 -3.08503 1.3538 0
M  V30 3130 O 294.137 -3.95805 0.685641 0
M  V30 3131 N 292.343 -2.68831 1.10355 0
M  V30 3132 H 291.89 -1.97929 1.64869 0
M  V30 3133 H 291.848 -3.12412 0.353031 0
M  V30 3134 N 295.62 -1.53406 -0.361157 0
M  V30 3135 C 296.897 -1.60411 -1.11927 0
M  V30 3136 C 297.277 -0.414385 -2.06993 0
M  V30 3137 O 296.625 0.594976 -2.20618 0
M  V30 3138 C 296.835 -2.95652 -1.85448 0
M  V30 3139 C 298.183 -3.50386 -2.39823 0
M  V30 3140 O 299.207 -2.97711 -1.95568 0
M  V30 3141 O 298.066 -4.42482 -3.20737 0
M  V30 3142 H 295.16 -0.64811 -0.513695 0
M  V30 3143 H 297.706 -1.65749 -0.364065 0
M  V30 3144 H 296.478 -3.73682 -1.16091 0
M  V30 3145 H 296.101 -2.93825 -2.67866 0
M  V30 3146 N 297.098 0.621204 -1.44841 0
M  V30 3147 C 298.028 1.74366 -1.55303 0
M  V30 3148 C 299.009 1.65199 -0.405385 0
M  V30 3149 O 300.194 1.83807 -0.626787 0
M  V30 3150 C 297.324 3.12931 -1.50637 0
M  V30 3151 C 296.278 3.36896 -2.63979 0
M  V30 3152 C 295.604 4.75594 -2.44366 0
M  V30 3153 C 296.904 3.28483 -4.06074 0
M  V30 3154 H 298.598 1.65867 -2.49256 0
M  V30 3155 H 296.144 0.796558 -1.19962 0
M  V30 3156 H 298.097 3.9124 -1.56555 0
M  V30 3157 H 296.821 3.22237 -0.532057 0
M  V30 3158 H 295.48 2.60972 -2.57467 0
M  V30 3159 H 295.128 4.81616 -1.45105 0
M  V30 3160 H 294.828 4.92586 -3.20364 0
M  V30 3161 H 296.352 5.5612 -2.52117 0
M  V30 3162 H 297.766 3.96684 -4.13902 0
M  V30 3163 H 296.163 3.57008 -4.82354 0
M  V30 3164 H 297.233 2.26133 -4.28943 0
M  V30 3165 N 298.576 1.31904 0.862503 0
M  V30 3166 C 299.804 1.24998 1.64873 0
M  V30 3167 C 300.219 -0.183425 1.87907 0
M  V30 3168 O 299.576 -1.11794 1.44251 0
M  V30 3169 C 299.627 1.99829 3.01248 0
M  V30 3170 O 299.348 3.37575 2.79239 0
M  V30 3171 C 300.849 1.99852 3.95694 0
M  V30 3172 H 298.069 0.431599 0.513773 0
M  V30 3173 H 300.613 1.73901 1.07604 0
M  V30 3174 H 298.768 1.54668 3.55185 0
M  V30 3175 H 299.182 3.75776 3.65914 0
M  V30 3176 H 300.656 2.56709 4.88676 0
M  V30 3177 H 301.133 0.982852 4.28062 0
M  V30 3178 H 301.739 2.44926 3.47694 0
M  V30 3179 N 300.054 -1.07777 1.14986 0
M  V30 3180 C 301.002 -2.16964 0.838406 0
M  V30 3181 C 301.996 -1.68372 -0.186386 0
M  V30 3182 O 303.202 -1.79951 -0.0418465 0
M  V30 3183 H 299.577 -0.708006 0.253439 0
M  V30 3184 H 301.548 -2.40454 1.76704 0
M  V30 3185 C 300.297 -3.4604 0.339335 0
M  V30 3186 H 299.62 -3.83813 1.11927 0
M  V30 3187 H 301.06 -4.23698 0.160021 0
M  V30 3188 C 299.519 -3.23569 -0.938325 0
M  V30 3189 O 300.049 -3.47752 -2.01077 0
M  V30 3190 N 298.255 -2.77079 -0.876117 0
M  V30 3191 H 297.802 -2.576 -0.00322037 0
M  V30 3192 H 297.76 -2.62422 -1.73153 0
M  V30 3193 N 301.532 -0.945985 -1.26051 0
M  V30 3194 C 302.779 -0.596118 -1.93527 0
M  V30 3195 C 303.107 0.865559 -1.74179 0
M  V30 3196 O 302.362 1.63524 -1.0751 0
M  V30 3197 C 302.661 -0.890475 -3.46129 0
M  V30 3198 C 302.327 -2.3368 -3.85622 0
M  V30 3199 C 300.989 -2.73216 -3.96114 0
M  V30 3200 C 303.341 -3.27648 -4.05334 0
M  V30 3201 C 300.669 -4.05806 -4.2372 0
M  V30 3202 C 303.021 -4.59841 -4.3443 0
M  V30 3203 C 301.685 -4.99185 -4.43137 0
M  V30 3204 H 300.955 -0.218135 -0.708165 0
M  V30 3205 H 303.602 -1.1934 -1.49768 0
M  V30 3206 H 301.907 -0.210711 -3.91233 0
M  V30 3207 H 303.604 -0.598478 -3.96509 0
M  V30 3208 H 300.194 -2.02015 -3.78005 0
M  V30 3209 H 304.378 -2.98298 -3.96651 0
M  V30 3210 H 299.634 -4.35945 -4.28675 0
M  V30 3211 H 303.808 -5.32641 -4.48628 0
M  V30 3212 H 301.435 -6.01952 -4.64282 0
M  V30 3213 N 303.011 1.40521 -0.713556 0
M  V30 3214 C 304.239 2.05237 -0.261775 0
M  V30 3215 C 304.654 1.53755 1.09567 0
M  V30 3216 O 304.011 0.693268 1.6882 0
M  V30 3217 C 304.062 3.60763 -0.230706 0
M  V30 3218 O 303.783 4.10345 -1.53455 0
M  V30 3219 C 305.284 4.42651 0.239874 0
M  V30 3220 H 302.504 0.660533 -0.118057 0
M  V30 3221 H 305.048 1.79967 -0.971192 0
M  V30 3222 H 303.203 3.8501 0.429661 0
M  V30 3223 H 303.617 5.04526 -1.43366 0
M  V30 3224 H 305.091 5.51599 0.210468 0
M  V30 3225 H 305.568 4.20082 1.28171 0
M  V30 3226 H 306.174 4.23507 -0.390142 0
M  V30 3227 N 304.489 0.459591 1.5075 0
M  V30 3228 C 305.766 -0.160371 1.94941 0
M  V30 3229 C 306.146 -1.58048 1.39943 0
M  V30 3230 O 305.494 -2.206 0.595629 0
M  V30 3231 C 305.704 -0.115432 3.48809 0
M  V30 3232 C 307.052 -0.310026 4.23467 0
M  V30 3233 O 308.076 -0.192543 3.55679 0
M  V30 3234 O 306.935 -0.546031 5.43765 0
M  V30 3235 H 304.029 -0.117925 0.818549 0
M  V30 3236 H 306.575 0.519169 1.61563 0
M  V30 3237 H 305.347 0.87652 3.81357 0
M  V30 3238 H 304.97 -0.836928 3.88692 0
M  V30 3239 N 305.967 -1.56429 0.191757 0
M  V30 3240 C 307.216 -1.9666 -0.448088 0
M  V30 3241 C 307.529 -1.08136 -1.62991 0
M  V30 3242 O 308.735 -1.38135 -2.33733 0
M  V30 3243 C 307.191 -3.49753 -0.848585 0
M  V30 3244 C 306.799 -4.46935 0.308764 0
M  V30 3245 C 308.543 -3.9876 -1.4557 0
M  V30 3246 C 306.45 -5.91293 -0.112506 0
M  V30 3247 H 305.38 -0.734312 -0.171179 0
M  V30 3248 H 308.031 -1.81301 0.283242 0
M  V30 3249 H 306.413 -3.60604 -1.63649 0
M  V30 3250 H 307.587 -4.47813 1.08627 0
M  V30 3251 H 305.902 -4.08102 0.827158 0
M  V30 3252 H 308.499 -5.04086 -1.78328 0
M  V30 3253 H 308.842 -3.42875 -2.36099 0
M  V30 3254 H 309.375 -3.9101 -0.731836 0
M  V30 3255 H 306.114 -6.51097 0.758514 0
M  V30 3256 H 305.634 -5.93676 -0.854941 0
M  V30 3257 H 307.313 -6.44663 -0.549448 0
M  V30 3258 N 307.445 0.0818655 -1.57387 0
M  V30 3259 C 308.856 0.634871 -1.75574 0
M  V30 3260 C 309.207 1.78435 -0.815809 0
M  V30 3261 O 308.332 2.164 0.0025366 0
M  V30 3262 C 308.927 1.15845 -3.18379 0
M  V30 3263 C 307.486 1.65741 -3.37945 0
M  V30 3264 C 306.633 0.572549 -2.71325 0
M  V30 3265 H 309.584 -0.144268 -1.58043 0
M  V30 3266 H 309.605 2.02751 -3.21982 0
M  V30 3267 H 309.117 0.321631 -3.86765 0
M  V30 3268 H 307.218 2.51781 -2.74658 0
M  V30 3269 H 307.331 1.74129 -4.46336 0
M  V30 3270 H 305.695 1.01518 -2.33594 0
M  V30 3271 H 306.478 -0.253918 -3.4236 0
M  V30 3272 N 308.923 1.53595 0.353017 0
M  V30 3273 C 310.334 1.61937 0.929153 0
M  V30 3274 C 310.685 0.494686 1.89861 0
M  V30 3275 O 309.81 -0.377017 2.1309 0
M  V30 3276 C 310.405 2.93526 1.69199 0
M  V30 3277 C 308.964 3.04161 2.21727 0
M  V30 3278 C 308.111 2.57322 1.03348 0
M  V30 3279 H 311.062 1.58155 0.131431 0
M  V30 3280 H 311.083 2.82034 2.55416 0
M  V30 3281 H 310.595 3.75362 0.986144 0
M  V30 3282 H 308.696 2.26938 2.95516 0
M  V30 3283 H 308.809 4.09465 2.48748 0
M  V30 3284 H 307.173 2.12499 1.40414 0
M  V30 3285 H 307.956 3.41588 0.342428 0
M  V30 3286 N 310.401 -0.613514 1.45168 0
M  V30 3287 C 311.649 -1.36997 1.48581 0
M  V30 3288 C 311.97 -1.94589 0.126545 0
M  V30 3289 O 311.24 -1.76816 -0.843372 0
M  V30 3290 H 309.82 -0.508558 0.547154 0
M  V30 3291 H 312.482 -0.720853 1.81079 0
M  V30 3292 H 311.578 -2.1924 2.22127 0
M  V30 3293 N 311.879 -1.3236 -0.855495 0
M  V30 3294 C 313.127 -1.22629 -1.60644 0
M  V30 3295 C 313.448 0.212136 -1.93843 0
M  V30 3296 O 312.718 1.13666 -1.59552 0
M  V30 3297 H 311.298 -0.450882 -0.595579 0
M  V30 3298 H 313.96 -1.65871 -1.02337 0
M  V30 3299 H 313.056 -1.80832 -2.54374 0
M  V30 3300 N 313.357 1.07166 -1.15556 0
M  V30 3301 C 314.603 1.80065 -0.932984 0
M  V30 3302 C 314.936 1.86586 0.53845 0
M  V30 3303 O 314.211 1.35098 1.39924 0
M  V30 3304 C 314.494 3.25022 -1.55025 0
M  V30 3305 C 314.347 3.26634 -3.09242 0
M  V30 3306 C 315.666 4.22341 -1.2376 0
M  V30 3307 H 312.785 0.653697 -0.340366 0
M  V30 3308 H 315.427 1.25389 -1.4275 0
M  V30 3309 H 313.577 3.71712 -1.12972 0
M  V30 3310 H 315.249 2.88173 -3.60214 0
M  V30 3311 H 313.492 2.65539 -3.43033 0
M  V30 3312 H 314.163 4.28854 -3.47546 0
M  V30 3313 H 316.639 3.8405 -1.60139 0
M  V30 3314 H 315.515 5.22053 -1.69564 0
M  V30 3315 H 315.776 4.41828 -0.154938 0
M  V30 3316 N 314.835 0.952656 1.25548 0
M  V30 3317 C 315.745 0.47782 2.29682 0
M  V30 3318 C 316.761 -0.453859 1.67977 0
M  V30 3319 O 317.937 -0.330587 1.98668 0
M  V30 3320 C 315.002 -0.238655 3.45878 0
M  V30 3321 C 314.063 0.730994 4.23031 0
M  V30 3322 C 313.296 0.0486165 5.33678 0
M  V30 3323 O 313.519 -1.16612 5.58353 0
M  V30 3324 O 312.453 0.733152 5.97418 0
M  V30 3325 H 316.279 1.34312 2.72386 0
M  V30 3326 H 313.864 0.719026 1.30959 0
M  V30 3327 H 315.746 -0.641774 4.16484 0
M  V30 3328 H 314.421 -1.07916 3.05181 0
M  V30 3329 H 313.328 1.18428 3.5486 0
M  V30 3330 H 314.661 1.53946 4.67506 0
M  V30 3331 N 316.313 -1.40141 0.720998 0
M  V30 3332 C 317.223 -2.34486 0.0731031 0
M  V30 3333 C 318.239 -1.57587 -0.737723 0
M  V30 3334 O 319.415 -1.89949 -0.669429 0
M  V30 3335 C 316.48 -3.36528 -0.833656 0
M  V30 3336 C 315.541 -4.29298 -0.0121673 0
M  V30 3337 C 314.774 -5.26466 -0.875742 0
M  V30 3338 O 314.997 -5.29745 -2.11485 0
M  V30 3339 O 313.931 -6.01092 -0.31185 0
M  V30 3340 H 317.757 -2.9152 0.851444 0
M  V30 3341 H 315.342 -1.41427 0.481527 0
M  V30 3342 H 317.224 -3.99093 -1.35289 0
M  V30 3343 H 315.899 -2.81899 -1.59105 0
M  V30 3344 H 314.806 -3.70001 0.552262 0
M  V30 3345 H 316.139 -4.87094 0.707129 0
M  V30 3346 N 317.792 -0.46758 -1.50504 0
M  V30 3347 C 318.739 0.328413 -2.28452 0
M  V30 3348 C 319.709 0.990313 -1.33349 0
M  V30 3349 O 320.894 1.00343 -1.62284 0
M  V30 3350 C 318.034 1.40648 -3.15138 0
M  V30 3351 C 317.147 0.759709 -4.25267 0
M  V30 3352 C 316.282 1.81537 -4.99217 0
M  V30 3353 C 315.321 1.14866 -6.01226 0
M  V30 3354 N 314.458 2.14702 -6.68467 0
M  V30 3355 H 319.298 -0.342603 -2.96024 0
M  V30 3356 H 316.835 -0.180801 -1.45985 0
M  V30 3357 H 318.793 2.04315 -3.63746 0
M  V30 3358 H 317.423 2.04671 -2.49619 0
M  V30 3359 H 316.475 0.0105671 -3.80399 0
M  V30 3360 H 317.787 0.233243 -4.98254 0
M  V30 3361 H 316.941 2.52793 -5.51526 0
M  V30 3362 H 315.68 2.37564 -4.25928 0
M  V30 3363 H 314.685 0.42171 -5.4818 0
M  V30 3364 H 315.91 0.595334 -6.76485 0
M  V30 3365 H 313.856 2.69752 -5.97972 0
M  V30 3366 H 313.773 1.6703 -7.37317 0
M  V30 3367 H 315.041 2.85348 -7.25394 0
M  V30 3368 N 319.27 1.56325 -0.20005 0
M  V30 3369 C 320.233 2.18084 0.705132 0
M  V30 3370 C 321.233 1.13666 1.1374 0
M  V30 3371 O 322.423 1.39023 1.04968 0
M  V30 3372 C 319.555 2.78689 1.96329 0
M  V30 3373 H 320.748 2.99435 0.167023 0
M  V30 3374 H 318.301 1.56221 0.0495725 0
M  V30 3375 H 319.036 2.0115 2.5438 0
M  V30 3376 H 318.821 3.55133 1.66202 0
M  V30 3377 H 320.311 3.26096 2.60866 0
M  V30 3378 N 320.748 -0.0735177 1.57428 0
M  V30 3379 C 321.695 -1.08756 2.0357 0
M  V30 3380 C 322.665 -1.38559 0.916 0
M  V30 3381 O 323.85 -1.49656 1.18354 0
M  V30 3382 C 320.99 -2.39657 2.48311 0
M  V30 3383 C 320.103 -2.16399 3.73892 0
M  V30 3384 C 319.238 -3.40852 4.07423 0
M  V30 3385 C 318.277 -3.1295 5.2605 0
M  V30 3386 N 317.414 -4.29729 5.55228 0
M  V30 3387 H 322.254 -0.687104 2.8997 0
M  V30 3388 H 319.791 -0.327709 1.43403 0
M  V30 3389 H 321.749 -3.16081 2.72303 0
M  V30 3390 H 320.379 -2.77508 1.64891 0
M  V30 3391 H 319.431 -1.30676 3.57251 0
M  V30 3392 H 320.743 -1.91788 4.60455 0
M  V30 3393 H 319.897 -4.25671 4.32306 0
M  V30 3394 H 318.636 -3.68537 3.19425 0
M  V30 3395 H 317.641 -2.26526 5.00965 0
M  V30 3396 H 318.866 -2.86589 6.15665 0
M  V30 3397 H 316.812 -4.57448 4.70188 0
M  V30 3398 H 316.729 -4.08385 6.36206 0
M  V30 3399 H 317.997 -5.1555 5.84661 0
M  V30 3400 N 322.226 -1.5378 -0.344866 0
M  V30 3401 C 323.174 -1.82373 -1.4437 0
M  V30 3402 C 324.168 -0.694128 -1.54526 0
M  V30 3403 O 325.374 -0.877442 -1.57165 0
M  V30 3404 H 321.749 -0.577765 -0.481344 0
M  V30 3405 H 323.72 -2.74306 -1.17468 0
M  V30 3406 C 322.469 -2.04898 -2.80913 0
M  V30 3407 H 321.792 -2.9127 -2.73865 0
M  V30 3408 H 323.232 -2.28871 -3.56923 0
M  V30 3409 C 321.691 -0.834116 -3.26411 0
M  V30 3410 O 322.221 -0.0328885 -4.01687 0
M  V30 3411 N 320.427 -0.65171 -2.83198 0
M  V30 3412 H 319.974 -1.30489 -2.22104 0
M  V30 3413 H 319.932 0.159686 -3.13994 0
M  V30 3414 N 323.704 0.605807 -1.45491 0
M  V30 3415 C 324.652 1.73754 -1.54636 0
M  V30 3416 C 325.646 1.64207 -0.416219 0
M  V30 3417 O 326.852 1.69979 -0.592199 0
M  V30 3418 H 323.227 0.574073 -0.485741 0
M  V30 3419 H 325.198 1.63169 -2.49837 0
M  V30 3420 C 323.947 3.12135 -1.53189 0
M  V30 3421 H 323.27 3.20141 -2.39478 0
M  V30 3422 H 324.71 3.91147 -1.63645 0
M  V30 3423 C 323.169 3.35921 -0.256616 0
M  V30 3424 O 323.699 3.96194 0.662798 0
M  V30 3425 N 321.905 2.90204 -0.151751 0
M  V30 3426 H 321.452 2.41336 -0.90081 0
M  V30 3427 H 321.41 3.06492 0.700699 0
M  V30 3428 N 325.182 1.32811 0.848464 0
M  V30 3429 C 326.145 1.22194 1.9391 0
M  V30 3430 C 327.145 0.143404 1.60159 0
M  V30 3431 O 328.335 0.394253 1.6968 0
M  V30 3432 C 325.467 0.88067 3.29328 0
M  V30 3433 H 326.66 2.19127 2.04752 0
M  V30 3434 H 324.213 1.16731 1.0394 0
M  V30 3435 H 324.948 -0.0865776 3.24184 0
M  V30 3436 H 324.733 1.66052 3.55203 0
M  V30 3437 H 326.223 0.830871 4.09251 0
M  V30 3438 N 326.66 -1.06551 1.16123 0
M  V30 3439 C 327.906 -1.79567 0.94252 0
M  V30 3440 C 328.239 -1.86869 -0.528547 0
M  V30 3441 O 327.514 -1.35838 -1.39206 0
M  V30 3442 C 327.797 -3.24195 1.56747 0
M  V30 3443 C 327.65 -3.24989 3.10969 0
M  V30 3444 C 328.969 -4.21678 1.25998 0
M  V30 3445 H 326.088 -0.651883 0.343828 0
M  V30 3446 H 328.73 -1.2463 1.43413 0
M  V30 3447 H 326.88 -3.71107 1.14942 0
M  V30 3448 H 328.552 -2.86258 3.61737 0
M  V30 3449 H 326.795 -2.63716 3.44436 0
M  V30 3450 H 327.466 -4.27005 3.49815 0
M  V30 3451 H 329.942 -3.83196 1.62174 0
M  V30 3452 H 328.818 -5.21146 1.7233 0
M  V30 3453 H 329.079 -4.4174 0.178367 0
M  V30 3454 N 328.138 -0.959301 -1.25041 0
M  V30 3455 C 329.068 -0.501388 -2.28053 0
M  V30 3456 C 330.049 0.454673 -1.63911 0
M  V30 3457 O 331.234 0.352618 -1.90972 0
M  V30 3458 C 328.364 0.217224 -3.4662 0
M  V30 3459 C 327.318 -0.654034 -4.22973 0
M  V30 3460 C 326.644 0.195589 -5.34342 0
M  V30 3461 C 327.944 -1.93447 -4.85155 0
M  V30 3462 H 329.638 -1.36238 -2.66608 0
M  V30 3463 H 327.184 -0.656534 -1.28163 0
M  V30 3464 H 329.137 0.548732 -4.17812 0
M  V30 3465 H 327.861 1.1125 -3.07068 0
M  V30 3466 H 326.52 -0.968693 -3.5357 0
M  V30 3467 H 326.168 1.09076 -4.91031 0
M  V30 3468 H 325.868 -0.384091 -5.86343 0
M  V30 3469 H 327.392 0.521958 -6.08365 0
M  V30 3470 H 328.806 -1.66908 -5.48466 0
M  V30 3471 H 327.203 -2.46018 -5.47353 0
M  V30 3472 H 328.273 -2.63466 -4.07079 0
M  V30 3473 N 329.616 1.39756 -0.72842 0
M  V30 3474 C 330.546 2.33289 -0.0991354 0
M  V30 3475 C 331.527 1.53568 0.731489 0
M  V30 3476 O 332.712 1.81987 0.677807 0
M  V30 3477 C 329.842 3.3763 0.813834 0
M  V30 3478 C 328.796 4.2791 0.0878663 0
M  V30 3479 C 328.122 5.22894 1.11741 0
M  V30 3480 C 329.422 5.11314 -1.06563 0
M  V30 3481 H 331.116 2.86163 -0.880408 0
M  V30 3482 H 328.662 1.37591 -0.424819 0
M  V30 3483 H 330.615 4.0201 1.26355 0
M  V30 3484 H 329.339 2.83181 1.62715 0
M  V30 3485 H 327.998 3.65 -0.342159 0
M  V30 3486 H 327.646 4.64744 1.92412 0
M  V30 3487 H 327.346 5.84143 0.636477 0
M  V30 3488 H 328.87 5.90151 1.56697 0
M  V30 3489 H 330.284 5.69076 -0.694671 0
M  V30 3490 H 328.681 5.81671 -1.47577 0
M  V30 3491 H 329.751 4.46534 -1.89038 0
M  V30 3492 N 331.094 0.475555 1.50254 0
M  V30 3493 C 332.51 0.12997 1.5907 0
M  V30 3494 C 332.71 -1.36385 1.48328 0
M  V30 3495 O 331.766 -2.13754 1.34407 0
M  V30 3496 C 333.079 0.684139 2.92814 0
M  V30 3497 C 334.627 0.647965 3.0622 0
M  V30 3498 C 335.102 1.17975 4.42545 0
M  V30 3499 N 336.593 1.13936 4.48969 0
M  V30 3500 C 337.328 1.52129 5.52851 0
M  V30 3501 N 336.824 1.97793 6.63965 0
M  V30 3502 N 338.617 1.43704 5.4342 0
M  V30 3503 H 330.768 1.44706 1.55479 0
M  V30 3504 H 333.031 0.598691 0.735033 0
M  V30 3505 H 332.737 1.73079 3.06164 0
M  V30 3506 H 332.611 0.130204 3.76975 0
M  V30 3507 H 334.998 -0.38979 2.92514 0
M  V30 3508 H 335.079 1.23876 2.23805 0
M  V30 3509 H 334.723 2.21616 4.57 0
M  V30 3510 H 334.653 0.565138 5.23559 0
M  V30 3511 H 337.144 0.804488 3.69238 0
M  V30 3512 H 337.457 2.25072 7.39299 0
M  V30 3513 H 335.802 2.01749 6.65073 0
M  V30 3514 H 338.993 1.07867 4.55502 0
M  V30 3515 H 339.166 1.73794 6.24259 0
M  V30 3516 N 332.573 -1.56217 0.208337 0
M  V30 3517 C 333.483 -2.23316 -0.718836 0
M  V30 3518 C 334.499 -1.23648 -1.22422 0
M  V30 3519 O 335.675 -1.56423 -1.26861 0
M  V30 3520 C 332.74 -2.88968 -1.91568 0
M  V30 3521 C 331.801 -4.03943 -1.45357 0
M  V30 3522 C 331.034 -4.66455 -2.59337 0
M  V30 3523 O 331.257 -4.27919 -3.77149 0
M  V30 3524 O 330.191 -5.55686 -2.31293 0
M  V30 3525 H 334.017 -3.03182 -0.177315 0
M  V30 3526 H 331.602 -1.49384 -0.0215402 0
M  V30 3527 H 333.484 -3.30455 -2.61491 0
M  V30 3528 H 332.159 -2.12071 -2.44556 0
M  V30 3529 H 331.066 -3.67052 -0.722746 0
M  V30 3530 H 332.399 -4.82543 -0.970219 0
M  V30 3531 N 334.051 0.0651679 -1.57465 0
M  V30 3532 C 335.298 0.763063 -1.87573 0
M  V30 3533 C 335.626 1.77242 -0.800961 0
M  V30 3534 O 334.881 1.94651 0.202316 0
M  V30 3535 C 335.18 1.50081 -3.24362 0
M  V30 3536 C 334.846 0.630816 -4.46466 0
M  V30 3537 C 333.508 0.391082 -4.79608 0
M  V30 3538 C 335.86 0.0279465 -5.21193 0
M  V30 3539 C 333.188 -0.460894 -5.84887 0
M  V30 3540 C 335.54 -0.811522 -6.27373 0
M  V30 3541 C 334.204 -1.06106 -6.59013 0
M  V30 3542 H 333.474 0.279224 -0.686378 0
M  V30 3543 H 336.121 0.0236726 -1.91485 0
M  V30 3544 H 334.426 2.31258 -3.16271 0
M  V30 3545 H 336.123 2.04571 -3.44894 0
M  V30 3546 H 332.713 0.8278 -4.2053 0
M  V30 3547 H 336.897 0.200262 -4.95896 0
M  V30 3548 H 332.153 -0.662907 -6.07796 0
M  V30 3549 H 336.327 -1.28537 -6.84435 0
M  V30 3550 H 333.954 -1.723 -7.40417 0
M  V30 3551 N 335.529 1.53961 0.336706 0
M  V30 3552 C 336.775 1.7179 1.07777 0
M  V30 3553 C 337.108 0.483263 1.88091 0
M  V30 3554 O 336.383 -0.519747 1.87427 0
M  V30 3555 C 336.666 2.98558 2.01334 0
M  V30 3556 C 336.519 4.32245 1.24437 0
M  V30 3557 C 337.838 3.21023 3.01052 0
M  V30 3558 H 334.957 0.625089 0.390426 0
M  V30 3559 H 337.599 1.86641 0.35567 0
M  V30 3560 H 335.749 2.86028 2.62908 0
M  V30 3561 H 337.421 4.56637 0.654243 0
M  V30 3562 H 335.664 4.30344 0.546458 0
M  V30 3563 H 336.335 5.17137 1.93063 0
M  V30 3564 H 338.811 3.32929 2.49595 0
M  V30 3565 H 337.687 4.11104 3.6371 0
M  V30 3566 H 337.948 2.37637 3.72802 0
M  V30 3567 N 337.007 -0.598083 1.45811 0
M  V30 3568 C 338.255 -1.35413 1.50026 0
M  V30 3569 C 338.576 -1.94444 0.147177 0
M  V30 3570 O 337.846 -1.77701 -0.824571 0
M  V30 3571 H 336.426 -0.502727 0.552517 0
M  V30 3572 H 339.088 -0.701606 1.81834 0
M  V30 3573 H 338.184 -2.16871 2.2444 0
M  V30 3574 N 338.485 -1.33259 -0.841409 0
M  V30 3575 C 339.725 -1.25902 -1.61022 0
M  V30 3576 C 340.089 0.173325 -1.91216 0
M  V30 3577 O 341.29 0.370824 -2.6623 0
M  V30 3578 C 339.561 -2.10735 -2.88662 0
M  V30 3579 S 341.12 -2.20541 -3.79351 0
M  V30 3580 H 337.938 -0.447958 -0.552137 0
M  V30 3581 H 340.54 -1.68263 -0.995382 0
M  V30 3582 H 339.244 -3.1384 -2.64448 0
M  V30 3583 H 338.775 -1.69201 -3.55154 0
M  V30 3584 H 340.79 -1.36462 -4.77067 0
M  V30 3585 N 339.963 1.05934 -1.16686 0
M  V30 3586 C 341.21 1.788 -0.950622 0
M  V30 3587 C 341.538 1.87384 0.521305 0
M  V30 3588 O 340.793 1.36438 1.40297 0
M  V30 3589 C 341.092 3.23105 -1.52767 0
M  V30 3590 C 340.758 3.34594 -3.02254 0
M  V30 3591 C 339.42 3.37437 -3.43059 0
M  V30 3592 C 341.772 3.36219 -3.98254 0
M  V30 3593 C 339.1 3.39525 -4.78477 0
M  V30 3594 C 341.452 3.39845 -5.33562 0
M  V30 3595 C 340.116 3.40971 -5.73842 0
M  V30 3596 H 339.386 0.654275 -0.347857 0
M  V30 3597 H 342.033 1.24555 -1.45459 0
M  V30 3598 H 340.338 3.80227 -0.94524 0
M  V30 3599 H 342.035 3.7809 -1.336 0
M  V30 3600 H 338.625 3.3309 -2.6972 0
M  V30 3601 H 342.809 3.33231 -3.67792 0
M  V30 3602 H 338.065 3.38703 -5.09009 0
M  V30 3603 H 342.239 3.4005 -6.07733 0
M  V30 3604 H 339.866 3.42342 -6.78753 0
M  V30 3605 N 341.441 0.965919 1.2453 0
M  V30 3606 C 342.69 0.622437 1.91856 0
M  V30 3607 C 343.003 -0.846006 1.76358 0
M  V30 3608 O 344.209 -1.29993 2.38357 0
M  V30 3609 C 342.665 1.0626 3.43856 0
M  V30 3610 C 342.273 2.55437 3.68043 0
M  V30 3611 C 344.017 0.792183 4.17043 0
M  V30 3612 C 341.924 2.93196 5.13605 0
M  V30 3613 H 340.854 0.229092 0.718354 0
M  V30 3614 H 343.505 1.17189 1.41206 0
M  V30 3615 H 341.887 0.441476 3.93531 0
M  V30 3616 H 343.061 3.22665 3.28974 0
M  V30 3617 H 341.376 2.8007 3.08139 0
M  V30 3618 H 343.973 1.05031 5.24283 0
M  V30 3619 H 344.316 -0.271584 4.15413 0
M  V30 3620 H 344.849 1.37419 3.73311 0
M  V30 3621 H 341.588 3.98636 5.20355 0
M  V30 3622 H 341.108 2.30651 5.53679 0
M  V30 3623 H 342.787 2.83004 5.81823 0
M  V30 3624 N 342.919 -1.39368 0.735821 0
M  V30 3625 C 344.196 -1.94465 0.210395 0
M  V30 3626 C 344.576 -1.67254 -1.28799 0
M  V30 3627 O 343.924 -1.00123 -2.05396 0
M  V30 3628 C 344.134 -3.4472 0.544897 0
M  V30 3629 C 345.482 -4.21708 0.494689 0
M  V30 3630 O 346.506 -3.52922 0.482136 0
M  V30 3631 O 345.365 -5.44299 0.489947 0
M  V30 3632 H 342.459 -0.826096 0.0386666 0
M  V30 3633 H 345.005 -1.48863 0.814735 0
M  V30 3634 H 343.777 -3.57963 1.58045 0
M  V30 3635 H 343.4 -3.97502 -0.08837 0
M  V30 3636 N 344.397 -0.483516 -1.5 0
M  V30 3637 C 345.644 0.0671597 -2.02389 0
M  V30 3638 C 345.972 1.38597 -1.36459 0
M  V30 3639 O 345.227 1.89634 -0.483458 0
M  V30 3640 C 345.526 0.286226 -3.56252 0
M  V30 3641 C 345.192 -0.952416 -4.40726 0
M  V30 3642 C 343.854 -1.29199 -4.63531 0
M  V30 3643 C 346.206 -1.77655 -4.89988 0
M  V30 3644 C 343.534 -2.45553 -5.32842 0
M  V30 3645 C 345.886 -2.93147 -5.60578 0
M  V30 3646 C 344.55 -3.27505 -5.81633 0
M  V30 3647 H 343.82 0.0245755 -0.740592 0
M  V30 3648 H 346.467 -0.640124 -1.80485 0
M  V30 3649 H 344.772 1.07587 -3.76739 0
M  V30 3650 H 346.469 0.726473 -3.94365 0
M  V30 3651 H 343.059 -0.677881 -4.23205 0
M  V30 3652 H 347.243 -1.52737 -4.72213 0
M  V30 3653 H 342.499 -2.72431 -5.47349 0
M  V30 3654 H 346.673 -3.57344 -5.97727 0
M  V30 3655 H 344.3 -4.1777 -6.35116 0
M  V30 3656 N 345.875 1.56104 -0.216619 0
M  V30 3657 C 347.286 1.844 0.292128 0
M  V30 3658 C 347.637 1.13788 1.59833 0
M  V30 3659 O 346.762 0.405888 2.12559 0
M  V30 3660 C 347.357 3.3452 0.53681 0
M  V30 3661 C 345.916 3.63151 0.989876 0
M  V30 3662 C 345.063 2.77255 0.0502302 0
M  V30 3663 H 348.014 1.52481 -0.439926 0
M  V30 3664 H 348.035 3.54459 1.38345 0
M  V30 3665 H 347.547 3.85885 -0.414031 0
M  V30 3666 H 345.648 3.17238 1.95425 0
M  V30 3667 H 345.761 4.71177 0.867698 0
M  V30 3668 H 344.125 2.48555 0.556117 0
M  V30 3669 H 344.908 3.31416 -0.89544 0
M  V30 3670 N 347.353 -0.0568162 1.57498 0
M  V30 3671 C 348.3 -1.06591 2.04712 0
M  V30 3672 C 349.27 -1.3758 0.930644 0
M  V30 3673 O 350.455 -1.48392 1.19935 0
M  V30 3674 C 347.595 -2.3701 2.50839 0
M  V30 3675 C 346.708 -2.12421 3.76167 0
M  V30 3676 C 345.843 -3.36511 4.11015 0
M  V30 3677 C 344.882 -3.07353 5.2934 0
M  V30 3678 N 344.019 -4.23816 5.59754 0
M  V30 3679 H 348.859 -0.65631 2.90683 0
M  V30 3680 H 346.396 -0.312481 1.43743 0
M  V30 3681 H 348.354 -3.13175 2.7564 0
M  V30 3682 H 346.984 -2.75744 1.67825 0
M  V30 3683 H 346.036 -1.2688 3.58616 0
M  V30 3684 H 347.348 -1.86894 4.62463 0
M  V30 3685 H 346.502 -4.21062 4.36797 0
M  V30 3686 H 345.241 -3.65128 3.23315 0
M  V30 3687 H 344.246 -2.212 5.03339 0
M  V30 3688 H 345.471 -2.80043 6.1867 0
M  V30 3689 H 343.417 -4.52436 4.75014 0
M  V30 3690 H 343.334 -4.01614 6.40501 0
M  V30 3691 H 344.602 -5.0932 5.90096 0
M  V30 3692 N 348.832 -1.54138 -0.328536 0
M  V30 3693 C 350.243 -1.63395 -0.903272 0
M  V30 3694 C 350.594 -0.524828 -1.8905 0
M  V30 3695 O 349.719 0.343068 -2.13663 0
M  V30 3696 C 350.314 -2.9618 -1.64507 0
M  V30 3697 C 348.873 -3.0765 -2.1686 0
M  V30 3698 C 348.02 -2.58933 -0.992416 0
M  V30 3699 H 350.971 -1.58344 -0.106253 0
M  V30 3700 H 350.992 -2.86061 -2.50897 0
M  V30 3701 H 350.504 -3.76884 -0.926302 0
M  V30 3702 H 348.605 -2.31611 -2.91868 0
M  V30 3703 H 348.718 -4.1337 -2.42202 0
M  V30 3704 H 347.082 -2.14706 -1.37016 0
M  V30 3705 H 347.865 -3.42089 -0.288041 0
M  V30 3706 N 350.31 0.590341 -1.46126 0
M  V30 3707 C 351.24 1.71032 -1.58966 0
M  V30 3708 C 352.221 1.64302 -0.440335 0
M  V30 3709 O 353.406 1.82436 -0.665634 0
M  V30 3710 C 350.536 3.09665 -1.57241 0
M  V30 3711 C 349.49 3.31221 -2.71066 0
M  V30 3712 C 348.816 4.70303 -2.54399 0
M  V30 3713 C 350.116 3.19796 -4.1295 0
M  V30 3714 H 351.81 1.60543 -2.52718 0
M  V30 3715 H 349.356 0.770933 -1.21625 0
M  V30 3716 H 351.309 3.87831 -1.64819 0
M  V30 3717 H 350.033 3.21036 -0.600289 0
M  V30 3718 H 348.692 2.55452 -2.62944 0
M  V30 3719 H 348.34 4.78429 -1.55288 0
M  V30 3720 H 348.04 4.85679 -3.30741 0
M  V30 3721 H 349.564 5.50647 -2.63857 0
M  V30 3722 H 350.978 3.87815 -4.22223 0
M  V30 3723 H 349.375 3.46696 -4.89818 0
M  V30 3724 H 350.445 2.16983 -4.33643 0
M  V30 3725 N 351.788 1.33704 0.83433 0
M  V30 3726 C 353.037 1.24763 1.58484 0
M  V30 3727 C 353.35 -0.183775 1.94735 0
M  V30 3728 O 354.556 -0.395234 2.68608 0
M  V30 3729 C 353.012 2.18638 2.85876 0
M  V30 3730 C 352.62 3.66974 2.56971 0
M  V30 3731 C 354.364 2.18581 3.63899 0
M  V30 3732 C 352.271 4.5275 3.80488 0
M  V30 3733 H 351.201 0.463425 0.594772 0
M  V30 3734 H 353.852 1.58797 0.919551 0
M  V30 3735 H 352.234 1.77542 3.5397 0
M  V30 3736 H 353.408 4.16538 1.9706 0
M  V30 3737 H 351.723 3.69366 1.92244 0
M  V30 3738 H 354.32 2.79894 4.55591 0
M  V30 3739 H 354.663 1.18207 3.99165 0
M  V30 3740 H 355.196 2.58062 3.02735 0
M  V30 3741 H 351.935 5.54017 3.5035 0
M  V30 3742 H 351.455 4.07927 4.39722 0
M  V30 3743 H 353.134 4.66784 4.4802 0
M  V30 3744 N 353.266 -1.05314 1.17247 0
M  V30 3745 C 354.229 -2.112 0.890357 0
M  V30 3746 C 355.229 -1.60359 -0.118943 0
M  V30 3747 O 356.419 -1.73833 0.113086 0
M  V30 3748 C 353.551 -3.39266 0.333422 0
M  V30 3749 H 354.744 -2.37659 1.82916 0
M  V30 3750 H 352.297 -1.21538 0.982758 0
M  V30 3751 H 353.032 -3.18462 -0.612587 0
M  V30 3752 H 352.817 -3.77477 1.06082 0
M  V30 3753 H 354.307 -4.17315 0.154322 0
M  V30 3754 N 354.744 -0.972509 -1.24016 0
M  V30 3755 C 355.99 -0.637978 -1.92504 0
M  V30 3756 C 356.323 0.825383 -1.75787 0
M  V30 3757 O 355.598 1.59442 -1.11393 0
M  V30 3758 C 355.881 -1.01942 -3.45369 0
M  V30 3759 C 355.734 -2.53983 -3.71231 0
M  V30 3760 C 357.053 -0.55751 -4.36555 0
M  V30 3761 H 354.172 -0.233248 -0.699117 0
M  V30 3762 H 356.814 -1.21238 -1.46292 0
M  V30 3763 H 354.964 -0.530656 -3.84859 0
M  V30 3764 H 356.636 -3.10374 -3.41271 0
M  V30 3765 H 354.879 -2.96968 -3.16216 0
M  V30 3766 H 355.55 -2.75723 -4.78206 0
M  V30 3767 H 358.026 -0.977029 -4.04467 0
M  V30 3768 H 356.902 -0.85292 -5.42233 0
M  V30 3769 H 357.163 0.542328 -4.38761 0
M  V30 3770 N 356.222 1.38976 -0.743202 0
M  V30 3771 C 357.468 2.0064 -0.295189 0
M  V30 3772 C 357.801 1.5885 1.11716 0
M  V30 3773 O 357.076 0.821181 1.76315 0
M  V30 3774 C 357.359 3.578 -0.406318 0
M  V30 3775 C 357.212 4.09586 -1.85903 0
M  V30 3776 C 358.531 4.39616 0.206439 0
M  V30 3777 H 355.65 0.728935 -0.108733 0
M  V30 3778 H 358.292 1.65067 -0.940897 0
M  V30 3779 H 356.442 3.88235 0.143419 0
M  V30 3780 H 358.114 3.89837 -2.46627 0
M  V30 3781 H 356.357 3.6284 -2.3776 0
M  V30 3782 H 357.028 5.18708 -1.888 0
M  V30 3783 H 359.504 4.15273 -0.262283 0
M  V30 3784 H 358.38 5.48812 0.0983819 0
M  V30 3785 H 358.641 4.22754 1.2935 0
M  V30 3786 N 357.7 0.491464 1.49741 0
M  V30 3787 C 358.648 -0.305837 2.30581 0
M  V30 3788 C 359.642 -0.971642 1.38764 0
M  V30 3789 O 360.848 -0.90042 1.5586 0
M  V30 3790 H 357.223 -0.117482 0.742767 0
M  V30 3791 H 359.194 0.396093 2.95759 0
M  V30 3792 C 357.943 -1.36319 3.19863 0
M  V30 3793 H 357.266 -0.860258 3.90435 0
M  V30 3794 H 358.706 -1.89323 3.79385 0
M  V30 3795 C 357.165 -2.37621 2.38826 0
M  V30 3796 O 357.695 -3.43311 2.08567 0
M  V30 3797 N 355.901 -2.09849 2.01026 0
M  V30 3798 H 355.448 -1.23922 2.25834 0
M  V30 3799 H 355.406 -2.77859 1.47112 0
M  V30 3800 N 359.178 -1.55987 0.224894 0
M  V30 3801 C 360.426 -1.97998 -0.405099 0
M  V30 3802 C 360.747 -1.11387 -1.60056 0
M  V30 3803 O 360.017 -0.191645 -1.9496 0
M  V30 3804 H 358.597 -0.731235 -0.152658 0
M  V30 3805 H 361.259 -1.92279 0.318567 0
M  V30 3806 H 360.355 -3.03463 -0.729167 0
M  V30 3807 N 360.656 0.0484629 -1.57525 0
M  V30 3808 C 362.067 0.597486 -1.76881 0
M  V30 3809 C 362.418 1.76664 -0.853475 0
M  V30 3810 O 361.543 2.16357 -0.0433656 0
M  V30 3811 C 362.138 1.09066 -3.20765 0
M  V30 3812 C 360.697 1.58535 -3.41385 0
M  V30 3813 C 359.844 0.514868 -2.72478 0
M  V30 3814 H 362.795 -0.177758 -1.57701 0
M  V30 3815 H 362.816 1.95875 -3.2621 0
M  V30 3816 H 362.328 0.239521 -3.8736 0
M  V30 3817 H 360.429 2.45898 -2.79937 0
M  V30 3818 H 360.542 1.64622 -4.49929 0
M  V30 3819 H 358.906 0.965407 -2.35695 0
M  V30 3820 H 359.689 -0.32648 -3.41744 0
M  V30 3821 N 362.134 1.5431 0.320358 0
M  V30 3822 C 363.097 1.83195 1.3774 0
M  V30 3823 C 364.097 0.703906 1.44575 0
M  V30 3824 O 365.287 0.972214 1.44546 0
M  V30 3825 C 362.419 1.99487 2.76438 0
M  V30 3826 H 363.612 2.77642 1.1338 0
M  V30 3827 H 361.165 1.46076 0.556012 0
M  V30 3828 H 361.9 1.07262 3.06048 0
M  V30 3829 H 361.685 2.81575 2.7287 0
M  V30 3830 H 363.175 2.23271 3.52902 0
M  V30 3831 N 363.613 -0.582584 1.46437 0
M  V30 3832 C 364.859 -1.34278 1.51978 0
M  V30 3833 C 365.192 -1.93446 0.170973 0
M  V30 3834 O 364.467 -1.76481 -0.817608 0
M  V30 3835 C 364.75 -2.47203 2.61845 0
M  V30 3836 C 364.603 -1.93069 4.06257 0
M  V30 3837 C 365.922 -3.49247 2.67795 0
M  V30 3838 H 363.041 -0.486876 0.553282 0
M  V30 3839 H 365.683 -0.654437 1.78374 0
M  V30 3840 H 363.833 -3.0592 2.39469 0
M  V30 3841 H 365.505 -1.38808 4.3992 0
M  V30 3842 H 363.748 -1.23898 4.1573 0
M  V30 3843 H 364.419 -2.74586 4.7886 0
M  V30 3844 H 366.895 -3.00411 2.8791 0
M  V30 3845 H 365.771 -4.25719 3.46489 0
M  V30 3846 H 366.032 -4.06482 1.73852 0
M  V30 3847 N 365.091 -1.34144 -0.827227 0
M  V30 3848 C 366.339 -1.26009 -1.58007 0
M  V30 3849 C 366.66 0.170971 -1.94249 0
M  V30 3850 O 365.93 1.10256 -1.61927 0
M  V30 3851 H 364.51 -0.463414 -0.585881 0
M  V30 3852 H 367.172 -1.68005 -0.987951 0
M  V30 3853 H 366.268 -1.86187 -2.50481 0
M  V30 3854 N 366.569 1.04691 -1.17803 0
M  V30 3855 C 367.818 1.77176 -0.963931 0
M  V30 3856 C 368.131 1.88888 0.508015 0
M  V30 3857 O 369.337 2.58164 0.840465 0
M  V30 3858 C 367.793 3.18518 -1.67555 0
M  V30 3859 C 367.401 3.14919 -3.18637 0
M  V30 3860 C 369.145 3.95424 -1.54402 0
M  V30 3861 C 367.052 4.51081 -3.82466 0
M  V30 3862 H 365.982 0.664116 -0.357023 0
M  V30 3863 H 368.633 1.17303 -1.4111 0
M  V30 3864 H 367.015 3.78748 -1.15613 0
M  V30 3865 H 368.189 2.64178 -3.77554 0
M  V30 3866 H 366.504 2.51512 -3.31859 0
M  V30 3867 H 369.101 4.96106 -1.99456 0
M  V30 3868 H 369.444 4.13343 -0.495329 0
M  V30 3869 H 369.977 3.41754 -2.0359 0
M  V30 3870 H 366.716 4.38368 -4.87354 0
M  V30 3871 H 366.236 5.01951 -3.28337 0
M  V30 3872 H 367.915 5.2001 -3.84965 0
M  V30 3873 N 368.047 0.979072 1.23499 0
M  V30 3874 C 369.272 0.664845 1.96455 0
M  V30 3875 C 369.697 -0.761287 1.72006 0
M  V30 3876 O 369.055 -1.51837 0.990713 0
M  V30 3877 C 369.103 0.959479 3.47601 0
M  V30 3878 O 368.207 0.0508168 4.12369 0
M  V30 3879 H 367.548 0.250185 0.615064 0
M  V30 3880 H 370.078 1.31231 1.5697 0
M  V30 3881 H 370.088 0.895642 3.98048 0
M  V30 3882 H 368.763 1.99876 3.64723 0
M  V30 3883 H 367.34 0.16895 3.72517 0
M  V30 3884 N 369.525 -1.3858 0.750561 0
M  V30 3885 C 370.771 -2.00481 0.305825 0
M  V30 3886 C 371.104 -1.5944 -1.10872 0
M  V30 3887 O 370.379 -0.83052 -1.75877 0
M  V30 3888 C 370.662 -3.5758 0.425287 0
M  V30 3889 C 370.515 -4.08594 1.88072 0
M  V30 3890 C 371.834 -4.39719 -0.183122 0
M  V30 3891 H 368.953 -0.728348 0.112598 0
M  V30 3892 H 371.595 -1.64566 0.949638 0
M  V30 3893 H 369.745 -3.88306 -0.122828 0
M  V30 3894 H 371.417 -3.88523 2.48691 0
M  V30 3895 H 369.66 -3.61574 2.39681 0
M  V30 3896 H 370.331 -5.177 1.91548 0
M  V30 3897 H 372.807 -4.15128 0.284303 0
M  V30 3898 H 371.683 -5.48856 -0.0692757 0
M  V30 3899 H 371.944 -4.23434 -1.27106 0
M  V30 3900 N 371.003 -0.499398 -1.49478 0
M  V30 3901 C 372.231 0.0425456 -2.06856 0
M  V30 3902 C 372.646 1.30964 -1.35992 0
M  V30 3903 O 372.003 1.77172 -0.437762 0
M  V30 3904 C 372.054 0.301735 -3.60239 0
M  V30 3905 O 371.775 -0.915127 -4.28436 0
M  V30 3906 C 373.276 0.887499 -4.34325 0
M  V30 3907 H 370.496 -0.0197482 -0.670709 0
M  V30 3908 H 373.04 -0.696297 -1.92281 0
M  V30 3909 H 371.195 0.990556 -3.74522 0
M  V30 3910 H 371.609 -0.676993 -5.20113 0
M  V30 3911 H 373.083 1.01845 -5.42523 0
M  V30 3912 H 373.56 1.88488 -3.96698 0
M  V30 3913 H 374.166 0.236196 -4.24644 0
M  V30 3914 N 372.481 1.55866 -0.233164 0
M  V30 3915 C 373.411 2.23783 0.666599 0
M  V30 3916 C 374.392 1.21343 1.19205 0
M  V30 3917 O 375.577 1.4996 1.23392 0
M  V30 3918 C 372.707 2.92671 1.86978 0
M  V30 3919 C 371.661 4.01682 1.47768 0
M  V30 3920 C 370.987 4.57926 2.76058 0
M  V30 3921 C 372.287 5.18126 0.658993 0
M  V30 3922 H 373.981 2.99232 0.100306 0
M  V30 3923 H 371.527 1.43924 0.046804 0
M  V30 3924 H 373.48 3.3888 2.50476 0
M  V30 3925 H 372.204 2.14688 2.46123 0
M  V30 3926 H 370.863 3.56222 0.866106 0
M  V30 3927 H 370.511 3.76659 3.33372 0
M  V30 3928 H 370.211 5.31505 2.50552 0
M  V30 3929 H 371.735 5.06859 3.40479 0
M  V30 3930 H 373.149 5.60644 1.19795 0
M  V30 3931 H 371.546 5.98009 0.500552 0
M  V30 3932 H 372.616 4.83763 -0.331856 0
M  V30 3933 N 373.959 -0.0401083 1.57549 0
M  V30 3934 C 374.889 -1.04384 2.08869 0
M  V30 3935 C 375.87 -1.38407 0.988817 0
M  V30 3936 O 377.055 -1.47483 1.26342 0
M  V30 3937 C 374.185 -2.34808 2.55895 0
M  V30 3938 C 373.139 -2.15057 3.70047 0
M  V30 3939 C 372.465 -3.51145 4.03239 0
M  V30 3940 C 373.765 -1.54576 4.98902 0
M  V30 3941 H 375.459 -0.616666 2.92981 0
M  V30 3942 H 373.005 -0.295184 1.40942 0
M  V30 3943 H 374.958 -3.05346 2.90417 0
M  V30 3944 H 373.682 -2.79565 1.68853 0
M  V30 3945 H 372.341 -1.46954 3.35857 0
M  V30 3946 H 371.989 -3.93529 3.13279 0
M  V30 3947 H 371.689 -3.38758 4.80122 0
M  V30 3948 H 373.213 -4.23062 4.40285 0
M  V30 3949 H 374.627 -2.15017 5.31451 0
M  V30 3950 H 373.024 -1.52796 5.80322 0
M  V30 3951 H 374.094 -0.51039 4.82206 0
M  V30 3952 N 375.437 -1.54477 -0.31217 0
M  V30 3953 C 376.685 -1.72884 -1.04668 0
M  V30 3954 C 377.006 -0.511477 -1.88173 0
M  V30 3955 O 376.276 0.474407 -1.90069 0
M  V30 3956 H 374.856 -0.637461 -0.389425 0
M  V30 3957 H 377.518 -1.91807 -0.345852 0
M  V30 3958 H 376.614 -2.61334 -1.70619 0
M  V30 3959 N 376.915 0.57481 -1.46744 0
M  V30 3960 C 377.845 1.69337 -1.60771 0
M  V30 3961 C 378.826 1.63825 -0.457736 0
M  V30 3962 O 380.011 1.8172 -0.684947 0
M  V30 3963 C 377.141 3.0798 -1.60517 0
M  V30 3964 C 376.095 3.28327 -2.74564 0
M  V30 3965 C 375.421 4.67578 -2.59373 0
M  V30 3966 C 376.721 3.15398 -4.16319 0
M  V30 3967 H 378.415 1.57853 -2.54407 0
M  V30 3968 H 375.961 0.75799 -1.22436 0
M  V30 3969 H 377.914 3.86061 -1.68923 0
M  V30 3970 H 376.638 3.20381 -0.634305 0
M  V30 3971 H 375.297 2.52649 -2.65639 0
M  V30 3972 H 374.945 4.76755 -1.60353 0
M  V30 3973 H 374.645 4.82144 -3.35873 0
M  V30 3974 H 376.169 5.47817 -2.69682 0
M  V30 3975 H 377.583 3.83315 -4.26313 0
M  V30 3976 H 375.98 3.41482 -4.93468 0
M  V30 3977 H 377.05 2.12372 -4.3592 0
M  V30 3978 N 378.394 1.34581 0.820102 0
M  V30 3979 C 379.641 1.27096 1.57648 0
M  V30 3980 C 379.969 -0.158317 1.93855 0
M  V30 3981 O 379.224 -1.12028 1.60463 0
M  V30 3982 C 379.523 2.10997 2.8847 0
M  V30 3983 C 379.189 3.59966 2.71543 0
M  V30 3984 C 377.851 4.00575 2.66634 0
M  V30 3985 C 380.203 4.54548 2.55021 0
M  V30 3986 C 377.531 5.33953 2.43128 0
M  V30 3987 C 379.883 5.88109 2.33047 0
M  V30 3988 C 378.547 6.27878 2.26552 0
M  V30 3989 H 377.817 0.465078 0.576874 0
M  V30 3990 H 380.464 1.6635 0.948671 0
M  V30 3991 H 378.769 1.6458 3.55557 0
M  V30 3992 H 380.466 2.0255 3.46084 0
M  V30 3993 H 377.056 3.27733 2.76205 0
M  V30 3994 H 381.24 4.24069 2.57835 0
M  V30 3995 H 376.496 5.63781 2.3656 0
M  V30 3996 H 380.67 6.60985 2.19251 0
M  V30 3997 H 378.297 7.31162 2.081 0
M  V30 3998 N 379.872 -1.04064 1.18357 0
M  V30 3999 C 381.149 -1.74252 0.888581 0
M  V30 4000 C 381.529 -2.02138 -0.60856 0
M  V30 4001 O 380.877 -1.66656 -1.56327 0
M  V30 4002 C 381.087 -3.0277 1.73584 0
M  V30 4003 C 382.435 -3.76506 1.96286 0
M  V30 4004 O 383.459 -3.12668 1.70637 0
M  V30 4005 O 382.318 -4.91243 2.39464 0
M  V30 4006 H 379.412 -0.758271 0.330082 0
M  V30 4007 H 381.958 -1.1013 1.2911 0
M  V30 4008 H 380.73 -2.78299 2.75073 0
M  V30 4009 H 380.353 -3.74631 1.33183 0
M  V30 4010 N 381.35 -0.985608 -1.22978 0
M  V30 4011 C 382.313 -0.535071 -2.22867 0
M  V30 4012 C 383.313 0.378123 -1.56291 0
M  V30 4013 O 384.503 0.171092 -1.73358 0
M  V30 4014 C 381.635 0.222702 -3.40172 0
M  V30 4015 H 382.828 -1.41835 -2.6424 0
M  V30 4016 H 380.381 -0.772042 -1.35901 0
M  V30 4017 H 381.116 1.12229 -3.04262 0
M  V30 4018 H 380.901 -0.43288 -3.89703 0
M  V30 4019 H 382.391 0.526335 -4.1427 0
M  V30 4020 N 382.828 1.3818 -0.7579 0
M  V30 4021 C 384.074 2.00316 -0.316453 0
M  V30 4022 C 384.407 1.60026 1.10025 0
M  V30 4023 O 383.682 0.839835 1.75434 0
M  V30 4024 C 383.965 3.57349 -0.444245 0
M  V30 4025 C 383.818 4.07591 -1.90236 0
M  V30 4026 C 385.137 4.3981 0.1598 0
M  V30 4027 H 382.256 0.727741 -0.116459 0
M  V30 4028 H 384.898 1.6406 -0.958352 0
M  V30 4029 H 383.048 3.88365 0.102233 0
M  V30 4030 H 384.72 3.87199 -2.50748 0
M  V30 4031 H 382.963 3.60297 -2.41595 0
M  V30 4032 H 383.634 5.16677 -1.94291 0
M  V30 4033 H 386.11 4.14971 -0.306314 0
M  V30 4034 H 384.986 5.48885 0.0401675 0
M  V30 4035 H 385.247 4.24102 1.24859 0
M  V30 4036 N 384.306 0.507319 1.49211 0
M  V30 4037 C 385.536 -0.0315292 2.06576 0
M  V30 4038 C 385.944 -1.30791 1.36713 0
M  V30 4039 O 385.287 -1.78324 0.441181 0
M  V30 4040 C 385.349 -0.349104 3.57801 0
M  V30 4041 C 385.013 0.830475 4.49391 0
M  V30 4042 C 386.01 1.72271 4.90529 0
M  V30 4043 C 383.695 1.03107 4.91604 0
M  V30 4044 C 385.689 2.79964 5.72625 0
M  V30 4045 C 383.376 2.11116 5.73475 0
M  V30 4046 C 384.374 2.99379 6.1389 0
M  V30 4047 O 384.062 4.05523 6.94123 0
M  V30 4048 H 383.794 0.0201002 0.675701 0
M  V30 4049 H 386.348 0.705737 1.92895 0
M  V30 4050 H 384.578 -1.14005 3.69513 0
M  V30 4051 H 386.267 -0.827319 3.97379 0
M  V30 4052 H 387.033 1.57958 4.58557 0
M  V30 4053 H 382.912 0.353417 4.59643 0
M  V30 4054 H 386.456 3.48884 6.04091 0
M  V30 4055 H 382.353 2.25421 6.0486 0
M  V30 4056 H 383.121 4.02953 7.1244 0
M  V30 4057 N 385.784 -1.5574 0.241426 0
M  V30 4058 C 386.747 -2.19877 -0.647063 0
M  V30 4059 C 387.747 -1.16642 -1.10686 0
M  V30 4060 O 388.937 -1.41757 -1.01245 0
M  V30 4061 C 386.069 -2.83797 -1.88871 0
M  V30 4062 H 387.262 -2.99772 -0.087574 0
M  V30 4063 H 384.815 -1.56298 -0.00813574 0
M  V30 4064 H 385.55 -2.07824 -2.48957 0
M  V30 4065 H 385.335 -3.59414 -1.56728 0
M  V30 4066 H 386.825 -3.32898 -2.52129 0
M  V30 4067 N 387.262 0.0317525 -1.57568 0
M  V30 4068 C 388.487 0.738664 -1.938 0
M  V30 4069 C 388.912 1.68242 -0.841208 0
M  V30 4070 O 388.27 1.80157 0.203267 0
M  V30 4071 C 388.318 1.47417 -3.29091 0
M  V30 4072 O 387.422 2.5872 -3.2115 0
M  V30 4073 H 386.763 0.198856 -0.633524 0
M  V30 4074 H 389.293 -0.0119713 -2.04596 0
M  V30 4075 H 389.303 1.84468 -3.63917 0
M  V30 4076 H 387.978 0.781988 -4.08482 0
M  V30 4077 H 386.555 2.24231 -2.97951 0
M  V30 4078 N 388.74 1.54641 0.303973 0
M  V30 4079 C 390.017 1.64455 1.05896 0
M  V30 4080 C 390.397 0.490923 2.05312 0
M  V30 4081 O 389.745 -0.512685 2.22674 0
M  V30 4082 C 389.955 3.02331 1.74347 0
M  V30 4083 C 391.303 3.59045 2.26653 0
M  V30 4084 O 392.327 3.04764 1.84384 0
M  V30 4085 O 391.186 4.54081 3.04093 0
M  V30 4086 H 388.28 0.666729 0.489287 0
M  V30 4087 H 390.826 1.66986 0.302298 0
M  V30 4088 H 389.598 3.77734 1.02142 0
M  V30 4089 H 389.221 3.03565 2.56777 0
M  V30 4090 N 390.218 -0.567019 1.47046 0
M  V30 4091 C 391.634 -0.891975 1.32348 0
M  V30 4092 C 391.834 -1.99154 0.306616 0
M  V30 4093 O 390.89 -2.50883 -0.28532 0
M  V30 4094 C 392.203 -1.29449 2.7141 0
M  V30 4095 C 393.751 -1.40646 2.79621 0
M  V30 4096 C 394.226 -1.84257 4.19301 0
M  V30 4097 N 395.717 -1.91424 4.21795 0
M  V30 4098 C 396.452 -2.26476 5.26779 0
M  V30 4099 N 395.948 -2.60211 6.42077 0
M  V30 4100 N 397.741 -2.27166 5.14152 0
M  V30 4101 H 389.892 0.159074 2.11803 0
M  V30 4102 H 392.155 0.00849752 0.947962 0
M  V30 4103 H 391.861 -0.560448 3.47206 0
M  V30 4104 H 391.735 -2.25273 3.02542 0
M  V30 4105 H 394.122 -2.13133 2.04104 0
M  V30 4106 H 394.203 -0.430339 2.52154 0
M  V30 4107 H 393.847 -1.12343 4.95319 0
M  V30 4108 H 393.777 -2.82855 4.44185 0
M  V30 4109 H 396.268 -1.6778 3.38612 0
M  V30 4110 H 396.581 -2.85956 7.17948 0
M  V30 4111 H 394.926 -2.57813 6.45413 0
M  V30 4112 H 398.117 -2.00244 4.23107 0
M  V30 4113 H 398.29 -2.54154 5.96079 0
M  V30 4114 N 391.696 -1.35014 -0.812953 0
M  V30 4115 C 392.659 -1.27292 -1.90602 0
M  V30 4116 C 393.659 -0.185817 -1.59723 0
M  V30 4117 O 394.849 -0.439102 -1.68575 0
M  V30 4118 C 391.981 -0.967676 -3.26877 0
M  V30 4119 H 393.174 -2.24479 -1.9887 0
M  V30 4120 H 390.727 -1.19446 -1.00808 0
M  V30 4121 H 391.462 0.0005954 -3.243 0
M  V30 4122 H 391.247 -1.75412 -3.50675 0
M  V30 4123 H 392.737 -0.939085 -4.06904 0
M  V30 4124 N 393.175 1.03435 -1.18907 0
M  V30 4125 C 394.403 1.80381 -1.01342 0
M  V30 4126 C 394.818 1.83649 0.438005 0
M  V30 4127 O 394.175 1.27655 1.30424 0
M  V30 4128 C 394.226 3.25689 -1.56873 0
M  V30 4129 O 393.947 3.22673 -2.96334 0
M  V30 4130 C 395.448 4.19255 -1.44014 0
M  V30 4131 H 392.668 0.56784 -0.35749 0
M  V30 4132 H 395.212 1.30317 -1.576 0
M  V30 4133 H 393.367 3.72962 -1.04777 0
M  V30 4134 H 393.781 4.13748 -3.22355 0
M  V30 4135 H 395.255 5.19123 -1.87657 0
M  V30 4136 H 395.732 4.37467 -0.389815 0
M  V30 4137 H 396.338 3.77851 -1.95214 0
M  V30 4138 N 394.653 0.992116 1.22453 0
M  V30 4139 C 395.9 0.667534 1.91181 0
M  V30 4140 C 396.228 -0.800317 1.77271 0
M  V30 4141 O 395.483 -1.59421 1.13505 0
M  V30 4142 C 395.782 1.01832 3.42586 0
M  V30 4143 C 395.448 2.47831 3.76684 0
M  V30 4144 C 394.11 2.87729 3.85701 0
M  V30 4145 C 396.462 3.42466 3.92895 0
M  V30 4146 C 393.79 4.21252 4.08367 0
M  V30 4147 C 396.142 4.75648 4.17064 0
M  V30 4148 C 394.806 5.15288 4.24305 0
M  V30 4149 H 394.076 0.244268 0.699581 0
M  V30 4150 H 396.723 1.24816 1.45235 0
M  V30 4151 H 395.028 0.355769 3.90181 0
M  V30 4152 H 396.725 0.745228 3.94014 0
M  V30 4153 H 393.315 2.15905 3.70247 0
M  V30 4154 H 397.499 3.12814 3.85307 0
M  V30 4155 H 392.755 4.51554 4.122 0
M  V30 4156 H 396.929 5.48924 4.2855 0
M  V30 4157 H 394.556 6.18769 4.41621 0
M  V30 4158 N 396.131 -1.37776 0.765217 0
M  V30 4159 C 397.081 -2.2768 0.12075 0
M  V30 4160 C 398.065 -1.45778 -0.680988 0
M  V30 4161 O 399.257 -1.684 -0.545033 0
M  V30 4162 C 396.386 -3.34722 -0.762626 0
M  V30 4163 C 395.472 -4.24074 0.0465881 0
M  V30 4164 N 395.863 -4.93939 1.08892 0
M  V30 4165 C 394.161 -4.45643 -0.178418 0
M  V30 4166 C 394.862 -5.59845 1.57951 0
M  V30 4167 N 393.838 -5.36218 0.892797 0
M  V30 4168 H 397.64 -2.79166 0.918889 0
M  V30 4169 H 395.154 -1.50816 0.602353 0
M  V30 4170 H 397.151 -3.98031 -1.24005 0
M  V30 4171 H 395.811 -2.84793 -1.55959 0
M  V30 4172 H 396.822 -4.96572 1.47095 0
M  V30 4173 H 393.499 -4.06599 -0.9478 0
M  V30 4174 H 394.889 -6.25703 2.44838 0
M  V30 4175 N 397.609 -0.515225 -1.4894 0
M  V30 4176 C 398.837 0.0206034 -2.0689 0
M  V30 4177 C 399.252 1.29514 -1.37374 0
M  V30 4178 O 398.609 1.76698 -0.456529 0
M  V30 4179 C 398.66 0.26351 -3.60538 0
M  V30 4180 O 398.381 -0.960517 -4.27441 0
M  V30 4181 C 399.882 0.841383 -4.35242 0
M  V30 4182 H 397.102 -0.0268608 -0.670462 0
M  V30 4183 H 399.646 -0.716651 -1.91532 0
M  V30 4184 H 397.801 0.950777 -3.75552 0
M  V30 4185 H 398.215 -0.73212 -5.19365 0
M  V30 4186 H 399.689 0.96085 -5.43573 0
M  V30 4187 H 400.166 1.8427 -3.98674 0
M  V30 4188 H 400.772 0.191143 -4.2487 0
M  V30 4189 N 399.087 1.5561 -0.249682 0
M  V30 4190 C 400.498 1.84979 0.252949 0
M  V30 4191 C 400.849 1.17153 1.57384 0
M  V30 4192 O 399.974 0.450884 2.11651 0
M  V30 4193 C 400.569 3.35584 0.465732 0
M  V30 4194 C 399.128 3.65169 0.912624 0
M  V30 4195 C 398.275 2.77299 -0.00859085 0
M  V30 4196 H 401.226 1.51513 -0.47217 0
M  V30 4197 H 401.247 3.57313 1.30795 0
M  V30 4198 H 400.759 3.8492 -0.49579 0
M  V30 4199 H 398.86 3.21312 1.88652 0
M  V30 4200 H 398.973 4.72912 0.767559 0
M  V30 4201 H 397.337 2.49678 0.50327 0
M  V30 4202 H 398.12 3.29442 -0.965537 0
M  V30 4203 N 400.565 -0.0233959 1.57583 0
M  V30 4204 C 401.812 -0.713063 1.8953 0
M  V30 4205 C 402.14 -1.75056 0.847673 0
M  V30 4206 O 401.395 -1.95119 -0.150636 0
M  V30 4207 C 401.694 -1.41428 3.28227 0
M  V30 4208 C 401.36 -0.512222 4.47981 0
M  V30 4209 C 400.022 -0.263785 4.80476 0
M  V30 4210 C 402.374 0.110248 5.21083 0
M  V30 4211 C 399.702 0.615804 5.83459 0
M  V30 4212 C 402.054 0.977573 6.25001 0
M  V30 4213 C 400.718 1.23542 6.55968 0
M  V30 4214 H 399.988 -0.260928 0.69354 0
M  V30 4215 H 402.635 0.0271047 1.91481 0
M  V30 4216 H 400.94 -2.22791 3.22291 0
M  V30 4217 H 402.637 -1.95355 3.50196 0
M  V30 4218 H 399.227 -0.716013 4.22577 0
M  V30 4219 H 403.411 -0.0687137 4.96252 0
M  V30 4220 H 398.667 0.82382 6.05824 0
M  V30 4221 H 402.841 1.46638 6.80786 0
M  V30 4222 H 400.468 1.91871 7.35588 0
M  V30 4223 N 402.043 -1.548 -0.295768 0
M  V30 4224 C 403.268 -1.78653 -1.05346 0
M  V30 4225 C 403.693 -0.546894 -1.79974 0
M  V30 4226 O 403.051 0.502763 -1.7419 0
M  V30 4227 C 403.099 -2.99679 -2.00561 0
M  V30 4228 O 402.203 -2.7317 -3.08953 0
M  V30 4229 H 401.544 -0.59116 -0.302367 0
M  V30 4230 H 404.074 -2.01895 -0.331598 0
M  V30 4231 H 404.084 -3.27793 -2.42932 0
M  V30 4232 H 402.759 -3.89562 -1.4565 0
M  V30 4233 H 401.336 -2.56089 -2.71059 0
M  V30 4234 N 403.521 0.559213 -1.47345 0
M  V30 4235 C 404.471 1.66192 -1.5609 0
M  V30 4236 C 405.455 1.55323 -0.419957 0
M  V30 4237 O 406.647 1.63839 -0.669762 0
M  V30 4238 C 403.776 3.0497 -1.57634 0
M  V30 4239 C 402.862 3.2105 -2.77106 0
M  V30 4240 N 403.253 3.07203 -4.01821 0
M  V30 4241 C 401.551 3.52046 -2.73825 0
M  V30 4242 C 402.252 3.25919 -4.81821 0
M  V30 4243 N 401.228 3.52161 -4.14106 0
M  V30 4244 H 405.03 1.54052 -2.5029 0
M  V30 4245 H 402.544 0.763914 -1.43311 0
M  V30 4246 H 404.541 3.84142 -1.61989 0
M  V30 4247 H 403.201 3.18224 -0.645281 0
M  V30 4248 H 404.212 2.84572 -4.32711 0
M  V30 4249 H 400.889 3.71839 -1.89848 0
M  V30 4250 H 402.279 3.20198 -5.90697 0
M  V30 4251 N 404.999 1.35443 0.805782 0
M  V30 4252 C 405.929 1.31095 1.93226 0
M  V30 4253 C 406.91 0.185244 1.69088 0
M  V30 4254 O 408.095 0.380332 1.90439 0
M  V30 4255 C 405.225 1.08299 3.29983 0
M  V30 4256 C 404.179 2.17519 3.68605 0
M  V30 4257 C 403.505 1.79887 5.03532 0
M  V30 4258 C 404.805 3.5949 3.78898 0
M  V30 4259 H 406.499 2.25352 1.97122 0
M  V30 4260 H 404.045 1.0848 0.946996 0
M  V30 4261 H 405.998 1.03897 4.08391 0
M  V30 4262 H 404.722 0.104885 3.26432 0
M  V30 4263 H 403.381 2.2102 2.92482 0
M  V30 4264 H 403.029 0.80693 4.96485 0
M  V30 4265 H 402.729 2.53001 5.30344 0
M  V30 4266 H 404.253 1.77011 5.84379 0
M  V30 4267 H 405.667 3.58307 4.47536 0
M  V30 4268 H 404.064 4.31371 4.1718 0
M  V30 4269 H 405.134 3.95584 2.80431 0
M  V30 4270 N 406.477 -1.02803 1.19454 0
M  V30 4271 C 407.725 -1.75869 0.995722 0
M  V30 4272 C 408.046 -1.89138 -0.474543 0
M  V30 4273 O 407.316 -1.42558 -1.34366 0
M  V30 4274 H 405.896 -0.651511 0.365435 0
M  V30 4275 H 408.558 -1.24004 1.50363 0
M  V30 4276 H 407.654 -2.76661 1.44447 0
M  V30 4277 N 407.956 -0.998596 -1.21925 0
M  V30 4278 C 408.888 -0.511879 -2.23411 0
M  V30 4279 C 409.901 0.396094 -1.57908 0
M  V30 4280 O 411.09 0.197316 -1.77406 0
M  V30 4281 C 408.19 0.276802 -3.37768 0
M  V30 4282 C 407.363 -0.628687 -4.32858 0
M  V30 4283 C 406.422 0.109272 -5.26087 0
M  V30 4284 O 405.448 -0.507237 -5.66935 0
M  V30 4285 N 406.65 1.38983 -5.63617 0
M  V30 4286 H 409.415 -1.38457 -2.658 0
M  V30 4287 H 406.976 -0.873981 -1.36283 0
M  V30 4288 H 408.968 0.77928 -3.97126 0
M  V30 4289 H 407.538 1.05063 -2.94415 0
M  V30 4290 H 406.758 -1.31175 -3.71735 0
M  V30 4291 H 408.046 -1.24514 -4.93329 0
M  V30 4292 H 407.444 1.91194 -5.32411 0
M  V30 4293 H 406.001 1.83739 -6.25367 0
M  V30 4294 N 409.434 1.37368 -0.772513 0
M  V30 4295 C 410.659 2.0447 -0.347386 0
M  V30 4296 C 411.084 1.57882 1.0225 0
M  V30 4297 O 410.442 0.73941 1.65537 0
M  V30 4298 C 410.49 3.58369 -0.400479 0
M  V30 4299 O 409.594 4.0803 0.598789 0
M  V30 4300 H 408.935 0.646773 -0.15027 0
M  V30 4301 H 411.465 1.75667 -1.04892 0
M  V30 4302 H 411.475 4.07183 -0.258045 0
M  V30 4303 H 410.15 3.91633 -1.39986 0
M  V30 4304 H 408.727 3.70534 0.419411 0
M  V30 4305 N 410.912 0.523116 1.48665 0
M  V30 4306 C 412.323 0.0808997 1.86525 0
M  V30 4307 C 412.674 -1.33975 1.43336 0
M  V30 4308 O 411.799 -2.00221 0.821009 0
M  V30 4309 C 412.394 0.140037 3.3851 0
M  V30 4310 C 410.953 -0.246948 3.75589 0
M  V30 4311 C 410.1 0.502845 2.72703 0
M  V30 4312 H 413.051 0.734736 1.40667 0
M  V30 4313 H 413.072 -0.649945 3.74908 0
M  V30 4314 H 412.584 1.17412 3.69914 0
M  V30 4315 H 410.685 -1.28343 3.49798 0
M  V30 4316 H 410.798 0.0878859 4.79019 0
M  V30 4317 H 409.162 -0.0500581 2.54651 0
M  V30 4318 H 409.945 1.53743 3.0695 0
M  V30 4319 N 412.39 -1.55475 0.257931 0
M  V30 4320 C 413.3 -2.2549 -0.647425 0
M  V30 4321 C 414.316 -1.2748 -1.18427 0
M  V30 4322 O 415.492 -1.6038 -1.2182 0
M  V30 4323 C 412.557 -2.94916 -1.82278 0
M  V30 4324 C 411.618 -4.08363 -1.32432 0
M  V30 4325 C 410.851 -4.74469 -2.44366 0
M  V30 4326 O 411.074 -4.39701 -3.63344 0
M  V30 4327 O 410.008 -5.62763 -2.13497 0
M  V30 4328 H 413.834 -3.03593 -0.0807707 0
M  V30 4329 H 411.419 -1.49377 0.0259962 0
M  V30 4330 H 413.301 -3.38606 -2.50846 0
M  V30 4331 H 411.976 -2.19744 -2.37685 0
M  V30 4332 H 410.883 -3.69166 -0.605605 0
M  V30 4333 H 412.216 -4.85385 -0.816211 0
M  V30 4334 N 413.868 0.0150385 -1.57593 0
M  V30 4335 C 415.116 0.701613 -1.8953 0
M  V30 4336 C 415.437 1.75139 -0.857396 0
M  V30 4337 O 414.707 1.95607 0.107194 0
M  V30 4338 H 413.287 0.26213 -0.699498 0
M  V30 4339 H 415.949 -0.0223304 -1.94887 0
M  V30 4340 H 415.045 1.18236 -2.88837 0
M  V30 4341 N 415.346 1.54954 0.287554 0
M  V30 4342 C 416.586 1.76617 1.02887 0
M  V30 4343 C 416.95 0.547759 1.84021 0
M  V30 4344 O 418.151 0.642365 2.61012 0
M  V30 4345 C 416.422 3.02717 1.89993 0
M  V30 4346 S 417.981 3.45438 2.70588 0
M  V30 4347 H 414.799 0.6207 0.346775 0
M  V30 4348 H 417.401 1.93172 0.30082 0
M  V30 4349 H 416.105 3.89503 1.29287 0
M  V30 4350 H 415.636 2.88787 2.67144 0
M  V30 4351 H 417.651 3.03566 3.92508 0
M  V30 4352 N 416.824 -0.551391 1.4764 0
M  V30 4353 C 418.049 -1.33837 1.58437 0
M  V30 4354 C 418.474 -1.866 0.237063 0
M  V30 4355 O 417.832 -1.6328 -0.787994 0
M  V30 4356 C 417.88 -2.48014 2.61766 0
M  V30 4357 O 416.984 -3.50419 2.1744 0
M  V30 4358 H 416.325 -0.397299 0.532024 0
M  V30 4359 H 418.855 -0.665759 1.93465 0
M  V30 4360 H 418.865 -2.94503 2.82369 0
M  V30 4361 H 417.54 -2.08969 3.5959 0
M  V30 4362 H 416.117 -3.10196 2.06961 0
M  V30 4363 N 418.302 -1.35869 -0.798587 0
M  V30 4364 C 419.527 -1.32883 -1.59238 0
M  V30 4365 C 419.952 0.0894587 -1.87887 0
M  V30 4366 O 419.31 1.05869 -1.47178 0
M  V30 4367 C 419.358 -2.14892 -2.89575 0
M  V30 4368 O 418.462 -1.53512 -3.82763 0
M  V30 4369 H 417.803 -0.455236 -0.48338 0
M  V30 4370 H 420.333 -1.79024 -0.990539 0
M  V30 4371 H 420.343 -2.27139 -3.38928 0
M  V30 4372 H 419.018 -3.17998 -2.68049 0
M  V30 4373 H 417.595 -1.50153 -3.41334 0
M  V30 4374 N 419.78 1.02168 -1.19998 0
M  V30 4375 C 421.01 1.79036 -1.031 0
M  V30 4376 C 421.418 1.84409 0.423078 0
M  V30 4377 O 420.761 1.29228 1.30559 0
M  V30 4378 C 420.823 3.25185 -1.53281 0
M  V30 4379 C 420.487 3.43431 -3.01503 0
M  V30 4380 C 421.484 3.33063 -3.99206 0
M  V30 4381 C 419.169 3.69412 -3.40353 0
M  V30 4382 C 421.163 3.48413 -5.33748 0
M  V30 4383 C 418.85 3.84406 -4.75053 0
M  V30 4384 C 419.848 3.7391 -5.71559 0
M  V30 4385 O 419.536 3.88452 -7.03818 0
M  V30 4386 H 419.268 0.570043 -0.363355 0
M  V30 4387 H 421.822 1.29524 -1.59414 0
M  V30 4388 H 420.052 3.75756 -0.913483 0
M  V30 4389 H 421.741 3.83671 -1.32481 0
M  V30 4390 H 422.507 3.12934 -3.70537 0
M  V30 4391 H 418.386 3.76671 -2.65782 0
M  V30 4392 H 421.93 3.40137 -6.09059 0
M  V30 4393 H 417.827 4.04035 -5.03415 0
M  V30 4394 H 418.595 4.055 -7.10993 0
M  V30 4395 N 421.258 1.00505 1.21394 0
M  V30 4396 C 422.486 0.706609 1.9446 0
M  V30 4397 C 422.901 -0.73081 1.74082 0
M  V30 4398 O 422.258 -1.49446 1.04747 0
M  V30 4399 C 422.309 1.01824 3.46863 0
M  V30 4400 O 422.03 2.39919 3.66566 0
M  V30 4401 C 423.531 0.739216 4.37093 0
M  V30 4402 H 420.751 0.260394 0.618414 0
M  V30 4403 H 423.295 1.34311 1.54211 0
M  V30 4404 H 421.45 0.427343 3.85036 0
M  V30 4405 H 421.864 2.50784 4.6066 0
M  V30 4406 H 423.338 1.00744 5.42729 0
M  V30 4407 H 423.815 -0.326746 4.37983 0
M  V30 4408 H 424.421 1.31173 4.04566 0
M  V30 4409 N 422.737 -1.36956 0.779787 0
M  V30 4410 C 423.984 -1.99491 0.347766 0
M  V30 4411 C 424.312 -1.61898 -1.07793 0
M  V30 4412 O 423.567 -0.86071 -1.75756 0
M  V30 4413 C 423.866 -3.54585 0.447686 0
M  V30 4414 C 423.532 -4.1197 1.83279 0
M  V30 4415 C 422.194 -4.27356 2.2118 0
M  V30 4416 C 424.546 -4.43354 2.74019 0
M  V30 4417 C 421.874 -4.71432 3.4924 0
M  V30 4418 C 424.226 -4.88858 4.01497 0
M  V30 4419 C 422.89 -5.0245 4.39432 0
M  V30 4420 H 422.16 -0.729991 0.127257 0
M  V30 4421 H 424.807 -1.63599 0.995376 0
M  V30 4422 H 423.112 -3.90773 -0.283447 0
M  V30 4423 H 424.809 -4.00888 0.0945948 0
M  V30 4424 H 421.399 -4.00428 1.52825 0
M  V30 4425 H 425.583 -4.31045 2.45995 0
M  V30 4426 H 420.839 -4.80141 3.78516 0
M  V30 4427 H 425.013 -5.12108 4.71931 0
M  V30 4428 H 422.64 -5.36362 5.38721 0
M  V30 4429 N 424.215 -0.530993 -1.48385 0
M  V30 4430 C 425.626 -0.0907905 -1.86479 0
M  V30 4431 C 425.977 1.33213 -1.44044 0
M  V30 4432 O 425.102 1.99783 -0.831615 0
M  V30 4433 C 425.697 -0.157987 -3.38431 0
M  V30 4434 C 424.256 0.227026 -3.75715 0
M  V30 4435 C 423.403 -0.5173 -2.72432 0
M  V30 4436 H 426.354 -0.742186 -1.40276 0
M  V30 4437 H 426.375 0.630053 -3.75247 0
M  V30 4438 H 425.887 -1.19372 -3.69286 0
M  V30 4439 H 423.988 1.26486 -3.50474 0
M  V30 4440 H 424.101 -0.113288 -4.78966 0
M  V30 4441 H 422.465 0.0365527 -2.54674 0
M  V30 4442 H 423.248 -1.55368 -3.0613 0
M  V30 4443 N 425.693 1.55336 -0.266172 0
M  V30 4444 C 426.64 2.22172 0.625165 0
M  V30 4445 C 427.61 1.19211 1.15663 0
M  V30 4446 O 428.795 1.47723 1.20758 0
M  V30 4447 C 425.935 2.93972 1.8076 0
M  V30 4448 C 425.048 4.11632 1.31084 0
M  V30 4449 C 424.183 4.71099 2.45436 0
M  V30 4450 C 423.222 5.8097 1.92718 0
M  V30 4451 N 422.359 6.34538 3.00509 0
M  V30 4452 H 427.199 2.9796 0.0485582 0
M  V30 4453 H 424.736 1.47095 0.0122024 0
M  V30 4454 H 426.694 3.33811 2.50251 0
M  V30 4455 H 425.324 2.20623 2.35638 0
M  V30 4456 H 424.376 3.76975 0.509326 0
M  V30 4457 H 425.688 4.90893 0.884633 0
M  V30 4458 H 424.842 5.13612 3.22936 0
M  V30 4459 H 423.581 3.91096 2.91368 0
M  V30 4460 H 422.586 5.37916 1.13695 0
M  V30 4461 H 423.811 6.62836 1.47733 0
M  V30 4462 H 421.757 5.57433 3.45839 0
M  V30 4463 H 421.674 7.09046 2.62279 0
M  V30 4464 H 422.942 6.81709 3.78011 0
M  V30 4465 N 427.171 -0.0066808 1.57599 0
M  V30 4466 C 428.42 -0.692078 1.89455 0
M  V30 4467 C 428.733 -1.75306 0.867586 0
M  V30 4468 O 429.939 -2.49262 1.07614 0
M  V30 4469 C 428.395 -1.2821 3.36289 0
M  V30 4470 C 428.003 -0.256291 4.47266 0
M  V30 4471 C 429.747 -1.94608 3.77264 0
M  V30 4472 C 427.654 -0.855927 5.85173 0
M  V30 4473 H 426.584 -0.262252 0.706923 0
M  V30 4474 H 429.235 0.052769 1.83424 0
M  V30 4475 H 427.617 -2.0774 3.37135 0
M  V30 4476 H 428.791 0.513923 4.57925 0
M  V30 4477 H 427.106 0.306862 4.15268 0
M  V30 4478 H 429.703 -2.40364 4.77629 0
M  V30 4479 H 430.046 -2.77382 3.10427 0
M  V30 4480 H 430.579 -1.21822 3.78688 0
M  V30 4481 H 427.318 -0.0671161 6.55466 0
M  V30 4482 H 426.838 -1.59546 5.78191 0
M  V30 4483 H 428.517 -1.35658 6.32618 0
M  V30 4484 N 428.649 -1.55105 -0.279332 0
M  V30 4485 C 429.582 -1.82467 -1.37044 0
M  V30 4486 C 430.56 -0.677261 -1.47824 0
M  V30 4487 O 431.744 -0.919578 -1.64548 0
M  V30 4488 C 428.871 -1.98066 -2.7475 0
M  V30 4489 C 427.917 -3.20594 -2.81286 0
M  V30 4490 S 428.75 -4.78116 -2.41175 0
M  V30 4491 C 429.906 -4.9668 -3.80867 0
M  V30 4492 H 430.139 -2.74728 -1.1363 0
M  V30 4493 H 427.672 -1.46794 -0.478625 0
M  V30 4494 H 429.63 -2.07739 -3.54055 0
M  V30 4495 H 428.291 -1.06704 -2.9542 0
M  V30 4496 H 427.484 -3.28376 -3.82341 0
M  V30 4497 H 427.086 -3.09479 -2.09996 0
M  V30 4498 H 429.378 -4.82033 -4.76078 0
M  V30 4499 H 430.321 -5.98741 -3.78041 0
M  V30 4500 H 430.729 -4.24698 -3.71876 0
M  V30 4501 N 430.127 0.543554 -1.4793 0
M  V30 4502 C 431.352 1.32995 -1.59145 0
M  V30 4503 C 431.777 1.86472 -0.246956 0
M  V30 4504 O 431.135 1.63696 0.779324 0
M  V30 4505 C 431.183 2.46623 -2.63077 0
M  V30 4506 O 430.287 3.49261 -2.19295 0
M  V30 4507 H 429.628 0.394472 -0.534124 0
M  V30 4508 H 432.158 0.655489 -1.93816 0
M  V30 4509 H 432.168 2.93001 -2.83926 0
M  V30 4510 H 430.843 2.07059 -3.60693 0
M  V30 4511 H 429.42 3.09094 -2.08603 0
M  V30 4512 N 431.605 1.3629 0.791371 0
M  V30 4513 C 433.016 1.27225 1.36641 0
M  V30 4514 C 433.367 -0.0887968 1.95999 0
M  V30 4515 O 432.492 -0.990207 1.92416 0
M  V30 4516 C 433.087 2.30375 2.48421 0
M  V30 4517 C 431.646 2.25004 3.01746 0
M  V30 4518 C 430.793 2.15259 1.7481 0
M  V30 4519 H 433.744 1.47198 0.593173 0
M  V30 4520 H 433.765 1.93905 3.27385 0
M  V30 4521 H 433.277 3.29422 2.05189 0
M  V30 4522 H 431.378 1.29417 3.49403 0
M  V30 4523 H 431.491 3.1761 3.58693 0
M  V30 4524 H 429.855 1.61482 1.96966 0
M  V30 4525 H 430.638 3.16191 1.33709 0
M  V30 4526 N 433.083 -1.0153 1.20538 0
M  V30 4527 C 434.046 -2.0826 0.957098 0
M  V30 4528 C 435.046 -1.60657 -0.0678655 0
M  V30 4529 O 436.236 -1.73385 0.168332 0
M  V30 4530 C 433.368 -3.38033 0.441188 0
M  V30 4531 H 434.561 -2.31719 1.90384 0
M  V30 4532 H 432.114 -1.1835 1.02093 0
M  V30 4533 H 432.849 -3.20249 -0.510961 0
M  V30 4534 H 432.634 -3.73911 1.18038 0
M  V30 4535 H 434.124 -4.16613 0.287009 0
M  V30 4536 N 434.561 -1.01147 -1.20859 0
M  V30 4537 C 435.508 -0.577354 -2.23462 0
M  V30 4538 C 436.478 0.399922 -1.61214 0
M  V30 4539 O 437.663 0.300515 -1.88419 0
M  V30 4540 C 434.803 0.083372 -3.44999 0
M  V30 4541 C 433.916 -0.937856 -4.21697 0
M  V30 4542 C 433.051 -0.248717 -5.30617 0
M  V30 4543 C 432.09 -1.25705 -5.99053 0
M  V30 4544 N 431.227 -0.594939 -6.99575 0
M  V30 4545 H 436.067 -1.45695 -2.59956 0
M  V30 4546 H 433.604 -0.729428 -1.27741 0
M  V30 4547 H 435.562 0.483535 -4.14388 0
M  V30 4548 H 434.192 0.926645 -3.09214 0
M  V30 4549 H 433.244 -1.45622 -3.51423 0
M  V30 4550 H 434.556 -1.70493 -4.68757 0
M  V30 4551 H 433.71 0.207215 -6.06346 0
M  V30 4552 H 432.449 0.55071 -4.84581 0
M  V30 4553 H 431.454 -1.72343 -5.2209 0
M  V30 4554 H 432.679 -2.05767 -6.47176 0
M  V30 4555 H 430.625 0.184713 -6.5574 0
M  V30 4556 H 430.542 -1.30017 -7.44736 0
M  V30 4557 H 431.81 -0.162427 -7.79331 0
M  V30 4558 N 436.039 1.36541 -0.78704 0
M  V30 4559 C 437.002 2.28413 -0.189778 0
M  V30 4560 C 438.002 1.48719 0.611499 0
M  V30 4561 O 439.192 1.68737 0.432842 0
M  V30 4562 C 436.324 3.32824 0.737638 0
M  V30 4563 H 437.517 2.82743 -0.999831 0
M  V30 4564 H 435.07 1.46065 -0.556298 0
M  V30 4565 H 435.805 2.83646 1.57212 0
M  V30 4566 H 435.59 3.91752 0.165044 0
M  V30 4567 H 437.08 4.0144 1.15047 0
M  V30 4568 N 437.518 0.538854 1.48102 0
M  V30 4569 C 438.746 0.0123136 2.06896 0
M  V30 4570 C 439.161 -1.27312 1.39417 0
M  V30 4571 O 438.518 -1.75949 0.484582 0
M  V30 4572 C 438.569 -0.206118 3.60912 0
M  V30 4573 O 438.29 1.0284 4.25859 0
M  V30 4574 C 439.791 -0.772033 4.36526 0
M  V30 4575 H 437.011 0.0375239 0.66995 0
M  V30 4576 H 439.555 0.747032 1.90367 0
M  V30 4577 H 437.71 -0.89091 3.77017 0
M  V30 4578 H 438.124 0.814654 5.18135 0
M  V30 4579 H 439.598 -0.874251 5.45033 0
M  V30 4580 H 440.075 -1.77904 4.01555 0
M  V30 4581 H 440.681 -0.123526 4.25121 0
M  V30 4582 N 438.996 -1.55193 0.274407 0
M  V30 4583 C 439.906 -2.26164 -0.623473 0
M  V30 4584 C 440.922 -1.28729 -1.17068 0
M  V30 4585 O 442.098 -1.61663 -1.20112 0
M  V30 4586 C 439.163 -2.96833 -1.7914 0
M  V30 4587 C 438.224 -4.09745 -1.28093 0
M  V30 4588 C 437.457 -4.77034 -2.3932 0
M  V30 4589 O 437.68 -4.4353 -3.5866 0
M  V30 4590 O 436.614 -5.64996 -2.07516 0
M  V30 4591 H 440.44 -3.03661 -0.0485661 0
M  V30 4592 H 438.025 -1.49341 0.0418382 0
M  V30 4593 H 439.907 -3.41248 -2.4724 0
M  V30 4594 H 438.582 -2.22253 -2.35341 0
M  V30 4595 H 437.489 -3.69787 -0.566416 0
M  V30 4596 H 438.822 -4.86224 -0.764683 0
M  V30 4597 N 440.474 -0.00167713 -1.576 0
M  V30 4598 C 441.407 1.02317 -2.03977 0
M  V30 4599 C 442.385 1.33381 -0.929963 0
M  V30 4600 O 443.569 1.45517 -1.19822 0
M  V30 4601 C 440.696 2.35035 -2.43878 0
M  V30 4602 C 439.742 2.19621 -3.65607 0
M  V30 4603 S 440.575 1.52068 -5.13455 0
M  V30 4604 C 441.731 2.86212 -5.56627 0
M  V30 4605 H 441.964 0.628285 -2.90585 0
M  V30 4606 H 439.497 0.209239 -1.52976 0
M  V30 4607 H 441.455 3.11345 -2.67534 0
M  V30 4608 H 440.116 2.71663 -1.57665 0
M  V30 4609 H 439.309 3.1767 -3.91282 0
M  V30 4610 H 438.911 1.51455 -3.41961 0
M  V30 4611 H 441.203 3.82509 -5.59189 0
M  V30 4612 H 442.146 2.65235 -6.56549 0
M  V30 4613 H 442.554 2.90199 -4.84195 0
M  V30 4614 N 441.952 1.55251 0.271103 0
M  V30 4615 C 442.882 1.9127 1.33933 0
M  V30 4616 C 443.863 0.77478 1.5143 0
M  V30 4617 O 445.048 1.03307 1.64442 0
M  V30 4618 C 442.178 2.18627 2.69851 0
M  V30 4619 C 441.132 3.34442 2.67081 0
M  V30 4620 C 440.458 3.47284 4.06569 0
M  V30 4621 C 441.758 4.70784 2.26185 0
M  V30 4622 H 443.452 2.80744 1.04035 0
M  V30 4623 H 440.998 1.35077 0.499017 0
M  V30 4624 H 442.951 2.42413 3.44694 0
M  V30 4625 H 441.675 1.25955 3.01335 0
M  V30 4626 H 440.334 3.10627 1.94695 0
M  V30 4627 H 439.982 2.52074 4.35279 0
M  V30 4628 H 439.682 4.25152 4.0561 0
M  V30 4629 H 441.206 3.73363 4.83148 0
M  V30 4630 H 442.62 4.94102 2.90751 0
M  V30 4631 H 441.017 5.51582 2.36384 0
M  V30 4632 H 442.087 4.69478 1.21319 0
M  V30 4633 N 443.43 -0.535701 1.48216 0
M  V30 4634 C 444.679 -1.28828 1.55197 0
M  V30 4635 C 444.992 -1.94263 0.228278 0
M  V30 4636 O 446.198 -2.70927 0.176278 0
M  V30 4637 C 444.654 -2.33727 2.73678 0
M  V30 4638 C 444.262 -1.74386 4.12666 0
M  V30 4639 C 446.006 -3.1003 2.89968 0
M  V30 4640 C 443.913 -2.77192 5.22416 0
M  V30 4641 H 442.843 -0.484484 0.577747 0
M  V30 4642 H 445.494 -0.56646 1.74538 0
M  V30 4643 H 443.876 -3.08919 2.4776 0
M  V30 4644 H 445.05 -1.05421 4.48579 0
M  V30 4645 H 443.365 -1.10595 4.01445 0
M  V30 4646 H 445.962 -3.86842 3.6913 0
M  V30 4647 H 446.305 -3.65542 1.9921 0
M  V30 4648 H 446.838 -2.41952 3.15759 0
M  V30 4649 H 443.577 -2.26507 6.15122 0
M  V30 4650 H 443.097 -3.44502 4.90998 0
M  V30 4651 H 444.776 -3.40285 5.50286 0
M  V30 4652 N 444.908 -1.36708 -0.784132 0
M  V30 4653 C 446.155 -1.31231 -1.54222 0
M  V30 4654 C 446.483 0.106864 -1.94206 0
M  V30 4655 O 445.738 1.07734 -1.63376 0
M  V30 4656 C 446.037 -2.18571 -2.82774 0
M  V30 4657 C 445.703 -3.67039 -2.61903 0
M  V30 4658 C 444.365 -4.07503 -2.55919 0
M  V30 4659 C 446.717 -4.61149 -2.4288 0
M  V30 4660 C 444.045 -5.40211 -2.28886 0
M  V30 4661 C 446.397 -5.94081 -2.17373 0
M  V30 4662 C 445.061 -6.33664 -2.09825 0
M  V30 4663 H 444.331 -0.48021 -0.56434 0
M  V30 4664 H 446.978 -1.68807 -0.904233 0
M  V30 4665 H 445.283 -1.73949 -3.51068 0
M  V30 4666 H 446.98 -2.11655 -3.40592 0
M  V30 4667 H 443.57 -3.34941 -2.67418 0
M  V30 4668 H 447.754 -4.30756 -2.46501 0
M  V30 4669 H 443.01 -5.69855 -2.21529 0
M  V30 4670 H 447.184 -6.66566 -2.01649 0
M  V30 4671 H 444.811 -7.36423 -1.88641 0
M  V30 4672 N 446.386 1.0089 -1.21074 0
M  V30 4673 C 447.634 1.74262 -1.02358 0
M  V30 4674 C 447.955 1.89869 0.444393 0
M  V30 4675 O 447.225 1.44677 1.32081 0
M  V30 4676 H 445.805 0.645615 -0.375754 0
M  V30 4677 H 448.467 1.21596 -1.52317 0
M  V30 4678 H 447.563 2.74328 -1.4883 0
M  V30 4679 N 447.864 1.01787 1.20321 0
M  V30 4680 C 448.811 0.589197 2.23153 0
M  V30 4681 C 449.781 -0.391367 1.61423 0
M  V30 4682 O 450.966 -0.290518 1.88575 0
M  V30 4683 C 448.106 -0.0650747 3.45039 0
M  V30 4684 C 447.219 0.960207 4.21194 0
M  V30 4685 C 446.354 0.276854 5.30478 0
M  V30 4686 C 445.393 1.2888 5.98378 0
M  V30 4687 N 444.53 0.632031 6.99249 0
M  V30 4688 H 449.37 1.47071 2.59179 0
M  V30 4689 H 446.907 0.736192 1.27352 0
M  V30 4690 H 448.865 -0.461552 4.14639 0
M  V30 4691 H 447.495 -0.910233 3.09701 0
M  V30 4692 H 446.547 1.47484 3.50646 0
M  V30 4693 H 447.859 1.72977 4.67847 0
M  V30 4694 H 447.013 -0.175056 6.06447 0
M  V30 4695 H 445.752 -0.525004 4.84866 0
M  V30 4696 H 444.757 1.75109 5.21169 0
M  V30 4697 H 445.982 2.09196 6.46076 0
M  V30 4698 H 443.928 -0.149935 6.55829 0
M  V30 4699 H 443.845 1.33964 7.44036 0
M  V30 4700 H 445.113 0.203755 7.79234 0
M  V30 4701 N 449.342 -1.36122 0.79427 0
M  V30 4702 C 450.289 -2.29982 0.194101 0
M  V30 4703 C 451.259 -1.52214 -0.664833 0
M  V30 4704 O 452.444 -1.80702 -0.612498 0
M  V30 4705 C 449.584 -3.38706 -0.661244 0
M  V30 4706 C 448.697 -4.31456 0.216766 0
M  V30 4707 C 447.832 -5.27265 -0.645411 0
M  V30 4708 C 446.871 -6.11653 0.233756 0
M  V30 4709 N 446.008 -6.99636 -0.587682 0
M  V30 4710 H 450.848 -2.80722 0.999965 0
M  V30 4711 H 448.385 -1.38172 0.504677 0
M  V30 4712 H 450.343 -4.00394 -1.17219 0
M  V30 4713 H 448.973 -2.89274 -1.43249 0
M  V30 4714 H 448.025 -3.7088 0.845724 0
M  V30 4715 H 449.337 -4.90724 0.893973 0
M  V30 4716 H 448.491 -5.94266 -1.22198 0
M  V30 4717 H 447.23 -4.68463 -1.35623 0
M  V30 4718 H 446.235 -5.4361 0.82269 0
M  V30 4719 H 447.46 -6.72531 0.942247 0
M  V30 4720 H 445.406 -6.43337 -1.2827 0
M  V30 4721 H 445.323 -7.55993 0.0317402 0
M  V30 4722 H 446.591 -7.71001 -1.14792 0
M  V30 4723 N 450.82 -0.546701 -1.47814 0
M  V30 4724 C 451.75 0.195317 -2.32682 0
M  V30 4725 C 452.731 0.918981 -1.43139 0
M  V30 4726 O 453.916 0.901501 -1.72008 0
M  V30 4727 C 451.046 1.23237 -3.247 0
M  V30 4728 C 450 0.625818 -4.234 0
M  V30 4729 C 449.326 1.76674 -5.04669 0
M  V30 4730 C 450.626 -0.413515 -5.2066 0
M  V30 4731 H 452.32 -0.513184 -2.94969 0
M  V30 4732 H 449.866 -0.248241 -1.41844 0
M  V30 4733 H 451.819 1.75955 -3.82907 0
M  V30 4734 H 450.543 1.97067 -2.60446 0
M  V30 4735 H 449.202 0.120023 -3.66403 0
M  V30 4736 H 448.85 2.49383 -4.36826 0
M  V30 4737 H 448.55 1.36673 -5.71484 0
M  V30 4738 H 450.074 2.29738 -5.65732 0
M  V30 4739 H 451.488 0.0272042 -5.73294 0
M  V30 4740 H 449.885 -0.731825 -5.95621 0
M  V30 4741 H 450.955 -1.31325 -4.66778 0
M  V30 4742 N 452.299 1.55045 -0.282633 0
M  V30 4743 C 453.527 2.04168 0.33512 0
M  V30 4744 C 453.942 1.16071 1.48906 0
M  V30 4745 O 453.299 0.182391 1.81586 0
M  V30 4746 C 453.35 3.52332 0.808957 0
M  V30 4747 O 453.071 4.37078 -0.299038 0
M  V30 4748 C 454.572 4.17375 1.49375 0
M  V30 4749 H 451.792 0.666744 0.0754543 0
M  V30 4750 H 454.336 2.00205 -0.416918 0
M  V30 4751 H 452.491 3.56715 1.51106 0
M  V30 4752 H 452.905 5.24458 0.0665514 0
M  V30 4753 H 454.379 5.22627 1.77664 0
M  V30 4754 H 454.856 3.65999 2.42778 0
M  V30 4755 H 455.462 4.17016 0.835305 0
M  V30 4756 N 453.777 0.010035 1.57597 0
M  V30 4757 C 454.74 -0.963029 2.07986 0
M  V30 4758 C 455.74 -1.26619 0.991173 0
M  V30 4759 O 456.93 -1.2097 1.25347 0
M  V30 4760 C 454.062 -2.2851 2.52974 0
M  V30 4761 H 455.255 -0.526971 2.95234 0
M  V30 4762 H 452.808 -0.237639 1.54483 0
M  V30 4763 H 453.543 -2.76784 1.69 0
M  V30 4764 H 453.328 -2.07824 3.32493 0
M  V30 4765 H 454.818 -2.98294 2.9225 0
M  V30 4766 N 455.255 -1.55392 -0.262866 0
M  V30 4767 C 456.503 -1.76127 -0.991147 0
M  V30 4768 C 456.824 -0.571083 -1.8645 0
M  V30 4769 O 456.094 0.413698 -1.91482 0
M  V30 4770 H 454.674 -0.649528 -0.368948 0
M  V30 4771 H 457.336 -1.9281 -0.284655 0
M  V30 4772 H 456.432 -2.6663 -1.62219 0
M  V30 4773 N 456.733 0.527833 -1.48498 0
M  V30 4774 C 457.643 1.65907 -1.65867 0
M  V30 4775 C 458.659 1.6537 -0.541192 0
M  V30 4776 O 459.835 1.84282 -0.812534 0
M  V30 4777 C 456.9 3.02364 -1.69637 0
M  V30 4778 C 455.961 3.1374 -2.93028 0
M  V30 4779 C 455.194 4.43688 -2.96609 0
M  V30 4780 O 455.417 5.30913 -2.08538 0
M  V30 4781 O 454.351 4.59475 -3.88802 0
M  V30 4782 H 458.177 1.5419 -2.61647 0
M  V30 4783 H 455.762 0.701163 -1.31924 0
M  V30 4784 H 457.644 3.83515 -1.74625 0
M  V30 4785 H 456.319 3.14401 -0.770312 0
M  V30 4786 H 455.226 2.31877 -2.93571 0
M  V30 4787 H 456.559 3.06621 -3.85026 0
M  V30 4788 N 458.211 1.37122 0.776871 0
M  V30 4789 C 459.174 1.32301 1.8716 0
M  V30 4790 C 460.174 0.228099 1.59174 0
M  V30 4791 O 461.364 0.483642 1.67352 0
M  V30 4792 C 458.496 1.054 3.24197 0
M  V30 4793 H 459.689 2.29673 1.92848 0
M  V30 4794 H 457.242 1.22077 0.97606 0
M  V30 4795 H 457.977 0.0853872 3.24188 0
M  V30 4796 H 457.762 1.84648 3.45901 0
M  V30 4797 H 459.252 1.04664 4.04271 0
M  V30 4798 N 459.689 -1.00246 1.21608 0
M  V30 4799 C 460.929 -1.75589 1.04631 0
M  V30 4800 C 461.293 -1.87513 -0.412648 0
M  V30 4801 O 462.494 -2.59444 -0.703003 0
M  V30 4802 C 460.765 -3.12893 1.72722 0
M  V30 4803 S 462.324 -4.04095 1.71034 0
M  V30 4804 H 459.142 -0.604133 0.374892 0
M  V30 4805 H 461.744 -1.19927 1.54395 0
M  V30 4806 H 460.448 -3.0185 2.78055 0
M  V30 4807 H 459.979 -3.73628 1.23149 0
M  V30 4808 H 461.994 -4.9045 0.753231 0
M  V30 4809 N 461.167 -1.02423 -1.1978 0
M  V30 4810 C 462.13 -0.605703 -2.21052 0
M  V30 4811 C 463.13 0.328209 -1.57415 0
M  V30 4812 O 464.32 0.115853 -1.73814 0
M  V30 4813 C 461.452 0.114366 -3.40708 0
M  V30 4814 H 462.645 -1.5017 -2.59594 0
M  V30 4815 H 460.198 -0.814888 -1.33376 0
M  V30 4816 H 460.933 1.02492 -3.07678 0
M  V30 4817 H 460.718 -0.556641 -3.88129 0
M  V30 4818 H 462.208 0.394272 -4.15735 0
M  V30 4819 N 462.645 1.35699 -0.801477 0
M  V30 4820 C 463.577 2.28598 -0.166028 0
M  V30 4821 C 464.59 1.50044 0.631721 0
M  V30 4822 O 465.779 1.72339 0.464921 0
M  V30 4823 C 462.879 3.29625 0.787451 0
M  V30 4824 C 462.052 4.37384 0.037171 0
M  V30 4825 C 461.111 5.183 0.908375 0
M  V30 4826 O 460.137 5.68053 0.361189 0
M  V30 4827 N 461.339 5.35912 2.23112 0
M  V30 4828 H 464.104 2.83771 -0.964071 0
M  V30 4829 H 461.665 1.47994 -0.656469 0
M  V30 4830 H 463.657 3.80648 1.37439 0
M  V30 4831 H 462.227 2.75004 1.48632 0
M  V30 4832 H 461.447 3.87364 -0.730935 0
M  V30 4833 H 462.735 5.0653 -0.480109 0
M  V30 4834 H 462.133 4.97125 2.69968 0
M  V30 4835 H 460.69 5.90133 2.76741 0
M  V30 4836 N 464.123 0.554532 1.47522 0
M  V30 4837 C 465.371 0.0294208 2.02079 0
M  V30 4838 C 465.692 -1.32411 1.43151 0
M  V30 4839 O 464.962 -1.863 0.605728 0
M  V30 4840 H 463.542 0.00788672 0.746958 0
M  V30 4841 H 466.204 0.723934 1.80956 0
M  V30 4842 H 465.3 -0.0606745 3.12041 0
M  V30 4843 N 465.601 -1.54893 0.290851 0
M  V30 4844 C 466.531 -2.26103 -0.583084 0
M  V30 4845 C 467.512 -1.25684 -1.14619 0
M  V30 4846 O 468.697 -1.54436 -1.17741 0
M  V30 4847 C 465.827 -2.99409 -1.75987 0
M  V30 4848 C 464.781 -4.0689 -1.32758 0
M  V30 4849 C 464.107 -4.67856 -2.58872 0
M  V30 4850 C 465.407 -5.20215 -0.46624 0
M  V30 4851 H 467.101 -2.99398 0.0108214 0
M  V30 4852 H 464.647 -1.43998 0.00664468 0
M  V30 4853 H 466.6 -3.47943 -2.37727 0
M  V30 4854 H 465.324 -2.23675 -2.37985 0
M  V30 4855 H 463.983 -3.59191 -0.733299 0
M  V30 4856 H 463.631 -3.88772 -3.19163 0
M  V30 4857 H 463.331 -5.40438 -2.30653 0
M  V30 4858 H 464.855 -5.19147 -3.21433 0
M  V30 4859 H 466.269 -5.64704 -0.989047 0
M  V30 4860 H 464.666 -5.99455 -0.27826 0
M  V30 4861 H 465.736 -4.82198 0.511173 0
M  V30 4862 N 467.08 -0.0183926 -1.57589 0
M  V30 4863 C 468.326 0.663543 -1.91638 0
M  V30 4864 C 468.659 1.72392 -0.894134 0
M  V30 4865 O 467.934 1.94316 0.0846449 0
M  V30 4866 C 468.217 1.28984 -3.36207 0
M  V30 4867 C 468.07 0.239761 -4.49161 0
M  V30 4868 C 469.389 2.2109 -3.80536 0
M  V30 4869 H 466.508 0.239746 -0.696915 0
M  V30 4870 H 469.15 -0.073456 -1.89858 0
M  V30 4871 H 467.3 1.91799 -3.37854 0
M  V30 4872 H 468.972 -0.390119 -4.59647 0
M  V30 4873 H 467.215 -0.435972 -4.31604 0
M  V30 4874 H 467.886 0.717383 -5.47319 0
M  V30 4875 H 470.362 1.68273 -3.80557 0
M  V30 4876 H 469.238 2.61869 -4.82406 0
M  V30 4877 H 469.499 3.09764 -3.15434 0
M  V30 4878 N 468.558 1.5553 0.254621 0
M  V30 4879 C 469.786 1.81046 1.00149 0
M  V30 4880 C 470.201 0.593047 1.79244 0
M  V30 4881 O 469.558 -0.438196 1.77161 0
M  V30 4882 C 469.609 3.04684 1.94551 0
M  V30 4883 O 469.33 4.21725 1.18658 0
M  V30 4884 C 470.831 3.42943 2.80901 0
M  V30 4885 H 468.051 0.602653 0.295044 0
M  V30 4886 H 470.595 2.02576 0.279842 0
M  V30 4887 H 468.75 2.85226 2.62154 0
M  V30 4888 H 469.164 4.91746 1.82445 0
M  V30 4889 H 470.638 4.32576 3.42902 0
M  V30 4890 H 471.115 2.63176 3.51617 0
M  V30 4891 H 471.721 3.64724 2.18762 0
M  V30 4892 N 470.036 -0.519951 1.48776 0
M  V30 4893 C 470.946 -1.65025 1.66745 0
M  V30 4894 C 471.962 -1.6508 0.549954 0
M  V30 4895 O 473.138 -1.83848 0.822295 0
M  V30 4896 C 470.203 -3.0146 1.71238 0
M  V30 4897 C 469.264 -3.12182 2.94688 0
M  V30 4898 C 468.497 -4.42109 2.98958 0
M  V30 4899 O 468.72 -5.29799 2.1135 0
M  V30 4900 O 467.654 -4.57406 3.91233 0
M  V30 4901 H 471.48 -1.52801 2.62461 0
M  V30 4902 H 469.065 -0.694157 1.32294 0
M  V30 4903 H 470.947 -3.82584 1.76657 0
M  V30 4904 H 469.622 -3.13988 0.786975 0
M  V30 4905 H 468.529 -2.30316 2.94797 0
M  V30 4906 H 469.862 -3.04574 3.86646 0
M  V30 4907 N 471.514 -1.37532 -0.769588 0
M  V30 4908 C 472.76 -1.33057 -1.53048 0
M  V30 4909 C 473.093 0.0841865 -1.94017 0
M  V30 4910 O 472.368 1.04198 -1.64235 0
M  V30 4911 C 472.651 -2.27166 -2.79406 0
M  V30 4912 C 472.504 -3.77429 -2.44677 0
M  V30 4913 C 473.823 -2.19683 -3.81349 0
M  V30 4914 H 470.942 -0.484655 -0.555228 0
M  V30 4915 H 473.584 -1.68251 -0.882702 0
M  V30 4916 H 471.734 -1.97283 -3.34682 0
M  V30 4917 H 473.406 -4.17918 -1.953 0
M  V30 4918 H 471.649 -3.95892 -1.77346 0
M  V30 4919 H 472.32 -4.38716 -3.35011 0
M  V30 4920 H 474.796 -2.46029 -3.35573 0
M  V30 4921 H 473.672 -2.87668 -4.67481 0
M  V30 4922 H 473.933 -1.19045 -4.25771 0
M  V30 4923 N 472.992 0.995999 -1.22138 0
M  V30 4924 C 474.239 1.7351 -1.04406 0
M  V30 4925 C 474.567 1.89884 0.421244 0
M  V30 4926 O 473.822 1.43683 1.32867 0
M  V30 4927 C 474.121 3.14553 -1.6968 0
M  V30 4928 C 473.787 3.18102 -3.19565 0
M  V30 4929 C 472.449 3.18778 -3.60464 0
M  V30 4930 C 474.801 3.14636 -4.15516 0
M  V30 4931 C 472.129 3.13684 -4.95801 0
M  V30 4932 C 474.481 3.11084 -5.50826 0
M  V30 4933 C 473.145 3.10074 -5.91109 0
M  V30 4934 H 472.415 0.634916 -0.38205 0
M  V30 4935 H 475.062 1.1667 -1.51857 0
M  V30 4936 H 473.367 3.74682 -1.14546 0
M  V30 4937 H 475.064 3.70477 -1.53454 0
M  V30 4938 H 471.654 3.18324 -2.86998 0
M  V30 4939 H 475.838 3.13266 -3.84939 0
M  V30 4940 H 471.094 3.11245 -5.26247 0
M  V30 4941 H 475.268 3.07357 -6.24904 0
M  V30 4942 H 472.895 3.05882 -6.95946 0
M  V30 4943 N 474.47 1.03057 1.19235 0
M  V30 4944 C 475.881 0.757449 1.70645 0
M  V30 4945 C 476.232 -0.722735 1.82403 0
M  V30 4946 O 475.357 -1.56325 1.49638 0
M  V30 4947 C 475.952 1.36833 3.09939 0
M  V30 4948 C 474.511 1.14375 3.58602 0
M  V30 4949 C 473.658 1.46533 2.35422 0
M  V30 4950 H 476.609 1.19828 1.04052 0
M  V30 4951 H 476.63 0.766184 3.72706 0
M  V30 4952 H 476.142 2.44562 3.01349 0
M  V30 4953 H 474.243 0.0847542 3.72504 0
M  V30 4954 H 474.356 1.83366 4.42622 0
M  V30 4955 H 472.72 0.884712 2.38841 0
M  V30 4956 H 473.503 2.55349 2.2946 0
M  V30 4957 N 475.948 -1.35272 0.808662 0
M  V30 4958 C 477.225 -1.93077 0.313181 0
M  V30 4959 C 477.605 -1.73847 -1.19752 0
M  V30 4960 O 476.953 -1.1087 -1.998 0
M  V30 4961 C 477.163 -3.41347 0.726859 0
M  V30 4962 C 478.511 -4.18493 0.717532 0
M  V30 4963 O 479.535 -3.4987 0.668535 0
M  V30 4964 O 478.394 -5.40937 0.777779 0
M  V30 4965 H 475.488 -0.822885 0.0824018 0
M  V30 4966 H 478.034 -1.44335 0.892499 0
M  V30 4967 H 476.806 -3.49082 1.76797 0
M  V30 4968 H 476.429 -3.97411 0.122461 0
M  V30 4969 N 477.426 -0.562348 -1.47226 0
M  V30 4970 C 478.651 -0.0432632 -2.07355 0
M  V30 4971 C 479.076 1.24332 -1.41149 0
M  V30 4972 O 478.434 1.74603 -0.488226 0
M  V30 4973 C 478.482 0.130288 -3.60365 0
M  V30 4974 O 477.586 1.19166 -3.94808 0
M  V30 4975 H 476.927 -0.0536334 -0.66183 0
M  V30 4976 H 479.457 -0.779495 -1.89169 0
M  V30 4977 H 479.467 0.342881 -4.06557 0
M  V30 4978 H 478.142 -0.809389 -4.07948 0
M  V30 4979 H 476.719 0.959153 -3.60354 0
M  V30 4980 N 478.904 1.54736 -0.299062 0
M  V30 4981 C 480.132 2.04512 0.313447 0
M  V30 4982 C 480.547 1.17643 1.47667 0
M  V30 4983 O 479.904 0.20164 1.81383 0
M  V30 4984 C 479.955 3.53171 0.771542 0
M  V30 4985 O 479.676 4.36736 -0.345379 0
M  V30 4986 C 481.177 4.18936 1.4494 0
M  V30 4987 H 478.397 0.667507 0.0683784 0
M  V30 4988 H 480.941 1.99752 -0.438129 0
M  V30 4989 H 479.096 3.58298 1.47314 0
M  V30 4990 H 479.51 5.24499 0.0109219 0
M  V30 4991 H 480.984 5.24482 1.72111 0
M  V30 4992 H 481.461 3.68554 2.38883 0
M  V30 4993 H 482.067 4.17879 0.791028 0
M  V30 4994 N 480.382 0.0267497 1.57577 0
M  V30 4995 C 481.629 -0.652404 1.91703 0
M  V30 4996 C 481.957 -1.72271 0.902936 0
M  V30 4997 O 481.212 -1.955 -0.0884843 0
M  V30 4998 C 481.511 -1.30914 3.3256 0
M  V30 4999 C 481.177 -0.369441 4.49384 0
M  V30 5000 C 479.839 -0.110791 4.81072 0
M  V30 5001 C 482.191 0.275971 5.20469 0
M  V30 5002 C 479.519 0.801116 5.81205 0
M  V30 5003 C 481.871 1.17592 6.21575 0
M  V30 5004 C 480.535 1.44348 6.51705 0
M  V30 5005 H 479.805 -0.238732 0.70149 0
M  V30 5006 H 482.452 0.0880091 1.91298 0
M  V30 5007 H 480.757 -2.12425 3.29216 0
M  V30 5008 H 482.454 -1.84115 3.56234 0
M  V30 5009 H 479.044 -0.581211 4.24641 0
M  V30 5010 H 483.228 0.0892 4.9622 0
M  V30 5011 H 478.484 1.01614 6.02897 0
M  V30 5012 H 482.658 1.68223 6.75777 0
M  V30 5013 H 480.285 2.15176 7.29111 0
M  V30 5014 N 481.861 -1.55662 -0.24637 0
M  V30 5015 C 482.793 -1.86811 -1.32794 0
M  V30 5016 C 483.806 -0.754413 -1.44265 0
M  V30 5017 O 484.995 -1.03253 -1.45606 0
M  V30 5018 C 482.095 -2.0397 -2.70646 0
M  V30 5019 C 481.268 -3.34832 -2.81436 0
M  V30 5020 C 480.327 -3.41727 -4.00136 0
M  V30 5021 O 479.353 -4.14934 -3.89639 0
M  V30 5022 N 480.555 -2.71058 -5.1333 0
M  V30 5023 H 483.32 -2.80174 -1.06409 0
M  V30 5024 H 480.881 -1.55906 -0.43647 0
M  V30 5025 H 482.873 -2.05924 -3.48393 0
M  V30 5026 H 481.443 -1.1735 -2.89738 0
M  V30 5027 H 480.663 -3.4519 -1.90361 0
M  V30 5028 H 481.951 -4.21085 -2.85595 0
M  V30 5029 H 481.349 -2.11314 -5.2475 0
M  V30 5030 H 479.906 -2.78704 -5.89209 0
M  V30 5031 N 483.339 0.512053 -1.4905 0
M  V30 5032 C 484.286 1.6148 -1.64902 0
M  V30 5033 C 485.256 1.58687 -0.490673 0
M  V30 5034 O 486.441 1.76842 -0.71636 0
M  V30 5035 C 483.581 2.99676 -1.71139 0
M  V30 5036 C 482.694 3.12568 -2.98203 0
M  V30 5037 C 481.829 4.4143 -2.95487 0
M  V30 5038 C 480.868 4.47916 -4.17179 0
M  V30 5039 N 480.005 5.68191 -4.12437 0
M  V30 5040 H 484.845 1.47271 -2.59066 0
M  V30 5041 H 482.382 0.716713 -1.28459 0
M  V30 5042 H 484.34 3.79761 -1.72736 0
M  V30 5043 H 482.97 3.12614 -0.804508 0
M  V30 5044 H 482.022 2.25618 -3.06269 0
M  V30 5045 H 483.334 3.1322 -3.88194 0
M  V30 5046 H 482.488 5.29825 -2.95585 0
M  V30 5047 H 481.227 4.43326 -2.03256 0
M  V30 5048 H 480.232 3.57925 -4.17337 0
M  V30 5049 H 481.457 4.47744 -5.1059 0
M  V30 5050 H 479.403 5.7095 -3.23036 0
M  V30 5051 H 479.32 5.70413 -4.96151 0
M  V30 5052 H 480.588 6.58823 -4.16621 0
M  V30 5053 N 484.817 1.37938 0.762283 0
M  V30 5054 C 485.727 1.36681 1.90671 0
M  V30 5055 C 486.743 0.265078 1.71969 0
M  V30 5056 O 487.919 0.502055 1.95042 0
M  V30 5057 C 484.984 1.18211 3.25925 0
M  V30 5058 C 484.045 2.3811 3.57214 0
M  V30 5059 C 483.278 2.20512 4.86014 0
M  V30 5060 O 483.501 1.19429 5.57757 0
M  V30 5061 O 482.435 3.08911 5.16583 0
M  V30 5062 H 486.261 2.33091 1.94685 0
M  V30 5063 H 483.846 1.18767 0.906356 0
M  V30 5064 H 485.728 1.09937 4.06807 0
M  V30 5065 H 484.403 0.248807 3.22742 0
M  V30 5066 H 483.31 2.51958 2.76529 0
M  V30 5067 H 484.643 3.30041 3.65149 0
M  V30 5068 N 486.295 -0.989507 1.22664 0
M  V30 5069 C 487.541 -1.7321 1.05481 0
M  V30 5070 C 487.874 -1.89852 -0.408635 0
M  V30 5071 O 487.149 -1.44416 -1.30285 0
M  V30 5072 C 487.432 -3.1357 1.77047 0
M  V30 5073 C 487.285 -3.04555 3.31008 0
M  V30 5074 C 488.604 -4.12812 1.5256 0
M  V30 5075 H 485.723 -0.628697 0.384589 0
M  V30 5076 H 488.365 -1.15258 1.51049 0
M  V30 5077 H 486.515 -3.63046 1.3831 0
M  V30 5078 H 488.187 -2.62674 3.7921 0
M  V30 5079 H 486.43 -2.41278 3.6051 0
M  V30 5080 H 487.101 -4.03894 3.76263 0
M  V30 5081 H 489.577 -3.72106 1.86215 0
M  V30 5082 H 488.453 -5.09132 2.05124 0
M  V30 5083 H 488.714 -4.39711 0.458936 0
M  V30 5084 N 487.773 -1.03688 -1.18687 0
M  V30 5085 C 489.019 -0.74888 -1.89112 0
M  V30 5086 C 489.374 0.715345 -1.78607 0
M  V30 5087 O 488.667 1.51498 -1.17299 0
M  V30 5088 C 488.861 -1.14477 -3.3857 0
M  V30 5089 C 488.69 -2.64594 -3.63621 0
M  V30 5090 C 487.46 -3.31685 -3.812 0
M  V30 5091 C 489.658 -3.62811 -3.64517 0
M  V30 5092 N 487.64 -4.70822 -3.93955 0
M  V30 5093 C 489.011 -4.87603 -3.8294 0
M  V30 5094 C 491.066 -3.56495 -3.47585 0
M  V30 5095 C 489.769 -6.0684 -3.86184 0
M  V30 5096 C 491.795 -4.75155 -3.52111 0
M  V30 5097 C 491.157 -5.98765 -3.71026 0
M  V30 5098 H 487.256 -0.32603 -0.710794 0
M  V30 5099 H 489.84 -1.3258 -1.42586 0
M  V30 5100 H 488.011 -0.595974 -3.838 0
M  V30 5101 H 489.743 -0.808187 -3.96548 0
M  V30 5102 H 486.498 -2.82091 -3.80423 0
M  V30 5103 H 486.922 -5.43122 -4.04163 0
M  V30 5104 H 491.564 -2.61907 -3.31911 0
M  V30 5105 H 489.282 -7.01788 -4.00648 0
M  V30 5106 H 492.868 -4.71905 -3.40289 0
M  V30 5107 H 491.748 -6.89047 -3.74412 0
M  V30 5108 N 489.251 1.34841 -0.815825 0
M  V30 5109 C 490.479 2.0273 -0.413294 0
M  V30 5110 C 490.894 1.61459 0.978599 0
M  V30 5111 O 490.251 0.816584 1.63212 0
M  V30 5112 C 490.302 3.58058 -0.497676 0
M  V30 5113 O 490.023 3.97832 -1.8347 0
M  V30 5114 C 491.524 4.4321 -0.0891339 0
M  V30 5115 H 488.744 0.649956 -0.166728 0
M  V30 5116 H 491.288 1.72267 -1.10201 0
M  V30 5117 H 489.443 3.87136 0.142886 0
M  V30 5118 H 489.857 4.92501 -1.80396 0
M  V30 5119 H 491.331 5.5164 -0.199274 0
M  V30 5120 H 491.808 4.28432 0.966571 0
M  V30 5121 H 492.414 4.19446 -0.703214 0
M  V30 5122 N 490.729 0.570148 1.46925 0
M  V30 5123 C 492.145 0.23087 1.57921 0
M  V30 5124 C 492.345 -1.26676 1.56702 0
M  V30 5125 O 491.401 -2.04774 1.47729 0
M  V30 5126 C 492.714 0.868973 2.8787 0
M  V30 5127 C 494.262 0.841397 3.01479 0
M  V30 5128 C 494.737 1.45881 4.34146 0
M  V30 5129 N 496.228 1.42258 4.40814 0
M  V30 5130 C 496.963 1.8698 5.42057 0
M  V30 5131 N 496.459 2.39618 6.50042 0
M  V30 5132 N 498.252 1.77972 5.33181 0
M  V30 5133 H 490.403 1.54301 1.45962 0
M  V30 5134 H 492.666 0.644224 0.69547 0
M  V30 5135 H 492.372 1.922 2.94537 0
M  V30 5136 H 492.246 0.369682 3.75384 0
M  V30 5137 H 494.633 -0.202973 2.94401 0
M  V30 5138 H 494.714 1.37858 2.15474 0
M  V30 5139 H 494.358 2.50231 4.4198 0
M  V30 5140 H 494.288 0.896958 5.18905 0
M  V30 5141 H 496.779 1.03768 3.63374 0
M  V30 5142 H 497.092 2.71633 7.23488 0
M  V30 5143 H 495.437 2.43636 6.50897 0
M  V30 5144 H 498.628 1.36617 4.4772 0
M  V30 5145 H 498.801 2.13143 6.11943 0
M  V30 5146 N 492.207 -1.54576 0.307264 0
M  V30 5147 C 493.137 -2.26708 -0.55907 0
M  V30 5148 C 494.118 -1.26893 -1.1328 0
M  V30 5149 O 495.303 -1.55677 -1.16097 0
M  V30 5150 C 492.433 -3.01259 -1.72801 0
M  V30 5151 C 491.387 -4.08275 -1.28435 0
M  V30 5152 C 490.713 -4.70575 -2.53895 0
M  V30 5153 C 492.013 -5.2068 -0.411038 0
M  V30 5154 H 493.707 -2.9937 0.042576 0
M  V30 5155 H 491.253 -1.43983 0.0219173 0
M  V30 5156 H 493.206 -3.50444 -2.34023 0
M  V30 5157 H 491.93 -2.26187 -2.356 0
M  V30 5158 H 490.589 -3.59949 -0.695161 0
M  V30 5159 H 490.237 -3.92136 -3.15021 0
M  V30 5160 H 489.937 -5.42854 -2.24908 0
M  V30 5161 H 491.461 -5.22527 -3.15908 0
M  V30 5162 H 492.875 -5.65721 -0.929097 0
M  V30 5163 H 491.272 -5.99716 -0.214664 0
M  V30 5164 H 492.342 -4.81629 0.562287 0
M  V30 5165 N 493.685 -0.035106 -1.57561 0
M  V30 5166 C 494.632 0.94474 -2.10578 0
M  V30 5167 C 495.602 1.3192 -1.00927 0
M  V30 5168 O 496.787 1.41147 -1.28382 0
M  V30 5169 C 493.927 2.21982 -2.64231 0
M  V30 5170 C 493.04 1.90128 -3.87911 0
M  V30 5171 C 492.175 3.11975 -4.29936 0
M  V30 5172 C 491.214 2.75968 -5.46359 0
M  V30 5173 N 490.351 3.90459 -5.83512 0
M  V30 5174 H 495.191 0.485717 -2.94015 0
M  V30 5175 H 492.728 0.228143 -1.4532 0
M  V30 5176 H 494.686 2.96572 -2.9343 0
M  V30 5177 H 493.316 2.6549 -1.83616 0
M  V30 5178 H 492.368 1.05755 -3.65404 0
M  V30 5179 H 493.68 1.59613 -4.72573 0
M  V30 5180 H 492.834 3.9488 -4.60603 0
M  V30 5181 H 491.573 3.45657 -3.44053 0
M  V30 5182 H 490.578 1.91478 -5.1538 0
M  V30 5183 H 491.803 2.43497 -6.33945 0
M  V30 5184 H 489.749 4.23971 -5.00584 0
M  V30 5185 H 489.666 3.63588 -6.62827 0
M  V30 5186 H 490.934 4.7405 -6.18787 0
M  V30 5187 N 495.163 1.55791 0.238111 0
M  V30 5188 C 496.126 1.90239 1.27835 0
M  V30 5189 C 497.126 0.779552 1.4064 0
M  V30 5190 O 498.316 1.04747 1.3919 0
M  V30 5191 C 495.448 2.13859 2.65475 0
M  V30 5192 H 496.641 2.83262 0.985034 0
M  V30 5193 H 494.194 1.48818 0.477799 0
M  V30 5194 H 494.929 1.23334 2.99932 0
M  V30 5195 H 494.714 2.95643 2.57561 0
M  V30 5196 H 496.204 2.41664 3.40571 0
M  V30 5197 N 496.642 -0.504142 1.49319 0
M  V30 5198 C 497.889 -1.25846 1.58647 0
M  V30 5199 C 498.217 -1.92592 0.27177 0
M  V30 5200 O 497.472 -1.81167 -0.74007 0
M  V30 5201 C 497.771 -2.35021 2.69258 0
M  V30 5202 C 497.437 -1.85755 4.1086 0
M  V30 5203 C 496.099 -1.72038 4.49395 0
M  V30 5204 C 498.451 -1.48844 4.99495 0
M  V30 5205 C 495.779 -1.19783 5.74342 0
M  V30 5206 C 498.131 -0.980422 6.24956 0
M  V30 5207 C 496.795 -0.829622 6.62324 0
M  V30 5208 H 496.065 -0.460505 0.580531 0
M  V30 5209 H 498.712 -0.559716 1.83138 0
M  V30 5210 H 497.017 -3.10672 2.38726 0
M  V30 5211 H 498.714 -2.93083 2.73685 0
M  V30 5212 H 495.304 -1.9739 3.80441 0
M  V30 5213 H 499.488 -1.5829 4.70381 0
M  V30 5214 H 494.744 -1.06817 6.01997 0
M  V30 5215 H 498.918 -0.685608 6.93017 0
M  V30 5216 H 496.545 -0.42253 7.59025 0
M  V30 5217 N 498.12 -1.38341 -0.754957 0
M  V30 5218 C 499.083 -1.35262 -1.85032 0
M  V30 5219 C 500.083 -0.253393 -1.58791 0
M  V30 5220 O 501.273 -0.510205 -1.66561 0
M  V30 5221 C 498.405 -1.10544 -3.22479 0
M  V30 5222 H 499.598 -2.32712 -1.8917 0
M  V30 5223 H 497.151 -1.23614 -0.956515 0
M  V30 5224 H 497.886 -0.136952 -3.24011 0
M  V30 5225 H 497.671 -1.90127 -3.4292 0
M  V30 5226 H 499.161 -1.11082 -4.02555 0
M  V30 5227 N 499.598 0.982988 -1.23187 0
M  V30 5228 C 500.545 2.07491 -1.01075 0
M  V30 5229 C 501.515 1.65949 0.070905 0
M  V30 5230 O 502.7 1.90629 -0.0806822 0
M  V30 5231 C 499.84 3.39751 -0.605261 0
M  V30 5232 C 498.953 3.94578 -1.75876 0
M  V30 5233 C 498.088 5.15039 -1.3003 0
M  V30 5234 C 497.127 5.62027 -2.42472 0
M  V30 5235 N 496.264 6.73719 -1.97602 0
M  V30 5236 H 501.104 2.25739 -1.9454 0
M  V30 5237 H 498.641 1.10659 -0.969179 0
M  V30 5238 H 500.599 4.15719 -0.351279 0
M  V30 5239 H 499.229 3.21473 0.292382 0
M  V30 5240 H 498.281 3.1539 -2.12681 0
M  V30 5241 H 499.593 4.25422 -2.60418 0
M  V30 5242 H 498.747 5.9833 -1.00429 0
M  V30 5243 H 497.486 4.85843 -0.425216 0
M  V30 5244 H 496.491 4.77318 -2.7285 0
M  V30 5245 H 497.716 5.93244 -3.30512 0
M  V30 5246 H 495.662 6.46287 -1.1247 0
M  V30 5247 H 495.579 7.03934 -2.75705 0
M  V30 5248 H 496.847 7.6049 -1.71098 0
M  V30 5249 N 501.076 1.04316 1.18135 0
M  V30 5250 C 502.006 0.657299 2.24058 0
M  V30 5251 C 502.987 -0.340678 1.66654 0
M  V30 5252 O 504.172 -0.220223 1.92947 0
M  V30 5253 C 501.302 0.0220715 3.47293 0
M  V30 5254 C 500.256 0.943857 4.17463 0
M  V30 5255 C 499.582 0.172973 5.3442 0
M  V30 5256 C 500.882 2.26409 4.70677 0
M  V30 5257 H 502.576 1.5428 2.56589 0
M  V30 5258 H 500.122 0.743263 1.23335 0
M  V30 5259 H 502.075 -0.259607 4.206 0
M  V30 5260 H 500.799 -0.898323 3.14003 0
M  V30 5261 H 499.458 1.20996 3.46057 0
M  V30 5262 H 499.106 -0.749907 4.97379 0
M  V30 5263 H 498.806 0.787098 5.82304 0
M  V30 5264 H 500.33 -0.101628 6.10515 0
M  V30 5265 H 501.744 2.04294 5.35665 0
M  V30 5266 H 500.141 2.8314 5.29105 0
M  V30 5267 H 501.211 2.90883 3.87962 0
M  V30 5268 N 502.554 -1.34406 0.822964 0
M  V30 5269 C 503.965 -1.8069 0.469879 0
M  V30 5270 C 504.316 -1.68223 -1.00972 0
M  V30 5271 O 503.441 -1.22226 -1.78577 0
M  V30 5272 C 504.036 -3.28064 0.846118 0
M  V30 5273 C 502.595 -3.72428 0.545402 0
M  V30 5274 C 501.742 -2.56116 1.06301 0
M  V30 5275 H 504.693 -1.22153 1.01313 0
M  V30 5276 H 504.714 -3.80205 0.149922 0
M  V30 5277 H 504.226 -3.37107 1.92304 0
M  V30 5278 H 502.327 -3.68924 -0.522109 0
M  V30 5279 H 502.44 -4.66548 1.0895 0
M  V30 5280 H 500.804 -2.50048 0.484554 0
M  V30 5281 H 501.587 -2.67928 2.14638 0
M  V30 5282 N 504.032 -0.577932 -1.46621 0
M  V30 5283 C 505.443 -0.150071 -1.86096 0
M  V30 5284 C 505.794 1.28563 -1.48209 0
M  V30 5285 O 504.919 1.97036 -0.894754 0
M  V30 5286 C 505.514 -0.265576 -3.37758 0
M  V30 5287 C 504.073 0.10738 -3.76247 0
M  V30 5288 C 503.22 -0.603711 -2.70649 0
M  V30 5289 H 506.171 -0.786438 -1.37844 0
M  V30 5290 H 506.192 0.510352 -3.77062 0
M  V30 5291 H 505.704 -1.3106 -3.65301 0
M  V30 5292 H 503.805 1.15272 -3.54321 0
M  V30 5293 H 503.918 -0.26561 -4.78363 0
M  V30 5294 H 502.282 -0.0444884 -2.54661 0
M  V30 5295 H 503.065 -1.65029 -3.01032 0
M  V30 5296 N 505.51 1.54411 -0.315457 0
M  V30 5297 C 506.458 2.25514 0.569771 0
M  V30 5298 C 507.452 1.2663 1.12522 0
M  V30 5299 O 508.658 1.44434 1.07419 0
M  V30 5300 H 505.033 0.724257 0.202376 0
M  V30 5301 H 507.004 2.98354 -0.0522895 0
M  V30 5302 C 505.753 3.02004 1.72305 0
M  V30 5303 H 505.076 3.77906 1.30488 0
M  V30 5304 H 506.516 3.55014 2.31821 0
M  V30 5305 C 504.975 2.09822 2.63583 0
M  V30 5306 O 505.505 1.67574 3.65078 0
M  V30 5307 N 503.711 1.75478 2.31637 0
M  V30 5308 H 503.258 2.10032 1.49145 0
M  V30 5309 H 503.216 1.14079 2.92973 0
M  V30 5310 N 506.988 0.0434614 1.5754 0
M  V30 5311 C 507.951 -0.918696 2.09982 0
M  V30 5312 C 508.951 -1.24488 1.01781 0
M  V30 5313 O 510.141 -1.18284 1.27885 0
M  V30 5314 C 507.273 -2.23093 2.57764 0
M  V30 5315 H 508.466 -0.464229 2.96285 0
M  V30 5316 H 506.019 -0.204818 1.54952 0
M  V30 5317 H 506.754 -2.73137 1.74832 0
M  V30 5318 H 506.539 -2.00724 3.36827 0
M  V30 5319 H 508.029 -2.92028 2.98512 0
M  V30 5320 N 508.466 -1.55915 -0.229846 0
M  V30 5321 C 509.396 -1.94754 -1.28815 0
M  V30 5322 C 510.377 -0.814657 -1.49323 0
M  V30 5323 O 511.562 -1.07631 -1.61645 0
M  V30 5324 C 508.692 -2.25705 -2.63959 0
M  V30 5325 C 507.646 -3.41406 -2.5812 0
M  V30 5326 C 506.972 -3.57941 -3.97218 0
M  V30 5327 C 508.272 -4.76616 -2.13623 0
M  V30 5328 H 509.966 -2.83404 -0.965547 0
M  V30 5329 H 507.512 -1.36353 -0.463028 0
M  V30 5330 H 509.465 -2.51467 -3.38146 0
M  V30 5331 H 508.189 -1.339 -2.9789 0
M  V30 5332 H 506.848 -3.1568 -1.86391 0
M  V30 5333 H 506.496 -2.63526 -4.28443 0
M  V30 5334 H 506.196 -4.35757 -3.94195 0
M  V30 5335 H 507.72 -3.86042 -4.73079 0
M  V30 5336 H 509.134 -5.01637 -2.77549 0
M  V30 5337 H 507.531 -5.57655 -2.21677 0
M  V30 5338 H 508.601 -4.7253 -1.08829 0
M  V30 5339 N 509.944 0.496216 -1.49584 0
M  V30 5340 C 511.36 0.827814 -1.36453 0
M  V30 5341 C 511.56 1.97464 -0.401285 0
M  V30 5342 O 510.616 2.51958 0.165296 0
M  V30 5343 C 511.929 1.16352 -2.77277 0
M  V30 5344 C 513.477 1.27145 -2.86013 0
M  V30 5345 C 513.952 1.64042 -4.27615 0
M  V30 5346 N 515.443 1.71082 -4.30448 0
M  V30 5347 C 516.178 2.01085 -5.36984 0
M  V30 5348 N 515.674 2.2928 -6.5376 0
M  V30 5349 N 517.467 2.02376 -5.24405 0
M  V30 5350 H 509.618 -0.259947 -2.10803 0
M  V30 5351 H 511.881 -0.0537163 -0.946477 0
M  V30 5352 H 511.587 0.394153 -3.49484 0
M  V30 5353 H 511.461 2.10582 -3.12946 0
M  V30 5354 H 513.848 2.03152 -2.1404 0
M  V30 5355 H 513.929 0.309542 -2.5392 0
M  V30 5356 H 513.573 0.88583 -5.00115 0
M  V30 5357 H 513.503 2.6134 -4.57175 0
M  V30 5358 H 515.994 1.51434 -3.46232 0
M  V30 5359 H 516.307 2.51376 -7.30774 0
M  V30 5360 H 514.652 2.26726 -6.56978 0
M  V30 5361 H 517.843 1.79829 -4.32179 0
M  V30 5362 H 518.016 2.25425 -6.07526 0
M  V30 5363 N 511.423 1.38739 0.74761 0
M  V30 5364 C 512.672 1.3459 1.50228 0
M  V30 5365 C 512.985 -0.0595592 1.95509 0
M  V30 5366 O 514.191 -0.22361 2.70578 0
M  V30 5367 C 512.647 2.36377 2.71393 0
M  V30 5368 C 512.255 3.82573 2.33113 0
M  V30 5369 C 513.999 2.41281 3.49262 0
M  V30 5370 C 511.906 4.76032 3.50924 0
M  V30 5371 H 510.836 0.500312 0.564096 0
M  V30 5372 H 513.487 1.64324 0.8167 0
M  V30 5373 H 511.869 1.99694 3.41962 0
M  V30 5374 H 513.043 4.28227 1.70171 0
M  V30 5375 H 511.358 3.80844 1.68365 0
M  V30 5376 H 513.955 3.08301 4.36869 0
M  V30 5377 H 514.298 1.43353 3.9084 0
M  V30 5378 H 514.831 2.76793 2.85711 0
M  V30 5379 H 511.57 5.75177 3.14408 0
M  V30 5380 H 511.09 4.35066 4.12889 0
M  V30 5381 H 512.769 4.94331 4.17427 0
M  V30 5382 N 512.901 -0.976442 1.23707 0
M  V30 5383 C 514.126 -1.75875 1.09922 0
M  V30 5384 C 514.551 -1.84911 -0.34489 0
M  V30 5385 O 513.909 -1.31363 -1.24954 0
M  V30 5386 C 513.957 -3.16179 1.73388 0
M  V30 5387 O 513.061 -4.00124 0.99871 0
M  V30 5388 H 512.402 -0.540954 0.385052 0
M  V30 5389 H 514.932 -1.22546 1.6384 0
M  V30 5390 H 514.942 -3.66741 1.78788 0
M  V30 5391 H 513.617 -3.08917 2.78466 0
M  V30 5392 H 512.194 -3.58624 1.02193 0
M  V30 5393 N 514.379 -1.04941 -1.1758 0
M  V30 5394 C 515.326 -0.648155 -2.21512 0
M  V30 5395 C 516.296 0.348431 -1.62404 0
M  V30 5396 O 517.481 0.240419 -1.89279 0
M  V30 5397 C 514.621 -0.0264291 -3.4509 0
M  V30 5398 C 513.734 -1.07154 -4.185 0
M  V30 5399 C 512.869 -0.417403 -5.29558 0
M  V30 5400 C 511.908 -1.447 -5.94751 0
M  V30 5401 N 511.045 -0.817203 -6.97328 0
M  V30 5402 H 515.885 -1.53891 -2.55189 0
M  V30 5403 H 513.422 -0.769699 -1.25356 0
M  V30 5404 H 515.38 0.351456 -4.15717 0
M  V30 5405 H 514.01 0.827802 -3.12005 0
M  V30 5406 H 513.062 -1.56728 -3.46613 0
M  V30 5407 H 514.374 -1.8532 -4.63096 0
M  V30 5408 H 513.528 0.0142061 -6.06698 0
M  V30 5409 H 512.267 0.396265 -4.86087 0
M  V30 5410 H 511.272 -1.88865 -5.16343 0
M  V30 5411 H 512.497 -2.26252 -6.40302 0
M  V30 5412 H 510.443 -0.0239995 -6.55996 0
M  V30 5413 H 510.36 -1.53644 -7.40223 0
M  V30 5414 H 511.628 -0.410283 -7.7842 0
M  V30 5415 N 515.857 1.33968 -0.830081 0
M  V30 5416 C 516.767 2.33164 -0.259207 0
M  V30 5417 C 517.783 1.62951 0.610164 0
M  V30 5418 O 518.959 1.94668 0.516369 0
M  V30 5419 C 516.024 3.42088 0.563598 0
M  V30 5420 C 515.085 4.28037 -0.329014 0
M  V30 5421 C 514.318 5.3176 0.454616 0
M  V30 5422 O 514.541 5.44876 1.6872 0
M  V30 5423 O 513.475 6.01669 -0.166794 0
M  V30 5424 H 517.301 2.83832 -1.08041 0
M  V30 5425 H 514.886 1.37154 -0.59239 0
M  V30 5426 H 516.768 4.08581 1.03147 0
M  V30 5427 H 515.443 2.93651 1.36201 0
M  V30 5428 H 514.35 3.64443 -0.844538 0
M  V30 5429 H 515.683 4.79934 -1.09196 0
M  V30 5430 N 517.335 0.585699 1.46312 0
M  V30 5431 C 518.581 0.0725284 2.0267 0
M  V30 5432 C 518.914 -1.28523 1.45586 0
M  V30 5433 O 518.189 -1.84283 0.622101 0
M  V30 5434 C 518.472 0.0099788 3.60099 0
M  V30 5435 C 518.325 1.39685 4.27561 0
M  V30 5436 C 519.644 -0.689117 4.34671 0
M  V30 5437 H 516.763 0.0278307 0.736474 0
M  V30 5438 H 519.405 0.753472 1.74421 0
M  V30 5439 H 517.555 -0.56992 3.84297 0
M  V30 5440 H 519.227 2.02215 4.14617 0
M  V30 5441 H 517.47 1.96374 3.86807 0
M  V30 5442 H 518.141 1.30553 5.36339 0
M  V30 5443 H 520.617 -0.196446 4.15636 0
M  V30 5444 H 519.493 -0.701921 5.44393 0
M  V30 5445 H 519.754 -1.75101 4.05946 0
M  V30 5446 N 518.813 -1.54241 0.323641 0
M  V30 5447 C 520.062 -1.9975 -0.279806 0
M  V30 5448 C 520.375 -1.2156 -1.5324 0
M  V30 5449 O 521.581 -1.57447 -2.21185 0
M  V30 5450 C 520.037 -3.55686 -0.549115 0
M  V30 5451 C 519.645 -4.4271 0.686432 0
M  V30 5452 C 521.389 -4.09663 -1.11251 0
M  V30 5453 C 519.296 -5.90119 0.389022 0
M  V30 5454 H 518.226 -0.746177 -0.10833 0
M  V30 5455 H 520.877 -1.78248 0.435877 0
M  V30 5456 H 519.259 -3.73176 -1.32499 0
M  V30 5457 H 520.433 -4.36996 1.46188 0
M  V30 5458 H 518.748 -3.99623 1.17005 0
M  V30 5459 H 521.345 -5.17386 -1.34965 0
M  V30 5460 H 521.688 -3.61651 -2.06191 0
M  V30 5461 H 522.221 -3.95806 -0.39782 0
M  V30 5462 H 518.96 -6.42326 1.30759 0
M  V30 5463 H 518.48 -5.98785 -0.348722 0
M  V30 5464 H 520.159 -6.47 -0.0011164 0
M  V30 5465 N 520.291 -0.0518155 -1.57515 0
M  V30 5466 C 521.707 0.304735 -1.56664 0
M  V30 5467 C 521.907 1.71395 -1.05953 0
M  V30 5468 O 520.963 2.42123 -0.716414 0
M  V30 5469 C 522.276 0.132614 -3.00407 0
M  V30 5470 C 523.824 0.20367 -3.12337 0
M  V30 5471 C 524.299 0.0600706 -4.57961 0
M  V30 5472 N 525.79 0.116326 -4.63054 0
M  V30 5473 C 526.525 0.0293363 -5.73392 0
M  V30 5474 N 526.021 -0.110038 -6.92713 0
M  V30 5475 N 527.814 0.0849651 -5.62036 0
M  V30 5476 H 519.965 -0.973056 -1.888 0
M  V30 5477 H 522.228 -0.377781 -0.869474 0
M  V30 5478 H 521.934 -0.839019 -3.41546 0
M  V30 5479 H 521.808 0.893376 -3.66468 0
M  V30 5480 H 524.195 1.16578 -2.71097 0
M  V30 5481 H 524.276 -0.587857 -2.48954 0
M  V30 5482 H 523.92 -0.898715 -4.99886 0
M  V30 5483 H 523.85 0.87075 -5.19351 0
M  V30 5484 H 526.341 0.22327 -3.7724 0
M  V30 5485 H 526.654 -0.169104 -7.72615 0
M  V30 5486 H 524.999 -0.145132 -6.94848 0
M  V30 5487 H 528.19 0.192411 -4.67704 0
M  V30 5488 H 528.363 0.0137131 -6.47999 0
M  V30 5489 N 521.769 1.56035 0.221574 0
M  V30 5490 C 522.716 1.92413 1.27459 0
M  V30 5491 C 523.686 0.781323 1.46576 0
M  V30 5492 O 524.871 1.03721 1.60145 0
M  V30 5493 C 522.011 2.24617 2.61995 0
M  V30 5494 C 521.124 3.51831 2.50677 0
M  V30 5495 C 520.259 3.73482 3.77736 0
M  V30 5496 C 519.298 4.94211 3.6114 0
M  V30 5497 N 518.435 5.12252 4.80148 0
M  V30 5498 H 523.275 2.82203 0.957355 0
M  V30 5499 H 520.812 1.39676 0.461415 0
M  V30 5500 H 522.77 2.41298 3.40339 0
M  V30 5501 H 521.4 1.38 2.91815 0
M  V30 5502 H 520.452 3.43343 1.63767 0
M  V30 5503 H 521.764 4.40328 2.34334 0
M  V30 5504 H 520.918 3.9026 4.64523 0
M  V30 5505 H 519.657 2.83266 3.97003 0
M  V30 5506 H 518.662 4.77384 2.72736 0
M  V30 5507 H 519.887 5.85912 3.43343 0
M  V30 5508 H 517.833 4.24978 4.99729 0
M  V30 5509 H 517.75 5.94881 4.66532 0
M  V30 5510 H 519.018 5.33465 5.68362 0
M  V30 5511 N 523.247 -0.488276 1.49845 0
M  V30 5512 C 524.663 -0.820566 1.3689 0
M  V30 5513 C 524.863 -1.97248 0.411752 0
M  V30 5514 O 523.919 -2.52042 -0.151931 0
M  V30 5515 C 525.232 -1.1488 2.77891 0
M  V30 5516 C 526.78 -1.25626 2.86683 0
M  V30 5517 C 527.255 -1.61772 4.28479 0
M  V30 5518 N 528.746 -1.68797 4.31349 0
M  V30 5519 C 529.481 -1.98235 5.38043 0
M  V30 5520 N 528.977 -2.2581 6.54967 0
M  V30 5521 N 530.77 -1.99593 5.2547 0
M  V30 5522 H 522.921 0.271123 2.10662 0
M  V30 5523 H 525.184 0.058735 0.946179 0
M  V30 5524 H 524.89 -0.375614 3.49688 0
M  V30 5525 H 524.764 -2.08919 3.14058 0
M  V30 5526 H 527.151 -2.02014 2.15114 0
M  V30 5527 H 527.232 -0.296072 2.54081 0
M  V30 5528 H 526.876 -0.859295 5.00578 0
M  V30 5529 H 526.806 -2.58912 4.58554 0
M  V30 5530 H 529.297 -1.49595 3.4703 0
M  V30 5531 H 529.61 -2.47497 7.32096 0
M  V30 5532 H 527.955 -2.23239 6.58171 0
M  V30 5533 H 531.146 -1.77535 4.33127 0
M  V30 5534 H 531.319 -2.222 6.08713 0
M  V30 5535 N 524.725 -1.39134 -0.740242 0
M  V30 5536 C 525.635 -1.39697 -1.88473 0
M  V30 5537 C 526.651 -0.292403 -1.71526 0
M  V30 5538 O 527.827 -0.533021 -1.94219 0
M  V30 5539 C 524.892 -1.23382 -3.24003 0
M  V30 5540 C 523.953 -2.43763 -3.53381 0
M  V30 5541 C 523.186 -2.28216 -4.82445 0
M  V30 5542 O 523.409 -1.28288 -5.55786 0
M  V30 5543 O 522.343 -3.1709 -5.11603 0
M  V30 5544 H 526.169 -2.36159 -1.90952 0
M  V30 5545 H 523.754 -1.20194 -0.887346 0
M  V30 5546 H 525.636 -1.16395 -4.05006 0
M  V30 5547 H 524.311 -0.300121 -3.22306 0
M  V30 5548 H 523.218 -2.56325 -2.72485 0
M  V30 5549 H 524.551 -3.35808 -3.59852 0
M  V30 5550 N 526.204 0.969867 -1.24223 0
M  V30 5551 C 527.62 1.23809 -1.00716 0
M  V30 5552 C 527.82 1.99469 0.285358 0
M  V30 5553 O 526.876 2.31764 1.00207 0
M  V30 5554 C 528.189 2.02734 -2.2208 0
M  V30 5555 C 529.737 2.15834 -2.26681 0
M  V30 5556 C 530.212 2.98154 -3.47661 0
M  V30 5557 N 531.703 3.05737 -3.47964 0
M  V30 5558 C 532.438 3.69785 -4.38231 0
M  V30 5559 N 531.934 4.35569 -5.3875 0
M  V30 5560 N 533.727 3.66775 -4.25949 0
M  V30 5561 H 525.878 0.463294 -2.07286 0
M  V30 5562 H 528.141 0.267348 -0.909521 0
M  V30 5563 H 527.847 1.54524 -3.15935 0
M  V30 5564 H 527.721 3.0347 -2.24021 0
M  V30 5565 H 530.108 2.63248 -1.33359 0
M  V30 5566 H 530.189 1.14453 -2.28767 0
M  V30 5567 H 529.833 2.51435 -4.41297 0
M  V30 5568 H 529.763 3.99729 -3.42818 0
M  V30 5569 H 532.254 2.58941 -2.75242 0
M  V30 5570 H 532.567 4.82251 -6.03866 0
M  V30 5571 H 530.912 4.34244 -5.42639 0
M  V30 5572 H 534.103 3.14558 -3.46657 0
M  V30 5573 H 534.276 4.16407 -4.96497 0
M  V30 5574 N 527.682 1.05563 1.17022 0
M  V30 5575 C 528.592 0.670758 2.24807 0
M  V30 5576 C 529.608 -0.309865 1.71219 0
M  V30 5577 O 530.784 -0.161025 2.00755 0
M  V30 5578 C 527.849 0.055337 3.46656 0
M  V30 5579 C 526.91 1.08688 4.15314 0
M  V30 5580 C 526.143 0.500736 5.31346 0
M  V30 5581 O 526.366 -0.688718 5.66227 0
M  V30 5582 O 525.3 1.23683 5.89055 0
M  V30 5583 H 529.126 1.56914 2.60023 0
M  V30 5584 H 526.711 0.827428 1.24395 0
M  V30 5585 H 528.593 -0.286492 4.20425 0
M  V30 5586 H 527.268 -0.816638 3.13229 0
M  V30 5587 H 526.175 1.48077 3.43546 0
M  V30 5588 H 527.508 1.93014 4.52777 0
M  V30 5589 N 529.16 -1.33526 0.837174 0
M  V30 5590 C 530.107 -2.29248 0.267169 0
M  V30 5591 C 531.077 -1.54252 -0.616071 0
M  V30 5592 O 532.262 -1.82559 -0.554699 0
M  V30 5593 C 529.402 -3.40638 -0.553152 0
M  V30 5594 C 528.515 -4.30548 0.353921 0
M  V30 5595 C 527.65 -5.29051 -0.477339 0
M  V30 5596 C 526.689 -6.106 0.42823 0
M  V30 5597 N 525.826 -7.01152 -0.364801 0
M  V30 5598 H 530.666 -2.77398 1.08877 0
M  V30 5599 H 528.203 -1.36496 0.54838 0
M  V30 5600 H 530.161 -4.03921 -1.04422 0
M  V30 5601 H 528.791 -2.93685 -1.33973 0
M  V30 5602 H 527.843 -3.68001 0.963289 0
M  V30 5603 H 529.155 -4.87631 1.04964 0
M  V30 5604 H 528.309 -5.97853 -1.0323 0
M  V30 5605 H 527.048 -4.72541 -1.2065 0
M  V30 5606 H 526.053 -5.40718 0.995219 0
M  V30 5607 H 527.278 -6.69193 1.15573 0
M  V30 5608 H 525.224 -6.47092 -1.07738 0
M  V30 5609 H 525.141 -7.5551 0.272238 0
M  V30 5610 H 526.409 -7.74263 -0.902054 0
M  V30 5611 N 530.638 -0.59345 -1.46 0
M  V30 5612 C 531.568 0.121192 -2.33185 0
M  V30 5613 C 532.549 0.872977 -1.4599 0
M  V30 5614 O 533.734 0.846321 -1.74789 0
M  V30 5615 C 530.864 1.12844 -3.28456 0
M  V30 5616 C 529.818 0.4908 -4.25177 0
M  V30 5617 C 529.144 1.60529 -5.10034 0
M  V30 5618 C 530.444 -0.578949 -5.19081 0
M  V30 5619 H 532.138 -0.606767 -2.93187 0
M  V30 5620 H 529.684 -0.293242 -1.40983 0
M  V30 5621 H 531.637 1.63684 -3.88311 0
M  V30 5622 H 530.361 1.88681 -2.66584 0
M  V30 5623 H 529.02 0.00339328 -3.666 0
M  V30 5624 H 528.668 2.35359 -4.44539 0
M  V30 5625 H 528.368 1.18422 -5.75543 0
M  V30 5626 H 529.892 2.11623 -5.72755 0
M  V30 5627 H 531.306 -0.155199 -5.7309 0
M  V30 5628 H 529.703 -0.920947 -5.92991 0
M  V30 5629 H 530.773 -1.46109 -4.62364 0
M  V30 5630 N 532.116 1.54067 -0.331816 0
M  V30 5631 C 533.066 2.21363 0.546101 0
M  V30 5632 C 534.05 1.19698 1.07523 0
M  V30 5633 O 535.242 1.45293 1.01088 0
M  V30 5634 C 532.371 2.98115 1.70242 0
M  V30 5635 C 531.457 4.07127 1.18779 0
M  V30 5636 N 531.848 5.04267 0.393465 0
M  V30 5637 C 530.146 4.21226 1.46576 0
M  V30 5638 C 530.847 5.81585 0.115572 0
M  V30 5639 N 529.823 5.39022 0.703987 0
M  V30 5640 H 533.625 2.93821 -0.0679751 0
M  V30 5641 H 531.139 1.61812 -0.138085 0
M  V30 5642 H 533.136 3.44818 2.34321 0
M  V30 5643 H 531.796 2.27181 2.31989 0
M  V30 5644 H 532.807 5.17888 0.0355757 0
M  V30 5645 H 529.484 3.61509 2.08848 0
M  V30 5646 H 530.874 6.6985 -0.524426 0
M  V30 5647 N 533.594 0.0601682 1.57485 0
M  V30 5648 C 534.557 -0.896373 2.10945 0
M  V30 5649 C 535.557 -1.23402 1.03095 0
M  V30 5650 O 536.747 -1.16921 1.29132 0
M  V30 5651 C 533.879 -2.20346 2.60116 0
M  V30 5652 H 535.072 -0.432778 2.96761 0
M  V30 5653 H 532.625 -0.188372 1.55161 0
M  V30 5654 H 533.36 -2.71268 1.7772 0
M  V30 5655 H 533.145 -1.9714 3.38937 0
M  V30 5656 H 534.635 -2.88846 3.01592 0
M  V30 5657 N 535.072 -1.5615 -0.213296 0
M  V30 5658 C 536.318 -1.79812 -0.937849 0
M  V30 5659 C 536.651 -0.631201 -1.83656 0
M  V30 5660 O 535.926 0.369165 -1.90964 0
M  V30 5661 C 536.209 -3.13613 -1.76972 0
M  V30 5662 C 536.062 -4.40766 -0.89695 0
M  V30 5663 C 537.381 -3.43931 -2.7459 0
M  V30 5664 H 534.5 -0.654138 -0.339518 0
M  V30 5665 H 537.142 -1.88877 -0.20623 0
M  V30 5666 H 535.292 -3.06015 -2.39347 0
M  V30 5667 H 536.964 -4.60392 -0.289306 0
M  V30 5668 H 535.207 -4.33326 -0.202756 0
M  V30 5669 H 535.878 -5.30843 -1.51358 0
M  V30 5670 H 538.354 -3.5171 -2.22349 0
M  V30 5671 H 537.23 -4.38706 -3.29891 0
M  V30 5672 H 537.491 -2.6651 -3.52739 0
M  V30 5673 N 536.55 0.480323 -1.50102 0
M  V30 5674 C 537.498 1.60024 -1.68805 0
M  V30 5675 C 538.492 1.60089 -0.553888 0
M  V30 5676 O 539.698 1.64349 -0.734127 0
M  V30 5677 H 536.073 0.530841 -0.532646 0
M  V30 5678 H 538.044 1.41408 -2.62767 0
M  V30 5679 C 536.793 2.98029 -1.79092 0
M  V30 5680 H 536.116 2.98694 -2.65748 0
M  V30 5681 H 537.556 3.75871 -1.96206 0
M  V30 5682 C 536.015 3.32538 -0.540388 0
M  V30 5683 O 536.545 4.00386 0.324637 0
M  V30 5684 N 534.751 2.87873 -0.397154 0
M  V30 5685 H 534.298 2.32834 -1.1021 0
M  V30 5686 H 534.256 3.11328 0.438425 0
M  V30 5687 N 538.028 1.39524 0.732853 0
M  V30 5688 C 538.991 1.38189 1.82857 0
M  V30 5689 C 539.991 0.278624 1.58368 0
M  V30 5690 O 541.181 0.536639 1.65728 0
M  V30 5691 C 538.313 1.15661 3.2068 0
M  V30 5692 H 539.506 2.35692 1.85444 0
M  V30 5693 H 537.059 1.2512 0.936728 0
M  V30 5694 H 537.794 0.188482 3.23752 0
M  V30 5695 H 537.579 1.95559 3.39852 0
M  V30 5696 H 539.069 1.17472 4.00737 0
M  V30 5697 N 539.506 -0.963266 1.24736 0
M  V30 5698 C 540.416 -2.09246 1.06082 0
M  V30 5699 C 541.432 -1.74 0.000363101 0
M  V30 5700 O 542.608 -2.0041 0.199479 0
M  V30 5701 C 539.673 -3.40115 0.672498 0
M  V30 5702 C 538.734 -3.89282 1.80993 0
M  V30 5703 C 537.967 -5.13905 1.44004 0
M  V30 5704 O 538.19 -5.69434 0.331835 0
M  V30 5705 O 537.124 -5.57566 2.26723 0
M  V30 5706 H 540.95 -2.27881 2.00759 0
M  V30 5707 H 538.535 -1.07649 1.03595 0
M  V30 5708 H 540.417 -4.18797 0.467668 0
M  V30 5709 H 539.092 -3.22771 -0.245102 0
M  V30 5710 H 537.999 -3.11642 2.06955 0
M  V30 5711 H 539.332 -4.1111 2.70646 0
M  V30 5712 N 540.985 -1.06182 -1.16461 0
M  V30 5713 C 541.895 -0.682671 -2.24448 0
M  V30 5714 C 542.911 0.30078 -1.71381 0
M  V30 5715 O 544.087 0.150376 -2.00838 0
M  V30 5716 C 541.152 -0.0737202 -3.46622 0
M  V30 5717 C 540.213 -1.10889 -4.14731 0
M  V30 5718 C 539.446 -0.528908 -5.31073 0
M  V30 5719 O 539.669 0.65868 -5.66584 0
M  V30 5720 O 538.603 -1.26805 -5.88391 0
M  V30 5721 H 542.429 -1.58291 -2.59187 0
M  V30 5722 H 540.014 -0.834013 -1.23954 0
M  V30 5723 H 541.896 0.264192 -4.20571 0
M  V30 5724 H 540.571 0.800015 -3.13658 0
M  V30 5725 H 539.478 -1.49896 -3.42756 0
M  V30 5726 H 540.811 -1.95412 -4.51747 0
M  V30 5727 N 542.463 1.3308 -0.844243 0
M  V30 5728 C 543.703 1.99414 -0.448697 0
M  V30 5729 C 544.067 1.65398 0.975058 0
M  V30 5730 O 545.268 2.24741 1.47461 0
M  V30 5731 C 543.539 3.51081 -0.669089 0
M  V30 5732 S 545.098 4.37241 -0.369564 0
M  V30 5733 H 541.916 0.690736 -0.168538 0
M  V30 5734 H 544.518 1.61977 -1.0947 0
M  V30 5735 H 543.222 3.73326 -1.70457 0
M  V30 5736 H 542.753 3.93399 -0.00913211 0
M  V30 5737 H 544.768 4.89568 0.808552 0
M  V30 5738 N 543.941 0.601185 1.45683 0
M  V30 5739 C 544.889 -0.133955 2.32214 0
M  V30 5740 C 545.883 -0.866034 1.45589 0
M  V30 5741 O 547.089 -0.782326 1.6211 0
M  V30 5742 H 543.464 -0.0620613 0.749435 0
M  V30 5743 H 545.435 0.614389 2.92007 0
M  V30 5744 C 544.184 -1.12216 3.29094 0
M  V30 5745 H 543.507 -0.568273 3.95741 0
M  V30 5746 H 544.947 -1.60659 3.92383 0
M  V30 5747 C 543.406 -2.19251 2.55794 0
M  V30 5748 O 543.936 -3.26894 2.33459 0
M  V30 5749 N 542.142 -1.9436 2.16039 0
M  V30 5750 H 541.689 -1.06829 2.34404 0
M  V30 5751 H 541.647 -2.66181 1.67318 0
M  V30 5752 N 545.419 -1.53889 0.339982 0
M  V30 5753 C 546.665 -2.01152 -0.258003 0
M  V30 5754 C 546.998 -1.22749 -1.50487 0
M  V30 5755 O 546.273 -0.314156 -1.91946 0
M  V30 5756 C 546.556 -3.55468 -0.575717 0
M  V30 5757 C 546.409 -4.44584 0.682996 0
M  V30 5758 C 547.728 -4.1768 -1.38677 0
M  V30 5759 H 544.847 -0.731198 -0.0922992 0
M  V30 5760 H 547.489 -1.84352 0.459814 0
M  V30 5761 H 545.639 -3.69914 -1.18725 0
M  V30 5762 H 547.311 -4.41981 1.32102 0
M  V30 5763 H 545.554 -4.13592 1.3086 0
M  V30 5764 H 546.225 -5.5043 0.416001 0
M  V30 5765 H 548.701 -4.0691 -0.869705 0
M  V30 5766 H 547.577 -5.25734 -1.57783 0
M  V30 5767 H 547.838 -3.72069 -2.38782 0
M  V30 5768 N 546.897 -0.0685191 -1.57451 0
M  V30 5769 C 547.827 0.89747 -2.15564 0
M  V30 5770 C 548.808 1.31266 -1.08181 0
M  V30 5771 O 549.993 1.38429 -1.36202 0
M  V30 5772 C 547.123 2.16623 -2.71463 0
M  V30 5773 C 546.077 1.89054 -3.83982 0
M  V30 5774 C 545.403 3.22532 -4.26471 0
M  V30 5775 C 546.703 1.1984 -5.08366 0
M  V30 5776 H 548.397 0.413373 -2.96533 0
M  V30 5777 H 545.943 0.197391 -1.42641 0
M  V30 5778 H 547.896 2.84614 -3.10761 0
M  V30 5779 H 546.62 2.67269 -1.8771 0
M  V30 5780 H 545.279 1.23469 -3.45183 0
M  V30 5781 H 544.927 3.71013 -3.39644 0
M  V30 5782 H 544.627 3.04879 -5.02317 0
M  V30 5783 H 546.151 3.91727 -4.68383 0
M  V30 5784 H 547.565 1.77896 -5.45001 0
M  V30 5785 H 545.962 1.12456 -5.89469 0
M  V30 5786 H 547.032 0.176996 -4.84577 0
M  V30 5787 N 548.375 1.56261 0.205012 0
M  V30 5788 C 549.307 1.90266 1.27795 0
M  V30 5789 C 550.32 0.792397 1.42214 0
M  V30 5790 O 551.509 1.07077 1.42817 0
M  V30 5791 C 548.609 2.11074 2.65143 0
M  V30 5792 C 547.782 3.42176 2.7246 0
M  V30 5793 C 546.841 3.52216 3.90936 0
M  V30 5794 O 545.867 4.25119 3.78501 0
M  V30 5795 N 547.069 2.84573 5.05963 0
M  V30 5796 H 549.834 2.82896 0.989434 0
M  V30 5797 H 547.395 1.57008 0.394981 0
M  V30 5798 H 549.387 2.15089 3.4281 0
M  V30 5799 H 547.957 1.2499 2.86524 0
M  V30 5800 H 547.177 3.50116 1.81142 0
M  V30 5801 H 548.465 4.28509 2.74331 0
M  V30 5802 H 547.863 2.25152 5.18963 0
M  V30 5803 H 546.42 2.94228 5.81613 0
M  V30 5804 N 549.853 -0.472356 1.50355 0
M  V30 5805 C 551.101 -1.22211 1.60962 0
M  V30 5806 C 551.422 -1.92497 0.311439 0
M  V30 5807 O 550.692 -1.8405 -0.671002 0
M  V30 5808 H 549.272 -0.454092 0.593135 0
M  V30 5809 H 551.934 -0.544977 1.87126 0
M  V30 5810 H 551.03 -1.9707 2.42012 0
M  V30 5811 N 551.331 -1.39911 -0.725443 0
M  V30 5812 C 552.747 -1.21725 -1.03224 0
M  V30 5813 C 552.947 -0.0855224 -2.01318 0
M  V30 5814 O 552.003 0.55976 -2.46217 0
M  V30 5815 C 553.316 -2.55511 -1.58539 0
M  V30 5816 C 554.864 -2.62439 -1.70572 0
M  V30 5817 C 555.339 -3.9647 -2.29294 0
M  V30 5818 N 556.83 -3.98159 -2.36692 0
M  V30 5819 C 557.565 -4.98647 -2.83088 0
M  V30 5820 N 557.061 -6.0953 -3.2931 0
M  V30 5821 N 558.854 -4.8602 -2.82384 0
M  V30 5822 H 551.005 -2.12267 -0.075048 0
M  V30 5823 H 553.268 -0.943136 -0.0959066 0
M  V30 5824 H 552.974 -3.38926 -0.939249 0
M  V30 5825 H 552.848 -2.75905 -2.57208 0
M  V30 5826 H 555.235 -1.79401 -2.34306 0
M  V30 5827 H 555.316 -2.45885 -0.705297 0
M  V30 5828 H 554.96 -4.79942 -1.66186 0
M  V30 5829 H 554.89 -4.10349 -3.30032 0
M  V30 5830 H 557.381 -3.18085 -2.04035 0
M  V30 5831 H 557.694 -6.82106 -3.6325 0
M  V30 5832 H 556.039 -6.1311 -3.27294 0
M  V30 5833 H 559.23 -3.98493 -2.45603 0
M  V30 5834 H 559.403 -5.64478 -3.18226 0
M  V30 5835 N 552.809 0.956637 -1.25245 0
M  V30 5836 C 554.055 1.70413 -1.11044 0
M  V30 5837 C 554.41 1.89275 0.345377 0
M  V30 5838 O 553.703 1.45116 1.25107 0
M  V30 5839 C 553.897 3.08996 -1.79601 0
M  V30 5840 C 553.726 3.03654 -3.317 0
M  V30 5841 C 552.496 3.07521 -4.00947 0
M  V30 5842 C 554.694 2.84975 -4.28128 0
M  V30 5843 N 552.676 2.92316 -5.39838 0
M  V30 5844 C 554.047 2.7818 -5.5409 0
M  V30 5845 C 556.102 2.6964 -4.18568 0
M  V30 5846 C 554.805 2.57616 -6.71585 0
M  V30 5847 C 556.831 2.50447 -5.35752 0
M  V30 5848 C 556.193 2.4437 -6.60653 0
M  V30 5849 H 552.292 0.631642 -0.461035 0
M  V30 5850 H 554.876 1.13331 -1.58317 0
M  V30 5851 H 553.047 3.64248 -1.34826 0
M  V30 5852 H 554.779 3.72515 -1.58161 0
M  V30 5853 H 551.534 3.16635 -3.52192 0
M  V30 5854 H 551.958 2.87923 -6.12723 0
M  V30 5855 H 556.6 2.73113 -3.22752 0
M  V30 5856 H 554.318 2.52885 -7.67512 0
M  V30 5857 H 557.904 2.39509 -5.30214 0
M  V30 5858 H 556.784 2.29712 -7.49801 0
M  V30 5859 N 554.287 1.06798 1.15896 0
M  V30 5860 C 555.217 0.704677 2.22613 0
M  V30 5861 C 556.198 -0.305252 1.67339 0
M  V30 5862 O 557.383 -0.179247 1.93371 0
M  V30 5863 C 554.513 0.0957325 3.47168 0
M  V30 5864 C 553.467 1.0322 4.15367 0
M  V30 5865 C 552.793 0.286293 5.33933 0
M  V30 5866 C 554.093 2.36341 4.65768 0
M  V30 5867 H 555.787 1.59688 2.53259 0
M  V30 5868 H 553.333 0.769257 1.21731 0
M  V30 5869 H 555.286 -0.170333 4.21056 0
M  V30 5870 H 554.01 -0.831516 3.15838 0
M  V30 5871 H 552.669 1.28309 3.43413 0
M  V30 5872 H 552.317 -0.644237 4.98857 0
M  V30 5873 H 552.017 0.910436 5.80504 0
M  V30 5874 H 553.541 0.0278938 6.10594 0
M  V30 5875 H 554.955 2.1561 5.31211 0
M  V30 5876 H 553.352 2.94299 5.2298 0
M  V30 5877 H 554.422 2.99047 3.81705 0
M  V30 5878 N 555.766 -1.3263 0.851289 0
M  V30 5879 C 556.991 -2.02097 0.466006 0
M  V30 5880 C 557.416 -1.63574 -0.928709 0
M  V30 5881 O 556.774 -0.834665 -1.60944 0
M  V30 5882 C 556.822 -3.55425 0.608737 0
M  V30 5883 O 555.926 -4.10827 -0.359878 0
M  V30 5884 H 555.267 -0.636911 0.187724 0
M  V30 5885 H 557.797 -1.69253 1.14955 0
M  V30 5886 H 557.807 -4.04986 0.495006 0
M  V30 5887 H 556.482 -3.82806 1.62581 0
M  V30 5888 H 555.059 -3.72349 -0.202666 0
M  V30 5889 N 557.244 -0.608902 -1.45362 0
M  V30 5890 C 558.521 -0.0365378 -1.95566 0
M  V30 5891 C 558.901 1.43169 -1.55131 0
M  V30 5892 O 558.249 2.1349 -0.814513 0
M  V30 5893 C 558.459 -0.236026 -3.48201 0
M  V30 5894 C 559.807 -0.117518 -4.24437 0
M  V30 5895 O 560.831 -0.166217 -3.55812 0
M  V30 5896 O 559.69 -0.00372127 -5.465 0
M  V30 5897 H 556.784 0.0349874 -0.82626 0
M  V30 5898 H 559.33 -0.679055 -1.55521 0
M  V30 5899 H 558.102 -1.25569 -3.70605 0
M  V30 5900 H 557.725 0.441691 -3.95139 0
M  V30 5901 N 558.722 1.53707 -0.348139 0
M  V30 5902 C 559.632 2.28881 0.514857 0
M  V30 5903 C 560.648 1.34168 1.10793 0
M  V30 5904 O 561.824 1.6721 1.12262 0
M  V30 5905 C 558.889 3.05042 1.64774 0
M  V30 5906 C 557.95 4.15389 1.08398 0
M  V30 5907 C 557.183 4.87909 2.16287 0
M  V30 5908 O 557.406 4.60137 3.3709 0
M  V30 5909 O 556.34 5.74254 1.80323 0
M  V30 5910 H 560.166 3.03547 -0.0963699 0
M  V30 5911 H 557.751 1.48972 -0.113043 0
M  V30 5912 H 559.633 3.52656 2.30677 0
M  V30 5913 H 558.308 2.33228 2.24469 0
M  V30 5914 H 557.215 3.72068 0.389341 0
M  V30 5915 H 558.548 4.89318 0.531829 0
M  V30 5916 N 560.2 0.0768682 1.57412 0
M  V30 5917 C 561.44 -0.594676 1.95558 0
M  V30 5918 C 561.804 -1.66469 0.956658 0
M  V30 5919 O 563.005 -2.39215 1.22595 0
M  V30 5920 C 561.276 -1.15206 3.38323 0
M  V30 5921 S 562.835 -1.83803 3.9845 0
M  V30 5922 H 559.653 -0.194579 0.683857 0
M  V30 5923 H 562.255 0.151933 1.94909 0
M  V30 5924 H 560.959 -0.36153 4.08805 0
M  V30 5925 H 560.49 -1.93491 3.42527 0
M  V30 5926 H 562.505 -3.12087 3.85767 0
M  V30 5927 N 561.678 -1.56367 -0.196722 0
M  V30 5928 C 562.906 -1.84639 -0.933608 0
M  V30 5929 C 563.321 -0.659164 -1.76919 0
M  V30 5930 O 562.678 0.372142 -1.78665 0
M  V30 5931 C 562.729 -3.11694 -1.83109 0
M  V30 5932 O 562.45 -4.25838 -1.02924 0
M  V30 5933 C 563.951 -3.53132 -2.67979 0
M  V30 5934 H 561.171 -0.613188 -0.272473 0
M  V30 5935 H 563.715 -2.03475 -0.204465 0
M  V30 5936 H 561.87 -2.94759 -2.51387 0
M  V30 5937 H 562.284 -4.98178 -1.64069 0
M  V30 5938 H 563.758 -4.45005 -3.26611 0
M  V30 5939 H 564.235 -2.76045 -3.41608 0
M  V30 5940 H 564.841 -3.72592 -2.05074 0
M  V30 5941 N 563.156 0.464375 -1.50603 0
M  V30 5942 C 564.104 1.58224 -1.70493 0
M  V30 5943 C 565.098 1.59492 -0.570836 0
M  V30 5944 O 566.304 1.63561 -0.751517 0
M  V30 5945 H 562.679 0.525161 -0.538247 0
M  V30 5946 H 564.65 1.38613 -2.64252 0
M  V30 5947 C 563.399 2.96113 -1.82243 0
M  V30 5948 H 562.722 2.95858 -2.68901 0
M  V30 5949 H 564.162 3.73769 -2.00182 0
M  V30 5950 C 562.621 3.31946 -0.575628 0
M  V30 5951 O 563.151 4.00708 0.282152 0
M  V30 5952 N 561.357 2.87436 -0.427665 0
M  V30 5953 H 560.904 2.31652 -1.12674 0
M  V30 5954 H 560.862 3.11776 0.405379 0
M  V30 5955 N 564.634 1.40294 0.718013 0
M  V30 5956 C 565.597 1.4012 1.81381 0
M  V30 5957 C 566.597 0.295405 1.58063 0
M  V30 5958 O 567.787 0.554187 1.6515 0
M  V30 5959 C 564.919 1.19056 3.19435 0
M  V30 5960 H 566.112 2.37645 1.82933 0
M  V30 5961 H 563.665 1.26107 0.923405 0
M  V30 5962 H 564.4 0.222809 3.23534 0
M  V30 5963 H 564.185 1.99152 3.37758 0
M  V30 5964 H 565.675 1.21716 3.99468 0
M  V30 5965 N 566.112 -0.949982 1.2575 0
M  V30 5966 C 567.358 -1.69766 1.10938 0
M  V30 5967 C 567.691 -1.91056 -0.348028 0
M  V30 5968 O 566.966 -1.48488 -1.25625 0
M  V30 5969 C 567.249 -3.07779 1.86933 0
M  V30 5970 C 567.102 -2.9387 3.4053 0
M  V30 5971 C 568.421 -4.07749 1.65616 0
M  V30 5972 H 565.54 -0.616144 0.404396 0
M  V30 5973 H 568.182 -1.10394 1.54639 0
M  V30 5974 H 566.332 -3.58462 1.4979 0
M  V30 5975 H 568.004 -2.50476 3.87375 0
M  V30 5976 H 566.247 -2.29686 3.68004 0
M  V30 5977 H 566.918 -3.91719 3.88922 0
M  V30 5978 H 569.394 -3.65994 1.97959 0
M  V30 5979 H 568.27 -5.02348 2.21218 0
M  V30 5980 H 568.531 -4.38029 0.598595 0
M  V30 5981 N 567.59 -1.07411 -1.15328 0
M  V30 5982 C 568.836 -0.798831 -1.86404 0
M  V30 5983 C 569.169 0.673433 -1.8215 0
M  V30 5984 O 568.444 1.49428 -1.24505 0
M  V30 5985 C 568.727 -1.30846 -3.35487 0
M  V30 5986 C 568.58 -2.84532 -3.4837 0
M  V30 5987 C 569.899 -0.925486 -4.30259 0
M  V30 5988 H 567.018 -0.291659 -0.676834 0
M  V30 5989 H 569.66 -1.332 -1.35491 0
M  V30 5990 H 567.81 -0.854916 -3.78977 0
M  V30 5991 H 569.482 -3.3818 -3.13739 0
M  V30 5992 H 567.725 -3.22699 -2.8991 0
M  V30 5993 H 568.396 -3.15259 -4.53118 0
M  V30 5994 H 570.872 -1.3163 -3.94731 0
M  V30 5995 H 569.748 -1.3094 -5.33053 0
M  V30 5996 H 570.009 0.168525 -4.41779 0
M  V30 5997 N 569.068 1.32177 -0.85831 0
M  V30 5998 C 570.016 2.30729 -0.294442 0
M  V30 5999 C 571.01 1.59009 0.584165 0
M  V30 6000 O 572.216 1.73713 0.471562 0
M  V30 6001 H 568.591 0.748097 -0.0765171 0
M  V30 6002 H 570.562 2.75774 -1.1398 0
M  V30 6003 C 569.311 3.44098 0.499208 0
M  V30 6004 H 568.634 3.99449 -0.167579 0
M  V30 6005 H 570.074 4.15202 0.859273 0
M  V30 6006 C 568.533 2.91684 1.68588 0
M  V30 6007 O 569.063 2.89481 2.78503 0
M  V30 6008 N 567.269 2.48036 1.51415 0
M  V30 6009 H 566.816 2.50027 0.620006 0
M  V30 6010 H 566.774 2.13322 2.30957 0
M  V30 6011 N 570.547 0.616602 1.45037 0
M  V30 6012 C 571.794 0.115331 2.02171 0
M  V30 6013 C 572.122 -1.25748 1.48383 0
M  V30 6014 O 571.377 -1.84511 0.652229 0
M  V30 6015 C 571.676 0.0356829 3.57382 0
M  V30 6016 C 571.342 1.34535 4.30362 0
M  V30 6017 C 570.004 1.70408 4.50016 0
M  V30 6018 C 572.356 2.21049 4.72003 0
M  V30 6019 C 569.684 2.92529 5.0857 0
M  V30 6020 C 572.036 3.42427 5.31908 0
M  V30 6021 C 570.7 3.78541 5.49784 0
M  V30 6022 H 569.97 0.0422024 0.739797 0
M  V30 6023 H 572.617 0.80002 1.73988 0
M  V30 6024 H 570.922 -0.732314 3.84895 0
M  V30 6025 H 572.619 -0.368463 3.99304 0
M  V30 6026 H 569.209 1.05615 4.15383 0
M  V30 6027 H 573.393 1.94632 4.56544 0
M  V30 6028 H 568.649 3.20605 5.20598 0
M  V30 6029 H 572.823 4.09709 5.63127 0
M  V30 6030 H 570.45 4.73255 5.94923 0
M  V30 6031 N 572.025 -1.5352 0.356285 0
M  V30 6032 C 572.955 -2.28372 -0.486661 0
M  V30 6033 C 573.936 -1.30432 -1.09185 0
M  V30 6034 O 575.121 -1.59291 -1.11085 0
M  V30 6035 C 572.251 -3.06604 -1.63129 0
M  V30 6036 C 571.205 -4.12154 -1.15381 0
M  V30 6037 C 570.531 -4.78415 -2.38796 0
M  V30 6038 C 571.831 -5.21724 -0.245179 0
M  V30 6039 H 573.525 -2.99083 0.137797 0
M  V30 6040 H 571.071 -1.43841 0.0677134 0
M  V30 6041 H 573.024 -3.57712 -2.22755 0
M  V30 6042 H 571.748 -2.33568 -2.28284 0
M  V30 6043 H 570.407 -3.61978 -0.580294 0
M  V30 6044 H 570.055 -4.01959 -3.02387 0
M  V30 6045 H 569.755 -5.49734 -2.07524 0
M  V30 6046 H 571.279 -5.32313 -2.99125 0
M  V30 6047 H 572.693 -5.68391 -0.748646 0
M  V30 6048 H 571.09 -6.00095 -0.0237608 0
M  V30 6049 H 572.16 -4.79596 0.715229 0
M  V30 6050 N 573.503 -0.0852151 -1.57369 0
M  V30 6051 C 574.728 0.592872 -1.98746 0
M  V30 6052 C 575.153 1.61538 -0.963689 0
M  V30 6053 O 574.511 1.81168 0.069071 0
M  V30 6054 C 574.559 1.22599 -3.39119 0
M  V30 6055 O 573.663 2.34185 -3.39457 0
M  V30 6056 H 573.004 0.151314 -0.646529 0
M  V30 6057 H 575.534 -0.163703 -2.03944 0
M  V30 6058 H 575.544 1.56965 -3.76598 0
M  V30 6059 H 574.219 0.476831 -4.13158 0
M  V30 6060 H 572.796 2.01512 -3.13763 0
M  V30 6061 N 574.981 1.5647 0.188427 0
M  V30 6062 C 576.397 1.50204 0.539532 0
M  V30 6063 C 576.597 0.78644 1.85519 0
M  V30 6064 O 575.653 0.339714 2.50204 0
M  V30 6065 C 576.966 2.94893 0.588103 0
M  V30 6066 C 578.514 3.05602 0.67648 0
M  V30 6067 C 578.989 4.51716 0.756101 0
M  V30 6068 N 580.48 4.55894 0.819451 0
M  V30 6069 C 581.215 5.66272 0.90134 0
M  V30 6070 N 580.711 6.86323 0.945118 0
M  V30 6071 N 582.504 5.54201 0.939043 0
M  V30 6072 H 574.655 2.01406 -0.674493 0
M  V30 6073 H 576.918 0.916828 -0.241103 0
M  V30 6074 H 576.624 3.50334 -0.309633 0
M  V30 6075 H 576.498 3.4861 1.44051 0
M  V30 6076 H 578.885 2.50206 1.56465 0
M  V30 6077 H 578.966 2.54999 -0.202262 0
M  V30 6078 H 578.61 5.07739 -0.12774 0
M  V30 6079 H 578.54 5.00058 1.65074 0
M  V30 6080 H 581.031 3.69452 0.794594 0
M  V30 6081 H 581.344 7.66194 1.0083 0
M  V30 6082 H 579.689 6.88968 0.913683 0
M  V30 6083 H 582.88 4.59333 0.901725 0
M  V30 6084 H 583.053 6.40247 0.999402 0
M  V30 6085 N 576.459 -0.456382 1.50847 0
M  V30 6086 C 577.406 -1.55249 1.70782 0
M  V30 6087 C 578.376 -1.56757 0.549231 0
M  V30 6088 O 579.561 -1.74061 0.7815 0
M  V30 6089 C 576.701 -2.93118 1.82143 0
M  V30 6090 C 575.814 -3.01285 3.09598 0
M  V30 6091 C 574.949 -4.30159 3.11667 0
M  V30 6092 C 573.988 -4.32124 4.33515 0
M  V30 6093 N 573.125 -5.52492 4.3324 0
M  V30 6094 H 577.965 -1.37555 2.64353 0
M  V30 6095 H 575.502 -0.668543 1.3103 0
M  V30 6096 H 577.46 -3.73088 1.86711 0
M  V30 6097 H 576.09 -3.09413 0.919978 0
M  V30 6098 H 575.142 -2.14096 3.14431 0
M  V30 6099 H 576.454 -2.98597 3.99551 0
M  V30 6100 H 575.608 -5.18489 3.15046 0
M  V30 6101 H 574.347 -4.35477 2.1957 0
M  V30 6102 H 573.352 -3.42189 4.30333 0
M  V30 6103 H 574.577 -4.28485 5.26856 0
M  V30 6104 H 572.523 -5.58567 3.44004 0
M  V30 6105 H 572.44 -5.51605 5.16979 0
M  V30 6106 H 573.708 -6.42906 4.40786 0
M  V30 6107 N 577.937 -1.40673 -0.710563 0
M  V30 6108 C 579.162 -1.42741 -1.50465 0
M  V30 6109 C 579.587 -0.0302116 -1.88076 0
M  V30 6110 O 578.945 0.962945 -1.53613 0
M  V30 6111 C 578.993 -2.32873 -2.75322 0
M  V30 6112 O 578.097 -1.77544 -3.72226 0
M  V30 6113 H 577.438 -0.485056 -0.45345 0
M  V30 6114 H 579.968 -1.84961 -0.874681 0
M  V30 6115 H 579.978 -2.48233 -3.23797 0
M  V30 6116 H 578.653 -3.34401 -2.47283 0
M  V30 6117 H 577.23 -1.71556 -3.31093 0
M  V30 6118 N 579.415 0.9433 -1.26252 0
M  V30 6119 C 580.362 2.0417 -1.07625 0
M  V30 6120 C 581.332 1.6609 0.0180738 0
M  V30 6121 O 582.517 1.90276 -0.141289 0
M  V30 6122 C 579.657 3.37653 -0.713043 0
M  V30 6123 C 578.77 3.88783 -1.8834 0
M  V30 6124 C 577.905 5.10642 -1.4635 0
M  V30 6125 C 576.944 5.54028 -2.60229 0
M  V30 6126 N 576.081 6.67092 -2.18936 0
M  V30 6127 H 580.921 2.19436 -2.01623 0
M  V30 6128 H 578.458 1.07519 -1.00389 0
M  V30 6129 H 580.416 4.14391 -0.483358 0
M  V30 6130 H 579.046 3.22241 0.18996 0
M  V30 6131 H 578.098 3.08464 -2.22608 0
M  V30 6132 H 579.41 4.16922 -2.73821 0
M  V30 6133 H 578.564 5.94832 -1.19414 0
M  V30 6134 H 577.303 4.84244 -0.579568 0
M  V30 6135 H 576.308 4.68396 -2.87898 0
M  V30 6136 H 577.533 5.82429 -3.49219 0
M  V30 6137 H 575.479 6.42381 -1.32974 0
M  V30 6138 H 575.396 6.94806 -2.97961 0
M  V30 6139 H 576.664 7.54662 -1.95206 0
M  V30 6140 N 580.893 1.08022 1.14757 0
M  V30 6141 C 581.823 0.728248 2.21853 0
M  V30 6142 C 582.804 -0.287486 1.67653 0
M  V30 6143 O 583.989 -0.158727 1.9355 0
M  V30 6144 C 581.119 0.132549 3.47047 0
M  V30 6145 C 580.073 1.07619 4.14249 0
M  V30 6146 C 579.399 0.342907 5.33599 0
M  V30 6147 C 580.699 2.41268 4.63235 0
M  V30 6148 H 582.393 1.62365 2.51551 0
M  V30 6149 H 579.939 0.782125 1.20908 0
M  V30 6150 H 581.892 -0.125665 4.21213 0
M  V30 6151 H 580.616 -0.797971 3.16702 0
M  V30 6152 H 579.275 1.31944 3.42033 0
M  V30 6153 H 578.923 -0.59129 4.99513 0
M  V30 6154 H 578.623 0.971955 5.79506 0
M  V30 6155 H 580.147 0.0926538 6.1053 0
M  V30 6156 H 581.561 2.21232 5.28894 0
M  V30 6157 H 579.958 2.9983 5.19829 0
M  V30 6158 H 581.028 3.03079 3.78512 0
M  V30 6159 O 582.41 -1.2689 0.999054 0
M  V30 6160 H 583.101 -1.82419 0.651387 0
M  V30 END ATOM
M  V30 BEGIN BOND
M  V30 END BOND
M  V30 END CTAB
M  END
$$$$
