drugbank_target|O75533 Splicing factor 3B subunit 1 (DB14017)
 OpenBabel12092121133D

  0  0  0     0  0            999 V3000
M  V30 BEGIN CTAB
M  V30 COUNTS 20573 20795 0 0 0
M  V30 BEGIN ATOM
M  V30 1 H -0.908 1.98254 -0.117106 0
M  V30 2 N 0 1.576 0 0
M  V30 3 C 0.933 2.03868 1.02534 0
M  V30 4 C 1.911 0.928543 1.3348 0
M  V30 5 O 3.095 1.19667 1.45644 0
M  V30 6 C 0.222 2.43627 2.35294 0
M  V30 7 C -0.732 3.65373 2.2001 0
M  V30 8 S 0.101 5.13292 1.52614 0
M  V30 9 C 1.257 5.56322 2.86805 0
M  V30 10 H 1.49 2.90518 0.631377 0
M  V30 11 H -0.977 1.52953 0.210867 0
M  V30 12 H 0.981 2.67203 3.11629 0
M  V30 13 H -0.358 1.57376 2.7183 0
M  V30 14 H -1.165 3.90944 3.18086 0
M  V30 15 H -1.563 3.418 1.51819 0
M  V30 16 H 0.729 5.58782 3.83104 0
M  V30 17 H 1.672 6.56266 2.65933 0
M  V30 18 H 2.08 4.83886 2.90714 0
M  V30 19 N 1.4781 -0.272755 1.55222 0
M  V30 20 C 2.4411 -1.32041 1.87344 0
M  V30 21 C 3.4411 -1.42342 0.74803 0
M  V30 22 O 4.6311 -1.41488 1.0162 0
M  V30 23 C 1.7631 -2.70173 2.07893 0
M  V30 24 H 2.9561 -1.04789 2.80997 0
M  V30 25 H 0.5091 -0.51083 1.47717 0
M  V30 26 H 1.2441 -3.02605 1.16622 0
M  V30 27 H 1.0291 -2.64082 2.89833 0
M  V30 28 H 2.5191 -3.45869 2.34017 0
M  V30 29 N 2.9562 -1.48159 -0.537278 0
M  V30 30 C 3.9032 -1.62138 -1.64256 0
M  V30 31 C 4.8732 -0.463668 -1.59497 0
M  V30 32 O 6.0582 -0.686241 -1.78032 0
M  V30 33 C 3.1982 -1.66028 -3.02537 0
M  V30 34 C 2.3112 -2.92855 -3.17585 0
M  V30 35 C 1.4462 -2.87952 -4.46382 0
M  V30 36 C 0.4852 -4.09516 -4.54932 0
M  V30 37 N -0.3778 -4.02733 -5.75109 0
M  V30 38 H 4.4622 -2.56529 -1.51647 0
M  V30 39 H 1.9992 -1.27224 -0.738414 0
M  V30 40 H 3.9572 -1.66265 -3.82638 0
M  V30 41 H 2.5872 -0.751331 -3.13934 0
M  V30 42 H 1.6392 -3.02395 -2.30784 0
M  V30 43 H 2.9512 -3.82822 -3.19764 0
M  V30 44 H 2.1052 -2.8655 -5.34765 0
M  V30 45 H 0.8442 -1.95702 -4.46712 0
M  V30 46 H -0.1508 -4.11201 -3.64957 0
M  V30 47 H 1.0742 -5.02917 -4.56346 0
M  V30 48 H -0.9798 -3.13299 -5.76351 0
M  V30 49 H -1.0628 -4.86397 -5.78752 0
M  V30 50 H 0.2052 -4.05379 -6.65799 0
M  V30 51 N 4.4343 0.785586 -1.36625 0
M  V30 52 C 5.6833 1.53883 -1.30396 0
M  V30 53 C 5.9963 1.95271 0.113452 0
M  V30 54 O 7.2023 2.69858 0.298142 0
M  V30 55 C 5.6583 2.77808 -2.28802 0
M  V30 56 C 5.2663 2.43574 -3.75999 0
M  V30 57 C 7.0103 3.55783 -2.31558 0
M  V30 58 C 4.9173 3.63919 -4.66173 0
M  V30 59 H 3.8473 0.577678 -0.484566 0
M  V30 60 H 6.4983 0.861705 -1.62009 0
M  V30 61 H 4.8803 3.47339 -1.90188 0
M  V30 62 H 6.0543 1.81916 -4.23371 0
M  V30 63 H 4.3693 1.78803 -3.76056 0
M  V30 64 H 6.9663 4.45205 -2.96137 0
M  V30 65 H 7.3093 3.94644 -1.3252 0
M  V30 66 H 7.8423 2.93235 -2.68809 0
M  V30 67 H 4.5813 3.3015 -5.66287 0
M  V30 68 H 4.1013 4.2473 -4.23515 0
M  V30 69 H 5.7803 4.30901 -4.82632 0
M  V30 70 N 5.9124 1.20967 1.01018 0
M  V30 71 C 6.8754 0.965918 2.07853 0
M  V30 72 C 7.8754 -0.0610545 1.60684 0
M  V30 73 O 9.0654 0.175681 1.73312 0
M  V30 74 C 6.1974 0.455513 3.37843 0
M  V30 75 H 7.3904 1.91365 2.3091 0
M  V30 76 H 4.9434 1.02594 1.17916 0
M  V30 77 H 5.6784 -0.497381 3.20463 0
M  V30 78 H 5.4634 1.19622 3.73407 0
M  V30 79 H 6.9534 0.304667 4.16487 0
M  V30 80 N 7.3905 -1.2043 1.01659 0
M  V30 81 C 8.3375 -2.23215 0.586822 0
M  V30 82 C 9.3075 -1.61382 -0.393085 0
M  V30 83 O 10.4925 -1.88544 -0.292525 0
M  V30 84 C 7.6325 -3.45032 -0.0687464 0
M  V30 85 C 6.7455 -4.21296 0.955724 0
M  V30 86 C 5.8805 -5.30507 0.271208 0
M  V30 87 C 4.9195 -5.98515 1.28244 0
M  V30 88 N 4.0565 -6.99316 0.62459 0
M  V30 89 H 8.8965 -2.59336 1.46796 0
M  V30 90 H 6.4335 -1.27431 0.734836 0
M  V30 91 H 8.3915 -4.1459 -0.465965 0
M  V30 92 H 7.0215 -3.09604 -0.913529 0
M  V30 93 H 6.0735 -3.50803 1.4711 0
M  V30 94 H 7.3855 -4.6803 1.72479 0
M  V30 95 H 6.5395 -6.06428 -0.18151 0
M  V30 96 H 5.2785 -4.8481 -0.530163 0
M  V30 97 H 4.2835 -5.21355 1.74554 0
M  V30 98 H 5.5085 -6.46298 2.08509 0
M  V30 99 H 3.4545 -6.55812 -0.156914 0
M  V30 100 H 3.3715 -7.44178 1.33172 0
M  V30 101 H 4.6395 -7.79255 0.195462 0
M  V30 102 N 8.8686 -0.792821 -1.36206 0
M  V30 103 C 10.0966 -0.378825 -2.03402 0
M  V30 104 C 10.5116 1.00586 -1.59774 0
M  V30 105 O 9.8686 1.64574 -0.788764 0
M  V30 106 C 9.9196 -0.43683 -3.58851 0
M  V30 107 O 9.6406 -1.76691 -4.00889 0
M  V30 108 C 11.1416 -0.0138943 -4.43298 0
M  V30 109 H 8.3616 -0.155673 -0.652692 0
M  V30 110 H 10.9056 -1.07261 -1.74113 0
M  V30 111 H 9.0606 0.208575 -3.86838 0
M  V30 112 H 9.4746 -1.72011 -4.95492 0
M  V30 113 H 10.9486 -0.105615 -5.51899 0
M  V30 114 H 11.4256 1.03915 -4.2673 0
M  V30 115 H 12.0316 -0.63192 -4.20579 0
M  V30 116 N 10.3467 1.47872 -0.545128 0
M  V30 117 C 11.2967 2.26842 0.229456 0
M  V30 118 C 12.2807 1.33626 0.896267 0
M  V30 119 O 13.4727 1.58063 0.79657 0
M  V30 120 C 10.6017 3.19089 1.26638 0
M  V30 121 C 9.6877 4.19783 0.603598 0
M  V30 122 N 10.0787 5.0479 -0.319405 0
M  V30 123 C 8.3767 4.3765 0.858989 0
M  V30 124 C 9.0777 5.77433 -0.703241 0
M  V30 125 N 8.0537 5.43566 -0.0608309 0
M  V30 126 H 11.8557 2.89947 -0.480391 0
M  V30 127 H 9.3697 1.58263 -0.364209 0
M  V30 128 H 11.3667 3.74337 1.83515 0
M  V30 129 H 10.0267 2.5754 1.97745 0
M  V30 130 H 11.0377 5.13244 -0.692889 0
M  V30 131 H 7.7147 3.87281 1.55948 0
M  V30 132 H 9.1047 6.55824 -1.46098 0
M  V30 133 N 11.8248 0.280983 1.55075 0
M  V30 134 C 12.7348 -0.61388 2.26426 0
M  V30 135 C 13.7508 -1.16521 1.29224 0
M  V30 136 O 14.9268 -1.19426 1.62171 0
M  V30 137 C 11.9918 -1.7788 2.9759 0
M  V30 138 C 11.0528 -1.26355 4.10284 0
M  V30 139 C 10.2858 -2.37295 4.78045 0
M  V30 140 O 10.5088 -3.56777 4.45047 0
M  V30 141 O 9.4428 -2.05119 5.65871 0
M  V30 142 H 13.2688 -0.0356932 3.03679 0
M  V30 143 H 10.8538 0.0481686 1.49322 0
M  V30 144 H 12.7358 -2.45791 3.42293 0
M  V30 145 H 11.4108 -2.34397 2.23249 0
M  V30 146 H 10.3178 -0.550735 3.70024 0
M  V30 147 H 11.6508 -0.744065 4.86543 0
M  V30 148 N 13.3029 -1.57598 0.00835791 0
M  V30 149 C 14.5799 -1.82172 -0.712235 0
M  V30 150 C 14.9599 -0.887873 -1.9152 0
M  V30 151 O 14.3079 0.06146 -2.28417 0
M  V30 152 C 14.5179 -3.30875 -1.11008 0
M  V30 153 C 15.8659 -3.96826 -1.51044 0
M  V30 154 O 16.8899 -3.35248 -1.20364 0
M  V30 155 O 15.7489 -5.05318 -2.08125 0
M  V30 156 H 12.8429 -0.750435 -0.347529 0
M  V30 157 H 15.3889 -1.69665 0.0344523 0
M  V30 158 H 14.1609 -3.90481 -0.252982 0
M  V30 159 H 13.7839 -3.48412 -1.9156 0
M  V30 160 N 14.781 0.264519 -1.55364 0
M  V30 161 C 16.03 0.992812 -1.75574 0
M  V30 162 C 16.343 1.87142 -0.568979 0
M  V30 163 O 17.549 2.63513 -0.653682 0
M  V30 164 C 16.005 1.81519 -3.10771 0
M  V30 165 C 15.613 0.984839 -4.37041 0
M  V30 166 C 17.357 2.53727 -3.40327 0
M  V30 167 C 15.264 1.80209 -5.63275 0
M  V30 168 H 14.194 0.374412 -0.65447 0
M  V30 169 H 16.845 0.248138 -1.81815 0
M  V30 170 H 15.227 2.60115 -2.98591 0
M  V30 171 H 16.401 0.242455 -4.60162 0
M  V30 172 H 14.716 0.37691 -4.14691 0
M  V30 173 H 17.313 3.15292 -4.3185 0
M  V30 174 H 17.656 3.24447 -2.60845 0
M  V30 175 H 18.189 1.82156 -3.53644 0
M  V30 176 H 14.928 1.13896 -6.45529 0
M  V30 177 H 14.448 2.52022 -5.44284 0
M  V30 178 H 16.127 2.37364 -6.01887 0
M  V30 179 N 16.2591 1.48442 0.529413 0
M  V30 180 C 17.1691 1.6569 1.66084 0
M  V30 181 C 18.1851 0.539432 1.65427 0
M  V30 182 O 19.3611 0.810572 1.84368 0
M  V30 183 C 16.4261 1.69315 3.02545 0
M  V30 184 C 15.4871 2.92694 3.14052 0
M  V30 185 C 14.7201 2.96137 4.44003 0
M  V30 186 O 14.9431 2.07973 5.31134 0
M  V30 187 O 13.8771 3.88312 4.59888 0
M  V30 188 H 17.7031 2.61483 1.54469 0
M  V30 189 H 15.2881 1.3185 0.702567 0
M  V30 190 H 17.1701 1.74217 3.83701 0
M  V30 191 H 15.8451 0.766966 3.14483 0
M  V30 192 H 14.7521 2.93324 2.32189 0
M  V30 193 H 16.0851 3.84699 3.0703 0
M  V30 194 N 17.7372 -0.778329 1.37039 0
M  V30 195 C 18.7002 -1.87301 1.32102 0
M  V30 196 C 19.7002 -1.59198 0.226405 0
M  V30 197 O 20.8902 -1.67403 0.481861 0
M  V30 198 C 18.0222 -3.24309 1.05055 0
M  V30 199 H 19.2152 -1.93093 2.29467 0
M  V30 200 H 16.7682 -0.977358 1.21973 0
M  V30 201 H 17.5032 -3.24196 0.0819373 0
M  V30 202 H 17.2882 -3.46098 1.84279 0
M  V30 203 H 18.7782 -4.04382 1.04234 0
M  V30 204 N 19.2153 -1.21501 -1.00376 0
M  V30 205 C 20.1473 -0.933174 -2.09343 0
M  V30 206 C 21.1603 0.0840896 -1.62583 0
M  V30 207 O 22.3493 -0.148563 -1.77881 0
M  V30 208 C 19.4493 -0.379869 -3.36764 0
M  V30 209 C 18.6223 -1.45176 -4.12605 0
M  V30 210 C 17.6813 -0.907476 -5.18316 0
M  V30 211 O 16.7073 -1.5912 -5.46507 0
M  V30 212 N 17.9093 0.276649 -5.7984 0
M  V30 213 H 20.6743 -1.87124 -2.34104 0
M  V30 214 H 18.2353 -1.12043 -1.16867 0
M  V30 215 H 20.2273 -0.00131488 -4.047 0
M  V30 216 H 18.7973 0.463048 -3.09151 0
M  V30 217 H 18.0173 -2.00411 -3.39454 0
M  V30 218 H 19.3053 -2.17328 -4.6005 0
M  V30 219 H 18.7033 0.849147 -5.59291 0
M  V30 220 H 17.2603 0.596702 -6.49063 0
M  V30 221 N 20.6934 1.19889 -1.02296 0
M  V30 222 C 21.9424 1.88743 -0.711257 0
M  V30 223 C 22.2554 1.80112 0.762817 0
M  V30 224 O 23.4614 2.44161 1.18733 0
M  V30 225 C 21.9174 3.38525 -1.22185 0
M  V30 226 C 21.5254 3.55727 -2.72328 0
M  V30 227 C 23.2694 4.12893 -0.985864 0
M  V30 228 C 21.1764 4.99369 -3.16835 0
M  V30 229 H 20.1064 0.706885 -0.262353 0
M  V30 230 H 22.7574 1.35586 -1.23648 0
M  V30 231 H 21.1394 3.91044 -0.624571 0
M  V30 232 H 22.3134 3.13564 -3.3766 0
M  V30 233 H 20.6284 2.94739 -2.9414 0
M  V30 234 H 23.2254 5.18813 -1.29374 0
M  V30 235 H 23.5684 4.16228 0.0775055 0
M  V30 236 H 24.1014 3.66494 -1.54684 0
M  V30 237 H 20.8404 5.01193 -4.22476 0
M  V30 238 H 20.3604 5.42317 -2.56228 0
M  V30 239 H 22.0394 5.67988 -3.09837 0
M  V30 240 N 22.1715 0.800033 1.35784 0
M  V30 241 C 23.5875 0.482977 1.52117 0
M  V30 242 C 23.7875 -0.996948 1.75109 0
M  V30 243 O 22.8435 -1.78216 1.78872 0
M  V30 244 C 24.1565 1.32264 2.70049 0
M  V30 245 C 25.7045 1.31742 2.83924 0
M  V30 246 C 26.1795 2.14106 4.04874 0
M  V30 247 N 27.6705 2.11607 4.12039 0
M  V30 248 C 28.4055 2.72099 5.04727 0
M  V30 249 N 27.9015 3.41492 6.02789 0
M  V30 250 N 29.6945 2.61776 4.97423 0
M  V30 251 H 21.8455 1.75856 1.19115 0
M  V30 252 H 24.1085 0.748122 0.582252 0
M  V30 253 H 23.8145 2.37261 2.59616 0
M  V30 254 H 23.6885 0.971303 3.6448 0
M  V30 255 H 26.0755 0.275333 2.93813 0
M  V30 256 H 26.1565 1.70859 1.9037 0
M  V30 257 H 25.8005 3.18351 3.95746 0
M  V30 258 H 25.7305 1.72353 4.97596 0
M  V30 259 H 28.2215 1.61112 3.41835 0
M  V30 260 H 28.5345 3.84953 6.70098 0
M  V30 261 H 26.8795 3.45596 6.02983 0
M  V30 262 H 30.0705 2.07157 4.19766 0
M  V30 263 H 30.2435 3.0921 5.69468 0
M  V30 264 N 23.6496 -1.47581 0.552962 0
M  V30 265 C 24.5596 -2.33743 -0.200353 0
M  V30 266 C 25.5756 -1.47928 -0.916151 0
M  V30 267 O 26.7516 -1.80865 -0.885993 0
M  V30 268 C 23.8166 -3.24536 -1.21973 0
M  V30 269 C 22.8776 -4.26238 -0.511819 0
M  V30 270 C 22.1106 -5.12693 -1.48263 0
M  V30 271 O 22.3336 -5.01525 -2.71714 0
M  V30 272 O 21.2676 -5.93375 -1.00945 0
M  V30 273 H 25.0936 -2.9945 0.506304 0
M  V30 274 H 22.6786 -1.46071 0.313622 0
M  V30 275 H 24.5606 -3.80631 -1.80827 0
M  V30 276 H 23.2356 -2.61462 -1.90839 0
M  V30 277 H 22.1426 -3.73914 0.117799 0
M  V30 278 H 23.4756 -4.92014 0.135308 0
M  V30 279 N 25.1277 -0.289203 -1.54924 0
M  V30 280 C 26.3767 0.324231 -1.99077 0
M  V30 281 C 26.6897 1.5591 -1.18117 0
M  V30 282 O 27.8957 2.24637 -1.52481 0
M  V30 283 C 26.3517 0.628209 -3.54375 0
M  V30 284 C 25.9597 -0.587647 -4.44129 0
M  V30 285 C 27.7037 1.20349 -4.07083 0
M  V30 286 C 25.6107 -0.257475 -5.90839 0
M  V30 287 H 24.5407 0.124924 -0.743579 0
M  V30 288 H 27.1917 -0.396063 -1.79175 0
M  V30 289 H 25.5737 1.40778 -3.70132 0
M  V30 290 H 26.7477 -1.36418 -4.40144 0
M  V30 291 H 25.0627 -1.08074 -4.0213 0
M  V30 292 H 27.6597 1.46456 -5.14252 0
M  V30 293 H 28.0027 2.14195 -3.56968 0
M  V30 294 H 28.5357 0.485889 -3.94821 0
M  V30 295 H 25.2747 -1.16419 -6.45079 0
M  V30 296 H 24.7947 0.482018 -5.9786 0
M  V30 297 H 26.4737 0.145238 -6.46837 0
M  V30 298 N 26.6058 1.57591 -0.0167156 0
M  V30 299 C 27.5378 2.06343 0.997753 0
M  V30 300 C 28.5508 0.984469 1.29661 0
M  V30 301 O 29.7398 1.26093 1.26344 0
M  V30 302 C 26.8398 2.46255 2.32834 0
M  V30 303 C 26.0128 3.77083 2.21646 0
M  V30 304 C 25.0718 4.0368 3.37534 0
M  V30 305 O 24.0978 4.7411 3.14973 0
M  V30 306 N 25.2998 3.52881 4.60929 0
M  V30 307 H 28.0648 2.93997 0.581875 0
M  V30 308 H 25.6258 1.61002 0.170316 0
M  V30 309 H 27.6178 2.61149 3.09166 0
M  V30 310 H 26.1878 1.64032 2.66106 0
M  V30 311 H 25.4078 3.72106 1.30119 0
M  V30 312 H 26.6958 4.62822 2.11361 0
M  V30 313 H 26.0938 2.95878 4.82154 0
M  V30 314 H 24.6508 3.73076 5.34469 0
M  V30 315 N 28.0839 -0.256276 1.55502 0
M  V30 316 C 29.3319 -0.983672 1.76545 0
M  V30 317 C 29.6529 -1.86206 0.578982 0
M  V30 318 O 28.9229 -1.91656 -0.405577 0
M  V30 319 H 27.5029 -0.366191 0.651086 0
M  V30 320 H 30.1649 -0.276479 1.92929 0
M  V30 321 H 29.2609 -1.61087 2.67315 0
M  V30 322 N 29.562 -1.4872 -0.521534 0
M  V30 323 C 30.509 -1.63871 -1.62527 0
M  V30 324 C 31.479 -0.480559 -1.58996 0
M  V30 325 O 32.664 -0.705085 -1.77294 0
M  V30 326 C 29.804 -1.69227 -3.00759 0
M  V30 327 C 28.917 -2.96207 -3.14461 0
M  V30 328 C 28.052 -2.92671 -4.43303 0
M  V30 329 C 27.091 -4.14318 -4.50563 0
M  V30 330 N 26.228 -4.0881 -5.70805 0
M  V30 331 H 31.068 -2.58123 -1.48918 0
M  V30 332 H 28.605 -1.28 -0.724878 0
M  V30 333 H 30.563 -1.70314 -3.80853 0
M  V30 334 H 29.193 -0.784586 -3.1312 0
M  V30 335 H 28.245 -3.04826 -2.27564 0
M  V30 336 H 29.557 -3.86192 -3.15686 0
M  V30 337 H 28.711 -2.92206 -5.31696 0
M  V30 338 H 27.45 -2.00429 -4.44612 0
M  V30 339 H 26.455 -4.15049 -3.60575 0
M  V30 340 H 27.68 -5.07729 -4.50986 0
M  V30 341 H 25.626 -3.19394 -5.72995 0
M  V30 342 H 25.543 -4.92509 -5.7356 0
M  V30 343 H 26.811 -4.12418 -6.61462 0
M  V30 344 N 31.0401 0.771051 -1.3745 0
M  V30 345 C 31.9871 1.88435 -1.3327 0
M  V30 346 C 32.9571 1.64914 -0.198136 0
M  V30 347 O 34.1421 1.86821 -0.387606 0
M  V30 348 C 31.2821 3.25509 -1.14622 0
M  V30 349 C 30.3951 3.60979 -2.37314 0
M  V30 350 C 29.5301 4.87265 -2.11533 0
M  V30 351 C 28.5691 5.15469 -3.30088 0
M  V30 352 N 27.7061 6.32944 -3.03853 0
M  V30 353 H 32.5461 1.91344 -2.28455 0
M  V30 354 H 30.0831 0.935466 -1.13523 0
M  V30 355 H 32.0411 4.04582 -1.01831 0
M  V30 356 H 30.6711 3.21974 -0.230837 0
M  V30 357 H 29.7231 2.76885 -2.60842 0
M  V30 358 H 31.0351 3.77759 -3.25729 0
M  V30 359 H 30.1891 5.74244 -1.95777 0
M  V30 360 H 28.9281 4.7259 -1.20457 0
M  V30 361 H 27.9331 4.26966 -3.46382 0
M  V30 362 H 29.1581 5.32052 -4.22016 0
M  V30 363 H 27.1041 6.19625 -2.15407 0
M  V30 364 H 27.0211 6.50143 -3.85812 0
M  V30 365 H 28.2891 7.22857 -2.91716 0
M  V30 366 N 32.5182 1.22032 0.997298 0
M  V30 367 C 33.4812 0.987909 2.06816 0
M  V30 368 C 34.4812 -0.0440084 1.6074 0
M  V30 369 O 35.6712 0.194053 1.73116 0
M  V30 370 C 32.8032 0.49132 3.37341 0
M  V30 371 H 33.9962 1.93803 2.28868 0
M  V30 372 H 31.5492 1.03838 1.16822 0
M  V30 373 H 32.2842 -0.463364 3.20973 0
M  V30 374 H 32.0692 1.23575 3.72118 0
M  V30 375 H 33.5592 0.348824 4.16141 0
M  V30 376 N 33.9963 -1.19345 1.0293 0
M  V30 377 C 34.9593 -2.20793 0.615069 0
M  V30 378 C 35.9593 -1.57553 -0.321533 0
M  V30 379 O 37.1493 -1.73862 -0.108483 0
M  V30 380 C 34.2813 -3.40754 -0.0999222 0
M  V30 381 H 35.4743 -2.58955 1.51269 0
M  V30 382 H 33.0273 -1.3303 0.820534 0
M  V30 383 H 33.7623 -3.0811 -1.01187 0
M  V30 384 H 33.5473 -3.87889 0.57309 0
M  V30 385 H 35.0373 -4.15898 -0.376645 0
M  V30 386 N 35.4744 -0.807222 -1.35358 0
M  V30 387 C 36.4044 -0.232509 -2.3234 0
M  V30 388 C 37.3854 0.642386 -1.57504 0
M  V30 389 O 38.5704 0.572526 -1.85569 0
M  V30 390 C 35.7004 0.619238 -3.41735 0
M  V30 391 C 34.6544 -0.157215 -4.27711 0
M  V30 392 C 33.9804 0.816273 -5.28433 0
M  V30 393 C 35.2804 -1.35656 -5.04376 0
M  V30 394 H 36.9744 -1.04276 -2.80654 0
M  V30 395 H 34.5204 -0.50288 -1.34934 0
M  V30 396 H 36.4734 1.03137 -4.08584 0
M  V30 397 H 35.1974 1.46239 -2.92031 0
M  V30 398 H 33.8564 -0.550525 -3.62443 0
M  V30 399 H 33.5044 1.65494 -4.74996 0
M  V30 400 H 33.2044 0.301067 -5.86828 0
M  V30 401 H 34.7284 1.22659 -5.98153 0
M  V30 402 H 36.1424 -1.01927 -5.64166 0
M  V30 403 H 34.5394 -1.8063 -5.7227 0
M  V30 404 H 35.6094 -2.14288 -4.34981 0
M  V30 405 N 36.9525 1.47285 -0.560781 0
M  V30 406 C 38.2295 1.9558 0.0277798 0
M  V30 407 C 38.6095 1.5034 1.48192 0
M  V30 408 O 37.9575 0.743882 2.16052 0
M  V30 409 C 38.1675 3.48789 -0.121418 0
M  V30 410 C 39.5155 4.24594 0.0220912 0
M  V30 411 O 40.5395 3.56166 -0.0491439 0
M  V30 412 O 39.3985 5.46217 0.175958 0
M  V30 413 H 36.4925 0.824663 0.0621342 0
M  V30 414 H 39.0385 1.5767 -0.627556 0
M  V30 415 H 37.8105 3.74533 -1.13316 0
M  V30 416 H 37.4335 3.93473 0.571366 0
M  V30 417 N 38.4306 0.297415 1.54768 0
M  V30 418 C 39.3406 -0.58983 2.27064 0
M  V30 419 C 40.3566 -1.15144 1.30453 0
M  V30 420 O 41.5326 -1.17699 1.63428 0
M  V30 421 C 38.5976 -1.74714 2.9946 0
M  V30 422 C 37.6586 -1.21997 4.11601 0
M  V30 423 C 36.8916 -2.32212 4.80535 0
M  V30 424 O 37.1146 -3.52036 4.48806 0
M  V30 425 O 36.0486 -1.99106 5.68014 0
M  V30 426 H 39.8746 -0.00348199 3.037 0
M  V30 427 H 37.4596 0.0640035 1.49263 0
M  V30 428 H 39.3416 -2.42147 3.44881 0
M  V30 429 H 38.0166 -2.32016 2.25722 0
M  V30 430 H 36.9236 -0.511458 3.70587 0
M  V30 431 H 38.2566 -0.692419 4.87305 0
M  V30 432 N 39.9087 -1.5758 0.0250728 0
M  V30 433 C 40.8717 -2.08896 -0.943139 0
M  V30 434 C 41.8717 -1.00321 -1.25668 0
M  V30 435 O 43.0617 -1.26495 -1.19769 0
M  V30 436 C 40.1937 -2.55143 -2.26086 0
M  V30 437 H 41.3867 -2.95723 -0.498775 0
M  V30 438 H 38.9397 -1.54703 -0.222888 0
M  V30 439 H 39.6747 -1.71633 -2.75159 0
M  V30 440 H 39.4597 -3.34461 -2.04641 0
M  V30 441 H 40.9497 -2.95083 -2.95492 0
M  V30 442 N 41.3868 0.248026 -1.55636 0
M  V30 443 C 42.3188 1.32993 -1.8667 0
M  V30 444 C 43.3318 1.44345 -0.752877 0
M  V30 445 O 44.5208 1.45715 -1.03098 0
M  V30 446 C 41.6208 2.70863 -2.03682 0
M  V30 447 C 40.7938 2.81792 -3.34532 0
M  V30 448 C 39.8528 4.005 -3.41301 0
M  V30 449 O 38.8788 3.9008 -4.14519 0
M  V30 450 N 40.0808 5.13618 -2.70512 0
M  V30 451 H 42.8458 1.06707 -2.8006 0
M  V30 452 H 40.4068 0.438129 -1.55859 0
M  V30 453 H 42.3988 3.48612 -2.05553 0
M  V30 454 H 40.9688 2.89862 -1.17041 0
M  V30 455 H 40.1888 1.90729 -3.44987 0
M  V30 456 H 41.4768 2.86043 -4.20781 0
M  V30 457 H 40.8748 5.24975 -2.10755 0
M  V30 458 H 39.4318 5.89505 -2.78077 0
M  V30 459 N 42.8649 1.48995 0.513639 0
M  V30 460 C 44.1129 1.57531 1.26604 0
M  V30 461 C 44.4339 0.258236 1.93283 0
M  V30 462 O 43.7039 -0.721502 1.8213 0
M  V30 463 H 42.2839 0.580387 0.470276 0
M  V30 464 H 44.9459 1.85552 0.596373 0
M  V30 465 H 44.0419 2.36486 2.03669 0
M  V30 466 N 44.343 -0.763751 1.37857 0
M  V30 467 C 45.589 -1.52483 1.33704 0
M  V30 468 C 45.922 -1.94051 -0.0759612 0
M  V30 469 O 45.197 -1.64675 -1.03501 0
M  V30 470 C 45.48 -2.78441 2.28348 0
M  V30 471 C 45.333 -2.43075 3.78463 0
M  V30 472 C 46.652 -3.80415 2.21298 0
M  V30 473 H 43.771 -0.553169 0.487005 0
M  V30 474 H 46.413 -0.875562 1.68624 0
M  V30 475 H 44.563 -3.33842 1.987 0
M  V30 476 H 46.235 -1.93527 4.18742 0
M  V30 477 H 44.478 -1.75666 3.96641 0
M  V30 478 H 45.149 -3.33149 4.40132 0
M  V30 479 H 47.625 -3.34527 2.47449 0
M  V30 480 H 46.501 -4.66257 2.89647 0
M  V30 481 H 46.762 -4.25262 1.20849 0
M  V30 482 N 45.8211 -1.22559 -0.990812 0
M  V30 483 C 47.0691 -1.04933 -1.72724 0
M  V30 484 C 47.3901 0.416158 -1.90508 0
M  V30 485 O 46.6601 1.29918 -1.46622 0
M  V30 486 H 45.2401 -0.385296 -0.639965 0
M  V30 487 H 47.9021 -1.54105 -1.19322 0
M  V30 488 H 46.9981 -1.52886 -2.72089 0
M  V30 489 N 47.2992 1.18797 -1.03562 0
M  V30 490 C 48.2292 2.24472 -0.643019 0
M  V30 491 C 49.2102 1.66433 0.351283 0
M  V30 492 O 50.3952 1.92803 0.232505 0
M  V30 493 C 47.5252 3.473 4.24935e-05 0
M  V30 494 C 46.4792 4.18055 -0.917257 0
M  V30 495 C 45.8052 5.34519 -0.138941 0
M  V30 496 C 47.1052 4.72109 -2.23407 0
M  V30 497 H 48.7992 2.57566 -1.52643 0
M  V30 498 H 46.3452 1.23806 -0.735394 0
M  V30 499 H 48.2982 4.20426 0.286383 0
M  V30 500 H 47.0222 3.13424 0.918299 0
M  V30 501 H 45.6812 3.46821 -1.1879 0
M  V30 502 H 45.3292 4.96891 0.781562 0
M  V30 503 H 45.0292 5.82794 -0.750005 0
M  V30 504 H 46.5532 6.10438 0.1405 0
M  V30 505 H 47.9672 5.36955 -2.00879 0
M  V30 506 H 46.3642 5.30897 -2.79765 0
M  V30 507 H 47.4342 3.89807 -2.88407 0
M  V30 508 N 48.7773 0.814389 1.34928 0
M  V30 509 C 50.0543 0.321363 1.92942 0
M  V30 510 C 50.4343 -1.19014 1.74353 0
M  V30 511 O 49.7823 -1.99328 1.11716 0
M  V30 512 C 49.9923 0.741323 3.41036 0
M  V30 513 C 51.3403 0.735266 4.18185 0
M  V30 514 O 52.3643 0.68336 3.49584 0
M  V30 515 O 51.2233 0.800703 5.40602 0
M  V30 516 H 48.3173 0.0858893 0.822528 0
M  V30 517 H 50.8633 0.898609 1.43955 0
M  V30 518 H 49.6353 1.78276 3.4833 0
M  V30 519 H 49.2583 0.139307 3.97356 0
M  V30 520 N 50.2554 -1.46986 0.568584 0
M  V30 521 C 51.4804 -2.07335 0.0520528 0
M  V30 522 C 51.9054 -1.41675 -1.23733 0
M  V30 523 O 51.2634 -0.495623 -1.74394 0
M  V30 524 C 51.3114 -3.60417 -0.11501 0
M  V30 525 O 50.4154 -3.95309 -1.17492 0
M  V30 526 H 49.7564 -0.661597 0.0564385 0
M  V30 527 H 52.2864 -1.88837 0.787507 0
M  V30 528 H 52.2964 -4.06698 -0.325644 0
M  V30 529 H 50.9714 -4.07601 0.826675 0
M  V30 530 H 49.5484 -3.60757 -0.943869 0
M  V30 531 N 51.7335 -0.305618 -1.54608 0
M  V30 532 C 52.9615 0.304775 -2.04643 0
M  V30 533 C 53.3765 1.47167 -1.18268 0
M  V30 534 O 52.7335 1.81296 -0.209328 0
M  V30 535 C 52.7845 0.756564 -3.53495 0
M  V30 536 O 52.5055 -0.36389 -4.36586 0
M  V30 537 C 54.0065 1.43163 -4.19546 0
M  V30 538 H 51.2265 0.0655481 -0.667791 0
M  V30 539 H 53.7705 -0.446592 -1.99564 0
M  V30 540 H 51.9255 1.45794 -3.58919 0
M  V30 541 H 52.3395 -0.0113121 -5.24499 0
M  V30 542 H 53.8135 1.69886 -5.25207 0
M  V30 543 H 54.2905 2.37318 -3.69563 0
M  V30 544 H 54.8965 0.773307 -4.18211 0
M  V30 545 N 53.2116 1.57565 -0.0334293 0
M  V30 546 C 54.4596 1.91598 0.642999 0
M  V30 547 C 54.7806 0.910847 1.7242 0
M  V30 548 O 54.0506 -0.0469931 1.95844 0
M  V30 549 H 52.6306 0.707228 0.240496 0
M  V30 550 H 55.2926 1.94726 -0.0822488 0
M  V30 551 H 54.3886 2.92336 1.09298 0
M  V30 552 N 54.6897 -0.239769 1.55765 0
M  V30 553 C 55.9197 -0.982743 1.8173 0
M  V30 554 C 56.3277 -1.7917 0.607835 0
M  V30 555 O 55.6707 -1.78525 -0.432973 0
M  V30 556 C 55.7327 -1.96332 3.01155 0
M  V30 557 C 55.3967 -1.34062 4.36894 0
M  V30 558 C 56.3937 -0.739539 5.14613 0
M  V30 559 C 54.0787 -1.35784 4.83599 0
M  V30 560 C 56.0727 -0.163989 6.37189 0
M  V30 561 C 53.7597 -0.778441 6.06122 0
M  V30 562 C 54.7577 -0.182548 6.82756 0
M  V30 563 O 54.4457 0.387887 8.02964 0
M  V30 564 H 54.1777 -0.294481 0.608487 0
M  V30 565 H 56.7317 -0.26572 2.03674 0
M  V30 566 H 54.9617 -2.71884 2.74984 0
M  V30 567 H 56.6507 -2.57032 3.14149 0
M  V30 568 H 57.4167 -0.718687 4.79646 0
M  V30 569 H 53.2957 -1.81105 4.23936 0
M  V30 570 H 56.8397 0.301753 6.96947 0
M  V30 571 H 52.7367 -0.796645 6.40565 0
M  V30 572 H 53.5047 0.28044 8.18019 0
M  V30 573 N 56.1678 -1.49265 -0.50573 0
M  V30 574 C 57.3978 -1.61979 -1.28243 0
M  V30 575 C 57.8058 -0.288576 -1.86986 0
M  V30 576 O 57.1488 0.735408 -1.68337 0
M  V30 577 C 57.2108 -2.62632 -2.45489 0
M  V30 578 C 56.8748 -4.071 -2.07651 0
M  V30 579 C 57.8718 -4.94049 -1.61901 0
M  V30 580 C 55.5568 -4.52801 -2.17431 0
M  V30 581 C 57.5508 -6.24736 -1.26428 0
M  V30 582 C 55.2378 -5.83503 -1.8157 0
M  V30 583 C 56.2358 -6.69294 -1.36142 0
M  V30 584 O 55.9238 -7.9756 -1.00764 0
M  V30 585 H 55.6558 -0.54834 -0.395347 0
M  V30 586 H 58.2098 -1.96002 -0.614204 0
M  V30 587 H 56.4398 -2.2378 -3.15372 0
M  V30 588 H 58.1288 -2.64925 -3.07522 0
M  V30 589 H 58.8948 -4.5997 -1.53795 0
M  V30 590 H 54.7738 -3.86196 -2.51742 0
M  V30 591 H 58.3178 -6.91652 -0.908992 0
M  V30 592 H 54.2148 -6.17112 -1.89324 0
M  V30 593 H 54.9828 -8.10529 -1.13952 0
M  V30 594 N 57.6459 0.756429 -1.3826 0
M  V30 595 C 58.9229 1.50584 -1.24835 0
M  V30 596 C 59.3029 2.10556 0.151485 0
M  V30 597 O 58.6509 1.96825 1.1607 0
M  V30 598 C 58.8609 2.57448 -2.3563 0
M  V30 599 C 60.2089 3.24429 -2.73917 0
M  V30 600 O 61.2329 2.67751 -2.34921 0
M  V30 601 O 60.0919 4.26937 -3.41156 0
M  V30 602 H 57.1859 0.667664 -0.48801 0
M  V30 603 H 59.7319 0.792083 -1.5008 0
M  V30 604 H 58.5039 2.11362 -3.29305 0
M  V30 605 H 58.1269 3.36408 -2.11933 0
M  V30 606 N 59.124 1.23083 0.984299 0
M  V30 607 C 60.056 0.96636 2.07832 0
M  V30 608 C 61.069 -0.0582135 1.62696 0
M  V30 609 O 62.258 0.176843 1.77622 0
M  V30 610 C 59.358 0.433397 3.36117 0
M  V30 611 C 58.531 1.51722 4.10243 0
M  V30 612 C 57.59 0.989821 5.16807 0
M  V30 613 O 56.616 1.67794 5.43906 0
M  V30 614 N 57.818 -0.184367 5.80207 0
M  V30 615 H 60.583 1.90824 2.31098 0
M  V30 616 H 58.144 1.13888 1.1507 0
M  V30 617 H 60.136 0.065699 4.04647 0
M  V30 618 H 58.706 -0.413806 3.09849 0
M  V30 619 H 57.926 2.05786 3.36223 0
M  V30 620 H 59.214 2.24619 4.56534 0
M  V30 621 H 58.612 -0.760062 5.60571 0
M  V30 622 H 57.169 -0.493366 6.4993 0
M  V30 623 N 60.6021 -1.18246 1.0419 0
M  V30 624 C 61.5121 -2.25574 0.644476 0
M  V30 625 C 62.5281 -1.70845 -0.329826 0
M  V30 626 O 63.7041 -2.00554 -0.184443 0
M  V30 627 C 60.7691 -3.46697 0.014877 0
M  V30 628 C 59.8301 -4.16554 1.03834 0
M  V30 629 C 59.0631 -5.31894 0.438692 0
M  V30 630 O 59.2861 -5.65385 -0.754752 0
M  V30 631 O 58.2201 -5.90459 1.168 0
M  V30 632 H 62.0461 -2.61836 1.53869 0
M  V30 633 H 59.6311 -1.25352 0.812854 0
M  V30 634 H 61.5131 -4.20062 -0.335538 0
M  V30 635 H 60.1881 -3.12255 -0.853138 0
M  V30 636 H 59.0951 -3.45251 1.44057 0
M  V30 637 H 60.4281 -4.54998 1.87716 0
M  V30 638 N 62.0802 -0.821533 -1.34494 0
M  V30 639 C 63.3292 -0.405355 -1.97585 0
M  V30 640 C 63.6422 1.03677 -1.65863 0
M  V30 641 O 64.8482 1.55679 -2.22433 0
M  V30 642 C 63.3042 -0.673861 -3.53535 0
M  V30 643 C 62.9122 -2.12951 -3.94152 0
M  V30 644 C 64.6562 -0.32378 -4.23263 0
M  V30 645 C 62.5632 -2.34298 -5.43009 0
M  V30 646 H 61.4932 -0.147836 -0.739365 0
M  V30 647 H 64.1442 -1.00769 -1.53355 0
M  V30 648 H 62.5262 -0.00137554 -3.96 0
M  V30 649 H 63.7002 -2.84104 -3.62797 0
M  V30 650 H 62.0152 -2.44089 -3.37356 0
M  V30 651 H 64.6122 -0.461126 -5.32708 0
M  V30 652 H 64.9552 0.731586 -4.09821 0
M  V30 653 H 65.4882 -0.950786 -3.8627 0
M  V30 654 H 62.2272 -3.38335 -5.61435 0
M  V30 655 H 61.7472 -1.67687 -5.75883 0
M  V30 656 H 63.4262 -2.16588 -6.09671 0
M  V30 657 N 63.5583 1.46682 -0.576371 0
M  V30 658 C 64.7883 2.06498 -0.0648694 0
M  V30 659 C 65.1963 1.42665 1.24271 0
M  V30 660 O 64.5393 0.523886 1.76071 0
M  V30 661 C 64.6013 3.5904 0.181816 0
M  V30 662 C 64.2653 4.45028 -1.0392 0
M  V30 663 C 65.2623 4.81959 -1.94966 0
M  V30 664 C 62.9473 4.86259 -1.25927 0
M  V30 665 C 64.9413 5.58942 -3.06371 0
M  V30 666 C 62.6283 5.63002 -2.37638 0
M  V30 667 C 63.6263 5.99257 -3.2769 0
M  V30 668 O 63.3143 6.7445 -4.37461 0
M  V30 669 H 63.0463 0.674028 -0.0515987 0
M  V30 670 H 65.6003 1.89393 -0.794951 0
M  V30 671 H 63.8303 3.74429 0.966436 0
M  V30 672 H 65.5193 4.00806 0.641047 0
M  V30 673 H 66.2853 4.50689 -1.79177 0
M  V30 674 H 62.1643 4.57494 -0.567448 0
M  V30 675 H 65.7083 5.87158 -3.76684 0
M  V30 676 H 61.6053 5.93686 -2.53392 0
M  V30 677 H 62.3733 6.92867 -4.35749 0
M  V30 678 N 65.0364 0.313813 1.54444 0
M  V30 679 C 66.2844 -0.291099 1.99993 0
M  V30 680 C 66.6054 -1.53418 1.20366 0
M  V30 681 O 65.8754 -1.93544 0.302927 0
M  V30 682 H 64.4554 -0.110552 0.738774 0
M  V30 683 H 67.1174 0.428106 1.9014 0
M  V30 684 H 66.2134 -0.554268 3.07139 0
M  V30 685 N 66.5145 -1.57545 0.0417849 0
M  V30 686 C 67.7625 -1.91937 -0.632829 0
M  V30 687 C 68.0835 -0.919978 -1.71934 0
M  V30 688 O 67.3535 0.0366064 -1.95866 0
M  V30 689 H 65.9335 -0.708493 -0.236742 0
M  V30 690 H 68.5955 -1.9468 0.0925745 0
M  V30 691 H 67.6915 -2.92912 -1.07746 0
M  V30 692 N 67.9926 0.231505 -1.5589 0
M  V30 693 C 69.2176 0.978689 -1.82856 0
M  V30 694 C 69.6426 1.77559 -0.620846 0
M  V30 695 O 69.0006 1.76119 0.430305 0
M  V30 696 C 69.0486 1.87997 -3.07716 0
M  V30 697 O 68.1526 2.97393 -2.85712 0
M  V30 698 H 67.4936 0.277663 -0.603158 0
M  V30 699 H 70.0236 0.24783 -2.03093 0
M  V30 700 H 70.0336 2.2917 -3.37558 0
M  V30 701 H 68.7086 1.29417 -3.95252 0
M  V30 702 H 67.2856 2.60238 -2.67078 0
M  V30 703 N 69.4707 1.49531 0.497807 0
M  V30 704 C 70.7477 1.49682 1.25915 0
M  V30 705 C 71.1277 0.226339 2.09883 0
M  V30 706 O 70.4757 -0.791189 2.14365 0
M  V30 707 C 70.6857 2.77755 2.11313 0
M  V30 708 C 72.0337 3.27371 2.70395 0
M  V30 709 O 73.0577 2.78894 2.21578 0
M  V30 710 O 71.9167 4.11808 3.59272 0
M  V30 711 H 69.0107 0.599228 0.56996 0
M  V30 712 H 71.5567 1.61798 0.511816 0
M  V30 713 H 70.3287 3.61713 1.49264 0
M  V30 714 H 69.9517 2.68515 2.93233 0
M  V30 715 N 70.9488 -0.749086 1.3866 0
M  V30 716 C 72.1738 -1.54344 1.38538 0
M  V30 717 C 72.5988 -1.88088 -0.0216655 0
M  V30 718 O 71.9568 -1.50899 -1.00494 0
M  V30 719 C 72.0048 -2.8164 2.25192 0
M  V30 720 O 71.1088 -3.7698 1.67212 0
M  V30 721 H 70.4498 -0.466654 0.472367 0
M  V30 722 H 72.9798 -0.925355 1.82478 0
M  V30 723 H 72.9898 -3.30519 2.3921 0
M  V30 724 H 71.6648 -2.56411 3.27454 0
M  V30 725 H 70.2418 -3.35699 1.6236 0
M  V30 726 N 72.4269 -1.23603 -0.977757 0
M  V30 727 C 73.8429 -0.999251 -1.24447 0
M  V30 728 C 74.0429 0.298053 -1.99283 0
M  V30 729 O 73.0989 1.01681 -2.31122 0
M  V30 730 C 74.4119 -2.20784 -2.04144 0
M  V30 731 C 75.9599 -2.25303 -2.17273 0
M  V30 732 C 76.4349 -3.45755 -3.00362 0
M  V30 733 N 77.9259 -3.4601 -3.07947 0
M  V30 734 C 78.6609 -4.35868 -3.72568 0
M  V30 735 N 78.1569 -5.35966 -4.38991 0
M  V30 736 N 79.9499 -4.23605 -3.6948 0
M  V30 737 H 72.1009 -2.06986 -0.476483 0
M  V30 738 H 74.3639 -0.907801 -0.273134 0
M  V30 739 H 74.0699 -3.14945 -1.56533 0
M  V30 740 H 73.9439 -2.22085 -3.04891 0
M  V30 741 H 76.3309 -1.3168 -2.64092 0
M  V30 742 H 76.4119 -2.28033 -1.15907 0
M  V30 743 H 76.0559 -4.39687 -2.5424 0
M  V30 744 H 75.9859 -3.40266 -4.01904 0
M  V30 745 H 78.4769 -2.73588 -2.60688 0
M  V30 746 H 78.7899 -6.00783 -4.86086 0
M  V30 747 H 77.1349 -5.39863 -4.37691 0
M  V30 748 H 80.3259 -3.44647 -3.16759 0
M  V30 749 H 80.4989 -4.93836 -4.1956 0
M  V30 750 N 73.905 1.17692 -1.04816 0
M  V30 751 C 75.152 1.87859 -0.75599 0
M  V30 752 C 75.48 1.80812 0.716752 0
M  V30 753 O 74.735 1.20819 1.53952 0
M  V30 754 C 75.034 3.37462 -1.17703 0
M  V30 755 C 74.7 3.64713 -2.65133 0
M  V30 756 C 73.362 3.71859 -3.05408 0
M  V30 757 C 75.714 3.76492 -3.60421 0
M  V30 758 C 73.042 3.88271 -4.39843 0
M  V30 759 C 75.394 3.94421 -4.94585 0
M  V30 760 C 74.058 3.99806 -5.3452 0
M  V30 761 H 73.328 0.687425 -0.276636 0
M  V30 762 H 75.975 1.39255 -1.31455 0
M  V30 763 H 74.28 3.88097 -0.537395 0
M  V30 764 H 75.977 3.90109 -0.928218 0
M  V30 765 H 72.567 3.59772 -2.32942 0
M  V30 766 H 76.751 3.70295 -3.30447 0
M  V30 767 H 72.007 3.90687 -4.70291 0
M  V30 768 H 76.181 4.02477 -5.68318 0
M  V30 769 H 73.808 4.12276 -6.38696 0
M  V30 770 N 75.3831 0.828654 1.34056 0
M  V30 771 C 76.3461 0.259927 2.27721 0
M  V30 772 C 77.3461 -0.565478 1.50529 0
M  V30 773 O 78.5361 -0.38075 1.69988 0
M  V30 774 C 75.6681 -0.634944 3.34935 0
M  V30 775 H 76.8611 1.0863 2.79534 0
M  V30 776 H 74.4141 0.600951 1.44285 0
M  V30 777 H 75.1491 -1.48416 2.88346 0
M  V30 778 H 74.9341 -0.0444999 3.92075 0
M  V30 779 H 76.4241 -1.02648 4.04788 0
M  V30 780 N 76.8612 -1.46375 0.584142 0
M  V30 781 C 78.1092 -2.01978 0.0701287 0
M  V30 782 C 78.4302 -1.4579 -1.295 0
M  V30 783 O 77.7002 -0.64314 -1.85042 0
M  V30 784 H 76.2802 -0.746648 0.0229345 0
M  V30 785 H 78.9422 -1.79461 0.760245 0
M  V30 786 H 78.0382 -3.121 0.0022064 0
M  V30 787 N 78.3393 -0.321999 -1.54275 0
M  V30 788 C 79.5693 0.282642 -2.04658 0
M  V30 789 C 79.9773 1.46453 -1.19784 0
M  V30 790 O 79.3203 1.82367 -0.220932 0
M  V30 791 C 79.3823 0.781857 -3.50895 0
M  V30 792 C 79.0463 -0.277517 -4.56157 0
M  V30 793 C 80.0433 -1.11307 -5.07845 0
M  V30 794 C 77.7283 -0.425256 -5.00497 0
M  V30 795 C 79.7223 -2.08211 -6.02434 0
M  V30 796 C 77.4093 -1.39771 -5.94901 0
M  V30 797 C 78.4073 -2.2246 -6.45756 0
M  V30 798 O 78.0953 -3.18054 -7.38307 0
M  V30 799 H 77.8273 0.0622636 -0.673126 0
M  V30 800 H 80.3813 -0.465792 -2.00049 0
M  V30 801 H 78.6113 1.58118 -3.52896 0
M  V30 802 H 80.3003 1.30467 -3.84361 0
M  V30 803 H 81.0663 -1.00991 -4.74369 0
M  V30 804 H 76.9453 0.20847 -4.60528 0
M  V30 805 H 80.4893 -2.72791 -6.42052 0
M  V30 806 H 76.3863 -1.50152 -6.27794 0
M  V30 807 H 77.1543 -3.13275 -7.56175 0
M  V30 808 N 79.8174 1.5752 -0.0501392 0
M  V30 809 C 81.0634 1.92936 0.624798 0
M  V30 810 C 81.3964 0.928685 1.70555 0
M  V30 811 O 80.6714 -0.0454779 1.94447 0
M  V30 812 C 80.9544 3.38737 1.22185 0
M  V30 813 C 80.8074 4.49552 0.149218 0
M  V30 814 C 82.1264 3.84913 2.13378 0
M  V30 815 H 79.2454 0.701604 0.225657 0
M  V30 816 H 81.8874 1.89671 -0.111693 0
M  V30 817 H 80.0374 3.4165 1.84953 0
M  V30 818 H 81.7094 4.58768 -0.482648 0
M  V30 819 H 79.9524 4.30638 -0.522841 0
M  V30 820 H 80.6234 5.48653 0.606966 0
M  V30 821 H 83.0994 3.8387 1.60572 0
M  V30 822 H 81.9754 4.87584 2.52097 0
M  V30 823 H 82.2364 3.21611 3.03346 0
M  V30 824 N 81.2955 -0.223234 1.56011 0
M  V30 825 C 82.5235 -0.964812 1.83027 0
M  V30 826 C 82.9385 -1.78013 0.62904 0
M  V30 827 O 82.2955 -1.78008 -0.402414 0
M  V30 828 C 82.3465 -1.88373 3.08542 0
M  V30 829 O 82.0675 -1.10137 4.2403 0
M  V30 830 C 83.5685 -2.73934 3.48533 0
M  V30 831 H 80.7885 -0.282842 0.608475 0
M  V30 832 H 83.3325 -0.238971 2.03099 0
M  V30 833 H 81.4875 -2.56354 2.9045 0
M  V30 834 H 81.9015 -1.72501 4.95322 0
M  V30 835 H 83.3755 -3.34117 4.39397 0
M  V30 836 H 83.8525 -3.46244 2.70207 0
M  V30 837 H 84.4585 -2.11369 3.69057 0
M  V30 838 N 82.7736 -1.49793 -0.48987 0
M  V30 839 C 83.9986 -1.63836 -1.27172 0
M  V30 840 C 84.4236 -0.31402 -1.8546 0
M  V30 841 O 83.7816 0.719803 -1.66399 0
M  V30 842 C 83.8296 -2.71797 -2.36978 0
M  V30 843 O 82.9336 -2.31744 -3.41128 0
M  V30 844 H 82.2746 -0.547997 -0.37496 0
M  V30 845 H 84.8046 -1.96053 -0.585191 0
M  V30 846 H 84.8146 -2.94305 -2.82575 0
M  V30 847 H 83.4896 -3.67923 -1.93921 0
M  V30 848 H 82.0666 -2.1961 -3.01373 0
M  V30 849 N 84.2517 0.741722 -1.39055 0
M  V30 850 C 85.5007 1.49656 -1.35225 0
M  V30 851 C 85.8137 1.95533 0.0512708 0
M  V30 852 O 87.0197 2.7067 0.212138 0
M  V30 853 C 85.4757 2.70389 -2.37525 0
M  V30 854 C 85.0837 2.31489 -3.83558 0
M  V30 855 C 86.8277 3.48236 -2.42759 0
M  V30 856 C 84.7347 3.48903 -4.77515 0
M  V30 857 H 83.6647 0.56197 -0.502699 0
M  V30 858 H 86.3157 0.809727 -1.64668 0
M  V30 859 H 84.6977 3.41113 -2.01142 0
M  V30 860 H 85.8717 1.68354 -4.28945 0
M  V30 861 H 84.1867 1.66749 -3.81554 0
M  V30 862 H 86.7837 4.35558 -3.1015 0
M  V30 863 H 87.1267 3.90229 -1.45008 0
M  V30 864 H 87.6597 2.84535 -2.78002 0
M  V30 865 H 84.3987 3.11966 -5.76504 0
M  V30 866 H 83.9187 4.11041 -4.36813 0
M  V30 867 H 85.5977 4.15328 -4.96096 0
M  V30 868 N 85.7298 1.2412 0.971189 0
M  V30 869 C 86.6928 1.03156 2.04674 0
M  V30 870 C 87.6928 -0.00990322 1.60797 0
M  V30 871 O 88.8828 0.230729 1.72665 0
M  V30 872 C 86.0148 0.562765 3.36223 0
M  V30 873 H 87.2078 1.98614 2.24705 0
M  V30 874 H 84.7608 1.06293 1.14593 0
M  V30 875 H 85.4958 -0.395176 3.21883 0
M  V30 876 H 85.2808 1.31441 3.69413 0
M  V30 877 H 86.7708 0.437015 4.15307 0
M  V30 878 N 87.2079 -1.17134 1.05439 0
M  V30 879 C 88.1709 -2.19439 0.661764 0
M  V30 880 C 89.1709 -1.58199 -0.288042 0
M  V30 881 O 90.3609 -1.74053 -0.0715803 0
M  V30 882 C 87.4929 -3.40889 -0.0276209 0
M  V30 883 H 88.6859 -2.55688 1.56728 0
M  V30 884 H 86.2389 -1.31259 0.848567 0
M  V30 885 H 86.9739 -3.10187 -0.94629 0
M  V30 886 H 86.7589 -3.86586 0.655238 0
M  V30 887 H 88.2489 -4.16603 -0.288342 0
M  V30 888 N 88.686 -0.835752 -1.33615 0
M  V30 889 C 89.914 -0.443344 -2.02094 0
M  V30 890 C 90.329 0.954522 -1.62894 0
M  V30 891 O 89.686 1.61982 -0.840723 0
M  V30 892 C 89.737 -0.550775 -3.5728 0
M  V30 893 O 89.458 -1.89356 -3.95065 0
M  V30 894 C 90.959 -0.154919 -4.43029 0
M  V30 895 H 88.179 -0.176359 -0.647409 0
M  V30 896 H 90.723 -1.12746 -1.70612 0
M  V30 897 H 88.878 0.0853997 -3.87306 0
M  V30 898 H 89.292 -1.87687 -4.89769 0
M  V30 899 H 90.766 -0.281144 -5.51284 0
M  V30 900 H 91.243 0.902863 -4.2982 0
M  V30 901 H 91.849 -0.765404 -4.18356 0
M  V30 902 N 90.1641 1.46063 -0.591896 0
M  V30 903 C 91.0741 2.34192 0.13831 0
M  V30 904 C 92.0901 1.50305 0.876608 0
M  V30 905 O 93.2661 1.8315 0.837728 0
M  V30 906 C 90.3311 3.27656 1.13326 0
M  V30 907 C 89.3921 4.27445 0.39863 0
M  V30 908 C 88.6251 5.16443 1.34618 0
M  V30 909 O 88.8481 5.08553 2.58321 0
M  V30 910 O 87.7821 5.95843 0.851768 0
M  V30 911 H 91.6081 2.98002 -0.58552 0
M  V30 912 H 89.1931 1.45188 -0.352239 0
M  V30 913 H 91.0751 3.85291 1.70671 0
M  V30 914 H 89.7501 2.6643 1.83839 0
M  V30 915 H 88.6571 3.73471 -0.216895 0
M  V30 916 H 89.9901 4.91482 -0.265709 0
M  V30 917 N 91.6422 0.330177 1.54103 0
M  V30 918 C 92.5722 -0.525353 2.27513 0
M  V30 919 C 93.5532 -1.11383 1.2856 0
M  V30 920 O 94.7382 -1.13773 1.57383 0
M  V30 921 C 91.8682 -1.6831 3.03791 0
M  V30 922 C 90.8222 -1.2236 4.10137 0
M  V30 923 C 90.1482 -2.46882 4.74293 0
M  V30 924 C 91.4482 -0.333697 5.21233 0
M  V30 925 H 93.1422 0.087013 2.99274 0
M  V30 926 H 90.6882 0.0432893 1.43935 0
M  V30 927 H 92.6412 -2.28795 3.5388 0
M  V30 928 H 91.3652 -2.32216 2.29659 0
M  V30 929 H 90.0242 -0.64165 3.60941 0
M  V30 930 H 89.6722 -3.09165 3.96769 0
M  V30 931 H 89.3722 -2.16825 5.46133 0
M  V30 932 H 90.8962 -3.08117 5.27159 0
M  V30 933 H 92.3102 -0.845013 5.67038 0
M  V30 934 H 90.7072 -0.125612 5.99969 0
M  V30 935 H 91.7772 0.633724 4.80741 0
M  V30 936 N 93.1203 -1.57491 0.0584922 0
M  V30 937 C 94.0303 -2.15448 -0.928414 0
M  V30 938 C 95.0463 -1.11416 -1.3365 0
M  V30 939 O 96.2223 -1.4362 -1.41193 0
M  V30 940 C 93.2873 -2.69393 -2.18239 0
M  V30 941 C 92.3483 -3.88249 -1.83196 0
M  V30 942 C 91.5813 -4.39613 -3.02616 0
M  V30 943 O 91.8043 -3.90023 -4.16219 0
M  V30 944 O 90.7383 -5.31111 -2.83204 0
M  V30 945 H 94.5643 -3.00112 -0.465483 0
M  V30 946 H 92.1493 -1.48499 -0.163826 0
M  V30 947 H 94.0313 -3.04026 -2.91798 0
M  V30 948 H 92.7063 -1.87796 -2.63656 0
M  V30 949 H 91.6133 -3.58492 -1.06931 0
M  V30 950 H 92.9463 -4.71098 -1.42573 0
M  V30 951 N 94.5984 0.214957 -1.56127 0
M  V30 952 C 95.8754 0.963093 -1.70247 0
M  V30 953 C 96.2554 2.02166 -0.60764 0
M  V30 954 O 95.6034 2.25244 0.384385 0
M  V30 955 C 95.8134 1.56756 -3.11815 0
M  V30 956 C 97.1614 2.0573 -3.7143 0
M  V30 957 O 98.1854 1.66637 -3.14818 0
M  V30 958 O 97.0444 2.77603 -4.70743 0
M  V30 959 H 94.1384 0.450321 -0.693643 0
M  V30 960 H 96.6844 0.206219 -1.68442 0
M  V30 961 H 95.4564 0.803533 -3.82961 0
M  V30 962 H 95.0794 2.3898 -3.17765 0
M  V30 963 N 96.0765 1.50051 0.48192 0
M  V30 964 C 97.3535 1.51009 1.2432 0
M  V30 965 C 97.7335 0.248587 2.09631 0
M  V30 966 O 97.0815 -0.768409 2.15192 0
M  V30 967 C 97.2915 2.79981 2.08355 0
M  V30 968 C 98.6395 3.3022 2.66908 0
M  V30 969 O 99.6635 2.81228 2.18607 0
M  V30 970 O 98.5225 4.15595 3.54884 0
M  V30 971 H 95.6165 0.605239 0.563573 0
M  V30 972 H 98.1625 1.62332 0.494627 0
M  V30 973 H 96.9345 3.63275 1.45419 0
M  V30 974 H 96.5575 2.7161 2.90368 0
M  V30 975 N 97.5546 -0.734337 1.39446 0
M  V30 976 C 98.8316 -1.48579 1.27215 0
M  V30 977 C 99.2116 -2.1077 -0.117968 0
M  V30 978 O 98.5596 -1.98646 -1.12924 0
M  V30 979 C 98.7696 -2.53667 2.39696 0
M  V30 980 C 100.118 -3.20031 2.79044 0
M  V30 981 O 101.142 -2.6398 2.39151 0
M  V30 982 O 100.001 -4.21455 3.47905 0
M  V30 983 H 97.0946 -0.659816 0.49857 0
M  V30 984 H 99.6406 -0.768106 1.51322 0
M  V30 985 H 98.4126 -2.06096 3.32626 0
M  V30 986 H 98.0356 -3.32994 2.17258 0
M  V30 987 N 99.0327 -1.24633 -0.964593 0
M  V30 988 C 100.31 -0.995809 -1.68354 0
M  V30 989 C 100.69 0.480964 -2.05548 0
M  V30 990 O 100.038 1.45599 -1.76105 0
M  V30 991 C 100.248 -1.92177 -2.91323 0
M  V30 992 C 101.596 -2.19446 -3.63495 0
M  V30 993 O 102.62 -1.89855 -3.01386 0
M  V30 994 O 101.479 -2.69714 -4.75307 0
M  V30 995 H 98.5727 -0.376854 -0.736146 0
M  V30 996 H 101.119 -1.35745 -1.0184 0
M  V30 997 H 99.8907 -2.91938 -2.60553 0
M  V30 998 H 99.5137 -1.56349 -3.65569 0
M  V30 999 N 100.511 1.16574 -1.06058 0
M  V30 1000 C 101.788 1.83048 -0.689416 0
M  V30 1001 C 102.168 1.94122 0.829443 0
M  V30 1002 O 101.516 1.48249 1.7388 0
M  V30 1003 C 101.726 3.20186 -1.38859 0
M  V30 1004 C 103.074 3.95989 -1.53226 0
M  V30 1005 O 104.098 3.29696 -1.3483 0
M  V30 1006 O 102.957 5.14813 -1.83384 0
M  V30 1007 H 100.051 0.790258 -0.243764 0
M  V30 1008 H 102.597 1.23797 -1.16071 0
M  V30 1009 H 101.369 3.07146 -2.4244 0
M  V30 1010 H 100.992 3.87112 -0.907216 0
M  V30 1011 N 101.989 0.842826 1.3317 0
M  V30 1012 C 103.219 0.453397 2.01564 0
M  V30 1013 C 103.627 -0.951147 1.63554 0
M  V30 1014 O 102.97 -1.63021 0.846746 0
M  V30 1015 C 103.032 0.499013 3.5602 0
M  V30 1016 C 102.696 1.86037 4.1742 0
M  V30 1017 C 103.693 2.82416 4.36506 0
M  V30 1018 C 101.378 2.15428 4.53757 0
M  V30 1019 C 103.372 4.06346 4.91082 0
M  V30 1020 C 101.059 3.39615 5.0804 0
M  V30 1021 C 102.057 4.3489 5.26649 0
M  V30 1022 O 101.745 5.5688 5.79776 0
M  V30 1023 H 101.477 0.177871 0.652179 0
M  V30 1024 H 104.031 1.13808 1.70988 0
M  V30 1025 H 102.261 -0.242467 3.85939 0
M  V30 1026 H 103.95 0.126852 4.05702 0
M  V30 1027 H 104.716 2.6101 4.08777 0
M  V30 1028 H 100.595 1.42061 4.38565 0
M  V30 1029 H 104.139 4.80722 5.05522 0
M  V30 1030 H 100.036 3.60876 5.352 0
M  V30 1031 H 100.804 5.58674 5.98185 0
M  V30 1032 N 103.467 -1.45747 0.599634 0
M  V30 1033 C 104.692 -2.07178 0.0960198 0
M  V30 1034 C 105.117 -1.44268 -1.207 0
M  V30 1035 O 104.475 -0.532503 -1.73303 0
M  V30 1036 C 104.523 -3.60579 -0.0385348 0
M  V30 1037 O 103.627 -3.97713 -1.0908 0
M  V30 1038 H 102.968 -0.660251 0.0704593 0
M  V30 1039 H 105.498 -1.87124 0.827385 0
M  V30 1040 H 105.508 -4.07298 -0.239304 0
M  V30 1041 H 104.183 -4.05756 0.912947 0
M  V30 1042 H 102.76 -3.62678 -0.867135 0
M  V30 1043 N 104.945 -0.338344 -1.53925 0
M  V30 1044 C 106.17 0.263987 -2.05713 0
M  V30 1045 C 106.595 1.43847 -1.21201 0
M  V30 1046 O 105.953 1.79904 -0.224535 0
M  V30 1047 C 106.001 0.662 -3.54471 0
M  V30 1048 O 105.105 1.76265 -3.72833 0
M  V30 1049 H 104.446 0.0448722 -0.662482 0
M  V30 1050 H 106.976 -0.491048 -1.9862 0
M  V30 1051 H 106.986 0.940594 -3.9701 0
M  V30 1052 H 105.661 -0.196937 -4.15433 0
M  V30 1053 H 104.238 1.48173 -3.42198 0
M  V30 1054 N 106.423 1.57458 -0.0668435 0
M  V30 1055 C 107.648 1.9804 0.616027 0
M  V30 1056 C 108.073 0.944771 1.62652 0
M  V30 1057 O 107.431 -0.0902094 1.81075 0
M  V30 1058 C 107.479 3.37665 1.26549 0
M  V30 1059 O 106.583 3.36701 2.38131 0
M  V30 1060 H 105.924 0.644719 0.158849 0
M  V30 1061 H 108.454 2.04121 -0.139891 0
M  V30 1062 H 108.464 3.7474 1.6135 0
M  V30 1063 H 107.139 4.12573 0.525016 0
M  V30 1064 H 105.716 3.1139 2.0516 0
M  V30 1065 N 107.901 -0.206675 1.56239 0
M  V30 1066 C 109.129 -0.945345 1.8404 0
M  V30 1067 C 109.544 -1.77336 0.647885 0
M  V30 1068 O 108.901 -1.78425 -0.383511 0
M  V30 1069 C 108.952 -1.8509 3.10522 0
M  V30 1070 O 108.673 -1.05634 4.25174 0
M  V30 1071 C 110.174 -2.70222 3.51418 0
M  V30 1072 H 107.394 -0.276372 0.61144 0
M  V30 1073 H 109.938 -0.217417 2.03341 0
M  V30 1074 H 108.093 -2.53259 2.93153 0
M  V30 1075 H 108.507 -1.67238 4.97124 0
M  V30 1076 H 109.981 -3.29438 4.42916 0
M  V30 1077 H 110.458 -3.43358 2.73864 0
M  V30 1078 H 111.064 -2.07443 3.71278 0
M  V30 1079 N 109.379 -1.50304 -0.473955 0
M  V30 1080 C 110.604 -1.65175 -1.25427 0
M  V30 1081 C 111.029 -0.333673 -1.85117 0
M  V30 1082 O 110.387 0.702114 -1.67153 0
M  V30 1083 C 110.435 -2.74295 -2.34082 0
M  V30 1084 O 109.539 -2.35349 -3.38651 0
M  V30 1085 H 108.88 -0.551944 -0.369126 0
M  V30 1086 H 111.41 -1.96662 -0.564364 0
M  V30 1087 H 111.42 -2.97285 -2.79438 0
M  V30 1088 H 110.095 -3.69959 -1.90008 0
M  V30 1089 H 108.672 -2.22794 -2.99027 0
M  V30 1090 N 110.857 0.726932 -1.39834 0
M  V30 1091 C 111.787 1.85405 -1.41941 0
M  V30 1092 C 112.768 1.67751 -0.281728 0
M  V30 1093 O 113.953 1.8795 -0.488717 0
M  V30 1094 C 111.083 3.23243 -1.2701 0
M  V30 1095 C 110.037 3.55549 -2.38262 0
M  V30 1096 C 109.363 4.9241 -2.08415 0
M  V30 1097 C 110.663 3.577 -3.80589 0
M  V30 1098 H 112.357 1.83899 -2.36266 0
M  V30 1099 H 109.903 0.883349 -1.13723 0
M  V30 1100 H 111.856 4.01775 -1.27103 0
M  V30 1101 H 110.58 3.25296 -0.291564 0
M  V30 1102 H 109.239 2.79351 -2.37399 0
M  V30 1103 H 108.887 4.91052 -1.0898 0
M  V30 1104 H 108.587 5.14992 -2.82943 0
M  V30 1105 H 110.111 5.73289 -2.10171 0
M  V30 1106 H 111.525 4.26293 -3.83337 0
M  V30 1107 H 109.922 3.91804 -4.54543 0
M  V30 1108 H 110.992 2.57328 -4.10987 0
M  V30 1109 N 112.336 1.25143 0.95797 0
M  V30 1110 C 113.266 1.07711 2.07173 0
M  V30 1111 C 114.247 -0.0128462 1.70095 0
M  V30 1112 O 115.432 0.156061 1.93572 0
M  V30 1113 C 112.562 0.691503 3.40346 0
M  V30 1114 C 111.516 1.73132 3.9142 0
M  V30 1115 C 110.842 1.20049 5.21049 0
M  V30 1116 C 112.142 3.1294 4.1817 0
M  V30 1117 H 113.836 2.00873 2.22014 0
M  V30 1118 H 111.382 0.967191 1.06684 0
M  V30 1119 H 113.335 0.556505 4.17709 0
M  V30 1120 H 112.059 -0.275819 3.25433 0
M  V30 1121 H 110.718 1.8547 3.16222 0
M  V30 1122 H 110.366 0.223499 5.02503 0
M  V30 1123 H 110.066 1.89545 5.56189 0
M  V30 1124 H 111.59 1.07782 6.01012 0
M  V30 1125 H 113.004 3.03775 4.86203 0
M  V30 1126 H 111.401 3.79875 4.64559 0
M  V30 1127 H 112.471 3.6025 3.24573 0
M  V30 1128 N 113.814 -1.1601 1.06675 0
M  V30 1129 C 115.062 -1.86264 0.784229 0
M  V30 1130 C 115.383 -1.82328 -0.691488 0
M  V30 1131 O 114.653 -1.25947 -1.50047 0
M  V30 1132 H 113.233 -0.689621 0.28711 0
M  V30 1133 H 115.895 -1.40664 1.34906 0
M  V30 1134 H 114.991 -2.91595 1.11259 0
M  V30 1135 N 115.292 -0.849877 -1.32721 0
M  V30 1136 C 116.224 -0.248332 -2.27851 0
M  V30 1137 C 117.237 0.577218 -1.52224 0
M  V30 1138 O 118.426 0.402489 -1.73903 0
M  V30 1139 C 115.526 0.668107 -3.32249 0
M  V30 1140 C 114.699 -0.120534 -4.37234 0
M  V30 1141 C 113.758 0.720932 -5.21238 0
M  V30 1142 O 112.784 0.156166 -5.68986 0
M  V30 1143 N 113.986 2.03647 -5.43607 0
M  V30 1144 H 116.751 -1.06575 -2.80111 0
M  V30 1145 H 114.312 -0.709395 -1.45531 0
M  V30 1146 H 116.304 1.23627 -3.85355 0
M  V30 1147 H 114.874 1.38621 -2.80184 0
M  V30 1148 H 114.094 -0.870108 -3.84477 0
M  V30 1149 H 115.382 -0.662406 -5.0447 0
M  V30 1150 H 114.78 2.51871 -5.06535 0
M  V30 1151 H 113.337 2.55287 -5.99727 0
M  V30 1152 N 116.77 1.45427 -0.607355 0
M  V30 1153 C 117.717 2.3053 0.111625 0
M  V30 1154 C 118.687 1.4209 0.860216 0
M  V30 1155 O 119.872 1.71019 0.845998 0
M  V30 1156 C 117.012 3.26992 1.10319 0
M  V30 1157 C 116.125 4.30535 0.355493 0
M  V30 1158 C 115.26 5.14105 1.33676 0
M  V30 1159 C 114.299 6.09376 0.576862 0
M  V30 1160 N 113.436 6.85727 1.5074 0
M  V30 1161 H 118.276 2.91477 -0.620093 0
M  V30 1162 H 115.813 1.43631 -0.317594 0
M  V30 1163 H 117.771 3.81385 1.6912 0
M  V30 1164 H 116.401 2.67799 1.80232 0
M  V30 1165 H 115.453 3.78805 -0.348023 0
M  V30 1166 H 116.765 4.98235 -0.237423 0
M  V30 1167 H 115.919 5.72897 1.99684 0
M  V30 1168 H 114.658 4.46423 1.9636 0
M  V30 1169 H 113.663 5.49715 -0.0968519 0
M  V30 1170 H 114.888 6.79085 -0.0449341 0
M  V30 1171 H 112.834 6.20735 2.12189 0
M  V30 1172 H 112.751 7.49778 0.967913 0
M  V30 1173 H 114.019 7.4906 2.15706 0
M  V30 1174 N 118.248 0.346503 1.53744 0
M  V30 1175 C 119.195 -0.508914 2.25119 0
M  V30 1176 C 120.165 -1.09315 1.25058 0
M  V30 1177 O 121.35 -1.12921 1.53797 0
M  V30 1178 C 118.49 -1.65246 3.02965 0
M  V30 1179 C 117.603 -1.09525 4.17886 0
M  V30 1180 C 116.738 -2.20634 4.83212 0
M  V30 1181 C 115.777 -1.62279 5.90196 0
M  V30 1182 N 114.914 -2.67143 6.49291 0
M  V30 1183 H 119.754 0.106283 2.9781 0
M  V30 1184 H 117.291 0.0642227 1.4696 0
M  V30 1185 H 119.249 -2.32574 3.4636 0
M  V30 1186 H 117.879 -2.2386 2.32565 0
M  V30 1187 H 116.931 -0.312818 3.79112 0
M  V30 1188 H 118.243 -0.628444 4.94825 0
M  V30 1189 H 117.397 -2.95821 5.29693 0
M  V30 1190 H 116.136 -2.70659 4.05703 0
M  V30 1191 H 115.141 -0.855989 5.43096 0
M  V30 1192 H 116.366 -1.13102 6.69615 0
M  V30 1193 H 114.312 -3.16417 5.74645 0
M  V30 1194 H 114.229 -2.25093 7.21713 0
M  V30 1195 H 115.497 -3.4209 7.00425 0
M  V30 1196 N 119.726 -1.57421 0.075193 0
M  V30 1197 C 121.137 -1.81021 -0.456964 0
M  V30 1198 C 121.488 -0.98936 -1.69429 0
M  V30 1199 O 120.613 -0.212865 -2.15351 0
M  V30 1200 C 121.208 -3.28329 -0.83581 0
M  V30 1201 C 119.767 -3.52764 -1.31281 0
M  V30 1202 C 118.914 -2.75676 -0.299648 0
M  V30 1203 H 121.865 -1.55822 0.300856 0
M  V30 1204 H 121.886 -3.40564 -1.69696 0
M  V30 1205 H 121.398 -3.88046 0.0649238 0
M  V30 1206 H 119.499 -2.98355 -2.23193 0
M  V30 1207 H 119.612 -4.61451 -1.28839 0
M  V30 1208 H 117.976 -2.42538 -0.777641 0
M  V30 1209 H 118.759 -3.38132 0.593417 0
M  V30 1210 N 121.204 0.198386 -1.56346 0
M  V30 1211 C 122.452 0.91747 -1.80075 0
M  V30 1212 C 122.773 1.83929 -0.647692 0
M  V30 1213 O 122.043 1.93029 0.334166 0
M  V30 1214 H 120.623 0.341774 -0.664228 0
M  V30 1215 H 123.285 0.204684 -1.93822 0
M  V30 1216 H 122.381 1.51055 -2.7311 0
M  V30 1217 N 122.682 1.50554 0.465978 0
M  V30 1218 C 123.912 1.65323 1.23903 0
M  V30 1219 C 124.32 0.338051 1.86155 0
M  V30 1220 O 123.663 -0.690518 1.70228 0
M  V30 1221 C 123.725 2.69048 2.3844 0
M  V30 1222 C 123.389 4.12462 1.96784 0
M  V30 1223 C 124.386 4.98168 1.48745 0
M  V30 1224 C 122.071 4.58407 2.05349 0
M  V30 1225 C 124.065 6.27868 1.0982 0
M  V30 1226 C 121.752 5.88112 1.66035 0
M  V30 1227 C 122.75 6.72668 1.18349 0
M  V30 1228 O 122.438 7.99951 0.795825 0
M  V30 1229 H 122.17 0.558629 0.38067 0
M  V30 1230 H 124.724 1.97561 0.562022 0
M  V30 1231 H 122.954 2.32062 3.09328 0
M  V30 1232 H 124.643 2.72985 3.0039 0
M  V30 1233 H 125.409 4.63885 1.41546 0
M  V30 1234 H 121.288 3.92735 2.41414 0
M  V30 1235 H 124.832 6.93819 0.725293 0
M  V30 1236 H 120.729 6.21914 1.72895 0
M  V30 1237 H 121.497 8.13265 0.924222 0
M  V30 1238 N 124.16 -0.719506 1.40217 0
M  V30 1239 C 125.11 -1.8251 1.36653 0
M  V30 1240 C 126.094 -1.59028 0.244732 0
M  V30 1241 O 127.286 -1.70268 0.483524 0
M  V30 1242 C 124.415 -3.20599 1.22763 0
M  V30 1243 C 123.501 -3.49858 2.39708 0
M  V30 1244 N 123.892 -3.49957 3.6519 0
M  V30 1245 C 122.19 -3.80297 2.33002 0
M  V30 1246 C 122.891 -3.77449 4.42614 0
M  V30 1247 N 121.867 -3.96002 3.72402 0
M  V30 1248 H 125.669 -1.80914 2.31619 0
M  V30 1249 H 123.183 -0.918455 1.33933 0
M  V30 1250 H 125.18 -3.99766 1.18292 0
M  V30 1251 H 123.84 -3.23424 0.287614 0
M  V30 1252 H 124.851 -3.309 3.98404 0
M  V30 1253 H 121.528 -3.90635 1.47346 0
M  V30 1254 H 122.918 -3.83863 5.51451 0
M  V30 1255 N 125.638 -1.25649 -0.95132 0
M  V30 1256 C 126.601 -1.06399 -2.03007 0
M  V30 1257 C 127.601 -0.0156794 -1.60792 0
M  V30 1258 O 128.791 -0.25817 -1.72276 0
M  V30 1259 C 125.923 -0.616184 -3.35285 0
M  V30 1260 H 127.116 -2.02164 -2.21517 0
M  V30 1261 H 124.669 -1.08103 -1.12887 0
M  V30 1262 H 125.404 0.343917 -3.22471 0
M  V30 1263 H 125.189 -1.37301 -3.67275 0
M  V30 1264 H 126.679 -0.503032 -4.14559 0
M  V30 1265 N 127.117 1.15442 -1.07289 0
M  V30 1266 C 128.528 1.67803 -0.818475 0
M  V30 1267 C 128.879 1.8489 0.656507 0
M  V30 1268 O 128.004 1.55176 1.50829 0
M  V30 1269 C 128.599 3.04805 -1.47917 0
M  V30 1270 C 127.158 3.54245 -1.27229 0
M  V30 1271 C 126.305 2.29986 -1.54925 0
M  V30 1272 H 129.256 0.996646 -1.23502 0
M  V30 1273 H 129.277 3.69702 -0.90005 0
M  V30 1274 H 128.789 2.92336 -2.55267 0
M  V30 1275 H 126.89 3.71956 -0.21899 0
M  V30 1276 H 127.003 4.35723 -1.99203 0
M  V30 1277 H 125.367 2.35496 -0.970242 0
M  V30 1278 H 126.15 2.20105 -2.63455 0
M  V30 1279 N 128.595 0.856903 1.32268 0
M  V30 1280 C 129.841 0.462069 1.97466 0
M  V30 1281 C 130.174 -0.980298 1.67642 0
M  V30 1282 O 129.449 -1.68824 0.965858 0
M  V30 1283 C 129.732 0.704336 3.53145 0
M  V30 1284 C 129.585 2.19529 3.9259 0
M  V30 1285 C 130.904 0.1622 4.39801 0
M  V30 1286 H 128.023 0.169357 0.717278 0
M  V30 1287 H 130.665 1.07574 1.56614 0
M  V30 1288 H 128.815 0.181999 3.88073 0
M  V30 1289 H 130.487 2.78387 3.67829 0
M  V30 1290 H 128.73 2.67292 3.41668 0
M  V30 1291 H 129.401 2.31549 5.01088 0
M  V30 1292 H 131.877 0.608905 4.11621 0
M  V30 1293 H 130.753 0.361265 5.4771 0
M  V30 1294 H 131.014 -0.935158 4.32096 0
M  V30 1295 N 130.073 -1.45103 0.615059 0
M  V30 1296 C 131.036 -2.29025 -0.0895485 0
M  V30 1297 C 132.036 -1.40174 -0.787906 0
M  V30 1298 O 133.226 -1.62217 -0.634933 0
M  V30 1299 C 130.358 -3.21376 -1.13711 0
M  V30 1300 H 131.551 -2.92807 0.648382 0
M  V30 1301 H 129.104 -1.51749 0.374444 0
M  V30 1302 H 129.839 -2.6241 -1.90556 0
M  V30 1303 H 129.624 -3.86834 -0.640475 0
M  V30 1304 H 131.114 -3.84459 -1.63036 0
M  V30 1305 N 131.551 -0.354651 -1.53558 0
M  V30 1306 C 132.481 0.489091 -2.2832 0
M  V30 1307 C 133.462 1.09324 -1.30316 0
M  V30 1308 O 134.647 1.11255 -1.59173 0
M  V30 1309 C 131.777 1.63456 -3.0643 0
M  V30 1310 C 130.731 1.1582 -4.12031 0
M  V30 1311 C 130.057 2.39305 -4.7816 0
M  V30 1312 C 131.357 0.250731 -5.21698 0
M  V30 1313 H 133.051 -0.134614 -2.99097 0
M  V30 1314 H 130.597 -0.0661826 -1.43848 0
M  V30 1315 H 132.55 2.23136 -3.57475 0
M  V30 1316 H 131.274 2.28533 -2.33325 0
M  V30 1317 H 129.933 0.584146 -3.61916 0
M  V30 1318 H 129.581 3.02814 -4.01637 0
M  V30 1319 H 129.281 2.08109 -5.49513 0
M  V30 1320 H 130.805 2.99691 -5.31994 0
M  V30 1321 H 132.219 0.754695 -5.68311 0
M  V30 1322 H 130.616 0.0301468 -6.00092 0
M  V30 1323 H 131.686 -0.710125 -4.79672 0
M  V30 1324 N 133.029 1.57378 -0.0835403 0
M  V30 1325 C 133.959 2.1641 0.87686 0
M  V30 1326 C 134.94 1.09429 1.30228 0
M  V30 1327 O 136.125 1.37516 1.37124 0
M  V30 1328 C 133.255 2.73517 2.14022 0
M  V30 1329 C 132.209 3.85769 1.85381 0
M  V30 1330 C 131.535 4.29529 3.18448 0
M  V30 1331 C 132.835 5.09486 1.14984 0
M  V30 1332 H 134.529 2.96914 0.385059 0
M  V30 1333 H 132.075 1.42823 0.18377 0
M  V30 1334 H 134.028 3.13463 2.81636 0
M  V30 1335 H 132.752 1.90252 2.65465 0
M  V30 1336 H 131.411 3.46345 1.20169 0
M  V30 1337 H 131.059 3.43169 3.67755 0
M  V30 1338 H 130.759 5.05204 3.00071 0
M  V30 1339 H 132.283 4.72099 3.8724 0
M  V30 1340 H 133.697 5.46674 1.72687 0
M  V30 1341 H 132.094 5.90515 1.06826 0
M  V30 1342 H 133.164 4.84724 0.130749 0
M  V30 1343 N 134.507 -0.190092 1.56449 0
M  V30 1344 C 135.455 -1.25501 1.95837 0
M  V30 1345 C 136.449 -1.4685 0.844485 0
M  V30 1346 O 137.655 -1.47651 1.02952 0
M  V30 1347 H 134.03 -0.421447 0.622805 0
M  V30 1348 H 136.001 -0.895821 2.84636 0
M  V30 1349 C 134.75 -2.59124 2.31841 0
M  V30 1350 H 134.073 -2.43514 3.17082 0
M  V30 1351 H 135.513 -3.32371 2.6326 0
M  V30 1352 C 133.972 -3.16488 1.15486 0
M  V30 1353 O 134.502 -3.99365 0.432535 0
M  V30 1354 N 132.708 -2.75305 0.930349 0
M  V30 1355 H 132.255 -2.08013 1.51948 0
M  V30 1356 H 132.213 -3.14024 0.153634 0
M  V30 1357 N 135.985 -1.50799 -0.457987 0
M  V30 1358 C 137.262 -1.52968 -1.21902 0
M  V30 1359 C 137.642 -0.281906 -2.09209 0
M  V30 1360 O 136.99 0.734076 -2.16388 0
M  V30 1361 C 137.2 -2.8326 -2.03875 0
M  V30 1362 C 138.548 -3.34425 -2.6162 0
M  V30 1363 O 139.572 -2.8467 -2.14106 0
M  V30 1364 O 138.431 -4.21188 -3.48228 0
M  V30 1365 H 135.525 -0.614129 -0.553873 0
M  V30 1366 H 138.071 -1.63098 -0.468739 0
M  V30 1367 H 136.843 -3.65543 -1.39621 0
M  V30 1368 H 136.466 -2.76195 -2.8601 0
M  V30 1369 N 137.463 0.71206 -1.40597 0
M  V30 1370 C 138.712 1.46754 -1.38369 0
M  V30 1371 C 139.025 1.95598 0.0097839 0
M  V30 1372 O 140.231 2.71059 0.154677 0
M  V30 1373 C 138.687 2.65289 -2.43207 0
M  V30 1374 C 138.295 2.23301 -3.88382 0
M  V30 1375 C 140.039 3.43008 -2.50091 0
M  V30 1376 C 137.946 3.38696 -4.84808 0
M  V30 1377 H 136.876 0.55118 -0.514506 0
M  V30 1378 H 139.527 0.774616 -1.66349 0
M  V30 1379 H 137.909 3.36769 -2.08332 0
M  V30 1380 H 139.083 1.59218 -4.32419 0
M  V30 1381 H 137.398 1.58618 -3.85006 0
M  V30 1382 H 139.995 4.28881 -3.1932 0
M  V30 1383 H 140.338 3.87065 -1.53253 0
M  V30 1384 H 140.871 2.78574 -2.83974 0
M  V30 1385 H 137.61 2.99668 -5.82992 0
M  V30 1386 H 137.13 4.01683 -4.45433 0
M  V30 1387 H 138.809 4.04712 -5.04794 0
M  V30 1388 N 138.941 1.26152 0.944643 0
M  V30 1389 C 140.352 1.10454 1.50522 0
M  V30 1390 C 140.703 -0.31635 1.93633 0
M  V30 1391 O 139.828 -1.20746 1.79581 0
M  V30 1392 C 140.423 1.99891 2.73549 0
M  V30 1393 C 138.982 1.88348 3.25886 0
M  V30 1394 C 138.129 1.93447 1.9868 0
M  V30 1395 H 141.08 1.39292 0.760489 0
M  V30 1396 H 141.101 1.54477 3.47732 0
M  V30 1397 H 140.613 3.03297 2.42141 0
M  V30 1398 H 138.714 0.878636 3.62092 0
M  V30 1399 H 138.827 2.73696 3.93227 0
M  V30 1400 H 137.191 1.37456 2.14425 0
M  V30 1401 H 137.974 2.98476 1.69607 0
M  V30 1402 N 140.419 -1.14872 1.07899 0
M  V30 1403 C 141.351 -2.19425 0.662231 0
M  V30 1404 C 142.364 -1.60231 -0.288079 0
M  V30 1405 O 143.553 -1.78336 -0.076534 0
M  V30 1406 C 140.653 -3.38867 -0.0470695 0
M  V30 1407 C 139.826 -4.27597 0.920831 0
M  V30 1408 C 138.885 -5.25616 0.247805 0
M  V30 1409 O 137.911 -5.62189 0.890599 0
M  V30 1410 N 139.113 -5.71746 -1.00435 0
M  V30 1411 H 141.878 -2.55797 1.56166 0
M  V30 1412 H 139.439 -1.30042 0.964404 0
M  V30 1413 H 141.431 -4.01497 -0.50813 0
M  V30 1414 H 140.001 -3.00864 -0.848523 0
M  V30 1415 H 139.221 -3.61982 1.56087 0
M  V30 1416 H 140.509 -4.83748 1.57688 0
M  V30 1417 H 139.907 -5.44153 -1.54642 0
M  V30 1418 H 138.464 -6.36389 -1.40899 0
M  V30 1419 N 141.898 -0.863906 -1.31812 0
M  V30 1420 C 143.123 -0.48527 -2.01643 0
M  V30 1421 C 143.548 0.913058 -1.64453 0
M  V30 1422 O 142.906 1.6014 -0.849985 0
M  V30 1423 C 142.954 -0.642625 -3.54828 0
M  V30 1424 O 142.058 0.320659 -4.11151 0
M  V30 1425 H 141.399 -0.193793 -0.635091 0
M  V30 1426 H 143.929 -1.16565 -1.68148 0
M  V30 1427 H 143.939 -0.533628 -4.04495 0
M  V30 1428 H 142.614 -1.66227 -3.81237 0
M  V30 1429 H 141.191 0.167126 -3.72525 0
M  V30 1430 N 143.376 1.44774 -0.622745 0
M  V30 1431 C 144.604 2.06487 -0.130722 0
M  V30 1432 C 145.019 1.46476 1.19123 0
M  V30 1433 O 144.376 0.584502 1.72887 0
M  V30 1434 C 144.427 3.615 -0.000807207 0
M  V30 1435 O 144.148 4.19274 -1.27048 0
M  V30 1436 C 145.649 4.40229 0.520898 0
M  V30 1437 H 142.869 0.666704 -0.0758106 0
M  V30 1438 H 145.413 1.85779 -0.854774 0
M  V30 1439 H 143.568 3.81498 0.673643 0
M  V30 1440 H 143.982 5.12622 -1.1099 0
M  V30 1441 H 145.456 5.49144 0.560838 0
M  V30 1442 H 145.933 4.1108 1.54627 0
M  V30 1443 H 146.539 4.25131 -0.120018 0
M  V30 1444 N 144.854 0.36279 1.53368 0
M  V30 1445 C 145.764 -0.492994 2.29362 0
M  V30 1446 C 146.78 -1.09507 1.35219 0
M  V30 1447 O 147.956 -1.10662 1.68273 0
M  V30 1448 C 145.021 -1.61855 3.066 0
M  V30 1449 C 144.082 -1.04429 4.16405 0
M  V30 1450 C 143.315 -2.11621 4.89951 0
M  V30 1451 O 143.538 -3.32684 4.63333 0
M  V30 1452 O 142.472 -1.74835 5.75948 0
M  V30 1453 H 146.298 0.125331 3.03441 0
M  V30 1454 H 143.883 0.127253 1.48857 0
M  V30 1455 H 145.765 -2.27302 3.54841 0
M  V30 1456 H 144.44 -2.22233 2.3536 0
M  V30 1457 H 143.347 -0.353819 3.72423 0
M  V30 1458 H 144.68 -0.485113 4.89804 0
M  V30 1459 N 146.332 -1.57332 0.0918853 0
M  V30 1460 C 147.264 -2.10869 -0.898168 0
M  V30 1461 C 148.277 -1.04521 -1.24817 0
M  V30 1462 O 149.466 -1.31977 -1.20184 0
M  V30 1463 C 146.566 -2.57083 -2.2082 0
M  V30 1464 C 145.739 -3.87229 -2.03402 0
M  V30 1465 C 144.798 -4.19324 -3.17889 0
M  V30 1466 O 143.824 -4.88598 -2.91994 0
M  V30 1467 N 145.026 -3.74471 -4.43567 0
M  V30 1468 H 147.791 -2.96439 -0.440943 0
M  V30 1469 H 145.352 -1.61631 -0.0933064 0
M  V30 1470 H 147.344 -2.75602 -2.96354 0
M  V30 1471 H 145.914 -1.76541 -2.57977 0
M  V30 1472 H 145.134 -3.7789 -1.12218 0
M  V30 1473 H 146.422 -4.72379 -1.89038 0
M  V30 1474 H 145.82 -3.18546 -4.67488 0
M  V30 1475 H 144.377 -3.98151 -5.16061 0
M  V30 1476 N 147.81 0.181792 -1.56548 0
M  V30 1477 C 149.04 0.914618 -1.85252 0
M  V30 1478 C 149.448 1.76791 -0.673914 0
M  V30 1479 O 148.791 1.80009 0.366416 0
M  V30 1480 C 148.853 1.85019 -3.08234 0
M  V30 1481 C 148.517 1.17754 -4.41569 0
M  V30 1482 C 149.514 0.548035 -5.17003 0
M  V30 1483 C 147.199 1.17742 -4.88305 0
M  V30 1484 C 149.193 -0.0726128 -6.37359 0
M  V30 1485 C 146.88 0.552946 -6.08593 0
M  V30 1486 C 147.878 -0.070978 -6.82963 0
M  V30 1487 O 147.566 -0.685635 -8.00971 0
M  V30 1488 H 147.298 0.271695 -0.618998 0
M  V30 1489 H 149.852 0.189944 -2.0452 0
M  V30 1490 H 148.082 2.61491 -2.84885 0
M  V30 1491 H 149.771 2.45195 -3.23472 0
M  V30 1492 H 150.537 0.540174 -4.81982 0
M  V30 1493 H 146.416 1.65246 -4.30366 0
M  V30 1494 H 149.96 -0.560213 -6.95347 0
M  V30 1495 H 145.857 0.558354 -6.43081 0
M  V30 1496 H 146.625 -0.58385 -8.16415 0
M  V30 1497 N 149.288 1.51039 0.449983 0
M  V30 1498 C 150.565 1.53612 1.21089 0
M  V30 1499 C 150.945 0.292997 2.09057 0
M  V30 1500 O 150.293 -0.72259 2.16774 0
M  V30 1501 C 150.503 2.84337 2.0237 0
M  V30 1502 C 151.851 3.35807 2.59843 0
M  V30 1503 O 152.875 2.85802 2.12593 0
M  V30 1504 O 151.734 4.23029 3.45989 0
M  V30 1505 H 148.828 0.617057 0.550608 0
M  V30 1506 H 151.374 1.63344 0.460082 0
M  V30 1507 H 150.146 3.66278 1.37681 0
M  V30 1508 H 149.769 2.77708 2.84542 0
M  V30 1509 N 150.766 -0.704594 1.40972 0
M  V30 1510 C 152.177 -1.28418 1.3552 0
M  V30 1511 C 152.528 -1.96171 0.0339434 0
M  V30 1512 O 151.653 -1.98231 -0.867944 0
M  V30 1513 C 152.248 -2.33528 2.45459 0
M  V30 1514 C 150.807 -2.87085 2.43433 0
M  V30 1515 C 149.954 -1.61007 2.2577 0
M  V30 1516 H 152.905 -0.499963 1.50619 0
M  V30 1517 H 152.926 -3.14619 2.13998 0
M  V30 1518 H 152.438 -1.84187 3.41609 0
M  V30 1519 H 150.539 -3.40626 1.51013 0
M  V30 1520 H 150.652 -3.3813 3.39419 0
M  V30 1521 H 149.016 -1.86482 1.73483 0
M  V30 1522 H 149.799 -1.13675 3.23933 0
M  V30 1523 N 152.244 -1.26651 -0.937939 0
M  V30 1524 C 153.491 -1.12387 -1.6845 0
M  V30 1525 C 153.819 0.332208 -1.91642 0
M  V30 1526 O 153.074 1.2602 -1.49725 0
M  V30 1527 C 153.373 -1.84168 -3.06295 0
M  V30 1528 C 153.039 -3.34056 -3.02849 0
M  V30 1529 C 151.701 -3.74942 -3.01616 0
M  V30 1530 C 154.053 -4.29741 -2.9491 0
M  V30 1531 C 151.381 -5.09894 -2.90215 0
M  V30 1532 C 153.733 -5.64738 -2.8505 0
M  V30 1533 C 152.397 -6.0493 -2.82162 0
M  V30 1534 H 151.667 -0.411252 -0.616403 0
M  V30 1535 H 154.314 -1.57134 -1.09459 0
M  V30 1536 H 152.619 -1.319 -3.6893 0
M  V30 1537 H 154.316 -1.70569 -3.62915 0
M  V30 1538 H 150.906 -3.01534 -3.0459 0
M  V30 1539 H 155.09 -3.99133 -2.94969 0
M  V30 1540 H 150.346 -5.40194 -2.86358 0
M  V30 1541 H 154.52 -6.38561 -2.77872 0
M  V30 1542 H 152.147 -7.09457 -2.73084 0
M  V30 1543 N 153.722 1.14298 -1.08507 0
M  V30 1544 C 154.685 2.17607 -0.719711 0
M  V30 1545 C 155.685 1.58907 0.245997 0
M  V30 1546 O 156.875 1.74181 0.0254081 0
M  V30 1547 C 154.007 3.40842 -0.0627695 0
M  V30 1548 H 155.2 2.51443 -1.63452 0
M  V30 1549 H 152.753 1.28963 -0.88307 0
M  V30 1550 H 153.488 3.12587 0.863716 0
M  V30 1551 H 153.273 3.84713 -0.757504 0
M  V30 1552 H 154.763 4.17221 0.177786 0
M  V30 1553 N 155.201 0.870884 1.31352 0
M  V30 1554 C 156.111 0.330783 2.32256 0
M  V30 1555 C 157.127 -0.559767 1.6475 0
M  V30 1556 O 158.303 -0.456263 1.96164 0
M  V30 1557 C 155.368 -0.458137 3.4366 0
M  V30 1558 C 154.429 0.460482 4.26823 0
M  V30 1559 C 153.662 -0.290881 5.32907 0
M  V30 1560 O 153.885 -1.51885 5.49806 0
M  V30 1561 O 152.819 0.351732 6.00871 0
M  V30 1562 H 156.645 1.16718 2.80376 0
M  V30 1563 H 154.23 0.634285 1.35267 0
M  V30 1564 H 156.112 -0.905343 4.1156 0
M  V30 1565 H 154.787 -1.27106 2.97701 0
M  V30 1566 H 153.694 0.956207 3.61673 0
M  V30 1567 H 155.027 1.23903 4.7635 0
M  V30 1568 N 156.679 -1.44442 0.630414 0
M  V30 1569 C 157.629 -2.27794 -0.0968103 0
M  V30 1570 C 158.613 -1.38624 -0.816834 0
M  V30 1571 O 159.805 -1.62438 -0.70306 0
M  V30 1572 C 156.934 -3.25929 -1.07819 0
M  V30 1573 C 156.02 -4.22588 -0.357826 0
M  V30 1574 N 156.411 -5.0207 0.613169 0
M  V30 1575 C 154.709 -4.41914 -0.602365 0
M  V30 1576 C 155.41 -5.72351 1.03871 0
M  V30 1577 N 154.386 -5.42287 0.377642 0
M  V30 1578 H 158.188 -2.86653 0.648621 0
M  V30 1579 H 155.702 -1.55871 0.455862 0
M  V30 1580 H 157.699 -3.84399 -1.61378 0
M  V30 1581 H 156.359 -2.68631 -1.82393 0
M  V30 1582 H 157.37 -5.08331 0.990947 0
M  V30 1583 H 154.047 -3.95714 -1.33103 0
M  V30 1584 H 155.437 -6.4619 1.84086 0
M  V30 1585 N 158.157 -0.370918 -1.53173 0
M  V30 1586 C 159.573 -0.0200818 -1.59587 0
M  V30 1587 C 159.773 1.46279 -1.38581 0
M  V30 1588 O 158.829 2.22506 -1.19363 0
M  V30 1589 C 160.142 -0.4808 -2.96831 0
M  V30 1590 C 161.69 -0.435477 -3.09956 0
M  V30 1591 C 162.165 -0.872092 -4.4962 0
M  V30 1592 N 163.656 -0.827364 -4.55751 0
M  V30 1593 C 164.391 -1.13683 -5.62018 0
M  V30 1594 N 163.887 -1.51584 -6.76014 0
M  V30 1595 N 165.68 -1.05927 -5.52029 0
M  V30 1596 H 157.831 -1.33652 -1.65079 0
M  V30 1597 H 160.094 -0.546634 -0.774529 0
M  V30 1598 H 159.8 -1.51577 -3.1736 0
M  V30 1599 H 159.674 0.129796 -3.76977 0
M  V30 1600 H 162.061 0.590371 -2.89134 0
M  V30 1601 H 162.142 -1.08164 -2.31806 0
M  V30 1602 H 161.786 -1.89608 -4.71181 0
M  V30 1603 H 161.716 -0.203127 -5.26208 0
M  V30 1604 H 164.207 -0.548216 -3.73902 0
M  V30 1605 H 164.52 -1.73609 -7.53047 0
M  V30 1606 H 162.865 -1.55454 -6.77391 0
M  V30 1607 H 166.056 -0.762321 -4.61851 0
M  V30 1608 H 166.229 -1.30378 -6.34749 0
M  V30 1609 N 159.635 1.57281 -0.100228 0
M  V30 1610 C 161.046 1.81725 0.428107 0
M  V30 1611 C 161.397 1.01619 1.67833 0
M  V30 1612 O 160.522 0.247098 2.14985 0
M  V30 1613 C 161.117 3.29617 0.78347 0
M  V30 1614 C 159.676 3.54808 1.25653 0
M  V30 1615 C 158.823 2.76118 0.255752 0
M  V30 1616 H 161.774 1.55324 -0.325608 0
M  V30 1617 H 161.795 3.4322 1.64256 0
M  V30 1618 H 161.307 3.87893 -0.12665 0
M  V30 1619 H 159.408 3.01868 2.18418 0
M  V30 1620 H 159.521 4.63443 1.21482 0
M  V30 1621 H 157.885 2.43745 0.738956 0
M  V30 1622 H 158.668 3.37145 -0.647136 0
M  V30 1623 N 161.113 -0.173488 1.56642 0
M  V30 1624 C 162.524 -0.736155 1.71574 0
M  V30 1625 C 162.875 -1.82888 0.710389 0
M  V30 1626 O 162 -2.16017 -0.1287 0
M  V30 1627 C 162.595 -1.34211 3.11083 0
M  V30 1628 C 161.154 -1.85162 3.27707 0
M  V30 1629 C 160.301 -0.729765 2.67525 0
M  V30 1630 H 163.252 0.0518786 1.58615 0
M  V30 1631 H 163.273 -2.21178 3.09613 0
M  V30 1632 H 162.785 -0.546579 3.84232 0
M  V30 1633 H 160.886 -2.67366 2.59512 0
M  V30 1634 H 160.999 -1.99855 4.35425 0
M  V30 1635 H 159.363 -1.14965 2.27278 0
M  V30 1636 H 160.146 0.0538806 3.43258 0
M  V30 1637 N 162.591 -1.51276 -0.441967 0
M  V30 1638 C 163.538 -1.72256 -1.53612 0
M  V30 1639 C 164.508 -0.564164 -1.56225 0
M  V30 1640 O 165.693 -0.798074 -1.73307 0
M  V30 1641 C 162.833 -1.84932 -2.91366 0
M  V30 1642 C 161.946 -3.12459 -2.98317 0
M  V30 1643 C 161.081 -3.15758 -4.27166 0
M  V30 1644 C 160.12 -4.37619 -4.27967 0
M  V30 1645 N 159.257 -4.38493 -5.48333 0
M  V30 1646 H 164.097 -2.65654 -1.35026 0
M  V30 1647 H 161.634 -1.31662 -0.656009 0
M  V30 1648 H 163.592 -1.90263 -3.7129 0
M  V30 1649 H 162.222 -0.949461 -3.08521 0
M  V30 1650 H 161.274 -3.1646 -2.11086 0
M  V30 1651 H 162.586 -4.02382 -2.94771 0
M  V30 1652 H 161.74 -3.19979 -5.15459 0
M  V30 1653 H 160.479 -2.23715 -4.33362 0
M  V30 1654 H 159.484 -4.33579 -3.38067 0
M  V30 1655 H 160.709 -5.30921 -4.23438 0
M  V30 1656 H 158.655 -3.49318 -5.55259 0
M  V30 1657 H 158.572 -5.22219 -5.46647 0
M  V30 1658 H 159.84 -4.469 -6.38671 0
M  V30 1659 N 164.069 0.697108 -1.41344 0
M  V30 1660 C 165.318 1.45279 -1.39918 0
M  V30 1661 C 165.631 1.95597 -0.0109624 0
M  V30 1662 O 166.837 2.71208 0.125919 0
M  V30 1663 C 165.293 2.62695 -2.46007 0
M  V30 1664 C 164.901 2.19169 -3.90729 0
M  V30 1665 C 166.645 3.40336 -2.53715 0
M  V30 1666 C 164.552 3.33535 -4.88373 0
M  V30 1667 H 163.482 0.545692 -0.520323 0
M  V30 1668 H 166.133 0.756929 -1.67161 0
M  V30 1669 H 164.515 3.34541 -2.11892 0
M  V30 1670 H 165.689 1.54623 -4.34083 0
M  V30 1671 H 164.004 1.54525 -3.86666 0
M  V30 1672 H 166.601 4.2547 -3.2385 0
M  V30 1673 H 166.944 3.85418 -1.5735 0
M  V30 1674 H 167.477 2.75546 -2.86913 0
M  V30 1675 H 164.216 2.93468 -5.86137 0
M  V30 1676 H 163.736 3.96936 -4.49668 0
M  V30 1677 H 165.415 3.99335 -5.09059 0
M  V30 1678 N 165.547 1.27147 0.931209 0
M  V30 1679 C 166.51 1.09615 2.01289 0
M  V30 1680 C 167.51 0.0412581 1.60747 0
M  V30 1681 O 168.7 0.285545 1.71844 0
M  V30 1682 C 165.832 0.669447 3.34262 0
M  V30 1683 H 167.025 2.05662 2.18273 0
M  V30 1684 H 164.578 1.09885 1.11153 0
M  V30 1685 H 165.313 -0.292572 3.22978 0
M  V30 1686 H 165.098 1.43127 3.65044 0
M  V30 1687 H 166.588 0.568921 4.13706 0
M  V30 1688 N 167.025 -1.13721 1.09112 0
M  V30 1689 C 168.302 -1.81155 0.737706 0
M  V30 1690 C 168.682 -1.96253 -0.777683 0
M  V30 1691 O 168.03 -1.52807 -1.69889 0
M  V30 1692 C 168.24 -3.16392 1.47299 0
M  V30 1693 C 169.588 -3.91787 1.63671 0
M  V30 1694 O 170.612 -3.26005 1.43524 0
M  V30 1695 O 169.471 -5.0977 1.96969 0
M  V30 1696 H 166.565 -0.783518 0.26463 0
M  V30 1697 H 169.111 -1.20676 1.19312 0
M  V30 1698 H 167.883 -3.0061 2.50498 0
M  V30 1699 H 167.506 -3.8457 1.00953 0
M  V30 1700 N 168.503 -0.877838 -1.30888 0
M  V30 1701 C 169.919 -0.570844 -1.49042 0
M  V30 1702 C 170.119 0.893159 -1.80624 0
M  V30 1703 O 169.175 1.67485 -1.88958 0
M  V30 1704 C 170.488 -1.47784 -2.61878 0
M  V30 1705 C 172.036 -1.48071 -2.75761 0
M  V30 1706 C 172.511 -2.37347 -3.91702 0
M  V30 1707 N 174.002 -2.35271 -3.99001 0
M  V30 1708 C 174.737 -3.01063 -4.88004 0
M  V30 1709 N 174.233 -3.76055 -5.81854 0
M  V30 1710 N 176.026 -2.90332 -4.81315 0
M  V30 1711 H 168.177 -1.82502 -1.0866 0
M  V30 1712 H 170.44 -0.780797 -0.537644 0
M  V30 1713 H 170.146 -2.51993 -2.45341 0
M  V30 1714 H 170.02 -1.18215 -3.58197 0
M  V30 1715 H 172.407 -0.446166 -2.91708 0
M  V30 1716 H 172.488 -1.81668 -1.80085 0
M  V30 1717 H 172.132 -3.40883 -3.76512 0
M  V30 1718 H 172.062 -2.01071 -4.86701 0
M  V30 1719 H 174.553 -1.80768 -3.3186 0
M  V30 1720 H 174.866 -4.23366 -6.46514 0
M  V30 1721 H 173.211 -3.80163 -5.81808 0
M  V30 1722 H 176.402 -2.31278 -4.06974 0
M  V30 1723 H 176.575 -3.41885 -5.50471 0
M  V30 1724 N 169.982 1.44106 -0.638065 0
M  V30 1725 C 170.892 2.34513 0.0637334 0
M  V30 1726 C 171.908 1.53018 0.828346 0
M  V30 1727 O 173.084 1.85723 0.779036 0
M  V30 1728 C 170.149 3.31095 1.02844 0
M  V30 1729 C 169.21 4.28497 0.26244 0
M  V30 1730 C 168.443 5.20465 1.1812 0
M  V30 1731 O 168.666 5.16514 2.42011 0
M  V30 1732 O 167.6 5.98251 0.661774 0
M  V30 1733 H 171.426 2.95989 -0.68003 0
M  V30 1734 H 169.011 1.43994 -0.398252 0
M  V30 1735 H 170.893 3.90526 1.58327 0
M  V30 1736 H 169.568 2.72144 1.7527 0
M  V30 1737 H 168.475 3.72592 -0.335602 0
M  V30 1738 H 169.808 4.90388 -0.421936 0
M  V30 1739 N 171.46 0.379036 1.52974 0
M  V30 1740 C 172.737 -0.263479 1.93817 0
M  V30 1741 C 173.117 -1.65244 1.31368 0
M  V30 1742 O 172.465 -2.23448 0.477856 0
M  V30 1743 C 172.675 -0.300166 3.47707 0
M  V30 1744 C 174.023 -0.534061 4.21228 0
M  V30 1745 O 175.047 -0.38081 3.54159 0
M  V30 1746 O 173.906 -0.833501 5.40106 0
M  V30 1747 H 171 -0.161149 0.811147 0
M  V30 1748 H 173.546 0.432798 1.64088 0
M  V30 1749 H 172.318 0.673138 3.85467 0
M  V30 1750 H 171.941 -1.04179 3.83709 0
M  V30 1751 N 172.938 -1.57226 0.108567 0
M  V30 1752 C 173.848 -2.18292 -0.859401 0
M  V30 1753 C 174.864 -1.15612 -1.30038 0
M  V30 1754 O 176.04 -1.48039 -1.36552 0
M  V30 1755 C 173.105 -2.762 -2.09558 0
M  V30 1756 C 172.166 -3.93881 -1.70752 0
M  V30 1757 C 171.399 -4.49018 -2.88477 0
M  V30 1758 O 171.622 -4.03068 -4.036 0
M  V30 1759 O 170.556 -5.39852 -2.66164 0
M  V30 1760 H 174.382 -3.01441 -0.369769 0
M  V30 1761 H 171.967 -1.48945 -0.1165 0
M  V30 1762 H 173.849 -3.13156 -2.81978 0
M  V30 1763 H 172.524 -1.96089 -2.57548 0
M  V30 1764 H 171.431 -3.61713 -0.954714 0
M  V30 1765 H 172.764 -4.75396 -1.27513 0
M  V30 1766 N 174.416 0.165178 -1.56732 0
M  V30 1767 C 175.646 0.894919 -1.86212 0
M  V30 1768 C 176.054 1.76066 -0.692627 0
M  V30 1769 O 175.397 1.80387 0.347303 0
M  V30 1770 C 175.459 1.8174 -3.10179 0
M  V30 1771 C 175.123 1.13064 -4.42793 0
M  V30 1772 C 176.12 0.493169 -5.17556 0
M  V30 1773 C 173.805 1.12556 -4.89527 0
M  V30 1774 C 175.799 -0.140209 -6.37246 0
M  V30 1775 C 173.486 0.488366 -6.09145 0
M  V30 1776 C 174.484 -0.143411 -6.82849 0
M  V30 1777 O 174.172 -0.77055 -8.00199 0
M  V30 1778 H 173.904 0.265114 -0.621844 0
M  V30 1779 H 176.458 0.168242 -2.0471 0
M  V30 1780 H 174.688 2.58455 -2.87642 0
M  V30 1781 H 176.377 2.4175 -3.26055 0
M  V30 1782 H 177.143 0.489023 -4.82528 0
M  V30 1783 H 173.022 1.60672 -4.32094 0
M  V30 1784 H 176.566 -0.633932 -6.94714 0
M  V30 1785 H 172.463 0.490116 -6.43637 0
M  V30 1786 H 173.231 -0.670408 -8.1575 0
M  V30 1787 N 175.894 1.51508 0.433938 0
M  V30 1788 C 176.841 1.73068 1.52696 0
M  V30 1789 C 177.811 0.572441 1.55924 0
M  V30 1790 O 178.996 0.807253 1.72882 0
M  V30 1791 C 176.136 1.86474 2.90381 0
M  V30 1792 C 175.249 3.14037 2.96656 0
M  V30 1793 C 174.384 3.18019 4.25485 0
M  V30 1794 C 173.423 4.39882 4.2564 0
M  V30 1795 N 172.56 4.41394 5.45999 0
M  V30 1796 H 177.4 2.66366 1.33615 0
M  V30 1797 H 174.937 1.32008 0.649018 0
M  V30 1798 H 176.895 1.92229 3.70275 0
M  V30 1799 H 175.525 0.965809 3.08013 0
M  V30 1800 H 174.577 3.17575 2.09404 0
M  V30 1801 H 175.889 4.0394 2.92633 0
M  V30 1802 H 175.043 3.22708 5.13755 0
M  V30 1803 H 173.782 2.2601 4.3217 0
M  V30 1804 H 172.787 4.35366 3.35763 0
M  V30 1805 H 174.012 5.33159 4.20617 0
M  V30 1806 H 171.958 3.52258 5.53399 0
M  V30 1807 H 171.875 5.25111 5.4387 0
M  V30 1808 H 173.143 4.50281 6.36292 0
M  V30 1809 N 177.372 -0.689602 1.41712 0
M  V30 1810 C 178.319 -1.80345 1.44029 0
M  V30 1811 C 179.289 -1.63478 0.293948 0
M  V30 1812 O 180.474 -1.84244 0.495869 0
M  V30 1813 C 177.614 -3.18272 1.33405 0
M  V30 1814 C 176.727 -3.46529 2.57956 0
M  V30 1815 C 175.862 -4.74103 2.39582 0
M  V30 1816 C 174.901 -4.95347 3.5958 0
M  V30 1817 N 174.038 -6.14151 3.40239 0
M  V30 1818 H 178.878 -1.77698 2.39222 0
M  V30 1819 H 176.415 -0.867688 1.18784 0
M  V30 1820 H 178.373 -3.97956 1.25246 0
M  V30 1821 H 177.003 -3.2008 0.418164 0
M  V30 1822 H 176.055 -2.61207 2.76542 0
M  V30 1823 H 177.367 -3.58126 3.47199 0
M  V30 1824 H 176.521 -5.61853 2.28924 0
M  V30 1825 H 175.26 -4.64763 1.47805 0
M  V30 1826 H 174.265 -4.06044 3.70686 0
M  V30 1827 H 175.49 -5.06542 4.52318 0
M  V30 1828 H 173.436 -6.06013 2.51167 0
M  V30 1829 H 173.353 -6.26543 4.23061 0
M  V30 1830 H 174.621 -7.04619 3.33365 0
M  V30 1831 N 178.85 -1.27639 -0.924453 0
M  V30 1832 C 179.8 -1.07295 -2.01176 0
M  V30 1833 C 180.784 5.77352e-05 -1.609 0
M  V30 1834 O 181.976 -0.218855 -1.75642 0
M  V30 1835 C 179.105 -0.725592 -3.35544 0
M  V30 1836 C 178.191 -1.83691 -3.82254 0
M  V30 1837 N 178.582 -3.07697 -4.01443 0
M  V30 1838 C 176.88 -1.72433 -4.11319 0
M  V30 1839 C 177.581 -3.80037 -4.40394 0
M  V30 1840 N 176.557 -3.0782 -4.48049 0
M  V30 1841 H 180.359 -2.01399 -2.14046 0
M  V30 1842 H 177.873 -1.18401 -1.11153 0
M  V30 1843 H 179.87 -0.560959 -4.13109 0
M  V30 1844 H 178.53 0.207782 -3.24034 0
M  V30 1845 H 179.541 -3.43424 -3.8766 0
M  V30 1846 H 176.218 -0.862005 -4.08504 0
M  V30 1847 H 177.608 -4.86632 -4.63291 0
M  V30 1848 N 180.328 1.1314 -1.09713 0
M  V30 1849 C 181.744 1.36477 -0.827423 0
M  V30 1850 C 181.944 1.93654 0.556817 0
M  V30 1851 O 181 2.15791 1.31112 0
M  V30 1852 C 182.313 2.31334 -1.92106 0
M  V30 1853 C 183.861 2.44943 -1.94864 0
M  V30 1854 C 184.336 3.4311 -3.0338 0
M  V30 1855 N 185.827 3.50662 -3.02639 0
M  V30 1856 C 186.562 4.2651 -3.83246 0
M  V30 1857 N 186.058 5.05485 -4.73768 0
M  V30 1858 N 187.851 4.2184 -3.71493 0
M  V30 1859 H 180.002 0.743807 -1.9895 0
M  V30 1860 H 182.265 0.389823 -0.864143 0
M  V30 1861 H 181.971 1.96483 -2.91698 0
M  V30 1862 H 181.845 3.31381 -1.80184 0
M  V30 1863 H 184.232 2.79079 -0.959099 0
M  V30 1864 H 184.313 1.4481 -2.10864 0
M  V30 1865 H 183.957 3.09704 -4.02549 0
M  V30 1866 H 183.887 4.43055 -2.84622 0
M  V30 1867 H 186.378 2.94315 -2.37039 0
M  V30 1868 H 186.691 5.60675 -5.3185 0
M  V30 1869 H 185.036 5.04708 -4.77802 0
M  V30 1870 H 188.227 3.5922 -3.00131 0
M  V30 1871 H 188.4 4.80697 -4.3455 0
M  V30 1872 N 181.806 0.884767 1.30421 0
M  V30 1873 C 183.222 0.57874 1.48737 0
M  V30 1874 C 183.422 -0.883567 1.81095 0
M  V30 1875 O 182.478 -1.6648 1.89844 0
M  V30 1876 C 183.791 1.49171 2.61091 0
M  V30 1877 C 185.339 1.49532 2.74971 0
M  V30 1878 C 185.814 2.39421 3.90438 0
M  V30 1879 N 187.305 2.37383 3.97748 0
M  V30 1880 C 188.04 3.03647 4.86401 0
M  V30 1881 N 187.536 3.79136 5.79852 0
M  V30 1882 N 189.329 2.9288 4.79768 0
M  V30 1883 H 181.48 1.83075 1.0769 0
M  V30 1884 H 183.743 0.783637 0.533495 0
M  V30 1885 H 183.449 2.53291 2.44001 0
M  V30 1886 H 183.323 1.20113 3.57565 0
M  V30 1887 H 185.71 0.46163 2.91467 0
M  V30 1888 H 185.791 1.8262 1.79119 0
M  V30 1889 H 185.435 3.42874 3.74699 0
M  V30 1890 H 185.365 2.03649 4.85628 0
M  V30 1891 H 187.856 1.82525 3.30897 0
M  V30 1892 H 188.169 4.26789 6.4426 0
M  V30 1893 H 186.514 3.83243 5.79784 0
M  V30 1894 H 189.705 2.33433 4.05742 0
M  V30 1895 H 189.878 3.448 5.4865 0
M  V30 1896 N 183.284 -1.43765 0.645699 0
M  V30 1897 C 184.512 -2.06253 0.163556 0
M  V30 1898 C 184.927 -1.48352 -1.16778 0
M  V30 1899 O 184.284 -0.611932 -1.71935 0
M  V30 1900 C 184.335 -3.61453 0.0583186 0
M  V30 1901 O 184.056 -4.172 1.33702 0
M  V30 1902 C 185.557 -4.41002 -0.450795 0
M  V30 1903 H 182.777 -0.665413 0.0864077 0
M  V30 1904 H 185.321 -1.84396 0.884222 0
M  V30 1905 H 183.476 -3.82522 -0.612865 0
M  V30 1906 H 183.89 -5.10791 1.19131 0
M  V30 1907 H 185.364 -5.49966 -0.473403 0
M  V30 1908 H 185.841 -4.13488 -1.48068 0
M  V30 1909 H 186.447 -4.24886 0.187637 0
M  V30 1910 N 184.763 -0.387143 -1.52771 0
M  V30 1911 C 185.696 0.493123 -2.22808 0
M  V30 1912 C 186.674 1.0658 -1.22798 0
M  V30 1913 O 187.858 1.11785 -1.51777 0
M  V30 1914 C 184.985 1.68238 -2.93962 0
M  V30 1915 C 184.031 1.23515 -4.08223 0
M  V30 1916 S 184.864 0.21848 -5.35054 0
M  V30 1917 C 186.02 1.41357 -6.09729 0
M  V30 1918 H 186.253 -0.101625 -2.97126 0
M  V30 1919 H 183.786 -0.171323 -1.53447 0
M  V30 1920 H 185.744 2.36443 -3.35567 0
M  V30 1921 H 184.405 2.24842 -2.19328 0
M  V30 1922 H 183.598 2.12304 -4.57103 0
M  V30 1923 H 183.2 0.632044 -3.68621 0
M  V30 1924 H 185.492 2.34101 -6.3577 0
M  V30 1925 H 186.435 0.965736 -7.01484 0
M  V30 1926 H 186.843 1.6294 -5.40473 0
M  V30 1927 N 186.241 1.57166 -0.116904 0
M  V30 1928 C 187.49 1.94298 0.541407 0
M  V30 1929 C 187.803 1.00236 1.67964 0
M  V30 1930 O 189.009 1.26826 2.40057 0
M  V30 1931 C 187.465 3.45306 1.01449 0
M  V30 1932 C 187.073 4.47899 -0.0951738 0
M  V30 1933 C 188.817 3.91361 1.6443 0
M  V30 1934 C 186.724 5.90083 0.394491 0
M  V30 1935 H 185.654 0.725308 0.206019 0
M  V30 1936 H 188.305 1.82446 -0.196419 0
M  V30 1937 H 186.687 3.52385 1.80667 0
M  V30 1938 H 187.861 4.52486 -0.871374 0
M  V30 1939 H 186.176 4.11583 -0.631505 0
M  V30 1940 H 188.773 4.95004 2.02176 0
M  V30 1941 H 189.116 3.3122 2.52189 0
M  V30 1942 H 189.649 3.87073 0.917559 0
M  V30 1943 H 186.388 6.53974 -0.447004 0
M  V30 1944 H 185.908 5.88921 1.13722 0
M  V30 1945 H 187.587 6.41307 0.856399 0
M  V30 1946 N 187.719 -0.156864 1.56817 0
M  V30 1947 C 188.968 -0.869504 1.81996 0
M  V30 1948 C 189.281 -1.82777 0.696545 0
M  V30 1949 O 190.487 -2.58384 0.833658 0
M  V30 1950 C 188.943 -1.59679 3.22538 0
M  V30 1951 C 188.551 -0.681431 4.42787 0
M  V30 1952 C 190.295 -2.2968 3.56997 0
M  V30 1953 C 188.202 -1.40978 5.74351 0
M  V30 1954 H 187.132 -0.328438 0.678708 0
M  V30 1955 H 189.783 -0.1223 1.83092 0
M  V30 1956 H 188.165 -2.38927 3.158 0
M  V30 1957 H 189.339 0.0751166 4.60739 0
M  V30 1958 H 187.654 -0.0903431 4.16302 0
M  V30 1959 H 190.251 -2.84794 4.52544 0
M  V30 1960 H 190.594 -3.05707 2.82576 0
M  V30 1961 H 191.127 -1.57361 3.65352 0
M  V30 1962 H 187.866 -0.691561 6.51842 0
M  V30 1963 H 187.386 -2.13929 5.60352 0
M  V30 1964 H 189.065 -1.95337 6.16808 0
M  V30 1965 N 189.197 -1.51736 -0.425897 0
M  V30 1966 C 190.422 -1.69082 -1.20108 0
M  V30 1967 C 190.847 -0.392398 -1.83962 0
M  V30 1968 O 190.205 0.64858 -1.69302 0
M  V30 1969 C 190.253 -2.81604 -2.25237 0
M  V30 1970 O 189.357 -2.46004 -3.30992 0
M  V30 1971 H 188.698 -0.563408 -0.35138 0
M  V30 1972 H 191.228 -1.98358 -0.501512 0
M  V30 1973 H 191.238 -3.06025 -2.69838 0
M  V30 1974 H 189.913 -3.75817 -1.78142 0
M  V30 1975 H 188.49 -2.32195 -2.91787 0
M  V30 1976 N 190.675 0.682077 -1.42076 0
M  V30 1977 C 192.086 1.26246 -1.37546 0
M  V30 1978 C 192.437 1.96092 -0.0651481 0
M  V30 1979 O 191.562 1.99587 0.836297 0
M  V30 1980 C 192.157 2.29594 -2.49143 0
M  V30 1981 C 190.716 2.83175 -2.47969 0
M  V30 1982 C 189.863 1.57395 -2.28303 0
M  V30 1983 H 192.814 0.475937 -1.51395 0
M  V30 1984 H 192.835 3.11175 -2.18976 0
M  V30 1985 H 192.347 1.78729 -3.44496 0
M  V30 1986 H 190.448 3.3818 -1.56413 0
M  V30 1987 H 190.561 3.32687 -3.44755 0
M  V30 1988 H 188.925 1.83699 -1.76428 0
M  V30 1989 H 189.708 1.08507 -3.25701 0
M  V30 1990 N 192.153 1.28127 0.917671 0
M  V30 1991 C 193.063 1.13556 2.05286 0
M  V30 1992 C 194.079 0.0630914 1.73886 0
M  V30 1993 O 195.255 0.271598 1.9956 0
M  V30 1994 C 192.32 0.794676 3.3747 0
M  V30 1995 C 191.381 1.94909 3.82504 0
M  V30 1996 C 190.614 1.62437 5.0838 0
M  V30 1997 O 190.837 0.536905 5.67867 0
M  V30 1998 O 189.771 2.46677 5.4903 0
M  V30 1999 H 193.597 2.08844 2.20495 0
M  V30 2000 H 191.182 1.07409 1.03845 0
M  V30 2001 H 193.064 0.618344 4.16839 0
M  V30 2002 H 191.739 -0.128581 3.23445 0
M  V30 2003 H 190.646 2.18055 3.03978 0
M  V30 2004 H 191.979 2.85291 4.01086 0
M  V30 2005 N 193.631 -1.12557 1.10312 0
M  V30 2006 C 195.047 -1.36036 0.834649 0
M  V30 2007 C 195.247 -1.93946 -0.546539 0
M  V30 2008 O 194.303 -2.16484 -1.29966 0
M  V30 2009 C 195.616 -2.30312 1.9333 0
M  V30 2010 C 197.164 -2.43906 1.9616 0
M  V30 2011 C 197.639 -3.41496 3.05195 0
M  V30 2012 N 199.13 -3.49053 3.04494 0
M  V30 2013 C 199.865 -4.24471 3.85502 0
M  V30 2014 N 199.361 -5.02966 4.76442 0
M  V30 2015 N 201.154 -4.19864 3.73725 0
M  V30 2016 H 193.305 -0.733246 1.99342 0
M  V30 2017 H 195.568 -0.385234 0.866198 0
M  V30 2018 H 195.274 -1.94933 2.92735 0
M  V30 2019 H 195.148 -3.30421 1.81939 0
M  V30 2020 H 197.535 -2.78567 0.973886 0
M  V30 2021 H 197.616 -1.4369 2.11629 0
M  V30 2022 H 197.26 -3.07565 4.04186 0
M  V30 2023 H 197.19 -4.41539 2.86968 0
M  V30 2024 H 199.681 -2.93053 2.38596 0
M  V30 2025 H 199.994 -5.57846 5.34815 0
M  V30 2026 H 198.339 -5.02167 4.80472 0
M  V30 2027 H 201.53 -3.57623 3.02032 0
M  V30 2028 H 201.703 -4.78386 4.37093 0
M  V30 2029 N 195.109 -0.891671 -1.2995 0
M  V30 2030 C 196.039 -0.379797 -2.30391 0
M  V30 2031 C 197.02 0.540919 -1.6127 0
M  V30 2032 O 198.205 0.453352 -1.88834 0
M  V30 2033 C 195.335 0.400654 -3.44981 0
M  V30 2034 C 194.289 -0.428905 -4.25846 0
M  V30 2035 C 193.615 0.478557 -5.32554 0
M  V30 2036 C 194.915 -1.67458 -4.94727 0
M  V30 2037 H 196.609 -1.21914 -2.73454 0
M  V30 2038 H 194.155 -0.587675 -1.31462 0
M  V30 2039 H 196.108 0.769434 -4.14316 0
M  V30 2040 H 194.832 1.27371 -3.0074 0
M  V30 2041 H 193.491 -0.779911 -3.58208 0
M  V30 2042 H 193.139 1.34951 -4.84559 0
M  V30 2043 H 192.839 -0.0727433 -5.87555 0
M  V30 2044 H 194.363 0.843705 -6.04743 0
M  V30 2045 H 195.777 -1.376 -5.56542 0
M  V30 2046 H 194.174 -2.16659 -5.59624 0
M  V30 2047 H 195.244 -2.41518 -4.20473 0
M  V30 2048 N 196.587 1.43421 -0.653314 0
M  V30 2049 C 197.864 1.95361 -0.0966581 0
M  V30 2050 C 198.244 1.59461 1.38331 0
M  V30 2051 O 197.592 0.879777 2.10884 0
M  V30 2052 C 197.802 3.47311 -0.342988 0
M  V30 2053 C 199.15 4.23875 -0.24798 0
M  V30 2054 O 200.174 3.55133 -0.275553 0
M  V30 2055 O 199.033 5.4623 -0.171771 0
M  V30 2056 H 196.127 0.826945 0.00956291 0
M  V30 2057 H 198.673 1.5336 -0.726558 0
M  V30 2058 H 197.445 3.66569 -1.36906 0
M  V30 2059 H 197.068 3.9631 0.319975 0
M  V30 2060 N 198.065 0.39524 1.52563 0
M  V30 2061 C 199.476 -0.0774719 1.86539 0
M  V30 2062 C 199.827 -1.45641 1.31466 0
M  V30 2063 O 198.952 -2.06459 0.648367 0
M  V30 2064 C 199.547 -0.147356 3.38479 0
M  V30 2065 C 198.106 -0.564373 3.72145 0
M  V30 2066 C 197.253 0.269919 2.75983 0
M  V30 2067 H 200.204 0.612876 1.46388 0
M  V30 2068 H 200.225 -0.965343 3.68051 0
M  V30 2069 H 199.737 0.856387 3.78534 0
M  V30 2070 H 197.838 -1.57527 3.37663 0
M  V30 2071 H 197.951 -0.318402 4.78041 0
M  V30 2072 H 196.315 -0.265696 2.5331 0
M  V30 2073 H 197.098 1.27175 3.18875 0
M  V30 2074 N 199.544 -1.57102 0.125237 0
M  V30 2075 C 200.791 -1.95407 -0.531248 0
M  V30 2076 C 201.119 -1.0089 -1.66287 0
M  V30 2077 O 200.374 -0.0339431 -1.95671 0
M  V30 2078 C 200.673 -3.40096 -1.09862 0
M  V30 2079 C 200.339 -4.50815 -0.0876989 0
M  V30 2080 C 199.001 -4.80824 0.19026 0
M  V30 2081 C 201.353 -5.17724 0.600902 0
M  V30 2082 C 198.681 -5.75058 1.163 0
M  V30 2083 C 201.033 -6.13005 1.56231 0
M  V30 2084 C 199.697 -6.41403 1.8482 0
M  V30 2085 H 198.967 -0.715046 -0.194397 0
M  V30 2086 H 201.614 -1.90373 0.207463 0
M  V30 2087 H 199.919 -3.41855 -1.91422 0
M  V30 2088 H 201.616 -3.6705 -1.61478 0
M  V30 2089 H 198.206 -4.27444 -0.314528 0
M  V30 2090 H 202.39 -4.94691 0.399333 0
M  V30 2091 H 197.646 -5.95362 1.39117 0
M  V30 2092 H 201.82 -6.63934 2.10153 0
M  V30 2093 H 199.447 -7.14229 2.60349 0
M  V30 2094 N 201.022 0.148545 -1.56898 0
M  V30 2095 C 201.985 1.16736 -1.97244 0
M  V30 2096 C 202.985 1.35947 -0.858777 0
M  V30 2097 O 204.175 1.32966 -1.12542 0
M  V30 2098 C 201.307 2.52798 -2.28705 0
M  V30 2099 H 202.5 0.821279 -2.88435 0
M  V30 2100 H 200.053 0.391831 -1.51309 0
M  V30 2101 H 200.788 2.92381 -1.403 0
M  V30 2102 H 200.573 2.40216 -3.09901 0
M  V30 2103 H 202.063 3.26179 -2.60762 0
M  V30 2104 N 202.5 1.5196 0.417844 0
M  V30 2105 C 203.777 1.56146 1.17803 0
M  V30 2106 C 204.157 0.337275 2.08388 0
M  V30 2107 O 203.505 -0.676447 2.18258 0
M  V30 2108 C 203.715 2.88566 1.96293 0
M  V30 2109 C 205.063 3.41244 2.52662 0
M  V30 2110 O 206.087 2.90247 2.06483 0
M  V30 2111 O 204.946 4.30273 3.36938 0
M  V30 2112 H 202.04 0.628598 0.537395 0
M  V30 2113 H 204.586 1.64283 0.425331 0
M  V30 2114 H 203.358 3.69116 1.2988 0
M  V30 2115 H 202.981 2.83681 2.78587 0
M  V30 2116 N 203.978 -0.674533 1.42435 0
M  V30 2117 C 205.226 -1.43175 1.42637 0
M  V30 2118 C 205.547 -1.94951 0.0438992 0
M  V30 2119 O 204.817 -1.7308 -0.917607 0
M  V30 2120 H 203.397 -0.531307 0.525092 0
M  V30 2121 H 206.059 -0.797006 1.77859 0
M  V30 2122 H 205.155 -2.28463 2.12629 0
M  V30 2123 N 205.456 -1.28612 -0.910864 0
M  V30 2124 C 206.704 -1.15705 -1.65701 0
M  V30 2125 C 207.025 0.29416 -1.92769 0
M  V30 2126 O 206.295 1.20331 -1.54588 0
M  V30 2127 H 204.875 -0.425216 -0.614167 0
M  V30 2128 H 207.537 -1.61381 -1.0928 0
M  V30 2129 H 206.633 -1.6988 -2.61815 0
M  V30 2130 N 206.934 1.1197 -1.10907 0
M  V30 2131 C 207.881 2.17846 -0.762345 0
M  V30 2132 C 208.851 1.63995 0.263599 0
M  V30 2133 O 210.036 1.90273 0.141773 0
M  V30 2134 C 207.176 3.44487 -0.205651 0
M  V30 2135 C 206.289 4.12369 -1.28748 0
M  V30 2136 C 205.424 5.26674 -0.691919 0
M  V30 2137 C 204.463 5.86431 -1.75399 0
M  V30 2138 N 203.6 6.92142 -1.17833 0
M  V30 2139 H 208.44 2.46851 -1.6694 0
M  V30 2140 H 205.977 1.21188 -0.833776 0
M  V30 2141 H 207.935 4.16981 0.135037 0
M  V30 2142 H 206.565 3.15884 0.664613 0
M  V30 2143 H 205.617 3.38003 -1.74522 0
M  V30 2144 H 206.929 4.52844 -2.09125 0
M  V30 2145 H 206.083 6.05953 -0.300963 0
M  V30 2146 H 204.822 4.8749 0.143232 0
M  V30 2147 H 203.827 5.05835 -2.15432 0
M  V30 2148 H 205.052 6.27685 -2.59208 0
M  V30 2149 H 202.998 6.54985 -0.364725 0
M  V30 2150 H 202.915 7.31242 -1.91887 0
M  V30 2151 H 204.183 7.75237 -0.81408 0
M  V30 2152 N 208.412 0.89855 1.29475 0
M  V30 2153 C 209.64 0.539261 1.99749 0
M  V30 2154 C 210.055 -0.875716 1.67262 0
M  V30 2155 O 209.412 -1.57786 0.917049 0
M  V30 2156 C 209.463 0.72061 3.54245 0
M  V30 2157 O 209.184 2.07989 3.8558 0
M  V30 2158 C 210.685 0.366118 4.41786 0
M  V30 2159 H 207.905 0.207047 0.638258 0
M  V30 2160 H 210.449 1.20758 1.65039 0
M  V30 2161 H 208.604 0.0994862 3.87272 0
M  V30 2162 H 209.018 2.10841 4.80257 0
M  V30 2163 H 210.492 0.543848 5.49314 0
M  V30 2164 H 210.969 -0.696763 4.33638 0
M  V30 2165 H 211.575 0.964135 4.14228 0
M  V30 2166 N 209.89 -1.43072 0.660911 0
M  V30 2167 C 211.301 -1.84932 0.256348 0
M  V30 2168 C 211.652 -1.55325 -1.19868 0
M  V30 2169 O 210.777 -1.00607 -1.91591 0
M  V30 2170 C 211.372 -3.35684 0.458475 0
M  V30 2171 C 209.931 -3.76245 0.108161 0
M  V30 2172 C 209.078 -2.66749 0.757641 0
M  V30 2173 H 212.029 -1.33116 0.864051 0
M  V30 2174 H 212.05 -3.79365 -0.293683 0
M  V30 2175 H 211.562 -3.572 1.51755 0
M  V30 2176 H 209.663 -3.60338 -0.948014 0
M  V30 2177 H 209.776 -4.76058 0.538992 0
M  V30 2178 H 208.14 -2.53989 0.190185 0
M  V30 2179 H 208.923 -2.91092 1.81989 0
M  V30 2180 N 211.368 -0.403325 -1.52352 0
M  V30 2181 C 212.645 0.232611 -1.94212 0
M  V30 2182 C 213.025 1.63133 -1.33981 0
M  V30 2183 O 212.373 2.22659 -0.513344 0
M  V30 2184 C 212.583 0.244811 -3.4814 0
M  V30 2185 C 213.931 0.46698 -4.22024 0
M  V30 2186 O 214.955 0.324419 -3.5472 0
M  V30 2187 O 213.814 0.74747 -5.41364 0
M  V30 2188 H 210.908 0.148223 -0.813609 0
M  V30 2189 H 213.454 -0.458848 -1.63379 0
M  V30 2190 H 212.226 -0.734378 -3.84347 0
M  V30 2191 H 211.849 0.980611 -3.85318 0
M  V30 2192 N 212.846 1.57033 -0.133567 0
M  V30 2193 C 214.257 1.82593 0.389464 0
M  V30 2194 C 214.608 1.05156 1.6564 0
M  V30 2195 O 213.733 0.292644 2.14412 0
M  V30 2196 C 214.328 3.31204 0.713377 0
M  V30 2197 C 212.887 3.57393 1.18098 0
M  V30 2198 C 212.034 2.76598 0.197126 0
M  V30 2199 H 214.985 1.54598 -0.358481 0
M  V30 2200 H 215.006 3.46627 1.56939 0
M  V30 2201 H 214.518 3.87537 -0.2089 0
M  V30 2202 H 212.619 3.06433 2.11966 0
M  V30 2203 H 212.732 4.65915 1.11624 0
M  V30 2204 H 211.096 2.45257 0.687088 0
M  V30 2205 H 211.879 3.35697 -0.718504 0
M  V30 2206 N 214.325 -0.140222 1.56975 0
M  V30 2207 C 215.272 -1.17292 1.98774 0
M  V30 2208 C 216.242 -1.4232 0.856408 0
M  V30 2209 O 217.427 -1.54541 1.119 0
M  V30 2210 C 214.567 -2.49973 2.37923 0
M  V30 2211 C 213.68 -2.32062 3.64378 0
M  V30 2212 C 212.815 -3.57825 3.926 0
M  V30 2213 C 211.854 -3.3498 5.12303 0
M  V30 2214 N 210.991 -4.52891 5.36502 0
M  V30 2215 H 215.831 -0.809472 2.86795 0
M  V30 2216 H 213.368 -0.388237 1.41884 0
M  V30 2217 H 215.326 -3.27346 2.58652 0
M  V30 2218 H 213.956 -2.84252 1.52972 0
M  V30 2219 H 213.008 -1.45711 3.51387 0
M  V30 2220 H 214.32 -2.11145 4.51906 0
M  V30 2221 H 213.474 -4.43624 4.13863 0
M  V30 2222 H 212.213 -3.81753 3.03506 0
M  V30 2223 H 211.218 -2.4757 4.90906 0
M  V30 2224 H 212.443 -3.12444 6.02956 0
M  V30 2225 H 210.389 -4.76979 4.50363 0
M  V30 2226 H 210.306 -4.35001 6.18312 0
M  V30 2227 H 211.574 -5.39884 5.62268 0
M  V30 2228 N 215.803 -1.52179 -0.40978 0
M  V30 2229 C 216.736 -1.70196 -1.52015 0
M  V30 2230 C 217.714 -0.549542 -1.53032 0
M  V30 2231 O 218.898 -0.776815 -1.71749 0
M  V30 2232 C 216.025 -1.74069 -2.90547 0
M  V30 2233 C 215.071 -2.95601 -3.07445 0
M  V30 2234 S 215.904 -4.55956 -2.80827 0
M  V30 2235 C 217.06 -4.62614 -4.21591 0
M  V30 2236 H 217.293 -2.64109 -1.36504 0
M  V30 2237 H 214.826 -1.4221 -0.601312 0
M  V30 2238 H 216.784 -1.76985 -3.70387 0
M  V30 2239 H 215.445 -0.812835 -3.034 0
M  V30 2240 H 214.638 -2.94791 -4.08796 0
M  V30 2241 H 214.24 -2.90569 -2.35469 0
M  V30 2242 H 216.532 -4.39951 -5.15218 0
M  V30 2243 H 217.475 -5.64548 -4.27424 0
M  V30 2244 H 217.883 -3.91654 -4.06531 0
M  V30 2245 N 217.281 0.66697 -1.42791 0
M  V30 2246 C 218.229 1.80157 -1.47127 0
M  V30 2247 C 219.223 1.65825 -0.346199 0
M  V30 2248 O 220.429 1.72338 -0.519572 0
M  V30 2249 H 216.804 0.594158 -0.460956 0
M  V30 2250 H 218.775 1.73619 -2.42692 0
M  V30 2251 C 217.524 3.18351 -1.39813 0
M  V30 2252 H 216.847 3.3001 -2.25684 0
M  V30 2253 H 218.287 3.97736 -1.46908 0
M  V30 2254 C 216.746 3.36707 -0.11391 0
M  V30 2255 O 217.276 3.93027 0.830241 0
M  V30 2256 N 215.482 2.90586 -0.0285295 0
M  V30 2257 H 215.029 2.4494 -0.79764 0
M  V30 2258 H 214.987 3.03245 0.830063 0
M  V30 2259 N 218.759 1.29093 0.90403 0
M  V30 2260 C 219.722 1.1386 1.98919 0
M  V30 2261 C 220.722 0.0753457 1.60623 0
M  V30 2262 O 221.912 0.321931 1.71199 0
M  V30 2263 C 219.044 0.740198 3.32767 0
M  V30 2264 H 220.237 2.10246 2.13861 0
M  V30 2265 H 217.79 1.12218 1.08797 0
M  V30 2266 H 218.525 -0.223997 3.23525 0
M  V30 2267 H 218.31 1.50838 3.61926 0
M  V30 2268 H 219.8 0.656546 4.12407 0
M  V30 2269 N 220.237 -1.11381 1.11499 0
M  V30 2270 C 221.653 -1.35143 0.849031 0
M  V30 2271 C 221.853 -1.94515 -0.525938 0
M  V30 2272 O 220.909 -2.1785 -1.27662 0
M  V30 2273 C 222.222 -2.28249 1.95762 0
M  V30 2274 C 223.77 -2.41812 1.98736 0
M  V30 2275 C 224.245 -3.3824 3.088 0
M  V30 2276 N 225.736 -3.45803 3.08179 0
M  V30 2277 C 226.471 -4.20358 3.89982 0
M  V30 2278 N 225.967 -4.97884 4.8175 0
M  V30 2279 N 227.76 -4.15877 3.78157 0
M  V30 2280 H 219.911 -0.712062 2.00109 0
M  V30 2281 H 222.174 -0.376025 0.870235 0
M  V30 2282 H 221.88 -1.91817 2.94787 0
M  V30 2283 H 221.754 -3.28473 1.85433 0
M  V30 2284 H 224.141 -2.77518 1.00338 0
M  V30 2285 H 224.222 -1.41437 2.13141 0
M  V30 2286 H 223.866 -3.03261 4.07425 0
M  V30 2287 H 223.796 -4.38471 2.91635 0
M  V30 2288 H 226.287 -2.90506 2.41691 0
M  V30 2289 H 226.6 -5.52142 5.40702 0
M  V30 2290 H 224.945 -4.97043 4.85771 0
M  V30 2291 H 228.136 -3.544 3.05808 0
M  V30 2292 H 228.309 -4.73723 4.42143 0
M  V30 2293 N 221.715 -0.905404 -1.28997 0
M  V30 2294 C 222.943 -0.549846 -1.9946 0
M  V30 2295 C 223.358 0.866834 -1.67724 0
M  V30 2296 O 222.715 1.57298 -0.925404 0
M  V30 2297 C 222.766 -0.739387 -3.53858 0
M  V30 2298 O 222.487 -2.10031 -3.84472 0
M  V30 2299 C 223.988 -0.389541 -4.41585 0
M  V30 2300 H 221.208 -0.210429 -0.637151 0
M  V30 2301 H 223.752 -1.21632 -1.64396 0
M  V30 2302 H 221.907 -0.120023 -3.87214 0
M  V30 2303 H 222.321 -2.13385 -4.79132 0
M  V30 2304 H 223.795 -0.572972 -5.49018 0
M  V30 2305 H 224.272 0.673756 -4.34001 0
M  V30 2306 H 224.878 -0.986089 -4.1371 0
M  V30 2307 N 223.193 1.4272 -0.668489 0
M  V30 2308 C 224.423 2.05668 -0.196063 0
M  V30 2309 C 224.831 1.5028 1.14946 0
M  V30 2310 O 224.174 0.6348 1.72383 0
M  V30 2311 C 224.236 3.59469 -0.0468879 0
M  V30 2312 C 223.9 4.37518 -1.32012 0
M  V30 2313 C 224.897 4.68584 -2.25222 0
M  V30 2314 C 222.582 4.77266 -1.56596 0
M  V30 2315 C 224.576 5.38326 -3.41297 0
M  V30 2316 C 222.263 5.4675 -2.72962 0
M  V30 2317 C 223.261 5.77204 -3.65137 0
M  V30 2318 O 222.949 6.45264 -4.79468 0
M  V30 2319 H 222.681 0.669382 -0.0943599 0
M  V30 2320 H 225.235 1.83954 -0.913788 0
M  V30 2321 H 223.465 3.79817 0.726357 0
M  V30 2322 H 225.154 4.04071 0.384852 0
M  V30 2323 H 225.92 4.38382 -2.07477 0
M  V30 2324 H 221.799 4.52959 -0.857249 0
M  V30 2325 H 225.343 5.62014 -4.13263 0
M  V30 2326 H 221.24 5.76369 -2.90635 0
M  V30 2327 H 222.008 6.63753 -4.78931 0
M  V30 2328 N 224.671 0.411399 1.52136 0
M  V30 2329 C 225.604 -0.457614 2.23565 0
M  V30 2330 C 226.582 -1.04613 1.24478 0
M  V30 2331 O 227.766 -1.09356 1.53536 0
M  V30 2332 C 224.893 -1.6354 2.96602 0
M  V30 2333 C 223.939 -1.17005 4.10137 0
M  V30 2334 S 224.772 -0.13333 5.35334 0
M  V30 2335 C 225.928 -1.31638 6.119 0
M  V30 2336 H 226.161 0.148883 2.96927 0
M  V30 2337 H 223.694 0.195713 1.53155 0
M  V30 2338 H 225.652 -2.31074 3.39286 0
M  V30 2339 H 224.313 -2.21324 2.22878 0
M  V30 2340 H 223.506 -2.05005 4.60422 0
M  V30 2341 H 223.108 -0.573319 3.6958 0
M  V30 2342 H 225.4 -2.23957 6.39413 0
M  V30 2343 H 226.343 -0.854014 7.02931 0
M  V30 2344 H 226.751 -1.54321 5.42997 0
M  V30 2345 N 226.149 -1.5696 0.141893 0
M  V30 2346 C 227.426 -1.87553 -0.555281 0
M  V30 2347 C 227.806 -1.04699 -1.83306 0
M  V30 2348 O 227.154 -0.132346 -2.28116 0
M  V30 2349 C 227.364 -3.39093 -0.825664 0
M  V30 2350 C 228.712 -4.08199 -1.16869 0
M  V30 2351 O 229.736 -3.44242 -0.915185 0
M  V30 2352 O 228.595 -5.21139 -1.6455 0
M  V30 2353 H 225.689 -0.777188 -0.282679 0
M  V30 2354 H 228.235 -1.68763 0.17812 0
M  V30 2355 H 227.007 -3.91221 0.0788633 0
M  V30 2356 H 226.63 -3.63393 -1.61343 0
M  V30 2357 N 227.627 0.131896 -1.57047 0
M  V30 2358 C 228.873 0.843179 -1.84441 0
M  V30 2359 C 229.206 1.80129 -0.725749 0
M  V30 2360 O 228.481 1.92624 0.269469 0
M  V30 2361 C 228.764 1.60442 -3.22382 0
M  V30 2362 C 228.617 0.666782 -4.4483 0
M  V30 2363 C 229.936 2.56354 -3.5773 0
M  V30 2364 H 227.055 0.305081 -0.670891 0
M  V30 2365 H 229.697 0.107839 -1.89694 0
M  V30 2366 H 227.847 2.23128 -3.18035 0
M  V30 2367 H 229.519 0.0497646 -4.61273 0
M  V30 2368 H 227.762 -0.022609 -4.33794 0
M  V30 2369 H 228.433 1.23579 -5.37989 0
M  V30 2370 H 230.909 2.0378 -3.62785 0
M  V30 2371 H 229.785 3.06657 -4.5525 0
M  V30 2372 H 230.046 3.38419 -2.84473 0
M  V30 2373 N 229.106 1.52395 0.401703 0
M  V30 2374 C 230.039 1.70999 1.51111 0
M  V30 2375 C 231.017 0.55765 1.52738 0
M  V30 2376 O 232.201 0.785912 1.71335 0
M  V30 2377 C 229.328 1.75607 2.8962 0
M  V30 2378 C 228.374 2.97227 3.05873 0
M  V30 2379 S 229.207 4.57439 2.78405 0
M  V30 2380 C 230.363 4.64844 4.19131 0
M  V30 2381 H 230.596 2.6483 1.35102 0
M  V30 2382 H 228.129 1.42527 0.593762 0
M  V30 2383 H 230.087 1.78947 3.69443 0
M  V30 2384 H 228.748 0.828914 3.02965 0
M  V30 2385 H 227.941 2.96955 4.07227 0
M  V30 2386 H 227.543 2.91813 2.33925 0
M  V30 2387 H 229.835 4.42677 5.12877 0
M  V30 2388 H 230.778 5.66807 4.24424 0
M  V30 2389 H 231.186 3.93804 4.04448 0
M  V30 2390 N 230.584 -0.659388 1.43143 0
M  V30 2391 C 232 -0.974337 1.26407 0
M  V30 2392 C 232.2 -2.007 0.179341 0
M  V30 2393 O 231.256 -2.4856 -0.444295 0
M  V30 2394 C 232.569 -1.46447 2.62628 0
M  V30 2395 C 234.117 -1.58144 2.7011 0
M  V30 2396 C 234.592 -2.1055 4.06734 0
M  V30 2397 N 236.083 -2.17861 4.08767 0
M  V30 2398 C 236.818 -2.59519 5.1131 0
M  V30 2399 N 236.314 -3.00518 6.24228 0
M  V30 2400 N 238.107 -2.59404 4.98664 0
M  V30 2401 H 230.258 0.0240528 2.12386 0
M  V30 2402 H 232.521 -0.0518065 0.946583 0
M  V30 2403 H 232.227 -0.780123 3.42939 0
M  V30 2404 H 232.101 -2.44058 2.87603 0
M  V30 2405 H 234.488 -2.25682 1.90136 0
M  V30 2406 H 234.569 -0.589828 2.48907 0
M  V30 2407 H 234.213 -1.43616 4.87172 0
M  V30 2408 H 234.143 -3.10531 4.25298 0
M  V30 2409 H 236.634 -1.88975 3.27257 0
M  V30 2410 H 236.947 -3.31036 6.98309 0
M  V30 2411 H 235.292 -2.98337 6.2771 0
M  V30 2412 H 238.483 -2.26747 4.09516 0
M  V30 2413 H 238.656 -2.91548 5.78709 0
M  V30 2414 N 232.062 -1.29571 -0.897171 0
M  V30 2415 C 232.972 -1.16808 -2.03453 0
M  V30 2416 C 233.988 -0.0907471 -1.73763 0
M  V30 2417 O 235.164 -0.303312 -1.99103 0
M  V30 2418 C 232.229 -0.848264 -3.36163 0
M  V30 2419 C 231.29 -2.0097 -3.79354 0
M  V30 2420 C 230.523 -1.70505 -5.05731 0
M  V30 2421 O 230.746 -0.62718 -5.66941 0
M  V30 2422 O 229.68 -2.5538 -5.45036 0
M  V30 2423 H 233.506 -2.12325 -2.17144 0
M  V30 2424 H 231.091 -1.09047 -1.02123 0
M  V30 2425 H 232.973 -0.684581 -4.15802 0
M  V30 2426 H 231.648 0.0771071 -3.23608 0
M  V30 2427 H 230.555 -2.22863 -3.00471 0
M  V30 2428 H 231.888 -2.91636 -3.96496 0
M  V30 2429 N 233.54 1.10788 -1.12088 0
M  V30 2430 C 234.472 2.16816 -0.743213 0
M  V30 2431 C 235.485 1.6119 0.228412 0
M  V30 2432 O 236.674 1.78497 0.0102931 0
M  V30 2433 C 233.774 3.38809 -0.0787313 0
M  V30 2434 C 232.947 4.23885 -1.0789 0
M  V30 2435 C 232.006 5.24334 -0.442713 0
M  V30 2436 O 231.032 5.58497 -1.09864 0
M  V30 2437 N 232.234 5.75079 0.791457 0
M  V30 2438 H 234.999 2.49825 -1.65552 0
M  V30 2439 H 232.56 1.26373 -1.012 0
M  V30 2440 H 234.552 4.03107 0.358766 0
M  V30 2441 H 233.122 3.03805 0.736275 0
M  V30 2442 H 232.342 3.55939 -1.69414 0
M  V30 2443 H 233.63 4.77562 -1.75533 0
M  V30 2444 H 233.028 5.49517 1.3434 0
M  V30 2445 H 231.585 6.4118 1.17183 0
M  V30 2446 N 235.018 0.912232 1.28515 0
M  V30 2447 C 235.968 0.370649 2.24967 0
M  V30 2448 C 236.952 -0.516375 1.52389 0
M  V30 2449 O 238.144 -0.356345 1.73376 0
M  V30 2450 C 235.273 -0.389526 3.41083 0
M  V30 2451 C 234.359 0.51313 4.20984 0
M  V30 2452 N 234.75 1.62604 4.78951 0
M  V30 2453 C 233.048 0.313235 4.44899 0
M  V30 2454 C 233.749 2.18619 5.39055 0
M  V30 2455 N 232.725 1.47765 5.23132 0
M  V30 2456 H 236.527 1.22061 2.67354 0
M  V30 2457 H 234.041 0.764712 1.43269 0
M  V30 2458 H 236.038 -0.794353 4.09262 0
M  V30 2459 H 234.698 -1.2366 3.0023 0
M  V30 2460 H 235.709 2.00864 4.77362 0
M  V30 2461 H 232.386 -0.494452 4.14562 0
M  V30 2462 H 233.776 3.12228 5.94948 0
M  V30 2463 N 236.496 -1.42363 0.676048 0
M  V30 2464 C 237.426 -2.33497 0.0124832 0
M  V30 2465 C 238.407 -1.50748 -0.787981 0
M  V30 2466 O 239.592 -1.79346 -0.744884 0
M  V30 2467 C 236.722 -3.34377 -0.938582 0
M  V30 2468 C 235.676 -4.27289 -0.246622 0
M  V30 2469 C 235.002 -5.18386 -1.31071 0
M  V30 2470 C 236.302 -5.14916 0.875125 0
M  V30 2471 H 237.996 -2.89233 0.773593 0
M  V30 2472 H 235.542 -1.39073 0.37346 0
M  V30 2473 H 237.495 -3.97044 -1.41188 0
M  V30 2474 H 236.219 -2.76947 -1.73113 0
M  V30 2475 H 234.878 -3.66018 0.206456 0
M  V30 2476 H 234.526 -4.57282 -2.09528 0
M  V30 2477 H 234.226 -5.81378 -0.852839 0
M  V30 2478 H 235.75 -5.83929 -1.78492 0
M  V30 2479 H 237.164 -5.71262 0.482983 0
M  V30 2480 H 235.561 -5.86747 1.25887 0
M  V30 2481 H 236.631 -4.53242 1.72335 0
M  V30 2482 N 237.974 -0.419461 -1.51915 0
M  V30 2483 C 239.202 0.152136 -2.0634 0
M  V30 2484 C 239.617 1.37988 -1.28859 0
M  V30 2485 O 238.974 1.79243 -0.343232 0
M  V30 2486 C 239.025 0.492266 -3.58133 0
M  V30 2487 O 238.746 -0.686736 -4.32684 0
M  V30 2488 C 240.247 1.11648 -4.2901 0
M  V30 2489 H 237.467 0.0158325 -0.670813 0
M  V30 2490 H 240.011 -0.593394 -1.95702 0
M  V30 2491 H 238.166 1.18769 -3.68745 0
M  V30 2492 H 238.58 -0.400341 -5.2297 0
M  V30 2493 H 240.054 1.3046 -5.36362 0
M  V30 2494 H 240.531 2.09251 -3.86148 0
M  V30 2495 H 241.137 0.460958 -4.22795 0
M  V30 2496 N 239.452 1.56882 -0.150215 0
M  V30 2497 C 240.399 2.16922 0.788244 0
M  V30 2498 C 241.369 1.10303 1.24187 0
M  V30 2499 O 242.554 1.38359 1.31383 0
M  V30 2500 C 239.694 2.79754 2.02068 0
M  V30 2501 C 238.807 4.00775 1.61257 0
M  V30 2502 C 237.942 4.51595 2.79705 0
M  V30 2503 C 236.981 5.65074 2.35282 0
M  V30 2504 N 236.118 6.10499 3.4675 0
M  V30 2505 H 240.958 2.96779 0.269444 0
M  V30 2506 H 238.495 1.46599 0.12128 0
M  V30 2507 H 240.453 3.14329 2.74323 0
M  V30 2508 H 239.083 2.02536 2.51354 0
M  V30 2509 H 238.135 3.72158 0.787553 0
M  V30 2510 H 239.447 4.82978 1.24633 0
M  V30 2511 H 238.601 4.88242 3.60145 0
M  V30 2512 H 237.34 3.68406 3.19576 0
M  V30 2513 H 236.345 5.28 1.53283 0
M  V30 2514 H 237.57 6.50052 1.96493 0
M  V30 2515 H 235.516 5.30243 3.86236 0
M  V30 2516 H 235.433 6.87637 3.14152 0
M  V30 2517 H 236.701 6.51791 4.27537 0
M  V30 2518 N 240.93 -0.123565 1.57115 0
M  V30 2519 C 241.84 -1.17074 2.033 0
M  V30 2520 C 242.856 -1.4561 0.952559 0
M  V30 2521 O 244.032 -1.56817 1.26374 0
M  V30 2522 C 241.097 -2.47857 2.42421 0
M  V30 2523 C 240.158 -2.26758 3.64526 0
M  V30 2524 C 239.391 -3.51305 4.01771 0
M  V30 2525 O 239.614 -4.5843 3.39409 0
M  V30 2526 O 238.548 -3.42578 4.94898 0
M  V30 2527 H 242.374 -0.808555 2.92739 0
M  V30 2528 H 239.959 -0.334027 1.45618 0
M  V30 2529 H 241.841 -3.2492 2.68338 0
M  V30 2530 H 240.516 -2.83558 1.5613 0
M  V30 2531 H 239.423 -1.47569 3.43765 0
M  V30 2532 H 240.756 -1.95963 4.51508 0
M  V30 2533 N 242.408 -1.52605 -0.393616 0
M  V30 2534 C 243.318 -1.79971 -1.50492 0
M  V30 2535 C 244.334 -0.686181 -1.59899 0
M  V30 2536 O 245.51 -0.973274 -1.76322 0
M  V30 2537 C 242.575 -1.95867 -2.86072 0
M  V30 2538 C 241.636 -3.19781 -2.86424 0
M  V30 2539 C 240.869 -3.34909 -4.15538 0
M  V30 2540 O 241.092 -2.54948 -5.10253 0
M  V30 2541 O 240.026 -4.28141 -4.23059 0
M  V30 2542 H 243.852 -2.74328 -1.30299 0
M  V30 2543 H 241.437 -1.3764 -0.581005 0
M  V30 2544 H 243.319 -2.08056 -3.66457 0
M  V30 2545 H 241.994 -1.04699 -3.063 0
M  V30 2546 H 240.901 -3.13038 -2.04837 0
M  V30 2547 H 242.234 -4.1078 -2.71147 0
M  V30 2548 N 243.887 0.651787 -1.4349 0
M  V30 2549 C 245.303 0.96762 -1.26922 0
M  V30 2550 C 245.503 2.00602 -0.189982 0
M  V30 2551 O 244.559 2.48793 0.431107 0
M  V30 2552 C 245.872 1.45052 -2.63401 0
M  V30 2553 C 247.42 1.5671 -2.70945 0
M  V30 2554 C 247.895 2.0839 -4.07845 0
M  V30 2555 N 249.386 2.1569 -4.09917 0
M  V30 2556 C 250.121 2.56804 -5.12679 0
M  V30 2557 N 249.617 2.97203 -6.25813 0
M  V30 2558 N 251.41 2.56756 -5.00033 0
M  V30 2559 H 243.561 -0.0353158 -2.12371 0
M  V30 2560 H 245.824 0.0467858 -0.946845 0
M  V30 2561 H 245.53 0.761926 -3.43348 0
M  V30 2562 H 245.404 2.42529 -2.88894 0
M  V30 2563 H 247.791 2.2467 -1.9133 0
M  V30 2564 H 247.872 0.57662 -2.49216 0
M  V30 2565 H 247.516 1.41031 -4.87927 0
M  V30 2566 H 247.446 3.08271 -4.26938 0
M  V30 2567 H 249.937 1.87237 -3.28254 0
M  V30 2568 H 250.25 3.27328 -7.00055 0
M  V30 2569 H 248.595 2.95004 -6.29283 0
M  V30 2570 H 251.786 2.24572 -4.10713 0
M  V30 2571 H 251.959 2.88475 -5.80247 0
M  V30 2572 N 245.365 1.30045 0.890287 0
M  V30 2573 C 246.275 1.17885 2.02831 0
M  V30 2574 C 247.291 0.0999609 1.73713 0
M  V30 2575 O 248.467 0.313867 1.98939 0
M  V30 2576 C 245.532 0.866079 3.35708 0
M  V30 2577 C 244.593 2.02979 3.78283 0
M  V30 2578 C 243.826 1.73184 5.0482 0
M  V30 2579 O 244.049 0.657237 5.66601 0
M  V30 2580 O 242.983 2.58267 5.43674 0
M  V30 2581 H 246.809 2.13474 2.16015 0
M  V30 2582 H 244.394 1.09587 1.01543 0
M  V30 2583 H 246.276 0.706623 4.15433 0
M  V30 2584 H 244.951 -0.0599443 3.23644 0
M  V30 2585 H 243.858 2.24454 2.99285 0
M  V30 2586 H 245.191 2.93734 3.94944 0
M  V30 2587 N 246.843 -1.10192 1.12674 0
M  V30 2588 C 248.092 -1.81573 0.8783 0
M  V30 2589 C 248.405 -1.86249 -0.597557 0
M  V30 2590 O 249.611 -2.5386 -0.962681 0
M  V30 2591 C 248.067 -3.26149 1.52167 0
M  V30 2592 C 247.675 -3.29763 3.03249 0
M  V30 2593 C 249.419 -4.0234 1.3536 0
M  V30 2594 C 247.326 -4.68815 3.60508 0
M  V30 2595 H 246.256 -0.680394 0.324931 0
M  V30 2596 H 248.907 -1.23902 1.35353 0
M  V30 2597 H 247.289 -3.83832 0.974104 0
M  V30 2598 H 248.463 -2.8189 3.6452 0
M  V30 2599 H 246.778 -2.67059 3.19481 0
M  V30 2600 H 249.375 -5.05058 1.75559 0
M  V30 2601 H 249.718 -4.15235 0.297554 0
M  V30 2602 H 250.251 -3.51079 1.87052 0
M  V30 2603 H 246.99 -4.61121 4.65884 0
M  V30 2604 H 246.51 -5.17045 3.04014 0
M  V30 2605 H 248.189 -5.37785 3.59717 0
M  V30 2606 N 248.321 -0.919034 -1.28029 0
M  V30 2607 C 249.737 -0.617972 -1.4715 0
M  V30 2608 C 249.937 0.835242 -1.83374 0
M  V30 2609 O 248.993 1.61388 -1.94191 0
M  V30 2610 C 250.306 -1.56041 -2.57044 0
M  V30 2611 C 251.854 -1.56769 -2.7091 0
M  V30 2612 C 252.329 -2.49688 -3.83953 0
M  V30 2613 N 253.82 -2.47845 -3.91314 0
M  V30 2614 C 254.555 -3.16437 -4.78179 0
M  V30 2615 N 254.051 -3.94376 -5.69596 0
M  V30 2616 N 255.844 -3.05498 -4.71834 0
M  V30 2617 H 247.995 -1.85866 -1.02798 0
M  V30 2618 H 250.258 -0.797506 -0.512531 0
M  V30 2619 H 249.964 -2.59671 -2.372 0
M  V30 2620 H 249.838 -1.29551 -3.54255 0
M  V30 2621 H 252.225 -0.538745 -2.90141 0
M  V30 2622 H 252.306 -1.87305 -1.74214 0
M  V30 2623 H 251.95 -3.52688 -3.65477 0
M  V30 2624 H 251.88 -2.16453 -4.80058 0
M  V30 2625 H 254.371 -1.91234 -3.25941 0
M  V30 2626 H 254.684 -4.43721 -6.32718 0
M  V30 2627 H 253.029 -3.98481 -5.69419 0
M  V30 2628 H 256.22 -2.44108 -3.99411 0
M  V30 2629 H 256.393 -3.59225 -5.39316 0
M  V30 2630 N 249.799 1.42003 -0.683588 0
M  V30 2631 C 250.731 2.29183 0.0283068 0
M  V30 2632 C 251.744 1.4415 0.756611 0
M  V30 2633 O 252.933 1.67779 0.609306 0
M  V30 2634 C 250.033 3.21765 1.06398 0
M  V30 2635 C 249.206 4.35496 0.407723 0
M  V30 2636 C 248.265 5.08737 1.34437 0
M  V30 2637 O 247.291 5.62948 0.841318 0
M  V30 2638 N 248.493 5.15075 2.67728 0
M  V30 2639 H 251.258 2.9092 -0.720105 0
M  V30 2640 H 248.819 1.53025 -0.528682 0
M  V30 2641 H 250.811 3.6763 1.69204 0
M  V30 2642 H 249.381 2.61418 1.71404 0
M  V30 2643 H 248.601 3.92165 -0.400012 0
M  V30 2644 H 249.889 5.08776 -0.0490956 0
M  V30 2645 H 249.287 4.72457 3.11129 0
M  V30 2646 H 247.844 5.64556 3.2576 0
M  V30 2647 N 251.277 0.427512 1.51691 0
M  V30 2648 C 252.209 -0.424521 2.25234 0
M  V30 2649 C 253.222 -0.994671 1.2888 0
M  V30 2650 O 254.411 -0.890483 1.54702 0
M  V30 2651 C 251.511 -1.60479 2.98496 0
M  V30 2652 C 250.684 -1.15527 4.21868 0
M  V30 2653 C 249.743 -2.20454 4.77793 0
M  V30 2654 O 248.769 -1.8029 5.39893 0
M  V30 2655 N 249.971 -3.52831 4.60967 0
M  V30 2656 H 252.736 0.205749 2.98993 0
M  V30 2657 H 250.297 0.255867 1.59865 0
M  V30 2658 H 252.289 -2.30276 3.32799 0
M  V30 2659 H 250.859 -2.14061 2.27809 0
M  V30 2660 H 250.079 -0.284736 3.9317 0
M  V30 2661 H 251.367 -0.832173 5.01949 0
M  V30 2662 H 250.765 -3.88201 4.11481 0
M  V30 2663 H 249.322 -4.18551 4.99658 0
M  V30 2664 N 252.755 -1.56801 0.158532 0
M  V30 2665 C 253.685 -2.20347 -0.772609 0
M  V30 2666 C 254.666 -1.15518 -1.24859 0
M  V30 2667 O 255.851 -1.43902 -1.30406 0
M  V30 2668 C 252.981 -2.83417 -2.00729 0
M  V30 2669 C 251.935 -3.94174 -1.66765 0
M  V30 2670 C 251.261 -4.44233 -2.97592 0
M  V30 2671 C 252.561 -5.14392 -0.905447 0
M  V30 2672 H 254.255 -2.98413 -0.242959 0
M  V30 2673 H 251.801 -1.43537 -0.115419 0
M  V30 2674 H 253.754 -3.26543 -2.6636 0
M  V30 2675 H 252.478 -2.02701 -2.56086 0
M  V30 2676 H 251.137 -3.51684 -1.03508 0
M  V30 2677 H 250.785 -3.60325 -3.50963 0
M  V30 2678 H 250.485 -5.18945 -2.75626 0
M  V30 2679 H 252.009 -4.90037 -3.64274 0
M  V30 2680 H 253.423 -5.5429 -1.46408 0
M  V30 2681 H 251.82 -5.9494 -0.7853 0
M  V30 2682 H 252.89 -4.84795 0.100668 0
M  V30 2683 N 254.233 0.115231 -1.57178 0
M  V30 2684 C 255.196 1.12526 -1.99676 0
M  V30 2685 C 256.196 1.34095 -0.88742 0
M  V30 2686 O 257.386 1.30548 -1.15337 0
M  V30 2687 C 254.518 2.4789 -2.34015 0
M  V30 2688 H 255.711 0.759912 -2.90113 0
M  V30 2689 H 253.264 0.359648 -1.52106 0
M  V30 2690 H 253.999 2.89339 -1.4647 0
M  V30 2691 H 253.784 2.33588 -3.14927 0
M  V30 2692 H 255.274 3.20575 -2.67622 0
M  V30 2693 N 255.711 1.52812 0.385517 0
M  V30 2694 C 256.621 1.80766 1.49535 0
M  V30 2695 C 257.637 0.694651 1.59532 0
M  V30 2696 O 258.813 0.982611 1.75803 0
M  V30 2697 C 255.878 1.97381 2.85029 0
M  V30 2698 C 254.939 3.21295 2.84724 0
M  V30 2699 C 254.172 3.37108 4.13756 0
M  V30 2700 O 254.395 2.5765 5.08893 0
M  V30 2701 O 253.329 4.30378 4.20783 0
M  V30 2702 H 257.155 2.75015 1.28842 0
M  V30 2703 H 254.74 1.37946 0.573697 0
M  V30 2704 H 256.622 2.09996 3.65349 0
M  V30 2705 H 255.297 1.06322 3.05741 0
M  V30 2706 H 254.204 3.1412 2.03174 0
M  V30 2707 H 255.537 4.12212 2.68965 0
M  V30 2708 N 257.189 -0.644168 1.43834 0
M  V30 2709 C 258.136 -1.75671 1.49694 0
M  V30 2710 C 259.106 -1.6246 0.345809 0
M  V30 2711 O 260.291 -1.82573 0.554234 0
M  V30 2712 C 257.431 -3.13867 1.43463 0
M  V30 2713 C 256.544 -3.38147 2.6885 0
M  V30 2714 C 255.679 -4.66241 2.54544 0
M  V30 2715 C 254.718 -4.83657 3.75157 0
M  V30 2716 N 253.855 -6.03016 3.59605 0
M  V30 2717 H 258.695 -1.69998 2.44754 0
M  V30 2718 H 256.232 -0.829458 1.21484 0
M  V30 2719 H 258.19 -3.9377 1.37843 0
M  V30 2720 H 256.82 -3.18588 0.519783 0
M  V30 2721 H 255.872 -2.52276 2.84712 0
M  V30 2722 H 257.184 -3.46899 3.58417 0
M  V30 2723 H 256.338 -5.54285 2.46683 0
M  V30 2724 H 255.077 -4.59826 1.62516 0
M  V30 2725 H 254.082 -3.94046 3.83416 0
M  V30 2726 H 255.307 -4.91896 4.68204 0
M  V30 2727 H 253.253 -5.97715 2.7032 0
M  V30 2728 H 253.17 -6.12766 4.42779 0
M  V30 2729 H 254.438 -6.93657 3.55613 0
M  V30 2730 N 258.668 -1.30515 -0.883378 0
M  V30 2731 C 259.631 -1.1701 -1.97082 0
M  V30 2732 C 260.631 -0.10089 -1.60483 0
M  V30 2733 O 261.821 -0.349127 -1.70666 0
M  V30 2734 C 258.953 -0.793045 -3.31547 0
M  V30 2735 H 260.146 -2.13622 -2.10489 0
M  V30 2736 H 257.699 -1.13935 -1.06998 0
M  V30 2737 H 258.434 0.172499 -3.23841 0
M  V30 2738 H 258.219 -1.56576 -3.5948 0
M  V30 2739 H 259.709 -0.722073 -4.1131 0
M  V30 2740 N 260.146 1.09593 -1.13257 0
M  V30 2741 C 261.093 2.1618 -0.808381 0
M  V30 2742 C 262.063 1.64517 0.228754 0
M  V30 2743 O 263.248 1.9053 0.101381 0
M  V30 2744 C 260.388 3.43973 -0.278675 0
M  V30 2745 C 259.501 4.09545 -1.37466 0
M  V30 2746 C 258.636 5.25088 -0.803479 0
M  V30 2747 C 257.675 5.82579 -1.87799 0
M  V30 2748 N 256.812 6.89486 -1.32488 0
M  V30 2749 H 261.652 2.43254 -1.72138 0
M  V30 2750 H 259.189 1.19392 -0.859294 0
M  V30 2751 H 261.147 4.17174 0.0465583 0
M  V30 2752 H 259.777 3.17223 0.597459 0
M  V30 2753 H 258.829 3.34226 -1.81652 0
M  V30 2754 H 260.141 4.48307 -2.18684 0
M  V30 2755 H 259.295 6.05178 -0.429427 0
M  V30 2756 H 258.034 4.87684 0.0397956 0
M  V30 2757 H 257.039 5.01152 -2.26113 0
M  V30 2758 H 258.264 6.22045 -2.72463 0
M  V30 2759 H 256.21 6.54064 -0.503575 0
M  V30 2760 H 256.127 7.27007 -2.07355 0
M  V30 2761 H 257.395 7.73336 -0.978336 0
M  V30 2762 N 261.624 0.925811 1.2754 0
M  V30 2763 C 262.587 0.428129 2.25166 0
M  V30 2764 C 263.587 -0.452261 1.54309 0
M  V30 2765 O 264.777 -0.253608 1.72344 0
M  V30 2766 C 261.909 -0.384749 3.38722 0
M  V30 2767 H 263.102 1.29066 2.70706 0
M  V30 2768 H 260.655 0.706323 1.3943 0
M  V30 2769 H 261.39 -1.26618 2.98561 0
M  V30 2770 H 261.175 0.246454 3.91325 0
M  V30 2771 H 262.665 -0.723389 4.11287 0
M  V30 2772 N 263.102 -1.41638 0.69111 0
M  V30 2773 C 264.35 -2.00902 0.219758 0
M  V30 2774 C 264.671 -1.54994 -1.18329 0
M  V30 2775 O 263.941 -0.778628 -1.79762 0
M  V30 2776 H 262.521 -0.74289 0.0782558 0
M  V30 2777 H 265.183 -1.73327 0.891271 0
M  V30 2778 H 264.279 -3.11224 0.233708 0
M  V30 2779 N 264.58 -0.43555 -1.51462 0
M  V30 2780 C 265.49 0.383001 -2.31453 0
M  V30 2781 C 266.506 1.02931 -1.4029 0
M  V30 2782 O 267.682 1.02507 -1.73362 0
M  V30 2783 C 264.747 1.47043 -3.13973 0
M  V30 2784 C 263.808 0.844433 -4.20913 0
M  V30 2785 C 263.041 1.88004 -4.9949 0
M  V30 2786 O 263.264 3.10199 -4.78678 0
M  V30 2787 O 262.198 1.47157 -5.83634 0
M  V30 2788 H 266.024 -0.269964 -3.02498 0
M  V30 2789 H 263.609 -0.19813 -1.4808 0
M  V30 2790 H 265.491 2.10113 -3.65281 0
M  V30 2791 H 264.166 2.10751 -2.45695 0
M  V30 2792 H 263.073 0.175729 -3.73687 0
M  V30 2793 H 264.406 0.250869 -4.9156 0
M  V30 2794 N 266.058 1.56714 -0.166846 0
M  V30 2795 C 266.988 2.20754 0.760913 0
M  V30 2796 C 267.969 1.16178 1.24244 0
M  V30 2797 O 269.154 1.44592 1.29641 0
M  V30 2798 C 266.284 2.84478 1.99223 0
M  V30 2799 C 265.238 3.95053 1.64672 0
M  V30 2800 C 264.564 4.45805 2.95232 0
M  V30 2801 C 265.864 5.14865 0.878155 0
M  V30 2802 H 267.558 2.98537 0.22713 0
M  V30 2803 H 265.104 1.43596 0.107805 0
M  V30 2804 H 267.057 3.27951 2.64624 0
M  V30 2805 H 265.781 2.04056 2.55007 0
M  V30 2806 H 264.44 3.52228 1.01641 0
M  V30 2807 H 264.088 3.62181 3.49047 0
M  V30 2808 H 263.788 5.204 2.7287 0
M  V30 2809 H 265.312 4.91962 3.6167 0
M  V30 2810 H 266.726 5.55059 1.43466 0
M  V30 2811 H 265.123 5.95348 0.753738 0
M  V30 2812 H 266.193 4.84735 -0.126377 0
M  V30 2813 N 267.536 -0.106894 1.57237 0
M  V30 2814 C 268.483 -1.13049 2.01217 0
M  V30 2815 C 269.453 -1.40471 0.886403 0
M  V30 2816 O 270.638 -1.52133 1.15153 0
M  V30 2817 C 267.778 -2.4487 2.43172 0
M  V30 2818 C 266.891 -2.24281 3.69218 0
M  V30 2819 C 266.026 -3.49417 4.00101 0
M  V30 2820 C 265.065 -3.24038 5.19294 0
M  V30 2821 N 264.202 -4.41409 5.45988 0
M  V30 2822 H 269.042 -0.748456 2.88448 0
M  V30 2823 H 266.579 -0.358054 1.42676 0
M  V30 2824 H 268.537 -3.21786 2.65537 0
M  V30 2825 H 267.167 -2.80944 1.58967 0
M  V30 2826 H 266.219 -1.38224 3.54398 0
M  V30 2827 H 267.531 -2.01512 4.56283 0
M  V30 2828 H 266.685 -4.34746 4.2318 0
M  V30 2829 H 265.424 -3.75229 3.11535 0
M  V30 2830 H 264.429 -2.37102 4.96047 0
M  V30 2831 H 265.654 -2.99584 6.09447 0
M  V30 2832 H 263.6 -4.67319 4.60379 0
M  V30 2833 H 263.517 -4.21788 6.274 0
M  V30 2834 H 264.785 -5.27836 5.73593 0
M  V30 2835 N 269.014 -1.53014 -0.377408 0
M  V30 2836 C 270.26 -1.68872 -1.12294 0
M  V30 2837 C 270.593 -0.433224 -1.89306 0
M  V30 2838 O 269.868 0.569258 -1.85983 0
M  V30 2839 C 270.151 -2.93115 -2.09179 0
M  V30 2840 C 270.004 -4.28794 -1.35853 0
M  V30 2841 C 271.323 -3.12928 -3.09458 0
M  V30 2842 H 268.442 -0.614518 -0.406862 0
M  V30 2843 H 271.084 -1.85633 -0.40503 0
M  V30 2844 H 269.234 -2.78956 -2.70399 0
M  V30 2845 H 270.906 -4.54742 -0.775082 0
M  V30 2846 H 269.149 -4.28744 -0.660364 0
M  V30 2847 H 269.82 -5.11837 -2.06706 0
M  V30 2848 H 272.296 -3.26194 -2.58334 0
M  V30 2849 H 271.172 -4.01316 -3.74482 0
M  V30 2850 H 271.433 -2.27669 -3.78971 0
M  V30 2851 N 270.492 0.636531 -1.44174 0
M  V30 2852 C 271.738 1.39826 -1.4689 0
M  V30 2853 C 272.071 1.93947 -0.0990585 0
M  V30 2854 O 271.346 1.73325 0.882544 0
M  V30 2855 C 271.629 2.56751 -2.5249 0
M  V30 2856 C 271.482 2.08014 -3.98811 0
M  V30 2857 C 272.801 3.58946 -2.54649 0
M  V30 2858 H 269.92 0.507075 -0.53483 0
M  V30 2859 H 272.562 0.720188 -1.75822 0
M  V30 2860 H 270.712 3.14597 -2.2795 0
M  V30 2861 H 272.384 1.5504 -4.34466 0
M  V30 2862 H 270.627 1.39242 -4.10846 0
M  V30 2863 H 271.298 2.92169 -4.68339 0
M  V30 2864 H 273.774 3.1089 -2.76563 0
M  V30 2865 H 272.65 4.38286 -3.3045 0
M  V30 2866 H 272.911 4.12655 -1.58646 0
M  V30 2867 N 271.97 1.30982 0.876444 0
M  V30 2868 C 272.918 1.18006 2.00443 0
M  V30 2869 C 273.912 0.0898871 1.69161 0
M  V30 2870 O 275.118 0.251333 1.78237 0
M  V30 2871 H 271.493 0.365196 0.65737 0
M  V30 2872 H 273.464 2.13453 2.0852 0
M  V30 2873 C 272.213 0.897521 3.35916 0
M  V30 2874 H 271.536 1.7285 3.60504 0
M  V30 2875 H 272.976 0.846874 4.15456 0
M  V30 2876 C 271.435 -0.399674 3.34521 0
M  V30 2877 O 271.965 -1.41852 3.7582 0
M  V30 2878 N 270.171 -0.413893 2.87637 0
M  V30 2879 H 269.718 0.41571 2.54224 0
M  V30 2880 H 269.676 -1.28175 2.87086 0
M  V30 2881 N 273.449 -1.08991 1.13837 0
M  V30 2882 C 274.697 -1.80899 0.901098 0
M  V30 2883 C 275.018 -1.86356 -0.574134 0
M  V30 2884 O 274.288 -1.35235 -1.41733 0
M  V30 2885 H 272.868 -0.669966 0.330386 0
M  V30 2886 H 275.53 -1.318 1.43578 0
M  V30 2887 H 274.626 -2.83929 1.29578 0
M  V30 2888 N 274.927 -0.932562 -1.27047 0
M  V30 2889 C 275.89 -0.440064 -2.24936 0
M  V30 2890 C 276.89 0.444071 -1.54547 0
M  V30 2891 O 278.08 0.244465 -1.72476 0
M  V30 2892 C 275.212 0.36678 -3.38921 0
M  V30 2893 H 276.405 -1.305 -2.70018 0
M  V30 2894 H 273.958 -0.713707 -1.39054 0
M  V30 2895 H 274.693 1.25033 -2.99228 0
M  V30 2896 H 274.478 -0.267204 -3.91188 0
M  V30 2897 H 275.968 0.701567 -4.11665 0
M  V30 2898 N 276.405 1.4127 -0.698611 0
M  V30 2899 C 277.368 2.29158 -0.044132 0
M  V30 2900 C 278.368 1.44529 0.704841 0
M  V30 2901 O 279.558 1.65643 0.539276 0
M  V30 2902 C 276.69 3.27459 0.947809 0
M  V30 2903 H 277.883 2.88529 -0.817994 0
M  V30 2904 H 275.436 1.49307 -0.46228 0
M  V30 2905 H 276.171 2.73073 1.74933 0
M  V30 2906 H 275.956 3.8991 0.41385 0
M  V30 2907 H 277.446 3.93311 1.40344 0
M  V30 2908 N 277.883 0.443576 1.51229 0
M  V30 2909 C 278.846 -0.353132 2.26463 0
M  V30 2910 C 279.846 -0.944338 1.3015 0
M  V30 2911 O 281.036 -0.817813 1.5381 0
M  V30 2912 C 278.168 -1.50023 3.06114 0
M  V30 2913 H 279.361 0.3063 2.98332 0
M  V30 2914 H 276.914 0.196902 1.55055 0
M  V30 2915 H 277.649 -2.19553 2.38677 0
M  V30 2916 H 277.434 -1.08241 3.76864 0
M  V30 2917 H 278.924 -2.06296 3.63087 0
M  V30 2918 N 279.361 -1.56624 0.175154 0
M  V30 2919 C 280.586 -2.01813 -0.478137 0
M  V30 2920 C 281.011 -1.05457 -1.55757 0
M  V30 2921 O 280.369 -0.0347439 -1.81267 0
M  V30 2922 C 280.417 -3.45581 -1.02987 0
M  V30 2923 O 279.521 -3.52305 -2.14371 0
M  V30 2924 H 278.862 -0.65413 -0.114059 0
M  V30 2925 H 281.392 -2.02673 0.280173 0
M  V30 2926 H 281.402 -3.84965 -1.35151 0
M  V30 2927 H 280.077 -4.1521 -0.239556 0
M  V30 2928 H 278.654 -3.24783 -1.83222 0
M  V30 2929 N 280.839 0.0985539 -1.57292 0
M  V30 2930 C 281.771 1.14595 -1.98496 0
M  V30 2931 C 282.784 1.36512 -0.887031 0
M  V30 2932 O 283.973 1.35225 -1.16518 0
M  V30 2933 C 281.073 2.50216 -2.28572 0
M  V30 2934 C 280.246 2.48624 -3.59868 0
M  V30 2935 C 279.305 3.66146 -3.7792 0
M  V30 2936 O 278.331 3.48795 -4.49812 0
M  V30 2937 N 279.533 4.85496 -3.18235 0
M  V30 2938 H 282.298 0.795277 -2.88956 0
M  V30 2939 H 279.859 0.287579 -1.59325 0
M  V30 2940 H 281.851 3.27432 -2.37845 0
M  V30 2941 H 280.421 2.77387 -1.44136 0
M  V30 2942 H 279.641 1.56978 -3.61596 0
M  V30 2943 H 280.929 2.44635 -4.46129 0
M  V30 2944 H 280.327 5.02497 -2.59833 0
M  V30 2945 H 278.884 5.60317 -3.32999 0
M  V30 2946 N 282.317 1.53212 0.369288 0
M  V30 2947 C 283.728 1.60943 0.946276 0
M  V30 2948 C 284.079 0.47452 1.90375 0
M  V30 2949 O 283.204 -0.399597 2.12679 0
M  V30 2950 C 283.799 2.91715 1.72302 0
M  V30 2951 C 282.358 3.01792 2.24941 0
M  V30 2952 C 281.505 2.56211 1.06072 0
M  V30 2953 H 284.456 1.58007 0.148198 0
M  V30 2954 H 284.477 2.79309 2.58393 0
M  V30 2955 H 283.989 3.74295 1.0259 0
M  V30 2956 H 282.09 2.23791 2.97906 0
M  V30 2957 H 282.203 4.06803 2.53077 0
M  V30 2958 H 280.567 2.10998 1.4266 0
M  V30 2959 H 281.35 3.41206 0.378639 0
M  V30 2960 N 283.795 -0.628877 1.44509 0
M  V30 2961 C 285.206 -1.21054 1.42137 0
M  V30 2962 C 285.557 -1.95715 0.137881 0
M  V30 2963 O 284.682 -2.02554 -0.761645 0
M  V30 2964 C 285.277 -2.20189 2.57493 0
M  V30 2965 C 283.836 -2.73777 2.58308 0
M  V30 2966 C 282.983 -1.48813 2.33987 0
M  V30 2967 H 285.934 -0.41942 1.53057 0
M  V30 2968 H 285.955 -3.02833 2.30375 0
M  V30 2969 H 285.467 -1.6582 3.50892 0
M  V30 2970 H 283.568 -3.32142 1.68856 0
M  V30 2971 H 283.681 -3.19662 3.56865 0
M  V30 2972 H 282.045 -1.77024 1.83124 0
M  V30 2973 H 282.828 -0.963442 3.29504 0
M  V30 2974 N 285.273 -1.31445 -0.869486 0
M  V30 2975 C 286.498 -1.24256 -1.66058 0
M  V30 2976 C 286.923 0.188928 -1.87149 0
M  V30 2977 O 286.281 1.13522 -1.4136 0
M  V30 2978 C 286.329 -1.9924 -3.00559 0
M  V30 2979 O 285.433 -1.33007 -3.90362 0
M  V30 2980 H 284.774 -0.428973 -0.506831 0
M  V30 2981 H 287.304 -1.73521 -1.08404 0
M  V30 2982 H 287.314 -2.08854 -3.50491 0
M  V30 2983 H 285.989 -3.03342 -2.84528 0
M  V30 2984 H 284.566 -1.31848 -3.48813 0
M  V30 2985 N 286.751 1.08385 -1.14413 0
M  V30 2986 C 287.698 2.15311 -0.831265 0
M  V30 2987 C 288.668 1.64751 0.211292 0
M  V30 2988 O 289.853 1.90627 0.0811674 0
M  V30 2989 C 286.993 3.43658 -0.315143 0
M  V30 2990 C 286.106 4.08064 -1.41802 0
M  V30 2991 C 285.241 5.24207 -0.859126 0
M  V30 2992 C 284.28 5.80554 -1.93967 0
M  V30 2993 N 283.417 6.88042 -1.39793 0
M  V30 2994 H 288.257 2.41415 -1.74708 0
M  V30 2995 H 285.794 1.18474 -0.871909 0
M  V30 2996 H 287.752 4.172 0.00230884 0
M  V30 2997 H 286.382 3.17839 0.56378 0
M  V30 2998 H 285.434 3.3228 -1.85187 0
M  V30 2999 H 286.746 4.45962 -2.23427 0
M  V30 3000 H 285.9 6.04689 -0.49359 0
M  V30 3001 H 284.639 4.87699 -0.011932 0
M  V30 3002 H 283.644 4.98725 -2.31415 0
M  V30 3003 H 284.869 6.19121 -2.79046 0
M  V30 3004 H 282.815 6.53493 -0.572919 0
M  V30 3005 H 282.732 7.24767 -2.15054 0
M  V30 3006 H 284 7.72255 -1.0603 0
M  V30 3007 N 288.23 0.939286 1.26551 0
M  V30 3008 C 289.646 0.641304 1.46149 0
M  V30 3009 C 289.846 -0.805964 1.84679 0
M  V30 3010 O 288.902 -1.58278 1.96734 0
M  V30 3011 C 290.215 1.6011 2.54529 0
M  V30 3012 C 291.763 1.6106 2.68382 0
M  V30 3013 C 292.238 2.55765 3.79932 0
M  V30 3014 N 293.729 2.5404 3.87322 0
M  V30 3015 C 294.464 3.24004 4.73085 0
M  V30 3016 N 293.96 4.03388 5.63249 0
M  V30 3017 N 295.753 3.12965 4.66914 0
M  V30 3018 H 287.904 1.87478 0.998285 0
M  V30 3019 H 290.167 0.805559 0.499779 0
M  V30 3020 H 289.873 2.63412 2.33039 0
M  V30 3021 H 289.747 1.35171 3.52149 0
M  V30 3022 H 292.134 0.584835 2.89247 0
M  V30 3023 H 292.215 1.90053 1.71212 0
M  V30 3024 H 291.859 3.58458 3.5982 0
M  V30 3025 H 291.789 2.24063 4.76554 0
M  V30 3026 H 294.28 1.96396 3.22858 0
M  V30 3027 H 294.593 4.5373 6.25579 0
M  V30 3028 H 292.938 4.07489 5.63008 0
M  V30 3029 H 296.129 2.50432 3.95476 0
M  V30 3030 H 296.302 3.67759 5.33533 0
M  V30 3031 N 289.708 -1.40897 0.706093 0
M  V30 3032 C 290.655 -2.30751 0.0474474 0
M  V30 3033 C 291.625 -1.47678 -0.76029 0
M  V30 3034 O 292.81 -1.76441 -0.726177 0
M  V30 3035 C 289.95 -3.33815 -0.875309 0
M  V30 3036 C 289.063 -4.31961 -0.0580623 0
M  V30 3037 C 288.198 -5.22093 -0.979425 0
M  V30 3038 C 287.237 -6.11902 -0.155706 0
M  V30 3039 N 286.374 -6.94482 -1.03144 0
M  V30 3040 H 291.214 -2.86513 0.819413 0
M  V30 3041 H 288.751 -1.41102 0.415783 0
M  V30 3042 H 290.709 -3.92129 -1.42446 0
M  V30 3043 H 289.339 -2.79579 -1.61356 0
M  V30 3044 H 288.391 -3.75507 0.608147 0
M  V30 3045 H 289.703 -4.95415 0.580082 0
M  V30 3046 H 288.857 -5.85292 -1.59744 0
M  V30 3047 H 287.596 -4.5889 -1.65141 0
M  V30 3048 H 286.601 -5.47742 0.475309 0
M  V30 3049 H 287.826 -6.77162 0.512635 0
M  V30 3050 H 285.772 -6.33877 -1.68924 0
M  V30 3051 H 285.689 -7.54665 -0.449108 0
M  V30 3052 H 286.957 -7.6214 -1.63593 0
M  V30 3053 N 291.186 -0.45159 -1.50991 0
M  V30 3054 C 292.602 -0.104647 -1.59257 0
M  V30 3055 C 292.802 1.38728 -1.4614 0
M  V30 3056 O 291.858 2.15866 -1.30989 0
M  V30 3057 C 293.171 -0.637468 -2.93865 0
M  V30 3058 C 294.719 -0.599166 -3.07212 0
M  V30 3059 C 295.194 -1.1092 -4.44366 0
M  V30 3060 N 296.685 -1.06778 -4.50725 0
M  V30 3061 C 297.42 -1.43314 -5.55201 0
M  V30 3062 N 296.916 -1.87204 -6.67028 0
M  V30 3063 N 298.709 -1.3504 -5.45638 0
M  V30 3064 H 290.86 -1.42214 -1.57762 0
M  V30 3065 H 293.123 -0.586921 -0.744465 0
M  V30 3066 H 292.829 -1.68187 -3.08879 0
M  V30 3067 H 292.703 -0.0702139 -3.77135 0
M  V30 3068 H 295.09 0.436277 -2.91857 0
M  V30 3069 H 295.171 -1.20299 -2.25747 0
M  V30 3070 H 294.815 -2.14318 -4.60467 0
M  V30 3071 H 294.745 -0.481773 -5.24392 0
M  V30 3072 H 297.236 -0.745643 -3.70471 0
M  V30 3073 H 297.549 -2.13282 -7.42786 0
M  V30 3074 H 295.894 -1.91142 -6.68199 0
M  V30 3075 H 299.085 -1.00607 -4.57161 0
M  V30 3076 H 299.258 -1.63841 -6.26945 0
M  V30 3077 N 292.664 1.56529 -0.183458 0
M  V30 3078 C 294.08 1.58664 0.172554 0
M  V30 3079 C 294.28 1.19925 1.61926 0
M  V30 3080 O 293.336 0.916534 2.35278 0
M  V30 3081 C 294.649 3.00463 -0.119262 0
M  V30 3082 C 296.197 3.12945 -0.0584396 0
M  V30 3083 C 296.672 4.56857 -0.323408 0
M  V30 3084 N 298.163 4.62403 -0.271612 0
M  V30 3085 C 298.898 5.71626 -0.450639 0
M  V30 3086 N 298.394 6.89362 -0.689384 0
M  V30 3087 N 300.187 5.60775 -0.385701 0
M  V30 3088 H 292.338 1.79994 -1.12765 0
M  V30 3089 H 294.601 0.834808 -0.449222 0
M  V30 3090 H 294.307 3.33326 -1.12192 0
M  V30 3091 H 294.181 3.72659 0.583544 0
M  V30 3092 H 296.568 2.79902 0.934805 0
M  V30 3093 H 296.649 2.4316 -0.794144 0
M  V30 3094 H 296.293 4.9061 -1.31392 0
M  V30 3095 H 296.223 5.24816 0.43305 0
M  V30 3096 H 298.714 3.77785 -0.0932256 0
M  V30 3097 H 299.027 7.68489 -0.815113 0
M  V30 3098 H 297.372 6.91196 -0.726142 0
M  V30 3099 H 300.563 4.67674 -0.199687 0
M  V30 3100 H 300.736 6.4584 -0.528646 0
M  V30 3101 N 294.142 -0.090211 1.57342 0
M  V30 3102 C 295.388 -0.788838 1.8748 0
M  V30 3103 C 295.743 -1.76105 0.7749 0
M  V30 3104 O 295.036 -1.90302 -0.222663 0
M  V30 3105 C 295.23 -1.55222 3.21933 0
M  V30 3106 C 295.059 -0.655441 4.44898 0
M  V30 3107 C 293.829 -0.299325 5.04413 0
M  V30 3108 C 296.027 0.0397458 5.14285 0
M  V30 3109 N 294.009 0.605108 6.10911 0
M  V30 3110 C 295.38 0.802061 6.1479 0
M  V30 3111 C 297.435 0.113154 4.97771 0
M  V30 3112 C 296.138 1.63093 7.00566 0
M  V30 3113 C 298.164 0.928942 5.84059 0
M  V30 3114 C 297.526 1.67936 6.84088 0
M  V30 3115 H 293.625 -0.26467 0.735849 0
M  V30 3116 H 296.209 -0.0511453 1.94633 0
M  V30 3117 H 294.38 -2.26076 3.15823 0
M  V30 3118 H 296.112 -2.19843 3.39781 0
M  V30 3119 H 292.867 -0.648079 4.69145 0
M  V30 3120 H 293.291 1.05002 6.68808 0
M  V30 3121 H 297.933 -0.452676 4.2037 0
M  V30 3122 H 295.651 2.20781 7.77355 0
M  V30 3123 H 299.237 0.988478 5.73341 0
M  V30 3124 H 298.117 2.30044 7.49699 0
M  V30 3125 N 295.62 -1.53406 -0.361157 0
M  V30 3126 C 296.897 -1.60411 -1.11927 0
M  V30 3127 C 297.277 -0.414385 -2.06993 0
M  V30 3128 O 296.625 0.594976 -2.20618 0
M  V30 3129 C 296.835 -2.95652 -1.85448 0
M  V30 3130 C 298.183 -3.50386 -2.39823 0
M  V30 3131 O 299.207 -2.97711 -1.95568 0
M  V30 3132 O 298.066 -4.42482 -3.20737 0
M  V30 3133 H 295.16 -0.64811 -0.513695 0
M  V30 3134 H 297.706 -1.65749 -0.364065 0
M  V30 3135 H 296.478 -3.73682 -1.16091 0
M  V30 3136 H 296.101 -2.93825 -2.67866 0
M  V30 3137 N 297.098 0.621204 -1.44841 0
M  V30 3138 C 298.03 1.74615 -1.48466 0
M  V30 3139 C 299.043 1.58377 -0.37691 0
M  V30 3140 O 300.232 1.66508 -0.643215 0
M  V30 3141 C 297.332 3.12459 -1.31236 0
M  V30 3142 C 296.505 3.55064 -2.55438 0
M  V30 3143 C 295.564 4.71821 -2.32963 0
M  V30 3144 O 294.59 4.79628 -3.06505 0
M  V30 3145 N 295.792 5.64186 -1.36654 0
M  V30 3146 H 298.557 1.71973 -2.45449 0
M  V30 3147 H 296.118 0.806077 -1.40407 0
M  V30 3148 H 298.11 3.88302 -1.14032 0
M  V30 3149 H 296.68 3.09686 -0.4258 0
M  V30 3150 H 295.9 2.69324 -2.87851 0
M  V30 3151 H 297.188 3.80284 -3.38026 0
M  V30 3152 H 296.586 5.6058 -0.759344 0
M  V30 3153 H 295.143 6.39618 -1.25425 0
M  V30 3154 N 298.576 1.31904 0.862503 0
M  V30 3155 C 299.804 1.24998 1.64873 0
M  V30 3156 C 300.219 -0.183425 1.87907 0
M  V30 3157 O 299.576 -1.11794 1.44251 0
M  V30 3158 C 299.627 1.99829 3.01248 0
M  V30 3159 O 299.348 3.37575 2.79239 0
M  V30 3160 C 300.849 1.99852 3.95694 0
M  V30 3161 H 298.069 0.431599 0.513773 0
M  V30 3162 H 300.613 1.73901 1.07604 0
M  V30 3163 H 298.768 1.54668 3.55185 0
M  V30 3164 H 299.182 3.75776 3.65914 0
M  V30 3165 H 300.656 2.56709 4.88676 0
M  V30 3166 H 301.133 0.982852 4.28062 0
M  V30 3167 H 301.739 2.44926 3.47694 0
M  V30 3168 N 300.054 -1.07777 1.14986 0
M  V30 3169 C 301.017 -2.13041 0.845358 0
M  V30 3170 C 302.017 -1.60071 -0.152931 0
M  V30 3171 O 303.207 -1.74033 0.0761879 0
M  V30 3172 C 300.339 -3.39896 0.261383 0
M  V30 3173 H 301.532 -2.41485 1.77834 0
M  V30 3174 H 299.085 -1.23595 0.956757 0
M  V30 3175 H 299.82 -3.17091 -0.68 0
M  V30 3176 H 299.605 -3.79642 0.980514 0
M  V30 3177 H 301.095 -4.17548 0.0657687 0
M  V30 3178 N 301.532 -0.945985 -1.26051 0
M  V30 3179 C 302.809 -0.513816 -1.88731 0
M  V30 3180 C 303.189 1.00872 -1.8544 0
M  V30 3181 O 302.537 1.8708 -1.312 0
M  V30 3182 C 302.747 -1.08062 -3.31849 0
M  V30 3183 C 304.095 -1.1522 -4.08668 0
M  V30 3184 O 305.119 -1.03155 -3.40936 0
M  V30 3185 O 303.978 -1.34044 -5.29806 0
M  V30 3186 H 301.072 -0.168193 -0.809716 0
M  V30 3187 H 303.618 -1.03886 -1.34186 0
M  V30 3188 H 302.39 -2.1241 -3.2863 0
M  V30 3189 H 302.013 -0.538307 -3.93939 0
M  V30 3190 N 303.011 1.40521 -0.713556 0
M  V30 3191 C 303.943 2.29191 -0.0203126 0
M  V30 3192 C 304.956 1.45723 0.725864 0
M  V30 3193 O 306.145 1.69033 0.573581 0
M  V30 3194 C 303.245 3.2395 0.995486 0
M  V30 3195 C 302.418 4.36262 0.315256 0
M  V30 3196 C 301.477 5.11474 1.23616 0
M  V30 3197 O 300.503 5.64606 0.721719 0
M  V30 3198 N 301.705 5.20638 2.56743 0
M  V30 3199 H 304.47 2.89327 -0.781652 0
M  V30 3200 H 302.031 1.51869 -0.561022 0
M  V30 3201 H 304.023 3.71137 1.61368 0
M  V30 3202 H 302.593 2.64995 1.6582 0
M  V30 3203 H 301.813 3.91228 -0.483106 0
M  V30 3204 H 303.101 5.08558 -0.157004 0
M  V30 3205 H 302.499 4.7895 3.01037 0
M  V30 3206 H 301.056 5.71339 3.13712 0
M  V30 3207 N 304.489 0.459591 1.5075 0
M  V30 3208 C 305.717 -0.0973749 2.06671 0
M  V30 3209 C 306.132 -1.34524 1.32472 0
M  V30 3210 O 305.489 -1.7827 0.390634 0
M  V30 3211 C 305.54 -0.39714 3.59312 0
M  V30 3212 O 305.261 0.801214 4.30711 0
M  V30 3213 C 306.762 -1.00234 4.31819 0
M  V30 3214 H 303.982 0.00195854 0.670997 0
M  V30 3215 H 306.526 0.645072 1.94059 0
M  V30 3216 H 304.681 -1.08951 3.71764 0
M  V30 3217 H 305.095 0.538857 5.21725 0
M  V30 3218 H 306.569 -1.16193 5.39632 0
M  V30 3219 H 307.046 -1.98939 3.91561 0
M  V30 3220 H 307.652 -0.348699 4.23868 0
M  V30 3221 N 305.967 -1.56429 0.191757 0
M  V30 3222 C 307.378 -1.83912 -0.321428 0
M  V30 3223 C 307.729 -1.11231 -1.61623 0
M  V30 3224 O 306.854 -0.37202 -2.13178 0
M  V30 3225 C 307.449 -3.33624 -0.589961 0
M  V30 3226 C 306.008 -3.6153 -1.04753 0
M  V30 3227 C 305.155 -2.7714 -0.0943327 0
M  V30 3228 H 308.106 -1.53161 0.415612 0
M  V30 3229 H 308.127 -3.52213 -1.43966 0
M  V30 3230 H 307.639 -3.86495 0.352588 0
M  V30 3231 H 305.74 -3.14089 -2.00447 0
M  V30 3232 H 305.853 -4.69737 -0.942549 0
M  V30 3233 H 304.217 -2.47638 -0.595589 0
M  V30 3234 H 305 -3.32799 0.842601 0
M  V30 3235 N 307.445 0.0818655 -1.57387 0
M  V30 3236 C 308.693 0.781368 -1.86384 0
M  V30 3237 C 309.014 1.78618 -0.782342 0
M  V30 3238 O 308.284 1.94976 0.190061 0
M  V30 3239 H 306.864 0.291562 -0.687751 0
M  V30 3240 H 309.526 0.060348 -1.94807 0
M  V30 3241 H 308.622 1.3038 -2.83562 0
M  V30 3242 N 308.923 1.53595 0.353017 0
M  V30 3243 C 309.886 1.80232 1.41594 0
M  V30 3244 C 310.886 0.673081 1.46035 0
M  V30 3245 O 312.076 0.941335 1.46576 0
M  V30 3246 C 309.208 1.93578 2.80607 0
M  V30 3247 H 310.401 2.75174 1.19244 0
M  V30 3248 H 307.954 1.44864 0.586872 0
M  V30 3249 H 308.689 1.00746 3.08254 0
M  V30 3250 H 308.474 2.75724 2.78781 0
M  V30 3251 H 309.964 2.15735 3.57558 0
M  V30 3252 N 310.401 -0.613514 1.45168 0
M  V30 3253 C 311.629 -1.39946 1.5239 0
M  V30 3254 C 312.044 -1.88167 0.154531 0
M  V30 3255 O 311.401 -1.61872 -0.842843 0
M  V30 3256 C 311.452 -2.60795 2.50337 0
M  V30 3257 O 311.173 -2.1458 3.81952 0
M  V30 3258 C 312.674 -3.53723 2.67198 0
M  V30 3259 H 309.894 -0.428593 0.516284 0
M  V30 3260 H 312.438 -0.748753 1.903 0
M  V30 3261 H 310.593 -3.21919 2.15515 0
M  V30 3262 H 311.007 -2.93055 4.34993 0
M  V30 3263 H 312.481 -4.35079 3.39721 0
M  V30 3264 H 312.958 -4.0368 1.73029 0
M  V30 3265 H 313.564 -2.98456 3.02992 0
M  V30 3266 N 311.879 -1.3236 -0.855495 0
M  V30 3267 C 313.29 -1.2056 -1.42556 0
M  V30 3268 C 313.641 0.182209 -1.95352 0
M  V30 3269 O 312.766 1.08088 -1.87472 0
M  V30 3270 C 313.361 -2.1826 -2.59129 0
M  V30 3271 C 311.92 -2.10351 -3.12137 0
M  V30 3272 C 311.067 -2.06674 -1.84882 0
M  V30 3273 H 314.018 -1.442 -0.662727 0
M  V30 3274 H 314.039 -1.78064 -3.36264 0
M  V30 3275 H 313.551 -3.19257 -2.20673 0
M  V30 3276 H 311.652 -1.12599 -3.55179 0
M  V30 3277 H 311.765 -3.00135 -3.73438 0
M  V30 3278 H 310.129 -1.51901 -2.04446 0
M  V30 3279 H 310.912 -3.09451 -1.48643 0
M  V30 3280 N 313.357 1.07166 -1.15556 0
M  V30 3281 C 314.304 2.14417 -0.854055 0
M  V30 3282 C 315.274 1.64965 0.193806 0
M  V30 3283 O 316.459 1.90703 0.0609443 0
M  V30 3284 C 313.599 3.43304 -0.351574 0
M  V30 3285 C 312.712 4.06537 -1.46123 0
M  V30 3286 C 311.847 5.23266 -0.914677 0
M  V30 3287 C 310.886 5.78464 -2.00114 0
M  V30 3288 N 310.023 6.86521 -1.47083 0
M  V30 3289 H 314.863 2.39548 -1.77259 0
M  V30 3290 H 312.4 1.17543 -0.884425 0
M  V30 3291 H 314.358 4.17179 -0.0419409 0
M  V30 3292 H 312.988 3.18419 0.530037 0
M  V30 3293 H 312.04 3.30297 -1.88701 0
M  V30 3294 H 313.352 4.43567 -2.28144 0
M  V30 3295 H 312.506 6.04131 -0.557698 0
M  V30 3296 H 311.245 4.87658 -0.0636583 0
M  V30 3297 H 310.25 4.96243 -2.36692 0
M  V30 3298 H 311.475 6.16126 -2.85597 0
M  V30 3299 H 309.421 6.52849 -0.642198 0
M  V30 3300 H 309.338 7.22446 -2.22729 0
M  V30 3301 H 310.606 7.71087 -1.14215 0
M  V30 3302 N 314.835 0.952656 1.25548 0
M  V30 3303 C 315.782 0.47008 2.25962 0
M  V30 3304 C 316.752 -0.476384 1.59122 0
M  V30 3305 O 317.937 -0.39007 1.8677 0
M  V30 3306 C 315.077 -0.247881 3.44209 0
M  V30 3307 C 314.19 0.735591 4.25691 0
M  V30 3308 C 313.325 -0.0047306 5.312 0
M  V30 3309 C 312.364 0.969805 6.04368 0
M  V30 3310 N 311.501 0.260486 7.01617 0
M  V30 3311 H 316.341 1.33126 2.66611 0
M  V30 3312 H 313.878 0.66765 1.31076 0
M  V30 3313 H 315.836 -0.680695 4.1161 0
M  V30 3314 H 314.466 -1.07312 3.0444 0
M  V30 3315 H 313.518 1.28689 3.57971 0
M  V30 3316 H 314.83 1.47934 4.76358 0
M  V30 3317 H 313.984 -0.496275 6.04667 0
M  V30 3318 H 312.723 -0.781282 4.81401 0
M  V30 3319 H 311.728 1.47237 5.29718 0
M  V30 3320 H 312.953 1.74655 6.56256 0
M  V30 3321 H 310.899 -0.497364 6.54112 0
M  V30 3322 H 310.816 0.943362 7.50091 0
M  V30 3323 H 312.084 -0.209587 7.79218 0
M  V30 3324 N 316.313 -1.40141 0.720998 0
M  V30 3325 C 317.243 -2.33339 0.0867621 0
M  V30 3326 C 318.224 -1.53178 -0.739622 0
M  V30 3327 O 319.409 -1.81625 -0.687449 0
M  V30 3328 C 316.539 -3.37194 -0.831728 0
M  V30 3329 C 315.493 -4.27857 -0.110558 0
M  V30 3330 C 314.819 -5.22294 -1.14513 0
M  V30 3331 C 316.119 -5.11872 1.0385 0
M  V30 3332 H 317.813 -2.86626 0.865219 0
M  V30 3333 H 315.359 -1.37814 0.417516 0
M  V30 3334 H 317.312 -4.01335 -1.28485 0
M  V30 3335 H 316.036 -2.82314 -1.64214 0
M  V30 3336 H 314.695 -3.65176 0.322797 0
M  V30 3337 H 314.343 -4.63717 -1.94874 0
M  V30 3338 H 314.043 -5.83797 -0.667446 0
M  V30 3339 H 315.567 -5.89312 -1.59824 0
M  V30 3340 H 316.981 -5.69436 0.664482 0
M  V30 3341 H 315.378 -5.82445 1.4449 0
M  V30 3342 H 316.448 -4.4753 1.86668 0
M  V30 3343 N 317.792 -0.46758 -1.50504 0
M  V30 3344 C 319.017 0.0886943 -2.0721 0
M  V30 3345 C 319.442 1.33057 -1.32956 0
M  V30 3346 O 318.8 1.77354 -0.376197 0
M  V30 3347 C 318.848 0.359202 -3.58806 0
M  V30 3348 O 317.952 1.44034 -3.8643 0
M  V30 3349 H 317.293 -0.0114349 -0.663902 0
M  V30 3350 H 319.823 -0.657613 -1.93744 0
M  V30 3351 H 319.833 0.600742 -4.03553 0
M  V30 3352 H 318.508 -0.548311 -4.1227 0
M  V30 3353 H 317.085 1.18638 -3.53524 0
M  V30 3354 N 319.27 1.56325 -0.20005 0
M  V30 3355 C 320.495 2.02548 0.44597 0
M  V30 3356 C 320.92 1.07922 1.5406 0
M  V30 3357 O 320.278 0.0635775 1.81188 0
M  V30 3358 C 320.326 3.47175 0.974761 0
M  V30 3359 O 319.43 3.55671 2.08739 0
M  V30 3360 H 318.771 0.655862 0.103638 0
M  V30 3361 H 321.301 2.02201 -0.312381 0
M  V30 3362 H 321.311 3.87067 1.2901 0
M  V30 3363 H 319.986 4.15538 0.17347 0
M  V30 3364 H 318.563 3.27657 1.78032 0
M  V30 3365 N 320.748 -0.0735177 1.57428 0
M  V30 3366 C 321.994 -0.768909 1.88307 0
M  V30 3367 C 322.349 -1.75273 0.793535 0
M  V30 3368 O 321.642 -1.90527 -0.202466 0
M  V30 3369 C 321.836 -1.51799 3.23561 0
M  V30 3370 C 321.665 -0.608217 4.45568 0
M  V30 3371 C 320.435 -0.245808 5.04702 0
M  V30 3372 C 322.633 0.0942904 5.14214 0
M  V30 3373 N 320.615 0.66987 6.10234 0
M  V30 3374 C 321.986 0.867222 6.13905 0
M  V30 3375 C 324.041 0.165943 4.97623 0
M  V30 3376 C 322.744 1.70515 6.98797 0
M  V30 3377 C 324.77 0.990837 5.83041 0
M  V30 3378 C 324.132 1.75182 6.82269 0
M  V30 3379 H 320.231 -0.25685 0.738615 0
M  V30 3380 H 322.815 -0.030499 1.94676 0
M  V30 3381 H 320.986 -2.22713 3.18203 0
M  V30 3382 H 322.718 -2.16226 3.42094 0
M  V30 3383 H 319.473 -0.598284 4.69806 0
M  V30 3384 H 319.897 1.1209 6.67656 0
M  V30 3385 H 324.539 -0.408064 4.20826 0
M  V30 3386 H 322.257 2.29013 7.7497 0
M  V30 3387 H 325.843 1.04923 5.72261 0
M  V30 3388 H 324.723 2.37983 7.47217 0
M  V30 3389 N 322.226 -1.5378 -0.344866 0
M  V30 3390 C 323.503 -1.61589 -1.10219 0
M  V30 3391 C 323.883 -0.436316 -2.06542 0
M  V30 3392 O 323.231 0.571543 -2.21237 0
M  V30 3393 C 323.441 -2.97602 -1.82301 0
M  V30 3394 C 324.789 -3.5291 -2.36093 0
M  V30 3395 O 325.813 -2.99768 -1.924 0
M  V30 3396 O 324.672 -4.45859 -3.16026 0
M  V30 3397 H 321.766 -0.653522 -0.506792 0
M  V30 3398 H 324.312 -1.66126 -0.346465 0
M  V30 3399 H 323.084 -3.74893 -1.12121 0
M  V30 3400 H 322.707 -2.9665 -2.64735 0
M  V30 3401 N 323.704 0.605807 -1.45491 0
M  V30 3402 C 324.636 1.73031 -1.5031 0
M  V30 3403 C 325.649 1.57968 -0.393687 0
M  V30 3404 O 326.838 1.65817 -0.660839 0
M  V30 3405 C 323.938 3.11049 -1.34543 0
M  V30 3406 C 323.111 3.52334 -2.59189 0
M  V30 3407 C 322.17 4.69323 -2.37954 0
M  V30 3408 O 321.196 4.7635 -3.11575 0
M  V30 3409 N 322.398 5.62705 -1.4263 0
M  V30 3410 H 325.163 1.6936 -2.4726 0
M  V30 3411 H 322.724 0.79114 -1.41254 0
M  V30 3412 H 324.716 3.87071 -1.18144 0
M  V30 3413 H 323.286 3.09217 -0.458623 0
M  V30 3414 H 322.506 2.66256 -2.90691 0
M  V30 3415 H 323.794 3.76677 -3.42041 0
M  V30 3416 H 323.192 5.59744 -0.818758 0
M  V30 3417 H 321.749 6.38252 -1.32202 0
M  V30 3418 N 325.182 1.32811 0.848464 0
M  V30 3419 C 326.145 1.22194 1.9391 0
M  V30 3420 C 327.145 0.143404 1.60159 0
M  V30 3421 O 328.335 0.394253 1.6968 0
M  V30 3422 C 325.467 0.88067 3.29328 0
M  V30 3423 H 326.66 2.19127 2.04752 0
M  V30 3424 H 324.213 1.16731 1.0394 0
M  V30 3425 H 324.948 -0.0865776 3.24184 0
M  V30 3426 H 324.733 1.66052 3.55203 0
M  V30 3427 H 326.223 0.830871 4.09251 0
M  V30 3428 N 326.66 -1.06551 1.16123 0
M  V30 3429 C 327.57 -2.17484 0.879662 0
M  V30 3430 C 328.586 -1.73377 -0.147104 0
M  V30 3431 O 329.762 -2.01379 0.0289128 0
M  V30 3432 C 326.827 -3.44591 0.381829 0
M  V30 3433 C 325.888 -4.0322 1.4735 0
M  V30 3434 C 325.121 -5.24261 0.999324 0
M  V30 3435 O 325.344 -5.70198 -0.151957 0
M  V30 3436 O 324.278 -5.74775 1.78653 0
M  V30 3437 H 328.104 -2.44075 1.80724 0
M  V30 3438 H 325.689 -1.16042 0.940992 0
M  V30 3439 H 327.571 -4.21254 0.111053 0
M  V30 3440 H 326.246 -3.19532 -0.51777 0
M  V30 3441 H 325.153 -3.2806 1.79798 0
M  V30 3442 H 326.486 -4.32568 2.34831 0
M  V30 3443 N 328.138 -0.959301 -1.25041 0
M  V30 3444 C 329.366 -0.633949 -1.96948 0
M  V30 3445 C 329.781 0.794916 -1.7125 0
M  V30 3446 O 329.138 1.53231 -0.991287 0
M  V30 3447 C 329.189 -0.888805 -3.50403 0
M  V30 3448 O 328.91 -2.26149 -3.75218 0
M  V30 3449 C 330.411 -0.576482 -4.39536 0
M  V30 3450 H 327.631 -0.237263 -0.627652 0
M  V30 3451 H 330.175 -1.28495 -1.59089 0
M  V30 3452 H 328.33 -0.284145 -3.86357 0
M  V30 3453 H 328.744 -2.33514 -4.6965 0
M  V30 3454 H 330.218 -0.805314 -5.46094 0
M  V30 3455 H 330.695 0.489075 -4.36468 0
M  V30 3456 H 331.301 -1.16067 -4.09156 0
M  V30 3457 N 329.616 1.39756 -0.72842 0
M  V30 3458 C 331.027 1.83498 -0.344289 0
M  V30 3459 C 331.378 1.60868 1.12321 0
M  V30 3460 O 330.503 1.09634 1.86573 0
M  V30 3461 C 331.098 3.33114 -0.618112 0
M  V30 3462 C 329.657 3.753 -0.287549 0
M  V30 3463 C 328.804 2.62831 -0.884048 0
M  V30 3464 H 331.755 1.28842 -0.926578 0
M  V30 3465 H 331.776 3.80334 0.112349 0
M  V30 3466 H 331.288 3.49553 -1.68625 0
M  V30 3467 H 329.389 3.64451 0.775012 0
M  V30 3468 H 329.502 4.72945 -0.765512 0
M  V30 3469 H 327.866 2.52792 -0.311149 0
M  V30 3470 H 328.649 2.82078 -1.95671 0
M  V30 3471 N 331.094 0.475555 1.50254 0
M  V30 3472 C 332.342 -0.077738 2.0195 0
M  V30 3473 C 332.663 -1.39813 1.35931 0
M  V30 3474 O 331.933 -1.89249 0.506123 0
M  V30 3475 H 330.513 -0.031719 0.746326 0
M  V30 3476 H 333.175 0.626995 1.84539 0
M  V30 3477 H 332.271 -0.225995 3.11281 0
M  V30 3478 N 332.573 -1.56217 0.208337 0
M  V30 3479 C 333.523 -2.16324 -0.720281 0
M  V30 3480 C 334.507 -1.10775 -1.16695 0
M  V30 3481 O 335.699 -1.36801 -1.12314 0
M  V30 3482 C 332.828 -2.83644 -1.93393 0
M  V30 3483 C 331.914 -3.96401 -1.50755 0
M  V30 3484 N 332.305 -4.99546 -0.792937 0
M  V30 3485 C 330.603 -4.08246 -1.79585 0
M  V30 3486 C 331.304 -5.78828 -0.577364 0
M  V30 3487 N 330.28 -5.31723 -1.1301 0
M  V30 3488 H 334.082 -2.93432 -0.165725 0
M  V30 3489 H 331.596 -1.62397 0.00906463 0
M  V30 3490 H 333.593 -3.25107 -2.60981 0
M  V30 3491 H 332.253 -2.08027 -2.49308 0
M  V30 3492 H 333.264 -5.15967 -0.447004 0
M  V30 3493 H 329.941 -3.4377 -2.36915 0
M  V30 3494 H 331.331 -6.71899 -0.00952956 0
M  V30 3495 N 334.051 0.0651679 -1.57465 0
M  V30 3496 C 335.279 0.775808 -1.91804 0
M  V30 3497 C 335.694 1.70782 -0.804916 0
M  V30 3498 O 335.051 1.81153 0.221311 0
M  V30 3499 C 335.102 1.56381 -3.25925 0
M  V30 3500 O 334.823 0.669248 -4.32958 0
M  V30 3501 C 336.324 2.37485 -3.7432 0
M  V30 3502 H 333.544 0.2202 -0.63384 0
M  V30 3503 H 336.088 0.0334587 -2.04473 0
M  V30 3504 H 334.243 2.25837 -3.14764 0
M  V30 3505 H 334.657 1.21801 -5.10162 0
M  V30 3506 H 336.131 2.88223 -4.70778 0
M  V30 3507 H 336.608 3.17307 -3.03666 0
M  V30 3508 H 337.214 1.73173 -3.88447 0
M  V30 3509 N 335.529 1.53961 0.336706 0
M  V30 3510 C 336.94 1.62914 0.911925 0
M  V30 3511 C 337.291 0.514795 1.89326 0
M  V30 3512 O 336.416 -0.354395 2.13478 0
M  V30 3513 C 337.011 2.95304 1.66076 0
M  V30 3514 C 335.57 3.06496 2.18489 0
M  V30 3515 C 334.717 2.58403 1.00613 0
M  V30 3516 H 337.668 1.58285 0.114649 0
M  V30 3517 H 337.689 2.84727 2.5241 0
M  V30 3518 H 337.201 3.76387 0.946276 0
M  V30 3519 H 335.302 2.3006 2.93092 0
M  V30 3520 H 335.415 4.1208 2.44391 0
M  V30 3521 H 333.779 2.13977 1.38152 0
M  V30 3522 H 334.562 3.41932 0.306179 0
M  V30 3523 N 337.007 -0.598083 1.45811 0
M  V30 3524 C 338.232 -1.3881 1.54099 0
M  V30 3525 C 338.657 -1.8726 0.177578 0
M  V30 3526 O 338.015 -1.6069 -0.839541 0
M  V30 3527 C 338.063 -2.56217 2.53743 0
M  V30 3528 O 337.167 -3.5716 2.06182 0
M  V30 3529 H 336.508 -0.414024 0.519115 0
M  V30 3530 H 339.038 -0.726971 1.91249 0
M  V30 3531 H 339.048 -3.03337 2.72856 0
M  V30 3532 H 337.723 -2.20303 3.5276 0
M  V30 3533 H 336.3 -3.16624 1.96987 0
M  V30 3534 N 338.485 -1.33259 -0.841409 0
M  V30 3535 C 339.415 -1.25926 -1.96634 0
M  V30 3536 C 340.396 -0.140349 -1.6952 0
M  V30 3537 O 341.581 -0.329707 -1.91381 0
M  V30 3538 C 338.711 -0.99512 -3.32738 0
M  V30 3539 C 337.665 -2.0767 -3.74242 0
M  V30 3540 C 336.991 -1.66474 -5.08125 0
M  V30 3541 C 338.291 -3.49318 -3.88297 0
M  V30 3542 H 339.985 -2.20046 -2.03027 0
M  V30 3543 H 337.531 -1.05931 -0.975425 0
M  V30 3544 H 339.484 -0.930323 -4.11002 0
M  V30 3545 H 338.208 -0.0183004 -3.26595 0
M  V30 3546 H 336.867 -2.13187 -2.98239 0
M  V30 3547 H 336.515 -0.675012 -4.9845 0
M  V30 3548 H 336.215 -2.3885 -5.36865 0
M  V30 3549 H 337.739 -1.61455 -5.88867 0
M  V30 3550 H 339.153 -3.46316 -4.56879 0
M  V30 3551 H 337.55 -4.20158 -4.28471 0
M  V30 3552 H 338.62 -3.8801 -2.9082 0
M  V30 3553 N 339.963 1.05934 -1.16686 0
M  V30 3554 C 341.379 1.30938 -0.912542 0
M  V30 3555 C 341.579 1.96803 0.432533 0
M  V30 3556 O 340.635 2.23693 1.17123 0
M  V30 3557 C 341.948 2.18649 -2.06429 0
M  V30 3558 C 343.496 2.32055 -2.10047 0
M  V30 3559 C 343.971 3.23122 -3.24586 0
M  V30 3560 N 345.462 3.30706 -3.24327 0
M  V30 3561 C 346.197 4.01273 -4.09594 0
M  V30 3562 N 345.693 4.74332 -5.04956 0
M  V30 3563 N 347.486 3.97361 -3.97569 0
M  V30 3564 H 339.637 0.615777 -2.03278 0
M  V30 3565 H 341.9 0.334077 -0.887185 0
M  V30 3566 H 341.606 1.77534 -3.03603 0
M  V30 3567 H 341.48 3.19252 -2.00894 0
M  V30 3568 H 343.867 2.72415 -1.13464 0
M  V30 3569 H 343.948 1.31107 -2.19647 0
M  V30 3570 H 343.592 2.83477 -4.2143 0
M  V30 3571 H 343.522 4.24057 -3.12223 0
M  V30 3572 H 346.013 2.78644 -2.55276 0
M  V30 3573 H 346.326 5.25716 -5.6643 0
M  V30 3574 H 344.671 4.733 -5.08933 0
M  V30 3575 H 347.862 3.39405 -3.22369 0
M  V30 3576 H 348.035 4.52089 -4.64241 0
M  V30 3577 N 341.441 0.965919 1.2453 0
M  V30 3578 C 342.687 0.637349 1.93156 0
M  V30 3579 C 343.042 -0.818261 1.74133 0
M  V30 3580 O 342.335 -1.58079 1.08266 0
M  V30 3581 C 342.529 0.945428 3.44669 0
M  V30 3582 C 342.358 2.42944 3.78429 0
M  V30 3583 C 341.128 3.08895 3.9989 0
M  V30 3584 C 343.326 3.40941 3.8505 0
M  V30 3585 N 341.308 4.47052 4.20735 0
M  V30 3586 C 342.679 4.64448 4.10717 0
M  V30 3587 C 344.734 3.35624 3.67779 0
M  V30 3588 C 343.437 5.83292 4.20907 0
M  V30 3589 C 345.463 4.53818 3.79214 0
M  V30 3590 C 344.825 5.76114 4.05304 0
M  V30 3591 H 340.924 0.284034 0.728594 0
M  V30 3592 H 343.508 1.24041 1.50073 0
M  V30 3593 H 341.679 0.371193 3.86622 0
M  V30 3594 H 343.411 0.575613 4.00586 0
M  V30 3595 H 340.166 2.59432 3.96222 0
M  V30 3596 H 340.59 5.18634 4.35141 0
M  V30 3597 H 345.232 2.4211 3.46616 0
M  V30 3598 H 342.95 6.77236 4.40883 0
M  V30 3599 H 346.536 4.51263 3.67224 0
M  V30 3600 H 345.416 6.66045 4.13949 0
M  V30 3601 N 342.919 -1.39368 0.735821 0
M  V30 3602 C 344.196 -1.94465 0.210395 0
M  V30 3603 C 344.576 -1.67254 -1.28799 0
M  V30 3604 O 343.924 -1.00123 -2.05396 0
M  V30 3605 C 344.134 -3.4472 0.544897 0
M  V30 3606 C 345.482 -4.21708 0.494689 0
M  V30 3607 O 346.506 -3.52922 0.482136 0
M  V30 3608 O 345.365 -5.44299 0.489947 0
M  V30 3609 H 342.459 -0.826096 0.0386666 0
M  V30 3610 H 345.005 -1.48863 0.814735 0
M  V30 3611 H 343.777 -3.57963 1.58045 0
M  V30 3612 H 343.4 -3.97502 -0.08837 0
M  V30 3613 N 344.397 -0.483516 -1.5 0
M  V30 3614 C 345.307 0.309172 -2.32554 0
M  V30 3615 C 346.323 0.984159 -1.43493 0
M  V30 3616 O 347.499 0.969399 -1.76535 0
M  V30 3617 C 344.564 1.36979 -3.18493 0
M  V30 3618 C 343.625 0.710095 -4.23387 0
M  V30 3619 C 342.858 1.72018 -5.05218 0
M  V30 3620 O 343.081 2.94813 -4.88305 0
M  V30 3621 O 342.015 1.28515 -5.8802 0
M  V30 3622 H 345.841 -0.366064 -3.01486 0
M  V30 3623 H 343.426 -0.24514 -1.47375 0
M  V30 3624 H 345.308 1.98385 -3.71781 0
M  V30 3625 H 343.983 2.02828 -2.52275 0
M  V30 3626 H 342.89 0.0567539 -3.74057 0
M  V30 3627 H 344.223 0.0943557 -4.9211 0
M  V30 3628 N 345.875 1.56104 -0.216619 0
M  V30 3629 C 347.103 2.02563 0.421413 0
M  V30 3630 C 347.518 1.0965 1.53695 0
M  V30 3631 O 346.875 0.10521 1.82196 0
M  V30 3632 C 346.926 3.48584 0.957665 0
M  V30 3633 O 346.647 4.37953 -0.113389 0
M  V30 3634 C 348.148 4.10664 1.66943 0
M  V30 3635 H 345.368 0.662944 0.103665 0
M  V30 3636 H 347.912 2.01793 -0.331629 0
M  V30 3637 H 346.067 3.49985 1.661 0
M  V30 3638 H 346.481 5.23704 0.288932 0
M  V30 3639 H 347.955 5.14622 1.99671 0
M  V30 3640 H 348.432 3.55373 2.58083 0
M  V30 3641 H 349.038 4.13098 1.01142 0
M  V30 3642 N 347.353 -0.0568162 1.57498 0
M  V30 3643 C 348.764 -0.606858 1.76562 0
M  V30 3644 C 349.115 -1.77114 0.844094 0
M  V30 3645 O 348.24 -2.16376 0.0318911 0
M  V30 3646 C 348.835 -1.10766 3.20182 0
M  V30 3647 C 347.394 -1.60344 3.40539 0
M  V30 3648 C 346.541 -0.529311 2.72201 0
M  V30 3649 H 349.492 0.169393 1.57793 0
M  V30 3650 H 349.513 -1.97602 3.25167 0
M  V30 3651 H 349.025 -0.26006 3.87228 0
M  V30 3652 H 347.126 -2.47379 2.78629 0
M  V30 3653 H 347.239 -1.67006 4.4905 0
M  V30 3654 H 345.603 -0.977893 2.35179 0
M  V30 3655 H 346.386 0.308352 3.41912 0
M  V30 3656 N 348.832 -1.54138 -0.328536 0
M  V30 3657 C 350.08 -1.71765 -1.06496 0
M  V30 3658 C 350.401 -0.49149 -1.88704 0
M  V30 3659 O 349.671 0.494539 -1.89555 0
M  V30 3660 H 348.251 -0.633295 -0.396164 0
M  V30 3661 H 350.913 -1.91429 -0.366176 0
M  V30 3662 H 350.009 -2.5951 -1.73381 0
M  V30 3663 N 350.31 0.590341 -1.46126 0
M  V30 3664 C 351.726 0.912917 -1.30912 0
M  V30 3665 C 351.926 1.99616 -0.274893 0
M  V30 3666 O 350.982 2.50397 0.325197 0
M  V30 3667 C 352.295 1.3375 -2.69317 0
M  V30 3668 C 353.843 1.45077 -2.77348 0
M  V30 3669 C 354.318 1.90904 -4.16317 0
M  V30 3670 N 355.809 1.9811 -4.18696 0
M  V30 3671 C 356.544 2.34828 -5.23109 0
M  V30 3672 N 356.04 2.70393 -6.37856 0
M  V30 3673 N 357.833 2.35317 -5.10473 0
M  V30 3674 H 349.984 -0.125358 -2.1203 0
M  V30 3675 H 352.247 0.00658481 -0.947977 0
M  V30 3676 H 351.953 0.615614 -3.4627 0
M  V30 3677 H 351.827 2.30058 -2.9892 0
M  V30 3678 H 354.214 2.16353 -2.00687 0
M  V30 3679 H 354.295 0.4704 -2.51438 0
M  V30 3680 H 353.939 1.20209 -4.9347 0
M  V30 3681 H 353.869 2.89886 -4.39629 0
M  V30 3682 H 356.36 1.73146 -3.359 0
M  V30 3683 H 356.673 2.97341 -7.13308 0
M  V30 3684 H 355.018 2.68048 -6.41229 0
M  V30 3685 H 358.209 2.0695 -4.19868 0
M  V30 3686 H 358.382 2.63605 -5.9196 0
M  V30 3687 N 351.788 1.33704 0.83433 0
M  V30 3688 C 352.751 1.24244 1.92603 0
M  V30 3689 C 353.751 0.160383 1.59998 0
M  V30 3690 O 354.941 0.412228 1.69252 0
M  V30 3691 C 352.073 0.91555 3.28376 0
M  V30 3692 H 353.266 2.21287 2.02416 0
M  V30 3693 H 350.819 1.17827 1.02696 0
M  V30 3694 H 351.554 -0.0521886 3.24258 0
M  V30 3695 H 351.339 1.69811 3.53422 0
M  V30 3696 H 352.829 0.874231 4.08347 0
M  V30 3697 N 353.266 -1.05314 1.17247 0
M  V30 3698 C 354.213 -2.13031 0.888058 0
M  V30 3699 C 355.183 -1.65253 -0.167537 0
M  V30 3700 O 356.368 -1.90775 -0.0305974 0
M  V30 3701 C 353.508 -3.42702 0.406147 0
M  V30 3702 C 352.621 -4.04161 1.52572 0
M  V30 3703 C 351.756 -5.21744 0.997808 0
M  V30 3704 C 350.795 -5.75207 2.09291 0
M  V30 3705 N 349.932 -6.84094 1.57986 0
M  V30 3706 H 354.772 -2.36698 1.81048 0
M  V30 3707 H 352.309 -1.16121 0.903013 0
M  V30 3708 H 354.267 -4.17059 0.108305 0
M  V30 3709 H 352.897 -3.19222 -0.479313 0
M  V30 3710 H 351.949 -3.27253 1.93931 0
M  V30 3711 H 353.261 -4.39881 2.35172 0
M  V30 3712 H 352.415 -6.03168 0.653739 0
M  V30 3713 H 351.154 -4.87495 0.141232 0
M  V30 3714 H 350.159 -4.92414 2.44557 0
M  V30 3715 H 351.384 -6.11505 2.95362 0
M  V30 3716 H 349.33 -6.51745 0.74598 0
M  V30 3717 H 349.247 -7.18811 2.34195 0
M  V30 3718 H 350.515 -7.69172 1.26468 0
M  V30 3719 N 354.744 -0.972509 -1.24016 0
M  V30 3720 C 355.992 -0.635776 -1.91839 0
M  V30 3721 C 356.313 0.832312 -1.76345 0
M  V30 3722 O 355.583 1.5946 -1.13795 0
M  V30 3723 H 354.163 -0.232157 -0.710009 0
M  V30 3724 H 356.825 -1.23462 -1.50809 0
M  V30 3725 H 355.921 -0.880545 -2.99421 0
M  V30 3726 N 356.222 1.38976 -0.743202 0
M  V30 3727 C 357.447 2.05161 -0.303936 0
M  V30 3728 C 357.872 1.55677 1.05576 0
M  V30 3729 O 357.23 0.704131 1.67068 0
M  V30 3730 C 357.278 3.59138 -0.324373 0
M  V30 3731 O 356.382 4.06668 0.685204 0
M  V30 3732 H 355.723 0.649815 -0.136518 0
M  V30 3733 H 358.253 1.77852 -1.01142 0
M  V30 3734 H 358.263 4.07639 -0.171618 0
M  V30 3735 H 356.938 3.94515 -1.31647 0
M  V30 3736 H 355.515 3.69561 0.497913 0
M  V30 3737 N 357.7 0.491464 1.49741 0
M  V30 3738 C 358.61 -0.296835 2.32715 0
M  V30 3739 C 359.626 -0.976536 1.44013 0
M  V30 3740 O 360.802 -0.960023 1.77047 0
M  V30 3741 C 357.867 -1.35288 3.19215 0
M  V30 3742 C 356.928 -0.687632 4.23757 0
M  V30 3743 C 356.161 -1.69336 5.06123 0
M  V30 3744 O 356.384 -2.92219 4.89861 0
M  V30 3745 O 355.318 -1.25394 5.88693 0
M  V30 3746 H 359.144 0.382048 3.01287 0
M  V30 3747 H 356.729 0.252953 1.47243 0
M  V30 3748 H 358.611 -1.96411 3.72828 0
M  V30 3749 H 357.286 -2.01487 2.53347 0
M  V30 3750 H 356.193 -0.0369159 3.74082 0
M  V30 3751 H 357.526 -0.0682566 4.92153 0
M  V30 3752 N 359.178 -1.55987 0.224894 0
M  V30 3753 C 360.406 -2.02784 -0.410665 0
M  V30 3754 C 360.821 -1.10464 -1.53112 0
M  V30 3755 O 360.178 -0.114871 -1.82138 0
M  V30 3756 C 360.229 -3.49087 -0.939165 0
M  V30 3757 O 359.95 -4.37887 0.136614 0
M  V30 3758 C 361.451 -4.11543 -1.64763 0
M  V30 3759 H 358.671 -0.663484 -0.100148 0
M  V30 3760 H 361.215 -2.01614 0.342326 0
M  V30 3761 H 359.37 -3.50861 -1.64242 0
M  V30 3762 H 359.784 -5.23849 -0.261155 0
M  V30 3763 H 361.258 -5.15673 -1.96939 0
M  V30 3764 H 361.735 -3.56736 -2.56195 0
M  V30 3765 H 362.341 -4.13629 -0.989503 0
M  V30 3766 N 360.656 0.0484629 -1.57525 0
M  V30 3767 C 362.067 0.597486 -1.76881 0
M  V30 3768 C 362.418 1.76664 -0.853475 0
M  V30 3769 O 361.543 2.16357 -0.0433656 0
M  V30 3770 C 362.138 1.09066 -3.20765 0
M  V30 3771 C 360.697 1.58535 -3.41385 0
M  V30 3772 C 359.844 0.514868 -2.72478 0
M  V30 3773 H 362.795 -0.177758 -1.57701 0
M  V30 3774 H 362.816 1.95875 -3.2621 0
M  V30 3775 H 362.328 0.239521 -3.8736 0
M  V30 3776 H 360.429 2.45898 -2.79937 0
M  V30 3777 H 360.542 1.64622 -4.49929 0
M  V30 3778 H 358.906 0.965407 -2.35695 0
M  V30 3779 H 359.689 -0.32648 -3.41744 0
M  V30 3780 N 362.134 1.5431 0.320358 0
M  V30 3781 C 363.382 1.72327 1.05583 0
M  V30 3782 C 363.703 0.50149 1.88441 0
M  V30 3783 O 362.973 -0.48448 1.89815 0
M  V30 3784 H 361.553 0.635387 0.3928 0
M  V30 3785 H 364.215 1.91621 0.356019 0
M  V30 3786 H 363.311 2.60426 1.72003 0
M  V30 3787 N 363.613 -0.582584 1.46437 0
M  V30 3788 C 364.576 -1.67366 1.56592 0
M  V30 3789 C 365.576 -1.54575 0.443072 0
M  V30 3790 O 366.766 -1.59191 0.707381 0
M  V30 3791 C 363.898 -3.06791 1.48634 0
M  V30 3792 H 365.091 -1.5972 2.5383 0
M  V30 3793 H 362.644 -0.800432 1.34249 0
M  V30 3794 H 363.379 -3.19993 0.526763 0
M  V30 3795 H 363.164 -3.17484 2.30101 0
M  V30 3796 H 364.654 -3.86218 1.58826 0
M  V30 3797 N 365.091 -1.34144 -0.827227 0
M  V30 3798 C 366.319 -1.29325 -1.61501 0
M  V30 3799 C 366.734 0.13354 -1.88327 0
M  V30 3800 O 366.091 1.0793 -1.47164 0
M  V30 3801 C 366.142 -2.07746 -2.95844 0
M  V30 3802 O 365.863 -3.4486 -2.70191 0
M  V30 3803 C 367.364 -2.10273 -3.90256 0
M  V30 3804 H 364.584 -0.445069 -0.50215 0
M  V30 3805 H 367.128 -1.76693 -1.02955 0
M  V30 3806 H 365.283 -1.6403 -3.5096 0
M  V30 3807 H 365.697 -3.85345 -3.55822 0
M  V30 3808 H 367.171 -2.69575 -4.81698 0
M  V30 3809 H 367.648 -1.096 -4.25305 0
M  V30 3810 H 368.254 -2.54059 -3.41078 0
M  V30 3811 N 366.569 1.04691 -1.17803 0
M  V30 3812 C 367.98 1.59238 -0.974689 0
M  V30 3813 C 368.331 1.90306 0.477292 0
M  V30 3814 O 367.456 1.68846 1.35352 0
M  V30 3815 C 368.051 2.89318 -1.76296 0
M  V30 3816 C 366.61 3.40506 -1.60414 0
M  V30 3817 C 365.757 2.14172 -1.76141 0
M  V30 3818 H 368.708 0.874395 -1.32439 0
M  V30 3819 H 368.729 3.5944 -1.24833 0
M  V30 3820 H 368.241 2.66675 -2.81968 0
M  V30 3821 H 366.342 3.68175 -0.572519 0
M  V30 3822 H 366.455 4.14753 -2.39827 0
M  V30 3823 H 364.819 2.25176 -1.19028 0
M  V30 3824 H 365.602 1.93992 -2.83235 0
M  V30 3825 N 368.047 0.979072 1.23499 0
M  V30 3826 C 369.295 0.645941 1.91499 0
M  V30 3827 C 369.616 -0.822948 1.76784 0
M  V30 3828 O 368.886 -1.58854 1.14639 0
M  V30 3829 H 367.466 0.235919 0.708767 0
M  V30 3830 H 370.128 1.2426 1.50152 0
M  V30 3831 H 369.224 0.896411 2.9895 0
M  V30 3832 N 369.525 -1.3858 0.750561 0
M  V30 3833 C 370.75 -2.04997 0.314812 0
M  V30 3834 C 371.175 -1.56235 -1.04749 0
M  V30 3835 O 370.533 -0.712981 -1.66692 0
M  V30 3836 C 370.581 -3.58961 0.343415 0
M  V30 3837 O 369.685 -4.07025 -0.663628 0
M  V30 3838 H 369.026 -0.649081 0.139962 0
M  V30 3839 H 371.556 -1.77313 1.02084 0
M  V30 3840 H 371.566 -4.07542 0.193233 0
M  V30 3841 H 370.241 -3.93811 1.33738 0
M  V30 3842 H 368.818 -3.6982 -0.478307 0
M  V30 3843 N 371.003 -0.499398 -1.49478 0
M  V30 3844 C 371.95 0.279881 -2.29097 0
M  V30 3845 C 372.92 0.961805 -1.3542 0
M  V30 3846 O 374.105 0.968777 -1.64376 0
M  V30 3847 C 371.245 1.33932 -3.18051 0
M  V30 3848 C 370.358 0.669333 -4.26783 0
M  V30 3849 C 369.493 1.70907 -5.02955 0
M  V30 3850 C 368.532 1.02087 -6.03527 0
M  V30 3851 N 367.669 2.00474 -6.7287 0
M  V30 3852 H 372.509 -0.405317 -2.95231 0
M  V30 3853 H 370.046 -0.211726 -1.45568 0
M  V30 3854 H 372.004 1.96553 -3.67998 0
M  V30 3855 H 370.634 1.9933 -2.53904 0
M  V30 3856 H 369.686 -0.0701234 -3.80335 0
M  V30 3857 H 370.998 0.127503 -4.98637 0
M  V30 3858 H 370.152 2.41037 -5.56764 0
M  V30 3859 H 368.891 2.28476 -4.30871 0
M  V30 3860 H 367.896 0.305338 -5.48951 0
M  V30 3861 H 369.121 0.451708 -6.77596 0
M  V30 3862 H 367.067 2.57007 -6.03559 0
M  V30 3863 H 366.984 1.51353 -7.40694 0
M  V30 3864 H 368.252 2.69897 -7.31284 0
M  V30 3865 N 372.481 1.55866 -0.233164 0
M  V30 3866 C 373.73 1.97779 0.39579 0
M  V30 3867 C 374.043 1.12419 1.60066 0
M  V30 3868 O 375.249 1.44283 2.29988 0
M  V30 3869 C 373.705 3.5188 0.755556 0
M  V30 3870 C 373.313 4.45959 -0.427152 0
M  V30 3871 C 375.057 4.02479 1.34946 0
M  V30 3872 C 372.964 5.91383 -0.0443043 0
M  V30 3873 H 371.894 0.738592 0.15165 0
M  V30 3874 H 374.545 1.80486 -0.331212 0
M  V30 3875 H 372.927 3.64816 1.5403 0
M  V30 3876 H 374.101 4.44776 -1.20462 0
M  V30 3877 H 372.416 4.05765 -0.935068 0
M  V30 3878 H 375.013 5.08637 1.649 0
M  V30 3879 H 375.356 3.49014 2.26925 0
M  V30 3880 H 375.889 3.92813 0.62791 0
M  V30 3881 H 372.628 6.48857 -0.930874 0
M  V30 3882 H 372.148 5.95734 0.697238 0
M  V30 3883 H 373.827 6.45893 0.378334 0
M  V30 3884 N 373.959 -0.0401083 1.57549 0
M  V30 3885 C 375.205 -0.728793 1.89895 0
M  V30 3886 C 375.56 -1.73551 0.830535 0
M  V30 3887 O 374.853 -1.90914 -0.162007 0
M  V30 3888 C 375.047 -1.44902 3.26708 0
M  V30 3889 C 374.876 -0.513568 4.46758 0
M  V30 3890 C 373.646 -0.138698 5.0511 0
M  V30 3891 C 375.844 0.203341 5.13898 0
M  V30 3892 N 373.826 0.799159 6.08676 0
M  V30 3893 C 375.197 0.997246 6.11927 0
M  V30 3894 C 377.252 0.271459 4.97159 0
M  V30 3895 C 375.955 1.85299 6.95023 0
M  V30 3896 C 377.981 1.11429 5.80808 0
M  V30 3897 C 377.343 1.89615 6.78399 0
M  V30 3898 H 373.442 -0.241125 0.743897 0
M  V30 3899 H 376.026 0.0108016 1.94697 0
M  V30 3900 H 374.197 -2.15914 3.22856 0
M  V30 3901 H 375.929 -2.08921 3.46603 0
M  V30 3902 H 372.684 -0.498496 4.70969 0
M  V30 3903 H 373.108 1.26227 6.65128 0
M  V30 3904 H 377.75 -0.318709 4.21597 0
M  V30 3905 H 375.468 2.454 7.69938 0
M  V30 3906 H 379.054 1.17038 5.69906 0
M  V30 3907 H 377.934 2.53779 7.42001 0
M  V30 3908 N 375.437 -1.54477 -0.31217 0
M  V30 3909 C 376.714 -1.63891 -1.06767 0
M  V30 3910 C 377.094 -0.480028 -2.0557 0
M  V30 3911 O 376.442 0.524487 -2.22399 0
M  V30 3912 C 376.652 -3.01402 -1.75948 0
M  V30 3913 C 378 -3.57838 -2.28554 0
M  V30 3914 O 379.024 -3.03782 -1.85998 0
M  V30 3915 O 377.883 -4.52462 -3.06497 0
M  V30 3916 H 374.977 -0.664125 -0.492816 0
M  V30 3917 H 377.523 -1.66823 -0.311149 0
M  V30 3918 H 376.295 -3.77187 -1.04144 0
M  V30 3919 H 375.918 -3.02199 -2.58383 0
M  V30 3920 N 376.915 0.57481 -1.46744 0
M  V30 3921 C 378.326 1.15695 -1.46532 0
M  V30 3922 C 378.677 1.95068 -0.210425 0
M  V30 3923 O 377.802 2.05241 0.685944 0
M  V30 3924 C 378.397 2.1048 -2.65487 0
M  V30 3925 C 376.956 2.64002 -2.68291 0
M  V30 3926 C 376.103 1.40026 -2.39349 0
M  V30 3927 H 379.054 0.362325 -1.54509 0
M  V30 3928 H 379.075 2.94074 -2.41455 0
M  V30 3929 H 378.587 1.52683 -3.56805 0
M  V30 3930 H 376.688 3.25646 -1.81067 0
M  V30 3931 H 376.801 3.06197 -3.68483 0
M  V30 3932 H 375.165 1.70106 -1.89568 0
M  V30 3933 H 375.948 0.840485 -3.32852 0
M  V30 3934 N 378.394 1.34581 0.820102 0
M  V30 3935 C 379.622 1.3018 1.60813 0
M  V30 3936 C 380.037 -0.123551 1.88395 0
M  V30 3937 O 379.394 -1.07148 1.47735 0
M  V30 3938 C 379.445 2.09312 2.94739 0
M  V30 3939 O 379.166 3.46288 2.68358 0
M  V30 3940 C 380.667 2.1234 3.89136 0
M  V30 3941 H 377.887 0.447726 0.499782 0
M  V30 3942 H 380.431 1.77237 1.02017 0
M  V30 3943 H 378.586 1.65889 3.50085 0
M  V30 3944 H 379 3.87227 3.53774 0
M  V30 3945 H 380.474 2.72126 4.80262 0
M  V30 3946 H 380.951 1.11854 4.24718 0
M  V30 3947 H 381.557 2.55864 3.39726 0
M  V30 3948 N 379.872 -1.04064 1.18357 0
M  V30 3949 C 381.283 -1.58719 0.98312 0
M  V30 3950 C 381.634 -1.90556 -0.467193 0
M  V30 3951 O 380.759 -1.69561 -1.34454 0
M  V30 3952 C 381.354 -2.88379 1.77828 0
M  V30 3953 C 379.913 -3.3965 1.62218 0
M  V30 3954 C 379.06 -2.13235 1.77274 0
M  V30 3955 H 382.011 -0.867359 1.32901 0
M  V30 3956 H 382.032 -3.58773 1.26737 0
M  V30 3957 H 381.544 -2.65176 2.83379 0
M  V30 3958 H 379.645 -3.67866 0.592036 0
M  V30 3959 H 379.758 -4.13475 2.42023 0
M  V30 3960 H 378.122 -2.24542 1.20221 0
M  V30 3961 H 378.905 -1.92487 2.8426 0
M  V30 3962 N 381.35 -0.985608 -1.22978 0
M  V30 3963 C 382.575 -0.675254 -1.961 0
M  V30 3964 C 383 0.752154 -1.72407 0
M  V30 3965 O 382.358 1.5131 -0.998751 0
M  V30 3966 C 382.406 -0.977899 -3.47087 0
M  V30 3967 O 381.51 -0.072685 -4.12336 0
M  V30 3968 H 380.851 -0.253443 -0.613728 0
M  V30 3969 H 383.381 -1.32061 -1.56272 0
M  V30 3970 H 383.391 -0.916739 -3.97567 0
M  V30 3971 H 382.066 -2.01807 -3.63657 0
M  V30 3972 H 380.643 -0.188703 -3.72422 0
M  V30 3973 N 382.828 1.3818 -0.7579 0
M  V30 3974 C 383.778 2.27741 -0.108674 0
M  V30 3975 C 384.762 1.45415 0.688709 0
M  V30 3976 O 385.954 1.68108 0.553956 0
M  V30 3977 C 383.083 3.34313 0.780367 0
M  V30 3978 C 382.169 4.24093 -0.0240977 0
M  V30 3979 N 382.56 4.9451 -1.06271 0
M  V30 3980 C 380.858 4.45542 0.202049 0
M  V30 3981 C 381.559 5.60675 -1.54979 0
M  V30 3982 N 380.535 5.36684 -0.864348 0
M  V30 3983 H 384.337 2.79649 -0.904071 0
M  V30 3984 H 381.851 1.51133 -0.594346 0
M  V30 3985 H 383.848 3.97368 1.26114 0
M  V30 3986 H 382.508 2.83962 1.57467 0
M  V30 3987 H 383.519 4.97345 -1.44459 0
M  V30 3988 H 380.196 4.06091 0.96935 0
M  V30 3989 H 381.586 6.26992 -2.41517 0
M  V30 3990 N 384.306 0.507319 1.49211 0
M  V30 3991 C 385.534 -0.0315749 2.06876 0
M  V30 3992 C 385.949 -1.30241 1.36685 0
M  V30 3993 O 385.306 -1.76937 0.447152 0
M  V30 3994 C 385.357 -0.282627 3.60393 0
M  V30 3995 O 385.078 0.937835 4.27944 0
M  V30 3996 C 386.579 -0.864453 4.3479 0
M  V30 3997 H 383.799 0.0233048 0.670595 0
M  V30 3998 H 386.343 0.706484 1.91909 0
M  V30 3999 H 384.498 -0.97068 3.75042 0
M  V30 4000 H 384.912 0.704567 5.19746 0
M  V30 4001 H 386.386 -0.989664 5.43056 0
M  V30 4002 H 386.863 -1.86382 3.97692 0
M  V30 4003 H 387.469 -0.213672 4.24763 0
M  V30 4004 N 385.784 -1.5574 0.241426 0
M  V30 4005 C 387.195 -1.84842 -0.262755 0
M  V30 4006 C 387.546 -1.16317 -1.58003 0
M  V30 4007 O 386.671 -0.439653 -2.11887 0
M  V30 4008 C 387.266 -3.35332 -0.483523 0
M  V30 4009 C 385.825 -3.6468 -0.931977 0
M  V30 4010 C 384.972 -2.77299 -0.0061151 0
M  V30 4011 H 387.923 -1.51761 0.464129 0
M  V30 4012 H 387.944 -3.56615 -1.32688 0
M  V30 4013 H 387.456 -3.85178 0.47537 0
M  V30 4014 H 385.557 -3.20307 -1.90353 0
M  V30 4015 H 385.67 -4.72498 -0.792628 0
M  V30 4016 H 384.034 -2.49408 -0.516503 0
M  V30 4017 H 384.817 -3.2995 0.948052 0
M  V30 4018 N 387.262 0.0317525 -1.57568 0
M  V30 4019 C 388.225 1.01783 -2.0536 0
M  V30 4020 C 389.225 1.29203 -0.957253 0
M  V30 4021 O 390.415 1.24251 -1.22095 0
M  V30 4022 C 387.547 2.35137 -2.46827 0
M  V30 4023 H 388.74 0.605062 -2.93733 0
M  V30 4024 H 386.293 0.278514 -1.53799 0
M  V30 4025 H 387.028 2.81168 -1.61602 0
M  V30 4026 H 386.813 2.16566 -3.26866 0
M  V30 4027 H 388.303 3.05938 -2.84239 0
M  V30 4028 N 388.74 1.54641 0.303973 0
M  V30 4029 C 389.988 1.73437 1.0375 0
M  V30 4030 C 390.309 0.521449 1.87899 0
M  V30 4031 O 389.579 -0.46432 1.90318 0
M  V30 4032 H 388.159 0.639518 0.386039 0
M  V30 4033 H 390.821 1.91988 0.335675 0
M  V30 4034 H 389.917 2.62235 1.69231 0
M  V30 4035 N 390.218 -0.567019 1.47046 0
M  V30 4036 C 391.181 -1.65696 1.58359 0
M  V30 4037 C 392.181 -1.54097 0.459441 0
M  V30 4038 O 393.371 -1.58432 0.724225 0
M  V30 4039 C 390.503 -3.05197 1.51879 0
M  V30 4040 H 391.696 -1.57019 2.5551 0
M  V30 4041 H 389.249 -0.786148 1.3509 0
M  V30 4042 H 389.984 -3.19417 0.560673 0
M  V30 4043 H 389.769 -3.15025 2.33455 0
M  V30 4044 H 391.259 -3.84511 1.62913 0
M  V30 4045 N 391.696 -1.35014 -0.812953 0
M  V30 4046 C 392.659 -1.27292 -1.90602 0
M  V30 4047 C 393.659 -0.185817 -1.59723 0
M  V30 4048 O 394.849 -0.439102 -1.68575 0
M  V30 4049 C 391.981 -0.967676 -3.26877 0
M  V30 4050 H 393.174 -2.24479 -1.9887 0
M  V30 4051 H 390.727 -1.19446 -1.00808 0
M  V30 4052 H 391.462 0.0005954 -3.243 0
M  V30 4053 H 391.247 -1.75412 -3.50675 0
M  V30 4054 H 392.737 -0.939085 -4.06904 0
M  V30 4055 N 393.175 1.03435 -1.18907 0
M  V30 4056 C 394.403 1.80381 -1.01342 0
M  V30 4057 C 394.818 1.83649 0.438005 0
M  V30 4058 O 394.175 1.27655 1.30424 0
M  V30 4059 C 394.226 3.25689 -1.56873 0
M  V30 4060 O 393.947 3.22673 -2.96334 0
M  V30 4061 C 395.448 4.19255 -1.44014 0
M  V30 4062 H 392.668 0.56784 -0.35749 0
M  V30 4063 H 395.212 1.30317 -1.576 0
M  V30 4064 H 393.367 3.72962 -1.04777 0
M  V30 4065 H 393.781 4.13748 -3.22355 0
M  V30 4066 H 395.255 5.19123 -1.87657 0
M  V30 4067 H 395.732 4.37467 -0.389815 0
M  V30 4068 H 396.338 3.77851 -1.95214 0
M  V30 4069 N 394.653 0.992116 1.22453 0
M  V30 4070 C 396.064 0.702776 1.72968 0
M  V30 4071 C 396.415 -0.780399 1.80012 0
M  V30 4072 O 395.54 -1.61007 1.44589 0
M  V30 4073 C 396.135 1.26903 3.14135 0
M  V30 4074 C 394.694 1.02909 3.62059 0
M  V30 4075 C 393.841 1.38969 2.39964 0
M  V30 4076 H 396.792 1.16457 1.07812 0
M  V30 4077 H 396.813 0.647223 3.74955 0
M  V30 4078 H 396.325 2.34851 3.08977 0
M  V30 4079 H 394.426 -0.0337979 3.72585 0
M  V30 4080 H 394.539 1.69191 4.48231 0
M  V30 4081 H 392.903 0.808279 2.41535 0
M  V30 4082 H 393.686 2.4792 2.37467 0
M  V30 4083 N 396.131 -1.37776 0.765217 0
M  V30 4084 C 397.379 -1.99454 0.325943 0
M  V30 4085 C 397.7 -1.61049 -1.09947 0
M  V30 4086 O 396.97 -0.872821 -1.75381 0
M  V30 4087 H 395.55 -0.737697 0.117525 0
M  V30 4088 H 398.212 -1.68359 0.981895 0
M  V30 4089 H 397.308 -3.09547 0.398353 0
M  V30 4090 N 397.609 -0.515225 -1.4894 0
M  V30 4091 C 399.025 -0.172099 -1.58669 0
M  V30 4092 C 399.225 1.32405 -1.51892 0
M  V30 4093 O 398.281 2.10116 -1.40027 0
M  V30 4094 C 399.594 -0.761533 -2.90897 0
M  V30 4095 C 401.142 -0.728926 -3.04394 0
M  V30 4096 C 401.617 -1.29667 -4.39261 0
M  V30 4097 N 403.108 -1.25799 -4.4579 0
M  V30 4098 C 403.843 -1.66733 -5.48623 0
M  V30 4099 N 403.339 -2.15327 -6.58488 0
M  V30 4100 N 405.132 -1.58061 -5.39419 0
M  V30 4101 H 397.283 -1.48778 -1.51588 0
M  V30 4102 H 399.546 -0.617968 -0.718901 0
M  V30 4103 H 399.252 -1.81136 -3.01468 0
M  V30 4104 H 399.126 -0.230106 -3.76497 0
M  V30 4105 H 401.513 0.312098 -2.93445 0
M  V30 4106 H 401.594 -1.29766 -2.20442 0
M  V30 4107 H 401.238 -2.33655 -4.50963 0
M  V30 4108 H 401.168 -0.703752 -5.21876 0
M  V30 4109 H 403.659 -0.902102 -3.66975 0
M  V30 4110 H 403.972 -2.44594 -7.33071 0
M  V30 4111 H 402.317 -2.19311 -6.59491 0
M  V30 4112 H 405.508 -1.19906 -4.52482 0
M  V30 4113 H 405.681 -1.90284 -6.19432 0
M  V30 4114 N 399.087 1.5561 -0.249682 0
M  V30 4115 C 400.335 1.98618 0.373548 0
M  V30 4116 C 400.656 1.13919 1.58264 0
M  V30 4117 O 399.926 0.222637 1.94631 0
M  V30 4118 H 398.506 0.733571 0.141006 0
M  V30 4119 H 401.168 1.91748 -0.349117 0
M  V30 4120 H 400.264 3.04584 0.680796 0
M  V30 4121 N 400.565 -0.0233959 1.57583 0
M  V30 4122 C 401.842 -0.748794 1.807 0
M  V30 4123 C 402.222 -1.9327 0.849106 0
M  V30 4124 O 401.57 -2.28247 -0.107468 0
M  V30 4125 C 401.78 -1.17651 3.28571 0
M  V30 4126 C 403.128 -1.59008 3.93702 0
M  V30 4127 O 404.152 -1.27094 3.32755 0
M  V30 4128 O 403.011 -2.18264 5.01022 0
M  V30 4129 H 400.105 -0.362578 0.743281 0
M  V30 4130 H 402.651 0.000261958 1.697 0
M  V30 4131 H 401.423 -0.331603 3.89892 0
M  V30 4132 H 401.046 -1.98541 3.44481 0
M  V30 4133 N 402.043 -1.548 -0.295768 0
M  V30 4134 C 403.271 -1.78327 -1.04914 0
M  V30 4135 C 403.686 -0.545316 -1.80753 0
M  V30 4136 O 403.043 0.485013 -1.75937 0
M  V30 4137 C 403.094 -2.99418 -2.02561 0
M  V30 4138 O 402.815 -4.18431 -1.29798 0
M  V30 4139 C 404.316 -3.35375 -2.89895 0
M  V30 4140 H 401.536 -0.594618 -0.310918 0
M  V30 4141 H 404.08 -2.01763 -0.333454 0
M  V30 4142 H 402.235 -2.78175 -2.69624 0
M  V30 4143 H 402.649 -4.86736 -1.95419 0
M  V30 4144 H 404.123 -4.23332 -3.54251 0
M  V30 4145 H 404.6 -2.53761 -3.58472 0
M  V30 4146 H 405.206 -3.58796 -2.28355 0
M  V30 4147 N 403.521 0.559213 -1.47345 0
M  V30 4148 C 404.932 1.14134 -1.47751 0
M  V30 4149 C 405.283 1.94834 -0.231103 0
M  V30 4150 O 404.408 2.05957 0.664137 0
M  V30 4151 C 405.003 2.07653 -2.67705 0
M  V30 4152 C 403.562 2.61141 -2.71076 0
M  V30 4153 C 402.709 1.3748 -2.40821 0
M  V30 4154 H 405.66 0.345917 -1.54884 0
M  V30 4155 H 405.681 2.91497 -2.44561 0
M  V30 4156 H 405.193 1.4889 -3.58404 0
M  V30 4157 H 403.294 3.23707 -1.84511 0
M  V30 4158 H 403.407 3.02272 -3.7171 0
M  V30 4159 H 401.771 1.68086 -1.91362 0
M  V30 4160 H 402.554 0.805135 -3.33725 0
M  V30 4161 N 404.999 1.35443 0.805782 0
M  V30 4162 C 406.247 1.28507 1.55982 0
M  V30 4163 C 406.568 -0.140046 1.94496 0
M  V30 4164 O 405.838 -1.07666 1.63661 0
M  V30 4165 H 404.418 0.472676 0.578434 0
M  V30 4166 H 407.08 1.69555 0.961098 0
M  V30 4167 H 406.176 1.90148 2.47488 0
M  V30 4168 N 406.477 -1.02803 1.19454 0
M  V30 4169 C 407.427 -2.0945 0.900827 0
M  V30 4170 C 408.411 -1.60335 -0.134715 0
M  V30 4171 O 409.603 -1.76857 0.0710924 0
M  V30 4172 C 406.732 -3.4044 0.442229 0
M  V30 4173 C 405.818 -3.96286 1.51056 0
M  V30 4174 N 406.209 -4.25785 2.73021 0
M  V30 4175 C 404.507 -4.24307 1.37404 0
M  V30 4176 C 405.208 -4.70654 3.41848 0
M  V30 4177 N 404.184 -4.72238 2.69243 0
M  V30 4178 H 407.986 -2.3015 1.82779 0
M  V30 4179 H 405.5 -1.20672 1.08683 0
M  V30 4180 H 407.497 -4.16354 0.21326 0
M  V30 4181 H 406.157 -3.21159 -0.478238 0
M  V30 4182 H 407.168 -4.15041 3.09776 0
M  V30 4183 H 403.845 -4.14285 0.517103 0
M  V30 4184 H 405.235 -5.02392 4.46152 0
M  V30 4185 N 407.956 -0.998596 -1.21925 0
M  V30 4186 C 408.919 -0.558679 -2.22287 0
M  V30 4187 C 409.919 0.361525 -1.56683 0
M  V30 4188 O 411.109 0.152695 -1.73529 0
M  V30 4189 C 408.241 0.18661 -3.40389 0
M  V30 4190 H 409.434 -1.4463 -2.62721 0
M  V30 4191 H 406.987 -0.786413 -1.35075 0
M  V30 4192 H 407.722 1.08996 -3.05435 0
M  V30 4193 H 407.507 -0.474188 -3.89222 0
M  V30 4194 H 408.997 0.482367 -4.14805 0
M  V30 4195 N 409.434 1.37368 -0.772513 0
M  V30 4196 C 410.662 2.03942 -0.348588 0
M  V30 4197 C 411.077 1.58264 1.02947 0
M  V30 4198 O 410.434 0.764246 1.65727 0
M  V30 4199 C 410.485 3.5946 -0.38351 0
M  V30 4200 O 410.206 4.03468 -1.70721 0
M  V30 4201 C 411.707 4.4327 0.0519152 0
M  V30 4202 H 408.927 0.654931 -0.145966 0
M  V30 4203 H 411.471 1.75686 -1.04665 0
M  V30 4204 H 409.626 3.86486 0.265978 0
M  V30 4205 H 410.04 4.97991 -1.64636 0
M  V30 4206 H 411.514 5.51995 -0.0236733 0
M  V30 4207 H 411.991 4.2514 1.10238 0
M  V30 4208 H 412.597 4.21471 -0.569415 0
M  V30 4209 N 410.912 0.523116 1.48665 0
M  V30 4210 C 412.323 0.0808997 1.86525 0
M  V30 4211 C 412.674 -1.33975 1.43336 0
M  V30 4212 O 411.799 -2.00221 0.821009 0
M  V30 4213 C 412.394 0.140037 3.3851 0
M  V30 4214 C 410.953 -0.246948 3.75589 0
M  V30 4215 C 410.1 0.502845 2.72703 0
M  V30 4216 H 413.051 0.734736 1.40667 0
M  V30 4217 H 413.072 -0.649945 3.74908 0
M  V30 4218 H 412.584 1.17412 3.69914 0
M  V30 4219 H 410.685 -1.28343 3.49798 0
M  V30 4220 H 410.798 0.0878859 4.79019 0
M  V30 4221 H 409.162 -0.0500581 2.54651 0
M  V30 4222 H 409.945 1.53743 3.0695 0
M  V30 4223 N 412.39 -1.55475 0.257931 0
M  V30 4224 C 413.638 -1.98813 -0.363009 0
M  V30 4225 C 413.959 -1.14757 -1.57657 0
M  V30 4226 O 413.229 -0.232956 -1.9451 0
M  V30 4227 H 411.809 -0.734308 -0.137113 0
M  V30 4228 H 414.471 -1.9156 0.359281 0
M  V30 4229 H 413.567 -3.04941 -0.664634 0
M  V30 4230 N 413.868 0.0150385 -1.57593 0
M  V30 4231 C 414.818 1.01943 -2.0394 0
M  V30 4232 C 415.802 1.31209 -0.931286 0
M  V30 4233 O 416.994 1.30559 -1.19513 0
M  V30 4234 C 414.123 2.31621 -2.53391 0
M  V30 4235 C 413.209 2.05384 -3.7105 0
M  V30 4236 N 413.6 1.49253 -4.83278 0
M  V30 4237 C 411.898 2.35601 -3.78693 0
M  V30 4238 C 412.599 1.39143 -5.64813 0
M  V30 4239 N 411.575 1.87187 -5.10355 0
M  V30 4240 H 415.377 0.57969 -2.88126 0
M  V30 4241 H 412.891 0.221056 -1.60888 0
M  V30 4242 H 414.888 3.044 -2.84862 0
M  V30 4243 H 413.548 2.76261 -1.70616 0
M  V30 4244 H 414.559 1.17334 -5.04433 0
M  V30 4245 H 411.236 2.8322 -3.06746 0
M  V30 4246 H 412.626 0.961153 -6.6499 0
M  V30 4247 N 415.346 1.54954 0.287554 0
M  V30 4248 C 416.594 1.74528 1.01904 0
M  V30 4249 C 416.915 0.541349 1.87335 0
M  V30 4250 O 416.185 -0.444108 1.908 0
M  V30 4251 H 414.765 0.643576 0.379235 0
M  V30 4252 H 417.427 1.92333 0.315294 0
M  V30 4253 H 416.523 2.64015 1.6644 0
M  V30 4254 N 416.824 -0.551391 1.4764 0
M  V30 4255 C 418.072 -1.30572 1.54258 0
M  V30 4256 C 418.393 -1.93877 0.208963 0
M  V30 4257 O 417.663 -1.80234 -0.767619 0
M  V30 4258 H 416.243 -0.484894 0.568231 0
M  V30 4259 H 418.905 -0.643402 1.83974 0
M  V30 4260 H 418.001 -2.09621 2.31226 0
M  V30 4261 N 418.302 -1.35869 -0.798587 0
M  V30 4262 C 419.265 -1.29307 -1.89242 0
M  V30 4263 C 420.265 -0.202747 -1.59517 0
M  V30 4264 O 421.455 -0.456957 -1.681 0
M  V30 4265 C 418.587 -1.00229 -3.25833 0
M  V30 4266 H 419.78 -2.26576 -1.96478 0
M  V30 4267 H 417.333 -1.20509 -0.995358 0
M  V30 4268 H 418.068 -0.033801 -3.24282 0
M  V30 4269 H 417.853 -1.79121 -3.48795 0
M  V30 4270 H 419.343 -0.98219 -4.05885 0
M  V30 4271 N 419.78 1.02168 -1.19998 0
M  V30 4272 C 421.008 1.79296 -1.03249 0
M  V30 4273 C 421.423 1.84103 0.418502 0
M  V30 4274 O 420.78 1.29031 1.29063 0
M  V30 4275 C 420.831 3.24007 -1.60319 0
M  V30 4276 O 420.552 3.19512 -2.99739 0
M  V30 4277 C 422.053 4.17704 -1.48453 0
M  V30 4278 H 419.273 0.564016 -0.363493 0
M  V30 4279 H 421.817 1.28639 -1.58973 0
M  V30 4280 H 419.972 3.7183 -1.08727 0
M  V30 4281 H 420.386 4.10306 -3.26725 0
M  V30 4282 H 421.86 5.17104 -1.93153 0
M  V30 4283 H 422.337 4.37029 -0.436193 0
M  V30 4284 H 422.943 3.7576 -1.99211 0
M  V30 4285 N 421.258 1.00505 1.21394 0
M  V30 4286 C 422.483 0.706367 1.95001 0
M  V30 4287 C 422.908 -0.72463 1.73582 0
M  V30 4288 O 422.266 -1.49702 1.0227 0
M  V30 4289 C 422.314 1.03299 3.45487 0
M  V30 4290 O 421.418 0.138275 4.12168 0
M  V30 4291 H 420.759 0.263175 0.609619 0
M  V30 4292 H 423.289 1.34531 1.54151 0
M  V30 4293 H 423.299 0.979872 3.96059 0
M  V30 4294 H 421.974 2.07567 3.60401 0
M  V30 4295 H 420.551 0.247928 3.72075 0
M  V30 4296 N 422.737 -1.36956 0.779787 0
M  V30 4297 C 423.962 -2.04283 0.358224 0
M  V30 4298 C 424.387 -1.58422 -1.01411 0
M  V30 4299 O 423.745 -0.748179 -1.65142 0
M  V30 4300 C 423.793 -3.58152 0.419479 0
M  V30 4301 O 422.897 -4.08342 -0.577142 0
M  V30 4302 H 422.238 -0.645967 0.153698 0
M  V30 4303 H 424.768 -1.75108 1.05822 0
M  V30 4304 H 424.778 -4.07041 0.279636 0
M  V30 4305 H 423.453 -3.90886 1.42061 0
M  V30 4306 H 422.03 -3.70751 -0.399755 0
M  V30 4307 N 424.215 -0.530993 -1.48385 0
M  V30 4308 C 425.178 0.220497 -2.28137 0
M  V30 4309 C 426.178 0.866851 -1.35434 0
M  V30 4310 O 427.368 0.726746 -1.58316 0
M  V30 4311 C 424.5 1.31921 -3.1434 0
M  V30 4312 H 425.693 -0.479714 -2.96038 0
M  V30 4313 H 423.246 -0.286968 -1.53643 0
M  V30 4314 H 423.981 2.05264 -2.51072 0
M  V30 4315 H 423.766 0.86085 -3.82533 0
M  V30 4316 H 425.256 1.84776 -3.74497 0
M  V30 4317 N 425.693 1.55336 -0.266172 0
M  V30 4318 C 427.109 1.59356 0.0882065 0
M  V30 4319 C 427.309 1.2834 1.55342 0
M  V30 4320 O 426.365 1.03996 2.30089 0
M  V30 4321 C 427.678 2.99409 -0.278364 0
M  V30 4322 C 429.226 3.12196 -0.224243 0
M  V30 4323 C 429.701 4.545 -0.565123 0
M  V30 4324 N 431.192 4.60313 -0.51634 0
M  V30 4325 C 431.927 5.68434 -0.753013 0
M  V30 4326 N 431.423 6.84738 -1.05383 0
M  V30 4327 N 433.216 5.57942 -0.682414 0
M  V30 4328 H 425.367 1.73764 -1.22147 0
M  V30 4329 H 427.63 0.809822 -0.492841 0
M  V30 4330 H 427.336 3.2691 -1.29703 0
M  V30 4331 H 427.21 3.75228 0.385186 0
M  V30 4332 H 429.597 2.84464 0.78512 0
M  V30 4333 H 429.678 2.38609 -0.921922 0
M  V30 4334 H 429.322 4.82956 -1.57213 0
M  V30 4335 H 429.252 5.26374 0.154248 0
M  V30 4336 H 431.743 3.7676 -0.29335 0
M  V30 4337 H 432.056 7.63088 -1.22133 0
M  V30 4338 H 430.401 6.86375 -1.09151 0
M  V30 4339 H 433.592 4.65958 -0.44731 0
M  V30 4340 H 433.765 6.4213 -0.870248 0
M  V30 4341 N 427.171 -0.0066808 1.57599 0
M  V30 4342 C 428.118 -1.00024 2.08 0
M  V30 4343 C 429.088 -1.34549 0.973943 0
M  V30 4344 O 430.273 -1.44502 1.24595 0
M  V30 4345 C 427.413 -2.2891 2.58252 0
M  V30 4346 C 426.526 -2.00346 3.82734 0
M  V30 4347 C 425.661 -3.23265 4.21513 0
M  V30 4348 C 424.7 -2.90357 5.3885 0
M  V30 4349 N 423.837 -4.05793 5.72954 0
M  V30 4350 H 428.677 -0.563499 2.92624 0
M  V30 4351 H 426.214 -0.266592 1.44664 0
M  V30 4352 H 428.172 -3.04247 2.85464 0
M  V30 4353 H 426.802 -2.70265 1.76512 0
M  V30 4354 H 425.854 -1.15406 3.62471 0
M  V30 4355 H 427.166 -1.72086 4.68175 0
M  V30 4356 H 426.32 -4.06953 4.49971 0
M  V30 4357 H 425.059 -3.54657 3.34768 0
M  V30 4358 H 424.064 -2.05075 5.10122 0
M  V30 4359 H 425.289 -2.60219 6.27266 0
M  V30 4360 H 423.235 -4.37094 4.89167 0
M  V30 4361 H 423.152 -3.81034 6.52954 0
M  V30 4362 H 424.42 -4.90289 6.06001 0
M  V30 4363 N 428.649 -1.55105 -0.279332 0
M  V30 4364 C 429.597 -1.88333 -1.36505 0
M  V30 4365 C 430.591 -0.759043 -1.51443 0
M  V30 4366 O 431.797 -0.943312 -1.53302 0
M  V30 4367 H 428.172 -0.59766 -0.456406 0
M  V30 4368 H 430.143 -2.79041 -1.05728 0
M  V30 4369 C 428.892 -2.16628 -2.7197 0
M  V30 4370 H 428.215 -3.02624 -2.61264 0
M  V30 4371 H 429.655 -2.43803 -3.46895 0
M  V30 4372 C 428.114 -0.971807 -3.22579 0
M  V30 4373 O 428.644 -0.203228 -4.01186 0
M  V30 4374 N 426.85 -0.771238 -2.80179 0
M  V30 4375 H 426.397 -1.39792 -2.1637 0
M  V30 4376 H 426.355 0.0263667 -3.14389 0
M  V30 4377 N 430.127 0.543554 -1.4793 0
M  V30 4378 C 431.543 0.870806 -1.3375 0
M  V30 4379 C 431.743 1.9864 -0.338261 0
M  V30 4380 O 430.799 2.51305 0.245371 0
M  V30 4381 C 432.112 1.25114 -2.73435 0
M  V30 4382 C 433.66 1.3618 -2.81823 0
M  V30 4383 C 434.135 1.77563 -4.22179 0
M  V30 4384 N 435.626 1.8469 -4.24787 0
M  V30 4385 C 436.361 2.18067 -5.30315 0
M  V30 4386 N 435.857 2.49963 -6.46135 0
M  V30 4387 N 437.65 2.18958 -5.17701 0
M  V30 4388 H 429.801 -0.19275 -2.11524 0
M  V30 4389 H 432.064 -0.0235777 -0.947707 0
M  V30 4390 H 431.77 0.50514 -3.48053 0
M  V30 4391 H 431.644 2.20431 -3.06088 0
M  V30 4392 H 434.031 2.09859 -2.07468 0
M  V30 4393 H 434.112 0.390169 -2.52807 0
M  V30 4394 H 433.756 1.04449 -4.97044 0
M  V30 4395 H 433.686 2.75753 -4.48629 0
M  V30 4396 H 436.177 1.62372 -3.41239 0
M  V30 4397 H 436.49 2.74497 -7.22406 0
M  V30 4398 H 434.835 2.47513 -6.49432 0
M  V30 4399 H 438.026 1.93488 -4.2624 0
M  V30 4400 H 438.199 2.44639 -6.00047 0
M  V30 4401 N 431.605 1.3629 0.791371 0
M  V30 4402 C 432.851 1.31613 1.5508 0
M  V30 4403 C 433.206 -0.104372 1.92117 0
M  V30 4404 O 432.499 -1.05845 1.5971 0
M  V30 4405 C 432.693 2.17068 2.8393 0
M  V30 4406 C 432.522 3.67285 2.59484 0
M  V30 4407 C 431.292 4.36469 2.54604 0
M  V30 4408 C 433.49 4.60595 2.28816 0
M  V30 4409 N 431.472 5.7234 2.22036 0
M  V30 4410 C 432.843 5.847 2.06218 0
M  V30 4411 C 434.898 4.4918 2.14806 0
M  V30 4412 C 433.601 6.98671 1.71028 0
M  V30 4413 C 435.627 5.63017 1.81014 0
M  V30 4414 C 434.989 6.86159 1.59263 0
M  V30 4415 H 431.088 0.536878 0.568582 0
M  V30 4416 H 433.672 1.71323 0.925007 0
M  V30 4417 H 431.843 1.79605 3.44378 0
M  V30 4418 H 433.575 2.03795 3.49642 0
M  V30 4419 H 430.33 3.89249 2.69782 0
M  V30 4420 H 430.754 6.44093 2.08503 0
M  V30 4421 H 435.396 3.54564 2.30313 0
M  V30 4422 H 433.114 7.9324 1.54259 0
M  V30 4423 H 436.7 5.56146 1.70861 0
M  V30 4424 H 435.58 7.72753 1.335 0
M  V30 4425 N 433.083 -1.0153 1.20538 0
M  V30 4426 C 434.36 -1.72327 0.925343 0
M  V30 4427 C 434.74 -2.03383 -0.565547 0
M  V30 4428 O 434.088 -1.69934 -1.52757 0
M  V30 4429 C 434.298 -2.9902 1.79967 0
M  V30 4430 C 435.646 -3.72258 2.04228 0
M  V30 4431 O 436.67 -3.08979 1.77231 0
M  V30 4432 O 435.529 -4.86053 2.4983 0
M  V30 4433 H 432.623 -0.751099 0.346092 0
M  V30 4434 H 435.169 -1.07366 1.31417 0
M  V30 4435 H 433.941 -2.72402 2.80915 0
M  V30 4436 H 433.564 -3.71721 1.41099 0
M  V30 4437 N 434.561 -1.01147 -1.20859 0
M  V30 4438 C 435.471 -0.58686 -2.27141 0
M  V30 4439 C 436.487 0.373198 -1.69951 0
M  V30 4440 O 437.663 0.235423 -2.00019 0
M  V30 4441 C 434.728 0.0733602 -3.46622 0
M  V30 4442 C 433.789 -0.931995 -4.19061 0
M  V30 4443 C 433.022 -0.303186 -5.32838 0
M  V30 4444 O 433.245 0.898395 -5.63281 0
M  V30 4445 O 432.179 -1.01735 -5.9324 0
M  V30 4446 H 436.005 -1.47155 -2.65667 0
M  V30 4447 H 433.59 -0.780689 -1.2738 0
M  V30 4448 H 435.472 0.442333 -4.19072 0
M  V30 4449 H 434.147 0.932329 -3.09983 0
M  V30 4450 H 433.054 -1.35224 -3.48805 0
M  V30 4451 H 434.387 -1.76076 -4.59628 0
M  V30 4452 N 436.039 1.36541 -0.78704 0
M  V30 4453 C 437.267 2.03561 -0.370199 0
M  V30 4454 C 437.682 1.59347 1.01263 0
M  V30 4455 O 437.039 0.781781 1.64907 0
M  V30 4456 C 437.09 3.59033 -0.421614 0
M  V30 4457 O 436.811 4.01634 -1.7499 0
M  V30 4458 C 438.312 4.433 0.00489763 0
M  V30 4459 H 435.532 0.653346 -0.152904 0
M  V30 4460 H 438.076 1.74566 -1.06522 0
M  V30 4461 H 436.231 3.86746 0.224971 0
M  V30 4462 H 436.645 4.96217 -1.69909 0
M  V30 4463 H 438.119 5.51939 -0.0822184 0
M  V30 4464 H 438.596 4.26285 1.05723 0
M  V30 4465 H 439.202 4.20843 -0.614085 0
M  V30 4466 N 437.518 0.538854 1.48102 0
M  V30 4467 C 438.929 0.100679 1.86428 0
M  V30 4468 C 439.28 -1.32447 1.44749 0
M  V30 4469 O 438.405 -1.99339 0.842199 0
M  V30 4470 C 439 0.175933 3.38343 0
M  V30 4471 C 437.559 -0.207098 3.7583 0
M  V30 4472 C 436.706 0.531741 2.72154 0
M  V30 4473 H 439.657 0.749614 1.3988 0
M  V30 4474 H 439.678 -0.610144 3.75576 0
M  V30 4475 H 439.19 1.21328 3.68648 0
M  V30 4476 H 437.291 -1.24626 3.5114 0
M  V30 4477 H 437.404 0.138687 4.78899 0
M  V30 4478 H 435.768 -0.0230462 2.5469 0
M  V30 4479 H 436.551 1.56989 3.05302 0
M  V30 4480 N 438.996 -1.55193 0.274407 0
M  V30 4481 C 439.943 -2.225 -0.613374 0
M  V30 4482 C 440.913 -1.19823 -1.15029 0
M  V30 4483 O 442.098 -1.48362 -1.19973 0
M  V30 4484 C 439.238 -2.94927 -1.79199 0
M  V30 4485 C 438.351 -4.12322 -1.28899 0
M  V30 4486 C 437.486 -4.72394 -2.42934 0
M  V30 4487 C 436.525 -5.81984 -1.89634 0
M  V30 4488 N 435.662 -6.36123 -2.9714 0
M  V30 4489 H 440.502 -2.97982 -0.032756 0
M  V30 4490 H 438.039 -1.47099 -0.00440146 0
M  V30 4491 H 439.997 -3.35134 -2.48478 0
M  V30 4492 H 438.627 -2.2187 -2.34465 0
M  V30 4493 H 437.679 -3.7724 -0.489327 0
M  V30 4494 H 438.991 -4.91355 -0.858587 0
M  V30 4495 H 438.145 -5.15317 -3.20208 0
M  V30 4496 H 436.884 -3.92636 -2.8929 0
M  V30 4497 H 435.889 -5.38511 -1.1084 0
M  V30 4498 H 437.114 -6.6361 -1.44215 0
M  V30 4499 H 435.06 -5.59259 -3.42878 0
M  V30 4500 H 434.977 -7.10427 -2.58515 0
M  V30 4501 H 436.245 -6.83704 -3.74391 0
M  V30 4502 N 440.474 -0.00167713 -1.576 0
M  V30 4503 C 441.702 0.693759 -1.94922 0
M  V30 4504 C 442.117 1.67215 -0.876626 0
M  V30 4505 O 441.474 1.81929 0.144279 0
M  V30 4506 C 441.525 1.42416 -3.32265 0
M  V30 4507 O 441.246 0.485014 -4.35407 0
M  V30 4508 C 442.747 2.21395 -3.84056 0
M  V30 4509 H 439.967 0.193118 -0.642609 0
M  V30 4510 H 442.511 -0.0532952 -2.04431 0
M  V30 4511 H 440.666 2.12284 -3.24059 0
M  V30 4512 H 441.08 1.00053 -5.14868 0
M  V30 4513 H 442.554 2.67996 -4.82578 0
M  V30 4514 H 443.031 3.04142 -3.16851 0
M  V30 4515 H 443.637 1.56542 -3.95443 0
M  V30 4516 N 441.952 1.55251 0.271103 0
M  V30 4517 C 442.862 1.9136 1.35714 0
M  V30 4518 C 443.878 0.811075 1.5394 0
M  V30 4519 O 445.054 1.11031 1.6803 0
M  V30 4520 C 442.119 2.1798 2.69603 0
M  V30 4521 C 441.18 3.4153 2.60107 0
M  V30 4522 C 440.413 3.66871 3.8761 0
M  V30 4523 O 440.636 2.94689 4.8838 0
M  V30 4524 O 439.57 4.60405 3.87699 0
M  V30 4525 H 443.396 2.83815 1.08088 0
M  V30 4526 H 440.981 1.41821 0.469792 0
M  V30 4527 H 442.863 2.36518 3.48765 0
M  V30 4528 H 441.538 1.28708 2.97012 0
M  V30 4529 H 440.445 3.28325 1.79314 0
M  V30 4530 H 441.778 4.31027 2.37647 0
M  V30 4531 N 443.43 -0.535701 1.48216 0
M  V30 4532 C 444.846 -0.863701 1.3421 0
M  V30 4533 C 445.046 -1.98458 0.34879 0
M  V30 4534 O 444.102 -2.51432 -0.23204 0
M  V30 4535 C 445.415 -1.23662 2.74095 0
M  V30 4536 C 446.963 -1.34683 2.82541 0
M  V30 4537 C 447.438 -1.75322 4.23115 0
M  V30 4538 N 448.929 -1.82434 4.2576 0
M  V30 4539 C 449.664 -2.15252 5.31464 0
M  V30 4540 N 449.16 -2.46533 6.47452 0
M  V30 4541 N 450.953 -2.16209 5.18855 0
M  V30 4542 H 443.104 0.203965 2.11418 0
M  V30 4543 H 445.367 0.0286033 0.947568 0
M  V30 4544 H 445.073 -0.486674 3.48316 0
M  V30 4545 H 444.947 -2.18805 3.07253 0
M  V30 4546 H 447.334 -2.08756 2.08579 0
M  V30 4547 H 447.415 -0.376756 2.5301 0
M  V30 4548 H 447.059 -1.01812 4.97591 0
M  V30 4549 H 446.989 -2.7337 4.50085 0
M  V30 4550 H 449.48 -1.6056 3.42095 0
M  V30 4551 H 449.793 -2.70662 7.23852 0
M  V30 4552 H 448.138 -2.44065 6.50736 0
M  V30 4553 H 451.329 -1.91224 4.2726 0
M  V30 4554 H 451.502 -2.41453 6.01335 0
M  V30 4555 N 444.908 -1.36708 -0.784132 0
M  V30 4556 C 446.185 -1.21776 -1.53069 0
M  V30 4557 C 446.565 0.193876 -2.10208 0
M  V30 4558 O 445.913 1.20012 -1.94446 0
M  V30 4559 C 446.123 -2.30395 -2.62143 0
M  V30 4560 C 447.471 -2.67325 -3.29882 0
M  V30 4561 O 448.495 -2.29478 -2.7243 0
M  V30 4562 O 447.354 -3.32485 -4.33724 0
M  V30 4563 H 444.448 -0.474459 -0.677361 0
M  V30 4564 H 446.994 -1.48454 -0.82216 0
M  V30 4565 H 445.766 -3.2498 -2.17953 0
M  V30 4566 H 445.389 -2.05112 -3.40609 0
M  V30 4567 N 446.386 1.0089 -1.21074 0
M  V30 4568 C 447.614 1.78191 -1.05145 0
M  V30 4569 C 448.029 1.84537 0.398952 0
M  V30 4570 O 447.386 1.30393 1.27687 0
M  V30 4571 C 447.437 3.22288 -1.63746 0
M  V30 4572 O 447.158 3.16315 -3.03111 0
M  V30 4573 C 448.659 4.16106 -1.52875 0
M  V30 4574 H 445.879 0.560129 -0.369454 0
M  V30 4575 H 448.423 1.26945 -1.60328 0
M  V30 4576 H 446.578 3.70655 -1.12664 0
M  V30 4577 H 446.992 4.06817 -3.31059 0
M  V30 4578 H 448.466 5.15026 -1.98626 0
M  V30 4579 H 448.943 4.36541 -0.482521 0
M  V30 4580 H 449.549 3.73625 -2.03185 0
M  V30 4581 N 447.864 1.01787 1.20321 0
M  V30 4582 C 449.275 0.739307 1.71438 0
M  V30 4583 C 449.626 -0.742041 1.81627 0
M  V30 4584 O 448.751 -1.57903 1.47971 0
M  V30 4585 C 449.346 1.33538 3.11373 0
M  V30 4586 C 447.905 1.10566 3.59795 0
M  V30 4587 C 447.052 1.44028 2.36962 0
M  V30 4588 H 450.003 1.18718 1.05317 0
M  V30 4589 H 450.024 0.726611 3.73498 0
M  V30 4590 H 449.536 2.41352 3.03926 0
M  V30 4591 H 447.637 0.0452405 3.72573 0
M  V30 4592 H 447.75 1.78661 4.44542 0
M  V30 4593 H 446.114 0.85933 2.39766 0
M  V30 4594 H 446.897 2.52901 2.32155 0
M  V30 4595 N 449.342 -1.36122 0.79427 0
M  V30 4596 C 450.59 -1.98718 0.368177 0
M  V30 4597 C 450.911 -1.63345 -1.06506 0
M  V30 4598 O 450.181 -0.909825 -1.73491 0
M  V30 4599 H 448.761 -0.735038 0.133146 0
M  V30 4600 H 451.423 -1.66239 1.01739 0
M  V30 4601 H 450.519 -3.08633 0.463923 0
M  V30 4602 N 450.82 -0.546701 -1.47814 0
M  V30 4603 C 451.77 0.227042 -2.26867 0
M  V30 4604 C 452.754 0.894844 -1.33721 0
M  V30 4605 O 453.946 0.794887 -1.58147 0
M  V30 4606 C 451.075 1.26299 -3.19223 0
M  V30 4607 C 450.161 0.59913 -4.19847 0
M  V30 4608 N 450.552 -0.324777 -5.04756 0
M  V30 4609 C 448.85 0.854331 -4.37741 0
M  V30 4610 C 449.551 -0.709386 -5.77358 0
M  V30 4611 N 448.527 -0.0666153 -5.43559 0
M  V30 4612 H 452.329 -0.483476 -2.89896 0
M  V30 4613 H 449.843 -0.365893 -1.58224 0
M  V30 4614 H 451.84 1.83116 -3.74532 0
M  V30 4615 H 450.5 1.97471 -2.57751 0
M  V30 4616 H 451.511 -0.698351 -5.1317 0
M  V30 4617 H 448.188 1.55536 -3.87447 0
M  V30 4618 H 449.578 -1.46796 -6.55668 0
M  V30 4619 N 452.299 1.55045 -0.282633 0
M  V30 4620 C 453.547 1.99365 0.331334 0
M  V30 4621 C 453.868 1.1725 1.55812 0
M  V30 4622 O 453.138 0.263871 1.94115 0
M  V30 4623 H 451.718 0.736397 0.125414 0
M  V30 4624 H 454.38 1.90964 -0.389711 0
M  V30 4625 H 453.476 3.0596 0.616036 0
M  V30 4626 N 453.777 0.010035 1.57597 0
M  V30 4627 C 455.002 -0.687021 1.95691 0
M  V30 4628 C 455.427 -1.65952 0.885519 0
M  V30 4629 O 454.785 -1.80633 -0.15543 0
M  V30 4630 C 454.833 -1.3864 3.32884 0
M  V30 4631 O 453.937 -2.50115 3.27897 0
M  V30 4632 H 453.278 -0.181989 0.638573 0
M  V30 4633 H 455.808 0.0662122 2.04493 0
M  V30 4634 H 455.818 -1.74754 3.6868 0
M  V30 4635 H 454.493 -0.673411 4.10412 0
M  V30 4636 H 453.07 -2.16253 3.03791 0
M  V30 4637 N 455.255 -1.55392 -0.262866 0
M  V30 4638 C 456.503 -1.76127 -0.991147 0
M  V30 4639 C 456.824 -0.571083 -1.8645 0
M  V30 4640 O 456.094 0.413698 -1.91482 0
M  V30 4641 H 454.674 -0.649528 -0.368948 0
M  V30 4642 H 457.336 -1.9281 -0.284655 0
M  V30 4643 H 456.432 -2.6663 -1.62219 0
M  V30 4644 N 456.733 0.527833 -1.48498 0
M  V30 4645 C 457.979 1.28295 -1.57836 0
M  V30 4646 C 458.334 1.9077 -0.249943 0
M  V30 4647 O 457.627 1.76421 0.747402 0
M  V30 4648 C 457.821 2.39275 -2.65485 0
M  V30 4649 C 457.65 1.87679 -4.08664 0
M  V30 4650 C 456.42 1.70187 -4.75778 0
M  V30 4651 C 458.618 1.40409 -4.94762 0
M  V30 4652 N 456.6 1.13238 -6.03366 0
M  V30 4653 C 457.971 0.954216 -6.12613 0
M  V30 4654 C 460.026 1.28732 -4.8097 0
M  V30 4655 C 458.729 0.39915 -7.18192 0
M  V30 4656 C 460.755 0.746244 -5.86673 0
M  V30 4657 C 460.117 0.306457 -7.03733 0
M  V30 4658 H 456.216 0.460408 -0.632099 0
M  V30 4659 H 458.8 0.594913 -1.85388 0
M  V30 4660 H 456.971 3.05572 -2.3975 0
M  V30 4661 H 458.703 3.06308 -2.64495 0
M  V30 4662 H 455.458 1.93772 -4.32145 0
M  V30 4663 H 455.882 0.867687 -6.71417 0
M  V30 4664 H 460.524 1.61338 -3.90807 0
M  V30 4665 H 458.242 0.0607678 -8.08077 0
M  V30 4666 H 461.828 0.659041 -5.78055 0
M  V30 4667 H 460.708 -0.105708 -7.84129 0
M  V30 4668 N 458.211 1.37122 0.776871 0
M  V30 4669 C 459.174 1.32301 1.8716 0
M  V30 4670 C 460.174 0.228099 1.59174 0
M  V30 4671 O 461.364 0.483642 1.67352 0
M  V30 4672 C 458.496 1.054 3.24197 0
M  V30 4673 H 459.689 2.29673 1.92848 0
M  V30 4674 H 457.242 1.22077 0.97606 0
M  V30 4675 H 457.977 0.0853872 3.24188 0
M  V30 4676 H 457.762 1.84648 3.45901 0
M  V30 4677 H 459.252 1.04664 4.04271 0
M  V30 4678 N 459.689 -1.00246 1.21608 0
M  V30 4679 C 460.599 -2.12515 0.993709 0
M  V30 4680 C 461.615 -1.73913 -0.0549939 0
M  V30 4681 O 462.791 -2.00943 0.135619 0
M  V30 4682 C 459.856 -3.42083 0.563953 0
M  V30 4683 C 458.917 -3.94843 1.68516 0
M  V30 4684 C 458.15 -5.18226 1.27582 0
M  V30 4685 O 458.373 -5.70201 0.150506 0
M  V30 4686 O 457.307 -5.64497 2.0887 0
M  V30 4687 H 461.133 -2.34152 1.93407 0
M  V30 4688 H 458.718 -1.10891 1.00118 0
M  V30 4689 H 460.6 -4.20073 0.334194 0
M  V30 4690 H 459.275 -3.21828 -0.347665 0
M  V30 4691 H 458.182 -3.18068 1.96935 0
M  V30 4692 H 459.515 -4.19512 2.5743 0
M  V30 4693 N 461.167 -1.02423 -1.1978 0
M  V30 4694 C 462.395 -0.737456 -1.93311 0
M  V30 4695 C 462.81 0.703023 -1.75223 0
M  V30 4696 O 462.167 1.47761 -1.07112 0
M  V30 4697 C 462.218 -1.0733 -3.45199 0
M  V30 4698 O 461.939 -2.4572 -3.62702 0
M  V30 4699 C 463.44 -0.80866 -4.35862 0
M  V30 4700 H 460.66 -0.2702 -0.614193 0
M  V30 4701 H 463.204 -1.36747 -1.52054 0
M  V30 4702 H 461.359 -0.488545 -3.84307 0
M  V30 4703 H 461.773 -2.58081 -4.56612 0
M  V30 4704 H 463.247 -1.09365 -5.41057 0
M  V30 4705 H 463.724 0.257025 -4.38447 0
M  V30 4706 H 464.33 -1.37592 -4.02428 0
M  V30 4707 N 462.645 1.35699 -0.801477 0
M  V30 4708 C 464.056 1.81415 -0.441073 0
M  V30 4709 C 464.407 1.66595 1.03636 0
M  V30 4710 O 463.532 1.19369 1.80499 0
M  V30 4711 C 464.127 3.29369 -0.793819 0
M  V30 4712 C 462.686 3.73248 -0.486083 0
M  V30 4713 C 461.833 2.57775 -1.02213 0
M  V30 4714 H 464.784 1.23749 -0.993572 0
M  V30 4715 H 464.805 3.80395 -0.0894158 0
M  V30 4716 H 464.317 3.40123 -1.86917 0
M  V30 4717 H 462.418 3.68046 0.580735 0
M  V30 4718 H 462.531 4.68222 -1.01513 0
M  V30 4719 H 460.895 2.50788 -0.444712 0
M  V30 4720 H 461.678 2.71309 -2.10348 0
M  V30 4721 N 464.123 0.554532 1.47522 0
M  V30 4722 C 465.539 0.214107 1.58157 0
M  V30 4723 C 465.739 -1.28331 1.55349 0
M  V30 4724 O 464.795 -2.06329 1.45549 0
M  V30 4725 C 466.108 0.838391 2.88776 0
M  V30 4726 C 467.656 0.809374 3.02354 0
M  V30 4727 C 468.131 1.41268 4.35669 0
M  V30 4728 N 469.622 1.37574 4.42298 0
M  V30 4729 C 470.357 1.8122 5.4401 0
M  V30 4730 N 469.853 2.3271 6.52547 0
M  V30 4731 N 471.646 1.72307 5.35039 0
M  V30 4732 H 463.797 1.52744 1.4759 0
M  V30 4733 H 466.06 0.636812 0.702264 0
M  V30 4734 H 465.766 1.89065 2.96559 0
M  V30 4735 H 465.64 0.329847 3.75755 0
M  V30 4736 H 468.027 -0.234187 2.94169 0
M  V30 4737 H 468.108 1.35565 2.16924 0
M  V30 4738 H 467.752 2.45529 4.4461 0
M  V30 4739 H 467.682 0.841871 5.19827 0
M  V30 4740 H 470.173 0.999081 3.64454 0
M  V30 4741 H 470.486 2.63944 7.26329 0
M  V30 4742 H 468.831 2.36719 6.53444 0
M  V30 4743 H 472.022 1.3186 4.49144 0
M  V30 4744 H 472.195 2.06641 6.14169 0
M  V30 4745 N 465.601 -1.54893 0.290851 0
M  V30 4746 C 466.829 -2.04343 -0.324288 0
M  V30 4747 C 467.244 -1.16859 -1.48289 0
M  V30 4748 O 466.601 -0.192018 -1.81487 0
M  V30 4749 C 466.652 -3.52756 -0.79026 0
M  V30 4750 O 466.373 -4.36913 0.322213 0
M  V30 4751 C 467.874 -4.18161 -1.4716 0
M  V30 4752 H 465.094 -0.667135 -0.0719173 0
M  V30 4753 H 467.638 -1.99981 0.427529 0
M  V30 4754 H 465.793 -3.57511 -1.49213 0
M  V30 4755 H 466.207 -5.24486 -0.0387372 0
M  V30 4756 H 467.681 -5.23562 -1.7489 0
M  V30 4757 H 468.158 -3.67282 -2.40834 0
M  V30 4758 H 468.764 -4.17454 -0.813178 0
M  V30 4759 N 467.08 -0.0183926 -1.57589 0
M  V30 4760 C 468.357 0.700621 -1.82622 0
M  V30 4761 C 468.737 1.90951 -0.90005 0
M  V30 4762 O 468.085 2.28452 0.0469145 0
M  V30 4763 C 468.295 1.08899 -3.31575 0
M  V30 4764 C 469.643 1.48514 -3.9778 0
M  V30 4765 O 470.667 1.18227 -3.36007 0
M  V30 4766 O 469.526 2.04903 -5.06633 0
M  V30 4767 H 466.62 0.342743 -0.752633 0
M  V30 4768 H 469.166 -0.0452548 -1.6964 0
M  V30 4769 H 467.938 0.228113 -3.90635 0
M  V30 4770 H 467.561 1.89338 -3.49624 0
M  V30 4771 N 468.558 1.5553 0.254621 0
M  V30 4772 C 469.974 1.4778 0.602753 0
M  V30 4773 C 470.174 0.707047 1.88688 0
M  V30 4774 O 469.23 0.233288 2.5142 0
M  V30 4775 C 470.543 2.92133 0.712648 0
M  V30 4776 C 472.091 3.02458 0.805488 0
M  V30 4777 C 472.566 4.48102 0.947009 0
M  V30 4778 N 474.057 4.52008 1.01207 0
M  V30 4779 C 474.792 5.61939 1.1407 0
M  V30 4780 N 474.288 6.81697 1.23536 0
M  V30 4781 N 476.081 5.49719 1.17325 0
M  V30 4782 H 468.232 2.04085 -0.588463 0
M  V30 4783 H 470.495 0.926229 -0.202001 0
M  V30 4784 H 470.201 3.51332 -0.160766 0
M  V30 4785 H 470.075 3.42187 1.58707 0
M  V30 4786 H 472.462 2.43344 1.66936 0
M  V30 4787 H 472.543 2.55627 -0.0939266 0
M  V30 4788 H 472.187 5.07824 0.087725 0
M  V30 4789 H 472.117 4.92607 1.86135 0
M  V30 4790 H 474.608 3.65749 0.950577 0
M  V30 4791 H 474.921 7.61228 1.33236 0
M  V30 4792 H 473.266 6.84473 1.20508 0
M  V30 4793 H 476.457 4.55095 1.09573 0
M  V30 4794 H 476.63 6.35432 1.27005 0
M  V30 4795 N 470.036 -0.519951 1.48776 0
M  V30 4796 C 471.284 -1.2727 1.56993 0
M  V30 4797 C 471.605 -1.9339 0.25004 0
M  V30 4798 O 470.875 -1.81822 -0.729216 0
M  V30 4799 H 469.455 -0.472732 0.578389 0
M  V30 4800 H 472.117 -0.604234 1.85297 0
M  V30 4801 H 471.213 -2.04669 2.3562 0
M  V30 4802 N 471.514 -1.37532 -0.769588 0
M  V30 4803 C 472.762 -1.32597 -1.5252 0
M  V30 4804 C 473.083 0.0884294 -1.94799 0
M  V30 4805 O 472.353 1.03289 -1.66458 0
M  V30 4806 H 470.933 -0.487846 -0.565699 0
M  V30 4807 H 473.595 -1.72044 -0.915806 0
M  V30 4808 H 472.691 -1.96643 -2.42359 0
M  V30 4809 N 472.992 0.995999 -1.22138 0
M  V30 4810 C 474.269 1.70834 -0.952642 0
M  V30 4811 C 474.649 2.04257 0.533119 0
M  V30 4812 O 473.997 1.72343 1.50034 0
M  V30 4813 C 474.207 2.96119 -1.84701 0
M  V30 4814 C 475.555 3.68962 -2.10124 0
M  V30 4815 O 476.579 3.0612 -1.82124 0
M  V30 4816 O 475.438 4.82017 -2.57531 0
M  V30 4817 H 472.532 0.745498 -0.357997 0
M  V30 4818 H 475.078 1.05262 -1.33109 0
M  V30 4819 H 473.85 2.67898 -2.85213 0
M  V30 4820 H 473.473 3.6943 -1.46995 0
M  V30 4821 N 474.47 1.03057 1.19235 0
M  V30 4822 C 475.695 0.74757 1.93458 0
M  V30 4823 C 476.12 -0.687648 1.7508 0
M  V30 4824 O 475.478 -1.47499 1.05422 0
M  V30 4825 C 475.526 1.10604 3.43219 0
M  V30 4826 O 474.63 0.225671 4.11782 0
M  V30 4827 H 473.971 0.276047 0.603899 0
M  V30 4828 H 476.501 1.3777 1.51263 0
M  V30 4829 H 476.511 1.06366 3.93891 0
M  V30 4830 H 475.186 2.15165 3.55917 0
M  V30 4831 H 473.763 0.326795 3.71465 0
M  V30 4832 N 475.948 -1.35272 0.808662 0
M  V30 4833 C 477.197 -1.97963 0.386483 0
M  V30 4834 C 477.51 -1.64866 -1.05255 0
M  V30 4835 O 478.716 -2.20937 -1.57794 0
M  V30 4836 C 477.172 -3.54162 0.640096 0
M  V30 4837 C 476.78 -3.96166 2.0918 0
M  V30 4838 C 478.524 -4.23553 0.283376 0
M  V30 4839 C 476.431 -5.4522 2.29106 0
M  V30 4840 H 475.361 -0.740742 0.140774 0
M  V30 4841 H 478.012 -1.5431 0.993012 0
M  V30 4842 H 476.394 -3.95983 -0.0364117 0
M  V30 4843 H 477.568 -3.65491 2.80629 0
M  V30 4844 H 475.883 -3.3967 2.40859 0
M  V30 4845 H 478.48 -5.33124 0.410273 0
M  V30 4846 H 478.823 -4.09105 -0.770659 0
M  V30 4847 H 479.356 -3.8716 0.913884 0
M  V30 4848 H 476.095 -5.64638 3.32962 0
M  V30 4849 H 475.615 -5.77457 1.62184 0
M  V30 4850 H 477.294 -6.1171 2.1076 0
M  V30 4851 N 477.426 -0.562348 -1.47226 0
M  V30 4852 C 478.674 -0.0401371 -2.0206 0
M  V30 4853 C 478.995 1.3165 -1.43852 0
M  V30 4854 O 478.265 1.85976 -0.615599 0
M  V30 4855 H 476.845 -0.0118479 -0.746906 0
M  V30 4856 H 479.507 -0.73352 -1.8057 0
M  V30 4857 H 478.603 0.0441254 -3.12069 0
M  V30 4858 N 478.904 1.54736 -0.299062 0
M  V30 4859 C 479.814 2.27127 0.587413 0
M  V30 4860 C 480.83 1.30575 1.15005 0
M  V30 4861 O 482.006 1.63554 1.17525 0
M  V30 4862 C 479.071 2.99645 1.74395 0
M  V30 4863 C 478.132 4.11731 1.21559 0
M  V30 4864 C 477.365 4.80781 2.317 0
M  V30 4865 O 477.588 4.4918 3.51558 0
M  V30 4866 O 476.522 5.68226 1.98501 0
M  V30 4867 H 480.348 3.037 0.000250109 0
M  V30 4868 H 477.933 1.49256 -0.0655919 0
M  V30 4869 H 479.815 3.45138 2.4178 0
M  V30 4870 H 478.49 2.25969 2.31775 0
M  V30 4871 H 477.397 3.70641 0.507514 0
M  V30 4872 H 478.73 4.87379 0.687233 0
M  V30 4873 N 480.382 0.0267497 1.57577 0
M  V30 4874 C 481.61 -0.662661 1.96001 0
M  V30 4875 C 482.025 -1.65799 0.903117 0
M  V30 4876 O 481.382 -1.82135 -0.115317 0
M  V30 4877 C 481.433 -1.37112 3.34488 0
M  V30 4878 O 481.154 -0.415683 4.36123 0
M  V30 4879 C 482.655 -2.15257 3.8753 0
M  V30 4880 H 479.875 -0.18287 0.6456 0
M  V30 4881 H 482.419 0.0858116 2.0432 0
M  V30 4882 H 480.574 -2.07101 3.27395 0
M  V30 4883 H 480.988 -0.918496 5.16395 0
M  V30 4884 H 482.462 -2.60285 4.86781 0
M  V30 4885 H 482.939 -2.99063 3.21649 0
M  V30 4886 H 483.545 -1.50231 3.97883 0
M  V30 4887 N 481.861 -1.55662 -0.24637 0
M  V30 4888 C 483.272 -1.67953 -0.81539 0
M  V30 4889 C 483.623 -0.624302 -1.86002 0
M  V30 4890 O 482.748 0.229328 -2.15181 0
M  V30 4891 C 483.343 -3.04484 -1.48576 0
M  V30 4892 C 481.902 -3.18713 -2.00248 0
M  V30 4893 C 481.049 -2.6383 -0.853766 0
M  V30 4894 H 484 -1.58685 -0.0221692 0
M  V30 4895 H 484.021 -2.98959 -2.3538 0
M  V30 4896 H 483.533 -3.81264 -0.725222 0
M  V30 4897 H 481.634 -2.46757 -2.79181 0
M  V30 4898 H 481.747 -4.25628 -2.1995 0
M  V30 4899 H 480.111 -2.21667 -1.25442 0
M  V30 4900 H 480.894 -3.43135 -0.106302 0
M  V30 4901 N 483.339 0.512053 -1.4905 0
M  V30 4902 C 484.567 1.29116 -1.61669 0
M  V30 4903 C 484.982 1.86655 -0.283787 0
M  V30 4904 O 484.339 1.67293 0.729331 0
M  V30 4905 C 484.39 2.4293 -2.67707 0
M  V30 4906 O 484.111 1.87758 -3.95826 0
M  V30 4907 C 485.612 3.34476 -2.90931 0
M  V30 4908 H 482.832 0.392009 -0.544583 0
M  V30 4909 H 485.376 0.615881 -1.95006 0
M  V30 4910 H 483.531 3.06308 -2.37179 0
M  V30 4911 H 483.945 2.62393 -4.54148 0
M  V30 4912 H 485.419 4.10642 -3.68886 0
M  V30 4913 H 485.896 3.90801 -2.00427 0
M  V30 4914 H 486.502 2.76874 -3.22832 0
M  V30 4915 N 484.817 1.37938 0.762283 0
M  V30 4916 C 486.228 1.30094 1.33912 0
M  V30 4917 C 486.579 -0.0472026 1.96143 0
M  V30 4918 O 485.704 -0.94917 1.94473 0
M  V30 4919 C 486.299 2.35592 2.43478 0
M  V30 4920 C 484.858 2.31353 2.96905 0
M  V30 4921 C 484.005 2.18919 1.70205 0
M  V30 4922 H 486.956 1.48423 0.561816 0
M  V30 4923 H 486.977 2.00806 3.23199 0
M  V30 4924 H 486.489 3.33701 1.98155 0
M  V30 4925 H 484.59 1.36799 3.46579 0
M  V30 4926 H 484.703 3.25147 3.51875 0
M  V30 4927 H 483.067 1.65624 1.93496 0
M  V30 4928 H 483.85 3.18956 1.26973 0
M  V30 4929 N 486.295 -0.989507 1.22664 0
M  V30 4930 C 487.543 -1.72612 1.05117 0
M  V30 4931 C 487.864 -1.90552 -0.414131 0
M  V30 4932 O 487.134 -1.4676 -1.29762 0
M  V30 4933 H 485.714 -0.639555 0.385977 0
M  V30 4934 H 488.376 -1.19158 1.54232 0
M  V30 4935 H 487.472 -2.71926 1.53175 0
M  V30 4936 N 487.773 -1.03688 -1.18687 0
M  V30 4937 C 488.736 -0.629115 -2.20397 0
M  V30 4938 C 489.736 0.311495 -1.57754 0
M  V30 4939 O 490.926 0.0974107 -1.73927 0
M  V30 4940 C 488.058 0.0782231 -3.4081 0
M  V30 4941 H 489.251 -1.52915 -2.57987 0
M  V30 4942 H 486.804 -0.828988 -1.32505 0
M  V30 4943 H 487.539 0.992233 -3.08748 0
M  V30 4944 H 487.324 -0.597776 -3.87517 0
M  V30 4945 H 488.814 0.350156 -4.16129 0
M  V30 4946 N 489.251 1.34841 -0.815825 0
M  V30 4947 C 490.476 2.03261 -0.41226 0
M  V30 4948 C 490.901 1.61055 0.971751 0
M  V30 4949 O 490.259 0.7917 1.63101 0
M  V30 4950 C 490.307 3.56914 -0.514289 0
M  V30 4951 O 489.411 4.09728 0.468675 0
M  V30 4952 H 488.752 0.641664 -0.170771 0
M  V30 4953 H 491.282 1.72241 -1.10427 0
M  V30 4954 H 491.292 4.06156 -0.387457 0
M  V30 4955 H 489.967 3.86982 -1.52375 0
M  V30 4956 H 488.544 3.71681 0.301316 0
M  V30 4957 N 490.729 0.570148 1.46925 0
M  V30 4958 C 491.676 -0.170257 2.30171 0
M  V30 4959 C 492.646 -0.896099 1.39855 0
M  V30 4960 O 493.831 -0.889248 1.68811 0
M  V30 4961 C 490.971 -1.18605 3.24079 0
M  V30 4962 C 490.084 -0.464947 4.29491 0
M  V30 4963 C 489.219 -1.46716 5.10537 0
M  V30 4964 C 488.258 -0.731758 6.0771 0
M  V30 4965 N 487.395 -1.68142 6.81669 0
M  V30 4966 H 492.235 0.545713 2.92961 0
M  V30 4967 H 489.772 0.280938 1.44392 0
M  V30 4968 H 491.73 -1.78771 3.76957 0
M  V30 4969 H 490.36 -1.86989 2.63125 0
M  V30 4970 H 489.412 0.251506 3.79568 0
M  V30 4971 H 490.724 0.110548 4.98677 0
M  V30 4972 H 489.878 -2.14199 5.6763 0
M  V30 4973 H 488.617 -2.07658 4.41282 0
M  V30 4974 H 487.622 -0.0430787 5.49783 0
M  V30 4975 H 488.847 -0.127904 6.7898 0
M  V30 4976 H 486.793 -2.27918 6.15134 0
M  V30 4977 H 486.71 -1.15841 7.47072 0
M  V30 4978 H 487.978 -2.347 7.43328 0
M  V30 4979 N 492.207 -1.54576 0.307264 0
M  V30 4980 C 493.623 -1.59534 -0.0459251 0
M  V30 4981 C 493.823 -1.32414 -1.51884 0
M  V30 4982 O 492.879 -1.1006 -2.27251 0
M  V30 4983 C 494.192 -2.98566 0.357649 0
M  V30 4984 C 495.74 -3.11491 0.306937 0
M  V30 4985 C 496.215 -4.52842 0.685427 0
M  V30 4986 N 497.706 -4.58782 0.638203 0
M  V30 4987 C 498.441 -5.66238 0.903458 0
M  V30 4988 N 497.937 -6.81703 1.23501 0
M  V30 4989 N 499.73 -5.55937 0.830102 0
M  V30 4990 H 491.881 -1.70464 1.26712 0
M  V30 4991 H 494.144 -0.79647 0.514139 0
M  V30 4992 H 493.85 -3.23356 1.38325 0
M  V30 4993 H 493.724 -3.76117 -0.285565 0
M  V30 4994 H 496.111 -2.86446 -0.709424 0
M  V30 4995 H 496.192 -2.36081 0.984861 0
M  V30 4996 H 495.836 -4.78618 1.69963 0
M  V30 4997 H 495.766 -5.26598 -0.0146346 0
M  V30 4998 H 498.257 -3.75849 0.393138 0
M  V30 4999 H 498.57 -7.59582 1.42322 0
M  V30 5000 H 496.915 -6.8324 1.27311 0
M  V30 5001 H 500.106 -4.64608 0.570693 0
M  V30 5002 H 500.279 -6.39597 1.04019 0
M  V30 5003 N 493.685 -0.035106 -1.57561 0
M  V30 5004 C 494.632 0.94474 -2.10578 0
M  V30 5005 C 495.602 1.3192 -1.00927 0
M  V30 5006 O 496.787 1.41147 -1.28382 0
M  V30 5007 C 493.927 2.21982 -2.64231 0
M  V30 5008 C 493.04 1.90128 -3.87911 0
M  V30 5009 C 492.175 3.11975 -4.29936 0
M  V30 5010 C 491.214 2.75968 -5.46359 0
M  V30 5011 N 490.351 3.90459 -5.83512 0
M  V30 5012 H 495.191 0.485717 -2.94015 0
M  V30 5013 H 492.728 0.228143 -1.4532 0
M  V30 5014 H 494.686 2.96572 -2.9343 0
M  V30 5015 H 493.316 2.6549 -1.83616 0
M  V30 5016 H 492.368 1.05755 -3.65404 0
M  V30 5017 H 493.68 1.59613 -4.72573 0
M  V30 5018 H 492.834 3.9488 -4.60603 0
M  V30 5019 H 491.573 3.45657 -3.44053 0
M  V30 5020 H 490.578 1.91478 -5.1538 0
M  V30 5021 H 491.803 2.43497 -6.33945 0
M  V30 5022 H 489.749 4.23971 -5.00584 0
M  V30 5023 H 489.666 3.63588 -6.62827 0
M  V30 5024 H 490.934 4.7405 -6.18787 0
M  V30 5025 N 495.163 1.55791 0.238111 0
M  V30 5026 C 496.388 1.8244 0.986432 0
M  V30 5027 C 496.813 0.613314 1.7782 0
M  V30 5028 O 496.171 -0.437767 1.75935 0
M  V30 5029 C 496.219 3.06917 1.893 0
M  V30 5030 O 495.323 2.84449 2.98601 0
M  V30 5031 H 494.664 0.601975 0.280218 0
M  V30 5032 H 497.194 2.02987 0.256437 0
M  V30 5033 H 497.204 3.36583 2.30598 0
M  V30 5034 H 495.879 3.947 1.31091 0
M  V30 5035 H 494.456 2.65972 2.61368 0
M  V30 5036 N 496.642 -0.504142 1.49319 0
M  V30 5037 C 498.058 -0.835039 1.36012 0
M  V30 5038 C 498.258 -1.97674 0.390808 0
M  V30 5039 O 497.314 -2.51867 -0.178655 0
M  V30 5040 C 498.627 -1.17821 2.76656 0
M  V30 5041 C 500.175 -1.2866 2.85334 0
M  V30 5042 C 500.65 -1.66307 4.26739 0
M  V30 5043 N 502.141 -1.73362 4.29534 0
M  V30 5044 C 502.876 -2.0393 5.35911 0
M  V30 5045 N 502.372 -2.32744 6.52535 0
M  V30 5046 N 504.165 -2.05155 5.23324 0
M  V30 5047 H 496.316 0.248764 2.10938 0
M  V30 5048 H 498.579 0.0486962 0.946748 0
M  V30 5049 H 498.285 -0.412682 3.4927 0
M  V30 5050 H 498.159 -2.12239 3.11825 0
M  V30 5051 H 500.546 -2.04285 2.1296 0
M  V30 5052 H 500.627 -0.323004 2.53752 0
M  V30 5053 H 500.271 -0.91234 4.99639 0
M  V30 5054 H 500.201 -2.63761 4.55782 0
M  V30 5055 H 502.692 -1.53268 3.45424 0
M  V30 5056 H 503.005 -2.55248 7.2943 0
M  V30 5057 H 501.35 -2.30207 6.55767 0
M  V30 5058 H 504.541 -1.82119 4.3122 0
M  V30 5059 H 504.714 -2.28644 6.06322 0
M  V30 5060 N 498.12 -1.38341 -0.754957 0
M  V30 5061 C 499.366 -1.35678 -1.51536 0
M  V30 5062 C 499.721 0.0533985 -1.92326 0
M  V30 5063 O 499.014 1.01573 -1.6246 0
M  V30 5064 C 499.208 -2.2452 -2.78075 0
M  V30 5065 C 499.037 -3.74035 -2.49655 0
M  V30 5066 C 497.807 -4.43066 -2.42942 0
M  V30 5067 C 500.005 -4.665 -2.16523 0
M  V30 5068 N 497.987 -5.78026 -2.06783 0
M  V30 5069 C 499.358 -5.89962 -1.90644 0
M  V30 5070 C 501.413 -4.54718 -2.02821 0
M  V30 5071 C 500.116 -7.0296 -1.52444 0
M  V30 5072 C 502.142 -5.67618 -1.66023 0
M  V30 5073 C 501.504 -6.90141 -1.41015 0
M  V30 5074 H 497.603 -0.551764 -0.554148 0
M  V30 5075 H 500.187 -1.73716 -0.879258 0
M  V30 5076 H 498.358 -1.88673 -3.39496 0
M  V30 5077 H 500.09 -2.12993 -3.44116 0
M  V30 5078 H 496.845 -3.96264 -2.59367 0
M  V30 5079 H 497.269 -6.49394 -1.91353 0
M  V30 5080 H 501.911 -3.60546 -2.20831 0
M  V30 5081 H 499.629 -7.97051 -1.33174 0
M  V30 5082 H 503.215 -5.6048 -1.56055 0
M  V30 5083 H 502.095 -7.76021 -1.12965 0
M  V30 5084 N 499.598 0.982988 -1.23187 0
M  V30 5085 C 500.875 1.69814 -0.970707 0
M  V30 5086 C 501.255 2.04811 0.511424 0
M  V30 5087 O 500.603 1.73924 1.48198 0
M  V30 5088 C 500.813 2.94143 -1.87831 0
M  V30 5089 C 502.161 3.66712 -2.14026 0
M  V30 5090 O 503.185 3.04171 -1.8536 0
M  V30 5091 O 502.044 4.79258 -2.62629 0
M  V30 5092 H 499.138 0.741659 -0.365884 0
M  V30 5093 H 501.684 1.03844 -1.34218 0
M  V30 5094 H 500.456 2.64858 -2.88038 0
M  V30 5095 H 500.079 3.6785 -1.50905 0
M  V30 5096 N 501.076 1.04316 1.18135 0
M  V30 5097 C 501.986 0.646876 2.25505 0
M  V30 5098 C 503.002 -0.328008 1.7088 0
M  V30 5099 O 504.178 -0.182309 2.00573 0
M  V30 5100 C 501.243 0.0185664 3.46695 0
M  V30 5101 C 500.304 1.04277 4.16443 0
M  V30 5102 C 499.537 0.444352 5.31847 0
M  V30 5103 O 499.76 -0.748735 5.65465 0
M  V30 5104 O 498.694 1.17428 5.90334 0
M  V30 5105 H 502.52 1.54147 2.61672 0
M  V30 5106 H 500.105 0.814188 1.25265 0
M  V30 5107 H 501.987 -0.331068 4.20097 0
M  V30 5108 H 500.662 -0.849814 3.12346 0
M  V30 5109 H 499.569 1.44425 3.45098 0
M  V30 5110 H 500.902 1.882 4.54798 0
M  V30 5111 N 502.554 -1.34406 0.822964 0
M  V30 5112 C 503.782 -2.02508 0.424039 0
M  V30 5113 C 504.197 -1.61975 -0.970022 0
M  V30 5114 O 503.554 -0.825228 -1.62777 0
M  V30 5115 C 503.605 -3.57789 0.516657 0
M  V30 5116 O 503.326 -3.96853 1.85577 0
M  V30 5117 C 504.827 -4.43157 0.112637 0
M  V30 5118 H 502.047 -0.649063 0.170173 0
M  V30 5119 H 504.591 -1.7168 1.11113 0
M  V30 5120 H 502.746 -3.87207 -0.122353 0
M  V30 5121 H 503.16 -4.91538 1.83005 0
M  V30 5122 H 504.634 -5.51527 0.228526 0
M  V30 5123 H 505.111 -4.28939 -0.943837 0
M  V30 5124 H 505.717 -4.19067 0.725449 0
M  V30 5125 N 504.032 -0.577932 -1.46621 0
M  V30 5126 C 505.443 -0.150071 -1.86096 0
M  V30 5127 C 505.794 1.28563 -1.48209 0
M  V30 5128 O 504.919 1.97036 -0.894754 0
M  V30 5129 C 505.514 -0.265576 -3.37758 0
M  V30 5130 C 504.073 0.10738 -3.76247 0
M  V30 5131 C 503.22 -0.603711 -2.70649 0
M  V30 5132 H 506.171 -0.786438 -1.37844 0
M  V30 5133 H 506.192 0.510352 -3.77062 0
M  V30 5134 H 505.704 -1.3106 -3.65301 0
M  V30 5135 H 503.805 1.15272 -3.54321 0
M  V30 5136 H 503.918 -0.26561 -4.78363 0
M  V30 5137 H 502.282 -0.0444884 -2.54661 0
M  V30 5138 H 503.065 -1.65029 -3.01032 0
M  V30 5139 N 505.51 1.54411 -0.315457 0
M  V30 5140 C 506.473 2.22713 0.54142 0
M  V30 5141 C 507.473 1.2179 1.04995 0
M  V30 5142 O 508.663 1.46426 0.943667 0
M  V30 5143 C 505.795 2.92485 1.75116 0
M  V30 5144 H 506.988 2.99849 -0.0555508 0
M  V30 5145 H 504.541 1.56159 -0.0664453 0
M  V30 5146 H 505.276 2.19466 2.38758 0
M  V30 5147 H 505.061 3.66483 1.39401 0
M  V30 5148 H 506.551 3.44548 2.35959 0
M  V30 5149 N 506.988 0.0434614 1.5754 0
M  V30 5150 C 508.213 -0.645358 1.97104 0
M  V30 5151 C 508.638 -1.64037 0.920521 0
M  V30 5152 O 507.996 -1.80922 -0.11708 0
M  V30 5153 C 508.044 -1.31547 3.35749 0
M  V30 5154 O 507.148 -2.43103 3.33129 0
M  V30 5155 H 506.489 -0.168403 0.64229 0
M  V30 5156 H 509.019 0.109573 2.04306 0
M  V30 5157 H 509.029 -1.66895 3.72304 0
M  V30 5158 H 507.704 -0.586205 4.11748 0
M  V30 5159 H 506.281 -2.0976 3.0831 0
M  V30 5160 N 508.466 -1.55915 -0.229846 0
M  V30 5161 C 509.398 -1.88209 -1.30805 0
M  V30 5162 C 510.411 -0.769672 -1.43457 0
M  V30 5163 O 511.6 -1.04792 -1.44502 0
M  V30 5164 C 508.7 -2.06829 -2.68468 0
M  V30 5165 C 507.873 -3.37798 -2.77869 0
M  V30 5166 C 506.932 -3.45952 -3.96489 0
M  V30 5167 O 505.958 -4.19043 -3.85216 0
M  V30 5168 N 507.16 -2.76488 -5.10426 0
M  V30 5169 H 509.925 -2.81286 -1.03431 0
M  V30 5170 H 507.486 -1.5636 -0.41991 0
M  V30 5171 H 509.478 -2.09608 -3.46189 0
M  V30 5172 H 508.048 -1.20416 -2.88477 0
M  V30 5173 H 507.268 -3.4719 -1.86689 0
M  V30 5174 H 508.556 -4.24091 -2.81113 0
M  V30 5175 H 507.954 -2.16868 -5.2248 0
M  V30 5176 H 506.511 -2.84938 -5.8622 0
M  V30 5177 N 509.944 0.496216 -1.49584 0
M  V30 5178 C 510.877 1.61508 -1.61215 0
M  V30 5179 C 511.855 1.55927 -0.461045 0
M  V30 5180 O 513.039 1.75914 -0.677231 0
M  V30 5181 C 510.166 3.00035 -1.57152 0
M  V30 5182 C 509.212 3.23861 -2.77518 0
M  V30 5183 S 510.045 3.06466 -4.39134 0
M  V30 5184 C 511.201 4.4738 -4.37724 0
M  V30 5185 H 511.434 1.51398 -2.55863 0
M  V30 5186 H 508.967 0.681727 -1.38535 0
M  V30 5187 H 510.925 3.7991 -1.55494 0
M  V30 5188 H 509.586 3.07556 -0.637834 0
M  V30 5189 H 508.779 4.25 -2.70908 0
M  V30 5190 H 508.381 2.51716 -2.76614 0
M  V30 5191 H 510.673 5.39556 -4.09738 0
M  V30 5192 H 511.616 4.59038 -5.39156 0
M  V30 5193 H 512.024 4.28283 -3.67742 0
M  V30 5194 N 511.423 1.38739 0.74761 0
M  V30 5195 C 512.671 1.35007 1.50391 0
M  V30 5196 C 512.992 -0.0574274 1.94915 0
M  V30 5197 O 512.262 -1.00628 1.6808 0
M  V30 5198 H 510.842 0.496784 0.557866 0
M  V30 5199 H 513.504 1.73479 0.888319 0
M  V30 5200 H 512.6 2.00474 2.392 0
M  V30 5201 N 512.901 -0.976442 1.23707 0
M  V30 5202 C 514.149 -1.71487 1.06942 0
M  V30 5203 C 514.47 -1.9098 -0.393897 0
M  V30 5204 O 513.74 -1.48128 -1.28198 0
M  V30 5205 H 512.32 -0.635425 0.392739 0
M  V30 5206 H 514.982 -1.17515 1.55487 0
M  V30 5207 H 514.078 -2.70286 1.56051 0
M  V30 5208 N 514.379 -1.04941 -1.1758 0
M  V30 5209 C 515.604 -0.778253 -1.92245 0
M  V30 5210 C 516.029 0.659707 -1.76152 0
M  V30 5211 O 515.387 1.45803 -1.07755 0
M  V30 5212 C 515.435 -1.16051 -3.41416 0
M  V30 5213 O 514.539 -0.291153 -4.11371 0
M  V30 5214 H 513.88 -0.285619 -0.599431 0
M  V30 5215 H 516.41 -1.40159 -1.49052 0
M  V30 5216 H 516.42 -1.12619 -3.92149 0
M  V30 5217 H 515.095 -2.208 -3.52449 0
M  V30 5218 H 513.672 -0.385851 -3.70898 0
M  V30 5219 N 515.857 1.33968 -0.830081 0
M  V30 5220 C 517.085 2.0228 -0.434773 0
M  V30 5221 C 517.5 1.62487 0.961419 0
M  V30 5222 O 516.857 0.833849 1.62337 0
M  V30 5223 C 516.908 3.5751 -0.535625 0
M  V30 5224 O 516.629 3.95864 -1.87679 0
M  V30 5225 C 518.13 4.43091 -0.136137 0
M  V30 5226 H 515.35 0.648151 -0.173613 0
M  V30 5227 H 517.894 1.71089 -1.12022 0
M  V30 5228 H 516.049 3.87266 0.101817 0
M  V30 5229 H 516.463 4.9056 -1.85609 0
M  V30 5230 H 517.937 5.51398 -0.257772 0
M  V30 5231 H 518.414 4.29433 0.921076 0
M  V30 5232 H 519.02 4.18677 -0.747662 0
M  V30 5233 N 517.335 0.585699 1.46312 0
M  V30 5234 C 518.746 0.159938 1.86014 0
M  V30 5235 C 519.097 -1.27775 1.48889 0
M  V30 5236 O 518.222 -1.96559 0.90519 0
M  V30 5237 C 518.817 0.283485 3.37612 0
M  V30 5238 C 517.376 -0.0874256 3.76298 0
M  V30 5239 C 516.523 0.618055 2.70325 0
M  V30 5240 H 519.474 0.793737 1.37425 0
M  V30 5241 H 519.495 -0.490348 3.77327 0
M  V30 5242 H 519.007 1.32995 3.64601 0
M  V30 5243 H 517.108 -1.13391 3.54927 0
M  V30 5244 H 517.221 0.290975 4.78216 0
M  V30 5245 H 515.585 0.057993 2.54634 0
M  V30 5246 H 516.368 1.66623 3.00153 0
M  V30 5247 N 518.813 -1.54241 0.323641 0
M  V30 5248 C 520.059 -2.00867 -0.279323 0
M  V30 5249 C 520.392 -1.21146 -1.5178 0
M  V30 5250 O 519.667 -0.29378 -1.92269 0
M  V30 5251 C 519.95 -3.54837 -0.613387 0
M  V30 5252 C 519.803 -4.45284 0.635803 0
M  V30 5253 C 521.122 -4.16186 -1.43099 0
M  V30 5254 H 518.241 -0.730177 -0.100049 0
M  V30 5255 H 520.883 -1.84829 0.440235 0
M  V30 5256 H 519.033 -3.68634 -1.22641 0
M  V30 5257 H 520.705 -4.43357 1.27406 0
M  V30 5258 H 518.948 -4.14956 1.26466 0
M  V30 5259 H 519.619 -5.5084 0.357597 0
M  V30 5260 H 522.095 -4.05964 -0.912814 0
M  V30 5261 H 520.971 -5.24031 -1.6335 0
M  V30 5262 H 521.232 -3.69516 -2.42715 0
M  V30 5263 N 520.291 -0.0518155 -1.57515 0
M  V30 5264 C 521.221 0.920283 -2.146 0
M  V30 5265 C 522.202 1.32406 -1.06783 0
M  V30 5266 O 523.387 1.39866 -1.34726 0
M  V30 5267 C 520.517 2.1949 -2.6915 0
M  V30 5268 C 519.471 1.93116 -3.81956 0
M  V30 5269 C 518.797 3.27037 -4.23026 0
M  V30 5270 C 520.097 1.25225 -5.07066 0
M  V30 5271 H 521.791 0.444801 -2.96077 0
M  V30 5272 H 519.337 0.212508 -1.42423 0
M  V30 5273 H 521.29 2.87894 -3.07725 0
M  V30 5274 H 520.014 2.69244 -1.84865 0
M  V30 5275 H 518.673 1.27123 -3.43854 0
M  V30 5276 H 518.321 3.74595 -3.3569 0
M  V30 5277 H 518.021 3.10189 -4.99056 0
M  V30 5278 H 519.545 3.96673 -4.64202 0
M  V30 5279 H 520.959 1.83666 -5.43083 0
M  V30 5280 H 519.356 1.18702 -5.88243 0
M  V30 5281 H 520.426 0.228382 -4.84362 0
M  V30 5282 N 521.769 1.56035 0.221574 0
M  V30 5283 C 522.997 1.8313 0.962864 0
M  V30 5284 C 523.412 0.630934 1.77946 0
M  V30 5285 O 522.769 -0.400519 1.78051 0
M  V30 5286 C 522.82 3.08742 1.88045 0
M  V30 5287 O 522.541 4.24147 1.09686 0
M  V30 5288 C 524.042 3.48824 2.73563 0
M  V30 5289 H 521.262 0.608775 0.282194 0
M  V30 5290 H 523.806 2.03124 0.23681 0
M  V30 5291 H 521.961 2.90723 2.56045 0
M  V30 5292 H 522.375 4.95505 1.71974 0
M  V30 5293 H 523.849 4.39752 3.3365 0
M  V30 5294 H 524.326 2.70575 3.45956 0
M  V30 5295 H 524.932 3.69282 2.10976 0
M  V30 5296 N 523.247 -0.488276 1.49845 0
M  V30 5297 C 524.658 -1.06955 1.53028 0
M  V30 5298 C 525.009 -1.9351 0.323797 0
M  V30 5299 O 524.134 -2.08891 -0.565116 0
M  V30 5300 C 524.729 -1.94643 2.77307 0
M  V30 5301 C 523.288 -2.4791 2.83227 0
M  V30 5302 C 522.435 -1.25833 2.47106 0
M  V30 5303 H 525.386 -0.271626 1.56358 0
M  V30 5304 H 525.407 -2.79496 2.5819 0
M  V30 5305 H 524.919 -1.31621 3.65099 0
M  V30 5306 H 523.02 -3.14535 1.99745 0
M  V30 5307 H 523.133 -2.84193 3.85709 0
M  V30 5308 H 521.497 -1.58764 1.99163 0
M  V30 5309 H 522.28 -0.644993 3.37186 0
M  V30 5310 N 524.725 -1.39134 -0.740242 0
M  V30 5311 C 525.973 -1.35803 -1.49673 0
M  V30 5312 C 526.294 0.0470897 -1.94943 0
M  V30 5313 O 525.564 0.997347 -1.68611 0
M  V30 5314 H 524.144 -0.499736 -0.555224 0
M  V30 5315 H 526.806 -1.73947 -0.879107 0
M  V30 5316 H 525.902 -2.0174 -2.38133 0
M  V30 5317 N 526.204 0.969867 -1.24223 0
M  V30 5318 C 527.151 2.06407 -1.0327 0
M  V30 5319 C 528.121 1.66014 0.0533 0
M  V30 5320 O 529.306 1.90533 -0.100896 0
M  V30 5321 C 526.446 3.3909 -0.641262 0
M  V30 5322 C 525.559 3.9269 -1.80051 0
M  V30 5323 C 524.694 5.13631 -1.35486 0
M  V30 5324 C 523.733 5.59423 -2.48419 0
M  V30 5325 N 522.87 6.71586 -2.04737 0
M  V30 5326 H 527.71 2.23663 -1.96923 0
M  V30 5327 H 525.247 1.09624 -0.980862 0
M  V30 5328 H 527.205 4.15323 -0.395351 0
M  V30 5329 H 525.835 3.21765 0.258269 0
M  V30 5330 H 524.887 3.13116 -2.16014 0
M  V30 5331 H 526.199 4.22636 -2.64916 0
M  V30 5332 H 525.353 5.97231 -1.0677 0
M  V30 5333 H 524.092 4.85364 -0.476722 0
M  V30 5334 H 523.097 4.74398 -2.77897 0
M  V30 5335 H 524.322 5.89705 -3.36786 0
M  V30 5336 H 522.268 6.45058 -1.19318 0
M  V30 5337 H 522.185 7.0097 -2.83156 0
M  V30 5338 H 523.453 7.58633 -1.79154 0
M  V30 5339 N 527.682 1.05563 1.17022 0
M  V30 5340 C 528.91 0.78845 1.91288 0
M  V30 5341 C 529.325 -0.656318 1.77025 0
M  V30 5342 O 528.682 -1.44869 1.10992 0
M  V30 5343 C 528.733 1.16444 3.42232 0
M  V30 5344 O 528.454 2.5525 3.5606 0
M  V30 5345 C 529.955 0.923937 4.33565 0
M  V30 5346 H 527.175 0.286389 0.606813 0
M  V30 5347 H 529.719 1.4073 1.48375 0
M  V30 5348 H 527.874 0.590266 3.82877 0
M  V30 5349 H 528.288 2.70097 4.49609 0
M  V30 5350 H 529.762 1.23672 5.37968 0
M  V30 5351 H 530.239 -0.140688 4.38975 0
M  V30 5352 H 530.845 1.48214 3.98639 0
M  V30 5353 N 529.16 -1.33526 0.837174 0
M  V30 5354 C 530.571 -1.80182 0.489017 0
M  V30 5355 C 530.922 -1.69285 -0.991826 0
M  V30 5356 O 530.047 -1.24113 -1.77271 0
M  V30 5357 C 530.642 -3.27149 0.880866 0
M  V30 5358 C 529.201 -3.71828 0.584872 0
M  V30 5359 C 528.348 -2.54974 1.09011 0
M  V30 5360 H 531.299 -1.21071 1.02603 0
M  V30 5361 H 531.32 -3.80024 0.190239 0
M  V30 5362 H 530.832 -3.35048 1.95869 0
M  V30 5363 H 528.933 -3.69457 -0.48295 0
M  V30 5364 H 529.046 -4.65366 1.13892 0
M  V30 5365 H 527.41 -2.4952 0.511047 0
M  V30 5366 H 528.193 -2.65637 2.17467 0
M  V30 5367 N 530.638 -0.59345 -1.46 0
M  V30 5368 C 531.887 -0.0808084 -2.01538 0
M  V30 5369 C 532.2 1.29112 -1.46934 0
M  V30 5370 O 533.406 1.8957 -1.94359 0
M  V30 5371 C 531.862 -0.0938311 -3.59778 0
M  V30 5372 C 531.47 -1.46474 -4.23379 0
M  V30 5373 C 533.214 0.364306 -4.22934 0
M  V30 5374 C 531.121 -1.4349 -5.73729 0
M  V30 5375 H 530.051 -0.0264407 -0.753536 0
M  V30 5376 H 532.702 -0.746689 -1.67621 0
M  V30 5377 H 531.084 0.638427 -3.9082 0
M  V30 5378 H 532.258 -2.21758 -4.03931 0
M  V30 5379 H 530.573 -1.86379 -3.7236 0
M  V30 5380 H 533.17 0.405584 -5.3316 0
M  V30 5381 H 533.513 1.38409 -3.92618 0
M  V30 5382 H 534.046 -0.31423 -3.96557 0
M  V30 5383 H 530.785 -2.43184 -6.08722 0
M  V30 5384 H 530.305 -0.724431 -5.95409 0
M  V30 5385 H 531.984 -1.15243 -6.36654 0
M  V30 5386 N 532.116 1.54067 -0.331816 0
M  V30 5387 C 533.364 2.00319 0.267739 0
M  V30 5388 C 533.685 1.22148 1.52003 0
M  V30 5389 O 532.955 0.325494 1.93177 0
M  V30 5390 H 531.535 0.740014 0.101922 0
M  V30 5391 H 534.197 1.89628 -0.450267 0
M  V30 5392 H 533.293 3.07765 0.518385 0
M  V30 5393 N 533.594 0.0601682 1.57485 0
M  V30 5394 C 534.822 -0.620937 1.97363 0
M  V30 5395 C 535.237 -1.63846 0.938082 0
M  V30 5396 O 534.594 -1.82339 -0.0766578 0
M  V30 5397 C 534.645 -1.29987 3.37321 0
M  V30 5398 O 534.366 -0.323081 4.36907 0
M  V30 5399 C 535.867 -2.06989 3.92008 0
M  V30 5400 H 533.087 -0.169135 0.649334 0
M  V30 5401 H 535.631 0.129132 2.04092 0
M  V30 5402 H 533.786 -2.0011 3.31715 0
M  V30 5403 H 534.2 -0.808754 5.18227 0
M  V30 5404 H 535.674 -2.49901 4.92192 0
M  V30 5405 H 536.151 -2.92173 3.2792 0
M  V30 5406 H 536.757 -1.41757 4.0098 0
M  V30 5407 N 535.072 -1.5615 -0.213296 0
M  V30 5408 C 536.483 -1.69645 -0.779582 0
M  V30 5409 C 536.834 -0.663615 -1.84636 0
M  V30 5410 O 535.959 0.183633 -2.15619 0
M  V30 5411 C 536.554 -3.07567 -1.42084 0
M  V30 5412 C 535.113 -3.22889 -1.93442 0
M  V30 5413 C 534.26 -2.65581 -0.797612 0
M  V30 5414 H 537.211 -1.58696 0.0114951 0
M  V30 5415 H 537.232 -3.03884 -2.28986 0
M  V30 5416 H 536.744 -3.82716 -0.644187 0
M  V30 5417 H 534.845 -2.52623 -2.73884 0
M  V30 5418 H 534.958 -4.30197 -2.10872 0
M  V30 5419 H 533.322 -2.24278 -1.20712 0
M  V30 5420 H 534.105 -3.43284 -0.033494 0
M  V30 5421 N 536.55 0.480323 -1.50102 0
M  V30 5422 C 537.513 1.56181 -1.6775 0
M  V30 5423 C 538.513 1.51156 -0.548503 0
M  V30 5424 O 539.703 1.5394 -0.815363 0
M  V30 5425 C 536.835 2.95823 -1.69415 0
M  V30 5426 H 538.028 1.41855 -2.6423 0
M  V30 5427 H 535.581 0.70605 -1.39444 0
M  V30 5428 H 536.316 3.15604 -0.745948 0
M  V30 5429 H 536.101 3.00878 -2.51425 0
M  V30 5430 H 537.591 3.74359 -1.85054 0
M  V30 5431 N 538.028 1.39524 0.732853 0
M  V30 5432 C 538.961 1.32806 1.85574 0
M  V30 5433 C 539.939 0.201354 1.61348 0
M  V30 5434 O 541.123 0.38216 1.84585 0
M  V30 5435 C 538.25 1.06271 3.21596 0
M  V30 5436 C 537.296 2.21161 3.64678 0
M  V30 5437 S 538.129 3.83454 3.73796 0
M  V30 5438 C 539.285 3.59149 5.12604 0
M  V30 5439 H 539.518 2.27838 1.9099 0
M  V30 5440 H 537.051 1.25605 0.897927 0
M  V30 5441 H 539.009 0.916461 4.00139 0
M  V30 5442 H 537.67 0.129223 3.13834 0
M  V30 5443 H 536.863 1.98193 4.63396 0
M  V30 5444 H 536.465 2.32 2.93346 0
M  V30 5445 H 538.757 3.16547 5.99003 0
M  V30 5446 H 539.7 4.57335 5.40602 0
M  V30 5447 H 540.108 2.93203 4.82382 0
M  V30 5448 N 539.506 -0.963266 1.24736 0
M  V30 5449 C 540.454 -2.07985 1.04139 0
M  V30 5450 C 541.448 -1.69381 -0.0250556 0
M  V30 5451 O 542.654 -1.79531 0.129863 0
M  V30 5452 H 539.029 -0.680627 0.319768 0
M  V30 5453 H 541 -2.22517 1.98818 0
M  V30 5454 C 539.749 -3.4123 0.667615 0
M  V30 5455 H 539.072 -3.71397 1.48 0
M  V30 5456 H 540.512 -4.20244 0.563136 0
M  V30 5457 C 538.971 -3.3104 -0.625647 0
M  V30 5458 O 539.501 -3.65334 -1.67016 0
M  V30 5459 N 537.707 -2.84168 -0.608033 0
M  V30 5460 H 537.254 -2.56458 0.242323 0
M  V30 5461 H 537.212 -2.77732 -1.47352 0
M  V30 5462 N 540.985 -1.06182 -1.16461 0
M  V30 5463 C 541.918 -0.615859 -2.19733 0
M  V30 5464 C 542.896 0.360766 -1.58547 0
M  V30 5465 O 544.08 0.270009 -1.86556 0
M  V30 5466 C 541.207 0.097312 -3.3856 0
M  V30 5467 C 540.253 -0.835889 -4.18229 0
M  V30 5468 S 541.086 -2.33052 -4.82128 0
M  V30 5469 C 542.242 -1.62881 -6.04335 0
M  V30 5470 H 542.475 -1.49079 -2.57221 0
M  V30 5471 H 540.008 -0.874692 -1.27234 0
M  V30 5472 H 541.966 0.502563 -4.07412 0
M  V30 5473 H 540.627 0.948418 -2.99439 0
M  V30 5474 H 539.82 -0.283426 -5.03202 0
M  V30 5475 H 539.422 -1.18097 -3.54865 0
M  V30 5476 H 541.714 -0.933764 -6.71034 0
M  V30 5477 H 542.657 -2.45641 -6.64128 0
M  V30 5478 H 543.065 -1.11189 -5.53441 0
M  V30 5479 N 542.463 1.3308 -0.844243 0
M  V30 5480 C 543.426 2.27403 -0.286485 0
M  V30 5481 C 544.426 1.51179 0.547872 0
M  V30 5482 O 545.616 1.70421 0.360886 0
M  V30 5483 C 542.748 3.35653 0.595813 0
M  V30 5484 H 543.941 2.78248 -1.11885 0
M  V30 5485 H 541.494 1.43574 -0.617749 0
M  V30 5486 H 542.229 2.90058 1.4504 0
M  V30 5487 H 542.014 3.921 -0.00125994 0
M  V30 5488 H 543.504 4.05958 0.979168 0
M  V30 5489 N 543.941 0.601185 1.45683 0
M  V30 5490 C 545.169 0.100054 2.06658 0
M  V30 5491 C 545.584 -1.21285 1.44691 0
M  V30 5492 O 544.941 -1.73735 0.558772 0
M  V30 5493 C 544.992 -0.0528579 3.61461 0
M  V30 5494 O 544.713 1.20809 4.21114 0
M  V30 5495 C 546.214 -0.586193 4.39407 0
M  V30 5496 H 543.434 0.065905 0.667756 0
M  V30 5497 H 545.978 0.827101 1.87028 0
M  V30 5498 H 544.133 -0.730203 3.80456 0
M  V30 5499 H 544.547 1.03368 5.14213 0
M  V30 5500 H 546.021 -0.642297 5.4825 0
M  V30 5501 H 546.498 -1.60713 4.0874 0
M  V30 5502 H 547.104 0.0568935 4.25262 0
M  V30 5503 N 545.419 -1.53889 0.339982 0
M  V30 5504 C 546.83 -1.86139 -0.144671 0
M  V30 5505 C 547.181 -1.2613 -1.50285 0
M  V30 5506 O 546.306 -0.573515 -2.08662 0
M  V30 5507 C 546.901 -3.37728 -0.269285 0
M  V30 5508 C 545.46 -3.69868 -0.698168 0
M  V30 5509 C 544.607 -2.76777 0.170249 0
M  V30 5510 H 547.558 -1.48503 0.559704 0
M  V30 5511 H 547.579 -3.64331 -1.0974 0
M  V30 5512 H 547.091 -3.81375 0.719366 0
M  V30 5513 H 545.192 -3.31764 -1.69597 0
M  V30 5514 H 545.305 -4.76582 -0.490533 0
M  V30 5515 H 543.669 -2.52188 -0.356844 0
M  V30 5516 H 544.452 -3.23253 1.15597 0
M  V30 5517 N 546.897 -0.0685191 -1.57451 0
M  V30 5518 C 548.125 0.610462 -1.97689 0
M  V30 5519 C 548.54 1.63346 -0.946758 0
M  V30 5520 O 547.897 1.82377 0.0669868 0
M  V30 5521 C 547.948 1.28196 -3.38006 0
M  V30 5522 O 547.669 0.299906 -4.37072 0
M  V30 5523 C 549.17 2.04907 -3.931 0
M  V30 5524 H 546.39 0.165689 -0.650222 0
M  V30 5525 H 548.934 -0.139953 -2.04021 0
M  V30 5526 H 547.089 1.98348 -3.32771 0
M  V30 5527 H 547.503 0.78126 -5.18649 0
M  V30 5528 H 548.977 2.47287 -4.93511 0
M  V30 5529 H 549.454 2.9043 -3.29465 0
M  V30 5530 H 550.06 1.39629 -4.01726 0
M  V30 5531 N 548.375 1.56261 0.205012 0
M  V30 5532 C 549.786 1.70056 0.770574 0
M  V30 5533 C 550.137 0.673398 1.84282 0
M  V30 5534 O 549.262 -0.172196 2.15714 0
M  V30 5535 C 549.857 3.08316 1.40451 0
M  V30 5536 C 548.416 3.2391 1.91727 0
M  V30 5537 C 547.563 2.66001 0.783516 0
M  V30 5538 H 550.514 1.58688 -0.019911 0
M  V30 5539 H 550.535 3.05094 2.27371 0
M  V30 5540 H 550.047 3.83053 0.623882 0
M  V30 5541 H 548.148 2.54072 2.7254 0
M  V30 5542 H 548.261 4.3131 2.08588 0
M  V30 5543 H 546.625 2.24915 1.19521 0
M  V30 5544 H 547.408 3.43297 0.0152883 0
M  V30 5545 N 549.853 -0.472356 1.50355 0
M  V30 5546 C 551.101 -1.22211 1.60962 0
M  V30 5547 C 551.422 -1.92497 0.311439 0
M  V30 5548 O 550.692 -1.8405 -0.671002 0
M  V30 5549 H 549.272 -0.454092 0.593135 0
M  V30 5550 H 551.934 -0.544977 1.87126 0
M  V30 5551 H 551.03 -1.9707 2.42012 0
M  V30 5552 N 551.331 -1.39911 -0.725443 0
M  V30 5553 C 552.281 -1.35878 -1.83088 0
M  V30 5554 C 553.265 -0.237989 -1.5913 0
M  V30 5555 O 554.457 -0.476302 -1.70471 0
M  V30 5556 C 551.586 -1.21403 -3.21117 0
M  V30 5557 C 550.672 -2.38223 -3.50871 0
M  V30 5558 N 551.063 -3.63703 -3.51502 0
M  V30 5559 C 549.361 -2.31388 -3.81281 0
M  V30 5560 C 550.062 -4.4101 -3.79322 0
M  V30 5561 N 549.038 -3.7072 -3.97577 0
M  V30 5562 H 552.84 -2.3085 -1.81895 0
M  V30 5563 H 550.354 -1.33543 -0.924125 0
M  V30 5564 H 552.351 -1.16597 -4.00263 0
M  V30 5565 H 551.011 -0.273902 -3.23543 0
M  V30 5566 H 552.022 -3.96998 -3.32586 0
M  V30 5567 H 548.699 -1.45689 -3.91256 0
M  V30 5568 H 550.089 -5.49819 -3.86198 0
M  V30 5569 N 552.809 0.956637 -1.25245 0
M  V30 5570 C 554.058 1.69537 -1.0927 0
M  V30 5571 C 554.371 1.92136 0.366503 0
M  V30 5572 O 555.577 2.63687 0.64665 0
M  V30 5573 C 554.033 3.05211 -1.9072 0
M  V30 5574 C 553.641 2.90416 -3.41119 0
M  V30 5575 C 555.385 3.82882 -1.83308 0
M  V30 5576 C 553.292 4.21468 -4.14872 0
M  V30 5577 H 552.222 0.635804 -0.405302 0
M  V30 5578 H 554.873 1.06513 -1.49423 0
M  V30 5579 H 553.255 3.69128 -1.43389 0
M  V30 5580 H 554.429 2.35444 -3.9611 0
M  V30 5581 H 552.744 2.26203 -3.49602 0
M  V30 5582 H 555.341 4.79944 -2.35706 0
M  V30 5583 H 555.684 4.0853 -0.800572 0
M  V30 5584 H 556.217 3.25711 -2.28379 0
M  V30 5585 H 552.956 4.01009 -5.18529 0
M  V30 5586 H 552.476 4.76213 -3.64665 0
M  V30 5587 H 554.155 4.90022 -4.22478 0
M  V30 5588 N 554.287 1.06798 1.15896 0
M  V30 5589 C 555.22 0.627503 2.19403 0
M  V30 5590 C 556.198 -0.352352 1.58736 0
M  V30 5591 O 557.382 -0.260111 1.86697 0
M  V30 5592 C 554.509 -0.079356 3.38607 0
M  V30 5593 C 553.555 0.858057 4.17779 0
M  V30 5594 S 554.388 2.35605 4.80885 0
M  V30 5595 C 555.544 1.66083 6.03463 0
M  V30 5596 H 555.777 1.50441 2.56427 0
M  V30 5597 H 553.31 0.881427 1.26768 0
M  V30 5598 H 555.268 -0.48095 4.07673 0
M  V30 5599 H 553.929 -0.932524 2.99938 0
M  V30 5600 H 553.122 0.310108 5.03045 0
M  V30 5601 H 552.724 1.19977 3.54234 0
M  V30 5602 H 555.016 0.969337 6.7053 0
M  V30 5603 H 555.959 2.49159 6.62816 0
M  V30 5604 H 556.367 1.14122 5.52844 0
M  V30 5605 N 555.766 -1.3263 0.851289 0
M  V30 5606 C 556.991 -2.02097 0.466006 0
M  V30 5607 C 557.416 -1.63574 -0.928709 0
M  V30 5608 O 556.774 -0.834665 -1.60944 0
M  V30 5609 C 556.822 -3.55425 0.608737 0
M  V30 5610 O 555.926 -4.10827 -0.359878 0
M  V30 5611 H 555.267 -0.636911 0.187724 0
M  V30 5612 H 557.797 -1.69253 1.14955 0
M  V30 5613 H 557.807 -4.04986 0.495006 0
M  V30 5614 H 556.482 -3.82806 1.62581 0
M  V30 5615 H 555.059 -3.72349 -0.202666 0
M  V30 5616 N 557.244 -0.608902 -1.45362 0
M  V30 5617 C 558.177 0.158059 -2.27652 0
M  V30 5618 C 559.155 0.872397 -1.37215 0
M  V30 5619 O 560.339 0.881002 -1.66645 0
M  V30 5620 C 557.466 1.22896 -3.15617 0
M  V30 5621 C 556.512 0.617607 -4.22005 0
M  V30 5622 S 557.345 -0.575518 -5.32398 0
M  V30 5623 C 558.501 0.495938 -6.23932 0
M  V30 5624 H 558.734 -0.540095 -2.92353 0
M  V30 5625 H 556.267 -0.396456 -1.49223 0
M  V30 5626 H 558.225 1.84195 -3.66855 0
M  V30 5627 H 556.886 1.89919 -2.50179 0
M  V30 5628 H 556.079 1.42341 -4.83482 0
M  V30 5629 H 555.681 0.0797273 -3.73915 0
M  V30 5630 H 557.973 1.37465 -6.63408 0
M  V30 5631 H 558.916 -0.0827108 -7.08052 0
M  V30 5632 H 559.324 0.811856 -5.58631 0
M  V30 5633 N 558.722 1.53707 -0.348139 0
M  V30 5634 C 559.95 2.05406 0.248224 0
M  V30 5635 C 560.365 1.22282 1.43849 0
M  V30 5636 O 559.722 0.259244 1.80649 0
M  V30 5637 C 559.773 3.55446 0.658793 0
M  V30 5638 O 559.494 4.35417 -0.484149 0
M  V30 5639 C 560.995 4.23335 1.31539 0
M  V30 5640 H 558.215 0.669344 0.0471075 0
M  V30 5641 H 560.759 1.98257 -0.501456 0
M  V30 5642 H 558.914 3.62803 1.35841 0
M  V30 5643 H 559.328 5.24268 -0.155949 0
M  V30 5644 H 560.802 5.29692 1.55338 0
M  V30 5645 H 561.279 3.75967 2.27036 0
M  V30 5646 H 561.885 4.20184 0.657683 0
M  V30 5647 N 560.2 0.0768682 1.57412 0
M  V30 5648 C 561.611 -0.455037 1.8107 0
M  V30 5649 C 561.962 -1.69323 0.991162 0
M  V30 5650 O 561.087 -2.15328 0.215156 0
M  V30 5651 C 561.682 -0.832316 3.28417 0
M  V30 5652 C 560.241 -1.30906 3.52903 0
M  V30 5653 C 559.388 -0.296714 2.75708 0
M  V30 5654 H 562.339 0.302514 1.5579 0
M  V30 5655 H 562.36 -1.69333 3.40744 0
M  V30 5656 H 561.872 0.0690532 3.88039 0
M  V30 5657 H 559.973 -2.22875 2.98592 0
M  V30 5658 H 560.086 -1.28348 4.61588 0
M  V30 5659 H 558.45 -0.775059 2.42621 0
M  V30 5660 H 559.233 0.597015 3.38069 0
M  V30 5661 N 561.678 -1.56367 -0.196722 0
M  V30 5662 C 562.588 -1.97617 -1.2643 0
M  V30 5663 C 563.604 -0.883598 -1.49895 0
M  V30 5664 O 564.78 -1.18921 -1.62541 0
M  V30 5665 C 561.845 -2.30595 -2.58895 0
M  V30 5666 C 560.906 -3.53551 -2.43516 0
M  V30 5667 C 560.139 -3.84946 -3.69665 0
M  V30 5668 O 560.362 -3.17655 -4.73763 0
M  V30 5669 O 559.296 -4.78379 -3.65291 0
M  V30 5670 H 563.122 -2.88648 -0.944233 0
M  V30 5671 H 560.707 -1.43901 -0.401592 0
M  V30 5672 H 562.589 -2.52889 -3.37083 0
M  V30 5673 H 561.264 -1.42732 -2.90533 0
M  V30 5674 H 560.171 -3.36507 -1.63445 0
M  V30 5675 H 561.504 -4.41875 -2.16812 0
M  V30 5676 N 563.156 0.464375 -1.50603 0
M  V30 5677 C 564.088 1.57916 -1.66118 0
M  V30 5678 C 565.101 1.53497 -0.54246 0
M  V30 5679 O 566.29 1.58763 -0.815877 0
M  V30 5680 C 563.39 2.96809 -1.63577 0
M  V30 5681 C 562.563 3.26026 -2.91592 0
M  V30 5682 C 561.622 4.44506 -2.81604 0
M  V30 5683 O 560.648 4.44484 -3.55559 0
M  V30 5684 N 561.85 5.46549 -1.95614 0
M  V30 5685 H 564.615 1.45022 -2.62276 0
M  V30 5686 H 562.176 0.652903 -1.48151 0
M  V30 5687 H 564.168 3.74048 -1.54499 0
M  V30 5688 H 562.738 3.03438 -0.751262 0
M  V30 5689 H 561.958 2.37337 -3.14746 0
M  V30 5690 H 563.246 3.42361 -3.76386 0
M  V30 5691 H 562.644 5.49391 -1.34854 0
M  V30 5692 H 561.201 6.22746 -1.92435 0
M  V30 5693 N 564.634 1.40294 0.718013 0
M  V30 5694 C 565.564 1.43118 1.84498 0
M  V30 5695 C 566.545 0.292403 1.67568 0
M  V30 5696 O 567.73 0.500675 1.87635 0
M  V30 5697 C 564.86 1.29065 3.22427 0
M  V30 5698 C 563.814 2.40521 3.54025 0
M  V30 5699 C 563.14 2.11546 4.91073 0
M  V30 5700 C 564.44 3.82859 3.55269 0
M  V30 5701 H 566.134 2.37432 1.82391 0
M  V30 5702 H 563.68 1.14283 0.87609 0
M  V30 5703 H 565.633 1.29658 4.00957 0
M  V30 5704 H 564.357 0.312271 3.25104 0
M  V30 5705 H 563.016 2.39173 2.77834 0
M  V30 5706 H 562.664 1.12104 4.90348 0
M  V30 5707 H 562.364 2.86216 5.1318 0
M  V30 5708 H 563.888 2.13817 5.71939 0
M  V30 5709 H 565.302 3.86044 4.23843 0
M  V30 5710 H 563.699 4.57029 3.88902 0
M  V30 5711 H 564.769 4.12617 2.54706 0
M  V30 5712 N 566.112 -0.949982 1.2575 0
M  V30 5713 C 567.044 -2.05088 1.02331 0
M  V30 5714 C 568.057 -1.62795 -0.0133247 0
M  V30 5715 O 569.246 -1.77067 0.225759 0
M  V30 5716 C 566.346 -3.34794 0.525924 0
M  V30 5717 C 565.519 -4.05903 1.62978 0
M  V30 5718 C 564.578 -5.1388 1.13196 0
M  V30 5719 O 563.604 -5.39072 1.82729 0
M  V30 5720 N 564.806 -5.80495 -0.0242926 0
M  V30 5721 H 567.571 -2.25747 1.97125 0
M  V30 5722 H 565.132 -1.11886 1.17018 0
M  V30 5723 H 567.124 -4.04312 0.177263 0
M  V30 5724 H 565.694 -3.10872 -0.328202 0
M  V30 5725 H 564.914 -3.3042 2.1498 0
M  V30 5726 H 566.202 -4.50166 2.37124 0
M  V30 5727 H 565.6 -5.62454 -0.605184 0
M  V30 5728 H 564.157 -6.51043 -0.313947 0
M  V30 5729 N 567.59 -1.07411 -1.15328 0
M  V30 5730 C 568.553 -0.698914 -2.18284 0
M  V30 5731 C 569.553 0.261149 -1.58665 0
M  V30 5732 O 570.743 0.0420277 -1.74149 0
M  V30 5733 C 567.875 -0.0302427 -3.40887 0
M  V30 5734 H 569.068 -1.61045 -2.52991 0
M  V30 5735 H 566.621 -0.870724 -1.298 0
M  V30 5736 H 567.356 0.893505 -3.11748 0
M  V30 5737 H 567.141 -0.720759 -3.85419 0
M  V30 5738 H 568.631 0.21759 -4.17033 0
M  V30 5739 N 569.068 1.32177 -0.85831 0
M  V30 5740 C 570.314 1.97813 -0.47346 0
M  V30 5741 C 570.669 1.66674 0.961122 0
M  V30 5742 O 569.962 0.94657 1.66585 0
M  V30 5743 C 570.156 3.51372 -0.653658 0
M  V30 5744 C 569.985 3.97433 -2.1042 0
M  V30 5745 C 568.755 4.24338 -2.74345 0
M  V30 5746 C 570.953 4.12233 -3.0752 0
M  V30 5747 N 568.935 4.56672 -4.10272 0
M  V30 5748 C 570.306 4.48146 -4.28445 0
M  V30 5749 C 572.361 3.94577 -3.03667 0
M  V30 5750 C 571.064 4.68246 -5.4602 0
M  V30 5751 C 573.09 4.15864 -4.20489 0
M  V30 5752 C 572.452 4.52098 -5.40173 0
M  V30 5753 H 568.551 0.749808 -0.222061 0
M  V30 5754 H 571.135 1.59927 -1.11047 0
M  V30 5755 H 569.306 3.88372 -0.0463267 0
M  V30 5756 H 571.038 4.03998 -0.238343 0
M  V30 5757 H 567.793 4.16544 -2.25362 0
M  V30 5758 H 568.217 4.77019 -4.80398 0
M  V30 5759 H 572.859 3.65662 -2.12252 0
M  V30 5760 H 570.577 4.96014 -6.37962 0
M  V30 5761 H 574.163 4.03702 -4.18947 0
M  V30 5762 H 573.043 4.68238 -6.29065 0
M  V30 5763 N 570.547 0.616602 1.45037 0
M  V30 5764 C 571.963 0.280994 1.57107 0
M  V30 5765 C 572.163 -1.21627 1.60653 0
M  V30 5766 O 571.219 -1.9997 1.54169 0
M  V30 5767 C 572.532 0.960116 2.8496 0
M  V30 5768 C 574.08 0.936884 2.98649 0
M  V30 5769 C 574.555 1.59619 4.29285 0
M  V30 5770 N 576.046 1.5621 4.36065 0
M  V30 5771 C 576.781 2.04131 5.35834 0
M  V30 5772 N 576.277 2.60177 6.4209 0
M  V30 5773 N 578.07 1.94845 5.27249 0
M  V30 5774 H 570.221 1.58867 1.40979 0
M  V30 5775 H 572.484 0.666024 0.674623 0
M  V30 5776 H 572.19 2.01473 2.88273 0
M  V30 5777 H 572.064 0.488921 3.74018 0
M  V30 5778 H 574.451 -0.109209 2.94898 0
M  V30 5779 H 574.532 1.44643 2.10979 0
M  V30 5780 H 574.176 2.64166 4.33796 0
M  V30 5781 H 574.106 1.06159 5.15789 0
M  V30 5782 H 576.597 1.15276 3.59889 0
M  V30 5783 H 576.91 2.94513 7.1448 0
M  V30 5784 H 575.255 2.64221 6.42816 0
M  V30 5785 H 578.446 1.50792 4.43147 0
M  V30 5786 H 578.619 2.32504 6.04852 0
M  V30 5787 N 572.025 -1.5352 0.356285 0
M  V30 5788 C 573.271 -2.02104 -0.229271 0
M  V30 5789 C 573.626 -1.23923 -1.47176 0
M  V30 5790 O 572.919 -0.321957 -1.88876 0
M  V30 5791 C 573.113 -3.52607 -0.583369 0
M  V30 5792 C 572.942 -4.4536 0.623253 0
M  V30 5793 C 571.712 -4.92446 1.13248 0
M  V30 5794 C 573.91 -4.92375 1.48563 0
M  V30 5795 N 571.892 -5.69183 2.3001 0
M  V30 5796 C 573.263 -5.67362 2.50001 0
M  V30 5797 C 575.318 -4.74464 1.50959 0
M  V30 5798 C 574.021 -6.26341 3.5368 0
M  V30 5799 C 576.047 -5.34302 2.53526 0
M  V30 5800 C 575.409 -6.09166 3.53688 0
M  V30 5801 H 571.508 -0.780595 -0.0468602 0
M  V30 5802 H 574.092 -1.88204 0.49873 0
M  V30 5803 H 572.263 -3.66686 -1.28046 0
M  V30 5804 H 573.995 -3.87922 -1.15321 0
M  V30 5805 H 570.75 -4.6842 0.698562 0
M  V30 5806 H 571.174 -6.12216 2.88998 0
M  V30 5807 H 575.816 -4.16117 0.748785 0
M  V30 5808 H 573.534 -6.8379 4.30648 0
M  V30 5809 H 577.12 -5.22342 2.56223 0
M  V30 5810 H 576 -6.54644 4.31753 0
M  V30 5811 N 573.503 -0.0852151 -1.57369 0
M  V30 5812 C 574.413 0.891712 -2.16992 0
M  V30 5813 C 575.429 1.3174 -1.13669 0
M  V30 5814 O 576.605 1.38735 -1.45995 0
M  V30 5815 C 573.67 2.13635 -2.73059 0
M  V30 5816 C 572.731 1.7658 -3.91303 0
M  V30 5817 C 571.964 2.95111 -4.44686 0
M  V30 5818 O 572.187 4.09539 -3.97032 0
M  V30 5819 O 571.121 2.74149 -5.35841 0
M  V30 5820 H 574.947 0.414477 -3.00858 0
M  V30 5821 H 572.532 0.138598 -1.48756 0
M  V30 5822 H 574.414 2.86595 -3.08935 0
M  V30 5823 H 573.089 2.6043 -1.92244 0
M  V30 5824 H 571.996 1.00831 -3.60255 0
M  V30 5825 H 573.329 1.34557 -4.7345 0
M  V30 5826 N 574.981 1.5647 0.188427 0
M  V30 5827 C 576.397 1.50204 0.539532 0
M  V30 5828 C 576.597 0.78644 1.85519 0
M  V30 5829 O 575.653 0.339714 2.50204 0
M  V30 5830 C 576.966 2.94893 0.588103 0
M  V30 5831 C 578.514 3.05602 0.67648 0
M  V30 5832 C 578.989 4.51716 0.756101 0
M  V30 5833 N 580.48 4.55894 0.819451 0
M  V30 5834 C 581.215 5.66272 0.90134 0
M  V30 5835 N 580.711 6.86323 0.945118 0
M  V30 5836 N 582.504 5.54201 0.939043 0
M  V30 5837 H 574.655 2.01406 -0.674493 0
M  V30 5838 H 576.918 0.916828 -0.241103 0
M  V30 5839 H 576.624 3.50334 -0.309633 0
M  V30 5840 H 576.498 3.4861 1.44051 0
M  V30 5841 H 578.885 2.50206 1.56465 0
M  V30 5842 H 578.966 2.54999 -0.202262 0
M  V30 5843 H 578.61 5.07739 -0.12774 0
M  V30 5844 H 578.54 5.00058 1.65074 0
M  V30 5845 H 581.031 3.69452 0.794594 0
M  V30 5846 H 581.344 7.66194 1.0083 0
M  V30 5847 H 579.689 6.88968 0.913683 0
M  V30 5848 H 582.88 4.59333 0.901725 0
M  V30 5849 H 583.053 6.40247 0.999402 0
M  V30 5850 N 576.459 -0.456382 1.50847 0
M  V30 5851 C 577.369 -1.57805 1.73594 0
M  V30 5852 C 578.385 -1.62599 0.619476 0
M  V30 5853 O 579.561 -1.80195 0.899532 0
M  V30 5854 C 576.626 -2.93926 1.8387 0
M  V30 5855 C 575.687 -2.99402 3.07663 0
M  V30 5856 C 574.92 -4.29031 3.1744 0
M  V30 5857 O 575.143 -5.20358 2.33631 0
M  V30 5858 O 574.077 -4.40401 4.10281 0
M  V30 5859 H 577.903 -1.41531 2.68705 0
M  V30 5860 H 575.488 -0.637422 1.3512 0
M  V30 5861 H 577.37 -3.74747 1.92725 0
M  V30 5862 H 576.045 -3.10368 0.91944 0
M  V30 5863 H 574.952 -2.17606 3.043 0
M  V30 5864 H 576.285 -2.87901 3.99216 0
M  V30 5865 N 577.937 -1.40673 -0.710563 0
M  V30 5866 C 579.186 -1.38525 -1.46607 0
M  V30 5867 C 579.499 0.0077024 -1.95598 0
M  V30 5868 O 580.705 0.151792 -2.71075 0
M  V30 5869 C 579.161 -2.43489 -2.6503 0
M  V30 5870 C 578.769 -3.88619 -2.22888 0
M  V30 5871 C 580.513 -2.50456 -3.42742 0
M  V30 5872 C 578.42 -4.85168 -3.3818 0
M  V30 5873 H 577.35 -0.515092 -0.550632 0
M  V30 5874 H 580.001 -1.66431 -0.772846 0
M  V30 5875 H 578.383 -2.0869 -3.36548 0
M  V30 5876 H 579.557 -4.32588 -1.58758 0
M  V30 5877 H 577.872 -3.85174 -1.58208 0
M  V30 5878 H 580.469 -3.19776 -4.28541 0
M  V30 5879 H 580.812 -1.53665 -3.86902 0
M  V30 5880 H 581.345 -2.84271 -2.78271 0
M  V30 5881 H 578.084 -5.8331 -2.99047 0
M  V30 5882 H 577.604 -4.4586 -4.01209 0
M  V30 5883 H 579.283 -5.05225 -4.04174 0
M  V30 5884 N 579.415 0.9433 -1.26252 0
M  V30 5885 C 580.692 1.66639 -1.02424 0
M  V30 5886 C 581.072 2.06335 0.446006 0
M  V30 5887 O 580.42 1.78551 1.42589 0
M  V30 5888 C 580.63 2.88019 -1.97094 0
M  V30 5889 C 581.978 3.59718 -2.25584 0
M  V30 5890 O 583.002 2.9812 -1.94943 0
M  V30 5891 O 581.861 4.7066 -2.77743 0
M  V30 5892 H 578.955 0.729643 -0.389294 0
M  V30 5893 H 581.501 0.995218 -1.37454 0
M  V30 5894 H 580.273 2.5556 -2.96319 0
M  V30 5895 H 579.896 3.62863 -1.62532 0
M  V30 5896 N 580.893 1.08022 1.14757 0
M  V30 5897 C 581.803 0.718292 2.23333 0
M  V30 5898 C 582.819 -0.273477 1.71837 0
M  V30 5899 O 583.995 -0.118406 2.01052 0
M  V30 5900 C 581.06 0.128855 3.4646 0
M  V30 5901 C 580.121 1.17473 4.12915 0
M  V30 5902 C 579.354 0.61333 5.30164 0
M  V30 5903 O 579.577 -0.568458 5.6756 0
M  V30 5904 O 578.511 1.3615 5.86299 0
M  V30 5905 H 582.337 1.62394 2.56636 0
M  V30 5906 H 579.922 0.853628 1.22611 0
M  V30 5907 H 581.804 -0.197249 4.20938 0
M  V30 5908 H 580.479 -0.750014 3.14891 0
M  V30 5909 H 579.386 1.5533 3.40328 0
M  V30 5910 H 580.719 2.02574 4.48581 0
M  V30 5911 N 582.371 -1.3172 0.865308 0
M  V30 5912 C 583.787 -1.4958 0.556596 0
M  V30 5913 C 583.987 -1.79763 -0.910353 0
M  V30 5914 O 583.043 -1.87351 -1.6928 0
M  V30 5915 C 584.356 -2.63277 1.45279 0
M  V30 5916 C 585.904 -2.77161 1.45433 0
M  V30 5917 C 586.379 -3.93949 2.33598 0
M  V30 5918 N 587.87 -4.01228 2.31453 0
M  V30 5919 C 588.605 -4.90855 2.96393 0
M  V30 5920 N 588.101 -5.85416 3.70486 0
M  V30 5921 N 589.894 -4.84063 2.85726 0
M  V30 5922 H 582.045 -1.10396 1.81456 0
M  V30 5923 H 584.308 -0.54507 0.775631 0
M  V30 5924 H 584.014 -2.47734 2.49641 0
M  V30 5925 H 583.888 -3.59309 1.14792 0
M  V30 5926 H 586.275 -2.9212 0.41831 0
M  V30 5927 H 586.356 -1.8181 1.79941 0
M  V30 5928 H 586 -3.79748 3.37274 0
M  V30 5929 H 585.93 -4.88598 1.96417 0
M  V30 5930 H 588.421 -3.3357 1.77593 0
M  V30 5931 H 588.734 -6.50525 4.17178 0
M  V30 5932 H 587.079 -5.85409 3.74594 0
M  V30 5933 H 590.27 -4.09163 2.27384 0
M  V30 5934 H 590.443 -5.53708 3.36617 0
M  V30 5935 N 583.85 -0.624285 -1.44708 0
M  V30 5936 C 584.798 0.0969952 -2.32398 0
M  V30 5937 C 585.792 0.842762 -1.46949 0
M  V30 5938 O 586.998 0.756436 -1.63334 0
M  V30 5939 H 583.373 0.0501306 -0.750327 0
M  V30 5940 H 585.344 -0.660767 -2.90992 0
M  V30 5941 C 584.093 1.06967 -3.30837 0
M  V30 5942 H 583.416 0.505242 -3.96595 0
M  V30 5943 H 584.856 1.54397 -3.94889 0
M  V30 5944 C 583.315 2.15153 -2.5925 0
M  V30 5945 O 583.845 3.23139 -2.3863 0
M  V30 5946 N 582.051 1.90898 -2.19103 0
M  V30 5947 H 581.598 1.03086 -2.36074 0
M  V30 5948 H 581.556 2.63485 -1.71531 0
M  V30 5949 N 585.328 1.53329 -0.364422 0
M  V30 5950 C 586.744 1.59594 -0.0133165 0
M  V30 5951 C 586.944 1.37959 1.46865 0
M  V30 5952 O 586 1.18418 2.2301 0
M  V30 5953 C 587.313 2.97032 -0.468213 0
M  V30 5954 C 588.861 3.10138 -0.422334 0
M  V30 5955 C 589.336 4.49986 -0.853024 0
M  V30 5956 N 590.827 4.56098 -0.808037 0
M  V30 5957 C 591.562 5.62495 -1.11299 0
M  V30 5958 N 591.058 6.7665 -1.48717 0
M  V30 5959 N 592.851 5.52473 -1.03586 0
M  V30 5960 H 585.002 1.65644 -1.32951 0
M  V30 5961 H 587.265 0.77684 -0.543345 0
M  V30 5962 H 586.971 3.18 -1.5023 0
M  V30 5963 H 586.845 3.76918 0.145775 0
M  V30 5964 H 589.232 2.88881 0.602622 0
M  V30 5965 H 589.313 2.32263 -1.0718 0
M  V30 5966 H 588.957 4.7198 -1.87609 0
M  V30 5967 H 588.887 5.26289 -0.180819 0
M  V30 5968 H 591.378 3.74131 -0.532361 0
M  V30 5969 H 591.691 7.53776 -1.70415 0
M  V30 5970 H 590.036 6.78044 -1.52581 0
M  V30 5971 H 593.227 4.6217 -0.742736 0
M  V30 5972 H 593.4 6.35295 -1.27686 0
M  V30 5973 N 586.806 0.0935595 1.57322 0
M  V30 5974 C 588.217 -0.435807 1.81542 0
M  V30 5975 C 588.568 -1.68263 1.00907 0
M  V30 5976 O 587.693 -2.15087 0.237983 0
M  V30 5977 C 588.288 -0.797436 3.29282 0
M  V30 5978 C 586.847 -1.27155 3.54272 0
M  V30 5979 C 585.994 -0.267455 2.76007 0
M  V30 5980 H 588.945 0.31902 1.5546 0
M  V30 5981 H 588.966 -1.6571 3.42521 0
M  V30 5982 H 588.478 0.110206 3.87943 0
M  V30 5983 H 586.579 -2.19696 3.00939 0
M  V30 5984 H 586.692 -1.23445 4.62923 0
M  V30 5985 H 585.056 -0.749282 2.43429 0
M  V30 5986 H 585.839 0.632839 3.37417 0
M  V30 5987 N 588.284 -1.56567 -0.180126 0
M  V30 5988 C 589.214 -1.98753 -1.22553 0
M  V30 5989 C 590.195 -0.86175 -1.46656 0
M  V30 5990 O 591.38 -1.12719 -1.58139 0
M  V30 5991 C 588.51 -2.33988 -2.56645 0
M  V30 5992 C 587.464 -3.49445 -2.47128 0
M  V30 5993 C 586.79 -3.70397 -3.8563 0
M  V30 5994 C 588.09 -4.83171 -1.98352 0
M  V30 5995 H 589.784 -2.86332 -0.874896 0
M  V30 5996 H 587.33 -1.37757 -0.419414 0
M  V30 5997 H 589.283 -2.62097 -3.29974 0
M  V30 5998 H 588.007 -1.43309 -2.93479 0
M  V30 5999 H 586.666 -3.2145 -1.76254 0
M  V30 6000 H 586.314 -2.77023 -4.19842 0
M  V30 6001 H 586.014 -4.48077 -3.80132 0
M  V30 6002 H 587.538 -4.00897 -4.60558 0
M  V30 6003 H 588.952 -5.10213 -2.61449 0
M  V30 6004 H 587.349 -5.64425 -2.03823 0
M  V30 6005 H 588.419 -4.75753 -0.937402 0
M  V30 6006 N 589.762 0.448376 -1.51087 0
M  V30 6007 C 590.987 1.22605 -1.6728 0
M  V30 6008 C 591.412 1.84524 -0.365045 0
M  V30 6009 O 590.77 1.6832 0.673642 0
M  V30 6010 C 590.818 2.29393 -2.78229 0
M  V30 6011 O 589.922 3.34608 -2.41063 0
M  V30 6012 H 589.263 0.359705 -0.558129 0
M  V30 6013 H 591.793 0.530903 -1.97592 0
M  V30 6014 H 591.803 2.74352 -3.01986 0
M  V30 6015 H 590.478 1.83701 -3.73131 0
M  V30 6016 H 589.055 2.95202 -2.27838 0
M  V30 6017 N 591.24 1.41047 0.703093 0
M  V30 6018 C 592.517 1.30493 1.45708 0
M  V30 6019 C 592.897 -0.0709892 2.10981 0
M  V30 6020 O 592.245 -1.08471 2.01113 0
M  V30 6021 C 592.455 2.45287 2.48265 0
M  V30 6022 C 593.803 2.86104 3.13735 0
M  V30 6023 O 594.827 2.44971 2.58587 0
M  V30 6024 O 593.686 3.57206 4.13601 0
M  V30 6025 H 590.78 0.513144 0.648546 0
M  V30 6026 H 593.326 1.52995 0.734208 0
M  V30 6027 H 592.098 3.37135 1.98635 0
M  V30 6028 H 591.721 2.24622 3.28071 0
M  V30 6029 N 592.718 -0.936591 1.26751 0
M  V30 6030 C 593.628 -2.06949 1.10496 0
M  V30 6031 C 594.644 -1.7396 0.037271 0
M  V30 6032 O 595.82 -1.99941 0.241944 0
M  V30 6033 C 592.885 -3.38612 0.744491 0
M  V30 6034 C 591.946 -3.85355 1.89209 0
M  V30 6035 C 591.179 -5.10735 1.54873 0
M  V30 6036 O 591.402 -5.68602 0.452546 0
M  V30 6037 O 590.336 -5.52632 2.38499 0
M  V30 6038 H 594.162 -2.23571 2.05547 0
M  V30 6039 H 591.747 -1.05428 1.05855 0
M  V30 6040 H 593.629 -4.17711 0.556396 0
M  V30 6041 H 592.304 -3.23218 -0.176582 0
M  V30 6042 H 591.211 -3.07182 2.13518 0
M  V30 6043 H 592.544 -4.05277 2.79305 0
M  V30 6044 N 594.196 -1.08629 -1.14182 0
M  V30 6045 C 595.106 -0.730126 -2.22949 0
M  V30 6046 C 596.122 0.26436 -1.7198 0
M  V30 6047 O 597.298 0.107742 -2.01112 0
M  V30 6048 C 594.363 -0.147227 -3.46387 0
M  V30 6049 C 593.424 -1.19662 -4.12286 0
M  V30 6050 C 592.657 -0.641437 -5.29831 0
M  V30 6051 O 592.88 0.538351 -5.67854 0
M  V30 6052 O 591.814 -1.39257 -5.85569 0
M  V30 6053 H 595.64 -1.63753 -2.55771 0
M  V30 6054 H 593.225 -0.860118 -1.22157 0
M  V30 6055 H 595.107 0.174923 -4.21037 0
M  V30 6056 H 593.782 0.733304 -3.15285 0
M  V30 6057 H 592.689 -1.57133 -3.395 0
M  V30 6058 H 594.022 -2.0495 -4.475 0
M  V30 6059 N 595.674 1.31259 -0.872281 0
M  V30 6060 C 596.604 2.30929 -0.345554 0
M  V30 6061 C 597.585 1.60449 0.5648 0
M  V30 6062 O 598.77 1.8814 0.481335 0
M  V30 6063 C 595.9 3.44348 0.451823 0
M  V30 6064 C 594.854 4.26435 -0.365641 0
M  V30 6065 C 594.18 5.31785 0.557562 0
M  V30 6066 C 595.48 4.97159 -1.60095 0
M  V30 6067 H 597.174 2.75234 -1.17841 0
M  V30 6068 H 594.72 1.3232 -0.568094 0
M  V30 6069 H 596.673 4.13128 0.830854 0
M  V30 6070 H 595.397 2.98816 1.31821 0
M  V30 6071 H 594.056 3.59326 -0.726649 0
M  V30 6072 H 593.704 4.82502 1.4213 0
M  V30 6073 H 593.404 5.87598 0.0144878 0
M  V30 6074 H 594.928 6.03424 0.933387 0
M  V30 6075 H 596.342 5.58523 -1.29323 0
M  V30 6076 H 594.739 5.62779 -2.08327 0
M  V30 6077 H 595.809 4.24012 -2.35249 0
M  V30 6078 N 597.152 0.631951 1.44375 0
M  V30 6079 C 598.429 0.067646 1.95483 0
M  V30 6080 C 598.809 -1.40683 1.57389 0
M  V30 6081 O 598.157 -2.12167 0.848375 0
M  V30 6082 C 598.367 0.291392 3.47781 0
M  V30 6083 C 599.715 0.185028 4.24197 0
M  V30 6084 O 600.739 0.222803 3.55503 0
M  V30 6085 O 599.598 0.0906642 5.46425 0
M  V30 6086 H 596.692 -0.0218379 0.826712 0
M  V30 6087 H 599.238 0.703711 1.54421 0
M  V30 6088 H 598.01 1.31449 3.68561 0
M  V30 6089 H 597.633 -0.378772 3.95792 0
M  V30 6090 N 598.631 -1.53133 0.372548 0
M  V30 6091 C 599.594 -2.24569 -0.458389 0
M  V30 6092 C 600.594 -1.25603 -1.00402 0
M  V30 6093 O 601.784 -1.49827 -0.888672 0
M  V30 6094 C 598.916 -2.98783 -1.6414 0
M  V30 6095 H 600.109 -2.99436 0.166799 0
M  V30 6096 H 597.662 -1.55805 0.124357 0
M  V30 6097 H 598.397 -2.28176 -2.30448 0
M  V30 6098 H 598.182 -3.71404 -1.25704 0
M  V30 6099 H 599.672 -3.53068 -2.23008 0
M  V30 6100 N 600.109 -0.101901 -1.5727 0
M  V30 6101 C 601.042 0.891377 -2.10071 0
M  V30 6102 C 602.02 1.27197 -1.01291 0
M  V30 6103 O 603.204 1.37602 -1.28833 0
M  V30 6104 C 600.331 2.19049 -2.58331 0
M  V30 6105 C 599.377 1.95925 -3.78834 0
M  V30 6106 S 600.21 1.19106 -5.22086 0
M  V30 6107 C 601.366 2.50234 -5.73702 0
M  V30 6108 H 601.599 0.442212 -2.93993 0
M  V30 6109 H 599.132 0.111529 -1.53997 0
M  V30 6110 H 601.09 2.937 -2.86793 0
M  V30 6111 H 599.751 2.61086 -1.74622 0
M  V30 6112 H 598.944 2.92143 -4.10693 0
M  V30 6113 H 598.546 1.29401 -3.50901 0
M  V30 6114 H 600.838 3.46173 -5.82384 0
M  V30 6115 H 601.781 2.22944 -6.72088 0
M  V30 6116 H 602.189 2.58818 -5.01671 0
M  V30 6117 N 601.587 1.56661 0.17182 0
M  V30 6118 C 602.834 1.81965 0.888529 0
M  V30 6119 C 603.162 0.6789 1.82267 0
M  V30 6120 O 602.417 -0.333875 1.92831 0
M  V30 6121 C 602.716 3.13435 1.71736 0
M  V30 6122 C 602.382 4.41159 0.932184 0
M  V30 6123 C 601.044 4.75851 0.715481 0
M  V30 6124 C 603.396 5.19803 0.381387 0
M  V30 6125 C 600.724 5.86666 -0.063126 0
M  V30 6126 C 603.076 6.31433 -0.384129 0
M  V30 6127 C 601.74 6.64692 -0.611637 0
M  V30 6128 H 601.01 0.665859 0.325136 0
M  V30 6129 H 603.657 1.90884 0.153495 0
M  V30 6130 H 601.962 2.99857 2.52177 0
M  V30 6131 H 603.659 3.30224 2.27493 0
M  V30 6132 H 600.249 4.13947 1.11112 0
M  V30 6133 H 604.433 4.93396 0.536148 0
M  V30 6134 H 599.689 6.10892 -0.249136 0
M  V30 6135 H 603.863 6.91577 -0.818185 0
M  V30 6136 H 601.49 7.50398 -1.21684 0
M  V30 6137 N 603.065 -0.440357 1.51323 0
M  V30 6138 C 604.476 -1.02032 1.56353 0
M  V30 6139 C 604.827 -1.92382 0.385197 0
M  V30 6140 O 603.952 -2.10583 -0.498373 0
M  V30 6141 C 604.547 -1.85723 2.83359 0
M  V30 6142 C 603.106 -2.38774 2.90971 0
M  V30 6143 C 602.253 -1.17908 2.50984 0
M  V30 6144 H 605.204 -0.221744 1.57143 0
M  V30 6145 H 605.225 -2.71141 2.66951 0
M  V30 6146 H 604.737 -1.19939 3.69102 0
M  V30 6147 H 602.838 -3.08021 2.09651 0
M  V30 6148 H 602.951 -2.71778 3.94555 0
M  V30 6149 H 601.315 -1.52347 2.04114 0
M  V30 6150 H 602.098 -0.537393 3.39068 0
M  V30 6151 N 604.543 -1.41418 -0.695603 0
M  V30 6152 C 605.453 -1.45622 -1.83933 0
M  V30 6153 C 606.469 -0.346825 -1.70508 0
M  V30 6154 O 607.645 -0.59454 -1.92424 0
M  V30 6155 C 604.71 -1.33627 -3.19914 0
M  V30 6156 C 603.771 -2.54882 -3.45447 0
M  V30 6157 C 603.004 -2.43449 -4.7494 0
M  V30 6158 O 603.227 -1.45905 -5.51424 0
M  V30 6159 O 602.161 -3.33206 -5.01256 0
M  V30 6160 H 605.987 -2.42114 -1.83342 0
M  V30 6161 H 603.572 -1.22956 -0.848658 0
M  V30 6162 H 605.454 -1.29221 -4.01098 0
M  V30 6163 H 604.129 -0.402508 -3.21188 0
M  V30 6164 H 603.036 -2.64865 -2.64192 0
M  V30 6165 H 604.369 -3.47087 -3.48987 0
M  V30 6166 N 606.021 0.929856 -1.27246 0
M  V30 6167 C 607.269 1.674 -1.13233 0
M  V30 6168 C 607.59 1.92311 0.322744 0
M  V30 6169 O 606.86 1.52784 1.22612 0
M  V30 6170 H 605.44 0.620411 -0.416052 0
M  V30 6171 H 608.102 1.11663 -1.59741 0
M  V30 6172 H 607.198 2.64308 -1.65975 0
M  V30 6173 N 607.499 1.09233 1.13605 0
M  V30 6174 C 608.729 0.847677 1.88409 0
M  V30 6175 C 609.137 -0.604524 1.79282 0
M  V30 6176 O 608.48 -1.42773 1.15592 0
M  V30 6177 C 608.542 1.20153 3.38827 0
M  V30 6178 C 608.206 2.65824 3.71735 0
M  V30 6179 C 609.203 3.64072 3.71143 0
M  V30 6180 C 606.888 3.01894 4.01454 0
M  V30 6181 C 608.882 4.96419 3.99808 0
M  V30 6182 C 606.569 4.34433 4.29781 0
M  V30 6183 C 607.567 5.31505 4.28942 0
M  V30 6184 O 607.255 6.61659 4.56576 0
M  V30 6185 H 606.987 0.304813 0.603378 0
M  V30 6186 H 609.541 1.4573 1.44748 0
M  V30 6187 H 607.771 0.534946 3.82982 0
M  V30 6188 H 609.46 0.936349 3.94952 0
M  V30 6189 H 610.226 3.37549 3.4826 0
M  V30 6190 H 606.105 2.26971 4.01255 0
M  V30 6191 H 609.649 5.7218 3.99069 0
M  V30 6192 H 605.546 4.607 4.52135 0
M  V30 6193 H 606.314 6.67102 4.74254 0
M  V30 6194 N 608.977 -1.30795 0.87923 0
M  V30 6195 C 609.924 -2.28282 0.339968 0
M  V30 6196 C 610.894 -1.56134 -0.566685 0
M  V30 6197 O 612.079 -1.84231 -0.496338 0
M  V30 6198 C 609.219 -3.42225 -0.444501 0
M  V30 6199 C 608.332 -4.29204 0.490717 0
M  V30 6200 C 607.467 -5.30302 -0.308784 0
M  V30 6201 C 606.506 -6.08929 0.622272 0
M  V30 6202 N 605.643 -7.01957 -0.14155 0
M  V30 6203 H 610.483 -2.73794 1.17647 0
M  V30 6204 H 608.02 -1.34682 0.591527 0
M  V30 6205 H 609.978 -4.07038 -0.915186 0
M  V30 6206 H 608.608 -2.97799 -1.24562 0
M  V30 6207 H 607.66 -3.6475 1.07988 0
M  V30 6208 H 608.972 -4.84045 1.20425 0
M  V30 6209 H 608.126 -6.00835 -0.841575 0
M  V30 6210 H 606.865 -4.7614 -1.05556 0
M  V30 6211 H 605.87 -5.37278 1.16674 0
M  V30 6212 H 607.095 -6.65178 1.36804 0
M  V30 6213 H 605.041 -6.50192 -0.870966 0
M  V30 6214 H 604.958 -7.54261 0.51246 0
M  V30 6215 H 606.226 -7.76741 -0.655271 0
M  V30 6216 N 610.455 -0.639598 -1.44038 0
M  V30 6217 C 611.701 -0.147698 -2.02261 0
M  V30 6218 C 612.034 1.23031 -1.50256 0
M  V30 6219 O 611.309 1.81847 -0.690068 0
M  V30 6220 C 611.592 -0.14362 -3.59813 0
M  V30 6221 C 611.445 -1.55458 -4.22082 0
M  V30 6222 C 612.764 0.527317 -4.36929 0
M  V30 6223 H 609.883 -0.0551453 -0.734934 0
M  V30 6224 H 612.525 -0.817688 -1.71505 0
M  V30 6225 H 610.675 0.426898 -3.86147 0
M  V30 6226 H 612.347 -2.17464 -4.06826 0
M  V30 6227 H 610.59 -2.10594 -3.79253 0
M  V30 6228 H 611.261 -1.50369 -5.31124 0
M  V30 6229 H 613.737 0.0420504 -4.16079 0
M  V30 6230 H 612.613 0.499389 -5.46624 0
M  V30 6231 H 612.874 1.59914 -4.12165 0
M  V30 6232 N 611.933 1.52934 -0.380664 0
M  V30 6233 C 612.863 2.29118 0.450268 0
M  V30 6234 C 613.844 1.32153 1.07096 0
M  V30 6235 O 615.029 1.61038 1.08537 0
M  V30 6236 C 612.159 3.09161 1.58231 0
M  V30 6237 C 611.113 4.13938 1.0881 0
M  V30 6238 C 610.439 4.82153 2.31155 0
M  V30 6239 C 611.739 5.22048 0.162146 0
M  V30 6240 H 613.433 2.98826 -0.185361 0
M  V30 6241 H 610.979 1.43715 -0.0905886 0
M  V30 6242 H 612.932 3.61211 2.17036 0
M  V30 6243 H 611.656 2.3717 2.2454 0
M  V30 6244 H 610.315 3.62855 0.522633 0
M  V30 6245 H 609.963 4.06719 2.95953 0
M  V30 6246 H 609.663 5.52966 1.98752 0
M  V30 6247 H 611.187 5.37004 2.90618 0
M  V30 6248 H 612.601 5.6951 0.658126 0
M  V30 6249 H 610.998 6.00057 -0.0717122 0
M  V30 6250 H 612.068 4.78398 -0.791438 0
M  V30 6251 N 613.412 0.11024 1.57214 0
M  V30 6252 C 614.823 -0.416527 1.81994 0
M  V30 6253 C 615.174 -1.67183 1.02686 0
M  V30 6254 O 614.299 -2.14823 0.260782 0
M  V30 6255 C 614.894 -0.762466 3.30109 0
M  V30 6256 C 613.453 -1.23391 3.556 0
M  V30 6257 C 612.6 -0.238166 2.76275 0
M  V30 6258 H 615.551 0.335491 1.55113 0
M  V30 6259 H 615.572 -1.62068 3.44259 0
M  V30 6260 H 615.084 0.151346 3.87805 0
M  V30 6261 H 613.185 -2.16492 3.03253 0
M  V30 6262 H 613.298 -1.18528 4.64207 0
M  V30 6263 H 611.662 -0.723421 2.4421 0
M  V30 6264 H 612.445 0.668591 3.36727 0
M  V30 6265 N 614.89 -1.56749 -0.16351 0
M  V30 6266 C 616.301 -1.72039 -0.725216 0
M  V30 6267 C 616.652 -0.72202 -1.82432 0
M  V30 6268 O 615.777 0.114942 -2.16095 0
M  V30 6269 C 616.372 -3.11932 -1.32227 0
M  V30 6270 C 614.931 -3.28879 -1.83072 0
M  V30 6271 C 614.078 -2.67984 -0.712716 0
M  V30 6272 H 617.029 -1.58579 0.0619772 0
M  V30 6273 H 617.05 -3.11015 -2.19202 0
M  V30 6274 H 616.562 -3.84572 -0.522103 0
M  V30 6275 H 614.663 -2.61209 -2.65708 0
M  V30 6276 H 614.776 -4.36688 -1.97079 0
M  V30 6277 H 613.14 -2.28005 -1.13515 0
M  V30 6278 H 613.923 -3.43216 0.0757361 0
M  V30 6279 N 616.368 0.432326 -1.51554 0
M  V30 6280 C 617.779 1.01202 -1.56892 0
M  V30 6281 C 618.13 1.92175 -0.395394 0
M  V30 6282 O 617.255 2.10844 0.487198 0
M  V30 6283 C 617.85 1.84217 -2.8434 0
M  V30 6284 C 616.409 2.37228 -2.92233 0
M  V30 6285 C 615.556 1.16576 -2.51606 0
M  V30 6286 H 618.507 0.213407 -1.57259 0
M  V30 6287 H 618.528 2.69721 -2.68385 0
M  V30 6288 H 618.04 1.17979 -3.69733 0
M  V30 6289 H 616.141 3.06905 -2.11282 0
M  V30 6290 H 616.254 2.69682 -3.95991 0
M  V30 6291 H 614.618 1.51263 -2.04919 0
M  V30 6292 H 615.401 0.519404 -3.39348 0
M  V30 6293 N 617.846 1.41785 0.688094 0
M  V30 6294 C 618.809 1.43936 1.78368 0
M  V30 6295 C 619.809 0.328866 1.57401 0
M  V30 6296 O 620.999 0.589093 1.63937 0
M  V30 6297 C 618.131 1.25804 3.16838 0
M  V30 6298 H 619.324 2.41472 1.77852 0
M  V30 6299 H 616.877 1.28037 0.896448 0
M  V30 6300 H 617.612 0.291386 3.22988 0
M  V30 6301 H 617.397 2.06272 3.33458 0
M  V30 6302 H 618.887 1.30162 3.96797 0
M  V30 6303 N 619.324 -0.923095 1.27737 0
M  V30 6304 C 620.572 -1.66797 1.14119 0
M  V30 6305 C 620.893 -1.92479 -0.312541 0
M  V30 6306 O 620.163 -1.53432 -1.218 0
M  V30 6307 H 618.743 -0.618196 0.419336 0
M  V30 6308 H 621.405 -1.10815 1.60331 0
M  V30 6309 H 620.501 -2.63424 1.67374 0
M  V30 6310 N 620.802 -1.09834 -1.13024 0
M  V30 6311 C 622.032 -0.857657 -1.87957 0
M  V30 6312 C 622.44 0.595008 -1.796 0
M  V30 6313 O 621.783 1.42158 -1.16347 0
M  V30 6314 C 621.845 -1.21949 -3.38185 0
M  V30 6315 C 621.509 -2.67791 -3.7032 0
M  V30 6316 C 622.506 -3.66036 -3.69207 0
M  V30 6317 C 620.191 -3.04019 -3.99847 0
M  V30 6318 C 622.185 -4.98533 -3.9717 0
M  V30 6319 C 619.872 -4.36706 -4.27471 0
M  V30 6320 C 620.87 -5.33772 -4.26118 0
M  V30 6321 O 620.558 -6.64072 -4.53061 0
M  V30 6322 H 620.29 -0.308009 -0.601753 0
M  V30 6323 H 622.844 -1.46496 -1.43973 0
M  V30 6324 H 621.074 -0.555249 -3.82693 0
M  V30 6325 H 622.763 -0.957281 -3.9445 0
M  V30 6326 H 623.529 -3.39392 -3.46465 0
M  V30 6327 H 619.408 -2.29096 -4.00045 0
M  V30 6328 H 622.952 -5.74288 -3.96029 0
M  V30 6329 H 618.849 -4.63091 -4.49685 0
M  V30 6330 H 619.617 -6.69608 -4.7071 0
M  V30 6331 N 622.28 1.30327 -0.886154 0
M  V30 6332 C 623.526 1.96388 -0.505941 0
M  V30 6333 C 623.859 1.69784 0.942712 0
M  V30 6334 O 623.134 1.00322 1.6663 0
M  V30 6335 C 623.417 3.51488 -0.782826 0
M  V30 6336 C 623.27 3.87603 -2.28219 0
M  V30 6337 C 624.589 4.39331 -0.260128 0
M  V30 6338 H 621.708 0.713327 -0.185292 0
M  V30 6339 H 624.35 1.54178 -1.11036 0
M  V30 6340 H 622.5 3.87572 -0.268399 0
M  V30 6341 H 624.172 3.61537 -2.86512 0
M  V30 6342 H 622.415 3.3563 -2.74837 0
M  V30 6343 H 623.086 4.95806 -2.42653 0
M  V30 6344 H 625.562 4.10162 -0.700444 0
M  V30 6345 H 624.438 5.46769 -0.483179 0
M  V30 6346 H 624.699 4.34072 0.838674 0
M  V30 6347 N 623.758 0.647228 1.43697 0
M  V30 6348 C 625.169 0.238689 1.85168 0
M  V30 6349 C 625.52 -1.21345 1.54175 0
M  V30 6350 O 624.645 -1.92542 0.987743 0
M  V30 6351 C 625.24 0.426422 3.36106 0
M  V30 6352 C 623.799 0.0722541 3.76331 0
M  V30 6353 C 622.946 0.732153 2.6746 0
M  V30 6354 H 625.897 0.851309 1.33934 0
M  V30 6355 H 625.918 -0.32987 3.79067 0
M  V30 6356 H 625.43 1.48339 3.58632 0
M  V30 6357 H 623.531 -0.982355 3.59417 0
M  V30 6358 H 623.644 0.493541 4.76551 0
M  V30 6359 H 622.008 0.16594 2.54159 0
M  V30 6360 H 622.791 1.79204 2.92816 0
M  V30 6361 N 625.236 -1.5273 0.388769 0
M  V30 6362 C 626.485 -2.00757 -0.194833 0
M  V30 6363 C 626.798 -1.27951 -1.47946 0
M  V30 6364 O 628.004 -1.66686 -2.14308 0
M  V30 6365 C 626.46 -3.57695 -0.397762 0
M  V30 6366 C 626.068 -4.394 0.873583 0
M  V30 6367 C 627.812 -4.14012 -0.937759 0
M  V30 6368 C 625.719 -5.87938 0.638962 0
M  V30 6369 H 624.649 -0.750101 -0.0765845 0
M  V30 6370 H 627.3 -1.76239 0.511086 0
M  V30 6371 H 625.682 -3.7846 -1.16552 0
M  V30 6372 H 626.856 -4.30403 1.64591 0
M  V30 6373 H 625.171 -3.94301 1.33849 0
M  V30 6374 H 627.768 -5.22645 -1.12899 0
M  V30 6375 H 628.111 -3.7007 -1.90666 0
M  V30 6376 H 628.644 -3.97137 -0.229588 0
M  V30 6377 H 625.383 -6.36202 1.57885 0
M  V30 6378 H 624.903 -5.99726 -0.094443 0
M  V30 6379 H 626.582 -6.46423 0.273299 0
M  V30 6380 N 626.714 -0.118576 -1.57153 0
M  V30 6381 C 628.13 0.238014 -1.57815 0
M  V30 6382 C 628.33 1.66747 -1.13127 0
M  V30 6383 O 627.386 2.38867 -0.818462 0
M  V30 6384 C 628.699 0.00508207 -3.007 0
M  V30 6385 C 630.247 0.0710139 -3.12919 0
M  V30 6386 C 630.722 -0.13422 -4.57803 0
M  V30 6387 N 632.213 -0.0801755 -4.63131 0
M  V30 6388 C 632.948 -0.213885 -5.73001 0
M  V30 6389 N 632.444 -0.403742 -6.91623 0
M  V30 6390 N 634.237 -0.15349 -5.6189 0
M  V30 6391 H 626.388 -1.05226 -1.84503 0
M  V30 6392 H 628.651 -0.414318 -0.852669 0
M  V30 6393 H 628.357 -0.983125 -3.3768 0
M  V30 6394 H 628.231 0.73714 -3.69927 0
M  V30 6395 H 630.618 1.04975 -2.75798 0
M  V30 6396 H 630.699 -0.692918 -2.46236 0
M  V30 6397 H 630.343 -1.10992 -4.95624 0
M  V30 6398 H 630.273 0.649692 -5.22577 0
M  V30 6399 H 632.764 0.0630689 -3.77847 0
M  V30 6400 H 633.077 -0.496645 -7.71202 0
M  V30 6401 H 631.422 -0.43971 -6.93608 0
M  V30 6402 H 634.613 -0.00613174 -4.681 0
M  V30 6403 H 634.786 -0.261138 -6.47474 0
M  V30 6404 N 628.193 1.56834 0.155195 0
M  V30 6405 C 629.421 1.87049 0.884326 0
M  V30 6406 C 629.836 0.705839 1.7511 0
M  V30 6407 O 629.193 -0.324641 1.79589 0
M  V30 6408 C 629.244 3.1644 1.74781 0
M  V30 6409 O 628.965 4.28417 0.915978 0
M  V30 6410 C 630.466 3.60113 2.58522 0
M  V30 6411 H 627.686 0.620196 0.25612 0
M  V30 6412 H 630.23 2.03946 0.150445 0
M  V30 6413 H 628.385 3.01321 2.43484 0
M  V30 6414 H 628.799 5.02353 1.50803 0
M  V30 6415 H 630.273 4.53508 3.14698 0
M  V30 6416 H 630.75 2.85005 3.34169 0
M  V30 6417 H 631.356 3.77898 1.95124 0
M  V30 6418 N 629.671 -0.424282 1.51781 0
M  V30 6419 C 631.082 -1.00368 1.57427 0
M  V30 6420 C 631.433 -1.91962 0.40558 0
M  V30 6421 O 630.558 -2.111 -0.47601 0
M  V30 6422 C 631.153 -1.82707 2.85313 0
M  V30 6423 C 629.712 -2.35675 2.93487 0
M  V30 6424 C 628.859 -1.1524 2.5222 0
M  V30 6425 H 631.81 -0.205064 1.5737 0
M  V30 6426 H 631.831 -2.68294 2.69812 0
M  V30 6427 H 631.343 -1.16017 3.70353 0
M  V30 6428 H 629.444 -3.05781 2.12906 0
M  V30 6429 H 629.557 -2.67578 3.97415 0
M  V30 6430 H 627.921 -1.50174 2.05718 0
M  V30 6431 H 628.704 -0.5014 3.39619 0
M  V30 6432 N 631.149 -1.42148 -0.680565 0
M  V30 6433 C 632.112 -1.4488 -1.77602 0
M  V30 6434 C 633.112 -0.337209 -1.57224 0
M  V30 6435 O 634.302 -0.597778 -1.63622 0
M  V30 6436 C 631.434 -1.27483 -3.16166 0
M  V30 6437 H 632.627 -2.42412 -1.76568 0
M  V30 6438 H 630.18 -1.28511 -0.889645 0
M  V30 6439 H 630.915 -0.30851 -3.22829 0
M  V30 6440 H 630.7 -2.08037 -3.3236 0
M  V30 6441 H 632.19 -1.32265 -3.96101 0
M  V30 6442 N 632.627 0.916307 -1.28225 0
M  V30 6443 C 634.043 1.19425 -1.05876 0
M  V30 6444 C 634.243 2.005 0.2005 0
M  V30 6445 O 633.299 2.35806 0.902873 0
M  V30 6446 C 634.612 1.93133 -2.30478 0
M  V30 6447 C 636.16 2.06026 -2.35632 0
M  V30 6448 C 636.635 2.83141 -3.59994 0
M  V30 6449 N 638.126 2.90704 -3.60618 0
M  V30 6450 C 638.861 3.50865 -4.53521 0
M  V30 6451 N 638.357 4.12327 -5.56739 0
M  V30 6452 N 640.15 3.48379 -4.41122 0
M  V30 6453 H 632.301 0.37496 -2.09064 0
M  V30 6454 H 634.564 0.228531 -0.920042 0
M  V30 6455 H 634.27 1.40985 -3.22205 0
M  V30 6456 H 634.144 2.93696 -2.36691 0
M  V30 6457 H 636.531 2.57355 -1.44404 0
M  V30 6458 H 636.612 1.04647 -2.33415 0
M  V30 6459 H 636.256 2.32492 -4.51564 0
M  V30 6460 H 636.186 3.84829 -3.59464 0
M  V30 6461 H 638.677 2.47034 -2.85977 0
M  V30 6462 H 638.99 4.56205 -6.23776 0
M  V30 6463 H 637.335 4.10839 -5.60568 0
M  V30 6464 H 640.526 2.99572 -3.59686 0
M  V30 6465 H 640.699 3.94974 -5.13712 0
M  V30 6466 N 634.105 1.10431 1.1244 0
M  V30 6467 C 635.052 0.753103 2.18167 0
M  V30 6468 C 636.022 -0.270549 1.63882 0
M  V30 6469 O 637.207 -0.149837 1.90211 0
M  V30 6470 C 634.347 0.191046 3.44571 0
M  V30 6471 C 633.46 1.26999 4.12911 0
M  V30 6472 C 632.595 0.669586 5.26963 0
M  V30 6473 C 631.634 1.72912 5.87169 0
M  V30 6474 N 630.771 1.14898 6.92635 0
M  V30 6475 H 635.611 1.65892 2.47556 0
M  V30 6476 H 633.148 0.828631 1.21541 0
M  V30 6477 H 635.106 -0.152712 4.1692 0
M  V30 6478 H 633.736 -0.677997 3.15599 0
M  V30 6479 H 632.788 1.73087 3.3874 0
M  V30 6480 H 634.1 2.07204 4.53727 0
M  V30 6481 H 633.254 0.275274 6.06075 0
M  V30 6482 H 631.993 -0.163895 4.87425 0
M  V30 6483 H 630.998 2.13286 5.06744 0
M  V30 6484 H 632.223 2.56544 6.28778 0
M  V30 6485 H 630.169 0.336956 6.55134 0
M  V30 6486 H 630.086 1.88786 7.32049 0
M  V30 6487 H 631.354 0.78121 7.75576 0
M  V30 6488 N 635.583 -1.29855 0.893053 0
M  V30 6489 C 636.513 -2.3035 0.382249 0
M  V30 6490 C 637.494 -1.61328 -0.539203 0
M  V30 6491 O 638.679 -1.88882 -0.451342 0
M  V30 6492 C 635.809 -3.45024 -0.396983 0
M  V30 6493 C 634.763 -4.258 0.433437 0
M  V30 6494 C 634.089 -5.32605 -0.472889 0
M  V30 6495 C 635.389 -4.94549 1.67984 0
M  V30 6496 H 637.083 -2.73325 1.22205 0
M  V30 6497 H 634.629 -1.314 0.589073 0
M  V30 6498 H 636.582 -4.14398 -0.765024 0
M  V30 6499 H 635.306 -3.00875 -1.2705 0
M  V30 6500 H 633.965 -3.58125 0.783723 0
M  V30 6501 H 633.613 -4.84702 -1.34435 0
M  V30 6502 H 633.313 -5.87547 0.0789958 0
M  V30 6503 H 634.837 -6.04832 -0.837269 0
M  V30 6504 H 636.251 -5.56395 1.38192 0
M  V30 6505 H 634.648 -5.59393 2.17254 0
M  V30 6506 H 635.718 -4.20215 2.41965 0
M  V30 6507 N 637.061 -0.65484 -1.43351 0
M  V30 6508 C 638.289 -0.176685 -2.06144 0
M  V30 6509 C 638.704 1.15831 -1.49093 0
M  V30 6510 O 638.061 1.71542 -0.622868 0
M  V30 6511 C 638.112 -0.0813326 -3.61408 0
M  V30 6512 O 637.833 -1.36355 -4.1634 0
M  V30 6513 C 639.334 0.422706 -4.4128 0
M  V30 6514 H 636.554 -0.0906429 -0.66485 0
M  V30 6515 H 639.098 -0.895945 -1.83829 0
M  V30 6516 H 637.253 0.588496 -3.82904 0
M  V30 6517 H 637.667 -1.22381 -5.10023 0
M  V30 6518 H 639.141 0.438375 -5.50257 0
M  V30 6519 H 639.618 1.45432 -4.14423 0
M  V30 6520 H 640.224 -0.214687 -4.24758 0
M  V30 6521 N 638.539 1.52521 -0.396863 0
M  V30 6522 C 639.502 2.2527 0.422604 0
M  V30 6523 C 640.502 1.27184 0.983913 0
M  V30 6524 O 641.692 1.51222 0.864723 0
M  V30 6525 C 638.824 3.01356 1.59365 0
M  V30 6526 H 640.017 2.99133 -0.214416 0
M  V30 6527 H 637.57 1.55587 -0.149128 0
M  V30 6528 H 638.305 2.31813 2.26789 0
M  V30 6529 H 638.09 3.73357 1.19779 0
M  V30 6530 H 639.58 3.56571 2.17363 0
M  V30 6531 N 640.017 0.126909 1.57088 0
M  V30 6532 C 641.245 -0.53667 1.99819 0
M  V30 6533 C 641.66 -1.5972 1.00673 0
M  V30 6534 O 641.017 -1.825 0.000747365 0
M  V30 6535 C 641.068 -1.15563 3.42531 0
M  V30 6536 O 640.789 -0.137483 4.37884 0
M  V30 6537 C 642.29 -1.90176 4.00435 0
M  V30 6538 H 639.51 -0.141443 0.655923 0
M  V30 6539 H 642.054 0.215578 2.03361 0
M  V30 6540 H 640.209 -1.85861 3.39904 0
M  V30 6541 H 640.623 -0.588229 5.21191 0
M  V30 6542 H 642.097 -2.28801 5.02349 0
M  V30 6543 H 642.574 -2.78002 3.40017 0
M  V30 6544 H 643.18 -1.24623 4.06632 0
M  V30 6545 N 641.495 -1.56914 -0.146875 0
M  V30 6546 C 642.906 -1.72799 -0.706928 0
M  V30 6547 C 643.257 -0.741329 -1.81656 0
M  V30 6548 O 642.382 0.0920162 -2.16204 0
M  V30 6549 C 642.977 -3.13317 -1.28911 0
M  V30 6550 C 641.536 -3.30803 -1.79573 0
M  V30 6551 C 640.683 -2.68725 -0.684252 0
M  V30 6552 H 643.634 -1.58504 0.0787931 0
M  V30 6553 H 643.655 -3.13323 -2.15891 0
M  V30 6554 H 643.167 -3.85104 -0.481284 0
M  V30 6555 H 641.268 -2.64012 -2.62923 0
M  V30 6556 H 641.381 -4.38754 -1.92436 0
M  V30 6557 H 639.745 -2.29196 -1.11091 0
M  V30 6558 H 640.528 -3.43117 0.112134 0
M  V30 6559 N 642.974 0.416227 -1.52004 0
M  V30 6560 C 644.202 1.18573 -1.69553 0
M  V30 6561 C 644.617 1.84472 -0.401919 0
M  V30 6562 O 643.974 1.71593 0.621463 0
M  V30 6563 C 644.025 2.25413 -2.82615 0
M  V30 6564 O 643.746 1.62205 -4.06966 0
M  V30 6565 C 645.247 3.15297 -3.11613 0
M  V30 6566 H 642.467 0.356582 -0.56841 0
M  V30 6567 H 645.011 0.490618 -1.98528 0
M  V30 6568 H 643.166 2.90604 -2.56179 0
M  V30 6569 H 643.58 2.3298 -4.69916 0
M  V30 6570 H 645.054 3.86351 -3.94255 0
M  V30 6571 H 645.531 3.77264 -2.24874 0
M  V30 6572 H 646.137 2.55783 -3.39787 0
M  V30 6573 N 644.452 1.42507 0.673017 0
M  V30 6574 C 645.863 1.38347 1.25367 0
M  V30 6575 C 646.214 0.0776327 1.96046 0
M  V30 6576 O 645.339 -0.823571 2.00116 0
M  V30 6577 C 645.934 2.506 2.28002 0
M  V30 6578 C 644.493 2.49767 2.81591 0
M  V30 6579 C 643.64 2.293 1.55938 0
M  V30 6580 H 646.591 1.51695 0.466288 0
M  V30 6581 H 646.612 2.20953 3.09774 0
M  V30 6582 H 646.124 3.45627 1.76532 0
M  V30 6583 H 644.225 1.58563 3.37177 0
M  V30 6584 H 644.338 3.46867 3.30485 0
M  V30 6585 H 642.702 1.77594 1.82572 0
M  V30 6586 H 643.485 3.26385 1.06431 0
M  V30 6587 N 645.93 -0.909495 1.28709 0
M  V30 6588 C 646.86 -2.0291 1.15542 0
M  V30 6589 C 647.841 -1.7002 0.0521017 0
M  V30 6590 O 649.026 -1.92835 0.229849 0
M  V30 6591 C 646.156 -3.37458 0.820935 0
M  V30 6592 C 645.11 -3.84524 1.87949 0
M  V30 6593 C 644.436 -5.16086 1.39854 0
M  V30 6594 C 645.736 -4.05918 3.28676 0
M  V30 6595 H 647.43 -2.14183 2.09203 0
M  V30 6596 H 644.976 -1.02913 1.00722 0
M  V30 6597 H 646.929 -4.1528 0.715571 0
M  V30 6598 H 645.653 -3.26249 -0.151374 0
M  V30 6599 H 644.312 -3.08911 1.97408 0
M  V30 6600 H 643.96 -5.01284 0.41518 0
M  V30 6601 H 643.66 -5.48547 2.1064 0
M  V30 6602 H 645.184 -5.96459 1.30649 0
M  V30 6603 H 646.598 -4.74252 3.22115 0
M  V30 6604 H 644.995 -4.49717 3.97334 0
M  V30 6605 H 646.065 -3.10583 3.72379 0
M  V30 6606 N 647.408 -1.11026 -1.11852 0
M  V30 6607 C 648.656 -0.854769 -1.83134 0
M  V30 6608 C 648.977 0.621375 -1.84835 0
M  V30 6609 O 648.247 1.45129 -1.31584 0
M  V30 6610 H 646.827 -0.313229 -0.678157 0
M  V30 6611 H 649.489 -1.40178 -1.35411 0
M  V30 6612 H 648.585 -1.22311 -2.87135 0
M  V30 6613 N 648.886 1.2938 -0.899927 0
M  V30 6614 C 650.134 1.95164 -0.524924 0
M  V30 6615 C 650.455 1.71292 0.931888 0
M  V30 6616 O 649.725 1.04481 1.65712 0
M  V30 6617 H 648.305 0.722133 -0.191135 0
M  V30 6618 H 650.967 1.57628 -1.14627 0
M  V30 6619 H 650.063 3.0397 -0.707711 0
M  V30 6620 N 650.364 0.662433 1.43002 0
M  V30 6621 C 651.297 -0.073459 2.28082 0
M  V30 6622 C 652.275 -0.820869 1.40358 0
M  V30 6623 O 653.459 -0.818545 1.698 0
M  V30 6624 C 650.586 -1.11097 3.19961 0
M  V30 6625 C 649.632 -0.460557 4.24006 0
M  V30 6626 S 650.465 0.772717 5.29896 0
M  V30 6627 C 651.621 -0.264028 6.25343 0
M  V30 6628 H 651.854 0.648227 2.90147 0
M  V30 6629 H 649.387 0.451566 1.47649 0
M  V30 6630 H 651.345 -1.70452 3.73439 0
M  V30 6631 H 650.006 -1.80503 2.57056 0
M  V30 6632 H 649.199 -1.24299 4.88432 0
M  V30 6633 H 648.801 0.0591038 3.73953 0
M  V30 6634 H 651.093 -1.12748 6.68052 0
M  V30 6635 H 652.036 0.345443 7.07257 0
M  V30 6636 H 652.444 -0.603964 5.6126 0
M  V30 6637 N 651.842 -1.52309 0.404946 0
M  V30 6638 C 653.07 -2.06185 -0.171818 0
M  V30 6639 C 653.485 -1.27536 -1.39212 0
M  V30 6640 O 652.842 -0.326112 -1.79563 0
M  V30 6641 C 652.893 -3.57647 -0.526417 0
M  V30 6642 O 652.614 -4.3332 0.645417 0
M  V30 6643 C 654.115 -4.27925 -1.15736 0
M  V30 6644 H 651.335 -0.670632 -0.0222328 0
M  V30 6645 H 653.879 -1.96259 0.574692 0
M  V30 6646 H 652.034 -3.67595 -1.22282 0
M  V30 6647 H 652.448 -5.23328 0.35042 0
M  V30 6648 H 653.922 -5.35093 -1.35572 0
M  V30 6649 H 654.399 -3.84134 -2.12926 0
M  V30 6650 H 655.005 -4.22335 -0.501281 0
M  V30 6651 N 653.32 -0.135238 -1.57019 0
M  V30 6652 C 654.568 0.51777 -1.95355 0
M  V30 6653 C 654.889 1.6617 -1.02042 0
M  V30 6654 O 654.159 1.95738 -0.0797343 0
M  V30 6655 H 652.739 0.194264 -0.721298 0
M  V30 6656 H 655.401 -0.207983 -1.93787 0
M  V30 6657 H 654.497 0.901675 -2.98791 0
M  V30 6658 N 654.798 1.5699 0.138552 0
M  V30 6659 C 656.045 1.83809 0.849732 0
M  V30 6660 C 656.373 0.717409 1.80786 0
M  V30 6661 O 655.628 -0.292897 1.93496 0
M  V30 6662 C 655.927 3.17007 1.65049 0
M  V30 6663 C 655.593 4.43037 0.838398 0
M  V30 6664 C 654.255 4.77262 0.614385 0
M  V30 6665 C 656.607 5.20495 0.271044 0
M  V30 6666 C 653.935 5.864 -0.187552 0
M  V30 6667 C 656.287 6.30476 -0.517979 0
M  V30 6668 C 654.951 6.63245 -0.75249 0
M  V30 6669 H 654.221 0.672605 0.310939 0
M  V30 6670 H 656.868 1.91166 0.112971 0
M  V30 6671 H 655.173 3.05138 2.4576 0
M  V30 6672 H 656.87 3.34975 2.20437 0
M  V30 6673 H 653.46 4.16211 1.02307 0
M  V30 6674 H 657.644 4.94422 0.431371 0
M  V30 6675 H 652.9 6.10226 -0.378659 0
M  V30 6676 H 657.074 6.89686 -0.964694 0
M  V30 6677 H 654.701 7.47648 -1.37573 0
M  V30 6678 N 656.276 -0.40816 1.52223 0
M  V30 6679 C 657.226 -1.49648 1.72016 0
M  V30 6680 C 658.21 -1.50311 0.574069 0
M  V30 6681 O 659.402 -1.56271 0.831173 0
M  V30 6682 C 656.531 -2.87566 1.87512 0
M  V30 6683 C 655.617 -2.91547 3.07995 0
M  V30 6684 N 656.008 -2.65225 4.30685 0
M  V30 6685 C 654.306 -3.22715 3.07849 0
M  V30 6686 C 655.007 -2.75799 5.12162 0
M  V30 6687 N 653.983 -3.08719 4.4743 0
M  V30 6688 H 657.785 -1.28093 2.64517 0
M  V30 6689 H 655.299 -0.61588 1.50269 0
M  V30 6690 H 657.296 -3.65899 1.99809 0
M  V30 6691 H 655.956 -3.10118 0.962114 0
M  V30 6692 H 656.967 -2.39601 4.59142 0
M  V30 6693 H 653.644 -3.50856 2.26289 0
M  V30 6694 H 655.034 -2.59155 6.1991 0
M  V30 6695 N 657.755 -1.42862 -0.66545 0
M  V30 6696 C 658.688 -1.41509 -1.79026 0
M  V30 6697 C 659.666 -0.278106 -1.60204 0
M  V30 6698 O 660.85 -0.469792 -1.82552 0
M  V30 6699 C 657.977 -1.21494 -3.1616 0
M  V30 6700 C 657.023 -2.38308 -3.53711 0
M  V30 6701 S 657.856 -4.00852 -3.55075 0
M  V30 6702 C 659.012 -3.83197 -4.94885 0
M  V30 6703 H 659.245 -2.36691 -1.79902 0
M  V30 6704 H 656.778 -1.29746 -0.836977 0
M  V30 6705 H 658.736 -1.10633 -3.95311 0
M  V30 6706 H 657.397 -0.27881 -3.1286 0
M  V30 6707 H 656.59 -2.20076 -4.53412 0
M  V30 6708 H 656.192 -2.45732 -2.81943 0
M  V30 6709 H 658.484 -3.44765 -5.83218 0
M  V30 6710 H 659.427 -4.82607 -5.18166 0
M  V30 6711 H 659.835 -3.15884 -4.67843 0
M  V30 6712 N 659.233 0.902656 -1.29189 0
M  V30 6713 C 660.165 2.01149 -1.09872 0
M  V30 6714 C 661.178 1.62732 -0.0471046 0
M  V30 6715 O 662.367 1.76107 -0.29132 0
M  V30 6716 C 659.467 3.32612 -0.649818 0
M  V30 6717 C 658.64 3.99574 -1.7793 0
M  V30 6718 C 657.699 5.09325 -1.32191 0
M  V30 6719 O 656.725 5.31919 -2.02611 0
M  V30 6720 N 657.927 5.80185 -0.191171 0
M  V30 6721 H 660.692 2.18276 -2.05368 0
M  V30 6722 H 658.253 1.07466 -1.2109 0
M  V30 6723 H 660.245 4.03375 -0.327199 0
M  V30 6724 H 658.815 3.11876 0.212597 0
M  V30 6725 H 658.035 3.22213 -2.27095 0
M  V30 6726 H 659.323 4.41056 -2.53668 0
M  V30 6727 H 658.721 5.64312 0.396016 0
M  V30 6728 H 657.278 6.5176 0.0721001 0
M  V30 6729 N 660.711 1.11618 1.11262 0
M  V30 6730 C 661.939 0.888739 1.8684 0
M  V30 6731 C 662.354 -0.561558 1.80255 0
M  V30 6732 O 661.711 -1.38782 1.18515 0
M  V30 6733 C 661.762 1.34422 3.35579 0
M  V30 6734 O 661.483 2.73766 3.42029 0
M  V30 6735 C 662.984 1.15246 4.28058 0
M  V30 6736 H 660.204 0.318152 0.590779 0
M  V30 6737 H 662.748 1.48398 1.40707 0
M  V30 6738 H 660.903 0.79239 3.7921 0
M  V30 6739 H 661.317 2.9355 4.34659 0
M  V30 6740 H 662.791 1.52015 5.30656 0
M  V30 6741 H 663.268 0.0922007 4.39103 0
M  V30 6742 H 663.874 1.69136 3.90222 0
M  V30 6743 N 662.189 -1.289 0.906776 0
M  V30 6744 C 663.099 -2.31256 0.394707 0
M  V30 6745 C 664.115 -1.66231 -0.514121 0
M  V30 6746 O 665.291 -1.97347 -0.401994 0
M  V30 6747 C 662.356 -3.44792 -0.363191 0
M  V30 6748 C 661.417 -4.25391 0.578012 0
M  V30 6749 C 660.65 -5.33506 -0.143811 0
M  V30 6750 O 660.873 -5.53786 -1.36665 0
M  V30 6751 O 659.807 -5.99673 0.5173 0
M  V30 6752 H 663.633 -2.77051 1.24405 0
M  V30 6753 H 661.218 -1.33466 0.671346 0
M  V30 6754 H 663.1 -4.139 -0.791503 0
M  V30 6755 H 661.775 -3.01093 -1.18848 0
M  V30 6756 H 660.682 -3.58899 1.05558 0
M  V30 6757 H 662.015 -4.72752 1.36992 0
M  V30 6758 N 663.667 -0.670007 -1.42649 0
M  V30 6759 C 664.944 -0.119451 -1.95235 0
M  V30 6760 C 665.324 1.36461 -1.61064 0
M  V30 6761 O 664.672 2.09843 -0.904329 0
M  V30 6762 C 664.882 -0.383498 -3.46887 0
M  V30 6763 C 666.23 -0.297431 -4.23557 0
M  V30 6764 O 667.254 -0.31698 -3.54787 0
M  V30 6765 O 666.113 -0.235507 -5.45992 0
M  V30 6766 H 663.207 -8.85474e-05 -0.827 0
M  V30 6767 H 665.753 -0.744406 -1.52501 0
M  V30 6768 H 664.525 -1.41174 -3.64946 0
M  V30 6769 H 664.148 0.273702 -3.96657 0
M  V30 6770 N 665.145 1.52092 -0.413018 0
M  V30 6771 C 666.561 1.59471 -0.0640836 0
M  V30 6772 C 666.761 1.42562 1.42402 0
M  V30 6773 O 665.817 1.25453 2.19129 0
M  V30 6774 C 667.13 2.95392 -0.562474 0
M  V30 6775 C 668.678 3.08637 -0.520788 0
M  V30 6776 C 669.153 4.47044 -0.995752 0
M  V30 6777 N 670.644 4.53296 -0.952732 0
M  V30 6778 C 671.379 5.58669 -1.29138 0
M  V30 6779 N 670.875 6.71576 -1.70168 0
M  V30 6780 N 672.668 5.48898 -1.2111 0
M  V30 6781 H 664.819 1.6133 -1.38153 0
M  V30 6782 H 667.082 0.75916 -0.567785 0
M  V30 6783 H 666.788 3.13059 -1.60271 0
M  V30 6784 H 666.662 3.77191 0.0257875 0
M  V30 6785 H 669.049 2.90652 0.510412 0
M  V30 6786 H 669.13 2.28735 -1.14515 0
M  V30 6787 H 668.774 4.65773 -2.0253 0
M  V30 6788 H 668.704 5.25448 -0.348162 0
M  V30 6789 H 671.195 3.72248 -0.651119 0
M  V30 6790 H 671.508 7.47973 -1.9431 0
M  V30 6791 H 669.853 6.72847 -1.74075 0
M  V30 6792 H 673.044 4.59573 -0.889396 0
M  V30 6793 H 673.217 6.30912 -1.47833 0
M  V30 6794 N 666.623 0.143563 1.56945 0
M  V30 6795 C 667.851 -0.515447 2.00377 0
M  V30 6796 C 668.266 -1.58643 1.02361 0
M  V30 6797 O 667.623 -1.82489 0.0201039 0
M  V30 6798 C 667.674 -1.11923 3.43737 0
M  V30 6799 O 667.395 -0.0910318 4.38005 0
M  V30 6800 C 668.896 -1.85918 4.02429 0
M  V30 6801 H 666.116 -0.134478 0.657386 0
M  V30 6802 H 668.66 0.237135 2.0312 0
M  V30 6803 H 666.815 -1.82245 3.41856 0
M  V30 6804 H 667.229 -0.532916 5.21786 0
M  V30 6805 H 668.703 -2.2346 5.04747 0
M  V30 6806 H 669.18 -2.7438 3.42947 0
M  V30 6807 H 669.786 -1.20303 4.07931 0
M  V30 6808 N 668.101 -1.57061 -0.130224 0
M  V30 6809 C 669.034 -1.94698 -1.19029 0
M  V30 6810 C 670.012 -0.815074 -1.40696 0
M  V30 6811 O 671.196 -1.07223 -1.55034 0
M  V30 6812 C 668.323 -2.23352 -2.5462 0
M  V30 6813 C 667.369 -3.45945 -2.49448 0
M  V30 6814 S 668.202 -4.98927 -1.94505 0
M  V30 6815 C 669.358 -5.30721 -3.31792 0
M  V30 6816 H 669.591 -2.84308 -0.869272 0
M  V30 6817 H 667.124 -1.50688 -0.336531 0
M  V30 6818 H 669.082 -2.40539 -3.32643 0
M  V30 6819 H 667.743 -1.34376 -2.83905 0
M  V30 6820 H 666.936 -3.63324 -3.49302 0
M  V30 6821 H 666.538 -3.28086 -1.79543 0
M  V30 6822 H 668.83 -5.25215 -4.27966 0
M  V30 6823 H 669.773 -6.32048 -3.19251 0
M  V30 6824 H 670.181 -4.5821 -3.29703 0
M  V30 6825 N 669.579 0.400081 -1.52437 0
M  V30 6826 C 670.526 1.48803 -1.76426 0
M  V30 6827 C 671.496 1.5461 -0.607032 0
M  V30 6828 O 672.681 1.71041 -0.845563 0
M  V30 6829 C 669.821 2.86156 -1.92896 0
M  V30 6830 C 668.934 2.89587 -3.20567 0
M  V30 6831 C 668.069 4.18296 -3.27417 0
M  V30 6832 C 667.108 4.15736 -4.49255 0
M  V30 6833 N 666.245 5.36032 -4.53447 0
M  V30 6834 H 671.085 1.27649 -2.69276 0
M  V30 6835 H 668.622 0.619451 -1.33421 0
M  V30 6836 H 670.58 3.65901 -2.00429 0
M  V30 6837 H 669.21 3.05785 -1.03418 0
M  V30 6838 H 668.262 2.02278 -3.22161 0
M  V30 6839 H 669.574 2.83562 -4.10358 0
M  V30 6840 H 668.728 5.06439 -3.34072 0
M  V30 6841 H 667.467 4.27028 -2.35581 0
M  V30 6842 H 666.472 3.25982 -4.42737 0
M  V30 6843 H 667.697 4.08636 -5.42396 0
M  V30 6844 H 665.643 5.45415 -3.64498 0
M  V30 6845 H 665.56 5.32038 -5.37096 0
M  V30 6846 H 666.828 6.26104 -4.64343 0
M  V30 6847 N 671.057 1.43213 0.657864 0
M  V30 6848 C 672.282 1.48227 1.45064 0
M  V30 6849 C 672.707 0.0999939 1.87834 0
M  V30 6850 O 672.065 -0.905269 1.57081 0
M  V30 6851 C 672.113 2.42931 2.6649 0
M  V30 6852 O 671.217 1.91237 3.6538 0
M  V30 6853 H 670.558 0.501551 0.435135 0
M  V30 6854 H 673.088 1.8808 0.805431 0
M  V30 6855 H 673.098 2.6008 3.1436 0
M  V30 6856 H 671.773 3.43348 2.34701 0
M  V30 6857 H 670.35 1.83726 3.24498 0
M  V30 6858 N 672.536 -0.895792 1.29666 0
M  V30 6859 C 673.782 -1.64908 1.18039 0
M  V30 6860 C 674.115 -1.9236 -0.266682 0
M  V30 6861 O 673.39 -1.53682 -1.19214 0
M  V30 6862 C 673.673 -2.99574 1.99819 0
M  V30 6863 C 673.526 -2.79163 3.52687 0
M  V30 6864 C 674.845 -4.00358 1.82761 0
M  V30 6865 H 671.964 -0.598437 0.430165 0
M  V30 6866 H 674.606 -1.03736 1.59182 0
M  V30 6867 H 672.756 -3.51786 1.64859 0
M  V30 6868 H 674.428 -2.33821 3.9765 0
M  V30 6869 H 672.671 -2.13871 3.77414 0
M  V30 6870 H 673.342 -3.74871 4.05186 0
M  V30 6871 H 675.818 -3.57268 2.13304 0
M  V30 6872 H 674.694 -4.92514 2.42325 0
M  V30 6873 H 674.955 -4.35096 0.783839 0
M  V30 6874 N 674.014 -1.12206 -1.10668 0
M  V30 6875 C 674.962 -0.782918 -2.19028 0
M  V30 6876 C 675.956 0.229175 -1.67843 0
M  V30 6877 O 677.162 0.0876295 -1.79787 0
M  V30 6878 H 673.537 -0.235339 -0.714227 0
M  V30 6879 H 675.508 -1.70527 -2.44874 0
M  V30 6880 C 674.257 -0.25116 -3.46792 0
M  V30 6881 H 673.58 -1.02123 -3.86537 0
M  V30 6882 H 675.02 -0.0521409 -4.23968 0
M  V30 6883 C 673.479 1.02037 -3.21076 0
M  V30 6884 O 674.009 2.09862 -3.42522 0
M  V30 6885 N 672.215 0.946348 -2.74759 0
M  V30 6886 H 671.762 0.068777 -2.57508 0
M  V30 6887 H 671.72 1.79775 -2.57931 0
M  V30 6888 N 675.492 1.28418 -0.913599 0
M  V30 6889 C 676.769 1.89977 -0.465619 0
M  V30 6890 C 677.149 1.82813 1.05559 0
M  V30 6891 O 676.497 1.26397 1.90358 0
M  V30 6892 C 676.707 3.34492 -0.995813 0
M  V30 6893 C 678.055 4.11468 -1.04782 0
M  V30 6894 O 679.079 3.43451 -0.944445 0
M  V30 6895 O 677.938 5.33046 -1.20518 0
M  V30 6896 H 675.032 0.813734 -0.147532 0
M  V30 6897 H 677.578 1.36786 -1.00437 0
M  V30 6898 H 676.35 3.33929 -2.03978 0
M  V30 6899 H 675.973 3.95181 -0.437878 0
M  V30 6900 N 676.97 0.677563 1.42291 0
M  V30 6901 C 677.902 -0.0380218 2.29168 0
M  V30 6902 C 678.915 -0.762714 1.43828 0
M  V30 6903 O 680.104 -0.616413 1.67519 0
M  V30 6904 C 677.204 -1.07761 3.21311 0
M  V30 6905 C 676.377 -0.42618 4.35319 0
M  V30 6906 C 675.436 -1.36592 5.08162 0
M  V30 6907 O 674.462 -0.865174 5.62586 0
M  V30 6908 N 675.664 -2.69909 5.13935 0
M  V30 6909 H 678.429 0.707766 2.91223 0
M  V30 6910 H 675.99 0.52219 1.53247 0
M  V30 6911 H 677.982 -1.70761 3.6691 0
M  V30 6912 H 676.552 -1.72511 2.60689 0
M  V30 6913 H 675.772 0.383385 3.92331 0
M  V30 6914 H 677.06 0.0275277 5.08793 0
M  V30 6915 H 676.458 -3.13129 4.71134 0
M  V30 6916 H 675.015 -3.2815 5.6317 0
M  V30 6917 N 678.448 -1.51871 0.421078 0
M  V30 6918 C 679.859 -1.86644 -0.0457991 0
M  V30 6919 C 680.21 -1.33919 -1.43388 0
M  V30 6920 O 679.335 -0.683316 -2.05328 0
M  V30 6921 C 679.93 -3.38681 -0.0898844 0
M  V30 6922 C 678.489 -3.73049 -0.501127 0
M  V30 6923 C 677.636 -2.75485 0.316723 0
M  V30 6924 H 680.587 -1.45327 0.637635 0
M  V30 6925 H 680.608 -3.69636 -0.902734 0
M  V30 6926 H 680.12 -3.77025 0.920513 0
M  V30 6927 H 678.221 -3.40288 -1.51773 0
M  V30 6928 H 678.334 -4.78512 -0.237217 0
M  V30 6929 H 676.698 -2.53725 -0.222663 0
M  V30 6930 H 677.481 -3.16671 1.32569 0
M  V30 6931 N 679.926 -0.151884 -1.56866 0
M  V30 6932 C 681.151 0.508044 -2.01081 0
M  V30 6933 C 681.576 1.57306 -1.03134 0
M  V30 6934 O 680.934 1.81298 -0.0078309 0
M  V30 6935 C 680.982 1.08106 -3.44014 0
M  V30 6936 O 680.086 2.19577 -3.49084 0
M  V30 6937 H 679.427 0.123757 -0.652365 0
M  V30 6938 H 681.957 -0.250055 -2.03066 0
M  V30 6939 H 681.967 1.40851 -3.82916 0
M  V30 6940 H 680.642 0.301168 -4.14808 0
M  V30 6941 H 679.219 1.88023 -3.22027 0
M  V30 6942 N 681.404 1.57128 0.121893 0
M  V30 6943 C 682.652 1.84335 0.828548 0
M  V30 6944 C 682.973 0.736632 1.80551 0
M  V30 6945 O 682.243 -0.23962 1.94429 0
M  V30 6946 H 680.823 0.680108 0.30897 0
M  V30 6947 H 683.485 1.9459 0.109906 0
M  V30 6948 H 682.581 2.80152 1.37554 0
M  V30 6949 N 682.882 -0.391992 1.52647 0
M  V30 6950 C 683.83 -1.4991 1.77848 0
M  V30 6951 C 684.824 -1.56587 0.646282 0
M  V30 6952 O 686.03 -1.59789 0.828698 0
M  V30 6953 H 682.405 -0.498883 0.56269 0
M  V30 6954 H 684.376 -1.25847 2.70564 0
M  V30 6955 C 683.125 -2.87081 1.96163 0
M  V30 6956 H 682.448 -2.82692 2.82711 0
M  V30 6957 H 683.888 -3.63792 2.17787 0
M  V30 6958 C 682.347 -3.28822 0.733348 0
M  V30 6959 O 682.877 -4.01598 -0.0906481 0
M  V30 6960 N 681.083 -2.85068 0.564317 0
M  V30 6961 H 680.63 -2.26012 1.23598 0
M  V30 6962 H 680.588 -3.13355 -0.256166 0
M  V30 6963 N 684.36 -1.4356 -0.65026 0
M  V30 6964 C 685.29 -1.51758 -1.77459 0
M  V30 6965 C 686.271 -0.372019 -1.65982 0
M  V30 6966 O 687.456 -0.589627 -1.85033 0
M  V30 6967 C 684.586 -1.44302 -3.15902 0
M  V30 6968 C 683.54 -2.57138 -3.42146 0
M  V30 6969 C 682.866 -2.34735 -4.8042 0
M  V30 6970 C 684.166 -3.99373 -3.36598 0
M  V30 6971 H 685.86 -2.45863 -1.70855 0
M  V30 6972 H 683.406 -1.18333 -0.820566 0
M  V30 6973 H 685.359 -1.48641 -3.94314 0
M  V30 6974 H 684.083 -0.467026 -3.23244 0
M  V30 6975 H 682.742 -2.52157 -2.66106 0
M  V30 6976 H 682.39 -1.35372 -4.84441 0
M  V30 6977 H 682.09 -3.10375 -4.9894 0
M  V30 6978 H 683.614 -2.40862 -5.61086 0
M  V30 6979 H 685.028 -4.05826 -4.04942 0
M  V30 6980 H 683.425 -4.75063 -3.66654 0
M  V30 6981 H 684.495 -4.243 -2.34729 0
M  V30 6982 N 685.838 0.888903 -1.30139 0
M  V30 6983 C 687.249 1.45578 -1.16893 0
M  V30 6984 C 687.6 1.94825 0.231866 0
M  V30 6985 O 686.725 1.84661 1.12824 0
M  V30 6986 C 687.32 2.646 -2.11595 0
M  V30 6987 C 685.879 3.17389 -2.02339 0
M  V30 6988 C 685.026 1.90081 -2.01902 0
M  V30 6989 H 687.977 0.69921 -1.42467 0
M  V30 6990 H 687.998 3.40687 -1.69449 0
M  V30 6991 H 687.51 2.28726 -3.13538 0
M  V30 6992 H 685.611 3.5793 -1.03523 0
M  V30 6993 H 685.724 3.80955 -2.90534 0
M  V30 6994 H 684.088 2.08246 -1.46648 0
M  V30 6995 H 684.871 1.5647 -3.05568 0
M  V30 6996 N 687.317 1.12792 1.10072 0
M  V30 6997 C 688.564 0.885545 1.82111 0
M  V30 6998 C 688.892 -0.588519 1.85383 0
M  V30 6999 O 688.147 -1.45124 1.31292 0
M  V30 7000 C 688.446 1.4102 3.28403 0
M  V30 7001 C 688.112 2.89995 3.45273 0
M  V30 7002 C 686.774 3.30671 3.49585 0
M  V30 7003 C 689.126 3.85874 3.50358 0
M  V30 7004 C 686.454 4.65925 3.56553 0
M  V30 7005 C 688.806 5.20963 3.58859 0
M  V30 7006 C 687.47 5.61177 3.61437 0
M  V30 7007 H 686.74 0.324044 0.666391 0
M  V30 7008 H 689.387 1.40874 1.29718 0
M  V30 7009 H 687.692 0.807551 3.83387 0
M  V30 7010 H 689.389 1.19882 3.82661 0
M  V30 7011 H 685.979 2.57537 3.42597 0
M  V30 7012 H 690.163 3.5554 3.46273 0
M  V30 7013 H 685.419 4.96468 3.56833 0
M  V30 7014 H 689.593 5.95079 3.61738 0
M  V30 7015 H 687.22 6.6597 3.66589 0
M  V30 7016 N 688.795 -1.27931 0.920396 0
M  V30 7017 C 689.725 -2.29487 0.431024 0
M  V30 7018 C 690.706 -1.62435 -0.504861 0
M  V30 7019 O 691.891 -1.89797 -0.411176 0
M  V30 7020 C 689.021 -3.45788 -0.323709 0
M  V30 7021 C 687.975 -4.24784 0.523658 0
M  V30 7022 C 687.301 -5.33488 -0.359809 0
M  V30 7023 C 688.601 -4.90874 1.78437 0
M  V30 7024 H 690.295 -2.70671 1.27975 0
M  V30 7025 H 687.841 -1.30121 0.616813 0
M  V30 7026 H 689.794 -4.15927 -0.676952 0
M  V30 7027 H 688.518 -3.03502 -1.2064 0
M  V30 7028 H 687.177 -3.56382 0.85951 0
M  V30 7029 H 686.825 -4.87445 -1.24124 0
M  V30 7030 H 686.525 -5.87247 0.203605 0
M  V30 7031 H 688.049 -6.06472 -0.708787 0
M  V30 7032 H 689.463 -5.53339 1.49963 0
M  V30 7033 H 687.86 -5.54659 2.29071 0
M  V30 7034 H 688.93 -4.14988 2.50824 0
M  V30 7035 N 690.273 -0.685099 -1.4193 0
M  V30 7036 C 691.22 -0.0131869 -2.30796 0
M  V30 7037 C 692.19 0.782129 -1.46533 0
M  V30 7038 O 693.375 0.75229 -1.75343 0
M  V30 7039 C 690.515 0.924768 -3.32479 0
M  V30 7040 C 689.628 0.122181 -4.31827 0
M  V30 7041 C 688.763 1.05682 -5.20581 0
M  V30 7042 C 687.802 0.246526 -6.11603 0
M  V30 7043 N 686.939 1.13442 -6.92875 0
M  V30 7044 H 691.779 -0.776789 -2.87698 0
M  V30 7045 H 689.316 -0.394791 -1.41703 0
M  V30 7046 H 691.274 1.48251 -3.89971 0
M  V30 7047 H 689.904 1.65488 -2.77152 0
M  V30 7048 H 688.956 -0.552335 -3.76369 0
M  V30 7049 H 690.268 -0.506473 -4.96222 0
M  V30 7050 H 689.422 1.68415 -5.82856 0
M  V30 7051 H 688.161 1.71935 -4.56388 0
M  V30 7052 H 687.166 -0.393944 -5.48387 0
M  V30 7053 H 688.391 -0.412053 -6.77849 0
M  V30 7054 H 686.337 1.78316 -6.313 0
M  V30 7055 H 686.254 0.561089 -7.53915 0
M  V30 7056 H 687.522 1.74889 -7.59628 0
M  V30 7057 N 691.751 1.51645 -0.429126 0
M  V30 7058 C 693.162 1.86665 0.0359003 0
M  V30 7059 C 693.513 1.34677 1.42676 0
M  V30 7060 O 692.638 0.694195 2.04963 0
M  V30 7061 C 693.233 3.38724 0.0719221 0
M  V30 7062 C 691.792 3.7331 0.481336 0
M  V30 7063 C 690.939 2.75313 -0.331329 0
M  V30 7064 H 693.89 1.44987 -0.645333 0
M  V30 7065 H 693.911 3.7011 0.883118 0
M  V30 7066 H 693.423 3.76532 -0.940495 0
M  V30 7067 H 691.524 3.41088 1.49966 0
M  V30 7068 H 691.637 4.78631 0.211837 0
M  V30 7069 H 690.001 2.53839 0.209204 0
M  V30 7070 H 690.784 3.15963 -1.34247 0
M  V30 7071 N 693.229 0.160201 1.56784 0
M  V30 7072 C 694.506 -0.533355 1.88188 0
M  V30 7073 C 694.886 -1.82072 1.06831 0
M  V30 7074 O 694.234 -2.27946 0.158959 0
M  V30 7075 C 694.444 -0.786034 3.40033 0
M  V30 7076 C 695.792 -1.12097 4.09536 0
M  V30 7077 O 696.816 -0.874949 3.45287 0
M  V30 7078 O 695.675 -1.58457 5.23023 0
M  V30 7079 H 692.769 -0.273589 0.780434 0
M  V30 7080 H 695.315 0.197803 1.68543 0
M  V30 7081 H 694.087 0.124515 3.91102 0
M  V30 7082 H 693.71 -1.57091 3.65251 0
M  V30 7083 N 694.707 -1.5719 -0.113559 0
M  V30 7084 C 695.984 -1.76117 -0.850999 0
M  V30 7085 C 696.364 -0.737085 -1.97814 0
M  V30 7086 O 695.712 0.237942 -2.27258 0
M  V30 7087 C 695.922 -3.21298 -1.36266 0
M  V30 7088 C 697.27 -3.83955 -1.81283 0
M  V30 7089 O 698.294 -3.24934 -1.45933 0
M  V30 7090 O 697.153 -4.87707 -2.46585 0
M  V30 7091 H 694.247 -0.721308 -0.404529 0
M  V30 7092 H 696.793 -1.69423 -0.0968756 0
M  V30 7093 H 695.565 -3.87355 -0.554235 0
M  V30 7094 H 695.188 -3.32552 -2.17933 0
M  V30 7095 N 696.185 0.383891 -1.52853 0
M  V30 7096 C 697.434 1.12563 -1.67369 0
M  V30 7097 C 697.747 1.90982 -0.422533 0
M  V30 7098 O 698.953 2.6778 -0.447914 0
M  V30 7099 C 697.409 2.05011 -2.95801 0
M  V30 7100 C 697.017 1.31991 -4.28115 0
M  V30 7101 C 698.761 2.79289 -3.19684 0
M  V30 7102 C 696.668 2.23235 -5.4765 0
M  V30 7103 H 695.598 0.42391 -0.623552 0
M  V30 7104 H 698.249 0.388016 -1.79351 0
M  V30 7105 H 696.631 2.82429 -2.77578 0
M  V30 7106 H 697.805 0.597633 -4.56908 0
M  V30 7107 H 696.12 0.696517 -4.10533 0
M  V30 7108 H 698.717 3.47749 -4.06171 0
M  V30 7109 H 699.06 3.43649 -2.3497 0
M  V30 7110 H 699.593 2.08962 -3.38496 0
M  V30 7111 H 696.332 1.63482 -6.34786 0
M  V30 7112 H 695.852 2.93364 -5.23161 0
M  V30 7113 H 697.531 2.83205 -5.81725 0
M  V30 7114 N 697.663 1.43903 0.642637 0
M  V30 7115 C 698.595 1.45857 1.768 0
M  V30 7116 C 699.608 0.353358 1.58919 0
M  V30 7117 O 700.797 0.618426 1.67445 0
M  V30 7118 C 697.897 1.26583 3.14372 0
M  V30 7119 C 697.07 2.50139 3.58817 0
M  V30 7120 C 696.129 2.25933 4.75227 0
M  V30 7121 O 695.155 2.99351 4.84125 0
M  V30 7122 N 696.357 1.28263 5.66153 0
M  V30 7123 H 699.122 2.42869 1.75598 0
M  V30 7124 H 696.683 1.39194 0.826832 0
M  V30 7125 H 698.675 1.08255 3.89953 0
M  V30 7126 H 697.245 0.37978 3.10284 0
M  V30 7127 H 696.465 2.83821 2.73568 0
M  V30 7128 H 697.753 3.32344 3.8526 0
M  V30 7129 H 697.151 0.676041 5.61646 0
M  V30 7130 H 695.708 1.15916 6.4141 0
M  V30 7131 N 699.141 -0.881989 1.30609 0
M  V30 7132 C 700.371 -1.66469 1.22359 0
M  V30 7133 C 700.779 -1.87969 -0.215507 0
M  V30 7134 O 700.122 -1.42938 -1.15388 0
M  V30 7135 C 700.184 -3.06135 1.88472 0
M  V30 7136 C 699.848 -3.07795 3.37804 0
M  V30 7137 C 700.845 -2.86633 4.33749 0
M  V30 7138 C 698.53 -3.29297 3.793 0
M  V30 7139 C 700.524 -2.86934 5.69164 0
M  V30 7140 C 698.211 -3.29228 5.14832 0
M  V30 7141 C 699.209 -3.08071 6.09574 0
M  V30 7142 O 698.897 -3.07824 7.4263 0
M  V30 7143 H 698.629 -0.526129 0.424458 0
M  V30 7144 H 701.183 -1.11004 1.72821 0
M  V30 7145 H 699.413 -3.63276 1.32543 0
M  V30 7146 H 701.102 -3.66571 1.74301 0
M  V30 7147 H 701.868 -2.69814 4.0302 0
M  V30 7148 H 697.747 -3.44799 3.05998 0
M  V30 7149 H 701.291 -2.70339 6.43088 0
M  V30 7150 H 697.188 -3.45583 5.452 0
M  V30 7151 H 697.956 -3.2397 7.51656 0
M  V30 7152 N 700.619 -1.13374 -1.09472 0
M  V30 7153 C 701.866 -0.89519 -1.81639 0
M  V30 7154 C 702.194 0.57868 -1.85692 0
M  V30 7155 O 701.449 1.44426 -1.32059 0
M  V30 7156 C 701.748 -1.42759 -3.2765 0
M  V30 7157 C 701.414 -2.91822 -3.43731 0
M  V30 7158 C 700.076 -3.32521 -3.47827 0
M  V30 7159 C 702.428 -3.87727 -3.48307 0
M  V30 7160 C 699.756 -4.6781 -3.54078 0
M  V30 7161 C 702.108 -5.22859 -3.56091 0
M  V30 7162 C 700.772 -5.63086 -3.58456 0
M  V30 7163 H 700.042 -0.327573 -0.664663 0
M  V30 7164 H 702.689 -1.4156 -1.28969 0
M  V30 7165 H 700.994 -0.827871 -3.82954 0
M  V30 7166 H 702.691 -1.2191 -3.8202 0
M  V30 7167 H 699.281 -2.5935 -3.41226 0
M  V30 7168 H 703.465 -3.57371 -3.44383 0
M  V30 7169 H 698.721 -4.98353 -3.54195 0
M  V30 7170 H 702.895 -5.96989 -3.58577 0
M  V30 7171 H 700.522 -6.67905 -3.63052 0
M  V30 7172 N 702.098 1.27442 -0.927168 0
M  V30 7173 C 703.375 1.89473 -0.485742 0
M  V30 7174 C 703.755 1.83922 1.03614 0
M  V30 7175 O 703.103 1.28409 1.89007 0
M  V30 7176 C 703.313 3.33417 -1.03123 0
M  V30 7177 C 704.661 4.10333 -1.0914 0
M  V30 7178 O 705.685 3.4243 -0.98082 0
M  V30 7179 O 704.544 5.31737 -1.26165 0
M  V30 7180 H 701.638 0.812124 -0.156154 0
M  V30 7181 H 704.184 1.35713 -1.01882 0
M  V30 7182 H 702.956 3.31747 -2.07508 0
M  V30 7183 H 702.579 3.94695 -0.479767 0
M  V30 7184 N 703.576 0.692616 1.41565 0
M  V30 7185 C 704.523 0.0254264 2.30786 0
M  V30 7186 C 705.493 -0.774347 1.46946 0
M  V30 7187 O 706.678 -0.742981 1.7574 0
M  V30 7188 C 703.818 -0.907123 3.32964 0
M  V30 7189 C 702.931 -0.0992784 4.31886 0
M  V30 7190 C 702.066 -1.0292 5.21134 0
M  V30 7191 C 701.105 -0.214088 6.11725 0
M  V30 7192 N 700.242 -1.09766 6.93467 0
M  V30 7193 H 705.082 0.792036 2.87282 0
M  V30 7194 H 702.619 0.4023 1.41492 0
M  V30 7195 H 704.577 -1.46181 3.90752 0
M  V30 7196 H 703.207 -1.64016 2.78026 0
M  V30 7197 H 702.259 0.572287 3.76071 0
M  V30 7198 H 703.571 0.532782 4.95946 0
M  V30 7199 H 702.725 -1.65321 5.83741 0
M  V30 7200 H 701.464 -1.69512 4.57293 0
M  V30 7201 H 700.469 0.42302 5.4817 0
M  V30 7202 H 701.694 0.447995 6.77621 0
M  V30 7203 H 699.64 -1.74965 6.32237 0
M  V30 7204 H 699.557 -0.521099 7.54202 0
M  V30 7205 H 700.825 -1.70858 7.60544 0
M  V30 7206 N 705.054 -1.51416 0.437162 0
M  V30 7207 C 705.984 -2.30631 -0.364922 0
M  V30 7208 C 706.965 -1.36037 -1.02118 0
M  V30 7209 O 708.15 -1.64956 -1.02485 0
M  V30 7210 C 705.28 -3.1482 -1.46648 0
M  V30 7211 C 704.234 -4.17691 -0.933717 0
M  V30 7212 C 703.56 -4.904 -2.13101 0
M  V30 7213 C 704.86 -5.2229 0.0317201 0
M  V30 7214 H 706.554 -2.97932 0.29614 0
M  V30 7215 H 704.1 -1.4328 0.143865 0
M  V30 7216 H 706.053 -3.69017 -2.03481 0
M  V30 7217 H 704.777 -2.4534 -2.15583 0
M  V30 7218 H 703.436 -3.64545 -0.387602 0
M  V30 7219 H 703.084 -4.17423 -2.80654 0
M  V30 7220 H 702.784 -5.59962 -1.78092 0
M  V30 7221 H 704.308 -5.4742 -2.70487 0
M  V30 7222 H 705.722 -5.7156 -0.446302 0
M  V30 7223 H 704.119 -5.99378 0.29437 0
M  V30 7224 H 705.189 -4.75131 0.968447 0
M  V30 7225 N 706.532 -0.168513 -1.56696 0
M  V30 7226 C 707.462 0.758563 -2.20835 0
M  V30 7227 C 708.443 1.24121 -1.1631 0
M  V30 7228 O 709.628 1.29487 -1.4473 0
M  V30 7229 C 706.758 1.9892 -2.8469 0
M  V30 7230 C 705.712 1.64252 -3.95228 0
M  V30 7231 C 705.038 2.94757 -4.46119 0
M  V30 7232 C 706.338 0.872675 -5.14958 0
M  V30 7233 H 708.032 0.223953 -2.98561 0
M  V30 7234 H 705.578 0.106277 -1.43607 0
M  V30 7235 H 707.531 2.64275 -3.28233 0
M  V30 7236 H 706.255 2.5479 -2.04327 0
M  V30 7237 H 704.914 1.01266 -3.52336 0
M  V30 7238 H 704.562 3.48662 -3.62552 0
M  V30 7239 H 704.262 2.72316 -5.2069 0
M  V30 7240 H 705.786 3.61147 -4.92347 0
M  V30 7241 H 707.2 1.42875 -5.55211 0
M  V30 7242 H 705.597 0.747402 -5.95428 0
M  V30 7243 H 706.667 -0.131535 -4.84722 0
M  V30 7244 N 708.01 1.57248 0.105221 0
M  V30 7245 C 709.256 1.85845 0.811753 0
M  V30 7246 C 709.589 0.756219 1.78871 0
M  V30 7247 O 708.864 -0.236736 1.93054 0
M  V30 7248 C 709.147 3.25059 1.54947 0
M  V30 7249 C 709 4.45898 0.591185 0
M  V30 7250 C 710.319 3.6203 2.50245 0
M  V30 7251 H 707.438 0.675973 0.293649 0
M  V30 7252 H 710.08 1.89849 0.0756269 0
M  V30 7253 H 708.23 3.21776 2.17698 0
M  V30 7254 H 709.902 4.61291 -0.0285352 0
M  V30 7255 H 708.145 4.33693 -0.0962343 0
M  V30 7256 H 708.816 5.40009 1.1443 0
M  V30 7257 H 711.292 3.66192 1.97593 0
M  V30 7258 H 710.168 4.60389 2.98886 0
M  V30 7259 H 710.429 2.90176 3.33542 0
M  V30 7260 N 709.488 -0.375779 1.53054 0
M  V30 7261 C 710.765 -1.13453 1.59336 0
M  V30 7262 C 711.145 -2.07379 0.394614 0
M  V30 7263 O 710.493 -2.2004 -0.616 0
M  V30 7264 C 710.703 -1.8826 2.93869 0
M  V30 7265 C 712.051 -2.43155 3.48081 0
M  V30 7266 O 713.075 -1.984 2.95831 0
M  V30 7267 O 711.934 -3.24944 4.39401 0
M  V30 7268 H 709.028 -0.519856 0.643179 0
M  V30 7269 H 711.574 -0.379865 1.65394 0
M  V30 7270 H 710.346 -1.19652 3.72558 0
M  V30 7271 H 709.969 -2.70658 2.91256 0
M  V30 7272 N 710.966 -1.44241 -0.634997 0
M  V30 7273 C 712.212 -1.47038 -1.39669 0
M  V30 7274 C 712.545 -0.101122 -1.93937 0
M  V30 7275 O 711.82 0.880699 -1.73418 0
M  V30 7276 C 712.103 -2.52763 -2.56482 0
M  V30 7277 C 711.956 -3.99032 -2.07589 0
M  V30 7278 C 713.275 -2.55031 -3.58674 0
M  V30 7279 H 710.394 -0.53537 -0.506506 0
M  V30 7280 H 713.036 -1.75898 -0.718317 0
M  V30 7281 H 711.186 -2.28284 -3.14354 0
M  V30 7282 H 712.858 -4.3463 -1.54577 0
M  V30 7283 H 711.101 -4.10994 -1.38804 0
M  V30 7284 H 711.772 -4.68649 -2.91671 0
M  V30 7285 H 714.248 -2.76893 -3.10595 0
M  V30 7286 H 713.124 -3.30916 -4.37934 0
M  V30 7287 H 713.385 -1.59085 -4.12486 0
M  V30 7288 N 712.444 0.87505 -1.31075 0
M  V30 7289 C 713.721 1.60976 -1.11113 0
M  V30 7290 C 714.101 2.08409 0.336006 0
M  V30 7291 O 713.449 1.85858 1.32924 0
M  V30 7292 C 713.659 2.77166 -2.12085 0
M  V30 7293 C 715.007 3.47254 -2.44335 0
M  V30 7294 O 716.031 2.87367 -2.10472 0
M  V30 7295 O 714.89 4.55276 -3.02301 0
M  V30 7296 H 711.984 0.707982 -0.427424 0
M  V30 7297 H 714.53 0.920957 -1.42536 0
M  V30 7298 H 713.302 2.39494 -3.09449 0
M  V30 7299 H 712.925 3.53737 -1.81538 0
M  V30 7300 N 713.922 1.13953 1.08869 0
M  V30 7301 C 714.832 0.835666 2.19212 0
M  V30 7302 C 715.848 -0.182005 1.73045 0
M  V30 7303 O 717.024 -0.0116661 2.01397 0
M  V30 7304 C 714.089 0.312325 3.4529 0
M  V30 7305 C 713.15 1.39196 4.06107 0
M  V30 7306 C 712.383 0.893496 5.26168 0
M  V30 7307 O 712.606 -0.266807 5.69776 0
M  V30 7308 O 711.54 1.67037 5.78258 0
M  V30 7309 H 715.366 1.75769 2.47667 0
M  V30 7310 H 712.951 0.917421 1.17914 0
M  V30 7311 H 714.833 0.0261582 4.21392 0
M  V30 7312 H 713.508 -0.582042 3.18424 0
M  V30 7313 H 712.415 1.73152 3.31616 0
M  V30 7314 H 713.748 2.26068 4.37212 0
M  V30 7315 N 715.4 -1.26948 0.933913 0
M  V30 7316 C 716.625 -1.98724 0.593589 0
M  V30 7317 C 717.05 -1.6915 -0.822801 0
M  V30 7318 O 716.408 -0.93533 -1.5531 0
M  V30 7319 C 716.456 -3.50834 0.833542 0
M  V30 7320 O 715.56 -4.12284 -0.0978788 0
M  V30 7321 H 714.901 -0.623683 0.227849 0
M  V30 7322 H 717.431 -1.61599 1.25486 0
M  V30 7323 H 717.441 -4.01018 0.75156 0
M  V30 7324 H 716.116 -3.71691 1.86597 0
M  V30 7325 H 714.693 -3.72884 0.0345443 0
M  V30 7326 N 716.879 -0.700114 -1.41195 0
M  V30 7327 C 718.107 -0.242179 -2.05478 0
M  V30 7328 C 718.522 1.11029 -1.52702 0
M  V30 7329 O 717.879 1.69473 -0.677127 0
M  V30 7330 C 717.93 -0.196271 -3.60967 0
M  V30 7331 O 717.651 -1.49532 -4.11791 0
M  V30 7332 C 719.152 0.282102 -4.42401 0
M  V30 7333 H 716.372 -0.111749 -0.661629 0
M  V30 7334 H 718.916 -0.953975 -1.80885 0
M  V30 7335 H 717.071 0.46638 -3.84582 0
M  V30 7336 H 717.485 -1.38545 -5.05871 0
M  V30 7337 H 718.959 0.263093 -5.51373 0
M  V30 7338 H 719.436 1.32174 -4.1884 0
M  V30 7339 H 720.042 -0.349712 -4.2386 0
M  V30 7340 N 718.357 1.51182 -0.445186 0
M  V30 7341 C 719.287 2.30821 0.352686 0
M  V30 7342 C 720.268 1.36576 1.01395 0
M  V30 7343 O 721.453 1.65497 1.01609 0
M  V30 7344 C 718.583 3.15593 1.44976 0
M  V30 7345 C 717.537 4.1818 0.911553 0
M  V30 7346 C 716.863 4.91523 2.10497 0
M  V30 7347 C 718.163 5.22266 -0.059418 0
M  V30 7348 H 719.857 2.97771 -0.311936 0
M  V30 7349 H 717.403 1.43201 -0.151461 0
M  V30 7350 H 719.356 3.70091 2.01521 0
M  V30 7351 H 718.08 2.4648 2.14278 0
M  V30 7352 H 716.739 3.64746 0.368264 0
M  V30 7353 H 716.387 4.18906 2.78437 0
M  V30 7354 H 716.087 5.60898 1.7512 0
M  V30 7355 H 717.611 5.48847 2.6758 0
M  V30 7356 H 719.025 5.71789 0.415985 0
M  V30 7357 H 717.422 5.99213 -0.326152 0
M  V30 7358 H 718.492 4.7461 -0.993631 0
M  V30 7359 N 719.835 0.176821 1.56605 0
M  V30 7360 C 721.06 -0.47599 2.01864 0
M  V30 7361 C 721.485 -1.55645 1.05623 0
M  V30 7362 O 720.843 -1.81263 0.0366729 0
M  V30 7363 C 720.891 -1.02619 3.4569 0
M  V30 7364 O 719.995 -2.13996 3.52533 0
M  V30 7365 H 719.336 -0.113363 0.654251 0
M  V30 7366 H 721.866 0.28233 2.02643 0
M  V30 7367 H 721.876 -1.34742 3.85109 0
M  V30 7368 H 720.551 -0.235138 4.15235 0
M  V30 7369 H 719.128 -1.82876 3.24978 0
M  V30 7370 N 721.313 -1.57302 -0.09688 0
M  V30 7371 C 722.724 -1.7496 -0.651595 0
M  V30 7372 C 723.075 -0.798746 -1.79205 0
M  V30 7373 O 722.2 0.0231858 -2.16388 0
M  V30 7374 C 722.795 -3.17259 -1.18878 0
M  V30 7375 C 721.354 -3.36348 -1.68958 0
M  V30 7376 C 720.501 -2.70766 -0.598413 0
M  V30 7377 H 723.452 -1.58173 0.12918 0
M  V30 7378 H 723.473 -3.20033 -2.05814 0
M  V30 7379 H 722.985 -3.8644 -0.358523 0
M  V30 7380 H 721.086 -2.72243 -2.5439 0
M  V30 7381 H 721.199 -4.44654 -1.7838 0
M  V30 7382 H 719.563 -2.32615 -1.03743 0
M  V30 7383 H 720.346 -3.42586 0.221238 0
M  V30 7384 N 722.791 0.367657 -1.53252 0
M  V30 7385 C 723.701 1.47415 -1.82499 0
M  V30 7386 C 724.717 1.58711 -0.713222 0
M  V30 7387 O 725.893 1.74644 -1.00306 0
M  V30 7388 C 722.958 2.82706 -2.00694 0
M  V30 7389 C 722.019 2.80955 -3.24596 0
M  V30 7390 C 721.252 4.09793 -3.41914 0
M  V30 7391 O 721.475 5.05852 -2.63572 0
M  V30 7392 O 720.409 4.15731 -4.3526 0
M  V30 7393 H 724.235 1.25624 -2.765 0
M  V30 7394 H 721.82 0.557559 -1.38606 0
M  V30 7395 H 723.702 3.62873 -2.14246 0
M  V30 7396 H 722.377 3.04479 -1.09883 0
M  V30 7397 H 721.284 1.99494 -3.16469 0
M  V30 7398 H 722.617 2.64136 -4.15323 0
M  V30 7399 N 724.269 1.44576 0.627338 0
M  V30 7400 C 725.179 1.54232 1.76776 0
M  V30 7401 C 726.195 0.427782 1.6866 0
M  V30 7402 O 727.371 0.685671 1.89369 0
M  V30 7403 C 724.436 1.48738 3.13174 0
M  V30 7404 C 723.497 2.71074 3.32893 0
M  V30 7405 C 722.73 2.65832 4.62784 0
M  V30 7406 O 722.953 1.72048 5.43834 0
M  V30 7407 O 721.887 3.56742 4.84787 0
M  V30 7408 H 725.713 2.50586 1.71582 0
M  V30 7409 H 723.298 1.26865 0.789028 0
M  V30 7410 H 725.18 1.48211 3.94476 0
M  V30 7411 H 723.855 0.555292 3.18902 0
M  V30 7412 H 722.762 2.77168 2.51254 0
M  V30 7413 H 724.095 3.63342 3.32029 0
M  V30 7414 N 725.747 -0.868086 1.31537 0
M  V30 7415 C 726.679 -1.98165 1.15166 0
M  V30 7416 C 727.692 -1.6255 0.0902335 0
M  V30 7417 O 728.881 -1.75272 0.33791 0
M  V30 7418 C 725.981 -3.30772 0.737776 0
M  V30 7419 C 725.154 -3.94716 1.88462 0
M  V30 7420 C 724.213 -5.05641 1.45648 0
M  V30 7421 O 723.239 -5.2636 2.16642 0
M  V30 7422 N 724.441 -5.79474 0.34493 0
M  V30 7423 H 727.206 -2.12754 2.11083 0
M  V30 7424 H 724.767 -1.04217 1.23897 0
M  V30 7425 H 726.759 -4.02366 0.434032 0
M  V30 7426 H 725.329 -3.1233 -0.129834 0
M  V30 7427 H 724.549 -3.16079 2.35558 0
M  V30 7428 H 725.837 -4.34175 2.65273 0
M  V30 7429 H 725.235 -5.65164 -0.246259 0
M  V30 7430 H 723.792 -6.51722 0.100728 0
M  V30 7431 N 727.225 -1.14528 -1.08264 0
M  V30 7432 C 728.172 -0.833556 -2.15222 0
M  V30 7433 C 729.142 0.209539 -1.64773 0
M  V30 7434 O 730.327 0.0791388 -1.90636 0
M  V30 7435 C 727.467 -0.318799 -3.43624 0
M  V30 7436 C 726.58 -1.42237 -4.07913 0
M  V30 7437 C 725.715 -0.864704 -5.24115 0
M  V30 7438 C 724.754 -1.94585 -5.80347 0
M  V30 7439 N 723.891 -1.40525 -6.87893 0
M  V30 7440 H 728.731 -1.74965 -2.41228 0
M  V30 7441 H 726.268 -0.873169 -1.18381 0
M  V30 7442 H 728.226 -0.00213088 -4.172 0
M  V30 7443 H 726.856 0.560397 -3.17898 0
M  V30 7444 H 725.908 -1.8554 -3.32083 0
M  V30 7445 H 727.22 -2.23901 -4.45724 0
M  V30 7446 H 726.374 -0.500025 -6.04636 0
M  V30 7447 H 725.113 -0.0171219 -4.87697 0
M  V30 7448 H 724.118 -2.31946 -4.98479 0
M  V30 7449 H 725.343 -2.79704 -6.18823 0
M  V30 7450 H 723.289 -0.579873 -6.53432 0
M  V30 7451 H 723.206 -2.15825 -7.24538 0
M  V30 7452 H 724.474 -1.06852 -7.72142 0
M  V30 7453 N 728.703 1.26451 -0.940633 0
M  V30 7454 C 729.613 2.30128 -0.455881 0
M  V30 7455 C 730.629 1.67536 0.469867 0
M  V30 7456 O 731.805 1.98344 0.349529 0
M  V30 7457 C 728.87 3.45634 0.271648 0
M  V30 7458 C 727.931 4.23709 -0.690594 0
M  V30 7459 C 727.164 5.337 0.00231047 0
M  V30 7460 O 727.387 5.57215 1.21935 0
M  V30 7461 O 726.321 5.98091 -0.676111 0
M  V30 7462 H 730.147 2.73655 -1.31707 0
M  V30 7463 H 727.732 1.3164 -0.706497 0
M  V30 7464 H 729.614 4.15853 0.681486 0
M  V30 7465 H 728.289 3.04138 1.10824 0
M  V30 7466 H 727.196 3.55974 -1.15037 0
M  V30 7467 H 728.529 4.68953 -1.49478 0
M  V30 7468 N 730.181 0.707592 1.40822 0
M  V30 7469 C 731.597 0.38034 1.55002 0
M  V30 7470 C 731.797 -1.11163 1.68062 0
M  V30 7471 O 730.853 -1.89761 1.66574 0
M  V30 7472 C 732.166 1.1394 2.78277 0
M  V30 7473 C 733.714 1.12492 2.92087 0
M  V30 7474 C 734.189 1.86597 4.18265 0
M  V30 7475 N 735.68 1.83626 4.25248 0
M  V30 7476 C 736.415 2.37794 5.21768 0
M  V30 7477 N 735.911 3.00485 6.24244 0
M  V30 7478 N 737.704 2.27982 5.13791 0
M  V30 7479 H 729.855 1.67511 1.3059 0
M  V30 7480 H 732.118 0.707579 0.630901 0
M  V30 7481 H 731.824 2.19398 2.74877 0
M  V30 7482 H 731.698 0.725793 3.70151 0
M  V30 7483 H 734.085 0.0785564 2.94995 0
M  V30 7484 H 734.166 1.57768 2.01353 0
M  V30 7485 H 733.81 2.91219 4.16118 0
M  V30 7486 H 733.74 1.38746 5.07993 0
M  V30 7487 H 736.231 1.3793 3.51829 0
M  V30 7488 H 736.544 3.39355 6.94304 0
M  V30 7489 H 734.889 3.04567 6.24711 0
M  V30 7490 H 738.08 1.78669 4.3266 0
M  V30 7491 H 738.253 2.70499 5.88841 0
M  V30 7492 N 731.66 -1.50943 0.453197 0
M  V30 7493 C 732.607 -2.28128 -0.350197 0
M  V30 7494 C 733.577 -1.32398 -1.00299 0
M  V30 7495 O 734.762 -1.61319 -1.01887 0
M  V30 7496 C 731.902 -3.13782 -1.43649 0
M  V30 7497 C 731.015 -4.24523 -0.800255 0
M  V30 7498 C 730.15 -4.97462 -1.86293 0
M  V30 7499 C 729.189 -6.00102 -1.20598 0
M  V30 7500 N 728.326 -6.66387 -2.21071 0
M  V30 7501 H 733.166 -2.96337 0.31434 0
M  V30 7502 H 730.703 -1.46151 0.166863 0
M  V30 7503 H 732.661 -3.6178 -2.07776 0
M  V30 7504 H 731.291 -2.47655 -2.07044 0
M  V30 7505 H 730.343 -3.80371 -0.0468651 0
M  V30 7506 H 731.655 -4.98009 -0.280777 0
M  V30 7507 H 730.809 -5.49088 -2.58044 0
M  V30 7508 H 729.548 -4.23642 -2.41617 0
M  V30 7509 H 728.553 -5.47753 -0.474 0
M  V30 7510 H 729.778 -6.75887 -0.659859 0
M  V30 7511 H 727.724 -5.9537 -2.75446 0
M  V30 7512 H 727.641 -7.3569 -1.74058 0
M  V30 7513 H 728.909 -7.22638 -2.92257 0
M  V30 7514 N 733.138 -0.185124 -1.56509 0
M  V30 7515 C 734.387 0.456421 -1.96468 0
M  V30 7516 C 734.7 1.63448 -1.07444 0
M  V30 7517 O 735.906 2.34316 -1.37143 0
M  V30 7518 C 734.362 0.863404 -3.4939 0
M  V30 7519 C 733.97 -0.289815 -4.47062 0
M  V30 7520 C 735.714 1.47259 -3.98139 0
M  V30 7521 C 733.621 0.137571 -5.9124 0
M  V30 7522 H 732.551 0.17429 -0.733579 0
M  V30 7523 H 735.202 -0.275554 -1.81419 0
M  V30 7524 H 733.584 1.65176 -3.59907 0
M  V30 7525 H 734.758 -1.06728 -4.4827 0
M  V30 7526 H 733.073 -0.809851 -4.08449 0
M  V30 7527 H 735.67 1.80463 -5.03326 0
M  V30 7528 H 736.013 2.3755 -3.41871 0
M  V30 7529 H 736.546 0.748405 -3.90696 0
M  V30 7530 H 733.285 -0.730907 -6.51412 0
M  V30 7531 H 732.805 0.8801 -5.93308 0
M  V30 7532 H 734.484 0.576771 -6.44424 0
M  V30 7533 N 734.616 1.57351 0.0885366 0
M  V30 7534 C 735.549 1.97786 1.13825 0
M  V30 7535 C 736.527 0.852091 1.38485 0
M  V30 7536 O 737.711 1.11296 1.52137 0
M  V30 7537 C 734.838 2.30024 2.48609 0
M  V30 7538 C 733.884 3.52437 2.40189 0
M  V30 7539 S 734.717 5.03908 1.81209 0
M  V30 7540 C 735.873 5.39331 3.17605 0
M  V30 7541 H 736.106 2.86513 0.793587 0
M  V30 7542 H 733.639 1.51527 0.29646 0
M  V30 7543 H 735.597 2.49274 3.26148 0
M  V30 7544 H 734.258 1.41856 2.80242 0
M  V30 7545 H 733.451 3.72457 3.39546 0
M  V30 7546 H 733.053 3.32731 1.70781 0
M  V30 7547 H 735.345 5.36378 4.13891 0
M  V30 7548 H 736.288 6.4029 3.02381 0
M  V30 7549 H 736.696 4.6679 3.17438 0
M  V30 7550 N 736.094 -0.359525 1.53444 0
M  V30 7551 C 737.041 -1.44073 1.8031 0
M  V30 7552 C 738.011 -1.52946 0.647811 0
M  V30 7553 O 739.196 -1.68739 0.890614 0
M  V30 7554 C 736.336 -2.80941 2.00416 0
M  V30 7555 C 735.449 -2.80986 3.28132 0
M  V30 7556 C 734.584 -4.09468 3.38393 0
M  V30 7557 C 733.623 -4.03679 4.60119 0
M  V30 7558 N 732.76 -5.23821 4.675 0
M  V30 7559 H 737.6 -1.20464 2.72566 0
M  V30 7560 H 735.137 -0.583859 1.35017 0
M  V30 7561 H 737.095 -3.60459 2.1006 0
M  V30 7562 H 735.725 -3.02936 1.11489 0
M  V30 7563 H 734.777 -1.93666 3.27411 0
M  V30 7564 H 736.089 -2.72583 4.17732 0
M  V30 7565 H 735.243 -4.97404 3.47382 0
M  V30 7566 H 733.982 -4.20632 2.4682 0
M  V30 7567 H 732.987 -3.14129 4.51224 0
M  V30 7568 H 734.212 -3.94112 5.5304 0
M  V30 7569 H 732.158 -5.35559 3.7883 0
M  V30 7570 H 732.075 -5.17611 5.51013 0
M  V30 7571 H 733.343 -6.13572 4.8078 0
M  V30 7572 N 737.572 -1.44907 -0.619662 0
M  V30 7573 C 738.502 -1.55488 -1.742 0
M  V30 7574 C 739.483 -0.407143 -1.65156 0
M  V30 7575 O 740.668 -0.628743 -1.8374 0
M  V30 7576 C 737.798 -1.5097 -3.1277 0
M  V30 7577 C 736.752 -2.64337 -3.36615 0
M  V30 7578 C 736.078 -2.44872 -4.75333 0
M  V30 7579 C 737.378 -4.06423 -3.28051 0
M  V30 7580 H 739.072 -2.49432 -1.65602 0
M  V30 7581 H 736.618 -1.20047 -0.795281 0
M  V30 7582 H 738.571 -1.56971 -3.91073 0
M  V30 7583 H 737.295 -0.535486 -3.2218 0
M  V30 7584 H 735.954 -2.57744 -2.60698 0
M  V30 7585 H 735.602 -1.45617 -4.81461 0
M  V30 7586 H 735.302 -3.20888 -4.92244 0
M  V30 7587 H 736.826 -2.52709 -5.55851 0
M  V30 7588 H 738.24 -4.14324 -3.96243 0
M  V30 7589 H 736.637 -4.82733 -3.56495 0
M  V30 7590 H 737.707 -4.29183 -2.25676 0
M  V30 7591 N 739.05 0.861098 -1.31996 0
M  V30 7592 C 739.98 1.98482 -1.22993 0
M  V30 7593 C 740.961 1.6971 -0.115168 0
M  V30 7594 O 742.146 1.91849 -0.30126 0
M  V30 7595 C 739.276 3.34179 -0.945615 0
M  V30 7596 C 738.23 3.77284 -2.02091 0
M  V30 7597 C 737.556 5.1054 -1.58912 0
M  V30 7598 C 738.856 3.93439 -3.43515 0
M  V30 7599 H 740.55 2.06271 -2.17008 0
M  V30 7600 H 738.096 0.991043 -1.04472 0
M  V30 7601 H 740.049 4.12338 -0.869206 0
M  V30 7602 H 738.773 3.26586 0.0301849 0
M  V30 7603 H 737.432 3.01371 -2.08737 0
M  V30 7604 H 737.08 4.99397 -0.600942 0
M  V30 7605 H 736.78 5.40352 -2.30854 0
M  V30 7606 H 738.304 5.91199 -1.52696 0
M  V30 7607 H 739.718 4.6197 -3.39495 0
M  V30 7608 H 738.115 4.34661 -4.13751 0
M  V30 7609 H 739.185 2.96548 -3.8365 0
M  V30 7610 N 740.528 1.15101 1.07655 0
M  V30 7611 C 741.458 0.867864 2.16773 0
M  V30 7612 C 742.439 -0.180283 1.69142 0
M  V30 7613 O 743.624 -0.0353152 1.94168 0
M  V30 7614 C 740.754 0.35299 3.45501 0
M  V30 7615 C 739.708 1.33746 4.06566 0
M  V30 7616 C 739.034 0.681562 5.30338 0
M  V30 7617 C 740.334 2.7024 4.46954 0
M  V30 7618 H 742.028 1.78034 2.40716 0
M  V30 7619 H 739.574 0.857435 1.15689 0
M  V30 7620 H 741.527 0.142465 4.21159 0
M  V30 7621 H 740.251 -0.594945 3.21135 0
M  V30 7622 H 738.91 1.53429 3.32949 0
M  V30 7623 H 738.558 -0.272422 5.02262 0
M  V30 7624 H 738.258 1.33853 5.72151 0
M  V30 7625 H 739.782 0.48074 6.08705 0
M  V30 7626 H 741.196 2.5442 5.13754 0
M  V30 7627 H 739.593 3.32282 4.99709 0
M  V30 7628 H 740.663 3.26537 3.58471 0
M  V30 7629 N 742.006 -1.2595 0.947325 0
M  V30 7630 C 742.953 -2.26159 0.460497 0
M  V30 7631 C 743.923 -1.58919 -0.483125 0
M  V30 7632 O 745.108 -1.86603 -0.397983 0
M  V30 7633 C 742.248 -3.441 -0.26247 0
M  V30 7634 C 741.361 -4.25999 0.717539 0
M  V30 7635 C 740.496 -5.31193 -0.0272486 0
M  V30 7636 C 739.535 -6.04774 0.944177 0
M  V30 7637 N 738.672 -7.01721 0.230741 0
M  V30 7638 H 743.512 -2.67173 1.31995 0
M  V30 7639 H 741.049 -1.31358 0.662088 0
M  V30 7640 H 743.007 -4.11317 -0.698137 0
M  V30 7641 H 741.637 -3.03983 -1.08602 0
M  V30 7642 H 740.689 -3.58513 1.27171 0
M  V30 7643 H 742.001 -4.76981 1.45913 0
M  V30 7644 H 741.155 -6.04451 -0.521903 0
M  V30 7645 H 739.894 -4.81066 -0.801682 0
M  V30 7646 H 738.899 -5.30338 1.4499 0
M  V30 7647 H 740.124 -6.56991 1.71872 0
M  V30 7648 H 738.07 -6.53895 -0.525088 0
M  V30 7649 H 737.987 -7.50484 0.911556 0
M  V30 7650 H 739.255 -7.79122 -0.242616 0
M  V30 7651 N 743.484 -0.715051 -1.40445 0
M  V30 7652 C 744.733 -0.251322 -2.00128 0
M  V30 7653 C 745.046 1.16194 -1.57347 0
M  V30 7654 O 746.252 1.72416 -2.09726 0
M  V30 7655 C 744.708 -0.398407 -3.57688 0
M  V30 7656 C 744.316 -1.81828 -4.09442 0
M  V30 7657 C 746.06 0.00455625 -4.245 0
M  V30 7658 C 743.967 -1.91598 -5.59503 0
M  V30 7659 H 742.897 -0.0902081 -0.748584 0
M  V30 7660 H 745.548 -0.886062 -1.6069 0
M  V30 7661 H 743.93 0.304908 -3.94824 0
M  V30 7662 H 745.104 -2.55193 -3.83684 0
M  V30 7663 H 743.419 -2.17266 -3.55225 0
M  V30 7664 H 746.016 -0.0477303 -5.34679 0
M  V30 7665 H 746.359 1.04636 -4.02935 0
M  V30 7666 H 746.892 -0.649184 -3.92467 0
M  V30 7667 H 743.631 -2.93898 -5.85922 0
M  V30 7668 H 743.151 -1.22644 -5.87127 0
M  V30 7669 H 744.83 -1.68785 -6.24596 0
M  V30 7670 N 744.962 1.50701 -0.461195 0
M  V30 7671 C 745.909 2.2831 0.338094 0
M  V30 7672 C 746.879 1.32928 0.995957 0
M  V30 7673 O 748.064 1.61857 1.0103 0
M  V30 7674 C 745.204 3.14539 1.41983 0
M  V30 7675 C 744.317 4.24942 0.77773 0
M  V30 7676 C 743.452 4.98443 1.83652 0
M  V30 7677 C 742.491 6.00733 1.17413 0
M  V30 7678 N 741.628 6.6755 2.17533 0
M  V30 7679 H 746.468 2.96167 -0.330051 0
M  V30 7680 H 744.005 1.4606 -0.174611 0
M  V30 7681 H 745.963 3.62877 2.05855 0
M  V30 7682 H 744.593 2.48749 2.05727 0
M  V30 7683 H 743.645 3.80391 0.0266924 0
M  V30 7684 H 744.957 4.98151 0.254362 0
M  V30 7685 H 744.111 5.50449 2.55129 0
M  V30 7686 H 742.85 4.24917 2.39367 0
M  V30 7687 H 741.855 5.47997 0.444944 0
M  V30 7688 H 743.08 6.76227 0.624006 0
M  V30 7689 H 741.026 5.96823 2.72284 0
M  V30 7690 H 740.943 7.36603 1.70154 0
M  V30 7691 H 742.211 7.24178 2.88421 0
M  V30 7692 N 746.441 0.193421 1.56409 0
M  V30 7693 C 747.389 -0.744829 2.20352 0
M  V30 7694 C 748.383 -1.22104 1.17418 0
M  V30 7695 O 749.589 -1.18413 1.35567 0
M  V30 7696 H 745.964 -0.258538 0.70616 0
M  V30 7697 H 747.935 -0.181794 2.97846 0
M  V30 7698 C 746.684 -1.95453 2.87565 0
M  V30 7699 H 746.007 -1.59716 3.66512 0
M  V30 7700 H 747.447 -2.58942 3.35745 0
M  V30 7701 C 745.906 -2.79223 1.8851 0
M  V30 7702 O 746.436 -3.77093 1.38434 0
M  V30 7703 N 744.642 -2.44682 1.56777 0
M  V30 7704 H 744.189 -1.65153 1.97692 0
M  V30 7705 H 744.147 -3.01016 0.907573 0
M  V30 7706 N 747.919 -1.57396 -0.0801906 0
M  V30 7707 C 749.167 -1.86467 -0.779384 0
M  V30 7708 C 749.488 -0.784243 -1.78535 0
M  V30 7709 O 748.758 0.187986 -1.94996 0
M  V30 7710 H 747.338 -0.68806 -0.29083 0
M  V30 7711 H 750 -1.94813 -0.0582749 0
M  V30 7712 H 749.096 -2.83701 -1.30078 0
M  V30 7713 N 749.397 0.351382 -1.53633 0
M  V30 7714 C 750.625 1.11275 -1.74429 0
M  V30 7715 C 751.04 1.82602 -0.479798 0
M  V30 7716 O 750.397 1.74074 0.548125 0
M  V30 7717 C 750.448 2.13223 -2.91921 0
M  V30 7718 O 750.169 1.44798 -4.13479 0
M  V30 7719 C 751.67 3.01797 -3.24706 0
M  V30 7720 H 748.89 0.332153 -0.583023 0
M  V30 7721 H 751.434 0.405974 -2.0043 0
M  V30 7722 H 749.589 2.79477 -2.68274 0
M  V30 7723 H 750.003 2.12839 -4.79374 0
M  V30 7724 H 751.477 3.69282 -4.10286 0
M  V30 7725 H 751.954 3.67387 -2.40673 0
M  V30 7726 H 752.56 2.41141 -3.5033 0
M  V30 7727 N 750.875 1.45233 0.611969 0
M  V30 7728 C 752.286 1.4354 1.19387 0
M  V30 7729 C 752.637 0.160713 1.95541 0
M  V30 7730 O 751.762 -0.737954 2.03429 0
M  V30 7731 C 752.357 2.60045 2.17169 0
M  V30 7732 C 750.916 2.61486 2.70744 0
M  V30 7733 C 750.063 2.35708 1.46072 0
M  V30 7734 H 753.014 1.53536 0.401529 0
M  V30 7735 H 753.035 2.33893 3.00124 0
M  V30 7736 H 752.547 3.52803 1.61714 0
M  V30 7737 H 750.648 1.72721 3.30149 0
M  V30 7738 H 750.761 3.60572 3.15476 0
M  V30 7739 H 749.125 1.85178 1.74875 0
M  V30 7740 H 749.908 3.30606 0.924922 0
M  V30 7741 N 752.353 -0.854086 1.3245 0
M  V30 7742 C 753.764 -1.42427 1.20712 0
M  V30 7743 C 754.115 -1.95371 -0.18013 0
M  V30 7744 O 753.24 -1.87587 -1.07889 0
M  V30 7745 C 753.835 -2.58897 2.18536 0
M  V30 7746 C 752.394 -3.11913 2.10683 0
M  V30 7747 C 751.541 -1.84661 2.06871 0
M  V30 7748 H 754.492 -0.661192 1.4427 0
M  V30 7749 H 754.513 -3.36074 1.78422 0
M  V30 7750 H 754.025 -2.20333 3.19492 0
M  V30 7751 H 752.126 -3.55059 1.12977 0
M  V30 7752 H 752.239 -3.73119 3.00532 0
M  V30 7753 H 750.603 -2.04285 1.52118 0
M  V30 7754 H 751.386 -1.48314 3.09609 0
M  V30 7755 N 753.831 -1.1567 -1.07043 0
M  V30 7756 C 754.764 -0.799867 -2.13723 0
M  V30 7757 C 755.742 0.225098 -1.61034 0
M  V30 7758 O 756.926 0.11093 -1.88173 0
M  V30 7759 C 754.053 -0.18997 -3.38167 0
M  V30 7760 C 753.099 -1.18733 -4.0964 0
M  V30 7761 S 753.932 -2.73074 -4.60642 0
M  V30 7762 C 755.088 -2.13512 -5.88356 0
M  V30 7763 H 755.321 -1.70342 -2.43661 0
M  V30 7764 H 752.854 -0.979377 -1.19363 0
M  V30 7765 H 754.812 0.155471 -4.10205 0
M  V30 7766 H 753.473 0.691229 -3.064 0
M  V30 7767 H 752.666 -0.708873 -4.9899 0
M  V30 7768 H 752.268 -1.47747 -3.43579 0
M  V30 7769 H 754.56 -1.49911 -6.60706 0
M  V30 7770 H 755.503 -3.01042 -6.40921 0
M  V30 7771 H 755.911 -1.57693 -5.42027 0
M  V30 7772 N 755.309 1.25446 -0.953992 0
M  V30 7773 C 756.725 1.4539 -0.658316 0
M  V30 7774 C 756.925 1.85607 0.784356 0
M  V30 7775 O 755.981 1.98568 1.55972 0
M  V30 7776 C 757.294 2.52643 -1.6307 0
M  V30 7777 C 758.842 2.66484 -1.64181 0
M  V30 7778 C 759.317 3.76921 -2.60182 0
M  V30 7779 N 760.808 3.84331 -2.58542 0
M  V30 7780 C 761.543 4.69271 -3.29503 0
M  V30 7781 N 761.039 5.58503 -4.09934 0
M  V30 7782 N 762.832 4.6323 -3.18393 0
M  V30 7783 H 754.983 0.976337 -1.8863 0
M  V30 7784 H 757.246 0.490343 -0.811337 0
M  V30 7785 H 756.952 2.29949 -2.66114 0
M  V30 7786 H 756.826 3.50547 -1.39271 0
M  V30 7787 H 759.213 2.88545 -0.618552 0
M  V30 7788 H 759.294 1.68982 -1.92038 0
M  V30 7789 H 758.938 3.55612 -3.62633 0
M  V30 7790 H 758.868 4.73906 -2.29609 0
M  V30 7791 H 761.359 3.20544 -2.0015 0
M  V30 7792 H 761.672 6.20241 -4.61 0
M  V30 7793 H 760.017 5.58214 -4.14032 0
M  V30 7794 H 763.208 3.92527 -2.5503 0
M  V30 7795 H 763.381 5.29204 -3.73961 0
M  V30 7796 N 756.787 0.722489 1.40064 0
M  V30 7797 C 757.734 0.0743738 2.3068 0
M  V30 7798 C 758.704 -0.743004 1.48555 0
M  V30 7799 O 759.889 -0.705536 1.77276 0
M  V30 7800 C 757.029 -0.836292 3.34814 0
M  V30 7801 C 756.142 -0.00764663 4.31999 0
M  V30 7802 C 755.277 -0.918428 5.232 0
M  V30 7803 C 754.316 -0.0842838 6.12042 0
M  V30 7804 N 753.453 -0.950316 6.95639 0
M  V30 7805 H 758.293 0.852794 2.85537 0
M  V30 7806 H 755.83 0.432222 1.40607 0
M  V30 7807 H 757.788 -1.3786 3.93765 0
M  V30 7808 H 756.418 -1.58082 2.81443 0
M  V30 7809 H 755.47 0.651928 3.74772 0
M  V30 7810 H 756.782 0.63786 4.94705 0
M  V30 7811 H 755.936 -1.52902 5.87116 0
M  V30 7812 H 754.675 -1.59774 4.60786 0
M  V30 7813 H 753.68 0.5392 5.4715 0
M  V30 7814 H 754.905 0.591628 6.76518 0
M  V30 7815 H 752.851 -1.61515 6.35806 0
M  V30 7816 H 752.768 -0.361004 7.55138 0
M  V30 7817 H 754.036 -1.54687 7.63997 0
M  V30 7818 N 758.265 -1.50454 0.469181 0
M  V30 7819 C 759.228 -2.2703 -0.314643 0
M  V30 7820 C 760.228 -1.31734 -0.922111 0
M  V30 7821 O 761.418 -1.55176 -0.791588 0
M  V30 7822 C 758.55 -3.08616 -1.44806 0
M  V30 7823 H 759.743 -2.97769 0.356892 0
M  V30 7824 H 757.296 -1.54698 0.223191 0
M  V30 7825 H 758.031 -2.42369 -2.1547 0
M  V30 7826 H 757.816 -3.78647 -1.01829 0
M  V30 7827 H 759.306 -3.66536 -2.00103 0
M  V30 7828 N 759.743 -0.201713 -1.56304 0
M  V30 7829 C 760.706 0.702811 -2.18159 0
M  V30 7830 C 761.706 1.13619 -1.13787 0
M  V30 7831 O 762.896 1.0482 -1.39134 0
M  V30 7832 C 760.028 1.96032 -2.78898 0
M  V30 7833 H 761.221 0.163836 -2.99452 0
M  V30 7834 H 758.774 0.04791 -1.56227 0
M  V30 7835 H 759.509 2.54165 -2.01421 0
M  V30 7836 H 759.294 1.65824 -3.55309 0
M  V30 7837 H 760.784 2.60519 -3.26373 0
M  V30 7838 N 761.222 1.57436 0.0718424 0
M  V30 7839 C 762.152 2.06724 1.08571 0
M  V30 7840 C 763.133 0.960731 1.40371 0
M  V30 7841 O 764.318 1.23345 1.49999 0
M  V30 7842 C 761.448 2.51112 2.39916 0
M  V30 7843 C 760.402 3.65639 2.22469 0
M  V30 7844 C 759.728 3.96082 3.59198 0
M  V30 7845 C 761.028 4.95687 1.64596 0
M  V30 7846 H 762.722 2.91679 0.675569 0
M  V30 7847 H 760.268 1.40319 0.32352 0
M  V30 7848 H 762.221 2.84206 3.11135 0
M  V30 7849 H 760.945 1.63186 2.8291 0
M  V30 7850 H 759.604 3.32828 1.53691 0
M  V30 7851 H 759.252 3.05287 3.99761 0
M  V30 7852 H 758.952 4.73199 3.48362 0
M  V30 7853 H 760.476 4.31672 4.31847 0
M  V30 7854 H 761.89 5.27011 2.25681 0
M  V30 7855 H 760.287 5.77126 1.64457 0
M  V30 7856 H 761.357 4.8108 0.60744 0
M  V30 7857 N 762.7 -0.34323 1.53817 0
M  V30 7858 C 764.116 -0.686355 1.44088 0
M  V30 7859 C 764.316 -1.92426 0.597882 0
M  V30 7860 O 763.372 -2.52343 0.0889918 0
M  V30 7861 C 764.685 -0.878698 2.87575 0
M  V30 7862 C 766.233 -0.977296 2.97352 0
M  V30 7863 C 766.708 -1.20195 4.41947 0
M  V30 7864 N 768.199 -1.26915 4.45474 0
M  V30 7865 C 768.934 -1.46049 5.54488 0
M  V30 7866 N 768.43 -1.62354 6.73508 0
M  V30 7867 N 770.223 -1.48599 5.42102 0
M  V30 7868 H 762.374 0.470679 2.07119 0
M  V30 7869 H 764.637 0.148652 0.936273 0
M  V30 7870 H 764.343 -0.040602 3.51677 0
M  V30 7871 H 764.217 -1.78034 3.32541 0
M  V30 7872 H 766.604 -1.80591 2.3339 0
M  V30 7873 H 766.685 -0.0525498 2.55746 0
M  V30 7874 H 766.329 -0.378262 5.06489 0
M  V30 7875 H 766.259 -2.14027 4.81145 0
M  V30 7876 H 768.75 -1.15837 3.59708 0
M  V30 7877 H 769.063 -1.76591 7.52353 0
M  V30 7878 H 767.408 -1.5949 6.76453 0
M  V30 7879 H 770.599 -1.35443 4.48077 0
M  V30 7880 H 770.772 -1.6317 6.2712 0
M  V30 7881 N 764.178 -1.45556 -0.604258 0
M  V30 7882 C 765.11 -1.50494 -1.72871 0
M  V30 7883 C 766.123 -0.395368 -1.57926 0
M  V30 7884 O 767.312 -0.662603 -1.65746 0
M  V30 7885 C 764.412 -1.34874 -3.10906 0
M  V30 7886 C 763.585 -2.59564 -3.52058 0
M  V30 7887 C 762.644 -2.38453 -4.6907 0
M  V30 7888 O 761.67 -3.12082 -4.76018 0
M  V30 7889 N 762.872 -1.43229 -5.62553 0
M  V30 7890 H 765.637 -2.4744 -1.69097 0
M  V30 7891 H 763.198 -1.41338 -0.789636 0
M  V30 7892 H 765.19 -1.18556 -3.86945 0
M  V30 7893 H 763.76 -0.461913 -3.09168 0
M  V30 7894 H 762.98 -2.90974 -2.65946 0
M  V30 7895 H 764.268 -3.42441 -3.76313 0
M  V30 7896 H 763.666 -0.824714 -5.59656 0
M  V30 7897 H 762.223 -1.32882 -6.38111 0
M  V30 7898 N 765.656 0.84705 -1.32902 0
M  V30 7899 C 766.905 1.59667 -1.23245 0
M  V30 7900 C 767.218 1.94551 0.202349 0
M  V30 7901 O 768.424 2.68218 0.420847 0
M  V30 7902 C 766.88 2.8795 -2.15901 0
M  V30 7903 C 766.488 2.60461 -3.64505 0
M  V30 7904 C 768.232 3.65968 -2.15098 0
M  V30 7905 C 766.139 3.84791 -4.49099 0
M  V30 7906 H 765.069 0.599167 -0.457728 0
M  V30 7907 H 767.72 0.934662 -1.57912 0
M  V30 7908 H 766.102 3.55648 -1.74157 0
M  V30 7909 H 767.276 2.01026 -4.14639 0
M  V30 7910 H 765.591 1.9576 -3.67515 0
M  V30 7911 H 768.188 4.58241 -2.75534 0
M  V30 7912 H 768.531 4.00275 -1.14392 0
M  V30 7913 H 769.064 3.05184 -2.55162 0
M  V30 7914 H 765.803 3.55621 -5.50649 0
M  V30 7915 H 765.323 4.43594 -4.03713 0
M  V30 7916 H 767.002 4.52454 -4.62487 0
M  V30 7917 N 767.134 1.16236 1.06428 0
M  V30 7918 C 768.362 0.967184 1.82902 0
M  V30 7919 C 768.777 -0.484601 1.82475 0
M  V30 7920 O 768.134 -1.33631 1.24294 0
M  V30 7921 C 768.185 1.48534 3.29576 0
M  V30 7922 O 767.906 2.88026 3.3011 0
M  V30 7923 C 769.407 1.33298 4.22784 0
M  V30 7924 H 766.627 0.342923 0.576754 0
M  V30 7925 H 769.171 1.54232 1.34286 0
M  V30 7926 H 767.326 0.952513 3.75508 0
M  V30 7927 H 767.74 3.11721 4.21818 0
M  V30 7928 H 769.214 1.74385 5.23731 0
M  V30 7929 H 769.691 0.278356 4.38317 0
M  V30 7930 H 770.297 1.85535 3.82697 0
M  V30 7931 N 768.612 -1.24939 0.960631 0
M  V30 7932 C 769.889 -1.88118 0.535807 0
M  V30 7933 C 770.269 -1.86605 -0.987009 0
M  V30 7934 O 769.617 -1.33375 -1.85536 0
M  V30 7935 C 769.827 -3.30565 1.11927 0
M  V30 7936 C 771.175 -4.07296 1.19981 0
M  V30 7937 O 772.199 -3.39709 1.07126 0
M  V30 7938 O 771.058 -5.28206 1.40218 0
M  V30 7939 H 768.152 -0.807698 0.177631 0
M  V30 7940 H 770.698 -1.32964 1.05445 0
M  V30 7941 H 769.47 -3.26128 2.16231 0
M  V30 7942 H 769.093 -3.93284 0.584245 0
M  V30 7943 N 770.09 -0.729906 -1.39679 0
M  V30 7944 C 771.037 -0.0866063 -2.30637 0
M  V30 7945 C 772.007 0.735115 -1.48947 0
M  V30 7946 O 773.192 0.696125 -1.77648 0
M  V30 7947 C 770.332 0.818524 -3.35252 0
M  V30 7948 C 769.445 -0.0152635 -4.31997 0
M  V30 7949 C 768.58 0.890669 -5.2368 0
M  V30 7950 C 767.619 0.0518246 -6.12078 0
M  V30 7951 N 766.756 0.913411 -6.96133 0
M  V30 7952 H 771.596 -0.867925 -2.85081 0
M  V30 7953 H 769.133 -0.439673 -1.40376 0
M  V30 7954 H 771.091 1.3577 -3.9449 0
M  V30 7955 H 769.721 1.56587 -2.82277 0
M  V30 7956 H 768.773 -0.671794 -3.74421 0
M  V30 7957 H 770.085 -0.664086 -4.9436 0
M  V30 7958 H 769.239 1.49787 -5.87919 0
M  V30 7959 H 767.978 1.57328 -4.61627 0
M  V30 7960 H 766.983 -0.568209 -5.46856 0
M  V30 7961 H 768.208 -0.627497 -6.76195 0
M  V30 7962 H 766.154 1.58141 -6.36653 0
M  V30 7963 H 766.071 0.320952 -7.55318 0
M  V30 7964 H 767.339 1.50633 -7.64807 0
M  V30 7965 N 771.568 1.50203 -0.477153 0
M  V30 7966 C 772.531 2.27194 0.302599 0
M  V30 7967 C 773.531 1.32221 0.915112 0
M  V30 7968 O 774.721 1.55593 0.783348 0
M  V30 7969 C 771.853 3.0938 1.43167 0
M  V30 7970 H 773.046 2.97575 -0.372678 0
M  V30 7971 H 770.599 1.54578 -0.231392 0
M  V30 7972 H 771.334 2.43509 2.14182 0
M  V30 7973 H 771.119 3.79181 0.998197 0
M  V30 7974 H 772.609 3.67592 1.98157 0
M  V30 7975 N 773.046 0.209999 1.56195 0
M  V30 7976 C 774.462 -0.145598 1.58934 0
M  V30 7977 C 774.662 -1.59868 1.22656 0
M  V30 7978 O 773.718 -2.33689 0.956336 0
M  V30 7979 C 775.031 0.170243 3.00218 0
M  V30 7980 C 776.579 0.111548 3.12801 0
M  V30 7981 C 777.054 0.400904 4.56242 0
M  V30 7982 N 778.545 0.350058 4.61875 0
M  V30 7983 C 779.28 0.547598 5.70779 0
M  V30 7984 N 778.776 0.806291 6.88092 0
M  V30 7985 N 780.569 0.480827 5.6004 0
M  V30 7986 H 772.72 1.15804 1.78054 0
M  V30 7987 H 774.983 0.463326 0.827063 0
M  V30 7988 H 774.689 1.17833 3.31373 0
M  V30 7989 H 774.563 -0.520208 3.73596 0
M  V30 7990 H 776.95 -0.887162 2.81449 0
M  V30 7991 H 777.031 0.835302 2.41777 0
M  V30 7992 H 776.675 1.397 4.8831 0
M  V30 7993 H 776.605 -0.34391 5.25476 0
M  V30 7994 H 779.096 0.157334 3.77572 0
M  V30 7995 H 779.409 0.945433 7.66995 0
M  V30 7996 H 777.754 0.843355 6.89864 0
M  V30 7997 H 780.945 0.279037 4.67268 0
M  V30 7998 H 781.118 0.638189 6.4485 0
M  V30 7999 N 774.524 -1.57472 -0.0634922 0
M  V30 8000 C 775.434 -2.07621 -1.09227 0
M  V30 8001 C 776.45 -1.00746 -1.41867 0
M  V30 8002 O 777.626 -1.32269 -1.51878 0
M  V30 8003 C 774.691 -2.51707 -2.38421 0
M  V30 8004 C 773.752 -3.72917 -2.12676 0
M  V30 8005 C 772.985 -4.14891 -3.3571 0
M  V30 8006 O 773.208 -3.56663 -4.45137 0
M  V30 8007 O 772.142 -5.07616 -3.23434 0
M  V30 8008 H 775.968 -2.95612 -0.696205 0
M  V30 8009 H 773.553 -1.46787 -0.27819 0
M  V30 8010 H 775.435 -2.80547 -3.14438 0
M  V30 8011 H 774.11 -1.66842 -2.77391 0
M  V30 8012 H 773.017 -3.49148 -1.34337 0
M  V30 8013 H 774.35 -4.5866 -1.78583 0
M  V30 8014 N 776.003 0.335068 -1.53997 0
M  V30 8015 C 777.25 1.07435 -1.71651 0
M  V30 8016 C 777.578 1.88378 -0.48413 0
M  V30 8017 O 776.833 1.8827 0.534139 0
M  V30 8018 C 777.132 2.0364 -2.9371 0
M  V30 8019 C 776.798 1.38942 -4.28959 0
M  V30 8020 C 775.46 1.21027 -4.65732 0
M  V30 8021 C 777.812 0.924083 -5.12943 0
M  V30 8022 C 775.14 0.552097 -5.84097 0
M  V30 8023 C 777.492 0.27978 -6.31981 0
M  V30 8024 C 776.156 0.0883843 -6.67441 0
M  V30 8025 H 775.426 0.393133 -0.628114 0
M  V30 8026 H 778.073 0.352712 -1.88224 0
M  V30 8027 H 776.378 2.82215 -2.71775 0
M  V30 8028 H 778.075 2.6085 -3.04562 0
M  V30 8029 H 774.665 1.53885 -4.00022 0
M  V30 8030 H 778.849 1.05032 -4.85059 0
M  V30 8031 H 774.105 0.392502 -6.10139 0
M  V30 8032 H 778.279 -0.0888479 -6.96343 0
M  V30 8033 H 775.906 -0.423657 -7.59019 0
M  V30 8034 N 777.481 1.45874 0.596531 0
M  V30 8035 C 778.729 1.5017 1.35253 0
M  V30 8036 C 779.05 0.149246 1.94428 0
M  V30 8037 O 778.32 -0.82268 1.77789 0
M  V30 8038 H 776.9 0.553052 0.502138 0
M  V30 8039 H 779.562 1.81908 0.699671 0
M  V30 8040 H 778.658 2.24671 2.16632 0
M  V30 8041 N 778.959 -0.83999 1.33349 0
M  V30 8042 C 779.922 -1.93128 1.23426 0
M  V30 8043 C 780.922 -1.60065 0.153599 0
M  V30 8044 O 782.112 -1.69425 0.405049 0
M  V30 8045 C 779.244 -3.28761 0.901622 0
M  V30 8046 H 780.437 -2.03352 2.20427 0
M  V30 8047 H 777.99 -1.03194 1.17391 0
M  V30 8048 H 778.725 -3.24233 -0.0659337 0
M  V30 8049 H 778.51 -3.54138 1.68311 0
M  V30 8050 H 780 -4.08714 0.856913 0
M  V30 8051 N 780.437 -1.16799 -1.0581 0
M  V30 8052 C 781.685 -0.950642 -1.78346 0
M  V30 8053 C 782.006 0.522524 -1.87869 0
M  V30 8054 O 781.276 1.3795 -1.39092 0
M  V30 8055 H 779.856 -0.348736 -0.6606 0
M  V30 8056 H 782.518 -1.47158 -1.27791 0
M  V30 8057 H 781.614 -1.37359 -2.80248 0
M  V30 8058 N 781.915 1.24427 -0.967243 0
M  V30 8059 C 783.326 1.74349 -0.667785 0
M  V30 8060 C 783.677 1.78403 0.816509 0
M  V30 8061 O 782.802 1.41315 1.63887 0
M  V30 8062 C 783.397 3.16628 -1.20548 0
M  V30 8063 C 781.956 3.64059 -0.955934 0
M  V30 8064 C 781.103 2.42715 -1.34106 0
M  V30 8065 H 784.054 1.10136 -1.14262 0
M  V30 8066 H 784.075 3.76183 -0.571547 0
M  V30 8067 H 783.587 3.13646 -2.28578 0
M  V30 8068 H 781.688 3.72441 0.108858 0
M  V30 8069 H 781.801 4.51549 -1.60126 0
M  V30 8070 H 780.165 2.43114 -0.759452 0
M  V30 8071 H 780.948 2.42414 -2.43085 0
M  V30 8072 N 783.393 0.737304 1.3929 0
M  V30 8073 C 784.323 0.113988 2.33222 0
M  V30 8074 C 785.304 -0.721695 1.54031 0
M  V30 8075 O 786.489 -0.666206 1.82415 0
M  V30 8076 C 783.619 -0.792319 3.38141 0
M  V30 8077 C 782.573 -0.0606178 4.27957 0
M  V30 8078 C 781.899 -1.08409 5.23595 0
M  V30 8079 C 783.199 1.09817 5.10625 0
M  V30 8080 H 784.893 0.898611 2.85596 0
M  V30 8081 H 782.439 0.433571 1.37318 0
M  V30 8082 H 784.392 -1.23793 4.02807 0
M  V30 8083 H 783.116 -1.60908 2.84211 0
M  V30 8084 H 781.775 0.365393 3.64775 0
M  V30 8085 H 781.423 -1.89449 4.6596 0
M  V30 8086 H 781.123 -0.599269 5.84536 0
M  V30 8087 H 782.647 -1.52936 5.91137 0
M  V30 8088 H 784.061 0.730892 5.68622 0
M  V30 8089 H 782.458 1.51278 5.80719 0
M  V30 8090 H 783.528 1.91878 4.45321 0
M  V30 8091 N 784.871 -1.49948 0.485112 0
M  V30 8092 C 786.118 -2.02396 -0.0650059 0
M  V30 8093 C 786.446 -1.36606 -1.38452 0
M  V30 8094 O 785.701 -0.485476 -1.89583 0
M  V30 8095 C 786 -3.56282 -0.282434 0
M  V30 8096 C 785.666 -4.40625 0.957106 0
M  V30 8097 C 784.328 -4.63393 1.29692 0
M  V30 8098 C 786.68 -4.89799 1.78176 0
M  V30 8099 C 784.008 -5.3258 2.4612 0
M  V30 8100 C 786.36 -5.60266 2.93743 0
M  V30 8101 C 785.024 -5.81284 3.28124 0
M  V30 8102 H 784.294 -0.740618 -0.0237873 0
M  V30 8103 H 786.941 -1.80416 0.642044 0
M  V30 8104 H 785.246 -3.76853 -1.07186 0
M  V30 8105 H 786.943 -3.94442 -0.722276 0
M  V30 8106 H 783.533 -4.23133 0.682384 0
M  V30 8107 H 787.717 -4.7205 1.53239 0
M  V30 8108 H 782.973 -5.47059 2.73014 0
M  V30 8109 H 787.147 -5.97347 3.5798 0
M  V30 8110 H 784.774 -6.34671 4.18446 0
M  V30 8111 N 786.349 -0.21828 -1.56081 0
M  V30 8112 C 787.297 0.709679 -2.21509 0
M  V30 8113 C 788.291 1.20221 -1.19346 0
M  V30 8114 O 789.497 1.16241 -1.37433 0
M  V30 8115 H 785.872 0.247271 -0.710184 0
M  V30 8116 H 787.843 0.134386 -2.98097 0
M  V30 8117 C 786.592 1.90853 -2.90638 0
M  V30 8118 H 785.915 1.53865 -3.69006 0
M  V30 8119 H 787.355 2.53568 -3.39822 0
M  V30 8120 C 785.814 2.76189 -1.92929 0
M  V30 8121 O 786.344 3.74842 -1.44416 0
M  V30 8122 N 784.55 2.42157 -1.6065 0
M  V30 8123 H 784.097 1.61987 -2.00294 0
M  V30 8124 H 784.055 2.99534 -0.955347 0
M  V30 8125 N 787.827 1.57504 0.0551401 0
M  V30 8126 C 788.759 2.0158 1.09078 0
M  V30 8127 C 789.772 0.92434 1.34014 0
M  V30 8128 O 790.961 1.20202 1.31961 0
M  V30 8129 C 788.061 2.35385 2.43818 0
M  V30 8130 C 787.234 3.66588 2.38605 0
M  V30 8131 C 786.293 3.87874 3.55585 0
M  V30 8132 O 785.319 4.59259 3.36258 0
M  V30 8133 N 786.521 3.31503 4.76536 0
M  V30 8134 H 789.286 2.91039 0.71529 0
M  V30 8135 H 786.847 1.60058 0.243532 0
M  V30 8136 H 788.839 2.46784 3.20749 0
M  V30 8137 H 787.409 1.51731 2.73307 0
M  V30 8138 H 786.629 3.65787 1.46947 0
M  V30 8139 H 787.917 4.52706 2.32239 0
M  V30 8140 H 787.315 2.73592 4.9514 0
M  V30 8141 H 785.872 3.48324 5.50921 0
M  V30 8142 N 789.305 -0.326896 1.54172 0
M  V30 8143 C 790.554 -1.06274 1.71431 0
M  V30 8144 C 790.867 -1.89282 0.493123 0
M  V30 8145 O 792.073 -2.65933 0.54699 0
M  V30 8146 C 790.529 -1.93892 3.03206 0
M  V30 8147 C 790.137 -1.16011 4.32719 0
M  V30 8148 C 791.881 -2.67232 3.29829 0
M  V30 8149 C 789.788 -2.02755 5.55558 0
M  V30 8150 H 788.718 -0.400475 0.638855 0
M  V30 8151 H 791.369 -0.321184 1.80667 0
M  V30 8152 H 789.751 -2.71933 2.87869 0
M  V30 8153 H 790.925 -0.427643 4.58811 0
M  V30 8154 H 789.24 -0.54367 4.12836 0
M  V30 8155 H 791.837 -3.32434 4.18798 0
M  V30 8156 H 792.18 -3.34692 2.47562 0
M  V30 8157 H 792.713 -1.96255 3.46018 0
M  V30 8158 H 789.452 -1.3981 6.40417 0
M  V30 8159 H 788.972 -2.73745 5.33689 0
M  V30 8160 H 790.651 -2.61419 5.91835 0
M  V30 8161 N 790.784 -1.46188 -0.588786 0
M  V30 8162 C 791.714 -1.59148 -1.70863 0
M  V30 8163 C 792.695 -0.442083 -1.64255 0
M  V30 8164 O 793.88 -0.667575 -1.82365 0
M  V30 8165 C 791.01 -1.5757 -3.09498 0
M  V30 8166 C 789.964 -2.71418 -3.30932 0
M  V30 8167 C 789.29 -2.549 -4.70032 0
M  V30 8168 C 790.59 -4.1329 -3.19356 0
M  V30 8169 H 792.284 -2.52889 -1.60274 0
M  V30 8170 H 789.83 -1.21707 -0.769638 0
M  V30 8171 H 791.783 -1.65231 -3.87655 0
M  V30 8172 H 790.507 -0.603705 -3.20972 0
M  V30 8173 H 789.166 -2.63216 -2.55172 0
M  V30 8174 H 788.814 -1.55797 -4.78264 0
M  V30 8175 H 788.514 -3.31257 -4.85327 0
M  V30 8176 H 790.038 -2.64443 -5.50366 0
M  V30 8177 H 791.452 -4.22636 -3.87365 0
M  V30 8178 H 789.849 -4.90187 -3.46175 0
M  V30 8179 H 790.919 -4.33874 -2.16522 0
M  V30 8180 N 792.262 0.832906 -1.33792 0
M  V30 8181 C 793.673 1.40489 -1.22963 0
M  V30 8182 C 794.024 1.95633 0.149026 0
M  V30 8183 O 793.149 1.8928 1.04891 0
M  V30 8184 C 793.744 2.55387 -2.22627 0
M  V30 8185 C 792.303 3.08522 -2.15618 0
M  V30 8186 C 791.45 1.81347 -2.09782 0
M  V30 8187 H 794.401 0.638156 -1.45304 0
M  V30 8188 H 794.422 3.33193 -1.83746 0
M  V30 8189 H 793.934 2.15222 -3.22957 0
M  V30 8190 H 792.035 3.53217 -1.18611 0
M  V30 8191 H 792.148 3.6829 -3.0643 0
M  V30 8192 H 790.512 2.01839 -1.55349 0
M  V30 8193 H 791.295 1.43369 -3.1193 0
M  V30 8194 N 793.74 1.17359 1.05189 0
M  V30 8195 C 794.67 0.91365 2.14883 0
M  V30 8196 C 795.651 -0.144365 1.69486 0
M  V30 8197 O 796.836 0.00587861 1.94199 0
M  V30 8198 C 793.966 0.426196 3.44675 0
M  V30 8199 C 792.92 1.4234 4.03638 0
M  V30 8200 C 792.246 0.793902 5.28773 0
M  V30 8201 C 793.546 2.7966 4.41121 0
M  V30 8202 H 795.24 1.831 2.36885 0
M  V30 8203 H 792.786 0.881781 1.13845 0
M  V30 8204 H 794.739 0.231767 4.20762 0
M  V30 8205 H 793.463 -0.526693 3.22325 0
M  V30 8206 H 792.122 1.60457 3.2962 0
M  V30 8207 H 791.77 -0.165824 5.02727 0
M  V30 8208 H 791.47 1.45959 5.69183 0
M  V30 8209 H 792.994 0.609747 6.07548 0
M  V30 8210 H 794.408 2.6526 5.08242 0
M  V30 8211 H 792.805 3.42807 4.92548 0
M  V30 8212 H 793.875 3.34068 3.51464 0
M  V30 8213 N 795.218 -1.23913 0.973828 0
M  V30 8214 C 796.148 -2.27453 0.527969 0
M  V30 8215 C 797.129 -1.6443 -0.435513 0
M  V30 8216 O 798.314 -1.9137 -0.330306 0
M  V30 8217 C 795.444 -3.4685 -0.176757 0
M  V30 8218 C 794.398 -4.22181 0.703352 0
M  V30 8219 C 793.724 -5.34534 -0.133215 0
M  V30 8220 C 795.024 -4.82865 1.99096 0
M  V30 8221 H 796.718 -2.65 1.3934 0
M  V30 8222 H 794.264 -1.27388 0.671446 0
M  V30 8223 H 796.217 -4.18424 -0.499934 0
M  V30 8224 H 794.941 -3.08346 -1.07659 0
M  V30 8225 H 793.6 -3.52416 1.00989 0
M  V30 8226 H 793.248 -4.92271 -1.03338 0
M  V30 8227 H 792.948 -5.85855 0.452494 0
M  V30 8228 H 794.472 -6.08933 -0.450924 0
M  V30 8229 H 795.886 -5.46481 1.73297 0
M  V30 8230 H 794.283 -5.44444 2.52389 0
M  V30 8231 H 795.353 -4.03977 2.68199 0
M  V30 8232 N 796.696 -0.74468 -1.38897 0
M  V30 8233 C 797.629 -0.0596441 -2.28122 0
M  V30 8234 C 798.607 0.73764 -1.44906 0
M  V30 8235 O 799.791 0.718155 -1.74284 0
M  V30 8236 C 796.918 0.922533 -3.25894 0
M  V30 8237 C 795.964 0.212566 -4.2597 0
M  V30 8238 S 796.797 -1.08035 -5.24489 0
M  V30 8239 C 797.953 -0.101014 -6.25818 0
M  V30 8240 H 798.186 -0.816289 -2.85874 0
M  V30 8241 H 795.719 -0.536882 -1.44765 0
M  V30 8242 H 797.677 1.4839 -3.82741 0
M  V30 8243 H 796.338 1.65209 -2.67142 0
M  V30 8244 H 795.531 0.956106 -4.94848 0
M  V30 8245 H 795.133 -0.277029 -3.72973 0
M  V30 8246 H 797.425 0.736072 -6.7349 0
M  V30 8247 H 798.368 -0.757206 -7.0404 0
M  V30 8248 H 798.776 0.275706 -5.63826 0
M  V30 8249 N 798.174 1.49689 -0.493057 0
M  V30 8250 C 799.399 2.07331 0.0535114 0
M  V30 8251 C 799.824 1.35196 1.30781 0
M  V30 8252 O 799.182 0.406246 1.7669 0
M  V30 8253 C 799.23 3.59364 0.29825 0
M  V30 8254 O 798.334 3.88819 1.37454 0
M  V30 8255 H 797.675 0.663612 -0.0227018 0
M  V30 8256 H 800.205 1.926 -0.690402 0
M  V30 8257 H 800.215 4.04515 0.532159 0
M  V30 8258 H 798.89 4.1128 -0.618207 0
M  V30 8259 H 797.467 3.55487 1.12621 0
M  V30 8260 N 799.652 0.226554 1.55963 0
M  V30 8261 C 801.063 -0.280381 1.84583 0
M  V30 8262 C 801.414 -1.59105 1.14804 0
M  V30 8263 O 800.539 -2.12297 0.419414 0
M  V30 8264 C 801.134 -0.515499 3.34855 0
M  V30 8265 C 799.693 -0.966733 3.63774 0
M  V30 8266 C 798.84 -0.0325753 2.77281 0
M  V30 8267 H 801.791 0.449626 1.52197 0
M  V30 8268 H 801.812 -1.36085 3.55332 0
M  V30 8269 H 801.324 0.438594 3.85614 0
M  V30 8270 H 799.425 -1.93401 3.18476 0
M  V30 8271 H 799.538 -0.837679 4.7172 0
M  V30 8272 H 797.902 -0.540279 2.48904 0
M  V30 8273 H 798.685 0.916524 3.30839 0
M  V30 8274 N 801.13 -1.57531 -0.0467866 0
M  V30 8275 C 802.358 -1.92696 -0.753371 0
M  V30 8276 C 802.773 -0.824792 -1.69831 0
M  V30 8277 O 802.13 0.200155 -1.81399 0
M  V30 8278 C 802.181 -3.27728 -1.52566 0
M  V30 8279 O 801.902 -4.3371 -0.618674 0
M  V30 8280 C 803.403 -3.77066 -2.33101 0
M  V30 8281 H 800.623 -0.636367 -0.212788 0
M  V30 8282 H 803.167 -2.04498 -0.00959361 0
M  V30 8283 H 801.322 -3.17378 -2.22148 0
M  V30 8284 H 801.736 -5.11548 -1.15839 0
M  V30 8285 H 803.21 -4.74109 -2.82709 0
M  V30 8286 H 803.687 -3.07348 -3.13741 0
M  V30 8287 H 804.293 -3.90442 -1.68628 0
M  V30 8288 N 802.608 0.318715 -1.54344 0
M  V30 8289 C 803.538 1.39751 -1.87061 0
M  V30 8290 C 804.519 1.53741 -0.727848 0
M  V30 8291 O 805.704 1.67541 -0.982016 0
M  V30 8292 C 802.834 2.76446 -2.10226 0
M  V30 8293 C 801.788 2.77239 -3.26071 0
M  V30 8294 C 801.114 4.17056 -3.34617 0
M  V30 8295 C 802.414 2.40555 -4.63606 0
M  V30 8296 H 804.108 1.12619 -2.77412 0
M  V30 8297 H 801.654 0.540318 -1.33479 0
M  V30 8298 H 803.607 3.51985 -2.31699 0
M  V30 8299 H 802.331 3.05066 -1.16629 0
M  V30 8300 H 800.99 2.04155 -3.04493 0
M  V30 8301 H 800.638 4.42824 -2.3857 0
M  V30 8302 H 800.338 4.18492 -4.12478 0
M  V30 8303 H 801.862 4.94401 -3.5833 0
M  V30 8304 H 803.276 3.05808 -4.84927 0
M  V30 8305 H 801.673 2.53234 -5.44052 0
M  V30 8306 H 802.743 1.35698 -4.65526 0
M  V30 8307 N 804.086 1.46499 0.581025 0
M  V30 8308 C 804.996 1.59778 1.71779 0
M  V30 8309 C 806.012 0.481223 1.67213 0
M  V30 8310 O 807.188 0.74557 1.87091 0
M  V30 8311 C 804.253 1.58626 3.08283 0
M  V30 8312 C 803.314 2.81527 3.241 0
M  V30 8313 C 802.547 2.80421 4.54092 0
M  V30 8314 O 802.77 1.89262 5.38085 0
M  V30 8315 O 801.704 3.71984 4.73193 0
M  V30 8316 H 805.53 2.55918 1.63523 0
M  V30 8317 H 803.115 1.29311 0.748267 0
M  V30 8318 H 804.997 1.60686 3.89561 0
M  V30 8319 H 803.672 0.656467 3.16973 0
M  V30 8320 H 802.579 2.85021 2.42309 0
M  V30 8321 H 803.912 3.73721 3.20302 0
M  V30 8322 N 805.565 -0.825799 1.34232 0
M  V30 8323 C 806.842 -1.56741 1.17011 0
M  V30 8324 C 807.222 -2.09512 -0.258425 0
M  V30 8325 O 806.57 -1.90664 -1.25935 0
M  V30 8326 C 806.78 -2.69104 2.22225 0
M  V30 8327 C 808.128 -3.37947 2.57055 0
M  V30 8328 O 809.152 -2.79358 2.20992 0
M  V30 8329 O 808.011 -4.43743 3.1899 0
M  V30 8330 H 805.105 -0.69163 0.453405 0
M  V30 8331 H 807.651 -0.867422 1.45856 0
M  V30 8332 H 806.423 -2.27844 3.18124 0
M  V30 8333 H 806.046 -3.46756 1.94541 0
M  V30 8334 N 807.043 -1.17915 -1.04565 0
M  V30 8335 C 807.975 -0.859359 -2.1248 0
M  V30 8336 C 808.988 0.140922 -1.62189 0
M  V30 8337 O 810.177 -0.0862361 -1.78292 0
M  V30 8338 C 807.277 -0.261811 -3.37887 0
M  V30 8339 C 806.45 -1.30651 -4.17431 0
M  V30 8340 C 805.509 -0.725575 -5.21174 0
M  V30 8341 O 804.535 -1.39901 -5.51739 0
M  V30 8342 N 805.737 0.479351 -5.78517 0
M  V30 8343 H 808.502 -1.78818 -2.40508 0
M  V30 8344 H 806.063 -1.07885 -1.20716 0
M  V30 8345 H 808.055 0.14028 -4.04457 0
M  V30 8346 H 806.625 0.570929 -3.07342 0
M  V30 8347 H 805.845 -1.88412 -3.46258 0
M  V30 8348 H 807.133 -2.01099 -4.67372 0
M  V30 8349 H 806.531 1.04431 -5.55977 0
M  V30 8350 H 805.088 0.823427 -6.46578 0
M  V30 8351 N 808.521 1.23394 -0.980386 0
M  V30 8352 C 809.431 2.28561 -0.528864 0
M  V30 8353 C 810.447 1.68946 0.416329 0
M  V30 8354 O 811.623 1.99355 0.286251 0
M  V30 8355 C 808.688 3.46323 0.16155 0
M  V30 8356 C 807.749 4.21297 -0.825044 0
M  V30 8357 C 806.982 5.33437 -0.167483 0
M  V30 8358 O 807.205 5.60812 1.04146 0
M  V30 8359 O 806.139 5.95637 -0.866047 0
M  V30 8360 H 809.965 2.69326 -1.40346 0
M  V30 8361 H 807.55 1.29325 -0.748019 0
M  V30 8362 H 809.432 4.17811 0.548841 0
M  V30 8363 H 808.107 3.0751 1.01092 0
M  V30 8364 H 807.014 3.52134 -1.26303 0
M  V30 8365 H 808.347 4.6396 -1.64322 0
M  V30 8366 N 809.999 0.752036 1.385 0
M  V30 8367 C 811.415 0.42946 1.53713 0
M  V30 8368 C 811.615 -1.0576 1.71514 0
M  V30 8369 O 810.671 -1.84366 1.72527 0
M  V30 8370 C 811.984 1.22735 2.74511 0
M  V30 8371 C 813.532 1.21727 2.8836 0
M  V30 8372 C 814.007 1.99809 4.12117 0
M  V30 8373 N 815.498 1.97062 4.19191 0
M  V30 8374 C 816.233 2.54274 5.13938 0
M  V30 8375 N 815.729 3.20193 6.14368 0
M  V30 8376 N 817.522 2.44212 5.06277 0
M  V30 8377 H 809.673 1.71581 1.25195 0
M  V30 8378 H 811.936 0.727293 0.60807 0
M  V30 8379 H 811.642 2.28032 2.67758 0
M  V30 8380 H 811.516 0.843186 3.67655 0
M  V30 8381 H 813.903 0.172367 2.94596 0
M  V30 8382 H 813.984 1.64094 1.96232 0
M  V30 8383 H 813.628 3.0431 4.06642 0
M  V30 8384 H 813.558 1.54837 5.03322 0
M  V30 8385 H 816.049 1.49054 3.47263 0
M  V30 8386 H 816.362 3.61272 6.83156 0
M  V30 8387 H 814.707 3.24287 6.14705 0
M  V30 8388 H 817.898 1.92343 4.26757 0
M  V30 8389 H 818.071 2.89096 5.79937 0
M  V30 8390 N 811.477 -1.49425 0.500989 0
M  V30 8391 C 812.427 -2.26061 -0.296698 0
M  V30 8392 C 813.411 -1.30906 -0.935541 0
M  V30 8393 O 814.603 -1.55628 -0.843142 0
M  V30 8394 C 811.732 -3.15189 -1.36055 0
M  V30 8395 C 810.818 -4.17806 -0.727952 0
M  V30 8396 N 811.209 -5.05516 0.169408 0
M  V30 8397 C 809.507 -4.34907 -0.988535 0
M  V30 8398 C 810.208 -5.79267 0.531509 0
M  V30 8399 N 809.184 -5.43507 -0.100564 0
M  V30 8400 H 812.986 -2.91246 0.394103 0
M  V30 8401 H 810.5 -1.59275 0.317065 0
M  V30 8402 H 812.497 -3.68724 -1.94547 0
M  V30 8403 H 811.157 -2.51556 -2.05303 0
M  V30 8404 H 812.168 -5.15075 0.540218 0
M  V30 8405 H 808.845 -3.82481 -1.67376 0
M  V30 8406 H 810.235 -6.59872 1.26564 0
M  V30 8407 N 812.955 -0.234822 -1.55841 0
M  V30 8408 C 813.885 0.664217 -2.23854 0
M  V30 8409 C 814.866 1.19076 -1.2147 0
M  V30 8410 O 816.051 1.23232 -1.50091 0
M  V30 8411 C 813.181 1.86666 -2.9287 0
M  V30 8412 C 812.135 1.47341 -4.01839 0
M  V30 8413 C 811.461 2.75571 -4.58219 0
M  V30 8414 C 812.761 0.653479 -5.18196 0
M  V30 8415 H 814.455 0.0971213 -2.99242 0
M  V30 8416 H 812.001 0.0452724 -1.43929 0
M  V30 8417 H 813.954 2.50116 -3.39146 0
M  V30 8418 H 812.678 2.45894 -2.1495 0
M  V30 8419 H 811.337 0.862314 -3.56314 0
M  V30 8420 H 810.985 3.32971 -3.77014 0
M  V30 8421 H 810.685 2.49987 -5.31771 0
M  V30 8422 H 812.209 3.39939 -5.07221 0
M  V30 8423 H 813.623 1.19198 -5.60771 0
M  V30 8424 H 812.02 0.494188 -5.98062 0
M  V30 8425 H 813.09 -0.337004 -4.83728 0
M  V30 8426 N 814.433 1.57553 0.0384317 0
M  V30 8427 C 815.363 2.0898 1.04161 0
M  V30 8428 C 816.344 0.99029 1.38301 0
M  V30 8429 O 817.529 1.26499 1.47349 0
M  V30 8430 C 814.659 2.56145 2.34536 0
M  V30 8431 C 813.613 3.70275 2.14663 0
M  V30 8432 C 812.939 4.03612 3.50715 0
M  V30 8433 C 814.239 4.99067 1.54045 0
M  V30 8434 H 815.933 2.93046 0.613548 0
M  V30 8435 H 813.479 1.40973 0.293684 0
M  V30 8436 H 815.432 2.90741 3.05037 0
M  V30 8437 H 814.156 1.6915 2.79385 0
M  V30 8438 H 812.815 3.36013 1.46597 0
M  V30 8439 H 812.463 3.13698 3.93195 0
M  V30 8440 H 812.163 4.80482 3.38247 0
M  V30 8441 H 813.687 4.40735 4.22593 0
M  V30 8442 H 815.101 5.3168 2.14451 0
M  V30 8443 H 813.498 5.80484 1.52178 0
M  V30 8444 H 814.568 4.8226 0.505259 0
M  V30 8445 N 815.911 -0.310526 1.54511 0
M  V30 8446 C 817.157 -1.04846 1.73595 0
M  V30 8447 C 817.49 -1.87244 0.515118 0
M  V30 8448 O 816.765 -1.88282 -0.48786 0
M  V30 8449 C 817.048 -1.96237 3.01932 0
M  V30 8450 C 816.901 -1.17082 4.34295 0
M  V30 8451 C 818.22 -2.9556 3.26086 0
M  V30 8452 H 815.339 -0.37976 0.631626 0
M  V30 8453 H 817.981 -0.32394 1.87218 0
M  V30 8454 H 816.131 -2.58015 2.90449 0
M  V30 8455 H 817.803 -0.576643 4.57682 0
M  V30 8456 H 816.046 -0.473336 4.3121 0
M  V30 8457 H 816.717 -1.84257 5.20339 0
M  V30 8458 H 819.193 -2.43908 3.37117 0
M  V30 8459 H 818.069 -3.5668 4.17218 0
M  V30 8460 H 818.33 -3.68715 2.4393 0
M  V30 8461 N 817.389 -1.46805 -0.573248 0
M  V30 8462 C 818.336 -1.58084 -1.68161 0
M  V30 8463 C 819.306 -0.424636 -1.6058 0
M  V30 8464 O 820.491 -0.642623 -1.79652 0
M  V30 8465 C 817.631 -1.58601 -3.06496 0
M  V30 8466 C 816.744 -2.85023 -3.24632 0
M  V30 8467 C 815.879 -2.76981 -4.53271 0
M  V30 8468 C 814.918 -3.983 -4.64783 0
M  V30 8469 N 814.055 -3.88589 -5.84759 0
M  V30 8470 H 818.895 -2.52755 -1.57858 0
M  V30 8471 H 816.432 -1.25385 -0.769218 0
M  V30 8472 H 818.39 -1.56885 -3.86579 0
M  V30 8473 H 817.02 -0.674553 -3.15673 0
M  V30 8474 H 816.072 -2.96678 -2.38089 0
M  V30 8475 H 817.384 -3.7491 -3.29004 0
M  V30 8476 H 816.538 -2.73424 -5.41594 0
M  V30 8477 H 815.277 -1.84751 -4.51352 0
M  V30 8478 H 814.282 -4.02179 -3.74876 0
M  V30 8479 H 815.507 -4.91639 -4.68474 0
M  V30 8480 H 813.453 -2.99151 -5.83819 0
M  V30 8481 H 813.37 -4.7214 -5.90441 0
M  V30 8482 H 814.638 -3.89022 -6.75486 0
M  V30 8483 N 818.867 0.818669 -1.34668 0
M  V30 8484 C 820.113 1.57746 -1.27453 0
M  V30 8485 C 820.446 1.93588 0.154077 0
M  V30 8486 O 819.721 1.60371 1.10051 0
M  V30 8487 C 820.004 2.87414 -2.16945 0
M  V30 8488 C 819.857 2.58125 -3.68363 0
M  V30 8489 C 821.176 3.89021 -2.05792 0
M  V30 8490 H 818.295 0.572339 -0.464324 0
M  V30 8491 H 820.937 0.942784 -1.64959 0
M  V30 8492 H 819.087 3.41576 -1.85089 0
M  V30 8493 H 820.759 2.10239 -4.10606 0
M  V30 8494 H 819.002 1.91503 -3.89242 0
M  V30 8495 H 819.673 3.5061 -4.26353 0
M  V30 8496 H 822.149 3.44224 -2.33771 0
M  V30 8497 H 821.025 4.77548 -2.70628 0
M  V30 8498 H 821.286 4.29786 -1.03618 0
M  V30 8499 N 820.346 1.18468 1.03938 0
M  V30 8500 C 821.595 0.975193 1.76558 0
M  V30 8501 C 821.908 -0.495978 1.89207 0
M  V30 8502 O 823.114 -0.824009 2.58694 0
M  V30 8503 C 821.57 1.69579 3.17444 0
M  V30 8504 C 821.178 3.20636 3.12884 0
M  V30 8505 C 822.922 1.56917 3.94433 0
M  V30 8506 C 820.829 3.8533 4.48636 0
M  V30 8507 H 819.759 0.361244 0.66183 0
M  V30 8508 H 822.41 1.41854 1.16403 0
M  V30 8509 H 820.792 1.18022 3.78004 0
M  V30 8510 H 821.966 3.79228 2.61768 0
M  V30 8511 H 820.281 3.33454 2.49394 0
M  V30 8512 H 822.878 2.02611 4.94826 0
M  V30 8513 H 823.221 0.521638 4.13019 0
M  V30 8514 H 823.754 2.05762 3.40451 0
M  V30 8515 H 820.493 4.90136 4.35255 0
M  V30 8516 H 820.013 3.31526 4.99851 0
M  V30 8517 H 821.692 3.88269 5.17549 0
M  V30 8518 N 821.824 -1.22873 0.986916 0
M  V30 8519 C 823.101 -1.86939 0.575589 0
M  V30 8520 C 823.481 -1.88656 -0.947205 0
M  V30 8521 O 822.829 -1.3728 -1.82665 0
M  V30 8522 C 823.039 -3.28117 1.18914 0
M  V30 8523 C 824.387 -4.04659 1.28593 0
M  V30 8524 O 825.411 -3.3736 1.14308 0
M  V30 8525 O 824.27 -5.25112 1.51391 0
M  V30 8526 H 821.364 -0.803748 0.194724 0
M  V30 8527 H 823.91 -1.30698 1.08241 0
M  V30 8528 H 822.682 -3.21468 2.231 0
M  V30 8529 H 822.305 -3.91956 0.667535 0
M  V30 8530 N 823.302 -0.75937 -1.38099 0
M  V30 8531 C 824.718 -0.437606 -1.53483 0
M  V30 8532 C 824.918 1.04849 -1.72072 0
M  V30 8533 O 823.974 1.83448 -1.73502 0
M  V30 8534 C 825.287 -1.24189 -2.73857 0
M  V30 8535 C 826.835 -1.23255 -2.8771 0
M  V30 8536 C 827.31 -2.01992 -4.11051 0
M  V30 8537 N 828.801 -1.99282 -4.1814 0
M  V30 8538 C 829.536 -2.56996 -5.12583 0
M  V30 8539 N 829.032 -3.23446 -6.12662 0
M  V30 8540 N 830.825 -2.46894 -5.04975 0
M  V30 8541 H 822.976 -1.72242 -1.24283 0
M  V30 8542 H 825.239 -0.730507 -0.604205 0
M  V30 8543 H 824.945 -2.29449 -2.66545 0
M  V30 8544 H 824.819 -0.862672 -3.67203 0
M  V30 8545 H 827.206 -0.187988 -2.94501 0
M  V30 8546 H 827.287 -1.65132 -1.95359 0
M  V30 8547 H 826.931 -3.06462 -4.05023 0
M  V30 8548 H 826.861 -1.57505 -5.02494 0
M  V30 8549 H 829.352 -1.50893 -3.46467 0
M  V30 8550 H 829.665 -3.6489 -6.81231 0
M  V30 8551 H 828.01 -3.27543 -6.12977 0
M  V30 8552 H 831.201 -1.94604 -4.25731 0
M  V30 8553 H 831.374 -2.92168 -5.78396 0
M  V30 8554 N 824.78 1.49157 -0.508906 0
M  V30 8555 C 826.029 2.0167 0.0346854 0
M  V30 8556 C 826.342 1.39302 1.37311 0
M  V30 8557 O 827.548 1.83189 2.00385 0
M  V30 8558 C 826.004 3.59725 0.112261 0
M  V30 8559 C 825.612 4.31069 -1.21999 0
M  V30 8560 C 827.356 4.20155 0.605798 0
M  V30 8561 C 825.263 5.81001 -1.10415 0
M  V30 8562 H 824.193 0.753814 0.0167355 0
M  V30 8563 H 826.844 1.7162 -0.649518 0
M  V30 8564 H 825.226 3.86525 0.861087 0
M  V30 8565 H 826.4 4.15962 -1.98273 0
M  V30 8566 H 824.715 3.82418 -1.64759 0
M  V30 8567 H 827.312 5.29964 0.710102 0
M  V30 8568 H 827.655 3.84051 1.60656 0
M  V30 8569 H 828.188 3.97705 -0.0867239 0
M  V30 8570 H 824.927 6.21643 -2.07941 0
M  V30 8571 H 824.447 5.9858 -0.382428 0
M  V30 8572 H 826.126 6.42207 -0.786116 0
M  V30 8573 N 826.258 0.243083 1.55714 0
M  V30 8574 C 827.188 -0.652336 2.24203 0
M  V30 8575 C 828.169 -1.1843 1.221 0
M  V30 8576 O 829.354 -1.22435 1.50743 0
M  V30 8577 C 826.484 -1.85111 2.93856 0
M  V30 8578 C 825.438 -1.45208 4.02615 0
M  V30 8579 C 824.764 -2.73137 4.59674 0
M  V30 8580 C 826.064 -0.625988 5.18535 0
M  V30 8581 H 827.758 -0.0812504 2.9929 0
M  V30 8582 H 825.304 -0.0376388 1.43951 0
M  V30 8583 H 827.257 -2.48314 3.40468 0
M  V30 8584 H 825.981 -2.44751 2.16251 0
M  V30 8585 H 824.64 -0.843406 3.56766 0
M  V30 8586 H 824.288 -3.30967 3.78774 0
M  V30 8587 H 823.988 -2.47163 5.33089 0
M  V30 8588 H 825.512 -3.37245 5.09017 0
M  V30 8589 H 826.926 -1.16223 5.61396 0
M  V30 8590 H 825.323 -0.462465 5.98315 0
M  V30 8591 H 826.393 0.362652 4.83542 0
M  V30 8592 N 827.736 -1.57571 -0.0300757 0
M  V30 8593 C 828.966 -1.93204 -0.731828 0
M  V30 8594 C 829.374 -0.841156 -1.69473 0
M  V30 8595 O 828.717 0.191231 -1.82702 0
M  V30 8596 C 828.779 -3.2463 -1.54453 0
M  V30 8597 C 828.443 -4.50862 -0.746507 0
M  V30 8598 C 829.44 -5.19879 -0.0472309 0
M  V30 8599 C 827.125 -4.9738 -0.701347 0
M  V30 8600 C 829.119 -6.33692 0.686518 0
M  V30 8601 C 826.806 -6.11089 0.036148 0
M  V30 8602 C 827.804 -6.791 0.728841 0
M  V30 8603 O 827.492 -7.90635 1.45436 0
M  V30 8604 H 827.224 -0.6423 -0.210775 0
M  V30 8605 H 829.778 -2.05398 0.00804194 0
M  V30 8606 H 828.008 -3.0876 -2.32818 0
M  V30 8607 H 829.697 -3.45597 -2.1288 0
M  V30 8608 H 830.463 -4.84945 -0.0731582 0
M  V30 8609 H 826.342 -4.44288 -1.23001 0
M  V30 8610 H 829.886 -6.86711 1.22773 0
M  V30 8611 H 825.783 -6.45468 0.064002 0
M  V30 8612 H 826.551 -8.06988 1.36794 0
M  V30 8613 N 829.214 0.302327 -1.54673 0
M  V30 8614 C 830.161 1.37282 -1.85532 0
M  V30 8615 C 831.131 1.50437 -0.704129 0
M  V30 8616 O 832.316 1.65317 -0.952627 0
M  V30 8617 C 829.456 2.73309 -2.10704 0
M  V30 8618 C 828.569 2.68614 -3.38335 0
M  V30 8619 C 827.704 3.96626 -3.53357 0
M  V30 8620 C 826.743 3.86324 -4.74784 0
M  V30 8621 N 825.88 5.06109 -4.86619 0
M  V30 8622 H 830.72 1.10265 -2.76849 0
M  V30 8623 H 828.257 0.533346 -1.37091 0
M  V30 8624 H 830.215 3.52414 -2.23294 0
M  V30 8625 H 828.845 2.98589 -1.22656 0
M  V30 8626 H 827.897 1.81381 -3.34373 0
M  V30 8627 H 829.209 2.56891 -4.27561 0
M  V30 8628 H 828.363 4.84168 -3.65604 0
M  V30 8629 H 827.102 4.11182 -2.62261 0
M  V30 8630 H 826.107 2.97166 -4.62572 0
M  V30 8631 H 827.332 3.73315 -5.67286 0
M  V30 8632 H 825.278 5.2113 -3.98446 0
M  V30 8633 H 825.195 4.96804 -5.69844 0
M  V30 8634 H 826.463 5.95306 -5.03221 0
M  V30 8635 N 830.692 1.47107 0.565454 0
M  V30 8636 C 831.622 1.61846 1.68309 0
M  V30 8637 C 832.603 0.468159 1.63531 0
M  V30 8638 O 833.788 0.696504 1.8128 0
M  V30 8639 C 830.918 1.62474 3.06952 0
M  V30 8640 C 829.872 2.76649 3.26572 0
M  V30 8641 C 829.198 2.62345 4.65917 0
M  V30 8642 C 830.498 4.18319 3.12741 0
M  V30 8643 H 832.192 2.55407 1.5623 0
M  V30 8644 H 829.738 1.22916 0.750179 0
M  V30 8645 H 831.691 1.71378 3.84977 0
M  V30 8646 H 830.415 0.654692 3.19971 0
M  V30 8647 H 829.074 2.67242 2.50952 0
M  V30 8648 H 828.722 1.63386 4.75725 0
M  V30 8649 H 828.422 3.38936 4.79996 0
M  V30 8650 H 829.946 2.73165 5.46089 0
M  V30 8651 H 831.36 4.28745 3.80593 0
M  V30 8652 H 829.757 4.95632 3.38333 0
M  V30 8653 H 830.827 4.37263 2.09592 0
M  V30 8654 N 832.17 -0.811516 1.35101 0
M  V30 8655 C 833.447 -1.55491 1.18667 0
M  V30 8656 C 833.827 -2.09775 -0.236189 0
M  V30 8657 O 833.175 -1.91989 -1.23905 0
M  V30 8658 C 833.385 -2.66732 2.25067 0
M  V30 8659 C 834.733 -3.35201 2.60625 0
M  V30 8660 O 835.757 -2.76998 2.23943 0
M  V30 8661 O 834.616 -4.40334 3.23679 0
M  V30 8662 H 831.71 -0.686783 0.460716 0
M  V30 8663 H 834.256 -0.851903 1.46768 0
M  V30 8664 H 833.028 -2.24457 3.20523 0
M  V30 8665 H 832.651 -3.44673 1.98208 0
M  V30 8666 N 833.648 -1.19017 -1.03309 0
M  V30 8667 C 834.925 -0.899659 -1.73682 0
M  V30 8668 C 835.305 0.595677 -2.02521 0
M  V30 8669 O 834.653 1.55263 -1.67648 0
M  V30 8670 C 834.863 -1.75508 -3.01659 0
M  V30 8671 C 836.211 -1.98679 -3.75249 0
M  V30 8672 O 837.235 -1.72624 -3.11576 0
M  V30 8673 O 836.094 -2.42587 -4.89708 0
M  V30 8674 H 833.188 -0.334903 -0.756154 0
M  V30 8675 H 835.734 -1.29809 -1.09305 0
M  V30 8676 H 834.506 -2.7684 -2.76542 0
M  V30 8677 H 834.129 -1.35565 -3.73775 0
M  V30 8678 N 835.127 1.22348 -0.993418 0
M  V30 8679 C 836.057 2.26584 -0.564088 0
M  V30 8680 C 837.038 1.65102 0.409298 0
M  V30 8681 O 838.223 1.91872 0.299819 0
M  V30 8682 C 835.353 3.47087 0.121554 0
M  V30 8683 C 834.307 4.21009 -0.770429 0
M  V30 8684 C 833.633 5.34678 0.0481586 0
M  V30 8685 C 834.933 4.79636 -2.06752 0
M  V30 8686 H 836.627 2.62749 -1.43538 0
M  V30 8687 H 834.173 1.26303 -0.691628 0
M  V30 8688 H 836.126 4.19166 0.433303 0
M  V30 8689 H 834.85 3.1002 1.0274 0
M  V30 8690 H 833.509 3.50764 -1.06583 0
M  V30 8691 H 833.157 4.93852 0.954933 0
M  V30 8692 H 832.857 5.85061 -0.545641 0
M  V30 8693 H 834.381 6.09573 0.353991 0
M  V30 8694 H 835.795 5.43654 -1.81969 0
M  V30 8695 H 834.192 5.4036 -2.61019 0
M  V30 8696 H 835.262 3.99659 -2.74592 0
M  V30 8697 N 836.605 0.766683 1.37694 0
M  V30 8698 C 837.851 0.329201 2.0011 0
M  V30 8699 C 838.184 -1.09004 1.60723 0
M  V30 8700 O 837.459 -1.74895 0.850989 0
M  V30 8701 C 837.742 0.466989 3.57059 0
M  V30 8702 C 837.595 1.92828 4.06371 0
M  V30 8703 C 838.914 -0.131792 4.39903 0
M  V30 8704 H 836.033 0.12109 0.726984 0
M  V30 8705 H 838.675 0.968779 1.63446 0
M  V30 8706 H 836.825 -0.0775023 3.88423 0
M  V30 8707 H 838.497 2.53208 3.85595 0
M  V30 8708 H 836.74 2.43884 3.58752 0
M  V30 8709 H 837.411 1.97577 5.15429 0
M  V30 8710 H 839.887 0.332731 4.14768 0
M  V30 8711 H 838.763 -0.005217 5.489 0
M  V30 8712 H 839.024 -1.22156 4.24889 0
M  V30 8713 N 838.083 -1.48885 0.516809 0
M  V30 8714 C 839.499 -1.58651 0.173788 0
M  V30 8715 C 839.699 -1.52033 -1.32243 0
M  V30 8716 O 838.755 -1.40251 -2.09967 0
M  V30 8717 C 840.068 -2.90816 0.764628 0
M  V30 8718 C 841.616 -3.04316 0.732164 0
M  V30 8719 C 842.091 -4.39123 1.30135 0
M  V30 8720 N 843.582 -4.45656 1.26273 0
M  V30 8721 C 844.317 -5.48446 1.67317 0
M  V30 8722 N 843.813 -6.58258 2.16028 0
M  V30 8723 N 845.606 -5.39251 1.58635 0
M  V30 8724 H 837.757 -1.5143 1.48939 0
M  V30 8725 H 840.02 -0.718243 0.618733 0
M  V30 8726 H 839.726 -3.01275 1.81456 0
M  V30 8727 H 839.6 -3.76473 0.234113 0
M  V30 8728 H 841.987 -2.93478 -0.308975 0
M  V30 8729 H 842.068 -2.20303 1.3 0
M  V30 8730 H 841.712 -4.50714 2.34135 0
M  V30 8731 H 841.642 -5.21801 0.709305 0
M  V30 8732 H 844.133 -3.66879 0.906006 0
M  V30 8733 H 844.446 -7.32811 2.45374 0
M  V30 8734 H 842.791 -6.59257 2.20013 0
M  V30 8735 H 845.982 -4.52354 1.20387 0
M  V30 8736 H 846.155 -6.19229 1.90944 0
M  V30 8737 N 839.561 -0.251338 -1.55583 0
M  V30 8738 C 840.972 0.25098 -1.85005 0
M  V30 8739 C 841.323 1.57259 -1.17321 0
M  V30 8740 O 840.448 2.11603 -0.453136 0
M  V30 8741 C 841.043 0.462161 -3.35633 0
M  V30 8742 C 839.602 0.908737 -3.65266 0
M  V30 8743 C 838.749 -0.0115418 -2.77298 0
M  V30 8744 H 841.7 -0.473782 -1.51463 0
M  V30 8745 H 841.721 1.30415 -3.57452 0
M  V30 8746 H 841.233 -0.499886 -3.84867 0
M  V30 8747 H 839.334 1.8831 -3.21512 0
M  V30 8748 H 839.447 0.762526 -4.72993 0
M  V30 8749 H 837.811 0.500612 -2.49732 0
M  V30 8750 H 838.594 -0.969042 -3.29339 0
M  V30 8751 N 841.039 1.57585 0.0217189 0
M  V30 8752 C 842.269 1.9359 0.721572 0
M  V30 8753 C 842.677 0.850132 1.69025 0
M  V30 8754 O 842.02 -0.181539 1.82801 0
M  V30 8755 C 842.082 3.25445 1.52729 0
M  V30 8756 C 841.746 4.51251 0.722586 0
M  V30 8757 C 842.743 5.19896 0.0196598 0
M  V30 8758 C 840.428 4.97745 0.674959 0
M  V30 8759 C 842.422 6.33319 -0.720114 0
M  V30 8760 C 840.109 6.11062 -0.068555 0
M  V30 8761 C 841.107 6.78704 -0.764845 0
M  V30 8762 O 840.795 7.89852 -1.49627 0
M  V30 8763 H 840.527 0.643409 0.207366 0
M  V30 8764 H 843.081 2.05391 -0.0189346 0
M  V30 8765 H 841.311 3.0999 2.31178 0
M  V30 8766 H 843 3.46721 2.11044 0
M  V30 8767 H 843.766 4.84977 0.0474394 0
M  V30 8768 H 839.645 4.44934 1.20643 0
M  V30 8769 H 843.189 6.86051 -1.26413 0
M  V30 8770 H 839.086 6.45425 -0.0982318 0
M  V30 8771 H 839.854 8.06251 -1.41071 0
M  V30 8772 N 842.517 -0.29412 1.54831 0
M  V30 8773 C 843.763 -1.02999 1.74697 0
M  V30 8774 C 844.096 -1.86687 0.534949 0
M  V30 8775 O 843.371 -1.88789 -0.467863 0
M  V30 8776 C 843.654 -1.93024 3.03996 0
M  V30 8777 C 843.507 -1.1247 4.35512 0
M  V30 8778 C 844.826 -2.92085 3.29203 0
M  V30 8779 H 841.945 -0.373039 0.635618 0
M  V30 8780 H 844.587 -0.304065 1.87551 0
M  V30 8781 H 842.737 -2.5492 2.93169 0
M  V30 8782 H 844.409 -0.528067 4.58268 0
M  V30 8783 H 842.652 -0.427574 4.31688 0
M  V30 8784 H 843.323 -1.78728 5.22265 0
M  V30 8785 H 845.799 -2.40319 3.39685 0
M  V30 8786 H 844.675 -3.52234 4.20978 0
M  V30 8787 H 844.936 -3.66107 2.47827 0
M  V30 8788 N 843.995 -1.47404 -0.557645 0
M  V30 8789 C 844.945 -1.56267 -1.66026 0
M  V30 8790 C 845.929 -0.42161 -1.55278 0
M  V30 8791 O 847.121 -0.671505 -1.63768 0
M  V30 8792 C 844.25 -1.57958 -3.04802 0
M  V30 8793 C 843.336 -2.77447 -3.20755 0
M  V30 8794 N 843.727 -4.02148 -3.06775 0
M  V30 8795 C 842.025 -2.74199 -3.51754 0
M  V30 8796 C 842.726 -4.82168 -3.25406 0
M  V30 8797 N 841.702 -4.14481 -3.5172 0
M  V30 8798 H 845.504 -2.50454 -1.53785 0
M  V30 8799 H 843.018 -1.43392 -0.762388 0
M  V30 8800 H 845.015 -1.62397 -3.8397 0
M  V30 8801 H 843.675 -0.648667 -3.18155 0
M  V30 8802 H 844.686 -4.33014 -2.84111 0
M  V30 8803 H 841.363 -1.90243 -3.71637 0
M  V30 8804 H 842.753 -5.91037 -3.19569 0
M  V30 8805 N 845.473 0.80434 -1.35529 0
M  V30 8806 C 846.42 1.91629 -1.28635 0
M  V30 8807 C 847.39 1.65348 -0.157862 0
M  V30 8808 O 848.575 1.87711 -0.341934 0
M  V30 8809 C 845.715 3.28207 -1.0665 0
M  V30 8810 C 844.828 3.66659 -2.28441 0
M  V30 8811 C 843.963 4.92279 -1.99588 0
M  V30 8812 C 843.002 5.23365 -3.1742 0
M  V30 8813 N 842.139 6.40165 -2.88328 0
M  V30 8814 H 846.979 1.96858 -2.23721 0
M  V30 8815 H 844.516 0.962871 -1.11208 0
M  V30 8816 H 846.474 4.06945 -0.919343 0
M  V30 8817 H 845.104 3.22441 -0.152253 0
M  V30 8818 H 844.156 2.83164 -2.54013 0
M  V30 8819 H 845.468 3.8559 -3.1642 0
M  V30 8820 H 844.622 5.78847 -1.81715 0
M  V30 8821 H 843.361 4.75387 -1.08896 0
M  V30 8822 H 842.366 4.35285 -3.35867 0
M  V30 8823 H 843.591 5.42185 -4.08916 0
M  V30 8824 H 841.537 6.24694 -2.00233 0
M  V30 8825 H 841.454 6.59357 -3.69843 0
M  V30 8826 H 842.722 7.29755 -2.74002 0
M  V30 8827 N 846.951 1.19563 1.02676 0
M  V30 8828 C 848.2 0.993864 1.75514 0
M  V30 8829 C 848.513 -0.475882 1.89723 0
M  V30 8830 O 849.719 -0.796525 2.59553 0
M  V30 8831 C 848.175 1.72937 3.15628 0
M  V30 8832 C 847.783 3.23937 3.09466 0
M  V30 8833 C 849.527 1.61092 3.92746 0
M  V30 8834 C 847.434 3.90067 4.44524 0
M  V30 8835 H 846.364 0.368244 0.657961 0
M  V30 8836 H 849.015 1.43081 1.14891 0
M  V30 8837 H 847.397 1.22025 3.76731 0
M  V30 8838 H 848.571 3.81983 2.57731 0
M  V30 8839 H 846.886 3.3608 2.45843 0
M  V30 8840 H 849.483 2.07848 4.92649 0
M  V30 8841 H 849.826 0.565415 4.12442 0
M  V30 8842 H 850.359 2.09361 3.3825 0
M  V30 8843 H 847.098 4.94725 4.30032 0
M  V30 8844 H 846.618 3.36809 4.96306 0
M  V30 8845 H 848.297 3.93736 5.13401 0
M  V30 8846 N 848.429 -1.21819 0.999893 0
M  V30 8847 C 849.359 -2.26282 0.576096 0
M  V30 8848 C 850.34 -1.65317 -0.400537 0
M  V30 8849 O 851.525 -1.92028 -0.28964 0
M  V30 8850 C 848.655 -3.47147 -0.103145 0
M  V30 8851 C 847.609 -4.20594 0.792745 0
M  V30 8852 C 846.935 -5.34696 -0.0198026 0
M  V30 8853 C 848.235 -4.78533 2.09293 0
M  V30 8854 H 849.929 -2.61984 1.4493 0
M  V30 8855 H 847.475 -1.25935 0.698316 0
M  V30 8856 H 849.428 -4.1939 -0.411068 0
M  V30 8857 H 848.152 -3.1056 -1.01094 0
M  V30 8858 H 846.811 -3.50194 1.08442 0
M  V30 8859 H 846.459 -4.94352 -0.928729 0
M  V30 8860 H 846.159 -5.84764 0.576661 0
M  V30 8861 H 847.683 -6.09752 -0.321659 0
M  V30 8862 H 849.097 -5.42682 1.8485 0
M  V30 8863 H 847.494 -5.38968 2.63881 0
M  V30 8864 H 848.564 -3.98197 2.76708 0
M  V30 8865 N 849.908 -0.773975 -1.37286 0
M  V30 8866 C 851.154 -0.339809 -1.99933 0
M  V30 8867 C 851.487 1.0815 -1.61299 0
M  V30 8868 O 850.762 1.74442 -0.860252 0
M  V30 8869 C 851.045 -0.485919 -3.56806 0
M  V30 8870 C 850.898 -1.9498 -4.05343 0
M  V30 8871 C 852.217 0.108461 -4.39966 0
M  V30 8872 H 849.336 -0.124944 -0.726332 0
M  V30 8873 H 851.978 -0.977433 -1.6293 0
M  V30 8874 H 850.128 0.0569023 -3.88458 0
M  V30 8875 H 851.8 -2.5525 -3.84246 0
M  V30 8876 H 850.043 -2.45784 -3.57453 0
M  V30 8877 H 850.714 -2.00308 -5.14374 0
M  V30 8878 H 853.19 -0.354722 -4.14585 0
M  V30 8879 H 852.066 -0.0238926 -5.48895 0
M  V30 8880 H 852.327 1.19901 -4.25531 0
M  V30 8881 N 851.386 1.48609 -0.524698 0
M  V30 8882 C 852.632 2.02797 0.0113382 0
M  V30 8883 C 852.965 1.40147 1.34433 0
M  V30 8884 O 852.24 0.545368 1.86698 0
M  V30 8885 C 852.523 3.59832 0.138931 0
M  V30 8886 C 852.376 4.32971 -1.21886 0
M  V30 8887 C 853.695 4.3145 0.868265 0
M  V30 8888 H 850.814 0.736995 0.00264645 0
M  V30 8889 H 853.456 1.77388 -0.680704 0
M  V30 8890 H 851.606 3.81612 0.72834 0
M  V30 8891 H 853.278 4.22624 -1.84897 0
M  V30 8892 H 851.521 3.94597 -1.80211 0
M  V30 8893 H 852.192 5.41279 -1.08263 0
M  V30 8894 H 854.668 4.14468 0.368145 0
M  V30 8895 H 853.544 5.41025 0.926428 0
M  V30 8896 H 853.805 3.98358 1.91737 0
M  V30 8897 N 852.864 0.259585 1.55447 0
M  V30 8898 C 854.113 -0.362163 1.98422 0
M  V30 8899 C 854.426 -1.58135 1.1512 0
M  V30 8900 O 855.632 -2.27506 1.48166 0
M  V30 8901 C 854.088 -0.695722 3.53111 0
M  V30 8902 C 853.696 0.502784 4.4517 0
M  V30 8903 C 855.44 -1.28096 4.04712 0
M  V30 8904 C 853.347 0.144674 5.91223 0
M  V30 8905 H 852.277 -0.139092 0.74106 0
M  V30 8906 H 854.928 0.361798 1.79898 0
M  V30 8907 H 853.31 -1.47816 3.67378 0
M  V30 8908 H 854.484 1.27994 4.42667 0
M  V30 8909 H 852.799 1.0038 4.0412 0
M  V30 8910 H 855.396 -1.56243 5.11363 0
M  V30 8911 H 855.739 -2.20969 3.52815 0
M  V30 8912 H 856.272 -0.561146 3.93822 0
M  V30 8913 H 853.011 1.04087 6.47183 0
M  V30 8914 H 852.531 -0.596023 5.96831 0
M  V30 8915 H 854.21 -0.268651 6.46442 0
M  V30 8916 N 854.342 -1.57594 -0.0133615 0
M  V30 8917 C 855.252 -2.10991 -1.02566 0
M  V30 8918 C 856.268 -1.05208 -1.3859 0
M  V30 8919 O 857.444 -1.37034 -1.47593 0
M  V30 8920 C 854.509 -2.59165 -2.30292 0
M  V30 8921 C 853.57 -3.79495 -2.00704 0
M  V30 8922 C 852.803 -4.25361 -3.22341 0
M  V30 8923 O 853.026 -3.70645 -4.33565 0
M  V30 8924 O 851.96 -5.17649 -3.07121 0
M  V30 8925 H 855.786 -2.97678 -0.601806 0
M  V30 8926 H 853.371 -1.47598 -0.23135 0
M  V30 8927 H 855.253 -2.90409 -3.05354 0
M  V30 8928 H 853.928 -1.75582 -2.71942 0
M  V30 8929 H 852.835 -3.53245 -1.23161 0
M  V30 8930 H 854.168 -4.64109 -1.639 0
M  V30 8931 N 855.82 0.285905 -1.54985 0
M  V30 8932 C 857.231 0.857869 -1.65824 0
M  V30 8933 C 857.582 1.87531 -0.576763 0
M  V30 8934 O 856.707 2.14528 0.284016 0
M  V30 8935 C 857.302 1.56277 -3.00604 0
M  V30 8936 C 855.861 2.08294 -3.13513 0
M  V30 8937 C 855.008 0.920633 -2.61571 0
M  V30 8938 H 857.959 0.0625463 -1.58577 0
M  V30 8939 H 857.98 2.42912 -2.92872 0
M  V30 8940 H 857.492 0.822017 -3.79295 0
M  V30 8941 H 855.593 2.8537 -2.39572 0
M  V30 8942 H 855.706 2.3071 -4.19892 0
M  V30 8943 H 854.07 1.31043 -2.18403 0
M  V30 8944 H 854.853 0.193594 -3.42754 0
M  V30 8945 N 857.298 1.47698 0.54982 0
M  V30 8946 C 858.228 1.63622 1.66583 0
M  V30 8947 C 859.209 0.485477 1.63025 0
M  V30 8948 O 860.394 0.715692 1.80531 0
M  V30 8949 C 857.524 1.65721 3.05211 0
M  V30 8950 C 856.478 2.80097 3.2362 0
M  V30 8951 C 855.804 2.67272 4.63109 0
M  V30 8952 C 857.104 4.21612 3.08286 0
M  V30 8953 H 858.798 2.57049 1.53512 0
M  V30 8954 H 856.344 1.23705 0.737099 0
M  V30 8955 H 858.297 1.75451 3.83138 0
M  V30 8956 H 857.021 0.688593 3.19258 0
M  V30 8957 H 855.68 2.69889 2.48104 0
M  V30 8958 H 855.328 1.68422 4.73965 0
M  V30 8959 H 855.028 3.44008 4.76374 0
M  V30 8960 H 856.552 2.78942 5.43161 0
M  V30 8961 H 857.966 4.32758 3.76024 0
M  V30 8962 H 856.363 4.99193 3.33057 0
M  V30 8963 H 857.433 4.39462 2.04942 0
M  V30 8964 N 858.776 -0.797141 1.35954 0
M  V30 8965 C 859.706 -1.92387 1.32323 0
M  V30 8966 C 860.687 -1.68967 0.196007 0
M  V30 8967 O 861.872 -1.90193 0.39245 0
M  V30 8968 C 859.002 -3.29286 1.10398 0
M  V30 8969 C 857.956 -3.67212 2.19862 0
M  V30 8970 C 857.282 -5.02377 1.8309 0
M  V30 8971 C 858.582 -3.76602 3.61896 0
M  V30 8972 H 860.276 -1.95683 2.26602 0
M  V30 8973 H 857.822 -0.94007 1.09081 0
M  V30 8974 H 859.775 -4.07721 1.06495 0
M  V30 8975 H 858.499 -3.26358 0.125668 0
M  V30 8976 H 857.158 -2.91069 2.22878 0
M  V30 8977 H 856.806 -4.95961 0.838527 0
M  V30 8978 H 856.506 -5.28722 2.56372 0
M  V30 8979 H 858.03 -5.8324 1.80729 0
M  V30 8980 H 859.444 -4.45246 3.6115 0
M  V30 8981 H 857.841 -4.14425 4.34018 0
M  V30 8982 H 858.911 -2.77906 3.97361 0
M  V30 8983 N 860.254 -1.20106 -1.0204 0
M  V30 8984 C 861.503 -1.00316 -1.74985 0
M  V30 8985 C 861.816 0.465814 -1.89972 0
M  V30 8986 O 863.022 0.782749 -2.59972 0
M  V30 8987 C 861.478 -1.74608 -3.14706 0
M  V30 8988 C 861.086 -3.25573 -3.07744 0
M  V30 8989 C 862.83 -1.63172 -3.91887 0
M  V30 8990 C 860.737 -3.92419 -4.42449 0
M  V30 8991 H 859.667 -0.371728 -0.655999 0
M  V30 8992 H 862.318 -1.43688 -1.14131 0
M  V30 8993 H 860.7 -1.24021 -3.76078 0
M  V30 8994 H 861.874 -3.83345 -2.55702 0
M  V30 8995 H 860.189 -3.3738 -2.44057 0
M  V30 8996 H 862.786 -2.10457 -4.9154 0
M  V30 8997 H 863.129 -0.58728 -4.12137 0
M  V30 8998 H 863.662 -2.11152 -3.37135 0
M  V30 8999 H 860.401 -4.96998 -4.27403 0
M  V30 9000 H 859.921 -3.39436 -4.94513 0
M  V30 9001 H 861.6 -3.96453 -5.11306 0
M  V30 9002 N 861.732 1.21287 -1.00634 0
M  V30 9003 C 863.009 1.86 -0.605257 0
M  V30 9004 C 863.389 1.90139 0.917072 0
M  V30 9005 O 862.737 1.40169 1.80458 0
M  V30 9006 C 862.947 3.26183 -1.24119 0
M  V30 9007 C 864.295 4.02562 -1.35015 0
M  V30 9008 O 865.319 3.35499 -1.19661 0
M  V30 9009 O 864.178 5.22638 -1.59726 0
M  V30 9010 H 861.272 0.800549 -0.207486 0
M  V30 9011 H 863.818 1.28959 -1.10307 0
M  V30 9012 H 862.59 3.17878 -2.28186 0
M  V30 9013 H 862.213 3.90845 -0.729807 0
M  V30 9014 N 863.21 0.781244 1.36873 0
M  V30 9015 C 864.12 0.174981 2.33947 0
M  V30 9016 C 865.136 -0.668512 1.60645 0
M  V30 9017 O 866.312 -0.586213 1.9268 0
M  V30 9018 C 863.377 -0.686557 3.39834 0
M  V30 9019 C 862.438 0.174489 4.28945 0
M  V30 9020 C 861.671 -0.646024 5.29776 0
M  V30 9021 O 861.894 -1.88254 5.38439 0
M  V30 9022 O 860.828 -0.0502214 6.01879 0
M  V30 9023 H 864.654 0.977382 2.87543 0
M  V30 9024 H 862.239 0.542559 1.392 0
M  V30 9025 H 864.121 -1.1781 4.04597 0
M  V30 9026 H 862.796 -1.46699 2.8855 0
M  V30 9027 H 861.703 0.712604 3.6725 0
M  V30 9028 H 863.036 0.918232 4.83559 0
M  V30 9029 N 864.689 -1.48329 0.532571 0
M  V30 9030 C 865.966 -1.95492 -0.0650985 0
M  V30 9031 C 866.346 -1.47485 -1.51034 0
M  V30 9032 O 865.694 -0.702516 -2.17433 0
M  V30 9033 C 865.904 -3.48957 0.0548341 0
M  V30 9034 C 867.252 -4.24475 -0.103115 0
M  V30 9035 O 868.276 -3.56195 -0.0188343 0
M  V30 9036 O 867.135 -5.45781 -0.280164 0
M  V30 9037 H 864.229 -0.823327 -0.0778603 0
M  V30 9038 H 866.775 -1.58839 0.597353 0
M  V30 9039 H 865.547 -3.76628 1.06148 0
M  V30 9040 H 865.17 -3.92311 -0.64635 0
M  V30 9041 N 866.167 -0.267825 -1.55308 0
M  V30 9042 C 867.397 0.354073 -2.03543 0
M  V30 9043 C 867.805 1.50554 -1.14586 0
M  V30 9044 O 867.148 1.83028 -0.156991 0
M  V30 9045 C 867.21 0.904148 -3.47945 0
M  V30 9046 C 866.874 -0.11775 -4.56848 0
M  V30 9047 C 867.871 -0.934707 -5.11429 0
M  V30 9048 C 865.556 -0.249885 -5.01678 0
M  V30 9049 C 867.55 -1.87005 -6.0935 0
M  V30 9050 C 865.237 -1.18872 -5.99427 0
M  V30 9051 C 866.235 -1.99731 -6.53144 0
M  V30 9052 O 865.923 -2.92028 -7.48983 0
M  V30 9053 H 865.655 0.0857765 -0.670536 0
M  V30 9054 H 868.209 -0.395515 -2.01556 0
M  V30 9055 H 866.439 1.70368 -3.47148 0
M  V30 9056 H 868.128 1.43835 -3.79561 0
M  V30 9057 H 868.894 -0.84332 -4.77612 0
M  V30 9058 H 864.773 0.369469 -4.59517 0
M  V30 9059 H 868.317 -2.5016 -6.51203 0
M  V30 9060 H 864.214 -1.28095 -6.32663 0
M  V30 9061 H 864.982 -2.86627 -7.66673 0
M  V30 9062 N 867.645 1.57599 0.00500368 0
M  V30 9063 C 868.875 1.94344 0.700998 0
M  V30 9064 C 869.283 0.868011 1.68114 0
M  V30 9065 O 868.626 -0.16214 1.82983 0
M  V30 9066 C 868.688 3.27046 1.49268 0
M  V30 9067 C 868.352 4.51992 0.674684 0
M  V30 9068 C 869.349 5.19888 -0.0354833 0
M  V30 9069 C 867.034 4.98432 0.622129 0
M  V30 9070 C 869.028 6.3252 -0.787246 0
M  V30 9071 C 866.715 6.10954 -0.133362 0
M  V30 9072 C 867.713 6.77855 -0.836788 0
M  V30 9073 O 867.401 7.88221 -1.57996 0
M  V30 9074 H 867.133 0.645572 0.20053 0
M  V30 9075 H 869.687 2.0536 -0.040718 0
M  V30 9076 H 867.917 3.12424 2.27877 0
M  V30 9077 H 869.606 3.4894 2.07355 0
M  V30 9078 H 870.372 4.85 -0.00400159 0
M  V30 9079 H 866.251 4.46189 1.15917 0
M  V30 9080 H 869.795 6.84671 -1.33683 0
M  V30 9081 H 865.692 6.45285 -0.166682 0
M  V30 9082 H 866.46 8.0471 -1.49615 0
M  V30 9083 N 869.123 -0.277682 1.55134 0
M  V30 9084 C 870.086 -1.32635 1.86924 0
M  V30 9085 C 871.086 -1.42578 0.743507 0
M  V30 9086 O 872.276 -1.4181 1.01171 0
M  V30 9087 C 869.408 -2.70832 2.07034 0
M  V30 9088 H 870.601 -1.0568 2.80663 0
M  V30 9089 H 868.154 -0.515517 1.47554 0
M  V30 9090 H 868.889 -3.02974 1.15661 0
M  V30 9091 H 868.674 -2.65001 2.88993 0
M  V30 9092 H 870.164 -3.46611 2.32918 0
M  V30 9093 N 870.601 -1.47988 -0.541979 0
M  V30 9094 C 872.017 -1.33843 -0.869383 0
M  V30 9095 C 872.217 -0.340374 -1.98604 0
M  V30 9096 O 871.273 0.242696 -2.51331 0
M  V30 9097 C 872.586 -2.73568 -1.24823 0
M  V30 9098 C 874.134 -2.81967 -1.3588 0
M  V30 9099 C 874.609 -4.22368 -1.77114 0
M  V30 9100 N 876.1 -4.24983 -1.84237 0
M  V30 9101 C 876.835 -5.30547 -2.17503 0
M  V30 9102 N 876.331 -6.46401 -2.49275 0
M  V30 9103 N 878.124 -5.17933 -2.18406 0
M  V30 9104 H 870.275 -2.11503 0.195001 0
M  V30 9105 H 872.538 -0.947681 0.0245862 0
M  V30 9106 H 872.244 -3.48107 -0.501435 0
M  V30 9107 H 872.118 -3.06322 -2.20106 0
M  V30 9108 H 874.505 -2.07692 -2.09638 0
M  V30 9109 H 874.586 -2.52848 -0.387478 0
M  V30 9110 H 874.23 -4.97155 -1.0392 0
M  V30 9111 H 874.16 -4.48922 -2.75275 0
M  V30 9112 H 876.651 -3.41411 -1.62009 0
M  V30 9113 H 876.964 -7.22698 -2.73729 0
M  V30 9114 H 875.309 -6.49696 -2.46821 0
M  V30 9115 H 878.5 -4.26445 -1.93034 0
M  V30 9116 H 878.673 -6.00307 -2.44 0
M  V30 9117 N 872.079 0.78992 -1.36375 0
M  V30 9118 C 873.325 1.55007 -1.3077 0
M  V30 9119 C 873.658 1.93871 0.112979 0
M  V30 9120 O 872.933 1.6267 1.06625 0
M  V30 9121 C 873.216 2.82748 -2.22993 0
M  V30 9122 C 873.069 2.50253 -3.73756 0
M  V30 9123 C 874.388 3.84569 -2.13998 0
M  V30 9124 H 871.507 0.562362 -0.476359 0
M  V30 9125 H 874.149 0.907582 -1.66922 0
M  V30 9126 H 872.299 3.37573 -1.92292 0
M  V30 9127 H 873.971 2.01482 -4.14973 0
M  V30 9128 H 872.214 1.83203 -3.93216 0
M  V30 9129 H 872.885 3.41487 -4.33694 0
M  V30 9130 H 875.361 3.39188 -2.4102 0
M  V30 9131 H 874.237 4.717 -2.80697 0
M  V30 9132 H 874.498 4.27491 -1.12711 0
M  V30 9133 N 873.557 1.20646 1.01402 0
M  V30 9134 C 874.467 0.973385 2.13453 0
M  V30 9135 C 875.483 -0.0715865 1.73853 0
M  V30 9136 O 876.659 0.116438 2.01063 0
M  V30 9137 C 873.724 0.531285 3.42605 0
M  V30 9138 C 872.785 1.64741 3.96433 0
M  V30 9139 C 872.018 1.22631 5.1942 0
M  V30 9140 O 872.241 0.0960891 5.70319 0
M  V30 9141 O 871.175 2.03474 5.66465 0
M  V30 9142 H 875.001 1.91164 2.35987 0
M  V30 9143 H 872.586 0.990553 1.11841 0
M  V30 9144 H 874.468 0.294095 4.20373 0
M  V30 9145 H 873.143 -0.378358 3.21481 0
M  V30 9146 H 872.05 1.93891 3.19933 0
M  V30 9147 H 873.383 2.53415 4.2195 0
M  V30 9148 N 875.035 -1.20752 1.01276 0
M  V30 9149 C 876.283 -1.89645 0.698505 0
M  V30 9150 C 876.604 -1.78986 -0.773883 0
M  V30 9151 O 875.874 -1.18977 -1.55632 0
M  V30 9152 H 874.454 -0.701992 0.255375 0
M  V30 9153 H 877.116 -1.46668 1.28353 0
M  V30 9154 H 876.212 -2.96364 0.978512 0
M  V30 9155 N 876.513 -0.788492 -1.36457 0
M  V30 9156 C 877.929 -0.470063 -1.52521 0
M  V30 9157 C 878.129 1.01176 -1.74258 0
M  V30 9158 O 877.185 1.79726 -1.77355 0
M  V30 9159 C 878.498 -1.2997 -2.71161 0
M  V30 9160 C 880.046 -1.2933 -2.85031 0
M  V30 9161 C 880.521 -2.10665 -4.06674 0
M  V30 9162 N 882.012 -2.08107 -4.13819 0
M  V30 9163 C 882.747 -2.6781 -5.07016 0
M  V30 9164 N 882.243 -3.36369 -6.05663 0
M  V30 9165 N 884.036 -2.57549 -4.99625 0
M  V30 9166 H 876.187 -1.7484 -1.20602 0
M  V30 9167 H 878.45 -0.743159 -0.588574 0
M  V30 9168 H 878.156 -2.35051 -2.61618 0
M  V30 9169 H 878.03 -0.940367 -3.6529 0
M  V30 9170 H 880.417 -0.250414 -2.94036 0
M  V30 9171 H 880.498 -1.69239 -1.91812 0
M  V30 9172 H 880.142 -3.14984 -3.98431 0
M  V30 9173 H 880.072 -1.68128 -4.9904 0
M  V30 9174 H 882.563 -1.58208 -3.43189 0
M  V30 9175 H 882.876 -3.79258 -6.73338 0
M  V30 9176 H 881.221 -3.40471 -6.05891 0
M  V30 9177 H 884.412 -2.0359 -4.21508 0
M  V30 9178 H 884.585 -3.0437 -5.72069 0
M  V30 9179 N 877.991 1.48044 -0.54043 0
M  V30 9180 C 878.901 2.33565 0.220163 0
M  V30 9181 C 879.917 1.47146 0.928659 0
M  V30 9182 O 881.093 1.80107 0.901295 0
M  V30 9183 C 878.158 3.2349 1.2472 0
M  V30 9184 C 877.219 4.25789 0.547938 0
M  V30 9185 C 876.452 5.11417 1.52605 0
M  V30 9186 O 876.675 4.99204 2.75956 0
M  V30 9187 O 875.609 5.92498 1.05972 0
M  V30 9188 H 879.435 2.99868 -0.480898 0
M  V30 9189 H 877.02 1.46332 -0.301226 0
M  V30 9190 H 878.902 3.79084 1.84047 0
M  V30 9191 H 877.577 2.59835 1.93048 0
M  V30 9192 H 876.484 3.74001 -0.0860941 0
M  V30 9193 H 877.817 4.92111 -0.0935896 0
M  V30 9194 N 879.47 0.276058 1.55163 0
M  V30 9195 C 880.719 -0.341098 1.98795 0
M  V30 9196 C 881.032 -1.56905 1.16791 0
M  V30 9197 O 882.238 -2.25922 1.50571 0
M  V30 9198 C 880.694 -0.658231 3.5383 0
M  V30 9199 C 880.302 0.549972 4.44611 0
M  V30 9200 C 882.046 -1.23796 4.06048 0
M  V30 9201 C 879.953 0.207373 5.91036 0
M  V30 9202 H 878.883 -0.131224 0.742493 0
M  V30 9203 H 881.534 0.380858 1.79504 0
M  V30 9204 H 879.916 -1.43911 3.68925 0
M  V30 9205 H 881.09 1.32681 4.41285 0
M  V30 9206 H 879.405 1.04661 4.03032 0
M  V30 9207 H 882.002 -1.50811 5.12991 0
M  V30 9208 H 882.345 -2.17214 3.55139 0
M  V30 9209 H 882.878 -0.519345 3.94395 0
M  V30 9210 H 879.617 1.10946 6.46043 0
M  V30 9211 H 879.137 -0.532687 5.9743 0
M  V30 9212 H 880.816 -0.200072 6.46691 0
M  V30 9213 N 880.948 -1.576 0.00335426 0
M  V30 9214 C 882.197 -1.89892 -0.680001 0
M  V30 9215 C 882.51 -0.878731 -1.7475 0
M  V30 9216 O 883.716 -1.09199 -2.48572 0
M  V30 9217 C 882.172 -3.37098 -1.26066 0
M  V30 9218 C 881.78 -4.4742 -0.227807 0
M  V30 9219 C 883.524 -3.78495 -1.92202 0
M  V30 9220 C 881.431 -5.85706 -0.81865 0
M  V30 9221 H 880.361 -0.708578 -0.257746 0
M  V30 9222 H 883.012 -1.83387 0.0644472 0
M  V30 9223 H 881.394 -3.38451 -2.05589 0
M  V30 9224 H 882.568 -4.57589 0.54307 0
M  V30 9225 H 880.883 -4.15064 0.333297 0
M  V30 9226 H 883.48 -4.7915 -2.37318 0
M  V30 9227 H 883.823 -3.12187 -2.75399 0
M  V30 9228 H 884.356 -3.79456 -1.19408 0
M  V30 9229 H 881.095 -6.55495 -0.0253787 0
M  V30 9230 H 880.615 -5.79196 -1.55861 0
M  V30 9231 H 882.294 -6.33469 -1.31627 0
M  V30 9232 N 882.426 0.269451 -1.5528 0
M  V30 9233 C 883.651 1.02299 -1.80415 0
M  V30 9234 C 884.076 1.7902 -0.577363 0
M  V30 9235 O 883.434 1.75018 0.473125 0
M  V30 9236 C 883.482 1.95445 -3.0304 0
M  V30 9237 O 882.586 3.04271 -2.78375 0
M  V30 9238 H 881.927 0.292289 -0.596207 0
M  V30 9239 H 884.457 0.297282 -2.02429 0
M  V30 9240 H 884.467 2.37333 -3.31869 0
M  V30 9241 H 883.142 1.39017 -3.91978 0
M  V30 9242 H 881.719 2.66673 -2.60653 0
M  V30 9243 N 883.904 1.48273 0.534124 0
M  V30 9244 C 884.852 1.62926 1.66005 0
M  V30 9245 C 885.846 0.495814 1.61982 0
M  V30 9246 O 887.052 0.6744 1.66889 0
M  V30 9247 H 883.427 0.513163 0.549698 0
M  V30 9248 H 885.398 2.57498 1.50789 0
M  V30 9249 C 884.147 1.68231 3.04292 0
M  V30 9250 H 883.47 2.54807 3.0808 0
M  V30 9251 H 884.91 1.82528 3.827 0
M  V30 9252 C 883.369 0.420154 3.3427 0
M  V30 9253 O 883.899 -0.468769 3.98955 0
M  V30 9254 N 882.105 0.293115 2.89118 0
M  V30 9255 H 881.652 1.01745 2.36655 0
M  V30 9256 H 881.61 -0.550376 3.09545 0
M  V30 9257 N 885.382 -0.782676 1.36792 0
M  V30 9258 C 886.312 -1.90973 1.34356 0
M  V30 9259 C 887.293 -1.6875 0.213917 0
M  V30 9260 O 888.478 -1.89766 0.412601 0
M  V30 9261 C 885.608 -3.28097 1.13884 0
M  V30 9262 C 884.562 -3.6486 2.23744 0
M  V30 9263 C 883.888 -5.00406 1.88408 0
M  V30 9264 C 885.188 -3.72742 3.6587 0
M  V30 9265 H 886.882 -1.93268 2.28665 0
M  V30 9266 H 884.428 -0.928447 1.10072 0
M  V30 9267 H 886.381 -4.06569 1.10813 0
M  V30 9268 H 885.105 -3.26206 0.160275 0
M  V30 9269 H 883.764 -2.88689 2.25952 0
M  V30 9270 H 883.412 -4.95044 0.891083 0
M  V30 9271 H 883.112 -5.25973 2.61966 0
M  V30 9272 H 884.636 -5.81291 1.86905 0
M  V30 9273 H 886.05 -4.4139 3.65852 0
M  V30 9274 H 884.447 -4.09798 4.38389 0
M  V30 9275 H 885.517 -2.73676 4.00287 0
M  V30 9276 N 886.86 -1.21182 -1.00761 0
M  V30 9277 C 887.823 -0.970339 -2.07646 0
M  V30 9278 C 888.823 0.0576345 -1.60697 0
M  V30 9279 O 890.013 -0.179369 -1.73274 0
M  V30 9280 C 887.145 -0.462703 -3.37745 0
M  V30 9281 H 888.338 -1.91856 -2.30502 0
M  V30 9282 H 885.891 -1.02844 -1.17698 0
M  V30 9283 H 886.626 0.490559 -3.20568 0
M  V30 9284 H 886.411 -1.20416 -3.73152 0
M  V30 9285 H 887.901 -0.313531 -4.16421 0
M  V30 9286 N 888.338 1.20213 -1.01915 0
M  V30 9287 C 889.285 2.2309 -0.591571 0
M  V30 9288 C 890.255 1.61465 0.389649 0
M  V30 9289 O 891.44 1.88606 0.288511 0
M  V30 9290 C 888.58 3.45045 0.0614028 0
M  V30 9291 C 887.693 4.21091 -0.964688 0
M  V30 9292 C 886.828 5.30448 -0.282499 0
M  V30 9293 C 885.867 5.98241 -1.29517 0
M  V30 9294 N 885.004 6.99182 -0.639472 0
M  V30 9295 H 889.844 2.59023 -1.47347 0
M  V30 9296 H 887.381 1.27274 -0.737547 0
M  V30 9297 H 889.339 4.14688 0.45714 0
M  V30 9298 H 887.969 3.09797 0.906937 0
M  V30 9299 H 887.021 3.50489 -1.47857 0
M  V30 9300 H 888.333 4.67662 -1.73475 0
M  V30 9301 H 887.487 6.06466 0.168603 0
M  V30 9302 H 886.226 4.84922 0.519843 0
M  V30 9303 H 885.231 5.20982 -1.75663 0
M  V30 9304 H 886.456 6.45853 -2.09884 0
M  V30 9305 H 884.402 6.55844 0.142955 0
M  V30 9306 H 884.319 7.43893 -1.34756 0
M  V30 9307 H 885.587 7.79212 -0.212047 0
M  V30 9308 N 889.816 0.795718 1.36037 0
M  V30 9309 C 890.779 0.204318 2.28287 0
M  V30 9310 C 891.779 -0.602017 1.49105 0
M  V30 9311 O 892.969 -0.422089 1.69009 0
M  V30 9312 C 890.101 -0.716431 3.33287 0
M  V30 9313 H 891.294 1.01781 2.821 0
M  V30 9314 H 888.847 0.565588 1.45708 0
M  V30 9315 H 889.582 -1.55403 2.84641 0
M  V30 9316 H 889.367 -0.140096 3.9185 0
M  V30 9317 H 890.857 -1.12488 4.02164 0
M  V30 9318 N 891.294 -1.47756 0.548274 0
M  V30 9319 C 892.257 -2.28379 -0.193857 0
M  V30 9320 C 893.257 -1.36436 -0.850986 0
M  V30 9321 O 894.447 -1.59154 -0.70822 0
M  V30 9322 C 891.579 -3.15858 -1.28243 0
M  V30 9323 H 892.772 -2.95458 0.514231 0
M  V30 9324 H 890.325 -1.53298 0.304879 0
M  V30 9325 H 891.06 -2.5345 -2.0232 0
M  V30 9326 H 890.845 -3.83512 -0.816148 0
M  V30 9327 H 892.335 -3.76627 -1.80393 0
M  V30 9328 N 892.772 -0.284283 -1.55015 0
M  V30 9329 C 894.02 0.329212 -1.99401 0
M  V30 9330 C 894.341 1.55687 -1.17416 0
M  V30 9331 O 893.611 1.94087 -0.265937 0
M  V30 9332 H 892.191 0.12463 -0.73653 0
M  V30 9333 H 894.853 -0.391743 -1.90922 0
M  V30 9334 H 893.949 0.61278 -3.06025 0
M  V30 9335 N 894.251 1.57596 -0.0117121 0
M  V30 9336 C 895.181 2.12188 0.9746 0
M  V30 9337 C 896.162 1.03379 1.35081 0
M  V30 9338 O 897.347 1.31123 1.4325 0
M  V30 9339 C 894.477 2.63477 2.26268 0
M  V30 9340 C 893.431 3.76917 2.02774 0
M  V30 9341 C 892.757 4.14566 3.37697 0
M  V30 9342 C 894.057 5.03715 1.38089 0
M  V30 9343 H 895.751 2.9485 0.520007 0
M  V30 9344 H 893.297 1.41836 0.248685 0
M  V30 9345 H 895.25 3.00299 2.95633 0
M  V30 9346 H 893.974 1.77953 2.73862 0
M  V30 9347 H 892.633 3.40507 1.35832 0
M  V30 9348 H 892.281 3.26048 3.83016 0
M  V30 9349 H 891.981 4.91 3.22789 0
M  V30 9350 H 893.505 4.53956 4.08358 0
M  V30 9351 H 894.919 5.38233 1.97428 0
M  V30 9352 H 893.316 5.85032 1.33634 0
M  V30 9353 H 894.386 4.83624 0.351575 0
M  V30 9354 N 895.729 -0.261212 1.5542 0
M  V30 9355 C 896.692 -1.30645 1.8832 0
M  V30 9356 C 897.692 -1.41782 0.758588 0
M  V30 9357 O 898.882 -1.40729 1.02669 0
M  V30 9358 C 896.014 -2.6862 2.09895 0
M  V30 9359 H 897.207 -1.02698 2.81768 0
M  V30 9360 H 894.76 -0.499838 1.48092 0
M  V30 9361 H 895.495 -3.0173 1.18868 0
M  V30 9362 H 895.28 -2.61921 2.91787 0
M  V30 9363 H 896.77 -3.44121 2.36581 0
M  V30 9364 N 897.207 -1.48554 -0.526253 0
M  V30 9365 C 898.435 -1.60429 -1.30652 0
M  V30 9366 C 898.85 -0.265963 -1.86917 0
M  V30 9367 O 898.207 0.745262 -1.6659 0
M  V30 9368 C 898.258 -2.65377 -2.45473 0
M  V30 9369 O 897.979 -3.94017 -1.91527 0
M  V30 9370 C 899.48 -2.87726 -3.37237 0
M  V30 9371 H 896.7 -0.540817 -0.397187 0
M  V30 9372 H 899.244 -1.94409 -0.634461 0
M  V30 9373 H 897.399 -2.34246 -3.08557 0
M  V30 9374 H 897.813 -4.51623 -2.66715 0
M  V30 9375 H 899.287 -3.64951 -4.14144 0
M  V30 9376 H 899.764 -1.96688 -3.92696 0
M  V30 9377 H 900.37 -3.20176 -2.79942 0
M  V30 9378 N 898.685 0.775411 -1.37205 0
M  V30 9379 C 899.618 1.8957 -1.27037 0
M  V30 9380 C 900.596 1.61891 -0.151643 0
M  V30 9381 O 901.78 1.85673 -0.325218 0
M  V30 9382 C 898.907 3.24712 -0.963316 0
M  V30 9383 C 897.953 3.71306 -2.09842 0
M  V30 9384 S 898.786 3.8541 -3.71778 0
M  V30 9385 C 899.942 5.23406 -3.43216 0
M  V30 9386 H 900.175 1.97905 -2.21857 0
M  V30 9387 H 897.708 0.936127 -1.22784 0
M  V30 9388 H 899.666 4.02768 -0.792983 0
M  V30 9389 H 898.327 3.14083 -0.0326561 0
M  V30 9390 H 897.52 4.69271 -1.83849 0
M  V30 9391 H 897.122 3.00341 -2.2287 0
M  V30 9392 H 899.414 6.08454 -2.97977 0
M  V30 9393 H 900.357 5.54409 -4.40495 0
M  V30 9394 H 900.765 4.9117 -2.78231 0
M  V30 9395 N 900.163 1.21714 1.00117 0
M  V30 9396 C 901.412 1.03087 1.73367 0
M  V30 9397 C 901.725 -0.435532 1.90689 0
M  V30 9398 O 902.931 -0.741291 2.61184 0
M  V30 9399 C 901.387 1.79593 3.11888 0
M  V30 9400 C 900.995 3.30428 3.02525 0
M  V30 9401 C 902.739 1.69386 3.89241 0
M  V30 9402 C 900.646 3.99408 4.3615 0
M  V30 9403 H 899.576 0.382117 0.650002 0
M  V30 9404 H 902.227 1.45486 1.11831 0
M  V30 9405 H 900.609 1.29988 3.74058 0
M  V30 9406 H 901.783 3.87364 2.49571 0
M  V30 9407 H 900.098 3.4122 2.38659 0
M  V30 9408 H 902.695 2.18251 4.8813 0
M  V30 9409 H 903.038 0.652773 4.1115 0
M  V30 9410 H 903.571 2.16489 3.33733 0
M  V30 9411 H 900.31 5.03735 4.19442 0
M  V30 9412 H 899.83 3.47261 4.8905 0
M  V30 9413 H 901.509 4.04537 5.04934 0
M  V30 9414 N 901.641 -1.19671 1.02551 0
M  V30 9415 C 902.866 -1.93774 0.739363 0
M  V30 9416 C 903.291 -1.74787 -0.695064 0
M  V30 9417 O 902.649 -1.04796 -1.47944 0
M  V30 9418 C 902.697 -3.43684 1.09149 0
M  V30 9419 O 901.801 -4.11874 0.208213 0
M  V30 9420 H 901.142 -0.605064 0.273484 0
M  V30 9421 H 903.672 -1.51846 1.37128 0
M  V30 9422 H 903.682 -3.94339 1.04695 0
M  V30 9423 H 902.357 -3.56826 2.13654 0
M  V30 9424 H 900.934 -3.716 0.311045 0
M  V30 9425 N 903.119 -0.802921 -1.35613 0
M  V30 9426 C 904.347 -0.39393 -2.03115 0
M  V30 9427 C 904.762 0.993961 -1.60517 0
M  V30 9428 O 904.119 1.63984 -0.800973 0
M  V30 9429 C 904.17 -0.463486 -3.58516 0
M  V30 9430 O 903.891 -1.79666 -3.99565 0
M  V30 9431 C 905.392 -0.0468377 -4.43275 0
M  V30 9432 H 902.612 -0.160519 -0.651517 0
M  V30 9433 H 905.156 -1.08552 -1.73311 0
M  V30 9434 H 903.311 0.179821 -3.86982 0
M  V30 9435 H 903.725 -1.75688 -4.942 0
M  V30 9436 H 905.199 -0.146626 -5.51805 0
M  V30 9437 H 905.676 1.00741 -4.2749 0
M  V30 9438 H 906.282 -0.663158 -4.20098 0
M  V30 9439 N 904.597 1.47463 -0.556102 0
M  V30 9440 C 905.53 2.26934 0.240027 0
M  V30 9441 C 906.508 1.33981 0.921297 0
M  V30 9442 O 907.692 1.63361 0.940506 0
M  V30 9443 C 904.819 3.10982 1.34194 0
M  V30 9444 C 903.865 4.19504 0.769342 0
M  V30 9445 S 904.698 5.34127 -0.383209 0
M  V30 9446 C 905.854 6.21739 0.720548 0
M  V30 9447 H 906.087 2.9411 -0.434348 0
M  V30 9448 H 903.62 1.50556 -0.342402 0
M  V30 9449 H 905.578 3.59976 1.973 0
M  V30 9450 H 904.239 2.4317 1.98814 0
M  V30 9451 H 903.432 4.78036 1.59679 0
M  V30 9452 H 903.034 3.73385 0.214475 0
M  V30 9453 H 905.326 6.58021 1.61292 0
M  V30 9454 H 906.269 7.0789 0.172602 0
M  V30 9455 H 906.677 5.55342 1.01272 0
M  V30 9456 N 906.075 0.2925 1.54862 0
M  V30 9457 C 907.491 -0.0611461 1.59483 0
M  V30 9458 C 907.691 -1.53141 1.30958 0
M  V30 9459 O 906.747 -2.28291 1.07887 0
M  V30 9460 C 908.06 0.329143 2.98893 0
M  V30 9461 C 909.608 0.2772 3.1177 0
M  V30 9462 C 910.083 0.642185 4.53475 0
M  V30 9463 N 911.574 0.594396 4.5937 0
M  V30 9464 C 912.309 0.849385 5.67074 0
M  V30 9465 N 911.805 1.1699 6.82851 0
M  V30 9466 N 913.598 0.777016 5.56704 0
M  V30 9467 H 905.749 1.25079 1.71665 0
M  V30 9468 H 908.012 0.506516 0.80134 0
M  V30 9469 H 907.718 1.35233 3.24661 0
M  V30 9470 H 907.592 -0.321442 3.75828 0
M  V30 9471 H 909.979 -0.736725 2.85756 0
M  V30 9472 H 910.06 0.962289 2.3701 0
M  V30 9473 H 909.704 1.65388 4.80218 0
M  V30 9474 H 909.634 -0.0648831 5.2656 0
M  V30 9475 H 912.125 0.357256 3.76208 0
M  V30 9476 H 912.438 1.35067 7.60905 0
M  V30 9477 H 910.783 1.20785 6.84424 0
M  V30 9478 H 913.974 0.526333 4.65132 0
M  V30 9479 H 914.147 0.979113 6.4056 0
M  V30 9480 N 907.553 -1.57587 0.0200696 0
M  V30 9481 C 908.964 -1.79312 -0.520019 0
M  V30 9482 C 909.315 -0.929475 -1.72787 0
M  V30 9483 O 908.44 -0.137389 -2.15963 0
M  V30 9484 C 909.035 -3.25203 -0.950172 0
M  V30 9485 C 907.594 -3.47954 -1.43543 0
M  V30 9486 C 906.741 -2.74459 -0.395917 0
M  V30 9487 H 909.692 -1.56779 0.246153 0
M  V30 9488 H 909.713 -3.34418 -1.81508 0
M  V30 9489 H 909.225 -3.88035 -0.070883 0
M  V30 9490 H 907.326 -2.90363 -2.33495 0
M  V30 9491 H 907.439 -4.56661 -1.44905 0
M  V30 9492 H 905.803 -2.39669 -0.862022 0
M  V30 9493 H 906.586 -3.40001 0.47475 0
M  V30 9494 N 909.032 0.252966 -1.55557 0
M  V30 9495 C 910.309 1.00432 -1.67847 0
M  V30 9496 C 910.689 2.03587 -0.55816 0
M  V30 9497 O 910.037 2.24239 0.439197 0
M  V30 9498 C 910.247 1.64313 -3.079 0
M  V30 9499 C 911.595 2.14726 -3.66303 0
M  V30 9500 O 912.619 1.74264 -3.10661 0
M  V30 9501 O 911.478 2.89 -4.63833 0
M  V30 9502 H 908.572 0.467102 -0.682455 0
M  V30 9503 H 911.118 0.247233 -1.67889 0
M  V30 9504 H 909.89 0.896681 -3.80888 0
M  V30 9505 H 909.513 2.46657 -3.11843 0
M  V30 9506 N 910.51 1.48831 0.518367 0
M  V30 9507 C 911.759 1.5669 1.27008 0
M  V30 9508 C 912.072 0.250934 1.93984 0
M  V30 9509 O 913.278 0.207884 2.70703 0
M  V30 9510 C 911.734 2.76387 2.30517 0
M  V30 9511 C 911.342 4.14673 1.69559 0
M  V30 9512 C 913.086 2.93566 3.06625 0
M  V30 9513 C 910.993 5.25616 2.71076 0
M  V30 9514 H 909.923 0.583362 0.477708 0
M  V30 9515 H 912.574 1.75187 0.546052 0
M  V30 9516 H 910.956 2.51348 3.06006 0
M  V30 9517 H 912.13 4.49779 1.00179 0
M  V30 9518 H 910.445 4.02708 1.05902 0
M  V30 9519 H 913.042 3.7362 3.82508 0
M  V30 9520 H 913.385 2.03462 3.63193 0
M  V30 9521 H 913.918 3.18562 2.38251 0
M  V30 9522 H 910.657 6.17723 2.19313 0
M  V30 9523 H 910.177 4.94985 3.38748 0
M  V30 9524 H 911.856 5.5422 3.3384 0
M  V30 9525 N 911.988 -0.768124 1.37614 0
M  V30 9526 C 913.265 -1.51637 1.23554 0
M  V30 9527 C 913.645 -2.1042 -0.169331 0
M  V30 9528 O 912.993 -1.95834 -1.17735 0
M  V30 9529 C 913.203 -2.59436 2.33439 0
M  V30 9530 C 914.551 -3.2674 2.71157 0
M  V30 9531 O 915.575 -2.69733 2.32642 0
M  V30 9532 O 914.434 -4.29814 3.37524 0
M  V30 9533 H 911.528 -0.671778 0.482332 0
M  V30 9534 H 914.074 -0.804779 1.49403 0
M  V30 9535 H 912.846 -2.14146 3.27502 0
M  V30 9536 H 912.469 -3.38192 2.09073 0
M  V30 9537 N 913.466 -1.22244 -0.994698 0
M  V30 9538 C 914.414 -0.988118 -2.10568 0
M  V30 9539 C 915.408 0.0681541 -1.69263 0
M  V30 9540 O 916.614 -0.0841311 -1.79803 0
M  V30 9541 H 912.989 -0.302343 -0.688544 0
M  V30 9542 H 914.96 -1.93091 -2.27505 0
M  V30 9543 C 913.709 -0.580557 -3.42819 0
M  V30 9544 H 913.032 -1.385 -3.75044 0
M  V30 9545 H 914.472 -0.456004 -4.21541 0
M  V30 9546 C 912.931 0.709692 -3.2934 0
M  V30 9547 O 913.461 1.76259 -3.60965 0
M  V30 9548 N 911.667 0.680155 -2.82528 0
M  V30 9549 H 911.214 -0.176977 -2.56991 0
M  V30 9550 H 911.172 1.54372 -2.73892 0
M  V30 9551 N 914.944 1.19125 -1.03184 0
M  V30 9552 C 915.877 2.21229 -0.559739 0
M  V30 9553 C 916.855 1.57578 0.400998 0
M  V30 9554 O 918.039 1.85809 0.317399 0
M  V30 9555 C 915.166 3.38203 0.183442 0
M  V30 9556 C 914.212 4.2022 -0.729182 0
M  V30 9557 S 915.045 4.87903 -2.20706 0
M  V30 9558 C 916.201 6.08284 -1.47448 0
M  V30 9559 H 916.434 2.60932 -1.42484 0
M  V30 9560 H 913.967 1.29419 -0.842028 0
M  V30 9561 H 915.925 4.06001 0.606084 0
M  V30 9562 H 914.586 2.96929 1.02432 0
M  V30 9563 H 913.779 5.03761 -0.155272 0
M  V30 9564 H 913.381 3.57755 -1.09028 0
M  V30 9565 H 915.673 6.73193 -0.762687 0
M  V30 9566 H 916.616 6.70165 -2.28659 0
M  V30 9567 H 917.024 5.56092 -0.97068 0
M  V30 9568 N 916.422 0.810101 1.35185 0
M  V30 9569 C 917.699 0.315235 1.93043 0
M  V30 9570 C 918.079 -1.19567 1.73974 0
M  V30 9571 O 917.427 -1.99682 1.11083 0
M  V30 9572 C 917.637 0.730492 3.41269 0
M  V30 9573 C 918.985 0.721985 4.18417 0
M  V30 9574 O 920.009 0.672258 3.49799 0
M  V30 9575 O 918.868 0.783535 5.40854 0
M  V30 9576 H 915.962 0.0832774 0.822796 0
M  V30 9577 H 918.508 0.894034 1.4424 0
M  V30 9578 H 917.28 1.77169 3.48894 0
M  V30 9579 H 916.903 0.12669 3.97398 0
M  V30 9580 N 917.9 -1.47166 0.563914 0
M  V30 9581 C 918.81 -2.33885 -0.182977 0
M  V30 9582 C 919.826 -1.48605 -0.905132 0
M  V30 9583 O 921.002 -1.81518 -0.872527 0
M  V30 9584 C 918.067 -3.25433 -1.19558 0
M  V30 9585 C 917.128 -4.26607 -0.480129 0
M  V30 9586 C 916.361 -5.1378 -1.44449 0
M  V30 9587 O 916.584 -5.03531 -2.67979 0
M  V30 9588 O 915.518 -5.94109 -0.965321 0
M  V30 9589 H 919.344 -2.99065 0.528544 0
M  V30 9590 H 916.929 -1.45834 0.324468 0
M  V30 9591 H 918.811 -3.81964 -1.77993 0
M  V30 9592 H 917.486 -2.62873 -1.8889 0
M  V30 9593 H 916.393 -3.73817 0.145583 0
M  V30 9594 H 917.726 -4.919 0.171868 0
M  V30 9595 N 919.378 -0.300708 -1.54705 0
M  V30 9596 C 920.608 0.310819 -2.04249 0
M  V30 9597 C 921.016 1.4809 -1.17754 0
M  V30 9598 O 920.359 1.82654 -0.195779 0
M  V30 9599 C 920.421 0.83014 -3.49784 0
M  V30 9600 C 920.085 -0.214628 -4.56496 0
M  V30 9601 C 921.082 -1.04298 -5.09331 0
M  V30 9602 C 918.767 -0.356242 -5.01035 0
M  V30 9603 C 920.761 -1.99889 -6.05246 0
M  V30 9604 C 918.448 -1.3156 -5.96771 0
M  V30 9605 C 919.446 -2.1354 -6.4876 0
M  V30 9606 O 919.134 -3.07849 -7.4262 0
M  V30 9607 H 918.866 0.0715341 -0.672204 0
M  V30 9608 H 921.42 -0.438179 -2.00672 0
M  V30 9609 H 919.65 1.62966 -3.50684 0
M  V30 9610 H 921.339 1.35752 -3.82526 0
M  V30 9611 H 922.105 -0.944439 -4.75716 0
M  V30 9612 H 917.984 0.271916 -4.60197 0
M  V30 9613 H 921.528 -2.63917 -6.45751 0
M  V30 9614 H 917.425 -1.41486 -6.29803 0
M  V30 9615 H 918.193 -3.02824 -7.60421 0
M  V30 9616 N 920.856 1.57574 -0.0284266 0
M  V30 9617 C 922.102 1.92056 0.651327 0
M  V30 9618 C 922.435 0.905092 1.71819 0
M  V30 9619 O 921.71 -0.0722703 1.94366 0
M  V30 9620 C 921.993 3.37021 1.26841 0
M  V30 9621 C 921.846 4.49304 0.211157 0
M  V30 9622 C 923.165 3.81936 2.18662 0
M  V30 9623 H 920.284 0.698428 0.235304 0
M  V30 9624 H 922.926 1.89807 -0.0855435 0
M  V30 9625 H 921.076 3.39068 1.89644 0
M  V30 9626 H 922.748 4.5939 -0.419379 0
M  V30 9627 H 920.991 4.31317 -0.463445 0
M  V30 9628 H 921.662 5.47764 0.682518 0
M  V30 9629 H 924.138 3.8162 1.65847 0
M  V30 9630 H 923.014 4.84064 2.58792 0
M  V30 9631 H 923.275 3.174 3.07749 0
M  V30 9632 N 922.334 -0.244713 1.55689 0
M  V30 9633 C 923.75 -0.593331 1.48161 0
M  V30 9634 C 923.95 -1.88234 0.719047 0
M  V30 9635 O 923.006 -2.51266 0.249292 0
M  V30 9636 C 924.319 -0.694032 2.92581 0
M  V30 9637 C 925.867 -0.786213 3.02965 0
M  V30 9638 C 926.342 -0.918457 4.48696 0
M  V30 9639 N 927.833 -0.983272 4.52643 0
M  V30 9640 C 928.568 -1.1049 5.62654 0
M  V30 9641 N 928.064 -1.19193 6.8247 0
M  V30 9642 N 929.857 -1.13823 5.50455 0
M  V30 9643 H 922.008 0.601446 2.03707 0
M  V30 9644 H 924.271 0.207894 0.924924 0
M  V30 9645 H 923.977 0.183133 3.51223 0
M  V30 9646 H 923.851 -1.56525 3.4319 0
M  V30 9647 H 926.238 -1.65383 2.44402 0
M  V30 9648 H 926.319 0.110202 2.55563 0
M  V30 9649 H 925.963 -0.0553881 5.0787 0
M  V30 9650 H 925.893 -1.82994 4.93782 0
M  V30 9651 H 928.384 -0.927269 3.66347 0
M  V30 9652 H 928.697 -1.28387 7.62061 0
M  V30 9653 H 927.042 -1.16147 6.85226 0
M  V30 9654 H 930.233 -1.06673 4.55783 0
M  V30 9655 H 930.406 -1.22957 6.36228 0
M  V30 9656 N 923.813 -1.49104 -0.510467 0
M  V30 9657 C 924.761 -1.65547 -1.63392 0
M  V30 9658 C 925.755 -0.521522 -1.61172 0
M  V30 9659 O 926.961 -0.700865 -1.65795 0
M  V30 9660 H 923.336 -0.521843 -0.541464 0
M  V30 9661 H 925.307 -2.59864 -1.46673 0
M  V30 9662 C 924.056 -1.73051 -3.01577 0
M  V30 9663 H 923.379 -2.59676 -3.03987 0
M  V30 9664 H 924.819 -1.88594 -3.79748 0
M  V30 9665 C 923.278 -0.47328 -3.33559 0
M  V30 9666 O 923.808 0.405239 -3.99651 0
M  V30 9667 N 922.014 -0.339074 -2.88615 0
M  V30 9668 H 921.561 -1.05497 -2.35007 0
M  V30 9669 H 921.519 0.501061 -3.10382 0
M  V30 9670 N 925.291 0.760815 -1.38019 0
M  V30 9671 C 926.519 1.55001 -1.37048 0
M  V30 9672 C 926.934 1.88754 0.0415261 0
M  V30 9673 O 926.291 1.52254 1.00624 0
M  V30 9674 C 926.342 2.8536 -2.21928 0
M  V30 9675 O 926.063 2.53049 -3.57628 0
M  V30 9676 C 927.564 3.79536 -2.29057 0
M  V30 9677 H 924.784 0.479844 -0.469032 0
M  V30 9678 H 927.328 0.942148 -1.81504 0
M  V30 9679 H 925.483 3.42542 -1.80953 0
M  V30 9680 H 925.897 3.36604 -4.02241 0
M  V30 9681 H 927.371 4.67977 -2.92749 0
M  V30 9682 H 927.848 4.19453 -1.30213 0
M  V30 9683 H 928.454 3.28281 -2.70392 0
M  V30 9684 N 926.769 1.22769 0.988202 0
M  V30 9685 C 927.997 1.08155 1.76381 0
M  V30 9686 C 928.412 -0.367573 1.85187 0
M  V30 9687 O 927.769 -1.25455 1.32541 0
M  V30 9688 C 927.82 1.69193 3.19462 0
M  V30 9689 O 927.541 3.08437 3.11125 0
M  V30 9690 C 929.042 1.59915 4.13451 0
M  V30 9691 H 926.262 0.378908 0.553778 0
M  V30 9692 H 928.806 1.6246 1.24206 0
M  V30 9693 H 926.961 1.18939 3.6869 0
M  V30 9694 H 927.375 3.37916 4.0114 0
M  V30 9695 H 928.849 2.07339 5.1158 0
M  V30 9696 H 929.326 0.556546 4.3566 0
M  V30 9697 H 929.932 2.09497 3.70123 0
M  V30 9698 N 928.247 -1.18576 1.03814 0
M  V30 9699 C 929.21 -2.2033 0.63146 0
M  V30 9700 C 930.21 -1.57787 -0.309816 0
M  V30 9701 O 931.4 -1.73938 -0.0955598 0
M  V30 9702 C 928.532 -3.40818 -0.0745963 0
M  V30 9703 H 929.725 -2.57824 1.53189 0
M  V30 9704 H 927.278 -1.32416 0.830398 0
M  V30 9705 H 928.013 -3.08853 -0.988947 0
M  V30 9706 H 927.798 -3.87453 0.6019 0
M  V30 9707 H 929.288 -4.16166 -0.345727 0
M  V30 9708 N 929.725 -0.817259 -1.34754 0
M  V30 9709 C 931.141 -0.502309 -1.51489 0
M  V30 9710 C 931.341 0.974568 -1.76364 0
M  V30 9711 O 930.397 1.75924 -1.81127 0
M  V30 9712 C 931.71 -1.35693 -2.68343 0
M  V30 9713 C 933.258 -1.35347 -2.82224 0
M  V30 9714 C 933.733 -2.19244 -4.02114 0
M  V30 9715 N 935.224 -2.16837 -4.09311 0
M  V30 9716 C 935.959 -2.78505 -5.01221 0
M  V30 9717 N 935.455 -3.4914 -5.98392 0
M  V30 9718 N 937.248 -2.68089 -4.94049 0
M  V30 9719 H 929.399 -1.77359 -1.16866 0
M  V30 9720 H 931.662 -0.755476 -0.572678 0
M  V30 9721 H 931.368 -2.40548 -2.56573 0
M  V30 9722 H 931.242 -1.01764 -3.63213 0
M  V30 9723 H 933.629 -0.312727 -2.93438 0
M  V30 9724 H 933.71 -1.7327 -1.88179 0
M  V30 9725 H 933.354 -3.23365 -3.9166 0
M  V30 9726 H 933.284 -1.78675 -4.95361 0
M  V30 9727 H 935.775 -1.65452 -3.39756 0
M  V30 9728 H 936.088 -3.93455 -6.65141 0
M  V30 9729 H 934.433 -3.53246 -5.98533 0
M  V30 9730 H 937.624 -2.12485 -4.17094 0
M  V30 9731 H 937.797 -3.16436 -5.65484 0
M  V30 9732 N 931.203 1.46865 -0.571711 0
M  V30 9733 C 932.166 2.28658 0.157499 0
M  V30 9734 C 933.166 1.37773 0.829172 0
M  V30 9735 O 934.356 1.6026 0.682811 0
M  V30 9736 C 931.488 3.17859 1.23202 0
M  V30 9737 H 932.681 2.94603 -0.561171 0
M  V30 9738 H 930.234 1.52793 -0.329229 0
M  V30 9739 H 930.969 2.56637 1.98262 0
M  V30 9740 H 930.754 3.84762 0.755031 0
M  V30 9741 H 932.244 3.7945 1.74378 0
M  V30 9742 N 932.681 0.308908 1.54543 0
M  V30 9743 C 933.928 -0.298036 2.00295 0
M  V30 9744 C 934.256 -1.53285 1.19724 0
M  V30 9745 O 933.511 -1.93917 0.263551 0
M  V30 9746 C 933.81 -0.691522 3.50646 0
M  V30 9747 C 933.476 0.442454 4.48724 0
M  V30 9748 C 932.138 0.753739 4.7526 0
M  V30 9749 C 934.49 1.20488 5.07082 0
M  V30 9750 C 931.818 1.83044 5.57415 0
M  V30 9751 C 934.17 2.27156 5.90409 0
M  V30 9752 C 932.834 2.58882 6.15253 0
M  V30 9753 H 932.104 -0.109059 0.73293 0
M  V30 9754 H 934.751 0.429647 1.86618 0
M  V30 9755 H 933.056 -1.49941 3.61974 0
M  V30 9756 H 934.753 -1.17244 3.83477 0
M  V30 9757 H 931.343 0.189744 4.2818 0
M  V30 9758 H 935.527 0.977653 4.86575 0
M  V30 9759 H 930.783 2.08088 5.749 0
M  V30 9760 H 934.957 2.86687 6.34652 0
M  V30 9761 H 932.584 3.42443 6.78702 0
M  V30 9762 N 934.159 -1.57557 0.0367827 0
M  V30 9763 C 935.122 -2.09591 -0.927589 0
M  V30 9764 C 936.122 -1.01252 -1.24919 0
M  V30 9765 O 937.312 -1.27382 -1.18825 0
M  V30 9766 C 934.444 -2.56816 -2.24184 0
M  V30 9767 H 935.637 -2.96086 -0.476784 0
M  V30 9768 H 933.19 -1.54864 -0.211385 0
M  V30 9769 H 933.925 -1.73673 -2.73876 0
M  V30 9770 H 933.71 -3.35973 -2.0215 0
M  V30 9771 H 935.2 -2.97271 -2.93291 0
M  V30 9772 N 935.637 0.236453 -1.55816 0
M  V30 9773 C 936.883 0.964439 -1.784 0
M  V30 9774 C 937.216 1.84573 -0.603868 0
M  V30 9775 O 936.491 1.90395 0.397473 0
M  V30 9776 C 936.774 1.81608 -3.10951 0
M  V30 9777 C 936.627 0.962283 -4.39386 0
M  V30 9778 C 937.946 2.79665 -3.39817 0
M  V30 9779 H 935.065 0.349192 -0.649026 0
M  V30 9780 H 937.707 0.234247 -1.8855 0
M  V30 9781 H 935.857 2.43864 -3.02428 0
M  V30 9782 H 937.529 0.35762 -4.59912 0
M  V30 9783 H 935.772 0.267062 -4.32977 0
M  V30 9784 H 936.443 1.59222 -5.28538 0
M  V30 9785 H 938.919 2.27546 -3.4837 0
M  V30 9786 H 937.795 3.36367 -4.33761 0
M  V30 9787 H 938.056 3.56657 -2.61244 0
M  V30 9788 N 937.115 1.49373 0.502552 0
M  V30 9789 C 938.361 1.59016 1.25864 0
M  V30 9790 C 938.694 0.27532 1.92238 0
M  V30 9791 O 937.969 -0.720988 1.80643 0
M  V30 9792 C 938.252 2.74828 2.32683 0
M  V30 9793 C 938.105 4.16102 1.7082 0
M  V30 9794 C 939.424 2.86288 3.34256 0
M  V30 9795 H 936.543 0.578798 0.456248 0
M  V30 9796 H 939.185 1.81651 0.557032 0
M  V30 9797 H 937.335 2.5566 2.92524 0
M  V30 9798 H 939.007 4.46782 1.14818 0
M  V30 9799 H 937.25 4.21822 1.01238 0
M  V30 9800 H 937.921 4.93006 2.48292 0
M  V30 9801 H 940.397 3.03733 2.84404 0
M  V30 9802 H 939.273 3.69001 4.06362 0
M  V30 9803 H 939.534 1.95576 3.96488 0
M  V30 9804 N 938.594 -0.753485 1.38421 0
M  V30 9805 C 939.557 -1.84888 1.35459 0
M  V30 9806 C 940.557 -1.58764 0.255083 0
M  V30 9807 O 941.747 -1.66507 0.511978 0
M  V30 9808 C 938.879 -3.22361 1.10888 0
M  V30 9809 H 940.072 -1.88922 2.32913 0
M  V30 9810 H 937.625 -0.955199 1.23716 0
M  V30 9811 H 938.36 -3.23996 0.1404 0
M  V30 9812 H 938.145 -3.42717 1.90492 0
M  V30 9813 H 939.635 -4.02437 1.1151 0
M  V30 9814 N 940.072 -1.23292 -0.981677 0
M  V30 9815 C 941.297 -1.09176 -1.76339 0
M  V30 9816 C 941.722 0.352726 -1.84763 0
M  V30 9817 O 941.08 1.25509 -1.30832 0
M  V30 9818 C 941.128 -1.72046 -3.16911 0
M  V30 9819 O 940.232 -0.98174 -4.00544 0
M  V30 9820 H 939.573 -0.382755 -0.542581 0
M  V30 9821 H 942.103 -1.63319 -1.23239 0
M  V30 9822 H 942.113 -1.77232 -3.67495 0
M  V30 9823 H 940.788 -2.77154 -3.10095 0
M  V30 9824 H 939.365 -1.00672 -3.59054 0
M  V30 9825 N 941.55 1.18024 -1.04442 0
M  V30 9826 C 942.513 2.19992 -0.643136 0
M  V30 9827 C 943.513 1.57949 0.301444 0
M  V30 9828 O 944.703 1.73986 0.0863341 0
M  V30 9829 C 941.835 3.40853 0.0565208 0
M  V30 9830 H 943.028 2.57008 -1.54554 0
M  V30 9831 H 940.581 1.31974 -0.837408 0
M  V30 9832 H 941.316 3.09373 0.972553 0
M  V30 9833 H 941.101 3.87128 -0.622439 0
M  V30 9834 H 942.591 4.16344 0.323652 0
M  V30 9835 N 943.028 0.824394 1.34319 0
M  V30 9836 C 943.958 0.262077 2.32025 0
M  V30 9837 C 944.939 -0.622277 1.58309 0
M  V30 9838 O 946.124 -0.548848 1.86283 0
M  V30 9839 C 943.254 -0.57567 3.42496 0
M  V30 9840 C 942.208 0.21167 4.27476 0
M  V30 9841 C 941.534 -0.748913 5.29429 0
M  V30 9842 C 942.834 1.42068 5.02607 0
M  V30 9843 H 944.528 1.07842 2.79304 0
M  V30 9844 H 942.074 0.520022 1.34282 0
M  V30 9845 H 944.027 -0.979251 4.09864 0
M  V30 9846 H 942.751 -1.42508 2.93869 0
M  V30 9847 H 941.41 0.596636 3.61712 0
M  V30 9848 H 941.058 -1.59432 4.77064 0
M  V30 9849 H 940.758 -0.226313 5.87164 0
M  V30 9850 H 942.282 -1.15032 5.99667 0
M  V30 9851 H 943.696 1.09103 5.62823 0
M  V30 9852 H 942.093 1.87903 5.69923 0
M  V30 9853 H 943.163 2.1981 4.32217 0
M  V30 9854 N 944.506 -1.46559 0.579492 0
M  V30 9855 C 945.754 -2.02 0.0637157 0
M  V30 9856 C 946.075 -1.45378 -1.29962 0
M  V30 9857 O 945.345 -0.637262 -1.85245 0
M  V30 9858 H 943.925 -0.746717 0.0205638 0
M  V30 9859 H 946.587 -1.79702 0.754544 0
M  V30 9860 H 945.683 -3.12099 -0.00770254 0
M  V30 9861 N 945.984 -0.3171 -1.54377 0
M  V30 9862 C 947.233 0.288271 -1.99629 0
M  V30 9863 C 947.546 1.53754 -1.2091 0
M  V30 9864 O 948.752 2.2185 -1.56508 0
M  V30 9865 C 947.208 0.564188 -3.5545 0
M  V30 9866 C 946.816 -0.667659 -4.42997 0
M  V30 9867 C 948.56 1.12987 -4.09187 0
M  V30 9868 C 946.467 -0.364003 -5.90279 0
M  V30 9869 H 945.397 0.111492 -0.745711 0
M  V30 9870 H 948.048 -0.428317 -1.78431 0
M  V30 9871 H 946.43 1.34079 -3.72611 0
M  V30 9872 H 947.604 -1.44335 -4.37612 0
M  V30 9873 H 945.919 -1.1531 -4.00116 0
M  V30 9874 H 948.516 1.37157 -5.1681 0
M  V30 9875 H 948.859 2.07722 -3.60773 0
M  V30 9876 H 949.392 0.414595 -3.95634 0
M  V30 9877 H 946.131 -1.28035 -6.42874 0
M  V30 9878 H 945.651 0.374102 -5.98632 0
M  V30 9879 H 947.33 0.0285433 -6.46994 0
M  V30 9880 N 947.462 1.57535 -0.0451378 0
M  V30 9881 C 948.873 1.80116 0.491426 0
M  V30 9882 C 949.224 0.956846 1.71286 0
M  V30 9883 O 948.349 0.17173 2.15718 0
M  V30 9884 C 948.944 3.26674 0.898315 0
M  V30 9885 C 947.503 3.50194 1.37989 0
M  V30 9886 C 946.65 2.75054 0.352202 0
M  V30 9887 H 949.601 1.56368 -0.271065 0
M  V30 9888 H 949.622 3.37263 1.76164 0
M  V30 9889 H 949.134 3.88099 0.009141 0
M  V30 9890 H 947.235 2.94041 2.28846 0
M  V30 9891 H 947.348 4.58909 1.37622 0
M  V30 9892 H 945.712 2.4101 0.823784 0
M  V30 9893 H 946.495 3.39203 -0.528782 0
M  V30 9894 N 948.94 -0.228186 1.55939 0
M  V30 9895 C 950.165 -0.974795 1.83064 0
M  V30 9896 C 950.59 -1.77426 0.624624 0
M  V30 9897 O 949.948 -1.76211 -0.426556 0
M  V30 9898 C 949.996 -1.87342 3.08116 0
M  V30 9899 O 949.1 -2.96784 2.86344 0
M  V30 9900 H 948.441 -0.276379 0.603747 0
M  V30 9901 H 950.971 -0.243507 2.03146 0
M  V30 9902 H 950.981 -2.28451 3.38045 0
M  V30 9903 H 949.656 -1.28575 3.95526 0
M  V30 9904 H 948.233 -2.59669 2.67631 0
M  V30 9905 N 950.418 -1.49637 -0.494624 0
M  V30 9906 C 951.348 -1.69692 -1.60396 0
M  V30 9907 C 952.329 -0.545648 -1.61111 0
M  V30 9908 O 953.514 -0.782202 -1.77751 0
M  V30 9909 C 950.644 -1.76934 -2.9885 0
M  V30 9910 C 949.598 -2.91915 -3.13001 0
M  V30 9911 C 948.924 -2.84276 -4.5287 0
M  V30 9912 C 950.224 -4.32764 -2.92426 0
M  V30 9913 H 951.918 -2.6257 -1.43866 0
M  V30 9914 H 949.464 -1.26355 -0.690679 0
M  V30 9915 H 951.417 -1.8955 -3.76362 0
M  V30 9916 H 950.141 -0.806609 -3.16483 0
M  V30 9917 H 948.8 -2.78911 -2.37916 0
M  V30 9918 H 948.448 -1.85897 -4.67388 0
M  V30 9919 H 948.148 -3.61452 -4.63278 0
M  V30 9920 H 949.672 -2.98909 -5.32434 0
M  V30 9921 H 951.086 -4.46415 -3.59703 0
M  V30 9922 H 949.483 -5.1121 -3.143 0
M  V30 9923 H 950.553 -4.46765 -1.88491 0
M  V30 9924 N 951.896 0.746133 -1.38819 0
M  V30 9925 C 952.826 1.87344 -1.39372 0
M  V30 9926 C 953.807 1.68123 -0.258583 0
M  V30 9927 O 954.992 1.88606 -0.462769 0
M  V30 9928 C 952.122 3.24962 -1.22543 0
M  V30 9929 C 951.076 3.58799 -2.33339 0
M  V30 9930 C 950.402 4.95235 -2.01609 0
M  V30 9931 C 951.702 3.62911 -3.75624 0
M  V30 9932 H 953.396 1.87138 -2.33709 0
M  V30 9933 H 950.942 0.898937 -1.12495 0
M  V30 9934 H 952.895 4.03488 -1.21554 0
M  V30 9935 H 951.619 3.25667 -0.246707 0
M  V30 9936 H 950.278 2.82596 -2.33527 0
M  V30 9937 H 949.926 4.92508 -1.02202 0
M  V30 9938 H 949.626 5.18843 -2.75819 0
M  V30 9939 H 951.15 5.76131 -2.02251 0
M  V30 9940 H 952.564 4.31535 -3.77426 0
M  V30 9941 H 950.961 3.98031 -4.491 0
M  V30 9942 H 952.031 2.62967 -4.07402 0
M  V30 9943 N 953.375 1.23811 0.975125 0
M  V30 9944 C 954.786 1.0675 1.53171 0
M  V30 9945 C 955.137 -0.363475 1.92804 0
M  V30 9946 O 954.262 -1.25089 1.76583 0
M  V30 9947 C 954.857 1.93161 2.78342 0
M  V30 9948 C 953.416 1.80346 3.30382 0
M  V30 9949 C 952.563 1.88544 2.03338 0
M  V30 9950 H 955.514 1.37396 0.79423 0
M  V30 9951 H 955.535 1.45951 3.51395 0
M  V30 9952 H 955.047 2.97302 2.49465 0
M  V30 9953 H 953.148 0.790077 3.64127 0
M  V30 9954 H 953.261 2.64026 3.99784 0
M  V30 9955 H 951.625 1.32186 2.17713 0
M  V30 9956 H 952.408 2.94252 1.76836 0
M  V30 9957 N 954.853 -1.17469 1.05066 0
M  V30 9958 C 956.1 -1.87698 0.759987 0
M  V30 9959 C 956.428 -1.80964 -0.712902 0
M  V30 9960 O 955.683 -1.21146 -1.53695 0
M  V30 9961 C 955.982 -3.37211 1.18421 0
M  V30 9962 C 955.648 -3.64148 2.65909 0
M  V30 9963 C 954.31 -3.71209 3.06199 0
M  V30 9964 C 956.662 -3.75724 3.61222 0
M  V30 9965 C 953.99 -3.87334 4.40669 0
M  V30 9966 C 956.342 -3.93368 4.95424 0
M  V30 9967 C 955.006 -3.98667 5.3537 0
M  V30 9968 H 954.276 -0.686835 0.278099 0
M  V30 9969 H 956.923 -1.38975 1.31751 0
M  V30 9970 H 955.228 -3.87982 0.545654 0
M  V30 9971 H 956.925 -3.89911 0.936518 0
M  V30 9972 H 953.515 -3.59276 2.33707 0
M  V30 9973 H 957.699 -3.69591 3.31235 0
M  V30 9974 H 952.955 -3.89685 4.71122 0
M  V30 9975 H 957.129 -4.01267 5.69173 0
M  V30 9976 H 954.756 -4.10915 6.39572 0
M  V30 9977 N 956.331 -0.831506 -1.3388 0
M  V30 9978 C 957.261 -0.274378 -2.31882 0
M  V30 9979 C 958.242 0.613872 -1.58637 0
M  V30 9980 O 959.427 0.538961 -1.86571 0
M  V30 9981 C 956.557 0.557498 -3.42796 0
M  V30 9982 C 955.511 -0.234337 -4.27358 0
M  V30 9983 C 954.837 0.720825 -5.29819 0
M  V30 9984 C 956.137 -1.44732 -5.01847 0
M  V30 9985 H 957.831 -1.09322 -2.78728 0
M  V30 9986 H 955.377 -0.527136 -1.34005 0
M  V30 9987 H 957.33 0.957501 -4.10378 0
M  V30 9988 H 956.054 1.40947 -2.94621 0
M  V30 9989 H 954.713 -0.61581 -3.61391 0
M  V30 9990 H 954.361 1.569 -4.77903 0
M  V30 9991 H 954.061 0.195171 -5.87276 0
M  V30 9992 H 955.585 1.1185 -6.00268 0
M  V30 9993 H 956.999 -1.12087 -5.62236 0
M  V30 9994 H 955.396 -1.90923 -5.68919 0
M  V30 9995 H 956.466 -2.22099 -4.31045 0
M  V30 9996 N 957.809 1.4625 -0.587256 0
M  V30 9997 C 958.756 2.30354 0.143384 0
M  V30 9998 C 959.726 1.40891 0.879716 0
M  V30 9999 O 960.911 1.69837 0.869486 0
M  V30 10000 C 958.051 3.25441 1.14815 0
M  V30 10001 C 957.164 4.30004 0.414792 0
M  V30 10002 C 956.299 5.12214 1.40748 0
M  V30 10003 C 955.338 6.08523 0.660786 0
M  V30 10004 N 954.475 6.83585 1.60176 0
M  V30 10005 H 959.315 2.92304 -0.579866 0
M  V30 10006 H 956.852 1.44055 -0.29777 0
M  V30 10007 H 958.81 3.79018 1.7436 0
M  V30 10008 H 957.44 2.6529 1.83906 0
M  V30 10009 H 956.492 3.79248 -0.295787 0
M  V30 10010 H 957.804 4.98515 -0.168738 0
M  V30 10011 H 956.958 5.70091 2.0756 0
M  V30 10012 H 955.697 4.43675 2.02494 0
M  V30 10013 H 954.702 5.49796 -0.0210864 0
M  V30 10014 H 955.927 6.79083 0.0486551 0
M  V30 10015 H 953.873 6.17752 2.20724 0
M  V30 10016 H 953.79 7.48373 1.07115 0
M  V30 10017 H 955.058 7.46016 2.26009 0
M  V30 10018 N 959.287 0.325282 1.54207 0
M  V30 10019 C 960.25 -0.527228 2.23054 0
M  V30 10020 C 961.25 -1.04217 1.22456 0
M  V30 10021 O 962.44 -0.934325 1.47024 0
M  V30 10022 C 959.572 -1.7325 2.93594 0
M  V30 10023 H 960.765 0.0746423 2.99807 0
M  V30 10024 H 958.318 0.0763872 1.56113 0
M  V30 10025 H 959.053 -2.37356 2.20981 0
M  V30 10026 H 958.838 -1.37065 3.67363 0
M  V30 10027 H 960.328 -2.3376 3.46043 0
M  V30 10028 N 960.765 -1.57509 0.0534917 0
M  V30 10029 C 962.011 -1.93068 -0.62069 0
M  V30 10030 C 962.344 -0.932313 -1.70357 0
M  V30 10031 O 961.619 0.0413393 -1.94456 0
M  V30 10032 C 961.902 -3.38997 -1.21463 0
M  V30 10033 C 961.755 -4.49583 -0.13965 0
M  V30 10034 C 963.074 -3.85366 -2.12558 0
M  V30 10035 H 960.193 -0.702083 -0.224163 0
M  V30 10036 H 962.835 -1.89647 0.115729 0
M  V30 10037 H 960.985 -3.42043 -1.84226 0
M  V30 10038 H 962.657 -4.58664 0.492411 0
M  V30 10039 H 960.9 -4.30525 0.532006 0
M  V30 10040 H 961.571 -5.48781 -0.595287 0
M  V30 10041 H 964.047 -3.8421 -1.59755 0
M  V30 10042 H 962.923 -4.8812 -2.51058 0
M  V30 10043 H 963.184 -3.22256 -3.02661 0
M  V30 10044 N 962.243 0.219913 -1.56058 0
M  V30 10045 C 963.483 0.951113 -1.80923 0
M  V30 10046 C 963.847 1.81465 -0.627247 0
M  V30 10047 O 965.048 2.57972 -0.755237 0
M  V30 10048 C 963.319 1.76652 -3.10691 0
M  V30 10049 S 964.878 2.55314 -3.56876 0
M  V30 10050 H 961.696 0.319461 -0.635189 0
M  V30 10051 H 964.298 0.216551 -1.94297 0
M  V30 10052 H 963.002 1.12231 -3.94756 0
M  V30 10053 H 962.533 2.54335 -3.00128 0
M  V30 10054 H 964.548 3.78938 -3.20344 0
M  V30 10055 N 963.721 1.49897 0.486681 0
M  V30 10056 C 964.668 1.67619 1.58658 0
M  V30 10057 C 965.638 0.517537 1.57831 0
M  V30 10058 O 966.823 0.746272 1.756 0
M  V30 10059 C 963.963 1.762 2.96728 0
M  V30 10060 C 963.076 3.03465 3.07462 0
M  V30 10061 C 962.211 3.02937 4.36351 0
M  V30 10062 C 961.25 4.24721 4.4077 0
M  V30 10063 N 960.387 4.22021 5.61108 0
M  V30 10064 H 965.227 2.61528 1.42853 0
M  V30 10065 H 962.764 1.29657 0.694807 0
M  V30 10066 H 964.722 1.79156 3.76774 0
M  V30 10067 H 963.352 0.857452 3.11203 0
M  V30 10068 H 962.404 3.10054 2.20387 0
M  V30 10069 H 963.716 3.93454 3.06586 0
M  V30 10070 H 962.87 3.04536 5.24731 0
M  V30 10071 H 961.609 2.10751 4.39813 0
M  V30 10072 H 960.614 4.23352 3.5079 0
M  V30 10073 H 961.839 5.18116 4.39013 0
M  V30 10074 H 959.785 3.3268 5.65385 0
M  V30 10075 H 959.702 5.05761 5.61909 0
M  V30 10076 H 960.97 4.27743 6.51656 0
M  V30 10077 N 965.199 -0.738761 1.39212 0
M  V30 10078 C 966.424 -1.5331 1.39681 0
M  V30 10079 C 966.849 -1.88098 -0.00768715 0
M  V30 10080 O 966.207 -1.51642 -0.993699 0
M  V30 10081 C 966.255 -2.79958 2.27279 0
M  V30 10082 O 965.359 -3.75727 1.70008 0
M  V30 10083 H 964.7 -0.463131 0.475821 0
M  V30 10084 H 967.23 -0.911768 1.83161 0
M  V30 10085 H 967.24 -3.28732 2.41659 0
M  V30 10086 H 965.915 -2.5397 3.29351 0
M  V30 10087 H 964.492 -3.34483 1.64851 0
M  V30 10088 N 966.677 -1.24326 -0.968545 0
M  V30 10089 C 967.624 -1.0349 -2.06297 0
M  V30 10090 C 968.594 0.0515333 -1.6602 0
M  V30 10091 O 969.779 -0.102924 -1.90522 0
M  V30 10092 C 966.919 -0.64487 -3.39021 0
M  V30 10093 C 966.032 -1.80469 -3.92498 0
M  V30 10094 C 965.167 -1.36032 -5.13487 0
M  V30 10095 C 964.206 -2.49014 -5.59159 0
M  V30 10096 N 963.343 -2.05451 -6.71367 0
M  V30 10097 H 968.183 -1.97161 -2.23454 0
M  V30 10098 H 965.72 -0.982028 -1.0952 0
M  V30 10099 H 967.678 -0.399771 -4.1528 0
M  V30 10100 H 966.308 0.254845 -3.21792 0
M  V30 10101 H 965.36 -2.16348 -3.12886 0
M  V30 10102 H 966.672 -2.65365 -4.22354 0
M  V30 10103 H 965.826 -1.07405 -5.97117 0
M  V30 10104 H 964.565 -0.481887 -4.85313 0
M  V30 10105 H 963.57 -2.78402 -4.74102 0
M  V30 10106 H 964.795 -3.37413 -5.89346 0
M  V30 10107 H 962.741 -1.20004 -6.4493 0
M  V30 10108 H 962.658 -2.83901 -7.00668 0
M  V30 10109 H 963.926 -1.79962 -7.58442 0
M  V30 10110 N 968.156 1.1691 -1.05688 0
M  V30 10111 C 969.103 2.21095 -0.662246 0
M  V30 10112 C 970.073 1.62623 0.338083 0
M  V30 10113 O 971.258 1.89428 0.228362 0
M  V30 10114 C 968.398 3.45066 -0.0484018 0
M  V30 10115 C 967.511 4.17809 -1.09817 0
M  V30 10116 C 966.646 5.29281 -0.451114 0
M  V30 10117 C 965.685 5.93817 -1.48484 0
M  V30 10118 N 964.822 6.96793 -0.861588 0
M  V30 10119 H 969.662 2.54204 -1.55513 0
M  V30 10120 H 967.199 1.24863 -0.777665 0
M  V30 10121 H 969.157 4.15932 0.324978 0
M  V30 10122 H 967.787 3.12526 0.807918 0
M  V30 10123 H 966.839 3.45608 -1.58932 0
M  V30 10124 H 968.151 4.61907 -1.88265 0
M  V30 10125 H 967.305 6.06695 -0.0244251 0
M  V30 10126 H 966.044 4.8633 0.365306 0
M  V30 10127 H 965.049 5.1513 -1.92149 0
M  V30 10128 H 966.274 6.38848 -2.30325 0
M  V30 10129 H 964.22 6.55967 -0.0657688 0
M  V30 10130 H 964.137 7.39229 -1.58354 0
M  V30 10131 H 965.405 7.78142 -0.45984 0
M  V30 10132 N 969.634 0.838594 1.33437 0
M  V30 10133 C 970.859 0.446701 2.02532 0
M  V30 10134 C 971.284 -0.944275 1.62681 0
M  V30 10135 O 970.642 -1.61733 0.81927 0
M  V30 10136 C 970.69 0.574794 3.55989 0
M  V30 10137 O 969.794 -0.399063 4.10465 0
M  V30 10138 H 969.135 0.181637 0.638674 0
M  V30 10139 H 971.665 1.13335 1.70342 0
M  V30 10140 H 971.675 0.456339 4.0544 0
M  V30 10141 H 970.35 1.58921 3.8434 0
M  V30 10142 H 968.927 -0.238187 3.72139 0
M  V30 10143 N 971.112 -1.45937 0.595003 0
M  V30 10144 C 972.358 -2.03184 0.0938125 0
M  V30 10145 C 972.713 -1.45675 -1.25684 0
M  V30 10146 O 972.006 -0.617122 -1.8139 0
M  V30 10147 C 972.2 -3.57396 -0.0173747 0
M  V30 10148 C 972.029 -4.29861 1.32096 0
M  V30 10149 C 970.799 -4.68285 1.89835 0
M  V30 10150 C 972.997 -4.6262 2.24693 0
M  V30 10151 N 970.979 -5.25554 3.17279 0
M  V30 10152 C 972.35 -5.20589 3.36729 0
M  V30 10153 C 974.405 -4.44555 2.24221 0
M  V30 10154 C 973.108 -5.62398 4.48443 0
M  V30 10155 C 975.134 -4.87388 3.34973 0
M  V30 10156 C 974.496 -5.45439 4.4573 0
M  V30 10157 H 970.595 -0.77816 0.0773994 0
M  V30 10158 H 973.179 -1.77926 0.790599 0
M  V30 10159 H 971.35 -3.82341 -0.683354 0
M  V30 10160 H 973.082 -4.01292 -0.524073 0
M  V30 10161 H 969.837 -4.51437 1.43185 0
M  V30 10162 H 970.261 -5.58699 3.8234 0
M  V30 10163 H 974.903 -3.98998 1.39857 0
M  V30 10164 H 972.621 -6.06927 5.3354 0
M  V30 10165 H 976.207 -4.75152 3.3574 0
M  V30 10166 H 975.087 -5.77975 5.30014 0
M  V30 10167 N 972.59 -0.333456 -1.54032 0
M  V30 10168 C 973.522 0.562174 -2.22199 0
M  V30 10169 C 974.535 1.07202 -1.22522 0
M  V30 10170 O 975.724 0.983897 -1.48935 0
M  V30 10171 C 972.824 1.78525 -2.88066 0
M  V30 10172 C 971.997 1.41242 -4.13968 0
M  V30 10173 C 971.056 2.49408 -4.63338 0
M  V30 10174 O 970.082 2.13138 -5.27789 0
M  V30 10175 N 971.284 3.805 -4.38406 0
M  V30 10176 H 974.049 -0.0215629 -2.99692 0
M  V30 10177 H 971.61 -0.157111 -1.61136 0
M  V30 10178 H 973.602 2.50298 -3.18014 0
M  V30 10179 H 972.172 2.2766 -2.14219 0
M  V30 10180 H 971.392 0.525887 -3.90676 0
M  V30 10181 H 972.68 1.13916 -4.95884 0
M  V30 10182 H 972.078 4.12761 -3.86839 0
M  V30 10183 H 970.635 4.48474 -4.72984 0
M  V30 10184 N 974.068 1.57479 -0.061844 0
M  V30 10185 C 975.031 2.1104 0.894127 0
M  V30 10186 C 976.031 1.03227 1.23292 0
M  V30 10187 O 977.221 1.29256 1.16784 0
M  V30 10188 C 974.353 2.6035 2.20069 0
M  V30 10189 H 975.546 2.96807 0.429619 0
M  V30 10190 H 973.099 1.55181 0.18672 0
M  V30 10191 H 973.834 1.78008 2.71079 0
M  V30 10192 H 973.619 3.39146 1.9678 0
M  V30 10193 H 975.109 3.019 2.88525 0
M  V30 10194 N 975.546 -0.211634 1.56173 0
M  V30 10195 C 976.962 -0.56177 1.49386 0
M  V30 10196 C 977.162 -1.86666 0.758813 0
M  V30 10197 O 976.218 -2.50681 0.302534 0
M  V30 10198 C 977.531 -0.631815 2.93987 0
M  V30 10199 C 979.079 -0.721773 3.04564 0
M  V30 10200 C 979.554 -0.823075 4.50544 0
M  V30 10201 N 981.045 -0.887038 4.54627 0
M  V30 10202 C 981.78 -0.985304 5.64871 0
M  V30 10203 N 981.276 -1.0469 6.84844 0
M  V30 10204 N 983.069 -1.02121 5.52746 0
M  V30 10205 H 975.22 0.64452 2.02385 0
M  V30 10206 H 977.483 0.227466 0.920306 0
M  V30 10207 H 977.189 0.257592 3.50755 0
M  V30 10208 H 977.063 -1.4921 3.46433 0
M  V30 10209 H 979.45 -1.60162 2.47855 0
M  V30 10210 H 979.531 0.164385 2.55271 0
M  V30 10211 H 979.175 0.0523511 5.07873 0
M  V30 10212 H 979.105 -1.72479 4.97552 0
M  V30 10213 H 981.596 -0.849352 3.68231 0
M  V30 10214 H 981.909 -1.12193 7.64613 0
M  V30 10215 H 980.254 -1.01586 6.87536 0
M  V30 10216 H 983.445 -0.969814 4.57943 0
M  V30 10217 H 983.618 -1.09434 6.38693 0
M  V30 10218 N 977.024 -1.50153 -0.478725 0
M  V30 10219 C 977.974 -1.64848 -1.57509 0
M  V30 10220 C 978.958 -0.503327 -1.52825 0
M  V30 10221 O 980.15 -0.75737 -1.59978 0
M  V30 10222 C 977.279 -1.73893 -2.96 0
M  V30 10223 C 976.365 -2.9406 -3.05597 0
M  V30 10224 N 976.756 -4.17844 -2.85027 0
M  V30 10225 C 975.054 -2.92459 -3.36725 0
M  V30 10226 C 975.755 -4.98739 -2.9939 0
M  V30 10227 N 974.731 -4.32542 -3.29255 0
M  V30 10228 H 978.533 -2.58254 -1.40293 0
M  V30 10229 H 976.047 -1.47232 -0.685307 0
M  V30 10230 H 978.044 -1.82523 -3.74821 0
M  V30 10231 H 976.704 -0.816402 -3.14269 0
M  V30 10232 H 977.715 -4.47465 -2.60759 0
M  V30 10233 H 974.392 -2.09675 -3.6103 0
M  V30 10234 H 975.782 -6.07146 -2.8779 0
M  V30 10235 N 978.502 0.731368 -1.39602 0
M  V30 10236 C 979.73 1.52059 -1.40305 0
M  V30 10237 C 980.145 1.888 0.00147921 0
M  V30 10238 O 979.502 1.54354 0.973715 0
M  V30 10239 C 979.553 2.80588 -2.27931 0
M  V30 10240 O 979.274 2.45406 -3.62915 0
M  V30 10241 C 980.775 3.74592 -2.37056 0
M  V30 10242 H 977.995 0.469787 -0.479104 0
M  V30 10243 H 980.539 0.903436 -1.83462 0
M  V30 10244 H 978.694 3.38626 -1.88178 0
M  V30 10245 H 979.108 3.27996 -4.09291 0
M  V30 10246 H 980.582 4.61662 -3.02609 0
M  V30 10247 H 981.059 4.16597 -1.39081 0
M  V30 10248 H 981.665 3.22471 -2.77295 0
M  V30 10249 N 979.98 1.24838 0.961938 0
M  V30 10250 C 981.228 1.08936 1.70227 0
M  V30 10251 C 981.549 -0.371582 1.91427 0
M  V30 10252 O 980.819 -1.26461 1.49614 0
M  V30 10253 H 979.399 0.400128 0.630799 0
M  V30 10254 H 982.061 1.56848 1.15692 0
M  V30 10255 H 981.157 1.59195 2.68446 0
M  V30 10256 N 981.458 -1.16348 1.06306 0
M  V30 10257 C 982.707 -1.8622 0.774909 0
M  V30 10258 C 983.02 -1.82598 -0.701245 0
M  V30 10259 O 984.226 -2.48051 -1.10377 0
M  V30 10260 C 982.682 -3.34182 1.33604 0
M  V30 10261 C 982.29 -3.46279 2.84245 0
M  V30 10262 C 984.034 -4.09309 1.12544 0
M  V30 10263 C 981.941 -4.88327 3.33602 0
M  V30 10264 H 980.871 -0.697574 0.286194 0
M  V30 10265 H 983.522 -1.31311 1.28179 0
M  V30 10266 H 981.904 -3.88698 0.756937 0
M  V30 10267 H 983.078 -3.01923 3.48108 0
M  V30 10268 H 981.393 -2.84585 3.03974 0
M  V30 10269 H 983.99 -5.14123 1.46909 0
M  V30 10270 H 984.333 -4.16251 0.0638129 0
M  V30 10271 H 984.866 -3.61032 1.67034 0
M  V30 10272 H 981.605 -4.86565 4.39244 0
M  V30 10273 H 981.125 -5.33307 2.74487 0
M  V30 10274 H 982.804 -5.57144 3.28937 0
M  V30 10275 N 982.937 -0.845659 -1.3299 0
M  V30 10276 C 983.884 -0.281761 -2.29074 0
M  V30 10277 C 984.854 0.606237 -1.54641 0
M  V30 10278 O 986.039 0.543063 -1.82908 0
M  V30 10279 C 983.179 0.531451 -3.40983 0
M  V30 10280 C 982.292 -0.381328 -4.30314 0
M  V30 10281 C 981.427 0.443643 -5.29344 0
M  V30 10282 C 980.466 -0.467101 -6.10315 0
M  V30 10283 N 979.603 0.320148 -7.0137 0
M  V30 10284 H 984.443 -1.10641 -2.76699 0
M  V30 10285 H 981.98 -0.55706 -1.36144 0
M  V30 10286 H 983.938 1.01848 -4.04577 0
M  V30 10287 H 982.568 1.32101 -2.94532 0
M  V30 10288 H 981.62 -0.986701 -3.6738 0
M  V30 10289 H 982.932 -1.08067 -4.86953 0
M  V30 10290 H 982.086 0.994212 -5.98498 0
M  V30 10291 H 980.825 1.17639 -4.73299 0
M  V30 10292 H 979.83 -1.02963 -5.40073 0
M  V30 10293 H 981.055 -1.19832 -6.68444 0
M  V30 10294 H 979.001 1.03615 -6.47765 0
M  V30 10295 H 978.918 -0.320338 -7.55321 0
M  V30 10296 H 980.186 0.852735 -7.74822 0
M  V30 10297 N 984.415 1.45619 -0.602734 0
M  V30 10298 C 985.664 2.01483 -0.0936395 0
M  V30 10299 C 985.977 1.47753 1.28173 0
M  V30 10300 O 987.183 1.95562 1.88329 0
M  V30 10301 C 985.639 3.59711 -0.116738 0
M  V30 10302 C 985.247 4.22437 -1.49166 0
M  V30 10303 C 986.991 4.23157 0.337368 0
M  V30 10304 C 984.898 5.72803 -1.47141 0
M  V30 10305 H 983.828 0.753353 -0.0312382 0
M  V30 10306 H 986.479 1.67142 -0.757347 0
M  V30 10307 H 984.861 3.91218 0.613529 0
M  V30 10308 H 986.035 4.02511 -2.24325 0
M  V30 10309 H 984.35 3.71166 -1.88746 0
M  V30 10310 H 986.947 5.33407 0.371628 0
M  V30 10311 H 987.29 3.93491 1.35906 0
M  V30 10312 H 987.823 3.96349 -0.339474 0
M  V30 10313 H 984.562 6.07161 -2.47055 0
M  V30 10314 H 984.082 5.94936 -0.762329 0
M  V30 10315 H 985.761 6.35907 -1.19294 0
M  V30 10316 N 985.893 0.34162 1.53853 0
M  V30 10317 C 987.139 -0.255862 2.01179 0
M  V30 10318 C 987.472 -1.50356 1.22909 0
M  V30 10319 O 986.747 -1.91913 0.316198 0
M  V30 10320 C 987.03 -0.571934 3.55529 0
M  V30 10321 C 986.883 0.687727 4.44511 0
M  V30 10322 C 988.202 -1.38233 4.17827 0
M  V30 10323 H 985.321 -0.091521 0.731295 0
M  V30 10324 H 987.963 0.461775 1.84303 0
M  V30 10325 H 986.113 -1.18331 3.70041 0
M  V30 10326 H 987.785 1.32572 4.4184 0
M  V30 10327 H 986.028 1.313 4.13452 0
M  V30 10328 H 986.699 0.421858 5.50386 0
M  V30 10329 H 989.175 -0.865374 4.07002 0
M  V30 10330 H 988.051 -1.57223 5.25901 0
M  V30 10331 H 988.312 -2.38386 3.72323 0
M  V30 10332 N 987.371 -1.57444 0.0701946 0
M  V30 10333 C 988.303 -2.09611 -0.927142 0
M  V30 10334 C 989.316 -1.02791 -1.26245 0
M  V30 10335 O 990.505 -1.30309 -1.21992 0
M  V30 10336 C 987.605 -2.54015 -2.24342 0
M  V30 10337 C 986.778 -3.84389 -2.08719 0
M  V30 10338 C 985.837 -4.14904 -3.23638 0
M  V30 10339 O 984.863 -4.84528 -2.98699 0
M  V30 10340 N 986.065 -3.68322 -4.48686 0
M  V30 10341 H 988.83 -2.95803 -0.481753 0
M  V30 10342 H 986.391 -1.61487 -0.115572 0
M  V30 10343 H 988.383 -2.71492 -3.00124 0
M  V30 10344 H 986.953 -1.72969 -2.60385 0
M  V30 10345 H 986.173 -3.76308 -1.17415 0
M  V30 10346 H 987.461 -4.69729 -1.9553 0
M  V30 10347 H 986.859 -3.12073 -4.71834 0
M  V30 10348 H 985.416 -3.91002 -5.21499 0
M  V30 10349 N 988.849 0.203349 -1.56283 0
M  V30 10350 C 989.781 1.27592 -1.90402 0
M  V30 10351 C 990.794 1.4213 -0.79391 0
M  V30 10352 O 991.983 1.42703 -1.07229 0
M  V30 10353 C 989.083 2.64919 -2.11356 0
M  V30 10354 C 988.256 2.72095 -3.42466 0
M  V30 10355 C 987.315 3.9056 -3.52631 0
M  V30 10356 O 986.341 3.78048 -4.25521 0
M  V30 10357 N 987.543 5.0566 -2.85111 0
M  V30 10358 H 990.308 0.986423 -2.83001 0
M  V30 10359 H 987.869 0.39331 -1.5705 0
M  V30 10360 H 989.861 3.42581 -2.15453 0
M  V30 10361 H 988.431 2.86391 -1.25295 0
M  V30 10362 H 987.651 1.8077 -3.50308 0
M  V30 10363 H 988.939 2.73874 -4.28801 0
M  V30 10364 H 988.337 5.18723 -2.25705 0
M  V30 10365 H 986.894 5.81299 -2.94847 0
M  V30 10366 N 990.327 1.50405 0.470755 0
M  V30 10367 C 991.576 1.60652 1.21959 0
M  V30 10368 C 991.889 0.312521 1.93087 0
M  V30 10369 O 993.095 0.293901 2.69905 0
M  V30 10370 C 991.551 2.83581 2.21607 0
M  V30 10371 C 991.159 4.19858 1.5628 0
M  V30 10372 C 992.903 3.03173 2.9713 0
M  V30 10373 C 990.81 5.33974 2.54217 0
M  V30 10374 H 989.74 0.598264 0.458907 0
M  V30 10375 H 992.391 1.76836 0.490041 0
M  V30 10376 H 990.773 2.60957 2.97855 0
M  V30 10377 H 991.947 4.52738 0.85819 0
M  V30 10378 H 990.262 4.05873 0.930366 0
M  V30 10379 H 992.859 3.856 3.70428 0
M  V30 10380 H 993.202 2.14914 3.56536 0
M  V30 10381 H 993.735 3.2598 2.27995 0
M  V30 10382 H 990.474 6.24388 1.99549 0
M  V30 10383 H 989.994 5.05511 3.22829 0
M  V30 10384 H 991.673 5.64561 3.16039 0
M  V30 10385 N 991.805 -0.723954 1.39988 0
M  V30 10386 C 992.768 -1.81973 1.3935 0
M  V30 10387 C 993.768 -1.58187 0.288702 0
M  V30 10388 O 994.958 -1.65383 0.547181 0
M  V30 10389 C 992.09 -3.19937 1.177 0
M  V30 10390 H 993.283 -1.83939 2.36868 0
M  V30 10391 H 990.836 -0.928742 1.25714 0
M  V30 10392 H 991.571 -3.23625 0.209093 0
M  V30 10393 H 991.356 -3.386 1.97719 0
M  V30 10394 H 992.846 -3.99981 1.20022 0
M  V30 10395 N 993.283 -1.25346 -0.955304 0
M  V30 10396 C 994.532 -1.0945 -1.69421 0
M  V30 10397 C 994.845 0.364459 -1.92175 0
M  V30 10398 O 996.051 0.643843 -2.63755 0
M  V30 10399 C 994.507 -1.91045 -3.05008 0
M  V30 10400 C 994.115 -3.41428 -2.90053 0
M  V30 10401 C 995.859 -1.83716 -3.82686 0
M  V30 10402 C 993.766 -4.1532 -4.21026 0
M  V30 10403 H 992.696 -0.405978 -0.635372 0
M  V30 10404 H 995.347 -1.49536 -1.06354 0
M  V30 10405 H 993.729 -1.43781 -3.68975 0
M  V30 10406 H 994.903 -3.9636 -2.35022 0
M  V30 10407 H 993.218 -3.49842 -2.25831 0
M  V30 10408 H 995.815 -2.36217 -4.79693 0
M  V30 10409 H 996.158 -0.804919 -4.08444 0
M  V30 10410 H 996.691 -2.28726 -3.25468 0
M  V30 10411 H 993.43 -5.18955 -4.00457 0
M  V30 10412 H 992.95 -3.65172 -4.75825 0
M  V30 10413 H 994.629 -4.22999 -4.89572 0
M  V30 10414 N 994.761 1.15782 -1.06922 0
M  V30 10415 C 995.691 2.22538 -0.707045 0
M  V30 10416 C 996.672 1.67371 0.303471 0
M  V30 10417 O 997.857 1.9339 0.177189 0
M  V30 10418 C 994.987 3.47158 -0.0994269 0
M  V30 10419 C 993.941 4.15257 -1.03661 0
M  V30 10420 C 993.267 5.33902 -0.291974 0
M  V30 10421 C 994.567 4.65516 -2.36837 0
M  V30 10422 H 996.261 2.53089 -1.59958 0
M  V30 10423 H 993.807 1.21649 -0.770552 0
M  V30 10424 H 995.76 4.21073 0.165852 0
M  V30 10425 H 994.484 3.15926 0.828155 0
M  V30 10426 H 993.143 3.43276 -1.28674 0
M  V30 10427 H 992.791 4.98926 0.638928 0
M  V30 10428 H 992.491 5.80407 -0.916613 0
M  V30 10429 H 994.015 6.1059 -0.0343915 0
M  V30 10430 H 995.429 5.30981 -2.16175 0
M  V30 10431 H 993.826 5.22666 -2.94856 0
M  V30 10432 H 994.896 3.81387 -2.99453 0
M  V30 10433 N 996.239 0.8527 1.3254 0
M  V30 10434 C 997.172 0.240733 2.26927 0
M  V30 10435 C 998.15 -0.620158 1.50309 0
M  V30 10436 O 999.334 -0.577389 1.79439 0
M  V30 10437 C 996.461 -0.660644 3.32195 0
M  V30 10438 C 995.507 0.126604 4.26312 0
M  V30 10439 S 996.34 1.49372 5.14245 0
M  V30 10440 C 997.496 0.598002 6.23037 0
M  V30 10441 H 997.729 1.04088 2.78483 0
M  V30 10442 H 995.262 0.650222 1.40041 0
M  V30 10443 H 997.22 -1.17506 3.93323 0
M  V30 10444 H 995.881 -1.43458 2.79426 0
M  V30 10445 H 995.074 -0.559851 5.00881 0
M  V30 10446 H 994.676 0.572536 3.69592 0
M  V30 10447 H 996.968 -0.198555 6.77209 0
M  V30 10448 H 997.911 1.31428 6.95796 0
M  V30 10449 H 998.319 0.173211 5.64234 0
M  V30 10450 N 997.718 -1.45297 0.610449 0
M  V30 10451 C 998.966 -2.01819 0.106548 0
M  V30 10452 C 999.287 -1.48102 -1.26849 0
M  V30 10453 O 998.557 -0.676411 -1.83852 0
M  V30 10454 H 997.137 -0.746113 0.0363982 0
M  V30 10455 H 999.799 -1.78061 0.792491 0
M  V30 10456 H 998.895 -3.12045 0.0585 0
M  V30 10457 N 999.196 -0.349774 -1.5367 0
M  V30 10458 C 1000.44 0.245095 -2.02925 0
M  V30 10459 C 1000.8 1.4727 -1.23189 0
M  V30 10460 O 1002 2.14215 -1.62374 0
M  V30 10461 C 1000.27 0.545392 -3.53214 0
M  V30 10462 S 1001.83 1.11619 -4.24366 0
M  V30 10463 H 998.649 0.0725368 -0.70729 0
M  V30 10464 H 1001.25 -0.488979 -1.89286 0
M  V30 10465 H 999.955 -0.355786 -4.08855 0
M  V30 10466 H 999.486 1.30897 -3.70985 0
M  V30 10467 H 1001.5 2.40151 -4.34214 0
M  V30 10468 N 1000.67 1.57404 -0.0785433 0
M  V30 10469 C 1001.64 2.11977 0.871693 0
M  V30 10470 C 1002.64 1.04529 1.2219 0
M  V30 10471 O 1003.83 1.30488 1.15406 0
M  V30 10472 C 1000.96 2.6267 2.17296 0
M  V30 10473 H 1002.15 2.97246 0.398115 0
M  V30 10474 H 999.705 1.5537 0.170251 0
M  V30 10475 H 1000.44 1.80873 2.69175 0
M  V30 10476 H 1000.22 3.41214 1.93171 0
M  V30 10477 H 1001.71 3.04943 2.85306 0
M  V30 10478 N 1002.15 -0.195058 1.56388 0
M  V30 10479 C 1003.4 -0.913626 1.79821 0
M  V30 10480 C 1003.71 -1.84422 0.651767 0
M  V30 10481 O 1004.92 -2.6034 0.770402 0
M  V30 10482 C 1003.38 -1.67497 3.18548 0
M  V30 10483 C 1002.98 -0.789205 4.40994 0
M  V30 10484 C 1004.73 -2.38318 3.5129 0
M  V30 10485 C 1002.63 -1.54942 5.70742 0
M  V30 10486 H 1001.56 -0.344891 0.670497 0
M  V30 10487 H 1004.22 -0.166912 1.82739 0
M  V30 10488 H 1002.6 -2.46557 3.0988 0
M  V30 10489 H 1003.77 -0.0372595 4.60785 0
M  V30 10490 H 1002.09 -0.191834 4.15958 0
M  V30 10491 H 1004.68 -2.95745 4.45465 0
M  V30 10492 H 1005.03 -3.12507 2.75037 0
M  V30 10493 H 1005.56 -1.66224 3.61406 0
M  V30 10494 H 1002.3 -0.85031 6.49962 0
M  V30 10495 H 1001.82 -2.2753 5.54969 0
M  V30 10496 H 1003.5 -2.1032 6.11861 0
M  V30 10497 N 1003.63 -1.50653 -0.462772 0
M  V30 10498 C 1004.56 -1.73056 -1.5676 0
M  V30 10499 C 1005.54 -0.579699 -1.59917 0
M  V30 10500 O 1006.73 -0.819729 -1.76051 0
M  V30 10501 C 1003.86 -1.83234 -2.9503 0
M  V30 10502 C 1002.81 -2.98488 -3.06739 0
M  V30 10503 C 1002.14 -2.93818 -4.46738 0
M  V30 10504 C 1003.44 -4.38869 -2.83181 0
M  V30 10505 H 1005.13 -2.65562 -1.38265 0
M  V30 10506 H 1002.68 -1.27792 -0.663722 0
M  V30 10507 H 1004.63 -1.97491 -3.72257 0
M  V30 10508 H 1003.35 -0.873558 -3.14701 0
M  V30 10509 H 1002.01 -2.83895 -2.31946 0
M  V30 10510 H 1001.66 -1.95769 -4.63339 0
M  V30 10511 H 1001.36 -3.71197 -4.55507 0
M  V30 10512 H 1002.88 -3.10135 -5.25974 0
M  V30 10513 H 1004.3 -4.53945 -3.50153 0
M  V30 10514 H 1002.69 -5.17762 -3.03386 0
M  V30 10515 H 1003.76 -4.50663 -1.78972 0
M  V30 10516 N 1005.11 0.71652 -1.4037 0
M  V30 10517 C 1006.52 1.29562 -1.34427 0
M  V30 10518 C 1006.87 1.96192 -0.0173106 0
M  V30 10519 O 1006 1.97488 0.884719 0
M  V30 10520 C 1006.59 2.35601 -2.4347 0
M  V30 10521 C 1005.15 2.89138 -2.4099 0
M  V30 10522 C 1004.3 1.62915 -2.24397 0
M  V30 10523 H 1007.25 0.512715 -1.5019 0
M  V30 10524 H 1007.27 3.16422 -2.11323 0
M  V30 10525 H 1006.78 1.87077 -3.40035 0
M  V30 10526 H 1004.88 3.41894 -1.4812 0
M  V30 10527 H 1004.99 3.40995 -3.3654 0
M  V30 10528 H 1003.36 1.87947 -1.71896 0
M  V30 10529 H 1004.14 1.16417 -3.22958 0
M  V30 10530 N 1006.59 1.25851 0.948643 0
M  V30 10531 C 1007.54 1.03437 2.03187 0
M  V30 10532 C 1008.52 -0.0307632 1.60871 0
M  V30 10533 O 1009.71 0.185296 1.76027 0
M  V30 10534 C 1006.84 0.661426 3.36868 0
M  V30 10535 C 1005.93 1.76363 3.8569 0
M  V30 10536 N 1006.32 2.9998 4.07241 0
M  V30 10537 C 1004.62 1.64552 4.14534 0
M  V30 10538 C 1005.32 3.71564 4.47566 0
M  V30 10539 N 1004.29 2.99214 4.53841 0
M  V30 10540 H 1008.1 1.97277 2.17851 0
M  V30 10541 H 1005.61 1.16258 1.13392 0
M  V30 10542 H 1007.61 0.482021 4.14104 0
M  V30 10543 H 1006.27 -0.269582 3.23579 0
M  V30 10544 H 1007.28 3.35963 3.94143 0
M  V30 10545 H 1003.95 0.783891 4.10075 0
M  V30 10546 H 1005.34 4.77702 4.72494 0
M  V30 10547 N 1008.06 -1.15214 1.07534 0
M  V30 10548 C 1008.99 -2.2216 0.718837 0
M  V30 10549 C 1009.98 -1.6753 -0.29459 0
M  V30 10550 O 1011.16 -1.93481 -0.166931 0
M  V30 10551 C 1008.29 -3.471 0.117836 0
M  V30 10552 C 1007.24 -4.14701 1.05862 0
M  V30 10553 C 1006.57 -5.3374 0.320284 0
M  V30 10554 C 1007.87 -4.64254 2.39302 0
M  V30 10555 H 1009.56 -2.52237 1.61297 0
M  V30 10556 H 1007.11 -1.21239 0.776992 0
M  V30 10557 H 1009.06 -4.21156 -0.143519 0
M  V30 10558 H 1007.79 -3.16361 -0.811389 0
M  V30 10559 H 1006.45 -3.42589 1.30493 0
M  V30 10560 H 1006.09 -4.99257 -0.61246 0
M  V30 10561 H 1005.79 -5.79912 0.947381 0
M  V30 10562 H 1007.32 -6.10563 0.0667721 0
M  V30 10563 H 1008.73 -5.29827 2.18988 0
M  V30 10564 H 1007.13 -5.21095 2.97623 0
M  V30 10565 H 1008.2 -3.79793 3.01472 0
M  V30 10566 N 1009.54 -0.859717 -1.32086 0
M  V30 10567 C 1010.96 -0.55025 -1.49815 0
M  V30 10568 C 1011.16 0.917966 -1.79376 0
M  V30 10569 O 1010.21 1.70073 -1.86632 0
M  V30 10570 C 1011.53 -1.44161 -2.6389 0
M  V30 10571 C 1013.08 -1.44257 -2.77775 0
M  V30 10572 C 1013.55 -2.31926 -3.94936 0
M  V30 10573 N 1015.04 -2.2975 -4.02206 0
M  V30 10574 C 1015.78 -2.9431 -4.92107 0
M  V30 10575 N 1015.27 -3.68001 -5.86981 0
M  V30 10576 N 1017.07 -2.83671 -4.8527 0
M  V30 10577 H 1009.22 -1.80987 -1.11164 0
M  V30 10578 H 1011.48 -0.773313 -0.548353 0
M  V30 10579 H 1011.19 -2.48588 -2.4879 0
M  V30 10580 H 1011.06 -1.13268 -3.59792 0
M  V30 10581 H 1013.45 -0.405923 -2.92295 0
M  V30 10582 H 1013.53 -1.79169 -1.82571 0
M  V30 10583 H 1013.17 -3.35661 -3.81174 0
M  V30 10584 H 1013.1 -1.94344 -4.89426 0
M  V30 10585 H 1015.59 -1.76177 -3.3432 0
M  V30 10586 H 1015.91 -4.14417 -6.52287 0
M  V30 10587 H 1014.25 -3.72109 -5.86992 0
M  V30 10588 H 1017.44 -2.25647 -4.10123 0
M  V30 10589 H 1017.61 -3.34267 -5.5513 0
M  V30 10590 N 1011.02 1.44971 -0.618145 0
M  V30 10591 C 1012.25 2.07039 -0.122395 0
M  V30 10592 C 1012.67 1.45793 1.18853 0
M  V30 10593 O 1012.03 0.55453 1.72611 0
M  V30 10594 C 1012.08 3.60599 -0.0073864 0
M  V30 10595 O 1011.18 3.99069 1.04007 0
M  V30 10596 H 1010.52 0.6593 -0.0788615 0
M  V30 10597 H 1013.05 1.86055 -0.851147 0
M  V30 10598 H 1013.06 4.07569 0.187417 0
M  V30 10599 H 1011.74 4.04561 -0.964544 0
M  V30 10600 H 1010.31 3.63753 0.820879 0
M  V30 10601 N 1012.5 0.357919 1.53482 0
M  V30 10602 C 1013.43 -0.484231 2.28424 0
M  V30 10603 C 1014.41 -1.09046 1.30548 0
M  V30 10604 O 1015.59 -1.10916 1.59409 0
M  V30 10605 C 1012.72 -1.62803 3.06778 0
M  V30 10606 C 1011.68 -1.14943 4.12277 0
M  V30 10607 C 1011 -2.38287 4.78669 0
M  V30 10608 C 1012.3 -0.239627 5.2175 0
M  V30 10609 H 1014 0.140979 2.99068 0
M  V30 10610 H 1011.54 0.069244 1.43833 0
M  V30 10611 H 1013.5 -2.22374 3.57949 0
M  V30 10612 H 1012.22 -2.28036 2.3381 0
M  V30 10613 H 1010.88 -0.576442 3.6204 0
M  V30 10614 H 1010.53 -3.01959 4.02281 0
M  V30 10615 H 1010.23 -2.06939 5.49955 0
M  V30 10616 H 1011.75 -2.98558 5.32631 0
M  V30 10617 H 1013.17 -0.742597 5.6847 0
M  V30 10618 H 1011.56 -0.0173747 6.00097 0
M  V30 10619 H 1012.63 0.720333 4.7952 0
M  V30 10620 N 1013.98 -1.5736 0.0868897 0
M  V30 10621 C 1015.22 -1.94341 -0.579598 0
M  V30 10622 C 1015.56 -0.968238 -1.68341 0
M  V30 10623 O 1014.83 8.29649e-05 -1.945 0
M  V30 10624 C 1015.11 -3.41497 -1.14245 0
M  V30 10625 C 1014.97 -4.49778 -0.044255 0
M  V30 10626 C 1016.29 -3.89788 -2.04336 0
M  V30 10627 H 1013.4 -0.70668 -0.20922 0
M  V30 10628 H 1016.05 -1.89359 0.15593 0
M  V30 10629 H 1014.2 -3.45873 -1.76929 0
M  V30 10630 H 1015.87 -4.57517 0.58959 0
M  V30 10631 H 1014.11 -4.293 0.623207 0
M  V30 10632 H 1014.78 -5.4992 -0.478749 0
M  V30 10633 H 1017.26 -3.87513 -1.51569 0
M  V30 10634 H 1016.13 -4.93335 -2.40648 0
M  V30 10635 H 1016.4 -3.28603 -2.95757 0
M  V30 10636 N 1015.45 0.186762 -1.56489 0
M  V30 10637 C 1016.36 1.25169 -1.98419 0
M  V30 10638 C 1017.38 1.49329 -0.893124 0
M  V30 10639 O 1018.56 1.61781 -1.19954 0
M  V30 10640 C 1015.62 2.57422 -2.32239 0
M  V30 10641 C 1014.68 2.4126 -3.55095 0
M  V30 10642 C 1013.92 3.67206 -3.87292 0
M  V30 10643 O 1014.14 4.71731 -3.20665 0
M  V30 10644 O 1013.07 3.62238 -4.80695 0
M  V30 10645 H 1016.9 0.925834 -2.89244 0
M  V30 10646 H 1014.48 0.392421 -1.44154 0
M  V30 10647 H 1016.37 3.35466 -2.5503 0
M  V30 10648 H 1015.04 2.89618 -1.44579 0
M  V30 10649 H 1013.95 1.61299 -3.37541 0
M  V30 10650 H 1015.28 2.13994 -4.43247 0
M  V30 10651 N 1016.93 1.50896 0.454776 0
M  V30 10652 C 1018.18 1.61936 1.20248 0
M  V30 10653 C 1018.49 0.332983 1.92745 0
M  V30 10654 O 1019.7 0.322512 2.69578 0
M  V30 10655 C 1018.16 2.85916 2.18587 0
M  V30 10656 C 1017.76 4.21492 1.51818 0
M  V30 10657 C 1019.51 3.06307 2.93898 0
M  V30 10658 C 1017.42 5.3664 2.48539 0
M  V30 10659 H 1016.35 0.603098 0.452536 0
M  V30 10660 H 1019 1.77345 0.471257 0
M  V30 10661 H 1017.38 2.64101 2.95071 0
M  V30 10662 H 1018.55 4.53623 0.810123 0
M  V30 10663 H 1016.87 4.06837 0.887265 0
M  V30 10664 H 1019.46 3.89507 3.66317 0
M  V30 10665 H 1019.81 2.18683 3.54236 0
M  V30 10666 H 1020.34 3.2838 2.24525 0
M  V30 10667 H 1017.08 6.26469 1.92916 0
M  V30 10668 H 1016.6 5.08907 3.17449 0
M  V30 10669 H 1018.28 5.67881 3.10033 0
M  V30 10670 N 1018.41 -0.709066 1.40748 0
M  V30 10671 C 1019.66 -1.4646 1.38681 0
M  V30 10672 C 1019.97 -1.95599 -0.0056209 0
M  V30 10673 O 1021.18 -2.71091 -0.148907 0
M  V30 10674 C 1019.63 -2.64771 2.43771 0
M  V30 10675 C 1019.24 -2.22474 3.88856 0
M  V30 10676 C 1020.99 -3.42475 2.50821 0
M  V30 10677 C 1018.89 -3.37663 4.85528 0
M  V30 10678 H 1017.82 -0.550084 0.515678 0
M  V30 10679 H 1020.47 -0.771074 1.66513 0
M  V30 10680 H 1018.86 -3.36325 2.09048 0
M  V30 10681 H 1020.03 -1.58297 4.32757 0
M  V30 10682 H 1018.35 -1.57798 3.85342 0
M  V30 10683 H 1020.94 -4.28201 3.20232 0
M  V30 10684 H 1021.29 -3.86738 1.54076 0
M  V30 10685 H 1021.82 -2.77969 2.84567 0
M  V30 10686 H 1018.56 -2.98426 5.83628 0
M  V30 10687 H 1018.08 -4.00734 4.46287 0
M  V30 10688 H 1019.76 -4.03636 5.05655 0
M  V30 10689 N 1019.89 -1.26353 -0.941956 0
M  V30 10690 C 1020.8 -1.09618 -2.07415 0
M  V30 10691 C 1021.82 -0.0298963 -1.73974 0
M  V30 10692 O 1022.99 -0.233466 -2.00042 0
M  V30 10693 C 1020.06 -0.73013 -3.38925 0
M  V30 10694 C 1019.12 -1.87574 -3.86153 0
M  V30 10695 C 1018.35 -1.52706 -5.11387 0
M  V30 10696 O 1018.57 -0.428438 -5.68789 0
M  V30 10697 O 1017.51 -2.36154 -5.53638 0
M  V30 10698 H 1021.33 -2.04598 -2.2444 0
M  V30 10699 H 1018.92 -1.05407 -1.05876 0
M  V30 10700 H 1020.8 -0.538684 -4.17943 0
M  V30 10701 H 1019.48 0.190282 -3.2314 0
M  V30 10702 H 1018.38 -2.12214 -3.08084 0
M  V30 10703 H 1019.72 -2.77585 -4.06457 0
M  V30 10704 N 1021.37 1.14642 -1.08144 0
M  V30 10705 C 1022.32 2.17665 -0.678661 0
M  V30 10706 C 1023.3 1.58072 0.300336 0
M  V30 10707 O 1024.49 1.7664 0.112781 0
M  V30 10708 C 1021.62 3.43191 -0.0866362 0
M  V30 10709 C 1020.71 4.0982 -1.09126 0
M  V30 10710 N 1021.1 4.51814 -2.27372 0
M  V30 10711 C 1019.4 4.36272 -0.926411 0
M  V30 10712 C 1020.1 5.03581 -2.91172 0
M  V30 10713 N 1019.07 4.97624 -2.18795 0
M  V30 10714 H 1022.88 2.47872 -1.57914 0
M  V30 10715 H 1020.39 1.31296 -0.955772 0
M  V30 10716 H 1022.39 4.1632 0.219859 0
M  V30 10717 H 1021.05 3.14464 0.80886 0
M  V30 10718 H 1022.06 4.44941 -2.65044 0
M  V30 10719 H 1018.74 4.17414 -0.084492 0
M  V30 10720 H 1020.13 5.45969 -3.91621 0
M  V30 10721 N 1022.85 0.866709 1.31628 0
M  V30 10722 C 1024.09 0.475086 1.96437 0
M  V30 10723 C 1024.41 -0.975179 1.68865 0
M  V30 10724 O 1023.68 -1.68317 1.0023 0
M  V30 10725 H 1022.26 0.172695 0.726764 0
M  V30 10726 H 1024.93 1.10578 1.60494 0
M  V30 10727 H 1024.02 0.630123 3.05673 0
M  V30 10728 N 1024.32 -1.44642 0.625825 0
M  V30 10729 C 1025.25 -2.33397 -0.0692188 0
M  V30 10730 C 1026.23 -1.47898 -0.840241 0
M  V30 10731 O 1027.42 -1.7663 -0.807176 0
M  V30 10732 C 1024.55 -3.30888 -1.055 0
M  V30 10733 C 1023.5 -4.26164 -0.395968 0
M  V30 10734 C 1022.83 -5.13483 -1.49128 0
M  V30 10735 C 1024.13 -5.17663 0.694433 0
M  V30 10736 H 1025.82 -2.91763 0.671925 0
M  V30 10737 H 1023.37 -1.40294 0.324573 0
M  V30 10738 H 1025.32 -3.91861 -1.54993 0
M  V30 10739 H 1024.05 -2.7072 -1.82696 0
M  V30 10740 H 1022.71 -3.66516 0.0782691 0
M  V30 10741 H 1022.35 -4.49672 -2.25399 0
M  V30 10742 H 1022.05 -5.78038 -1.05573 0
M  V30 10743 H 1023.58 -5.77327 -1.98813 0
M  V30 10744 H 1024.99 -5.72602 0.282818 0
M  V30 10745 H 1023.39 -5.90793 1.05281 0
M  V30 10746 H 1024.46 -4.58994 1.56372 0
M  V30 10747 N 1025.8 -0.366053 -1.5329 0
M  V30 10748 C 1027.05 0.223824 -2.01561 0
M  V30 10749 C 1027.38 1.48382 -1.25286 0
M  V30 10750 O 1026.66 1.91385 -0.34669 0
M  V30 10751 C 1026.94 0.5153 -3.56394 0
M  V30 10752 C 1026.79 -0.758357 -4.43361 0
M  V30 10753 C 1028.11 1.31568 -4.19974 0
M  V30 10754 H 1025.23 0.0798751 -0.732659 0
M  V30 10755 H 1027.87 -0.491038 -1.83545 0
M  V30 10756 H 1026.02 1.12429 -3.71876 0
M  V30 10757 H 1027.69 -1.39584 -4.39675 0
M  V30 10758 H 1025.94 -1.37862 -4.11311 0
M  V30 10759 H 1026.61 -0.509366 -5.49645 0
M  V30 10760 H 1029.08 0.800514 -4.08327 0
M  V30 10761 H 1027.96 1.48837 -5.28336 0
M  V30 10762 H 1028.22 2.32432 -3.76069 0
M  V30 10763 N 1027.28 1.57312 -0.0952337 0
M  V30 10764 C 1028.56 1.85822 0.610715 0
M  V30 10765 C 1028.94 0.992114 1.86334 0
M  V30 10766 O 1028.28 0.0645669 2.28409 0
M  V30 10767 C 1028.49 3.36492 0.925967 0
M  V30 10768 C 1029.84 4.0455 1.28936 0
M  V30 10769 O 1030.87 3.41374 1.01698 0
M  V30 10770 O 1029.73 5.16024 1.79949 0
M  V30 10771 H 1026.82 0.768454 0.305626 0
M  V30 10772 H 1029.37 1.69217 -0.127941 0
M  V30 10773 H 1028.14 3.91282 0.0373127 0
M  V30 10774 H 1027.76 3.58443 1.7206 0
M  V30 10775 N 1028.76 -0.17846 1.56586 0
M  V30 10776 C 1029.67 -1.24115 1.9908 0
M  V30 10777 C 1030.68 -1.48854 0.901031 0
M  V30 10778 O 1031.86 -1.61142 1.2081 0
M  V30 10779 C 1028.92 -2.56187 2.33601 0
M  V30 10780 C 1027.99 -2.39373 3.56369 0
M  V30 10781 C 1027.22 -3.65147 3.89234 0
M  V30 10782 O 1027.44 -4.70024 3.23162 0
M  V30 10783 O 1026.38 -3.59683 4.82609 0
M  V30 10784 H 1030.2 -0.910482 2.89731 0
M  V30 10785 H 1027.79 -0.38477 1.4436 0
M  V30 10786 H 1029.67 -3.34109 2.56806 0
M  V30 10787 H 1028.34 -2.88847 1.46113 0
M  V30 10788 H 1027.25 -1.59506 3.38391 0
M  V30 10789 H 1028.58 -2.1164 4.44375 0
M  V30 10790 N 1030.24 -1.51135 -0.446768 0
M  V30 10791 C 1031.17 -1.67949 -1.55967 0
M  V30 10792 C 1032.18 -0.560337 -1.52853 0
M  V30 10793 O 1033.37 -0.83435 -1.578 0
M  V30 10794 C 1030.47 -1.6703 -2.9488 0
M  V30 10795 C 1029.64 -2.95377 -3.22601 0
M  V30 10796 C 1028.7 -2.86772 -4.4119 0
M  V30 10797 O 1027.73 -3.60722 -4.40304 0
M  V30 10798 N 1028.93 -2.01979 -5.44228 0
M  V30 10799 H 1031.69 -2.63951 -1.41951 0
M  V30 10800 H 1029.26 -1.48903 -0.635569 0
M  V30 10801 H 1031.25 -1.58854 -3.7222 0
M  V30 10802 H 1029.82 -0.786623 -3.02541 0
M  V30 10803 H 1029.04 -3.17494 -2.33647 0
M  V30 10804 H 1030.33 -3.80356 -3.37945 0
M  V30 10805 H 1029.72 -1.41257 -5.4778 0
M  V30 10806 H 1028.28 -1.99689 -6.20457 0
M  V30 10807 N 1031.71 0.701592 -1.41122 0
M  V30 10808 C 1032.65 1.8268 -1.38422 0
M  V30 10809 C 1033.66 1.60244 -0.287342 0
M  V30 10810 O 1034.85 1.69859 -0.548658 0
M  V30 10811 C 1031.95 3.19338 -1.13475 0
M  V30 10812 C 1031.12 3.68853 -2.35088 0
M  V30 10813 C 1030.18 4.84163 -2.06089 0
M  V30 10814 O 1029.21 4.9609 -2.79077 0
M  V30 10815 N 1030.41 5.70972 -1.04743 0
M  V30 10816 H 1033.17 1.8549 -2.35401 0
M  V30 10817 H 1030.73 0.883682 -1.35656 0
M  V30 10818 H 1032.73 3.94095 -0.920377 0
M  V30 10819 H 1031.3 3.11589 -0.251152 0
M  V30 10820 H 1030.52 2.8507 -2.72266 0
M  V30 10821 H 1031.8 3.98673 -3.16129 0
M  V30 10822 H 1031.2 5.63961 -0.443221 0
M  V30 10823 H 1029.76 6.45654 -0.892949 0
M  V30 10824 N 1033.19 1.2685 0.935242 0
M  V30 10825 C 1034.14 1.08923 2.03481 0
M  V30 10826 C 1035.11 -0.00749786 1.66098 0
M  V30 10827 O 1036.29 0.153401 1.90182 0
M  V30 10828 C 1033.43 0.734529 3.37192 0
M  V30 10829 C 1032.55 1.90812 3.87576 0
M  V30 10830 C 1031.68 1.49599 5.097 0
M  V30 10831 C 1030.72 2.63752 5.5236 0
M  V30 10832 N 1029.86 2.23179 6.65684 0
M  V30 10833 H 1034.7 2.03016 2.18148 0
M  V30 10834 H 1032.23 1.01072 1.06878 0
M  V30 10835 H 1034.19 0.509734 4.14074 0
M  V30 10836 H 1032.82 -0.169438 3.22355 0
M  V30 10837 H 1031.87 2.24567 3.0704 0
M  V30 10838 H 1033.19 2.7647 4.1517 0
M  V30 10839 H 1032.34 1.23199 5.9406 0
M  V30 10840 H 1031.08 0.61039 4.83865 0
M  V30 10841 H 1030.08 2.90874 4.66554 0
M  V30 10842 H 1031.31 3.5292 5.80193 0
M  V30 10843 H 1029.26 1.37061 6.41522 0
M  V30 10844 H 1029.17 3.02379 6.92895 0
M  V30 10845 H 1030.44 2.00007 7.53404 0
M  V30 10846 N 1034.67 -1.14067 1.0875 0
M  V30 10847 C 1035.92 -1.85459 0.82053 0
M  V30 10848 C 1036.25 -1.82923 -0.65213 0
M  V30 10849 O 1035.52 -1.26241 -1.47965 0
M  V30 10850 C 1035.81 -3.33937 1.34752 0
M  V30 10851 C 1035.66 -3.45026 2.88578 0
M  V30 10852 C 1036.98 -4.2915 0.975636 0
M  V30 10853 H 1034.1 -0.673384 0.299538 0
M  V30 10854 H 1036.74 -1.33927 1.34772 0
M  V30 10855 H 1034.89 -3.77953 0.899086 0
M  V30 10856 H 1036.56 -3.09771 3.41818 0
M  V30 10857 H 1034.81 -2.86124 3.26061 0
M  V30 10858 H 1035.48 -4.49408 3.20526 0
M  V30 10859 H 1037.95 -3.93168 1.36228 0
M  V30 10860 H 1036.83 -5.31489 1.37152 0
M  V30 10861 H 1037.09 -4.41945 -0.116956 0
M  V30 10862 N 1036.15 -0.873678 -1.31166 0
M  V30 10863 C 1037.56 -0.566109 -1.49223 0
M  V30 10864 C 1037.76 0.898889 -1.80339 0
M  V30 10865 O 1036.82 1.68084 -1.88425 0
M  V30 10866 C 1038.13 -1.46952 -2.62346 0
M  V30 10867 C 1039.68 -1.47195 -2.76229 0
M  V30 10868 C 1040.16 -2.36102 -3.92454 0
M  V30 10869 N 1041.65 -2.34003 -3.99746 0
M  V30 10870 C 1042.38 -2.99513 -4.88958 0
M  V30 10871 N 1041.88 -3.74206 -5.83045 0
M  V30 10872 N 1043.67 -2.88802 -4.82234 0
M  V30 10873 H 1035.82 -1.82156 -1.09239 0
M  V30 10874 H 1038.09 -0.779086 -0.54012 0
M  V30 10875 H 1037.79 -2.51213 -2.4614 0
M  V30 10876 H 1037.67 -1.17077 -3.5857 0
M  V30 10877 H 1040.05 -0.436902 -2.91848 0
M  V30 10878 H 1040.13 -1.81095 -1.80661 0
M  V30 10879 H 1039.78 -3.39685 -3.77593 0
M  V30 10880 H 1039.71 -1.99524 -4.87337 0
M  V30 10881 H 1042.2 -1.79713 -3.32433 0
M  V30 10882 H 1042.51 -4.21312 -6.47855 0
M  V30 10883 H 1040.86 -3.78314 -5.83012 0
M  V30 10884 H 1044.05 -2.29984 -4.07707 0
M  V30 10885 H 1044.22 -3.40136 -5.51554 0
M  V30 10886 N 1037.63 1.44308 -0.633487 0
M  V30 10887 C 1038.85 2.06384 -0.146063 0
M  V30 10888 C 1039.27 1.47357 1.18031 0
M  V30 10889 O 1038.63 0.597334 1.72448 0
M  V30 10890 C 1038.68 3.61489 -0.0276722 0
M  V30 10891 O 1038.4 4.18318 -1.3016 0
M  V30 10892 C 1039.9 4.40604 0.488168 0
M  V30 10893 H 1037.12 0.666122 -0.0807632 0
M  V30 10894 H 1039.66 1.85139 -0.868557 0
M  V30 10895 H 1037.82 3.81988 0.645273 0
M  V30 10896 H 1038.23 5.11783 -1.14797 0
M  V30 10897 H 1039.71 5.49545 0.520013 0
M  V30 10898 H 1040.18 4.12218 1.51568 0
M  V30 10899 H 1040.79 4.2503 -0.151608 0
M  V30 10900 N 1039.1 0.374177 1.53094 0
M  V30 10901 C 1040.35 -0.213981 2.00562 0
M  V30 10902 C 1040.67 -1.4916 1.26533 0
M  V30 10903 O 1041.87 -2.15889 1.64634 0
M  V30 10904 C 1040.33 -0.431876 3.57299 0
M  V30 10905 C 1039.94 0.831615 4.40214 0
M  V30 10906 C 1041.68 -0.977222 4.13099 0
M  V30 10907 C 1039.59 0.582831 5.88521 0
M  V30 10908 H 1038.52 -0.0837386 0.749336 0
M  V30 10909 H 1041.17 0.494245 1.76719 0
M  V30 10910 H 1039.55 -1.20158 3.7733 0
M  V30 10911 H 1040.72 1.60477 4.31953 0
M  V30 10912 H 1039.04 1.30081 3.9556 0
M  V30 10913 H 1041.64 -1.17881 5.21544 0
M  V30 10914 H 1041.98 -1.94189 3.68234 0
M  V30 10915 H 1042.51 -0.267473 3.969 0
M  V30 10916 H 1039.25 1.51807 6.37679 0
M  V30 10917 H 1038.77 -0.151666 5.99608 0
M  V30 10918 H 1040.45 0.211604 6.46654 0
M  V30 10919 N 1040.58 -1.57259 0.103575 0
M  V30 10920 C 1041.81 -1.99424 -0.569638 0
M  V30 10921 C 1042.23 -0.982475 -1.60403 0
M  V30 10922 O 1041.59 0.0479231 -1.81237 0
M  V30 10923 C 1041.64 -3.40527 -1.18633 0
M  V30 10924 O 1040.74 -3.42167 -2.30208 0
M  V30 10925 H 1040.08 -0.648251 -0.143759 0
M  V30 10926 H 1042.61 -2.03739 0.187493 0
M  V30 10927 H 1042.62 -3.78404 -1.5256 0
M  V30 10928 H 1041.3 -4.13686 -0.428582 0
M  V30 10929 H 1039.88 -3.16093 -1.97837 0
M  V30 10930 N 1042.06 0.170153 -1.56679 0
M  V30 10931 C 1043.02 1.19443 -1.95617 0
M  V30 10932 C 1044.02 1.37118 -0.83996 0
M  V30 10933 O 1045.21 1.34504 -1.10699 0
M  V30 10934 C 1042.35 2.55926 -2.25199 0
M  V30 10935 H 1043.54 0.86095 -2.87276 0
M  V30 10936 H 1041.09 0.412646 -1.50755 0
M  V30 10937 H 1041.83 2.94286 -1.36257 0
M  V30 10938 H 1041.61 2.44464 -3.06562 0
M  V30 10939 H 1043.1 3.29742 -2.56242 0
M  V30 10940 N 1043.54 1.5137 0.438746 0
M  V30 10941 C 1044.47 1.75528 1.53987 0
M  V30 10942 C 1045.45 0.605067 1.58975 0
M  V30 10943 O 1046.63 0.847634 1.74725 0
M  V30 10944 C 1043.76 1.87904 2.92078 0
M  V30 10945 C 1042.72 3.0333 3.01951 0
M  V30 10946 C 1042.04 3.00888 4.42007 0
M  V30 10947 C 1043.34 4.43319 2.76163 0
M  V30 10948 H 1045.04 2.67728 1.34022 0
M  V30 10949 H 1042.58 1.28831 0.643308 0
M  V30 10950 H 1044.54 2.03388 3.69068 0
M  V30 10951 H 1043.26 0.923514 3.13271 0
M  V30 10952 H 1041.92 2.87549 2.274 0
M  V30 10953 H 1041.57 2.03116 4.60166 0
M  V30 10954 H 1041.27 3.78397 4.49544 0
M  V30 10955 H 1042.79 3.18464 5.20973 0
M  V30 10956 H 1044.21 4.59458 3.42887 0
M  V30 10957 H 1042.6 5.22523 2.9511 0
M  V30 10958 H 1043.67 4.53453 1.71779 0
M  V30 10959 N 1045.02 -0.694098 1.41492 0
M  V30 10960 C 1045.98 -1.78976 1.43179 0
M  V30 10961 C 1046.98 -1.57539 0.322191 0
M  V30 10962 O 1048.17 -1.64185 0.582138 0
M  V30 10963 C 1045.3 -3.17368 1.2446 0
M  V30 10964 H 1046.49 -1.78874 2.40716 0
M  V30 10965 H 1044.05 -0.901867 1.27656 0
M  V30 10966 H 1044.78 -3.23109 0.277691 0
M  V30 10967 H 1044.57 -3.3433 2.04856 0
M  V30 10968 H 1046.06 -3.97345 1.28479 0
M  V30 10969 N 1046.49 -1.27344 -0.928501 0
M  V30 10970 C 1047.74 -1.13019 -1.67061 0
M  V30 10971 C 1048.06 0.323614 -1.92904 0
M  V30 10972 O 1049.26 0.587752 -2.65062 0
M  V30 10973 C 1047.72 -1.97471 -3.00887 0
M  V30 10974 C 1047.33 -3.47504 -2.82746 0
M  V30 10975 C 1049.07 -1.91792 -3.78703 0
M  V30 10976 C 1046.98 -4.24158 -4.12122 0
M  V30 10977 H 1045.91 -0.419364 -0.626618 0
M  V30 10978 H 1048.56 -1.51759 -1.03158 0
M  V30 10979 H 1046.94 -1.51576 -3.65843 0
M  V30 10980 H 1048.11 -4.01256 -2.26562 0
M  V30 10981 H 1046.43 -3.54554 -2.18359 0
M  V30 10982 H 1049.03 -2.46339 -4.74575 0
M  V30 10983 H 1049.37 -0.891375 -4.06645 0
M  V30 10984 H 1049.9 -2.35578 -3.20543 0
M  V30 10985 H 1046.64 -5.27333 -3.89359 0
M  V30 10986 H 1046.16 -3.75183 -4.67972 0
M  V30 10987 H 1047.84 -4.33288 -4.80489 0
M  V30 10988 N 1047.97 1.13488 -1.09353 0
M  V30 10989 C 1048.94 2.17066 -0.735863 0
M  V30 10990 C 1049.94 1.59086 0.234181 0
M  V30 10991 O 1051.13 1.74196 0.012463 0
M  V30 10992 C 1048.26 3.40786 -0.0880975 0
M  V30 10993 H 1049.45 2.50221 -1.65316 0
M  V30 10994 H 1047 1.28304 -0.89263 0
M  V30 10995 H 1047.74 3.1322 0.840462 0
M  V30 10996 H 1047.52 3.8414 -0.786073 0
M  V30 10997 H 1049.01 4.17342 0.146775 0
M  V30 10998 N 1049.45 0.880621 1.30701 0
M  V30 10999 C 1050.41 0.349087 2.26526 0
M  V30 11000 C 1051.41 -0.505973 1.52632 0
M  V30 11001 O 1052.6 -0.313751 1.71351 0
M  V30 11002 C 1049.74 -0.503023 3.37168 0
M  V30 11003 H 1050.93 1.19516 2.75056 0
M  V30 11004 H 1048.48 0.657107 1.41816 0
M  V30 11005 H 1049.22 -1.36986 2.93948 0
M  V30 11006 H 1049 0.109389 3.91947 0
M  V30 11007 H 1050.49 -0.866845 4.08504 0
M  V30 11008 N 1050.93 -1.4397 0.641131 0
M  V30 11009 C 1051.86 -2.33458 -0.04446 0
M  V30 11010 C 1052.84 -1.48781 -0.824507 0
M  V30 11011 O 1054.03 -1.77477 -0.788397 0
M  V30 11012 C 1051.16 -3.31989 -1.01984 0
M  V30 11013 C 1050.11 -4.2656 -0.350745 0
M  V30 11014 C 1049.44 -5.15036 -1.43673 0
M  V30 11015 C 1050.74 -5.16897 0.749299 0
M  V30 11016 H 1052.43 -2.91034 0.702832 0
M  V30 11017 H 1049.98 -1.39942 0.339435 0
M  V30 11018 H 1051.93 -3.93483 -1.50828 0
M  V30 11019 H 1050.65 -2.72643 -1.79815 0
M  V30 11020 H 1049.31 -3.66413 0.117139 0
M  V30 11021 H 1048.96 -4.52037 -2.20617 0
M  V30 11022 H 1048.66 -5.79125 -0.994358 0
M  V30 11023 H 1050.18 -5.79403 -1.92678 0
M  V30 11024 H 1051.6 -5.7227 0.343534 0
M  V30 11025 H 1049.99 -5.89643 1.11541 0
M  V30 11026 H 1051.06 -4.5731 1.61232 0
M  V30 11027 N 1052.41 -0.382291 -1.52893 0
M  V30 11028 C 1053.37 0.44408 -2.24857 0
M  V30 11029 C 1054.37 0.996004 -1.26239 0
M  V30 11030 O 1055.56 0.879114 -1.5039 0
M  V30 11031 C 1052.69 1.62234 -2.99822 0
M  V30 11032 H 1053.89 -0.185862 -2.99324 0
M  V30 11033 H 1051.44 -0.134275 -1.55722 0
M  V30 11034 H 1052.17 2.28991 -2.29638 0
M  V30 11035 H 1051.96 1.23336 -3.72197 0
M  V30 11036 H 1053.45 2.20756 -3.54481 0
M  V30 11037 N 1053.89 1.57202 -0.111913 0
M  V30 11038 C 1054.8 2.18475 0.854753 0
M  V30 11039 C 1055.81 1.15888 1.29792 0
M  V30 11040 O 1056.99 1.48329 1.36237 0
M  V30 11041 C 1054.05 2.76645 2.0897 0
M  V30 11042 C 1053.11 3.94244 1.69913 0
M  V30 11043 C 1052.35 4.49631 2.8752 0
M  V30 11044 O 1052.57 4.03926 4.02741 0
M  V30 11045 O 1051.5 5.40417 2.65015 0
M  V30 11046 H 1055.33 3.01519 0.363352 0
M  V30 11047 H 1052.91 1.4897 0.113329 0
M  V30 11048 H 1054.8 3.13755 2.81311 0
M  V30 11049 H 1053.47 1.96637 2.5713 0
M  V30 11050 H 1052.38 3.61915 0.947013 0
M  V30 11051 H 1053.71 4.75666 1.26501 0
M  V30 11052 N 1055.36 -0.161842 1.56767 0
M  V30 11053 C 1056.33 -1.18404 1.96247 0
M  V30 11054 C 1057.33 -1.3667 0.84722 0
M  V30 11055 O 1058.52 -1.33915 1.11411 0
M  V30 11056 C 1055.65 -2.54728 2.26553 0
M  V30 11057 H 1056.84 -0.845703 2.87729 0
M  V30 11058 H 1054.39 -0.404645 1.50971 0
M  V30 11059 H 1055.13 -2.93559 1.37816 0
M  V30 11060 H 1054.91 -2.42834 3.07854 0
M  V30 11061 H 1056.4 -3.28378 2.57987 0
M  V30 11062 N 1056.84 -1.516 -0.430713 0
M  V30 11063 C 1057.8 -1.72794 -1.50582 0
M  V30 11064 C 1058.8 -0.597903 -1.49271 0
M  V30 11065 O 1059.99 -0.865535 -1.51176 0
M  V30 11066 C 1057.13 -1.79049 -2.90093 0
M  V30 11067 H 1058.32 -2.68751 -1.33091 0
M  V30 11068 H 1055.87 -1.4169 -0.659822 0
M  V30 11069 H 1056.61 -0.849309 -3.12981 0
M  V30 11070 H 1056.39 -2.61181 -2.92449 0
M  V30 11071 H 1057.88 -1.97262 -3.68072 0
M  V30 11072 N 1058.32 0.686584 -1.41858 0
M  V30 11073 C 1059.55 1.47519 -1.45072 0
M  V30 11074 C 1059.96 1.88709 -0.0585868 0
M  V30 11075 O 1059.32 1.57373 0.924116 0
M  V30 11076 C 1059.37 2.73195 -2.36742 0
M  V30 11077 O 1059.09 2.33736 -3.70539 0
M  V30 11078 C 1060.59 3.66861 -2.48854 0
M  V30 11079 H 1057.81 0.454307 -0.493808 0
M  V30 11080 H 1060.36 0.844612 -1.86243 0
M  V30 11081 H 1058.51 3.32468 -1.98856 0
M  V30 11082 H 1058.93 3.14809 -4.19518 0
M  V30 11083 H 1060.4 4.51801 -3.17143 0
M  V30 11084 H 1060.88 4.11961 -1.52265 0
M  V30 11085 H 1061.48 3.13486 -2.87414 0
M  V30 11086 N 1059.8 1.27835 0.921735 0
M  V30 11087 C 1061.21 1.13151 1.48505 0
M  V30 11088 C 1061.56 -0.281373 1.94172 0
M  V30 11089 O 1060.68 -1.17487 1.8173 0
M  V30 11090 C 1061.28 2.04792 2.69899 0
M  V30 11091 C 1059.84 1.94196 3.22436 0
M  V30 11092 C 1058.99 1.96999 1.95158 0
M  V30 11093 H 1061.94 1.40641 0.735241 0
M  V30 11094 H 1061.96 1.60724 3.44889 0
M  V30 11095 H 1061.47 3.07615 2.36631 0
M  V30 11096 H 1059.57 0.943805 3.60448 0
M  V30 11097 H 1059.68 2.80744 3.88226 0
M  V30 11098 H 1058.05 1.41301 2.11911 0
M  V30 11099 H 1058.83 3.01487 1.64196 0
M  V30 11100 N 1061.28 -1.12907 1.09954 0
M  V30 11101 C 1062.51 -1.87866 0.859656 0
M  V30 11102 C 1062.91 -1.79664 -0.593096 0
M  V30 11103 O 1062.26 -1.16499 -1.42034 0
M  V30 11104 C 1062.32 -3.38055 1.22308 0
M  V30 11105 C 1061.98 -3.70035 2.68185 0
M  V30 11106 C 1062.98 -3.68817 3.66428 0
M  V30 11107 C 1060.66 -3.99523 3.04444 0
M  V30 11108 C 1062.66 -3.96639 4.98955 0
M  V30 11109 C 1060.35 -4.27006 4.37161 0
M  V30 11110 C 1061.34 -4.25549 5.34225 0
M  V30 11111 O 1061.03 -4.52354 6.64553 0
M  V30 11112 H 1060.76 -0.601425 0.308649 0
M  V30 11113 H 1063.32 -1.43817 1.46649 0
M  V30 11114 H 1061.55 -3.82634 0.559322 0
M  V30 11115 H 1063.24 -3.94348 0.961479 0
M  V30 11116 H 1064 -3.46104 3.3976 0
M  V30 11117 H 1059.88 -3.99801 2.29521 0
M  V30 11118 H 1063.43 -3.95418 5.74709 0
M  V30 11119 H 1059.32 -4.49192 4.6357 0
M  V30 11120 H 1060.09 -4.69997 6.70108 0
M  V30 11121 N 1062.75 -0.88754 -1.30232 0
M  V30 11122 C 1064 -0.506277 -1.95656 0
M  V30 11123 C 1064.32 0.948191 -1.70395 0
M  V30 11124 O 1063.59 1.66701 -1.02895 0
M  V30 11125 H 1062.17 -0.184235 -0.723924 0
M  V30 11126 H 1064.83 -1.13118 -1.58715 0
M  V30 11127 H 1063.93 -0.678673 -3.04632 0
M  V30 11128 N 1064.23 1.43628 -0.648757 0
M  V30 11129 C 1065.48 2.01083 -0.157692 0
M  V30 11130 C 1065.79 1.51756 1.23408 0
M  V30 11131 O 1067 2.01455 1.82012 0
M  V30 11132 C 1065.46 3.59157 -0.231118 0
M  V30 11133 C 1065.06 4.17478 -1.6253 0
M  V30 11134 C 1066.81 4.24016 0.202573 0
M  V30 11135 C 1064.72 5.67832 -1.6529 0
M  V30 11136 H 1063.65 0.751977 -0.0551897 0
M  V30 11137 H 1066.3 1.64648 -0.810139 0
M  V30 11138 H 1064.68 3.92972 0.488755 0
M  V30 11139 H 1065.85 3.9517 -2.37017 0
M  V30 11140 H 1064.17 3.64973 -2.00459 0
M  V30 11141 H 1066.76 5.34319 0.20174 0
M  V30 11142 H 1067.11 3.97616 1.23319 0
M  V30 11143 H 1067.64 3.95068 -0.465398 0
M  V30 11144 H 1064.38 5.98994 -2.66246 0
M  V30 11145 H 1063.9 5.92209 -0.951217 0
M  V30 11146 H 1065.58 6.3179 -1.39465 0
M  V30 11147 N 1065.71 0.390394 1.52688 0
M  V30 11148 C 1066.62 -0.451543 2.30213 0
M  V30 11149 C 1067.64 -1.07051 1.37172 0
M  V30 11150 O 1068.81 -1.07609 1.70242 0
M  V30 11151 C 1065.88 -1.56299 3.0947 0
M  V30 11152 C 1064.94 -0.969017 4.18221 0
M  V30 11153 C 1064.17 -2.0275 4.93688 0
M  V30 11154 O 1064.39 -3.24273 4.69258 0
M  V30 11155 O 1063.33 -1.64418 5.79008 0
M  V30 11156 H 1067.15 0.180042 3.03166 0
M  V30 11157 H 1064.74 0.154082 1.48603 0
M  V30 11158 H 1066.62 -2.20864 3.58883 0
M  V30 11159 H 1065.3 -2.17952 2.3933 0
M  V30 11160 H 1064.2 -0.286587 3.73001 0
M  V30 11161 H 1065.54 -0.396687 4.90599 0
M  V30 11162 N 1067.19 -1.57141 0.120249 0
M  V30 11163 C 1068.41 -2.00017 -0.548454 0
M  V30 11164 C 1068.84 -0.999433 -1.59352 0
M  V30 11165 O 1068.2 0.0286978 -1.81277 0
M  V30 11166 C 1068.24 -3.41766 -1.15015 0
M  V30 11167 O 1067.35 -3.44589 -2.26566 0
M  V30 11168 H 1066.69 -0.649739 -0.136875 0
M  V30 11169 H 1069.22 -2.03529 0.209092 0
M  V30 11170 H 1069.23 -3.80001 -1.48537 0
M  V30 11171 H 1067.9 -4.14117 -0.384681 0
M  V30 11172 H 1066.48 -3.18174 -1.94473 0
M  V30 11173 N 1068.67 0.153526 -1.5685 0
M  V30 11174 C 1069.91 0.867232 -1.8299 0
M  V30 11175 C 1070.24 1.81462 -0.700125 0
M  V30 11176 O 1069.5 1.93207 0.311348 0
M  V30 11177 C 1069.8 1.68066 -3.15418 0
M  V30 11178 C 1069.46 0.880635 -4.42217 0
M  V30 11179 C 1068.12 0.659899 -4.76654 0
M  V30 11180 C 1070.48 0.320698 -5.20212 0
M  V30 11181 C 1067.8 -0.131588 -5.86552 0
M  V30 11182 C 1070.16 -0.457794 -6.30941 0
M  V30 11183 C 1068.82 -0.689168 -6.63933 0
M  V30 11184 H 1068.09 0.317343 -0.669608 0
M  V30 11185 H 1070.74 0.131208 -1.9105 0
M  V30 11186 H 1069.04 2.4866 -3.02779 0
M  V30 11187 H 1070.74 2.23623 -3.32857 0
M  V30 11188 H 1067.33 1.06274 -4.15215 0
M  V30 11189 H 1071.51 0.47853 -4.93988 0
M  V30 11190 H 1066.77 -0.320413 -6.1056 0
M  V30 11191 H 1070.94 -0.898839 -6.90575 0
M  V30 11192 H 1068.57 -1.30433 -7.48927 0
M  V30 11193 N 1070.14 1.51827 0.422667 0
M  V30 11194 C 1071.42 1.55772 1.18299 0
M  V30 11195 C 1071.8 0.330657 2.08494 0
M  V30 11196 O 1071.15 -0.683373 2.18042 0
M  V30 11197 C 1071.36 2.87941 1.97208 0
M  V30 11198 C 1072.71 3.4044 2.53744 0
M  V30 11199 O 1073.73 2.8959 2.07403 0
M  V30 11200 O 1072.59 4.29201 3.38303 0
M  V30 11201 H 1069.68 0.626889 0.539388 0
M  V30 11202 H 1072.23 1.64147 0.430545 0
M  V30 11203 H 1071 3.68702 1.31052 0
M  V30 11204 H 1070.63 2.82795 2.79486 0
M  V30 11205 N 1071.62 -0.679052 1.4222 0
M  V30 11206 C 1072.85 -1.47248 1.46058 0
M  V30 11207 C 1073.27 -1.87962 0.0720987 0
M  V30 11208 O 1072.63 -1.5572 -0.928488 0
M  V30 11209 C 1072.68 -2.70067 2.38948 0
M  V30 11210 O 1071.78 -3.68178 1.85791 0
M  V30 11211 H 1071.12 -0.442533 0.495036 0
M  V30 11212 H 1073.65 -0.833263 1.86863 0
M  V30 11213 H 1073.66 -3.18187 2.55385 0
M  V30 11214 H 1072.34 -2.39773 3.39826 0
M  V30 11215 H 1070.92 -3.2719 1.78889 0
M  V30 11216 N 1073.1 -1.28322 -0.914942 0
M  V30 11217 C 1074.35 -1.15578 -1.66642 0
M  V30 11218 C 1074.68 0.295209 -1.91943 0
M  V30 11219 O 1073.95 1.21482 -1.51896 0
M  V30 11220 C 1074.24 -1.9535 -3.02507 0
M  V30 11221 C 1074.09 -3.48504 -2.84367 0
M  V30 11222 C 1075.41 -1.76798 -4.03027 0
M  V30 11223 H 1072.53 -0.421234 -0.604757 0
M  V30 11224 H 1075.17 -1.57625 -1.06087 0
M  V30 11225 H 1073.32 -1.59619 -3.54195 0
M  V30 11226 H 1074.99 -3.94135 -2.39699 0
M  V30 11227 H 1073.24 -3.74198 -2.1945 0
M  V30 11228 H 1073.91 -3.99576 -3.80845 0
M  V30 11229 H 1076.38 -2.07977 -3.60395 0
M  V30 11230 H 1075.26 -2.34987 -4.96057 0
M  V30 11231 H 1075.52 -0.719162 -4.36211 0
M  V30 11232 N 1074.58 1.12322 -1.10551 0
M  V30 11233 C 1075.51 2.20176 -0.777486 0
M  V30 11234 C 1076.49 1.68252 0.250069 0
M  V30 11235 O 1077.67 1.93856 0.115574 0
M  V30 11236 C 1074.8 3.46666 -0.209822 0
M  V30 11237 C 1073.76 4.11749 -1.1682 0
M  V30 11238 C 1073.08 5.32703 -0.461684 0
M  V30 11239 C 1074.38 4.57746 -2.51527 0
M  V30 11240 H 1076.08 2.47872 -1.67928 0
M  V30 11241 H 1073.62 1.19136 -0.808863 0
M  V30 11242 H 1075.58 4.21388 0.0318068 0
M  V30 11243 H 1074.3 3.18401 0.727226 0
M  V30 11244 H 1072.96 3.39009 -1.3953 0
M  V30 11245 H 1072.61 5.00706 0.479875 0
M  V30 11246 H 1072.31 5.77197 -1.1008 0
M  V30 11247 H 1073.83 6.10172 -0.228629 0
M  V30 11248 H 1075.25 5.23835 -2.32958 0
M  V30 11249 H 1073.64 5.13021 -3.11335 0
M  V30 11250 H 1074.71 3.71667 -3.11435 0
M  V30 11251 N 1076.06 0.894434 1.2976 0
M  V30 11252 C 1077 0.366586 2.2787 0
M  V30 11253 C 1077.97 -0.548425 1.56785 0
M  V30 11254 O 1079.16 -0.474804 1.84798 0
M  V30 11255 C 1076.3 -0.404531 3.42721 0
M  V30 11256 C 1075.41 0.540774 4.28602 0
M  V30 11257 C 1074.55 -0.246875 5.30626 0
M  V30 11258 C 1073.59 0.693294 6.08161 0
M  V30 11259 N 1072.72 -0.059619 7.02075 0
M  V30 11260 H 1077.56 1.20834 2.72402 0
M  V30 11261 H 1075.1 0.607205 1.33983 0
M  V30 11262 H 1077.06 -0.86762 4.08079 0
M  V30 11263 H 1075.69 -1.21078 2.99232 0
M  V30 11264 H 1074.74 1.12237 3.63465 0
M  V30 11265 H 1076.05 1.26065 4.82606 0
M  V30 11266 H 1075.21 -0.771398 6.01776 0
M  V30 11267 H 1073.94 -0.999918 4.77339 0
M  V30 11268 H 1072.95 1.22936 5.35879 0
M  V30 11269 H 1074.17 1.44558 6.63536 0
M  V30 11270 H 1072.12 -0.795026 6.51165 0
M  V30 11271 H 1072.04 0.60045 7.53612 0
M  V30 11272 H 1073.31 -0.564577 7.77453 0
M  V30 11273 N 1077.53 -1.43282 0.656365 0
M  V30 11274 C 1078.95 -1.85012 0.250475 0
M  V30 11275 C 1079.3 -1.54944 -1.20361 0
M  V30 11276 O 1078.42 -0.999983 -1.9191 0
M  V30 11277 C 1079.02 -3.35827 0.447815 0
M  V30 11278 C 1077.58 -3.76277 0.0962151 0
M  V30 11279 C 1076.72 -2.66988 0.749168 0
M  V30 11280 H 1079.67 -1.3339 0.85982 0
M  V30 11281 H 1079.69 -3.7927 -0.305726 0
M  V30 11282 H 1079.21 -3.5768 1.5062 0
M  V30 11283 H 1077.31 -3.60035 -0.959449 0
M  V30 11284 H 1077.42 -4.76227 0.523875 0
M  V30 11285 H 1075.78 -2.54048 0.18212 0
M  V30 11286 H 1076.57 -2.91669 1.81064 0
M  V30 11287 N 1079.01 -0.398486 -1.52479 0
M  V30 11288 C 1079.94 0.423498 -2.29627 0
M  V30 11289 C 1080.92 1.05547 -1.33394 0
M  V30 11290 O 1082.11 1.0665 -1.62294 0
M  V30 11291 C 1079.24 1.54612 -3.10986 0
M  V30 11292 C 1078.19 1.03971 -4.15179 0
M  V30 11293 C 1077.52 2.25512 -4.84818 0
M  V30 11294 C 1078.82 0.10121 -5.22202 0
M  V30 11295 H 1080.51 -0.220222 -2.98589 0
M  V30 11296 H 1078.06 -0.107355 -1.43599 0
M  V30 11297 H 1080.01 2.12806 -3.63719 0
M  V30 11298 H 1078.74 2.21756 -2.39774 0
M  V30 11299 H 1077.4 0.480251 -3.63441 0
M  V30 11300 H 1077.04 2.91187 -4.10145 0
M  V30 11301 H 1076.74 1.92285 -5.55248 0
M  V30 11302 H 1078.27 2.84331 -5.40359 0
M  V30 11303 H 1079.68 0.591617 -5.70239 0
M  V30 11304 H 1078.08 -0.141737 -5.99933 0
M  V30 11305 H 1079.15 -0.847216 -4.77441 0
M  V30 11306 N 1080.49 1.57075 -0.12858 0
M  V30 11307 C 1081.74 1.96599 0.52157 0
M  V30 11308 C 1082.09 1.01134 1.63675 0
M  V30 11309 O 1081.39 0.043056 1.91552 0
M  V30 11310 C 1081.58 3.40329 1.09138 0
M  V30 11311 C 1081.41 4.49688 0.0329296 0
M  V30 11312 C 1080.18 5.03697 -0.402184 0
M  V30 11313 C 1082.38 5.08778 -0.75166 0
M  V30 11314 N 1080.36 5.96642 -1.4454 0
M  V30 11315 C 1081.73 5.97756 -1.64583 0
M  V30 11316 C 1083.78 4.91407 -0.801489 0
M  V30 11317 C 1082.49 6.71225 -2.58552 0
M  V30 11318 C 1084.51 5.65564 -1.72892 0
M  V30 11319 C 1083.88 6.54236 -2.61065 0
M  V30 11320 H 1079.97 0.765414 0.160202 0
M  V30 11321 H 1082.56 1.93465 -0.218919 0
M  V30 11322 H 1080.73 3.44091 1.80155 0
M  V30 11323 H 1082.46 3.66955 1.70663 0
M  V30 11324 H 1079.22 4.73599 -0.00794396 0
M  V30 11325 H 1079.64 6.47819 -1.96622 0
M  V30 11326 H 1084.28 4.22588 -0.133909 0
M  V30 11327 H 1082 7.39285 -3.26319 0
M  V30 11328 H 1085.59 5.54125 -1.77304 0
M  V30 11329 H 1084.47 7.10612 -3.31662 0
M  V30 11330 N 1081.97 -0.145205 1.5693 0
M  V30 11331 C 1082.92 -1.17923 1.98401 0
M  V30 11332 C 1083.89 -1.42591 0.851885 0
M  V30 11333 O 1085.07 -1.54896 1.11409 0
M  V30 11334 C 1082.21 -2.50727 2.37128 0
M  V30 11335 C 1081.32 -2.33218 3.63639 0
M  V30 11336 C 1080.46 -3.5907 3.91462 0
M  V30 11337 C 1079.5 -3.36605 5.11237 0
M  V30 11338 N 1078.64 -4.54592 5.35061 0
M  V30 11339 H 1083.48 -0.818573 2.86537 0
M  V30 11340 H 1081.01 -0.392739 1.4176 0
M  V30 11341 H 1082.97 -3.28165 2.57611 0
M  V30 11342 H 1081.6 -2.84736 1.52069 0
M  V30 11343 H 1080.65 -1.46826 3.50922 0
M  V30 11344 H 1081.96 -2.12579 4.51234 0
M  V30 11345 H 1081.12 -4.44936 4.12453 0
M  V30 11346 H 1079.86 -3.82715 3.02293 0
M  V30 11347 H 1078.86 -2.49127 4.90118 0
M  V30 11348 H 1080.09 -3.14357 6.01961 0
M  V30 11349 H 1078.03 -4.78406 4.48847 0
M  V30 11350 H 1077.95 -4.36962 6.16928 0
M  V30 11351 H 1079.22 -5.41666 5.60551 0
M  V30 11352 N 1083.45 -1.52049 -0.414609 0
M  V30 11353 C 1084.7 -1.65511 -1.15977 0
M  V30 11354 C 1085.02 -0.384703 -1.91168 0
M  V30 11355 O 1084.29 0.600247 -1.86477 0
M  V30 11356 H 1082.87 -0.610039 -0.431116 0
M  V30 11357 H 1085.53 -1.8907 -0.473139 0
M  V30 11358 H 1084.62 -2.4936 -1.87686 0
M  V30 11359 N 1084.93 0.6715 -1.42579 0
M  V30 11360 C 1086.17 1.42731 -1.42516 0
M  V30 11361 C 1086.49 1.95545 -0.0462407 0
M  V30 11362 O 1087.69 2.71391 0.0769798 0
M  V30 11363 C 1086.15 2.58215 -2.50705 0
M  V30 11364 C 1085.76 2.12086 -3.94618 0
M  V30 11365 C 1087.5 3.35705 -2.59813 0
M  V30 11366 C 1085.41 3.24672 -4.9431 0
M  V30 11367 H 1084.34 0.536218 -0.530081 0
M  V30 11368 H 1086.99 0.726655 -1.68499 0
M  V30 11369 H 1085.37 3.30665 -2.17892 0
M  V30 11370 H 1086.55 1.46768 -4.36802 0
M  V30 11371 H 1084.86 1.47526 -3.89391 0
M  V30 11372 H 1087.46 4.1956 -3.31472 0
M  V30 11373 H 1087.8 3.82517 -1.64276 0
M  V30 11374 H 1088.33 2.70326 -2.91836 0
M  V30 11375 H 1085.07 2.82848 -5.91335 0
M  V30 11376 H 1084.59 3.88761 -4.56755 0
M  V30 11377 H 1086.27 3.90088 -5.16179 0
M  V30 11378 N 1086.4 1.28806 0.908124 0
M  V30 11379 C 1087.82 1.06634 1.18749 0
M  V30 11380 C 1088.02 -0.187729 2.00624 0
M  V30 11381 O 1087.08 -0.88784 2.36376 0
M  V30 11382 C 1088.39 2.31703 1.91661 0
M  V30 11383 C 1089.94 2.36939 2.04521 0
M  V30 11384 C 1090.41 3.61789 2.80843 0
M  V30 11385 N 1091.9 3.62462 2.88402 0
M  V30 11386 C 1092.64 4.55746 3.47971 0
M  V30 11387 N 1092.13 5.59353 4.08774 0
M  V30 11388 N 1093.93 4.43331 3.45564 0
M  V30 11389 H 1086.08 2.09299 0.36164 0
M  V30 11390 H 1088.34 0.921479 0.222668 0
M  V30 11391 H 1088.05 3.23096 1.38931 0
M  V30 11392 H 1087.92 2.38556 2.92183 0
M  V30 11393 H 1090.31 1.4604 2.5643 0
M  V30 11394 H 1090.39 2.34077 1.03159 0
M  V30 11395 H 1090.03 4.53035 2.29612 0
M  V30 11396 H 1089.96 3.61907 3.82532 0
M  V30 11397 H 1092.45 2.87544 2.45208 0
M  V30 11398 H 1092.77 6.26668 4.52224 0
M  V30 11399 H 1091.11 5.63173 4.07261 0
M  V30 11400 H 1094.3 3.61587 2.97276 0
M  V30 11401 H 1094.48 5.16216 3.91695 0
M  V30 11402 N 1087.88 -1.11734 1.11145 0
M  V30 11403 C 1088.81 -2.17438 0.724804 0
M  V30 11404 C 1089.83 -1.6099 -0.242069 0
M  V30 11405 O 1091.02 -1.78482 -0.0254259 0
M  V30 11406 C 1088.12 -3.38863 0.050004 0
M  V30 11407 C 1087.29 -4.24785 1.04292 0
M  V30 11408 C 1086.35 -5.24691 0.398243 0
M  V30 11409 O 1085.37 -5.59408 1.05125 0
M  V30 11410 N 1086.58 -5.74388 -0.840184 0
M  V30 11411 H 1089.34 -2.51219 1.63429 0
M  V30 11412 H 1086.9 -1.27226 1.00125 0
M  V30 11413 H 1088.89 -4.02788 -0.392929 0
M  V30 11414 H 1087.46 -3.0317 -0.762005 0
M  V30 11415 H 1086.68 -3.57363 1.6639 0
M  V30 11416 H 1087.97 -4.79033 1.71478 0
M  V30 11417 H 1087.37 -5.48359 -1.38994 0
M  V30 11418 H 1085.93 -6.40163 -1.22615 0
M  V30 11419 N 1089.36 -0.901303 -1.29284 0
M  V30 11420 C 1090.31 -0.351562 -2.25273 0
M  V30 11421 C 1091.29 0.529276 -1.51946 0
M  V30 11422 O 1092.49 0.371031 -1.73068 0
M  V30 11423 C 1089.61 0.41843 -3.4074 0
M  V30 11424 C 1088.7 -0.47742 -4.21404 0
M  V30 11425 N 1089.09 -1.58537 -4.80312 0
M  V30 11426 C 1087.39 -0.275504 -4.45148 0
M  V30 11427 C 1088.09 -2.14041 -5.40889 0
M  V30 11428 N 1087.07 -1.43324 -5.24365 0
M  V30 11429 H 1090.87 -1.1979 -2.68379 0
M  V30 11430 H 1088.38 -0.752538 -1.43912 0
M  V30 11431 H 1090.38 0.829022 -4.08574 0
M  V30 11432 H 1089.04 1.26201 -2.99171 0
M  V30 11433 H 1090.05 -1.96809 -4.79047 0
M  V30 11434 H 1086.73 0.529581 -4.14128 0
M  V30 11435 H 1088.12 -3.07173 -5.97574 0
M  V30 11436 N 1090.84 1.42931 -0.663954 0
M  V30 11437 C 1092.25 1.56098 -0.332496 0
M  V30 11438 C 1092.45 1.64564 1.16279 0
M  V30 11439 O 1091.51 1.6066 1.94794 0
M  V30 11440 C 1092.82 2.81649 -1.05329 0
M  V30 11441 C 1094.37 2.95408 -1.03457 0
M  V30 11442 C 1094.85 4.23805 -1.73647 0
M  V30 11443 N 1096.34 4.30693 -1.70462 0
M  V30 11444 C 1097.07 5.28833 -2.21637 0
M  V30 11445 N 1096.57 6.33189 -2.81147 0
M  V30 11446 N 1098.36 5.20558 -2.12075 0
M  V30 11447 H 1090.51 1.3568 -1.63416 0
M  V30 11448 H 1092.77 0.652361 -0.687844 0
M  V30 11449 H 1092.48 2.81494 -2.10842 0
M  V30 11450 H 1092.35 3.72208 -0.611626 0
M  V30 11451 H 1094.74 2.95097 0.0121936 0
M  V30 11452 H 1094.82 2.06109 -1.51502 0
M  V30 11453 H 1094.47 4.24876 -2.78285 0
M  V30 11454 H 1094.4 5.12019 -1.2306 0
M  V30 11455 H 1096.89 3.55904 -1.27046 0
M  V30 11456 H 1097.2 7.04411 -3.17844 0
M  V30 11457 H 1095.55 6.33781 -2.85212 0
M  V30 11458 H 1098.74 4.3795 -1.6528 0
M  V30 11459 H 1098.91 5.96881 -2.52264 0
M  V30 11460 N 1092.32 0.406567 1.52266 0
M  V30 11461 C 1093.56 -0.169717 2.01386 0
M  V30 11462 C 1093.88 -1.45864 1.29417 0
M  V30 11463 O 1093.15 -1.9136 0.419327 0
M  V30 11464 H 1091.73 -0.0657075 0.744105 0
M  V30 11465 H 1094.4 0.542221 1.87206 0
M  V30 11466 H 1093.49 -0.367659 3.09927 0
M  V30 11467 N 1093.79 -1.57004 0.136909 0
M  V30 11468 C 1094.74 -2.16246 -0.806607 0
M  V30 11469 C 1095.71 -1.09246 -1.25118 0
M  V30 11470 O 1096.9 -1.3724 -1.32551 0
M  V30 11471 C 1094.04 -2.78031 -2.04433 0
M  V30 11472 C 1093.15 -3.99393 -1.64649 0
M  V30 11473 C 1092.28 -4.49208 -2.83524 0
M  V30 11474 C 1091.32 -5.63059 -2.40064 0
M  V30 11475 N 1090.46 -6.07537 -3.51913 0
M  V30 11476 H 1095.3 -2.9654 -0.294596 0
M  V30 11477 H 1092.84 -1.46491 -0.133705 0
M  V30 11478 H 1094.8 -3.11992 -2.76978 0
M  V30 11479 H 1093.43 -2.00398 -2.53062 0
M  V30 11480 H 1092.48 -3.71477 -0.819077 0
M  V30 11481 H 1093.79 -4.81904 -1.28723 0
M  V30 11482 H 1092.94 -4.85171 -3.64271 0
M  V30 11483 H 1091.68 -3.65683 -3.22688 0
M  V30 11484 H 1090.69 -5.26682 -1.57754 0
M  V30 11485 H 1091.91 -6.48362 -2.01997 0
M  V30 11486 H 1089.86 -5.2695 -3.90717 0
M  V30 11487 H 1089.78 -6.84949 -3.1997 0
M  V30 11488 H 1091.04 -6.48143 -4.33048 0
M  V30 11489 N 1095.27 0.136881 -1.57004 0
M  V30 11490 C 1096.52 0.8461 -1.83536 0
M  V30 11491 C 1096.84 1.81246 -0.71937 0
M  V30 11492 O 1096.11 1.94191 0.258161 0
M  V30 11493 H 1094.69 0.315446 -0.677128 0
M  V30 11494 H 1097.35 0.128469 -1.94476 0
M  V30 11495 H 1096.45 1.40221 -2.78827 0
M  V30 11496 N 1096.75 1.52266 0.40654 0
M  V30 11497 C 1097.68 1.78755 1.50229 0
M  V30 11498 C 1098.66 0.638652 1.57655 0
M  V30 11499 O 1099.85 0.884505 1.72888 0
M  V30 11500 C 1096.98 1.94057 2.88026 0
M  V30 11501 C 1095.93 3.09667 2.95449 0
M  V30 11502 C 1095.26 3.10196 4.35526 0
M  V30 11503 C 1096.56 4.49077 2.66697 0
M  V30 11504 H 1098.25 2.70511 1.28313 0
M  V30 11505 H 1095.8 1.30167 0.615836 0
M  V30 11506 H 1097.75 2.11171 3.64671 0
M  V30 11507 H 1096.47 0.989755 3.11242 0
M  V30 11508 H 1095.13 2.92308 2.2125 0
M  V30 11509 H 1094.78 2.12831 4.55754 0
M  V30 11510 H 1094.48 3.87847 4.41416 0
M  V30 11511 H 1096 3.29443 5.14101 0
M  V30 11512 H 1097.42 4.66628 3.33064 0
M  V30 11513 H 1095.82 5.28665 2.8396 0
M  V30 11514 H 1096.89 4.56995 1.62122 0
M  V30 11515 N 1098.23 -0.663929 1.42933 0
M  V30 11516 C 1099.19 -1.75899 1.46943 0
M  V30 11517 C 1100.19 -1.5682 0.355535 0
M  V30 11518 O 1101.38 -1.62914 0.616833 0
M  V30 11519 C 1098.51 -3.14657 1.31164 0
M  V30 11520 H 1099.71 -1.73727 2.44456 0
M  V30 11521 H 1097.26 -0.874587 1.2954 0
M  V30 11522 H 1097.99 -3.22447 0.346165 0
M  V30 11523 H 1097.78 -3.29909 2.11902 0
M  V30 11524 H 1099.27 -3.9453 1.36878 0
M  V30 11525 N 1099.71 -1.29285 -0.901281 0
M  V30 11526 C 1100.67 -1.14283 -1.98676 0
M  V30 11527 C 1101.67 -0.0787641 -1.60607 0
M  V30 11528 O 1102.86 -0.325574 -1.71131 0
M  V30 11529 C 1099.99 -0.747279 -3.32609 0
M  V30 11530 H 1101.18 -2.10701 -2.13413 0
M  V30 11531 H 1098.74 -1.12449 -1.08558 0
M  V30 11532 H 1099.47 0.217111 -3.23572 0
M  V30 11533 H 1099.26 -1.51608 -3.61604 0
M  V30 11534 H 1100.75 -0.665322 -4.12266 0
M  V30 11535 N 1101.18 1.11143 -1.11736 0
M  V30 11536 C 1102.43 1.82948 -0.868127 0
M  V30 11537 C 1102.76 1.84813 0.606182 0
M  V30 11538 O 1102.01 1.29901 1.4637 0
M  V30 11539 C 1102.31 3.29733 -1.3788 0
M  V30 11540 C 1101.98 3.48025 -2.86687 0
M  V30 11541 C 1100.64 3.52725 -3.2732 0
M  V30 11542 C 1102.99 3.54024 -3.82513 0
M  V30 11543 C 1100.32 3.60983 -4.62502 0
M  V30 11544 C 1102.67 3.63814 -5.17515 0
M  V30 11545 C 1101.34 3.66776 -5.57702 0
M  V30 11546 H 1100.61 0.669452 -0.31767 0
M  V30 11547 H 1103.25 1.31057 -1.3963 0
M  V30 11548 H 1101.56 3.8414 -0.77093 0
M  V30 11549 H 1103.26 3.83787 -1.16225 0
M  V30 11550 H 1099.85 3.45039 -2.54256 0
M  V30 11551 H 1104.03 3.4965 -3.52219 0
M  V30 11552 H 1099.29 3.61554 -4.9304 0
M  V30 11553 H 1103.46 3.674 -5.916 0
M  V30 11554 H 1101.09 3.72927 -6.62442 0
M  V30 11555 N 1102.66 0.908147 1.28804 0
M  V30 11556 C 1103.59 0.409106 2.29888 0
M  V30 11557 C 1104.57 -0.520338 1.61946 0
M  V30 11558 O 1105.76 -0.429268 1.89396 0
M  V30 11559 C 1102.89 -0.35669 3.45463 0
M  V30 11560 C 1101.84 0.4831 4.25265 0
M  V30 11561 C 1101.17 -0.4107 5.3312 0
M  V30 11562 C 1102.47 1.73744 4.92555 0
M  V30 11563 H 1104.16 1.25386 2.7188 0
M  V30 11564 H 1101.71 0.604368 1.30703 0
M  V30 11565 H 1103.66 -0.71661 4.15262 0
M  V30 11566 H 1102.39 -1.2353 3.02337 0
M  V30 11567 H 1101.04 0.825464 3.57186 0
M  V30 11568 H 1100.69 -1.28769 4.86238 0
M  V30 11569 H 1100.39 0.14756 5.87415 0
M  V30 11570 H 1101.92 -0.766626 6.05768 0
M  V30 11571 H 1103.33 1.44676 5.54745 0
M  V30 11572 H 1101.73 2.23767 5.5682 0
M  V30 11573 H 1102.8 2.46853 4.17363 0
M  V30 11574 N 1104.14 -1.42577 0.671525 0
M  V30 11575 C 1105.09 -2.30798 -0.00883676 0
M  V30 11576 C 1106.06 -1.4578 -0.796076 0
M  V30 11577 O 1107.24 -1.74617 -0.768987 0
M  V30 11578 C 1104.38 -3.31581 -0.956452 0
M  V30 11579 C 1103.5 -4.31691 -0.163381 0
M  V30 11580 C 1102.63 -5.19549 -1.10645 0
M  V30 11581 C 1101.67 -6.1134 -0.304876 0
M  V30 11582 N 1100.81 -6.91761 -1.20048 0
M  V30 11583 H 1105.65 -2.88426 0.749301 0
M  V30 11584 H 1103.18 -1.42074 0.381251 0
M  V30 11585 H 1105.14 -3.88539 -1.51966 0
M  V30 11586 H 1103.77 -2.75561 -1.68126 0
M  V30 11587 H 1102.82 -3.76879 0.516396 0
M  V30 11588 H 1104.14 -4.96683 0.459099 0
M  V30 11589 H 1103.29 -5.81223 -1.73969 0
M  V30 11590 H 1102.03 -4.54726 -1.76282 0
M  V30 11591 H 1101.03 -5.48738 0.341597 0
M  V30 11592 H 1102.26 -6.78211 0.347352 0
M  V30 11593 H 1100.2 -6.2957 -1.84331 0
M  V30 11594 H 1100.12 -7.53345 -0.633003 0
M  V30 11595 H 1101.39 -7.57924 -1.82129 0
M  V30 11596 N 1105.62 -0.414636 -1.52048 0
M  V30 11597 C 1106.58 0.396285 -2.25748 0
M  V30 11598 C 1107.58 0.969003 -1.28324 0
M  V30 11599 O 1108.77 0.847016 -1.52221 0
M  V30 11600 C 1105.9 1.55838 -3.03195 0
M  V30 11601 H 1107.1 -0.249311 -2.98862 0
M  V30 11602 H 1104.65 -0.167276 -1.55402 0
M  V30 11603 H 1105.38 2.24068 -2.34444 0
M  V30 11604 H 1105.17 1.15414 -3.74729 0
M  V30 11605 H 1106.66 2.13187 -3.59084 0
M  V30 11606 N 1107.1 1.56929 -0.145233 0
M  V30 11607 C 1108.35 1.95243 0.506273 0
M  V30 11608 C 1108.66 1.0325 1.66129 0
M  V30 11609 O 1109.86 1.31135 2.37731 0
M  V30 11610 C 1108.32 3.47079 0.952042 0
M  V30 11611 C 1107.93 4.47654 -0.175947 0
M  V30 11612 C 1109.67 3.94263 1.57344 0
M  V30 11613 C 1107.58 5.90698 0.287993 0
M  V30 11614 H 1106.51 0.728906 0.192903 0
M  V30 11615 H 1109.16 1.82062 -0.229295 0
M  V30 11616 H 1107.54 3.55587 1.74282 0
M  V30 11617 H 1108.72 4.50841 -0.952848 0
M  V30 11618 H 1107.03 4.10377 -0.70564 0
M  V30 11619 H 1109.63 4.9857 1.93214 0
M  V30 11620 H 1109.97 3.35714 2.46174 0
M  V30 11621 H 1110.5 3.88665 0.847593 0
M  V30 11622 H 1107.24 6.53061 -0.564889 0
M  V30 11623 H 1106.76 5.90876 1.03081 0
M  V30 11624 H 1108.44 6.42747 0.740586 0
M  V30 11625 N 1108.58 -0.128553 1.57075 0
M  V30 11626 C 1109.82 -0.836355 1.83982 0
M  V30 11627 C 1110.14 -1.80862 0.728971 0
M  V30 11628 O 1109.41 -1.94326 -0.247859 0
M  V30 11629 H 1107.99 -0.31185 0.678792 0
M  V30 11630 H 1110.66 -0.118153 1.94542 0
M  V30 11631 H 1109.75 -1.38741 2.79567 0
M  V30 11632 N 1110.05 -1.5248 -0.398459 0
M  V30 11633 C 1111.28 -1.70677 -1.16417 0
M  V30 11634 C 1111.69 -0.420629 -1.84465 0
M  V30 11635 O 1111.03 0.614013 -1.73135 0
M  V30 11636 C 1111.1 -2.79401 -2.2622 0
M  V30 11637 C 1110.76 -4.20817 -1.78218 0
M  V30 11638 C 1111.76 -5.04298 -1.26409 0
M  V30 11639 C 1109.44 -4.67098 -1.84728 0
M  V30 11640 C 1111.44 -6.32136 -0.817461 0
M  V30 11641 C 1109.12 -5.94923 -1.39676 0
M  V30 11642 C 1110.12 -6.77272 -0.882716 0
M  V30 11643 O 1109.81 -8.02702 -0.438739 0
M  V30 11644 H 1109.54 -0.57503 -0.355411 0
M  V30 11645 H 1112.1 -1.99868 -0.473471 0
M  V30 11646 H 1110.33 -2.4561 -2.98685 0
M  V30 11647 H 1112.01 -2.86093 -2.87933 0
M  V30 11648 H 1112.78 -4.6973 -1.20744 0
M  V30 11649 H 1108.66 -4.03097 -2.23682 0
M  V30 11650 H 1112.2 -6.96361 -0.415548 0
M  V30 11651 H 1108.1 -6.28998 -1.45024 0
M  V30 11652 H 1108.87 -8.16575 -0.561079 0
M  V30 11653 N 1111.53 0.65634 -1.43283 0
M  V30 11654 C 1112.46 1.78101 -1.51004 0
M  V30 11655 C 1113.44 1.66138 -0.36498 0
M  V30 11656 O 1114.63 1.85281 -0.581778 0
M  V30 11657 C 1111.76 3.16511 -1.42961 0
M  V30 11658 C 1110.71 3.43233 -2.55685 0
M  V30 11659 C 1110.04 4.81411 -2.32696 0
M  V30 11660 C 1111.34 3.38288 -3.97943 0
M  V30 11661 H 1113.03 1.71896 -2.45137 0
M  V30 11662 H 1110.58 0.825575 -1.17984 0
M  V30 11663 H 1112.53 3.94941 -1.46968 0
M  V30 11664 H 1111.25 3.23439 -0.45332 0
M  V30 11665 H 1109.91 2.67173 -2.51026 0
M  V30 11666 H 1109.56 4.85011 -1.33317 0
M  V30 11667 H 1109.26 5.00251 -3.08257 0
M  V30 11668 H 1110.79 5.62102 -2.38481 0
M  V30 11669 H 1112.2 4.06659 -4.04106 0
M  V30 11670 H 1110.6 3.68664 -4.73505 0
M  V30 11671 H 1111.67 2.36525 -4.23301 0
M  V30 11672 N 1113.01 1.29761 0.894412 0
M  V30 11673 C 1114.26 1.17409 1.64006 0
M  V30 11674 C 1114.57 -0.272355 1.93695 0
M  V30 11675 O 1115.78 -0.517269 2.66527 0
M  V30 11676 C 1114.23 2.05379 2.95546 0
M  V30 11677 C 1113.84 3.54878 2.73433 0
M  V30 11678 C 1115.59 2.01765 3.73485 0
M  V30 11679 C 1113.49 4.34935 4.00731 0
M  V30 11680 H 1112.42 0.43583 0.615279 0
M  V30 11681 H 1115.07 1.5444 0.990983 0
M  V30 11682 H 1113.46 1.61222 3.61695 0
M  V30 11683 H 1114.63 4.07122 2.15844 0
M  V30 11684 H 1112.94 3.60218 2.08882 0
M  V30 11685 H 1115.54 2.58835 4.67877 0
M  V30 11686 H 1115.88 0.998876 4.04139 0
M  V30 11687 H 1116.42 2.43994 3.14184 0
M  V30 11688 H 1113.16 5.3747 3.75241 0
M  V30 11689 H 1112.68 3.87458 4.5786 0
M  V30 11690 H 1114.36 4.45875 4.68833 0
M  V30 11691 N 1114.49 -1.10549 1.12324 0
M  V30 11692 C 1115.9 -1.63991 0.892402 0
M  V30 11693 C 1116.25 -1.87631 -0.573506 0
M  V30 11694 O 1115.37 -1.6174 -1.43768 0
M  V30 11695 C 1115.97 -2.97914 1.61347 0
M  V30 11696 C 1114.53 -3.48227 1.42881 0
M  V30 11697 C 1113.68 -2.22857 1.65015 0
M  V30 11698 H 1116.63 -0.94065 1.27818 0
M  V30 11699 H 1116.65 -3.65326 1.06382 0
M  V30 11700 H 1116.16 -2.80677 2.68034 0
M  V30 11701 H 1114.26 -3.70611 0.384441 0
M  V30 11702 H 1114.37 -4.26419 2.18413 0
M  V30 11703 H 1112.74 -2.30941 1.07417 0
M  V30 11704 H 1113.52 -2.08152 2.72997 0
M  V30 11705 N 1115.97 -0.914965 -1.28321 0
M  V30 11706 C 1116.9 -0.421292 -2.29668 0
M  V30 11707 C 1117.88 0.511743 -1.6222 0
M  V30 11708 O 1119.06 0.419218 -1.89621 0
M  V30 11709 C 1116.19 0.338364 -3.45648 0
M  V30 11710 C 1115.15 -0.505646 -4.25003 0
M  V30 11711 C 1114.47 0.382421 -5.33331 0
M  V30 11712 C 1115.77 -1.76354 -4.91626 0
M  V30 11713 H 1117.47 -1.26826 -2.71211 0
M  V30 11714 H 1115.01 -0.611291 -1.30381 0
M  V30 11715 H 1116.96 0.694578 -4.15636 0
M  V30 11716 H 1115.69 1.21925 -3.02988 0
M  V30 11717 H 1114.35 -0.844395 -3.56743 0
M  V30 11718 H 1114 1.26189 -4.86914 0
M  V30 11719 H 1113.7 -0.17871 -5.87328 0
M  V30 11720 H 1115.22 0.73449 -6.06166 0
M  V30 11721 H 1116.63 -1.47616 -5.5397 0
M  V30 11722 H 1115.03 -2.26717 -5.55625 0
M  V30 11723 H 1116.1 -2.49063 -4.16048 0
M  V30 11724 N 1117.44 1.42219 -0.679077 0
M  V30 11725 C 1118.38 2.28152 0.0468359 0
M  V30 11726 C 1119.35 1.41307 0.804433 0
M  V30 11727 O 1120.54 1.70744 0.798673 0
M  V30 11728 C 1117.67 3.21236 1.07355 0
M  V30 11729 C 1116.71 4.24515 0.411042 0
M  V30 11730 S 1117.54 5.28958 -0.834506 0
M  V30 11731 C 1118.7 6.25608 0.191029 0
M  V30 11732 H 1118.93 2.89371 -0.682045 0
M  V30 11733 H 1116.47 1.47112 -0.468767 0
M  V30 11734 H 1118.42 3.75402 1.66082 0
M  V30 11735 H 1117.09 2.59145 1.7749 0
M  V30 11736 H 1116.28 4.89849 1.1859 0
M  V30 11737 H 1115.88 3.73859 -0.102742 0
M  V30 11738 H 1118.17 6.69323 1.04944 0
M  V30 11739 H 1119.12 7.06806 -0.427959 0
M  V30 11740 H 1119.52 5.61926 0.538422 0
M  V30 11741 N 1118.92 0.422693 1.51826 0
M  V30 11742 C 1120.2 -0.20786 1.94492 0
M  V30 11743 C 1120.58 -1.61414 1.36047 0
M  V30 11744 O 1119.93 -2.21987 0.541657 0
M  V30 11745 C 1120.14 -0.200457 3.48424 0
M  V30 11746 C 1121.48 -0.413199 4.22585 0
M  V30 11747 O 1122.51 -0.27922 3.55104 0
M  V30 11748 O 1121.37 -0.678469 5.42272 0
M  V30 11749 H 1118.46 -0.137851 0.81543 0
M  V30 11750 H 1121.01 0.479617 1.62781 0
M  V30 11751 H 1119.78 0.783263 3.83381 0
M  V30 11752 H 1119.4 -0.931464 3.86535 0
M  V30 11753 N 1120.4 -1.5685 0.153553 0
M  V30 11754 C 1121.36 -2.15894 -0.769564 0
M  V30 11755 C 1122.36 -1.10239 -1.17064 0
M  V30 11756 O 1123.55 -1.35845 -1.09049 0
M  V30 11757 C 1120.68 -2.72738 -2.04516 0
M  V30 11758 H 1121.88 -2.98807 -0.255842 0
M  V30 11759 H 1119.43 -1.56005 -0.0959279 0
M  V30 11760 H 1120.17 -1.9351 -2.60239 0
M  V30 11761 H 1119.95 -3.50042 -1.76672 0
M  V30 11762 H 1121.44 -3.18208 -2.70432 0
M  V30 11763 N 1121.88 0.120221 -1.57141 0
M  V30 11764 C 1122.79 1.16641 -2.03549 0
M  V30 11765 C 1123.8 1.45407 -0.955656 0
M  V30 11766 O 1124.98 1.56547 -1.26708 0
M  V30 11767 C 1122.04 2.4734 -2.42948 0
M  V30 11768 C 1121.11 2.25982 -3.65008 0
M  V30 11769 C 1120.34 3.50449 -4.02518 0
M  V30 11770 O 1120.56 4.57706 -3.40384 0
M  V30 11771 O 1119.5 3.41524 -4.95626 0
M  V30 11772 H 1123.32 0.802323 -2.9291 0
M  V30 11773 H 1120.91 0.330927 -1.45689 0
M  V30 11774 H 1122.79 3.24348 -2.69029 0
M  V30 11775 H 1121.46 2.83225 -1.56733 0
M  V30 11776 H 1120.37 1.46837 -3.44078 0
M  V30 11777 H 1121.7 1.95002 -4.51924 0
M  V30 11778 N 1123.36 1.52689 0.390367 0
M  V30 11779 C 1124.59 1.71292 1.1551 0
M  V30 11780 C 1124.99 0.430405 1.84239 0
M  V30 11781 O 1124.34 -0.604823 1.73458 0
M  V30 11782 C 1124.4 2.80597 2.24735 0
M  V30 11783 C 1124.06 4.21757 1.75984 0
M  V30 11784 C 1125.06 5.04961 1.23733 0
M  V30 11785 C 1122.75 4.68071 1.82248 0
M  V30 11786 C 1124.74 6.32561 0.783926 0
M  V30 11787 C 1122.43 5.95656 1.36519 0
M  V30 11788 C 1123.42 6.7773 0.846786 0
M  V30 11789 O 1123.11 8.02923 0.396164 0
M  V30 11790 H 1122.84 0.576906 0.352356 0
M  V30 11791 H 1125.4 2.00117 0.462865 0
M  V30 11792 H 1123.63 2.4719 2.97378 0
M  V30 11793 H 1125.32 2.87616 2.86412 0
M  V30 11794 H 1126.08 4.70363 1.18251 0
M  V30 11795 H 1121.96 4.04278 2.21541 0
M  V30 11796 H 1125.51 6.96572 0.378612 0
M  V30 11797 H 1121.4 6.29758 1.41686 0
M  V30 11798 H 1122.17 8.16861 0.517766 0
M  V30 11799 N 1124.83 -0.648732 1.43629 0
M  V30 11800 C 1125.8 -1.74331 1.488 0
M  V30 11801 C 1126.8 -1.56434 0.372147 0
M  V30 11802 O 1127.99 -1.6225 0.634078 0
M  V30 11803 C 1125.12 -3.13248 1.34494 0
M  V30 11804 H 1126.31 -1.71125 2.46285 0
M  V30 11805 H 1123.87 -0.860798 1.30461 0
M  V30 11806 H 1124.6 -3.22062 0.380345 0
M  V30 11807 H 1124.39 -3.27643 2.15389 0
M  V30 11808 H 1125.88 -3.93056 1.41055 0
M  V30 11809 N 1126.31 -1.30234 -0.887518 0
M  V30 11810 C 1127.26 -1.16302 -2.01436 0
M  V30 11811 C 1128.25 -0.0755422 -1.69231 0
M  V30 11812 O 1129.46 -0.236213 -1.78443 0
M  V30 11813 H 1125.84 -0.35961 -0.660443 0
M  V30 11814 H 1127.81 -2.11677 -2.10322 0
M  V30 11815 C 1126.56 -0.869009 -3.36665 0
M  V30 11816 H 1125.88 -1.69787 -3.61956 0
M  V30 11817 H 1127.32 -0.811621 -4.16159 0
M  V30 11818 C 1125.78 0.428021 -3.3417 0
M  V30 11819 O 1126.31 1.45033 -3.74604 0
M  V30 11820 N 1124.51 0.438264 -2.87276 0
M  V30 11821 H 1124.06 -0.394142 -2.54567 0
M  V30 11822 H 1124.02 1.30604 -2.85989 0
M  V30 11823 N 1127.79 1.09952 -1.12909 0
M  V30 11824 C 1129.02 1.8552 -0.909163 0
M  V30 11825 C 1129.43 1.81173 0.545253 0
M  V30 11826 O 1128.77 1.20223 1.38896 0
M  V30 11827 C 1128.83 3.34693 -1.31228 0
M  V30 11828 C 1128.5 3.62794 -2.77902 0
M  V30 11829 C 1129.49 3.58973 -3.76078 0
M  V30 11830 C 1127.18 3.91311 -3.1493 0
M  V30 11831 C 1129.17 3.83271 -5.09296 0
M  V30 11832 C 1126.86 4.15265 -4.48328 0
M  V30 11833 C 1127.86 4.11236 -5.4532 0
M  V30 11834 O 1127.55 4.34576 -6.76313 0
M  V30 11835 H 1127.28 0.59303 -0.324486 0
M  V30 11836 H 1129.83 1.39878 -1.5041 0
M  V30 11837 H 1128.06 3.81016 -0.660573 0
M  V30 11838 H 1129.75 3.9166 -1.06569 0
M  V30 11839 H 1130.52 3.36974 -3.48817 0
M  V30 11840 H 1126.4 3.93575 -2.40041 0
M  V30 11841 H 1129.94 3.80041 -5.84991 0
M  V30 11842 H 1125.84 4.36743 -4.75316 0
M  V30 11843 H 1126.61 4.52065 -6.82334 0
M  V30 11844 N 1129.27 0.921757 1.27833 0
M  V30 11845 C 1130.5 0.574368 1.98455 0
M  V30 11846 C 1130.91 -0.850577 1.69002 0
M  V30 11847 O 1130.25 -1.57607 0.943708 0
M  V30 11848 C 1130.31 0.713235 3.52354 0
M  V30 11849 C 1129.98 2.1092 4.05415 0
M  V30 11850 C 1130.97 3.08276 4.18643 0
M  V30 11851 C 1128.66 2.42454 4.3991 0
M  V30 11852 C 1130.65 4.35279 4.6563 0
M  V30 11853 C 1128.34 3.69694 4.8659 0
M  V30 11854 C 1129.34 4.6592 4.99407 0
M  V30 11855 O 1129.02 5.90896 5.45066 0
M  V30 11856 H 1128.76 0.216955 0.640239 0
M  V30 11857 H 1131.31 1.23932 1.63798 0
M  V30 11858 H 1129.54 -0.00881115 3.86699 0
M  V30 11859 H 1131.23 0.371776 4.04194 0
M  V30 11860 H 1132 2.85234 3.92258 0
M  V30 11861 H 1127.87 1.68303 4.2918 0
M  V30 11862 H 1131.42 5.10391 4.75549 0
M  V30 11863 H 1127.32 3.92557 5.12415 0
M  V30 11864 H 1128.08 5.938 5.63333 0
M  V30 11865 N 1130.75 -1.41857 0.686609 0
M  V30 11866 C 1131.97 -2.05699 0.222561 0
M  V30 11867 C 1132.39 -1.51636 -1.12481 0
M  V30 11868 O 1131.75 -0.660925 -1.70112 0
M  V30 11869 C 1131.8 -3.61138 0.161818 0
M  V30 11870 O 1131.52 -4.13199 1.45596 0
M  V30 11871 C 1133.02 -4.42112 -0.324304 0
M  V30 11872 H 1130.24 -0.662665 0.10543 0
M  V30 11873 H 1132.78 -1.81788 0.936671 0
M  V30 11874 H 1130.94 -3.8412 -0.503056 0
M  V30 11875 H 1131.35 -5.0717 1.33712 0
M  V30 11876 H 1132.83 -5.51097 -0.315694 0
M  V30 11877 H 1133.3 -4.1756 -1.36164 0
M  V30 11878 H 1133.91 -4.24174 0.309251 0
M  V30 11879 N 1132.22 -0.430739 -1.51599 0
M  V30 11880 C 1133.64 -0.0826902 -1.59386 0
M  V30 11881 C 1133.84 1.40729 -1.44214 0
M  V30 11882 O 1132.9 2.1765 -1.28002 0
M  V30 11883 C 1134.21 -0.59691 -2.94716 0
M  V30 11884 C 1135.76 -0.556772 -3.08008 0
M  V30 11885 C 1136.23 -1.04786 -4.45852 0
M  V30 11886 N 1137.72 -1.00557 -4.52153 0
M  V30 11887 C 1138.46 -1.35649 -5.57124 0
M  V30 11888 N 1137.95 -1.77994 -6.69545 0
M  V30 11889 N 1139.75 -1.27508 -5.47447 0
M  V30 11890 H 1131.9 -1.40027 -1.59707 0
M  V30 11891 H 1134.16 -0.576606 -0.752482 0
M  V30 11892 H 1133.87 -1.63914 -3.11167 0
M  V30 11893 H 1133.74 -0.0182342 -3.77196 0
M  V30 11894 H 1136.13 0.476457 -2.91228 0
M  V30 11895 H 1136.21 -1.17177 -2.27383 0
M  V30 11896 H 1135.85 -2.07952 -4.63377 0
M  V30 11897 H 1135.78 -0.409461 -5.25006 0
M  V30 11898 H 1138.27 -0.694518 -3.71463 0
M  V30 11899 H 1138.59 -2.03026 -7.45654 0
M  V30 11900 H 1136.93 -1.81916 -6.70769 0
M  V30 11901 H 1140.12 -0.942969 -4.58504 0
M  V30 11902 H 1140.3 -1.55185 -6.29143 0
M  V30 11903 N 1133.7 1.56767 -0.161869 0
M  V30 11904 C 1134.61 2.21083 0.784814 0
M  V30 11905 C 1135.63 1.19959 1.26039 0
M  V30 11906 O 1136.8 1.52588 1.31449 0
M  V30 11907 C 1133.87 2.83153 2.00063 0
M  V30 11908 C 1132.93 3.9945 1.57285 0
M  V30 11909 C 1132.16 4.5855 2.7307 0
M  V30 11910 O 1132.39 4.16534 3.89686 0
M  V30 11911 O 1131.32 5.48575 2.47688 0
M  V30 11912 H 1135.15 3.02522 0.267243 0
M  V30 11913 H 1132.73 1.49255 0.0658783 0
M  V30 11914 H 1134.61 3.22546 2.71186 0
M  V30 11915 H 1133.29 2.04718 2.50744 0
M  V30 11916 H 1132.2 3.64745 0.831393 0
M  V30 11917 H 1133.53 4.7945 1.11304 0
M  V30 11918 N 1135.18 -0.111886 1.57202 0
M  V30 11919 C 1136.43 -0.819623 1.85499 0
M  V30 11920 C 1136.76 -1.7919 0.748629 0
M  V30 11921 O 1136.03 -1.92952 -0.244918 0
M  V30 11922 C 1136.32 -1.56324 3.24399 0
M  V30 11923 C 1136.17 -0.610081 4.45643 0
M  V30 11924 C 1137.49 -2.51777 3.60966 0
M  V30 11925 H 1134.61 -0.296512 0.674722 0
M  V30 11926 H 1137.25 -0.0836741 1.89816 0
M  V30 11927 H 1135.4 -2.1906 3.2085 0
M  V30 11928 H 1137.07 0.00898038 4.61299 0
M  V30 11929 H 1135.32 0.0778488 4.3373 0
M  V30 11930 H 1135.99 -1.16718 5.39519 0
M  V30 11931 H 1138.46 -1.99143 3.65351 0
M  V30 11932 H 1137.34 -3.00835 4.59118 0
M  V30 11933 H 1137.6 -3.34769 2.8876 0
M  V30 11934 N 1136.66 -1.52894 -0.382264 0
M  V30 11935 C 1137.59 -1.7291 -1.48921 0
M  V30 11936 C 1138.57 -0.577056 -1.52016 0
M  V30 11937 O 1139.75 -0.807667 -1.7032 0
M  V30 11938 C 1136.88 -1.79281 -2.87361 0
M  V30 11939 C 1135.93 -3.01099 -3.02063 0
M  V30 11940 S 1136.76 -4.60947 -2.72558 0
M  V30 11941 C 1137.92 -4.70144 -4.13178 0
M  V30 11942 H 1138.15 -2.66529 -1.31718 0
M  V30 11943 H 1135.68 -1.43271 -0.575563 0
M  V30 11944 H 1137.64 -1.83637 -3.67134 0
M  V30 11945 H 1136.3 -0.867428 -3.01885 0
M  V30 11946 H 1135.49 -3.02117 -4.03412 0
M  V30 11947 H 1135.1 -2.94769 -2.3019 0
M  V30 11948 H 1137.39 -4.49173 -5.07198 0
M  V30 11949 H 1138.33 -5.72166 -4.17172 0
M  V30 11950 H 1138.74 -3.98923 -3.99401 0
M  V30 11951 N 1138.14 0.641106 -1.43971 0
M  V30 11952 C 1139.07 1.76489 -1.52885 0
M  V30 11953 C 1140.05 1.65742 -0.38258 0
M  V30 11954 O 1141.23 1.84653 -0.601397 0
M  V30 11955 C 1138.36 3.14977 -1.4631 0
M  V30 11956 C 1137.32 3.40502 -2.59311 0
M  V30 11957 C 1136.64 4.78916 -2.37789 0
M  V30 11958 C 1137.94 3.34048 -4.01509 0
M  V30 11959 H 1139.64 1.69286 -2.46946 0
M  V30 11960 H 1137.18 0.813015 -1.18853 0
M  V30 11961 H 1139.14 3.9336 -1.51149 0
M  V30 11962 H 1137.86 3.2294 -0.487599 0
M  V30 11963 H 1136.52 2.64495 -2.53846 0
M  V30 11964 H 1136.17 4.8357 -1.38454 0
M  V30 11965 H 1135.87 4.96954 -3.13545 0
M  V30 11966 H 1137.39 5.59541 -2.4443 0
M  V30 11967 H 1138.81 4.0235 -4.08396 0
M  V30 11968 H 1137.2 3.63622 -4.77388 0
M  V30 11969 H 1138.27 2.32022 -4.25786 0
M  V30 11970 N 1139.62 1.30703 0.880598 0
M  V30 11971 C 1140.86 1.19142 1.62752 0
M  V30 11972 C 1141.18 -0.251795 1.93973 0
M  V30 11973 O 1142.38 -0.488971 2.67061 0
M  V30 11974 C 1140.84 2.08503 2.93351 0
M  V30 11975 C 1140.45 3.57758 2.69653 0
M  V30 11976 C 1142.19 2.05715 3.71324 0
M  V30 11977 C 1140.1 4.39161 3.96096 0
M  V30 11978 H 1139.03 0.442332 0.610622 0
M  V30 11979 H 1141.68 1.55483 0.974547 0
M  V30 11980 H 1140.06 1.65049 3.59965 0
M  V30 11981 H 1141.24 4.09388 2.11513 0
M  V30 11982 H 1139.55 3.62414 2.0505 0
M  V30 11983 H 1142.15 2.63783 4.65105 0
M  V30 11984 H 1142.49 1.04168 4.03057 0
M  V30 11985 H 1143.02 2.47313 3.11579 0
M  V30 11986 H 1139.76 5.4142 3.69519 0
M  V30 11987 H 1139.28 3.92293 4.53725 0
M  V30 11988 H 1140.96 4.50823 4.64077 0
M  V30 11989 N 1141.09 -1.09351 1.1349 0
M  V30 11990 C 1142.02 -2.18037 0.835588 0
M  V30 11991 C 1143 -1.68856 -0.205373 0
M  V30 11992 O 1144.19 -1.94094 -0.0641357 0
M  V30 11993 C 1141.32 -3.45987 0.301661 0
M  V30 11994 C 1140.27 -4.08507 1.27696 0
M  V30 11995 C 1139.6 -5.31292 0.602758 0
M  V30 11996 C 1140.9 -4.50916 2.63575 0
M  V30 11997 H 1142.59 -2.43332 1.74441 0
M  V30 11998 H 1140.14 -1.1695 0.840166 0
M  V30 11999 H 1142.09 -4.21324 0.079928 0
M  V30 12000 H 1140.82 -3.20217 -0.642552 0
M  V30 12001 H 1139.48 -3.3519 1.4847 0
M  V30 12002 H 1139.12 -5.01802 -0.346953 0
M  V30 12003 H 1138.82 -5.74075 1.25345 0
M  V30 12004 H 1140.35 -6.09351 0.390325 0
M  V30 12005 H 1141.76 -5.17474 2.46765 0
M  V30 12006 H 1140.16 -5.04586 3.24827 0
M  V30 12007 H 1141.23 -3.63279 3.2118 0
M  V30 12008 N 1142.57 -0.928524 -1.27343 0
M  V30 12009 C 1143.82 -0.565207 -1.93619 0
M  V30 12010 C 1144.13 0.897988 -1.73769 0
M  V30 12011 O 1145.34 1.37012 -2.34393 0
M  V30 12012 C 1143.8 -0.960052 -3.46859 0
M  V30 12013 C 1143.4 -2.44399 -3.75464 0
M  V30 12014 C 1145.15 -0.668026 -4.19211 0
M  V30 12015 C 1143.05 -2.77819 -5.22083 0
M  V30 12016 H 1141.98 -0.207665 -0.724839 0
M  V30 12017 H 1144.64 -1.12945 -1.44623 0
M  V30 12018 H 1143.02 -0.324454 -3.94669 0
M  V30 12019 H 1144.19 -3.12756 -3.38408 0
M  V30 12020 H 1142.51 -2.70799 -3.16317 0
M  V30 12021 H 1145.1 -0.894207 -5.2717 0
M  V30 12022 H 1145.45 0.394788 -4.14424 0
M  V30 12023 H 1145.98 -1.26276 -3.77226 0
M  V30 12024 H 1142.72 -3.83013 -5.3196 0
M  V30 12025 H 1142.24 -2.14112 -5.60282 0
M  V30 12026 H 1143.92 -2.65607 -5.89968 0
M  V30 12027 N 1144.05 1.41491 -0.694123 0
M  V30 12028 C 1145.47 1.55358 -0.365532 0
M  V30 12029 C 1145.67 1.66994 1.12762 0
M  V30 12030 O 1144.72 1.64756 1.91342 0
M  V30 12031 C 1146.03 2.79352 -1.11279 0
M  V30 12032 C 1147.58 2.93147 -1.097 0
M  V30 12033 C 1148.06 4.20027 -1.82597 0
M  V30 12034 N 1149.55 4.26981 -1.7956 0
M  V30 12035 C 1150.28 5.24013 -2.32805 0
M  V30 12036 N 1149.78 6.27083 -2.94515 0
M  V30 12037 N 1151.57 5.15943 -2.23069 0
M  V30 12038 H 1143.72 1.32183 -1.66257 0
M  V30 12039 H 1145.99 0.637624 -0.701527 0
M  V30 12040 H 1145.69 2.76958 -2.16765 0
M  V30 12041 H 1145.57 3.70827 -0.690439 0
M  V30 12042 H 1147.95 2.95057 -0.0504037 0
M  V30 12043 H 1148.03 2.02849 -1.55839 0
M  V30 12044 H 1147.68 4.18878 -2.87235 0
M  V30 12045 H 1147.61 5.09294 -1.33893 0
M  V30 12046 H 1150.1 3.53129 -1.34567 0
M  V30 12047 H 1150.41 6.97511 -3.32714 0
M  V30 12048 H 1148.76 6.27589 -2.98592 0
M  V30 12049 H 1151.95 4.34346 -1.74532 0
M  V30 12050 H 1152.12 5.91396 -2.64868 0
M  V30 12051 N 1145.53 0.438773 1.51369 0
M  V30 12052 C 1146.44 -0.378074 2.31534 0
M  V30 12053 C 1147.45 -1.02632 1.40508 0
M  V30 12054 O 1148.63 -1.02138 1.73579 0
M  V30 12055 C 1145.69 -1.46374 3.14286 0
M  V30 12056 C 1144.76 -0.835473 4.21092 0
M  V30 12057 C 1143.99 -1.86941 4.99889 0
M  V30 12058 O 1144.21 -3.0918 4.79337 0
M  V30 12059 O 1143.15 -1.45914 5.83946 0
M  V30 12060 H 1146.97 0.276401 3.0244 0
M  V30 12061 H 1144.56 0.201281 1.48038 0
M  V30 12062 H 1146.44 -2.09335 3.65728 0
M  V30 12063 H 1145.11 -2.10227 2.46143 0
M  V30 12064 H 1144.02 -0.167775 3.73724 0
M  V30 12065 H 1145.35 -0.240406 4.91613 0
M  V30 12066 N 1147.01 -1.56678 0.170181 0
M  V30 12067 C 1148.25 -1.96849 -0.475064 0
M  V30 12068 C 1148.58 -1.05611 -1.6333 0
M  V30 12069 O 1147.84 -0.0899708 -1.95493 0
M  V30 12070 C 1148.13 -3.43103 -1.00076 0
M  V30 12071 C 1147.8 -4.50881 0.0414538 0
M  V30 12072 C 1146.46 -4.80082 0.327894 0
M  V30 12073 C 1148.81 -5.15791 0.748936 0
M  V30 12074 C 1146.14 -5.71491 1.32722 0
M  V30 12075 C 1148.49 -6.08278 1.73724 0
M  V30 12076 C 1147.16 -6.35847 2.03114 0
M  V30 12077 H 1146.43 -0.72032 -0.173838 0
M  V30 12078 H 1149.08 -1.89701 0.261903 0
M  V30 12079 H 1147.38 -3.47197 -1.81553 0
M  V30 12080 H 1149.08 -3.71525 -1.50899 0
M  V30 12081 H 1145.67 -4.2817 -0.191976 0
M  V30 12082 H 1149.85 -4.93344 0.540852 0
M  V30 12083 H 1145.11 -5.91134 1.56112 0
M  V30 12084 H 1149.28 -6.57643 2.29082 0
M  V30 12085 H 1146.91 -7.06479 2.80698 0
M  V30 12086 N 1148.48 0.103547 -1.57259 0
M  V30 12087 C 1149.42 1.15225 -1.98131 0
M  V30 12088 C 1150.43 1.36793 -0.882692 0
M  V30 12089 O 1151.62 1.35595 -1.16088 0
M  V30 12090 C 1148.72 2.50941 -2.27776 0
M  V30 12091 C 1147.89 2.49765 -3.59077 0
M  V30 12092 C 1146.95 3.67344 -3.76756 0
M  V30 12093 O 1145.98 3.50221 -4.48702 0
M  V30 12094 N 1147.18 4.86504 -3.16692 0
M  V30 12095 H 1149.94 0.804448 -2.88702 0
M  V30 12096 H 1147.5 0.292636 -1.59233 0
M  V30 12097 H 1149.5 3.28186 -2.36804 0
M  V30 12098 H 1148.07 2.77843 -1.43255 0
M  V30 12099 H 1147.29 1.58125 -3.61096 0
M  V30 12100 H 1148.57 2.4605 -4.4535 0
M  V30 12101 H 1147.97 5.03319 -2.58236 0
M  V30 12102 H 1146.53 5.61371 -3.31218 0
M  V30 12103 N 1149.96 1.53094 0.37415 0
M  V30 12104 C 1151.19 1.73061 1.143 0
M  V30 12105 C 1151.61 0.454611 1.82524 0
M  V30 12106 O 1150.97 -0.590743 1.71406 0
M  V30 12107 C 1151.02 2.89086 2.15549 0
M  V30 12108 O 1150.12 2.57096 3.22452 0
M  V30 12109 H 1149.46 0.575009 0.332055 0
M  V30 12110 H 1151.99 1.99946 0.433897 0
M  V30 12111 H 1152 3.15007 2.59296 0
M  V30 12112 H 1150.68 3.81647 1.65283 0
M  V30 12113 H 1149.25 2.41965 2.83738 0
M  V30 12114 N 1151.44 -0.633461 1.44309 0
M  V30 12115 C 1152.85 -1.21504 1.41752 0
M  V30 12116 C 1153.2 -1.95758 0.131667 0
M  V30 12117 O 1152.33 -2.02311 -0.768072 0
M  V30 12118 C 1152.92 -2.21005 2.56792 0
M  V30 12119 C 1151.48 -2.74596 2.57438 0
M  V30 12120 C 1150.63 -1.49555 2.33513 0
M  V30 12121 H 1153.58 -0.424277 1.52923 0
M  V30 12122 H 1153.6 -3.03563 2.29412 0
M  V30 12123 H 1153.11 -1.66934 3.50364 0
M  V30 12124 H 1151.21 -3.32676 1.67801 0
M  V30 12125 H 1151.33 -3.20794 3.55849 0
M  V30 12126 H 1149.69 -1.77605 1.82561 0
M  V30 12127 H 1150.47 -0.973899 3.29196 0
M  V30 12128 N 1152.92 -1.31168 -0.873655 0
M  V30 12129 C 1154.2 -1.11285 -1.60857 0
M  V30 12130 C 1154.58 0.333788 -2.08444 0
M  V30 12131 O 1153.92 1.32726 -1.86 0
M  V30 12132 C 1154.13 -2.12379 -2.7694 0
M  V30 12133 C 1155.48 -2.44704 -3.46994 0
M  V30 12134 O 1156.51 -2.10778 -2.87143 0
M  V30 12135 O 1155.36 -3.02786 -4.54954 0
M  V30 12136 H 1152.46 -0.428177 -0.707526 0
M  V30 12137 H 1155 -1.42634 -0.91944 0
M  V30 12138 H 1153.78 -3.09703 -2.39164 0
M  V30 12139 H 1153.4 -1.81914 -3.53544 0
M  V30 12140 N 1154.4 1.08748 -1.14068 0
M  V30 12141 C 1155.31 2.19123 -0.837998 0
M  V30 12142 C 1156.32 1.73065 0.180164 0
M  V30 12143 O 1157.5 2.01398 0.00952285 0
M  V30 12144 C 1154.56 3.45257 -0.316 0
M  V30 12145 C 1153.62 4.05959 -1.39628 0
M  V30 12146 C 1152.86 5.26072 -0.899095 0
M  V30 12147 O 1153.08 5.69804 0.260744 0
M  V30 12148 O 1152.01 5.7808 -1.67652 0
M  V30 12149 H 1155.84 2.4748 -1.76033 0
M  V30 12150 H 1153.43 1.17816 -0.918675 0
M  V30 12151 H 1155.31 4.21389 -0.0306425 0
M  V30 12152 H 1153.98 3.18486 0.578654 0
M  V30 12153 H 1152.89 3.31432 -1.73505 0
M  V30 12154 H 1154.22 4.36971 -2.26533 0
M  V30 12155 N 1155.87 0.935264 1.26849 0
M  V30 12156 C 1156.78 0.446122 2.30319 0
M  V30 12157 C 1157.8 -0.476965 1.67335 0
M  V30 12158 O 1158.98 -0.357934 1.98194 0
M  V30 12159 C 1156.04 -0.286297 3.45516 0
M  V30 12160 C 1155.1 0.672626 4.23998 0
M  V30 12161 C 1154.34 -0.0249345 5.33694 0
M  V30 12162 O 1154.56 -1.24296 5.56693 0
M  V30 12163 O 1153.49 0.650752 5.98372 0
M  V30 12164 H 1157.32 1.30546 2.74211 0
M  V30 12165 H 1154.9 0.70091 1.31938 0
M  V30 12166 H 1156.79 -0.699109 4.1556 0
M  V30 12167 H 1155.46 -1.12112 3.03665 0
M  V30 12168 H 1154.37 1.13527 3.56458 0
M  V30 12169 H 1155.7 1.47489 4.69583 0
M  V30 12170 N 1157.35 -1.41121 0.701616 0
M  V30 12171 C 1158.29 -2.28198 -0.010533 0
M  V30 12172 C 1159.26 -1.42569 -0.78185 0
M  V30 12173 O 1160.45 -1.71993 -0.771408 0
M  V30 12174 C 1157.57 -3.22903 -1.02231 0
M  V30 12175 C 1156.62 -4.25115 -0.343454 0
M  V30 12176 S 1157.45 -5.27563 0.918553 0
M  V30 12177 C 1158.61 -6.25833 -0.0914763 0
M  V30 12178 H 1158.84 -2.88249 0.727995 0
M  V30 12179 H 1156.38 -1.46348 0.492112 0
M  V30 12180 H 1158.33 -3.77997 -1.60089 0
M  V30 12181 H 1156.99 -2.61936 -1.73345 0
M  V30 12182 H 1156.19 -4.91674 -1.10782 0
M  V30 12183 H 1155.79 -3.73648 0.162206 0
M  V30 12184 H 1158.08 -6.70908 -0.942826 0
M  V30 12185 H 1159.02 -7.06035 0.540351 0
M  V30 12186 H 1159.43 -5.62712 -0.448956 0
M  V30 12187 N 1158.83 -0.446794 -1.51134 0
M  V30 12188 C 1159.78 0.359865 -2.27977 0
M  V30 12189 C 1160.75 1.0086 -1.31972 0
M  V30 12190 O 1161.93 1.02569 -1.60886 0
M  V30 12191 C 1159.07 1.44978 -3.1317 0
M  V30 12192 C 1158.19 0.818243 -4.2418 0
M  V30 12193 C 1157.32 1.884 -4.96668 0
M  V30 12194 C 1156.36 1.2314 -5.99586 0
M  V30 12195 N 1155.5 2.23894 -6.65444 0
M  V30 12196 H 1160.34 -0.301775 -2.96468 0
M  V30 12197 H 1157.87 -0.160666 -1.4622 0
M  V30 12198 H 1159.83 2.09308 -3.60896 0
M  V30 12199 H 1158.46 2.08092 -2.46775 0
M  V30 12200 H 1157.51 0.0629889 -3.80348 0
M  V30 12201 H 1158.83 0.301885 -4.97886 0
M  V30 12202 H 1157.98 2.6037 -5.4799 0
M  V30 12203 H 1156.72 2.43411 -4.22614 0
M  V30 12204 H 1155.72 0.497215 -5.47547 0
M  V30 12205 H 1156.95 0.688505 -6.75601 0
M  V30 12206 H 1154.89 2.77967 -5.94197 0
M  V30 12207 H 1154.81 1.77176 -7.34945 0
M  V30 12208 H 1156.08 2.95318 -7.21393 0
M  V30 12209 N 1160.31 1.56586 -0.178487 0
M  V30 12210 C 1161.26 2.18309 0.74899 0
M  V30 12211 C 1162.23 1.12525 1.22178 0
M  V30 12212 O 1163.41 1.40706 1.28866 0
M  V30 12213 C 1160.55 2.83353 1.9699 0
M  V30 12214 C 1159.66 4.03618 1.54002 0
M  V30 12215 C 1158.8 4.56567 2.71514 0
M  V30 12216 C 1157.84 5.69226 2.25051 0
M  V30 12217 N 1156.97 6.16654 3.35682 0
M  V30 12218 H 1161.81 2.97217 0.21587 0
M  V30 12219 H 1159.35 1.46794 0.0948182 0
M  V30 12220 H 1161.31 3.19226 2.68609 0
M  V30 12221 H 1159.94 2.07037 2.4766 0
M  V30 12222 H 1158.99 3.73518 0.720298 0
M  V30 12223 H 1160.3 4.85148 1.15901 0
M  V30 12224 H 1159.46 4.94659 3.5128 0
M  V30 12225 H 1158.2 3.7411 3.12879 0
M  V30 12226 H 1157.2 5.30679 1.43734 0
M  V30 12227 H 1158.43 6.5349 1.84736 0
M  V30 12228 H 1156.37 5.37124 3.76609 0
M  V30 12229 H 1156.29 6.93192 3.01697 0
M  V30 12230 H 1157.56 6.59397 4.15711 0
M  V30 12231 N 1161.79 -0.095206 1.57312 0
M  V30 12232 C 1163.04 -0.797417 1.85268 0
M  V30 12233 C 1163.35 -1.79903 0.767733 0
M  V30 12234 O 1164.55 -2.54914 0.934409 0
M  V30 12235 C 1163.01 -1.469 3.28555 0
M  V30 12236 C 1162.62 -0.507152 4.4512 0
M  V30 12237 C 1164.36 -2.15494 3.65735 0
M  V30 12238 C 1162.27 -1.18331 5.79441 0
M  V30 12239 H 1161.2 -0.301552 0.691074 0
M  V30 12240 H 1163.85 -0.0503584 1.83431 0
M  V30 12241 H 1162.23 -2.26351 3.24933 0
M  V30 12242 H 1163.41 0.255858 4.60089 0
M  V30 12243 H 1161.72 0.0730882 4.16336 0
M  V30 12244 H 1164.32 -2.66816 4.63371 0
M  V30 12245 H 1164.66 -2.94383 2.94354 0
M  V30 12246 H 1165.19 -1.42903 3.71246 0
M  V30 12247 H 1161.93 -0.435238 6.54053 0
M  V30 12248 H 1161.45 -1.91775 5.68315 0
M  V30 12249 H 1163.13 -1.70983 6.23998 0
M  V30 12250 N 1163.26 -1.53291 -0.366026 0
M  V30 12251 C 1164.51 -1.69702 -1.11036 0
M  V30 12252 C 1164.84 -0.44728 -1.88979 0
M  V30 12253 O 1164.12 0.55542 -1.86401 0
M  V30 12254 C 1164.4 -2.94661 -2.06995 0
M  V30 12255 C 1164.25 -4.29791 -1.32663 0
M  V30 12256 C 1165.57 -3.15219 -3.07123 0
M  V30 12257 H 1162.69 -0.617525 -0.402284 0
M  V30 12258 H 1165.33 -1.85929 -0.391223 0
M  V30 12259 H 1163.48 -2.80958 -2.68318 0
M  V30 12260 H 1165.16 -4.55305 -0.741266 0
M  V30 12261 H 1163.4 -4.29223 -0.628484 0
M  V30 12262 H 1164.07 -5.13359 -2.02896 0
M  V30 12263 H 1166.55 -3.28105 -2.55903 0
M  V30 12264 H 1165.42 -4.04088 -3.71489 0
M  V30 12265 H 1165.68 -2.30479 -3.77269 0
M  V30 12266 N 1164.74 0.6258 -1.44643 0
M  V30 12267 C 1165.67 1.74858 -1.54748 0
M  V30 12268 C 1166.65 1.65327 -0.400138 0
M  V30 12269 O 1167.84 1.84005 -0.620948 0
M  V30 12270 C 1164.97 3.13408 -1.49643 0
M  V30 12271 C 1163.92 3.37733 -2.62908 0
M  V30 12272 C 1163.25 4.76367 -2.42855 0
M  V30 12273 C 1164.55 3.29771 -4.05029 0
M  V30 12274 H 1166.24 1.66658 -2.48728 0
M  V30 12275 H 1163.79 0.800363 -1.19709 0
M  V30 12276 H 1165.74 3.91735 -1.55312 0
M  V30 12277 H 1164.47 3.22404 -0.521824 0
M  V30 12278 H 1163.12 2.61788 -2.56637 0
M  V30 12279 H 1162.77 4.82074 -1.43575 0
M  V30 12280 H 1162.47 4.936 -3.18799 0
M  V30 12281 H 1164 5.56917 -2.50351 0
M  V30 12282 H 1165.41 3.97996 -4.12641 0
M  V30 12283 H 1163.81 3.58538 -4.81218 0
M  V30 12284 H 1164.88 2.27493 -4.28223 0
M  V30 12285 N 1166.22 1.31629 0.866686 0
M  V30 12286 C 1167.17 1.19556 1.97421 0
M  V30 12287 C 1168.14 0.0805578 1.65905 0
M  V30 12288 O 1169.32 0.253997 1.89102 0
M  V30 12289 C 1166.46 0.912234 3.32825 0
M  V30 12290 C 1165.58 2.11088 3.76916 0
M  V30 12291 C 1164.71 1.76406 5.01053 0
M  V30 12292 C 1163.75 2.9266 5.37602 0
M  V30 12293 N 1162.89 2.58152 6.52918 0
M  V30 12294 H 1167.73 2.14294 2.0708 0
M  V30 12295 H 1165.26 1.06595 1.0137 0
M  V30 12296 H 1167.22 0.72851 4.1079 0
M  V30 12297 H 1165.85 0.00167404 3.228 0
M  V30 12298 H 1164.9 2.40527 2.94705 0
M  V30 12299 H 1166.22 2.98089 3.99931 0
M  V30 12300 H 1165.37 1.54515 5.86694 0
M  V30 12301 H 1164.11 0.866018 4.79949 0
M  V30 12302 H 1163.11 3.15196 4.50479 0
M  V30 12303 H 1164.34 3.83179 5.6067 0
M  V30 12304 H 1162.28 1.70874 6.33355 0
M  V30 12305 H 1162.2 3.38682 6.75892 0
M  V30 12306 H 1163.47 2.39662 7.41743 0
M  V30 12307 N 1167.7 -1.08142 1.14644 0
M  V30 12308 C 1168.95 -1.80849 0.917685 0
M  V30 12309 C 1169.28 -1.86123 -0.554249 0
M  V30 12310 O 1168.55 -1.33907 -1.41065 0
M  V30 12311 C 1168.84 -3.26325 1.52264 0
M  V30 12312 C 1168.69 -3.29244 3.06461 0
M  V30 12313 C 1170.01 -4.23375 1.20175 0
M  V30 12314 H 1167.13 -0.656559 0.334812 0
M  V30 12315 H 1169.77 -1.26595 1.41682 0
M  V30 12316 H 1167.92 -3.72656 1.09817 0
M  V30 12317 H 1169.59 -2.91216 3.57758 0
M  V30 12318 H 1167.83 -2.68438 3.40769 0
M  V30 12319 H 1168.51 -4.31785 3.43897 0
M  V30 12320 H 1170.98 -3.85394 1.56877 0
M  V30 12321 H 1169.86 -5.23472 1.65132 0
M  V30 12322 H 1170.12 -4.41944 0.117474 0
M  V30 12323 N 1169.18 -0.941978 -1.26351 0
M  V30 12324 C 1170.42 -0.590845 -1.94002 0
M  V30 12325 C 1170.76 0.868004 -1.73722 0
M  V30 12326 O 1170.03 1.62111 -1.07472 0
M  V30 12327 C 1170.31 -0.934901 -3.47752 0
M  V30 12328 C 1170.17 -2.44855 -3.77314 0
M  V30 12329 C 1171.49 -0.450888 -4.37784 0
M  V30 12330 H 1168.61 -0.21613 -0.704597 0
M  V30 12331 H 1171.25 -1.17634 -1.49205 0
M  V30 12332 H 1169.4 -0.436648 -3.86038 0
M  V30 12333 H 1171.07 -3.01959 -3.48738 0
M  V30 12334 H 1169.31 -2.89169 -3.23363 0
M  V30 12335 H 1169.98 -2.6398 -4.84787 0
M  V30 12336 H 1172.46 -0.878107 -4.06729 0
M  V30 12337 H 1171.34 -0.720439 -5.44152 0
M  V30 12338 H 1171.6 0.649162 -4.37308 0
M  V30 12339 N 1170.66 1.40747 -0.709091 0
M  V30 12340 C 1171.6 2.30741 -0.0523584 0
M  V30 12341 C 1172.57 1.4784 0.757145 0
M  V30 12342 O 1173.76 1.76595 0.72242 0
M  V30 12343 C 1170.9 3.34 0.868203 0
M  V30 12344 C 1170.01 4.31972 0.0488686 0
M  V30 12345 C 1169.15 5.223 0.968311 0
M  V30 12346 C 1168.18 6.11934 0.142682 0
M  V30 12347 N 1167.32 6.947 1.01665 0
M  V30 12348 H 1172.16 2.86338 -0.825509 0
M  V30 12349 H 1169.7 1.41013 -0.418785 0
M  V30 12350 H 1171.66 3.92431 1.41611 0
M  V30 12351 H 1170.29 2.79921 1.6076 0
M  V30 12352 H 1169.34 3.75377 -0.616137 0
M  V30 12353 H 1170.65 4.95291 -0.590625 0
M  V30 12354 H 1169.8 5.85631 1.58498 0
M  V30 12355 H 1168.54 4.5924 1.64164 0
M  V30 12356 H 1167.55 5.47639 -0.486965 0
M  V30 12357 H 1168.77 6.77052 -0.527046 0
M  V30 12358 H 1166.72 6.34236 1.67575 0
M  V30 12359 H 1166.64 7.54759 0.433045 0
M  V30 12360 H 1167.9 7.62487 1.6197 0
M  V30 12361 N 1172.13 0.454803 1.50895 0
M  V30 12362 C 1173.07 -0.383826 2.25963 0
M  V30 12363 C 1174.08 -0.971263 1.30653 0
M  V30 12364 O 1175.27 -0.862434 1.56283 0
M  V30 12365 C 1172.37 -1.55069 3.01342 0
M  V30 12366 C 1171.54 -1.07899 4.23883 0
M  V30 12367 C 1170.6 -2.118 4.81692 0
M  V30 12368 O 1169.63 -1.70523 5.43057 0
M  V30 12369 N 1170.83 -3.44459 4.67256 0
M  V30 12370 H 1173.59 0.259646 2.98573 0
M  V30 12371 H 1171.15 0.284661 1.59378 0
M  V30 12372 H 1173.15 -2.24236 3.36898 0
M  V30 12373 H 1171.72 -2.09917 2.31633 0
M  V30 12374 H 1170.94 -0.213773 3.9362 0
M  V30 12375 H 1172.22 -0.741501 5.03368 0
M  V30 12376 H 1171.62 -3.80716 4.18416 0
M  V30 12377 H 1170.18 -4.0947 5.07127 0
M  V30 12378 N 1173.61 -1.56489 0.186789 0
M  V30 12379 C 1174.85 -1.99239 -0.456427 0
M  V30 12380 C 1175.22 -1.07076 -1.5937 0
M  V30 12381 O 1176.42 -1.39028 -2.30054 0
M  V30 12382 C 1174.69 -3.45553 -0.912587 0
M  V30 12383 S 1176.25 -4.1033 -1.55481 0
M  V30 12384 H 1173.06 -0.695792 -0.146267 0
M  V30 12385 H 1175.67 -1.93369 0.287899 0
M  V30 12386 H 1174.37 -4.10332 -0.0746877 0
M  V30 12387 H 1173.9 -3.55222 -1.69058 0
M  V30 12388 H 1175.92 -4.06653 -2.84338 0
M  V30 12389 N 1175.09 0.086862 -1.5736 0
M  V30 12390 C 1176.33 0.794358 -1.88333 0
M  V30 12391 C 1176.69 1.75496 -0.778783 0
M  V30 12392 O 1177.89 2.50643 -0.971152 0
M  V30 12393 C 1176.17 1.49686 -3.24544 0
M  V30 12394 S 1177.72 2.2415 -3.7723 0
M  V30 12395 H 1174.54 0.264479 -0.659979 0
M  V30 12396 H 1177.14 0.0511046 -1.95433 0
M  V30 12397 H 1175.85 0.783713 -4.02847 0
M  V30 12398 H 1175.38 2.27984 -3.20604 0
M  V30 12399 H 1177.39 3.50426 -3.51306 0
M  V30 12400 N 1176.57 1.53483 0.357892 0
M  V30 12401 C 1177.82 1.69701 1.09754 0
M  V30 12402 C 1178.14 0.455389 1.89608 0
M  V30 12403 O 1177.41 -0.530623 1.88577 0
M  V30 12404 H 1175.99 0.62562 0.408178 0
M  V30 12405 H 1178.65 1.90696 0.402641 0
M  V30 12406 H 1177.74 2.56154 1.78302 0
M  V30 12407 N 1178.05 -0.61812 1.44973 0
M  V30 12408 C 1179.27 -1.40429 1.51945 0
M  V30 12409 C 1179.69 -1.88215 0.148556 0
M  V30 12410 O 1179.05 -1.61603 -0.847978 0
M  V30 12411 C 1179.1 -2.61588 2.49507 0
M  V30 12412 O 1178.82 -2.15791 3.81269 0
M  V30 12413 C 1180.32 -3.5457 2.66074 0
M  V30 12414 H 1177.54 -0.43023 0.514921 0
M  V30 12415 H 1180.08 -0.754791 1.90061 0
M  V30 12416 H 1178.24 -3.22602 2.14492 0
M  V30 12417 H 1178.65 -2.94434 4.34061 0
M  V30 12418 H 1180.13 -4.36155 3.38338 0
M  V30 12419 H 1180.6 -4.04227 1.71746 0
M  V30 12420 H 1181.21 -2.99416 3.02043 0
M  V30 12421 N 1179.52 -1.32087 -0.859693 0
M  V30 12422 C 1180.8 -1.12984 -1.59668 0
M  V30 12423 C 1181.18 0.311661 -2.08787 0
M  V30 12424 O 1180.53 1.30746 -1.87397 0
M  V30 12425 C 1180.74 -2.15305 -2.74672 0
M  V30 12426 C 1182.09 -2.48371 -3.44379 0
M  V30 12427 O 1183.11 -2.13811 -2.84891 0
M  V30 12428 O 1181.97 -3.07594 -4.51717 0
M  V30 12429 H 1179.06 -0.435657 -0.702945 0
M  V30 12430 H 1181.61 -1.43601 -0.90426 0
M  V30 12431 H 1180.38 -3.12223 -2.35866 0
M  V30 12432 H 1180 -1.85653 -3.51594 0
M  V30 12433 N 1181 1.07532 -1.15215 0
M  V30 12434 C 1182.25 1.79737 -0.924062 0
M  V30 12435 C 1182.57 1.87072 0.550356 0
M  V30 12436 O 1181.84 1.37029 1.4 0
M  V30 12437 H 1180.42 0.665704 -0.338891 0
M  V30 12438 H 1183.08 1.29961 -1.45245 0
M  V30 12439 H 1182.18 2.82256 -1.33184 0
M  V30 12440 N 1182.48 0.948665 1.2585 0
M  V30 12441 C 1183.73 0.601125 1.93686 0
M  V30 12442 C 1184.06 -0.858779 1.7418 0
M  V30 12443 O 1183.33 -1.61539 1.0833 0
M  V30 12444 C 1183.62 0.95333 3.47252 0
M  V30 12445 C 1183.47 2.46853 3.7601 0
M  V30 12446 C 1184.79 0.474098 4.37539 0
M  V30 12447 H 1181.91 0.219864 0.703441 0
M  V30 12448 H 1184.55 1.18424 1.48579 0
M  V30 12449 H 1182.7 0.457114 3.85801 0
M  V30 12450 H 1184.37 3.03804 3.47132 0
M  V30 12451 H 1182.62 2.9088 3.21825 0
M  V30 12452 H 1183.29 2.66547 4.83381 0
M  V30 12453 H 1185.76 0.899664 4.06258 0
M  V30 12454 H 1184.64 0.749287 5.43762 0
M  V30 12455 H 1184.9 -0.625961 4.37646 0
M  V30 12456 N 1183.96 -1.40369 0.716545 0
M  V30 12457 C 1184.87 -2.34508 0.065658 0
M  V30 12458 C 1185.88 -1.57352 -0.742723 0
M  V30 12459 O 1187.06 -1.89735 -0.675456 0
M  V30 12460 C 1184.13 -3.36262 -0.844337 0
M  V30 12461 C 1183.19 -4.29292 -0.0257971 0
M  V30 12462 C 1182.42 -5.26185 -0.892452 0
M  V30 12463 O 1182.64 -5.29071 -2.13166 0
M  V30 12464 O 1181.58 -6.0099 -0.330933 0
M  V30 12465 H 1185.4 -2.91789 0.842184 0
M  V30 12466 H 1182.99 -1.41579 0.477034 0
M  V30 12467 H 1184.87 -3.98661 -1.36555 0
M  V30 12468 H 1183.54 -2.81393 -1.59999 0
M  V30 12469 H 1182.45 -3.70175 0.540512 0
M  V30 12470 H 1183.78 -4.87316 0.69166 0
M  V30 12471 N 1185.44 -0.462799 -1.50652 0
M  V30 12472 C 1186.4 0.324264 -2.26895 0
M  V30 12473 C 1187.4 0.927687 -1.31342 0
M  V30 12474 O 1188.59 0.798159 -1.54839 0
M  V30 12475 C 1185.72 1.46113 -3.08 0
M  V30 12476 H 1186.91 -0.344266 -2.97917 0
M  V30 12477 H 1184.47 -0.216631 -1.54791 0
M  V30 12478 H 1185.2 2.16496 -2.41454 0
M  V30 12479 H 1184.99 1.03433 -3.78212 0
M  V30 12480 H 1186.48 2.01655 -3.65684 0
M  V30 12481 N 1186.91 1.56388 -0.195085 0
M  V30 12482 C 1187.86 2.20431 0.742484 0
M  V30 12483 C 1188.86 1.17548 1.21979 0
M  V30 12484 O 1190.06 1.35693 1.18269 0
M  V30 12485 H 1186.44 0.706435 0.257786 0
M  V30 12486 H 1188.41 2.97865 0.178624 0
M  V30 12487 C 1187.16 2.87772 1.95147 0
M  V30 12488 H 1186.48 3.66681 1.59326 0
M  V30 12489 H 1187.92 3.36021 2.58585 0
M  V30 12490 C 1186.38 1.88807 2.79022 0
M  V30 12491 O 1186.91 1.38836 3.76945 0
M  V30 12492 N 1185.12 1.57037 2.44515 0
M  V30 12493 H 1184.66 1.97868 1.64943 0
M  V30 12494 H 1184.62 0.910776 3.00919 0
M  V30 12495 N 1188.39 -0.0785156 1.57404 0
M  V30 12496 C 1189.62 -0.790893 1.90862 0
M  V30 12497 C 1190.03 -1.7198 0.788644 0
M  V30 12498 O 1189.37 -1.82027 -0.247322 0
M  V30 12499 C 1189.44 -1.64362 3.19727 0
M  V30 12500 C 1189.1 -0.884796 4.48353 0
M  V30 12501 C 1190.1 -0.207074 5.19487 0
M  V30 12502 C 1187.78 -0.853962 4.94988 0
M  V30 12503 C 1189.78 0.491329 6.35504 0
M  V30 12504 C 1187.46 -0.151783 6.10911 0
M  V30 12505 C 1188.46 0.519669 6.8102 0
M  V30 12506 O 1188.15 1.21055 7.94733 0
M  V30 12507 H 1187.88 -0.230427 0.635515 0
M  V30 12508 H 1190.43 -0.0551231 2.05326 0
M  V30 12509 H 1188.66 -2.42203 3.01454 0
M  V30 12510 H 1190.35 -2.23406 3.38887 0
M  V30 12511 H 1191.12 -0.222247 4.84491 0
M  V30 12512 H 1187 -1.36605 4.40296 0
M  V30 12513 H 1190.54 1.01598 6.90162 0
M  V30 12514 H 1186.44 -0.134514 6.4536 0
M  V30 12515 H 1187.21 1.11914 8.10813 0
M  V30 12516 N 1189.87 -1.5367 -0.349747 0
M  V30 12517 C 1191.12 -1.69835 -1.08807 0
M  V30 12518 C 1191.43 -0.46497 -1.89993 0
M  V30 12519 O 1192.64 -0.507452 -2.66716 0
M  V30 12520 C 1191.09 -3.00294 -1.98372 0
M  V30 12521 C 1190.7 -4.30949 -1.22422 0
M  V30 12522 C 1192.45 -3.25826 -2.72099 0
M  V30 12523 C 1190.35 -5.52486 -2.1098 0
M  V30 12524 H 1189.28 -0.63284 -0.409915 0
M  V30 12525 H 1191.93 -1.80171 -0.347968 0
M  V30 12526 H 1190.32 -2.838 -2.76176 0
M  V30 12527 H 1191.49 -4.58126 -0.495707 0
M  V30 12528 H 1189.81 -4.11983 -0.604896 0
M  V30 12529 H 1192.4 -4.13817 -3.38615 0
M  V30 12530 H 1192.75 -2.42566 -3.3833 0
M  V30 12531 H 1193.28 -3.43067 -2.0137 0
M  V30 12532 H 1190.02 -6.38271 -1.49301 0
M  V30 12533 H 1189.54 -5.29566 -2.81638 0
M  V30 12534 H 1191.22 -5.87889 -2.70176 0
M  V30 12535 N 1191.35 0.610423 -1.45298 0
M  V30 12536 C 1192.3 1.7213 -1.53753 0
M  V30 12537 C 1193.27 1.61609 -0.383632 0
M  V30 12538 O 1194.45 1.8123 -0.596694 0
M  V30 12539 C 1191.59 3.10433 -1.50749 0
M  V30 12540 C 1190.7 3.3178 -2.76669 0
M  V30 12541 C 1189.84 4.60173 -2.65356 0
M  V30 12542 C 1188.88 4.74769 -3.86343 0
M  V30 12543 N 1188.01 5.94459 -3.73581 0
M  V30 12544 H 1192.85 1.64239 -2.48655 0
M  V30 12545 H 1190.39 0.800879 -1.23387 0
M  V30 12546 H 1192.35 3.90446 -1.46996 0
M  V30 12547 H 1190.98 3.17288 -0.593998 0
M  V30 12548 H 1190.03 2.45563 -2.90522 0
M  V30 12549 H 1191.34 3.38439 -3.66416 0
M  V30 12550 H 1190.5 5.48377 -2.59553 0
M  V30 12551 H 1189.24 4.55907 -1.73204 0
M  V30 12552 H 1188.24 3.8499 -3.92509 0
M  V30 12553 H 1189.47 4.80834 -4.79557 0
M  V30 12554 H 1187.41 5.91243 -2.84196 0
M  V30 12555 H 1187.33 6.02265 -4.5696 0
M  V30 12556 H 1188.6 6.85168 -3.71705 0
M  V30 12557 N 1192.83 1.32541 0.852676 0
M  V30 12558 C 1194.05 1.2622 1.6394 0
M  V30 12559 C 1194.47 -0.169455 1.88038 0
M  V30 12560 O 1193.83 -1.10719 1.45078 0
M  V30 12561 C 1193.88 2.02062 2.99755 0
M  V30 12562 O 1193.6 3.39641 2.76723 0
M  V30 12563 C 1195.1 2.02787 3.94198 0
M  V30 12564 H 1192.32 0.435405 0.510552 0
M  V30 12565 H 1194.86 1.74696 1.06309 0
M  V30 12566 H 1193.02 1.57303 3.54026 0
M  V30 12567 H 1193.43 3.78484 3.63111 0
M  V30 12568 H 1194.91 2.60333 4.86755 0
M  V30 12569 H 1195.38 1.01464 4.27319 0
M  V30 12570 H 1195.99 2.47504 3.45864 0
M  V30 12571 N 1194.3 -1.0692 1.15784 0
M  V30 12572 C 1195.21 -2.17762 0.872753 0
M  V30 12573 C 1196.23 -1.73329 -0.152608 0
M  V30 12574 O 1197.41 -2.01387 0.022519 0
M  V30 12575 C 1194.47 -3.4471 0.370887 0
M  V30 12576 C 1193.53 -4.03686 1.46069 0
M  V30 12577 C 1192.77 -5.24575 0.982675 0
M  V30 12578 O 1192.99 -5.70146 -0.17006 0
M  V30 12579 O 1191.92 -5.7534 1.76828 0
M  V30 12580 H 1195.75 -2.44648 1.79948 0
M  V30 12581 H 1193.33 -1.1634 0.937303 0
M  V30 12582 H 1195.22 -4.21287 0.0976779 0
M  V30 12583 H 1193.89 -3.19366 -0.527912 0
M  V30 12584 H 1192.8 -3.28629 1.78756 0
M  V30 12585 H 1194.13 -4.33312 2.33456 0
M  V30 12586 N 1195.78 -0.955326 -1.25345 0
M  V30 12587 C 1197.03 -0.606149 -1.92377 0
M  V30 12588 C 1197.34 0.860927 -1.75634 0
M  V30 12589 O 1198.55 1.3201 -2.37246 0
M  V30 12590 C 1197.01 -1.03341 -3.44744 0
M  V30 12591 C 1196.61 -2.52308 -3.70196 0
M  V30 12592 C 1198.36 -0.756797 -4.17699 0
M  V30 12593 C 1196.27 -2.88831 -5.16072 0
M  V30 12594 H 1195.2 -0.222994 -0.720271 0
M  V30 12595 H 1197.85 -1.15987 -1.42194 0
M  V30 12596 H 1196.23 -0.408096 -3.93892 0
M  V30 12597 H 1197.4 -3.19864 -3.31698 0
M  V30 12598 H 1195.72 -2.77448 -3.10502 0
M  V30 12599 H 1198.31 -1.00583 -5.25154 0
M  V30 12600 H 1198.66 0.306794 -4.15168 0
M  V30 12601 H 1199.19 -1.34249 -3.74462 0
M  V30 12602 H 1195.93 -3.9421 -5.23716 0
M  V30 12603 H 1195.45 -2.25948 -5.55614 0
M  V30 12604 H 1197.13 -2.78061 -5.84201 0
M  V30 12605 N 1197.26 1.39987 -0.723979 0
M  V30 12606 C 1198.19 2.3332 -0.0917282 0
M  V30 12607 C 1199.17 1.53335 0.736361 0
M  V30 12608 O 1200.36 1.81771 0.683582 0
M  V30 12609 C 1197.49 3.3737 0.824549 0
M  V30 12610 C 1196.44 4.2788 0.101452 0
M  V30 12611 C 1195.77 5.22536 1.13401 0
M  V30 12612 C 1197.07 5.11649 -1.04939 0
M  V30 12613 H 1198.76 2.86441 -0.871318 0
M  V30 12614 H 1196.31 1.37725 -0.420448 0
M  V30 12615 H 1198.26 4.01607 1.27631 0
M  V30 12616 H 1196.98 2.82663 1.63613 0
M  V30 12617 H 1195.64 3.65107 -0.330569 0
M  V30 12618 H 1195.29 4.64131 1.93886 0
M  V30 12619 H 1194.99 5.83938 0.65502 0
M  V30 12620 H 1196.52 5.89651 1.58569 0
M  V30 12621 H 1197.93 5.69293 -0.6766 0
M  V30 12622 H 1196.33 5.82137 -1.45729 0
M  V30 12623 H 1197.4 4.47132 -1.8762 0
M  V30 12624 N 1198.74 0.470782 1.50404 0
M  V30 12625 C 1200.15 0.0155901 1.86693 0
M  V30 12626 C 1200.5 -1.38908 1.38561 0
M  V30 12627 O 1199.63 -2.02971 0.750454 0
M  V30 12628 C 1200.22 0.0215152 3.38793 0
M  V30 12629 C 1198.78 -0.378206 3.74495 0
M  V30 12630 C 1197.93 0.407126 2.74295 0
M  V30 12631 H 1200.88 0.68507 1.43152 0
M  V30 12632 H 1200.9 -0.780717 3.72404 0
M  V30 12633 H 1200.41 1.04397 3.73795 0
M  V30 12634 H 1198.51 -1.40503 3.45094 0
M  V30 12635 H 1198.63 -0.0797643 4.79034 0
M  V30 12636 H 1196.99 -0.139123 2.5432 0
M  V30 12637 H 1197.77 1.42909 3.12141 0
M  V30 12638 N 1200.22 -1.56282 0.203376 0
M  V30 12639 C 1201.63 -1.84146 -0.307752 0
M  V30 12640 C 1201.98 -1.12429 -1.60792 0
M  V30 12641 O 1201.1 -0.387852 -2.12896 0
M  V30 12642 C 1201.7 -3.34053 -0.565152 0
M  V30 12643 C 1200.26 -3.62298 -1.02063 0
M  V30 12644 C 1199.41 -2.77202 -0.0737343 0
M  V30 12645 H 1202.36 -1.52848 0.426983 0
M  V30 12646 H 1202.38 -3.53273 -1.41345 0
M  V30 12647 H 1201.89 -3.86222 0.381301 0
M  V30 12648 H 1199.99 -3.1557 -1.98107 0
M  V30 12649 H 1200.1 -4.70424 -0.907614 0
M  V30 12650 H 1198.47 -2.48074 -0.577169 0
M  V30 12651 H 1199.25 -3.32164 0.86731 0
M  V30 12652 N 1201.7 0.070167 -1.57444 0
M  V30 12653 C 1202.94 0.769014 -1.8733 0
M  V30 12654 C 1203.27 1.77496 -0.79533 0
M  V30 12655 O 1202.53 1.94586 0.208495 0
M  V30 12656 C 1202.82 1.5111 -3.23883 0
M  V30 12657 C 1202.49 0.644988 -4.46263 0
M  V30 12658 C 1201.15 0.406307 -4.79482 0
M  V30 12659 C 1203.5 0.0444938 -5.21181 0
M  V30 12660 C 1200.83 -0.442322 -5.8503 0
M  V30 12661 C 1203.18 -0.791599 -6.27628 0
M  V30 12662 C 1201.85 -1.04014 -6.59346 0
M  V30 12663 H 1201.12 0.281402 -0.685488 0
M  V30 12664 H 1203.77 0.029752 -1.91477 0
M  V30 12665 H 1202.07 2.32261 -3.15535 0
M  V30 12666 H 1203.77 2.05665 -3.44242 0
M  V30 12667 H 1200.36 0.841148 -4.20265 0
M  V30 12668 H 1204.54 0.216005 -4.9583 0
M  V30 12669 H 1199.8 -0.643607 -6.08003 0
M  V30 12670 H 1203.97 -1.26363 -6.8484 0
M  V30 12671 H 1201.6 -1.69949 -7.4096 0
M  V30 12672 N 1203.17 1.53854 0.341593 0
M  V30 12673 C 1204.42 1.71194 1.08162 0
M  V30 12674 C 1204.75 0.47614 1.88582 0
M  V30 12675 O 1204 -0.542115 1.88041 0
M  V30 12676 C 1204.3 2.92844 2.04884 0
M  V30 12677 C 1203.97 4.28366 1.40759 0
M  V30 12678 C 1202.63 4.65214 1.23 0
M  V30 12679 C 1204.98 5.12546 0.945819 0
M  V30 12680 C 1202.31 5.83857 0.576852 0
M  V30 12681 C 1204.66 6.31857 0.306568 0
M  V30 12682 C 1203.33 6.67398 0.116677 0
M  V30 12683 H 1202.6 0.626442 0.395792 0
M  V30 12684 H 1205.24 1.88073 0.360688 0
M  V30 12685 H 1203.55 2.70576 2.83365 0
M  V30 12686 H 1205.25 3.03454 2.62139 0
M  V30 12687 H 1201.84 3.99366 1.5558 0
M  V30 12688 H 1206.02 4.84609 1.07087 0
M  V30 12689 H 1201.28 6.09967 0.418363 0
M  V30 12690 H 1205.45 6.96375 -0.0593285 0
M  V30 12691 H 1203.08 7.59191 -0.391477 0
M  V30 12692 N 1204.65 -0.602709 1.4562 0
M  V30 12693 C 1205.6 -1.71312 1.54664 0
M  V30 12694 C 1206.57 -1.61403 0.392197 0
M  V30 12695 O 1207.75 -1.80911 0.606297 0
M  V30 12696 C 1204.89 -3.09629 1.52393 0
M  V30 12697 C 1204.01 -3.30308 2.78425 0
M  V30 12698 C 1203.14 -4.5876 2.67793 0
M  V30 12699 C 1202.18 -4.72713 3.88855 0
M  V30 12700 N 1201.32 -5.92469 3.76729 0
M  V30 12701 H 1206.16 -1.62918 2.49523 0
M  V30 12702 H 1203.69 -0.794324 1.2381 0
M  V30 12703 H 1205.65 -3.89661 1.49064 0
M  V30 12704 H 1204.28 -3.16968 0.610816 0
M  V30 12705 H 1203.33 -2.44018 2.9182 0
M  V30 12706 H 1204.65 -3.36491 3.68205 0
M  V30 12707 H 1203.8 -5.46993 2.62457 0
M  V30 12708 H 1202.54 -4.54983 1.75619 0
M  V30 12709 H 1201.54 -3.82903 3.94545 0
M  V30 12710 H 1202.77 -4.78284 4.82101 0
M  V30 12711 H 1200.72 -5.89728 2.87328 0
M  V30 12712 H 1200.63 -5.99833 4.60148 0
M  V30 12713 H 1201.9 -6.83187 3.75334 0
M  V30 12714 N 1206.13 -1.32992 -0.845635 0
M  V30 12715 C 1207.08 -1.19256 -1.94325 0
M  V30 12716 C 1208.06 -0.0971701 -1.60606 0
M  V30 12717 O 1209.26 -0.324591 -1.73998 0
M  V30 12718 C 1206.38 -0.927027 -3.30547 0
M  V30 12719 C 1205.47 -2.06454 -3.70456 0
M  V30 12720 N 1205.86 -3.31393 -3.82116 0
M  V30 12721 C 1204.16 -1.96972 -4.00147 0
M  V30 12722 C 1204.86 -4.05955 -4.16624 0
M  V30 12723 N 1203.84 -3.34332 -4.28629 0
M  V30 12724 H 1207.64 -2.13965 -2.01485 0
M  V30 12725 H 1205.15 -1.24901 -1.03795 0
M  V30 12726 H 1207.15 -0.809565 -4.08964 0
M  V30 12727 H 1205.81 0.011597 -3.24698 0
M  V30 12728 H 1206.82 -3.66222 -3.662 0
M  V30 12729 H 1203.5 -1.10728 -4.02549 0
M  V30 12730 H 1204.89 -5.13738 -4.33039 0
M  V30 12731 N 1207.61 1.06304 -1.1635 0
M  V30 12732 C 1208.85 1.79101 -0.94494 0
M  V30 12733 C 1209.18 1.87217 0.527251 0
M  V30 12734 O 1208.44 1.35992 1.40729 0
M  V30 12735 C 1208.74 3.23589 -1.51741 0
M  V30 12736 C 1208.4 3.35552 -3.0119 0
M  V30 12737 C 1207.06 3.38525 -3.41986 0
M  V30 12738 C 1209.42 3.37482 -3.97184 0
M  V30 12739 C 1206.74 3.41042 -4.77396 0
M  V30 12740 C 1209.1 3.41537 -5.3248 0
M  V30 12741 C 1207.76 3.42792 -5.72757 0
M  V30 12742 H 1207.03 0.655377 -0.345778 0
M  V30 12743 H 1209.68 1.25017 -1.45062 0
M  V30 12744 H 1207.98 3.80525 -0.933164 0
M  V30 12745 H 1209.68 3.78512 -1.32399 0
M  V30 12746 H 1206.27 3.33944 -2.68662 0
M  V30 12747 H 1210.45 3.34397 -3.66732 0
M  V30 12748 H 1205.71 3.40317 -5.07931 0
M  V30 12749 H 1209.88 3.41977 -6.0665 0
M  V30 12750 H 1207.51 3.44495 -6.77663 0
M  V30 12751 N 1209.09 0.96196 1.24836 0
M  V30 12752 C 1210.33 0.631213 1.93358 0
M  V30 12753 C 1210.69 -0.823785 1.73872 0
M  V30 12754 O 1209.98 -1.58422 1.07764 0
M  V30 12755 C 1210.17 0.934481 3.44967 0
M  V30 12756 C 1210 2.41741 3.79198 0
M  V30 12757 C 1208.77 3.07624 4.00868 0
M  V30 12758 C 1210.97 3.39717 3.86131 0
M  V30 12759 N 1208.95 4.45714 4.22152 0
M  V30 12760 C 1210.32 4.63141 4.1219 0
M  V30 12761 C 1212.38 3.34454 3.68843 0
M  V30 12762 C 1211.08 5.81953 4.22757 0
M  V30 12763 C 1213.11 4.52611 3.80653 0
M  V30 12764 C 1212.47 5.74825 4.07131 0
M  V30 12765 H 1208.57 0.281719 0.729492 0
M  V30 12766 H 1211.15 1.23564 1.50466 0
M  V30 12767 H 1209.32 0.358917 3.86738 0
M  V30 12768 H 1211.06 0.562892 4.00766 0
M  V30 12769 H 1207.81 2.58172 3.97044 0
M  V30 12770 H 1208.23 5.1725 4.36785 0
M  V30 12771 H 1212.88 2.41008 3.47383 0
M  V30 12772 H 1210.59 6.75832 4.43031 0
M  V30 12773 H 1214.18 4.50095 3.68654 0
M  V30 12774 H 1213.06 6.64727 4.16061 0
M  V30 12775 N 1210.56 -1.39601 0.731392 0
M  V30 12776 C 1211.5 -2.29147 0.0494974 0
M  V30 12777 C 1212.51 -1.46635 -0.707248 0
M  V30 12778 O 1213.7 -1.6975 -0.552008 0
M  V30 12779 C 1210.8 -3.25191 -0.954152 0
M  V30 12780 C 1209.97 -4.36629 -0.259674 0
M  V30 12781 C 1209.03 -5.13007 -1.17092 0
M  V30 12782 O 1208.06 -5.65479 -0.64976 0
M  V30 12783 N 1209.26 -5.23865 -2.50092 0
M  V30 12784 H 1212.02 -2.88308 0.818433 0
M  V30 12785 H 1209.58 -1.51142 0.580316 0
M  V30 12786 H 1211.58 -3.73161 -1.56629 0
M  V30 12787 H 1210.15 -2.67085 -1.62432 0
M  V30 12788 H 1209.37 -3.90582 0.532888 0
M  V30 12789 H 1210.65 -5.08317 0.221753 0
M  V30 12790 H 1210.05 -4.82745 -2.94913 0
M  V30 12791 H 1208.61 -5.75288 -3.0641 0
M  V30 12792 N 1212.04 -0.478751 -1.50152 0
M  V30 12793 C 1212.99 0.330224 -2.25596 0
M  V30 12794 C 1213.98 0.954871 -1.29503 0
M  V30 12795 O 1215.17 0.866153 -1.54359 0
M  V30 12796 C 1212.3 1.40719 -3.13134 0
M  V30 12797 C 1211.38 0.789896 -4.16679 0
M  V30 12798 N 1211.77 -0.094345 -5.05712 0
M  V30 12799 C 1210.07 1.05299 -4.33391 0
M  V30 12800 C 1210.77 -0.445458 -5.79992 0
M  V30 12801 N 1209.75 0.181237 -5.43298 0
M  V30 12802 H 1213.55 -0.350824 -2.91799 0
M  V30 12803 H 1211.07 -0.293386 -1.59728 0
M  V30 12804 H 1213.06 1.99999 -3.65795 0
M  V30 12805 H 1211.72 2.09015 -2.48481 0
M  V30 12806 H 1212.73 -0.463695 -5.1582 0
M  V30 12807 H 1209.41 1.73036 -3.79954 0
M  V30 12808 H 1210.8 -1.16754 -6.61678 0
M  V30 12809 N 1213.52 1.56172 -0.211661 0
M  V30 12810 C 1214.94 1.5895 0.143907 0
M  V30 12811 C 1215.14 1.22826 1.59737 0
M  V30 12812 O 1214.19 0.958823 2.33587 0
M  V30 12813 C 1215.51 3.00199 -0.173438 0
M  V30 12814 C 1217.05 3.12789 -0.114877 0
M  V30 12815 C 1217.53 4.56199 -0.405759 0
M  V30 12816 N 1219.02 4.61838 -0.354973 0
M  V30 12817 C 1219.75 5.70721 -0.553671 0
M  V30 12818 N 1219.25 6.88006 -0.813613 0
M  V30 12819 N 1221.04 5.59988 -0.486787 0
M  V30 12820 H 1213.19 1.77931 -1.15993 0
M  V30 12821 H 1215.46 0.826569 -0.464206 0
M  V30 12822 H 1215.16 3.31248 -1.18186 0
M  V30 12823 H 1215.04 3.73651 0.516232 0
M  V30 12824 H 1217.42 2.81543 0.884166 0
M  V30 12825 H 1217.51 2.41688 -0.837875 0
M  V30 12826 H 1217.15 4.88161 -1.40219 0
M  V30 12827 H 1217.08 5.25512 0.338318 0
M  V30 12828 H 1219.57 3.77555 -0.161352 0
M  V30 12829 H 1219.88 7.66894 -0.953594 0
M  V30 12830 H 1218.23 6.89774 -0.850696 0
M  V30 12831 H 1221.42 4.67238 -0.284009 0
M  V30 12832 H 1221.59 6.44781 -0.645051 0
M  V30 12833 N 1215 -0.0618163 1.57479 0
M  V30 12834 C 1215.93 -1.10452 1.99689 0
M  V30 12835 C 1216.91 -1.37019 0.875473 0
M  V30 12836 O 1218.09 -1.50226 1.13862 0
M  V30 12837 C 1215.22 -2.44669 2.34211 0
M  V30 12838 C 1214.27 -2.34172 3.56463 0
M  V30 12839 S 1215.1 -1.7263 5.06911 0
M  V30 12840 C 1216.26 -3.08405 5.44644 0
M  V30 12841 H 1216.49 -0.744843 2.87818 0
M  V30 12842 H 1214.02 -0.270698 1.52008 0
M  V30 12843 H 1215.98 -3.2187 2.54774 0
M  V30 12844 H 1214.64 -2.77794 1.46592 0
M  V30 12845 H 1213.83 -3.33175 3.78167 0
M  V30 12846 H 1213.44 -1.65109 3.35582 0
M  V30 12847 H 1215.73 -4.04727 5.43325 0
M  V30 12848 H 1216.67 -2.9147 6.4533 0
M  V30 12849 H 1217.08 -3.0947 4.72111 0
M  V30 12850 N 1216.48 -1.54033 -0.333429 0
M  V30 12851 C 1217.44 -1.82021 -1.39288 0
M  V30 12852 C 1218.44 -0.691623 -1.45166 0
M  V30 12853 O 1219.63 -0.959925 -1.45365 0
M  V30 12854 C 1216.76 -1.97136 -2.78119 0
M  V30 12855 H 1217.95 -2.76671 -1.1573 0
M  V30 12856 H 1215.51 -1.45599 -0.568376 0
M  V30 12857 H 1216.24 -1.04663 -3.06946 0
M  V30 12858 H 1216.03 -2.79251 -2.75247 0
M  V30 12859 H 1217.52 -2.20271 -3.54782 0
M  V30 12860 N 1217.95 0.594978 -1.45938 0
M  V30 12861 C 1218.88 1.71536 -1.58422 0
M  V30 12862 C 1219.87 1.64441 -0.435116 0
M  V30 12863 O 1221.05 1.82647 -0.659839 0
M  V30 12864 C 1218.18 3.10163 -1.56257 0
M  V30 12865 C 1217.13 3.3208 -2.70013 0
M  V30 12866 C 1216.46 4.71108 -2.52905 0
M  V30 12867 C 1217.76 3.21105 -4.11933 0
M  V30 12868 H 1219.45 1.61344 -2.52207 0
M  V30 12869 H 1217 0.774791 -1.2138 0
M  V30 12870 H 1218.95 3.88352 -1.63587 0
M  V30 12871 H 1217.68 3.21225 -0.590093 0
M  V30 12872 H 1216.34 2.56286 -2.62132 0
M  V30 12873 H 1215.98 4.7892 -1.53768 0
M  V30 12874 H 1215.68 4.86727 -3.29197 0
M  V30 12875 H 1217.21 5.51482 -2.62107 0
M  V30 12876 H 1218.62 3.89153 -4.2099 0
M  V30 12877 H 1217.02 3.4825 -4.88715 0
M  V30 12878 H 1218.09 2.18359 -4.32952 0
M  V30 12879 N 1219.43 1.33438 0.838571 0
M  V30 12880 C 1220.71 1.1551 1.5785 0
M  V30 12881 C 1221.09 -0.278405 2.09256 0
M  V30 12882 O 1220.44 -1.27748 1.89453 0
M  V30 12883 C 1220.65 2.19647 2.71212 0
M  V30 12884 C 1222 2.53818 3.40384 0
M  V30 12885 O 1223.02 2.18317 2.81454 0
M  V30 12886 O 1221.88 3.14741 4.46766 0
M  V30 12887 H 1218.97 0.446785 0.695925 0
M  V30 12888 H 1221.52 1.45021 0.8813 0
M  V30 12889 H 1220.29 3.15936 2.30869 0
M  V30 12890 H 1219.91 1.91224 3.48596 0
M  V30 12891 N 1220.91 -1.05686 1.16912 0
M  V30 12892 C 1222.33 -1.30744 0.915327 0
M  V30 12893 C 1222.53 -1.96895 -0.428344 0
M  V30 12894 O 1221.58 -2.23941 -1.16647 0
M  V30 12895 C 1222.9 -2.18209 2.06894 0
M  V30 12896 C 1224.44 -2.31607 2.1054 0
M  V30 12897 C 1224.92 -3.2243 3.25273 0
M  V30 12898 N 1226.41 -3.30015 3.2503 0
M  V30 12899 C 1227.14 -4.00401 4.10447 0
M  V30 12900 N 1226.64 -4.73256 5.05965 0
M  V30 12901 N 1228.43 -3.96514 3.98413 0
M  V30 12902 H 1220.58 -0.611449 2.03409 0
M  V30 12903 H 1222.85 -0.332188 0.887894 0
M  V30 12904 H 1222.55 -1.76887 3.0398 0
M  V30 12905 H 1222.43 -3.18823 2.01573 0
M  V30 12906 H 1224.81 -2.72173 1.14044 0
M  V30 12907 H 1224.9 -1.30639 2.19925 0
M  V30 12908 H 1224.54 -2.82579 4.22032 0
M  V30 12909 H 1224.47 -4.23392 3.13125 0
M  V30 12910 H 1226.96 -2.781 2.55869 0
M  V30 12911 H 1227.27 -5.24509 5.67547 0
M  V30 12912 H 1225.62 -4.72215 5.09939 0
M  V30 12913 H 1228.81 -3.38719 3.2309 0
M  V30 12914 H 1228.98 -4.511 4.65202 0
M  V30 12915 N 1222.39 -0.968567 -1.24324 0
M  V30 12916 C 1223.8 -0.675239 -1.44612 0
M  V30 12917 C 1224 0.762641 -1.8651 0
M  V30 12918 O 1223.06 1.53644 -2.00374 0
M  V30 12919 C 1224.37 -1.66007 -2.50723 0
M  V30 12920 C 1225.92 -1.6728 -2.6455 0
M  V30 12921 C 1226.4 -2.64563 -3.73859 0
M  V30 12922 N 1227.89 -2.6301 -3.81287 0
M  V30 12923 C 1228.62 -3.34957 -4.65394 0
M  V30 12924 N 1228.12 -4.16424 -5.53681 0
M  V30 12925 N 1229.91 -3.23778 -4.59483 0
M  V30 12926 H 1222.06 -1.89757 -0.954257 0
M  V30 12927 H 1224.33 -0.817004 -0.480841 0
M  V30 12928 H 1224.03 -2.68779 -2.26827 0
M  V30 12929 H 1223.91 -1.43353 -3.48898 0
M  V30 12930 H 1226.29 -0.652184 -2.87803 0
M  V30 12931 H 1226.37 -1.93997 -1.6673 0
M  V30 12932 H 1226.02 -3.66759 -3.51355 0
M  V30 12933 H 1225.95 -2.35124 -4.71194 0
M  V30 12934 H 1228.44 -2.03877 -3.18186 0
M  V30 12935 H 1228.75 -4.68207 -6.14818 0
M  V30 12936 H 1227.1 -4.20518 -5.53344 0
M  V30 12937 H 1230.29 -2.59594 -3.89524 0
M  V30 12938 H 1230.46 -3.80112 -5.24804 0
M  V30 12939 N 1223.87 1.39211 -0.738786 0
M  V30 12940 C 1224.81 2.32424 -0.0904601 0
M  V30 12941 C 1225.81 1.53258 0.721694 0
M  V30 12942 O 1227.01 1.68895 0.622454 0
M  V30 12943 H 1223.39 0.751927 -0.010453 0
M  V30 12944 H 1225.36 2.84726 -0.892945 0
M  V30 12945 C 1224.11 3.38377 0.799783 0
M  V30 12946 H 1223.43 3.99375 0.18424 0
M  V30 12947 H 1224.87 4.0604 1.22096 0
M  V30 12948 C 1223.33 2.75734 1.93578 0
M  V30 12949 O 1223.86 2.63876 3.02874 0
M  V30 12950 N 1222.07 2.33764 1.72634 0
M  V30 12951 H 1221.61 2.43609 0.837413 0
M  V30 12952 H 1221.57 1.92191 2.48817 0
M  V30 12953 N 1225.34 0.486708 1.49896 0
M  V30 12954 C 1226.57 -0.0599944 2.06513 0
M  V30 12955 C 1226.98 -1.32662 1.34898 0
M  V30 12956 O 1226.33 -1.78915 0.416565 0
M  V30 12957 C 1226.39 -0.39838 3.57286 0
M  V30 12958 C 1226.05 0.768465 4.50493 0
M  V30 12959 C 1227.05 1.65495 4.92856 0
M  V30 12960 C 1224.73 0.96322 4.92978 0
M  V30 12961 C 1226.73 2.72046 5.76429 0
M  V30 12962 C 1224.41 2.03193 5.7633 0
M  V30 12963 C 1225.41 2.9089 6.17958 0
M  V30 12964 O 1225.1 3.95919 6.99645 0
M  V30 12965 H 1224.83 0.0107865 0.675914 0
M  V30 12966 H 1227.39 0.679087 1.93849 0
M  V30 12967 H 1225.62 -1.19086 3.67907 0
M  V30 12968 H 1227.31 -0.882003 3.96201 0
M  V30 12969 H 1228.07 1.51624 4.6069 0
M  V30 12970 H 1223.95 0.29004 4.60087 0
M  V30 12971 H 1227.49 3.40526 6.08841 0
M  V30 12972 H 1223.39 2.17064 6.07909 0
M  V30 12973 H 1224.16 3.93097 7.17925 0
M  V30 12974 N 1226.82 -1.56058 0.219941 0
M  V30 12975 C 1228.24 -1.59024 -0.135476 0
M  V30 12976 C 1228.44 -1.23672 -1.59083 0
M  V30 12977 O 1227.5 -0.971197 -2.33075 0
M  V30 12978 C 1228.81 -3.00103 0.189356 0
M  V30 12979 C 1230.36 -3.12724 0.131463 0
M  V30 12980 C 1230.83 -4.55977 0.429947 0
M  V30 12981 N 1232.32 -4.61643 0.37946 0
M  V30 12982 C 1233.06 -5.70419 0.58393 0
M  V30 12983 N 1232.55 -6.87565 0.850088 0
M  V30 12984 N 1234.35 -5.59722 0.516477 0
M  V30 12985 H 1226.5 -1.77313 1.16935 0
M  V30 12986 H 1228.76 -0.824096 0.468583 0
M  V30 12987 H 1228.47 -3.30616 1.19941 0
M  V30 12988 H 1228.34 -3.73919 -0.49641 0
M  V30 12989 H 1230.73 -2.82008 -0.869223 0
M  V30 12990 H 1230.81 -2.41241 0.85068 0
M  V30 12991 H 1230.45 -4.8741 1.42806 0
M  V30 12992 H 1230.38 -5.25684 -0.310444 0
M  V30 12993 H 1232.87 -3.77465 0.181373 0
M  V30 12994 H 1233.19 -7.66378 0.994251 0
M  V30 12995 H 1231.53 -6.89313 0.887265 0
M  V30 12996 H 1234.72 -4.6708 0.308784 0
M  V30 12997 H 1234.9 -6.4443 0.679236 0
M  V30 12998 N 1228.3 0.053464 -1.57509 0
M  V30 12999 C 1229.23 1.08863 -2.01696 0
M  V30 13000 C 1230.25 1.33916 -0.925765 0
M  V30 13001 O 1231.44 1.31833 -1.20343 0
M  V30 13002 C 1228.54 2.43567 -2.35644 0
M  V30 13003 C 1227.71 2.38215 -3.66841 0
M  V30 13004 C 1226.77 3.55172 -3.88252 0
M  V30 13005 O 1225.79 3.35769 -4.59617 0
M  V30 13006 N 1227 4.76182 -3.3201 0
M  V30 13007 H 1229.76 0.712192 -2.91115 0
M  V30 13008 H 1227.32 0.241829 -1.60084 0
M  V30 13009 H 1229.31 3.20486 -2.47125 0
M  V30 13010 H 1227.88 2.73145 -1.52022 0
M  V30 13011 H 1227.1 1.46557 -3.65943 0
M  V30 13012 H 1228.39 2.31757 -4.52953 0
M  V30 13013 H 1227.79 4.94849 -2.74118 0
M  V30 13014 H 1226.35 5.5055 -3.4891 0
M  V30 13015 N 1229.78 1.54207 0.325255 0
M  V30 13016 C 1230.71 1.86467 1.40543 0
M  V30 13017 C 1231.69 0.721324 1.54048 0
M  V30 13018 O 1232.88 0.974905 1.67956 0
M  V30 13019 C 1230.01 2.09052 2.77335 0
M  V30 13020 C 1228.96 3.24893 2.78619 0
M  V30 13021 C 1228.29 3.32846 4.1847 0
M  V30 13022 C 1229.59 4.62582 2.42518 0
M  V30 13023 H 1231.28 2.76932 1.13794 0
M  V30 13024 H 1228.83 1.33248 0.545971 0
M  V30 13025 H 1230.78 2.30204 3.52964 0
M  V30 13026 H 1229.5 1.15335 3.05558 0
M  V30 13027 H 1228.16 3.03625 2.05444 0
M  V30 13028 H 1227.81 2.3669 4.43832 0
M  V30 13029 H 1227.51 4.10701 4.20237 0
M  V30 13030 H 1229.03 3.56231 4.95915 0
M  V30 13031 H 1230.45 4.83627 3.07861 0
M  V30 13032 H 1228.84 5.42974 2.55538 0
M  V30 13033 H 1229.91 4.64946 1.3767 0
M  V30 13034 N 1231.26 -0.58723 1.46251 0
M  V30 13035 C 1232.5 -1.3476 1.51551 0
M  V30 13036 C 1232.84 -1.93499 0.16483 0
M  V30 13037 O 1232.11 -1.7622 -0.823207 0
M  V30 13038 C 1232.39 -2.48033 2.61059 0
M  V30 13039 C 1232.25 -1.94358 4.05642 0
M  V30 13040 C 1233.57 -3.50096 2.66685 0
M  V30 13041 H 1230.69 -0.48863 0.551733 0
M  V30 13042 H 1233.33 -0.660097 1.78165 0
M  V30 13043 H 1231.48 -3.06679 2.38496 0
M  V30 13044 H 1233.15 -1.40204 4.39478 0
M  V30 13045 H 1231.39 -1.25217 4.15335 0
M  V30 13046 H 1232.06 -2.76105 4.77986 0
M  V30 13047 H 1234.54 -3.01324 2.86955 0
M  V30 13048 H 1233.42 -4.26817 3.45135 0
M  V30 13049 H 1233.68 -4.07032 1.7256 0
M  V30 13050 N 1232.74 -1.33881 -0.831482 0
M  V30 13051 C 1234.01 -1.16346 -1.57236 0
M  V30 13052 C 1234.39 0.267304 -2.09401 0
M  V30 13053 O 1233.74 1.26742 -1.90128 0
M  V30 13054 C 1233.95 -2.21082 -2.70044 0
M  V30 13055 C 1235.3 -2.5562 -3.39033 0
M  V30 13056 O 1236.32 -2.19806 -2.80292 0
M  V30 13057 O 1235.18 -3.17106 -4.45091 0
M  V30 13058 H 1232.28 -0.450469 -0.693546 0
M  V30 13059 H 1234.82 -1.45487 -0.873597 0
M  V30 13060 H 1233.59 -3.17155 -2.2919 0
M  V30 13061 H 1233.22 -1.9307 -3.47577 0
M  V30 13062 N 1234.21 1.05064 -1.1747 0
M  V30 13063 C 1235.44 1.81761 -0.988464 0
M  V30 13064 C 1235.86 1.83028 0.463272 0
M  V30 13065 O 1235.21 1.25846 1.32171 0
M  V30 13066 C 1235.26 3.2782 -1.5237 0
M  V30 13067 O 1234.99 3.26726 -2.91859 0
M  V30 13068 C 1236.49 4.212 -1.38223 0
M  V30 13069 H 1233.71 0.572712 -0.349631 0
M  V30 13070 H 1236.25 1.32477 -1.55789 0
M  V30 13071 H 1234.41 3.7437 -0.996272 0
M  V30 13072 H 1234.82 4.18151 -3.16623 0
M  V30 13073 H 1236.29 5.2166 -1.80485 0
M  V30 13074 H 1236.77 4.37962 -0.329491 0
M  V30 13075 H 1237.38 3.80506 -1.89988 0
M  V30 13076 N 1235.69 0.975146 1.23809 0
M  V30 13077 C 1236.92 0.658978 1.96125 0
M  V30 13078 C 1237.33 -0.773044 1.72248 0
M  V30 13079 O 1236.69 -1.51956 1.01072 0
M  V30 13080 C 1236.74 0.933355 3.49243 0
M  V30 13081 O 1236.46 2.30909 3.72307 0
M  V30 13082 C 1237.96 0.632408 4.38766 0
M  V30 13083 H 1235.18 0.245237 0.62458 0
M  V30 13084 H 1237.73 1.3051 1.5744 0
M  V30 13085 H 1235.88 0.333323 3.85963 0
M  V30 13086 H 1236.3 2.39476 4.66638 0
M  V30 13087 H 1237.77 0.874791 5.45024 0
M  V30 13088 H 1238.25 -0.433453 4.37056 0
M  V30 13089 H 1238.85 1.21268 4.07645 0
M  V30 13090 N 1237.17 -1.38817 0.746158 0
M  V30 13091 C 1238.42 -2.00577 0.299458 0
M  V30 13092 C 1238.75 -1.59087 -1.11378 0
M  V30 13093 O 1238.02 -0.824932 -1.7614 0
M  V30 13094 C 1238.31 -3.57713 0.413932 0
M  V30 13095 C 1238.16 -4.09189 1.86774 0
M  V30 13096 C 1239.48 -4.39659 -0.197082 0
M  V30 13097 H 1236.6 -0.728702 0.110285 0
M  V30 13098 H 1239.24 -1.64866 0.944408 0
M  V30 13099 H 1237.39 -3.88265 -0.135155 0
M  V30 13100 H 1239.06 -3.89311 2.47456 0
M  V30 13101 H 1237.3 -3.62333 2.38532 0
M  V30 13102 H 1237.98 -5.18305 1.89904 0
M  V30 13103 H 1240.45 -4.15216 0.271121 0
M  V30 13104 H 1239.33 -5.48832 -0.0867011 0
M  V30 13105 H 1239.59 -4.23028 -1.2845 0
M  V30 13106 N 1238.65 -0.49465 -1.49636 0
M  V30 13107 C 1239.56 0.291881 -2.32777 0
M  V30 13108 C 1240.57 0.973468 -1.44221 0
M  V30 13109 O 1241.75 0.956252 -1.77251 0
M  V30 13110 C 1238.81 1.34609 -3.19502 0
M  V30 13111 C 1237.88 0.678611 -4.23903 0
M  V30 13112 C 1237.11 1.68259 -5.06483 0
M  V30 13113 O 1237.33 2.91176 -4.90482 0
M  V30 13114 O 1236.27 1.24141 -5.88959 0
M  V30 13115 H 1240.09 -0.388459 -3.01205 0
M  V30 13116 H 1237.68 -0.256086 -1.47189 0
M  V30 13117 H 1239.56 1.95617 -3.73245 0
M  V30 13118 H 1238.23 2.00947 -2.53775 0
M  V30 13119 H 1237.14 0.0289541 -3.74089 0
M  V30 13120 H 1238.47 0.0577817 -4.92166 0
M  V30 13121 N 1240.13 1.55939 -0.228214 0
M  V30 13122 C 1241.06 2.2357 0.6737 0
M  V30 13123 C 1242.04 1.20964 1.1959 0
M  V30 13124 O 1243.22 1.49568 1.23867 0
M  V30 13125 C 1240.35 2.92076 1.87906 0
M  V30 13126 C 1239.31 4.01211 1.49043 0
M  V30 13127 C 1238.63 4.57047 2.77511 0
M  V30 13128 C 1239.93 5.17914 0.67544 0
M  V30 13129 H 1241.63 2.99199 0.109806 0
M  V30 13130 H 1239.17 1.43908 0.0513732 0
M  V30 13131 H 1241.12 3.38083 2.51551 0
M  V30 13132 H 1239.85 2.13906 2.46803 0
M  V30 13133 H 1238.51 3.55945 0.877411 0
M  V30 13134 H 1238.16 3.75599 3.34566 0
M  V30 13135 H 1237.86 5.30707 2.52239 0
M  V30 13136 H 1239.38 5.05776 3.42087 0
M  V30 13137 H 1240.79 5.60261 1.21575 0
M  V30 13138 H 1239.19 5.97847 0.519536 0
M  V30 13139 H 1240.26 4.83866 -0.316495 0
M  V30 13140 N 1241.6 -0.0451101 1.57535 0
M  V30 13141 C 1242.57 -1.03521 2.0449 0
M  V30 13142 C 1243.57 -1.30009 0.946265 0
M  V30 13143 O 1244.76 -1.25282 1.21038 0
M  V30 13144 C 1241.89 -2.37221 2.44824 0
M  V30 13145 H 1243.08 -0.629943 2.93209 0
M  V30 13146 H 1240.64 -0.291544 1.53557 0
M  V30 13147 H 1241.37 -2.82528 1.59212 0
M  V30 13148 H 1241.16 -2.19329 3.25018 0
M  V30 13149 H 1242.65 -3.08337 2.81635 0
M  V30 13150 N 1243.08 -1.54377 -0.317073 0
M  V30 13151 C 1244.03 -1.84948 -1.41057 0
M  V30 13152 C 1245.02 -0.721887 -1.53249 0
M  V30 13153 O 1246.23 -0.905648 -1.55557 0
M  V30 13154 H 1242.61 -0.586353 -0.470844 0
M  V30 13155 H 1244.58 -2.7638 -1.12501 0
M  V30 13156 C 1243.33 -2.09932 -2.77171 0
M  V30 13157 H 1242.65 -2.96162 -2.68566 0
M  V30 13158 H 1244.09 -2.35272 -3.52737 0
M  V30 13159 C 1242.55 -0.892855 -3.24853 0
M  V30 13160 O 1243.08 -0.105336 -4.01562 0
M  V30 13161 N 1241.28 -0.702685 -2.81976 0
M  V30 13162 H 1240.83 -1.34474 -2.19715 0
M  V30 13163 H 1240.79 0.103024 -3.14231 0
M  V30 13164 N 1244.56 0.579466 -1.4656 0
M  V30 13165 C 1245.51 1.68829 -1.5737 0
M  V30 13166 C 1246.48 1.60759 -0.417825 0
M  V30 13167 O 1247.66 1.79923 -0.635001 0
M  V30 13168 C 1244.8 3.07166 -1.573 0
M  V30 13169 C 1243.92 3.25837 -2.83645 0
M  V30 13170 C 1243.05 4.54441 -2.75057 0
M  V30 13171 C 1242.09 4.66467 -3.96327 0
M  V30 13172 N 1241.23 5.86401 -3.86107 0
M  V30 13173 H 1246.07 1.58928 -2.52083 0
M  V30 13174 H 1243.6 0.774526 -1.25058 0
M  V30 13175 H 1245.56 3.8724 -1.55245 0
M  V30 13176 H 1244.19 3.15956 -0.661166 0
M  V30 13177 H 1243.24 2.39345 -2.95666 0
M  V30 13178 H 1244.56 3.30591 -3.73512 0
M  V30 13179 H 1243.71 5.42748 -2.71126 0
M  V30 13180 H 1242.45 4.52131 -1.82836 0
M  V30 13181 H 1241.45 3.76577 -4.00587 0
M  V30 13182 H 1242.68 4.70554 -4.89649 0
M  V30 13183 H 1240.62 5.85082 -2.96673 0
M  V30 13184 H 1240.54 5.92437 -4.69632 0
M  V30 13185 H 1241.81 6.7713 -3.86155 0
M  V30 13186 N 1246.04 1.3432 0.824371 0
M  V30 13187 C 1247.28 1.26783 1.58284 0
M  V30 13188 C 1247.62 -0.162282 1.93521 0
M  V30 13189 O 1246.89 -1.1073 1.59903 0
M  V30 13190 C 1247.18 2.15725 2.88331 0
M  V30 13191 C 1247.03 3.67266 2.59684 0
M  V30 13192 C 1248.35 2.04141 3.8989 0
M  V30 13193 H 1245.47 0.461893 0.574303 0
M  V30 13194 H 1248.11 1.64558 0.949769 0
M  V30 13195 H 1246.26 1.83639 3.42358 0
M  V30 13196 H 1247.93 4.09711 2.11978 0
M  V30 13197 H 1246.17 3.88426 1.93151 0
M  V30 13198 H 1246.84 4.24863 3.52414 0
M  V30 13199 H 1249.32 2.3231 3.45212 0
M  V30 13200 H 1248.2 2.68601 4.7869 0
M  V30 13201 H 1248.46 1.01795 4.30221 0
M  V30 13202 N 1247.52 -1.0444 1.18026 0
M  V30 13203 C 1248.76 -1.77224 0.971391 0
M  V30 13204 C 1249.09 -1.88466 -0.500564 0
M  V30 13205 O 1248.36 -1.40692 -1.36317 0
M  V30 13206 H 1246.94 -0.656485 0.356422 0
M  V30 13207 H 1249.6 -1.26064 1.4864 0
M  V30 13208 H 1248.69 -2.78626 1.4062 0
M  V30 13209 N 1248.99 -0.981699 -1.2329 0
M  V30 13210 C 1249.96 -0.527992 -2.23036 0
M  V30 13211 C 1250.96 0.383083 -1.5617 0
M  V30 13212 O 1252.15 0.176595 -1.73303 0
M  V30 13213 C 1249.28 0.233501 -3.40099 0
M  V30 13214 H 1250.47 -1.40995 -2.64689 0
M  V30 13215 H 1248.03 -0.767724 -1.36146 0
M  V30 13216 H 1248.76 1.13194 -3.03904 0
M  V30 13217 H 1248.55 -0.420505 -3.89839 0
M  V30 13218 H 1250.04 0.539485 -4.14101 0
M  V30 13219 N 1250.47 1.3842 -0.753509 0
M  V30 13220 C 1251.44 2.28808 -0.134022 0
M  V30 13221 C 1252.44 1.47184 0.647583 0
M  V30 13222 O 1253.63 1.67631 0.473861 0
M  V30 13223 C 1250.76 3.30926 0.81858 0
M  V30 13224 H 1251.95 2.85097 -0.930586 0
M  V30 13225 H 1249.5 1.47378 -0.520514 0
M  V30 13226 H 1250.24 2.79728 1.64082 0
M  V30 13227 H 1250.02 3.91234 0.260526 0
M  V30 13228 H 1251.51 3.98515 1.24802 0
M  V30 13229 N 1251.95 0.502579 1.49372 0
M  V30 13230 C 1252.86 -0.279532 2.32929 0
M  V30 13231 C 1253.88 -0.965806 1.44735 0
M  V30 13232 O 1255.05 -0.946839 1.77755 0
M  V30 13233 C 1252.12 -1.32913 3.20211 0
M  V30 13234 C 1251.18 -0.656121 4.24256 0
M  V30 13235 C 1250.41 -1.65571 5.07368 0
M  V30 13236 O 1250.63 -2.88571 4.92019 0
M  V30 13237 O 1249.57 -1.21016 5.89609 0
M  V30 13238 H 1253.39 0.404427 3.00995 0
M  V30 13239 H 1250.98 0.263888 1.47051 0
M  V30 13240 H 1252.86 -1.93635 3.74277 0
M  V30 13241 H 1251.54 -1.99598 2.54837 0
M  V30 13242 H 1250.44 -0.00911489 3.74099 0
M  V30 13243 H 1251.78 -0.0316802 4.9219 0
M  V30 13244 N 1253.43 -1.55816 0.23648 0
M  V30 13245 C 1254.68 -1.97862 -0.391579 0
M  V30 13246 C 1254.99 -1.1276 -1.59827 0
M  V30 13247 O 1256.2 -1.44772 -2.29681 0
M  V30 13248 C 1254.65 -3.5204 -0.748065 0
M  V30 13249 C 1254.26 -4.45867 0.436643 0
M  V30 13250 C 1256 -4.02766 -1.3409 0
M  V30 13251 C 1253.91 -5.91373 0.0568909 0
M  V30 13252 H 1252.84 -0.738913 -0.150078 0
M  V30 13253 H 1255.49 -1.80415 0.335052 0
M  V30 13254 H 1253.87 -3.65143 -1.53254 0
M  V30 13255 H 1255.05 -4.44519 1.21408 0
M  V30 13256 H 1253.36 -4.05565 0.943702 0
M  V30 13257 H 1255.96 -5.08987 -1.63817 0
M  V30 13258 H 1256.3 -3.49496 -2.26182 0
M  V30 13259 H 1256.84 -3.92946 -0.619548 0
M  V30 13260 H 1253.58 -6.48657 0.944682 0
M  V30 13261 H 1253.1 -5.95881 -0.684557 0
M  V30 13262 H 1254.77 -6.45972 -0.364586 0
M  V30 13263 N 1254.91 0.036755 -1.57557 0
M  V30 13264 C 1256.16 0.728107 -1.881 0
M  V30 13265 C 1256.47 1.7693 -0.833974 0
M  V30 13266 O 1257.67 2.5127 -1.02837 0
M  V30 13267 C 1256.13 1.34604 -3.33781 0
M  V30 13268 C 1255.74 0.341599 -4.46696 0
M  V30 13269 C 1257.48 2.01772 -3.73481 0
M  V30 13270 C 1255.39 0.967444 -5.83433 0
M  V30 13271 H 1254.32 0.275695 -0.701789 0
M  V30 13272 H 1256.97 -0.0177555 -1.83491 0
M  V30 13273 H 1255.35 2.14135 -3.3311 0
M  V30 13274 H 1256.53 -0.426441 -4.58823 0
M  V30 13275 H 1254.84 -0.227558 -4.15778 0
M  V30 13276 H 1257.44 2.49435 -4.72955 0
M  V30 13277 H 1257.78 2.83255 -3.05077 0
M  V30 13278 H 1258.31 1.29026 -3.76294 0
M  V30 13279 H 1255.05 0.19219 -6.55218 0
M  V30 13280 H 1254.57 1.70551 -5.75041 0
M  V30 13281 H 1256.25 1.47705 -6.29914 0
M  V30 13282 N 1256.39 1.54543 0.308881 0
M  V30 13283 C 1257.61 1.77753 1.06857 0
M  V30 13284 C 1258.04 0.531616 1.80431 0
M  V30 13285 O 1257.39 -0.517513 1.73757 0
M  V30 13286 C 1257.44 2.97968 2.03094 0
M  V30 13287 O 1256.55 2.70541 3.11257 0
M  V30 13288 H 1255.89 0.588576 0.307368 0
M  V30 13289 H 1258.42 2.01607 0.348703 0
M  V30 13290 H 1258.43 3.25722 2.45702 0
M  V30 13291 H 1257.1 3.88314 1.48948 0
M  V30 13292 H 1255.68 2.53781 2.7322 0
M  V30 13293 N 1257.86 -0.571685 1.46866 0
M  V30 13294 C 1259.28 -0.896172 1.32064 0
M  V30 13295 C 1259.48 -1.9925 0.300291 0
M  V30 13296 O 1258.54 -2.50791 -0.293284 0
M  V30 13297 C 1259.85 -1.3031 2.70998 0
M  V30 13298 C 1261.4 -1.41533 2.79173 0
M  V30 13299 C 1261.87 -1.85587 4.18714 0
M  V30 13300 N 1263.36 -1.92762 4.21185 0
M  V30 13301 C 1264.1 -2.28148 5.26057 0
M  V30 13302 N 1263.59 -2.62248 6.41247 0
M  V30 13303 N 1265.39 -2.28797 5.13428 0
M  V30 13304 H 1257.54 0.152349 2.11853 0
M  V30 13305 H 1259.8 0.00548777 0.947984 0
M  V30 13306 H 1259.51 -0.571469 3.47026 0
M  V30 13307 H 1259.38 -2.26233 3.01826 0
M  V30 13308 H 1261.77 -2.1378 2.03426 0
M  V30 13309 H 1261.85 -0.438342 2.52016 0
M  V30 13310 H 1261.49 -1.13915 4.9496 0
M  V30 13311 H 1261.42 -2.84264 4.43285 0
M  V30 13312 H 1263.91 -1.68854 3.38078 0
M  V30 13313 H 1264.23 -2.88234 7.17036 0
M  V30 13314 H 1262.57 -2.59861 6.44591 0
M  V30 13315 H 1265.76 -2.01587 4.22469 0
M  V30 13316 H 1265.94 -2.56045 5.95269 0
M  V30 13317 N 1259.34 -1.34755 -0.817236 0
M  V30 13318 C 1260.59 -1.26771 -1.56882 0
M  V30 13319 C 1260.9 0.158962 -1.94953 0
M  V30 13320 O 1262.11 0.360996 -2.69089 0
M  V30 13321 C 1260.57 -2.22261 -2.83069 0
M  V30 13322 C 1260.17 -3.70216 -2.52277 0
M  V30 13323 C 1261.92 -2.23197 -3.61086 0
M  V30 13324 C 1259.82 -4.57559 -3.74691 0
M  V30 13325 H 1258.75 -0.470961 -0.588822 0
M  V30 13326 H 1261.41 -1.59955 -0.899254 0
M  V30 13327 H 1259.79 -1.82036 -3.5168 0
M  V30 13328 H 1260.96 -4.19014 -1.9174 0
M  V30 13329 H 1259.28 -3.71784 -1.87525 0
M  V30 13330 H 1261.87 -2.85673 -4.5199 0
M  V30 13331 H 1262.22 -1.2328 -3.97628 0
M  V30 13332 H 1262.75 -2.61897 -2.99424 0
M  V30 13333 H 1259.49 -5.58434 -3.43267 0
M  V30 13334 H 1259.01 -4.13494 -4.34491 0
M  V30 13335 H 1260.69 -4.72451 -4.42039 0
M  V30 13336 N 1260.82 1.03812 -1.18578 0
M  V30 13337 C 1262.07 1.77319 -0.984173 0
M  V30 13338 C 1262.4 1.88052 0.484789 0
M  V30 13339 O 1261.67 1.3905 1.35998 0
M  V30 13340 C 1261.96 3.20448 -1.6427 0
M  V30 13341 C 1261.81 3.17643 -3.1847 0
M  V30 13342 C 1263.13 4.18623 -1.35805 0
M  V30 13343 H 1260.25 0.643681 -0.358949 0
M  V30 13344 H 1262.89 1.21249 -1.46283 0
M  V30 13345 H 1261.04 3.68324 -1.23572 0
M  V30 13346 H 1262.71 2.77738 -3.6832 0
M  V30 13347 H 1260.95 2.55606 -3.50497 0
M  V30 13348 H 1261.63 4.18724 -3.59686 0
M  V30 13349 H 1264.1 3.79306 -1.71073 0
M  V30 13350 H 1262.98 5.16982 -1.84446 0
M  V30 13351 H 1263.24 4.41203 -0.281418 0
M  V30 13352 N 1262.3 0.988223 1.22768 0
M  V30 13353 C 1263.57 0.577578 1.86878 0
M  V30 13354 C 1263.95 -0.945197 1.88757 0
M  V30 13355 O 1263.3 -1.82519 1.37474 0
M  V30 13356 C 1263.51 1.19263 3.2799 0
M  V30 13357 C 1264.86 1.29024 4.04522 0
M  V30 13358 O 1265.88 1.14667 3.37239 0
M  V30 13359 O 1264.74 1.51949 5.24951 0
M  V30 13360 H 1261.84 0.195579 0.803541 0
M  V30 13361 H 1264.38 1.0838 1.30582 0
M  V30 13362 H 1263.16 2.23442 3.21231 0
M  V30 13363 H 1262.78 0.671706 3.91885 0
M  V30 13364 N 1263.78 -1.38018 0.760839 0
M  V30 13365 C 1265.05 -1.94054 0.245437 0
M  V30 13366 C 1265.43 -1.6955 -1.25761 0
M  V30 13367 O 1264.78 -1.03812 -2.03557 0
M  V30 13368 C 1264.99 -3.43681 0.606986 0
M  V30 13369 C 1266.34 -4.20748 0.570673 0
M  V30 13370 O 1267.36 -3.51995 0.545715 0
M  V30 13371 O 1266.22 -5.43327 0.588043 0
M  V30 13372 H 1263.32 -0.825264 0.0535607 0
M  V30 13373 H 1265.86 -1.47369 0.841453 0
M  V30 13374 H 1264.63 -3.55054 1.64476 0
M  V30 13375 H 1264.26 -3.97597 -0.0166576 0
M  V30 13376 N 1265.25 -0.510493 -1.49103 0
M  V30 13377 C 1266.18 0.251999 -2.32136 0
M  V30 13378 C 1267.16 0.953613 -1.40855 0
M  V30 13379 O 1268.35 0.943178 -1.69758 0
M  V30 13380 C 1265.48 1.31118 -3.21598 0
M  V30 13381 C 1264.43 0.72888 -4.21748 0
M  V30 13382 C 1263.76 1.88928 -5.0021 0
M  V30 13383 C 1265.06 -0.286425 -5.21514 0
M  V30 13384 H 1266.75 -0.441102 -2.96133 0
M  V30 13385 H 1264.3 -0.213577 -1.42407 0
M  V30 13386 H 1266.25 1.8524 -3.78503 0
M  V30 13387 H 1264.98 2.0336 -2.55563 0
M  V30 13388 H 1263.64 0.209336 -3.66002 0
M  V30 13389 H 1263.28 2.59961 -4.30615 0
M  V30 13390 H 1262.98 1.50568 -5.67981 0
M  V30 13391 H 1264.51 2.43465 -5.59962 0
M  V30 13392 H 1265.92 0.166997 -5.73057 0
M  V30 13393 H 1264.32 -0.586361 -5.97228 0
M  V30 13394 H 1265.39 -1.19904 -4.69842 0
M  V30 13395 N 1266.73 1.55688 -0.24474 0
M  V30 13396 C 1267.68 2.21289 0.655723 0
M  V30 13397 C 1268.65 1.17606 1.17295 0
M  V30 13398 O 1269.83 1.46045 1.22782 0
M  V30 13399 C 1266.97 2.91453 1.84794 0
M  V30 13400 C 1266.09 4.09787 1.36744 0
M  V30 13401 C 1265.22 4.67672 2.51905 0
M  V30 13402 C 1264.26 5.78259 2.00706 0
M  V30 13403 N 1263.4 6.30336 3.09225 0
M  V30 13404 H 1268.24 2.97865 0.0896156 0
M  V30 13405 H 1265.77 1.47064 0.0324725 0
M  V30 13406 H 1267.73 3.30331 2.54828 0
M  V30 13407 H 1266.36 2.17355 2.38656 0
M  V30 13408 H 1265.41 3.76237 0.561228 0
M  V30 13409 H 1266.73 4.89627 0.952199 0
M  V30 13410 H 1265.88 5.09113 3.29984 0
M  V30 13411 H 1264.62 3.87044 2.9673 0
M  V30 13412 H 1263.62 5.36298 1.21097 0
M  V30 13413 H 1264.85 6.60737 1.56853 0
M  V30 13414 H 1262.8 5.52614 3.53489 0
M  V30 13415 H 1262.71 7.05364 2.72025 0
M  V30 13416 H 1263.98 6.76435 3.8737 0
M  V30 13417 N 1268.21 -0.0283989 1.57574 0
M  V30 13418 C 1269.49 -0.754527 1.80461 0
M  V30 13419 C 1269.87 -1.93539 0.842966 0
M  V30 13420 O 1269.21 -2.28212 -0.114714 0
M  V30 13421 C 1269.42 -1.18694 3.28196 0
M  V30 13422 C 1270.77 -1.60257 3.93196 0
M  V30 13423 O 1271.8 -1.2815 3.32349 0
M  V30 13424 O 1270.66 -2.19853 5.00327 0
M  V30 13425 H 1267.75 -0.364936 0.742126 0
M  V30 13426 H 1270.3 -0.00512589 1.69699 0
M  V30 13427 H 1269.07 -0.34398 3.89785 0
M  V30 13428 H 1268.69 -1.99633 3.43849 0
M  V30 13429 N 1269.69 -1.54705 -0.300681 0
M  V30 13430 C 1270.6 -1.88736 -1.39341 0
M  V30 13431 C 1271.61 -0.78155 -1.5546 0
M  V30 13432 O 1272.79 -1.07804 -1.70118 0
M  V30 13433 C 1269.85 -2.12795 -2.73713 0
M  V30 13434 C 1268.92 -3.36504 -2.66577 0
M  V30 13435 C 1268.15 -3.59407 -3.94541 0
M  V30 13436 O 1268.37 -2.85315 -4.93914 0
M  V30 13437 O 1267.31 -4.52923 -3.96415 0
M  V30 13438 H 1271.13 -2.817 -1.13484 0
M  V30 13439 H 1268.72 -1.40899 -0.496771 0
M  V30 13440 H 1270.6 -2.29819 -3.53215 0
M  V30 13441 H 1269.27 -1.23017 -2.99414 0
M  V30 13442 H 1268.18 -3.24844 -1.85546 0
M  V30 13443 H 1269.51 -4.26414 -2.45829 0
M  V30 13444 N 1271.17 0.563888 -1.47167 0
M  V30 13445 C 1272.13 1.65359 -1.58711 0
M  V30 13446 C 1273.13 1.53999 -0.46272 0
M  V30 13447 O 1274.32 1.58277 -0.727595 0
M  V30 13448 C 1271.45 3.04874 -1.52529 0
M  V30 13449 H 1272.64 1.56475 -2.55843 0
M  V30 13450 H 1270.2 0.783271 -1.35257 0
M  V30 13451 H 1270.93 3.19297 -0.56747 0
M  V30 13452 H 1270.72 3.14528 -2.34125 0
M  V30 13453 H 1272.21 3.84164 -1.63731 0
M  V30 13454 N 1272.64 1.35187 0.810078 0
M  V30 13455 C 1273.55 1.29926 1.95337 0
M  V30 13456 C 1274.57 0.204748 1.72791 0
M  V30 13457 O 1275.75 0.433507 1.96679 0
M  V30 13458 C 1272.81 1.06736 3.29861 0
M  V30 13459 C 1271.87 2.25466 3.65326 0
M  V30 13460 C 1271.11 2.03373 4.93432 0
M  V30 13461 O 1271.33 0.998419 5.61594 0
M  V30 13462 O 1270.26 2.90648 5.27075 0
M  V30 13463 H 1274.09 2.26137 2.02721 0
M  V30 13464 H 1271.67 1.15523 0.947354 0
M  V30 13465 H 1273.56 0.956367 4.10404 0
M  V30 13466 H 1272.23 0.135735 3.23415 0
M  V30 13467 H 1271.14 2.42129 2.85175 0
M  V30 13468 H 1272.47 3.17063 3.76473 0
M  V30 13469 N 1274.12 -1.03182 1.19127 0
M  V30 13470 C 1275.05 -2.11462 0.884098 0
M  V30 13471 C 1276.07 -1.62342 -0.121984 0
M  V30 13472 O 1277.26 -1.78179 0.107038 0
M  V30 13473 C 1274.36 -3.37559 0.301227 0
M  V30 13474 C 1273.53 -4.15878 1.35514 0
M  V30 13475 C 1272.59 -5.20291 0.786349 0
M  V30 13476 O 1271.61 -5.50069 1.46331 0
M  V30 13477 N 1272.82 -5.79038 -0.411803 0
M  V30 13478 H 1275.58 -2.38405 1.81613 0
M  V30 13479 H 1273.14 -1.19449 1.09287 0
M  V30 13480 H 1275.13 -4.04593 -0.0930685 0
M  V30 13481 H 1273.7 -3.07987 -0.535022 0
M  V30 13482 H 1272.92 -3.44036 1.9244 0
M  V30 13483 H 1274.21 -4.64993 2.06539 0
M  V30 13484 H 1273.61 -5.57158 -0.979353 0
M  V30 13485 H 1272.17 -6.47495 -0.747912 0
M  V30 13486 N 1275.6 -0.99472 -1.22242 0
M  V30 13487 C 1276.83 -0.689096 -1.94769 0
M  V30 13488 C 1277.24 0.750597 -1.73674 0
M  V30 13489 O 1276.58 1.51836 -1.03399 0
M  V30 13490 C 1276.64 -0.917454 -3.47596 0
M  V30 13491 C 1276.31 -2.34198 -3.92429 0
M  V30 13492 C 1277.3 -3.3216 -3.99957 0
M  V30 13493 C 1274.99 -2.6769 -4.25026 0
M  V30 13494 C 1276.98 -4.61686 -4.3946 0
M  V30 13495 C 1274.67 -3.97435 -4.64208 0
M  V30 13496 C 1275.67 -4.94244 -4.71394 0
M  V30 13497 O 1275.36 -6.2167 -5.09688 0
M  V30 13498 H 1275.09 -0.253914 -0.626501 0
M  V30 13499 H 1277.64 -1.33271 -1.56294 0
M  V30 13500 H 1275.87 -0.21666 -3.86093 0
M  V30 13501 H 1277.56 -0.6068 -4.01339 0
M  V30 13502 H 1278.33 -3.07619 -3.74961 0
M  V30 13503 H 1274.21 -1.93039 -4.18637 0
M  V30 13504 H 1277.75 -5.37248 -4.44983 0
M  V30 13505 H 1273.65 -4.21765 -4.88656 0
M  V30 13506 H 1274.42 -6.25634 -5.27755 0
M  V30 13507 N 1277.08 1.37613 -0.768148 0
M  V30 13508 C 1278.49 1.53202 -0.44737 0
M  V30 13509 C 1278.69 1.72736 1.03752 0
M  V30 13510 O 1277.75 1.74667 1.8234 0
M  V30 13511 C 1279.06 2.7306 -1.25931 0
M  V30 13512 C 1280.61 2.8692 -1.25084 0
M  V30 13513 C 1281.09 4.09757 -2.04605 0
M  V30 13514 N 1282.58 4.16862 -2.0194 0
M  V30 13515 C 1283.31 5.10936 -2.60254 0
M  V30 13516 N 1282.81 6.1059 -3.27341 0
M  V30 13517 N 1284.6 5.03393 -2.50104 0
M  V30 13518 H 1276.75 1.23184 -1.7303 0
M  V30 13519 H 1279.02 0.599541 -0.73434 0
M  V30 13520 H 1278.72 2.65078 -2.31141 0
M  V30 13521 H 1278.6 3.66646 -0.886036 0
M  V30 13522 H 1280.98 2.94375 -0.206736 0
M  V30 13523 H 1281.06 1.94303 -1.66373 0
M  V30 13524 H 1280.71 4.03063 -3.09035 0
M  V30 13525 H 1280.64 5.01481 -1.60701 0
M  V30 13526 H 1283.13 3.455 -1.53096 0
M  V30 13527 H 1283.44 6.78893 -3.6922 0
M  V30 13528 H 1281.79 6.10879 -3.31439 0
M  V30 13529 H 1284.98 4.24483 -1.9731 0
M  V30 13530 H 1285.15 5.76524 -2.95844 0
M  V30 13531 N 1278.56 0.518393 1.4883 0
M  V30 13532 C 1279.5 -0.250684 2.29435 0
M  V30 13533 C 1280.47 -0.944481 1.36634 0
M  V30 13534 O 1281.66 -0.947766 1.65596 0
M  V30 13535 C 1278.8 -1.29871 3.1973 0
M  V30 13536 C 1277.91 -0.61493 4.27601 0
M  V30 13537 C 1277.05 -1.64489 5.05091 0
M  V30 13538 C 1276.09 -0.943932 6.04778 0
M  V30 13539 N 1275.22 -1.91889 6.75369 0
M  V30 13540 H 1280.06 0.44288 2.94691 0
M  V30 13541 H 1277.6 0.230246 1.45287 0
M  V30 13542 H 1279.56 -1.91851 3.70471 0
M  V30 13543 H 1278.19 -1.96081 2.56422 0
M  V30 13544 H 1277.24 0.118552 3.80215 0
M  V30 13545 H 1278.55 -0.063994 4.98759 0
M  V30 13546 H 1277.71 -2.33928 5.59788 0
M  V30 13547 H 1276.44 -2.2297 4.33746 0
M  V30 13548 H 1275.45 -0.235407 5.49296 0
M  V30 13549 H 1276.67 -0.365383 6.78116 0
M  V30 13550 H 1274.62 -2.493 6.06783 0
M  V30 13551 H 1274.54 -1.41909 7.42562 0
M  V30 13552 H 1275.81 -2.60563 7.34661 0
M  V30 13553 N 1280.03 -1.55556 0.252993 0
M  V30 13554 C 1280.97 -2.17683 -0.684776 0
M  V30 13555 C 1281.95 -1.13077 -1.16843 0
M  V30 13556 O 1283.13 -1.41495 -1.24545 0
M  V30 13557 C 1280.26 -2.78239 -1.93134 0
M  V30 13558 C 1279.3 -3.95953 -1.58504 0
M  V30 13559 S 1280.14 -5.31135 -0.682367 0
M  V30 13560 C 1281.29 -5.95147 -1.93779 0
M  V30 13561 H 1281.52 -2.96886 -0.156823 0
M  V30 13562 H 1279.06 -1.54355 0.0374019 0
M  V30 13563 H 1281.02 -3.13763 -2.64694 0
M  V30 13564 H 1279.68 -1.98971 -2.43042 0
M  V30 13565 H 1278.87 -4.36936 -2.51203 0
M  V30 13566 H 1278.47 -3.61738 -0.949815 0
M  V30 13567 H 1280.76 -6.13035 -2.88435 0
M  V30 13568 H 1281.71 -6.90445 -1.57135 0
M  V30 13569 H 1282.11 -5.24279 -2.09266 0
M  V30 13570 N 1281.51 0.0200419 -1.57587 0
M  V30 13571 C 1282.76 0.710078 -1.89962 0
M  V30 13572 C 1283.09 1.74521 -0.851829 0
M  V30 13573 O 1282.37 1.94052 0.132005 0
M  V30 13574 C 1282.65 1.37145 -3.32961 0
M  V30 13575 C 1282.5 0.349221 -4.48442 0
M  V30 13576 C 1283.82 2.30304 -3.75031 0
M  V30 13577 H 1280.94 0.25667 -0.690862 0
M  V30 13578 H 1283.58 -0.0271362 -1.89981 0
M  V30 13579 H 1281.73 1.99981 -3.33076 0
M  V30 13580 H 1283.4 -0.277916 -4.60462 0
M  V30 13581 H 1281.65 -0.330594 -4.32538 0
M  V30 13582 H 1282.32 0.850636 -5.45406 0
M  V30 13583 H 1284.79 1.77503 -3.7634 0
M  V30 13584 H 1283.67 2.73555 -4.75877 0
M  V30 13585 H 1283.93 3.17364 -3.07786 0
M  V30 13586 N 1282.99 1.54862 0.292472 0
M  V30 13587 C 1283.92 1.81298 1.38586 0
M  V30 13588 C 1284.9 0.664704 1.48393 0
M  V30 13589 O 1286.09 0.905595 1.65322 0
M  V30 13590 C 1283.21 1.9573 2.76419 0
M  V30 13591 C 1282.26 3.18197 2.83994 0
M  V30 13592 S 1283.09 4.76054 2.45219 0
M  V30 13593 C 1284.25 4.93433 3.85064 0
M  V30 13594 H 1284.48 2.73755 1.15955 0
M  V30 13595 H 1282.01 1.46383 0.491053 0
M  V30 13596 H 1283.97 2.0473 3.55803 0
M  V30 13597 H 1282.63 1.04196 2.96314 0
M  V30 13598 H 1281.83 3.25123 3.85112 0
M  V30 13599 H 1281.43 3.07688 2.12613 0
M  V30 13600 H 1283.72 4.7798 4.80148 0
M  V30 13601 H 1284.66 5.95515 3.83103 0
M  V30 13602 H 1285.07 4.2153 3.75463 0
M  V30 13603 N 1284.47 -0.556076 1.47464 0
M  V30 13604 C 1285.38 -1.69043 1.62671 0
M  V30 13605 C 1286.39 -1.66372 0.509535 0
M  V30 13606 O 1287.57 -1.85799 0.777218 0
M  V30 13607 C 1284.64 -3.05546 1.63836 0
M  V30 13608 C 1283.7 -3.19275 2.86988 0
M  V30 13609 C 1282.93 -4.49267 2.88088 0
M  V30 13610 O 1283.15 -5.34796 1.98368 0
M  V30 13611 O 1282.09 -4.66811 3.79962 0
M  V30 13612 H 1285.91 -1.59155 2.58657 0
M  V30 13613 H 1283.5 -0.726211 1.30562 0
M  V30 13614 H 1285.38 -3.86778 1.67275 0
M  V30 13615 H 1284.05 -3.15814 0.710173 0
M  V30 13616 H 1282.96 -2.37437 2.89093 0
M  V30 13617 H 1284.29 -3.13912 3.79104 0
M  V30 13618 N 1285.95 -1.35615 -0.802897 0
M  V30 13619 C 1287.18 -1.32217 -1.59142 0
M  V30 13620 C 1287.59 0.0995496 -1.88537 0
M  V30 13621 O 1286.95 1.05258 -1.49087 0
M  V30 13622 C 1287 -2.13048 -2.92049 0
M  V30 13623 O 1286.72 -3.49677 -2.63927 0
M  V30 13624 C 1288.22 -2.17278 -3.864 0
M  V30 13625 H 1285.44 -0.454054 -0.49404 0
M  V30 13626 H 1287.98 -1.78521 -0.997516 0
M  V30 13627 H 1286.14 -1.70334 -3.47944 0
M  V30 13628 H 1286.55 -3.917 -3.48814 0
M  V30 13629 H 1288.03 -2.7822 -4.76758 0
M  V30 13630 H 1288.5 -1.17253 -4.23259 0
M  V30 13631 H 1289.11 -2.6017 -3.3644 0
M  V30 13632 N 1287.43 1.02549 -1.19673 0
M  V30 13633 C 1288.67 1.75408 -0.995732 0
M  V30 13634 C 1288.99 1.89773 0.473863 0
M  V30 13635 O 1290.19 2.59638 0.793762 0
M  V30 13636 C 1288.65 3.15444 -1.73273 0
M  V30 13637 C 1288.26 3.09121 -3.24266 0
M  V30 13638 C 1290 3.92575 -1.61509 0
M  V30 13639 C 1287.91 4.44109 -3.9054 0
M  V30 13640 H 1286.84 0.657569 -0.368944 0
M  V30 13641 H 1289.49 1.14739 -1.43203 0
M  V30 13642 H 1287.87 3.76601 -1.22425 0
M  V30 13643 H 1289.05 2.57325 -3.82257 0
M  V30 13644 H 1287.36 2.45485 -3.36342 0
M  V30 13645 H 1289.96 4.92428 -2.08372 0
M  V30 13646 H 1290.3 4.12382 -0.569804 0
M  V30 13647 H 1290.83 3.38027 -2.09721 0
M  V30 13648 H 1287.57 4.29506 -4.95182 0
M  V30 13649 H 1287.09 4.95947 -3.37337 0
M  V30 13650 H 1288.77 5.12982 -3.94282 0
M  V30 13651 N 1288.9 1.00119 1.21713 0
M  V30 13652 C 1289.81 0.567582 2.27631 0
M  V30 13653 C 1290.83 -0.387593 1.69628 0
M  V30 13654 O 1292.01 -0.252372 1.99813 0
M  V30 13655 C 1289.07 -0.102745 3.46548 0
M  V30 13656 C 1288.13 0.896433 4.19836 0
M  V30 13657 C 1287.36 0.258 5.33076 0
M  V30 13658 O 1287.59 -0.946118 5.62499 0
M  V30 13659 O 1286.52 0.967021 5.94081 0
M  V30 13660 H 1290.35 1.44898 2.66905 0
M  V30 13661 H 1287.93 0.769862 1.28037 0
M  V30 13662 H 1289.81 -0.477846 4.18682 0
M  V30 13663 H 1288.49 -0.958576 3.09181 0
M  V30 13664 H 1287.4 1.32262 3.49939 0
M  V30 13665 H 1288.73 1.72173 4.61104 0
M  V30 13666 N 1290.38 -1.37203 0.775435 0
M  V30 13667 C 1291.33 -2.30228 0.162388 0
M  V30 13668 C 1292.3 -1.51284 -0.685747 0
M  V30 13669 O 1293.48 -1.7984 -0.637342 0
M  V30 13670 C 1290.62 -3.37762 -0.707858 0
M  V30 13671 C 1289.74 -4.31714 0.157287 0
M  V30 13672 C 1288.87 -5.26325 -0.718012 0
M  V30 13673 C 1287.91 -6.11918 0.149442 0
M  V30 13674 N 1287.05 -6.9876 -0.684043 0
M  V30 13675 H 1291.89 -2.82073 0.961184 0
M  V30 13676 H 1289.42 -1.38854 0.485587 0
M  V30 13677 H 1291.38 -3.98741 -1.22726 0
M  V30 13678 H 1290.01 -2.87273 -1.47222 0
M  V30 13679 H 1289.06 -3.7201 0.794533 0
M  V30 13680 H 1290.38 -4.91909 0.826262 0
M  V30 13681 H 1289.53 -5.92526 -1.30376 0
M  V30 13682 H 1288.27 -4.6655 -1.42066 0
M  V30 13683 H 1287.27 -5.44692 0.747697 0
M  V30 13684 H 1288.5 -6.73766 0.849476 0
M  V30 13685 H 1286.45 -6.41508 -1.37124 0
M  V30 13686 H 1286.36 -7.55965 -0.0724464 0
M  V30 13687 H 1287.63 -7.69346 -1.25407 0
M  V30 13688 N 1291.86 -0.526279 -1.48553 0
M  V30 13689 C 1293.11 0.0111473 -2.01697 0
M  V30 13690 C 1293.42 1.35675 -1.40895 0
M  V30 13691 O 1294.63 1.98233 -1.85515 0
M  V30 13692 C 1293.08 0.0702721 -3.59831 0
M  V30 13693 C 1292.69 -1.27022 -4.29616 0
M  V30 13694 C 1294.44 0.556722 -4.20834 0
M  V30 13695 C 1292.34 -1.17188 -5.79673 0
M  V30 13696 H 1291.27 0.00793697 -0.753958 0
M  V30 13697 H 1293.92 -0.669503 -1.70851 0
M  V30 13698 H 1292.31 0.81592 -3.87503 0
M  V30 13699 H 1293.48 -2.03114 -4.1362 0
M  V30 13700 H 1291.79 -1.69211 -3.80469 0
M  V30 13701 H 1294.39 0.648205 -5.30756 0
M  V30 13702 H 1294.73 1.56163 -3.859 0
M  V30 13703 H 1295.27 -0.133132 -3.97577 0
M  V30 13704 H 1292.01 -2.15182 -6.19174 0
M  V30 13705 H 1291.53 -0.452259 -5.98093 0
M  V30 13706 H 1293.21 -0.861011 -6.41245 0
M  V30 13707 N 1293.34 1.5542 -0.261239 0
M  V30 13708 C 1294.27 2.18043 0.673222 0
M  V30 13709 C 1295.25 1.13696 1.16242 0
M  V30 13710 O 1296.43 1.42153 1.23793 0
M  V30 13711 C 1293.56 2.7926 1.91655 0
M  V30 13712 C 1292.61 3.96788 1.56402 0
M  V30 13713 S 1293.44 5.31489 0.654191 0
M  V30 13714 C 1294.59 5.96167 1.9062 0
M  V30 13715 H 1294.83 2.96965 0.141076 0
M  V30 13716 H 1292.36 1.54333 -0.0455871 0
M  V30 13717 H 1294.32 3.15162 2.63026 0
M  V30 13718 H 1292.98 2.00257 2.41983 0
M  V30 13719 H 1292.17 4.38262 2.48882 0
M  V30 13720 H 1291.77 3.62237 0.930618 0
M  V30 13721 H 1294.07 6.14556 2.8518 0
M  V30 13722 H 1295.01 6.91269 1.53471 0
M  V30 13723 H 1295.42 5.25381 2.06483 0
M  V30 13724 N 1294.82 -0.0116844 1.57596 0
M  V30 13725 C 1296.06 -0.697577 1.89679 0
M  V30 13726 C 1296.38 -1.74956 0.861122 0
M  V30 13727 O 1295.65 -1.95629 -0.103031 0
M  V30 13728 H 1294.23 -0.26064 0.700054 0
M  V30 13729 H 1296.9 0.0264782 1.94882 0
M  V30 13730 H 1295.99 -1.17621 2.89088 0
M  V30 13731 N 1296.29 -1.55015 -0.284256 0
M  V30 13732 C 1297.24 -1.87898 -1.37102 0
M  V30 13733 C 1298.24 -0.754231 -1.51683 0
M  V30 13734 O 1299.44 -0.93844 -1.53601 0
M  V30 13735 H 1295.82 -0.596208 -0.458301 0
M  V30 13736 H 1297.79 -2.78704 -1.06613 0
M  V30 13737 C 1296.54 -2.15764 -2.72656 0
M  V30 13738 H 1295.86 -3.01792 -2.62224 0
M  V30 13739 H 1297.3 -2.42701 -3.47667 0
M  V30 13740 C 1295.76 -0.961561 -3.22886 0
M  V30 13741 O 1296.29 -0.190489 -4.01248 0
M  V30 13742 N 1294.49 -0.762338 -2.80422 0
M  V30 13743 H 1294.04 -1.39104 -2.16813 0
M  V30 13744 H 1294 0.0363482 -3.14379 0
M  V30 13745 N 1297.77 0.548248 -1.47757 0
M  V30 13746 C 1298.7 1.66409 -1.63799 0
M  V30 13747 C 1299.68 1.62973 -0.487211 0
M  V30 13748 O 1300.87 1.80455 -0.717612 0
M  V30 13749 C 1298 3.05035 -1.66046 0
M  V30 13750 C 1296.95 3.23322 -2.80441 0
M  V30 13751 C 1296.28 4.62824 -2.67765 0
M  V30 13752 C 1297.58 3.07837 -4.2194 0
M  V30 13753 H 1299.27 1.53239 -2.57212 0
M  V30 13754 H 1296.82 0.735783 -1.23783 0
M  V30 13755 H 1298.77 3.82951 -1.75859 0
M  V30 13756 H 1297.49 3.19185 -0.69199 0
M  V30 13757 H 1296.15 2.47816 -2.70153 0
M  V30 13758 H 1295.8 4.73786 -1.68927 0
M  V30 13759 H 1295.5 4.76007 -3.44515 0
M  V30 13760 H 1297.03 5.42864 -2.7952 0
M  V30 13761 H 1298.44 3.75563 -4.33157 0
M  V30 13762 H 1296.84 3.32525 -4.99547 0
M  V30 13763 H 1297.91 2.04474 -4.3968 0
M  V30 13764 N 1299.25 1.36039 0.795694 0
M  V30 13765 C 1300.5 1.29663 1.55023 0
M  V30 13766 C 1300.82 -0.125588 1.94595 0
M  V30 13767 O 1300.09 -1.06447 1.64456 0
M  V30 13768 H 1298.67 0.476962 0.574906 0
M  V30 13769 H 1301.33 1.70265 0.948471 0
M  V30 13770 H 1300.43 1.91982 2.46068 0
M  V30 13771 N 1300.73 -1.01913 1.20215 0
M  V30 13772 C 1301.69 -2.08563 0.950481 0
M  V30 13773 C 1302.69 -1.60634 -0.0729659 0
M  V30 13774 O 1303.88 -1.73437 0.162826 0
M  V30 13775 C 1301.01 -3.38171 0.430453 0
M  V30 13776 H 1302.21 -2.32323 1.89647 0
M  V30 13777 H 1299.76 -1.18674 1.01716 0
M  V30 13778 H 1300.49 -3.20086 -0.521126 0
M  V30 13779 H 1300.28 -3.74284 1.1685 0
M  V30 13780 H 1301.77 -4.16702 0.273781 0
M  V30 13781 N 1302.21 -1.00763 -1.2118 0
M  V30 13782 C 1303.17 -0.575183 -2.21865 0
M  V30 13783 C 1304.17 0.349871 -1.56948 0
M  V30 13784 O 1305.36 0.139795 -1.73638 0
M  V30 13785 C 1302.49 0.161308 -3.40518 0
M  V30 13786 H 1303.68 -1.46578 -2.61639 0
M  V30 13787 H 1301.24 -0.79643 -1.34487 0
M  V30 13788 H 1301.97 1.06723 -3.06236 0
M  V30 13789 H 1301.76 -0.503101 -3.88859 0
M  V30 13790 H 1303.25 0.451527 -4.15152 0
M  V30 13791 N 1303.68 1.3679 -0.7827 0
M  V30 13792 C 1304.96 1.93639 -0.276278 0
M  V30 13793 C 1305.34 1.7153 1.23048 0
M  V30 13794 O 1304.69 1.07037 2.01879 0
M  V30 13795 C 1304.9 3.42672 -0.661586 0
M  V30 13796 C 1306.25 4.19786 -0.637538 0
M  V30 13797 O 1307.27 3.51082 -0.601645 0
M  V30 13798 O 1306.13 5.42323 -0.674408 0
M  V30 13799 H 1303.22 0.824307 -0.0666832 0
M  V30 13800 H 1305.77 1.46012 -0.864792 0
M  V30 13801 H 1304.54 3.52393 -1.70103 0
M  V30 13802 H 1304.17 3.97573 -0.0465987 0
M  V30 13803 N 1305.16 0.53415 1.48272 0
M  V30 13804 C 1306.41 -0.000450626 2.017 0
M  V30 13805 C 1306.72 -1.34926 1.41613 0
M  V30 13806 O 1307.93 -1.97246 1.86564 0
M  V30 13807 C 1306.39 -0.0511883 3.59864 0
M  V30 13808 C 1305.99 1.29298 4.28936 0
M  V30 13809 C 1307.74 -0.534397 4.21123 0
M  V30 13810 C 1305.65 1.2026 5.79044 0
M  V30 13811 H 1304.58 -0.00393844 0.75399 0
M  V30 13812 H 1307.23 0.678554 1.70493 0
M  V30 13813 H 1305.61 -0.795358 3.8793 0
M  V30 13814 H 1306.78 2.05305 4.12537 0
M  V30 13815 H 1305.1 1.71226 3.79566 0
M  V30 13816 H 1307.69 -0.620048 5.31093 0
M  V30 13817 H 1308.04 -1.54114 3.86723 0
M  V30 13818 H 1308.57 0.154215 3.97501 0
M  V30 13819 H 1305.31 2.18463 6.18025 0
M  V30 13820 H 1304.83 0.483971 5.97844 0
M  V30 13821 H 1306.51 0.895005 6.4078 0
M  V30 13822 N 1306.64 -1.55279 0.269478 0
M  V30 13823 C 1307.92 -1.91458 -0.400412 0
M  V30 13824 C 1308.3 -1.19306 -1.74153 0
M  V30 13825 O 1307.65 -0.318017 -2.26276 0
M  V30 13826 C 1307.86 -3.44698 -0.546258 0
M  V30 13827 C 1309.2 -4.16374 -0.831758 0
M  V30 13828 O 1310.23 -3.50561 -0.631279 0
M  V30 13829 O 1309.09 -5.32826 -1.21484 0
M  V30 13830 H 1306.18 -0.79766 -0.218328 0
M  V30 13831 H 1308.73 -1.66747 0.315214 0
M  V30 13832 H 1307.5 -3.89273 0.397784 0
M  V30 13833 H 1307.12 -3.75345 -1.31157 0
M  V30 13834 N 1308.12 0.00332656 -1.576 0
M  V30 13835 C 1309.07 1.00425 -2.04692 0
M  V30 13836 C 1310.05 1.30514 -0.941011 0
M  V30 13837 O 1311.24 1.29667 -1.2048 0
M  V30 13838 C 1308.37 2.29731 -2.55105 0
M  V30 13839 C 1307.46 2.02621 -3.72566 0
M  V30 13840 N 1307.85 1.45657 -4.84373 0
M  V30 13841 C 1306.15 2.3278 -3.80433 0
M  V30 13842 C 1306.85 1.34942 -5.65832 0
M  V30 13843 N 1305.83 1.83389 -5.11732 0
M  V30 13844 H 1309.63 0.558262 -2.88549 0
M  V30 13845 H 1307.14 0.209094 -1.61048 0
M  V30 13846 H 1309.14 3.02274 -2.87116 0
M  V30 13847 H 1307.8 2.74985 -1.72665 0
M  V30 13848 H 1308.81 1.13582 -5.05291 0
M  V30 13849 H 1305.49 2.80932 -3.08842 0
M  V30 13850 H 1306.88 0.911707 -6.65686 0
M  V30 13851 N 1309.6 1.55164 0.276031 0
M  V30 13852 C 1310.54 1.87836 1.34113 0
M  V30 13853 C 1311.51 0.729562 1.4922 0
M  V30 13854 O 1312.7 0.980549 1.63676 0
M  V30 13855 C 1309.84 2.15313 2.69693 0
M  V30 13856 C 1308.95 3.42845 2.62833 0
M  V30 13857 C 1308.09 3.60038 3.90572 0
M  V30 13858 C 1307.13 4.81273 3.7821 0
M  V30 13859 N 1306.26 4.95139 4.97777 0
M  V30 13860 H 1311.1 2.78681 1.0555 0
M  V30 13861 H 1308.64 1.37976 0.510001 0
M  V30 13862 H 1310.6 2.29243 3.48573 0
M  V30 13863 H 1309.23 1.27706 2.96464 0
M  V30 13864 H 1308.28 3.37403 1.75679 0
M  V30 13865 H 1309.59 4.3186 2.49597 0
M  V30 13866 H 1308.75 3.73769 4.77893 0
M  V30 13867 H 1307.48 2.69203 4.06671 0
M  V30 13868 H 1306.49 4.67549 2.89271 0
M  V30 13869 H 1307.71 5.7354 3.63632 0
M  V30 13870 H 1305.66 4.07234 5.14292 0
M  V30 13871 H 1305.58 5.78194 4.8706 0
M  V30 13872 H 1306.85 5.13253 5.86679 0
M  V30 13873 N 1311.07 -0.540404 1.48045 0
M  V30 13874 C 1312 -1.65538 1.6468 0
M  V30 13875 C 1312.99 -1.62713 0.495847 0
M  V30 13876 O 1314.17 -1.80072 0.727172 0
M  V30 13877 C 1311.3 -3.0415 1.67661 0
M  V30 13878 C 1310.25 -3.2183 2.82152 0
M  V30 13879 C 1309.58 -4.61397 2.70216 0
M  V30 13880 C 1310.88 -3.05596 4.23567 0
M  V30 13881 H 1312.57 -1.51873 2.58021 0
M  V30 13882 H 1310.12 -0.729208 1.24171 0
M  V30 13883 H 1312.07 -3.82013 1.77887 0
M  V30 13884 H 1310.8 -3.18814 0.708907 0
M  V30 13885 H 1309.46 -2.4638 2.71463 0
M  V30 13886 H 1309.1 -4.72883 1.71437 0
M  V30 13887 H 1308.8 -4.74174 3.47035 0
M  V30 13888 H 1310.33 -5.41374 2.82395 0
M  V30 13889 H 1311.74 -3.73261 4.35143 0
M  V30 13890 H 1310.14 -3.29871 5.01303 0
M  V30 13891 H 1311.21 -2.0214 4.40758 0
M  V30 13892 N 1312.55 -1.36459 -0.788468 0
M  V30 13893 C 1313.46 -1.33017 -1.93245 0
M  V30 13894 C 1314.48 -0.232212 -1.72444 0
M  V30 13895 O 1315.65 -0.464743 -1.95965 0
M  V30 13896 C 1312.72 -1.1197 -3.28121 0
M  V30 13897 C 1311.78 -2.3125 -3.61693 0
M  V30 13898 C 1311.01 -2.11197 -4.90134 0
M  V30 13899 O 1311.24 -1.08764 -5.59934 0
M  V30 13900 O 1310.17 -2.98996 -5.22384 0
M  V30 13901 H 1314 -2.29333 -1.99098 0
M  V30 13902 H 1311.58 -1.17016 -0.928856 0
M  V30 13903 H 1313.46 -1.02154 -4.08831 0
M  V30 13904 H 1312.14 -0.187171 -3.23158 0
M  V30 13905 H 1311.05 -2.46635 -2.81286 0
M  V30 13906 H 1312.38 -3.23012 -3.71381 0
M  V30 13907 N 1314.03 1.01274 -1.20754 0
M  V30 13908 C 1314.94 2.1335 -0.975656 0
M  V30 13909 C 1315.96 1.7386 0.0697364 0
M  V30 13910 O 1317.13 2.01051 -0.118578 0
M  V30 13911 C 1314.2 3.42548 -0.534931 0
M  V30 13912 C 1313.26 3.96257 -1.65163 0
M  V30 13913 C 1312.49 5.19289 -1.23184 0
M  V30 13914 O 1312.71 5.70309 -0.102158 0
M  V30 13915 O 1311.65 5.66248 -2.04076 0
M  V30 13916 H 1315.47 2.35783 -1.91415 0
M  V30 13917 H 1313.06 1.11736 -0.991743 0
M  V30 13918 H 1314.94 4.20341 -0.298568 0
M  V30 13919 H 1313.62 3.21521 0.374937 0
M  V30 13920 H 1312.52 3.19726 -1.94232 0
M  V30 13921 H 1313.86 4.2168 -2.53864 0
M  V30 13922 N 1315.51 1.01404 1.20644 0
M  V30 13923 C 1316.44 0.540288 2.22741 0
M  V30 13924 C 1317.45 -0.375953 1.584 0
M  V30 13925 O 1318.64 -0.174708 1.77643 0
M  V30 13926 C 1315.74 -0.233766 3.38093 0
M  V30 13927 C 1314.92 0.683759 4.32023 0
M  V30 13928 C 1313.98 -0.0422681 5.26183 0
M  V30 13929 O 1313 0.579392 5.66243 0
M  V30 13930 N 1314.2 -1.31794 5.65341 0
M  V30 13931 H 1316.97 1.41831 2.64015 0
M  V30 13932 H 1314.53 0.891265 1.35159 0
M  V30 13933 H 1316.52 -0.728645 3.98087 0
M  V30 13934 H 1315.09 -1.01306 2.9573 0
M  V30 13935 H 1314.31 1.35899 3.70034 0
M  V30 13936 H 1315.6 1.30786 4.91704 0
M  V30 13937 H 1315 -1.84399 5.34802 0
M  V30 13938 H 1313.55 -1.7576 6.27656 0
M  V30 13939 N 1316.99 -1.36373 0.789944 0
M  V30 13940 C 1317.92 -2.32616 0.202944 0
M  V30 13941 C 1318.9 -1.56674 -0.662364 0
M  V30 13942 O 1320.08 -1.84826 -0.596078 0
M  V30 13943 C 1317.21 -3.4092 -0.662646 0
M  V30 13944 C 1316.17 -4.27877 0.102811 0
M  V30 13945 C 1315.49 -5.27352 -0.883407 0
M  V30 13946 C 1316.79 -5.0606 1.29231 0
M  V30 13947 H 1318.49 -2.81958 1.00699 0
M  V30 13948 H 1316.03 -1.35562 0.48568 0
M  V30 13949 H 1317.99 -4.07239 -1.08324 0
M  V30 13950 H 1316.71 -2.90147 -1.4994 0
M  V30 13951 H 1315.37 -3.63114 0.504389 0
M  V30 13952 H 1315.02 -4.72853 -1.71521 0
M  V30 13953 H 1314.72 -5.86398 -0.375669 0
M  V30 13954 H 1316.24 -5.96545 -1.30256 0
M  V30 13955 H 1317.66 -5.65417 0.947446 0
M  V30 13956 H 1316.05 -5.74521 1.73338 0
M  V30 13957 H 1317.12 -4.37671 2.08739 0
M  V30 13958 N 1318.47 -0.542005 -1.47987 0
M  V30 13959 C 1319.71 -0.010246 -2.01697 0
M  V30 13960 C 1320.03 1.34173 -1.42327 0
M  V30 13961 O 1321.23 1.96254 -1.87607 0
M  V30 13962 C 1319.69 0.0321032 -3.59886 0
M  V30 13963 C 1319.3 -1.31571 -4.28244 0
M  V30 13964 C 1321.04 0.512056 -4.214 0
M  V30 13965 C 1318.95 -1.23329 -5.78398 0
M  V30 13966 H 1317.88 -6.02097e-05 -0.754 0
M  V30 13967 H 1320.53 -0.687586 -1.70131 0
M  V30 13968 H 1318.91 0.774774 -3.88347 0
M  V30 13969 H 1320.09 -2.07489 -4.11442 0
M  V30 13970 H 1318.4 -1.73237 -3.78653 0
M  V30 13971 H 1321 0.591875 -5.31414 0
M  V30 13972 H 1321.34 1.52061 -3.87535 0
M  V30 13973 H 1321.87 -0.175293 -3.97414 0
M  V30 13974 H 1318.61 -2.21737 -6.16857 0
M  V30 13975 H 1318.13 -0.51567 -5.97579 0
M  V30 13976 H 1319.81 -0.928975 -6.40296 0
M  V30 13977 N 1319.94 1.55134 -0.277709 0
M  V30 13978 C 1321.22 1.91667 0.390253 0
M  V30 13979 C 1321.6 1.20228 1.73518 0
M  V30 13980 O 1320.95 0.330013 2.26104 0
M  V30 13981 C 1321.16 3.44983 0.52797 0
M  V30 13982 C 1322.51 4.16809 0.809665 0
M  V30 13983 O 1323.53 3.50891 0.612679 0
M  V30 13984 O 1322.39 5.33463 1.18656 0
M  V30 13985 H 1319.48 0.798807 0.214095 0
M  V30 13986 H 1322.03 1.66577 -0.324053 0
M  V30 13987 H 1320.8 3.89056 -0.418422 0
M  V30 13988 H 1320.42 3.76035 1.29164 0
M  V30 13989 N 1321.42 0.00503138 1.57599 0
M  V30 13990 C 1322.67 -0.67742 1.90409 0
M  V30 13991 C 1322.99 -1.74033 0.87963 0
M  V30 13992 O 1322.26 -1.95727 -0.0822757 0
M  V30 13993 H 1320.84 -0.2532 0.702779 0
M  V30 13994 H 1323.5 0.0471466 1.94843 0
M  V30 13995 H 1322.6 -1.14548 2.90319 0
M  V30 13996 N 1322.9 -1.55308 -0.267798 0
M  V30 13997 C 1324.15 -1.75364 -0.996515 0
M  V30 13998 C 1324.46 -0.565028 -1.87261 0
M  V30 13999 O 1325.67 -0.648119 -2.63651 0
M  V30 14000 C 1324.12 -3.10388 -1.82175 0
M  V30 14001 C 1323.73 -4.36832 -0.994062 0
M  V30 14002 C 1325.48 -3.39791 -2.54445 0
M  V30 14003 C 1323.38 -5.62893 -1.81398 0
M  V30 14004 H 1322.31 -0.653679 -0.375793 0
M  V30 14005 H 1324.96 -1.81762 -0.251975 0
M  V30 14006 H 1323.35 -2.98041 -2.60744 0
M  V30 14007 H 1324.52 -4.6011 -0.252167 0
M  V30 14008 H 1322.83 -4.1461 -0.385662 0
M  V30 14009 H 1325.43 -4.31184 -3.16203 0
M  V30 14010 H 1325.77 -2.60159 -3.24997 0
M  V30 14011 H 1326.31 -3.53259 -1.82902 0
M  V30 14012 H 1323.05 -6.45287 -1.15258 0
M  V30 14013 H 1322.57 -5.43751 -2.5317 0
M  V30 14014 H 1324.25 -6.01384 -2.38634 0
M  V30 14015 N 1324.38 0.532545 -1.4833 0
M  V30 14016 C 1325.31 1.64662 -1.65555 0
M  V30 14017 C 1326.29 1.62447 -0.50447 0
M  V30 14018 O 1327.47 1.79684 -0.736712 0
M  V30 14019 C 1324.6 3.03256 -1.69272 0
M  V30 14020 C 1323.56 3.20329 -2.83854 0
M  V30 14021 C 1322.88 4.59958 -2.72659 0
M  V30 14022 C 1324.18 3.03345 -4.25181 0
M  V30 14023 H 1325.88 1.50502 -2.58823 0
M  V30 14024 H 1323.42 0.722612 -1.24556 0
M  V30 14025 H 1325.38 3.81064 -1.79911 0
M  V30 14026 H 1324.1 3.18433 -0.725805 0
M  V30 14027 H 1322.76 2.44937 -2.72766 0
M  V30 14028 H 1322.41 4.71967 -1.73942 0
M  V30 14029 H 1322.11 4.72327 -3.49544 0
M  V30 14030 H 1323.63 5.39869 -2.85262 0
M  V30 14031 H 1325.05 3.70948 -4.37116 0
M  V30 14032 H 1323.44 3.27208 -5.03045 0
M  V30 14033 H 1324.51 1.998 -4.41824 0
M  V30 14034 N 1325.86 1.36875 0.78122 0
M  V30 14035 C 1327.09 1.34537 1.56791 0
M  V30 14036 C 1327.49 -0.0734709 1.89057 0
M  V30 14037 O 1326.84 -1.04307 1.51215 0
M  V30 14038 C 1326.9 2.10971 2.91087 0
M  V30 14039 C 1326.56 3.60005 2.81506 0
M  V30 14040 C 1327.56 4.54085 2.53185 0
M  V30 14041 C 1325.24 4.03001 2.99826 0
M  V30 14042 C 1327.24 5.89139 2.43298 0
M  V30 14043 C 1324.93 5.38144 2.89559 0
M  V30 14044 C 1325.92 6.31026 2.61335 0
M  V30 14045 O 1325.61 7.63685 2.51077 0
M  V30 14046 H 1325.34 0.46284 0.492702 0
M  V30 14047 H 1327.9 1.80683 0.976869 0
M  V30 14048 H 1326.13 1.595 3.52274 0
M  V30 14049 H 1327.82 2.01387 3.52418 0
M  V30 14050 H 1328.58 4.22178 2.38727 0
M  V30 14051 H 1324.46 3.31073 3.20799 0
M  V30 14052 H 1328.01 6.61605 2.21188 0
M  V30 14053 H 1323.9 5.69656 3.03583 0
M  V30 14054 H 1324.67 7.739 2.66498 0
M  V30 14055 N 1327.33 -1.00632 1.21289 0
M  V30 14056 C 1328.3 -2.07543 0.972548 0
M  V30 14057 C 1329.3 -1.60703 -0.0559244 0
M  V30 14058 O 1330.49 -1.73255 0.181213 0
M  V30 14059 C 1327.62 -3.37696 0.466297 0
M  V30 14060 H 1328.81 -2.30298 1.92101 0
M  V30 14061 H 1326.36 -1.17588 1.02969 0
M  V30 14062 H 1327.1 -3.2062 -0.487148 0
M  V30 14063 H 1326.88 -3.73024 1.20813 0
M  V30 14064 H 1328.37 -4.16388 0.317962 0
M  V30 14065 N 1328.81 -1.02043 -1.20104 0
M  V30 14066 C 1330.06 -0.711973 -1.89571 0
M  V30 14067 C 1330.39 0.758725 -1.79091 0
M  V30 14068 O 1329.64 1.56728 -1.17195 0
M  V30 14069 C 1329.94 -1.098 -3.40116 0
M  V30 14070 C 1329.61 -2.56555 -3.70797 0
M  V30 14071 C 1328.27 -2.96653 -3.78881 0
M  V30 14072 C 1330.62 -3.51543 -3.84795 0
M  V30 14073 C 1327.95 -4.30669 -3.98424 0
M  V30 14074 C 1330.3 -4.85252 -4.05849 0
M  V30 14075 C 1328.96 -5.2505 -4.12163 0
M  V30 14076 H 1328.23 -0.260529 -0.69369 0
M  V30 14077 H 1330.88 -1.28172 -1.42282 0
M  V30 14078 H 1329.19 -0.446738 -3.89245 0
M  V30 14079 H 1330.88 -0.836985 -3.92168 0
M  V30 14080 H 1327.47 -2.24488 -3.65107 0
M  V30 14081 H 1331.66 -3.21721 -3.77901 0
M  V30 14082 H 1326.91 -4.61052 -4.01548 0
M  V30 14083 H 1331.09 -5.58777 -4.15622 0
M  V30 14084 H 1328.71 -6.28908 -4.27059 0
M  V30 14085 N 1330.29 1.35952 -0.797165 0
M  V30 14086 C 1331.22 2.28649 -0.15877 0
M  V30 14087 C 1332.24 1.49842 0.636481 0
M  V30 14088 O 1333.42 1.72191 0.47039 0
M  V30 14089 C 1330.52 3.29373 0.797913 0
M  V30 14090 C 1329.7 4.3737 0.0510574 0
M  V30 14091 C 1328.76 5.18009 0.924826 0
M  V30 14092 O 1327.78 5.67935 0.379223 0
M  V30 14093 N 1328.98 5.352 2.24813 0
M  V30 14094 H 1331.75 2.84075 -0.955056 0
M  V30 14095 H 1329.31 1.48201 -0.651767 0
M  V30 14096 H 1331.3 3.80209 1.38646 0
M  V30 14097 H 1329.87 2.74531 1.49504 0
M  V30 14098 H 1329.09 3.87594 -0.718633 0
M  V30 14099 H 1330.38 5.0668 -0.464025 0
M  V30 14100 H 1329.78 4.96266 2.71545 0
M  V30 14101 H 1328.34 5.89252 2.78614 0
M  V30 14102 N 1331.77 0.549846 1.47697 0
M  V30 14103 C 1332.68 -0.205286 2.337 0
M  V30 14104 C 1333.69 -0.919271 1.47734 0
M  V30 14105 O 1334.87 -0.889808 1.80678 0
M  V30 14106 C 1331.94 -1.22658 3.24278 0
M  V30 14107 C 1331 -0.520815 4.26129 0
M  V30 14108 C 1330.23 -1.49345 5.12378 0
M  V30 14109 O 1330.45 -2.72772 5.00951 0
M  V30 14110 O 1329.39 -1.02197 5.93161 0
M  V30 14111 H 1333.21 0.499982 2.99556 0
M  V30 14112 H 1330.8 0.310538 1.46137 0
M  V30 14113 H 1332.68 -1.8163 3.80248 0
M  V30 14114 H 1331.35 -1.9139 2.61059 0
M  V30 14115 H 1330.26 0.109906 3.73939 0
M  V30 14116 H 1331.59 0.124922 4.92041 0
M  V30 14117 N 1333.25 -1.54984 0.285932 0
M  V30 14118 C 1334.18 -2.20365 -0.630236 0
M  V30 14119 C 1335.19 -1.19168 -1.10918 0
M  V30 14120 O 1336.38 -1.45839 -1.02923 0
M  V30 14121 C 1333.48 -2.8244 -1.87299 0
M  V30 14122 C 1332.65 -4.09429 -1.53905 0
M  V30 14123 C 1331.71 -4.55449 -2.63538 0
M  V30 14124 O 1330.74 -5.20985 -2.29267 0
M  V30 14125 N 1331.94 -4.26498 -3.93802 0
M  V30 14126 H 1334.71 -2.99617 -0.0706044 0
M  V30 14127 H 1332.27 -1.61543 0.107486 0
M  V30 14128 H 1334.26 -3.10167 -2.59959 0
M  V30 14129 H 1332.83 -2.07117 -2.34139 0
M  V30 14130 H 1332.05 -3.88875 -0.645774 0
M  V30 14131 H 1333.34 -4.92146 -1.29111 0
M  V30 14132 H 1332.73 -3.73964 -4.24461 0
M  V30 14133 H 1331.29 -4.5897 -4.62807 0
M  V30 14134 N 1334.72 -0.0133892 -1.57594 0
M  V30 14135 C 1335.95 0.679255 -1.95432 0
M  V30 14136 C 1336.37 1.66558 -0.889028 0
M  V30 14137 O 1335.72 1.82031 0.130755 0
M  V30 14138 C 1335.78 1.39943 -3.33314 0
M  V30 14139 O 1335.5 0.452643 -4.35755 0
M  V30 14140 C 1337 2.18535 -3.85691 0
M  V30 14141 H 1334.22 0.188337 -0.644026 0
M  V30 14142 H 1336.76 -0.0684861 -2.04385 0
M  V30 14143 H 1334.92 2.0987 -3.25628 0
M  V30 14144 H 1335.33 0.962243 -5.15598 0
M  V30 14145 H 1336.8 2.64403 -4.84557 0
M  V30 14146 H 1337.28 3.01779 -3.19102 0
M  V30 14147 H 1337.89 1.53598 -3.96595 0
M  V30 14148 N 1336.2 1.55448 0.259558 0
M  V30 14149 C 1337.43 1.80727 1.00723 0
M  V30 14150 C 1337.85 0.587354 1.79431 0
M  V30 14151 O 1337.2 -0.443819 1.77021 0
M  V30 14152 C 1337.25 3.04064 1.95517 0
M  V30 14153 O 1336.97 4.21346 1.19996 0
M  V30 14154 C 1338.48 3.42049 2.81988 0
M  V30 14155 H 1335.7 0.601713 0.296956 0
M  V30 14156 H 1338.24 2.02486 0.286273 0
M  V30 14157 H 1336.39 2.84392 2.63058 0
M  V30 14158 H 1336.81 4.91164 1.84006 0
M  V30 14159 H 1338.28 4.31485 3.44274 0
M  V30 14160 H 1338.76 2.62059 3.52451 0
M  V30 14161 H 1339.37 3.64027 2.19918 0
M  V30 14162 N 1337.68 -0.524672 1.4861 0
M  V30 14163 C 1338.59 -1.65554 1.6622 0
M  V30 14164 C 1339.61 -1.65254 0.54471 0
M  V30 14165 O 1340.78 -1.84109 0.816454 0
M  V30 14166 C 1337.85 -3.02003 1.7028 0
M  V30 14167 C 1336.91 -3.13116 2.93695 0
M  V30 14168 C 1336.14 -4.43055 2.97553 0
M  V30 14169 O 1336.36 -5.30468 2.09667 0
M  V30 14170 O 1335.3 -4.58646 3.89779 0
M  V30 14171 H 1339.12 -1.53633 2.61974 0
M  V30 14172 H 1336.71 -0.698354 1.32073 0
M  V30 14173 H 1338.59 -3.83143 1.75441 0
M  V30 14174 H 1337.27 -3.14236 0.777002 0
M  V30 14175 H 1336.17 -2.31251 2.94064 0
M  V30 14176 H 1337.51 -3.058 3.85677 0
M  V30 14177 N 1339.16 -1.37287 -0.77395 0
M  V30 14178 C 1340.44 -1.2291 -1.52159 0
M  V30 14179 C 1340.82 0.178249 -2.10346 0
M  V30 14180 O 1340.16 1.18564 -1.95333 0
M  V30 14181 C 1340.37 -2.32337 -2.60424 0
M  V30 14182 C 1341.72 -2.69769 -3.27887 0
M  V30 14183 O 1342.75 -2.31497 -2.70717 0
M  V30 14184 O 1341.6 -3.35699 -4.31241 0
M  V30 14185 H 1338.7 -0.47948 -0.673816 0
M  V30 14186 H 1341.24 -1.49061 -0.811105 0
M  V30 14187 H 1340.02 -3.26591 -2.15532 0
M  V30 14188 H 1339.64 -2.07638 -3.39076 0
M  V30 14189 N 1340.64 0.999871 -1.21821 0
M  V30 14190 C 1341.86 1.7794 -1.06546 0
M  V30 14191 C 1342.29 1.84219 0.380115 0
M  V30 14192 O 1341.64 1.28955 1.27438 0
M  V30 14193 C 1341.69 3.1943 -1.67322 0
M  V30 14194 O 1340.8 4.01957 -0.922171 0
M  V30 14195 H 1340.14 0.548204 -0.374658 0
M  V30 14196 H 1342.67 1.2565 -1.61472 0
M  V30 14197 H 1342.68 3.70086 -1.71757 0
M  V30 14198 H 1341.35 3.14175 -2.7252 0
M  V30 14199 H 1339.93 3.60509 -0.95331 0
M  V30 14200 N 1342.11 1.02678 1.19562 0
M  V30 14201 C 1343.36 0.723086 1.89471 0
M  V30 14202 C 1343.69 -0.746269 1.79289 0
M  V30 14203 O 1342.97 -1.54322 1.18384 0
M  V30 14204 C 1343.25 1.17224 3.40486 0
M  V30 14205 C 1343.1 2.70266 3.5955 0
M  V30 14206 C 1344.42 0.751397 4.33638 0
M  V30 14207 H 1341.54 0.264155 0.688034 0
M  V30 14208 H 1344.18 1.27633 1.40747 0
M  V30 14209 H 1342.33 0.701544 3.82113 0
M  V30 14210 H 1344.01 3.25266 3.27108 0
M  V30 14211 H 1342.25 3.10758 3.02675 0
M  V30 14212 H 1342.92 2.96748 4.65451 0
M  V30 14213 H 1345.4 1.15621 3.99714 0
M  V30 14214 H 1344.27 1.09358 5.37896 0
M  V30 14215 H 1344.53 -0.346367 4.40741 0
M  V30 14216 N 1343.59 -1.35528 0.804364 0
M  V30 14217 C 1344.53 -2.27647 0.158767 0
M  V30 14218 C 1345.5 -1.47976 -0.673942 0
M  V30 14219 O 1346.69 -1.77241 -0.641703 0
M  V30 14220 C 1343.81 -3.29597 -0.779973 0
M  V30 14221 C 1342.86 -4.26491 -0.0271676 0
M  V30 14222 S 1343.69 -5.19296 1.30736 0
M  V30 14223 C 1344.85 -6.24788 0.373003 0
M  V30 14224 H 1345.08 -2.82055 0.939805 0
M  V30 14225 H 1342.62 -1.42294 0.599313 0
M  V30 14226 H 1344.57 -3.88831 -1.31609 0
M  V30 14227 H 1343.23 -2.74072 -1.53438 0
M  V30 14228 H 1342.43 -4.98537 -0.740059 0
M  V30 14229 H 1342.03 -3.71415 0.438923 0
M  V30 14230 H 1344.32 -6.76053 -0.442566 0
M  V30 14231 H 1345.26 -7.00082 1.06258 0
M  V30 14232 H 1345.67 -5.64492 -0.0303131 0
M  V30 14233 N 1345.07 -0.557671 -1.47404 0
M  V30 14234 C 1346 0.178019 -2.3282 0
M  V30 14235 C 1346.98 0.908318 -1.43818 0
M  V30 14236 O 1348.17 0.888693 -1.72673 0
M  V30 14237 C 1345.3 1.2082 -3.25607 0
M  V30 14238 C 1344.25 0.594335 -4.23853 0
M  V30 14239 C 1343.58 1.72919 -5.05968 0
M  V30 14240 C 1344.88 -0.452196 -5.20339 0
M  V30 14241 H 1346.57 -0.535091 -2.9458 0
M  V30 14242 H 1344.12 -0.258775 -1.41656 0
M  V30 14243 H 1346.07 1.73104 -3.84204 0
M  V30 14244 H 1344.79 1.95126 -2.61903 0
M  V30 14245 H 1343.45 0.0927898 -3.66483 0
M  V30 14246 H 1343.1 2.4613 -4.38668 0
M  V30 14247 H 1342.8 1.32422 -5.72484 0
M  V30 14248 H 1344.33 2.25527 -5.67424 0
M  V30 14249 H 1345.74 -0.0154011 -5.73298 0
M  V30 14250 H 1344.14 -0.776068 -5.95061 0
M  V30 14251 H 1345.21 -1.34791 -4.65789 0
M  V30 14252 N 1346.55 1.54831 -0.294147 0
M  V30 14253 C 1347.5 2.24707 0.600795 0
M  V30 14254 C 1348.49 1.25067 1.14257 0
M  V30 14255 O 1349.7 1.42939 1.094 0
M  V30 14256 H 1346.07 0.721399 0.212338 0
M  V30 14257 H 1348.04 2.98398 -0.0111682 0
M  V30 14258 C 1346.79 2.996 1.76451 0
M  V30 14259 H 1346.12 3.76072 1.35684 0
M  V30 14260 H 1347.56 3.51785 2.36692 0
M  V30 14261 C 1346.01 2.0617 2.6645 0
M  V30 14262 O 1346.54 1.62527 3.67353 0
M  V30 14263 N 1344.75 1.7227 2.34033 0
M  V30 14264 H 1344.3 2.07957 1.52025 0
M  V30 14265 H 1344.26 1.10031 2.94518 0
M  V30 14266 N 1348.03 0.0217466 1.57585 0
M  V30 14267 C 1349.28 -0.657187 1.91116 0
M  V30 14268 C 1349.6 -1.7309 0.898039 0
M  V30 14269 O 1348.87 -1.95803 -0.0615116 0
M  V30 14270 H 1347.45 -0.245732 0.705425 0
M  V30 14271 H 1350.11 0.0678096 1.94782 0
M  V30 14272 H 1349.2 -1.11462 2.91518 0
M  V30 14273 N 1349.51 -1.55583 -0.251311 0
M  V30 14274 C 1350.75 -1.77209 -0.979966 0
M  V30 14275 C 1351.08 -0.585279 -1.85485 0
M  V30 14276 O 1350.34 0.431559 -1.90882 0
M  V30 14277 C 1350.63 -3.04291 -1.87461 0
M  V30 14278 C 1350.3 -4.35844 -1.15545 0
M  V30 14279 C 1348.96 -4.71594 -0.956679 0
M  V30 14280 C 1351.31 -5.17189 -0.645381 0
M  V30 14281 C 1348.64 -5.86227 -0.235465 0
M  V30 14282 C 1350.99 -6.32569 0.0623441 0
M  V30 14283 C 1349.66 -6.66943 0.272634 0
M  V30 14284 H 1348.93 -0.648452 -0.358595 0
M  V30 14285 H 1351.58 -1.89856 -0.250423 0
M  V30 14286 H 1349.88 -2.86637 -2.67108 0
M  V30 14287 H 1351.58 -3.18221 -2.44001 0
M  V30 14288 H 1348.17 -4.07757 -1.32031 0
M  V30 14289 H 1352.35 -4.90028 -0.786505 0
M  V30 14290 H 1347.61 -6.11369 -0.0620232 0
M  V30 14291 H 1351.78 -6.94844 0.465234 0
M  V30 14292 H 1349.41 -7.55617 0.833442 0
M  V30 14293 N 1350.98 0.516783 -1.48886 0
M  V30 14294 C 1352.23 1.26936 -1.57263 0
M  V30 14295 C 1352.55 1.93337 -0.254156 0
M  V30 14296 O 1351.82 1.81977 0.725345 0
M  V30 14297 H 1350.4 0.4715 -0.579393 0
M  V30 14298 H 1353.06 0.600289 -1.85425 0
M  V30 14299 H 1352.16 2.04167 -2.36055 0
M  V30 14300 N 1352.46 1.37696 0.766659 0
M  V30 14301 C 1353.69 1.3639 1.55581 0
M  V30 14302 C 1354.1 -0.0495272 1.88735 0
M  V30 14303 O 1353.46 -1.01268 1.51826 0
M  V30 14304 C 1353.51 2.20717 2.86298 0
M  V30 14305 O 1353.23 3.56552 2.54563 0
M  V30 14306 C 1354.73 2.27446 3.80504 0
M  V30 14307 H 1351.95 0.466993 0.481828 0
M  V30 14308 H 1354.5 1.81103 0.949834 0
M  V30 14309 H 1352.65 1.79499 3.43306 0
M  V30 14310 H 1353.07 4.00811 3.38306 0
M  V30 14311 H 1354.54 2.90762 4.69214 0
M  V30 14312 H 1355.02 1.28434 4.20002 0
M  V30 14313 H 1355.62 2.68998 3.29424 0
M  V30 14314 N 1353.94 -0.993397 1.22349 0
M  V30 14315 C 1355.19 -1.73544 1.04931 0
M  V30 14316 C 1355.52 -1.89721 -0.414661 0
M  V30 14317 O 1354.79 -1.44001 -1.30743 0
M  V30 14318 C 1355.08 -3.14131 1.7605 0
M  V30 14319 C 1354.93 -3.05604 3.30039 0
M  V30 14320 C 1356.25 -4.13294 1.51249 0
M  V30 14321 H 1353.37 -0.629915 0.382591 0
M  V30 14322 H 1356.01 -1.15737 1.50682 0
M  V30 14323 H 1354.16 -3.63483 1.37157 0
M  V30 14324 H 1355.83 -2.63876 3.78374 0
M  V30 14325 H 1354.07 -2.42421 3.59742 0
M  V30 14326 H 1354.75 -4.05086 3.74979 0
M  V30 14327 H 1357.22 -3.72696 1.85033 0
M  V30 14328 H 1356.1 -5.09781 2.03507 0
M  V30 14329 H 1356.36 -4.39855 0.444973 0
M  V30 14330 N 1355.42 -1.03311 -1.19015 0
M  V30 14331 C 1356.66 -0.733124 -1.89085 0
M  V30 14332 C 1357 0.73675 -1.79682 0
M  V30 14333 O 1356.27 1.53692 -1.19201 0
M  V30 14334 C 1356.55 -1.19028 -3.39859 0
M  V30 14335 C 1356.41 -2.72169 -3.58112 0
M  V30 14336 C 1357.73 -0.774383 -4.33234 0
M  V30 14337 H 1354.85 -0.2678 -0.686624 0
M  V30 14338 H 1357.49 -1.28378 -1.40068 0
M  V30 14339 H 1355.64 -0.721799 -3.81736 0
M  V30 14340 H 1357.31 -3.26996 -3.25379 0
M  V30 14341 H 1355.55 -3.12358 -3.01023 0
M  V30 14342 H 1356.22 -2.99213 -4.6387 0
M  V30 14343 H 1358.7 -1.17739 -3.99095 0
M  V30 14344 H 1357.58 -1.12209 -5.37308 0
M  V30 14345 H 1357.84 0.322989 -4.40919 0
M  V30 14346 N 1356.9 1.35099 -0.81154 0
M  V30 14347 C 1357.84 2.31618 -0.213536 0
M  V30 14348 C 1358.84 1.56868 0.63944 0
M  V30 14349 O 1360.04 1.71957 0.532051 0
M  V30 14350 H 1356.42 0.750316 -0.0502963 0
M  V30 14351 H 1358.39 2.79593 -1.04262 0
M  V30 14352 C 1357.14 3.4214 0.619293 0
M  V30 14353 H 1356.46 3.9979 -0.0277192 0
M  V30 14354 H 1357.9 4.11941 1.00401 0
M  V30 14355 C 1356.36 2.85607 1.7869 0
M  V30 14356 O 1356.89 2.7956 2.8846 0
M  V30 14357 N 1355.1 2.42587 1.6 0
M  V30 14358 H 1354.64 2.47705 0.707105 0
M  V30 14359 H 1354.6 2.0511 2.38279 0
M  V30 14360 N 1358.37 0.56548 1.47106 0
M  V30 14361 C 1359.34 -0.167191 2.28589 0
M  V30 14362 C 1360.34 -0.835005 1.3742 0
M  V30 14363 O 1361.53 -0.689598 1.59969 0
M  V30 14364 C 1358.66 -1.24548 3.17333 0
M  V30 14365 H 1359.85 0.548677 2.94838 0
M  V30 14366 H 1357.4 0.322749 1.52931 0
M  V30 14367 H 1358.14 -1.99348 2.55794 0
M  V30 14368 H 1357.92 -0.771335 3.84438 0
M  V30 14369 H 1359.41 -1.75985 3.78707 0
M  V30 14370 N 1359.85 -1.54672 0.302354 0
M  V30 14371 C 1360.78 -2.2653 -0.566265 0
M  V30 14372 C 1361.76 -1.26532 -1.13682 0
M  V30 14373 O 1362.95 -1.55307 -1.1659 0
M  V30 14374 C 1360.08 -3.00709 -1.73757 0
M  V30 14375 C 1359.03 -4.07865 -1.29731 0
M  V30 14376 C 1358.36 -4.69767 -2.55388 0
M  V30 14377 C 1359.66 -5.20547 -0.427567 0
M  V30 14378 H 1361.35 -2.99382 0.033071 0
M  V30 14379 H 1358.9 -1.4399 0.0173458 0
M  V30 14380 H 1360.85 -3.497 -2.35134 0
M  V30 14381 H 1359.58 -2.25437 -2.36317 0
M  V30 14382 H 1358.23 -3.59726 -0.706586 0
M  V30 14383 H 1357.88 -3.91134 -3.16265 0
M  V30 14384 H 1357.58 -5.42137 -2.26631 0
M  V30 14385 H 1359.11 -5.21521 -3.17566 0
M  V30 14386 H 1360.52 -5.65424 -0.947053 0
M  V30 14387 H 1358.92 -5.99645 -0.233704 0
M  V30 14388 H 1359.99 -4.81805 0.546993 0
M  V30 14389 N 1361.33 -0.0301034 -1.57571 0
M  V30 14390 C 1362.58 0.647042 -1.91462 0
M  V30 14391 C 1362.9 1.72612 -0.907206 0
M  V30 14392 O 1362.17 1.95833 0.0511268 0
M  V30 14393 H 1360.75 0.241988 -0.706718 0
M  V30 14394 H 1363.41 -0.0781385 -1.94743 0
M  V30 14395 H 1362.51 1.09915 -2.92105 0
M  V30 14396 N 1362.81 1.55714 0.243056 0
M  V30 14397 C 1363.76 1.90638 1.30099 0
M  V30 14398 C 1364.73 0.761049 1.47639 0
M  V30 14399 O 1365.91 1.01505 1.61559 0
M  V30 14400 C 1363.05 2.20985 2.65065 0
M  V30 14401 C 1362.16 3.48343 2.55501 0
M  V30 14402 C 1361.3 3.68241 3.82847 0
M  V30 14403 C 1360.34 4.89187 3.67916 0
M  V30 14404 N 1359.47 5.05586 4.87162 0
M  V30 14405 H 1364.31 2.80857 0.996155 0
M  V30 14406 H 1361.85 1.39027 0.480619 0
M  V30 14407 H 1363.81 2.36585 3.43632 0
M  V30 14408 H 1362.44 1.33966 2.93689 0
M  V30 14409 H 1361.49 3.41054 1.68483 0
M  V30 14410 H 1362.8 4.37057 2.4038 0
M  V30 14411 H 1361.96 3.83822 4.69857 0
M  V30 14412 H 1360.7 2.77768 4.00869 0
M  V30 14413 H 1359.7 4.7358 2.79289 0
M  V30 14414 H 1360.93 5.81124 3.51385 0
M  V30 14415 H 1358.87 4.18051 5.05538 0
M  V30 14416 H 1358.79 5.88395 4.74686 0
M  V30 14417 H 1360.06 5.25582 5.7566 0
M  V30 14418 N 1364.29 -0.50888 1.49158 0
M  V30 14419 C 1365.7 -0.839353 1.35746 0
M  V30 14420 C 1365.9 -1.97797 0.38453 0
M  V30 14421 O 1364.96 -2.51809 -0.186651 0
M  V30 14422 C 1366.27 -1.18698 2.76281 0
M  V30 14423 C 1367.82 -1.29565 2.84924 0
M  V30 14424 C 1368.29 -1.67661 4.26209 0
M  V30 14425 N 1369.79 -1.74725 4.28982 0
M  V30 14426 C 1370.52 -2.05631 5.3526 0
M  V30 14427 N 1370.02 -2.34814 6.51793 0
M  V30 14428 N 1371.81 -2.06815 5.2267 0
M  V30 14429 H 1363.96 0.242065 2.11016 0
M  V30 14430 H 1366.22 0.0456901 0.946898 0
M  V30 14431 H 1365.93 -0.423769 3.49138 0
M  V30 14432 H 1365.8 -2.13227 3.11149 0
M  V30 14433 H 1368.19 -2.0496 2.1231 0
M  V30 14434 H 1368.27 -0.331059 2.53649 0
M  V30 14435 H 1367.92 -0.928198 4.99346 0
M  V30 14436 H 1367.85 -2.65207 4.54943 0
M  V30 14437 H 1370.34 -1.54364 3.44935 0
M  V30 14438 H 1370.65 -2.57562 7.28616 0
M  V30 14439 H 1368.99 -2.32288 6.55032 0
M  V30 14440 H 1372.19 -1.83487 4.30639 0
M  V30 14441 H 1372.36 -2.30568 6.05593 0
M  V30 14442 N 1365.76 -1.381 -0.759346 0
M  V30 14443 C 1367.01 -1.3419 -1.52055 0
M  V30 14444 C 1367.34 0.0697657 -1.94075 0
M  V30 14445 O 1366.62 1.02975 -1.65004 0
M  V30 14446 C 1366.9 -2.29236 -2.7771 0
M  V30 14447 C 1366.75 -3.79237 -2.41866 0
M  V30 14448 C 1368.07 -2.22511 -3.79706 0
M  V30 14449 H 1365.19 -0.488768 -0.551611 0
M  V30 14450 H 1367.83 -1.68902 -0.870174 0
M  V30 14451 H 1365.98 -1.99764 -3.33206 0
M  V30 14452 H 1367.66 -4.19358 -1.92189 0
M  V30 14453 H 1365.9 -3.97199 -1.74399 0
M  V30 14454 H 1366.57 -4.41193 -3.31742 0
M  V30 14455 H 1369.05 -2.48516 -3.33735 0
M  V30 14456 H 1367.92 -2.91134 -4.6533 0
M  V30 14457 H 1368.18 -1.22206 -4.24874 0
M  V30 14458 N 1367.24 0.986894 -1.22875 0
M  V30 14459 C 1368.19 2.07811 -1.00416 0
M  V30 14460 C 1369.16 1.65925 0.0761734 0
M  V30 14461 O 1370.34 1.90654 -0.0746294 0
M  V30 14462 C 1367.48 3.39941 -0.594471 0
M  V30 14463 C 1366.6 3.95134 -1.74622 0
M  V30 14464 C 1365.73 5.1545 -1.28394 0
M  V30 14465 C 1364.77 5.62794 -2.40686 0
M  V30 14466 N 1363.91 6.74343 -1.95462 0
M  V30 14467 H 1368.75 2.26356 -1.93822 0
M  V30 14468 H 1366.29 1.10966 -0.965661 0
M  V30 14469 H 1368.24 4.15828 -0.338078 0
M  V30 14470 H 1366.87 3.21379 0.302587 0
M  V30 14471 H 1365.93 3.16064 -2.11679 0
M  V30 14472 H 1367.24 4.26247 -2.59066 0
M  V30 14473 H 1366.39 5.98646 -0.98529 0
M  V30 14474 H 1365.13 4.85975 -0.409789 0
M  V30 14475 H 1364.14 4.78182 -2.71333 0
M  V30 14476 H 1365.36 5.9429 -3.28627 0
M  V30 14477 H 1363.31 6.46641 -1.10417 0
M  V30 14478 H 1363.22 7.04806 -2.73469 0
M  V30 14479 H 1364.49 7.6103 -1.68683 0
M  V30 14480 N 1368.72 1.0394 1.18466 0
M  V30 14481 C 1370.13 0.77011 1.70077 0
M  V30 14482 C 1370.48 -0.70916 1.82935 0
M  V30 14483 O 1369.61 -1.55209 1.50795 0
M  V30 14484 C 1370.2 1.39132 3.08914 0
M  V30 14485 C 1368.76 1.17037 3.57742 0
M  V30 14486 C 1367.91 1.48279 2.34326 0
M  V30 14487 H 1370.86 1.20598 1.03159 0
M  V30 14488 H 1370.88 0.793861 3.72126 0
M  V30 14489 H 1370.39 2.46795 2.99523 0
M  V30 14490 H 1368.49 0.112435 3.7243 0
M  V30 14491 H 1368.61 1.8665 4.41247 0
M  V30 14492 H 1366.97 0.902438 2.38177 0
M  V30 14493 H 1367.75 2.57047 2.27556 0
M  V30 14494 N 1370.2 -1.34667 0.818693 0
M  V30 14495 C 1371.43 -2.02348 0.417002 0
M  V30 14496 C 1371.84 -1.61813 -0.980464 0
M  V30 14497 O 1371.18 -0.817232 -1.64521 0
M  V30 14498 C 1371.24 -3.56861 0.434779 0
M  V30 14499 C 1370.91 -4.20704 1.78485 0
M  V30 14500 C 1371.9 -4.41524 2.74504 0
M  V30 14501 C 1369.59 -4.57566 2.07217 0
M  V30 14502 C 1371.58 -4.98324 3.97431 0
M  V30 14503 C 1369.27 -5.14078 3.30405 0
M  V30 14504 C 1370.27 -5.344 4.2533 0
M  V30 14505 O 1369.95 -5.89717 5.46342 0
M  V30 14506 H 1369.69 -0.655279 0.16609 0
M  V30 14507 H 1372.24 -1.73011 1.10708 0
M  V30 14508 H 1370.47 -3.8544 -0.311973 0
M  V30 14509 H 1372.16 -4.05864 0.0537258 0
M  V30 14510 H 1372.93 -4.13414 2.53601 0
M  V30 14511 H 1368.8 -4.41054 1.34135 0
M  V30 14512 H 1372.35 -5.14102 4.71534 0
M  V30 14513 H 1368.25 -5.41616 3.51174 0
M  V30 14514 H 1369.01 -6.08155 5.47804 0
M  V30 14515 N 1371.68 -0.573274 -1.46804 0
M  V30 14516 C 1372.61 0.153316 -2.32996 0
M  V30 14517 C 1373.59 0.893013 -1.44773 0
M  V30 14518 O 1374.77 0.870329 -1.73606 0
M  V30 14519 C 1371.9 1.1736 -3.2687 0
M  V30 14520 C 1370.86 0.549347 -4.2446 0
M  V30 14521 C 1370.18 1.67542 -5.07773 0
M  V30 14522 C 1371.48 -0.50736 -5.1983 0
M  V30 14523 H 1373.18 -0.566305 -2.93995 0
M  V30 14524 H 1370.72 -0.273785 -1.41373 0
M  V30 14525 H 1372.68 1.6902 -3.86019 0
M  V30 14526 H 1371.4 1.92337 -2.63958 0
M  V30 14527 H 1370.06 0.0539142 -3.6656 0
M  V30 14528 H 1369.71 2.41463 -4.41253 0
M  V30 14529 H 1369.41 1.26343 -5.73856 0
M  V30 14530 H 1370.93 2.19496 -5.69784 0
M  V30 14531 H 1372.34 -0.0762061 -5.73249 0
M  V30 14532 H 1370.74 -0.839139 -5.94204 0
M  V30 14533 H 1371.81 -1.39723 -4.64333 0
M  V30 14534 N 1373.15 1.5451 -0.310553 0
M  V30 14535 C 1374.57 1.85829 0.180166 0
M  V30 14536 C 1374.92 1.23239 1.52665 0
M  V30 14537 O 1374.04 0.53359 2.09718 0
M  V30 14538 C 1374.64 3.37153 0.333687 0
M  V30 14539 C 1373.2 3.68469 0.768625 0
M  V30 14540 C 1372.34 2.77051 -0.117399 0
M  V30 14541 H 1375.29 1.49544 -0.531262 0
M  V30 14542 H 1375.31 3.62171 1.16673 0
M  V30 14543 H 1374.83 3.82678 -0.646455 0
M  V30 14544 H 1372.93 3.28467 1.75898 0
M  V30 14545 H 1373.04 4.75559 0.581392 0
M  V30 14546 H 1371.4 2.51461 0.404905 0
M  V30 14547 H 1372.19 3.254 -1.09407 0
M  V30 14548 N 1374.63 0.0384594 1.57553 0
M  V30 14549 C 1375.57 -0.969185 2.077 0
M  V30 14550 C 1376.58 -1.2829 1.00227 0
M  V30 14551 O 1377.77 -1.24592 1.27824 0
M  V30 14552 C 1374.87 -2.29414 2.49444 0
M  V30 14553 C 1374.04 -2.16422 3.80106 0
M  V30 14554 C 1373.1 -3.31931 4.08299 0
M  V30 14555 O 1372.13 -3.08401 4.78412 0
M  V30 14556 N 1373.33 -4.56015 3.59208 0
M  V30 14557 H 1376.09 -0.541252 2.94772 0
M  V30 14558 H 1373.65 -0.148084 1.61221 0
M  V30 14559 H 1375.65 -3.05533 2.6539 0
M  V30 14560 H 1374.22 -2.63817 1.67688 0
M  V30 14561 H 1373.44 -1.24973 3.73866 0
M  V30 14562 H 1374.72 -2.04954 4.65694 0
M  V30 14563 H 1374.12 -4.78025 3.02503 0
M  V30 14564 H 1372.68 -5.29271 3.80415 0
M  V30 14565 N 1376.11 -1.55841 -0.234795 0
M  V30 14566 C 1377.36 -1.77438 -0.959094 0
M  V30 14567 C 1377.67 -0.604621 -1.86021 0
M  V30 14568 O 1378.88 -0.703897 -2.62217 0
M  V30 14569 C 1377.34 -3.14182 -1.7555 0
M  V30 14570 C 1376.94 -4.38843 -0.90118 0
M  V30 14571 C 1378.69 -3.45112 -2.47181 0
M  V30 14572 C 1376.59 -5.66614 -1.69417 0
M  V30 14573 H 1375.52 -0.661503 -0.361843 0
M  V30 14574 H 1378.18 -1.82255 -0.213364 0
M  V30 14575 H 1376.56 -3.03505 -2.54364 0
M  V30 14576 H 1377.73 -4.60541 -0.154515 0
M  V30 14577 H 1376.05 -4.15335 -0.297631 0
M  V30 14578 H 1378.64 -4.37794 -3.06986 0
M  V30 14579 H 1378.99 -2.66995 -3.19405 0
M  V30 14580 H 1379.52 -3.57059 -1.75368 0
M  V30 14581 H 1376.26 -6.47587 -1.01545 0
M  V30 14582 H 1375.78 -5.48998 -2.4158 0
M  V30 14583 H 1377.46 -6.06311 -2.25824 0
M  V30 14584 N 1377.59 0.500963 -1.49426 0
M  V30 14585 C 1378.83 1.26526 -1.60532 0
M  V30 14586 C 1379.19 1.89864 -0.28562 0
M  V30 14587 O 1380.39 2.67422 -0.271868 0
M  V30 14588 C 1378.67 2.30375 -2.73244 0
M  V30 14589 S 1380.22 3.16143 -3.04301 0
M  V30 14590 H 1377.04 0.429994 -0.566238 0
M  V30 14591 H 1379.64 0.567427 -1.87084 0
M  V30 14592 H 1378.35 1.82373 -3.67652 0
M  V30 14593 H 1377.88 3.04827 -2.48685 0
M  V30 14594 H 1379.89 4.31027 -2.45826 0
M  V30 14595 N 1379.07 1.38501 0.752011 0
M  V30 14596 C 1380.32 1.34529 1.50819 0
M  V30 14597 C 1380.64 -0.0636155 1.94896 0
M  V30 14598 O 1379.91 -1.01161 1.6776 0
M  V30 14599 H 1378.49 0.49501 0.559441 0
M  V30 14600 H 1381.15 1.73196 0.893822 0
M  V30 14601 H 1380.24 1.99713 2.39835 0
M  V30 14602 N 1380.55 -0.980364 1.23396 0
M  V30 14603 C 1381.77 -1.75689 1.09275 0
M  V30 14604 C 1382.19 -1.85418 -0.355773 0
M  V30 14605 O 1381.55 -1.33337 -1.24609 0
M  V30 14606 C 1381.6 -3.18378 1.71223 0
M  V30 14607 O 1381.32 -3.09154 3.10411 0
M  V30 14608 C 1382.82 -4.12425 1.62545 0
M  V30 14609 H 1380.04 -0.551354 0.382427 0
M  V30 14610 H 1382.58 -1.23169 1.63247 0
M  V30 14611 H 1380.74 -3.67925 1.21285 0
M  V30 14612 H 1381.15 -3.9898 3.40464 0
M  V30 14613 H 1382.63 -5.1025 2.10592 0
M  V30 14614 H 1383.1 -4.35296 0.584275 0
M  V30 14615 H 1383.71 -3.68782 2.1185 0
M  V30 14616 N 1382.02 -1.04567 -1.17913 0
M  V30 14617 C 1383.27 -0.753137 -1.88297 0
M  V30 14618 C 1383.6 0.717651 -1.80453 0
M  V30 14619 O 1382.88 1.5242 -1.20824 0
M  V30 14620 C 1383.16 -1.22626 -3.38578 0
M  V30 14621 C 1383.01 -2.75952 -3.55205 0
M  V30 14622 C 1384.33 -0.82029 -4.32388 0
M  V30 14623 H 1381.45 -0.275067 -0.683745 0
M  V30 14624 H 1384.09 -1.29856 -1.38699 0
M  V30 14625 H 1382.24 -0.762246 -3.80949 0
M  V30 14626 H 1383.92 -3.30429 -3.21892 0
M  V30 14627 H 1382.16 -3.15534 -2.97693 0
M  V30 14628 H 1382.83 -3.04116 -4.60671 0
M  V30 14629 H 1385.31 -1.21965 -3.97824 0
M  V30 14630 H 1384.18 -1.17902 -5.36088 0
M  V30 14631 H 1384.44 0.276205 -4.41236 0
M  V30 14632 N 1383.5 1.34231 -0.825823 0
M  V30 14633 C 1384.43 2.31997 -0.264546 0
M  V30 14634 C 1385.41 1.58375 0.620592 0
M  V30 14635 O 1386.6 1.86341 0.546865 0
M  V30 14636 C 1383.73 3.42557 0.572025 0
M  V30 14637 C 1382.68 4.27454 -0.216219 0
M  V30 14638 C 1382.01 5.29509 0.743279 0
M  V30 14639 C 1383.31 5.02456 -1.42603 0
M  V30 14640 H 1385 2.79189 -1.08139 0
M  V30 14641 H 1382.55 1.34227 -0.521451 0
M  V30 14642 H 1384.5 4.09968 0.974889 0
M  V30 14643 H 1383.22 2.94021 1.42195 0
M  V30 14644 H 1381.88 3.61649 -0.600485 0
M  V30 14645 H 1381.53 4.77234 1.58924 0
M  V30 14646 H 1381.23 5.87188 0.220064 0
M  V30 14647 H 1382.76 5.99789 1.14394 0
M  V30 14648 H 1384.17 5.62706 -1.09702 0
M  V30 14649 H 1382.57 5.69723 -1.88509 0
M  V30 14650 H 1383.64 4.31983 -2.2027 0
M  V30 14651 N 1384.98 0.581051 1.46498 0
M  V30 14652 C 1386.23 0.07442 2.03264 0
M  V30 14653 C 1386.58 -1.27069 1.44469 0
M  V30 14654 O 1385.87 -1.8197 0.599785 0
M  V30 14655 C 1386.07 -0.0514774 3.57363 0
M  V30 14656 C 1385.9 1.27988 4.31102 0
M  V30 14657 C 1384.67 1.85358 4.70075 0
M  V30 14658 C 1386.86 2.20268 4.64743 0
M  V30 14659 N 1384.85 3.1225 5.28558 0
M  V30 14660 C 1386.22 3.31746 5.23779 0
M  V30 14661 C 1388.27 2.19969 4.46675 0
M  V30 14662 C 1386.98 4.43056 5.66652 0
M  V30 14663 C 1389 3.30307 4.90562 0
M  V30 14664 C 1388.36 4.40505 5.49667 0
M  V30 14665 H 1384.46 0.0699705 0.778863 0
M  V30 14666 H 1387.05 0.773585 1.78672 0
M  V30 14667 H 1385.22 -0.719807 3.81672 0
M  V30 14668 H 1386.95 -0.562342 4.00774 0
M  V30 14669 H 1383.7 1.3887 4.52782 0
M  V30 14670 H 1384.13 3.76992 5.62322 0
M  V30 14671 H 1388.77 1.36044 4.00315 0
M  V30 14672 H 1386.49 5.27724 6.11991 0
M  V30 14673 H 1390.07 3.31191 4.78334 0
M  V30 14674 H 1388.95 5.24475 5.83006 0
M  V30 14675 N 1386.46 -1.54343 0.318742 0
M  V30 14676 C 1387.87 -1.59564 -0.034068 0
M  V30 14677 C 1388.07 -1.33539 -1.50896 0
M  V30 14678 O 1387.13 -1.11746 -2.26427 0
M  V30 14679 C 1388.44 -2.98291 0.379827 0
M  V30 14680 C 1389.99 -3.11255 0.330078 0
M  V30 14681 C 1390.47 -4.5232 0.719061 0
M  V30 14682 N 1391.96 -4.58295 0.67228 0
M  V30 14683 C 1392.69 -5.65551 0.945513 0
M  V30 14684 N 1392.19 -6.80767 1.28563 0
M  V30 14685 N 1393.98 -5.55305 0.871394 0
M  V30 14686 H 1386.13 -1.69518 1.27975 0
M  V30 14687 H 1388.39 -0.792627 0.520044 0
M  V30 14688 H 1388.1 -3.22319 1.40724 0
M  V30 14689 H 1387.97 -3.76319 -0.257606 0
M  V30 14690 H 1390.36 -2.86965 -0.688117 0
M  V30 14691 H 1390.44 -2.35342 1.00238 0
M  V30 14692 H 1390.09 -4.77342 1.73515 0
M  V30 14693 H 1390.02 -5.26594 0.0245001 0
M  V30 14694 H 1392.51 -3.75547 0.421059 0
M  V30 14695 H 1392.82 -7.58503 1.47963 0
M  V30 14696 H 1391.17 -6.82275 1.32385 0
M  V30 14697 H 1394.36 -4.64171 0.605205 0
M  V30 14698 H 1394.53 -6.38806 1.08769 0
M  V30 14699 N 1387.94 -0.0468143 -1.5753 0
M  V30 14700 C 1388.87 0.927092 -2.14306 0
M  V30 14701 C 1389.85 1.32745 -1.06362 0
M  V30 14702 O 1391.03 1.40293 -1.34281 0
M  V30 14703 C 1388.16 2.20343 -2.68452 0
M  V30 14704 C 1387.12 1.94328 -3.81341 0
M  V30 14705 C 1386.44 3.28379 -4.21985 0
M  V30 14706 C 1387.74 1.26835 -5.06666 0
M  V30 14707 H 1389.44 0.454199 -2.95935 0
M  V30 14708 H 1386.98 0.217029 -1.42355 0
M  V30 14709 H 1388.93 2.8887 -3.0681 0
M  V30 14710 H 1387.66 2.6983 -1.84009 0
M  V30 14711 H 1386.32 1.28214 -3.43448 0
M  V30 14712 H 1385.97 3.75658 -3.34499 0
M  V30 14713 H 1385.67 3.11772 -4.98068 0
M  V30 14714 H 1387.19 3.98145 -4.6294 0
M  V30 14715 H 1388.6 1.85389 -5.42498 0
M  V30 14716 H 1387 1.20569 -5.87863 0
M  V30 14717 H 1388.07 0.243759 -4.84287 0
M  V30 14718 N 1389.41 1.55964 0.226527 0
M  V30 14719 C 1390.36 1.92857 1.30034 0
M  V30 14720 C 1391.36 0.810008 1.48779 0
M  V30 14721 O 1392.56 0.994801 1.50012 0
M  V30 14722 H 1388.94 0.612807 0.435857 0
M  V30 14723 H 1390.91 2.82469 0.96196 0
M  V30 14724 C 1389.66 2.25735 2.6446 0
M  V30 14725 H 1388.98 3.11317 2.50842 0
M  V30 14726 H 1390.42 2.55437 3.3842 0
M  V30 14727 C 1388.88 1.08074 3.19095 0
M  V30 14728 O 1389.41 0.339279 4.00265 0
M  V30 14729 N 1387.62 0.86589 2.774 0
M  V30 14730 H 1387.16 1.47055 2.11501 0
M  V30 14731 H 1387.12 0.0803566 3.14297 0
M  V30 14732 N 1390.89 -0.493031 1.4969 0
M  V30 14733 C 1391.84 -1.61449 1.67442 0
M  V30 14734 C 1392.83 -1.60553 0.540296 0
M  V30 14735 O 1394.04 -1.64965 0.720167 0
M  V30 14736 H 1390.42 -0.535337 0.528127 0
M  V30 14737 H 1392.39 -1.43631 2.61558 0
M  V30 14738 C 1391.14 -2.99537 1.76559 0
M  V30 14739 H 1390.46 -3.00936 2.63206 0
M  V30 14740 H 1391.9 -3.77521 1.93013 0
M  V30 14741 C 1390.36 -3.32984 0.512176 0
M  V30 14742 O 1390.89 -4.00096 -0.35857 0
M  V30 14743 N 1389.09 -2.882 0.372734 0
M  V30 14744 H 1388.64 -2.3376 1.08232 0
M  V30 14745 H 1388.6 -3.10945 -0.464804 0
M  V30 14746 N 1392.37 -1.38898 -0.744656 0
M  V30 14747 C 1393.32 -1.36845 -1.85855 0
M  V30 14748 C 1394.29 -0.2296 -1.64505 0
M  V30 14749 O 1395.47 -0.423221 -1.86047 0
M  V30 14750 C 1392.61 -1.20818 -3.2326 0
M  V30 14751 C 1391.73 -2.44166 -3.5638 0
M  V30 14752 C 1390.86 -2.20801 -4.83136 0
M  V30 14753 C 1389.9 -3.39874 -5.0907 0
M  V30 14754 N 1389.04 -3.15888 -6.27024 0
M  V30 14755 H 1393.88 -2.32068 -1.86945 0
M  V30 14756 H 1391.41 -1.15289 -0.913611 0
M  V30 14757 H 1393.37 -1.0954 -4.02563 0
M  V30 14758 H 1392 -0.292295 -3.21474 0
M  V30 14759 H 1391.05 -2.66083 -2.71852 0
M  V30 14760 H 1392.37 -3.32885 -3.71469 0
M  V30 14761 H 1391.52 -2.0671 -5.704 0
M  V30 14762 H 1390.26 -1.29462 -4.70203 0
M  V30 14763 H 1389.26 -3.54474 -4.20271 0
M  V30 14764 H 1390.49 -4.32102 -5.23894 0
M  V30 14765 H 1388.43 -2.27204 -6.15398 0
M  V30 14766 H 1388.35 -3.9816 -6.42655 0
M  V30 14767 H 1389.62 -3.0547 -7.17153 0
M  V30 14768 N 1393.85 0.973806 -1.23914 0
M  V30 14769 C 1395.07 1.7564 -1.10296 0
M  V30 14770 C 1395.5 1.84984 0.340954 0
M  V30 14771 O 1394.86 1.31629 1.24674 0
M  V30 14772 C 1394.9 3.15809 -1.7406 0
M  V30 14773 O 1394.01 3.99911 -1.00722 0
M  V30 14774 H 1393.35 0.540133 -0.386202 0
M  V30 14775 H 1395.88 1.22197 -1.64101 0
M  V30 14776 H 1395.89 3.66359 -1.79568 0
M  V30 14777 H 1394.56 3.08324 -2.79122 0
M  V30 14778 H 1393.14 3.58405 -1.02956 0
M  V30 14779 N 1395.33 1.05191 1.17357 0
M  V30 14780 C 1396.29 0.65713 2.19578 0
M  V30 14781 C 1397.29 -0.29138 1.58138 0
M  V30 14782 O 1398.48 -0.075254 1.74037 0
M  V30 14783 C 1395.61 -0.0348162 3.40882 0
M  V30 14784 H 1396.8 1.56188 2.56018 0
M  V30 14785 H 1394.36 0.845795 1.31438 0
M  V30 14786 H 1395.09 -0.952835 3.09986 0
M  V30 14787 H 1394.88 0.647076 3.86724 0
M  V30 14788 H 1396.37 -0.297135 4.16542 0
M  V30 14789 N 1396.8 -1.33791 0.83293 0
M  V30 14790 C 1397.75 -2.29332 0.25989 0
M  V30 14791 C 1398.72 -1.54056 -0.620965 0
M  V30 14792 O 1399.91 -1.82382 -0.560492 0
M  V30 14793 C 1397.05 -3.40461 -0.563964 0
M  V30 14794 C 1396.16 -4.30658 0.34025 0
M  V30 14795 C 1395.29 -5.28897 -0.494134 0
M  V30 14796 C 1394.33 -6.10733 0.408842 0
M  V30 14797 N 1393.47 -7.01032 -0.38706 0
M  V30 14798 H 1398.31 -2.77743 1.07996 0
M  V30 14799 H 1395.85 -1.3667 0.544043 0
M  V30 14800 H 1397.81 -4.03587 -1.05704 0
M  V30 14801 H 1396.44 -2.93258 -1.34905 0
M  V30 14802 H 1395.49 -3.68305 0.9516 0
M  V30 14803 H 1396.8 -4.87962 1.03415 0
M  V30 14804 H 1395.95 -5.97522 -1.05128 0
M  V30 14805 H 1394.69 -4.72155 -1.2215 0
M  V30 14806 H 1393.7 -5.41031 0.978046 0
M  V30 14807 H 1394.92 -6.69557 1.13448 0
M  V30 14808 H 1392.87 -6.46747 -1.09792 0
M  V30 14809 H 1392.79 -7.55592 0.248249 0
M  V30 14810 H 1394.05 -7.73973 -0.926631 0
M  V30 14811 N 1398.28 -0.588812 -1.46187 0
M  V30 14812 C 1399.53 -0.0768417 -2.02654 0
M  V30 14813 C 1399.86 1.28213 -1.4586 0
M  V30 14814 O 1399.14 1.8415 -0.626022 0
M  V30 14815 C 1399.42 -0.0176429 -3.60096 0
M  V30 14816 C 1399.27 -1.40595 -4.27262 0
M  V30 14817 C 1400.59 0.679864 -4.34817 0
M  V30 14818 H 1397.71 -0.0293981 -0.736413 0
M  V30 14819 H 1400.35 -0.757183 -1.74261 0
M  V30 14820 H 1398.5 0.56174 -3.84417 0
M  V30 14821 H 1400.17 -2.03097 -4.14185 0
M  V30 14822 H 1398.42 -1.97196 -3.86388 0
M  V30 14823 H 1399.09 -1.31694 -5.3606 0
M  V30 14824 H 1401.56 0.1876 -4.15677 0
M  V30 14825 H 1400.44 0.690333 -5.44542 0
M  V30 14826 H 1400.7 1.74237 -4.06318 0
M  V30 14827 N 1399.76 1.54172 -0.326923 0
M  V30 14828 C 1401.18 1.59579 0.0256055 0
M  V30 14829 C 1401.38 1.34337 1.50186 0
M  V30 14830 O 1400.43 1.12945 2.25831 0
M  V30 14831 C 1401.75 2.98086 -0.395641 0
M  V30 14832 C 1403.29 3.11075 -0.346579 0
M  V30 14833 C 1403.77 4.51932 -0.743039 0
M  V30 14834 N 1405.26 4.57932 -0.696575 0
M  V30 14835 C 1405.99 5.65041 -0.975493 0
M  V30 14836 N 1405.49 6.80075 -1.32172 0
M  V30 14837 N 1407.28 5.54835 -0.900831 0
M  V30 14838 H 1399.43 1.68836 -1.28872 0
M  V30 14839 H 1401.7 0.789858 -0.52424 0
M  V30 14840 H 1401.4 3.21568 -1.42431 0
M  V30 14841 H 1401.28 3.76451 0.237645 0
M  V30 14842 H 1403.66 2.87326 0.672889 0
M  V30 14843 H 1403.75 2.34807 -1.01484 0
M  V30 14844 H 1403.39 4.76415 -1.76044 0
M  V30 14845 H 1403.32 5.26574 -0.0524263 0
M  V30 14846 H 1405.81 3.75318 -0.440969 0
M  V30 14847 H 1406.12 7.57708 -1.51983 0
M  V30 14848 H 1404.47 6.81563 -1.36001 0
M  V30 14849 H 1407.66 4.63844 -0.629812 0
M  V30 14850 H 1407.83 6.3822 -1.12156 0
M  V30 14851 N 1401.24 0.0551678 1.57503 0
M  V30 14852 C 1402.17 -0.947102 2.08717 0
M  V30 14853 C 1403.18 -1.2722 1.01582 0
M  V30 14854 O 1404.37 -1.23229 1.29139 0
M  V30 14855 C 1401.47 -2.26756 2.51863 0
M  V30 14856 C 1400.65 -2.12378 3.8238 0
M  V30 14857 C 1399.7 -3.27582 4.11797 0
M  V30 14858 O 1398.73 -3.03309 4.81656 0
M  V30 14859 N 1399.93 -4.5218 3.64024 0
M  V30 14860 H 1402.7 -0.509957 2.9533 0
M  V30 14861 H 1400.26 -0.130976 1.61369 0
M  V30 14862 H 1402.25 -3.02701 2.68616 0
M  V30 14863 H 1400.82 -2.62024 1.70477 0
M  V30 14864 H 1400.04 -1.21 3.7517 0
M  V30 14865 H 1401.33 -2.00003 4.67842 0
M  V30 14866 H 1400.73 -4.7479 3.07556 0
M  V30 14867 H 1399.28 -5.25206 3.86008 0
M  V30 14868 N 1402.72 -1.56081 -0.218252 0
M  V30 14869 C 1403.65 -1.89176 -1.29403 0
M  V30 14870 C 1404.66 -0.780312 -1.42881 0
M  V30 14871 O 1405.85 -1.05863 -1.4372 0
M  V30 14872 C 1402.95 -2.08818 -2.66923 0
M  V30 14873 C 1402.12 -3.39854 -2.75351 0
M  V30 14874 C 1401.18 -3.48889 -3.93908 0
M  V30 14875 O 1400.21 -4.21894 -3.82091 0
M  V30 14876 N 1401.41 -2.80273 -5.08357 0
M  V30 14877 H 1404.18 -2.82047 -1.01338 0
M  V30 14878 H 1401.74 -1.56667 -0.408278 0
M  V30 14879 H 1403.73 -2.12175 -3.44622 0
M  V30 14880 H 1402.3 -1.22557 -2.87574 0
M  V30 14881 H 1401.52 -3.48568 -1.84104 0
M  V30 14882 H 1402.81 -4.26168 -2.77954 0
M  V30 14883 H 1402.2 -2.20744 -5.20854 0
M  V30 14884 H 1400.76 -2.89286 -5.84086 0
M  V30 14885 N 1404.2 0.485086 -1.49949 0
M  V30 14886 C 1405.16 1.56713 -1.67253 0
M  V30 14887 C 1406.16 1.51329 -0.543701 0
M  V30 14888 O 1407.35 1.54198 -0.810472 0
M  V30 14889 C 1404.48 2.9636 -1.68475 0
M  V30 14890 H 1405.67 1.42693 -2.63778 0
M  V30 14891 H 1403.23 0.710473 -1.39219 0
M  V30 14892 H 1403.96 3.1584 -0.735924 0
M  V30 14893 H 1403.75 3.01675 -2.50469 0
M  V30 14894 H 1405.24 3.74945 -1.83865 0
M  V30 14895 N 1405.67 1.39291 0.737279 0
M  V30 14896 C 1406.64 1.37607 1.83294 0
M  V30 14897 C 1407.64 0.273594 1.58455 0
M  V30 14898 O 1408.83 0.531375 1.65898 0
M  V30 14899 C 1405.96 1.14642 3.21045 0
M  V30 14900 H 1407.15 2.35102 1.86191 0
M  V30 14901 H 1404.7 1.24822 0.940696 0
M  V30 14902 H 1405.44 0.178202 3.2381 0
M  V30 14903 H 1405.22 1.94479 3.40471 0
M  V30 14904 H 1406.71 1.162 4.01108 0
M  V30 14905 N 1407.15 -0.967221 1.24429 0
M  V30 14906 C 1408.43 -1.68564 0.992253 0
M  V30 14907 C 1408.81 -2.05446 -0.485301 0
M  V30 14908 O 1408.16 -1.75798 -1.45971 0
M  V30 14909 C 1408.37 -2.91728 1.91562 0
M  V30 14910 C 1409.71 -3.63957 2.18678 0
M  V30 14911 O 1410.74 -3.01786 1.89219 0
M  V30 14912 O 1409.6 -4.75875 2.68711 0
M  V30 14913 H 1406.69 -0.736939 0.375299 0
M  V30 14914 H 1409.24 -1.02127 1.35529 0
M  V30 14915 H 1408.01 -2.61168 2.91388 0
M  V30 14916 H 1407.63 -3.65898 1.55577 0
M  V30 14917 N 1408.63 -1.05812 -1.16797 0
M  V30 14918 C 1409.56 -0.685778 -2.23202 0
M  V30 14919 C 1410.54 0.319428 -1.67074 0
M  V30 14920 O 1411.73 0.195635 -1.93212 0
M  V30 14921 C 1408.86 -0.0662958 -3.47237 0
M  V30 14922 C 1407.81 -0.996943 -4.16227 0
M  V30 14923 C 1407.14 -0.241015 -5.34157 0
M  V30 14924 C 1408.44 -2.32384 -4.67755 0
M  V30 14925 H 1410.13 -1.57535 -2.54604 0
M  V30 14926 H 1407.68 -0.758909 -1.22379 0
M  V30 14927 H 1409.63 0.206024 -4.20896 0
M  V30 14928 H 1408.35 0.858263 -3.15121 0
M  V30 14929 H 1407.01 -1.25393 -3.44488 0
M  V30 14930 H 1406.66 0.686508 -4.98293 0
M  V30 14931 H 1406.36 -0.861188 -5.81255 0
M  V30 14932 H 1407.88 0.0238739 -6.10595 0
M  V30 14933 H 1409.3 -2.11099 -5.3302 0
M  V30 14934 H 1407.69 -2.89855 -5.25456 0
M  V30 14935 H 1408.76 -2.958 -3.84227 0
M  V30 14936 N 1410.11 1.33347 -0.840014 0
M  V30 14937 C 1411.36 1.97007 -0.432581 0
M  V30 14938 C 1411.67 1.67278 1.01378 0
M  V30 14939 O 1412.88 2.2456 1.52595 0
M  V30 14940 C 1411.33 3.52572 -0.72258 0
M  V30 14941 C 1410.94 3.91176 -2.1837 0
M  V30 14942 C 1412.68 4.22776 -0.382153 0
M  V30 14943 C 1410.59 5.39724 -2.41768 0
M  V30 14944 H 1409.52 0.737255 -0.158024 0
M  V30 14945 H 1412.17 1.5195 -1.02876 0
M  V30 14946 H 1410.55 3.9596 -0.0560179 0
M  V30 14947 H 1411.73 3.58842 -2.89083 0
M  V30 14948 H 1410.04 3.33956 -2.48721 0
M  V30 14949 H 1412.64 5.32021 -0.534588 0
M  V30 14950 H 1412.98 4.10792 0.674967 0
M  V30 14951 H 1413.52 3.84922 -1.004 0
M  V30 14952 H 1410.25 5.56713 -3.4605 0
M  V30 14953 H 1409.77 5.73514 -1.75617 0
M  V30 14954 H 1411.45 6.06624 -2.2498 0
M  V30 14955 N 1411.59 0.596556 1.45873 0
M  V30 14956 C 1412.81 0.0916466 2.07197 0
M  V30 14957 C 1413.24 -1.21004 1.44012 0
M  V30 14958 O 1412.59 -1.73415 0.528844 0
M  V30 14959 C 1412.64 -0.0461457 3.6057 0
M  V30 14960 O 1411.75 -1.09919 3.97481 0
M  V30 14961 H 1411.09 0.0690655 0.660398 0
M  V30 14962 H 1413.62 0.823434 1.87299 0
M  V30 14963 H 1413.63 -0.2479 4.07246 0
M  V30 14964 H 1412.3 0.904381 4.05948 0
M  V30 14965 H 1410.88 -0.874788 3.62494 0
M  V30 14966 N 1413.06 -1.53996 0.335095 0
M  V30 14967 C 1414.48 -1.59591 -0.0171422 0
M  V30 14968 C 1414.68 -1.35132 -1.49471 0
M  V30 14969 O 1413.74 -1.14141 -2.25229 0
M  V30 14970 C 1415.05 -2.97872 0.411443 0
M  V30 14971 C 1416.6 -3.10887 0.363072 0
M  V30 14972 C 1417.07 -4.51532 0.766995 0
M  V30 14973 N 1418.56 -4.57557 0.72085 0
M  V30 14974 C 1419.3 -5.64516 1.00544 0
M  V30 14975 N 1418.79 -6.79365 1.35777 0
M  V30 14976 N 1420.59 -5.54349 0.930243 0
M  V30 14977 H 1412.74 -1.68151 1.29766 0
M  V30 14978 H 1415 -0.787067 0.528422 0
M  V30 14979 H 1414.71 -3.20809 1.44134 0
M  V30 14980 H 1414.58 -3.76571 -0.217678 0
M  V30 14981 H 1416.97 -2.87679 -0.657642 0
M  V30 14982 H 1417.05 -2.34266 1.02728 0
M  V30 14983 H 1416.69 -4.75474 1.78568 0
M  V30 14984 H 1416.62 -5.26539 0.0803511 0
M  V30 14985 H 1419.11 -3.75079 0.460867 0
M  V30 14986 H 1419.43 -7.56891 1.55999 0
M  V30 14987 H 1417.77 -6.80833 1.39614 0
M  V30 14988 H 1420.96 -4.63503 0.654402 0
M  V30 14989 H 1421.14 -6.37616 1.15539 0
M  V30 14990 N 1414.54 -0.0635198 -1.57472 0
M  V30 14991 C 1415.77 0.616735 -1.97494 0
M  V30 14992 C 1416.18 1.63646 -0.941568 0
M  V30 14993 O 1415.54 1.82355 0.0727768 0
M  V30 14994 C 1415.59 1.29268 -3.37597 0
M  V30 14995 O 1415.31 0.313781 -4.36975 0
M  V30 14996 C 1416.81 2.06154 -3.92448 0
M  V30 14997 H 1414.03 0.167753 -0.649692 0
M  V30 14998 H 1416.58 -0.133475 -2.04064 0
M  V30 14999 H 1414.73 1.99404 -3.3214 0
M  V30 15000 H 1415.15 0.797723 -5.18398 0
M  V30 15001 H 1416.62 2.48853 -4.92723 0
M  V30 15002 H 1417.1 2.91474 -3.28541 0
M  V30 15003 H 1417.7 1.40903 -4.01281 0
M  V30 15004 N 1416.02 1.56195 0.209972 0
M  V30 15005 C 1416.98 1.92514 1.24383 0
M  V30 15006 C 1417.98 0.804793 1.39211 0
M  V30 15007 O 1419.17 1.0724 1.37278 0
M  V30 15008 C 1416.3 2.18613 2.61574 0
M  V30 15009 H 1417.5 2.84992 0.933781 0
M  V30 15010 H 1415.05 1.49656 0.450878 0
M  V30 15011 H 1415.79 1.28724 2.97659 0
M  V30 15012 H 1415.57 3.00241 2.52186 0
M  V30 15013 H 1417.06 2.47767 3.36156 0
M  V30 15014 N 1417.5 -0.477127 1.50204 0
M  V30 15015 C 1418.74 -1.23147 1.6113 0
M  V30 15016 C 1419.08 -1.91743 0.307909 0
M  V30 15017 O 1418.35 -1.81841 -0.690223 0
M  V30 15018 C 1418.63 -2.27985 2.78738 0
M  V30 15019 C 1418.49 -1.63733 4.18941 0
M  V30 15020 C 1419.81 -3.29349 2.9192 0
M  V30 15021 H 1416.93 -0.446358 0.586459 0
M  V30 15022 H 1419.57 -0.52612 1.8257 0
M  V30 15023 H 1417.72 -2.88143 2.60588 0
M  V30 15024 H 1419.39 -1.07218 4.48667 0
M  V30 15025 H 1417.63 -0.940634 4.23479 0
M  V30 15026 H 1418.3 -2.39888 4.9715 0
M  V30 15027 H 1420.78 -2.79208 3.08516 0
M  V30 15028 H 1419.66 -4.0004 3.75845 0
M  V30 15029 H 1419.92 -3.93111 2.02278 0
M  V30 15030 N 1418.98 -1.3968 -0.729882 0
M  V30 15031 C 1420.22 -1.37385 -1.49175 0
M  V30 15032 C 1420.56 0.0285839 -1.94179 0
M  V30 15033 O 1419.83 0.994516 -1.67152 0
M  V30 15034 C 1420.11 -2.35075 -2.72785 0
M  V30 15035 C 1419.97 -3.84282 -2.33767 0
M  V30 15036 C 1421.29 -2.30515 -3.74901 0
M  V30 15037 H 1418.4 -0.500359 -0.541119 0
M  V30 15038 H 1421.05 -1.7071 -0.834152 0
M  V30 15039 H 1419.2 -2.06787 -3.28894 0
M  V30 15040 H 1420.87 -4.2334 -1.8325 0
M  V30 15041 H 1419.11 -4.00809 -1.65935 0
M  V30 15042 H 1419.78 -4.48131 -3.22309 0
M  V30 15043 H 1422.26 -2.55539 -3.28389 0
M  V30 15044 H 1421.13 -3.00939 -4.5905 0
M  V30 15045 H 1421.4 -1.3119 -4.22187 0
M  V30 15046 N 1420.45 0.960609 -1.2494 0
M  V30 15047 C 1421.39 2.05548 -0.991229 0
M  V30 15048 C 1422.37 1.62415 0.0774707 0
M  V30 15049 O 1423.55 1.88401 -0.0609447 0
M  V30 15050 C 1420.68 3.3503 -0.497227 0
M  V30 15051 C 1419.72 3.97121 -1.55555 0
M  V30 15052 S 1420.56 4.33851 -3.139 0
M  V30 15053 C 1421.71 5.66461 -2.6622 0
M  V30 15054 H 1421.94 2.27131 -1.9183 0
M  V30 15055 H 1419.48 1.09945 -1.08404 0
M  V30 15056 H 1421.44 4.09916 -0.218845 0
M  V30 15057 H 1420.1 3.11423 0.409246 0
M  V30 15058 H 1419.29 4.90458 -1.16047 0
M  V30 15059 H 1418.89 3.28692 -1.7843 0
M  V30 15060 H 1421.18 6.44304 -2.09474 0
M  V30 15061 H 1422.13 6.10833 -3.58174 0
M  V30 15062 H 1422.53 5.25409 -2.06413 0
M  V30 15063 N 1421.93 1.0643 1.16234 0
M  V30 15064 C 1422.88 0.676311 2.20669 0
M  V30 15065 C 1423.85 -0.327721 1.62835 0
M  V30 15066 O 1425.03 -0.216296 1.8957 0
M  V30 15067 C 1422.17 0.0703726 3.45028 0
M  V30 15068 C 1421.29 1.12475 4.17101 0
M  V30 15069 C 1420.42 0.484806 5.28983 0
M  V30 15070 C 1419.46 1.52262 5.9286 0
M  V30 15071 N 1418.6 0.905938 6.96231 0
M  V30 15072 H 1423.44 1.57129 2.53209 0
M  V30 15073 H 1420.98 0.7856 1.24365 0
M  V30 15074 H 1422.93 -0.298488 4.16131 0
M  V30 15075 H 1421.56 -0.788002 3.13034 0
M  V30 15076 H 1420.62 1.6113 3.44589 0
M  V30 15077 H 1421.93 1.91202 4.60698 0
M  V30 15078 H 1421.08 0.0630553 6.06667 0
M  V30 15079 H 1419.82 -0.334332 4.86553 0
M  V30 15080 H 1418.83 1.95425 5.13896 0
M  V30 15081 H 1420.05 2.34388 6.37369 0
M  V30 15082 H 1418 0.107536 6.55912 0
M  V30 15083 H 1417.91 1.63058 7.38206 0
M  V30 15084 H 1419.18 0.509378 7.77834 0
M  V30 15085 N 1423.41 -1.329 0.847073 0
M  V30 15086 C 1424.64 -2.0171 0.460497 0
M  V30 15087 C 1425.05 -1.63699 -0.940649 0
M  V30 15088 O 1424.41 -0.854454 -1.61262 0
M  V30 15089 C 1424.46 -3.56799 0.581108 0
M  V30 15090 O 1424.18 -3.93442 1.92705 0
M  V30 15091 C 1425.68 -4.42882 0.192552 0
M  V30 15092 H 1422.9 -0.645887 0.181853 0
M  V30 15093 H 1425.45 -1.69648 1.14192 0
M  V30 15094 H 1423.6 -3.87364 -0.0524924 0
M  V30 15095 H 1424.02 -4.88157 1.91841 0
M  V30 15096 H 1425.49 -5.51025 0.327969 0
M  V30 15097 H 1425.97 -4.30571 -0.866315 0
M  V30 15098 H 1426.57 -4.17691 0.800918 0
M  V30 15099 N 1424.89 -0.604284 -1.45555 0
M  V30 15100 C 1426.13 -0.101149 -2.0415 0
M  V30 15101 C 1426.49 1.24348 -1.46292 0
M  V30 15102 O 1427.69 1.83714 -1.9622 0
M  V30 15103 C 1425.96 -0.0589898 -3.57351 0
M  V30 15104 S 1427.52 0.383434 -4.37122 0
M  V30 15105 H 1424.34 -0.0479603 -0.709381 0
M  V30 15106 H 1426.94 -0.801643 -1.78309 0
M  V30 15107 H 1425.65 -1.04119 -3.96973 0
M  V30 15108 H 1425.18 0.663601 -3.87763 0
M  V30 15109 H 1427.19 1.63367 -4.68536 0
M  V30 15110 N 1426.37 1.53816 -0.343257 0
M  V30 15111 C 1427.3 2.22552 0.548015 0
M  V30 15112 C 1428.31 1.23202 1.06419 0
M  V30 15113 O 1429.5 1.49559 0.974394 0
M  V30 15114 C 1426.6 2.89197 1.76687 0
M  V30 15115 C 1425.77 4.14859 1.38603 0
M  V30 15116 C 1424.83 4.64917 2.46453 0
M  V30 15117 O 1423.86 5.29135 2.09773 0
M  V30 15118 N 1425.06 4.4082 3.77701 0
M  V30 15119 H 1427.83 2.99672 -0.040645 0
M  V30 15120 H 1425.39 1.61033 -0.167368 0
M  V30 15121 H 1427.38 3.19601 2.48268 0
M  V30 15122 H 1425.95 2.15664 2.26291 0
M  V30 15123 H 1425.17 3.91003 0.501001 0
M  V30 15124 H 1426.46 4.96599 1.10756 0
M  V30 15125 H 1425.85 3.8946 4.1029 0
M  V30 15126 H 1424.41 4.7583 4.45453 0
M  V30 15127 N 1427.84 0.0718701 1.57436 0
M  V30 15128 C 1428.75 -0.910077 2.16229 0
M  V30 15129 C 1429.77 -1.32699 1.12548 0
M  V30 15130 O 1430.95 -1.39967 1.44814 0
M  V30 15131 C 1428.01 -2.15942 2.71238 0
M  V30 15132 C 1427.07 -1.79891 3.89792 0
M  V30 15133 C 1426.31 -2.9887 4.42168 0
M  V30 15134 O 1426.53 -4.1289 3.93545 0
M  V30 15135 O 1425.46 -2.78682 5.33498 0
M  V30 15136 H 1429.29 -0.439969 3.00496 0
M  V30 15137 H 1426.87 -0.151204 1.48633 0
M  V30 15138 H 1428.76 -2.89204 3.06494 0
M  V30 15139 H 1427.43 -2.62051 1.90029 0
M  V30 15140 H 1426.34 -1.03881 3.59388 0
M  V30 15141 H 1427.67 -1.38566 4.72293 0
M  V30 15142 N 1429.32 -1.56304 -0.201686 0
M  V30 15143 C 1430.23 -1.97215 -1.27057 0
M  V30 15144 C 1431.25 -0.878834 -1.50175 0
M  V30 15145 O 1432.42 -1.18405 -1.62918 0
M  V30 15146 C 1429.49 -2.29772 -2.59626 0
M  V30 15147 C 1428.55 -3.52776 -2.44637 0
M  V30 15148 C 1427.78 -3.83771 -3.70885 0
M  V30 15149 O 1428.01 -3.16149 -4.7477 0
M  V30 15150 O 1426.94 -4.77216 -3.66808 0
M  V30 15151 H 1430.77 -2.88347 -0.953393 0
M  V30 15152 H 1428.35 -1.43773 -0.406158 0
M  V30 15153 H 1430.23 -2.51817 -3.37885 0
M  V30 15154 H 1428.91 -1.41809 -2.90984 0
M  V30 15155 H 1427.82 -3.35986 -1.64512 0
M  V30 15156 H 1429.15 -4.41184 -2.18214 0
M  V30 15157 N 1430.8 0.469154 -1.50455 0
M  V30 15158 C 1431.75 1.56691 -1.6946 0
M  V30 15159 C 1432.72 1.57217 -0.535921 0
M  V30 15160 O 1433.9 1.74717 -0.766715 0
M  V30 15161 C 1431.04 2.94651 -1.79651 0
M  V30 15162 C 1430.16 3.03899 -3.07033 0
M  V30 15163 C 1429.29 4.32786 -3.08009 0
M  V30 15164 C 1428.33 4.35784 -4.29836 0
M  V30 15165 N 1427.47 5.56145 -4.28541 0
M  V30 15166 H 1432.31 1.39791 -2.63178 0
M  V30 15167 H 1429.84 0.679628 -1.30459 0
M  V30 15168 H 1431.8 3.74658 -1.83541 0
M  V30 15169 H 1430.43 3.10182 -0.893713 0
M  V30 15170 H 1429.48 2.16754 -3.12605 0
M  V30 15171 H 1430.8 3.01974 -3.97005 0
M  V30 15172 H 1429.95 5.21141 -3.10639 0
M  V30 15173 H 1428.69 4.37323 -2.1587 0
M  V30 15174 H 1427.69 3.45825 -4.27417 0
M  V30 15175 H 1428.92 4.32937 -5.23204 0
M  V30 15176 H 1426.86 5.61464 -3.39256 0
M  V30 15177 H 1426.78 5.55969 -5.12284 0
M  V30 15178 H 1428.05 6.4662 -4.35319 0
M  V30 15179 N 1432.28 1.40065 0.722464 0
M  V30 15180 C 1433.21 1.42532 1.84951 0
M  V30 15181 C 1434.19 0.287082 1.6766 0
M  V30 15182 O 1435.37 0.494715 1.87793 0
M  V30 15183 C 1432.5 1.28041 3.22836 0
M  V30 15184 C 1431.46 2.39396 3.54787 0
M  V30 15185 C 1430.78 2.09986 4.91742 0
M  V30 15186 C 1432.08 3.81729 3.56483 0
M  V30 15187 H 1433.78 2.36851 1.83144 0
M  V30 15188 H 1431.32 1.14005 0.879714 0
M  V30 15189 H 1433.28 1.28385 4.01367 0
M  V30 15190 H 1432 0.301947 3.25201 0
M  V30 15191 H 1430.66 2.3829 2.78592 0
M  V30 15192 H 1430.31 1.10547 4.90702 0
M  V30 15193 H 1430.01 2.84586 5.14086 0
M  V30 15194 H 1431.53 2.12 5.72615 0
M  V30 15195 H 1432.95 3.84696 4.25067 0
M  V30 15196 H 1431.34 4.55791 3.90351 0
M  V30 15197 H 1432.41 4.11807 2.56014 0
M  V30 15198 N 1433.76 -0.95397 1.25448 0
M  V30 15199 C 1434.69 -2.05019 1.00212 0
M  V30 15200 C 1435.67 -1.62454 -0.0688563 0
M  V30 15201 O 1436.85 -1.88366 0.0709352 0
M  V30 15202 C 1433.98 -3.34762 0.514987 0
M  V30 15203 C 1433.03 -3.9629 1.57659 0
M  V30 15204 S 1433.86 -4.32181 3.16196 0
M  V30 15205 C 1435.01 -5.65041 2.6922 0
M  V30 15206 H 1435.25 -2.26111 1.93032 0
M  V30 15207 H 1432.78 -1.09369 1.08985 0
M  V30 15208 H 1434.74 -4.09794 0.24058 0
M  V30 15209 H 1433.4 -3.11635 -0.392724 0
M  V30 15210 H 1432.59 -4.89836 1.18647 0
M  V30 15211 H 1432.19 -3.27741 1.80171 0
M  V30 15212 H 1434.49 -6.43184 2.12887 0
M  V30 15213 H 1435.43 -6.08925 3.61408 0
M  V30 15214 H 1435.84 -5.24306 2.09196 0
M  V30 15215 N 1435.24 -1.07045 -1.15668 0
M  V30 15216 C 1436.48 -0.790172 -1.86013 0
M  V30 15217 C 1436.8 0.685663 -1.82548 0
M  V30 15218 O 1436.07 1.49644 -1.26426 0
M  V30 15219 H 1434.65 -0.28931 -0.688701 0
M  V30 15220 H 1437.32 -1.35354 -1.40233 0
M  V30 15221 H 1436.41 -1.1219 -2.91239 0
M  V30 15222 N 1436.71 1.32449 -0.85411 0
M  V30 15223 C 1437.66 2.26394 -0.270121 0
M  V30 15224 C 1438.65 1.49939 0.58371 0
M  V30 15225 O 1439.84 1.71617 0.433182 0
M  V30 15226 C 1436.97 3.3901 0.540998 0
M  V30 15227 C 1436.05 4.22851 -0.32519 0
M  V30 15228 N 1436.45 4.85715 -1.41118 0
M  V30 15229 C 1434.74 4.45852 -0.114845 0
M  V30 15230 C 1435.44 5.48254 -1.94402 0
M  V30 15231 N 1434.42 5.29192 -1.24327 0
M  V30 15232 H 1438.22 2.72523 -1.10037 0
M  V30 15233 H 1435.74 1.46531 -0.700167 0
M  V30 15234 H 1437.73 4.0532 0.975778 0
M  V30 15235 H 1436.39 2.94427 1.36905 0
M  V30 15236 H 1437.4 4.85831 -1.79411 0
M  V30 15237 H 1434.08 4.11949 0.678533 0
M  V30 15238 H 1435.47 6.08259 -2.8543 0
M  V30 15239 N 1438.19 0.611994 1.45232 0
M  V30 15240 C 1439.12 -0.0914869 2.33321 0
M  V30 15241 C 1440.1 -0.854315 1.4709 0
M  V30 15242 O 1441.29 -0.823994 1.75852 0
M  V30 15243 C 1438.42 -1.08652 3.29867 0
M  V30 15244 C 1437.37 -0.436615 4.25767 0
M  V30 15245 C 1436.7 -1.54021 5.12037 0
M  V30 15246 C 1438 0.645005 5.18302 0
M  V30 15247 H 1439.69 0.644053 2.92391 0
M  V30 15248 H 1437.24 0.311171 1.40598 0
M  V30 15249 H 1439.19 -1.58726 3.90364 0
M  V30 15250 H 1437.91 -1.85271 2.68965 0
M  V30 15251 H 1436.57 0.0432918 3.66574 0
M  V30 15252 H 1436.22 -2.29679 4.475 0
M  V30 15253 H 1435.92 -1.11084 5.77005 0
M  V30 15254 H 1437.45 -2.04313 5.75403 0
M  V30 15255 H 1438.86 0.228166 5.72846 0
M  V30 15256 H 1437.26 0.996387 5.9177 0
M  V30 15257 H 1438.33 1.51985 4.60466 0
M  V30 15258 N 1439.67 -1.53632 0.351409 0
M  V30 15259 C 1440.92 -2.00643 -0.242208 0
M  V30 15260 C 1441.24 -1.24074 -1.50435 0
M  V30 15261 O 1440.51 -0.350067 -1.92747 0
M  V30 15262 H 1439.09 -0.741252 -0.0924904 0
M  V30 15263 H 1441.75 -1.89039 0.474379 0
M  V30 15264 H 1440.85 -3.084 -0.479151 0
M  V30 15265 N 1441.15 -0.0802183 -1.57396 0
M  V30 15266 C 1442.39 0.587831 -1.94094 0
M  V30 15267 C 1442.73 1.6875 -0.961093 0
M  V30 15268 O 1442 1.94498 0.00832799 0
M  V30 15269 C 1442.28 1.15692 -3.41009 0
M  V30 15270 C 1442.14 0.0633211 -4.49755 0
M  V30 15271 C 1443.46 2.05987 -3.88918 0
M  V30 15272 H 1440.58 0.212214 -0.705786 0
M  V30 15273 H 1443.22 -0.147902 -1.89423 0
M  V30 15274 H 1441.37 1.78394 -3.4512 0
M  V30 15275 H 1443.04 -0.57019 -4.57763 0
M  V30 15276 H 1441.28 -0.605003 -4.2956 0
M  V30 15277 H 1441.95 0.502056 -5.49712 0
M  V30 15278 H 1444.43 1.5321 -3.86867 0
M  V30 15279 H 1443.31 2.42737 -4.92311 0
M  V30 15280 H 1443.57 2.97147 -3.27347 0
M  V30 15281 N 1442.63 1.56409 0.193394 0
M  V30 15282 C 1443.87 1.80991 0.914875 0
M  V30 15283 C 1444.2 0.654538 1.82837 0
M  V30 15284 O 1443.48 -0.344816 1.91419 0
M  V30 15285 C 1443.76 3.15841 1.72964 0
M  V30 15286 C 1443.62 4.41873 0.840748 0
M  V30 15287 C 1444.93 3.474 2.70188 0
M  V30 15288 H 1442.05 0.658408 0.331161 0
M  V30 15289 H 1444.7 1.89125 0.182161 0
M  V30 15290 H 1442.85 3.09038 2.35431 0
M  V30 15291 H 1444.52 4.60723 0.230654 0
M  V30 15292 H 1442.76 4.33549 0.147558 0
M  V30 15293 H 1443.43 5.32728 1.44586 0
M  V30 15294 H 1445.91 3.54513 2.17852 0
M  V30 15295 H 1444.78 4.42872 3.24278 0
M  V30 15296 H 1445.04 2.7098 3.49317 0
M  V30 15297 N 1444.1 -0.461169 1.50702 0
M  V30 15298 C 1445.03 -1.56576 1.73223 0
M  V30 15299 C 1446.01 -1.59855 0.581401 0
M  V30 15300 O 1447.2 -1.75964 0.821602 0
M  V30 15301 C 1444.33 -2.94835 1.83548 0
M  V30 15302 C 1443.28 -3.06421 2.98815 0
M  V30 15303 C 1442.61 -4.46425 2.94293 0
M  V30 15304 C 1443.91 -2.82714 4.3917 0
M  V30 15305 H 1445.6 -1.37982 2.65709 0
M  V30 15306 H 1443.15 -0.662362 1.27862 0
M  V30 15307 H 1445.1 -3.72047 1.97887 0
M  V30 15308 H 1443.83 -3.14608 0.876906 0
M  V30 15309 H 1442.49 -2.31644 2.84142 0
M  V30 15310 H 1442.13 -4.63131 1.96262 0
M  V30 15311 H 1441.83 -4.55111 3.71682 0
M  V30 15312 H 1443.36 -5.25644 3.10695 0
M  V30 15313 H 1444.77 -3.4967 4.54317 0
M  V30 15314 H 1443.17 -3.02835 5.18084 0
M  V30 15315 H 1444.24 -1.78492 4.50853 0
M  V30 15316 N 1445.58 -1.40446 -0.715026 0
M  V30 15317 C 1446.81 -1.41864 -1.50193 0
M  V30 15318 C 1447.22 -0.0168144 -1.89193 0
M  V30 15319 O 1446.56 0.969732 -1.56019 0
M  V30 15320 C 1446.62 -2.24619 -2.80689 0
M  V30 15321 C 1446.29 -3.73026 -2.64009 0
M  V30 15322 C 1447.29 -4.65648 -2.31232 0
M  V30 15323 C 1444.97 -4.16847 -2.80256 0
M  V30 15324 C 1446.96 -6.00076 -2.14912 0
M  V30 15325 C 1444.65 -5.51346 -2.63554 0
M  V30 15326 C 1445.65 -6.42776 -2.3093 0
M  V30 15327 O 1445.34 -7.74795 -2.14355 0
M  V30 15328 H 1445.07 -0.485821 -0.470058 0
M  V30 15329 H 1447.62 -1.85138 -0.88955 0
M  V30 15330 H 1445.85 -1.76126 -3.44262 0
M  V30 15331 H 1447.54 -2.17972 -3.42408 0
M  V30 15332 H 1448.31 -4.33087 -2.18312 0
M  V30 15333 H 1444.19 -3.46001 -3.04637 0
M  V30 15334 H 1447.73 -6.71405 -1.8937 0
M  V30 15335 H 1443.63 -5.83491 -2.76058 0
M  V30 15336 H 1444.4 -7.85734 -2.2927 0
M  V30 15337 N 1447.06 0.947303 -1.25952 0
M  V30 15338 C 1447.97 2.07878 -1.08738 0
M  V30 15339 C 1448.99 1.73985 -0.0225212 0
M  V30 15340 O 1450.16 2.00139 -0.224984 0
M  V30 15341 C 1447.23 3.39231 -0.715756 0
M  V30 15342 C 1446.29 3.86945 -1.85935 0
M  V30 15343 C 1445.52 5.1203 -1.50537 0
M  V30 15344 O 1445.74 5.68965 -0.404323 0
M  V30 15345 O 1444.68 5.54634 -2.33805 0
M  V30 15346 H 1448.5 2.25305 -2.03645 0
M  V30 15347 H 1446.09 1.06321 -1.04958 0
M  V30 15348 H 1447.97 4.18167 -0.520962 0
M  V30 15349 H 1446.65 3.23057 0.203978 0
M  V30 15350 H 1445.55 3.08981 -2.10906 0
M  V30 15351 H 1446.89 4.0763 -2.75859 0
M  V30 15352 N 1448.54 1.07657 1.15099 0
M  V30 15353 C 1449.77 0.821631 1.89559 0
M  V30 15354 C 1450.18 -0.629174 1.78432 0
M  V30 15355 O 1449.52 -1.44353 1.13613 0
M  V30 15356 C 1449.58 1.15473 3.4045 0
M  V30 15357 C 1449.25 2.60675 3.75363 0
M  V30 15358 C 1450.24 3.58923 3.76125 0
M  V30 15359 C 1447.93 2.96333 4.05576 0
M  V30 15360 C 1449.92 4.90863 4.06611 0
M  V30 15361 C 1447.61 4.28469 4.35727 0
M  V30 15362 C 1448.61 5.25543 4.36226 0
M  V30 15363 O 1448.29 6.55305 4.65651 0
M  V30 15364 H 1448.03 0.296469 0.607521 0
M  V30 15365 H 1450.58 1.43722 1.46742 0
M  V30 15366 H 1448.81 0.482117 3.83683 0
M  V30 15367 H 1450.5 0.881832 3.96205 0
M  V30 15368 H 1451.27 3.32718 3.52879 0
M  V30 15369 H 1447.14 2.2142 4.04344 0
M  V30 15370 H 1450.69 5.66626 4.06916 0
M  V30 15371 H 1446.59 4.54425 4.58441 0
M  V30 15372 H 1447.35 6.60503 4.83402 0
M  V30 15373 N 1450.02 -1.31994 0.861122 0
M  V30 15374 C 1450.95 -2.31214 0.325963 0
M  V30 15375 C 1451.93 -1.59965 -0.578383 0
M  V30 15376 O 1453.11 -1.87726 -0.497268 0
M  V30 15377 C 1450.24 -3.43953 -0.481001 0
M  V30 15378 C 1449.2 -4.2673 0.329474 0
M  V30 15379 C 1448.52 -5.31293 -0.602627 0
M  V30 15380 C 1449.82 -4.98498 1.55874 0
M  V30 15381 H 1451.52 -2.76223 1.15503 0
M  V30 15382 H 1449.06 -1.32797 0.556856 0
M  V30 15383 H 1451.02 -4.12409 -0.86585 0
M  V30 15384 H 1449.74 -2.97687 -1.3435 0
M  V30 15385 H 1448.4 -3.59929 0.696159 0
M  V30 15386 H 1448.05 -4.8128 -1.46215 0
M  V30 15387 H 1447.75 -5.87565 -0.0643044 0
M  V30 15388 H 1449.27 -6.02611 -0.984512 0
M  V30 15389 H 1450.68 -5.596 1.24583 0
M  V30 15390 H 1449.08 -5.64525 2.03548 0
M  V30 15391 H 1450.15 -4.25991 2.31646 0
M  V30 15392 N 1451.49 -0.619688 -1.44906 0
M  V30 15393 C 1452.74 -0.119397 -2.01747 0
M  V30 15394 C 1453.06 1.25904 -1.48907 0
M  V30 15395 O 1452.33 1.83417 -0.688104 0
M  V30 15396 H 1450.91 -0.0411482 -0.745866 0
M  V30 15397 H 1453.58 -0.803813 -1.77552 0
M  V30 15398 H 1452.67 -0.078368 -3.12002 0
M  V30 15399 N 1452.97 1.53444 -0.359552 0
M  V30 15400 C 1453.88 2.29257 0.497834 0
M  V30 15401 C 1454.9 1.34987 1.09793 0
M  V30 15402 O 1456.07 1.68039 1.11017 0
M  V30 15403 C 1453.14 3.06258 1.62502 0
M  V30 15404 C 1452.2 4.16183 1.05308 0
M  V30 15405 C 1451.43 4.89503 2.12655 0
M  V30 15406 O 1451.66 4.6263 3.33661 0
M  V30 15407 O 1450.59 5.75578 1.76051 0
M  V30 15408 H 1454.42 3.03467 -0.118925 0
M  V30 15409 H 1452 1.48884 -0.124111 0
M  V30 15410 H 1453.88 3.5436 2.2805 0
M  V30 15411 H 1452.56 2.3489 2.22729 0
M  V30 15412 H 1451.47 3.72348 0.361679 0
M  V30 15413 H 1452.8 4.897 0.49545 0
M  V30 15414 N 1454.45 0.0885642 1.57351 0
M  V30 15415 C 1455.36 -0.887092 2.17182 0
M  V30 15416 C 1456.38 -1.31498 1.13949 0
M  V30 15417 O 1457.55 -1.38424 1.4629 0
M  V30 15418 C 1454.62 -2.13053 2.73513 0
M  V30 15419 C 1453.68 -1.75747 3.91678 0
M  V30 15420 C 1452.91 -2.94163 4.45313 0
M  V30 15421 O 1453.13 -4.08693 3.97903 0
M  V30 15422 O 1452.07 -2.73008 5.36424 0
M  V30 15423 H 1455.89 -0.408073 3.00946 0
M  V30 15424 H 1453.48 -0.135431 1.48785 0
M  V30 15425 H 1455.36 -2.85937 3.09545 0
M  V30 15426 H 1454.04 -2.6002 1.92798 0
M  V30 15427 H 1452.94 -1.00064 3.60469 0
M  V30 15428 H 1454.28 -1.33549 4.73736 0
M  V30 15429 N 1455.93 -1.56509 -0.185096 0
M  V30 15430 C 1457.16 -1.85058 -0.918527 0
M  V30 15431 C 1457.57 -0.670181 -1.76933 0
M  V30 15432 O 1456.91 0.370215 -1.79931 0
M  V30 15433 C 1456.97 -3.07843 -1.85669 0
M  V30 15434 C 1456.64 -4.41319 -1.18686 0
M  V30 15435 C 1457.63 -5.16887 -0.558946 0
M  V30 15436 C 1455.32 -4.88056 -1.18773 0
M  V30 15437 C 1457.31 -6.37373 0.0591595 0
M  V30 15438 C 1455 -6.08475 -0.565791 0
M  V30 15439 C 1456 -6.82977 0.0565621 0
M  V30 15440 O 1455.68 -8.01114 0.668726 0
M  V30 15441 H 1455.42 -0.618423 -0.273001 0
M  V30 15442 H 1457.97 -2.04479 -0.194261 0
M  V30 15443 H 1456.2 -2.84332 -2.62092 0
M  V30 15444 H 1457.89 -3.22954 -2.45877 0
M  V30 15445 H 1458.66 -4.81867 -0.550347 0
M  V30 15446 H 1454.53 -4.30016 -1.66154 0
M  V30 15447 H 1458.08 -6.95464 0.545534 0
M  V30 15448 H 1453.98 -6.42961 -0.571927 0
M  V30 15449 H 1454.74 -8.16536 0.566616 0
M  V30 15450 N 1457.41 0.45317 -1.50944 0
M  V30 15451 C 1458.82 1.03354 -1.55482 0
M  V30 15452 C 1459.17 1.92701 -0.368873 0
M  V30 15453 O 1458.29 2.10153 0.516208 0
M  V30 15454 C 1458.89 1.88118 -2.81775 0
M  V30 15455 C 1457.45 2.41232 -2.88936 0
M  V30 15456 C 1456.59 1.20032 -2.49975 0
M  V30 15457 H 1459.55 0.235059 -1.5695 0
M  V30 15458 H 1459.57 2.73394 -2.64643 0
M  V30 15459 H 1459.08 1.23064 -3.68072 0
M  V30 15460 H 1457.18 3.09788 -2.07032 0
M  V30 15461 H 1457.29 2.75113 -3.92237 0
M  V30 15462 H 1455.66 1.54072 -2.02815 0
M  V30 15463 H 1456.44 0.56612 -3.386 0
M  V30 15464 N 1458.88 1.40823 0.707568 0
M  V30 15465 C 1459.79 1.44058 1.85161 0
M  V30 15466 C 1460.81 0.332357 1.70796 0
M  V30 15467 O 1461.99 0.578205 1.92922 0
M  V30 15468 C 1459.05 1.3091 3.21035 0
M  V30 15469 C 1458.11 2.51944 3.47595 0
M  V30 15470 C 1457.35 2.39414 4.76987 0
M  V30 15471 O 1457.57 1.41224 5.52641 0
M  V30 15472 O 1456.5 3.28944 5.04063 0
M  V30 15473 H 1460.33 2.40551 1.85388 0
M  V30 15474 H 1457.91 1.22232 0.859052 0
M  V30 15475 H 1459.8 1.25816 4.02179 0
M  V30 15476 H 1458.47 0.375263 3.21517 0
M  V30 15477 H 1457.38 2.62615 2.66428 0
M  V30 15478 H 1458.71 3.44115 3.51917 0
M  V30 15479 N 1460.36 -0.94061 1.26453 0
M  V30 15480 C 1461.61 -1.68937 1.12197 0
M  V30 15481 C 1461.94 -1.91309 -0.33382 0
M  V30 15482 O 1461.22 -1.49417 -1.24518 0
M  V30 15483 C 1461.5 -3.06381 1.89215 0
M  V30 15484 C 1461.35 -2.91331 3.42704 0
M  V30 15485 C 1462.67 -4.06507 1.68642 0
M  V30 15486 H 1459.79 -0.613121 0.408964 0
M  V30 15487 H 1462.43 -1.09242 1.55455 0
M  V30 15488 H 1460.58 -3.57339 1.5245 0
M  V30 15489 H 1462.25 -2.47591 3.89226 0
M  V30 15490 H 1460.5 -2.26945 3.697 0
M  V30 15491 H 1461.17 -3.88818 3.91822 0
M  V30 15492 H 1463.64 -3.64512 2.00674 0
M  V30 15493 H 1462.52 -5.0069 2.24945 0
M  V30 15494 H 1462.78 -4.37572 0.631131 0
M  V30 15495 N 1461.84 -1.08266 -1.14527 0
M  V30 15496 C 1462.77 -0.732968 -2.21698 0
M  V30 15497 C 1463.75 0.283917 -1.67714 0
M  V30 15498 O 1464.94 0.154607 -1.93584 0
M  V30 15499 C 1462.07 -0.139935 -3.47018 0
M  V30 15500 C 1461.02 -1.08501 -4.14019 0
M  V30 15501 C 1460.35 -0.354263 -5.33525 0
M  V30 15502 C 1461.65 -2.42254 -4.62721 0
M  V30 15503 H 1463.34 -1.629 -2.51205 0
M  V30 15504 H 1460.89 -0.784696 -1.20742 0
M  V30 15505 H 1462.84 0.1167 -4.21238 0
M  V30 15506 H 1461.56 0.791228 -3.16871 0
M  V30 15507 H 1460.22 -1.32672 -3.41751 0
M  V30 15508 H 1459.87 0.580658 -4.99637 0
M  V30 15509 H 1459.57 -0.984287 -5.79297 0
M  V30 15510 H 1461.09 -0.105648 -6.10509 0
M  V30 15511 H 1462.51 -2.22357 -5.28422 0
M  V30 15512 H 1460.91 -3.00935 -5.1919 0
M  V30 15513 H 1461.98 -3.03884 -3.77866 0
M  V30 15514 N 1463.32 1.31536 -0.86811 0
M  V30 15515 C 1464.57 1.96386 -0.477176 0
M  V30 15516 C 1464.89 1.68968 0.973381 0
M  V30 15517 O 1464.16 1.00409 1.68211 0
M  V30 15518 H 1462.74 0.726579 -0.173468 0
M  V30 15519 H 1465.4 1.60377 -1.10749 0
M  V30 15520 H 1464.5 3.05606 -0.633376 0
M  V30 15521 N 1464.8 0.627364 1.44575 0
M  V30 15522 C 1466.02 0.135576 2.06956 0
M  V30 15523 C 1466.45 -1.17922 1.46547 0
M  V30 15524 O 1465.81 -1.72255 0.565509 0
M  V30 15525 C 1465.85 0.030347 3.60587 0
M  V30 15526 O 1464.96 -1.01464 3.99724 0
M  V30 15527 H 1464.3 0.083058 0.658785 0
M  V30 15528 H 1466.83 0.862977 1.8551 0
M  V30 15529 H 1466.84 -0.161461 4.0768 0
M  V30 15530 H 1465.51 0.990285 4.03938 0
M  V30 15531 H 1464.09 -0.797701 3.64268 0
M  V30 15532 N 1466.28 -1.53251 0.367684 0
M  V30 15533 C 1467.52 -2.00469 -0.222481 0
M  V30 15534 C 1467.84 -1.259 -1.49695 0
M  V30 15535 O 1469.04 -1.63717 -2.16585 0
M  V30 15536 C 1467.5 -3.57113 -0.447018 0
M  V30 15537 C 1467.11 -4.40562 0.812946 0
M  V30 15538 C 1468.85 -4.12681 -0.994725 0
M  V30 15539 C 1466.76 -5.88763 0.557877 0
M  V30 15540 H 1465.69 -0.748974 -0.0869144 0
M  V30 15541 H 1468.34 -1.76927 0.48675 0
M  V30 15542 H 1466.72 -3.76818 -1.21756 0
M  V30 15543 H 1467.9 -4.3263 1.58644 0
M  V30 15544 H 1466.21 -3.96108 1.28403 0
M  V30 15545 H 1468.81 -5.2104 -1.20091 0
M  V30 15546 H 1469.15 -3.67408 -1.95748 0
M  V30 15547 H 1469.68 -3.96783 -0.284295 0
M  V30 15548 H 1466.42 -6.38317 1.49102 0
M  V30 15549 H 1465.94 -5.99539 -0.177082 0
M  V30 15550 H 1467.62 -6.46738 0.18419 0
M  V30 15551 N 1467.75 -0.0969077 -1.57302 0
M  V30 15552 C 1468.68 0.858443 -2.17147 0
M  V30 15553 C 1469.66 1.29294 -1.10531 0
M  V30 15554 O 1470.85 1.3595 -1.38676 0
M  V30 15555 C 1467.98 2.11691 -2.75326 0
M  V30 15556 C 1466.93 1.82097 -3.8733 0
M  V30 15557 C 1466.26 3.14787 -4.32219 0
M  V30 15558 C 1467.56 1.10651 -5.10444 0
M  V30 15559 H 1469.25 0.35982 -2.9723 0
M  V30 15560 H 1466.8 0.17163 -1.42974 0
M  V30 15561 H 1468.75 2.78963 -3.15844 0
M  V30 15562 H 1467.48 2.63839 -1.925 0
M  V30 15563 H 1466.14 1.17222 -3.47354 0
M  V30 15564 H 1465.78 3.64826 -3.46281 0
M  V30 15565 H 1465.48 2.95769 -5.07735 0
M  V30 15566 H 1467.01 3.83215 -4.75372 0
M  V30 15567 H 1468.42 1.68036 -5.48121 0
M  V30 15568 H 1466.82 1.01805 -5.91401 0
M  V30 15569 H 1467.89 0.0895634 -4.84817 0
M  V30 15570 N 1469.23 1.56605 0.176793 0
M  V30 15571 C 1470.48 1.81324 0.892535 0
M  V30 15572 C 1470.8 0.67301 1.83018 0
M  V30 15573 O 1470.07 -0.307498 1.93472 0
M  V30 15574 H 1468.65 0.668881 0.332576 0
M  V30 15575 H 1471.31 1.94086 0.17792 0
M  V30 15576 H 1470.41 2.75168 1.47272 0
M  V30 15577 N 1470.71 -0.445159 1.51182 0
M  V30 15578 C 1471.67 -1.52224 1.71349 0
M  V30 15579 C 1472.67 -1.49834 0.583632 0
M  V30 15580 O 1473.86 -1.51995 0.85107 0
M  V30 15581 C 1470.99 -2.91789 1.76273 0
M  V30 15582 H 1472.19 -1.35649 2.67468 0
M  V30 15583 H 1469.74 -0.673312 1.41054 0
M  V30 15584 H 1470.48 -3.13777 0.819405 0
M  V30 15585 H 1470.26 -2.94928 2.58379 0
M  V30 15586 H 1471.75 -3.69938 1.93741 0
M  V30 15587 N 1472.19 -1.41197 -0.700089 0
M  V30 15588 C 1473.12 -1.45456 -1.8266 0
M  V30 15589 C 1474.1 -0.313719 -1.67182 0
M  V30 15590 O 1475.28 -0.524528 -1.86982 0
M  V30 15591 C 1472.41 -1.33161 -3.20758 0
M  V30 15592 C 1471.37 -2.4501 -3.50933 0
M  V30 15593 C 1470.69 -2.17782 -4.88339 0
M  V30 15594 C 1471.99 -3.87352 -3.50365 0
M  V30 15595 H 1473.69 -2.39735 -1.79353 0
M  V30 15596 H 1471.23 -1.1539 -0.861465 0
M  V30 15597 H 1473.19 -1.34754 -3.99274 0
M  V30 15598 H 1471.91 -0.353646 -3.2468 0
M  V30 15599 H 1470.57 -2.42692 -2.74766 0
M  V30 15600 H 1470.22 -1.1834 -4.88881 0
M  V30 15601 H 1469.92 -2.92728 -5.09494 0
M  V30 15602 H 1471.44 -2.21083 -5.6917 0
M  V30 15603 H 1472.86 -3.9141 -4.18893 0
M  V30 15604 H 1471.25 -4.61944 -3.83051 0
M  V30 15605 H 1472.32 -4.15827 -2.4943 0
M  V30 15606 N 1473.67 0.933891 -1.2695 0
M  V30 15607 C 1474.61 2.03365 -1.09139 0
M  V30 15608 C 1475.58 1.66099 0.00573029 0
M  V30 15609 O 1476.77 1.90166 -0.155425 0
M  V30 15610 C 1473.91 3.37114 -0.738117 0
M  V30 15611 C 1473.02 3.87372 -1.91224 0
M  V30 15612 C 1472.16 5.0954 -1.50141 0
M  V30 15613 C 1471.19 5.52079 -2.64339 0
M  V30 15614 N 1470.33 6.65446 -2.23887 0
M  V30 15615 H 1475.17 2.17932 -2.03248 0
M  V30 15616 H 1472.71 1.0677 -1.01186 0
M  V30 15617 H 1474.67 4.1402 -0.514141 0
M  V30 15618 H 1473.3 3.22373 0.166007 0
M  V30 15619 H 1472.35 3.06801 -2.24894 0
M  V30 15620 H 1473.66 4.14875 -2.76912 0
M  V30 15621 H 1472.81 5.93928 -1.23831 0
M  V30 15622 H 1471.55 4.838 -0.615539 0
M  V30 15623 H 1470.56 4.66244 -2.9137 0
M  V30 15624 H 1471.78 5.79817 -3.53537 0
M  V30 15625 H 1469.73 6.41376 -1.37744 0
M  V30 15626 H 1469.65 6.92573 -3.03116 0
M  V30 15627 H 1470.91 7.53191 -2.00809 0
M  V30 15628 N 1475.14 1.08871 1.13951 0
M  V30 15629 C 1476.11 0.726655 2.17376 0
M  V30 15630 C 1477.11 -0.240922 1.58985 0
M  V30 15631 O 1478.3 -0.0198472 1.74189 0
M  V30 15632 C 1475.43 0.0736505 3.4082 0
M  V30 15633 H 1476.62 1.64254 2.5092 0
M  V30 15634 H 1474.17 0.887183 1.28681 0
M  V30 15635 H 1474.91 -0.853733 3.12861 0
M  V30 15636 H 1474.69 0.769782 3.84469 0
M  V30 15637 H 1476.18 -0.164465 4.17276 0
M  V30 15638 N 1476.62 -1.31073 0.875073 0
M  V30 15639 C 1477.87 -1.95791 0.484661 0
M  V30 15640 C 1478.18 -1.69907 -0.969074 0
M  V30 15641 O 1479.39 -2.28527 -1.46587 0
M  V30 15642 C 1477.85 -3.50532 0.815804 0
M  V30 15643 C 1477.45 -3.85249 2.28664 0
M  V30 15644 C 1479.2 -4.21615 0.494111 0
M  V30 15645 C 1477.1 -5.33124 2.55993 0
M  V30 15646 H 1476.03 -0.732806 0.177516 0
M  V30 15647 H 1478.69 -1.49169 1.06868 0
M  V30 15648 H 1477.07 -3.95673 0.16098 0
M  V30 15649 H 1478.24 -3.51051 2.98496 0
M  V30 15650 H 1476.56 -3.27244 2.57488 0
M  V30 15651 H 1479.15 -5.30417 0.675456 0
M  V30 15652 H 1479.5 -4.12437 -0.565815 0
M  V30 15653 H 1480.03 -3.82125 1.1057 0
M  V30 15654 H 1476.77 -5.47343 3.60688 0
M  V30 15655 H 1476.29 -5.68657 1.90761 0
M  V30 15656 H 1477.97 -6.00446 2.40984 0
M  V30 15657 N 1478.1 -0.635022 -1.4424 0
M  V30 15658 C 1479.35 -0.141276 -2.02307 0
M  V30 15659 C 1479.68 1.23508 -1.49865 0
M  V30 15660 O 1478.95 1.82065 -0.684291 0
M  V30 15661 C 1479.24 -0.132196 -3.59857 0
M  V30 15662 C 1479.09 -1.54117 -4.22573 0
M  V30 15663 C 1480.41 0.541186 -4.3676 0
M  V30 15664 H 1477.53 -0.0528117 -0.735105 0
M  V30 15665 H 1480.17 -0.812239 -1.71763 0
M  V30 15666 H 1478.32 0.439156 -3.8601 0
M  V30 15667 H 1479.99 -2.16171 -4.07514 0
M  V30 15668 H 1478.24 -2.09389 -3.79919 0
M  V30 15669 H 1478.91 -1.48682 -5.31599 0
M  V30 15670 H 1481.38 0.0552603 -4.16063 0
M  V30 15671 H 1480.26 0.516742 -5.46462 0
M  V30 15672 H 1480.52 1.61222 -4.11655 0
M  V30 15673 N 1479.58 1.53054 -0.375806 0
M  V30 15674 C 1480.53 2.27576 0.480838 0
M  V30 15675 C 1481.52 1.30948 1.07466 0
M  V30 15676 O 1482.73 1.48538 1.01669 0
M  V30 15677 H 1479.1 0.731641 0.173799 0
M  V30 15678 H 1481.07 2.97919 -0.169327 0
M  V30 15679 C 1479.82 3.08533 1.60321 0
M  V30 15680 H 1479.14 3.82735 1.15558 0
M  V30 15681 H 1480.58 3.63837 2.17712 0
M  V30 15682 C 1479.04 2.20004 2.55147 0
M  V30 15683 O 1479.57 1.81771 3.58221 0
M  V30 15684 N 1477.78 1.84433 2.24573 0
M  V30 15685 H 1477.33 2.15723 1.40788 0
M  V30 15686 H 1477.28 1.25488 2.88271 0
M  V30 15687 N 1481.06 0.105248 1.57248 0
M  V30 15688 C 1482.3 -0.556878 1.95004 0
M  V30 15689 C 1482.64 -1.672 0.987818 0
M  V30 15690 O 1481.91 -1.94487 0.022616 0
M  V30 15691 C 1482.19 -1.10252 3.42807 0
M  V30 15692 C 1482.05 0.00823908 4.49799 0
M  V30 15693 C 1483.37 -1.99774 3.92146 0
M  V30 15694 H 1480.48 -0.200959 0.709073 0
M  V30 15695 H 1483.13 0.178019 1.89164 0
M  V30 15696 H 1481.28 -1.7288 3.47915 0
M  V30 15697 H 1482.95 0.642944 4.56797 0
M  V30 15698 H 1481.19 0.673265 4.28544 0
M  V30 15699 H 1481.86 -0.414538 5.50441 0
M  V30 15700 H 1484.34 -1.47036 3.89255 0
M  V30 15701 H 1483.21 -2.34874 4.9611 0
M  V30 15702 H 1483.48 -2.91902 3.32033 0
M  V30 15703 N 1482.53 -1.56697 -0.168486 0
M  V30 15704 C 1483.78 -1.81346 -0.882973 0
M  V30 15705 C 1484.1 -0.682975 -1.83289 0
M  V30 15706 O 1485.3 -0.814479 -2.58995 0
M  V30 15707 C 1483.76 -3.21345 -1.62066 0
M  V30 15708 C 1483.37 -4.4227 -0.714241 0
M  V30 15709 C 1485.11 -3.55285 -2.32321 0
M  V30 15710 C 1483.02 -5.7329 -1.45233 0
M  V30 15711 H 1481.95 -0.676254 -0.333461 0
M  V30 15712 H 1484.6 -1.82996 -0.135871 0
M  V30 15713 H 1482.98 -3.1402 -2.41262 0
M  V30 15714 H 1484.15 -4.60782 0.0409556 0
M  V30 15715 H 1482.47 -4.16224 -0.121205 0
M  V30 15716 H 1485.07 -4.50421 -2.88141 0
M  V30 15717 H 1485.41 -2.80301 -3.07793 0
M  V30 15718 H 1485.94 -3.64176 -1.60066 0
M  V30 15719 H 1482.68 -6.51311 -0.739869 0
M  V30 15720 H 1482.2 -5.58751 -2.18077 0
M  V30 15721 H 1483.88 -6.15343 -1.99905 0
M  V30 15722 N 1484.01 0.437135 -1.51416 0
M  V30 15723 C 1485.26 1.18421 -1.63771 0
M  V30 15724 C 1485.58 1.91718 -0.356282 0
M  V30 15725 O 1484.85 1.85566 0.627863 0
M  V30 15726 H 1483.43 0.440125 -0.603572 0
M  V30 15727 H 1486.09 0.501155 -1.88347 0
M  V30 15728 H 1485.19 1.91367 -2.46546 0
M  V30 15729 N 1485.49 1.41566 0.692592 0
M  V30 15730 C 1486.42 1.38067 1.81694 0
M  V30 15731 C 1487.4 0.247482 1.60706 0
M  V30 15732 O 1488.59 0.43487 1.83415 0
M  V30 15733 C 1485.71 1.15438 3.18421 0
M  V30 15734 C 1484.76 2.31515 3.58194 0
M  V30 15735 S 1485.59 3.94003 3.6266 0
M  V30 15736 C 1486.75 3.73683 5.02108 0
M  V30 15737 H 1486.98 2.33215 1.84386 0
M  V30 15738 H 1484.51 1.28125 0.861585 0
M  V30 15739 H 1486.47 1.03069 3.9735 0
M  V30 15740 H 1485.13 0.219055 3.13335 0
M  V30 15741 H 1484.33 2.11383 4.57529 0
M  V30 15742 H 1483.93 2.40307 2.86581 0
M  V30 15743 H 1486.22 3.33573 5.89691 0
M  V30 15744 H 1487.16 4.72631 5.27281 0
M  V30 15745 H 1487.57 3.06899 4.73786 0
M  V30 15746 N 1486.97 -0.927146 1.27443 0
M  V30 15747 C 1487.92 -2.01402 1.06871 0
M  V30 15748 C 1488.9 -1.609 -0.00345395 0
M  V30 15749 O 1490.09 -1.75688 0.215147 0
M  V30 15750 C 1487.22 -3.35697 0.718508 0
M  V30 15751 C 1486.31 -3.82641 1.82884 0
M  V30 15752 N 1486.7 -4.02091 3.06849 0
M  V30 15753 C 1485 -4.11682 1.71564 0
M  V30 15754 C 1485.7 -4.41195 3.79107 0
M  V30 15755 N 1484.68 -4.48697 3.06874 0
M  V30 15756 H 1488.48 -2.14471 2.00946 0
M  V30 15757 H 1485.99 -1.11402 1.18166 0
M  V30 15758 H 1487.99 -4.13226 0.552238 0
M  V30 15759 H 1486.65 -3.2399 -0.214622 0
M  V30 15760 H 1487.66 -3.88384 3.42605 0
M  V30 15761 H 1484.34 -4.08685 0.853381 0
M  V30 15762 H 1485.73 -4.64318 4.85653 0
M  V30 15763 N 1488.45 -1.09474 -1.13372 0
M  V30 15764 C 1489.39 -0.73458 -2.18798 0
M  V30 15765 C 1490.36 0.284433 -1.63647 0
M  V30 15766 O 1491.55 0.165958 -1.90077 0
M  V30 15767 C 1488.69 -0.161826 -3.4472 0
M  V30 15768 C 1487.8 -1.23494 -4.13973 0
M  V30 15769 C 1486.94 -0.624886 -5.27512 0
M  V30 15770 C 1485.98 -1.67927 -5.88614 0
M  V30 15771 N 1485.11 -1.09021 -6.93584 0
M  V30 15772 H 1489.95 -1.63787 -2.48954 0
M  V30 15773 H 1487.49 -0.818297 -1.22239 0
M  V30 15774 H 1489.45 0.188053 -4.16776 0
M  V30 15775 H 1488.08 0.70473 -3.15013 0
M  V30 15776 H 1487.13 -1.70209 -3.40196 0
M  V30 15777 H 1488.44 -2.0335 -4.55467 0
M  V30 15778 H 1487.6 -0.22388 -6.06287 0
M  V30 15779 H 1486.33 0.205214 -4.87268 0
M  V30 15780 H 1485.34 -2.08982 -5.08534 0
M  V30 15781 H 1486.56 -2.51204 -6.3093 0
M  V30 15782 H 1484.51 -0.281401 -6.55396 0
M  V30 15783 H 1484.43 -1.82573 -7.33623 0
M  V30 15784 H 1485.7 -0.715428 -7.7621 0
M  V30 15785 N 1489.92 1.30607 -0.882012 0
M  V30 15786 C 1490.86 2.26334 -0.291222 0
M  V30 15787 C 1491.84 1.51653 0.586522 0
M  V30 15788 O 1493.02 1.80681 0.537275 0
M  V30 15789 C 1490.15 3.33584 0.586482 0
M  V30 15790 C 1489.19 4.25924 -0.221535 0
M  V30 15791 S 1490.03 5.10791 -1.6079 0
M  V30 15792 C 1491.18 6.2155 -0.736638 0
M  V30 15793 H 1491.41 2.76096 -1.10265 0
M  V30 15794 H 1488.95 1.38558 -0.681255 0
M  V30 15795 H 1490.91 3.95842 1.08715 0
M  V30 15796 H 1489.57 2.82552 1.37198 0
M  V30 15797 H 1488.76 5.02004 0.448139 0
M  V30 15798 H 1488.36 3.68225 -0.654722 0
M  V30 15799 H 1490.65 6.77483 0.0476549 0
M  V30 15800 H 1491.6 6.92696 -1.46894 0
M  V30 15801 H 1492 5.63708 -0.298853 0
M  V30 15802 N 1491.4 0.642663 1.43901 0
M  V30 15803 C 1492.63 0.159202 2.06287 0
M  V30 15804 C 1493.05 -1.17091 1.48105 0
M  V30 15805 O 1492.4 -1.72064 0.608302 0
M  V30 15806 C 1492.45 0.0506891 3.61464 0
M  V30 15807 O 1492.17 1.32821 4.17481 0
M  V30 15808 C 1493.68 -0.460103 4.40906 0
M  V30 15809 H 1490.9 0.085003 0.665594 0
M  V30 15810 H 1493.44 0.880328 1.84582 0
M  V30 15811 H 1491.59 -0.620938 3.82391 0
M  V30 15812 H 1492.01 1.18053 5.11042 0
M  V30 15813 H 1493.48 -0.48501 5.49865 0
M  V30 15814 H 1493.96 -1.4894 4.13175 0
M  V30 15815 H 1494.57 0.178668 4.24925 0
M  V30 15816 N 1492.88 -1.52852 0.383918 0
M  V30 15817 C 1494.29 -1.86477 -0.0912997 0
M  V30 15818 C 1494.64 -1.30382 -1.46611 0
M  V30 15819 O 1493.77 -0.633042 -2.06934 0
M  V30 15820 C 1494.36 -3.38361 -0.172447 0
M  V30 15821 C 1492.92 -3.71716 -0.591948 0
M  V30 15822 C 1492.07 -2.76176 0.24945 0
M  V30 15823 H 1495.02 -1.46839 0.602006 0
M  V30 15824 H 1495.04 -3.67325 -0.992603 0
M  V30 15825 H 1494.55 -3.79158 0.8283 0
M  V30 15826 H 1492.65 -3.36486 -1.60026 0
M  V30 15827 H 1492.77 -4.77792 -0.353835 0
M  V30 15828 H 1491.13 -2.53106 -0.284469 0
M  V30 15829 H 1491.91 -3.19809 1.24808 0
M  V30 15830 N 1494.36 -0.113586 -1.5719 0
M  V30 15831 C 1495.77 0.412653 -1.82083 0
M  V30 15832 C 1496.12 1.66964 -1.03041 0
M  V30 15833 O 1495.25 2.14767 -0.265354 0
M  V30 15834 C 1495.84 0.755439 -3.3027 0
M  V30 15835 C 1494.4 1.22634 -3.55862 0
M  V30 15836 C 1493.55 0.232285 -2.76325 0
M  V30 15837 H 1496.5 -0.338792 -1.55042 0
M  V30 15838 H 1496.52 1.61335 -3.44603 0
M  V30 15839 H 1496.03 -0.1596 -3.87772 0
M  V30 15840 H 1494.13 2.15846 -3.03713 0
M  V30 15841 H 1494.25 1.1754 -4.64458 0
M  V30 15842 H 1492.61 0.718222 -2.44364 0
M  V30 15843 H 1493.39 -0.675756 -3.36583 0
M  V30 15844 N 1495.84 1.56784 0.160173 0
M  V30 15845 C 1497.09 1.81812 0.873344 0
M  V30 15846 C 1497.4 0.692686 1.82924 0
M  V30 15847 O 1498.61 0.828202 2.5856 0
M  V30 15848 C 1497.06 3.222 1.6036 0
M  V30 15849 C 1496.67 4.42642 0.690776 0
M  V30 15850 C 1498.41 3.56512 2.30433 0
M  V30 15851 C 1496.32 5.74052 1.4219 0
M  V30 15852 H 1495.25 0.678013 0.32987 0
M  V30 15853 H 1497.9 1.83066 0.126164 0
M  V30 15854 H 1496.28 3.15295 2.39593 0
M  V30 15855 H 1497.46 4.60754 -0.0653914 0
M  V30 15856 H 1495.77 4.16282 0.09913 0
M  V30 15857 H 1498.37 4.51942 2.85749 0
M  V30 15858 H 1498.71 2.8193 3.06303 0
M  V30 15859 H 1499.25 3.65019 1.58132 0
M  V30 15860 H 1495.98 6.51694 0.705318 0
M  V30 15861 H 1495.5 5.59899 2.15111 0
M  V30 15862 H 1497.18 6.16395 1.96639 0
M  V30 15863 N 1497.32 -0.429099 1.51646 0
M  V30 15864 C 1498.26 -1.52143 1.73554 0
M  V30 15865 C 1499.23 -1.55741 0.577416 0
M  V30 15866 O 1500.42 -1.72623 0.812768 0
M  V30 15867 C 1497.56 -2.89785 1.874 0
M  V30 15868 C 1496.67 -2.95652 3.14982 0
M  V30 15869 C 1495.81 -4.24468 3.19375 0
M  V30 15870 C 1494.84 -4.24234 4.41239 0
M  V30 15871 N 1493.98 -5.44587 4.43135 0
M  V30 15872 H 1498.82 -1.32764 2.66791 0
M  V30 15873 H 1496.36 -0.6448 1.32215 0
M  V30 15874 H 1498.32 -3.6966 1.9341 0
M  V30 15875 H 1496.95 -3.07703 0.975638 0
M  V30 15876 H 1496 -2.0839 3.18242 0
M  V30 15877 H 1497.31 -2.91342 4.04872 0
M  V30 15878 H 1496.46 -5.12722 3.24347 0
M  V30 15879 H 1495.2 -4.31446 2.27389 0
M  V30 15880 H 1494.21 -3.34371 4.36435 0
M  V30 15881 H 1495.43 -4.18913 5.34499 0
M  V30 15882 H 1493.38 -5.52271 3.54023 0
M  V30 15883 H 1493.3 -5.42191 5.26845 0
M  V30 15884 H 1494.56 -6.34851 4.5231 0
M  V30 15885 N 1498.79 -1.41931 -0.685074 0
M  V30 15886 C 1500.07 -1.32338 -1.44035 0
M  V30 15887 C 1500.45 0.0441161 -2.11054 0
M  V30 15888 O 1499.8 1.05901 -2.02478 0
M  V30 15889 C 1500.01 -2.48429 -2.45121 0
M  V30 15890 C 1501.36 -2.90076 -3.10067 0
M  V30 15891 O 1502.38 -2.48245 -2.55447 0
M  V30 15892 O 1501.24 -3.62445 -4.09019 0
M  V30 15893 H 1498.33 -0.521361 -0.641959 0
M  V30 15894 H 1500.88 -1.53918 -0.714666 0
M  V30 15895 H 1499.65 -3.39637 -1.94326 0
M  V30 15896 H 1499.27 -2.28781 -3.25184 0
M  V30 15897 N 1500.27 0.920374 -1.27933 0
M  V30 15898 C 1501.2 2.03882 -1.13817 0
M  V30 15899 C 1502.18 1.70058 -0.0376853 0
M  V30 15900 O 1503.37 1.93023 -0.213492 0
M  V30 15901 C 1500.5 3.38142 -0.792296 0
M  V30 15902 C 1499.45 3.86104 -1.84683 0
M  V30 15903 C 1498.78 5.17253 -1.35474 0
M  V30 15904 C 1500.08 4.0869 -3.25223 0
M  V30 15905 H 1501.77 2.15949 -2.07379 0
M  V30 15906 H 1499.32 1.03764 -0.998454 0
M  V30 15907 H 1501.27 4.15872 -0.680337 0
M  V30 15908 H 1499.99 3.26109 0.179029 0
M  V30 15909 H 1498.65 3.10573 -1.94782 0
M  V30 15910 H 1498.3 5.01618 -0.372666 0
M  V30 15911 H 1498 5.50314 -2.05982 0
M  V30 15912 H 1499.53 5.97545 -1.25587 0
M  V30 15913 H 1500.94 4.76965 -3.18083 0
M  V30 15914 H 1499.34 4.5307 -3.93507 0
M  V30 15915 H 1500.41 3.13729 -3.69733 0
M  V30 15916 N 1501.75 1.10074 1.1279 0
M  V30 15917 C 1502.68 0.768146 2.20503 0
M  V30 15918 C 1503.66 -0.257199 1.68144 0
M  V30 15919 O 1504.85 -0.12379 1.93805 0
M  V30 15920 C 1501.98 0.195125 3.46751 0
M  V30 15921 C 1500.93 1.15074 4.1224 0
M  V30 15922 C 1500.26 0.439098 5.32894 0
M  V30 15923 C 1501.56 2.49584 4.58808 0
M  V30 15924 H 1503.25 1.66876 2.48581 0
M  V30 15925 H 1500.8 0.803806 1.19478 0
M  V30 15926 H 1502.75 -0.0496695 4.21371 0
M  V30 15927 H 1501.47 -0.740717 3.1809 0
M  V30 15928 H 1500.13 1.38092 3.39597 0
M  V30 15929 H 1499.78 -0.501096 5.00498 0
M  V30 15930 H 1499.48 1.07632 5.77658 0
M  V30 15931 H 1501 0.202761 6.10263 0
M  V30 15932 H 1502.42 2.30736 5.24818 0
M  V30 15933 H 1500.81 3.09157 5.14336 0
M  V30 15934 H 1501.88 3.09857 3.72984 0
M  V30 15935 N 1503.23 -1.30138 0.888926 0
M  V30 15936 C 1504.64 -1.78124 0.559346 0
M  V30 15937 C 1504.99 -1.73046 -0.924633 0
M  V30 15938 O 1504.11 -1.30974 -1.72264 0
M  V30 15939 C 1504.71 -3.2344 1.00856 0
M  V30 15940 C 1503.27 -3.69247 0.730332 0
M  V30 15941 C 1502.42 -2.505 1.18933 0
M  V30 15942 H 1505.37 -1.16952 1.07275 0
M  V30 15943 H 1505.39 -3.78985 0.339219 0
M  V30 15944 H 1504.9 -3.27104 2.08865 0
M  V30 15945 H 1503 -3.71067 -0.337599 0
M  V30 15946 H 1503.11 -4.60538 1.32066 0
M  V30 15947 H 1501.48 -2.47323 0.608568 0
M  V30 15948 H 1502.26 -2.56899 2.27724 0
M  V30 15949 N 1504.71 -0.650285 -1.43559 0
M  V30 15950 C 1506.12 -0.317586 -1.56408 0
M  V30 15951 C 1506.32 1.17844 -1.63447 0
M  V30 15952 O 1505.38 1.96318 -1.58794 0
M  V30 15953 C 1506.69 -1.02636 -2.82642 0
M  V30 15954 C 1508.24 -1.00633 -2.96381 0
M  V30 15955 C 1508.71 -1.69595 -4.25443 0
M  V30 15956 N 1510.2 -1.66345 -4.323 0
M  V30 15957 C 1510.94 -2.16581 -5.30924 0
M  V30 15958 N 1510.44 -2.75092 -6.35843 0
M  V30 15959 N 1512.23 -2.07098 -5.22558 0
M  V30 15960 H 1504.38 -1.62114 -1.37233 0
M  V30 15961 H 1506.64 -0.681588 -0.658895 0
M  V30 15962 H 1506.35 -2.08146 -2.83493 0
M  V30 15963 H 1506.22 -0.576081 -3.72775 0
M  V30 15964 H 1508.61 0.0403519 -2.95072 0
M  V30 15965 H 1508.69 -1.49528 -2.07545 0
M  V30 15966 H 1508.33 -2.74218 -4.27512 0
M  V30 15967 H 1508.26 -1.18168 -5.1317 0
M  V30 15968 H 1510.76 -1.23644 -3.571 0
M  V30 15969 H 1511.07 -3.11108 -7.07412 0
M  V30 15970 H 1509.41 -2.79152 -6.36474 0
M  V30 15971 H 1512.6 -1.61093 -4.39507 0
M  V30 15972 H 1512.78 -2.46557 -5.99261 0
M  V30 15973 N 1506.18 1.52647 -0.392018 0
M  V30 15974 C 1507.11 2.29446 0.433228 0
M  V30 15975 C 1508.09 1.32945 1.06111 0
M  V30 15976 O 1509.28 1.61841 1.07337 0
M  V30 15977 C 1506.41 3.10328 1.55929 0
M  V30 15978 C 1505.36 4.14735 1.05731 0
M  V30 15979 C 1504.69 4.83858 2.27565 0
M  V30 15980 C 1505.99 5.22154 0.123346 0
M  V30 15981 H 1507.68 2.9868 -0.207563 0
M  V30 15982 H 1505.23 1.43643 -0.101266 0
M  V30 15983 H 1507.18 3.62814 2.14346 0
M  V30 15984 H 1505.91 2.38832 2.22771 0
M  V30 15985 H 1504.57 3.63234 0.495653 0
M  V30 15986 H 1504.21 4.08907 2.92923 0
M  V30 15987 H 1503.91 5.54428 1.94637 0
M  V30 15988 H 1505.44 5.39149 2.86619 0
M  V30 15989 H 1506.85 5.69983 0.615784 0
M  V30 15990 H 1505.25 5.99987 -0.116304 0
M  V30 15991 H 1506.32 4.77796 -0.826969 0
M  V30 15992 N 1507.66 0.121921 1.57128 0
M  V30 15993 C 1508.89 -0.543012 1.99647 0
M  V30 15994 C 1509.31 -1.60038 1.00165 0
M  V30 15995 O 1508.66 -1.82499 -0.00504688 0
M  V30 15996 C 1508.71 -1.1665 3.42162 0
M  V30 15997 O 1508.43 -0.151385 4.37838 0
M  V30 15998 C 1509.94 -1.91447 3.99829 0
M  V30 15999 H 1507.16 -0.143524 0.655471 0
M  V30 16000 H 1509.7 0.20912 2.03428 0
M  V30 16001 H 1507.85 -1.86939 3.39312 0
M  V30 16002 H 1508.27 -0.604773 5.21002 0
M  V30 16003 H 1509.74 -2.30394 5.0162 0
M  V30 16004 H 1510.22 -2.7908 3.39133 0
M  V30 16005 H 1510.83 -1.25913 4.06234 0
M  V30 16006 N 1509.14 -1.56867 -0.151857 0
M  V30 16007 C 1510.55 -1.72573 -0.712411 0
M  V30 16008 C 1510.9 -0.735557 -1.8189 0
M  V30 16009 O 1510.03 0.09888 -2.16174 0
M  V30 16010 C 1510.62 -3.12906 -1.29905 0
M  V30 16011 C 1509.18 -3.30231 -1.80623 0
M  V30 16012 C 1508.33 -2.68507 -0.692781 0
M  V30 16013 H 1511.28 -1.58528 0.0737603 0
M  V30 16014 H 1511.3 -3.12636 -2.16885 0
M  V30 16015 H 1510.81 -3.84949 -0.493509 0
M  V30 16016 H 1508.91 -2.63176 -2.6376 0
M  V30 16017 H 1509.03 -4.38141 -1.93828 0
M  V30 16018 H 1507.39 -2.28842 -1.11818 0
M  V30 16019 H 1508.17 -3.43151 0.10124 0
M  V30 16020 N 1510.62 0.421051 -1.51871 0
M  V30 16021 C 1511.87 1.16611 -1.64574 0
M  V30 16022 C 1512.18 1.91955 -0.375835 0
M  V30 16023 O 1513.39 2.68792 -0.382481 0
M  V30 16024 C 1511.84 2.12164 -2.90714 0
M  V30 16025 C 1511.45 1.42392 -4.24769 0
M  V30 16026 C 1513.19 2.87002 -3.12778 0
M  V30 16027 C 1511.1 2.36523 -5.42043 0
M  V30 16028 H 1510.03 0.438989 -0.613029 0
M  V30 16029 H 1512.68 0.431636 -1.78351 0
M  V30 16030 H 1511.06 2.89114 -2.70608 0
M  V30 16031 H 1512.24 0.708875 -4.55315 0
M  V30 16032 H 1510.55 0.796421 -4.08713 0
M  V30 16033 H 1513.15 3.5755 -3.9757 0
M  V30 16034 H 1513.49 3.49277 -2.2652 0
M  V30 16035 H 1514.03 2.17154 -3.333 0
M  V30 16036 H 1510.77 1.78913 -6.30611 0
M  V30 16037 H 1510.29 3.06034 -5.15852 0
M  V30 16038 H 1511.96 2.97306 -5.74646 0
M  V30 16039 N 1512.1 1.42293 0.677538 0
M  V30 16040 C 1513.03 1.48344 1.80323 0
M  V30 16041 C 1514.01 0.340276 1.66662 0
M  V30 16042 O 1515.19 0.554209 1.86124 0
M  V30 16043 C 1512.32 1.38247 3.18599 0
M  V30 16044 C 1511.28 2.50562 3.46991 0
M  V30 16045 C 1510.6 2.25524 4.84812 0
M  V30 16046 C 1511.9 3.92877 3.44158 0
M  V30 16047 H 1513.6 2.42558 1.75516 0
M  V30 16048 H 1511.14 1.16746 0.842999 0
M  V30 16049 H 1513.1 1.41089 3.97079 0
M  V30 16050 H 1511.82 0.405255 3.24076 0
M  V30 16051 H 1510.48 2.47032 2.7087 0
M  V30 16052 H 1510.13 1.26102 4.86937 0
M  V30 16053 H 1509.83 3.00797 5.04772 0
M  V30 16054 H 1511.35 2.3011 5.65581 0
M  V30 16055 H 1512.76 3.98024 4.12613 0
M  V30 16056 H 1511.16 4.6798 3.75653 0
M  V30 16057 H 1512.23 4.19743 2.42783 0
M  V30 16058 N 1513.57 -0.913576 1.28419 0
M  V30 16059 C 1514.52 -2.01603 1.12361 0
M  V30 16060 C 1515.49 -1.66087 0.0206953 0
M  V30 16061 O 1516.68 -1.89895 0.185659 0
M  V30 16062 C 1513.82 -3.35897 0.791655 0
M  V30 16063 C 1512.93 -3.84281 1.97363 0
M  V30 16064 C 1512.06 -5.07087 1.58228 0
M  V30 16065 C 1511.1 -5.47804 2.73089 0
M  V30 16066 N 1510.24 -6.618 2.34446 0
M  V30 16067 H 1515.08 -2.1467 2.0669 0
M  V30 16068 H 1512.62 -1.05147 1.02871 0
M  V30 16069 H 1514.58 -4.13149 0.579943 0
M  V30 16070 H 1513.21 -3.22596 -0.114699 0
M  V30 16071 H 1512.26 -3.03184 2.29746 0
M  V30 16072 H 1513.57 -4.10417 2.83477 0
M  V30 16073 H 1512.72 -5.91883 1.33264 0
M  V30 16074 H 1511.46 -4.82759 0.692429 0
M  V30 16075 H 1510.47 -4.61549 2.98751 0
M  V30 16076 H 1511.69 -5.74119 3.62717 0
M  V30 16077 H 1509.64 -6.39103 1.4793 0
M  V30 16078 H 1509.56 -6.87663 3.14096 0
M  V30 16079 H 1510.82 -7.49901 2.12766 0
M  V30 16080 N 1515.05 -1.1067 -1.12204 0
M  V30 16081 C 1516 -0.752659 -2.20086 0
M  V30 16082 C 1516.99 0.252284 -1.67511 0
M  V30 16083 O 1518.2 0.112398 -1.79649 0
M  V30 16084 H 1514.58 -0.225473 -0.717402 0
M  V30 16085 H 1516.55 -1.67136 -2.472 0
M  V30 16086 C 1515.3 -0.203345 -3.47105 0
M  V30 16087 H 1514.62 -0.967864 -3.87908 0
M  V30 16088 H 1516.06 0.00629123 -4.24 0
M  V30 16089 C 1514.52 1.06452 -3.1964 0
M  V30 16090 O 1515.05 2.14562 -3.39597 0
M  V30 16091 N 1513.25 0.984122 -2.73429 0
M  V30 16092 H 1512.8 0.104258 -2.57389 0
M  V30 16093 H 1512.76 1.83312 -2.55429 0
M  V30 16094 N 1516.53 1.29665 -0.895815 0
M  V30 16095 C 1517.95 1.4824 -0.591355 0
M  V30 16096 C 1518.15 1.81839 0.86815 0
M  V30 16097 O 1517.2 1.91251 1.64861 0
M  V30 16098 C 1518.52 2.59814 -1.51384 0
M  V30 16099 C 1520.06 2.73691 -1.51862 0
M  V30 16100 C 1520.54 3.8839 -2.42729 0
M  V30 16101 N 1522.03 3.95717 -2.40754 0
M  V30 16102 C 1522.76 4.83804 -3.07769 0
M  V30 16103 N 1522.26 5.7661 -3.84048 0
M  V30 16104 N 1524.05 4.77263 -2.96946 0
M  V30 16105 H 1516.2 1.06131 -1.83984 0
M  V30 16106 H 1518.47 0.526819 -0.788141 0
M  V30 16107 H 1518.17 2.4184 -2.55355 0
M  V30 16108 H 1518.05 3.56532 -1.23147 0
M  V30 16109 H 1520.43 2.91064 -0.486375 0
M  V30 16110 H 1520.52 1.77561 -1.84135 0
M  V30 16111 H 1520.16 3.71773 -3.46045 0
M  V30 16112 H 1520.09 4.8388 -2.07767 0
M  V30 16113 H 1522.58 3.29334 -1.8533 0
M  V30 16114 H 1522.89 6.40611 -4.32247 0
M  V30 16115 H 1521.24 5.76507 -3.88155 0
M  V30 16116 H 1524.43 4.03744 -2.36871 0
M  V30 16117 H 1524.6 5.45701 -3.49448 0
M  V30 16118 N 1518.01 0.657889 1.43212 0
M  V30 16119 C 1518.96 -0.0532813 2.27938 0
M  V30 16120 C 1519.94 -0.790207 1.40159 0
M  V30 16121 O 1521.13 -0.671904 1.63751 0
M  V30 16122 C 1518.26 -1.01574 3.27929 0
M  V30 16123 C 1517.35 -0.277042 4.23194 0
M  V30 16124 N 1517.74 0.708959 5.00807 0
M  V30 16125 C 1516.04 -0.517845 4.42983 0
M  V30 16126 C 1516.74 1.14784 5.70263 0
M  V30 16127 N 1515.72 0.481156 5.41466 0
M  V30 16128 H 1519.52 0.703257 2.85362 0
M  V30 16129 H 1517.03 0.485552 1.54971 0
M  V30 16130 H 1519.03 -1.54006 3.87412 0
M  V30 16131 H 1517.69 -1.77229 2.72066 0
M  V30 16132 H 1518.7 1.08786 5.06346 0
M  V30 16133 H 1515.38 -1.2552 3.98185 0
M  V30 16134 H 1516.77 1.96395 6.42556 0
M  V30 16135 N 1519.49 -1.52437 0.400108 0
M  V30 16136 C 1520.4 -2.30496 -0.436875 0
M  V30 16137 C 1521.41 -1.37851 -1.06175 0
M  V30 16138 O 1522.59 -1.70924 -1.06522 0
M  V30 16139 C 1519.65 -3.10459 -1.54325 0
M  V30 16140 C 1518.71 -4.18829 -0.942367 0
M  V30 16141 C 1517.95 -4.94969 -1.99602 0
M  V30 16142 O 1518.17 -4.71314 -3.21278 0
M  V30 16143 O 1517.1 -5.80043 -1.60728 0
M  V30 16144 H 1520.93 -3.03045 0.199343 0
M  V30 16145 H 1518.52 -1.48502 0.163541 0
M  V30 16146 H 1520.4 -3.60282 -2.18575 0
M  V30 16147 H 1519.07 -2.40713 -2.16423 0
M  V30 16148 H 1517.98 -3.73176 -0.262831 0
M  V30 16149 H 1519.31 -4.90841 -0.365441 0
M  V30 16150 N 1520.96 -0.130252 -1.57061 0
M  V30 16151 C 1521.91 0.815767 -2.15902 0
M  V30 16152 C 1522.88 1.2558 -1.08715 0
M  V30 16153 O 1524.07 1.33132 -1.36677 0
M  V30 16154 C 1521.21 2.0561 -2.77162 0
M  V30 16155 C 1520.32 1.6634 -3.98692 0
M  V30 16156 C 1519.45 2.85425 -4.48002 0
M  V30 16157 C 1518.49 2.42449 -5.62036 0
M  V30 16158 N 1517.63 3.54486 -6.0604 0
M  V30 16159 H 1522.47 0.307164 -2.96413 0
M  V30 16160 H 1520.01 0.139913 -1.46433 0
M  V30 16161 H 1521.97 2.78298 -3.10815 0
M  V30 16162 H 1520.6 2.5391 -1.99323 0
M  V30 16163 H 1519.65 0.834817 -3.71127 0
M  V30 16164 H 1520.96 1.30765 -4.81354 0
M  V30 16165 H 1520.11 3.66325 -4.83623 0
M  V30 16166 H 1518.85 3.24235 -3.64312 0
M  V30 16167 H 1517.86 1.59985 -5.26008 0
M  V30 16168 H 1519.08 2.04744 -6.475 0
M  V30 16169 H 1517.03 3.92948 -5.25289 0
M  V30 16170 H 1516.95 3.22871 -6.83586 0
M  V30 16171 H 1518.21 4.35792 -6.46302 0
M  V30 16172 N 1522.44 1.56945 0.143535 0
M  V30 16173 C 1523.69 1.8381 0.856831 0
M  V30 16174 C 1524.02 0.712375 1.80662 0
M  V30 16175 O 1523.3 -0.283743 1.92419 0
M  V30 16176 C 1523.58 3.21184 1.62828 0
M  V30 16177 C 1523.43 4.44324 0.699744 0
M  V30 16178 C 1524.75 3.5582 2.58999 0
M  V30 16179 H 1521.87 0.668611 0.310046 0
M  V30 16180 H 1524.51 1.89609 0.1219 0
M  V30 16181 H 1522.66 3.16372 2.2548 0
M  V30 16182 H 1524.34 4.61224 0.0839619 0
M  V30 16183 H 1522.58 4.33799 0.0095529 0
M  V30 16184 H 1523.25 5.37058 1.27564 0
M  V30 16185 H 1525.73 3.61264 2.06464 0
M  V30 16186 H 1524.6 4.52964 3.10024 0
M  V30 16187 H 1524.86 2.81956 3.40519 0
M  V30 16188 N 1523.92 -0.412991 1.52093 0
M  V30 16189 C 1524.85 -1.52187 1.71382 0
M  V30 16190 C 1525.87 -1.51567 0.594247 0
M  V30 16191 O 1527.06 -1.55902 0.869293 0
M  V30 16192 C 1524.16 -2.91086 1.73557 0
M  V30 16193 C 1523.33 -3.15941 3.0249 0
M  V30 16194 C 1522.39 -4.34692 2.96529 0
M  V30 16195 O 1521.41 -4.3216 3.70441 0
M  V30 16196 N 1522.62 -5.39594 2.14052 0
M  V30 16197 H 1525.38 -1.36036 2.67047 0
M  V30 16198 H 1522.94 -0.602243 1.50282 0
M  V30 16199 H 1524.93 -3.68589 1.67106 0
M  V30 16200 H 1523.5 -3.00714 0.85382 0
M  V30 16201 H 1522.72 -2.26517 3.2262 0
M  V30 16202 H 1524.01 -3.29388 3.87789 0
M  V30 16203 H 1523.41 -5.44498 1.53424 0
M  V30 16204 H 1521.97 -6.15855 2.13461 0
M  V30 16205 N 1525.4 -1.4265 -0.669982 0
M  V30 16206 C 1526.31 -1.48916 -1.81276 0
M  V30 16207 C 1527.33 -0.377523 -1.69855 0
M  V30 16208 O 1528.5 -0.629151 -1.91321 0
M  V30 16209 C 1525.57 -1.39376 -3.17451 0
M  V30 16210 C 1524.63 -2.61072 -3.40793 0
M  V30 16211 C 1523.86 -2.51976 -4.70472 0
M  V30 16212 O 1524.08 -1.55827 -5.48702 0
M  V30 16213 O 1523.02 -3.42193 -4.95164 0
M  V30 16214 H 1526.84 -2.45382 -1.78945 0
M  V30 16215 H 1524.43 -1.24467 -0.826342 0
M  V30 16216 H 1526.31 -1.36435 -3.98702 0
M  V30 16217 H 1524.99 -0.460376 -3.20409 0
M  V30 16218 H 1523.89 -2.69587 -2.59372 0
M  V30 16219 H 1525.23 -3.53325 -3.42669 0
M  V30 16220 N 1526.88 0.906753 -1.28902 0
M  V30 16221 C 1527.83 2.03141 -1.13299 0
M  V30 16222 C 1528.82 1.69325 -0.0504114 0
M  V30 16223 O 1530.03 1.78774 -0.209696 0
M  V30 16224 H 1526.4 0.665709 -0.349766 0
M  V30 16225 H 1528.37 2.13441 -2.08531 0
M  V30 16226 C 1527.12 3.37918 -0.818935 0
M  V30 16227 H 1526.44 3.64437 -1.64395 0
M  V30 16228 H 1527.88 4.17318 -0.749753 0
M  V30 16229 C 1526.34 3.33498 0.477582 0
M  V30 16230 O 1526.87 3.7241 1.50578 0
M  V30 16231 N 1525.08 2.86594 0.480862 0
M  V30 16232 H 1524.63 2.55124 -0.356308 0
M  V30 16233 H 1524.58 2.84019 1.34835 0
M  V30 16234 N 1528.36 1.11264 1.11616 0
M  V30 16235 C 1529.6 0.870286 1.84947 0
M  V30 16236 C 1529.96 -0.593351 1.82602 0
M  V30 16237 O 1531.16 -0.952396 2.51362 0
M  V30 16238 C 1529.43 1.4142 3.2823 0
M  V30 16239 S 1530.99 1.30856 4.18834 0
M  V30 16240 H 1527.81 0.314257 0.63778 0
M  V30 16241 H 1530.41 1.41978 1.34397 0
M  V30 16242 H 1529.11 2.47328 3.27501 0
M  V30 16243 H 1528.65 0.861661 3.83848 0
M  V30 16244 H 1530.66 0.271878 4.95455 0
M  V30 16245 N 1529.83 -1.29188 0.902679 0
M  V30 16246 C 1531.08 -1.94718 0.526082 0
M  V30 16247 C 1531.4 -1.71924 -0.932816 0
M  V30 16248 O 1532.6 -2.31585 -1.41707 0
M  V30 16249 C 1531.06 -3.48723 0.889974 0
M  V30 16250 C 1530.67 -3.80312 2.36784 0
M  V30 16251 C 1532.41 -4.20472 0.58343 0
M  V30 16252 C 1530.32 -5.27574 2.67244 0
M  V30 16253 H 1529.25 -0.728875 0.193019 0
M  V30 16254 H 1531.9 -1.46869 1.10008 0
M  V30 16255 H 1530.28 -3.95242 0.244872 0
M  V30 16256 H 1531.45 -3.44641 3.05875 0
M  V30 16257 H 1529.77 -3.21709 2.64371 0
M  V30 16258 H 1532.37 -5.28864 0.787813 0
M  V30 16259 H 1532.71 -4.13544 -0.478204 0
M  V30 16260 H 1533.24 -3.79693 1.1865 0
M  V30 16261 H 1529.98 -5.39569 3.72217 0
M  V30 16262 H 1529.5 -5.64482 2.0278 0
M  V30 16263 H 1531.18 -5.95199 2.53666 0
M  V30 16264 N 1531.31 -0.665475 -1.42861 0
M  V30 16265 C 1532.59 -0.113252 -1.95272 0
M  V30 16266 C 1532.97 1.36972 -1.6063 0
M  V30 16267 O 1532.32 2.10129 -0.897662 0
M  V30 16268 C 1532.53 -0.372482 -3.47007 0
M  V30 16269 C 1533.87 -0.283982 -4.23649 0
M  V30 16270 O 1534.9 -0.305714 -3.54886 0
M  V30 16271 O 1533.76 -0.218171 -5.46064 0
M  V30 16272 H 1530.85 0.00253712 -0.826996 0
M  V30 16273 H 1533.4 -0.739561 -1.52737 0
M  V30 16274 H 1532.17 -1.40015 -3.65392 0
M  V30 16275 H 1531.79 0.286294 -3.96568 0
M  V30 16276 N 1532.79 1.52222 -0.408187 0
M  V30 16277 C 1533.72 2.29892 0.408868 0
M  V30 16278 C 1534.7 1.34063 1.04695 0
M  V30 16279 O 1535.89 1.6297 1.05615 0
M  V30 16280 C 1533.02 3.11964 1.52629 0
M  V30 16281 C 1531.97 4.15833 1.01326 0
M  V30 16282 C 1531.3 4.86244 2.2242 0
M  V30 16283 C 1532.6 5.22256 0.0679573 0
M  V30 16284 H 1534.29 2.98443 -0.23923 0
M  V30 16285 H 1531.84 1.43528 -0.116496 0
M  V30 16286 H 1533.79 3.65067 2.10486 0
M  V30 16287 H 1532.51 2.41181 2.20225 0
M  V30 16288 H 1531.17 3.63739 0.4571 0
M  V30 16289 H 1530.82 4.11991 2.88569 0
M  V30 16290 H 1530.52 5.56461 1.88746 0
M  V30 16291 H 1532.04 5.42159 2.80885 0
M  V30 16292 H 1533.46 5.70604 0.555295 0
M  V30 16293 H 1531.85 5.9983 -0.179934 0
M  V30 16294 H 1532.92 4.76892 -0.877599 0
M  V30 16295 N 1534.27 0.138579 1.5699 0
M  V30 16296 C 1535.51 -0.51539 1.96142 0
M  V30 16297 C 1535.85 -1.65067 1.02306 0
M  V30 16298 O 1535.12 -1.94395 0.0638645 0
M  V30 16299 C 1535.4 -1.02956 3.45068 0
M  V30 16300 C 1535.26 0.103646 4.49681 0
M  V30 16301 C 1536.58 -1.91411 3.96295 0
M  V30 16302 H 1533.7 -0.185873 0.713176 0
M  V30 16303 H 1536.34 0.218103 1.88744 0
M  V30 16304 H 1534.49 -1.65462 3.51503 0
M  V30 16305 H 1536.16 0.739693 4.55331 0
M  V30 16306 H 1534.4 0.764014 4.27019 0
M  V30 16307 H 1535.07 -0.297688 5.51197 0
M  V30 16308 H 1537.55 -1.38746 3.92286 0
M  V30 16309 H 1536.43 -2.24298 5.0098 0
M  V30 16310 H 1536.69 -2.84793 3.38149 0
M  V30 16311 N 1535.75 -1.57019 -0.13521 0
M  V30 16312 C 1536.99 -1.83626 -0.844147 0
M  V30 16313 C 1537.31 -0.721298 -1.81169 0
M  V30 16314 O 1536.58 0.256095 -1.94219 0
M  V30 16315 H 1535.16 -0.677464 -0.314725 0
M  V30 16316 H 1537.83 -1.9449 -0.126399 0
M  V30 16317 H 1536.92 -2.78976 -1.39925 0
M  V30 16318 N 1537.22 0.404919 -1.52309 0
M  V30 16319 C 1538.64 0.743846 -1.41206 0
M  V30 16320 C 1538.84 1.94678 -0.519874 0
M  V30 16321 O 1537.9 2.52497 0.0127417 0
M  V30 16322 C 1539.21 0.99384 -2.83802 0
M  V30 16323 C 1540.76 1.0963 -2.93173 0
M  V30 16324 C 1541.23 1.37902 -4.36746 0
M  V30 16325 N 1542.72 1.44758 -4.39999 0
M  V30 16326 C 1543.46 1.68269 -5.48154 0
M  V30 16327 N 1542.95 1.89356 -6.6642 0
M  V30 16328 N 1544.75 1.70318 -5.35675 0
M  V30 16329 H 1536.9 -0.386855 -2.08847 0
M  V30 16330 H 1539.16 -0.110811 -0.941501 0
M  V30 16331 H 1538.87 0.182249 -3.51227 0
M  V30 16332 H 1538.74 1.91287 -3.25099 0
M  V30 16333 H 1541.13 1.89847 -2.25925 0
M  V30 16334 H 1541.21 0.155539 -2.55327 0
M  V30 16335 H 1540.85 0.582004 -5.04554 0
M  V30 16336 H 1540.78 2.33237 -4.72132 0
M  V30 16337 H 1543.27 1.30235 -3.5475 0
M  V30 16338 H 1543.59 2.06758 -7.44628 0
M  V30 16339 H 1541.93 1.86612 -6.69478 0
M  V30 16340 H 1545.12 1.53385 -4.42256 0
M  V30 16341 H 1545.3 1.88302 -6.20037 0
M  V30 16342 N 1538.7 1.43003 0.662408 0
M  V30 16343 C 1539.95 1.43422 1.41821 0
M  V30 16344 C 1540.26 0.0586909 1.95512 0
M  V30 16345 O 1541.47 -0.0596978 2.71434 0
M  V30 16346 C 1539.93 2.52344 2.56613 0
M  V30 16347 C 1539.53 3.95961 2.09569 0
M  V30 16348 C 1541.28 2.61945 3.34044 0
M  V30 16349 C 1539.19 4.96367 3.21518 0
M  V30 16350 H 1538.12 0.533485 0.532832 0
M  V30 16351 H 1540.77 1.68958 0.715911 0
M  V30 16352 H 1539.15 2.19993 3.2927 0
M  V30 16353 H 1540.32 4.37728 1.43984 0
M  V30 16354 H 1538.64 3.90322 1.45044 0
M  V30 16355 H 1541.23 3.34137 4.17441 0
M  V30 16356 H 1541.58 1.66708 3.81463 0
M  V30 16357 H 1542.11 2.93552 2.68463 0
M  V30 16358 H 1538.85 5.93124 2.79077 0
M  V30 16359 H 1538.37 4.59221 3.85845 0
M  V30 16360 H 1540.05 5.18652 3.86793 0
M  V30 16361 N 1540.18 -0.899904 1.29381 0
M  V30 16362 C 1541.14 -1.98554 1.14494 0
M  V30 16363 C 1542.14 -1.60599 0.0804732 0
M  V30 16364 O 1543.33 -1.71096 0.327395 0
M  V30 16365 C 1540.47 -3.32529 0.750818 0
M  V30 16366 H 1541.66 -2.13189 2.10928 0
M  V30 16367 H 1539.21 -1.08438 1.12565 0
M  V30 16368 H 1539.95 -3.23595 -0.213668 0
M  V30 16369 H 1539.73 -3.61443 1.51992 0
M  V30 16370 H 1541.22 -4.12195 0.669709 0
M  V30 16371 N 1541.66 -1.11854 -1.11024 0
M  V30 16372 C 1542.94 -0.781693 -1.79301 0
M  V30 16373 C 1543.32 0.72956 -1.98092 0
M  V30 16374 O 1542.66 1.66109 -1.56908 0
M  V30 16375 C 1542.87 -1.54976 -3.12703 0
M  V30 16376 C 1544.22 -1.73183 -3.87676 0
M  V30 16377 O 1545.25 -1.51437 -3.22406 0
M  V30 16378 O 1544.1 -2.0935 -5.04812 0
M  V30 16379 H 1541.2 -0.283672 -0.776826 0
M  V30 16380 H 1543.74 -1.22222 -1.17728 0
M  V30 16381 H 1542.52 -2.57759 -2.94408 0
M  V30 16382 H 1542.14 -1.10308 -3.81992 0
M  V30 16383 N 1543.14 1.28707 -0.909517 0
M  V30 16384 C 1544.55 1.47605 -0.607045 0
M  V30 16385 C 1544.75 1.8275 0.848815 0
M  V30 16386 O 1543.81 1.92989 1.62823 0
M  V30 16387 C 1545.12 2.58194 -1.54131 0
M  V30 16388 C 1546.67 2.72065 -1.54757 0
M  V30 16389 C 1547.14 3.85793 -2.46835 0
M  V30 16390 N 1548.64 3.93141 -2.44937 0
M  V30 16391 C 1549.37 4.80512 -3.12883 0
M  V30 16392 N 1548.87 5.72504 -3.90142 0
M  V30 16393 N 1550.66 4.74086 -3.01991 0
M  V30 16394 H 1542.81 1.04174 -1.85099 0
M  V30 16395 H 1545.07 0.51843 -0.793684 0
M  V30 16396 H 1544.78 2.39119 -2.57905 0
M  V30 16397 H 1544.65 3.55205 -1.26921 0
M  V30 16398 H 1547.04 2.90532 -0.517219 0
M  V30 16399 H 1547.12 1.75598 -1.86008 0
M  V30 16400 H 1546.77 3.68082 -3.49969 0
M  V30 16401 H 1546.7 4.8165 -2.12888 0
M  V30 16402 H 1549.19 3.2735 -1.88813 0
M  V30 16403 H 1549.5 6.3599 -4.39017 0
M  V30 16404 H 1547.84 5.72358 -3.94248 0
M  V30 16405 H 1551.04 4.01209 -2.4114 0
M  V30 16406 H 1551.21 5.41964 -3.55217 0
M  V30 16407 N 1544.61 0.673042 1.42506 0
M  V30 16408 C 1545.86 0.194192 2.01165 0
M  V30 16409 C 1546.18 -1.2029 1.53477 0
M  V30 16410 O 1545.45 -1.80737 0.755704 0
M  V30 16411 H 1544.03 0.0688022 0.743825 0
M  V30 16412 H 1546.7 0.869157 1.74447 0
M  V30 16413 H 1545.79 0.194111 3.11496 0
M  V30 16414 N 1546.09 -1.52004 0.416254 0
M  V30 16415 C 1547.06 -2.2579 -0.393882 0
M  V30 16416 C 1548.06 -1.28427 -0.967637 0
M  V30 16417 O 1549.25 -1.52311 -0.845396 0
M  V30 16418 C 1546.38 -3.03361 -1.55515 0
M  V30 16419 H 1547.57 -2.98835 0.252492 0
M  V30 16420 H 1545.12 -1.55384 0.168929 0
M  V30 16421 H 1545.86 -2.34682 -2.23818 0
M  V30 16422 H 1545.64 -3.74852 -1.15015 0
M  V30 16423 H 1547.13 -3.5931 -2.12805 0
M  V30 16424 N 1547.57 -0.146903 -1.56914 0
M  V30 16425 C 1548.48 0.805875 -2.20324 0
M  V30 16426 C 1549.5 1.27178 -1.18751 0
M  V30 16427 O 1550.67 1.32899 -1.51327 0
M  V30 16428 C 1547.74 2.02755 -2.81232 0
M  V30 16429 C 1546.8 1.61089 -3.97931 0
M  V30 16430 C 1546.03 2.77433 -4.55924 0
M  V30 16431 O 1546.25 3.93643 -4.12797 0
M  V30 16432 O 1545.19 2.52911 -5.46187 0
M  V30 16433 H 1549.01 0.296098 -3.02253 0
M  V30 16434 H 1546.6 0.0801175 -1.49185 0
M  V30 16435 H 1548.48 2.74252 -3.19944 0
M  V30 16436 H 1547.16 2.52686 -2.02316 0
M  V30 16437 H 1546.06 0.86616 -3.63935 0
M  V30 16438 H 1547.4 1.15874 -4.78366 0
M  V30 16439 N 1549.05 1.57088 0.126881 0
M  V30 16440 C 1550.28 1.8834 0.849211 0
M  V30 16441 C 1550.69 0.735386 1.74324 0
M  V30 16442 O 1550.03 -0.30318 1.81181 0
M  V30 16443 C 1550.09 3.14522 1.74116 0
M  V30 16444 C 1549.76 4.4542 1.02225 0
M  V30 16445 C 1550.75 5.18605 0.366722 0
M  V30 16446 C 1548.44 4.92128 1.00577 0
M  V30 16447 C 1550.43 6.36714 -0.295675 0
M  V30 16448 C 1548.12 6.10156 0.33957 0
M  V30 16449 C 1549.12 6.82296 -0.310005 0
M  V30 16450 O 1548.8 7.9808 -0.965594 0
M  V30 16451 H 1548.54 0.628129 0.24986 0
M  V30 16452 H 1551.09 2.05059 0.118236 0
M  V30 16453 H 1549.32 2.93864 2.51358 0
M  V30 16454 H 1551.01 3.31857 2.33722 0
M  V30 16455 H 1551.78 4.83578 0.371126 0
M  V30 16456 H 1547.65 4.35887 1.5008 0
M  V30 16457 H 1551.2 6.9296 -0.803275 0
M  V30 16458 H 1547.1 6.44641 0.332902 0
M  V30 16459 H 1547.86 8.13871 -0.869277 0
M  V30 16460 N 1550.53 -0.396836 1.52522 0
M  V30 16461 C 1551.77 -1.14432 1.67431 0
M  V30 16462 C 1552.11 -1.89842 0.409115 0
M  V30 16463 O 1551.38 -1.85244 -0.592863 0
M  V30 16464 C 1551.66 -2.12889 2.90431 0
M  V30 16465 C 1551.52 -1.41295 4.27031 0
M  V30 16466 C 1552.84 -3.13412 3.08967 0
M  V30 16467 H 1549.95 -0.414643 0.609295 0
M  V30 16468 H 1552.6 -0.428604 1.85103 0
M  V30 16469 H 1550.75 -2.73924 2.75495 0
M  V30 16470 H 1552.42 -0.832848 4.53719 0
M  V30 16471 H 1550.66 -0.714834 4.2787 0
M  V30 16472 H 1551.33 -2.13198 5.09167 0
M  V30 16473 H 1553.81 -2.62462 3.22883 0
M  V30 16474 H 1552.68 -3.79555 3.96522 0
M  V30 16475 H 1552.95 -3.81836 2.22831 0
M  V30 16476 N 1552.01 -1.43353 -0.654814 0
M  V30 16477 C 1553.23 -1.48536 -1.44748 0
M  V30 16478 C 1553.66 -0.103991 -1.87812 0
M  V30 16479 O 1553.01 0.901924 -1.57274 0
M  V30 16480 C 1553.06 -2.43498 -2.65972 0
M  V30 16481 O 1552.17 -1.92014 -3.64972 0
M  V30 16482 H 1551.51 -0.502476 -0.434067 0
M  V30 16483 H 1554.04 -1.88251 -0.801427 0
M  V30 16484 H 1554.05 -2.60748 -3.13806 0
M  V30 16485 H 1552.72 -3.43847 -2.3397 0
M  V30 16486 H 1551.3 -1.84417 -3.24106 0
M  V30 16487 N 1553.48 0.89303 -1.29857 0
M  V30 16488 C 1554.45 1.97944 -1.15546 0
M  V30 16489 C 1555.45 1.60554 -0.088989 0
M  V30 16490 O 1556.64 1.7092 -0.336464 0
M  V30 16491 C 1553.77 3.32126 -0.768442 0
M  V30 16492 H 1554.96 2.12067 -2.12055 0
M  V30 16493 H 1552.51 1.0784 -1.13138 0
M  V30 16494 H 1553.25 3.23704 0.196504 0
M  V30 16495 H 1553.03 3.60631 -1.53907 0
M  V30 16496 H 1554.52 4.11834 -0.691559 0
M  V30 16497 N 1554.96 1.12442 1.10429 0
M  V30 16498 C 1556.38 0.860481 1.34417 0
M  V30 16499 C 1556.58 -0.509394 1.94955 0
M  V30 16500 O 1555.63 -1.25807 2.18927 0
M  V30 16501 C 1556.95 1.97694 2.26578 0
M  V30 16502 C 1558.49 2.00783 2.40115 0
M  V30 16503 C 1558.97 3.11663 3.35604 0
M  V30 16504 N 1560.46 3.11106 3.43173 0
M  V30 16505 C 1561.2 3.9354 4.1703 0
M  V30 16506 N 1560.69 4.85963 4.93773 0
M  V30 16507 N 1562.48 3.81677 4.12649 0
M  V30 16508 H 1554.64 2.00706 0.695036 0
M  V30 16509 H 1556.9 0.873398 0.368619 0
M  V30 16510 H 1556.6 2.96405 1.89306 0
M  V30 16511 H 1556.48 1.88217 3.26886 0
M  V30 16512 H 1558.87 1.02692 2.76656 0
M  V30 16513 H 1558.95 2.14335 1.39621 0
M  V30 16514 H 1558.59 4.09987 2.99789 0
M  V30 16515 H 1558.52 2.9535 4.35977 0
M  V30 16516 H 1561.01 2.4415 2.88442 0
M  V30 16517 H 1561.32 5.45373 5.47529 0
M  V30 16518 H 1559.67 4.89976 4.92898 0
M  V30 16519 H 1562.86 3.08808 3.51789 0
M  V30 16520 H 1563.03 4.46151 4.6995 0
M  V30 16521 N 1556.44 -1.28223 0.91633 0
M  V30 16522 C 1557.35 -2.30956 0.411882 0
M  V30 16523 C 1558.37 -1.66609 -0.501753 0
M  V30 16524 O 1559.54 -1.97641 -0.387317 0
M  V30 16525 C 1556.61 -3.45053 -0.337558 0
M  V30 16526 C 1555.67 -4.2495 0.609609 0
M  V30 16527 C 1554.9 -5.33598 -0.104159 0
M  V30 16528 O 1555.12 -5.54786 -1.32546 0
M  V30 16529 O 1554.06 -5.99272 0.561851 0
M  V30 16530 H 1557.88 -2.76118 1.26461 0
M  V30 16531 H 1555.47 -1.32964 0.681246 0
M  V30 16532 H 1557.35 -4.14477 -0.760722 0
M  V30 16533 H 1556.03 -3.01968 -1.16607 0
M  V30 16534 H 1554.93 -3.58104 1.08222 0
M  V30 16535 H 1556.27 -4.7172 1.40502 0
M  V30 16536 N 1557.92 -0.68059 -1.42147 0
M  V30 16537 C 1559.16 -0.214267 -2.02268 0
M  V30 16538 C 1559.52 1.16815 -1.52879 0
M  V30 16539 O 1558.81 1.77406 -0.723716 0
M  V30 16540 C 1559.01 -0.194825 -3.56869 0
M  V30 16541 C 1558.83 -1.57381 -4.21261 0
M  V30 16542 C 1557.6 -2.173 -4.56189 0
M  V30 16543 C 1559.8 -2.5176 -4.48466 0
M  V30 16544 N 1557.78 -3.47919 -5.05792 0
M  V30 16545 C 1559.16 -3.6704 -4.99681 0
M  V30 16546 C 1561.21 -2.50217 -4.3046 0
M  V30 16547 C 1559.91 -4.81039 -5.34784 0
M  V30 16548 C 1561.94 -3.63316 -4.66643 0
M  V30 16549 C 1561.3 -4.77324 -5.18016 0
M  V30 16550 H 1557.4 -0.123459 -0.772193 0
M  V30 16551 H 1559.98 -0.894831 -1.72919 0
M  V30 16552 H 1558.16 0.455171 -3.85724 0
M  V30 16553 H 1559.89 0.284921 -4.03696 0
M  V30 16554 H 1556.64 -1.69732 -4.4214 0
M  V30 16555 H 1557.07 -4.14833 -5.35016 0
M  V30 16556 H 1561.71 -1.63297 -3.89992 0
M  V30 16557 H 1559.43 -5.68629 -5.74183 0
M  V30 16558 H 1563.01 -3.63356 -4.54383 0
M  V30 16559 H 1561.89 -5.63391 -5.45491 0
M  V30 16560 N 1559.4 1.51781 -0.424309 0
M  V30 16561 C 1560.33 2.23945 0.438604 0
M  V30 16562 C 1561.31 1.25363 1.03552 0
M  V30 16563 O 1562.49 1.5446 1.08048 0
M  V30 16564 C 1559.62 2.9798 1.61014 0
M  V30 16565 C 1558.66 4.11116 1.13516 0
M  V30 16566 S 1559.5 5.35428 0.0878448 0
M  V30 16567 C 1560.65 6.12997 1.26435 0
M  V30 16568 H 1560.89 2.9679 -0.174103 0
M  V30 16569 H 1558.42 1.52983 -0.208718 0
M  V30 16570 H 1560.38 3.41237 2.28183 0
M  V30 16571 H 1559.04 2.2475 2.19423 0
M  V30 16572 H 1558.23 4.62147 2.01086 0
M  V30 16573 H 1557.83 3.70053 0.5419 0
M  V30 16574 H 1560.12 6.41293 2.18517 0
M  V30 16575 H 1561.07 7.03631 0.794265 0
M  V30 16576 H 1561.48 5.44288 1.49702 0
M  V30 16577 N 1560.87 0.155222 1.56834 0
M  V30 16578 C 1562.29 -0.201116 1.58328 0
M  V30 16579 C 1562.49 -1.64061 1.16988 0
M  V30 16580 O 1561.55 -2.36892 0.873989 0
M  V30 16581 C 1562.86 0.0651005 3.0063 0
M  V30 16582 C 1564.41 0.00203866 3.13 0
M  V30 16583 C 1564.88 0.241032 4.57365 0
M  V30 16584 N 1566.37 0.188245 4.62817 0
M  V30 16585 C 1567.11 0.347562 5.72346 0
M  V30 16586 N 1566.6 0.565052 6.90492 0
M  V30 16587 N 1568.4 0.284589 5.61379 0
M  V30 16588 H 1560.55 1.09503 1.81997 0
M  V30 16589 H 1562.81 0.434106 0.842767 0
M  V30 16590 H 1562.52 1.06167 3.35293 0
M  V30 16591 H 1562.39 -0.650601 3.71547 0
M  V30 16592 H 1564.78 -0.98509 2.78173 0
M  V30 16593 H 1564.86 0.750199 2.44552 0
M  V30 16594 H 1564.5 1.2253 4.92898 0
M  V30 16595 H 1564.43 -0.52755 5.23951 0
M  V30 16596 H 1566.92 0.0251352 3.77892 0
M  V30 16597 H 1567.24 0.676502 7.69833 0
M  V30 16598 H 1565.58 0.601473 6.92392 0
M  V30 16599 H 1568.77 0.115381 4.67958 0
M  V30 16600 H 1568.95 0.412182 6.46688 0
M  V30 16601 N 1562.35 -1.57153 -0.118549 0
M  V30 16602 C 1563.6 -1.84064 -0.824832 0
M  V30 16603 C 1563.91 -0.740941 -1.81023 0
M  V30 16604 O 1565.12 -0.896464 -2.56273 0
M  V30 16605 C 1563.58 -3.26338 -1.51761 0
M  V30 16606 C 1563.18 -4.44318 -0.573174 0
M  V30 16607 C 1564.93 -3.62496 -2.209 0
M  V30 16608 C 1562.83 -5.7762 -1.2692 0
M  V30 16609 H 1561.76 -0.686521 -0.311777 0
M  V30 16610 H 1564.42 -1.83336 -0.0775833 0
M  V30 16611 H 1562.8 -3.21537 -2.3115 0
M  V30 16612 H 1563.97 -4.60418 0.187529 0
M  V30 16613 H 1562.29 -4.16398 0.0112747 0
M  V30 16614 H 1564.88 -4.5936 -2.73666 0
M  V30 16615 H 1565.23 -2.89952 -2.9872 0
M  V30 16616 H 1565.76 -3.69084 -1.48399 0
M  V30 16617 H 1562.5 -6.53335 -0.532285 0
M  V30 16618 H 1562.02 -5.65406 -2.00191 0
M  V30 16619 H 1563.7 -6.21391 -1.80227 0
M  V30 16620 N 1563.83 0.388742 -1.5273 0
M  V30 16621 C 1565.07 1.14269 -1.69475 0
M  V30 16622 C 1565.43 1.87222 -0.425669 0
M  V30 16623 O 1566.63 2.64668 -0.469486 0
M  V30 16624 C 1564.91 2.09472 -2.8958 0
M  V30 16625 S 1566.46 2.927 -3.26913 0
M  V30 16626 H 1563.28 0.386807 -0.596574 0
M  V30 16627 H 1565.88 0.427089 -1.90778 0
M  V30 16628 H 1564.59 1.54599 -3.80167 0
M  V30 16629 H 1564.12 2.8554 -2.70611 0
M  V30 16630 H 1566.13 4.11605 -2.77121 0
M  V30 16631 N 1565.31 1.43698 0.647203 0
M  V30 16632 C 1566.55 1.45633 1.40703 0
M  V30 16633 C 1566.88 0.0828643 1.94323 0
M  V30 16634 O 1566.14 -0.913033 1.73096 0
M  V30 16635 C 1566.44 2.45083 2.60133 0
M  V30 16636 C 1566.1 3.9081 2.24896 0
M  V30 16637 C 1564.76 4.30499 2.14998 0
M  V30 16638 C 1567.12 4.8262 1.96794 0
M  V30 16639 C 1564.44 5.59942 1.75163 0
M  V30 16640 C 1566.8 6.12433 1.58456 0
M  V30 16641 C 1565.46 6.51092 1.47088 0
M  V30 16642 H 1564.73 0.53291 0.514867 0
M  V30 16643 H 1567.38 1.76814 0.735458 0
M  V30 16644 H 1565.68 2.07327 3.3245 0
M  V30 16645 H 1567.38 2.43833 3.1835 0
M  V30 16646 H 1563.97 3.59403 2.33512 0
M  V30 16647 H 1568.15 4.52724 2.03359 0
M  V30 16648 H 1563.41 5.88728 1.64952 0
M  V30 16649 H 1567.58 6.83042 1.35745 0
M  V30 16650 H 1565.21 7.51299 1.15992 0
M  V30 16651 N 1566.79 -0.886131 1.30328 0
M  V30 16652 C 1567.7 -2.02453 1.18532 0
M  V30 16653 C 1568.71 -1.7368 0.105506 0
M  V30 16654 O 1569.89 -1.98838 0.320217 0
M  V30 16655 C 1566.95 -3.3543 0.876792 0
M  V30 16656 C 1566.01 -3.77633 2.04185 0
M  V30 16657 C 1565.25 -5.04264 1.74795 0
M  V30 16658 O 1565.47 -5.66388 0.675323 0
M  V30 16659 O 1564.4 -5.42847 2.60001 0
M  V30 16660 H 1568.23 -2.15333 2.14162 0
M  V30 16661 H 1565.82 -1.01193 1.09911 0
M  V30 16662 H 1567.7 -4.15206 0.719882 0
M  V30 16663 H 1566.37 -3.23662 -0.0496117 0
M  V30 16664 H 1565.28 -2.98567 2.25408 0
M  V30 16665 H 1566.61 -3.94004 2.94994 0
M  V30 16666 N 1568.26 -1.13026 -1.09832 0
M  V30 16667 C 1569.19 -0.826338 -2.18389 0
M  V30 16668 C 1570.18 0.212529 -1.68767 0
M  V30 16669 O 1571.36 0.072363 -1.94065 0
M  V30 16670 C 1568.49 -0.286991 -3.46112 0
M  V30 16671 C 1567.44 -1.25963 -4.09044 0
M  V30 16672 C 1566.77 -0.580231 -5.31542 0
M  V30 16673 C 1568.07 -2.61661 -4.5203 0
M  V30 16674 H 1569.76 -1.73408 -2.4407 0
M  V30 16675 H 1567.31 -0.835201 -1.17305 0
M  V30 16676 H 1569.26 -0.062067 -4.21354 0
M  V30 16677 H 1567.99 0.656121 -3.19942 0
M  V30 16678 H 1566.65 -1.47047 -3.35816 0
M  V30 16679 H 1566.29 0.368222 -5.0165 0
M  V30 16680 H 1565.99 -1.2291 -5.74601 0
M  V30 16681 H 1567.52 -0.36449 -6.09511 0
M  V30 16682 H 1568.93 -2.44569 -5.18516 0
M  V30 16683 H 1567.33 -3.22685 -5.05959 0
M  V30 16684 H 1568.4 -3.19637 -3.64637 0
M  V30 16685 N 1569.74 1.27735 -0.923117 0
M  V30 16686 C 1570.67 2.29395 -0.435907 0
M  V30 16687 C 1571.65 1.62542 0.501403 0
M  V30 16688 O 1572.84 1.89884 0.407135 0
M  V30 16689 C 1569.97 3.45856 0.316348 0
M  V30 16690 C 1568.92 4.24672 -0.532697 0
M  V30 16691 C 1568.25 5.33563 0.348454 0
M  V30 16692 C 1569.55 4.90494 -1.79481 0
M  V30 16693 H 1571.24 2.70398 -1.28551 0
M  V30 16694 H 1568.79 1.29989 -0.619581 0
M  V30 16695 H 1570.74 4.1607 0.668098 0
M  V30 16696 H 1569.47 3.03758 1.19994 0
M  V30 16697 H 1568.12 3.56198 -0.867093 0
M  V30 16698 H 1567.77 4.87708 1.23086 0
M  V30 16699 H 1567.47 5.87202 -0.216104 0
M  V30 16700 H 1569 6.06622 0.695878 0
M  V30 16701 H 1570.41 5.53019 -1.5114 0
M  V30 16702 H 1568.81 5.5417 -2.30251 0
M  V30 16703 H 1569.88 4.14454 -2.51707 0
M  V30 16704 N 1571.22 0.688118 1.41784 0
M  V30 16705 C 1572.13 0.018397 2.34593 0
M  V30 16706 C 1573.15 -0.774275 1.55824 0
M  V30 16707 O 1574.32 -0.713546 1.88336 0
M  V30 16708 C 1571.39 -0.911914 3.34492 0
M  V30 16709 C 1570.45 -0.112284 4.29153 0
M  V30 16710 C 1569.68 -0.998285 5.2428 0
M  V30 16711 O 1569.9 -2.23782 5.24669 0
M  V30 16712 O 1568.84 -0.451951 6.00201 0
M  V30 16713 H 1572.66 0.783224 2.93427 0
M  V30 16714 H 1570.25 0.448413 1.42512 0
M  V30 16715 H 1572.13 -1.4456 3.95829 0
M  V30 16716 H 1570.81 -1.65636 2.78112 0
M  V30 16717 H 1569.71 0.465822 3.71189 0
M  V30 16718 H 1571.05 0.593338 4.88611 0
M  V30 16719 N 1572.7 -1.51554 0.432352 0
M  V30 16720 C 1573.63 -2.30514 -0.372243 0
M  V30 16721 C 1574.61 -1.35712 -1.02549 0
M  V30 16722 O 1575.79 -1.6463 -1.03009 0
M  V30 16723 C 1572.92 -3.14353 -1.47646 0
M  V30 16724 C 1571.88 -4.17392 -0.946974 0
M  V30 16725 C 1571.2 -4.89721 -2.14656 0
M  V30 16726 C 1572.5 -5.22298 0.0151377 0
M  V30 16727 H 1574.2 -2.98024 0.28668 0
M  V30 16728 H 1571.74 -1.43325 0.139315 0
M  V30 16729 H 1573.7 -3.68369 -2.04651 0
M  V30 16730 H 1572.42 -2.44654 -2.1636 0
M  V30 16731 H 1571.08 -3.6442 -0.399174 0
M  V30 16732 H 1570.73 -4.1653 -2.81978 0
M  V30 16733 H 1570.43 -5.59393 -1.79869 0
M  V30 16734 H 1571.95 -5.46559 -2.72224 0
M  V30 16735 H 1573.37 -5.71416 -0.464447 0
M  V30 16736 H 1571.76 -5.99468 0.275339 0
M  V30 16737 H 1572.83 -4.75436 0.953357 0
M  V30 16738 N 1574.18 -0.163538 -1.56749 0
M  V30 16739 C 1575.11 0.765571 -2.20593 0
M  V30 16740 C 1576.09 1.24489 -1.15916 0
M  V30 16741 O 1577.27 1.29946 -1.44318 0
M  V30 16742 C 1574.4 1.99823 -2.84057 0
M  V30 16743 C 1573.36 1.65506 -3.94705 0
M  V30 16744 C 1572.68 2.96172 -4.45181 0
M  V30 16745 C 1573.98 0.88902 -5.14678 0
M  V30 16746 H 1575.68 0.233431 -2.98489 0
M  V30 16747 H 1573.22 0.110836 -1.43573 0
M  V30 16748 H 1575.18 2.65316 -3.27392 0
M  V30 16749 H 1573.9 2.55437 -2.03517 0
M  V30 16750 H 1572.56 1.02384 -3.52013 0
M  V30 16751 H 1572.21 3.49811 -3.61443 0
M  V30 16752 H 1571.91 2.73968 -5.19823 0
M  V30 16753 H 1573.43 3.62708 -4.91198 0
M  V30 16754 H 1574.84 1.44637 -5.54755 0
M  V30 16755 H 1573.24 0.766302 -5.95187 0
M  V30 16756 H 1574.31 -0.116145 -4.84761 0
M  V30 16757 N 1575.65 1.57214 0.110213 0
M  V30 16758 C 1576.6 2.00978 1.13474 0
M  V30 16759 C 1577.57 0.883436 1.40658 0
M  V30 16760 O 1578.76 1.14832 1.52376 0
M  V30 16761 C 1575.9 2.42654 2.45383 0
M  V30 16762 C 1575.01 3.68744 2.2506 0
M  V30 16763 C 1574.14 3.99363 3.50261 0
M  V30 16764 C 1573.18 5.18608 3.25133 0
M  V30 16765 N 1572.32 5.45055 4.42561 0
M  V30 16766 H 1577.16 2.88289 0.754543 0
M  V30 16767 H 1574.7 1.426 0.361064 0
M  V30 16768 H 1576.66 2.64857 3.22345 0
M  V30 16769 H 1575.29 1.58374 2.81278 0
M  V30 16770 H 1574.34 3.54106 1.38972 0
M  V30 16771 H 1575.65 4.55857 2.02475 0
M  V30 16772 H 1574.8 4.22261 4.35638 0
M  V30 16773 H 1573.54 3.10743 3.75886 0
M  V30 16774 H 1572.55 4.95546 2.38148 0
M  V30 16775 H 1573.77 6.08814 3.0087 0
M  V30 16776 H 1571.72 4.59392 4.6829 0
M  V30 16777 H 1571.64 6.26508 4.23111 0
M  V30 16778 H 1572.9 5.72478 5.29046 0
M  V30 16779 N 1577.13 -0.380637 1.52934 0
M  V30 16780 C 1578.1 -1.44819 1.77652 0
M  V30 16781 C 1579.1 -1.47224 0.646657 0
M  V30 16782 O 1580.29 -1.48248 0.91477 0
M  V30 16783 C 1577.42 -2.8405 1.8849 0
M  V30 16784 H 1578.61 -1.24183 2.72981 0
M  V30 16785 H 1576.16 -0.61288 1.43783 0
M  V30 16786 H 1576.9 -3.1002 0.951751 0
M  V30 16787 H 1576.68 -2.83704 2.70655 0
M  V30 16788 H 1578.17 -3.61388 2.09257 0
M  V30 16789 N 1578.61 -1.44039 -0.639573 0
M  V30 16790 C 1579.56 -1.46693 -1.74543 0
M  V30 16791 C 1580.54 -0.333712 -1.57401 0
M  V30 16792 O 1581.74 -0.578443 -1.67281 0
M  V30 16793 C 1578.87 -1.40586 -3.13194 0
M  V30 16794 C 1577.95 -2.5899 -3.35835 0
M  V30 16795 N 1578.34 -3.84279 -3.28882 0
M  V30 16796 C 1576.64 -2.54005 -3.66602 0
M  V30 16797 C 1577.34 -4.63125 -3.5198 0
M  V30 16798 N 1576.32 -3.94067 -3.74449 0
M  V30 16799 H 1580.12 -2.41419 -1.67612 0
M  V30 16800 H 1577.63 -1.38883 -0.841739 0
M  V30 16801 H 1579.63 -1.4057 -3.92486 0
M  V30 16802 H 1578.29 -0.46891 -3.21296 0
M  V30 16803 H 1579.3 -4.16369 -3.07988 0
M  V30 16804 H 1575.98 -1.69065 -3.81737 0
M  V30 16805 H 1577.37 -5.72151 -3.52268 0
M  V30 16806 N 1580.09 0.879207 -1.30796 0
M  V30 16807 C 1581.04 1.98553 -1.17667 0
M  V30 16808 C 1582.01 1.65974 -0.0647231 0
M  V30 16809 O 1583.19 1.89336 -0.235941 0
M  V30 16810 C 1580.33 3.3368 -0.880434 0
M  V30 16811 C 1579.44 3.78913 -2.07482 0
M  V30 16812 C 1578.58 5.02714 -1.71617 0
M  V30 16813 C 1577.62 5.40371 -2.87517 0
M  V30 16814 N 1576.75 6.55352 -2.5191 0
M  V30 16815 H 1581.59 2.09115 -2.12309 0
M  V30 16816 H 1579.13 1.02382 -1.05623 0
M  V30 16817 H 1581.09 4.11467 -0.689278 0
M  V30 16818 H 1579.72 3.22787 0.0291283 0
M  V30 16819 H 1578.77 2.96987 -2.37704 0
M  V30 16820 H 1580.08 4.02757 -2.94259 0
M  V30 16821 H 1579.24 5.88142 -1.4891 0
M  V30 16822 H 1577.98 4.80754 -0.820181 0
M  V30 16823 H 1576.98 4.53466 -3.10883 0
M  V30 16824 H 1578.21 5.64301 -3.77811 0
M  V30 16825 H 1576.15 6.34956 -1.64823 0
M  V30 16826 H 1576.07 6.79093 -3.32217 0
M  V30 16827 H 1577.34 7.43996 -2.32573 0
M  V30 16828 N 1581.57 1.13606 1.09231 0
M  V30 16829 C 1582.51 0.815279 2.15921 0
M  V30 16830 C 1583.48 -0.223501 1.64589 0
M  V30 16831 O 1584.67 -0.0952982 1.90562 0
M  V30 16832 C 1581.81 0.289655 3.43882 0
M  V30 16833 C 1580.92 1.38773 4.09104 0
M  V30 16834 C 1580.06 0.820238 5.24829 0
M  V30 16835 C 1579.1 1.89658 5.81976 0
M  V30 16836 N 1578.23 1.34688 6.8906 0
M  V30 16837 H 1583.07 1.72914 2.42703 0
M  V30 16838 H 1580.61 0.863101 1.19117 0
M  V30 16839 H 1582.57 -0.0332398 4.17187 0
M  V30 16840 H 1581.2 -0.587329 3.17412 0
M  V30 16841 H 1580.25 1.82718 3.33644 0
M  V30 16842 H 1581.56 2.20114 4.47606 0
M  V30 16843 H 1580.72 0.448745 6.05038 0
M  V30 16844 H 1579.46 -0.0242261 4.87694 0
M  V30 16845 H 1578.46 2.27712 5.00427 0
M  V30 16846 H 1579.69 2.74448 6.21172 0
M  V30 16847 H 1577.63 0.524453 6.539 0
M  V30 16848 H 1577.55 2.09675 7.26342 0
M  V30 16849 H 1578.82 1.00302 7.7302 0
M  V30 16850 N 1583.05 -1.27244 0.929878 0
M  V30 16851 C 1584.01 -2.25028 0.435315 0
M  V30 16852 C 1585.01 -1.54453 -0.447332 0
M  V30 16853 O 1586.2 -1.72424 -0.248105 0
M  V30 16854 C 1583.33 -3.38843 -0.373933 0
M  V30 16855 H 1584.52 -2.70293 1.2993 0
M  V30 16856 H 1582.08 -1.39204 0.710771 0
M  V30 16857 H 1582.81 -2.98963 -1.25664 0
M  V30 16858 H 1582.6 -3.91244 0.258946 0
M  V30 16859 H 1584.09 -4.11516 -0.710255 0
M  V30 16860 N 1584.52 -0.695628 -1.41417 0
M  V30 16861 C 1585.77 -0.223719 -2.00455 0
M  V30 16862 C 1586.09 1.18352 -1.55731 0
M  V30 16863 O 1587.29 1.7529 -2.0733 0
M  V30 16864 C 1585.75 -0.349076 -3.58203 0
M  V30 16865 C 1585.36 -1.76168 -4.11909 0
M  V30 16866 C 1587.1 0.0630563 -4.24453 0
M  V30 16867 C 1585.01 -1.83869 -5.62091 0
M  V30 16868 H 1583.94 -0.0798833 -0.749756 0
M  V30 16869 H 1586.59 -0.863834 -1.61896 0
M  V30 16870 H 1584.97 0.35929 -3.94367 0
M  V30 16871 H 1586.14 -2.49881 -3.87164 0
M  V30 16872 H 1584.46 -2.1235 -3.58185 0
M  V30 16873 H 1587.06 0.0259584 -5.34694 0
M  V30 16874 H 1587.4 1.10179 -4.01455 0
M  V30 16875 H 1587.93 -0.595036 -3.93324 0
M  V30 16876 H 1584.67 -2.85796 -5.89916 0
M  V30 16877 H 1584.19 -1.14541 -5.88762 0
M  V30 16878 H 1585.87 -1.60161 -6.26863 0
M  V30 16879 N 1586 1.51322 -0.440383 0
M  V30 16880 C 1587.42 1.5933 -0.0928372 0
M  V30 16881 C 1587.62 1.45107 1.39807 0
M  V30 16882 O 1586.67 1.29385 2.16831 0
M  V30 16883 C 1587.99 2.9433 -0.615663 0
M  V30 16884 C 1589.53 3.07647 -0.576373 0
M  V30 16885 C 1590.01 4.45176 -1.07622 0
M  V30 16886 N 1591.5 4.51504 -1.03434 0
M  V30 16887 C 1592.24 5.56249 -1.39194 0
M  V30 16888 N 1591.73 6.68398 -1.82254 0
M  V30 16889 N 1593.52 5.46624 -1.30991 0
M  V30 16890 H 1585.68 1.58812 -1.41041 0
M  V30 16891 H 1587.94 0.748795 -0.581386 0
M  V30 16892 H 1587.64 3.10117 -1.65892 0
M  V30 16893 H 1587.52 3.77176 -0.0422513 0
M  V30 16894 H 1589.91 2.91526 0.457904 0
M  V30 16895 H 1589.99 2.26633 -1.18622 0
M  V30 16896 H 1589.63 4.62044 -2.10898 0
M  V30 16897 H 1589.56 5.24734 -0.442882 0
M  V30 16898 H 1592.05 3.71013 -0.718156 0
M  V30 16899 H 1592.36 7.44347 -2.07769 0
M  V30 16900 H 1590.71 6.69598 -1.86183 0
M  V30 16901 H 1593.9 4.57894 -0.972145 0
M  V30 16902 H 1594.07 6.28143 -1.59188 0
M  V30 16903 N 1587.48 0.171848 1.5666 0
M  V30 16904 C 1588.9 -0.184312 1.58532 0
M  V30 16905 C 1589.1 -1.62811 1.18721 0
M  V30 16906 O 1588.15 -2.35951 0.899066 0
M  V30 16907 C 1589.46 0.0969826 3.00544 0
M  V30 16908 C 1591.01 0.0352364 3.1298 0
M  V30 16909 C 1591.49 0.289528 4.57084 0
M  V30 16910 N 1592.98 0.237322 4.62592 0
M  V30 16911 C 1593.71 0.408247 5.71945 0
M  V30 16912 N 1593.21 0.638256 6.89854 0
M  V30 16913 N 1595 0.344115 5.61046 0
M  V30 16914 H 1587.15 1.11427 1.80825 0
M  V30 16915 H 1589.42 0.44302 0.838115 0
M  V30 16916 H 1589.12 1.09717 3.34148 0
M  V30 16917 H 1589 -0.611157 3.72216 0
M  V30 16918 H 1591.38 -0.955531 2.79202 0
M  V30 16919 H 1591.46 0.776095 2.43743 0
M  V30 16920 H 1591.11 1.27751 4.91571 0
M  V30 16921 H 1591.04 -0.471948 5.24481 0
M  V30 16922 H 1593.53 0.0652142 3.77844 0
M  V30 16923 H 1593.84 0.758116 7.69072 0
M  V30 16924 H 1592.19 0.674877 6.91716 0
M  V30 16925 H 1595.38 0.165008 4.67809 0
M  V30 16926 H 1595.55 0.480749 6.46214 0
M  V30 16927 N 1588.96 -1.5727 -0.101874 0
M  V30 16928 C 1589.92 -2.00625 -1.10826 0
M  V30 16929 C 1590.92 -0.89878 -1.33336 0
M  V30 16930 O 1592.11 -1.16442 -1.29564 0
M  V30 16931 C 1589.24 -2.36113 -2.45893 0
M  V30 16932 H 1590.44 -2.90748 -0.735238 0
M  V30 16933 H 1587.99 -1.52406 -0.346713 0
M  V30 16934 H 1588.72 -1.48923 -2.88084 0
M  V30 16935 H 1588.51 -3.169 -2.30904 0
M  V30 16936 H 1590 -2.70336 -3.1829 0
M  V30 16937 N 1590.44 0.372521 -1.53134 0
M  V30 16938 C 1591.66 1.13668 -1.72879 0
M  V30 16939 C 1592.08 1.83246 -0.454588 0
M  V30 16940 O 1591.44 1.73302 0.572062 0
M  V30 16941 C 1591.49 2.17226 -2.88955 0
M  V30 16942 O 1591.21 1.50483 -4.11445 0
M  V30 16943 C 1592.71 3.06243 -3.20516 0
M  V30 16944 H 1589.93 0.340156 -0.57839 0
M  V30 16945 H 1592.47 0.433557 -1.99851 0
M  V30 16946 H 1590.63 2.83148 -2.64397 0
M  V30 16947 H 1591.04 2.19425 -4.76396 0
M  V30 16948 H 1592.52 3.74901 -4.05158 0
M  V30 16949 H 1592.99 3.70669 -2.35587 0
M  V30 16950 H 1593.6 2.45946 -3.46973 0
M  V30 16951 N 1591.91 1.44376 0.631925 0
M  V30 16952 C 1593.16 1.47335 1.39356 0
M  V30 16953 C 1593.49 0.10525 1.93915 0
M  V30 16954 O 1592.77 -0.877006 1.73605 0
M  V30 16955 C 1593.05 2.53308 2.55943 0
M  V30 16956 C 1592.9 3.99473 2.06739 0
M  V30 16957 C 1594.22 2.55794 3.58131 0
M  V30 16958 H 1591.34 0.536447 0.505365 0
M  V30 16959 H 1593.98 1.76051 0.714572 0
M  V30 16960 H 1592.13 2.28953 3.13868 0
M  V30 16961 H 1593.81 4.34958 1.53652 0
M  V30 16962 H 1592.05 4.11288 1.37929 0
M  V30 16963 H 1592.72 4.69269 2.90672 0
M  V30 16964 H 1595.2 2.77554 3.10005 0
M  V30 16965 H 1594.07 3.31847 4.37228 0
M  V30 16966 H 1594.33 1.59962 4.12146 0
M  V30 16967 N 1593.39 -0.872258 1.31261 0
M  V30 16968 C 1594.34 -2.00065 1.18645 0
M  V30 16969 C 1595.33 -1.69132 0.0952872 0
M  V30 16970 O 1596.54 -1.78156 0.257022 0
M  V30 16971 H 1592.91 -0.656201 0.367293 0
M  V30 16972 H 1594.89 -2.07837 2.14117 0
M  V30 16973 C 1593.63 -3.35628 0.908241 0
M  V30 16974 H 1592.96 -3.5995 1.74 0
M  V30 16975 H 1594.4 -4.15184 0.860134 0
M  V30 16976 C 1592.86 -3.34647 -0.388993 0
M  V30 16977 O 1593.39 -3.76271 -1.40651 0
M  V30 16978 N 1591.59 -2.87768 -0.404708 0
M  V30 16979 H 1591.14 -2.5409 0.423824 0
M  V30 16980 H 1591.1 -2.87494 -1.27258 0
M  V30 16981 N 1594.87 -1.14184 -1.08627 0
M  V30 16982 C 1596.1 -0.932104 -1.84714 0
M  V30 16983 C 1596.51 0.519335 -1.81517 0
M  V30 16984 O 1595.87 1.35978 -1.21722 0
M  V30 16985 C 1595.92 -1.42217 -3.3235 0
M  V30 16986 O 1595.64 -2.81674 -3.35547 0
M  V30 16987 C 1597.14 -1.25205 -4.25251 0
M  V30 16988 H 1594.36 -0.331854 -0.583193 0
M  V30 16989 H 1596.91 -1.51641 -1.37205 0
M  V30 16990 H 1595.06 -0.880679 -3.77257 0
M  V30 16991 H 1595.48 -3.03615 -4.2769 0
M  V30 16992 H 1596.95 -1.64358 -5.26963 0
M  V30 16993 H 1597.43 -0.194659 -4.38768 0
M  V30 16994 H 1598.03 -1.78198 -3.86168 0
M  V30 16995 N 1596.35 1.26749 -0.936613 0
M  V30 16996 C 1597.6 1.93964 -0.581754 0
M  V30 16997 C 1597.92 1.73532 0.878449 0
M  V30 16998 O 1597.18 1.06295 1.64316 0
M  V30 16999 C 1597.48 3.4678 -0.864789 0
M  V30 17000 C 1597.14 3.87344 -2.30815 0
M  V30 17001 C 1595.81 3.98129 -2.70271 0
M  V30 17002 C 1598.16 4.07752 -3.24634 0
M  V30 17003 C 1595.49 4.26717 -4.02653 0
M  V30 17004 C 1597.84 4.37827 -4.56607 0
M  V30 17005 C 1596.5 4.46826 -4.95886 0
M  V30 17006 H 1595.77 0.709763 -0.212879 0
M  V30 17007 H 1598.42 1.50648 -1.18226 0
M  V30 17008 H 1596.72 3.91378 -0.181699 0
M  V30 17009 H 1598.42 3.96942 -0.569065 0
M  V30 17010 H 1595.01 3.79492 -1.99207 0
M  V30 17011 H 1599.19 3.98852 -2.95349 0
M  V30 17012 H 1594.45 4.31895 -4.32755 0
M  V30 17013 H 1598.62 4.52565 -5.293 0
M  V30 17014 H 1596.25 4.68732 -5.98494 0
M  V30 17015 N 1597.83 0.703118 1.41046 0
M  V30 17016 C 1599.07 0.236818 2.00708 0
M  V30 17017 C 1599.4 -1.17008 1.55994 0
M  V30 17018 O 1598.67 -1.79094 0.793871 0
M  V30 17019 H 1597.25 0.0845643 0.742198 0
M  V30 17020 H 1599.91 0.905964 1.72564 0
M  V30 17021 H 1599 0.260141 3.11014 0
M  V30 17022 N 1599.3 -1.51086 0.448402 0
M  V30 17023 C 1600.53 -2.06293 -0.112531 0
M  V30 17024 C 1600.94 -1.31478 -1.36052 0
M  V30 17025 O 1600.29 -0.370897 -1.79917 0
M  V30 17026 C 1600.35 -3.56156 -0.489178 0
M  V30 17027 C 1600.01 -4.52302 0.653568 0
M  V30 17028 C 1601.01 -4.96909 1.52898 0
M  V30 17029 C 1598.69 -4.9527 0.837448 0
M  V30 17030 C 1600.69 -5.83165 2.57288 0
M  V30 17031 C 1598.37 -5.81314 1.8846 0
M  V30 17032 C 1599.37 -6.25161 2.75069 0
M  V30 17033 O 1599.06 -7.09495 3.77985 0
M  V30 17034 H 1598.79 -0.67597 -0.00641865 0
M  V30 17035 H 1601.35 -1.95515 0.629533 0
M  V30 17036 H 1599.58 -3.64757 -1.28411 0
M  V30 17037 H 1601.27 -3.93828 -0.982548 0
M  V30 17038 H 1602.03 -4.64399 1.3985 0
M  V30 17039 H 1597.91 -4.60676 0.172857 0
M  V30 17040 H 1601.45 -6.1731 3.24921 0
M  V30 17041 H 1597.35 -6.13236 2.01523 0
M  V30 17042 H 1598.12 -7.27697 3.74699 0
M  V30 17043 N 1600.78 -0.180154 -1.56567 0
M  V30 17044 C 1602.03 0.462656 -1.96322 0
M  V30 17045 C 1602.34 1.63788 -1.06925 0
M  V30 17046 O 1603.55 2.34751 -1.36398 0
M  V30 17047 C 1602.01 0.874492 -3.49114 0
M  V30 17048 C 1601.61 -0.27562 -4.47151 0
M  V30 17049 C 1603.36 1.48522 -3.9767 0
M  V30 17050 C 1601.27 0.156341 -5.91193 0
M  V30 17051 H 1600.2 0.176619 -0.733022 0
M  V30 17052 H 1602.85 -0.269793 -1.81506 0
M  V30 17053 H 1601.23 1.66318 -3.59381 0
M  V30 17054 H 1602.4 -1.05304 -4.48606 0
M  V30 17055 H 1600.72 -0.796878 -4.08704 0
M  V30 17056 H 1603.31 1.8206 -5.02751 0
M  V30 17057 H 1603.66 2.38634 -3.41115 0
M  V30 17058 H 1604.19 0.760806 -3.90457 0
M  V30 17059 H 1600.93 -0.710221 -6.51641 0
M  V30 17060 H 1600.45 0.898933 -5.93025 0
M  V30 17061 H 1602.13 0.597228 -6.44238 0
M  V30 17062 N 1602.26 1.57322 0.0935319 0
M  V30 17063 C 1603.22 2.0121 1.0976 0
M  V30 17064 C 1604.22 0.905839 1.32858 0
M  V30 17065 O 1605.41 1.17128 1.28945 0
M  V30 17066 C 1602.55 2.37414 2.44638 0
M  V30 17067 H 1603.74 2.91134 0.719809 0
M  V30 17068 H 1601.29 1.52588 0.338625 0
M  V30 17069 H 1602.03 1.50449 2.8729 0
M  V30 17070 H 1601.81 3.1812 2.2922 0
M  V30 17071 H 1603.3 2.7202 3.16851 0
M  V30 17072 N 1603.74 -0.364395 1.53329 0
M  V30 17073 C 1604.69 -1.44645 1.79851 0
M  V30 17074 C 1605.66 -1.53151 0.642951 0
M  V30 17075 O 1606.84 -1.6902 0.885252 0
M  V30 17076 C 1603.98 -2.81575 1.99523 0
M  V30 17077 C 1603.09 -2.82026 3.27239 0
M  V30 17078 C 1602.23 -4.1054 3.37091 0
M  V30 17079 C 1601.27 -4.05138 4.58835 0
M  V30 17080 N 1600.4 -5.25303 4.65834 0
M  V30 17081 H 1605.24 -1.21329 2.72182 0
M  V30 17082 H 1602.78 -0.588143 1.34831 0
M  V30 17083 H 1604.74 -3.61124 2.08915 0
M  V30 17084 H 1603.37 -3.03288 1.10527 0
M  V30 17085 H 1602.42 -1.94704 3.26794 0
M  V30 17086 H 1603.73 -2.73907 4.16865 0
M  V30 17087 H 1602.89 -4.98504 3.45801 0
M  V30 17088 H 1601.63 -4.21413 2.45483 0
M  V30 17089 H 1600.63 -3.1556 4.50224 0
M  V30 17090 H 1601.86 -3.95866 5.51785 0
M  V30 17091 H 1599.8 -5.36759 3.77128 0
M  V30 17092 H 1599.72 -5.19358 5.49367 0
M  V30 17093 H 1600.99 -6.15096 4.78829 0
M  V30 17094 N 1605.22 -1.44709 -0.62426 0
M  V30 17095 C 1606.18 -1.51738 -1.7178 0
M  V30 17096 C 1607.18 -0.398646 -1.5578 0
M  V30 17097 O 1608.37 -0.661525 -1.61151 0
M  V30 17098 C 1605.5 -1.39792 -3.1092 0
M  V30 17099 H 1606.69 -2.49154 -1.6692 0
M  V30 17100 H 1604.25 -1.31903 -0.838531 0
M  V30 17101 H 1604.98 -0.434955 -3.2137 0
M  V30 17102 H 1604.77 -2.20919 -3.2394 0
M  V30 17103 H 1606.26 -1.47706 -3.90606 0
M  V30 17104 N 1606.69 0.865285 -1.31722 0
M  V30 17105 C 1607.94 1.6135 -1.21033 0
M  V30 17106 C 1608.26 1.94253 0.229141 0
M  V30 17107 O 1609.46 2.67613 0.457771 0
M  V30 17108 C 1607.92 2.90898 -2.11912 0
M  V30 17109 C 1607.53 2.6546 -3.60881 0
M  V30 17110 C 1609.27 3.68898 -2.10035 0
M  V30 17111 C 1607.18 3.90943 -4.43754 0
M  V30 17112 H 1606.11 0.605418 -0.449428 0
M  V30 17113 H 1608.76 0.956335 -1.56609 0
M  V30 17114 H 1607.14 3.58014 -1.69239 0
M  V30 17115 H 1608.31 2.06721 -4.11829 0
M  V30 17116 H 1606.63 2.00806 -3.64782 0
M  V30 17117 H 1609.23 4.61995 -2.69193 0
M  V30 17118 H 1609.57 4.01813 -1.08865 0
M  V30 17119 H 1610.1 3.08671 -2.50932 0
M  V30 17120 H 1606.84 3.63176 -5.45696 0
M  V30 17121 H 1606.36 4.49116 -3.97561 0
M  V30 17122 H 1608.04 4.58784 -4.56208 0
M  V30 17123 N 1608.17 1.14759 1.0802 0
M  V30 17124 C 1609.42 0.916435 1.80127 0
M  V30 17125 C 1609.74 -0.558281 1.86837 0
M  V30 17126 O 1609.01 -1.40579 1.36434 0
M  V30 17127 H 1607.59 0.336066 0.667135 0
M  V30 17128 H 1610.25 1.44693 1.30576 0
M  V30 17129 H 1609.35 1.31986 2.82818 0
M  V30 17130 N 1609.65 -1.26251 0.943322 0
M  V30 17131 C 1611.06 -1.75591 0.634391 0
M  V30 17132 C 1611.41 -1.76812 -0.850406 0
M  V30 17133 O 1610.54 -1.38162 -1.66554 0
M  V30 17134 C 1611.13 -3.18871 1.14484 0
M  V30 17135 C 1609.69 -3.65817 0.886285 0
M  V30 17136 C 1608.84 -2.4523 1.2945 0
M  V30 17137 H 1611.79 -1.12297 1.12139 0
M  V30 17138 H 1611.81 -3.77205 0.499654 0
M  V30 17139 H 1611.32 -3.17951 2.22551 0
M  V30 17140 H 1609.42 -3.72165 -0.179913 0
M  V30 17141 H 1609.54 -4.54523 1.5148 0
M  V30 17142 H 1607.9 -2.44519 0.712919 0
M  V30 17143 H 1608.68 -2.47009 2.38415 0
M  V30 17144 N 1611.13 -0.710588 -1.40671 0
M  V30 17145 C 1612.08 -0.031353 -2.27978 0
M  V30 17146 C 1613.06 0.737643 -1.42995 0
M  V30 17147 O 1614.26 0.610666 -1.66132 0
M  V30 17148 C 1611.38 0.893329 -3.31473 0
M  V30 17149 C 1610.47 0.119785 -4.23931 0
M  V30 17150 N 1610.86 -0.894341 -4.9783 0
M  V30 17151 C 1609.16 0.353077 -4.446 0
M  V30 17152 C 1609.86 -1.3587 -5.6561 0
M  V30 17153 N 1608.84 -0.681786 -5.39308 0
M  V30 17154 H 1612.64 -0.808683 -2.82555 0
M  V30 17155 H 1610.15 -0.542734 -1.53063 0
M  V30 17156 H 1612.15 1.39521 -3.92861 0
M  V30 17157 H 1610.81 1.67009 -2.78457 0
M  V30 17158 H 1611.82 -1.27504 -5.01959 0
M  V30 17159 H 1608.5 1.10655 -4.02569 0
M  V30 17160 H 1609.89 -2.20108 -6.34825 0
M  V30 17161 N 1612.61 1.50847 -0.456408 0
M  V30 17162 C 1613.88 1.94907 0.164485 0
M  V30 17163 C 1614.26 1.39609 1.58343 0
M  V30 17164 O 1613.61 0.590971 2.20726 0
M  V30 17165 C 1613.82 3.48784 0.122794 0
M  V30 17166 C 1615.17 4.234 0.318964 0
M  V30 17167 O 1616.19 3.55638 0.20005 0
M  V30 17168 O 1615.05 5.43649 0.557507 0
M  V30 17169 H 1612.15 0.818298 0.119652 0
M  V30 17170 H 1614.69 1.61673 -0.515758 0
M  V30 17171 H 1613.47 3.81541 -0.868468 0
M  V30 17172 H 1613.09 3.88514 0.84513 0
M  V30 17173 N 1614.09 0.188454 1.56469 0
M  V30 17174 C 1615.33 -0.452728 1.97682 0
M  V30 17175 C 1615.66 -1.61729 1.07506 0
M  V30 17176 O 1614.94 -1.94094 0.125677 0
M  V30 17177 C 1615.22 -0.919257 3.48169 0
M  V30 17178 C 1615.08 0.246656 4.49123 0
M  V30 17179 C 1616.39 -1.78706 4.02184 0
M  V30 17180 H 1613.51 -0.16309 0.718729 0
M  V30 17181 H 1616.16 0.27804 1.87955 0
M  V30 17182 H 1614.31 -1.54195 3.5659 0
M  V30 17183 H 1615.98 0.884178 4.52747 0
M  V30 17184 H 1614.22 0.89948 4.24372 0
M  V30 17185 H 1614.89 -0.122179 5.51865 0
M  V30 17186 H 1617.37 -1.26196 3.96502 0
M  V30 17187 H 1616.24 -2.08247 5.07863 0
M  V30 17188 H 1616.5 -2.73891 3.47039 0
M  V30 17189 N 1615.56 -1.5737 -0.0851874 0
M  V30 17190 C 1616.49 -2.05796 -1.10319 0
M  V30 17191 C 1617.47 -0.948796 -1.4118 0
M  V30 17192 O 1618.66 -1.22069 -1.51039 0
M  V30 17193 C 1615.79 -2.49069 -2.42037 0
M  V30 17194 C 1614.74 -3.6374 -2.25561 0
M  V30 17195 C 1614.07 -3.93023 -3.62543 0
M  V30 17196 C 1615.37 -4.94274 -1.68793 0
M  V30 17197 H 1617.06 -2.91095 -0.700274 0
M  V30 17198 H 1614.61 -1.40039 -0.335405 0
M  V30 17199 H 1616.56 -2.81558 -3.13534 0
M  V30 17200 H 1615.29 -1.60781 -2.84283 0
M  V30 17201 H 1613.95 -3.31513 -1.56507 0
M  V30 17202 H 1613.59 -3.01887 -4.02335 0
M  V30 17203 H 1613.29 -4.70229 -3.52362 0
M  V30 17204 H 1614.82 -4.27995 -4.35491 0
M  V30 17205 H 1616.23 -5.25079 -2.30141 0
M  V30 17206 H 1614.63 -5.75711 -1.69344 0
M  V30 17207 H 1615.7 -4.80548 -0.648204 0
M  V30 17208 N 1617.04 0.356258 -1.53521 0
M  V30 17209 C 1618 1.41975 -1.79933 0
M  V30 17210 C 1619 1.46177 -0.669997 0
M  V30 17211 O 1620.19 1.46774 -0.938239 0
M  V30 17212 C 1617.33 2.81015 -1.92985 0
M  V30 17213 H 1618.52 1.19824 -2.74922 0
M  V30 17214 H 1616.07 0.589928 -1.4474 0
M  V30 17215 H 1616.81 3.08466 -1.00095 0
M  V30 17216 H 1616.59 2.79363 -2.75135 0
M  V30 17217 H 1618.08 3.58013 -2.1498 0
M  V30 17218 N 1618.52 1.45038 0.616577 0
M  V30 17219 C 1619.75 1.52094 1.40267 0
M  V30 17220 C 1620.16 0.150558 1.88199 0
M  V30 17221 O 1619.52 -0.846258 1.61693 0
M  V30 17222 C 1619.57 2.49786 2.61322 0
M  V30 17223 O 1619.29 3.81498 2.15385 0
M  V30 17224 C 1620.79 2.66451 3.54286 0
M  V30 17225 H 1618.01 0.515378 0.429681 0
M  V30 17226 H 1620.56 1.90141 0.752768 0
M  V30 17227 H 1618.71 2.14835 3.22373 0
M  V30 17228 H 1619.13 4.34374 2.93972 0
M  V30 17229 H 1620.6 3.38802 4.35795 0
M  V30 17230 H 1621.08 1.72177 4.04044 0
M  V30 17231 H 1621.68 3.02362 2.99095 0
M  V30 17232 N 1620 -0.858287 1.32179 0
M  V30 17233 C 1620.93 -1.98219 1.23415 0
M  V30 17234 C 1621.91 -1.69685 0.118779 0
M  V30 17235 O 1623.09 -1.91785 0.305342 0
M  V30 17236 C 1620.22 -3.33977 0.952725 0
M  V30 17237 C 1619.18 -3.76853 2.02894 0
M  V30 17238 C 1618.5 -5.10201 1.59999 0
M  V30 17239 C 1619.8 -3.92707 3.44352 0
M  V30 17240 H 1621.5 -2.05809 2.17446 0
M  V30 17241 H 1619.04 -0.988817 1.04682 0
M  V30 17242 H 1621 -4.12152 0.87798 0
M  V30 17243 H 1619.72 -3.26592 -0.023234 0
M  V30 17244 H 1618.38 -3.00926 2.09378 0
M  V30 17245 H 1618.03 -4.99268 0.61157 0
M  V30 17246 H 1617.73 -5.39859 2.32004 0
M  V30 17247 H 1619.25 -5.90873 1.53954 0
M  V30 17248 H 1620.67 -4.61246 3.40477 0
M  V30 17249 H 1619.06 -4.33779 4.14675 0
M  V30 17250 H 1620.13 -2.95731 3.8428 0
M  V30 17251 N 1621.48 -1.1533 -1.07409 0
M  V30 17252 C 1622.41 -0.872476 -2.16587 0
M  V30 17253 C 1623.39 0.176683 -1.6918 0
M  V30 17254 O 1624.57 0.0311826 -1.94175 0
M  V30 17255 C 1621.7 -0.360342 -3.45426 0
M  V30 17256 C 1620.66 -1.34611 -4.06281 0
M  V30 17257 C 1619.98 -0.692848 -5.30192 0
M  V30 17258 C 1621.28 -2.71191 -4.46378 0
M  V30 17259 H 1622.98 -1.78546 -2.40336 0
M  V30 17260 H 1620.52 -0.859895 -1.15507 0
M  V30 17261 H 1622.47 -0.151429 -4.21128 0
M  V30 17262 H 1621.2 0.588109 -3.21261 0
M  V30 17263 H 1619.86 -1.54137 -3.32622 0
M  V30 17264 H 1619.51 0.261732 -5.02319 0
M  V30 17265 H 1619.21 -1.35071 -5.71865 0
M  V30 17266 H 1620.73 -0.493695 -6.08601 0
M  V30 17267 H 1622.14 -2.55513 -5.13212 0
M  V30 17268 H 1620.54 -3.33345 -4.99 0
M  V30 17269 H 1621.61 -3.273 -3.57775 0
M  V30 17270 N 1622.95 1.25748 -0.950004 0
M  V30 17271 C 1623.9 2.28056 -0.457542 0
M  V30 17272 C 1624.9 1.62756 0.469776 0
M  V30 17273 O 1626.1 1.76623 0.347016 0
M  V30 17274 H 1622.48 0.740775 -0.129447 0
M  V30 17275 H 1624.45 2.66984 -1.33275 0
M  V30 17276 C 1623.2 3.46774 0.2536 0
M  V30 17277 H 1622.52 3.9725 -0.450808 0
M  V30 17278 H 1623.96 4.20255 0.562264 0
M  V30 17279 C 1622.42 3.02919 1.4745 0
M  V30 17280 O 1622.95 3.08527 2.57243 0
M  V30 17281 N 1621.15 2.58162 1.33419 0
M  V30 17282 H 1620.7 2.53799 0.440894 0
M  V30 17283 H 1620.66 2.29184 2.15226 0
M  V30 17284 N 1624.43 0.718038 1.40292 0
M  V30 17285 C 1625.38 0.0559466 2.32533 0
M  V30 17286 C 1626.37 -0.744365 1.5217 0
M  V30 17287 O 1627.58 -0.647458 1.67952 0
M  V30 17288 H 1623.95 -0.000710627 0.752 0
M  V30 17289 H 1625.93 0.850579 2.8602 0
M  V30 17290 C 1624.67 -0.849927 3.37152 0
M  V30 17291 H 1624 -0.243507 3.99058 0
M  V30 17292 H 1625.44 -1.28111 4.04183 0
M  V30 17293 C 1623.9 -1.9765 2.7283 0
M  V30 17294 O 1624.43 -3.06757 2.59351 0
M  V30 17295 N 1622.63 -1.76086 2.31176 0
M  V30 17296 H 1622.18 -0.873485 2.42339 0
M  V30 17297 H 1622.14 -2.51643 1.88477 0
M  V30 17298 N 1625.91 -1.50602 0.464402 0
M  V30 17299 C 1626.84 -2.31252 -0.323263 0
M  V30 17300 C 1627.82 -1.37856 -0.996476 0
M  V30 17301 O 1629.01 -1.66777 -0.994933 0
M  V30 17302 C 1626.14 -3.17414 -1.40945 0
M  V30 17303 C 1625.09 -4.19307 -0.858226 0
M  V30 17304 C 1624.42 -4.94164 -2.0422 0
M  V30 17305 C 1625.72 -5.22148 0.125921 0
M  V30 17306 H 1627.41 -2.97349 0.34983 0
M  V30 17307 H 1624.96 -1.42997 0.169685 0
M  V30 17308 H 1626.91 -3.72627 -1.96791 0
M  V30 17309 H 1625.63 -2.49189 -2.11122 0
M  V30 17310 H 1624.29 -3.65185 -0.321785 0
M  V30 17311 H 1623.94 -4.22417 -2.7308 0
M  V30 17312 H 1623.64 -5.63083 -1.67963 0
M  V30 17313 H 1625.16 -5.5221 -2.60569 0
M  V30 17314 H 1626.58 -5.72272 -0.343136 0
M  V30 17315 H 1624.98 -5.98749 0.402433 0
M  V30 17316 H 1626.05 -4.73307 1.05399 0
M  V30 17317 N 1627.39 -0.19675 -1.56367 0
M  V30 17318 C 1628.34 0.723461 -2.19168 0
M  V30 17319 C 1629.31 1.20856 -1.13943 0
M  V30 17320 O 1630.49 1.27215 -1.42201 0
M  V30 17321 C 1627.63 1.93669 -2.85633 0
M  V30 17322 C 1626.74 1.49281 -4.05388 0
M  V30 17323 C 1625.88 2.66167 -4.59705 0
M  V30 17324 C 1624.92 2.18393 -5.71814 0
M  V30 17325 N 1624.05 3.28462 -6.20529 0
M  V30 17326 H 1628.89 0.181169 -2.97449 0
M  V30 17327 H 1626.43 0.0776802 -1.46895 0
M  V30 17328 H 1628.39 2.64865 -3.22339 0
M  V30 17329 H 1627.02 2.45227 -2.09913 0
M  V30 17330 H 1626.07 0.676658 -3.74333 0
M  V30 17331 H 1627.38 1.10231 -4.86467 0
M  V30 17332 H 1626.54 3.45483 -4.98725 0
M  V30 17333 H 1625.28 3.08491 -3.77736 0
M  V30 17334 H 1624.28 1.37531 -5.32321 0
M  V30 17335 H 1625.51 1.77097 -6.55602 0
M  V30 17336 H 1623.45 3.70315 -5.41482 0
M  V30 17337 H 1623.37 2.93587 -6.96665 0
M  V30 17338 H 1624.64 4.07988 -6.64204 0
M  V30 17339 N 1628.87 1.57413 0.0768405 0
M  V30 17340 C 1630.11 1.87279 0.778099 0
M  V30 17341 C 1630.45 0.788359 1.77478 0
M  V30 17342 O 1629.72 -0.201876 1.9345 0
M  V30 17343 C 1630 3.27801 1.49059 0
M  V30 17344 C 1629.86 4.46892 0.510661 0
M  V30 17345 C 1631.18 3.66485 2.43674 0
M  V30 17346 H 1628.29 0.681159 0.281409 0
M  V30 17347 H 1630.94 1.89955 0.0413711 0
M  V30 17348 H 1629.09 3.2565 2.11859 0
M  V30 17349 H 1630.76 4.61165 -0.111734 0
M  V30 17350 H 1629 4.33449 -0.174445 0
M  V30 17351 H 1629.67 5.41985 1.04671 0
M  V30 17352 H 1632.15 3.69696 1.90955 0
M  V30 17353 H 1631.02 4.65706 2.90533 0
M  V30 17354 H 1631.29 2.96145 3.28254 0
M  V30 17355 N 1630.34 -0.348112 1.53707 0
M  V30 17356 C 1631.28 -1.44781 1.77682 0
M  V30 17357 C 1632.29 -1.4891 0.657997 0
M  V30 17358 O 1633.48 -1.52075 0.934635 0
M  V30 17359 C 1630.58 -2.83463 1.85747 0
M  V30 17360 C 1629.75 -3.02827 3.15618 0
M  V30 17361 C 1628.81 -4.21724 3.14698 0
M  V30 17362 O 1627.84 -4.16059 3.88437 0
M  V30 17363 N 1629.04 -5.3003 2.36746 0
M  V30 17364 H 1631.8 -1.24587 2.72577 0
M  V30 17365 H 1629.36 -0.537961 1.52701 0
M  V30 17366 H 1631.36 -3.6117 1.82589 0
M  V30 17367 H 1629.93 -2.96822 0.980595 0
M  V30 17368 H 1629.15 -2.1263 3.31937 0
M  V30 17369 H 1630.43 -3.12645 4.01411 0
M  V30 17370 H 1629.83 -5.375 1.7638 0
M  V30 17371 H 1628.39 -6.06247 2.39389 0
M  V30 17372 N 1631.82 -1.45363 -0.608876 0
M  V30 17373 C 1632.73 -1.56471 -1.74797 0
M  V30 17374 C 1633.75 -0.449225 -1.68101 0
M  V30 17375 O 1634.92 -0.709731 -1.8848 0
M  V30 17376 C 1631.99 -1.52714 -3.11254 0
M  V30 17377 C 1631.05 -2.75291 -3.29414 0
M  V30 17378 C 1630.28 -2.71704 -4.59361 0
M  V30 17379 O 1630.51 -1.78959 -5.41599 0
M  V30 17380 O 1629.44 -3.62886 -4.80205 0
M  V30 17381 H 1633.27 -2.52751 -1.68377 0
M  V30 17382 H 1630.85 -1.27859 -0.772808 0
M  V30 17383 H 1632.73 -1.53222 -3.92557 0
M  V30 17384 H 1631.41 -0.595858 -3.18169 0
M  V30 17385 H 1630.32 -2.80345 -2.47704 0
M  V30 17386 H 1631.65 -3.67541 -3.27375 0
M  V30 17387 N 1633.3 0.851265 -1.32632 0
M  V30 17388 C 1634.72 1.14 -1.11696 0
M  V30 17389 C 1634.92 2.0125 0.100327 0
M  V30 17390 O 1633.97 2.40013 0.784233 0
M  V30 17391 C 1635.29 1.81406 -2.39817 0
M  V30 17392 C 1636.83 1.94027 -2.45607 0
M  V30 17393 C 1637.31 2.64848 -3.73657 0
M  V30 17394 N 1638.8 2.7237 -3.74658 0
M  V30 17395 C 1639.53 3.27827 -4.70443 0
M  V30 17396 N 1639.03 3.84068 -5.76596 0
M  V30 17397 N 1640.82 3.25962 -4.57936 0
M  V30 17398 H 1632.97 0.270302 -2.10673 0
M  V30 17399 H 1635.24 0.182395 -0.930288 0
M  V30 17400 H 1634.94 1.24753 -3.28831 0
M  V30 17401 H 1634.82 2.81535 -2.51034 0
M  V30 17402 H 1637.2 2.49838 -1.5705 0
M  V30 17403 H 1637.29 0.928844 -2.3834 0
M  V30 17404 H 1636.93 2.09699 -4.62589 0
M  V30 17405 H 1636.86 3.66436 -3.78196 0
M  V30 17406 H 1639.35 2.32474 -2.97933 0
M  V30 17407 H 1639.66 4.24551 -6.45737 0
M  V30 17408 H 1638.01 3.82391 -5.80347 0
M  V30 17409 H 1641.2 2.81274 -3.74169 0
M  V30 17410 H 1641.37 3.68881 -5.32758 0
M  V30 17411 N 1634.78 1.15898 1.06796 0
M  V30 17412 C 1635.71 0.818654 2.14081 0
M  V30 17413 C 1636.72 -0.171847 1.6189 0
M  V30 17414 O 1637.91 0.052196 1.78424 0
M  V30 17415 C 1635.01 0.197283 3.38325 0
M  V30 17416 C 1634.19 1.22662 4.19849 0
M  V30 17417 C 1633.24 0.625985 5.22463 0
M  V30 17418 O 1632.27 1.29347 5.54309 0
M  V30 17419 N 1633.47 -0.589665 5.77497 0
M  V30 17420 H 1636.24 1.74196 2.43877 0
M  V30 17421 H 1633.8 1.05562 1.22753 0
M  V30 17422 H 1635.79 -0.217439 4.04115 0
M  V30 17423 H 1634.36 -0.629476 3.06197 0
M  V30 17424 H 1633.58 1.8177 3.49791 0
M  V30 17425 H 1634.87 1.92143 4.71125 0
M  V30 17426 H 1634.27 -1.15022 5.53883 0
M  V30 17427 H 1632.82 -0.946667 6.44889 0
M  V30 17428 N 1636.26 -1.25243 0.956659 0
M  V30 17429 C 1637.2 -2.2781 0.46963 0
M  V30 17430 C 1638.2 -1.63003 -0.461138 0
M  V30 17431 O 1639.4 -1.76805 -0.337644 0
M  V30 17432 H 1635.78 -0.740078 0.133374 0
M  V30 17433 H 1637.75 -2.66273 1.34689 0
M  V30 17434 C 1636.5 -3.46904 -0.235206 0
M  V30 17435 H 1635.82 -3.97006 0.471869 0
M  V30 17436 H 1637.26 -4.20548 -0.539969 0
M  V30 17437 C 1635.72 -3.03697 -1.45841 0
M  V30 17438 O 1636.25 -3.09887 -2.55603 0
M  V30 17439 N 1634.46 -2.58866 -1.32049 0
M  V30 17440 H 1634 -2.54029 -0.427428 0
M  V30 17441 H 1633.96 -2.30322 -2.14008 0
M  V30 17442 N 1637.73 -0.725468 -1.3991 0
M  V30 17443 C 1639.15 -0.400048 -1.54505 0
M  V30 17444 C 1639.35 1.09014 -1.69464 0
M  V30 17445 O 1638.41 1.87624 -1.68977 0
M  V30 17446 C 1639.72 -1.17474 -2.76804 0
M  V30 17447 C 1641.27 -1.16202 -2.9063 0
M  V30 17448 C 1641.74 -1.91908 -4.15855 0
M  V30 17449 N 1643.23 -1.89026 -4.22875 0
M  V30 17450 C 1643.97 -2.4442 -5.18697 0
M  V30 17451 N 1643.46 -3.0841 -6.20367 0
M  V30 17452 N 1645.26 -2.34506 -5.10846 0
M  V30 17453 H 1637.41 -1.6916 -1.28447 0
M  V30 17454 H 1639.67 -0.715556 -0.621839 0
M  V30 17455 H 1639.38 -2.22881 -2.72061 0
M  V30 17456 H 1639.25 -0.772871 -3.69197 0
M  V30 17457 H 1641.64 -0.116116 -2.94871 0
M  V30 17458 H 1641.72 -1.60319 -1.99327 0
M  V30 17459 H 1641.36 -2.96494 -4.12375 0
M  V30 17460 H 1641.29 -1.45204 -5.06185 0
M  V30 17461 H 1643.78 -1.42399 -3.50044 0
M  V30 17462 H 1644.1 -3.48169 -6.89926 0
M  V30 17463 H 1642.44 -3.12497 -6.20782 0
M  V30 17464 H 1645.63 -1.84164 -4.3035 0
M  V30 17465 H 1645.81 -2.77976 -5.85349 0
M  V30 17466 N 1639.21 1.50354 -0.472382 0
M  V30 17467 C 1640.46 2.02633 0.0822846 0
M  V30 17468 C 1640.79 1.35358 1.39254 0
M  V30 17469 O 1640.07 0.479714 1.88491 0
M  V30 17470 C 1640.35 3.59126 0.264742 0
M  V30 17471 C 1640.2 4.3697 -1.06663 0
M  V30 17472 C 1641.52 4.28148 1.01869 0
M  V30 17473 H 1638.64 0.736451 0.0284304 0
M  V30 17474 H 1641.28 1.79661 -0.618224 0
M  V30 17475 H 1639.43 3.7883 0.86141 0
M  V30 17476 H 1641.1 4.28834 -1.69997 0
M  V30 17477 H 1639.35 4.0066 -1.66295 0
M  V30 17478 H 1640.02 5.44736 -0.892592 0
M  V30 17479 H 1642.49 4.12926 0.512931 0
M  V30 17480 H 1641.37 5.37453 1.11515 0
M  V30 17481 H 1641.63 3.91406 2.05557 0
M  V30 17482 N 1640.69 0.205039 1.56261 0
M  V30 17483 C 1641.93 -0.433144 1.99758 0
M  V30 17484 C 1642.3 -1.58109 1.08929 0
M  V30 17485 O 1643.5 -2.28415 1.41703 0
M  V30 17486 C 1641.77 -0.872197 3.46594 0
M  V30 17487 S 1643.33 -1.50682 4.12117 0
M  V30 17488 H 1640.14 -0.138137 0.697452 0
M  V30 17489 H 1642.75 0.310446 1.93019 0
M  V30 17490 H 1641.45 -0.0267951 4.10391 0
M  V30 17491 H 1640.98 -1.64901 3.57171 0
M  V30 17492 H 1643 -2.79573 4.09943 0
M  V30 17493 N 1642.17 -1.57451 -0.0684915 0
M  V30 17494 C 1643.4 -1.9164 -0.779855 0
M  V30 17495 C 1643.81 -0.801309 -1.70952 0
M  V30 17496 O 1643.17 0.225134 -1.81106 0
M  V30 17497 C 1643.22 -3.25594 -1.57068 0
M  V30 17498 O 1642.94 -4.32816 -0.678385 0
M  V30 17499 C 1644.44 -3.73818 -2.38275 0
M  V30 17500 H 1641.66 -0.633374 -0.221537 0
M  V30 17501 H 1644.21 -2.04465 -0.0377746 0
M  V30 17502 H 1642.36 -3.14287 -2.26501 0
M  V30 17503 H 1642.78 -5.09903 -1.22877 0
M  V30 17504 H 1644.25 -4.70168 -2.89216 0
M  V30 17505 H 1644.73 -3.02995 -3.17947 0
M  V30 17506 H 1645.33 -3.88081 -1.73992 0
M  V30 17507 N 1643.65 0.339955 -1.5389 0
M  V30 17508 C 1644.88 1.09975 -1.75251 0
M  V30 17509 C 1645.29 1.8224 -0.493355 0
M  V30 17510 O 1644.65 1.74477 0.535173 0
M  V30 17511 C 1644.7 2.11048 -2.93498 0
M  V30 17512 O 1644.42 1.41721 -4.14544 0
M  V30 17513 C 1645.92 2.99375 -3.26939 0
M  V30 17514 H 1643.14 0.327811 -0.585475 0
M  V30 17515 H 1645.68 0.391068 -2.00726 0
M  V30 17516 H 1643.84 2.77476 -2.70344 0
M  V30 17517 H 1644.25 2.09271 -4.80943 0
M  V30 17518 H 1645.73 3.66223 -4.13019 0
M  V30 17519 H 1646.2 3.65588 -2.43397 0
M  V30 17520 H 1646.81 2.38531 -3.52112 0
M  V30 17521 N 1645.13 1.45684 0.601159 0
M  V30 17522 C 1646.37 1.50258 1.362 0
M  V30 17523 C 1646.7 0.146358 1.93648 0
M  V30 17524 O 1645.98 -0.839985 1.75427 0
M  V30 17525 C 1646.26 2.5868 2.50513 0
M  V30 17526 C 1646.12 4.03769 1.98219 0
M  V30 17527 C 1647.43 2.63332 3.52624 0
M  V30 17528 H 1644.55 0.547045 0.493873 0
M  V30 17529 H 1647.2 1.77527 0.677068 0
M  V30 17530 H 1645.35 2.35559 3.08941 0
M  V30 17531 H 1647.02 4.3812 1.44391 0
M  V30 17532 H 1645.26 4.14121 1.29174 0
M  V30 17533 H 1645.93 4.75329 2.80653 0
M  V30 17534 H 1648.41 2.84067 3.04048 0
M  V30 17535 H 1647.28 3.41047 4.30091 0
M  V30 17536 H 1647.54 1.68668 4.0866 0
M  V30 17537 N 1646.6 -0.84422 1.33082 0
M  V30 17538 C 1647.57 -1.93519 1.22813 0
M  V30 17539 C 1648.57 -1.60113 0.148516 0
M  V30 17540 O 1649.76 -1.69553 0.399668 0
M  V30 17541 C 1646.89 -3.29045 0.891179 0
M  V30 17542 H 1648.08 -2.04051 2.1978 0
M  V30 17543 H 1645.63 -1.03567 1.17063 0
M  V30 17544 H 1646.37 -3.2421 -0.0762276 0
M  V30 17545 H 1646.15 -3.54671 1.67186 0
M  V30 17546 H 1647.64 -4.08984 0.843932 0
M  V30 17547 N 1648.08 -1.16463 -1.0618 0
M  V30 17548 C 1649.33 -0.941322 -1.78387 0
M  V30 17549 C 1649.64 0.531995 -1.88226 0
M  V30 17550 O 1650.85 0.873227 -2.57074 0
M  V30 17551 C 1649.31 -1.63491 -3.20623 0
M  V30 17552 C 1648.91 -3.14607 -3.18946 0
M  V30 17553 C 1650.66 -1.49361 -3.97356 0
M  V30 17554 C 1648.56 -3.76698 -4.55908 0
M  V30 17555 H 1647.49 -0.348549 -0.668603 0
M  V30 17556 H 1650.15 -1.39607 -1.19088 0
M  V30 17557 H 1648.53 -1.10787 -3.80187 0
M  V30 17558 H 1649.7 -3.74164 -2.68957 0
M  V30 17559 H 1648.02 -3.28634 -2.55712 0
M  V30 17560 H 1650.61 -1.93131 -4.98603 0
M  V30 17561 H 1650.96 -0.442724 -4.13939 0
M  V30 17562 H 1651.49 -1.99227 -3.44316 0
M  V30 17563 H 1648.23 -4.8174 -4.4453 0
M  V30 17564 H 1647.75 -3.21927 -5.06086 0
M  V30 17565 H 1649.43 -3.78321 -5.24864 0
M  V30 17566 N 1649.56 1.24734 -0.963288 0
M  V30 17567 C 1650.52 2.23795 -0.494824 0
M  V30 17568 C 1651.52 1.55584 0.406225 0
M  V30 17569 O 1652.71 1.73021 0.202302 0
M  V30 17570 C 1649.84 3.39715 0.283963 0
M  V30 17571 H 1651.04 2.66753 -1.37051 0
M  V30 17572 H 1648.59 1.37271 -0.747428 0
M  V30 17573 H 1649.33 3.0219 1.17693 0
M  V30 17574 H 1649.11 3.9042 -0.362586 0
M  V30 17575 H 1650.6 4.13254 0.600899 0
M  V30 17576 N 1651.04 0.732878 1.39523 0
M  V30 17577 C 1652.29 0.276787 1.99792 0
M  V30 17578 C 1652.6 -1.14181 1.58814 0
M  V30 17579 O 1653.81 -1.69731 2.11905 0
M  V30 17580 C 1652.26 0.443924 3.57152 0
M  V30 17581 C 1651.87 1.87027 4.07093 0
M  V30 17582 C 1653.61 0.0495022 4.24471 0
M  V30 17583 C 1651.52 1.98708 5.57018 0
M  V30 17584 H 1650.45 0.0997337 0.747375 0
M  V30 17585 H 1653.1 0.906454 1.59548 0
M  V30 17586 H 1651.48 -0.254605 3.95181 0
M  V30 17587 H 1652.66 2.60059 3.80403 0
M  V30 17588 H 1650.97 2.21772 3.52429 0
M  V30 17589 H 1653.57 0.115815 5.34575 0
M  V30 17590 H 1653.91 -0.994967 4.04235 0
M  V30 17591 H 1654.45 0.69911 3.91609 0
M  V30 17592 H 1651.18 3.01336 5.82131 0
M  V30 17593 H 1650.7 1.30111 5.85518 0
M  V30 17594 H 1652.38 1.76725 6.22396 0
M  V30 17595 N 1652.52 -1.50101 0.480349 0
M  V30 17596 C 1653.76 -2.02674 -0.0715373 0
M  V30 17597 C 1654.09 -1.36095 -1.38535 0
M  V30 17598 O 1653.37 -0.489703 -1.88234 0
M  V30 17599 C 1653.65 -3.59261 -0.245693 0
M  V30 17600 C 1653.51 -4.36399 1.08979 0
M  V30 17601 C 1654.82 -4.28682 -0.995966 0
M  V30 17602 H 1651.94 -0.736592 -0.0245244 0
M  V30 17603 H 1654.59 -1.7933 0.627743 0
M  V30 17604 H 1652.74 -3.79281 -0.841308 0
M  V30 17605 H 1654.41 -4.27926 1.72269 0
M  V30 17606 H 1652.65 -3.99773 1.68417 0
M  V30 17607 H 1653.32 -5.44254 0.921468 0
M  V30 17608 H 1655.8 -4.13193 -0.491025 0
M  V30 17609 H 1654.67 -5.38037 -1.08663 0
M  V30 17610 H 1654.93 -3.92491 -2.03479 0
M  V30 17611 N 1653.99 -0.213323 -1.5615 0
M  V30 17612 C 1654.96 0.686579 -2.18675 0
M  V30 17613 C 1655.96 1.1277 -1.14628 0
M  V30 17614 O 1657.15 1.03783 -1.39909 0
M  V30 17615 C 1654.28 1.93954 -2.80347 0
M  V30 17616 H 1655.47 0.141578 -2.99566 0
M  V30 17617 H 1653.02 0.0362987 -1.56258 0
M  V30 17618 H 1653.76 2.52661 -2.03304 0
M  V30 17619 H 1653.54 1.63179 -3.56532 0
M  V30 17620 H 1655.03 2.58087 -3.283 0
M  V30 17621 N 1655.47 1.57485 0.0601405 0
M  V30 17622 C 1656.38 2.07853 1.08785 0
M  V30 17623 C 1657.4 1.01047 1.41653 0
M  V30 17624 O 1658.57 1.32592 1.51596 0
M  V30 17625 C 1655.64 2.52214 2.37885 0
M  V30 17626 C 1654.7 3.73369 2.11882 0
M  V30 17627 C 1653.93 4.15604 3.34827 0
M  V30 17628 O 1654.16 3.5761 4.44377 0
M  V30 17629 O 1653.09 5.08303 3.22353 0
M  V30 17630 H 1656.92 2.9576 0.689912 0
M  V30 17631 H 1654.5 1.46846 0.275065 0
M  V30 17632 H 1656.38 2.81216 3.1384 0
M  V30 17633 H 1655.06 1.67432 2.77035 0
M  V30 17634 H 1653.97 3.49433 1.33594 0
M  V30 17635 H 1655.3 4.59039 1.77606 0
M  V30 17636 N 1656.95 -0.331789 1.54068 0
M  V30 17637 C 1658.18 -1.09044 1.75832 0
M  V30 17638 C 1658.59 -1.81976 0.503012 0
M  V30 17639 O 1657.95 -1.74758 -0.525913 0
M  V30 17640 C 1658 -2.09489 2.94613 0
M  V30 17641 O 1657.72 -1.39521 4.1529 0
M  V30 17642 C 1659.22 -2.97637 3.28522 0
M  V30 17643 H 1656.44 -0.324701 0.587205 0
M  V30 17644 H 1658.99 -0.380417 2.00931 0
M  V30 17645 H 1657.14 -2.76038 2.71812 0
M  V30 17646 H 1657.56 -2.06717 4.82046 0
M  V30 17647 H 1659.03 -3.64027 4.14956 0
M  V30 17648 H 1659.51 -3.64292 2.45332 0
M  V30 17649 H 1660.11 -2.3666 3.53372 0
M  V30 17650 N 1658.43 -1.46001 -0.593424 0
M  V30 17651 C 1659.67 -1.52306 -1.36317 0
M  V30 17652 C 1660.03 -0.166331 -1.91278 0
M  V30 17653 O 1661.23 -0.104106 -2.68598 0
M  V30 17654 C 1659.5 -2.58303 -2.47011 0
M  V30 17655 S 1661.06 -2.83936 -3.34553 0
M  V30 17656 H 1657.88 -0.538241 -0.464562 0
M  V30 17657 H 1660.48 -1.8317 -0.683308 0
M  V30 17658 H 1659.19 -3.55528 -2.05007 0
M  V30 17659 H 1658.72 -2.29136 -3.19782 0
M  V30 17660 H 1660.73 -2.18391 -4.45556 0
M  V30 17661 N 1659.91 0.83715 -1.33527 0
M  V30 17662 C 1661.13 1.62976 -1.28271 0
M  V30 17663 C 1661.56 1.87554 0.143201 0
M  V30 17664 O 1660.91 1.44088 1.10038 0
M  V30 17665 C 1660.96 2.95607 -2.06516 0
M  V30 17666 O 1660.07 3.87 -1.42494 0
M  V30 17667 H 1659.41 0.496212 -0.441214 0
M  V30 17668 H 1661.94 1.04137 -1.76115 0
M  V30 17669 H 1661.95 3.4529 -2.17344 0
M  V30 17670 H 1660.62 2.77041 -3.10195 0
M  V30 17671 H 1659.2 3.45492 -1.40321 0
M  V30 17672 N 1661.38 1.17024 1.05561 0
M  V30 17673 C 1662.8 0.962856 1.59956 0
M  V30 17674 C 1663.15 -0.491388 1.89947 0
M  V30 17675 O 1662.27 -1.366 1.67838 0
M  V30 17676 C 1662.87 1.74146 2.90617 0
M  V30 17677 C 1661.43 1.57885 3.41686 0
M  V30 17678 C 1660.57 1.74548 2.15472 0
M  V30 17679 H 1663.52 1.31787 0.88419 0
M  V30 17680 H 1663.54 1.22165 3.60355 0
M  V30 17681 H 1663.06 2.79984 2.68758 0
M  V30 17682 H 1661.16 0.545207 3.6859 0
M  V30 17683 H 1661.27 2.36745 4.16519 0
M  V30 17684 H 1659.63 1.17356 2.26052 0
M  V30 17685 H 1660.42 2.81789 1.96087 0
M  V30 17686 N 1662.86 -1.24221 0.969889 0
M  V30 17687 C 1664.11 -1.92353 0.632976 0
M  V30 17688 C 1664.44 -1.75801 -0.832131 0
M  V30 17689 O 1663.69 -1.10614 -1.6144 0
M  V30 17690 C 1663.99 -3.44365 0.956427 0
M  V30 17691 C 1663.66 -3.81088 2.41003 0
M  V30 17692 C 1662.32 -3.90823 2.80732 0
M  V30 17693 C 1664.67 -3.99002 3.35331 0
M  V30 17694 C 1662 -4.15891 4.13825 0
M  V30 17695 C 1664.35 -4.25567 4.68055 0
M  V30 17696 C 1663.02 -4.33522 5.07558 0
M  V30 17697 H 1662.29 -0.703869 0.231622 0
M  V30 17698 H 1664.93 -1.47461 1.22179 0
M  V30 17699 H 1663.24 -3.90759 0.285402 0
M  V30 17700 H 1664.93 -3.95293 0.674107 0
M  V30 17701 H 1661.52 -3.74077 2.09199 0
M  V30 17702 H 1665.71 -3.90881 3.0582 0
M  V30 17703 H 1660.96 -4.2027 4.44053 0
M  V30 17704 H 1665.14 -4.38372 5.41113 0
M  V30 17705 H 1662.77 -4.52699 6.10711 0
M  V30 17706 N 1664.34 -0.740267 -1.39132 0
M  V30 17707 C 1665.57 -0.30093 -2.047 0
M  V30 17708 C 1665.98 1.0661 -1.5582 0
M  V30 17709 O 1665.34 1.67465 -0.725388 0
M  V30 17710 C 1665.39 -0.299574 -3.60257 0
M  V30 17711 O 1665.11 -1.61265 -4.07339 0
M  V30 17712 C 1666.61 0.155279 -4.43028 0
M  V30 17713 H 1663.83 -0.130652 -0.658157 0
M  V30 17714 H 1666.38 -1.00539 -1.78079 0
M  V30 17715 H 1664.53 0.356041 -3.8576 0
M  V30 17716 H 1664.95 -1.52977 -5.01695 0
M  V30 17717 H 1666.42 0.105068 -5.519 0
M  V30 17718 H 1666.9 1.20123 -4.22454 0
M  V30 17719 H 1667.5 -0.470965 -4.22684 0
M  V30 17720 N 1665.82 1.49844 -0.488302 0
M  V30 17721 C 1667.06 2.02709 0.060788 0
M  V30 17722 C 1667.4 1.36828 1.37811 0
M  V30 17723 O 1666.67 0.499679 1.87972 0
M  V30 17724 C 1666.96 3.59386 0.226637 0
M  V30 17725 C 1666.81 4.35814 -1.11292 0
M  V30 17726 C 1668.13 4.29204 0.973218 0
M  V30 17727 H 1665.25 0.736712 0.0206177 0
M  V30 17728 H 1667.89 1.78995 -0.637245 0
M  V30 17729 H 1666.04 3.79722 0.821182 0
M  V30 17730 H 1667.71 4.27007 -1.74536 0
M  V30 17731 H 1665.95 3.98874 -1.70535 0
M  V30 17732 H 1666.62 5.43758 -0.950319 0
M  V30 17733 H 1669.1 4.13447 0.469106 0
M  V30 17734 H 1667.98 5.38605 1.05809 0
M  V30 17735 H 1668.24 3.93564 2.01394 0
M  V30 17736 N 1667.3 0.221601 1.56034 0
M  V30 17737 C 1668.23 -0.683171 2.23282 0
M  V30 17738 C 1669.21 -1.20101 1.20456 0
M  V30 17739 O 1670.39 -1.245 1.49041 0
M  V30 17740 C 1667.52 -1.89143 2.91277 0
M  V30 17741 C 1666.48 -1.50742 4.00576 0
M  V30 17742 C 1665.8 -2.79446 4.55867 0
M  V30 17743 C 1667.1 -0.697388 5.17623 0
M  V30 17744 H 1668.8 -0.122488 2.99149 0
M  V30 17745 H 1666.34 -0.0574732 1.43885 0
M  V30 17746 H 1668.3 -2.52982 3.37013 0
M  V30 17747 H 1667.02 -2.47708 2.12858 0
M  V30 17748 H 1665.68 -0.892492 3.5557 0
M  V30 17749 H 1665.33 -3.36155 3.74177 0
M  V30 17750 H 1665.03 -2.54486 5.29633 0
M  V30 17751 H 1666.55 -3.44228 5.04321 0
M  V30 17752 H 1667.96 -1.23948 5.59741 0
M  V30 17753 H 1666.36 -0.544875 5.97621 0
M  V30 17754 H 1667.43 0.295981 4.83996 0
M  V30 17755 N 1668.77 -1.57515 -0.0517878 0
M  V30 17756 C 1670.19 -1.76755 -0.601218 0
M  V30 17757 C 1670.54 -0.849744 -1.76844 0
M  V30 17758 O 1669.66 -0.0387987 -2.16365 0
M  V30 17759 C 1670.26 -3.20534 -1.09743 0
M  V30 17760 C 1668.82 -3.41049 -1.59256 0
M  V30 17761 C 1667.96 -2.72369 -0.520618 0
M  V30 17762 H 1670.91 -1.57739 0.174429 0
M  V30 17763 H 1670.93 -3.25796 -1.96563 0
M  V30 17764 H 1670.45 -3.87309 -0.247696 0
M  V30 17765 H 1668.55 -2.79417 -2.46489 0
M  V30 17766 H 1668.66 -4.49581 -1.65572 0
M  V30 17767 H 1667.02 -2.3549 -0.97038 0
M  V30 17768 H 1667.81 -3.41812 0.319266 0
M  V30 17769 N 1670.25 0.323614 -1.54242 0
M  V30 17770 C 1671.22 1.38126 -1.82904 0
M  V30 17771 C 1672.22 1.44723 -0.700853 0
M  V30 17772 O 1673.41 1.44751 -0.969161 0
M  V30 17773 C 1670.54 2.76858 -1.98903 0
M  V30 17774 H 1671.73 1.13966 -2.77402 0
M  V30 17775 H 1669.28 0.559094 -1.45958 0
M  V30 17776 H 1670.02 3.06274 -1.06616 0
M  V30 17777 H 1669.8 2.73464 -2.80998 0
M  V30 17778 H 1671.29 3.53372 -2.22526 0
M  V30 17779 N 1671.73 1.46313 0.585673 0
M  V30 17780 C 1672.66 1.59511 1.70524 0
M  V30 17781 C 1673.64 0.445578 1.6416 0
M  V30 17782 O 1674.83 0.671455 1.82223 0
M  V30 17783 C 1671.96 1.58229 3.09162 0
M  V30 17784 C 1670.91 2.72122 3.30354 0
M  V30 17785 C 1670.24 2.559 4.69489 0
M  V30 17786 C 1671.54 4.13969 3.18476 0
M  V30 17787 H 1673.23 2.53229 1.59735 0
M  V30 17788 H 1670.78 1.2187 0.767046 0
M  V30 17789 H 1672.73 1.66056 3.87303 0
M  V30 17790 H 1671.45 0.610535 3.20843 0
M  V30 17791 H 1670.11 2.63759 2.54611 0
M  V30 17792 H 1669.76 1.56814 4.77931 0
M  V30 17793 H 1669.46 3.32289 4.84621 0
M  V30 17794 H 1670.99 2.65613 5.49802 0
M  V30 17795 H 1672.4 4.23459 3.86465 0
M  V30 17796 H 1670.8 4.90922 3.45131 0
M  V30 17797 H 1671.87 4.34334 2.15598 0
M  V30 17798 N 1673.21 -0.830057 1.33969 0
M  V30 17799 C 1674.14 -1.94534 1.19297 0
M  V30 17800 C 1675.12 -1.62371 0.0862986 0
M  V30 17801 O 1676.3 -1.86833 0.250152 0
M  V30 17802 C 1673.43 -3.28329 0.831718 0
M  V30 17803 C 1672.48 -3.79459 1.94713 0
M  V30 17804 S 1673.31 -4.00075 3.5595 0
M  V30 17805 C 1674.47 -5.36808 3.21851 0
M  V30 17806 H 1674.7 -2.06683 2.13704 0
M  V30 17807 H 1672.23 -0.984833 1.18913 0
M  V30 17808 H 1674.19 -4.05636 0.630076 0
M  V30 17809 H 1672.85 -3.1396 -0.0939047 0
M  V30 17810 H 1672.04 -4.76297 1.64795 0
M  V30 17811 H 1671.65 -3.09076 2.10589 0
M  V30 17812 H 1673.94 -6.19964 2.73223 0
M  V30 17813 H 1674.88 -5.71705 4.17802 0
M  V30 17814 H 1675.29 -5.0198 2.58217 0
M  V30 17815 N 1674.69 -1.17582 -1.04939 0
M  V30 17816 C 1675.64 -0.891102 -2.14854 0
M  V30 17817 C 1676.63 0.145242 -1.68776 0
M  V30 17818 O 1677.84 -0.00207978 -1.8 0
M  V30 17819 H 1674.21 -0.270641 -0.701611 0
M  V30 17820 H 1676.18 -1.82519 -2.36071 0
M  V30 17821 C 1674.93 -0.423679 -3.45109 0
M  V30 17822 H 1674.25 -1.2126 -3.80967 0
M  V30 17823 H 1675.69 -0.263369 -4.23181 0
M  V30 17824 C 1674.15 0.859085 -3.25763 0
M  V30 17825 O 1674.68 1.9253 -3.52555 0
M  V30 17826 N 1672.89 0.80824 -2.79134 0
M  V30 17827 H 1672.44 -0.0596431 -2.57531 0
M  V30 17828 H 1672.39 1.66697 -2.6657 0
M  V30 17829 N 1676.17 1.23705 -0.976463 0
M  V30 17830 C 1677.08 2.28728 -0.521605 0
M  V30 17831 C 1678.09 1.68813 0.421691 0
M  V30 17832 O 1679.27 1.99263 0.292579 0
M  V30 17833 C 1676.33 3.4627 0.172545 0
M  V30 17834 C 1675.39 4.21557 -0.811664 0
M  V30 17835 C 1674.63 5.33488 -0.150546 0
M  V30 17836 O 1674.85 5.60478 1.05926 0
M  V30 17837 O 1673.78 5.95909 -0.847132 0
M  V30 17838 H 1677.61 2.6977 -1.39491 0
M  V30 17839 H 1675.19 1.29562 -0.743909 0
M  V30 17840 H 1677.08 4.17634 0.562103 0
M  V30 17841 H 1675.75 3.07187 1.02067 0
M  V30 17842 H 1674.66 3.52533 -1.25185 0
M  V30 17843 H 1675.99 4.6448 -1.62848 0
M  V30 17844 N 1677.64 0.747635 1.38738 0
M  V30 17845 C 1678.87 0.311329 2.04241 0
M  V30 17846 C 1679.28 -1.06319 1.56502 0
M  V30 17847 O 1678.62 -1.68544 0.730669 0
M  V30 17848 C 1678.69 0.24882 3.58638 0
M  V30 17849 C 1678.35 1.5639 4.29408 0
M  V30 17850 C 1679.35 2.51198 4.55187 0
M  V30 17851 C 1677.03 1.83169 4.67712 0
M  V30 17852 C 1679.03 3.71009 5.18296 0
M  V30 17853 C 1676.71 3.03255 5.30546 0
M  V30 17854 C 1677.71 3.96996 5.55773 0
M  V30 17855 O 1677.4 5.14971 6.173 0
M  V30 17856 H 1677.13 0.131827 0.663022 0
M  V30 17857 H 1679.69 1.01572 1.78528 0
M  V30 17858 H 1677.92 -0.511769 3.83299 0
M  V30 17859 H 1679.6 -0.157174 4.05596 0
M  V30 17860 H 1680.37 2.31784 4.2603 0
M  V30 17861 H 1676.25 1.11044 4.47426 0
M  V30 17862 H 1679.79 4.44193 5.37902 0
M  V30 17863 H 1675.69 3.22565 5.59126 0
M  V30 17864 H 1676.46 5.15474 6.3579 0
M  V30 17865 N 1679.12 -1.49583 0.496242 0
M  V30 17866 C 1680.54 -1.58875 0.151907 0
M  V30 17867 C 1680.74 -1.50196 -1.34326 0
M  V30 17868 O 1679.79 -1.37344 -2.11879 0
M  V30 17869 C 1681.11 -2.91842 0.724478 0
M  V30 17870 C 1682.65 -3.05296 0.690157 0
M  V30 17871 C 1683.13 -4.40875 1.24071 0
M  V30 17872 N 1684.62 -4.47354 1.2012 0
M  V30 17873 C 1685.36 -5.50699 1.59743 0
M  V30 17874 N 1684.85 -6.61173 2.06936 0
M  V30 17875 N 1686.64 -5.41386 1.51189 0
M  V30 17876 H 1678.8 -1.53468 1.46838 0
M  V30 17877 H 1681.06 -0.726702 0.608776 0
M  V30 17878 H 1680.76 -3.03747 1.77287 0
M  V30 17879 H 1680.64 -3.7676 0.182209 0
M  V30 17880 H 1683.03 -2.93024 -0.34939 0
M  V30 17881 H 1683.11 -2.22074 1.26952 0
M  V30 17882 H 1682.75 -4.53898 2.27901 0
M  V30 17883 H 1682.68 -5.22729 0.637328 0
M  V30 17884 H 1685.17 -3.68092 0.855361 0
M  V30 17885 H 1685.48 -7.36122 2.35252 0
M  V30 17886 H 1683.83 -6.62226 2.10906 0
M  V30 17887 H 1687.02 -4.53971 1.14142 0
M  V30 17888 H 1687.19 -6.21802 1.82392 0
M  V30 17889 N 1680.6 -0.229873 -1.55915 0
M  V30 17890 C 1681.85 0.400157 -1.98813 0
M  V30 17891 C 1682.18 1.58821 -1.11756 0
M  V30 17892 O 1681.45 1.93692 -0.177094 0
M  V30 17893 C 1681.74 0.826623 -3.50484 0
M  V30 17894 C 1681.59 -0.365647 -4.48311 0
M  V30 17895 C 1682.91 1.6798 -4.06781 0
M  V30 17896 H 1680.03 0.143977 -0.7228 0
M  V30 17897 H 1682.67 -0.327775 -1.87151 0
M  V30 17898 H 1680.82 1.44687 -3.60552 0
M  V30 17899 H 1682.49 -1.00391 -4.50244 0
M  V30 17900 H 1680.73 -1.01168 -4.21838 0
M  V30 17901 H 1681.41 -0.0241816 -5.51995 0
M  V30 17902 H 1683.88 1.15639 -3.99708 0
M  V30 17903 H 1682.76 1.94708 -5.13206 0
M  V30 17904 H 1683.02 2.64594 -3.54179 0
M  V30 17905 N 1682.08 1.5754 0.0434337 0
M  V30 17906 C 1683.49 1.77071 0.591836 0
M  V30 17907 C 1683.84 0.85911 1.76391 0
M  V30 17908 O 1682.96 0.0502725 2.16342 0
M  V30 17909 C 1683.56 3.21111 1.08041 0
M  V30 17910 C 1682.12 3.41889 1.57445 0
M  V30 17911 C 1681.27 2.72641 0.506166 0
M  V30 17912 H 1684.22 1.57644 -0.182792 0
M  V30 17913 H 1684.24 3.26834 1.94833 0
M  V30 17914 H 1683.75 3.87435 0.227153 0
M  V30 17915 H 1681.85 2.80721 2.45003 0
M  V30 17916 H 1681.96 4.50452 1.63185 0
M  V30 17917 H 1680.33 2.36002 0.957878 0
M  V30 17918 H 1681.11 3.41638 -0.337389 0
M  V30 17919 N 1683.56 -0.31543 1.54411 0
M  V30 17920 C 1684.47 -1.41136 1.87397 0
M  V30 17921 C 1685.48 -1.56199 0.76668 0
M  V30 17922 O 1686.66 -1.71139 1.06176 0
M  V30 17923 C 1683.72 -2.75731 2.10174 0
M  V30 17924 C 1682.78 -2.69776 3.33945 0
M  V30 17925 C 1682.02 -3.97952 3.55626 0
M  V30 17926 O 1682.24 -4.96614 2.80589 0
M  V30 17927 O 1681.17 -4.00719 4.49119 0
M  V30 17928 H 1685 -1.16167 2.80605 0
M  V30 17929 H 1682.58 -0.510193 1.40419 0
M  V30 17930 H 1684.47 -3.55392 2.26439 0
M  V30 17931 H 1683.14 -3.00574 1.20154 0
M  V30 17932 H 1682.05 -1.88638 3.23058 0
M  V30 17933 H 1683.38 -2.49887 4.24049 0
M  V30 17934 N 1685.03 -1.46622 -0.577906 0
M  V30 17935 C 1685.96 -1.60413 -1.69676 0
M  V30 17936 C 1686.95 -0.454277 -1.63922 0
M  V30 17937 O 1688.13 -0.68111 -1.81864 0
M  V30 17938 C 1685.26 -1.59866 -3.08318 0
M  V30 17939 C 1684.21 -2.7387 -3.28906 0
M  V30 17940 C 1683.54 -2.58386 -4.68125 0
M  V30 17941 C 1684.84 -4.15652 -3.16276 0
M  V30 17942 H 1686.53 -2.54073 -1.5839 0
M  V30 17943 H 1684.08 -1.22275 -0.760572 0
M  V30 17944 H 1686.03 -1.68108 -3.86417 0
M  V30 17945 H 1684.76 -0.627541 -3.20514 0
M  V30 17946 H 1683.42 -2.65105 -2.53209 0
M  V30 17947 H 1683.06 -1.59347 -4.77093 0
M  V30 17948 H 1682.76 -3.34855 -4.82852 0
M  V30 17949 H 1684.29 -2.68525 -5.48385 0
M  V30 17950 H 1685.7 -4.25503 -3.84214 0
M  V30 17951 H 1684.1 -4.92746 -3.42523 0
M  V30 17952 H 1685.17 -4.35471 -2.13291 0
M  V30 17953 N 1686.51 0.822941 -1.34408 0
M  V30 17954 C 1687.46 1.95524 -1.25988 0
M  V30 17955 C 1688.45 1.68662 -0.157994 0
M  V30 17956 O 1689.66 1.77079 -0.322966 0
M  V30 17957 H 1686.04 0.642117 -0.391394 0
M  V30 17958 H 1688.01 1.99747 -2.21683 0
M  V30 17959 C 1686.76 3.32026 -1.03218 0
M  V30 17960 H 1686.08 3.53244 -1.87239 0
M  V30 17961 H 1687.52 4.11706 -1.01363 0
M  V30 17962 C 1685.98 3.3586 0.264523 0
M  V30 17963 O 1686.51 3.81232 1.26589 0
M  V30 17964 N 1684.71 2.89072 0.297626 0
M  V30 17965 H 1684.26 2.52341 -0.517836 0
M  V30 17966 H 1684.22 2.92019 1.165 0
M  V30 17967 N 1687.99 1.18137 1.04314 0
M  V30 17968 C 1689.24 0.976648 1.77734 0
M  V30 17969 C 1689.57 -0.492756 1.87844 0
M  V30 17970 O 1688.84 -1.36586 1.38472 0
M  V30 17971 C 1689.13 1.62911 3.21142 0
M  V30 17972 C 1688.98 3.1712 3.1899 0
M  V30 17973 C 1690.3 1.34029 4.19195 0
M  V30 17974 H 1687.42 0.356217 0.645197 0
M  V30 17975 H 1690.06 1.45767 1.21868 0
M  V30 17976 H 1688.21 1.22009 3.68844 0
M  V30 17977 H 1689.88 3.67139 2.79296 0
M  V30 17978 H 1688.13 3.4941 2.57089 0
M  V30 17979 H 1688.8 3.57907 4.20245 0
M  V30 17980 H 1691.27 1.69463 3.80028 0
M  V30 17981 H 1690.15 1.82253 5.1776 0
M  V30 17982 H 1690.41 0.262712 4.41319 0
M  V30 17983 N 1689.47 -1.23186 0.98301 0
M  V30 17984 C 1690.4 -2.24044 0.483426 0
M  V30 17985 C 1691.41 -1.57392 -0.416143 0
M  V30 17986 O 1692.6 -1.77141 -0.219861 0
M  V30 17987 C 1689.7 -3.37388 -0.319733 0
M  V30 17988 C 1688.88 -4.33623 0.57359 0
M  V30 17989 C 1687.93 -5.25905 -0.176165 0
M  V30 17990 O 1686.96 -5.67535 0.435099 0
M  V30 17991 N 1688.16 -5.61804 -1.46139 0
M  V30 17992 H 1690.93 -2.67539 1.35066 0
M  V30 17993 H 1688.49 -1.37384 0.856579 0
M  V30 17994 H 1690.48 -3.96103 -0.829719 0
M  V30 17995 H 1689.05 -2.93056 -1.08799 0
M  V30 17996 H 1688.27 -3.73373 1.26437 0
M  V30 17997 H 1689.56 -4.94873 1.18231 0
M  V30 17998 H 1688.96 -5.29936 -1.97949 0
M  V30 17999 H 1687.51 -6.22979 -1.91676 0
M  V30 18000 N 1690.95 -0.754982 -1.38339 0
M  V30 18001 C 1691.89 -0.117579 -2.32303 0
M  V30 18002 C 1692.89 0.703759 -1.5409 0
M  V30 18003 O 1694.09 0.602701 -1.6961 0
M  V30 18004 H 1690.47 -0.0192276 -0.751754 0
M  V30 18005 H 1692.44 -0.926113 -2.83665 0
M  V30 18006 C 1691.19 0.760239 -3.39287 0
M  V30 18007 H 1690.51 0.137619 -3.99563 0
M  V30 18008 H 1691.95 1.17349 -4.07437 0
M  V30 18009 C 1690.41 1.90347 -2.77974 0
M  V30 18010 O 1690.94 2.99773 -2.67393 0
M  V30 18011 N 1689.15 1.69895 -2.35763 0
M  V30 18012 H 1688.69 0.808926 -2.44569 0
M  V30 18013 H 1688.65 2.46557 -1.95082 0
M  V30 18014 N 1692.42 1.49318 -0.504168 0
M  V30 18015 C 1693.67 2.02062 0.039149 0
M  V30 18016 C 1693.99 1.38577 1.37191 0
M  V30 18017 O 1693.26 0.542179 1.88248 0
M  V30 18018 H 1691.84 0.746796 0.0174575 0
M  V30 18019 H 1694.51 1.83308 -0.66213 0
M  V30 18020 H 1693.6 3.11656 0.166496 0
M  V30 18021 N 1693.9 0.238138 1.5579 0
M  V30 18022 C 1695.15 -0.389608 1.99022 0
M  V30 18023 C 1695.48 -1.58226 1.12597 0
M  V30 18024 O 1694.76 -1.93595 0.187363 0
M  V30 18025 C 1695.04 -0.808025 3.50917 0
M  V30 18026 C 1694.89 0.389417 4.48111 0
M  V30 18027 C 1696.21 -1.6582 4.07666 0
M  V30 18028 H 1693.33 -0.140141 0.723553 0
M  V30 18029 H 1695.97 0.337696 1.86975 0
M  V30 18030 H 1694.12 -1.42772 3.61315 0
M  V30 18031 H 1695.79 1.02777 4.49705 0
M  V30 18032 H 1694.04 1.03404 4.21296 0
M  V30 18033 H 1694.71 0.0534549 5.51974 0
M  V30 18034 H 1697.18 -1.13518 4.00316 0
M  V30 18035 H 1696.06 -1.91984 5.14231 0
M  V30 18036 H 1696.32 -2.62712 3.55577 0
M  V30 18037 N 1695.38 -1.57561 -0.0350783 0
M  V30 18038 C 1696.31 -2.09201 -1.03716 0
M  V30 18039 C 1697.29 -0.993231 -1.3809 0
M  V30 18040 O 1698.48 -1.26812 -1.47079 0
M  V30 18041 C 1695.61 -2.56643 -2.3399 0
M  V30 18042 C 1694.56 -3.70731 -2.13874 0
M  V30 18043 C 1693.89 -4.04358 -3.49855 0
M  V30 18044 C 1695.19 -4.99393 -1.52982 0
M  V30 18045 H 1696.88 -2.93176 -0.60731 0
M  V30 18046 H 1694.43 -1.41036 -0.290683 0
M  V30 18047 H 1696.38 -2.9139 -3.04417 0
M  V30 18048 H 1695.1 -1.69744 -2.79024 0
M  V30 18049 H 1693.76 -3.36325 -1.45881 0
M  V30 18050 H 1693.41 -3.14534 -3.92527 0
M  V30 18051 H 1693.11 -4.81201 -3.37223 0
M  V30 18052 H 1694.63 -4.41633 -4.21654 0
M  V30 18053 H 1696.05 -5.32135 -2.13319 0
M  V30 18054 H 1694.45 -5.80807 -1.50943 0
M  V30 18055 H 1695.52 -4.82367 -0.494993 0
M  V30 18056 N 1696.86 0.307236 -1.54576 0
M  V30 18057 C 1697.81 1.3787 -1.85096 0
M  V30 18058 C 1698.78 1.5066 -0.69935 0
M  V30 18059 O 1699.96 1.65618 -0.947373 0
M  V30 18060 C 1697.1 2.73976 -2.09836 0
M  V30 18061 C 1696.21 2.69687 -3.3748 0
M  V30 18062 C 1695.35 3.97746 -3.52096 0
M  V30 18063 C 1694.39 3.87829 -4.73556 0
M  V30 18064 N 1693.52 5.07651 -4.8501 0
M  V30 18065 H 1698.36 1.11144 -2.76498 0
M  V30 18066 H 1695.9 0.537696 -1.36921 0
M  V30 18067 H 1697.86 3.53121 -2.22174 0
M  V30 18068 H 1696.49 2.98977 -1.21707 0
M  V30 18069 H 1695.54 1.82441 -3.33795 0
M  V30 18070 H 1696.85 2.58247 -4.26743 0
M  V30 18071 H 1696.01 4.85327 -3.64065 0
M  V30 18072 H 1694.75 4.12012 -2.60955 0
M  V30 18073 H 1693.75 2.98633 -4.61626 0
M  V30 18074 H 1694.98 3.75114 -5.66098 0
M  V30 18075 H 1692.92 5.22393 -3.9679 0
M  V30 18076 H 1692.84 4.9861 -5.68264 0
M  V30 18077 H 1694.11 5.969 -5.01328 0
M  V30 18078 N 1698.34 1.46926 0.570122 0
M  V30 18079 C 1699.56 1.56722 1.35841 0
M  V30 18080 C 1699.99 0.213314 1.86887 0
M  V30 18081 O 1699.34 -0.808694 1.62265 0
M  V30 18082 C 1699.39 2.5859 2.51323 0
M  V30 18083 O 1698.5 2.12966 3.53156 0
M  V30 18084 H 1697.84 0.526929 0.404032 0
M  V30 18085 H 1700.37 1.92603 0.690308 0
M  V30 18086 H 1700.38 2.78601 2.9807 0
M  V30 18087 H 1699.05 3.56903 2.13525 0
M  V30 18088 H 1697.63 2.02999 3.12803 0
M  V30 18089 N 1699.82 -0.815801 1.34842 0
M  V30 18090 C 1700.75 -1.94193 1.29659 0
M  V30 18091 C 1701.73 -1.69221 0.172703 0
M  V30 18092 O 1702.91 -1.90716 0.366203 0
M  V30 18093 C 1700.04 -3.30777 1.0585 0
M  V30 18094 C 1699 -3.70207 2.1478 0
M  V30 18095 C 1698.32 -5.04852 1.76149 0
M  V30 18096 C 1699.62 -3.81553 3.56671 0
M  V30 18097 H 1701.32 -1.98787 2.23884 0
M  V30 18098 H 1698.86 -0.955013 1.07775 0
M  V30 18099 H 1700.81 -4.0915 1.00866 0
M  V30 18100 H 1699.54 -3.265 0.0806804 0
M  V30 18101 H 1698.2 -2.94113 2.18845 0
M  V30 18102 H 1697.85 -4.9707 0.770099 0
M  V30 18103 H 1697.55 -5.32205 2.49062 0
M  V30 18104 H 1699.07 -5.85676 1.72674 0
M  V30 18105 H 1700.48 -4.50181 3.54979 0
M  V30 18106 H 1698.88 -4.20367 4.28266 0
M  V30 18107 H 1699.95 -2.83356 3.93494 0
M  V30 18108 N 1701.29 -1.18689 -1.03686 0
M  V30 18109 C 1702.52 -1.01024 -1.81132 0
M  V30 18110 C 1702.94 0.436584 -1.82963 0
M  V30 18111 O 1702.3 1.31343 -1.24975 0
M  V30 18112 C 1702.35 -1.5742 -3.24424 0
M  V30 18113 O 1701.45 -0.79813 -4.04603 0
M  V30 18114 H 1700.79 -0.357623 -0.559465 0
M  V30 18115 H 1703.32 -1.57532 -1.30556 0
M  V30 18116 H 1703.33 -1.60295 -3.75193 0
M  V30 18117 H 1702.01 -2.6273 -3.22406 0
M  V30 18118 H 1700.59 -0.842 -3.6327 0
M  V30 18119 N 1702.77 1.22662 -0.989529 0
M  V30 18120 C 1704.02 1.91322 -0.663497 0
M  V30 18121 C 1704.35 1.77102 0.804057 0
M  V30 18122 O 1703.6 1.13169 1.5966 0
M  V30 18123 C 1703.9 3.428 -1.01109 0
M  V30 18124 C 1703.57 3.77206 -2.47035 0
M  V30 18125 C 1702.23 3.86308 -2.86914 0
M  V30 18126 C 1704.58 3.93617 -3.41636 0
M  V30 18127 C 1701.91 4.09255 -4.20389 0
M  V30 18128 C 1704.26 4.18067 -4.74766 0
M  V30 18129 C 1702.92 4.25392 -5.14391 0
M  V30 18130 H 1702.19 0.700095 -0.242791 0
M  V30 18131 H 1704.84 1.45498 -1.24509 0
M  V30 18132 H 1703.15 3.90256 -0.347533 0
M  V30 18133 H 1704.84 3.94171 -0.736909 0
M  V30 18134 H 1701.43 3.70702 -2.15123 0
M  V30 18135 H 1705.62 3.85966 -3.12 0
M  V30 18136 H 1700.87 4.13152 -4.50683 0
M  V30 18137 H 1705.05 4.29708 -5.48018 0
M  V30 18138 H 1702.67 4.42926 -6.17835 0
M  V30 18139 N 1704.25 0.762308 1.37937 0
M  V30 18140 C 1705.18 0.156036 2.32978 0
M  V30 18141 C 1706.16 -0.693795 1.55308 0
M  V30 18142 O 1707.35 -0.633195 1.83587 0
M  V30 18143 C 1704.48 -0.731199 3.39515 0
M  V30 18144 C 1703.43 0.0165834 4.27997 0
M  V30 18145 C 1702.76 -0.989476 5.25465 0
M  V30 18146 C 1704.06 1.19009 5.08561 0
M  V30 18147 H 1705.75 0.949978 2.83929 0
M  V30 18148 H 1703.3 0.458269 1.36513 0
M  V30 18149 H 1705.25 -1.16507 4.04974 0
M  V30 18150 H 1703.97 -1.55756 2.87067 0
M  V30 18151 H 1702.63 0.431128 3.64056 0
M  V30 18152 H 1702.28 -1.81013 4.69301 0
M  V30 18153 H 1701.98 -0.493738 5.85522 0
M  V30 18154 H 1703.5 -1.42248 5.93799 0
M  V30 18155 H 1704.92 0.833336 5.67211 0
M  V30 18156 H 1703.31 1.61727 5.77896 0
M  V30 18157 H 1704.38 1.99879 4.41788 0
M  V30 18158 N 1705.73 -1.49049 0.51208 0
M  V30 18159 C 1706.97 -2.0248 -0.0284889 0
M  V30 18160 C 1707.3 -1.39082 -1.35965 0
M  V30 18161 O 1706.56 -0.519593 -1.88676 0
M  V30 18162 C 1706.86 -3.56734 -0.218125 0
M  V30 18163 C 1706.52 -4.38827 1.03643 0
M  V30 18164 C 1705.18 -4.60979 1.38029 0
M  V30 18165 C 1707.54 -4.86505 1.86982 0
M  V30 18166 C 1704.86 -5.28055 2.55686 0
M  V30 18167 C 1707.22 -5.54876 3.03801 0
M  V30 18168 C 1705.88 -5.75271 3.38555 0
M  V30 18169 H 1705.15 -0.740927 -0.0104248 0
M  V30 18170 H 1707.8 -1.79229 0.674481 0
M  V30 18171 H 1706.1 -3.78725 -1.00372 0
M  V30 18172 H 1707.8 -3.9568 -0.651013 0
M  V30 18173 H 1704.39 -4.21833 0.758594 0
M  V30 18174 H 1708.57 -4.69209 1.61729 0
M  V30 18175 H 1703.83 -5.42046 2.82837 0
M  V30 18176 H 1708 -5.90793 3.68696 0
M  V30 18177 H 1705.63 -6.2702 4.29825 0
M  V30 18178 N 1707.21 -0.246397 -1.55662 0
M  V30 18179 C 1708.12 0.664125 -2.25003 0
M  V30 18180 C 1709.13 1.19368 -1.26598 0
M  V30 18181 O 1710.31 1.23006 -1.59473 0
M  V30 18182 C 1707.37 1.8446 -2.93557 0
M  V30 18183 C 1706.43 1.35456 -4.0737 0
M  V30 18184 C 1705.67 2.47877 -4.72645 0
M  V30 18185 O 1705.89 3.66594 -4.36995 0
M  V30 18186 O 1704.82 2.17663 -5.61165 0
M  V30 18187 H 1708.65 0.103277 -3.03524 0
M  V30 18188 H 1706.23 -0.0149207 -1.49393 0
M  V30 18189 H 1708.12 2.53349 -3.36737 0
M  V30 18190 H 1706.79 2.39308 -2.17976 0
M  V30 18191 H 1705.7 0.632958 -3.68706 0
M  V30 18192 H 1707.03 0.852175 -4.84767 0
M  V30 18193 N 1708.68 1.57577 0.026722 0
M  V30 18194 C 1709.91 1.93359 0.727714 0
M  V30 18195 C 1710.32 0.844761 1.69294 0
M  V30 18196 O 1709.66 -0.187342 1.82742 0
M  V30 18197 C 1709.73 3.24958 1.53761 0
M  V30 18198 C 1709.39 4.5102 0.736909 0
M  V30 18199 C 1710.39 5.19887 0.036166 0
M  V30 18200 C 1708.07 4.97528 0.690759 0
M  V30 18201 C 1710.07 6.33545 -0.700003 0
M  V30 18202 C 1707.75 6.1108 -0.0491539 0
M  V30 18203 C 1708.75 6.78943 -0.743293 0
M  V30 18204 O 1708.44 7.90324 -1.47119 0
M  V30 18205 H 1708.17 0.642747 0.209408 0
M  V30 18206 H 1710.73 2.05396 -0.0124135 0
M  V30 18207 H 1708.96 3.09254 2.32161 0
M  V30 18208 H 1710.64 3.46049 2.12144 0
M  V30 18209 H 1711.41 4.84959 0.0628368 0
M  V30 18210 H 1707.29 4.44549 1.22055 0
M  V30 18211 H 1710.83 6.86448 -1.24235 0
M  V30 18212 H 1706.73 6.45453 -0.0777396 0
M  V30 18213 H 1707.5 8.06695 -1.38511 0
M  V30 18214 N 1710.16 -0.299034 1.54737 0
M  V30 18215 C 1711.41 -1.03164 1.7332 0
M  V30 18216 C 1711.72 -1.88362 0.527184 0
M  V30 18217 O 1712.93 -2.64903 0.594868 0
M  V30 18218 C 1711.39 -1.88391 3.06654 0
M  V30 18219 C 1710.99 -1.08187 4.34741 0
M  V30 18220 C 1712.74 -2.6124 3.34595 0
M  V30 18221 C 1710.64 -1.92702 5.59124 0
M  V30 18222 H 1709.57 -0.388887 0.645975 0
M  V30 18223 H 1712.23 -0.288544 1.81217 0
M  V30 18224 H 1710.61 -2.66696 2.92727 0
M  V30 18225 H 1711.78 -0.344817 4.59508 0
M  V30 18226 H 1710.1 -0.469118 4.13749 0
M  V30 18227 H 1712.69 -3.24826 4.24726 0
M  V30 18228 H 1713.04 -3.30172 2.53559 0
M  V30 18229 H 1713.57 -1.89982 3.49502 0
M  V30 18230 H 1710.31 -1.28236 6.42834 0
M  V30 18231 H 1709.83 -2.64074 5.38539 0
M  V30 18232 H 1711.51 -2.50702 5.96454 0
M  V30 18233 N 1711.64 -1.47227 -0.562322 0
M  V30 18234 C 1712.89 -1.53286 -1.31712 0
M  V30 18235 C 1713.21 -0.194583 -1.94027 0
M  V30 18236 O 1712.48 0.780961 -1.7966 0
M  V30 18237 H 1711.06 -0.564621 -0.489094 0
M  V30 18238 H 1713.72 -1.83492 -0.657024 0
M  V30 18239 H 1712.82 -2.29665 -2.1133 0
M  V30 18240 N 1713.12 0.808639 -1.35273 0
M  V30 18241 C 1714.03 1.95198 -1.30134 0
M  V30 18242 C 1715.04 1.72769 -0.206587 0
M  V30 18243 O 1716.22 1.96633 -0.4356 0
M  V30 18244 C 1713.28 3.29747 -1.07087 0
M  V30 18245 C 1712.35 3.65086 -2.25855 0
M  V30 18246 C 1711.58 4.93215 -2.03898 0
M  V30 18247 O 1711.8 5.61487 -1.00439 0
M  V30 18248 O 1710.74 5.26765 -2.91208 0
M  V30 18249 H 1714.56 2.0248 -2.26353 0
M  V30 18250 H 1712.15 0.946124 -1.15624 0
M  V30 18251 H 1714.03 4.10302 -0.960734 0
M  V30 18252 H 1712.7 3.23401 -0.139177 0
M  V30 18253 H 1711.61 2.84917 -2.42432 0
M  V30 18254 H 1712.94 3.76135 -3.17464 0
M  V30 18255 N 1714.6 1.19237 1.03055 0
M  V30 18256 C 1715.53 0.871947 2.10885 0
M  V30 18257 C 1716.51 -0.170311 1.61706 0
M  V30 18258 O 1717.69 -0.0469972 1.88441 0
M  V30 18259 C 1714.82 0.304639 3.37327 0
M  V30 18260 C 1713.86 1.32569 4.05374 0
M  V30 18261 S 1714.7 2.88551 4.51108 0
M  V30 18262 C 1715.85 2.33359 5.8077 0
M  V30 18263 H 1716.09 1.78514 2.37739 0
M  V30 18264 H 1713.62 1.01933 1.1597 0
M  V30 18265 H 1715.58 -0.0161522 4.10497 0
M  V30 18266 H 1714.24 -0.586834 3.08569 0
M  V30 18267 H 1713.43 0.877829 4.96296 0
M  V30 18268 H 1713.03 1.59323 3.38367 0
M  V30 18269 H 1715.33 1.7225 6.55238 0
M  V30 18270 H 1716.27 3.22622 6.30334 0
M  V30 18271 H 1716.68 1.75999 5.36362 0
M  V30 18272 N 1716.07 -1.22136 0.99602 0
M  V30 18273 C 1717.32 -1.9059 0.672303 0
M  V30 18274 C 1717.64 -1.77903 -0.798476 0
M  V30 18275 O 1716.91 -1.1682 -1.57257 0
M  V30 18276 H 1715.49 -0.705445 0.245676 0
M  V30 18277 H 1718.16 -1.48423 1.2632 0
M  V30 18278 H 1717.25 -2.97684 0.937577 0
M  V30 18279 N 1717.55 -0.769612 -1.37531 0
M  V30 18280 C 1718.5 -0.152627 -2.30295 0
M  V30 18281 C 1719.47 0.692154 -1.50992 0
M  V30 18282 O 1720.65 0.64496 -1.79569 0
M  V30 18283 C 1717.79 0.72217 -3.37459 0
M  V30 18284 C 1716.91 -0.138985 -4.31776 0
M  V30 18285 C 1716.04 0.740317 -5.26016 0
M  V30 18286 C 1715.08 -0.1235 -6.11975 0
M  V30 18287 N 1714.22 0.713658 -6.98464 0
M  V30 18288 H 1719.06 -0.949218 -2.82478 0
M  V30 18289 H 1716.6 -0.479697 -1.39059 0
M  V30 18290 H 1718.55 1.24415 -3.98217 0
M  V30 18291 H 1717.18 1.48438 -2.86646 0
M  V30 18292 H 1716.24 -0.778756 -3.72343 0
M  V30 18293 H 1717.55 -0.805402 -4.92255 0
M  V30 18294 H 1716.7 1.32887 -5.91968 0
M  V30 18295 H 1715.44 1.44042 -4.65943 0
M  V30 18296 H 1714.45 -0.7246 -5.45004 0
M  V30 18297 H 1715.67 -0.820907 -6.7412 0
M  V30 18298 H 1713.62 1.39842 -6.40921 0
M  V30 18299 H 1713.53 0.104492 -7.55928 0
M  V30 18300 H 1714.8 1.28667 -7.68808 0
M  V30 18301 N 1719.03 1.48775 -0.519977 0
M  V30 18302 C 1720.31 1.95429 0.0816701 0
M  V30 18303 C 1720.69 1.46199 1.52279 0
M  V30 18304 O 1720.04 0.684057 2.1802 0
M  V30 18305 C 1720.25 3.48991 -0.0252472 0
M  V30 18306 C 1721.59 4.24372 0.139099 0
M  V30 18307 O 1722.62 3.56166 0.0490322 0
M  V30 18308 O 1721.48 5.45524 0.326426 0
M  V30 18309 H 1718.57 0.822637 0.0848378 0
M  V30 18310 H 1721.12 1.5934 -0.583865 0
M  V30 18311 H 1719.89 3.77514 -1.02951 0
M  V30 18312 H 1719.51 3.91749 0.679588 0
M  V30 18313 N 1720.51 0.254649 1.55529 0
M  V30 18314 C 1721.74 -0.371317 2.03236 0
M  V30 18315 C 1722.15 -1.5152 1.13306 0
M  V30 18316 O 1721.49 -1.83154 0.141468 0
M  V30 18317 C 1721.55 -0.933614 3.47166 0
M  V30 18318 C 1721.22 0.0790139 4.56932 0
M  V30 18319 C 1722.21 0.891314 5.12203 0
M  V30 18320 C 1719.9 0.207343 5.01872 0
M  V30 18321 C 1721.89 1.81833 6.10914 0
M  V30 18322 C 1719.58 1.13785 6.00413 0
M  V30 18323 C 1720.58 1.94186 6.54813 0
M  V30 18324 O 1720.26 2.85667 7.51432 0
M  V30 18325 H 1720 -0.0914583 0.669785 0
M  V30 18326 H 1722.55 0.378413 2.01884 0
M  V30 18327 H 1720.78 -1.73305 3.45691 0
M  V30 18328 H 1722.47 -1.47048 3.78327 0
M  V30 18329 H 1723.24 0.802797 4.7831 0
M  V30 18330 H 1719.11 -0.408414 4.59187 0
M  V30 18331 H 1722.66 2.4463 6.53301 0
M  V30 18332 H 1718.56 1.22726 6.33726 0
M  V30 18333 H 1719.32 2.80116 7.69075 0
M  V30 18334 N 1721.99 -1.57589 -0.0183649 0
M  V30 18335 C 1723.24 -1.88937 -0.706105 0
M  V30 18336 C 1723.55 -0.854565 -1.75945 0
M  V30 18337 O 1724.75 -1.05763 -2.50053 0
M  V30 18338 C 1723.21 -3.35329 -1.307 0
M  V30 18339 C 1722.82 -4.47064 -0.289444 0
M  V30 18340 C 1724.56 -3.75811 -1.97399 0
M  V30 18341 C 1722.47 -5.84523 -0.899288 0
M  V30 18342 H 1721.4 -0.704959 -0.267486 0
M  V30 18343 H 1724.05 -1.83458 0.0391685 0
M  V30 18344 H 1722.43 -3.35586 -2.10233 0
M  V30 18345 H 1723.61 -4.58294 0.479958 0
M  V30 18346 H 1721.92 -4.15484 0.276066 0
M  V30 18347 H 1724.52 -4.75834 -2.43898 0
M  V30 18348 H 1724.86 -3.08362 -2.79676 0
M  V30 18349 H 1725.39 -3.77774 -1.24626 0
M  V30 18350 H 1722.13 -6.55398 -0.11571 0
M  V30 18351 H 1721.65 -5.76993 -1.63828 0
M  V30 18352 H 1723.33 -6.31595 -1.40344 0
M  V30 18353 N 1723.46 0.290824 -1.54893 0
M  V30 18354 C 1724.69 1.04193 -1.78402 0
M  V30 18355 C 1725.1 1.81071 -0.548631 0
M  V30 18356 O 1724.45 1.77005 0.491403 0
M  V30 18357 C 1724.51 2.06122 -2.94541 0
M  V30 18358 C 1724.17 1.48346 -4.32253 0
M  V30 18359 C 1725.17 0.908243 -5.11905 0
M  V30 18360 C 1722.85 1.51602 -4.78876 0
M  V30 18361 C 1724.85 0.373282 -6.36306 0
M  V30 18362 C 1722.53 0.977194 -6.03236 0
M  V30 18363 C 1723.53 0.406805 -6.81787 0
M  V30 18364 O 1723.22 -0.123821 -8.03805 0
M  V30 18365 H 1722.95 0.314317 -0.598482 0
M  V30 18366 H 1725.51 0.332504 -2.02691 0
M  V30 18367 H 1723.74 2.80773 -2.65901 0
M  V30 18368 H 1725.43 2.67216 -3.05533 0
M  V30 18369 H 1726.19 0.875912 -4.77025 0
M  V30 18370 H 1722.07 1.94938 -4.17756 0
M  V30 18371 H 1725.61 -0.0725714 -6.97562 0
M  V30 18372 H 1721.51 1.00671 -6.37602 0
M  V30 18373 H 1722.28 -0.0114852 -8.18499 0
M  V30 18374 N 1724.94 1.47523 0.554506 0
M  V30 18375 C 1725.91 1.59761 1.64345 0
M  V30 18376 C 1726.91 0.472516 1.53701 0
M  V30 18377 O 1728.1 0.737659 1.57811 0
M  V30 18378 C 1725.23 1.54467 3.03896 0
M  V30 18379 H 1726.42 2.56834 1.54842 0
M  V30 18380 H 1723.97 1.35753 0.774643 0
M  V30 18381 H 1724.71 0.587789 3.18929 0
M  V30 18382 H 1724.49 2.36123 3.13031 0
M  V30 18383 H 1725.98 1.66174 3.83113 0
M  V30 18384 N 1726.42 -0.801453 1.357 0
M  V30 18385 C 1727.67 -1.5611 1.29451 0
M  V30 18386 C 1728 -1.93768 -0.129412 0
M  V30 18387 O 1727.27 -1.6176 -1.08 0
M  V30 18388 C 1727.56 -2.84628 2.20588 0
M  V30 18389 C 1727.41 -2.53413 3.71621 0
M  V30 18390 C 1728.73 -3.86369 2.10729 0
M  V30 18391 H 1725.85 -0.56638 0.471575 0
M  V30 18392 H 1728.49 -0.921701 1.66147 0
M  V30 18393 H 1726.64 -3.39192 1.89424 0
M  V30 18394 H 1728.31 -2.04993 4.1325 0
M  V30 18395 H 1726.56 -1.86531 3.91649 0
M  V30 18396 H 1727.23 -3.45152 4.30783 0
M  V30 18397 H 1729.7 -3.41219 2.38136 0
M  V30 18398 H 1728.58 -4.74062 2.76688 0
M  V30 18399 H 1728.84 -4.28431 1.09083 0
M  V30 18400 N 1727.9 -1.19782 -1.02421 0
M  V30 18401 C 1729.13 -1.02871 -1.79514 0
M  V30 18402 C 1729.54 0.422387 -1.84014 0
M  V30 18403 O 1728.9 1.29335 -1.28758 0
M  V30 18404 C 1728.95 -1.59634 -3.24344 0
M  V30 18405 O 1728.67 -2.99064 -3.20144 0
M  V30 18406 C 1730.17 -1.47571 -4.18016 0
M  V30 18407 H 1727.39 -0.362301 -0.564782 0
M  V30 18408 H 1729.94 -1.58701 -1.28974 0
M  V30 18409 H 1728.09 -1.07942 -3.72058 0
M  V30 18410 H 1728.5 -3.25859 -4.10994 0
M  V30 18411 H 1729.98 -1.92061 -5.1751 0
M  V30 18412 H 1730.46 -0.426967 -4.3712 0
M  V30 18413 H 1731.06 -1.98417 -3.76179 0
M  V30 18414 N 1729.38 1.21606 -1.00248 0
M  V30 18415 C 1730.79 1.72365 -0.717446 0
M  V30 18416 C 1731.14 1.80668 0.765078 0
M  V30 18417 O 1730.26 1.45951 1.59772 0
M  V30 18418 C 1730.86 3.13046 -1.29567 0
M  V30 18419 C 1729.42 3.61172 -1.05981 0
M  V30 18420 C 1728.57 2.38775 -1.41003 0
M  V30 18421 H 1731.52 1.06818 -1.17369 0
M  V30 18422 H 1731.54 3.74392 -0.679054 0
M  V30 18423 H 1731.05 3.0697 -2.37467 0
M  V30 18424 H 1729.15 3.726 0.00214307 0
M  V30 18425 H 1729.26 4.46778 -1.72993 0
M  V30 18426 H 1727.63 2.40839 -0.82877 0
M  V30 18427 H 1728.41 2.35352 -2.49928 0
M  V30 18428 N 1730.86 0.776895 1.37121 0
M  V30 18429 C 1731.79 0.180738 2.32799 0
M  V30 18430 C 1732.77 -0.677284 1.56035 0
M  V30 18431 O 1733.95 -0.613687 1.84249 0
M  V30 18432 C 1731.08 -0.695148 3.40272 0
M  V30 18433 C 1730.04 0.0619772 4.27955 0
M  V30 18434 C 1729.36 -0.933688 5.26485 0
M  V30 18435 C 1730.66 1.24396 5.0727 0
M  V30 18436 H 1732.36 0.980039 2.82906 0
M  V30 18437 H 1729.9 0.472722 1.3602 0
M  V30 18438 H 1731.85 -1.12205 4.06187 0
M  V30 18439 H 1730.58 -1.52702 2.88703 0
M  V30 18440 H 1729.24 0.469717 3.63578 0
M  V30 18441 H 1728.89 -1.76025 4.71194 0
M  V30 18442 H 1728.59 -0.431608 5.86013 0
M  V30 18443 H 1730.11 -1.35942 5.95275 0
M  V30 18444 H 1731.52 0.89345 5.66295 0
M  V30 18445 H 1729.92 1.67848 5.76149 0
M  V30 18446 H 1730.99 2.04553 4.39643 0
M  V30 18447 N 1732.33 -1.48497 0.527859 0
M  V30 18448 C 1733.26 -2.32414 -0.224891 0
M  V30 18449 C 1734.24 -1.41959 -0.93711 0
M  V30 18450 O 1735.43 -1.70847 -0.923302 0
M  V30 18451 C 1732.56 -3.23106 -1.27356 0
M  V30 18452 C 1731.51 -4.2257 -0.679611 0
M  V30 18453 C 1730.84 -5.02381 -1.83077 0
M  V30 18454 C 1732.14 -5.21144 0.347269 0
M  V30 18455 H 1733.83 -2.95598 0.475632 0
M  V30 18456 H 1731.38 -1.42148 0.230182 0
M  V30 18457 H 1733.33 -3.80639 -1.8081 0
M  V30 18458 H 1732.06 -2.57919 -2.00363 0
M  V30 18459 H 1730.72 -3.66221 -0.166608 0
M  V30 18460 H 1730.36 -4.3362 -2.54918 0
M  V30 18461 H 1730.06 -5.697 -1.43929 0
M  V30 18462 H 1731.59 -5.62765 -2.36914 0
M  V30 18463 H 1733 -5.73213 -0.100107 0
M  V30 18464 H 1731.4 -5.96503 0.656021 0
M  V30 18465 H 1732.47 -4.6841 1.25379 0
M  V30 18466 N 1733.81 -0.262893 -1.55392 0
M  V30 18467 C 1734.72 0.640223 -2.25695 0
M  V30 18468 C 1735.74 1.18019 -1.27857 0
M  V30 18469 O 1736.91 1.21308 -1.60768 0
M  V30 18470 C 1733.98 1.81336 -2.95497 0
M  V30 18471 C 1733.04 1.31128 -4.08784 0
M  V30 18472 C 1732.27 2.4285 -4.75247 0
M  V30 18473 O 1732.5 3.61939 -4.40859 0
M  V30 18474 O 1731.43 2.11699 -5.63442 0
M  V30 18475 H 1735.26 0.0710781 -3.03617 0
M  V30 18476 H 1732.84 -0.030765 -1.49368 0
M  V30 18477 H 1734.72 2.49764 -3.39406 0
M  V30 18478 H 1733.4 2.36982 -2.20502 0
M  V30 18479 H 1732.3 0.593816 -3.69357 0
M  V30 18480 H 1733.64 0.800711 -4.85643 0
M  V30 18481 N 1735.29 1.57597 0.0100073 0
M  V30 18482 C 1736.57 1.81329 0.733415 0
M  V30 18483 C 1736.95 0.865495 1.92542 0
M  V30 18484 O 1736.29 -0.088073 2.2833 0
M  V30 18485 C 1736.5 3.29559 1.14856 0
M  V30 18486 C 1737.85 3.95039 1.55658 0
M  V30 18487 O 1738.88 3.33822 1.24262 0
M  V30 18488 O 1737.74 5.02858 2.13999 0
M  V30 18489 H 1734.83 0.746334 0.35625 0
M  V30 18490 H 1737.38 1.69694 -0.0146791 0
M  V30 18491 H 1736.15 3.9016 0.298467 0
M  V30 18492 H 1735.77 3.46156 1.95607 0
M  V30 18493 N 1736.77 -0.282606 1.55045 0
M  V30 18494 C 1737.73 -1.33228 1.86502 0
M  V30 18495 C 1738.73 -1.42814 0.738977 0
M  V30 18496 O 1739.92 -1.42131 1.0072 0
M  V30 18497 C 1737.05 -2.71488 2.06173 0
M  V30 18498 H 1738.25 -1.06571 2.80326 0
M  V30 18499 H 1735.8 -0.520199 1.47389 0
M  V30 18500 H 1736.53 -3.03339 1.14699 0
M  V30 18501 H 1736.32 -2.65917 2.8815 0
M  V30 18502 H 1737.81 -3.47348 2.31817 0
M  V30 18503 N 1738.25 -1.47815 -0.546675 0
M  V30 18504 C 1739.18 -1.63976 -1.66235 0
M  V30 18505 C 1740.16 -0.488945 -1.62921 0
M  V30 18506 O 1741.34 -0.719532 -1.80378 0
M  V30 18507 C 1738.47 -1.6637 -3.04858 0
M  V30 18508 C 1737.43 -2.80785 -3.23023 0
M  V30 18509 C 1736.75 -2.68257 -4.62539 0
M  V30 18510 C 1738.05 -4.22267 -3.07388 0
M  V30 18511 H 1739.75 -2.57375 -1.52965 0
M  V30 18512 H 1737.29 -1.23861 -0.734465 0
M  V30 18513 H 1739.24 -1.76266 -3.82764 0
M  V30 18514 H 1737.97 -0.695386 -3.19111 0
M  V30 18515 H 1736.63 -2.70417 -2.47529 0
M  V30 18516 H 1736.28 -1.69431 -4.73606 0
M  V30 18517 H 1735.98 -3.45022 -4.75641 0
M  V30 18518 H 1737.5 -2.80097 -5.42566 0
M  V30 18519 H 1738.91 -4.33557 -3.75102 0
M  V30 18520 H 1737.31 -4.999 -3.31994 0
M  V30 18521 H 1738.38 -4.39897 -2.04006 0
M  V30 18522 N 1739.72 0.794246 -1.36123 0
M  V30 18523 C 1740.66 1.91303 -1.24412 0
M  V30 18524 C 1741.63 1.62085 -0.129318 0
M  V30 18525 O 1742.82 1.86104 -0.299599 0
M  V30 18526 C 1739.95 3.26009 -0.918476 0
M  V30 18527 C 1738.99 3.74163 -2.04705 0
M  V30 18528 S 1739.82 3.90497 -3.66432 0
M  V30 18529 C 1740.98 5.28086 -3.3597 0
M  V30 18530 H 1741.21 2.00944 -2.19109 0
M  V30 18531 H 1738.75 0.952959 -1.21483 0
M  V30 18532 H 1740.7 4.03823 -0.737402 0
M  V30 18533 H 1739.37 3.14098 0.0106309 0
M  V30 18534 H 1738.56 4.7176 -1.77365 0
M  V30 18535 H 1738.16 3.03384 -2.1871 0
M  V30 18536 H 1740.45 6.12502 -2.89564 0
M  V30 18537 H 1741.4 5.60427 -4.32813 0
M  V30 18538 H 1741.8 4.94958 -2.71436 0
M  V30 18539 N 1741.2 1.20323 1.01785 0
M  V30 18540 C 1742.48 0.921703 1.72522 0
M  V30 18541 C 1742.86 -0.569838 2.03264 0
M  V30 18542 O 1742.21 -1.53115 1.69611 0
M  V30 18543 C 1742.42 1.79335 2.99399 0
M  V30 18544 C 1743.76 2.03442 3.72688 0
M  V30 18545 O 1744.79 1.76578 3.09352 0
M  V30 18546 O 1743.65 2.48803 4.86579 0
M  V30 18547 H 1740.74 0.344505 0.751828 0
M  V30 18548 H 1743.29 1.31191 1.07644 0
M  V30 18549 H 1742.06 2.80339 2.72994 0
M  V30 18550 H 1741.68 1.40314 3.72018 0
M  V30 18551 N 1742.68 -1.21073 1.00892 0
M  V30 18552 C 1744.1 -1.42314 0.72242 0
M  V30 18553 C 1744.3 -1.88917 -0.700908 0
M  V30 18554 O 1743.35 -2.05318 -1.46973 0
M  V30 18555 C 1744.66 -2.4513 1.74161 0
M  V30 18556 C 1746.21 -2.58907 1.75887 0
M  V30 18557 C 1746.69 -3.64959 2.76711 0
M  V30 18558 N 1748.18 -3.72434 2.75404 0
M  V30 18559 C 1748.91 -4.54129 3.50077 0
M  V30 18560 N 1748.41 -5.39691 4.34403 0
M  V30 18561 N 1750.2 -4.48589 3.38709 0
M  V30 18562 H 1742.35 -0.891353 1.92792 0
M  V30 18563 H 1744.62 -0.45372 0.832371 0
M  V30 18564 H 1744.32 -2.17868 2.76091 0
M  V30 18565 H 1744.2 -3.43996 1.54746 0
M  V30 18566 H 1746.58 -2.85503 0.746455 0
M  V30 18567 H 1746.66 -1.60261 1.99374 0
M  V30 18568 H 1746.31 -3.39107 3.78112 0
M  V30 18569 H 1746.24 -4.63209 2.50489 0
M  V30 18570 H 1748.73 -3.11311 2.14228 0
M  V30 18571 H 1749.04 -5.99092 4.88168 0
M  V30 18572 H 1747.39 -5.39219 4.38484 0
M  V30 18573 H 1750.58 -3.80778 2.7226 0
M  V30 18574 H 1750.75 -5.12023 3.97161 0
M  V30 18575 N 1744.16 -0.784156 -1.36707 0
M  V30 18576 C 1745.44 -0.278338 -1.93609 0
M  V30 18577 C 1745.82 1.22865 -1.71661 0
M  V30 18578 O 1745.16 2.01765 -1.07252 0
M  V30 18579 C 1745.37 -0.665232 -3.42601 0
M  V30 18580 C 1746.72 -0.642005 -4.19718 0
M  V30 18581 O 1747.75 -0.605381 -3.51018 0
M  V30 18582 O 1746.6 -0.680178 -5.42251 0
M  V30 18583 H 1743.7 -0.0675603 -0.824236 0
M  V30 18584 H 1746.24 -0.866345 -1.4592 0
M  V30 18585 H 1745.02 -1.70478 -3.52211 0
M  V30 18586 H 1744.64 -0.0508295 -3.97568 0
M  V30 18587 N 1745.64 1.48215 -0.535727 0
M  V30 18588 C 1746.57 2.3253 0.212562 0
M  V30 18589 C 1747.55 1.42454 0.929568 0
M  V30 18590 O 1748.73 1.71334 0.914228 0
M  V30 18591 C 1745.86 3.23777 1.25641 0
M  V30 18592 C 1744.82 4.22924 0.657191 0
M  V30 18593 C 1744.14 5.03345 1.80411 0
M  V30 18594 C 1745.44 5.20953 -0.374902 0
M  V30 18595 H 1747.14 2.95341 -0.491301 0
M  V30 18596 H 1744.68 1.42024 -0.237718 0
M  V30 18597 H 1746.64 3.81592 1.78789 0
M  V30 18598 H 1745.36 2.58978 1.98993 0
M  V30 18599 H 1744.02 3.66304 0.147184 0
M  V30 18600 H 1743.67 4.34965 2.52615 0
M  V30 18601 H 1743.37 5.70455 1.40906 0
M  V30 18602 H 1744.89 5.64013 2.33926 0
M  V30 18603 H 1746.3 5.73258 0.0697072 0
M  V30 18604 H 1744.7 5.96147 -0.687646 0
M  V30 18605 H 1745.77 4.67739 -1.27861 0
M  V30 18606 N 1747.11 0.27113 1.5525 0
M  V30 18607 C 1748.36 -0.347304 1.99804 0
M  V30 18608 C 1748.69 -1.55803 1.15928 0
M  V30 18609 O 1747.97 -1.93154 0.228386 0
M  V30 18610 C 1748.25 -0.733408 3.52552 0
M  V30 18611 C 1748.1 0.48438 4.47184 0
M  V30 18612 C 1749.42 -1.57136 4.11092 0
M  V30 18613 H 1746.54 -0.124762 0.726363 0
M  V30 18614 H 1749.18 0.37728 1.86217 0
M  V30 18615 H 1747.33 -1.35076 3.64262 0
M  V30 18616 H 1749.01 1.12293 4.47424 0
M  V30 18617 H 1747.25 1.12317 4.19008 0
M  V30 18618 H 1747.92 0.170525 5.51737 0
M  V30 18619 H 1750.4 -1.05001 4.02634 0
M  V30 18620 H 1749.27 -1.81033 5.18187 0
M  V30 18621 H 1749.53 -2.55111 3.61069 0
M  V30 18622 N 1748.59 -1.576 -0.00164943 0
M  V30 18623 C 1749.54 -2.04799 -1.00207 0
M  V30 18624 C 1750.53 -0.9424 -1.30413 0
M  V30 18625 O 1751.72 -1.20618 -1.29539 0
M  V30 18626 C 1748.85 -2.55349 -2.29459 0
M  V30 18627 C 1747.93 -3.72782 -2.02224 0
M  V30 18628 N 1748.32 -4.84528 -1.45142 0
M  V30 18629 C 1746.62 -3.80681 -2.32375 0
M  V30 18630 C 1747.32 -5.65975 -1.34339 0
M  V30 18631 N 1746.3 -5.11927 -1.82844 0
M  V30 18632 H 1750.1 -2.88608 -0.555191 0
M  V30 18633 H 1747.62 -1.6107 -0.20738 0
M  V30 18634 H 1749.61 -2.87438 -3.01969 0
M  V30 18635 H 1748.27 -1.72957 -2.74802 0
M  V30 18636 H 1749.28 -5.05412 -1.13045 0
M  V30 18637 H 1745.96 -3.09141 -2.80603 0
M  V30 18638 H 1747.35 -6.65782 -0.904622 0
M  V30 18639 N 1750.07 0.274379 -1.55193 0
M  V30 18640 C 1751.49 0.621497 -1.47002 0
M  V30 18641 C 1751.69 1.89572 -0.682995 0
M  V30 18642 O 1750.74 2.51696 -0.201296 0
M  V30 18643 C 1752.06 0.749741 -2.91203 0
M  V30 18644 C 1753.6 0.843886 -3.01409 0
M  V30 18645 C 1754.08 1.00392 -4.46862 0
M  V30 18646 N 1755.57 1.06947 -4.50684 0
M  V30 18647 C 1756.3 1.21207 -5.60443 0
M  V30 18648 N 1755.8 1.32195 -6.80071 0
M  V30 18649 N 1757.59 1.24307 -5.48183 0
M  V30 18650 H 1749.74 -0.562462 -2.04817 0
M  V30 18651 H 1752.01 -0.190205 -0.928723 0
M  V30 18652 H 1751.71 -0.116074 -3.51508 0
M  V30 18653 H 1751.59 1.63046 -3.40141 0
M  V30 18654 H 1753.97 1.70017 -2.41202 0
M  V30 18655 H 1754.06 -0.061411 -2.55726 0
M  V30 18656 H 1753.7 0.152298 -5.07672 0
M  V30 18657 H 1753.63 1.92384 -4.902 0
M  V30 18658 H 1756.12 0.997012 -3.64511 0
M  V30 18659 H 1756.43 1.42906 -7.59472 0
M  V30 18660 H 1754.78 1.29202 -6.82885 0
M  V30 18661 H 1757.97 1.15352 -4.53665 0
M  V30 18662 H 1758.14 1.35076 -6.33765 0
M  V30 18663 N 1751.55 1.48103 0.538828 0
M  V30 18664 C 1752.48 1.58044 1.65996 0
M  V30 18665 C 1753.49 0.465316 1.56009 0
M  V30 18666 O 1754.68 0.735769 1.62631 0
M  V30 18667 C 1751.78 1.48587 3.0459 0
M  V30 18668 C 1750.96 2.74987 3.40148 0
M  V30 18669 C 1750.01 2.59109 4.57984 0
M  V30 18670 O 1749.04 3.32974 4.61646 0
M  V30 18671 N 1750.24 1.68143 5.55615 0
M  V30 18672 H 1753.01 2.54726 1.57908 0
M  V30 18673 H 1750.57 1.44715 0.725901 0
M  V30 18674 H 1752.56 1.35673 3.81281 0
M  V30 18675 H 1751.13 0.599157 3.06804 0
M  V30 18676 H 1750.35 3.02531 2.52723 0
M  V30 18677 H 1751.64 3.58862 3.60687 0
M  V30 18678 H 1751.04 1.07317 5.55427 0
M  V30 18679 H 1749.59 1.61171 6.31559 0
M  V30 18680 N 1753.03 -0.787016 1.36542 0
M  V30 18681 C 1754.25 -1.57588 1.34065 0
M  V30 18682 C 1754.67 -1.88641 -0.0775397 0
M  V30 18683 O 1754.03 -1.50306 -1.03511 0
M  V30 18684 C 1754.08 -2.89543 2.16442 0
M  V30 18685 O 1753.8 -2.59828 3.52734 0
M  V30 18686 C 1755.3 -3.83838 2.21773 0
M  V30 18687 H 1752.52 -0.488708 0.459789 0
M  V30 18688 H 1755.06 -0.976614 1.79673 0
M  V30 18689 H 1753.22 -3.45933 1.74383 0
M  V30 18690 H 1753.63 -3.44219 3.95744 0
M  V30 18691 H 1755.11 -4.73478 2.83765 0
M  V30 18692 H 1755.58 -4.21862 1.22185 0
M  V30 18693 H 1756.19 -3.33381 2.64078 0
M  V30 18694 N 1754.5 -1.20861 -1.01145 0
M  V30 18695 C 1755.47 -0.963742 -2.07954 0
M  V30 18696 C 1756.47 0.0627362 -1.60678 0
M  V30 18697 O 1757.66 -0.173867 -1.7333 0
M  V30 18698 C 1754.79 -0.451977 -3.3789 0
M  V30 18699 H 1755.98 -1.91123 -2.3111 0
M  V30 18700 H 1753.54 -1.0247 -1.18024 0
M  V30 18701 H 1754.27 0.500735 -3.20411 0
M  V30 18702 H 1754.06 -1.19231 -3.73532 0
M  V30 18703 H 1755.55 -0.300308 -4.16519 0
M  V30 18704 N 1755.98 1.20536 -1.01532 0
M  V30 18705 C 1757.21 1.94393 -0.722908 0
M  V30 18706 C 1757.63 1.74191 0.709857 0
M  V30 18707 O 1756.99 1.03538 1.48827 0
M  V30 18708 C 1757.04 3.44597 -1.06231 0
M  V30 18709 O 1756.14 4.12036 -0.173286 0
M  V30 18710 H 1755.48 0.607361 -0.268345 0
M  V30 18711 H 1758.01 1.53003 -1.35835 0
M  V30 18712 H 1758.02 3.95212 -1.01348 0
M  V30 18713 H 1756.7 3.58624 -2.10621 0
M  V30 18714 H 1755.28 3.71851 -0.27953 0
M  V30 18715 N 1757.46 0.791395 1.36289 0
M  V30 18716 C 1758.42 0.197069 2.28351 0
M  V30 18717 C 1759.42 -0.606748 1.48913 0
M  V30 18718 O 1760.61 -0.427453 1.68874 0
M  V30 18719 C 1757.75 -0.727009 3.33058 0
M  V30 18720 H 1758.94 1.00885 2.82422 0
M  V30 18721 H 1756.49 0.560959 1.45887 0
M  V30 18722 H 1757.23 -1.56306 2.84146 0
M  V30 18723 H 1757.01 -0.152537 3.91803 0
M  V30 18724 H 1758.5 -1.13765 4.01805 0
M  V30 18725 N 1758.94 -1.47929 0.54358 0
M  V30 18726 C 1760.19 -2.02795 0.014488 0
M  V30 18727 C 1760.52 -1.41848 -1.32638 0
M  V30 18728 O 1759.79 -0.569099 -1.85988 0
M  V30 18729 C 1760.08 -3.5998 -0.093097 0
M  V30 18730 C 1759.93 -4.31384 1.2739 0
M  V30 18731 C 1761.25 -4.32521 -0.813251 0
M  V30 18732 H 1758.37 -0.736969 0.00673905 0
M  V30 18733 H 1761.01 -1.76507 0.703238 0
M  V30 18734 H 1759.16 -3.82508 -0.679685 0
M  V30 18735 H 1760.83 -4.20235 1.90264 0
M  V30 18736 H 1759.07 -3.9227 1.85221 0
M  V30 18737 H 1759.75 -5.39856 1.15148 0
M  V30 18738 H 1762.22 -4.14903 -0.315334 0
M  V30 18739 H 1761.1 -5.42161 -0.857456 0
M  V30 18740 H 1761.36 -4.00768 -1.86649 0
M  V30 18741 N 1760.42 -0.27936 -1.55104 0
M  V30 18742 C 1761.66 0.336703 -1.99985 0
M  V30 18743 C 1762 1.55186 -1.16752 0
M  V30 18744 O 1761.27 1.93031 -0.238626 0
M  V30 18745 C 1761.55 0.714701 -3.52936 0
M  V30 18746 C 1761.41 -0.508088 -4.46921 0
M  V30 18747 C 1762.73 1.54953 -4.11919 0
M  V30 18748 H 1759.85 0.120908 -0.727015 0
M  V30 18749 H 1762.49 -0.38715 -1.86014 0
M  V30 18750 H 1760.64 1.33143 -3.64973 0
M  V30 18751 H 1762.31 -1.14664 -4.46822 0
M  V30 18752 H 1760.55 -1.14537 -4.18406 0
M  V30 18753 H 1761.22 -0.199782 -5.51638 0
M  V30 18754 H 1763.7 1.02864 -4.03185 0
M  V30 18755 H 1762.58 1.78282 -5.1914 0
M  V30 18756 H 1762.84 2.53192 -3.62417 0
M  V30 18757 N 1761.9 1.57599 -0.0067085 0
M  V30 18758 C 1762.83 2.05706 1.01084 0
M  V30 18759 C 1763.84 0.976216 1.30284 0
M  V30 18760 O 1765.03 1.25288 1.27142 0
M  V30 18761 C 1762.13 2.44771 2.34393 0
M  V30 18762 C 1761.3 3.75668 2.24036 0
M  V30 18763 C 1760.36 4.01528 3.4009 0
M  V30 18764 O 1759.39 4.72101 3.17977 0
M  V30 18765 N 1760.59 3.49947 4.6316 0
M  V30 18766 H 1763.35 2.93622 0.600532 0
M  V30 18767 H 1760.92 1.6089 0.180536 0
M  V30 18768 H 1762.91 2.5918 3.10818 0
M  V30 18769 H 1761.48 1.62339 2.67142 0
M  V30 18770 H 1760.7 3.71272 1.3248 0
M  V30 18771 H 1761.99 4.6147 2.14295 0
M  V30 18772 H 1761.38 2.92811 4.84023 0
M  V30 18773 H 1759.94 3.69675 5.36828 0
M  V30 18774 N 1763.37 -0.266145 1.55336 0
M  V30 18775 C 1764.32 -1.33159 1.85075 0
M  V30 18776 C 1765.31 -1.44381 0.710142 0
M  V30 18777 O 1766.5 -1.47946 0.971644 0
M  V30 18778 C 1763.63 -2.69063 2.13214 0
M  V30 18779 C 1762.71 -2.61924 3.33552 0
M  V30 18780 N 1763.11 -2.24407 4.53294 0
M  V30 18781 C 1761.4 -2.92973 3.36278 0
M  V30 18782 C 1762.1 -2.27428 5.35398 0
M  V30 18783 N 1761.08 -2.66173 4.73976 0
M  V30 18784 H 1764.88 -1.03172 2.75196 0
M  V30 18785 H 1762.4 -0.474782 1.55305 0
M  V30 18786 H 1764.39 -3.45929 2.32677 0
M  V30 18787 H 1763.05 -2.99933 1.2438 0
M  V30 18788 H 1764.06 -1.9627 4.79269 0
M  V30 18789 H 1760.74 -3.2851 2.57658 0
M  V30 18790 H 1762.13 -2.00925 6.41154 0
M  V30 18791 N 1764.85 -1.48386 -0.530967 0
M  V30 18792 C 1765.78 -1.57405 -1.65224 0
M  V30 18793 C 1766.76 -0.424555 -1.5696 0
M  V30 18794 O 1767.95 -0.63602 -1.77446 0
M  V30 18795 C 1765.07 -1.50112 -3.03618 0
M  V30 18796 C 1764.12 -2.6989 -3.30245 0
M  V30 18797 S 1764.95 -4.31867 -3.16624 0
M  V30 18798 C 1766.11 -4.27171 -4.57466 0
M  V30 18799 H 1766.34 -2.52262 -1.57324 0
M  V30 18800 H 1763.87 -1.36907 -0.713851 0
M  V30 18801 H 1765.83 -1.46591 -3.83434 0
M  V30 18802 H 1764.49 -0.565934 -3.0896 0
M  V30 18803 H 1763.69 -2.60923 -4.31202 0
M  V30 18804 H 1763.29 -2.70668 -2.58098 0
M  V30 18805 H 1765.58 -3.97044 -5.48965 0
M  V30 18806 H 1766.52 -5.28304 -4.71487 0
M  V30 18807 H 1766.93 -3.57653 -4.36743 0
M  V30 18808 N 1766.33 0.779763 -1.36958 0
M  V30 18809 C 1767.55 1.57389 -1.35068 0
M  V30 18810 C 1767.98 1.87993 0.0635244 0
M  V30 18811 O 1767.34 1.48625 1.03828 0
M  V30 18812 C 1767.39 2.86582 -2.18868 0
M  V30 18813 O 1766.49 3.80609 -1.58779 0
M  V30 18814 H 1765.83 0.477052 -0.461863 0
M  V30 18815 H 1768.36 0.965741 -1.80373 0
M  V30 18816 H 1768.37 3.35761 -2.31794 0
M  V30 18817 H 1767.05 2.63635 -3.21666 0
M  V30 18818 H 1765.62 3.39229 -1.54848 0
M  V30 18819 N 1767.81 1.21396 1.00503 0
M  V30 18820 C 1768.74 0.997268 2.11132 0
M  V30 18821 C 1769.72 -0.0777455 1.69922 0
M  V30 18822 O 1770.9 0.08208 1.94026 0
M  V30 18823 C 1768.03 0.561122 3.42737 0
M  V30 18824 C 1766.99 1.58069 3.97741 0
M  V30 18825 C 1766.31 1.00079 5.25251 0
M  V30 18826 C 1767.61 2.96754 4.29807 0
M  V30 18827 H 1769.31 1.92255 2.29518 0
M  V30 18828 H 1766.85 0.925776 1.10297 0
M  V30 18829 H 1768.81 0.396701 4.19529 0
M  V30 18830 H 1767.53 -0.399804 3.24144 0
M  V30 18831 H 1766.19 1.73268 3.23069 0
M  V30 18832 H 1765.84 0.0315797 5.0299 0
M  V30 18833 H 1765.54 1.68182 5.63017 0
M  V30 18834 H 1767.06 0.847687 6.04687 0
M  V30 18835 H 1768.48 2.85 4.97441 0
M  V30 18836 H 1766.87 3.61871 4.78717 0
M  V30 18837 H 1767.94 3.47602 3.38084 0
M  V30 18838 N 1769.29 -1.19996 1.0217 0
M  V30 18839 C 1770.53 -1.89121 0.712579 0
M  V30 18840 C 1770.85 -1.79556 -0.760561 0
M  V30 18841 O 1770.12 -1.2013 -1.54744 0
M  V30 18842 H 1768.7 -0.700075 0.260585 0
M  V30 18843 H 1771.37 -1.4571 1.2944 0
M  V30 18844 H 1770.46 -2.95629 1.00051 0
M  V30 18845 N 1770.76 -0.798611 -1.35867 0
M  V30 18846 C 1772.01 -0.375816 -1.99287 0
M  V30 18847 C 1772.34 1.05223 -1.63223 0
M  V30 18848 O 1771.62 1.72862 -0.891576 0
M  V30 18849 C 1771.9 -0.550197 -3.55872 0
M  V30 18850 C 1771.75 -2.0226 -4.0176 0
M  V30 18851 C 1773.07 0.0290862 -4.4009 0
M  V30 18852 H 1770.19 -0.138024 -0.72396 0
M  V30 18853 H 1772.83 -1.00666 -1.61141 0
M  V30 18854 H 1770.98 -0.0131739 -3.88498 0
M  V30 18855 H 1772.66 -2.62139 -3.7958 0
M  V30 18856 H 1770.9 -2.52191 -3.52962 0
M  V30 18857 H 1771.57 -2.09553 -5.10678 0
M  V30 18858 H 1774.05 -0.429444 -4.13878 0
M  V30 18859 H 1772.92 -0.122894 -5.48762 0
M  V30 18860 H 1773.18 1.12206 -4.27624 0
M  V30 18861 N 1772.24 1.47639 -0.551417 0
M  V30 18862 C 1773.47 2.06578 -0.0298471 0
M  V30 18863 C 1773.88 1.40538 1.26672 0
M  V30 18864 O 1773.22 0.493957 1.76934 0
M  V30 18865 C 1773.28 3.5868 0.242667 0
M  V30 18866 C 1772.95 4.46726 -0.963597 0
M  V30 18867 C 1773.95 4.85195 -1.86766 0
M  V30 18868 C 1771.63 4.88324 -1.17664 0
M  V30 18869 C 1773.62 5.64056 -2.96849 0
M  V30 18870 C 1771.31 5.66951 -2.28058 0
M  V30 18871 C 1772.31 6.04727 -3.17482 0
M  V30 18872 O 1772 6.81771 -4.25963 0
M  V30 18873 H 1771.73 0.674806 -0.0401627 0
M  V30 18874 H 1774.28 1.90714 -0.762724 0
M  V30 18875 H 1772.51 3.72736 1.02978 0
M  V30 18876 H 1774.2 3.99661 0.708914 0
M  V30 18877 H 1774.97 4.53662 -1.7151 0
M  V30 18878 H 1770.85 4.58391 -0.489796 0
M  V30 18879 H 1774.39 5.93461 -3.66675 0
M  V30 18880 H 1770.29 5.97897 -2.43289 0
M  V30 18881 H 1771.06 7.00156 -4.23938 0
M  V30 18882 N 1773.72 0.287581 1.54954 0
M  V30 18883 C 1774.97 -0.324967 1.9947 0
M  V30 18884 C 1775.29 -1.55437 1.17747 0
M  V30 18885 O 1774.56 -1.9403 0.270067 0
M  V30 18886 H 1773.14 -0.123062 0.736794 0
M  V30 18887 H 1775.8 0.395805 1.90839 0
M  V30 18888 H 1774.9 -0.606265 3.06155 0
M  V30 18889 N 1775.2 -1.57593 0.0150662 0
M  V30 18890 C 1776.45 -1.91214 -0.666599 0
M  V30 18891 C 1776.77 -0.890139 -1.72936 0
M  V30 18892 O 1776.03 0.102976 -1.95429 0
M  V30 18893 C 1776.33 -3.3158 -1.33376 0
M  V30 18894 C 1775.99 -4.49098 -0.402748 0
M  V30 18895 C 1774.66 -4.80977 -0.146455 0
M  V30 18896 C 1777.01 -5.20659 0.237376 0
M  V30 18897 C 1774.34 -5.81783 0.758003 0
M  V30 18898 C 1776.69 -6.22429 1.1298 0
M  V30 18899 C 1775.35 -6.52758 1.39513 0
M  V30 18900 H 1774.62 -0.699701 -0.243926 0
M  V30 18901 H 1777.27 -1.91358 0.073824 0
M  V30 18902 H 1775.57 -3.27632 -2.1486 0
M  V30 18903 H 1777.27 -3.54859 -1.86751 0
M  V30 18904 H 1773.86 -4.24198 -0.612678 0
M  V30 18905 H 1778.04 -4.96272 0.052408 0
M  V30 18906 H 1773.3 -6.03634 0.971415 0
M  V30 18907 H 1777.47 -6.77005 1.63208 0
M  V30 18908 H 1775.1 -7.30687 2.09764 0
M  V30 18909 N 1776.68 0.257904 -1.55475 0
M  V30 18910 C 1777.92 0.985519 -1.76442 0
M  V30 18911 C 1778.25 1.86267 -0.577033 0
M  V30 18912 O 1777.52 1.91613 0.407582 0
M  V30 18913 H 1776.1 0.366872 -0.650702 0
M  V30 18914 H 1778.76 0.278498 -1.929 0
M  V30 18915 H 1777.85 1.61367 -2.67146 0
M  V30 18916 N 1778.15 1.48666 0.52309 0
M  V30 18917 C 1779.39 1.58636 1.28895 0
M  V30 18918 C 1779.76 0.257403 1.90267 0
M  V30 18919 O 1780.96 0.232139 2.67796 0
M  V30 18920 C 1779.23 2.69794 2.34406 0
M  V30 18921 S 1780.79 2.99574 3.20625 0
M  V30 18922 H 1777.61 0.559793 0.438353 0
M  V30 18923 H 1780.21 1.86221 0.595137 0
M  V30 18924 H 1778.91 3.64904 1.87811 0
M  V30 18925 H 1778.44 2.44132 3.08485 0
M  V30 18926 H 1780.46 2.394 4.34629 0
M  V30 18927 N 1779.63 -0.772489 1.37369 0
M  V30 18928 C 1780.54 -1.91679 1.35263 0
M  V30 18929 C 1781.56 -1.72161 0.252321 0
M  V30 18930 O 1782.73 -1.95409 0.487581 0
M  V30 18931 C 1779.8 -3.26792 1.15792 0
M  V30 18932 C 1778.86 -3.5897 2.35455 0
M  V30 18933 C 1778.09 -4.87636 2.16903 0
M  V30 18934 O 1778.32 -5.58627 1.15291 0
M  V30 18935 O 1777.25 -5.18859 3.05072 0
M  V30 18936 H 1781.08 -1.96408 2.31641 0
M  V30 18937 H 1778.66 -0.915136 1.18092 0
M  V30 18938 H 1780.54 -4.07611 1.06918 0
M  V30 18939 H 1779.22 -3.22918 0.224872 0
M  V30 18940 H 1778.13 -2.78389 2.49901 0
M  V30 18941 H 1779.46 -3.67586 3.27325 0
M  V30 18942 N 1781.11 -1.21927 -0.998575 0
M  V30 18943 C 1782.39 -0.949034 -1.71034 0
M  V30 18944 C 1782.77 0.537429 -2.04144 0
M  V30 18945 O 1782.12 1.50398 -1.72026 0
M  V30 18946 C 1782.33 -1.84076 -2.96508 0
M  V30 18947 C 1783.67 -2.09345 -3.69405 0
M  V30 18948 O 1784.7 -1.81477 -3.06504 0
M  V30 18949 O 1783.56 -2.56513 -4.82559 0
M  V30 18950 H 1780.65 -0.356423 -0.746252 0
M  V30 18951 H 1783.2 -1.32886 -1.05543 0
M  V30 18952 H 1781.97 -2.84647 -2.68499 0
M  V30 18953 H 1781.59 -1.46215 -3.69739 0
M  V30 18954 N 1782.59 1.19452 -1.02805 0
M  V30 18955 C 1783.81 1.93616 -0.743485 0
M  V30 18956 C 1784.24 1.74934 0.691342 0
M  V30 18957 O 1783.6 1.05111 1.47721 0
M  V30 18958 C 1783.64 3.43451 -1.0988 0
M  V30 18959 O 1782.75 4.11829 -0.216978 0
M  V30 18960 H 1782.09 0.60448 -0.274771 0
M  V30 18961 H 1784.62 1.51554 -1.37451 0
M  V30 18962 H 1784.63 3.94115 -1.05535 0
M  V30 18963 H 1783.3 3.5637 -2.14413 0
M  V30 18964 H 1781.88 3.71533 -0.318954 0
M  V30 18965 N 1784.07 0.805805 1.35442 0
M  V30 18966 C 1785 0.230077 2.32364 0
M  V30 18967 C 1785.98 -0.644034 1.57436 0
M  V30 18968 O 1787.16 -0.574467 1.85509 0
M  V30 18969 C 1784.29 -0.622814 3.4167 0
M  V30 18970 C 1783.25 0.152739 4.27727 0
M  V30 18971 C 1782.57 -0.821803 5.28347 0
M  V30 18972 C 1783.87 1.35128 5.04517 0
M  V30 18973 H 1785.57 1.03983 2.80763 0
M  V30 18974 H 1783.11 0.501467 1.34986 0
M  V30 18975 H 1785.07 -1.03564 4.08476 0
M  V30 18976 H 1783.79 -1.46544 2.91877 0
M  V30 18977 H 1782.45 0.546732 3.625 0
M  V30 18978 H 1782.1 -1.65991 4.74822 0
M  V30 18979 H 1781.8 -0.307209 5.86796 0
M  V30 18980 H 1783.32 -1.23285 5.98024 0
M  V30 18981 H 1784.73 1.01337 5.64273 0
M  V30 18982 H 1783.13 1.80031 5.72459 0
M  V30 18983 H 1784.2 2.13833 4.35205 0
M  V30 18984 N 1785.54 -1.47344 0.559239 0
M  V30 18985 C 1786.49 -2.31735 -0.200368 0
M  V30 18986 C 1787.49 -1.43051 -0.907351 0
M  V30 18987 O 1788.69 -1.59804 -0.828406 0
M  V30 18988 H 1785.07 -0.747351 -0.0834871 0
M  V30 18989 H 1787.04 -2.93645 0.530556 0
M  V30 18990 C 1785.79 -3.25747 -1.2159 0
M  V30 18991 H 1785.11 -3.93952 -0.681314 0
M  V30 18992 H 1786.55 -3.87624 -1.71825 0
M  V30 18993 C 1785.01 -2.49414 -2.26482 0
M  V30 18994 O 1785.54 -2.24006 -3.33443 0
M  V30 18995 N 1783.75 -2.10387 -2.00464 0
M  V30 18996 H 1783.29 -2.3125 -1.13495 0
M  V30 18997 H 1783.25 -1.5963 -2.70861 0
M  V30 18998 N 1787.02 -0.295795 -1.54799 0
M  V30 18999 C 1787.97 0.597578 -2.2003 0
M  V30 19000 C 1788.96 1.10286 -1.17158 0
M  V30 19001 O 1790.15 1.04449 -1.42896 0
M  V30 19002 C 1787.28 1.77148 -2.94064 0
M  V30 19003 C 1786.36 1.28241 -4.04246 0
M  V30 19004 N 1786.75 0.510962 -5.03213 0
M  V30 19005 C 1785.05 1.5636 -4.17693 0
M  V30 19006 C 1785.75 0.251176 -5.81157 0
M  V30 19007 N 1784.73 0.829504 -5.37234 0
M  V30 19008 H 1788.53 0.000567564 -2.939 0
M  V30 19009 H 1786.05 -0.10031 -1.6209 0
M  V30 19010 H 1788.04 2.42299 -3.39259 0
M  V30 19011 H 1786.7 2.37224 -2.21709 0
M  V30 19012 H 1787.71 0.156346 -5.17664 0
M  V30 19013 H 1784.39 2.17222 -3.5654 0
M  V30 19014 H 1785.78 -0.368063 -6.70891 0
M  V30 19015 N 1788.5 1.57583 -0.0234236 0
M  V30 19016 C 1789.43 2.12907 0.958804 0
M  V30 19017 C 1790.41 1.0438 1.34309 0
M  V30 19018 O 1791.6 1.32184 1.42271 0
M  V30 19019 C 1788.73 2.65151 2.24304 0
M  V30 19020 C 1787.68 3.78414 1.99967 0
M  V30 19021 C 1787.01 4.17064 3.34607 0
M  V30 19022 C 1788.31 5.04727 1.34342 0
M  V30 19023 H 1790 2.95228 0.498081 0
M  V30 19024 H 1787.55 1.42017 0.238138 0
M  V30 19025 H 1789.5 3.02487 2.93393 0
M  V30 19026 H 1788.22 1.79983 2.72532 0
M  V30 19027 H 1786.88 3.41507 1.33298 0
M  V30 19028 H 1786.53 3.28886 3.80583 0
M  V30 19029 H 1786.23 4.93385 3.19132 0
M  V30 19030 H 1787.76 4.56978 4.04973 0
M  V30 19031 H 1789.17 5.39686 1.93422 0
M  V30 19032 H 1787.57 5.86009 1.29282 0
M  V30 19033 H 1788.64 4.83872 0.315625 0
M  V30 19034 N 1789.98 -0.249655 1.5561 0
M  V30 19035 C 1790.91 -1.31281 1.931 0
M  V30 19036 C 1791.89 -1.50347 0.795601 0
M  V30 19037 O 1793.08 -1.63001 1.05566 0
M  V30 19038 C 1790.21 -2.66808 2.2233 0
M  V30 19039 C 1789.16 -2.62441 3.38096 0
M  V30 19040 C 1788.49 -4.01738 3.52861 0
M  V30 19041 C 1789.79 -2.19667 4.7386 0
M  V30 19042 H 1791.48 -1.00151 2.82153 0
M  V30 19043 H 1789.03 -0.480331 1.35753 0
M  V30 19044 H 1790.98 -3.41316 2.47146 0
M  V30 19045 H 1789.7 -2.99569 1.30101 0
M  V30 19046 H 1788.36 -1.90391 3.13284 0
M  V30 19047 H 1788.01 -4.31759 2.58056 0
M  V30 19048 H 1787.71 -3.99705 4.30708 0
M  V30 19049 H 1789.23 -4.7795 3.79995 0
M  V30 19050 H 1790.65 -2.83906 4.98067 0
M  V30 19051 H 1789.04 -2.28751 5.54791 0
M  V30 19052 H 1790.11 -1.14829 4.71108 0
M  V30 19053 N 1791.46 -1.48941 -0.515198 0
M  V30 19054 C 1792.41 -1.65027 -1.63917 0
M  V30 19055 C 1793.4 -0.516402 -1.61337 0
M  V30 19056 O 1794.61 -0.695598 -1.66016 0
M  V30 19057 H 1790.98 -0.520121 -0.543119 0
M  V30 19058 H 1792.95 -2.59397 -1.47498 0
M  V30 19059 C 1791.7 -1.72093 -3.02125 0
M  V30 19060 H 1791.02 -2.5871 -3.0481 0
M  V30 19061 H 1792.46 -1.87387 -3.80345 0
M  V30 19062 C 1790.92 -0.462688 -3.33708 0
M  V30 19063 O 1791.45 0.417925 -3.9952 0
M  V30 19064 N 1789.66 -0.329909 -2.88721 0
M  V30 19065 H 1789.21 -1.0475 -2.35341 0
M  V30 19066 H 1789.16 0.510912 -3.10221 0
M  V30 19067 N 1792.94 0.765193 -1.37777 0
M  V30 19068 C 1794.17 1.5521 -1.36358 0
M  V30 19069 C 1794.57 1.8913 0.0514021 0
M  V30 19070 O 1793.92 1.52422 1.02535 0
M  V30 19071 C 1793.98 2.88605 -2.14354 0
M  V30 19072 C 1793.64 2.77286 -3.63265 0
M  V30 19073 C 1794.64 2.47869 -4.57009 0
M  V30 19074 C 1792.32 2.95102 -4.06473 0
M  V30 19075 C 1794.32 2.36406 -5.91938 0
M  V30 19076 C 1792.01 2.83259 -5.41486 0
M  V30 19077 C 1793 2.53952 -6.34032 0
M  V30 19078 O 1792.69 2.42148 -7.66564 0
M  V30 19079 H 1792.42 0.487266 -0.468559 0
M  V30 19080 H 1794.98 0.955716 -1.81811 0
M  V30 19081 H 1793.21 3.50388 -1.636 0
M  V30 19082 H 1794.9 3.50043 -2.05486 0
M  V30 19083 H 1795.66 2.33784 -4.24936 0
M  V30 19084 H 1791.54 3.16913 -3.34794 0
M  V30 19085 H 1795.09 2.13452 -6.64142 0
M  V30 19086 H 1790.98 2.96914 -5.7316 0
M  V30 19087 H 1791.75 2.57448 -7.76957 0
M  V30 19088 N 1794.41 1.22455 0.992094 0
M  V30 19089 C 1795.66 1.05115 1.73432 0
M  V30 19090 C 1795.99 -0.412642 1.89765 0
M  V30 19091 O 1795.27 -1.3059 1.44141 0
M  V30 19092 C 1795.55 1.76385 3.13943 0
M  V30 19093 C 1795.4 3.30364 3.05253 0
M  V30 19094 C 1796.72 1.51688 4.13133 0
M  V30 19095 H 1793.84 0.383261 0.629508 0
M  V30 19096 H 1796.48 1.50805 1.15576 0
M  V30 19097 H 1794.63 1.37544 3.63337 0
M  V30 19098 H 1796.31 3.78655 2.63474 0
M  V30 19099 H 1794.55 3.6 2.42038 0
M  V30 19100 H 1795.22 3.75409 4.04687 0
M  V30 19101 H 1797.7 1.85429 3.72499 0
M  V30 19102 H 1796.57 2.04049 5.09564 0
M  V30 19103 H 1796.83 0.449654 4.39807 0
M  V30 19104 N 1795.89 -1.18905 1.03437 0
M  V30 19105 C 1797.14 -1.8927 0.744887 0
M  V30 19106 C 1797.49 -1.78456 -0.719113 0
M  V30 19107 O 1796.79 -1.16979 -1.51745 0
M  V30 19108 C 1796.98 -3.38811 1.13762 0
M  V30 19109 C 1796.81 -3.64179 2.63826 0
M  V30 19110 C 1795.58 -3.81899 3.30879 0
M  V30 19111 C 1797.78 -3.65282 3.62041 0
M  V30 19112 N 1795.76 -3.94947 4.69989 0
M  V30 19113 C 1797.13 -3.83968 4.86794 0
M  V30 19114 C 1799.18 -3.48337 3.55761 0
M  V30 19115 C 1797.89 -3.87464 6.06023 0
M  V30 19116 C 1799.91 -3.53113 4.74411 0
M  V30 19117 C 1799.28 -3.72289 5.9798 0
M  V30 19118 H 1795.37 -0.711481 0.324529 0
M  V30 19119 H 1797.96 -1.42865 1.32279 0
M  V30 19120 H 1796.13 -3.83925 0.587871 0
M  V30 19121 H 1797.86 -3.96718 0.799815 0
M  V30 19122 H 1794.62 -3.81017 2.81288 0
M  V30 19123 H 1795.04 -4.05308 5.42268 0
M  V30 19124 H 1799.68 -3.32463 2.61206 0
M  V30 19125 H 1797.4 -4.02128 7.00941 0
M  V30 19126 H 1800.99 -3.41284 4.71186 0
M  V30 19127 H 1799.87 -3.75866 6.88255 0
M  V30 19128 N 1797.37 -0.812977 -1.35013 0
M  V30 19129 C 1798.78 -0.45647 -1.81034 0
M  V30 19130 C 1799.13 1.02217 -1.6747 0
M  V30 19131 O 1798.26 1.79478 -1.20898 0
M  V30 19132 C 1798.85 -0.821773 -3.28683 0
M  V30 19133 C 1797.41 -0.517776 -3.72822 0
M  V30 19134 C 1796.56 -1.04399 -2.56897 0
M  V30 19135 H 1799.51 -1.00405 -1.22901 0
M  V30 19136 H 1799.53 -0.12173 -3.80305 0
M  V30 19137 H 1799.04 -1.89799 -3.38523 0
M  V30 19138 H 1797.14 0.549446 -3.68527 0
M  V30 19139 H 1797.26 -1.05488 -4.67343 0
M  V30 19140 H 1795.62 -0.466002 -2.50401 0
M  V30 19141 H 1796.4 -2.12645 -2.69512 0
M  V30 19142 N 1798.85 1.47045 -0.567045 0
M  V30 19143 C 1799.8 2.31838 0.188075 0
M  V30 19144 C 1800.79 1.4353 0.899752 0
M  V30 19145 O 1802 1.60241 0.81992 0
M  V30 19146 H 1798.37 0.747783 0.0795226 0
M  V30 19147 H 1800.34 2.9336 -0.546121 0
M  V30 19148 C 1799.09 3.26387 1.19861 0
M  V30 19149 H 1798.41 3.94308 0.660412 0
M  V30 19150 H 1799.85 3.8853 1.69767 0
M  V30 19151 C 1798.31 2.50612 2.25157 0
M  V30 19152 O 1798.84 2.25771 3.3225 0
M  V30 19153 N 1797.05 2.11447 1.99345 0
M  V30 19154 H 1796.6 2.31849 1.12267 0
M  V30 19155 H 1796.55 1.61064 2.7001 0
M  V30 19156 N 1800.33 0.304 1.5464 0
M  V30 19157 C 1801.57 -0.304845 2.00496 0
M  V30 19158 C 1801.9 -1.53308 1.19206 0
M  V30 19159 O 1801.18 -1.92627 0.269305 0
M  V30 19160 C 1801.46 -0.658462 3.54029 0
M  V30 19161 C 1801.32 0.579125 4.46056 0
M  V30 19162 C 1802.63 -1.4838 4.14332 0
M  V30 19163 H 1799.75 -0.109327 0.728846 0
M  V30 19164 H 1802.4 0.416694 1.85374 0
M  V30 19165 H 1800.55 -1.27319 3.67045 0
M  V30 19166 H 1802.22 1.21758 4.44941 0
M  V30 19167 H 1800.46 1.21179 4.16531 0
M  V30 19168 H 1801.13 0.287518 5.51251 0
M  V30 19169 H 1803.61 -0.964367 4.04771 0
M  V30 19170 H 1802.48 -1.70001 5.21911 0
M  V30 19171 H 1802.74 -2.47394 3.66399 0
M  V30 19172 N 1801.8 -1.57568 0.0317802 0
M  V30 19173 C 1803.05 -1.9191 -0.646281 0
M  V30 19174 C 1803.38 -0.908432 -1.71982 0
M  V30 19175 O 1802.63 0.0822426 -1.95527 0
M  V30 19176 C 1802.93 -3.32976 -1.29852 0
M  V30 19177 C 1802.6 -4.495 -0.355092 0
M  V30 19178 C 1801.26 -4.81105 -0.0954326 0
M  V30 19179 C 1803.61 -5.20378 0.292586 0
M  V30 19180 C 1800.94 -5.80946 0.819667 0
M  V30 19181 C 1803.29 -6.21196 1.19576 0
M  V30 19182 C 1801.96 -6.51241 1.46428 0
M  V30 19183 H 1801.23 -0.702249 -0.236491 0
M  V30 19184 H 1803.87 -1.91269 0.0941159 0
M  V30 19185 H 1802.18 -3.29892 -2.11373 0
M  V30 19186 H 1803.88 -3.5682 -1.82977 0
M  V30 19187 H 1800.47 -4.24824 -0.567652 0
M  V30 19188 H 1804.65 -4.96189 0.105041 0
M  V30 19189 H 1799.91 -6.02569 1.03538 0
M  V30 19190 H 1804.08 -6.75236 1.7038 0
M  V30 19191 H 1801.71 -7.28421 2.17502 0
M  V30 19192 N 1803.28 0.241399 -1.5574 0
M  V30 19193 C 1804.19 1.32034 -1.93918 0
M  V30 19194 C 1805.21 1.52363 -0.840331 0
M  V30 19195 O 1806.38 1.65879 -1.1422 0
M  V30 19196 C 1803.45 2.6539 -2.2309 0
M  V30 19197 C 1802.51 2.53536 -3.46436 0
M  V30 19198 C 1801.74 3.80532 -3.74208 0
M  V30 19199 O 1801.97 4.82662 -3.03964 0
M  V30 19200 O 1800.9 3.78834 -4.67727 0
M  V30 19201 H 1804.73 1.02647 -2.85827 0
M  V30 19202 H 1802.31 0.442616 -1.42693 0
M  V30 19203 H 1804.19 3.44184 -2.43137 0
M  V30 19204 H 1802.87 2.94499 -1.34358 0
M  V30 19205 H 1801.78 1.73009 -3.3169 0
M  V30 19206 H 1803.11 2.29371 -4.35488 0
M  V30 19207 N 1804.76 1.49212 0.507292 0
M  V30 19208 C 1805.99 1.6208 1.28599 0
M  V30 19209 C 1806.4 0.289745 1.86563 0
M  V30 19210 O 1805.76 -0.723987 1.67525 0
M  V30 19211 C 1805.81 2.68482 2.42074 0
M  V30 19212 O 1805.53 3.96424 1.86493 0
M  V30 19213 C 1807.03 2.91997 3.33546 0
M  V30 19214 H 1804.25 0.545831 0.390268 0
M  V30 19215 H 1806.8 1.95201 0.609652 0
M  V30 19216 H 1804.95 2.38156 3.05549 0
M  V30 19217 H 1805.37 4.54983 2.60942 0
M  V30 19218 H 1806.84 3.70195 4.09463 0
M  V30 19219 H 1807.32 2.01673 3.9016 0
M  V30 19220 H 1807.92 3.23715 2.75842 0
M  V30 19221 N 1806.24 -0.757876 1.38181 0
M  V30 19222 C 1807.46 -1.55221 1.37555 0
M  V30 19223 C 1807.89 -1.8807 -0.0336083 0
M  V30 19224 O 1807.25 -1.50258 -1.0145 0
M  V30 19225 C 1807.29 -2.83064 2.23399 0
M  V30 19226 O 1806.4 -3.78034 1.64814 0
M  V30 19227 H 1805.74 -0.469644 0.469394 0
M  V30 19228 H 1808.27 -0.936923 1.81887 0
M  V30 19229 H 1808.28 -3.32031 2.37106 0
M  V30 19230 H 1806.95 -2.58485 3.2582 0
M  V30 19231 H 1805.53 -3.36723 1.60225 0
M  V30 19232 N 1807.72 -1.22979 -0.985586 0
M  V30 19233 C 1809.13 -1.05448 -1.5407 0
M  V30 19234 C 1809.48 0.379808 -1.92489 0
M  V30 19235 O 1808.6 1.26582 -1.75516 0
M  V30 19236 C 1809.2 -1.90794 -2.7997 0
M  V30 19237 C 1807.76 -1.77538 -3.31899 0
M  V30 19238 C 1806.9 -1.86814 -2.04929 0
M  V30 19239 H 1809.86 -1.36718 -0.80585 0
M  V30 19240 H 1809.88 -1.42967 -3.5262 0
M  V30 19241 H 1809.39 -2.95177 -2.51977 0
M  V30 19242 H 1807.49 -0.759177 -3.64784 0
M  V30 19243 H 1807.6 -2.60627 -4.02008 0
M  V30 19244 H 1805.97 -1.30336 -2.18826 0
M  V30 19245 H 1806.75 -2.92742 -1.79324 0
M  V30 19246 N 1809.19 1.18355 -1.04066 0
M  V30 19247 C 1810.14 2.19907 -0.60209 0
M  V30 19248 C 1811.13 1.56925 0.355457 0
M  V30 19249 O 1812.32 1.76138 0.174513 0
M  V30 19250 C 1809.45 3.43284 0.0334903 0
M  V30 19251 C 1808.54 4.13387 -0.947205 0
M  V30 19252 N 1808.93 4.59492 -2.11425 0
M  V30 19253 C 1807.22 4.39247 -0.773204 0
M  V30 19254 C 1807.93 5.1346 -2.73375 0
M  V30 19255 N 1806.9 5.04974 -2.01251 0
M  V30 19256 H 1810.7 2.53245 -1.49145 0
M  V30 19257 H 1808.22 1.3456 -0.90925 0
M  V30 19258 H 1810.21 4.15296 0.365384 0
M  V30 19259 H 1808.87 3.11441 0.918387 0
M  V30 19260 H 1809.89 4.53942 -2.49314 0
M  V30 19261 H 1806.56 4.17455 0.0616022 0
M  V30 19262 H 1807.95 5.59337 -3.72279 0
M  V30 19263 N 1810.67 0.820125 1.3458 0
M  V30 19264 C 1811.92 0.407473 1.98664 0
M  V30 19265 C 1812.25 -1.02613 1.64877 0
M  V30 19266 O 1811.53 -1.71421 0.918964 0
M  V30 19267 C 1811.81 0.606744 3.54952 0
M  V30 19268 C 1811.66 2.08626 3.98491 0
M  V30 19269 C 1812.98 0.0409321 4.40081 0
M  V30 19270 H 1810.1 0.149524 0.721673 0
M  V30 19271 H 1812.74 1.03217 1.59519 0
M  V30 19272 H 1810.89 0.0749788 3.88428 0
M  V30 19273 H 1812.56 2.68144 3.75361 0
M  V30 19274 H 1810.81 2.57774 3.48905 0
M  V30 19275 H 1811.48 2.17651 5.07279 0
M  V30 19276 H 1813.95 0.495234 4.13142 0
M  V30 19277 H 1812.83 0.210182 5.48497 0
M  V30 19278 H 1813.09 -1.05389 4.29355 0
M  V30 19279 N 1812.15 -1.46743 0.574835 0
M  V30 19280 C 1813.4 -2.01625 0.0551724 0
M  V30 19281 C 1813.71 -1.4528 -1.3097 0
M  V30 19282 O 1814.92 -1.91932 -1.92026 0
M  V30 19283 C 1813.37 -3.59868 0.0480708 0
M  V30 19284 C 1812.98 -4.25207 1.41078 0
M  V30 19285 C 1814.73 -4.22436 -0.41806 0
M  V30 19286 C 1812.63 -5.75507 1.36183 0
M  V30 19287 H 1811.56 -0.753812 0.0168558 0
M  V30 19288 H 1814.21 -1.68557 0.725313 0
M  V30 19289 H 1812.6 -3.89976 -0.688076 0
M  V30 19290 H 1813.77 -4.06718 2.16603 0
M  V30 19291 H 1812.09 -3.747 1.81628 0
M  V30 19292 H 1814.68 -5.32601 -0.473353 0
M  V30 19293 H 1815.03 -3.90826 -1.43391 0
M  V30 19294 H 1815.56 -3.96925 0.263775 0
M  V30 19295 H 1812.3 -6.11765 2.35423 0
M  V30 19296 H 1811.82 -5.96282 0.648655 0
M  V30 19297 H 1813.5 -6.38068 1.07137 0
M  V30 19298 N 1813.63 -0.312197 -1.54477 0
M  V30 19299 C 1814.56 0.592742 -2.21403 0
M  V30 19300 C 1815.57 1.0888 -1.21033 0
M  V30 19301 O 1816.76 1.00433 -1.47565 0
M  V30 19302 C 1813.86 1.82478 -2.85578 0
M  V30 19303 C 1813.04 1.46933 -4.11982 0
M  V30 19304 C 1812.09 2.5577 -4.59857 0
M  V30 19305 O 1811.12 2.20391 -5.24801 0
M  V30 19306 N 1812.32 3.86506 -4.3312 0
M  V30 19307 H 1815.09 0.0197398 -2.99693 0
M  V30 19308 H 1812.65 -0.13489 -1.61337 0
M  V30 19309 H 1814.64 2.54657 -3.14534 0
M  V30 19310 H 1813.21 2.3059 -2.11062 0
M  V30 19311 H 1812.43 0.579677 -3.89915 0
M  V30 19312 H 1813.72 1.20739 -4.94267 0
M  V30 19313 H 1813.12 4.18053 -3.81114 0
M  V30 19314 H 1811.67 4.5495 -4.66759 0
M  V30 19315 N 1815.11 1.57549 -0.040136 0
M  V30 19316 C 1816.07 2.09788 0.923126 0
M  V30 19317 C 1817.07 1.01518 1.24703 0
M  V30 19318 O 1818.26 1.27635 1.18554 0
M  V30 19319 C 1815.39 2.57293 2.23636 0
M  V30 19320 H 1816.58 2.96187 0.470482 0
M  V30 19321 H 1814.14 1.54909 0.208088 0
M  V30 19322 H 1814.87 1.74256 2.73506 0
M  V30 19323 H 1814.66 3.36402 2.01435 0
M  V30 19324 H 1816.15 2.97895 2.92658 0
M  V30 19325 N 1816.58 -0.233136 1.55866 0
M  V30 19326 C 1817.83 -0.96064 1.78604 0
M  V30 19327 C 1818.16 -1.84444 0.607795 0
M  V30 19328 O 1817.44 -1.9048 -0.39342 0
M  V30 19329 C 1817.72 -1.80946 3.11337 0
M  V30 19330 C 1817.57 -0.952929 4.3959 0
M  V30 19331 C 1818.89 -2.78941 3.40411 0
M  V30 19332 H 1816.01 -0.347809 0.649767 0
M  V30 19333 H 1818.65 -0.230233 1.886 0
M  V30 19334 H 1816.8 -2.43219 3.02946 0
M  V30 19335 H 1818.48 -0.347831 4.59987 0
M  V30 19336 H 1816.72 -0.257846 4.33033 0
M  V30 19337 H 1817.39 -1.58096 5.28876 0
M  V30 19338 H 1819.87 -2.26804 3.48854 0
M  V30 19339 H 1818.74 -3.35443 4.34475 0
M  V30 19340 H 1819 -3.561 2.62003 0
M  V30 19341 N 1818.06 -1.49479 -0.499372 0
M  V30 19342 C 1819 -1.60874 -1.61848 0
M  V30 19343 C 1819.97 -0.457753 -1.56024 0
M  V30 19344 O 1821.16 -0.673516 -1.76057 0
M  V30 19345 C 1818.29 -1.56518 -3.00366 0
M  V30 19346 C 1817.33 -2.76834 -3.24446 0
M  V30 19347 S 1818.16 -4.38486 -3.07392 0
M  V30 19348 C 1819.32 -4.36779 -4.48303 0
M  V30 19349 H 1819.55 -2.55543 -1.51938 0
M  V30 19350 H 1817.09 -1.3839 -0.68465 0
M  V30 19351 H 1819.04 -1.54691 -3.80238 0
M  V30 19352 H 1817.71 -0.631341 -3.0769 0
M  V30 19353 H 1816.9 -2.70011 -4.2557 0
M  V30 19354 H 1816.5 -2.76082 -2.52299 0
M  V30 19355 H 1818.79 -4.08599 -5.4042 0
M  V30 19356 H 1819.74 -5.38186 -4.60175 0
M  V30 19357 H 1820.14 -3.66837 -4.29058 0
M  V30 19358 N 1819.54 0.750537 -1.38581 0
M  V30 19359 C 1820.79 1.50676 -1.34689 0
M  V30 19360 C 1821.11 1.94903 0.0615414 0
M  V30 19361 O 1820.38 1.67867 1.00982 0
M  V30 19362 H 1818.96 0.558914 -0.495605 0
M  V30 19363 H 1821.62 0.891979 -1.73291 0
M  V30 19364 H 1820.72 2.39623 -1.99969 0
M  V30 19365 N 1821.02 1.235 0.979051 0
M  V30 19366 C 1821.98 1.01854 2.05325 0
M  V30 19367 C 1822.98 -0.0201133 1.60787 0
M  V30 19368 O 1824.17 0.219761 1.72808 0
M  V30 19369 C 1821.3 0.541404 3.36573 0
M  V30 19370 H 1822.5 1.97183 2.25962 0
M  V30 19371 H 1820.05 1.05563 1.15265 0
M  V30 19372 H 1820.79 -0.415607 3.21626 0
M  V30 19373 H 1820.57 1.29092 3.7024 0
M  V30 19374 H 1822.06 0.410635 4.15576 0
M  V30 19375 N 1822.5 -1.17802 1.04693 0
M  V30 19376 C 1823.43 -2.23847 0.664448 0
M  V30 19377 C 1824.41 -1.66761 -0.335356 0
M  V30 19378 O 1825.59 -1.93017 -0.214062 0
M  V30 19379 C 1822.72 -3.47284 0.0331587 0
M  V30 19380 C 1821.68 -4.1716 0.95718 0
M  V30 19381 C 1821 -5.34362 0.190034 0
M  V30 19382 C 1822.3 -4.69951 2.2791 0
M  V30 19383 H 1824 -2.56095 1.55099 0
M  V30 19384 H 1821.54 -1.23097 0.747196 0
M  V30 19385 H 1823.5 -4.2068 -0.246178 0
M  V30 19386 H 1822.22 -3.14288 -0.888294 0
M  V30 19387 H 1820.88 -3.45669 1.221 0
M  V30 19388 H 1820.53 -4.97615 -0.734025 0
M  V30 19389 H 1820.23 -5.8205 0.805684 0
M  V30 19390 H 1821.75 -6.10545 -0.0821372 0
M  V30 19391 H 1823.17 -5.3501 2.06003 0
M  V30 19392 H 1821.56 -5.28198 2.84828 0
M  V30 19393 H 1822.63 -3.87032 2.9212 0
M  V30 19394 N 1823.98 -0.827251 -1.34143 0
M  V30 19395 C 1824.89 -0.254285 -2.33218 0
M  V30 19396 C 1825.9 0.613602 -1.62822 0
M  V30 19397 O 1827.08 0.520477 -1.94558 0
M  V30 19398 C 1824.14 0.570817 -3.41969 0
M  V30 19399 C 1823.2 -0.319978 -4.28106 0
M  V30 19400 C 1822.44 0.465839 -5.31663 0
M  V30 19401 O 1822.66 1.6987 -5.44518 0
M  V30 19402 O 1821.59 -0.154094 -6.01703 0
M  V30 19403 H 1825.42 -1.07441 -2.8406 0
M  V30 19404 H 1823 -0.589493 -1.37278 0
M  V30 19405 H 1824.89 1.04009 -4.08363 0
M  V30 19406 H 1823.56 1.3682 -2.93363 0
M  V30 19407 H 1822.47 -0.836843 -3.6462 0
M  V30 19408 H 1823.8 -1.08183 -4.80164 0
M  V30 19409 N 1825.45 1.46436 -0.582609 0
M  V30 19410 C 1826.7 2.01986 -0.0680147 0
M  V30 19411 C 1827.02 1.45654 1.29653 0
M  V30 19412 O 1826.29 0.641203 1.85109 0
M  V30 19413 H 1824.87 0.746671 -0.022153 0
M  V30 19414 H 1827.53 1.79541 -0.758367 0
M  V30 19415 H 1826.63 3.121 0.00106001 0
M  V30 19416 N 1826.93 0.320385 1.54309 0
M  V30 19417 C 1827.86 -0.539789 2.27175 0
M  V30 19418 C 1828.84 -1.12198 1.2785 0
M  V30 19419 O 1830.03 -1.1477 1.56657 0
M  V30 19420 C 1827.16 -1.70236 3.02716 0
M  V30 19421 C 1826.11 -1.24962 4.09351 0
M  V30 19422 C 1825.44 -2.49888 4.72715 0
M  V30 19423 C 1826.74 -0.366788 5.21011 0
M  V30 19424 H 1828.43 0.0680079 2.99323 0
M  V30 19425 H 1825.98 0.0341488 1.4396 0
M  V30 19426 H 1827.93 -2.31037 3.5242 0
M  V30 19427 H 1826.65 -2.33669 2.2818 0
M  V30 19428 H 1825.31 -0.664556 3.60526 0
M  V30 19429 H 1824.96 -3.11679 3.94798 0
M  V30 19430 H 1824.66 -2.20288 5.44745 0
M  V30 19431 H 1826.19 -3.11458 5.25192 0
M  V30 19432 H 1827.6 -0.881001 5.6649 0
M  V30 19433 H 1826 -0.163707 5.99877 0
M  V30 19434 H 1827.07 0.603185 4.81134 0
M  V30 19435 N 1828.41 -1.57525 0.0484906 0
M  V30 19436 C 1829.83 -1.56599 -0.308041 0
M  V30 19437 C 1830.03 -1.05591 -1.71618 0
M  V30 19438 O 1829.08 -0.711302 -2.42274 0
M  V30 19439 C 1830.39 -3.00379 -0.138955 0
M  V30 19440 C 1831.94 -3.12293 -0.210262 0
M  V30 19441 C 1832.42 -4.57947 -0.0697369 0
M  V30 19442 N 1833.91 -4.63028 -0.1261 0
M  V30 19443 C 1834.64 -5.73385 -0.0414392 0
M  V30 19444 N 1834.14 -6.92734 0.0954164 0
M  V30 19445 N 1835.93 -5.62017 -0.0968281 0
M  V30 19446 H 1828.08 -1.89005 0.969069 0
M  V30 19447 H 1830.35 -0.87027 0.375944 0
M  V30 19448 H 1830.05 -3.41722 0.831808 0
M  V30 19449 H 1829.93 -3.66278 -0.901109 0
M  V30 19450 H 1832.31 -2.7085 -1.1715 0
M  V30 19451 H 1832.39 -2.49077 0.582601 0
M  V30 19452 H 1832.04 -5.00074 0.888161 0
M  V30 19453 H 1831.97 -5.19166 -0.881711 0
M  V30 19454 H 1834.46 -3.77192 -0.231232 0
M  V30 19455 H 1834.77 -7.72649 0.152796 0
M  V30 19456 H 1833.12 -6.94878 0.130465 0
M  V30 19457 H 1836.31 -4.67663 -0.202283 0
M  V30 19458 H 1836.48 -6.47994 -0.0273908 0
M  V30 19459 N 1829.89 0.224867 -1.55988 0
M  V30 19460 C 1831.13 0.951154 -1.79111 0
M  V30 19461 C 1831.47 1.84119 -0.617568 0
M  V30 19462 O 1830.74 1.90686 0.383312 0
M  V30 19463 C 1831.02 1.79292 -3.12292 0
M  V30 19464 C 1830.88 0.929603 -4.40089 0
M  V30 19465 C 1832.2 2.77132 -3.41886 0
M  V30 19466 H 1829.32 0.344359 -0.651603 0
M  V30 19467 H 1831.96 0.220228 -1.88719 0
M  V30 19468 H 1830.11 2.41609 -3.04232 0
M  V30 19469 H 1831.78 0.323432 -4.60165 0
M  V30 19470 H 1830.02 0.234877 -4.33164 0
M  V30 19471 H 1830.69 1.55289 -5.29707 0
M  V30 19472 H 1833.17 2.24951 -3.50052 0
M  V30 19473 H 1832.05 3.33135 -4.36248 0
M  V30 19474 H 1832.31 3.54705 -2.63887 0
M  V30 19475 N 1831.37 1.49742 0.491438 0
M  V30 19476 C 1832.33 1.66587 1.57421 0
M  V30 19477 C 1833.33 0.537281 1.51558 0
M  V30 19478 O 1834.52 0.803928 1.5454 0
M  V30 19479 C 1831.65 1.67217 2.97071 0
M  V30 19480 H 1832.84 2.63171 1.4381 0
M  V30 19481 H 1830.4 1.38917 0.716368 0
M  V30 19482 H 1831.13 0.722529 3.16149 0
M  V30 19483 H 1830.92 2.49187 3.02734 0
M  V30 19484 H 1832.41 1.82274 3.75721 0
M  V30 19485 N 1832.84 -0.743177 1.38977 0
M  V30 19486 C 1834.09 -1.49798 1.35069 0
M  V30 19487 C 1834.41 -1.95527 -0.0533172 0
M  V30 19488 O 1835.61 -2.70648 -0.21497 0
M  V30 19489 C 1834.07 -2.70637 2.37242 0
M  V30 19490 C 1833.68 -2.3189 3.83316 0
M  V30 19491 C 1835.42 -3.4849 2.42395 0
M  V30 19492 C 1833.33 -3.49403 4.77149 0
M  V30 19493 H 1832.26 -0.562495 0.50211 0
M  V30 19494 H 1834.91 -0.81145 1.64584 0
M  V30 19495 H 1833.29 -3.41323 2.00785 0
M  V30 19496 H 1834.46 -1.68803 4.28768 0
M  V30 19497 H 1832.78 -1.67148 3.8138 0
M  V30 19498 H 1835.38 -4.35882 3.09694 0
M  V30 19499 H 1835.72 -3.9038 1.446 0
M  V30 19500 H 1836.25 -2.84825 2.77704 0
M  V30 19501 H 1832.99 -3.1257 5.76177 0
M  V30 19502 H 1832.51 -4.11498 4.36382 0
M  V30 19503 H 1834.19 -4.15847 4.95661 0
M  V30 19504 N 1834.32 -1.24018 -0.972487 0
M  V30 19505 C 1835.57 -1.07489 -1.71145 0
M  V30 19506 C 1835.89 0.387798 -1.91105 0
M  V30 19507 O 1835.16 1.27725 -1.48537 0
M  V30 19508 H 1833.74 -0.394765 -0.634168 0
M  V30 19509 H 1836.4 -1.55861 -1.17018 0
M  V30 19510 H 1835.5 -1.56913 -2.69786 0
M  V30 19511 N 1835.8 1.17245 -1.05316 0
M  V30 19512 C 1837.21 1.69167 -0.789906 0
M  V30 19513 C 1837.56 1.83751 0.687762 0
M  V30 19514 O 1836.69 1.52596 1.53438 0
M  V30 19515 C 1837.28 3.07269 -1.42728 0
M  V30 19516 C 1835.84 3.56352 -1.21204 0
M  V30 19517 C 1834.99 2.3258 -1.51003 0
M  V30 19518 H 1837.94 1.01744 -1.21794 0
M  V30 19519 H 1837.96 3.71175 -0.837236 0
M  V30 19520 H 1837.47 2.96622 -2.50273 0
M  V30 19521 H 1835.57 3.72274 -0.155891 0
M  V30 19522 H 1835.69 4.39038 -1.91787 0
M  V30 19523 H 1834.05 2.37107 -0.930172 0
M  V30 19524 H 1834.83 2.2454 -2.59685 0
M  V30 19525 N 1837.28 0.834353 1.33702 0
M  V30 19526 C 1838.52 0.4339 1.99742 0
M  V30 19527 C 1838.88 -0.987294 1.64671 0
M  V30 19528 O 1840.08 -1.49124 2.23642 0
M  V30 19529 C 1838.35 0.643042 3.51568 0
M  V30 19530 S 1839.91 0.337137 4.37503 0
M  V30 19531 H 1836.73 0.163412 0.691966 0
M  V30 19532 H 1839.33 1.08266 1.62785 0
M  V30 19533 H 1838.04 1.67685 3.7458 0
M  V30 19534 H 1837.57 -0.0200346 3.93395 0
M  V30 19535 H 1839.58 -0.844826 4.88955 0
M  V30 19536 N 1838.76 -1.46125 0.590367 0
M  V30 19537 C 1840.17 -1.57588 0.252639 0
M  V30 19538 C 1840.37 -1.58435 -1.24502 0
M  V30 19539 O 1839.43 -1.50541 -2.02716 0
M  V30 19540 C 1840.74 -2.86644 0.908612 0
M  V30 19541 C 1842.29 -3.00289 0.882917 0
M  V30 19542 C 1842.76 -4.32092 1.51858 0
M  V30 19543 N 1844.26 -4.38809 1.48327 0
M  V30 19544 C 1844.99 -5.39426 1.94442 0
M  V30 19545 N 1844.49 -6.46674 2.48565 0
M  V30 19546 N 1846.28 -5.30675 1.85313 0
M  V30 19547 H 1838.43 -1.43819 1.56301 0
M  V30 19548 H 1840.69 -0.686515 0.653759 0
M  V30 19549 H 1840.4 -2.91857 1.96246 0
M  V30 19550 H 1840.27 -3.74838 0.421445 0
M  V30 19551 H 1842.66 -2.94653 -0.16233 0
M  V30 19552 H 1842.74 -2.13551 1.40818 0
M  V30 19553 H 1842.39 -4.38486 2.56306 0
M  V30 19554 H 1842.32 -5.17618 0.968474 0
M  V30 19555 H 1844.81 -3.61907 1.08772 0
M  V30 19556 H 1845.12 -7.19671 2.8159 0
M  V30 19557 H 1843.46 -6.47473 2.52595 0
M  V30 19558 H 1846.66 -4.45793 1.42782 0
M  V30 19559 H 1846.83 -6.08943 2.21567 0
M  V30 19560 N 1840.23 -0.328564 -1.54137 0
M  V30 19561 C 1841.17 0.577788 -2.20764 0
M  V30 19562 C 1842.15 1.11189 -1.18642 0
M  V30 19563 O 1843.33 1.17496 -1.47401 0
M  V30 19564 C 1840.46 1.79333 -2.87328 0
M  V30 19565 C 1839.5 1.39003 -4.03213 0
M  V30 19566 S 1840.34 0.422499 -5.33831 0
M  V30 19567 C 1841.49 1.64521 -6.0389 0
M  V30 19568 H 1841.72 0.0118326 -2.97298 0
M  V30 19569 H 1839.26 -0.112643 -1.53989 0
M  V30 19570 H 1841.22 2.49076 -3.263 0
M  V30 19571 H 1839.88 2.33048 -2.10589 0
M  V30 19572 H 1839.07 2.29593 -4.48668 0
M  V30 19573 H 1838.67 0.77225 -3.6594 0
M  V30 19574 H 1840.96 2.58192 -6.26373 0
M  V30 19575 H 1841.91 1.23272 -6.97287 0
M  V30 19576 H 1842.31 1.83446 -5.33861 0
M  V30 19577 N 1841.71 1.57497 -0.0568439 0
M  V30 19578 C 1842.64 2.14892 0.913427 0
M  V30 19579 C 1843.62 1.07205 1.32065 0
M  V30 19580 O 1844.81 1.35172 1.39435 0
M  V30 19581 C 1841.94 2.69849 2.18629 0
M  V30 19582 C 1840.89 3.8257 1.91896 0
M  V30 19583 C 1840.22 4.24068 3.25685 0
M  V30 19584 C 1841.52 5.07463 1.23606 0
M  V30 19585 H 1843.21 2.96218 0.435347 0
M  V30 19586 H 1840.76 1.4249 0.20796 0
M  V30 19587 H 1842.71 3.08643 2.86911 0
M  V30 19588 H 1841.44 1.85723 2.68653 0
M  V30 19589 H 1840.09 3.44258 1.26024 0
M  V30 19590 H 1839.74 3.36884 3.73521 0
M  V30 19591 H 1839.44 5.00043 3.08594 0
M  V30 19592 H 1840.97 4.65466 3.95189 0
M  V30 19593 H 1842.38 5.43667 1.81931 0
M  V30 19594 H 1840.78 5.88619 1.16823 0
M  V30 19595 H 1841.85 4.84432 0.212918 0
M  V30 19596 N 1843.19 -0.216591 1.56105 0
M  V30 19597 C 1844.12 -1.29202 1.89313 0
M  V30 19598 C 1845.14 -1.42798 0.781832 0
M  V30 19599 O 1846.32 -1.43607 1.06016 0
M  V30 19600 C 1843.42 -2.66701 2.09102 0
M  V30 19601 C 1842.6 -2.74989 3.40147 0
M  V30 19602 C 1841.66 -3.93536 3.49308 0
M  V30 19603 O 1840.68 -3.81642 4.22301 0
M  V30 19604 N 1841.88 -5.08059 2.80814 0
M  V30 19605 H 1844.65 -1.01038 2.82155 0
M  V30 19606 H 1842.21 -0.406611 1.56711 0
M  V30 19607 H 1844.2 -3.44396 2.12541 0
M  V30 19608 H 1842.77 -2.87443 1.22862 0
M  V30 19609 H 1841.99 -1.83733 3.48763 0
M  V30 19610 H 1843.28 -2.775 4.26464 0
M  V30 19611 H 1842.68 -5.20618 2.21299 0
M  V30 19612 H 1841.24 -5.83778 2.89908 0
M  V30 19613 N 1844.67 -1.5 -0.48349 0
M  V30 19614 C 1845.9 -1.63867 -1.25821 0
M  V30 19615 C 1846.31 -0.316335 -1.86537 0
M  V30 19616 O 1845.65 0.710307 -1.69412 0
M  V30 19617 C 1845.71 -2.66251 -2.41559 0
M  V30 19618 C 1845.38 -4.10141 -2.01577 0
M  V30 19619 C 1846.37 -4.964 -1.5454 0
M  V30 19620 C 1844.06 -4.55983 -2.10677 0
M  V30 19621 C 1846.05 -6.26546 -1.17129 0
M  V30 19622 C 1843.74 -5.86137 -1.72877 0
M  V30 19623 C 1844.74 -6.71243 -1.2618 0
M  V30 19624 O 1844.42 -7.98969 -0.888988 0
M  V30 19625 H 1844.16 -0.554155 -0.387154 0
M  V30 19626 H 1846.71 -1.96893 -0.585005 0
M  V30 19627 H 1844.94 -2.28442 -3.12011 0
M  V30 19628 H 1846.63 -2.69466 -3.03551 0
M  V30 19629 H 1847.4 -4.62205 -1.46942 0
M  V30 19630 H 1843.27 -3.89895 -2.45974 0
M  V30 19631 H 1846.82 -6.92927 -0.806093 0
M  V30 19632 H 1842.72 -6.19857 -1.80131 0
M  V30 19633 H 1843.48 -8.12133 -1.01893 0
M  V30 19634 N 1846.15 0.735796 -1.39369 0
M  V30 19635 C 1847.39 1.50799 -1.37982 0
M  V30 19636 C 1847.75 1.91984 0.0248794 0
M  V30 19637 O 1848.95 2.68301 0.163755 0
M  V30 19638 C 1847.22 2.71494 -2.32434 0
M  V30 19639 S 1848.78 3.61153 -2.49227 0
M  V30 19640 H 1845.6 0.515828 -0.489329 0
M  V30 19641 H 1848.2 0.862229 -1.75459 0
M  V30 19642 H 1846.91 2.39376 -3.33358 0
M  V30 19643 H 1846.44 3.41 -1.96169 0
M  V30 19644 H 1848.45 4.6508 -1.72959 0
M  V30 19645 N 1847.63 1.24532 0.965897 0
M  V30 19646 C 1848.56 1.06393 2.07853 0
M  V30 19647 C 1849.54 -0.0236467 1.70084 0
M  V30 19648 O 1850.72 0.143767 1.93667 0
M  V30 19649 C 1847.85 0.669877 3.40778 0
M  V30 19650 C 1846.81 1.70643 3.92511 0
M  V30 19651 C 1846.13 1.16738 5.21801 0
M  V30 19652 C 1847.43 3.10278 4.20149 0
M  V30 19653 H 1849.13 1.99459 2.23285 0
M  V30 19654 H 1846.67 0.960397 1.07296 0
M  V30 19655 H 1848.62 0.52997 4.18054 0
M  V30 19656 H 1847.35 -0.296477 3.25252 0
M  V30 19657 H 1846.01 1.83458 3.17393 0
M  V30 19658 H 1845.66 0.191586 5.02635 0
M  V30 19659 H 1845.36 1.86009 5.57382 0
M  V30 19660 H 1846.88 1.03963 6.01684 0
M  V30 19661 H 1848.29 3.00681 4.88123 0
M  V30 19662 H 1846.69 3.76918 4.66962 0
M  V30 19663 H 1847.76 3.58182 3.26854 0
M  V30 19664 N 1849.1 -1.16685 1.05936 0
M  V30 19665 C 1850.04 -2.20516 0.624931 0
M  V30 19666 C 1851.05 -1.59719 -0.315206 0
M  V30 19667 O 1852.24 -1.7818 -0.106761 0
M  V30 19668 C 1849.34 -3.38739 -0.10452 0
M  V30 19669 C 1848.51 -4.29097 0.848197 0
M  V30 19670 C 1847.57 -5.25961 0.158648 0
M  V30 19671 O 1846.6 -5.63619 0.795149 0
M  V30 19672 N 1847.8 -5.69961 -1.10115 0
M  V30 19673 H 1850.56 -2.58408 1.51807 0
M  V30 19674 H 1848.12 -1.31658 0.942216 0
M  V30 19675 H 1850.12 -4.00578 -0.576133 0
M  V30 19676 H 1848.69 -2.99382 -0.899414 0
M  V30 19677 H 1847.91 -3.64576 1.49927 0
M  V30 19678 H 1849.19 -4.86352 1.49463 0
M  V30 19679 H 1848.59 -5.41452 -1.63847 0
M  V30 19680 H 1847.15 -6.33908 -1.51669 0
M  V30 19681 N 1850.58 -0.841432 -1.33258 0
M  V30 19682 C 1851.83 -0.437512 -1.97307 0
M  V30 19683 C 1852.15 1.00723 -1.66973 0
M  V30 19684 O 1851.42 1.70199 -0.969998 0
M  V30 19685 H 1850 -0.158794 -0.729927 0
M  V30 19686 H 1852.66 -1.07495 -1.62575 0
M  V30 19687 H 1851.76 -0.571675 -3.0682 0
M  V30 19688 N 1852.06 1.4581 -0.598108 0
M  V30 19689 C 1852.99 2.33223 0.113747 0
M  V30 19690 C 1853.97 1.46268 0.868312 0
M  V30 19691 O 1855.16 1.75058 0.840737 0
M  V30 19692 C 1852.29 3.28815 1.11795 0
M  V30 19693 C 1851.24 4.25331 0.477223 0
M  V30 19694 C 1850.57 5.10544 1.589 0
M  V30 19695 C 1851.87 5.18894 -0.595518 0
M  V30 19696 H 1853.56 2.92992 -0.616123 0
M  V30 19697 H 1851.11 1.40888 -0.297741 0
M  V30 19698 H 1853.06 3.88832 1.62443 0
M  V30 19699 H 1851.78 2.67185 1.87829 0
M  V30 19700 H 1850.44 3.66599 -0.00831044 0
M  V30 19701 H 1850.09 4.45288 2.33939 0
M  V30 19702 H 1849.79 5.75918 1.16584 0
M  V30 19703 H 1851.31 5.73427 2.09794 0
M  V30 19704 H 1852.73 5.73037 -0.173494 0
M  V30 19705 H 1851.12 5.92694 -0.939873 0
M  V30 19706 H 1852.19 4.61895 -1.47584 0
M  V30 19707 N 1853.54 0.336733 1.53961 0
M  V30 19708 C 1854.78 -0.26186 2.008 0
M  V30 19709 C 1855.11 -1.51101 1.22469 0
M  V30 19710 O 1854.37 -1.9341 0.298485 0
M  V30 19711 C 1854.67 -0.628163 3.51836 0
M  V30 19712 C 1854.33 0.523319 4.47853 0
M  V30 19713 C 1852.99 0.83934 4.73823 0
M  V30 19714 C 1855.35 1.29615 5.04826 0
M  V30 19715 C 1852.67 1.93068 5.54023 0
M  V30 19716 C 1855.03 2.37768 5.86216 0
M  V30 19717 C 1853.69 2.69937 6.10483 0
M  V30 19718 H 1852.96 -0.0958214 0.734778 0
M  V30 19719 H 1855.61 0.463238 1.85813 0
M  V30 19720 H 1853.91 -1.43388 3.64619 0
M  V30 19721 H 1855.61 -1.10309 3.8553 0
M  V30 19722 H 1852.2 0.266944 4.27768 0
M  V30 19723 H 1856.38 1.06526 4.84733 0
M  V30 19724 H 1851.64 2.18423 5.71053 0
M  V30 19725 H 1855.81 2.98087 6.29378 0
M  V30 19726 H 1853.44 3.54629 6.72415 0
M  V30 19727 N 1855.02 -1.57465 0.0651956 0
M  V30 19728 C 1855.97 -2.08865 -0.914306 0
M  V30 19729 C 1856.95 -0.996864 -1.26299 0
M  V30 19730 O 1858.14 -1.26003 -1.24307 0
M  V30 19731 C 1855.27 -2.64852 -2.18423 0
M  V30 19732 C 1854.36 -3.81023 -1.86231 0
M  V30 19733 N 1854.75 -4.90248 -1.24461 0
M  V30 19734 C 1853.05 -3.90194 -2.1602 0
M  V30 19735 C 1853.75 -5.71164 -1.10214 0
M  V30 19736 N 1852.72 -5.19221 -1.60967 0
M  V30 19737 H 1856.52 -2.90704 -0.432282 0
M  V30 19738 H 1854.04 -1.61805 -0.138878 0
M  V30 19739 H 1856.04 -2.99987 -2.89506 0
M  V30 19740 H 1854.7 -1.84457 -2.67219 0
M  V30 19741 H 1855.71 -5.09752 -0.915067 0
M  V30 19742 H 1852.38 -3.20764 -2.67239 0
M  V30 19743 H 1853.77 -6.6902 -0.621427 0
M  V30 19744 N 1856.49 0.20831 -1.56217 0
M  V30 19745 C 1857.9 0.774162 -1.69893 0
M  V30 19746 C 1858.26 1.84424 -0.669506 0
M  V30 19747 O 1857.38 2.15677 0.176748 0
M  V30 19748 C 1857.98 1.41102 -3.08019 0
M  V30 19749 C 1856.53 1.9241 -3.23505 0
M  V30 19750 C 1855.68 0.789129 -2.65835 0
M  V30 19751 H 1858.63 -0.0165614 -1.58691 0
M  V30 19752 H 1858.65 2.28015 -3.04614 0
M  V30 19753 H 1858.17 0.631966 -3.8292 0
M  V30 19754 H 1856.27 2.73076 -2.53496 0
M  V30 19755 H 1856.38 2.09497 -4.30868 0
M  V30 19756 H 1854.74 1.19995 -2.24663 0
M  V30 19757 H 1855.53 0.0225345 -3.43293 0
M  V30 19758 N 1857.97 1.50255 0.475528 0
M  V30 19759 C 1858.93 1.68248 1.55645 0
M  V30 19760 C 1859.93 0.553326 1.5098 0
M  V30 19761 O 1861.12 0.820274 1.53679 0
M  V30 19762 C 1858.26 1.70358 2.95281 0
M  V30 19763 H 1859.45 2.64681 1.4101 0
M  V30 19764 H 1857 1.39669 0.701594 0
M  V30 19765 H 1857.74 0.75602 3.15365 0
M  V30 19766 H 1857.52 2.52384 3.00074 0
M  V30 19767 H 1859.01 1.86249 3.73766 0
M  V30 19768 N 1859.45 -0.728395 1.39758 0
M  V30 19769 C 1860.87 -1.03481 1.21506 0
M  V30 19770 C 1861.07 -2.01336 0.0812728 0
M  V30 19771 O 1860.12 -2.46099 -0.564956 0
M  V30 19772 C 1861.43 -1.59078 2.55176 0
M  V30 19773 C 1862.98 -1.71126 2.62078 0
M  V30 19774 C 1863.46 -2.30131 3.95985 0
M  V30 19775 N 1864.95 -2.37532 3.97659 0
M  V30 19776 C 1865.68 -2.8414 4.98048 0
M  V30 19777 N 1865.18 -3.30595 6.08834 0
M  V30 19778 N 1866.97 -2.83409 4.85423 0
M  V30 19779 H 1859.12 -0.0795283 2.12251 0
M  V30 19780 H 1861.39 -0.0978972 0.942932 0
M  V30 19781 H 1861.09 -0.946401 3.38727 0
M  V30 19782 H 1860.97 -2.5779 2.75362 0
M  V30 19783 H 1863.35 -2.34684 1.78906 0
M  V30 19784 H 1863.43 -0.710485 2.45735 0
M  V30 19785 H 1863.08 -1.67198 4.79591 0
M  V30 19786 H 1863.01 -3.30898 4.09651 0
M  V30 19787 H 1865.5 -2.04706 3.17654 0
M  V30 19788 H 1865.81 -3.64689 6.81338 0
M  V30 19789 H 1864.16 -3.28587 6.12418 0
M  V30 19790 H 1867.35 -2.46444 3.97974 0
M  V30 19791 H 1867.52 -3.19417 5.63806 0
M  V30 19792 N 1860.93 -1.25042 -0.959279 0
M  V30 19793 C 1861.87 -1.0502 -2.05522 0
M  V30 19794 C 1862.84 0.039194 -1.66054 0
M  V30 19795 O 1864.03 -0.11708 -1.9044 0
M  V30 19796 C 1861.17 -0.670047 -3.38533 0
M  V30 19797 C 1860.28 -1.83381 -3.91146 0
M  V30 19798 C 1859.42 -1.39844 -5.12462 0
M  V30 19799 C 1858.46 -2.53163 -5.57293 0
M  V30 19800 N 1857.59 -2.10435 -6.69822 0
M  V30 19801 H 1862.43 -1.98816 -2.21982 0
M  V30 19802 H 1859.97 -0.990139 -1.08787 0
M  V30 19803 H 1861.93 -0.430621 -4.14972 0
M  V30 19804 H 1860.56 0.230924 -3.21973 0
M  V30 19805 H 1859.61 -2.18667 -3.1127 0
M  V30 19806 H 1860.92 -2.68497 -4.2037 0
M  V30 19807 H 1860.08 -1.1184 -5.96303 0
M  V30 19808 H 1858.82 -0.51794 -4.84942 0
M  V30 19809 H 1857.82 -2.81918 -4.7202 0
M  V30 19810 H 1859.05 -3.41784 -5.86822 0
M  V30 19811 H 1856.99 -1.24794 -6.44021 0
M  V30 19812 H 1856.91 -2.89101 -6.98539 0
M  V30 19813 H 1858.18 -1.85593 -7.57084 0
M  V30 19814 N 1862.41 1.16121 -1.06553 0
M  V30 19815 C 1863.65 1.86991 -0.784989 0
M  V30 19816 C 1863.99 1.81645 0.686919 0
M  V30 19817 O 1863.26 1.23394 1.50347 0
M  V30 19818 C 1863.54 3.36448 -1.28355 0
M  V30 19819 C 1863.4 3.5047 -2.81941 0
M  V30 19820 C 1864.72 4.30933 -0.893561 0
M  V30 19821 H 1861.83 0.678978 -0.286633 0
M  V30 19822 H 1864.48 1.36475 -1.32192 0
M  V30 19823 H 1862.63 3.796 -0.826796 0
M  V30 19824 H 1864.3 3.16237 -3.35845 0
M  V30 19825 H 1862.54 2.92294 -3.20541 0
M  V30 19826 H 1863.21 4.55443 -3.11891 0
M  V30 19827 H 1865.69 3.95696 -1.287 0
M  V30 19828 H 1864.56 5.3401 -1.26984 0
M  V30 19829 H 1864.83 4.41642 0.201274 0
M  V30 19830 N 1863.88 0.848487 1.3281 0
M  V30 19831 C 1865.3 0.537529 1.50276 0
M  V30 19832 C 1865.5 -0.93314 1.78591 0
M  V30 19833 O 1864.56 -1.71649 1.85184 0
M  V30 19834 C 1865.87 1.41919 2.65103 0
M  V30 19835 C 1867.42 1.41897 2.78988 0
M  V30 19836 C 1867.89 2.2857 3.96888 0
M  V30 19837 N 1869.38 2.26331 4.04139 0
M  V30 19838 C 1870.12 2.90127 4.94585 0
M  V30 19839 N 1869.61 3.63011 5.9008 0
M  V30 19840 N 1871.41 2.79547 4.87658 0
M  V30 19841 H 1863.56 1.80038 1.12695 0
M  V30 19842 H 1865.82 0.768636 0.554889 0
M  V30 19843 H 1865.53 2.4647 2.50889 0
M  V30 19844 H 1865.4 1.10213 3.60739 0
M  V30 19845 H 1867.79 0.381128 2.92628 0
M  V30 19846 H 1867.87 1.77614 1.84084 0
M  V30 19847 H 1867.51 3.32418 3.84006 0
M  V30 19848 H 1867.44 1.90188 4.91056 0
M  V30 19849 H 1869.93 1.73337 3.35802 0
M  V30 19850 H 1870.25 4.08872 6.55777 0
M  V30 19851 H 1868.59 3.67119 5.90126 0
M  V30 19852 H 1871.78 2.22162 4.12021 0
M  V30 19853 H 1871.96 3.29548 5.57944 0
M  V30 19854 N 1865.36 -1.4549 0.605832 0
M  V30 19855 C 1866.64 -1.95573 0.0324098 0
M  V30 19856 C 1867.02 -1.54829 -1.43496 0
M  V30 19857 O 1866.37 -0.810005 -2.13661 0
M  V30 19858 C 1866.58 -3.4825 0.228676 0
M  V30 19859 C 1867.93 -4.24461 0.108559 0
M  V30 19860 O 1868.95 -3.55846 0.158706 0
M  V30 19861 O 1867.81 -5.46499 -0.00781404 0
M  V30 19862 H 1864.9 -0.826184 -0.0367314 0
M  V30 19863 H 1867.45 -1.55664 0.675771 0
M  V30 19864 H 1866.22 -3.70869 1.24786 0
M  V30 19865 H 1865.84 -3.95045 -0.450031 0
M  V30 19866 N 1866.84 -0.344893 -1.5378 0
M  V30 19867 C 1868.09 0.25158 -2.01233 0
M  V30 19868 C 1868.42 1.50094 -1.23229 0
M  V30 19869 O 1867.69 1.91845 -0.320282 0
M  V30 19870 C 1867.98 0.564366 -3.5565 0
M  V30 19871 C 1867.83 -0.697186 -4.44364 0
M  V30 19872 C 1869.15 1.37343 -4.18121 0
M  V30 19873 H 1866.27 0.0899643 -0.731488 0
M  V30 19874 H 1868.91 -0.465697 -1.84204 0
M  V30 19875 H 1867.06 1.17543 -3.70292 0
M  V30 19876 H 1868.73 -1.33512 -4.41557 0
M  V30 19877 H 1866.98 -1.3218 -4.13172 0
M  V30 19878 H 1867.65 -0.433571 -5.50295 0
M  V30 19879 H 1870.12 0.85671 -4.07185 0
M  V30 19880 H 1869 1.56103 -5.26235 0
M  V30 19881 H 1869.26 2.37593 -3.7283 0
M  V30 19882 N 1868.32 1.57428 -0.0735454 0
M  V30 19883 C 1869.55 1.97596 0.603272 0
M  V30 19884 C 1869.96 0.950716 1.63579 0
M  V30 19885 O 1869.3 -0.0707453 1.83564 0
M  V30 19886 C 1869.36 3.34079 1.32784 0
M  V30 19887 C 1869.03 4.54793 0.448586 0
M  V30 19888 C 1870.02 5.19065 -0.294536 0
M  V30 19889 C 1867.71 5.00914 0.372952 0
M  V30 19890 C 1869.7 6.2781 -1.1015 0
M  V30 19891 C 1867.39 6.09531 -0.437679 0
M  V30 19892 C 1868.39 6.72842 -1.17357 0
M  V30 19893 O 1868.07 7.79367 -1.97083 0
M  V30 19894 H 1867.81 0.654764 0.168108 0
M  V30 19895 H 1870.36 2.04902 -0.143013 0
M  V30 19896 H 1868.59 3.23393 2.12023 0
M  V30 19897 H 1870.28 3.5884 1.89707 0
M  V30 19898 H 1871.05 4.84377 -0.245706 0
M  V30 19899 H 1866.92 4.51411 0.935363 0
M  V30 19900 H 1870.47 6.77158 -1.67639 0
M  V30 19901 H 1866.37 6.43652 -0.488066 0
M  V30 19902 H 1867.13 7.96253 -1.89533 0
M  V30 19903 N 1869.8 -0.200022 1.56326 0
M  V30 19904 C 1871.04 -0.918015 1.81505 0
M  V30 19905 C 1871.4 -1.81093 0.649849 0
M  V30 19906 O 1870.69 -1.88279 -0.355199 0
M  V30 19907 C 1870.88 -1.77356 3.1029 0
M  V30 19908 C 1870.71 -0.964962 4.39225 0
M  V30 19909 C 1869.48 -0.651338 5.01085 0
M  V30 19910 C 1871.68 -0.320001 5.13304 0
M  V30 19911 N 1869.66 0.176405 6.13646 0
M  V30 19912 C 1871.03 0.370162 6.18894 0
M  V30 19913 C 1873.09 -0.235224 4.97344 0
M  V30 19914 C 1871.79 1.13702 7.10257 0
M  V30 19915 C 1873.82 0.518224 5.89125 0
M  V30 19916 C 1873.18 1.19685 6.94158 0
M  V30 19917 H 1869.28 -0.315481 0.715539 0
M  V30 19918 H 1871.86 -0.187131 1.93799 0
M  V30 19919 H 1870.03 -2.47609 2.9924 0
M  V30 19920 H 1871.77 -2.43066 3.23575 0
M  V30 19921 H 1868.52 -0.974575 4.63464 0
M  V30 19922 H 1868.95 0.579743 6.74513 0
M  V30 19923 H 1873.59 -0.74554 4.16175 0
M  V30 19924 H 1871.31 1.65878 7.90892 0
M  V30 19925 H 1874.89 0.58511 5.7885 0
M  V30 19926 H 1873.77 1.77053 7.63951 0
M  V30 19927 N 1871.27 -1.50505 -0.467553 0
M  V30 19928 C 1872.22 -1.69626 -1.56511 0
M  V30 19929 C 1873.19 -0.537594 -1.5716 0
M  V30 19930 O 1874.38 -0.768574 -1.74636 0
M  V30 19931 C 1871.52 -1.79965 -2.9446 0
M  V30 19932 C 1870.63 -3.07356 -3.03572 0
M  V30 19933 C 1869.76 -3.08469 -4.32458 0
M  V30 19934 C 1868.8 -4.303 -4.35326 0
M  V30 19935 N 1867.94 -4.29132 -5.55689 0
M  V30 19936 H 1872.78 -2.63326 -1.39511 0
M  V30 19937 H 1870.32 -1.30531 -0.678239 0
M  V30 19938 H 1872.28 -1.8394 -3.74462 0
M  V30 19939 H 1870.91 -0.897013 -3.10086 0
M  V30 19940 H 1869.96 -3.12836 -2.16421 0
M  V30 19941 H 1871.27 -3.97327 -3.01551 0
M  V30 19942 H 1870.42 -3.11193 -5.20811 0
M  V30 19943 H 1869.16 -2.16335 -4.37093 0
M  V30 19944 H 1868.17 -4.27784 -3.4537 0
M  V30 19945 H 1869.39 -5.23665 -4.3238 0
M  V30 19946 H 1867.34 -3.39853 -5.61102 0
M  V30 19947 H 1867.26 -5.12875 -5.55423 0
M  V30 19948 H 1868.52 -4.36007 -6.46156 0
M  V30 19949 N 1872.75 0.720973 -1.40142 0
M  V30 19950 C 1874 1.4763 -1.37435 0
M  V30 19951 C 1874.31 1.95587 0.0222038 0
M  V30 19952 O 1875.52 2.70955 0.171885 0
M  V30 19953 C 1873.98 2.66828 -2.41517 0
M  V30 19954 C 1873.58 2.25763 -3.86956 0
M  V30 19955 C 1875.33 3.44589 -2.47908 0
M  V30 19956 C 1873.24 3.41768 -4.82648 0
M  V30 19957 H 1872.17 0.554436 -0.510996 0
M  V30 19958 H 1874.82 0.785164 -1.65854 0
M  V30 19959 H 1873.2 3.38086 -2.0619 0
M  V30 19960 H 1874.37 1.61961 -4.31399 0
M  V30 19961 H 1872.69 1.61059 -3.83991 0
M  V30 19962 H 1875.28 4.309 -3.1659 0
M  V30 19963 H 1875.63 3.8803 -1.50792 0
M  V30 19964 H 1876.16 2.80371 -2.822 0
M  V30 19965 H 1872.9 3.03364 -5.81077 0
M  V30 19966 H 1872.42 4.04504 -4.42873 0
M  V30 19967 H 1874.1 4.07909 -5.02214 0
M  V30 19968 N 1874.23 1.25549 0.952634 0
M  V30 19969 C 1875.46 1.12998 1.7296 0
M  V30 19970 C 1875.87 -0.318779 1.86495 0
M  V30 19971 O 1875.21 -1.23091 1.36361 0
M  V30 19972 C 1875.27 1.71313 3.16057 0
M  V30 19973 C 1874.94 3.20326 3.25945 0
M  V30 19974 C 1875.93 4.17291 3.10103 0
M  V30 19975 C 1873.62 3.60574 3.49702 0
M  V30 19976 C 1875.61 5.52484 3.17868 0
M  V30 19977 C 1873.3 4.95904 3.57103 0
M  V30 19978 C 1874.3 5.91668 3.412 0
M  V30 19979 O 1873.99 7.24535 3.48287 0
M  V30 19980 H 1873.72 0.394815 0.548723 0
M  V30 19981 H 1876.27 1.66441 1.20361 0
M  V30 19982 H 1874.5 1.1232 3.70029 0
M  V30 19983 H 1876.19 1.53832 3.7562 0
M  V30 19984 H 1876.96 3.87537 2.91617 0
M  V30 19985 H 1872.84 2.86529 3.6114 0
M  V30 19986 H 1876.38 6.27211 3.05373 0
M  V30 19987 H 1872.28 5.25324 3.75106 0
M  V30 19988 H 1873.05 7.32657 3.64905 0
M  V30 19989 N 1875.71 -1.15554 1.07168 0
M  V30 19990 C 1876.66 -2.22296 0.684626 0
M  V30 19991 C 1877.65 -1.66656 -0.303675 0
M  V30 19992 O 1878.86 -1.79218 -0.167588 0
M  V30 19993 H 1875.23 -0.723996 0.203306 0
M  V30 19994 H 1877.2 -2.52223 1.59456 0
M  V30 19995 C 1875.95 -3.47566 0.0965118 0
M  V30 19996 H 1875.27 -3.90701 0.848122 0
M  V30 19997 H 1876.71 -4.2378 -0.136671 0
M  V30 19998 C 1875.17 -3.16215 -1.16231 0
M  V30 19999 O 1875.7 -3.32838 -2.24903 0
M  V30 20000 N 1873.91 -2.70273 -1.06774 0
M  V30 20001 H 1873.46 -2.56947 -0.183357 0
M  V30 20002 H 1873.41 -2.49671 -1.9108 0
M  V30 20003 N 1877.19 -0.855519 -1.32358 0
M  V30 20004 C 1878.41 -0.472456 -2.01947 0
M  V30 20005 C 1878.84 0.923482 -1.6387 0
M  V30 20006 O 1878.2 1.60677 -0.839799 0
M  V30 20007 C 1878.24 -0.620081 -3.55229 0
M  V30 20008 O 1877.35 0.34676 -4.1094 0
M  V30 20009 H 1876.69 -0.189756 -0.636309 0
M  V30 20010 H 1879.22 -1.15495 -1.68885 0
M  V30 20011 H 1879.23 -0.507933 -4.04826 0
M  V30 20012 H 1877.9 -1.63802 -3.82285 0
M  V30 20013 H 1876.48 0.190778 -3.72412 0
M  V30 20014 N 1878.67 1.45167 -0.61354 0
M  V30 20015 C 1879.91 2.01407 -0.10861 0
M  V30 20016 C 1880.23 1.48701 1.27072 0
M  V30 20017 O 1881.43 1.96956 1.8687 0
M  V30 20018 C 1879.89 3.59614 -0.143466 0
M  V30 20019 C 1879.5 4.21317 -1.52302 0
M  V30 20020 C 1881.24 4.23396 0.305912 0
M  V30 20021 C 1879.15 5.71694 -1.51393 0
M  V30 20022 H 1878.08 0.7531 -0.0368359 0
M  V30 20023 H 1880.73 1.66575 -0.769748 0
M  V30 20024 H 1879.11 3.91664 0.584438 0
M  V30 20025 H 1880.29 4.00832 -2.2731 0
M  V30 20026 H 1878.6 3.69753 -1.91499 0
M  V30 20027 H 1881.2 5.33668 0.331977 0
M  V30 20028 H 1881.54 3.9449 1.32978 0
M  V30 20029 H 1882.07 3.96086 -0.36892 0
M  V30 20030 H 1878.81 6.05308 -2.5156 0
M  V30 20031 H 1878.33 5.94353 -0.80652 0
M  V30 20032 H 1880.01 6.35003 -1.24017 0
M  V30 20033 N 1880.14 0.353044 1.53595 0
M  V30 20034 C 1881.37 -0.241315 2.05186 0
M  V30 20035 C 1881.78 -1.44008 1.22713 0
M  V30 20036 O 1881.12 -1.81884 0.257661 0
M  V30 20037 C 1881.19 -0.71094 3.524 0
M  V30 20038 C 1880.85 0.369445 4.55504 0
M  V30 20039 C 1881.85 1.21525 5.05497 0
M  V30 20040 C 1879.53 0.526096 4.99537 0
M  V30 20041 C 1881.53 2.20316 5.98113 0
M  V30 20042 C 1879.21 1.51739 5.91962 0
M  V30 20043 C 1880.21 2.35437 6.41138 0
M  V30 20044 O 1879.9 3.32877 7.31743 0
M  V30 20045 H 1879.63 -0.0486773 0.674245 0
M  V30 20046 H 1882.19 0.506038 1.99069 0
M  V30 20047 H 1880.42 -1.50969 3.56013 0
M  V30 20048 H 1882.1 -1.2269 3.86913 0
M  V30 20049 H 1882.87 1.10536 4.72236 0
M  V30 20050 H 1878.75 -0.115562 4.60855 0
M  V30 20051 H 1882.29 2.85682 6.36421 0
M  V30 20052 H 1878.19 1.62781 6.24638 0
M  V30 20053 H 1878.96 3.2846 7.49704 0
M  V30 20054 N 1881.62 -1.57387 0.0818932 0
M  V30 20055 C 1882.87 -1.93045 -0.584519 0
M  V30 20056 C 1883.18 -0.96473 -1.70154 0
M  V30 20057 O 1884.39 -1.21451 -2.42821 0
M  V30 20058 C 1882.85 -3.42962 -1.0911 0
M  V30 20059 C 1882.45 -4.48 -0.00454233 0
M  V30 20060 C 1884.2 -3.87604 -1.731 0
M  V30 20061 C 1882.1 -5.89059 -0.525733 0
M  V30 20062 H 1881.03 -0.720543 -0.222112 0
M  V30 20063 H 1883.69 -1.82838 0.155762 0
M  V30 20064 H 1882.07 -3.48277 -1.88466 0
M  V30 20065 H 1883.24 -4.54314 0.770444 0
M  V30 20066 H 1881.56 -4.12887 0.539739 0
M  V30 20067 H 1884.15 -4.90382 -2.13143 0
M  V30 20068 H 1884.5 -3.25524 -2.59499 0
M  V30 20069 H 1885.03 -3.84935 -1.00349 0
M  V30 20070 H 1881.77 -6.54807 0.301333 0
M  V30 20071 H 1881.29 -5.86243 -1.26802 0
M  V30 20072 H 1882.97 -6.39242 -0.998928 0
M  V30 20073 N 1883.1 0.191729 -1.56429 0
M  V30 20074 C 1884.35 0.909797 -1.80464 0
M  V30 20075 C 1884.67 1.83652 -0.655516 0
M  V30 20076 O 1883.94 1.93169 0.325946 0
M  V30 20077 H 1882.52 0.338944 -0.665677 0
M  V30 20078 H 1885.18 0.196432 -1.93908 0
M  V30 20079 H 1884.28 1.49891 -2.7375 0
M  V30 20080 N 1884.58 1.50751 0.459565 0
M  V30 20081 C 1885.8 1.66367 1.23842 0
M  V30 20082 C 1886.23 0.351355 1.84789 0
M  V30 20083 O 1885.59 -0.686103 1.67816 0
M  V30 20084 C 1885.63 2.76521 2.31449 0
M  V30 20085 O 1884.74 2.38576 3.36386 0
M  V30 20086 H 1884.08 0.555447 0.363833 0
M  V30 20087 H 1886.61 1.97193 0.545538 0
M  V30 20088 H 1886.62 2.99943 2.76583 0
M  V30 20089 H 1885.29 3.71759 1.86462 0
M  V30 20090 H 1883.87 2.25643 2.96883 0
M  V30 20091 N 1886.06 -0.713531 1.40522 0
M  V30 20092 C 1886.99 -1.83847 1.36868 0
M  V30 20093 C 1888 -1.60482 0.273746 0
M  V30 20094 O 1889.19 -1.70318 0.534238 0
M  V30 20095 C 1886.29 -3.20288 1.10764 0
M  V30 20096 C 1885.46 -3.70833 2.31952 0
M  V30 20097 C 1884.52 -4.85893 2.01977 0
M  V30 20098 O 1883.55 -4.98438 2.74861 0
M  V30 20099 N 1884.75 -5.7184 0.998985 0
M  V30 20100 H 1887.51 -1.87479 2.3382 0
M  V30 20101 H 1885.08 -0.895151 1.34902 0
M  V30 20102 H 1887.07 -3.94861 0.886932 0
M  V30 20103 H 1885.64 -3.11791 0.224726 0
M  V30 20104 H 1884.86 -2.87368 2.6984 0
M  V30 20105 H 1886.15 -4.01339 3.12738 0
M  V30 20106 H 1885.54 -5.64317 0.395392 0
M  V30 20107 H 1884.1 -6.46388 0.838178 0
M  V30 20108 N 1887.53 -1.26053 -0.945962 0
M  V30 20109 C 1888.81 -1.02072 -1.66855 0
M  V30 20110 C 1889.19 0.45036 -2.0624 0
M  V30 20111 O 1888.54 1.42966 -1.7825 0
M  V30 20112 C 1888.75 -1.96486 -2.88434 0
M  V30 20113 C 1890.1 -2.24825 -3.60193 0
M  V30 20114 O 1891.12 -1.94314 -2.98531 0
M  V30 20115 O 1889.98 -2.76749 -4.71245 0
M  V30 20116 H 1887.07 -0.387753 -0.730463 0
M  V30 20117 H 1889.62 -1.37243 -0.998117 0
M  V30 20118 H 1888.39 -2.95779 -2.56185 0
M  V30 20119 H 1888.01 -1.61765 -3.63205 0
M  V30 20120 N 1889.01 1.14984 -1.07779 0
M  V30 20121 C 1889.97 2.1806 -0.705879 0
M  V30 20122 C 1890.97 1.58748 0.256082 0
M  V30 20123 O 1892.16 1.74162 0.0364678 0
M  V30 20124 C 1889.3 3.40875 -0.0411253 0
M  V30 20125 H 1890.49 2.52476 -1.61852 0
M  V30 20126 H 1888.04 1.29522 -0.874863 0
M  V30 20127 H 1888.78 3.12032 0.883548 0
M  V30 20128 H 1888.56 3.85186 -0.73306 0
M  V30 20129 H 1890.05 4.171 0.204275 0
M  V30 20130 N 1890.49 0.862526 1.31902 0
M  V30 20131 C 1891.42 0.328423 2.31179 0
M  V30 20132 C 1892.4 -0.57668 1.60026 0
M  V30 20133 O 1893.59 -0.49527 1.87778 0
M  V30 20134 C 1890.72 -0.47734 3.44004 0
M  V30 20135 C 1889.67 0.334015 4.26695 0
M  V30 20136 C 1889 -0.596973 5.31357 0
M  V30 20137 C 1890.3 1.56405 4.98332 0
M  V30 20138 H 1891.99 1.15797 2.761 0
M  V30 20139 H 1889.54 0.558268 1.32738 0
M  V30 20140 H 1891.49 -0.861461 4.12501 0
M  V30 20141 H 1890.21 -1.34033 2.9783 0
M  V30 20142 H 1888.87 0.699989 3.59855 0
M  V30 20143 H 1888.52 -1.45703 4.81435 0
M  V30 20144 H 1888.22 -0.0580517 5.87571 0
M  V30 20145 H 1889.74 -0.978099 6.02715 0
M  V30 20146 H 1891.16 1.25178 5.59467 0
M  V30 20147 H 1889.55 2.04149 5.64308 0
M  V30 20148 H 1890.62 2.32099 4.25744 0
M  V30 20149 N 1891.97 -1.4484 0.62123 0
M  V30 20150 C 1893.22 -2.01347 0.11929 0
M  V30 20151 C 1893.53 -1.49373 -1.26282 0
M  V30 20152 O 1894.74 -1.97945 -1.85823 0
M  V30 20153 C 1893.19 -3.59533 0.162536 0
M  V30 20154 C 1892.8 -4.20504 1.54534 0
M  V30 20155 C 1894.54 -4.23553 -0.283454 0
M  V30 20156 C 1892.45 -5.70883 1.54423 0
M  V30 20157 H 1891.38 -0.752894 0.0408293 0
M  V30 20158 H 1894.03 -1.66164 0.778571 0
M  V30 20159 H 1892.41 -3.91968 -0.563659 0
M  V30 20160 H 1893.59 -3.99621 2.29433 0
M  V30 20161 H 1891.9 -3.68732 1.93457 0
M  V30 20162 H 1894.5 -5.33837 -0.303671 0
M  V30 20163 H 1894.84 -3.9519 -1.30884 0
M  V30 20164 H 1895.38 -3.95884 0.38992 0
M  V30 20165 H 1892.12 -6.03965 2.54767 0
M  V30 20166 H 1891.64 -5.93917 0.838029 0
M  V30 20167 H 1893.31 -6.34336 1.27383 0
M  V30 20168 N 1893.45 -0.361184 -1.53405 0
M  V30 20169 C 1894.41 0.475026 -2.24223 0
M  V30 20170 C 1895.41 1.01331 -1.24855 0
M  V30 20171 O 1896.6 0.899756 -1.49164 0
M  V30 20172 C 1893.73 1.6635 -2.97557 0
M  V30 20173 H 1894.92 -0.144595 -2.99551 0
M  V30 20174 H 1892.48 -0.112802 -1.55892 0
M  V30 20175 H 1893.21 2.32133 -2.26461 0
M  V30 20176 H 1893 1.28454 -3.70462 0
M  V30 20177 H 1894.49 2.2562 -3.51405 0
M  V30 20178 N 1894.92 1.57341 -0.0902386 0
M  V30 20179 C 1895.87 2.10293 0.880961 0
M  V30 20180 C 1896.86 1.01683 1.24697 0
M  V30 20181 O 1898.05 1.27965 1.22286 0
M  V30 20182 C 1895.18 2.68293 2.14182 0
M  V30 20183 C 1894.27 3.83938 1.80146 0
M  V30 20184 N 1894.66 4.92166 1.16646 0
M  V30 20185 C 1892.95 3.93581 2.09785 0
M  V30 20186 C 1893.66 5.72845 1.01113 0
M  V30 20187 N 1892.63 5.21716 1.52686 0
M  V30 20188 H 1896.43 2.91354 0.385979 0
M  V30 20189 H 1893.95 1.62006 0.113118 0
M  V30 20190 H 1895.94 3.04555 2.84697 0
M  V30 20191 H 1894.6 1.88685 2.6425 0
M  V30 20192 H 1895.62 5.11143 0.833854 0
M  V30 20193 H 1892.29 3.24975 2.62102 0
M  V30 20194 H 1893.68 6.69924 0.514913 0
M  V30 20195 N 1896.4 -0.183431 1.56529 0
M  V30 20196 C 1897.63 -0.916557 1.85156 0
M  V30 20197 C 1898.04 -1.76861 0.672063 0
M  V30 20198 O 1897.38 -1.7997 -0.3683 0
M  V30 20199 C 1897.45 -1.85342 3.0804 0
M  V30 20200 C 1897.11 -1.18216 4.41445 0
M  V30 20201 C 1898.11 -0.553445 5.16946 0
M  V30 20202 C 1895.79 -1.18253 4.88182 0
M  V30 20203 C 1897.79 0.0659422 6.37366 0
M  V30 20204 C 1895.47 -0.559316 6.08535 0
M  V30 20205 C 1896.47 0.0638301 6.8297 0
M  V30 20206 O 1896.16 0.677251 8.01042 0
M  V30 20207 H 1895.89 -0.272343 0.618713 0
M  V30 20208 H 1898.44 -0.192085 2.045 0
M  V30 20209 H 1896.67 -2.61789 2.84611 0
M  V30 20210 H 1898.36 -2.45533 3.23215 0
M  V30 20211 H 1899.13 -0.545219 4.81926 0
M  V30 20212 H 1895.01 -1.65696 4.30193 0
M  V30 20213 H 1898.55 0.552935 6.95405 0
M  V30 20214 H 1894.45 -0.565084 6.43022 0
M  V30 20215 H 1895.22 0.575305 8.16476 0
M  V30 20216 N 1897.88 -1.50992 -0.451564 0
M  V30 20217 C 1899.29 -1.55592 -1.03189 0
M  V30 20218 C 1899.64 -0.370923 -1.92662 0
M  V30 20219 O 1898.77 0.513972 -2.10208 0
M  V30 20220 C 1899.36 -2.81975 -1.87818 0
M  V30 20221 C 1897.92 -2.89192 -2.40925 0
M  V30 20222 C 1897.07 -2.50103 -1.19766 0
M  V30 20223 H 1900.02 -1.56974 -0.233388 0
M  V30 20224 H 1900.04 -2.64934 -2.73112 0
M  V30 20225 H 1899.55 -3.68203 -1.22672 0
M  V30 20226 H 1897.65 -2.07362 -3.09567 0
M  V30 20227 H 1897.77 -3.92529 -2.74696 0
M  V30 20228 H 1896.13 -2.02978 -1.53857 0
M  V30 20229 H 1896.91 -3.3866 -0.562517 0
M  V30 20230 N 1899.36 0.706069 -1.40899 0
M  V30 20231 C 1900.77 1.01535 -1.23137 0
M  V30 20232 C 1900.97 2.01181 -0.113293 0
M  V30 20233 O 1900.03 2.46966 0.525732 0
M  V30 20234 C 1901.34 1.54998 -2.57674 0
M  V30 20235 C 1902.89 1.66935 -2.64767 0
M  V30 20236 C 1903.37 2.23802 -3.99596 0
M  V30 20237 N 1904.86 2.31176 -4.01388 0
M  V30 20238 C 1905.59 2.76181 -5.02506 0
M  V30 20239 N 1905.09 3.20868 -6.14016 0
M  V30 20240 N 1906.88 2.7565 -4.89871 0
M  V30 20241 H 1899.03 0.045751 -2.12351 0
M  V30 20242 H 1901.3 0.0828835 -0.94437 0
M  V30 20243 H 1901 0.892393 -3.4019 0
M  V30 20244 H 1900.88 2.53377 -2.79428 0
M  V30 20245 H 1903.26 2.31808 -1.82617 0
M  V30 20246 H 1903.34 0.671301 -2.46834 0
M  V30 20247 H 1902.99 1.59547 -4.8219 0
M  V30 20248 H 1902.92 3.24339 -4.14864 0
M  V30 20249 H 1905.41 1.99627 -3.2087 0
M  V30 20250 H 1905.72 3.53803 -6.87054 0
M  V30 20251 H 1904.07 3.18803 -6.17568 0
M  V30 20252 H 1907.26 2.40081 -4.01844 0
M  V30 20253 H 1907.43 3.10407 -5.68816 0
M  V30 20254 N 1900.84 1.26553 0.939264 0
M  V30 20255 C 1902.09 1.11599 1.68014 0
M  V30 20256 C 1902.4 -0.339956 1.92623 0
M  V30 20257 O 1903.6 -0.610203 2.64554 0
M  V30 20258 C 1902.06 1.94913 3.02551 0
M  V30 20259 C 1901.67 3.45094 2.85682 0
M  V30 20260 C 1903.41 1.88574 3.80316 0
M  V30 20261 C 1901.32 4.20648 4.15703 0
M  V30 20262 H 1900.25 0.414037 0.630151 0
M  V30 20263 H 1902.9 1.50878 1.04441 0
M  V30 20264 H 1901.28 1.48469 3.67115 0
M  V30 20265 H 1902.46 3.99321 2.29956 0
M  V30 20266 H 1900.77 3.5269 2.21357 0
M  V30 20267 H 1903.37 2.42307 4.76646 0
M  V30 20268 H 1903.71 0.856867 4.07386 0
M  V30 20269 H 1904.24 2.32852 3.22529 0
M  V30 20270 H 1900.98 5.24013 3.93816 0
M  V30 20271 H 1900.5 3.71202 4.71136 0
M  V30 20272 H 1902.18 4.29199 4.84146 0
M  V30 20273 N 1902.31 -1.14411 1.08387 0
M  V30 20274 C 1903.54 -1.89032 0.833685 0
M  V30 20275 C 1903.95 -1.78829 -0.6178 0
M  V30 20276 O 1903.3 -1.1453 -1.43626 0
M  V30 20277 C 1903.36 -3.39708 1.17638 0
M  V30 20278 C 1903.02 -3.73695 2.6306 0
M  V30 20279 C 1904.02 -3.73832 3.61311 0
M  V30 20280 C 1901.7 -4.03681 2.9891 0
M  V30 20281 C 1903.7 -4.03478 4.93442 0
M  V30 20282 C 1901.38 -4.3299 4.31235 0
M  V30 20283 C 1902.38 -4.32871 5.2831 0
M  V30 20284 O 1902.07 -4.61469 6.58256 0
M  V30 20285 H 1901.8 -0.605621 0.300331 0
M  V30 20286 H 1904.36 -1.45824 1.44653 0
M  V30 20287 H 1902.59 -3.83368 0.506538 0
M  V30 20288 H 1904.28 -3.95636 0.907042 0
M  V30 20289 H 1905.04 -3.50753 3.34958 0
M  V30 20290 H 1900.92 -4.02926 2.2399 0
M  V30 20291 H 1904.46 -4.033 5.69205 0
M  V30 20292 H 1900.36 -4.55538 4.57335 0
M  V30 20293 H 1901.13 -4.79187 6.63568 0
M  V30 20294 N 1903.79 -0.869509 -1.31443 0
M  V30 20295 C 1904.74 -0.314033 -2.3047 0
M  V30 20296 C 1905.73 0.570635 -1.595 0
M  V30 20297 O 1906.94 0.456787 -1.74108 0
M  V30 20298 H 1903.32 -0.0828699 -0.74742 0
M  V30 20299 H 1905.29 -1.16319 -2.74795 0
M  V30 20300 C 1904.04 0.469956 -3.44509 0
M  V30 20301 H 1903.36 -0.201508 -3.99292 0
M  V30 20302 H 1904.8 0.823967 -4.15917 0
M  V30 20303 C 1903.26 1.66104 -2.93106 0
M  V30 20304 O 1903.79 2.76033 -2.91836 0
M  V30 20305 N 1901.99 1.49302 -2.49313 0
M  V30 20306 H 1901.54 0.598742 -2.50545 0
M  V30 20307 H 1901.5 2.29137 -2.15276 0
M  V30 20308 N 1905.27 1.44508 -0.628902 0
M  V30 20309 C 1906.55 1.95497 -0.0635197 0
M  V30 20310 C 1906.93 1.57092 1.41015 0
M  V30 20311 O 1906.28 0.843894 2.12346 0
M  V30 20312 C 1906.49 3.47842 -0.284051 0
M  V30 20313 C 1907.83 4.24235 -0.176073 0
M  V30 20314 O 1908.86 3.55549 -0.215298 0
M  V30 20315 O 1907.72 5.46443 -0.0791303 0
M  V30 20316 H 1904.81 0.826664 0.0235829 0
M  V30 20317 H 1907.36 1.5457 -0.70045 0
M  V30 20318 H 1906.13 3.68837 -1.30671 0
M  V30 20319 H 1905.75 3.95711 0.387125 0
M  V30 20320 N 1906.75 0.369315 1.53212 0
M  V30 20321 C 1908.03 -0.275781 1.93646 0
M  V30 20322 C 1908.41 -1.66075 1.30316 0
M  V30 20323 O 1907.75 -2.23746 0.463658 0
M  V30 20324 C 1907.96 -0.322239 3.47509 0
M  V30 20325 C 1909.31 -0.560798 4.2088 0
M  V30 20326 O 1910.34 -0.403291 3.5391 0
M  V30 20327 O 1909.2 -0.86778 5.39566 0
M  V30 20328 H 1906.29 -0.166296 0.810108 0
M  V30 20329 H 1908.84 0.42237 1.6436 0
M  V30 20330 H 1907.61 0.648648 3.85886 0
M  V30 20331 H 1907.23 -1.06613 3.8304 0
M  V30 20332 N 1908.23 -1.57291 0.0985816 0
M  V30 20333 C 1909.17 -2.14215 -0.8591 0
M  V30 20334 C 1910.14 -1.06162 -1.27745 0
M  V30 20335 O 1911.33 -1.33967 -1.35858 0
M  V30 20336 C 1908.47 -2.72963 -2.11152 0
M  V30 20337 C 1907.58 -3.95259 -1.74339 0
M  V30 20338 C 1906.72 -4.4216 -2.94394 0
M  V30 20339 C 1905.76 -5.57038 -2.53723 0
M  V30 20340 N 1904.89 -5.98775 -3.66624 0
M  V30 20341 H 1909.73 -2.95734 -0.366821 0
M  V30 20342 H 1907.27 -1.46121 -0.169388 0
M  V30 20343 H 1909.23 -3.05145 -2.84504 0
M  V30 20344 H 1907.86 -1.94167 -2.57874 0
M  V30 20345 H 1906.91 -3.69369 -0.90942 0
M  V30 20346 H 1908.22 -4.78622 -1.40436 0
M  V30 20347 H 1907.38 -4.76144 -3.75994 0
M  V30 20348 H 1906.12 -3.57705 -3.31509 0
M  V30 20349 H 1905.12 -5.22678 -1.7055 0
M  V30 20350 H 1906.35 -6.43244 -2.17748 0
M  V30 20351 H 1904.29 -5.17265 -4.03451 0
M  V30 20352 H 1904.21 -6.76943 -3.36578 0
M  V30 20353 H 1905.48 -6.3739 -4.48725 0
M  V30 20354 N 1909.71 0.175127 -1.56624 0
M  V30 20355 C 1910.65 1.23623 -1.97028 0
M  V30 20356 C 1911.65 1.46036 -0.858485 0
M  V30 20357 O 1912.85 1.46661 -1.04358 0
M  V30 20358 H 1909.23 0.415474 -0.626806 0
M  V30 20359 H 1911.2 0.86857 -2.85479 0
M  V30 20360 C 1909.95 2.56896 -2.34307 0
M  V30 20361 H 1909.27 2.40471 -3.19396 0
M  V30 20362 H 1910.71 3.29839 -2.66425 0
M  V30 20363 C 1909.17 3.15369 -1.18506 0
M  V30 20364 O 1909.7 3.98933 -0.470694 0
M  V30 20365 N 1907.91 2.74403 -0.956625 0
M  V30 20366 H 1907.45 2.06551 -1.5393 0
M  V30 20367 H 1907.41 3.13863 -0.183647 0
M  V30 20368 N 1911.18 1.5123 0.44355 0
M  V30 20369 C 1912.41 1.67389 1.21609 0
M  V30 20370 C 1912.83 0.368612 1.85167 0
M  V30 20371 O 1912.18 -0.652282 1.70445 0
M  V30 20372 C 1912.23 2.78507 2.30469 0
M  V30 20373 O 1911.96 4.03977 1.69512 0
M  V30 20374 C 1913.46 3.05881 3.20861 0
M  V30 20375 H 1910.68 0.561893 0.366766 0
M  V30 20376 H 1913.22 1.97611 0.526312 0
M  V30 20377 H 1911.38 2.50901 2.95173 0
M  V30 20378 H 1911.79 4.65641 2.41409 0
M  V30 20379 H 1913.26 3.87229 3.93393 0
M  V30 20380 H 1913.74 2.1804 3.81255 0
M  V30 20381 H 1914.35 3.35123 2.61864 0
M  V30 20382 N 1912.66 -0.698586 1.41271 0
M  V30 20383 C 1913.89 -1.48528 1.43608 0
M  V30 20384 C 1914.3 -1.8916 0.0388929 0
M  V30 20385 O 1913.64 -1.5714 -0.951457 0
M  V30 20386 C 1913.7 -2.78049 2.27879 0
M  V30 20387 C 1913.37 -2.59638 3.76081 0
M  V30 20388 C 1914.37 -2.25782 4.68315 0
M  V30 20389 C 1912.05 -2.75373 4.2009 0
M  V30 20390 C 1914.04 -2.07894 6.02544 0
M  V30 20391 C 1911.73 -2.57102 5.54384 0
M  V30 20392 C 1912.73 -2.23413 6.45427 0
M  V30 20393 O 1912.42 -2.05298 7.77244 0
M  V30 20394 H 1912.15 -0.464356 0.491273 0
M  V30 20395 H 1914.7 -0.867883 1.86164 0
M  V30 20396 H 1912.93 -3.42183 1.80132 0
M  V30 20397 H 1914.62 -3.39841 2.21953 0
M  V30 20398 H 1915.39 -2.13243 4.35606 0
M  V30 20399 H 1911.27 -3.00579 3.49533 0
M  V30 20400 H 1914.81 -1.81522 6.73569 0
M  V30 20401 H 1910.71 -2.6923 5.86673 0
M  V30 20402 H 1911.48 -2.20085 7.88356 0
M  V30 20403 N 1914.14 -1.27049 -0.93254 0
M  V30 20404 C 1915.39 -1.12488 -1.67419 0
M  V30 20405 C 1915.7 0.329736 -1.92801 0
M  V30 20406 O 1916.91 0.596164 -2.64874 0
M  V30 20407 C 1915.36 -1.96515 -3.01513 0
M  V30 20408 C 1914.97 -3.46604 -2.83847 0
M  V30 20409 C 1916.72 -1.90589 -3.7931 0
M  V30 20410 C 1914.62 -4.22847 -4.13466 0
M  V30 20411 H 1913.55 -0.417373 -0.627946 0
M  V30 20412 H 1916.2 -1.5143 -1.03639 0
M  V30 20413 H 1914.59 -1.50413 -3.66322 0
M  V30 20414 H 1915.76 -4.00535 -2.27835 0
M  V30 20415 H 1914.07 -3.53859 -2.19484 0
M  V30 20416 H 1916.67 -2.44831 -4.75355 0
M  V30 20417 H 1917.01 -0.87846 -4.06926 0
M  V30 20418 H 1917.55 -2.34559 -3.21289 0
M  V30 20419 H 1914.29 -5.26094 -3.91031 0
M  V30 20420 H 1913.81 -3.73695 -4.69161 0
M  V30 20421 H 1915.49 -4.31761 -4.81863 0
M  V30 20422 N 1915.62 1.13835 -1.08993 0
M  V30 20423 C 1917.03 1.36999 -0.81874 0
M  V30 20424 C 1917.23 1.93296 0.569102 0
M  V30 20425 O 1916.29 2.14954 1.3248 0
M  V30 20426 C 1917.6 2.3255 -1.90634 0
M  V30 20427 C 1919.15 2.46175 -1.93305 0
M  V30 20428 C 1919.63 3.4503 -3.01195 0
M  V30 20429 N 1921.12 3.52577 -3.00406 0
M  V30 20430 C 1921.85 4.28934 -3.8053 0
M  V30 20431 N 1921.35 5.08484 -4.70549 0
M  V30 20432 N 1923.14 4.24191 -3.68807 0
M  V30 20433 H 1915.29 0.756425 -1.98474 0
M  V30 20434 H 1917.55 0.395302 -0.86165 0
M  V30 20435 H 1917.26 1.98331 -2.90444 0
M  V30 20436 H 1917.13 3.32519 -1.78076 0
M  V30 20437 H 1919.52 2.79683 -0.941359 0
M  V30 20438 H 1919.6 1.46146 -2.0994 0
M  V30 20439 H 1919.25 3.12254 -4.00574 0
M  V30 20440 H 1919.18 4.44853 -2.81803 0
M  V30 20441 H 1921.67 2.95814 -2.35165 0
M  V30 20442 H 1921.98 5.6404 -5.28279 0
M  V30 20443 H 1920.33 5.07732 -4.74588 0
M  V30 20444 H 1923.52 3.61118 -2.97844 0
M  V30 20445 H 1923.69 4.83447 -4.31489 0
M  V30 20446 N 1917.1 0.876467 1.3098 0
M  V30 20447 C 1918.33 0.504582 2.00344 0
M  V30 20448 C 1918.73 -0.909186 1.65923 0
M  V30 20449 O 1918.08 -1.60812 0.887988 0
M  V30 20450 C 1918.14 0.589519 3.54634 0
M  V30 20451 C 1917.8 1.96607 4.12547 0
M  V30 20452 C 1918.8 2.9344 4.29172 0
M  V30 20453 C 1916.48 2.26914 4.48124 0
M  V30 20454 C 1918.48 4.18721 4.80574 0
M  V30 20455 C 1916.17 3.52443 4.99227 0
M  V30 20456 C 1917.16 4.48161 5.15403 0
M  V30 20457 O 1916.85 5.71464 5.65406 0
M  V30 20458 H 1916.58 0.194422 0.647438 0
M  V30 20459 H 1919.14 1.18126 1.68034 0
M  V30 20460 H 1917.37 -0.144102 3.86431 0
M  V30 20461 H 1919.06 0.230131 4.05247 0
M  V30 20462 H 1919.82 2.71335 4.01998 0
M  V30 20463 H 1915.7 1.53184 4.34805 0
M  V30 20464 H 1919.25 4.9344 4.93115 0
M  V30 20465 H 1915.14 3.74389 5.25836 0
M  V30 20466 H 1915.91 5.73727 5.83764 0
M  V30 20467 N 1918.57 -1.44173 0.636557 0
M  V30 20468 C 1919.48 -2.34507 -0.0661877 0
M  V30 20469 C 1920.5 -1.52931 -0.829947 0
M  V30 20470 O 1921.68 -1.85641 -0.780979 0
M  V30 20471 C 1918.74 -3.30987 -1.03191 0
M  V30 20472 C 1917.8 -4.28469 -0.266924 0
M  V30 20473 C 1917.03 -5.20341 -1.18664 0
M  V30 20474 O 1917.26 -5.1626 -2.42552 0
M  V30 20475 O 1916.19 -5.98181 -0.668035 0
M  V30 20476 H 1920.02 -2.9606 0.676932 0
M  V30 20477 H 1917.6 -1.44036 0.396744 0
M  V30 20478 H 1919.48 -3.9036 -1.58736 0
M  V30 20479 H 1918.16 -2.7196 -1.75555 0
M  V30 20480 H 1917.07 -3.72627 0.331702 0
M  V30 20481 H 1918.4 -4.90432 0.416803 0
M  V30 20482 N 1920.05 -0.377435 -1.53014 0
M  V30 20483 C 1920.98 0.455103 -2.29022 0
M  V30 20484 C 1921.96 1.07375 -1.31926 0
M  V30 20485 O 1923.15 1.08877 -1.60809 0
M  V30 20486 C 1920.28 1.58883 -3.08826 0
M  V30 20487 C 1919.23 1.09683 -4.13707 0
M  V30 20488 C 1918.56 2.32172 -4.81664 0
M  V30 20489 C 1919.86 0.173165 -5.22013 0
M  V30 20490 H 1921.55 -0.179053 -2.98864 0
M  V30 20491 H 1919.1 -0.0875549 -1.43734 0
M  V30 20492 H 1921.05 2.17798 -3.60752 0
M  V30 20493 H 1919.77 2.2504 -2.36695 0
M  V30 20494 H 1918.43 0.530291 -3.62744 0
M  V30 20495 H 1918.08 2.96811 -4.06094 0
M  V30 20496 H 1917.78 1.99919 -5.52545 0
M  V30 20497 H 1919.31 2.91751 -5.3639 0
M  V30 20498 H 1920.72 0.670145 -5.6937 0
M  V30 20499 H 1919.12 -0.0590463 -6.00071 0
M  V30 20500 H 1920.19 -0.781339 -4.78564 0
M  V30 20501 N 1921.53 1.57237 -0.106922 0
M  V30 20502 C 1922.81 1.8627 0.596889 0
M  V30 20503 C 1923.19 1.00593 1.85591 0
M  V30 20504 O 1922.54 0.0815394 2.28354 0
M  V30 20505 C 1922.75 3.37171 0.900934 0
M  V30 20506 C 1924.09 4.05497 1.25926 0
M  V30 20507 O 1925.12 3.4212 0.99158 0
M  V30 20508 O 1923.98 5.17347 1.76109 0
M  V30 20509 H 1921.07 0.770704 0.299907 0
M  V30 20510 H 1923.62 1.69117 -0.140513 0
M  V30 20511 H 1922.39 3.91299 0.00823337 0
M  V30 20512 H 1922.01 3.59712 1.69391 0
M  V30 20513 N 1923.01 -0.166818 1.56715 0
M  V30 20514 C 1924.24 -0.896867 1.86118 0
M  V30 20515 C 1924.65 -1.76139 0.690784 0
M  V30 20516 O 1923.99 -1.80351 -0.349191 0
M  V30 20517 C 1924.05 -1.82064 3.09989 0
M  V30 20518 C 1923.72 -1.13527 4.42674 0
M  V30 20519 C 1924.71 -0.498585 5.17504 0
M  V30 20520 C 1922.4 -1.13069 4.89409 0
M  V30 20521 C 1924.39 0.13354 6.3726 0
M  V30 20522 C 1922.08 -0.494741 6.09094 0
M  V30 20523 C 1923.08 0.136265 6.82864 0
M  V30 20524 O 1922.76 0.762174 8.00279 0
M  V30 20525 H 1922.5 -0.265765 0.621567 0
M  V30 20526 H 1925.05 -0.170384 2.04692 0
M  V30 20527 H 1923.28 -2.58756 2.87372 0
M  V30 20528 H 1924.97 -2.42092 3.25801 0
M  V30 20529 H 1925.74 -0.494073 4.82477 0
M  V30 20530 H 1921.61 -1.61124 4.31926 0
M  V30 20531 H 1925.16 0.626661 6.9478 0
M  V30 20532 H 1921.06 -0.496852 6.43585 0
M  V30 20533 H 1921.82 0.66187 8.1582 0
M  V30 20534 N 1924.49 -1.51463 -0.435524 0
M  V30 20535 C 1925.74 -1.63454 -1.18176 0
M  V30 20536 C 1926.05 -0.357501 -1.92305 0
M  V30 20537 O 1927.25 -0.356815 -2.69145 0
M  V30 20538 C 1925.71 -2.88676 -2.14928 0
M  V30 20539 C 1925.32 -4.23391 -1.46438 0
M  V30 20540 C 1927.06 -3.10025 -2.89974 0
M  V30 20541 C 1924.97 -5.39761 -2.41685 0
M  V30 20542 H 1923.9 -0.608812 -0.444819 0
M  V30 20543 H 1926.55 -1.77931 -0.448635 0
M  V30 20544 H 1924.93 -2.67837 -2.91683 0
M  V30 20545 H 1926.11 -4.54618 -0.75229 0
M  V30 20546 H 1924.42 -4.07934 -0.835385 0
M  V30 20547 H 1927.02 -3.9414 -3.61327 0
M  V30 20548 H 1927.36 -2.23177 -3.51423 0
M  V30 20549 H 1927.89 -3.31213 -2.20325 0
M  V30 20550 H 1924.63 -6.28875 -1.84922 0
M  V30 20551 H 1924.15 -5.12908 -3.10943 0
M  V30 20552 H 1925.83 -5.71783 -3.02776 0
M  V30 20553 N 1925.96 0.691085 -1.4164 0
M  V30 20554 C 1926.89 1.8173 -1.46616 0
M  V30 20555 C 1927.88 1.66979 -0.324357 0
M  V30 20556 O 1929.06 1.86644 -0.536424 0
M  V30 20557 C 1926.19 3.19903 -1.35201 0
M  V30 20558 C 1925.14 3.49366 -2.47239 0
M  V30 20559 C 1924.47 4.86942 -2.20887 0
M  V30 20560 C 1925.77 3.47891 -3.89575 0
M  V30 20561 H 1927.46 1.77823 -2.40872 0
M  V30 20562 H 1925.01 0.8541 -1.15936 0
M  V30 20563 H 1926.96 3.98407 -1.37293 0
M  V30 20564 H 1925.69 3.24448 -0.374312 0
M  V30 20565 H 1924.35 2.73215 -2.44436 0
M  V30 20566 H 1923.99 4.88118 -1.2145 0
M  V30 20567 H 1923.69 5.0762 -2.95966 0
M  V30 20568 H 1925.22 5.67751 -2.24703 0
M  V30 20569 H 1926.63 4.16392 -3.94069 0
M  V30 20570 H 1925.03 3.80101 -4.64374 0
M  V30 20571 H 1926.1 2.46778 -4.17407 0
M  V30 20572 O 1927.48 1.38342 0.83329 0
M  V30 20573 H 1928.17 1.25474 1.47567 0
M  V30 END ATOM
M  V30 BEGIN BOND
M  V30 END BOND
M  V30 END CTAB
M  END
$$$$
