drugbank_target|O75636 Ficolin-3 (DB01593; DB14487)
 OpenBabel12092121083D

  0  0  0     0  0            999 V3000
M  V30 BEGIN CTAB
M  V30 COUNTS 4522 4595 0 0 0
M  V30 BEGIN ATOM
M  V30 1 H -0.908 1.98254 -0.117106 0
M  V30 2 N 0 1.576 0 0
M  V30 3 C 0.933 2.03868 1.02534 0
M  V30 4 C 1.911 0.928543 1.3348 0
M  V30 5 O 3.095 1.19667 1.45644 0
M  V30 6 C 0.222 2.43627 2.35294 0
M  V30 7 C -0.732 3.65373 2.2001 0
M  V30 8 S 0.101 5.13292 1.52614 0
M  V30 9 C 1.257 5.56322 2.86805 0
M  V30 10 H 1.49 2.90518 0.631377 0
M  V30 11 H -0.977 1.52953 0.210867 0
M  V30 12 H 0.981 2.67203 3.11629 0
M  V30 13 H -0.358 1.57376 2.7183 0
M  V30 14 H -1.165 3.90944 3.18086 0
M  V30 15 H -1.563 3.418 1.51819 0
M  V30 16 H 0.729 5.58782 3.83104 0
M  V30 17 H 1.672 6.56266 2.65933 0
M  V30 18 H 2.08 4.83886 2.90714 0
M  V30 19 N 1.4781 -0.272755 1.55222 0
M  V30 20 C 2.7551 -1.02562 1.66555 0
M  V30 21 C 3.1351 -2.04282 0.532189 0
M  V30 22 O 2.4831 -2.23662 -0.467717 0
M  V30 23 C 2.6931 -1.6822 3.05782 0
M  V30 24 C 4.0411 -2.19373 3.63539 0
M  V30 25 O 5.0651 -1.78206 3.08417 0
M  V30 26 O 3.9241 -2.94883 4.60115 0
M  V30 27 H 1.0181 -0.475755 0.676451 0
M  V30 28 H 3.5641 -0.268593 1.67561 0
M  V30 29 H 2.3361 -0.945112 3.79715 0
M  V30 30 H 1.9591 -2.50609 3.08676 0
M  V30 31 N 2.9562 -1.48159 -0.537278 0
M  V30 32 C 3.8862 -1.65029 -1.6519 0
M  V30 33 C 4.8672 -0.499281 -1.62607 0
M  V30 34 O 6.0522 -0.730972 -1.79918 0
M  V30 35 C 3.1822 -1.68303 -3.03795 0
M  V30 36 C 2.1362 -2.8283 -3.21234 0
M  V30 37 C 1.4622 -2.71189 -4.60826 0
M  V30 38 C 2.7622 -4.24211 -3.04701 0
M  V30 39 H 4.4562 -2.58341 -1.51328 0
M  V30 40 H 2.0022 -1.24325 -0.726585 0
M  V30 41 H 3.9552 -1.78693 -3.81637 0
M  V30 42 H 2.6792 -0.715635 -3.18663 0
M  V30 43 H 1.3382 -2.71983 -2.45807 0
M  V30 44 H 0.9862 -1.72435 -4.7252 0
M  V30 45 H 0.6862 -3.48035 -4.7344 0
M  V30 46 H 2.2102 -2.83537 -5.40777 0
M  V30 47 H 3.6242 -4.3593 -3.72341 0
M  V30 48 H 2.0212 -5.01998 -3.28813 0
M  V30 49 H 3.0912 -4.41184 -2.01209 0
M  V30 50 N 4.4343 0.785586 -1.36625 0
M  V30 51 C 5.3643 1.91259 -1.33949 0
M  V30 52 C 6.3453 1.68795 -0.210325 0
M  V30 53 O 7.5303 1.89854 -0.408561 0
M  V30 54 C 4.6603 3.28339 -1.13186 0
M  V30 55 C 3.6143 3.65335 -2.22967 0
M  V30 56 C 2.9403 5.00806 -1.87342 0
M  V30 57 C 4.2403 3.7352 -3.65075 0
M  V30 58 H 5.9343 1.93755 -2.28253 0
M  V30 59 H 3.4803 0.930788 -1.09874 0
M  V30 60 H 5.4333 4.06804 -1.09948 0
M  V30 61 H 4.1573 3.2624 -0.153332 0
M  V30 62 H 2.8163 2.89169 -2.25337 0
M  V30 63 H 2.4643 4.95233 -0.880545 0
M  V30 64 H 2.1643 5.26529 -2.60846 0
M  V30 65 H 3.6883 5.81687 -1.85667 0
M  V30 66 H 5.1023 4.42168 -3.64911 0
M  V30 67 H 3.4993 4.10731 -4.37516 0
M  V30 68 H 4.5693 2.74527 -3.99703 0
M  V30 69 N 5.9124 1.20967 1.01018 0
M  V30 70 C 7.1584 1.0353 1.7508 0
M  V30 71 C 7.5134 -0.42734 1.87594 0
M  V30 72 O 6.8064 -1.31298 1.3954 0
M  V30 73 C 7.0004 1.65997 3.16512 0
M  V30 74 C 6.8294 3.18184 3.17788 0
M  V30 75 C 5.5994 3.87198 3.24662 0
M  V30 76 C 7.7974 4.15334 3.03319 0
M  V30 77 N 5.7794 5.26618 3.15509 0
M  V30 78 C 7.1504 5.41472 3.02007 0
M  V30 79 C 9.2054 4.06449 2.87583 0
M  V30 80 C 7.9084 6.5975 2.86571 0
M  V30 81 C 9.9344 5.24357 2.73503 0
M  V30 82 C 9.2964 6.49404 2.72862 0
M  V30 83 H 5.3954 0.433137 0.651089 0
M  V30 84 H 7.9794 1.5324 1.20107 0
M  V30 85 H 6.1504 1.18863 3.69765 0
M  V30 86 H 7.8824 1.41816 3.79039 0
M  V30 87 H 4.6374 3.38093 3.31648 0
M  V30 88 H 5.0614 5.99626 3.14289 0
M  V30 89 H 9.7034 3.10573 2.86887 0
M  V30 90 H 7.4214 7.55792 2.86015 0
M  V30 91 H 11.0074 5.19299 2.62334 0
M  V30 92 H 9.8874 7.39105 2.62093 0
M  V30 93 N 7.3905 -1.2043 1.01659 0
M  V30 94 C 8.6395 -1.89118 0.701237 0
M  V30 95 C 8.9525 -1.79705 -0.772358 0
M  V30 96 O 10.1585 -2.43528 -1.20026 0
M  V30 97 C 8.6145 -3.39168 1.20388 0
M  V30 98 C 8.2225 -3.57166 2.70438 0
M  V30 99 C 9.9665 -4.1341 0.963953 0
M  V30 100 C 7.8735 -5.01042 3.14183 0
M  V30 101 H 6.8035 -0.708267 0.2586 0
M  V30 102 H 9.4545 -1.36239 1.22927 0
M  V30 103 H 7.8365 -3.91369 0.603824 0
M  V30 104 H 9.0105 -3.15351 3.35992 0
M  V30 105 H 7.3255 -2.96294 2.92572 0
M  V30 106 H 9.9225 -5.19491 1.26621 0
M  V30 107 H 10.2655 -4.16181 -0.099578 0
M  V30 108 H 10.7985 -3.67309 1.52738 0
M  V30 109 H 7.5375 -5.03426 4.19812 0
M  V30 110 H 7.0575 -5.43668 2.53348 0
M  V30 111 H 8.7365 -5.69623 3.0682 0
M  V30 112 N 8.8686 -0.792821 -1.36206 0
M  V30 113 C 9.7986 -0.207853 -2.32573 0
M  V30 114 C 10.7796 0.659055 -1.56813 0
M  V30 115 O 11.9646 0.592176 -1.84951 0
M  V30 116 C 9.0946 0.655449 -3.41059 0
M  V30 117 C 8.0486 -0.111842 -4.27854 0
M  V30 118 C 7.3746 0.872274 -5.27537 0
M  V30 119 C 8.6746 -1.30299 -5.05786 0
M  V30 120 H 10.3686 -1.01294 -2.81744 0
M  V30 121 H 7.9146 -0.48854 -1.3546 0
M  V30 122 H 9.8676 1.07464 -4.07467 0
M  V30 123 H 8.5916 1.49328 -2.90463 0
M  V30 124 H 7.2506 -0.512053 -3.63006 0
M  V30 125 H 6.8986 1.70523 -4.73214 0
M  V30 126 H 6.5986 0.363291 -5.86476 0
M  V30 127 H 8.1226 1.28996 -5.96818 0
M  V30 128 H 9.5366 -0.959379 -5.65216 0
M  V30 129 H 7.9336 -1.7455 -5.74154 0
M  V30 130 H 9.0036 -2.09663 -4.37229 0
M  V30 131 N 10.3467 1.47872 -0.545128 0
M  V30 132 C 11.7577 1.86384 -0.108581 0
M  V30 133 C 12.1087 1.45309 1.31832 0
M  V30 134 O 11.2337 0.850641 1.9898 0
M  V30 135 C 11.8287 3.38265 -0.190274 0
M  V30 136 C 10.3877 3.75914 0.191164 0
M  V30 137 C 9.5347 2.71926 -0.543273 0
M  V30 138 H 12.4857 1.39561 -0.755537 0
M  V30 139 H 12.5067 3.75831 0.594217 0
M  V30 140 H 12.0187 3.6813 -1.2289 0
M  V30 141 H 10.1197 3.51665 1.23136 0
M  V30 142 H 10.2327 4.78836 -0.158987 0
M  V30 143 H 8.5967 2.54697 0.0122495 0
M  V30 144 H 9.3797 3.04634 -1.58282 0
M  V30 145 N 11.8248 0.280983 1.55075 0
M  V30 146 C 13.0498 -0.340154 2.04592 0
M  V30 147 C 13.4748 -1.48246 1.15779 0
M  V30 148 O 12.8328 -1.80614 0.15761 0
M  V30 149 C 12.8808 -0.793104 3.5177 0
M  V30 150 O 11.9848 -1.89981 3.66034 0
M  V30 151 H 11.3258 -0.0694289 0.66036 0
M  V30 152 H 13.8558 0.416993 2.00306 0
M  V30 153 H 13.8658 -1.08729 3.93245 0
M  V30 154 H 12.5408 0.0426163 4.15878 0
M  V30 155 H 11.1178 -1.60771 3.36463 0
M  V30 156 N 13.3029 -1.57598 0.00835791 0
M  V30 157 C 14.2329 -2.1198 -0.979113 0
M  V30 158 C 15.2139 -1.03091 -1.35301 0
M  V30 159 O 16.3989 -1.30818 -1.43528 0
M  V30 160 C 13.5289 -2.62995 -2.26828 0
M  V30 161 C 12.4829 -3.76485 -2.03576 0
M  V30 162 C 11.8089 -4.13846 -3.38579 0
M  V30 163 C 13.1089 -5.0342 -1.39161 0
M  V30 164 H 14.8029 -2.94738 -0.526281 0
M  V30 165 H 12.3489 -1.41783 -0.251704 0
M  V30 166 H 14.3019 -2.99669 -2.96271 0
M  V30 167 H 13.0259 -1.7737 -2.7424 0
M  V30 168 H 11.6849 -3.40217 -1.36557 0
M  V30 169 H 11.3329 -3.25232 -3.83709 0
M  V30 170 H 11.0329 -4.90312 -3.23834 0
M  V30 171 H 12.5569 -4.53086 -4.09323 0
M  V30 172 H 13.9709 -5.37812 -1.98573 0
M  V30 173 H 12.3679 -5.84746 -1.34878 0
M  V30 174 H 13.4379 -4.83548 -0.361868 0
M  V30 175 N 14.781 0.264519 -1.55364 0
M  V30 176 C 16.027 0.992314 -1.77552 0
M  V30 177 C 16.382 1.83626 -0.574379 0
M  V30 178 O 15.675 1.86648 0.432782 0
M  V30 179 C 15.869 1.9004 -3.02687 0
M  V30 180 C 15.698 1.14583 -4.34857 0
M  V30 181 C 14.468 0.858068 -4.97961 0
M  V30 182 C 16.666 0.532069 -5.1154 0
M  V30 183 N 14.648 0.0775974 -6.13851 0
M  V30 184 C 16.019 -0.113823 -6.19896 0
M  V30 185 C 18.074 0.440763 -4.95945 0
M  V30 186 C 16.777 -0.842231 -7.14352 0
M  V30 187 C 18.803 -0.274072 -5.90765 0
M  V30 188 C 18.165 -0.90867 -6.98515 0
M  V30 189 H 14.264 0.344811 -0.701875 0
M  V30 190 H 16.848 0.267141 -1.92859 0
M  V30 191 H 15.019 2.59775 -2.88741 0
M  V30 192 H 16.751 2.56243 -3.13243 0
M  V30 193 H 13.506 1.16547 -4.59036 0
M  V30 194 H 13.93 -0.300216 -6.76334 0
M  V30 195 H 18.572 0.917064 -4.12735 0
M  V30 196 H 16.29 -1.33019 -7.97077 0
M  V30 197 H 19.876 -0.345151 -5.80775 0
M  V30 198 H 18.756 -1.45299 -7.70622 0
M  V30 199 N 16.2591 1.48442 0.529413 0
M  V30 200 C 17.1891 1.65902 1.64313 0
M  V30 201 C 18.1701 0.507897 1.6234 0
M  V30 202 O 19.3551 0.740503 1.79528 0
M  V30 203 C 16.4851 1.69911 3.02898 0
M  V30 204 C 15.4391 2.8453 3.19729 0
M  V30 205 C 14.7651 2.73629 4.59381 0
M  V30 206 C 16.0651 4.25821 3.02447 0
M  V30 207 H 17.7591 2.5914 1.49955 0
M  V30 208 H 15.3051 1.24709 0.719982 0
M  V30 209 H 17.2581 1.80715 3.80684 0
M  V30 210 H 15.9821 0.732524 3.18279 0
M  V30 211 H 14.6411 2.73283 2.44361 0
M  V30 212 H 14.2891 1.74938 4.71599 0
M  V30 213 H 13.9891 3.50541 4.71588 0
M  V30 214 H 15.5131 2.86401 5.39265 0
M  V30 215 H 16.9271 4.37898 3.70024 0
M  V30 216 H 15.3241 5.03735 3.26146 0
M  V30 217 H 16.3941 4.42244 1.98867 0
M  V30 218 N 17.7372 -0.778329 1.37039 0
M  V30 219 C 18.6672 -1.90546 1.34962 0
M  V30 220 C 19.6482 -1.68681 0.219274 0
M  V30 221 O 20.8332 -1.89634 0.418624 0
M  V30 222 C 17.9632 -3.27734 1.14925 0
M  V30 223 C 16.9172 -3.64147 2.24902 0
M  V30 224 C 16.2432 -4.99806 1.89996 0
M  V30 225 C 17.5432 -3.71579 3.67051 0
M  V30 226 H 19.2372 -1.92541 2.29277 0
M  V30 227 H 16.7832 -0.924948 1.10366 0
M  V30 228 H 18.7362 -4.06215 1.12104 0
M  V30 229 H 17.4602 -3.26154 0.170631 0
M  V30 230 H 16.1192 -2.8797 2.26868 0
M  V30 231 H 15.7672 -4.94759 0.906796 0
M  V30 232 H 15.4672 -5.25139 2.63634 0
M  V30 233 H 16.9912 -5.80694 1.88749 0
M  V30 234 H 18.4052 -4.40227 3.67251 0
M  V30 235 H 16.8022 -4.08405 4.39688 0
M  V30 236 H 17.8722 -2.72404 4.01154 0
M  V30 237 N 19.2153 -1.21501 -1.00376 0
M  V30 238 C 20.1453 -0.999478 -2.11028 0
M  V30 239 C 21.1263 0.0759671 -1.6993 0
M  V30 240 O 22.3113 -0.0841106 -1.94018 0
M  V30 241 C 19.4413 -0.564709 -3.42678 0
M  V30 242 C 18.3953 -1.58486 -3.97576 0
M  V30 243 C 17.7213 -1.00628 -5.25146 0
M  V30 244 C 19.0213 -2.97204 -4.29496 0
M  V30 245 H 20.7153 -1.92495 -2.29317 0
M  V30 246 H 18.2613 -0.92693 -1.102 0
M  V30 247 H 20.2143 -0.401091 -4.19487 0
M  V30 248 H 18.9383 0.396411 -3.24185 0
M  V30 249 H 17.5973 -1.73606 -3.22888 0
M  V30 250 H 17.2453 -0.0368439 -5.02987 0
M  V30 251 H 16.9453 -1.68771 -5.62841 0
M  V30 252 H 18.4693 -0.854015 -6.04598 0
M  V30 253 H 19.8833 -2.8552 -4.97143 0
M  V30 254 H 18.2803 -3.62372 -4.78338 0
M  V30 255 H 19.3503 -3.47956 -3.3772 0
M  V30 256 N 20.6934 1.19889 -1.02296 0
M  V30 257 C 21.6234 2.25141 -0.619174 0
M  V30 258 C 22.6044 1.66051 0.368915 0
M  V30 259 O 23.7894 1.92546 0.252941 0
M  V30 260 C 20.9194 3.4728 0.0368783 0
M  V30 261 C 19.8734 4.19005 -0.872865 0
M  V30 262 C 19.1994 5.34637 -0.0822402 0
M  V30 263 C 20.4994 4.74452 -2.18387 0
M  V30 264 H 22.1934 2.59171 -1.49903 0
M  V30 265 H 19.7394 1.24579 -0.722222 0
M  V30 266 H 21.6924 4.20098 0.330958 0
M  V30 267 H 20.4164 3.12433 0.95149 0
M  V30 268 H 19.0754 3.48061 -1.15105 0
M  V30 269 H 18.7234 4.96034 0.83422 0
M  V30 270 H 18.4234 5.83557 -0.688149 0
M  V30 271 H 19.9474 6.10255 0.205238 0
M  V30 272 H 21.3614 5.39055 -1.95172 0
M  V30 273 H 19.7584 5.33834 -2.74119 0
M  V30 274 H 20.8284 3.92844 -2.84257 0
M  V30 275 N 22.1715 0.800033 1.35784 0
M  V30 276 C 23.4195 0.376597 1.9856 0
M  V30 277 C 23.7405 -1.05812 1.63795 0
M  V30 278 O 23.0105 -1.73103 0.917171 0
M  V30 279 H 21.5905 0.136261 0.734467 0
M  V30 280 H 24.2525 1.02442 1.65806 0
M  V30 281 H 23.3485 0.477002 3.08433 0
M  V30 282 N 23.6496 -1.47581 0.552962 0
M  V30 283 C 24.8976 -2.02082 0.0272703 0
M  V30 284 C 25.2186 -1.4301 -1.32563 0
M  V30 285 O 24.4886 -0.603745 -1.86365 0
M  V30 286 H 23.0686 -0.746966 0.00709182 0
M  V30 287 H 25.7306 -1.81033 0.722008 0
M  V30 288 H 24.8266 -3.12034 -0.0639951 0
M  V30 289 N 25.1277 -0.289203 -1.54924 0
M  V30 290 C 26.5387 0.205791 -1.85562 0
M  V30 291 C 26.8897 1.54351 -1.2112 0
M  V30 292 O 26.0147 2.10435 -0.504601 0
M  V30 293 C 26.6097 0.380177 -3.3666 0
M  V30 294 C 25.1687 0.819395 -3.67373 0
M  V30 295 C 24.3157 -0.079159 -2.77187 0
M  V30 296 H 27.2667 -0.510577 -1.50262 0
M  V30 297 H 27.2877 1.21659 -3.60526 0
M  V30 298 H 26.7997 -0.593589 -3.83534 0
M  V30 299 H 24.9007 1.80413 -3.26009 0
M  V30 300 H 25.0137 0.646957 -4.74712 0
M  V30 301 H 23.3777 0.439565 -2.50878 0
M  V30 302 H 24.1607 -1.04906 -3.26878 0
M  V30 303 N 26.6058 1.57591 -0.0167156 0
M  V30 304 C 27.5688 2.08393 0.954204 0
M  V30 305 C 28.5688 0.996531 1.26198 0
M  V30 306 O 29.7588 1.25858 1.20438 0
M  V30 307 C 26.8908 2.5394 2.27436 0
M  V30 308 H 28.0838 2.95455 0.514451 0
M  V30 309 H 25.6368 1.54582 0.231089 0
M  V30 310 H 26.3718 1.70171 2.76066 0
M  V30 311 H 26.1568 3.33371 2.06412 0
M  V30 312 H 27.6468 2.93512 2.97053 0
M  V30 313 N 28.0839 -0.256276 1.55502 0
M  V30 314 C 29.3239 -0.993081 1.78654 0
M  V30 315 C 29.6879 -1.8288 0.584724 0
M  V30 316 O 30.8889 -2.59665 0.694822 0
M  V30 317 C 29.1599 -1.83856 3.06483 0
M  V30 318 S 30.7189 -2.63573 3.5082 0
M  V30 319 H 27.5369 -0.334199 0.62756 0
M  V30 320 H 30.1389 -0.26184 1.93739 0
M  V30 321 H 28.8429 -1.21414 3.92029 0
M  V30 322 H 28.3739 -2.61271 2.94111 0
M  V30 323 H 30.3889 -3.86312 3.11412 0
M  V30 324 N 29.562 -1.4872 -0.521534 0
M  V30 325 C 30.492 -1.66771 -1.63431 0
M  V30 326 C 31.473 -0.516499 -1.62069 0
M  V30 327 O 32.658 -0.750013 -1.79132 0
M  V30 328 C 29.788 -1.71515 -3.01993 0
M  V30 329 C 28.742 -2.86222 -3.18216 0
M  V30 330 C 28.068 -2.76061 -4.57924 0
M  V30 331 C 29.368 -4.27419 -3.00184 0
M  V30 332 H 31.062 -2.59932 -1.48579 0
M  V30 333 H 28.608 -1.25089 -0.713358 0
M  V30 334 H 30.561 -1.82731 -3.7972 0
M  V30 335 H 29.285 -0.749393 -3.17886 0
M  V30 336 H 27.944 -2.74575 -2.42908 0
M  V30 337 H 27.592 -1.77437 -4.70665 0
M  V30 338 H 27.292 -3.53037 -4.69722 0
M  V30 339 H 28.816 -2.89256 -5.37739 0
M  V30 340 H 30.23 -4.39855 -3.67697 0
M  V30 341 H 28.627 -5.05458 -3.2347 0
M  V30 342 H 29.697 -4.43293 -1.96518 0
M  V30 343 N 31.0401 0.771051 -1.3745 0
M  V30 344 C 31.9871 1.88435 -1.3327 0
M  V30 345 C 32.9571 1.64914 -0.198136 0
M  V30 346 O 34.1421 1.86821 -0.387606 0
M  V30 347 C 31.2821 3.25509 -1.14622 0
M  V30 348 C 30.3951 3.60979 -2.37314 0
M  V30 349 C 29.5301 4.87265 -2.11533 0
M  V30 350 C 28.5691 5.15469 -3.30088 0
M  V30 351 N 27.7061 6.32944 -3.03853 0
M  V30 352 H 32.5461 1.91344 -2.28455 0
M  V30 353 H 30.0831 0.935466 -1.13523 0
M  V30 354 H 32.0411 4.04582 -1.01831 0
M  V30 355 H 30.6711 3.21974 -0.230837 0
M  V30 356 H 29.7231 2.76885 -2.60842 0
M  V30 357 H 31.0351 3.77759 -3.25729 0
M  V30 358 H 30.1891 5.74244 -1.95777 0
M  V30 359 H 28.9281 4.7259 -1.20457 0
M  V30 360 H 27.9331 4.26966 -3.46382 0
M  V30 361 H 29.1581 5.32052 -4.22016 0
M  V30 362 H 27.1041 6.19625 -2.15407 0
M  V30 363 H 27.0211 6.50143 -3.85812 0
M  V30 364 H 28.2891 7.22857 -2.91716 0
M  V30 365 N 32.5182 1.22032 0.997298 0
M  V30 366 C 33.7462 1.06841 1.7718 0
M  V30 367 C 34.1612 -0.381325 1.84909 0
M  V30 368 O 33.5182 -1.26437 1.31605 0
M  V30 369 C 33.5692 1.66814 3.20711 0
M  V30 370 O 33.2902 3.06116 3.13408 0
M  V30 371 C 34.7912 1.56838 4.14628 0
M  V30 372 H 32.0112 0.374782 0.556578 0
M  V30 373 H 34.5552 1.61532 1.2541 0
M  V30 374 H 32.7102 1.16196 3.69564 0
M  V30 375 H 33.1242 3.34926 4.0364 0
M  V30 376 H 34.5982 2.03532 5.13107 0
M  V30 377 H 35.0752 0.524155 4.36061 0
M  V30 378 H 35.6812 2.06741 3.7167 0
M  V30 379 N 33.9963 -1.19345 1.0293 0
M  V30 380 C 34.9283 -2.22036 0.56857 0
M  V30 381 C 35.9413 -1.58865 -0.355779 0
M  V30 382 O 37.1303 -1.77851 -0.152103 0
M  V30 383 C 34.2303 -3.38363 -0.190752 0
M  V30 384 C 33.4033 -4.31118 0.738643 0
M  V30 385 C 32.4623 -5.26194 0.0246497 0
M  V30 386 O 31.4883 -5.65461 0.651354 0
M  V30 387 N 32.6903 -5.66971 -1.24594 0
M  V30 388 H 35.4553 -2.6219 1.45177 0
M  V30 389 H 33.0163 -1.34015 0.908381 0
M  V30 390 H 35.0083 -3.98981 -0.677961 0
M  V30 391 H 33.5783 -2.96994 -0.975366 0
M  V30 392 H 32.7983 -3.68276 1.40593 0
M  V30 393 H 34.0863 -4.90001 1.37029 0
M  V30 394 H 33.4843 -5.37104 -1.77583 0
M  V30 395 H 32.0413 -6.2984 -1.67764 0
M  V30 396 N 35.4744 -0.807222 -1.35358 0
M  V30 397 C 36.3844 -0.219594 -2.3357 0
M  V30 398 C 37.4004 0.637734 -1.61892 0
M  V30 399 O 38.5764 0.549336 -1.93763 0
M  V30 400 C 35.6414 0.62158 -3.41083 0
M  V30 401 C 34.7024 -0.256315 -4.28534 0
M  V30 402 C 33.9354 0.544807 -5.30912 0
M  V30 403 O 34.1584 1.77944 -5.41934 0
M  V30 404 O 33.0924 -0.0646478 -6.01865 0
M  V30 405 H 36.9184 -1.03208 -2.85625 0
M  V30 406 H 34.5034 -0.569025 -1.38139 0
M  V30 407 H 36.3854 1.10067 -4.06772 0
M  V30 408 H 35.0604 1.41165 -2.91297 0
M  V30 409 H 33.9674 -0.782559 -3.65823 0
M  V30 410 H 35.3004 -1.01034 -4.81719 0
M  V30 411 N 36.9525 1.47285 -0.560781 0
M  V30 412 C 37.9025 2.27073 0.205384 0
M  V30 413 C 38.8865 1.34569 0.882044 0
M  V30 414 O 40.0785 1.58899 0.77976 0
M  V30 415 C 37.2075 3.20414 1.23247 0
M  V30 416 C 36.2935 4.20399 0.559041 0
M  V30 417 N 36.6845 5.04423 -0.372927 0
M  V30 418 C 34.9825 4.38536 0.812522 0
M  V30 419 C 35.6835 5.76655 -0.764446 0
M  V30 420 N 34.6595 5.43471 -0.11848 0
M  V30 421 H 38.4615 2.89422 -0.511117 0
M  V30 422 H 35.9755 1.57868 -0.380975 0
M  V30 423 H 37.9725 3.76262 1.79534 0
M  V30 424 H 36.6325 2.59623 1.95002 0
M  V30 425 H 37.6435 5.1248 -0.747287 0
M  V30 426 H 34.3205 3.88913 1.51832 0
M  V30 427 H 35.7105 6.54238 -1.53045 0
M  V30 428 N 38.4306 0.297415 1.54768 0
M  V30 429 C 39.8416 -0.195947 1.85669 0
M  V30 430 C 40.1926 -1.53707 1.21937 0
M  V30 431 O 39.3176 -2.10164 0.515754 0
M  V30 432 C 39.9126 -0.362318 3.36857 0
M  V30 433 C 38.4716 -0.799901 3.67802 0
M  V30 434 C 37.6186 0.0938578 2.77141 0
M  V30 435 H 40.5696 0.518538 1.4999 0
M  V30 436 H 40.5906 -1.19745 3.61167 0
M  V30 437 H 40.1026 0.613921 3.83214 0
M  V30 438 H 38.2036 -1.78682 3.26961 0
M  V30 439 H 38.3166 -0.621773 4.75048 0
M  V30 440 H 36.6806 -0.426254 2.51108 0
M  V30 441 H 37.4636 1.06639 3.26318 0
M  V30 442 N 39.9087 -1.5758 0.0250728 0
M  V30 443 C 41.1337 -1.96337 -0.668317 0
M  V30 444 C 41.5587 -0.901314 -1.651 0
M  V30 445 O 40.9167 0.138187 -1.80773 0
M  V30 446 C 40.9647 -3.34191 -1.35457 0
M  V30 447 O 40.0687 -3.30269 -2.46974 0
M  V30 448 H 39.4097 -0.640281 -0.175887 0
M  V30 449 H 41.9397 -2.0442 0.0857224 0
M  V30 450 H 41.9497 -3.70331 -1.71228 0
M  V30 451 H 40.6247 -4.11036 -0.634218 0
M  V30 452 H 39.2017 -3.05841 -2.13344 0
M  V30 453 N 41.3868 0.248026 -1.55636 0
M  V30 454 C 42.6268 0.983592 -1.79178 0
M  V30 455 C 42.9908 1.82567 -0.594414 0
M  V30 456 O 44.1918 2.59292 -0.708583 0
M  V30 457 C 42.4628 1.82228 -3.07454 0
M  V30 458 S 44.0218 2.61709 -3.52213 0
M  V30 459 H 40.8398 0.330866 -0.629324 0
M  V30 460 H 43.4418 0.251562 -1.93875 0
M  V30 461 H 42.1458 1.19333 -3.92668 0
M  V30 462 H 41.6768 2.59708 -2.95492 0
M  V30 463 H 43.6918 3.84655 -3.13457 0
M  V30 464 N 42.8649 1.48995 0.513639 0
M  V30 465 C 44.2759 1.5119 1.09537 0
M  V30 466 C 44.6269 0.290906 1.94031 0
M  V30 467 O 43.7519 -0.60049 2.07902 0
M  V30 468 C 44.3469 2.73964 1.99322 0
M  V30 469 C 42.9059 2.78978 2.52682 0
M  V30 470 C 42.0529 2.44934 1.30009 0
M  V30 471 H 45.0039 1.55875 0.298125 0
M  V30 472 H 45.0249 2.53409 2.83838 0
M  V30 473 H 44.5369 3.62813 1.37799 0
M  V30 474 H 42.6379 1.94378 3.1788 0
M  V30 475 H 42.7509 3.8083 2.90698 0
M  V30 476 H 41.1149 1.9644 1.62122 0
M  V30 477 H 41.8979 3.36043 0.702131 0
M  V30 478 N 44.343 -0.763751 1.37857 0
M  V30 479 C 45.591 -1.51957 1.33243 0
M  V30 480 C 45.912 -1.94835 -0.0801709 0
M  V30 481 O 45.182 -1.66894 -1.02582 0
M  V30 482 H 43.762 -0.563626 0.49024 0
M  V30 483 H 46.424 -0.908504 1.7243 0
M  V30 484 H 45.52 -2.41523 1.97669 0
M  V30 485 N 45.8211 -1.22559 -0.990812 0
M  V30 486 C 47.2321 -1.04791 -1.54518 0
M  V30 487 C 47.5831 0.387998 -1.92325 0
M  V30 488 O 46.7081 1.27328 -1.74976 0
M  V30 489 C 47.3031 -1.896 -2.80779 0
M  V30 490 C 45.8621 -1.76124 -3.32652 0
M  V30 491 C 45.0091 -1.8594 -2.05722 0
M  V30 492 H 47.9601 -1.36374 -0.811662 0
M  V30 493 H 47.9811 -1.41464 -3.53225 0
M  V30 494 H 47.4931 -2.94101 -2.53231 0
M  V30 495 H 45.5941 -0.743643 -3.65104 0
M  V30 496 H 45.7071 -2.58913 -4.03114 0
M  V30 497 H 44.0711 -1.29403 -2.19379 0
M  V30 498 H 44.8541 -2.91976 -1.80568 0
M  V30 499 N 47.2992 1.18797 -1.03562 0
M  V30 500 C 48.7152 1.40671 -0.753917 0
M  V30 501 C 48.9152 1.9043 0.658686 0
M  V30 502 O 47.9712 2.08538 1.42366 0
M  V30 503 C 49.2842 2.41192 -1.79574 0
M  V30 504 C 50.8322 2.54928 -1.81606 0
M  V30 505 C 51.3072 3.58709 -2.84766 0
M  V30 506 N 52.7982 3.66212 -2.83625 0
M  V30 507 C 53.5332 4.46225 -3.60098 0
M  V30 508 N 53.0292 5.29888 -4.46308 0
M  V30 509 N 54.8222 4.40939 -3.4861 0
M  V30 510 H 46.9732 0.848221 -1.94728 0
M  V30 511 H 49.2362 0.435081 -0.842264 0
M  V30 512 H 48.9422 2.11669 -2.80872 0
M  V30 513 H 48.8162 3.40467 -1.62365 0
M  V30 514 H 51.2032 2.83771 -0.809817 0
M  V30 515 H 51.2842 1.55784 -2.02891 0
M  V30 516 H 50.9282 3.30607 -3.85566 0
M  V30 517 H 50.8582 4.57519 -2.60737 0
M  V30 518 H 53.3492 3.06466 -2.21105 0
M  V30 519 H 53.6622 5.88078 -5.01382 0
M  V30 520 H 52.0072 5.29326 -4.50377 0
M  V30 521 H 55.1982 3.74624 -2.80668 0
M  V30 522 H 55.3712 5.03056 -4.08459 0
M  V30 523 N 48.7773 0.814389 1.34928 0
M  V30 524 C 49.6873 0.231978 2.3345 0
M  V30 525 C 50.7033 -0.629139 1.62228 0
M  V30 526 O 51.8793 -0.539052 1.94052 0
M  V30 527 C 48.9443 -0.603482 3.41407 0
M  V30 528 C 48.0053 0.279037 4.28392 0
M  V30 529 C 47.2383 -0.516643 5.31193 0
M  V30 530 O 47.4613 -1.75068 5.4287 0
M  V30 531 O 46.3953 0.0965652 6.01823 0
M  V30 532 H 50.2213 1.04721 2.85074 0
M  V30 533 H 47.8063 0.576343 1.37836 0
M  V30 534 H 49.6883 -1.07908 4.0735 0
M  V30 535 H 48.3633 -1.39618 2.92042 0
M  V30 536 H 47.2703 0.801948 3.65403 0
M  V30 537 H 48.6033 1.03588 4.81176 0
M  V30 538 N 50.2554 -1.46986 0.568584 0
M  V30 539 C 51.1854 -2.32946 -0.160753 0
M  V30 540 C 52.1664 -1.44487 -0.897631 0
M  V30 541 O 53.3514 -1.73327 -0.875867 0
M  V30 542 C 50.4814 -3.26494 -1.18403 0
M  V30 543 C 49.4354 -4.24282 -0.562895 0
M  V30 544 C 48.7614 -5.07236 -1.69163 0
M  V30 545 C 50.0614 -5.19989 0.490761 0
M  V30 546 H 51.7554 -2.94175 0.556916 0
M  V30 547 H 49.3014 -1.4146 0.26927 0
M  V30 548 H 51.2544 -3.85477 -1.70251 0
M  V30 549 H 49.9784 -2.63343 -1.93179 0
M  V30 550 H 48.6374 -3.66541 -0.0656164 0
M  V30 551 H 48.2854 -4.4048 -2.42871 0
M  V30 552 H 47.9854 -5.7345 -1.28174 0
M  V30 553 H 49.5094 -5.6908 -2.21314 0
M  V30 554 H 50.9234 -5.73271 0.0579047 0
M  V30 555 H 49.3204 -5.94469 0.820165 0
M  V30 556 H 50.3904 -4.64777 1.3824 0
M  V30 557 N 51.7335 -0.305618 -1.54608 0
M  V30 558 C 52.6435 0.57778 -2.27374 0
M  V30 559 C 53.6595 1.14451 -1.31061 0
M  V30 560 O 54.8355 1.16831 -1.6405 0
M  V30 561 C 51.9005 1.73123 -3.00382 0
M  V30 562 C 50.9615 1.19812 -4.12242 0
M  V30 563 C 50.1945 2.2966 -4.81759 0
M  V30 564 O 50.4175 3.49651 -4.50666 0
M  V30 565 O 49.3515 1.96091 -5.69062 0
M  V30 566 H 53.1775 -0.012624 -3.03697 0
M  V30 567 H 50.7625 -0.0719184 -1.49227 0
M  V30 568 H 52.6445 2.40315 -3.4616 0
M  V30 569 H 51.3195 2.30815 -2.26949 0
M  V30 570 H 50.2265 0.491798 -3.70853 0
M  V30 571 H 51.5595 0.666566 -4.87666 0
M  V30 572 N 53.2116 1.57565 -0.0334293 0
M  V30 573 C 54.1746 2.09393 0.932048 0
M  V30 574 C 55.1746 1.00986 1.25134 0
M  V30 575 O 56.3646 1.27129 1.19096 0
M  V30 576 C 53.4966 2.56338 2.2473 0
M  V30 577 H 54.6896 2.95984 0.483085 0
M  V30 578 H 52.2426 1.54819 0.21468 0
M  V30 579 H 52.9776 1.7309 2.74245 0
M  V30 580 H 52.7626 3.35542 2.02865 0
M  V30 581 H 54.2526 2.96646 2.93923 0
M  V30 582 N 54.6897 -0.239769 1.55765 0
M  V30 583 C 55.9147 -0.988373 1.82335 0
M  V30 584 C 56.3397 -1.77886 0.611421 0
M  V30 585 O 55.6977 -1.75889 -0.439639 0
M  V30 586 C 55.7457 -1.89627 3.06715 0
M  V30 587 O 54.8497 -2.98904 2.84131 0
M  V30 588 H 54.1907 -0.280858 0.601677 0
M  V30 589 H 56.7207 -0.258597 2.02959 0
M  V30 590 H 56.7307 -2.30957 3.36338 0
M  V30 591 H 55.4057 -1.31511 3.9456 0
M  V30 592 H 53.9827 -2.61651 2.65694 0
M  V30 593 N 56.1678 -1.49265 -0.50573 0
M  V30 594 C 57.1148 -1.65585 -1.6078 0
M  V30 595 C 58.0848 -0.497396 -1.58478 0
M  V30 596 O 59.2698 -0.72385 -1.76536 0
M  V30 597 C 56.4098 -1.72408 -2.98948 0
M  V30 598 C 55.5228 -2.99525 -3.11301 0
M  V30 599 C 54.6578 -2.97356 -4.40174 0
M  V30 600 C 53.6968 -4.19074 -4.46143 0
M  V30 601 N 52.8338 -4.14841 -5.66437 0
M  V30 602 H 57.6738 -2.59688 -1.46172 0
M  V30 603 H 55.2108 -1.28761 -0.711261 0
M  V30 604 H 57.1688 -1.74344 -3.79025 0
M  V30 605 H 55.7988 -0.817753 -3.1227 0
M  V30 606 H 54.8508 -3.07222 -2.24318 0
M  V30 607 H 56.1628 -3.89518 -3.11572 0
M  V30 608 H 55.3168 -2.97829 -5.28567 0
M  V30 609 H 54.0558 -2.05133 -4.42461 0
M  V30 610 H 53.0608 -4.1885 -3.56153 0
M  V30 611 H 54.2858 -5.12483 -4.45575 0
M  V30 612 H 52.2318 -3.25453 -5.69575 0
M  V30 613 H 52.1488 -4.98564 -5.68304 0
M  V30 614 H 53.4168 -4.1941 -6.57051 0
M  V30 615 N 57.6459 0.756429 -1.3826 0
M  V30 616 C 58.8919 1.51772 -1.34511 0
M  V30 617 C 59.2249 1.94089 0.0656691 0
M  V30 618 O 58.4999 1.65221 1.02626 0
M  V30 619 C 58.7829 2.77226 -2.29821 0
M  V30 620 C 58.6359 2.41065 -3.79747 0
M  V30 621 C 59.9549 3.79236 -2.23312 0
M  V30 622 H 57.0739 0.550578 -0.489931 0
M  V30 623 H 59.7159 0.866607 -1.69086 0
M  V30 624 H 57.8659 3.32784 -2.00467 0
M  V30 625 H 59.5379 1.91303 -4.19763 0
M  V30 626 H 57.7809 1.7356 -3.97567 0
M  V30 627 H 58.4519 3.3081 -4.41892 0
M  V30 628 H 60.9279 3.3321 -2.49219 0
M  V30 629 H 59.8039 4.64714 -2.92116 0
M  V30 630 H 60.0649 4.24615 -1.23102 0
M  V30 631 N 59.124 1.23083 0.984299 0
M  V30 632 C 60.37 1.06214 1.72761 0
M  V30 633 C 60.703 -0.400584 1.90024 0
M  V30 634 O 59.978 -1.29672 1.44967 0
M  V30 635 C 60.261 1.78375 3.12817 0
M  V30 636 C 60.114 3.32296 3.03149 0
M  V30 637 C 61.433 1.54309 4.12161 0
M  V30 638 H 58.552 0.387251 0.627061 0
M  V30 639 H 61.194 1.51536 1.14616 0
M  V30 640 H 59.344 1.39848 3.62457 0
M  V30 641 H 61.016 3.8032 2.61064 0
M  V30 642 H 59.259 3.6153 2.39747 0
M  V30 643 H 59.93 3.77972 4.02295 0
M  V30 644 H 62.406 1.87791 3.71314 0
M  V30 645 H 61.282 2.07281 5.08258 0
M  V30 646 H 61.543 0.477572 4.39513 0
M  V30 647 N 60.6021 -1.18246 1.0419 0
M  V30 648 C 61.5321 -2.24127 0.654914 0
M  V30 649 C 62.5131 -1.66617 -0.342451 0
M  V30 650 O 63.6981 -1.92924 -0.222277 0
M  V30 651 C 60.8281 -3.47295 0.0183757 0
M  V30 652 C 59.7821 -4.17563 0.939414 0
M  V30 653 C 59.1081 -5.34438 0.167286 0
M  V30 654 C 60.4081 -4.70917 2.25908 0
M  V30 655 H 62.1021 -2.56753 1.54007 0
M  V30 656 H 59.6481 -1.23414 0.74195 0
M  V30 657 H 61.6011 -4.20572 -0.264082 0
M  V30 658 H 60.3251 -3.13907 -0.901664 0
M  V30 659 H 58.9841 -3.46186 1.20628 0
M  V30 660 H 58.6321 -4.97298 -0.7552 0
M  V30 661 H 58.3321 -5.82388 0.780901 0
M  V30 662 H 59.8561 -6.10504 -0.108125 0
M  V30 663 H 61.2701 -5.35882 2.03724 0
M  V30 664 H 59.6671 -5.29406 2.82577 0
M  V30 665 H 60.7371 -3.88272 2.9047 0
M  V30 666 N 62.0802 -0.821533 -1.34494 0
M  V30 667 C 63.0102 -0.257138 -2.3208 0
M  V30 668 C 63.9912 0.625645 -1.58176 0
M  V30 669 O 65.1762 0.552811 -1.86166 0
M  V30 670 C 62.3062 0.582958 -3.42372 0
M  V30 671 C 61.2602 -0.202571 -4.2752 0
M  V30 672 C 60.5862 0.760179 -5.29269 0
M  V30 673 C 61.8862 -1.40998 -5.02908 0
M  V30 674 H 63.5802 -1.07247 -2.79532 0
M  V30 675 H 61.1262 -0.517163 -1.34393 0
M  V30 676 H 63.0792 0.987972 -4.09655 0
M  V30 677 H 61.8032 1.43133 -2.93565 0
M  V30 678 H 60.4622 -0.588936 -3.61838 0
M  V30 679 H 60.1102 1.60447 -4.76724 0
M  V30 680 H 59.8102 0.238809 -5.87115 0
M  V30 681 H 61.3342 1.16308 -5.9942 0
M  V30 682 H 62.7482 -1.07905 -5.63054 0
M  V30 683 H 61.1452 -1.86689 -5.70322 0
M  V30 684 H 62.2152 -2.1889 -4.32684 0
M  V30 685 N 63.5583 1.46682 -0.576371 0
M  V30 686 C 64.9693 1.86112 -0.148091 0
M  V30 687 C 65.3203 1.48073 1.2872 0
M  V30 688 O 64.4453 0.892656 1.97131 0
M  V30 689 C 65.0403 3.37786 -0.261982 0
M  V30 690 C 63.5993 3.76235 0.111384 0
M  V30 691 C 62.7463 2.70713 -0.60083 0
M  V30 692 H 65.6973 1.37927 -0.78497 0
M  V30 693 H 65.7183 3.77007 0.514364 0
M  V30 694 H 65.2303 3.6544 -1.30671 0
M  V30 695 H 63.3313 3.54198 1.15649 0
M  V30 696 H 63.4443 4.78391 -0.26052 0
M  V30 697 H 61.8083 2.54666 -0.0417783 0
M  V30 698 H 62.5913 3.01208 -1.64708 0
M  V30 699 N 65.0364 0.313813 1.54444 0
M  V30 700 C 66.2614 -0.296681 2.05267 0
M  V30 701 C 66.6864 -1.45757 1.18897 0
M  V30 702 O 66.0444 -1.80239 0.195886 0
M  V30 703 C 66.0924 -0.71831 3.53373 0
M  V30 704 O 65.1964 -1.82175 3.69981 0
M  V30 705 H 64.5374 -0.0554061 0.661684 0
M  V30 706 H 67.0674 0.459387 1.99376 0
M  V30 707 H 67.0774 -1.00364 3.95463 0
M  V30 708 H 65.7524 0.130821 4.15694 0
M  V30 709 H 64.3294 -1.53598 3.39797 0
M  V30 710 N 66.5145 -1.57545 0.0417849 0
M  V30 711 C 67.7545 -1.94185 -0.63809 0
M  V30 712 C 68.1185 -0.919339 -1.68559 0
M  V30 713 O 69.3195 -1.17236 -2.41886 0
M  V30 714 C 67.5905 -3.35672 -1.22714 0
M  V30 715 S 69.1495 -3.94256 -1.92633 0
M  V30 716 H 65.9675 -0.679353 -0.209764 0
M  V30 717 H 68.5695 -1.95199 0.108479 0
M  V30 718 H 67.2735 -4.07898 -0.452503 0
M  V30 719 H 66.8045 -3.38132 -2.01073 0
M  V30 720 H 68.8195 -3.7872 -3.20602 0
M  V30 721 N 67.9926 0.231505 -1.5589 0
M  V30 722 C 69.4036 0.799327 -1.68724 0
M  V30 723 C 69.7546 1.85398 -0.642022 0
M  V30 724 O 68.8796 2.1539 0.208784 0
M  V30 725 C 69.4746 1.45664 -3.05888 0
M  V30 726 C 68.0336 1.97197 -3.20609 0
M  V30 727 C 67.1806 0.828552 -2.64632 0
M  V30 728 H 70.1316 0.00702616 -1.58698 0
M  V30 729 H 70.1526 2.32517 -3.01191 0
M  V30 730 H 69.6646 0.688808 -3.81939 0
M  V30 731 H 67.7656 2.76813 -2.4941 0
M  V30 732 H 67.8786 2.15878 -4.27707 0
M  V30 733 H 66.2426 1.23321 -2.22854 0
M  V30 734 H 67.0256 0.0735544 -3.43221 0
M  V30 735 N 69.4707 1.49531 0.497807 0
M  V30 736 C 70.7187 1.58865 1.24926 0
M  V30 737 C 71.0397 0.278721 1.92998 0
M  V30 738 O 70.3097 -0.702144 1.82885 0
M  V30 739 H 68.8897 0.585343 0.464094 0
M  V30 740 H 71.5517 1.86174 0.57666 0
M  V30 741 H 70.6477 2.38633 2.01149 0
M  V30 742 N 70.9488 -0.749086 1.3866 0
M  V30 743 C 71.9118 -1.84457 1.36045 0
M  V30 744 C 72.9118 -1.58682 0.260122 0
M  V30 745 O 74.1018 -1.66343 0.517261 0
M  V30 746 C 71.2338 -3.22008 1.11911 0
M  V30 747 H 72.4268 -1.88182 2.33512 0
M  V30 748 H 69.9798 -0.951266 1.24019 0
M  V30 749 H 70.7148 -3.2395 0.150686 0
M  V30 750 H 70.4998 -3.42111 1.91579 0
M  V30 751 H 71.9898 -4.0208 1.12788 0
M  V30 752 N 72.4269 -1.23603 -0.977757 0
M  V30 753 C 73.8379 -1.06424 -1.53398 0
M  V30 754 C 74.1889 0.367578 -1.92726 0
M  V30 755 O 73.3139 1.25465 -1.76316 0
M  V30 756 C 73.9089 -1.92568 -2.78753 0
M  V30 757 C 72.4679 -1.79642 -3.30765 0
M  V30 758 C 71.6149 -1.88111 -2.03739 0
M  V30 759 H 74.5659 -1.37227 -0.797152 0
M  V30 760 H 74.5869 -1.45203 -3.51705 0
M  V30 761 H 74.0989 -2.96771 -2.50098 0
M  V30 762 H 72.1999 -0.782325 -3.64294 0
M  V30 763 H 72.3129 -2.63174 -4.00345 0
M  V30 764 H 70.6769 -1.31723 -2.17994 0
M  V30 765 H 71.4599 -2.93875 -1.77461 0
M  V30 766 N 73.905 1.17692 -1.04816 0
M  V30 767 C 75.153 1.87488 -0.754497 0
M  V30 768 C 75.474 1.81205 0.720407 0
M  V30 769 O 74.744 1.23544 1.52032 0
M  V30 770 H 73.324 0.694101 -0.276102 0
M  V30 771 H 75.986 1.42793 -1.32651 0
M  V30 772 H 75.082 2.93328 -1.06606 0
M  V30 773 N 75.3831 0.828654 1.34056 0
M  V30 774 C 76.6081 0.431637 2.02859 0
M  V30 775 C 77.0331 -0.956339 1.61975 0
M  V30 776 O 76.3911 -1.62338 0.807228 0
M  V30 777 C 76.4391 0.548323 3.56407 0
M  V30 778 O 75.5431 -0.429556 4.10157 0
M  V30 779 H 74.8841 0.176886 0.640006 0
M  V30 780 H 77.4141 1.12066 1.71179 0
M  V30 781 H 77.4241 0.426196 4.05768 0
M  V30 782 H 76.0991 1.5606 3.8551 0
M  V30 783 H 74.6761 -0.265836 3.71951 0
M  V30 784 N 76.8612 -1.46375 0.584142 0
M  V30 785 C 78.2722 -1.86031 0.157959 0
M  V30 786 C 78.6232 -1.48753 -1.27933 0
M  V30 787 O 77.7482 -0.903098 -1.96655 0
M  V30 788 C 78.3432 -3.37642 0.279892 0
M  V30 789 C 76.9022 -3.76289 -0.09143 0
M  V30 790 C 76.0492 -2.7039 0.615178 0
M  V30 791 H 79.0002 -1.37509 0.792274 0
M  V30 792 H 79.0212 -3.77275 -0.494364 0
M  V30 793 H 78.5332 -3.64742 1.32607 0
M  V30 794 H 76.6342 -3.54806 -1.13769 0
M  V30 795 H 76.7472 -4.78246 0.285886 0
M  V30 796 H 75.1112 -2.5464 0.0552833 0
M  V30 797 H 75.8942 -3.0033 1.66303 0
M  V30 798 N 78.3393 -0.321999 -1.54275 0
M  V30 799 C 79.5873 0.280489 -2.00144 0
M  V30 800 C 79.9083 1.52777 -1.21178 0
M  V30 801 O 79.1783 1.9338 -0.313187 0
M  V30 802 H 77.7583 0.106632 -0.73935 0
M  V30 803 H 80.4203 -0.438184 -1.8991 0
M  V30 804 H 79.5163 0.537972 -3.07428 0
M  V30 805 N 79.8174 1.5752 -0.0501392 0
M  V30 806 C 80.7274 2.14952 0.939827 0
M  V30 807 C 81.7434 1.10706 1.34239 0
M  V30 808 O 82.9194 1.42869 1.41952 0
M  V30 809 C 79.9844 2.68232 2.19665 0
M  V30 810 C 79.0454 3.87272 1.85253 0
M  V30 811 C 78.2784 4.38002 3.04943 0
M  V30 812 O 78.5014 3.87811 4.18281 0
M  V30 813 O 77.4354 5.29602 2.86017 0
M  V30 814 H 81.2614 2.9986 0.481392 0
M  V30 815 H 78.8464 1.4841 0.171699 0
M  V30 816 H 80.7284 3.02475 2.93406 0
M  V30 817 H 79.4034 1.86395 2.64648 0
M  V30 818 H 78.3104 3.5792 1.0883 0
M  V30 819 H 79.6434 4.70336 1.4507 0
M  V30 820 N 81.2955 -0.223234 1.56011 0
M  V30 821 C 82.2425 -1.27664 1.92277 0
M  V30 822 C 83.2125 -1.46659 0.779763 0
M  V30 823 O 84.3975 -1.60256 1.03551 0
M  V30 824 C 81.5375 -2.62234 2.24338 0
M  V30 825 C 80.6505 -2.51051 3.51564 0
M  V30 826 C 79.7855 -3.78133 3.7308 0
M  V30 827 C 78.8245 -3.61665 4.93827 0
M  V30 828 N 77.9615 -4.80693 5.11741 0
M  V30 829 H 82.8015 -0.960358 2.82101 0
M  V30 830 H 80.3385 -0.462901 1.39627 0
M  V30 831 H 82.2965 -3.40596 2.40936 0
M  V30 832 H 80.9265 -2.91961 1.3769 0
M  V30 833 H 79.9785 -1.64132 3.43169 0
M  V30 834 H 81.2905 -2.34803 4.40079 0
M  V30 835 H 80.4445 -4.64938 3.89766 0
M  V30 836 H 79.1835 -3.97304 2.82844 0
M  V30 837 H 78.1885 -2.73244 4.77093 0
M  V30 838 H 79.4135 -3.43966 5.85546 0
M  V30 839 H 77.3595 -5.00181 4.24446 0
M  V30 840 H 77.2765 -4.67165 5.94384 0
M  V30 841 H 78.5445 -5.6893 5.3286 0
M  V30 842 N 82.7736 -1.49793 -0.48987 0
M  V30 843 C 84.0216 -1.59525 -1.24081 0
M  V30 844 C 84.3426 -0.288953 -1.92847 0
M  V30 845 O 83.6126 0.692436 -1.83254 0
M  V30 846 H 82.1926 -0.587796 -0.460983 0
M  V30 847 H 84.8546 -1.86477 -0.566778 0
M  V30 848 H 83.9506 -2.39696 -1.99881 0
M  V30 849 N 84.2517 0.741722 -1.39055 0
M  V30 850 C 85.2147 1.83733 -1.37021 0
M  V30 851 C 86.2147 1.58542 -0.268534 0
M  V30 852 O 87.4047 1.66067 -0.526076 0
M  V30 853 C 84.5367 3.2141 -1.13617 0
M  V30 854 H 85.7297 1.86941 -2.34506 0
M  V30 855 H 83.2827 0.944676 -1.24521 0
M  V30 856 H 84.0177 3.23865 -0.167863 0
M  V30 857 H 83.8027 3.4109 -1.93391 0
M  V30 858 H 85.2927 4.01477 -1.14918 0
M  V30 859 N 85.7298 1.2412 0.971189 0
M  V30 860 C 87.1408 1.07236 1.52831 0
M  V30 861 C 87.4918 -0.357352 1.92918 0
M  V30 862 O 86.6168 -1.24528 1.76979 0
M  V30 863 C 87.2118 1.94043 2.77728 0
M  V30 864 C 85.7708 1.81394 3.29808 0
M  V30 865 C 84.9178 1.89189 2.02738 0
M  V30 866 H 87.8688 1.37648 0.789864 0
M  V30 867 H 87.8898 1.47066 3.5093 0
M  V30 868 H 87.4018 2.98093 2.4852 0
M  V30 869 H 85.5028 0.801634 3.63874 0
M  V30 870 H 85.6158 2.65294 3.98944 0
M  V30 871 H 83.9798 1.32877 2.17292 0
M  V30 872 H 84.7628 2.94812 1.759 0
M  V30 873 N 87.2079 -1.17134 1.05439 0
M  V30 874 C 88.4559 -1.87085 0.764429 0
M  V30 875 C 88.7769 -1.81584 -0.710787 0
M  V30 876 O 88.0469 -1.24349 -1.51374 0
M  V30 877 H 86.6269 -0.692627 0.279779 0
M  V30 878 H 89.2889 -1.42087 1.33406 0
M  V30 879 H 88.3849 -2.92759 1.0816 0
M  V30 880 N 88.686 -0.835752 -1.33615 0
M  V30 881 C 90.097 -0.487099 -1.80234 0
M  V30 882 C 90.448 0.993627 -1.69179 0
M  V30 883 O 89.573 1.77403 -1.23924 0
M  V30 884 C 90.168 -0.877385 -3.27242 0
M  V30 885 C 88.727 -0.580915 -3.7189 0
M  V30 886 C 87.874 -1.0874 -2.5509 0
M  V30 887 H 90.825 -1.02474 -1.2118 0
M  V30 888 H 90.846 -0.186195 -3.80044 0
M  V30 889 H 90.358 -1.95512 -3.35256 0
M  V30 890 H 88.459 0.486881 -3.69405 0
M  V30 891 H 88.572 -1.13396 -4.65487 0
M  V30 892 H 86.936 -0.508392 -2.49575 0
M  V30 893 H 87.719 -2.17184 -2.65868 0
M  V30 894 N 90.1641 1.46063 -0.591896 0
M  V30 895 C 91.0961 2.28539 0.174001 0
M  V30 896 C 92.1091 1.39047 0.846753 0
M  V30 897 O 93.2981 1.63564 0.714774 0
M  V30 898 C 90.3981 3.14347 1.26645 0
M  V30 899 C 89.5711 4.32021 0.683856 0
M  V30 900 C 88.6301 4.99157 1.66518 0
M  V30 901 O 87.6561 5.56458 1.19763 0
M  V30 902 N 88.8581 4.97005 2.99943 0
M  V30 903 H 91.6231 2.94911 -0.533633 0
M  V30 904 H 89.1841 1.56077 -0.430294 0
M  V30 905 H 91.1761 3.56125 1.92242 0
M  V30 906 H 89.7461 2.49988 1.87682 0
M  V30 907 H 88.9661 3.93915 -0.1498 0
M  V30 908 H 90.2541 5.08059 0.274567 0
M  V30 909 H 89.6521 4.51714 3.40545 0
M  V30 910 H 88.2091 5.42696 3.61004 0
M  V30 911 N 91.6422 0.330177 1.54103 0
M  V30 912 C 92.8902 -0.269871 2.0029 0
M  V30 913 C 93.2112 -1.52133 1.21986 0
M  V30 914 O 92.4812 -1.93212 0.323438 0
M  V30 915 H 91.0612 -0.10271 0.739905 0
M  V30 916 H 93.7232 0.448249 1.89675 0
M  V30 917 H 92.8192 -0.52166 3.07709 0
M  V30 918 N 93.1203 -1.57491 0.0584922 0
M  V30 919 C 94.5313 -1.80526 -0.476138 0
M  V30 920 C 94.8823 -0.971334 -1.70469 0
M  V30 921 O 94.0073 -0.190012 -2.15564 0
M  V30 922 C 94.6023 -3.27424 -0.870587 0
M  V30 923 C 93.1613 -3.51351 -1.35015 0
M  V30 924 C 92.3083 -2.75343 -0.32887 0
M  V30 925 H 95.2593 -1.56133 0.284312 0
M  V30 926 H 95.2803 -3.38745 -1.73299 0
M  V30 927 H 94.7923 -3.88093 0.0237627 0
M  V30 928 H 92.8933 -2.95971 -2.26345 0
M  V30 929 H 93.0063 -4.60059 -1.33726 0
M  V30 930 H 91.3703 -2.417 -0.803321 0
M  V30 931 H 92.1533 -3.38743 0.557521 0
M  V30 932 N 94.5984 0.214957 -1.56127 0
M  V30 933 C 96.0094 0.781386 -1.69562 0
M  V30 934 C 96.3604 1.84707 -0.66165 0
M  V30 935 O 95.4854 2.156 0.185927 0
M  V30 936 C 96.0804 1.42411 -3.07416 0
M  V30 937 C 94.6394 1.93786 -3.22683 0
M  V30 938 C 93.7864 0.800438 -2.65496 0
M  V30 939 H 96.7374 -0.00980633 -1.58697 0
M  V30 940 H 96.7584 2.29309 -3.0364 0
M  V30 941 H 96.2704 0.64826 -3.82648 0
M  V30 942 H 94.3714 2.74152 -2.52332 0
M  V30 943 H 94.4844 2.1133 -4.29973 0
M  V30 944 H 92.8484 1.2095 -2.2415 0
M  V30 945 H 93.6314 0.0371471 -3.4328 0
M  V30 946 N 96.0765 1.50051 0.48192 0
M  V30 947 C 97.3245 1.60181 1.23234 0
M  V30 948 C 97.6455 0.299176 1.92691 0
M  V30 949 O 96.9155 -0.682708 1.83619 0
M  V30 950 H 95.4955 0.590232 0.457859 0
M  V30 951 H 98.1575 1.86775 0.556881 0
M  V30 952 H 97.2535 2.40753 1.98607 0
M  V30 953 N 97.5546 -0.734337 1.39446 0
M  V30 954 C 98.9656 -1.31264 1.32766 0
M  V30 955 C 99.3166 -1.96198 -0.00767497 0
M  V30 956 O 98.4416 -1.96346 -0.909796 0
M  V30 957 C 99.0366 -2.38682 2.4045 0
M  V30 958 C 97.5956 -2.92184 2.37288 0
M  V30 959 C 96.7426 -1.6576 2.22304 0
M  V30 960 H 99.6936 -0.531799 1.49525 0
M  V30 961 H 99.7146 -3.19087 2.07276 0
M  V30 962 H 99.2266 -1.91392 3.37625 0
M  V30 963 H 97.3276 -3.43752 1.43754 0
M  V30 964 H 97.4406 -3.45253 3.3217 0
M  V30 965 H 95.8046 -1.9012 1.69489 0
M  V30 966 H 96.5876 -1.20521 3.21449 0
M  V30 967 N 99.0327 -1.24633 -0.964593 0
M  V30 968 C 100.444 -1.08045 -1.5226 0
M  V30 969 C 100.795 0.347116 -1.93105 0
M  V30 970 O 99.9197 1.23588 -1.77637 0
M  V30 971 C 100.515 -1.95514 -2.76695 0
M  V30 972 C 99.0737 -1.8314 -3.28841 0
M  V30 973 C 98.2207 -1.90262 -2.01732 0
M  V30 974 H 101.172 -1.38064 -0.782553 0
M  V30 975 H 101.193 -1.48925 -3.50145 0
M  V30 976 H 100.705 -2.99407 -2.46936 0
M  V30 977 H 98.8057 -0.82092 -3.63444 0
M  V30 978 H 98.9187 -2.67406 -3.97531 0
M  V30 979 H 97.2827 -1.34027 -2.16584 0
M  V30 980 H 98.0657 -2.9574 -1.74334 0
M  V30 981 N 100.511 1.16574 -1.06058 0
M  V30 982 C 101.759 1.86677 -0.77434 0
M  V30 983 C 102.08 1.81959 0.701147 0
M  V30 984 O 101.35 1.2515 1.50713 0
M  V30 985 H 99.9298 0.691134 -0.283449 0
M  V30 986 H 102.592 1.41378 -1.34158 0
M  V30 987 H 101.688 2.92181 -1.09711 0
M  V30 988 N 101.989 0.842826 1.3317 0
M  V30 989 C 102.936 0.276885 2.29133 0
M  V30 990 C 103.906 -0.609527 1.54512 0
M  V30 991 O 105.091 -0.546955 1.82792 0
M  V30 992 C 102.231 -0.538707 3.40869 0
M  V30 993 C 101.344 0.372169 4.30394 0
M  V30 994 C 100.479 -0.454908 5.29249 0
M  V30 995 C 99.5179 0.45411 6.10413 0
M  V30 996 N 98.6549 -0.335075 7.013 0
M  V30 997 H 103.495 1.10052 2.76934 0
M  V30 998 H 101.032 0.554161 1.36262 0
M  V30 999 H 102.99 -1.02709 4.0436 0
M  V30 1000 H 101.62 -1.32727 2.9425 0
M  V30 1001 H 100.672 0.97888 3.6759 0
M  V30 1002 H 101.984 1.0703 4.87182 0
M  V30 1003 H 101.138 -1.00695 5.98285 0
M  V30 1004 H 99.8769 -1.18646 4.73048 0
M  V30 1005 H 98.8819 1.01813 5.40291 0
M  V30 1006 H 100.107 1.18409 6.68697 0
M  V30 1007 H 98.0529 -1.04994 6.47543 0
M  V30 1008 H 97.9699 0.304262 7.55387 0
M  V30 1009 H 99.2379 -0.869224 7.74638 0
M  V30 1010 N 103.467 -1.45747 0.599634 0
M  V30 1011 C 104.4 -2.27547 -0.172552 0
M  V30 1012 C 105.378 -1.36657 -0.881116 0
M  V30 1013 O 106.562 -1.66081 -0.891595 0
M  V30 1014 C 103.689 -3.14829 -1.24903 0
M  V30 1015 C 102.735 -4.21603 -0.644465 0
M  V30 1016 S 103.568 -5.32754 0.541606 0
M  V30 1017 C 104.724 -6.23604 -0.535656 0
M  V30 1018 H 104.957 -2.92691 0.521468 0
M  V30 1019 H 102.49 -1.49473 0.386947 0
M  V30 1020 H 104.448 -3.65675 -1.86527 0
M  V30 1021 H 103.109 -2.48965 -1.91508 0
M  V30 1022 H 102.302 -4.82566 -1.45417 0
M  V30 1023 H 101.904 -3.73857 -0.103534 0
M  V30 1024 H 104.196 -6.62519 -1.41686 0
M  V30 1025 H 105.139 -7.0809 0.0376246 0
M  V30 1026 H 105.547 -5.58103 -0.84741 0
M  V30 1027 N 104.945 -0.338344 -1.53925 0
M  V30 1028 C 106.193 0.259245 -2.0043 0
M  V30 1029 C 106.514 1.51484 -1.22791 0
M  V30 1030 O 105.784 1.93037 -0.33368 0
M  V30 1031 H 104.364 0.0987845 -0.740439 0
M  V30 1032 H 107.026 -0.458302 -1.89435 0
M  V30 1033 H 106.122 0.505334 -3.07982 0
M  V30 1034 N 106.423 1.57458 -0.0668435 0
M  V30 1035 C 107.834 1.80776 0.466558 0
M  V30 1036 C 108.185 0.980361 1.69951 0
M  V30 1037 O 107.31 0.201441 2.1546 0
M  V30 1038 C 107.905 3.27881 0.85321 0
M  V30 1039 C 106.464 3.52062 1.3315 0
M  V30 1040 C 105.611 2.75513 0.314264 0
M  V30 1041 H 108.562 1.5598 -0.292588 0
M  V30 1042 H 108.583 3.39659 1.715 0
M  V30 1043 H 108.095 3.88075 -0.0443439 0
M  V30 1044 H 106.196 2.97167 2.24772 0
M  V30 1045 H 106.309 4.60762 1.31285 0
M  V30 1046 H 104.673 2.42123 0.790492 0
M  V30 1047 H 105.456 3.38442 -0.575477 0
M  V30 1048 N 107.901 -0.206675 1.56239 0
M  V30 1049 C 108.848 -1.25617 1.93621 0
M  V30 1050 C 109.818 -1.45824 0.795274 0
M  V30 1051 O 111.003 -1.59148 1.05245 0
M  V30 1052 C 108.143 -2.59839 2.27107 0
M  V30 1053 C 107.256 -2.47308 3.54207 0
M  V30 1054 C 106.391 -3.74155 3.7707 0
M  V30 1055 C 105.43 -3.56407 4.97635 0
M  V30 1056 N 104.567 -4.75238 5.1681 0
M  V30 1057 H 109.407 -0.930383 2.83104 0
M  V30 1058 H 106.944 -0.448065 1.4011 0
M  V30 1059 H 108.902 -3.38021 2.44535 0
M  V30 1060 H 107.532 -2.90485 1.40778 0
M  V30 1061 H 106.584 -1.60483 3.4489 0
M  V30 1062 H 107.896 -2.30122 4.42544 0
M  V30 1063 H 107.05 -4.60778 3.94675 0
M  V30 1064 H 105.789 -3.94282 2.87042 0
M  V30 1065 H 104.794 -2.68168 4.79964 0
M  V30 1066 H 106.019 -3.37736 5.89161 0
M  V30 1067 H 103.965 -4.95651 4.29728 0
M  V30 1068 H 103.882 -4.60835 5.99306 0
M  V30 1069 H 105.15 -5.63246 5.38864 0
M  V30 1070 N 109.379 -1.50304 -0.473955 0
M  V30 1071 C 110.627 -1.60832 -1.22382 0
M  V30 1072 C 110.948 -0.30939 -1.9253 0
M  V30 1073 O 110.218 0.67296 -1.83978 0
M  V30 1074 H 108.798 -0.592652 -0.454723 0
M  V30 1075 H 111.46 -1.87068 -0.546968 0
M  V30 1076 H 110.556 -2.41803 -1.97327 0
M  V30 1077 N 110.857 0.726932 -1.39834 0
M  V30 1078 C 111.767 1.87131 -1.41489 0
M  V30 1079 C 112.783 1.71239 -0.308757 0
M  V30 1080 O 113.959 1.93701 -0.551529 0
M  V30 1081 C 111.024 3.22811 -1.26468 0
M  V30 1082 C 110.085 3.51039 -2.47124 0
M  V30 1083 C 109.318 4.80245 -2.3281 0
M  V30 1084 O 109.541 5.54537 -1.33585 0
M  V30 1085 O 108.475 5.08554 -3.21957 0
M  V30 1086 H 112.301 1.8869 -2.3797 0
M  V30 1087 H 109.886 0.875837 -1.21035 0
M  V30 1088 H 111.768 4.03877 -1.20255 0
M  V30 1089 H 110.443 3.22005 -0.330862 0
M  V30 1090 H 109.35 2.70027 -2.58914 0
M  V30 1091 H 110.683 3.56632 -3.39227 0
M  V30 1092 N 112.336 1.25143 0.95797 0
M  V30 1093 C 113.747 1.08851 1.51685 0
M  V30 1094 C 114.098 -0.33687 1.93286 0
M  V30 1095 O 113.223 -1.22644 1.7829 0
M  V30 1096 C 113.818 1.96978 2.75654 0
M  V30 1097 C 112.377 1.84881 3.27866 0
M  V30 1098 C 111.524 1.91329 2.0072 0
M  V30 1099 H 114.475 1.38478 0.77522 0
M  V30 1100 H 114.496 1.5078 3.4935 0
M  V30 1101 H 114.008 3.00712 2.45345 0
M  V30 1102 H 112.109 0.840182 3.63004 0
M  V30 1103 H 112.222 2.6951 3.96107 0
M  V30 1104 H 110.586 1.35174 2.15871 0
M  V30 1105 H 111.369 2.96661 1.72764 0
M  V30 1106 N 113.814 -1.1601 1.06675 0
M  V30 1107 C 115.062 -1.86264 0.784229 0
M  V30 1108 C 115.383 -1.82328 -0.691488 0
M  V30 1109 O 114.653 -1.25947 -1.50047 0
M  V30 1110 H 113.233 -0.689621 0.28711 0
M  V30 1111 H 115.895 -1.40664 1.34906 0
M  V30 1112 H 114.991 -2.91595 1.11259 0
M  V30 1113 N 115.292 -0.849877 -1.32721 0
M  V30 1114 C 116.569 -0.372405 -1.92022 0
M  V30 1115 C 116.949 1.1435 -1.77447 0
M  V30 1116 O 116.297 1.96296 -1.16962 0
M  V30 1117 C 116.507 -0.831482 -3.3895 0
M  V30 1118 C 117.855 -0.845882 -4.16089 0
M  V30 1119 O 118.879 -0.775806 -3.47649 0
M  V30 1120 O 117.738 -0.943753 -5.38289 0
M  V30 1121 H 114.832 -0.107667 -0.819961 0
M  V30 1122 H 117.378 -0.93646 -1.41522 0
M  V30 1123 H 116.15 -1.87448 -3.4348 0
M  V30 1124 H 115.773 -0.24461 -3.96847 0
M  V30 1125 N 116.77 1.45427 -0.607355 0
M  V30 1126 C 118.181 1.85756 -0.187535 0
M  V30 1127 C 118.532 1.5077 1.25551 0
M  V30 1128 O 117.657 0.93427 1.95193 0
M  V30 1129 C 118.252 3.37154 -0.333572 0
M  V30 1130 C 116.811 3.76387 0.0315542 0
M  V30 1131 C 115.958 2.69377 -0.658117 0
M  V30 1132 H 118.909 1.36231 -0.81405 0
M  V30 1133 H 118.93 3.78014 0.43428 0
M  V30 1134 H 118.442 3.62586 -1.38393 0
M  V30 1135 H 116.543 3.56571 1.0811 0
M  V30 1136 H 116.656 4.77731 -0.361935 0
M  V30 1137 H 115.02 2.5452 -0.0957873 0
M  V30 1138 H 115.803 2.97646 -1.7106 0
M  V30 1139 N 118.248 0.346503 1.53744 0
M  V30 1140 C 119.494 -0.249473 2.0126 0
M  V30 1141 C 119.827 -1.49965 1.23386 0
M  V30 1142 O 119.102 -1.91811 0.32229 0
M  V30 1143 C 119.385 -0.560643 3.55709 0
M  V30 1144 C 119.238 0.701836 4.44291 0
M  V30 1145 C 120.557 -1.36905 4.18264 0
M  V30 1146 H 117.676 -0.0891987 0.731582 0
M  V30 1147 H 120.318 0.467624 1.84156 0
M  V30 1148 H 118.468 -1.17156 3.70414 0
M  V30 1149 H 120.14 1.33974 4.41417 0
M  V30 1150 H 118.383 1.32612 4.13033 0
M  V30 1151 H 119.054 0.43933 5.50249 0
M  V30 1152 H 121.53 -0.852448 4.07275 0
M  V30 1153 H 120.406 -1.55553 5.26398 0
M  V30 1154 H 120.667 -2.37203 3.73078 0
M  V30 1155 N 119.726 -1.57421 0.075193 0
M  V30 1156 C 120.674 -2.14124 -0.908508 0
M  V30 1157 C 121.668 -1.07898 -1.30592 0
M  V30 1158 O 122.874 -1.26273 -1.28277 0
M  V30 1159 H 119.249 -0.684707 -0.310935 0
M  V30 1160 H 121.22 -2.95634 -0.405374 0
M  V30 1161 C 119.969 -2.72044 -2.16535 0
M  V30 1162 H 119.292 -3.53456 -1.86839 0
M  V30 1163 H 120.732 -3.15311 -2.83469 0
M  V30 1164 C 119.191 -1.66968 -2.92615 0
M  V30 1165 O 119.721 -1.0967 -3.86439 0
M  V30 1166 N 117.927 -1.37923 -2.55784 0
M  V30 1167 H 117.474 -1.84706 -1.79559 0
M  V30 1168 H 117.432 -0.67852 -3.06991 0
M  V30 1169 N 121.204 0.198386 -1.56346 0
M  V30 1170 C 122.134 1.24865 -1.9731 0
M  V30 1171 C 123.115 1.47651 -0.844576 0
M  V30 1172 O 124.3 1.59444 -1.10866 0
M  V30 1173 C 121.43 2.59358 -2.30977 0
M  V30 1174 C 120.384 2.5119 -3.46537 0
M  V30 1175 C 119.71 3.89926 -3.65871 0
M  V30 1176 C 121.01 2.03977 -4.80823 0
M  V30 1177 H 122.704 0.908252 -2.85291 0
M  V30 1178 H 120.25 0.435462 -1.37258 0
M  V30 1179 H 122.203 3.33011 -2.58228 0
M  V30 1180 H 120.927 2.95132 -1.39874 0
M  V30 1181 H 119.586 1.79993 -3.19371 0
M  V30 1182 H 119.234 4.23046 -2.72105 0
M  V30 1183 H 118.934 3.85336 -4.4361 0
M  V30 1184 H 120.458 4.65205 -3.95495 0
M  V30 1185 H 121.872 2.67386 -5.07127 0
M  V30 1186 H 120.269 2.10397 -5.62008 0
M  V30 1187 H 121.339 0.992861 -4.74626 0
M  V30 1188 N 122.682 1.50554 0.465978 0
M  V30 1189 C 123.612 1.72722 1.57128 0
M  V30 1190 C 124.593 0.576294 1.6004 0
M  V30 1191 O 125.778 0.81598 1.76225 0
M  V30 1192 C 122.908 1.82605 2.95419 0
M  V30 1193 C 121.862 2.97835 3.07373 0
M  V30 1194 C 121.188 2.92867 4.47363 0
M  V30 1195 C 122.488 4.38265 2.84114 0
M  V30 1196 H 124.182 2.65267 1.38829 0
M  V30 1197 H 121.728 1.2765 0.666441 0
M  V30 1198 H 123.681 1.96698 3.72677 0
M  V30 1199 H 122.405 0.866858 3.14886 0
M  V30 1200 H 121.064 2.83401 2.3255 0
M  V30 1201 H 120.712 1.94783 4.63755 0
M  V30 1202 H 120.412 3.70227 4.56296 0
M  V30 1203 H 121.936 3.09015 5.26633 0
M  V30 1204 H 123.35 4.53198 3.51118 0
M  V30 1205 H 121.747 5.17115 3.04487 0
M  V30 1206 H 122.817 4.50281 1.7993 0
M  V30 1207 N 124.16 -0.719506 1.40217 0
M  V30 1208 C 125.576 -1.02707 1.22161 0
M  V30 1209 C 125.776 -2.0128 0.0940557 0
M  V30 1210 O 124.832 -2.46452 -0.549318 0
M  V30 1211 C 126.145 -1.57454 2.56181 0
M  V30 1212 C 127.693 -1.69458 2.63159 0
M  V30 1213 C 128.168 -2.27611 3.97438 0
M  V30 1214 N 129.659 -2.35002 3.99159 0
M  V30 1215 C 130.394 -2.80972 4.99842 0
M  V30 1216 N 129.89 -3.26723 6.10921 0
M  V30 1217 N 131.683 -2.80321 4.87213 0
M  V30 1218 H 123.834 -0.0660492 2.12297 0
M  V30 1219 H 126.097 -0.0919077 0.943534 0
M  V30 1220 H 125.803 -0.924873 3.39321 0
M  V30 1221 H 125.677 -2.56036 2.76993 0
M  V30 1222 H 128.064 -2.33543 1.80393 0
M  V30 1223 H 128.145 -0.694867 2.46181 0
M  V30 1224 H 127.789 -1.6415 4.80643 0
M  V30 1225 H 127.719 -3.2829 4.11744 0
M  V30 1226 H 130.21 -2.02685 3.18947 0
M  V30 1227 H 130.523 -3.60355 6.8364 0
M  V30 1228 H 128.868 -3.24692 6.14492 0
M  V30 1229 H 132.059 -2.43912 3.9953 0
M  V30 1230 H 132.232 -3.15831 5.65822 0
M  V30 1231 N 125.638 -1.25649 -0.95132 0
M  V30 1232 C 126.878 -1.11802 -1.71113 0
M  V30 1233 C 127.242 0.334758 -1.89059 0
M  V30 1234 O 128.443 0.595121 -2.62129 0
M  V30 1235 C 126.714 -1.85512 -3.05483 0
M  V30 1236 S 128.273 -1.87597 -3.96677 0
M  V30 1237 H 125.091 -0.399552 -0.588115 0
M  V30 1238 H 127.693 -1.59222 -1.1344 0
M  V30 1239 H 126.397 -2.90299 -2.90094 0
M  V30 1240 H 125.928 -1.38493 -3.68216 0
M  V30 1241 H 127.943 -0.955389 -4.86916 0
M  V30 1242 N 127.117 1.15442 -1.07289 0
M  V30 1243 C 128.049 2.19773 -0.650585 0
M  V30 1244 C 129.062 1.60076 0.296572 0
M  V30 1245 O 130.251 1.78293 0.0859905 0
M  V30 1246 C 127.351 3.38838 0.0650398 0
M  V30 1247 C 126.524 4.2808 -0.898141 0
M  V30 1248 C 125.583 5.2574 -0.219926 0
M  V30 1249 O 124.609 5.62654 -0.860773 0
M  V30 1250 N 125.811 5.71205 1.03466 0
M  V30 1251 H 128.576 2.56622 -1.54808 0
M  V30 1252 H 126.137 1.30551 -0.957494 0
M  V30 1253 H 128.129 4.01222 0.529415 0
M  V30 1254 H 126.699 3.00409 0.864466 0
M  V30 1255 H 125.919 3.62804 -1.54165 0
M  V30 1256 H 127.207 4.84577 -1.5512 0
M  V30 1257 H 126.605 5.43325 1.57526 0
M  V30 1258 H 125.162 6.35633 1.44272 0
M  V30 1259 N 128.595 0.856903 1.32268 0
M  V30 1260 C 129.505 0.306131 2.32594 0
M  V30 1261 C 130.521 -0.577209 1.64147 0
M  V30 1262 O 131.697 -0.477043 1.95669 0
M  V30 1263 C 128.762 -0.494561 3.43154 0
M  V30 1264 C 127.823 0.415186 4.27288 0
M  V30 1265 C 127.056 -0.347387 5.32568 0
M  V30 1266 O 127.279 -1.57708 5.48165 0
M  V30 1267 O 126.213 0.287982 6.01211 0
M  V30 1268 H 130.039 1.13737 2.81598 0
M  V30 1269 H 127.624 0.619902 1.35932 0
M  V30 1270 H 129.506 -0.948944 4.10576 0
M  V30 1271 H 128.181 -1.30257 2.96336 0
M  V30 1272 H 127.088 0.917793 3.62667 0
M  V30 1273 H 128.421 1.18844 4.77637 0
M  V30 1274 N 130.073 -1.45103 0.615059 0
M  V30 1275 C 131.321 -2.01784 0.112955 0
M  V30 1276 C 131.642 -1.48504 -1.26378 0
M  V30 1277 O 130.912 -0.682245 -1.83636 0
M  V30 1278 H 129.492 -0.745993 0.0387668 0
M  V30 1279 H 132.154 -1.77808 0.798141 0
M  V30 1280 H 131.25 -3.12025 0.0684069 0
M  V30 1281 N 131.551 -0.354651 -1.53558 0
M  V30 1282 C 132.962 0.126902 -1.86268 0
M  V30 1283 C 133.313 1.49075 -1.27558 0
M  V30 1284 O 132.438 2.08105 -0.5934 0
M  V30 1285 C 133.033 0.237046 -3.3797 0
M  V30 1286 C 131.592 0.662842 -3.70518 0
M  V30 1287 C 130.739 -0.196652 -2.76602 0
M  V30 1288 H 133.69 -0.573849 -1.47962 0
M  V30 1289 H 133.711 1.06259 -3.65362 0
M  V30 1290 H 133.223 -0.755725 -3.80671 0
M  V30 1291 H 131.324 1.66424 -3.33367 0
M  V30 1292 H 131.437 0.445034 -4.77029 0
M  V30 1293 H 129.801 0.332763 -2.52517 0
M  V30 1294 H 130.584 -1.18676 -3.22135 0
M  V30 1295 N 133.029 1.57378 -0.0835403 0
M  V30 1296 C 134.445 1.57246 0.273109 0
M  V30 1297 C 134.645 1.09385 1.69225 0
M  V30 1298 O 133.701 0.765051 2.40631 0
M  V30 1299 C 135.014 3.00614 0.0720628 0
M  V30 1300 C 136.562 3.12684 0.1407 0
M  V30 1301 C 137.037 4.57989 -0.0322094 0
M  V30 1302 N 138.528 4.63194 0.0230085 0
M  V30 1303 C 139.263 5.73335 -0.0861941 0
M  V30 1304 N 138.759 6.9235 -0.24958 0
M  V30 1305 N 140.552 5.62093 -0.0282886 0
M  V30 1306 H 132.703 1.86801 -1.0109 0
M  V30 1307 H 134.966 0.861687 -0.395222 0
M  V30 1308 H 134.672 3.39786 -0.907662 0
M  V30 1309 H 134.546 3.68193 0.81936 0
M  V30 1310 H 136.933 2.73391 1.11092 0
M  V30 1311 H 137.014 2.47719 -0.637896 0
M  V30 1312 H 136.658 4.97973 -0.999247 0
M  V30 1313 H 136.588 5.21 0.765937 0
M  V30 1314 H 139.079 3.77613 0.14722 0
M  V30 1315 H 139.392 7.72117 -0.324733 0
M  V30 1316 H 137.737 6.94415 -0.285097 0
M  V30 1317 H 140.928 4.67997 0.0981408 0
M  V30 1318 H 141.101 6.47895 -0.116845 0
M  V30 1319 N 134.507 -0.190092 1.56449 0
M  V30 1320 C 135.455 -1.25501 1.95837 0
M  V30 1321 C 136.449 -1.4685 0.844485 0
M  V30 1322 O 137.655 -1.47651 1.02952 0
M  V30 1323 H 134.03 -0.421447 0.622805 0
M  V30 1324 H 136.001 -0.895821 2.84636 0
M  V30 1325 C 134.75 -2.59124 2.31841 0
M  V30 1326 H 134.073 -2.43514 3.17082 0
M  V30 1327 H 135.513 -3.32371 2.6326 0
M  V30 1328 C 133.972 -3.16488 1.15486 0
M  V30 1329 O 134.502 -3.99365 0.432535 0
M  V30 1330 N 132.708 -2.75305 0.930349 0
M  V30 1331 H 132.255 -2.08013 1.51948 0
M  V30 1332 H 132.213 -3.14024 0.153634 0
M  V30 1333 N 135.985 -1.50799 -0.457987 0
M  V30 1334 C 137.225 -1.64088 -1.21879 0
M  V30 1335 C 137.589 -0.339848 -1.88968 0
M  V30 1336 O 138.79 -0.348301 -2.66534 0
M  V30 1337 C 137.061 -2.79726 -2.2246 0
M  V30 1338 S 138.62 -3.13225 -3.07303 0
M  V30 1339 H 135.438 -0.578314 -0.41361 0
M  V30 1340 H 138.04 -1.88632 -0.513645 0
M  V30 1341 H 136.744 -3.72722 -1.71775 0
M  V30 1342 H 136.275 -2.57308 -2.97584 0
M  V30 1343 H 138.29 -2.58062 -4.23814 0
M  V30 1344 N 137.463 0.71206 -1.40597 0
M  V30 1345 C 138.879 1.02058 -1.22704 0
M  V30 1346 C 139.079 2.01228 -0.104729 0
M  V30 1347 O 138.135 2.4674 0.53624 0
M  V30 1348 C 139.448 1.56094 -2.57012 0
M  V30 1349 C 140.996 1.6806 -2.64054 0
M  V30 1350 C 141.471 2.25501 -3.9864 0
M  V30 1351 N 142.962 2.32882 -4.004 0
M  V30 1352 C 143.697 2.78317 -5.01325 0
M  V30 1353 N 143.193 3.23478 -6.12645 0
M  V30 1354 N 144.986 2.77733 -4.88693 0
M  V30 1355 H 137.137 0.0547896 -2.12329 0
M  V30 1356 H 139.4 0.0869027 -0.944008 0
M  V30 1357 H 139.106 0.906865 -3.39807 0
M  V30 1358 H 138.98 2.54564 -2.78347 0
M  V30 1359 H 141.367 2.32583 -1.81629 0
M  V30 1360 H 141.448 0.681802 -2.46546 0
M  V30 1361 H 141.092 1.61598 -4.81506 0
M  V30 1362 H 141.022 3.26102 -4.13479 0
M  V30 1363 H 143.513 2.00991 -3.20017 0
M  V30 1364 H 143.826 3.56725 -6.85542 0
M  V30 1365 H 142.171 3.21429 -6.16205 0
M  V30 1366 H 145.362 2.4179 -4.00818 0
M  V30 1367 H 145.535 3.12826 -5.67489 0
M  V30 1368 N 138.941 1.26152 0.944643 0
M  V30 1369 C 139.851 1.09176 2.07648 0
M  V30 1370 C 140.867 0.0261935 1.7398 0
M  V30 1371 O 142.043 0.229208 2.00091 0
M  V30 1372 C 139.108 0.722915 3.39079 0
M  V30 1373 C 138.169 1.86752 3.86552 0
M  V30 1374 C 137.402 1.51617 5.11711 0
M  V30 1375 O 137.625 0.416331 5.68879 0
M  V30 1376 O 136.559 2.34975 5.54139 0
M  V30 1377 H 140.385 2.0412 2.24875 0
M  V30 1378 H 137.97 1.05182 1.061 0
M  V30 1379 H 139.852 0.529787 4.18056 0
M  V30 1380 H 138.527 -0.197159 3.23099 0
M  V30 1381 H 137.434 2.11558 3.08535 0
M  V30 1382 H 138.767 2.76719 4.07047 0
M  V30 1383 N 140.419 -1.14872 1.07899 0
M  V30 1384 C 141.349 -2.2193 0.725887 0
M  V30 1385 C 142.33 -1.67622 -0.28927 0
M  V30 1386 O 143.515 -1.93533 -0.160787 0
M  V30 1387 C 140.645 -3.47061 0.128856 0
M  V30 1388 C 139.599 -4.14363 1.07178 0
M  V30 1389 C 138.925 -5.33636 0.337229 0
M  V30 1390 C 140.225 -4.63492 2.40775 0
M  V30 1391 H 141.919 -2.51724 1.62097 0
M  V30 1392 H 139.465 -1.20991 0.780838 0
M  V30 1393 H 141.418 -4.21199 -0.130147 0
M  V30 1394 H 140.142 -3.16617 -0.80134 0
M  V30 1395 H 138.801 -3.42173 1.3158 0
M  V30 1396 H 138.449 -4.99449 -0.596606 0
M  V30 1397 H 138.149 -5.79609 0.965788 0
M  V30 1398 H 139.673 -6.10539 0.0861567 0
M  V30 1399 H 141.087 -5.2913 2.20669 0
M  V30 1400 H 139.484 -5.20148 2.99276 0
M  V30 1401 H 140.554 -3.78834 3.02676 0
M  V30 1402 N 141.898 -0.863906 -1.31812 0
M  V30 1403 C 142.828 -0.330843 -2.31144 0
M  V30 1404 C 143.809 0.575005 -1.60087 0
M  V30 1405 O 144.994 0.493304 -1.8783 0
M  V30 1406 C 142.124 0.47374 -3.44054 0
M  V30 1407 C 141.078 -0.338481 -4.26659 0
M  V30 1408 C 140.404 0.591412 -5.31419 0
M  V30 1409 C 141.704 -1.56926 -4.98168 0
M  V30 1410 H 143.398 -1.16086 -2.75979 0
M  V30 1411 H 140.944 -0.559657 -1.32679 0
M  V30 1412 H 142.897 0.857143 -4.12591 0
M  V30 1413 H 141.621 1.33721 -2.9797 0
M  V30 1414 H 140.28 -0.703754 -3.59782 0
M  V30 1415 H 139.928 1.45199 -4.81587 0
M  V30 1416 H 139.628 0.0519022 -5.87577 0
M  V30 1417 H 141.152 0.97179 -6.02817 0
M  V30 1418 H 142.566 -1.25764 -5.59336 0
M  V30 1419 H 140.963 -2.04739 -5.64094 0
M  V30 1420 H 142.033 -2.32544 -4.25501 0
M  V30 1421 N 143.376 1.44774 -0.622745 0
M  V30 1422 C 144.601 2.06999 -0.128968 0
M  V30 1423 C 145.026 1.4617 1.1839 0
M  V30 1424 O 144.384 0.560007 1.72434 0
M  V30 1425 C 144.432 3.60595 -0.0188351 0
M  V30 1426 O 143.536 3.99398 1.02739 0
M  V30 1427 H 142.877 0.659047 -0.0809544 0
M  V30 1428 H 145.407 1.85784 -0.85705 0
M  V30 1429 H 145.417 4.07627 0.174476 0
M  V30 1430 H 144.092 4.04252 -0.977384 0
M  V30 1431 H 142.669 3.64011 0.809326 0
M  V30 1432 N 144.854 0.36279 1.53368 0
M  V30 1433 C 145.786 -0.519668 2.23231 0
M  V30 1434 C 146.799 -1.04844 1.24546 0
M  V30 1435 O 147.988 -0.955296 1.50786 0
M  V30 1436 C 145.088 -1.72995 2.9142 0
M  V30 1437 C 144.261 -1.33316 4.16588 0
M  V30 1438 C 143.32 -2.40521 4.68013 0
M  V30 1439 O 142.346 -2.03027 5.3176 0
M  V30 1440 N 143.548 -3.72065 4.45587 0
M  V30 1441 H 146.313 0.078751 2.99597 0
M  V30 1442 H 143.874 0.187833 1.60807 0
M  V30 1443 H 145.866 -2.44184 3.22733 0
M  V30 1444 H 144.436 -2.2353 2.18525 0
M  V30 1445 H 143.656 -0.451236 3.91609 0
M  V30 1446 H 144.944 -1.04432 4.97967 0
M  V30 1447 H 144.342 -4.05304 3.94646 0
M  V30 1448 H 142.899 -4.39366 4.81457 0
M  V30 1449 N 146.332 -1.57332 0.0918853 0
M  V30 1450 C 147.58 -1.93853 -0.571446 0
M  V30 1451 C 147.901 -0.974212 -1.6892 0
M  V30 1452 O 147.171 -0.0257254 -1.95883 0
M  V30 1453 H 145.751 -0.715666 -0.214082 0
M  V30 1454 H 148.413 -1.94287 0.154464 0
M  V30 1455 H 147.509 -2.96191 -0.983729 0
M  V30 1456 N 147.81 0.181792 -1.56548 0
M  V30 1457 C 148.773 1.20894 -1.94724 0
M  V30 1458 C 149.773 1.37738 -0.829747 0
M  V30 1459 O 150.963 1.35323 -1.09697 0
M  V30 1460 C 148.095 2.57593 -2.23291 0
M  V30 1461 H 149.288 0.882275 -2.86629 0
M  V30 1462 H 146.841 0.423838 -1.50444 0
M  V30 1463 H 147.576 2.95291 -1.34067 0
M  V30 1464 H 147.361 2.46735 -3.04736 0
M  V30 1465 H 148.851 3.31637 -2.53785 0
M  V30 1466 N 149.288 1.51039 0.449983 0
M  V30 1467 C 150.516 1.66869 1.2232 0
M  V30 1468 C 150.931 0.360727 1.85322 0
M  V30 1469 O 150.288 -0.659531 1.70166 0
M  V30 1470 C 150.339 2.77524 2.31652 0
M  V30 1471 O 150.06 4.03252 1.7123 0
M  V30 1472 C 151.561 3.04512 3.2216 0
M  V30 1473 H 148.781 0.560326 0.369155 0
M  V30 1474 H 151.325 1.97385 0.534719 0
M  V30 1475 H 149.48 2.49642 2.96239 0
M  V30 1476 H 149.894 4.64609 2.43389 0
M  V30 1477 H 151.368 3.85551 3.95038 0
M  V30 1478 H 151.845 2.16415 3.8218 0
M  V30 1479 H 152.451 3.34005 2.63288 0
M  V30 1480 N 150.766 -0.704594 1.40972 0
M  V30 1481 C 151.696 -1.83124 1.44872 0
M  V30 1482 C 152.677 -1.67281 0.30838 0
M  V30 1483 O 153.862 -1.87149 0.518556 0
M  V30 1484 C 150.992 -3.21181 1.32136 0
M  V30 1485 C 149.946 -3.51714 2.43888 0
M  V30 1486 C 149.272 -4.89032 2.16222 0
M  V30 1487 C 150.572 -3.516 3.86232 0
M  V30 1488 H 152.266 -1.80117 2.39161 0
M  V30 1489 H 149.812 -0.865145 1.15114 0
M  V30 1490 H 151.765 -3.99702 1.33479 0
M  V30 1491 H 150.489 -3.24791 0.343279 0
M  V30 1492 H 149.148 -2.75539 2.41813 0
M  V30 1493 H 148.796 -4.89256 1.16778 0
M  V30 1494 H 148.496 -5.10426 2.911 0
M  V30 1495 H 150.02 -5.69873 2.19265 0
M  V30 1496 H 151.434 -4.2014 3.9007 0
M  V30 1497 H 149.831 -3.84523 4.60719 0
M  V30 1498 H 150.901 -2.50757 4.15029 0
M  V30 1499 N 152.244 -1.26651 -0.937939 0
M  V30 1500 C 153.469 -1.15279 -1.72411 0
M  V30 1501 C 153.894 0.287866 -1.85884 0
M  V30 1502 O 153.252 1.20855 -1.35143 0
M  V30 1503 C 153.3 -1.83028 -3.10698 0
M  V30 1504 O 152.404 -1.12128 -3.96864 0
M  V30 1505 H 151.745 -0.401504 -0.528858 0
M  V30 1506 H 154.275 -1.67531 -1.1745 0
M  V30 1507 H 154.285 -1.89981 -3.6107 0
M  V30 1508 H 152.96 -2.87833 -3.00208 0
M  V30 1509 H 151.537 -1.13173 -3.55312 0
M  V30 1510 N 153.722 1.14298 -1.08507 0
M  V30 1511 C 154.97 1.84993 -0.813763 0
M  V30 1512 C 155.291 1.83405 0.662393 0
M  V30 1513 O 154.561 1.28319 1.48024 0
M  V30 1514 H 153.141 0.684966 -0.298045 0
M  V30 1515 H 155.803 1.385 -1.37126 0
M  V30 1516 H 154.899 2.89788 -1.15884 0
M  V30 1517 N 155.201 0.870884 1.31352 0
M  V30 1518 C 156.447 0.492314 1.97352 0
M  V30 1519 C 156.802 -0.945174 1.67583 0
M  V30 1520 O 156.095 -1.65674 0.962423 0
M  V30 1521 C 156.289 0.687157 3.50732 0
M  V30 1522 C 156.118 2.14203 3.95407 0
M  V30 1523 C 154.888 2.78382 4.21701 0
M  V30 1524 C 157.086 3.1144 4.09279 0
M  V30 1525 N 155.068 4.14611 4.52737 0
M  V30 1526 C 156.439 4.32702 4.44037 0
M  V30 1527 C 158.494 3.07418 3.91661 0
M  V30 1528 C 157.197 5.50463 4.63015 0
M  V30 1529 C 159.223 4.24438 4.11833 0
M  V30 1530 C 158.585 5.44463 4.46923 0
M  V30 1531 H 154.684 0.229206 0.747655 0
M  V30 1532 H 157.268 1.12568 1.5886 0
M  V30 1533 H 155.439 0.083384 3.8831 0
M  V30 1534 H 157.171 0.276883 4.03752 0
M  V30 1535 H 153.926 2.29326 4.14375 0
M  V30 1536 H 154.35 4.84928 4.72413 0
M  V30 1537 H 158.992 2.15732 3.6362 0
M  V30 1538 H 156.71 6.42666 4.89904 0
M  V30 1539 H 160.296 4.2278 3.99685 0
M  V30 1540 H 159.176 6.33504 4.62214 0
M  V30 1541 N 156.679 -1.44442 0.630414 0
M  V30 1542 C 157.909 -2.06115 0.141465 0
M  V30 1543 C 158.317 -1.47179 -1.1889 0
M  V30 1544 O 157.66 -0.588873 -1.74006 0
M  V30 1545 C 157.722 -3.59467 -0.0484355 0
M  V30 1546 C 157.386 -4.40864 1.20366 0
M  V30 1547 C 158.383 -4.74391 2.12719 0
M  V30 1548 C 156.068 -4.8125 1.43887 0
M  V30 1549 C 158.062 -5.47186 3.26904 0
M  V30 1550 C 155.749 -5.53795 2.5837 0
M  V30 1551 C 156.747 -5.86682 3.49705 0
M  V30 1552 O 156.435 -6.57749 4.62191 0
M  V30 1553 H 156.167 -0.671648 0.0765792 0
M  V30 1554 H 158.721 -1.86312 0.864695 0
M  V30 1555 H 156.951 -3.77758 -0.826803 0
M  V30 1556 H 158.64 -4.02909 -0.491849 0
M  V30 1557 H 159.406 -4.43728 1.95781 0
M  V30 1558 H 155.285 -4.55073 0.736853 0
M  V30 1559 H 158.829 -5.72773 3.98217 0
M  V30 1560 H 154.726 -5.83872 2.75251 0
M  V30 1561 H 155.494 -6.76217 4.61164 0
M  V30 1562 N 158.157 -0.370918 -1.53173 0
M  V30 1563 C 159.107 0.489588 -2.22681 0
M  V30 1564 C 160.091 1.04442 -1.22395 0
M  V30 1565 O 161.283 0.973578 -1.47819 0
M  V30 1566 C 158.412 1.626 -3.02351 0
M  V30 1567 C 157.498 1.08379 -4.10018 0
M  V30 1568 N 157.889 0.265004 -5.05105 0
M  V30 1569 C 156.187 1.35809 -4.2482 0
M  V30 1570 C 156.888 -0.0324755 -5.81691 0
M  V30 1571 N 155.864 0.566581 -5.40639 0
M  V30 1572 H 159.666 -0.142729 -2.93553 0
M  V30 1573 H 157.18 -0.179221 -1.61408 0
M  V30 1574 H 159.177 2.2547 -3.50669 0
M  V30 1575 H 157.837 2.26132 -2.33011 0
M  V30 1576 H 158.848 -0.0962352 -5.17811 0
M  V30 1577 H 155.525 1.9958 -3.66707 0
M  V30 1578 H 156.915 -0.69473 -6.68299 0
M  V30 1579 N 159.635 1.57281 -0.100228 0
M  V30 1580 C 160.565 2.17328 0.853857 0
M  V30 1581 C 161.546 1.10804 1.2906 0
M  V30 1582 O 162.731 1.38963 1.35657 0
M  V30 1583 C 159.861 2.75772 2.11109 0
M  V30 1584 C 158.815 3.87713 1.81279 0
M  V30 1585 C 158.141 4.32882 3.13874 0
M  V30 1586 C 159.441 5.10677 1.09574 0
M  V30 1587 H 161.135 2.97305 0.353545 0
M  V30 1588 H 158.681 1.43009 0.168612 0
M  V30 1589 H 160.634 3.16433 2.78296 0
M  V30 1590 H 159.358 1.93057 2.63432 0
M  V30 1591 H 158.017 3.476 1.16489 0
M  V30 1592 H 157.665 3.47051 3.64095 0
M  V30 1593 H 157.365 5.08358 2.94696 0
M  V30 1594 H 158.889 4.7618 3.82211 0
M  V30 1595 H 160.303 5.48474 1.66879 0
M  V30 1596 H 158.7 5.91615 1.00557 0
M  V30 1597 H 159.77 4.84835 0.0793299 0
M  V30 1598 N 161.113 -0.173488 1.56642 0
M  V30 1599 C 162.353 -0.896984 1.83667 0
M  V30 1600 C 162.717 -1.79523 0.680842 0
M  V30 1601 O 163.918 -2.55616 0.831488 0
M  V30 1602 C 162.189 -1.67351 3.15798 0
M  V30 1603 S 163.748 -2.44607 3.64298 0
M  V30 1604 H 160.566 -0.300464 0.644393 0
M  V30 1605 H 163.168 -0.158775 1.94854 0
M  V30 1606 H 161.872 -1.00462 3.97914 0
M  V30 1607 H 161.403 -2.45313 3.07546 0
M  V30 1608 H 163.418 -3.69261 3.31452 0
M  V30 1609 N 162.591 -1.51276 -0.441967 0
M  V30 1610 C 163.521 -1.752 -1.54361 0
M  V30 1611 C 164.502 -0.601682 -1.59103 0
M  V30 1612 O 165.687 -0.843913 -1.74905 0
M  V30 1613 C 162.817 -1.87282 -2.92477 0
M  V30 1614 C 161.771 -3.02687 -3.02596 0
M  V30 1615 C 161.097 -2.99947 -4.42647 0
M  V30 1616 C 162.397 -4.4273 -2.77106 0
M  V30 1617 H 164.091 -2.67442 -1.34592 0
M  V30 1618 H 161.637 -1.28694 -0.646048 0
M  V30 1619 H 163.59 -2.02602 -3.695 0
M  V30 1620 H 162.314 -0.916844 -3.13467 0
M  V30 1621 H 160.973 -2.87065 -2.28012 0
M  V30 1622 H 160.621 -2.02136 -4.60597 0
M  V30 1623 H 160.321 -3.77439 -4.50348 0
M  V30 1624 H 161.845 -3.17354 -5.2165 0
M  V30 1625 H 163.259 -4.58727 -3.43864 0
M  V30 1626 H 161.656 -5.21893 -2.96222 0
M  V30 1627 H 162.726 -4.53087 -1.72744 0
M  V30 1628 N 164.069 0.697108 -1.41344 0
M  V30 1629 C 165.48 1.27697 -1.36199 0
M  V30 1630 C 165.831 1.9615 -0.0443463 0
M  V30 1631 O 164.956 1.98689 0.857419 0
M  V30 1632 C 165.551 2.32223 -2.46694 0
M  V30 1633 C 164.11 2.8579 -2.44952 0
M  V30 1634 C 163.257 1.59807 -2.26621 0
M  V30 1635 H 166.208 0.491968 -1.50882 0
M  V30 1636 H 166.229 3.1348 -2.15664 0
M  V30 1637 H 165.741 1.82373 -3.42581 0
M  V30 1638 H 163.842 3.3982 -1.52817 0
M  V30 1639 H 163.955 3.36325 -3.41207 0
M  V30 1640 H 162.319 1.8556 -1.7447 0
M  V30 1641 H 163.102 1.11956 -3.24532 0
M  V30 1642 N 165.547 1.27147 0.931209 0
M  V30 1643 C 166.457 1.11372 2.06478 0
M  V30 1644 C 167.473 0.044645 1.73943 0
M  V30 1645 O 168.649 0.250417 1.99837 0
M  V30 1646 C 165.714 0.758838 3.38294 0
M  V30 1647 C 164.775 1.90841 3.84549 0
M  V30 1648 C 164.008 1.57036 5.10074 0
M  V30 1649 O 164.231 0.476645 5.68405 0
M  V30 1650 O 163.165 2.40839 5.51616 0
M  V30 1651 H 166.991 2.06493 2.22698 0
M  V30 1652 H 164.576 1.06301 1.04978 0
M  V30 1653 H 166.458 0.574098 4.17471 0
M  V30 1654 H 165.133 -0.162879 3.2329 0
M  V30 1655 H 164.04 2.14819 3.06274 0
M  V30 1656 H 165.373 2.81021 4.04089 0
M  V30 1657 N 167.025 -1.13721 1.09112 0
M  V30 1658 C 168.273 -1.84559 0.823562 0
M  V30 1659 C 168.594 -1.83754 -0.652658 0
M  V30 1660 O 167.864 -1.29102 -1.47342 0
M  V30 1661 H 166.444 -0.683376 0.301673 0
M  V30 1662 H 169.106 -1.37771 1.37859 0
M  V30 1663 H 168.202 -2.8917 1.17419 0
M  V30 1664 N 168.503 -0.877838 -1.30888 0
M  V30 1665 C 169.919 -0.570844 -1.49042 0
M  V30 1666 C 170.119 0.893159 -1.80624 0
M  V30 1667 O 169.175 1.67485 -1.88958 0
M  V30 1668 C 170.488 -1.47784 -2.61878 0
M  V30 1669 C 172.036 -1.48071 -2.75761 0
M  V30 1670 C 172.511 -2.37347 -3.91702 0
M  V30 1671 N 174.002 -2.35271 -3.99001 0
M  V30 1672 C 174.737 -3.01063 -4.88004 0
M  V30 1673 N 174.233 -3.76055 -5.81854 0
M  V30 1674 N 176.026 -2.90332 -4.81315 0
M  V30 1675 H 168.177 -1.82502 -1.0866 0
M  V30 1676 H 170.44 -0.780797 -0.537644 0
M  V30 1677 H 170.146 -2.51993 -2.45341 0
M  V30 1678 H 170.02 -1.18215 -3.58197 0
M  V30 1679 H 172.407 -0.446166 -2.91708 0
M  V30 1680 H 172.488 -1.81668 -1.80085 0
M  V30 1681 H 172.132 -3.40883 -3.76512 0
M  V30 1682 H 172.062 -2.01071 -4.86701 0
M  V30 1683 H 174.553 -1.80768 -3.3186 0
M  V30 1684 H 174.866 -4.23366 -6.46514 0
M  V30 1685 H 173.211 -3.80163 -5.81808 0
M  V30 1686 H 176.402 -2.31278 -4.06974 0
M  V30 1687 H 176.575 -3.41885 -5.50471 0
M  V30 1688 N 169.982 1.44106 -0.638065 0
M  V30 1689 C 170.945 2.29138 0.0531013 0
M  V30 1690 C 171.945 1.41409 0.765506 0
M  V30 1691 O 173.135 1.63206 0.609046 0
M  V30 1692 C 170.267 3.23144 1.08584 0
M  V30 1693 H 171.46 2.91739 -0.694883 0
M  V30 1694 H 169.013 1.51134 -0.398538 0
M  V30 1695 H 169.748 2.65408 1.86357 0
M  V30 1696 H 169.533 3.87804 0.578852 0
M  V30 1697 H 171.023 3.87004 1.56899 0
M  V30 1698 N 171.46 0.379036 1.52974 0
M  V30 1699 C 172.39 -0.452706 2.29069 0
M  V30 1700 C 173.371 -1.07237 1.32039 0
M  V30 1701 O 174.556 -1.08708 1.60923 0
M  V30 1702 C 171.686 -1.5856 3.08992 0
M  V30 1703 C 170.64 -1.0925 4.13822 0
M  V30 1704 C 169.966 -2.31668 4.81907 0
M  V30 1705 C 171.266 -0.167702 5.22031 0
M  V30 1706 H 172.96 0.182181 2.98845 0
M  V30 1707 H 170.506 0.0890592 1.43724 0
M  V30 1708 H 172.459 -2.1742 3.6098 0
M  V30 1709 H 171.183 -2.24792 2.36931 0
M  V30 1710 H 169.842 -0.526494 3.628 0
M  V30 1711 H 169.49 -2.96386 4.06404 0
M  V30 1712 H 169.19 -1.9934 5.52754 0
M  V30 1713 H 170.714 -2.91189 5.36695 0
M  V30 1714 H 172.128 -0.664186 5.6944 0
M  V30 1715 H 170.525 0.0653265 6.00064 0
M  V30 1716 H 171.595 0.786347 4.78482 0
M  V30 1717 N 172.938 -1.57226 0.108567 0
M  V30 1718 C 174.349 -1.8195 -0.418464 0
M  V30 1719 C 174.7 -1.02508 -1.67292 0
M  V30 1720 O 173.825 -0.258496 -2.14851 0
M  V30 1721 C 174.42 -3.30028 -0.765979 0
M  V30 1722 C 172.979 -3.55469 -1.23769 0
M  V30 1723 C 172.126 -2.7625 -0.241106 0
M  V30 1724 H 175.077 -1.55149 0.33384 0
M  V30 1725 H 175.098 -3.44086 -1.62434 0
M  V30 1726 H 174.61 -3.87821 0.147219 0
M  V30 1727 H 172.711 -3.03022 -2.16814 0
M  V30 1728 H 172.824 -4.6408 -1.19022 0
M  V30 1729 H 171.188 -2.44133 -0.72602 0
M  V30 1730 H 171.971 -3.36797 0.665007 0
M  V30 1731 N 174.416 0.165178 -1.56732 0
M  V30 1732 C 175.662 0.882112 -1.82611 0
M  V30 1733 C 175.995 1.81628 -0.687378 0
M  V30 1734 O 175.27 1.92009 0.310267 0
M  V30 1735 C 175.553 1.67245 -3.18906 0
M  V30 1736 C 175.406 0.760987 -4.43316 0
M  V30 1737 C 176.725 2.63884 -3.52212 0
M  V30 1738 H 173.844 0.319242 -0.664269 0
M  V30 1739 H 176.486 0.148052 -1.89422 0
M  V30 1740 H 174.636 2.29824 -3.1323 0
M  V30 1741 H 176.308 0.147596 -4.61064 0
M  V30 1742 H 174.551 0.0694102 -4.33744 0
M  V30 1743 H 175.222 1.34962 -5.35247 0
M  V30 1744 H 177.698 2.11429 -3.58381 0
M  V30 1745 H 176.574 3.16245 -4.48643 0
M  V30 1746 H 176.835 3.44377 -2.77231 0
M  V30 1747 N 175.894 1.51508 0.433938 0
M  V30 1748 C 177.141 1.64345 1.18309 0
M  V30 1749 C 177.469 0.361315 1.91115 0
M  V30 1750 O 176.724 -0.654753 1.84422 0
M  V30 1751 C 177.023 2.79928 2.22205 0
M  V30 1752 C 176.689 4.19078 1.66387 0
M  V30 1753 C 175.351 4.56932 1.50887 0
M  V30 1754 C 177.703 5.05894 1.25381 0
M  V30 1755 C 175.031 5.79305 0.928608 0
M  V30 1756 C 177.383 6.2885 0.687823 0
M  V30 1757 C 176.047 6.65473 0.519755 0
M  V30 1758 H 175.317 0.601381 0.432923 0
M  V30 1759 H 177.964 1.85549 0.473676 0
M  V30 1760 H 176.269 2.52959 2.99197 0
M  V30 1761 H 177.966 2.87059 2.79997 0
M  V30 1762 H 174.556 3.89234 1.79428 0
M  V30 1763 H 178.74 4.77253 1.36175 0
M  V30 1764 H 173.996 6.06324 0.786186 0
M  V30 1765 H 178.17 6.95461 0.361581 0
M  V30 1766 H 175.797 7.6017 0.0679979 0
M  V30 1767 N 177.372 -0.689602 1.41712 0
M  V30 1768 C 178.612 -1.46184 1.42862 0
M  V30 1769 C 178.976 -1.91962 0.0382204 0
M  V30 1770 O 180.177 -2.68694 -0.0755019 0
M  V30 1771 C 178.448 -2.6371 2.4123 0
M  V30 1772 S 180.007 -3.52768 2.6096 0
M  V30 1773 H 176.825 -0.49947 0.506015 0
M  V30 1774 H 179.427 -0.804107 1.78198 0
M  V30 1775 H 178.131 -2.28293 3.41044 0
M  V30 1776 H 177.662 -3.3437 2.07269 0
M  V30 1777 H 179.677 -4.59146 1.88148 0
M  V30 1778 N 178.85 -1.27639 -0.924453 0
M  V30 1779 C 180.127 -1.04887 -1.651 0
M  V30 1780 C 180.507 0.415327 -2.06974 0
M  V30 1781 O 179.855 1.39923 -1.80648 0
M  V30 1782 C 180.065 -2.01348 -2.85061 0
M  V30 1783 C 181.413 -2.30899 -3.56329 0
M  V30 1784 O 182.437 -1.99348 -2.95193 0
M  V30 1785 O 181.296 -2.84699 -4.66485 0
M  V30 1786 H 178.39 -0.400083 -0.723784 0
M  V30 1787 H 180.936 -1.38916 -0.974703 0
M  V30 1788 H 179.708 -3.0008 -2.51133 0
M  V30 1789 H 179.331 -1.679 -3.6041 0
M  V30 1790 N 180.328 1.1314 -1.09713 0
M  V30 1791 C 181.261 2.17735 -0.683137 0
M  V30 1792 C 182.239 1.59582 0.311841 0
M  V30 1793 O 183.423 1.87298 0.212514 0
M  V30 1794 C 180.55 3.38699 -0.00684324 0
M  V30 1795 C 179.596 4.1546 -0.964102 0
M  V30 1796 S 180.429 4.74733 -2.47767 0
M  V30 1797 C 181.585 5.9904 -1.81387 0
M  V30 1798 H 181.818 2.52515 -1.56918 0
M  V30 1799 H 179.351 1.24484 -0.913404 0
M  V30 1800 H 181.309 4.08765 0.377044 0
M  V30 1801 H 179.97 3.02214 0.85589 0
M  V30 1802 H 179.163 5.02093 -0.43803 0
M  V30 1803 H 178.765 3.51066 -1.28953 0
M  V30 1804 H 181.057 6.67846 -1.13967 0
M  V30 1805 H 182 6.56261 -2.65947 0
M  V30 1806 H 182.408 5.4976 -1.28155 0
M  V30 1807 N 181.806 0.884767 1.30421 0
M  V30 1808 C 183.083 0.423185 1.90967 0
M  V30 1809 C 183.463 -1.09605 1.80416 0
M  V30 1810 O 182.811 -1.93126 1.22125 0
M  V30 1811 C 183.021 0.921056 3.36627 0
M  V30 1812 C 184.369 0.955903 4.137 0
M  V30 1813 O 185.393 0.867706 3.4547 0
M  V30 1814 O 184.252 1.08614 5.35598 0
M  V30 1815 H 181.346 0.129369 0.816819 0
M  V30 1816 H 183.892 0.973653 1.3899 0
M  V30 1817 H 182.664 1.96489 3.3839 0
M  V30 1818 H 182.287 0.349741 3.96059 0
M  V30 1819 N 183.284 -1.43765 0.645699 0
M  V30 1820 C 184.512 -2.06253 0.163556 0
M  V30 1821 C 184.927 -1.48352 -1.16778 0
M  V30 1822 O 184.284 -0.611932 -1.71935 0
M  V30 1823 C 184.335 -3.61453 0.0583186 0
M  V30 1824 O 184.056 -4.172 1.33702 0
M  V30 1825 C 185.557 -4.41002 -0.450795 0
M  V30 1826 H 182.777 -0.665413 0.0864077 0
M  V30 1827 H 185.321 -1.84396 0.884222 0
M  V30 1828 H 183.476 -3.82522 -0.612865 0
M  V30 1829 H 183.89 -5.10791 1.19131 0
M  V30 1830 H 185.364 -5.49966 -0.473403 0
M  V30 1831 H 185.841 -4.13488 -1.48068 0
M  V30 1832 H 186.447 -4.24886 0.187637 0
M  V30 1833 N 184.763 -0.387143 -1.52771 0
M  V30 1834 C 185.673 0.456442 -2.30117 0
M  V30 1835 C 186.689 1.07342 -1.36944 0
M  V30 1836 O 187.865 1.07971 -1.70013 0
M  V30 1837 C 184.93 1.56957 -3.09136 0
M  V30 1838 C 183.991 0.977916 -4.18014 0
M  V30 1839 C 183.224 2.038 -4.93256 0
M  V30 1840 O 183.447 3.25271 -4.68567 0
M  V30 1841 O 182.381 1.6565 -5.78657 0
M  V30 1842 H 186.207 -0.17359 -3.03203 0
M  V30 1843 H 183.792 -0.150919 -1.48636 0
M  V30 1844 H 185.674 2.21628 -3.58412 0
M  V30 1845 H 184.349 2.18461 -2.38865 0
M  V30 1846 H 183.256 0.294525 -3.72939 0
M  V30 1847 H 184.589 0.407128 -4.90513 0
M  V30 1848 N 186.241 1.57166 -0.116904 0
M  V30 1849 C 187.489 1.94737 0.540533 0
M  V30 1850 C 187.81 1.00096 1.67349 0
M  V30 1851 O 187.08 0.0568854 1.95817 0
M  V30 1852 H 185.66 0.718981 0.202669 0
M  V30 1853 H 188.322 1.94017 -0.185353 0
M  V30 1854 H 187.418 2.97719 0.936483 0
M  V30 1855 N 187.719 -0.156864 1.56817 0
M  V30 1856 C 188.967 -0.869404 1.82444 0
M  V30 1857 C 189.288 -1.82147 0.69623 0
M  V30 1858 O 188.558 -1.93847 -0.28287 0
M  V30 1859 H 187.138 -0.324043 0.673056 0
M  V30 1860 H 189.8 -0.153224 1.94297 0
M  V30 1861 H 188.896 -1.43761 2.77019 0
M  V30 1862 N 189.197 -1.51736 -0.425897 0
M  V30 1863 C 190.445 -1.64644 -1.17204 0
M  V30 1864 C 190.766 -0.370486 -1.91448 0
M  V30 1865 O 190.036 0.614088 -1.86026 0
M  V30 1866 H 188.616 -0.606819 -0.435638 0
M  V30 1867 H 191.278 -1.88713 -0.487177 0
M  V30 1868 H 190.374 -2.47958 -1.89534 0
M  V30 1869 N 190.675 0.682077 -1.42076 0
M  V30 1870 C 191.921 1.44283 -1.43366 0
M  V30 1871 C 192.276 1.92344 -0.0465775 0
M  V30 1872 O 191.569 1.67517 0.929973 0
M  V30 1873 C 191.763 2.66036 -2.38662 0
M  V30 1874 C 191.592 2.29889 -3.86499 0
M  V30 1875 C 190.362 2.19599 -4.55087 0
M  V30 1876 C 192.56 1.91999 -4.77117 0
M  V30 1877 N 190.542 1.76478 -5.87987 0
M  V30 1878 C 191.913 1.59741 -5.99068 0
M  V30 1879 C 193.968 1.78927 -4.64639 0
M  V30 1880 C 192.671 1.15723 -7.0993 0
M  V30 1881 C 194.697 1.36314 -5.75476 0
M  V30 1882 C 194.059 1.04975 -6.96534 0
M  V30 1883 H 190.158 0.524739 -0.579805 0
M  V30 1884 H 192.742 0.787834 -1.78048 0
M  V30 1885 H 190.913 3.29237 -2.06053 0
M  V30 1886 H 192.645 3.32588 -2.30581 0
M  V30 1887 H 189.4 2.38433 -4.09202 0
M  V30 1888 H 189.824 1.57362 -6.58458 0
M  V30 1889 H 194.466 2.01805 -3.7153 0
M  V30 1890 H 192.184 0.91591 -8.02893 0
M  V30 1891 H 195.77 1.26731 -5.6783 0
M  V30 1892 H 194.65 0.725017 -7.80841 0
M  V30 1893 N 192.153 1.28127 0.917671 0
M  V30 1894 C 193.083 1.14248 2.03641 0
M  V30 1895 C 194.064 0.0412748 1.7005 0
M  V30 1896 O 195.249 0.217566 1.92977 0
M  V30 1897 C 192.379 0.799431 3.37974 0
M  V30 1898 C 191.333 1.85497 3.85713 0
M  V30 1899 C 190.659 1.36565 5.16966 0
M  V30 1900 C 191.959 3.26085 4.08002 0
M  V30 1901 H 193.653 2.07835 2.15511 0
M  V30 1902 H 191.199 1.00064 1.03553 0
M  V30 1903 H 193.152 0.689114 4.15727 0
M  V30 1904 H 191.876 -0.172145 3.26146 0
M  V30 1905 H 190.535 1.95437 3.10161 0
M  V30 1906 H 190.183 0.383253 5.01538 0
M  V30 1907 H 189.883 2.07143 5.49878 0
M  V30 1908 H 191.407 1.26848 5.97279 0
M  V30 1909 H 192.821 3.19089 4.76293 0
M  V30 1910 H 191.218 3.94462 4.52238 0
M  V30 1911 H 192.288 3.70394 3.12948 0
M  V30 1912 N 193.631 -1.12557 1.10312 0
M  V30 1913 C 194.877 -1.84311 0.846011 0
M  V30 1914 C 195.21 -1.83805 -0.626859 0
M  V30 1915 O 194.485 -1.28268 -1.46211 0
M  V30 1916 C 194.768 -3.32048 1.39341 0
M  V30 1917 C 194.621 -3.41016 2.93305 0
M  V30 1918 C 195.94 -4.27764 1.03468 0
M  V30 1919 H 193.059 -0.669192 0.30879 0
M  V30 1920 H 195.701 -1.32057 1.36605 0
M  V30 1921 H 193.851 -3.76678 0.951087 0
M  V30 1922 H 195.523 -3.05031 3.46055 0
M  V30 1923 H 193.766 -2.81603 3.29973 0
M  V30 1924 H 194.437 -4.44948 3.26689 0
M  V30 1925 H 196.913 -3.91253 1.41633 0
M  V30 1926 H 195.789 -5.29549 1.44463 0
M  V30 1927 H 196.05 -4.42064 -0.0560404 0
M  V30 1928 N 195.109 -0.891671 -1.2995 0
M  V30 1929 C 196.356 -0.513501 -1.95881 0
M  V30 1930 C 196.684 0.938655 -1.70351 0
M  V30 1931 O 195.939 1.67936 -1.00478 0
M  V30 1932 C 196.238 -0.742868 -3.49594 0
M  V30 1933 C 195.904 -2.17114 -3.95186 0
M  V30 1934 C 194.566 -2.56169 -4.07346 0
M  V30 1935 C 196.918 -3.10162 -4.18866 0
M  V30 1936 C 194.246 -3.87469 -4.4055 0
M  V30 1937 C 196.598 -4.41001 -4.53542 0
M  V30 1938 C 195.262 -4.79941 -4.63911 0
M  V30 1939 H 194.532 -0.187903 -0.71678 0
M  V30 1940 H 197.179 -1.1288 -1.54694 0
M  V30 1941 H 195.484 -0.044586 -3.91775 0
M  V30 1942 H 197.181 -0.429767 -3.9869 0
M  V30 1943 H 193.771 -1.85801 -3.86233 0
M  V30 1944 H 197.955 -2.81206 -4.08946 0
M  V30 1945 H 193.211 -4.17371 -4.46779 0
M  V30 1946 H 197.385 -5.13133 -4.70815 0
M  V30 1947 H 195.012 -5.81719 -4.89395 0
M  V30 1948 N 196.587 1.43421 -0.653314 0
M  V30 1949 C 197.519 2.29071 0.0769134 0
M  V30 1950 C 198.532 1.42513 0.787017 0
M  V30 1951 O 199.721 1.66449 0.644757 0
M  V30 1952 C 196.821 3.19436 1.13199 0
M  V30 1953 C 195.994 4.34533 0.500006 0
M  V30 1954 C 195.053 5.05771 1.45198 0
M  V30 1955 O 194.079 5.61037 0.960538 0
M  V30 1956 N 195.281 5.0928 2.78594 0
M  V30 1957 H 198.046 2.92382 -0.658235 0
M  V30 1958 H 195.607 1.54112 -0.496104 0
M  V30 1959 H 197.599 3.63958 1.76964 0
M  V30 1960 H 196.169 2.57724 1.7691 0
M  V30 1961 H 195.389 3.92925 -0.316738 0
M  V30 1962 H 196.677 5.08766 0.0588345 0
M  V30 1963 H 196.075 4.65751 3.2108 0
M  V30 1964 H 194.632 5.57519 3.37662 0
M  V30 1965 N 198.065 0.39524 1.52563 0
M  V30 1966 C 199.481 0.0454682 1.59535 0
M  V30 1967 C 199.681 -1.44056 1.4089 0
M  V30 1968 O 198.737 -2.20579 1.22888 0
M  V30 1969 C 200.05 0.527963 2.96029 0
M  V30 1970 C 201.598 0.484733 3.09224 0
M  V30 1971 C 202.073 0.943512 4.48176 0
M  V30 1972 N 203.564 0.899765 4.54377 0
M  V30 1973 C 204.299 1.22609 5.60138 0
M  V30 1974 N 203.795 1.62319 6.73516 0
M  V30 1975 N 205.588 1.14696 5.50274 0
M  V30 1976 H 197.739 1.36261 1.62931 0
M  V30 1977 H 200.002 0.558887 0.765735 0
M  V30 1978 H 199.708 1.56607 3.14908 0
M  V30 1979 H 199.582 -0.0698056 3.77135 0
M  V30 1980 H 201.969 -0.544298 2.90037 0
M  V30 1981 H 202.05 1.11838 2.30056 0
M  V30 1982 H 201.694 1.9708 4.68104 0
M  V30 1983 H 201.624 0.286817 5.25818 0
M  V30 1984 H 204.115 0.607632 3.72983 0
M  V30 1985 H 204.428 1.85567 7.5019 0
M  V30 1986 H 202.773 1.66211 6.74833 0
M  V30 1987 H 205.964 0.835701 4.6058 0
M  V30 1988 H 206.137 1.40459 6.32594 0
M  V30 1989 N 199.544 -1.57102 0.125237 0
M  V30 1990 C 200.96 -1.57915 -0.231322 0
M  V30 1991 C 201.16 -1.13833 -1.66266 0
M  V30 1992 O 200.216 -0.828581 -2.38518 0
M  V30 1993 C 201.529 -3.00699 0.00766489 0
M  V30 1994 C 203.077 -3.12947 -0.0577483 0
M  V30 1995 C 203.552 -4.57742 0.153626 0
M  V30 1996 N 205.043 -4.63092 0.0998073 0
M  V30 1997 C 205.778 -5.72905 0.238174 0
M  V30 1998 N 205.274 -6.91445 0.433057 0
M  V30 1999 N 207.067 -5.6182 0.177308 0
M  V30 2000 H 199.218 -1.84055 1.06007 0
M  V30 2001 H 201.481 -0.850905 0.417929 0
M  V30 2002 H 201.187 -3.3726 0.997431 0
M  V30 2003 H 201.061 -3.70236 -0.721452 0
M  V30 2004 H 203.448 -2.7624 -1.03804 0
M  V30 2005 H 203.529 -2.4594 0.70335 0
M  V30 2006 H 203.173 -4.95149 1.13092 0
M  V30 2007 H 203.103 -5.22848 -0.627534 0
M  V30 2008 H 205.594 -3.77871 -0.047051 0
M  V30 2009 H 205.907 -7.70985 0.529332 0
M  V30 2010 H 204.252 -6.93415 0.469109 0
M  V30 2011 H 207.443 -4.68093 0.0259748 0
M  V30 2012 H 207.616 -6.47357 0.288582 0
M  V30 2013 N 201.022 0.148545 -1.56898 0
M  V30 2014 C 201.954 1.20852 -1.9475 0
M  V30 2015 C 202.967 1.39265 -0.843152 0
M  V30 2016 O 204.156 1.38864 -1.12156 0
M  V30 2017 C 201.256 2.57362 -2.20495 0
M  V30 2018 C 200.429 2.59947 -3.51776 0
M  V30 2019 C 199.488 3.77984 -3.6608 0
M  V30 2020 O 198.514 3.62929 -4.38487 0
M  V30 2021 N 199.716 4.95375 -3.02629 0
M  V30 2022 H 202.481 0.886804 -2.86279 0
M  V30 2023 H 200.042 0.338121 -1.5833 0
M  V30 2024 H 202.034 3.34833 -2.27307 0
M  V30 2025 H 200.604 2.81832 -1.35238 0
M  V30 2026 H 199.824 1.68403 -3.56419 0
M  V30 2027 H 201.112 2.58704 -4.38121 0
M  V30 2028 H 200.51 5.10509 -2.43715 0
M  V30 2029 H 199.067 5.70627 -3.15004 0
M  V30 2030 N 202.5 1.5196 0.417844 0
M  V30 2031 C 203.777 1.56146 1.17803 0
M  V30 2032 C 204.157 0.337275 2.08388 0
M  V30 2033 O 203.505 -0.676447 2.18258 0
M  V30 2034 C 203.715 2.88566 1.96293 0
M  V30 2035 C 205.063 3.41244 2.52662 0
M  V30 2036 O 206.087 2.90247 2.06483 0
M  V30 2037 O 204.946 4.30273 3.36938 0
M  V30 2038 H 202.04 0.628598 0.537395 0
M  V30 2039 H 204.586 1.64283 0.425331 0
M  V30 2040 H 203.358 3.69116 1.2988 0
M  V30 2041 H 202.981 2.83681 2.78587 0
M  V30 2042 N 203.978 -0.674533 1.42435 0
M  V30 2043 C 205.226 -1.43175 1.42637 0
M  V30 2044 C 205.547 -1.94951 0.0438992 0
M  V30 2045 O 204.817 -1.7308 -0.917607 0
M  V30 2046 H 203.397 -0.531307 0.525092 0
M  V30 2047 H 206.059 -0.797006 1.77859 0
M  V30 2048 H 205.155 -2.28463 2.12629 0
M  V30 2049 N 205.456 -1.28612 -0.910864 0
M  V30 2050 C 206.681 -1.1891 -1.69927 0
M  V30 2051 C 207.106 0.248372 -1.86453 0
M  V30 2052 O 206.464 1.17961 -1.37676 0
M  V30 2053 C 206.512 -1.89578 -3.06745 0
M  V30 2054 O 205.616 -1.20521 -3.94396 0
M  V30 2055 H 204.957 -0.412632 -0.520222 0
M  V30 2056 H 207.487 -1.69985 -1.1387 0
M  V30 2057 H 207.497 -1.97597 -3.56958 0
M  V30 2058 H 206.172 -2.94136 -2.94035 0
M  V30 2059 H 204.749 -1.20684 -3.52831 0
M  V30 2060 N 206.934 1.1197 -1.10907 0
M  V30 2061 C 208.18 1.8386 -0.855773 0
M  V30 2062 C 208.513 1.84134 0.617103 0
M  V30 2063 O 207.788 1.29041 1.45529 0
M  V30 2064 C 208.071 3.31305 -1.411 0
M  V30 2065 C 207.924 3.39456 -2.9511 0
M  V30 2066 C 209.243 4.2721 -1.05736 0
M  V30 2067 H 206.362 0.667545 -0.312334 0
M  V30 2068 H 209.004 1.31331 -1.37303 0
M  V30 2069 H 207.154 3.76169 -0.97105 0
M  V30 2070 H 208.826 3.03191 -3.47668 0
M  V30 2071 H 207.069 2.79849 -3.31462 0
M  V30 2072 H 207.74 4.43209 -3.29044 0
M  V30 2073 H 210.216 3.90497 -1.43706 0
M  V30 2074 H 209.092 5.28775 -1.47269 0
M  V30 2075 H 209.353 4.42088 0.0325958 0
M  V30 2076 N 208.412 0.89855 1.29475 0
M  V30 2077 C 209.689 0.443416 1.90508 0
M  V30 2078 C 210.069 -1.07685 1.81569 0
M  V30 2079 O 209.417 -1.9182 1.24166 0
M  V30 2080 C 209.627 0.956708 3.35631 0
M  V30 2081 C 210.975 0.999728 4.12663 0
M  V30 2082 O 211.999 0.904299 3.4453 0
M  V30 2083 O 210.858 1.14289 5.34416 0
M  V30 2084 H 207.952 0.138025 0.815401 0
M  V30 2085 H 210.498 0.98834 1.37949 0
M  V30 2086 H 209.27 2.00067 3.36287 0
M  V30 2087 H 208.893 0.391728 3.95666 0
M  V30 2088 N 209.89 -1.43072 0.660911 0
M  V30 2089 C 211.137 -2.01721 0.177445 0
M  V30 2090 C 211.465 -1.5218 -1.21126 0
M  V30 2091 O 210.72 -0.708659 -1.82419 0
M  V30 2092 C 211.019 -3.57103 0.145563 0
M  V30 2093 C 210.685 -4.26021 1.47705 0
M  V30 2094 C 209.347 -4.44563 1.84165 0
M  V30 2095 C 211.699 -4.64983 2.35458 0
M  V30 2096 C 209.027 -4.99334 3.0803 0
M  V30 2097 C 211.379 -5.21127 3.58622 0
M  V30 2098 C 210.043 -5.37884 3.95268 0
M  V30 2099 H 209.313 -0.73815 0.0649317 0
M  V30 2100 H 211.96 -1.71446 0.853144 0
M  V30 2101 H 210.265 -3.86965 -0.61361 0
M  V30 2102 H 211.962 -4.00248 -0.2455 0
M  V30 2103 H 208.552 -4.11939 1.18339 0
M  V30 2104 H 212.736 -4.50343 2.08579 0
M  V30 2105 H 207.992 -5.10493 3.36462 0
M  V30 2106 H 212.166 -5.50262 4.26831 0
M  V30 2107 H 209.793 -5.80089 4.91325 0
M  V30 2108 N 211.368 -0.403325 -1.52352 0
M  V30 2109 C 212.615 0.174347 -2.01748 0
M  V30 2110 C 212.943 1.45636 -1.2892 0
M  V30 2111 O 212.198 1.9193 -0.382258 0
M  V30 2112 C 212.497 0.474665 -3.54234 0
M  V30 2113 C 212.163 -0.717458 -4.45155 0
M  V30 2114 C 210.825 -1.04447 -4.69728 0
M  V30 2115 C 213.177 -1.51432 -4.98716 0
M  V30 2116 C 210.505 -2.16963 -5.45109 0
M  V30 2117 C 212.857 -2.6302 -5.75329 0
M  V30 2118 C 211.521 -2.96213 -5.98175 0
M  V30 2119 H 210.791 0.0637981 -0.738248 0
M  V30 2120 H 213.438 -0.543553 -1.83624 0
M  V30 2121 H 211.743 1.27406 -3.70506 0
M  V30 2122 H 213.44 0.934496 -3.89959 0
M  V30 2123 H 210.03 -0.452596 -4.26204 0
M  V30 2124 H 214.214 -1.27491 -4.79645 0
M  V30 2125 H 209.47 -2.43034 -5.61021 0
M  V30 2126 H 213.644 -3.25158 -6.15829 0
M  V30 2127 H 211.271 -3.83516 -6.56368 0
M  V30 2128 N 212.846 1.57033 -0.133567 0
M  V30 2129 C 214.262 1.58035 0.222944 0
M  V30 2130 C 214.462 1.14713 1.6566 0
M  V30 2131 O 213.518 0.841218 2.38075 0
M  V30 2132 C 214.831 3.00691 -0.0236116 0
M  V30 2133 C 216.379 3.12973 0.0411512 0
M  V30 2134 C 216.854 4.57654 -0.177899 0
M  V30 2135 N 218.345 4.63033 -0.124365 0
M  V30 2136 C 219.08 5.72771 -0.268553 0
M  V30 2137 N 218.576 6.91206 -0.46972 0
M  V30 2138 N 220.369 5.61718 -0.2071 0
M  V30 2139 H 212.52 1.8349 -1.06981 0
M  V30 2140 H 214.783 0.848677 -0.422436 0
M  V30 2141 H 214.489 3.36726 -1.0153 0
M  V30 2142 H 214.363 3.70614 0.701808 0
M  V30 2143 H 216.75 2.76787 1.02338 0
M  V30 2144 H 216.831 2.45564 -0.716383 0
M  V30 2145 H 216.475 4.94542 -1.15717 0
M  V30 2146 H 216.405 5.23173 0.599797 0
M  V30 2147 H 218.896 3.7789 0.027011 0
M  V30 2148 H 219.209 7.70693 -0.570212 0
M  V30 2149 H 217.554 6.93156 -0.505876 0
M  V30 2150 H 220.745 4.68072 -0.0507986 0
M  V30 2151 H 220.918 6.47195 -0.322909 0
M  V30 2152 N 214.325 -0.140222 1.56975 0
M  V30 2153 C 215.55 -0.870414 1.88251 0
M  V30 2154 C 215.975 -1.73637 0.723312 0
M  V30 2155 O 215.333 -1.78329 -0.32689 0
M  V30 2156 C 215.381 -1.69737 3.18154 0
M  V30 2157 O 214.485 -2.80229 3.02565 0
M  V30 2158 H 213.826 -0.242025 0.61832 0
M  V30 2159 H 216.356 -0.128999 2.04193 0
M  V30 2160 H 216.366 -2.09099 3.50345 0
M  V30 2161 H 215.041 -1.06152 4.02125 0
M  V30 2162 H 213.618 -2.44224 2.81796 0
M  V30 2163 N 215.803 -1.52179 -0.40978 0
M  V30 2164 C 217.049 -1.67408 -1.15525 0
M  V30 2165 C 217.404 -0.398746 -1.88223 0
M  V30 2166 O 216.697 0.60678 -1.81738 0
M  V30 2167 C 216.891 -2.83428 -2.17723 0
M  V30 2168 C 216.72 -4.22121 -1.55061 0
M  V30 2169 C 215.49 -4.87657 -1.3236 0
M  V30 2170 C 217.688 -5.04248 -1.01185 0
M  V30 2171 N 215.67 -6.10387 -0.655834 0
M  V30 2172 C 217.041 -6.18209 -0.470963 0
M  V30 2173 C 219.096 -4.89583 -0.906252 0
M  V30 2174 C 217.799 -7.1911 0.165172 0
M  V30 2175 C 219.825 -5.90718 -0.28397 0
M  V30 2176 C 219.187 -7.03969 0.246243 0
M  V30 2177 H 215.286 -0.666251 -0.409431 0
M  V30 2178 H 217.87 -1.89482 -0.447729 0
M  V30 2179 H 216.041 -2.6297 -2.85834 0
M  V30 2180 H 217.773 -2.87697 -2.84627 0
M  V30 2181 H 214.528 -4.46007 -1.59294 0
M  V30 2182 H 214.952 -6.76153 -0.338596 0
M  V30 2183 H 219.594 -4.02253 -1.302 0
M  V30 2184 H 217.312 -8.06066 0.572986 0
M  V30 2185 H 220.898 -5.81443 -0.203792 0
M  V30 2186 H 219.778 -7.80886 0.720173 0
M  V30 2187 N 217.281 0.66697 -1.42791 0
M  V30 2188 C 218.506 1.46004 -1.47301 0
M  V30 2189 C 218.931 1.87894 -0.0880317 0
M  V30 2190 O 218.289 1.56502 0.915253 0
M  V30 2191 C 218.337 2.68031 -2.41229 0
M  V30 2192 O 217.441 3.6659 -1.88906 0
M  V30 2193 H 216.782 0.43832 -0.49877 0
M  V30 2194 H 219.312 0.817391 -1.87563 0
M  V30 2195 H 219.322 3.1601 -2.58073 0
M  V30 2196 H 217.997 2.36883 -3.41847 0
M  V30 2197 H 216.574 3.25661 -1.81656 0
M  V30 2198 N 218.759 1.29093 0.90403 0
M  V30 2199 C 219.984 1.19809 1.69294 0
M  V30 2200 C 220.409 -0.238481 1.86582 0
M  V30 2201 O 219.767 -1.1723 1.383 0
M  V30 2202 C 219.815 1.91202 3.05736 0
M  V30 2203 O 218.919 1.22611 3.93752 0
M  V30 2204 H 218.26 0.415385 0.518027 0
M  V30 2205 H 220.79 1.70586 1.12967 0
M  V30 2206 H 220.8 1.99487 3.55906 0
M  V30 2207 H 219.475 2.95692 2.92471 0
M  V30 2208 H 218.052 1.22554 3.52186 0
M  V30 2209 N 220.237 -1.11381 1.11499 0
M  V30 2210 C 221.467 -1.86663 0.885464 0
M  V30 2211 C 221.875 -1.80464 -0.568281 0
M  V30 2212 O 221.218 -1.18445 -1.40415 0
M  V30 2213 C 221.28 -3.36337 1.26956 0
M  V30 2214 C 220.944 -3.66304 2.73259 0
M  V30 2215 C 221.941 -3.63733 3.71476 0
M  V30 2216 C 219.626 -3.9529 3.09921 0
M  V30 2217 C 221.62 -3.89725 5.04374 0
M  V30 2218 C 219.307 -4.20941 4.43004 0
M  V30 2219 C 220.305 -4.18147 5.40039 0
M  V30 2220 O 219.993 -4.43153 6.70724 0
M  V30 2221 H 219.725 -0.597114 0.316908 0
M  V30 2222 H 222.279 -1.41782 1.48617 0
M  V30 2223 H 220.509 -3.81826 0.611999 0
M  V30 2224 H 222.198 -3.92986 1.01573 0
M  V30 2225 H 222.964 -3.41389 3.44498 0
M  V30 2226 H 218.843 -3.966 2.35009 0
M  V30 2227 H 222.387 -3.8746 5.80104 0
M  V30 2228 H 218.284 -4.42761 4.69716 0
M  V30 2229 H 219.052 -4.60717 6.76522 0
M  V30 2230 N 221.715 -0.905404 -1.28997 0
M  V30 2231 C 223.131 -0.60233 -1.47798 0
M  V30 2232 C 223.331 0.854645 -1.82478 0
M  V30 2233 O 222.387 1.63439 -1.92468 0
M  V30 2234 C 223.7 -1.53306 -2.58685 0
M  V30 2235 C 225.248 -1.53887 -2.72558 0
M  V30 2236 C 225.723 -2.45602 -3.86579 0
M  V30 2237 N 227.214 -2.43681 -3.93921 0
M  V30 2238 C 227.949 -3.11347 -4.81509 0
M  V30 2239 N 227.445 -3.88313 -5.73746 0
M  V30 2240 N 229.238 -3.00476 -4.75048 0
M  V30 2241 H 221.389 -1.84765 -1.04764 0
M  V30 2242 H 223.652 -0.792025 -0.520961 0
M  V30 2243 H 223.358 -2.57141 -2.39941 0
M  V30 2244 H 223.232 -1.25787 -3.55609 0
M  V30 2245 H 225.619 -0.507941 -2.90696 0
M  V30 2246 H 225.7 -1.85447 -1.76191 0
M  V30 2247 H 225.344 -3.48792 -3.69197 0
M  V30 2248 H 225.274 -2.11349 -4.82327 0
M  V30 2249 H 227.765 -1.87767 -3.27951 0
M  V30 2250 H 228.078 -4.36985 -6.37389 0
M  V30 2251 H 226.423 -3.92419 -5.73614 0
M  V30 2252 H 229.614 -2.39858 -4.01977 0
M  V30 2253 H 229.787 -3.53485 -5.43095 0
M  V30 2254 N 223.193 1.4272 -0.668489 0
M  V30 2255 C 224.156 2.292 0.00448567 0
M  V30 2256 C 225.156 1.43001 0.735339 0
M  V30 2257 O 226.346 1.64461 0.57429 0
M  V30 2258 C 223.478 3.25375 1.01705 0
M  V30 2259 H 224.671 2.90199 -0.756608 0
M  V30 2260 H 222.224 1.50254 -0.430506 0
M  V30 2261 H 222.959 2.69301 1.80686 0
M  V30 2262 H 222.744 3.88944 0.496463 0
M  V30 2263 H 224.234 3.90245 1.48655 0
M  V30 2264 N 224.671 0.411399 1.52136 0
M  V30 2265 C 225.919 -0.163322 2.01439 0
M  V30 2266 C 226.24 -1.45453 1.29879 0
M  V30 2267 O 225.51 -1.91225 0.4254 0
M  V30 2268 H 224.09 -0.0633447 0.744309 0
M  V30 2269 H 226.752 0.548161 1.87033 0
M  V30 2270 H 225.848 -0.357817 3.10042 0
M  V30 2271 N 226.149 -1.5696 0.141893 0
M  V30 2272 C 227.396 -1.9596 -0.510492 0
M  V30 2273 C 227.724 -1.02648 -1.65208 0
M  V30 2274 O 226.979 -0.0546947 -1.95624 0
M  V30 2275 C 227.278 -3.41242 -1.06249 0
M  V30 2276 C 226.944 -4.50882 -0.0398791 0
M  V30 2277 C 225.606 -4.80595 0.241247 0
M  V30 2278 C 227.958 -5.17058 0.65578 0
M  V30 2279 C 225.286 -5.73792 1.22393 0
M  V30 2280 C 227.638 -6.11313 1.62724 0
M  V30 2281 C 226.302 -6.39407 1.91612 0
M  V30 2282 H 225.572 -0.717068 -0.186802 0
M  V30 2283 H 228.219 -1.90142 0.227643 0
M  V30 2284 H 226.524 -3.43866 -1.87785 0
M  V30 2285 H 228.221 -3.68742 -1.57576 0
M  V30 2286 H 224.811 -4.27754 -0.269174 0
M  V30 2287 H 228.995 -4.94239 0.451779 0
M  V30 2288 H 224.251 -5.93853 1.45424 0
M  V30 2289 H 228.425 -6.61668 2.17183 0
M  V30 2290 H 226.052 -7.11427 2.6791 0
M  V30 2291 N 227.627 0.131896 -1.57047 0
M  V30 2292 C 228.875 0.840269 -1.83804 0
M  V30 2293 C 229.196 1.81017 -0.72512 0
M  V30 2294 O 228.466 1.94272 0.251995 0
M  V30 2295 H 227.046 0.313294 -0.678127 0
M  V30 2296 H 229.708 0.122294 -1.94516 0
M  V30 2297 H 228.804 1.39335 -2.79271 0
M  V30 2298 N 229.106 1.52395 0.401703 0
M  V30 2299 C 230.054 1.7689 1.51039 0
M  V30 2300 C 231.048 0.636298 1.56996 0
M  V30 2301 O 232.254 0.818507 1.60314 0
M  V30 2302 H 228.629 0.559502 0.502456 0
M  V30 2303 H 230.6 2.69757 1.27568 0
M  V30 2304 C 229.349 1.94331 2.88324 0
M  V30 2305 H 228.672 2.80905 2.84486 0
M  V30 2306 H 230.112 2.15466 3.65172 0
M  V30 2307 C 228.571 0.712396 3.29282 0
M  V30 2308 O 229.101 -0.116218 4.01532 0
M  V30 2309 N 227.307 0.546154 2.85422 0
M  V30 2310 H 226.854 1.22156 2.26794 0
M  V30 2311 H 226.812 -0.276113 3.13185 0
M  V30 2312 N 230.584 -0.659388 1.43143 0
M  V30 2313 C 231.516 -1.7849 1.43784 0
M  V30 2314 C 232.529 -1.5932 0.334787 0
M  V30 2315 O 233.718 -1.68155 0.598842 0
M  V30 2316 C 230.818 -3.15828 1.22906 0
M  V30 2317 C 229.991 -3.61711 2.45934 0
M  V30 2318 C 229.05 -4.77831 2.20371 0
M  V30 2319 O 228.076 -4.87586 2.93681 0
M  V30 2320 N 229.278 -5.67611 1.21647 0
M  V30 2321 H 232.043 -1.7842 2.40803 0
M  V30 2322 H 229.604 -0.84302 1.3822 0
M  V30 2323 H 231.596 -3.91189 1.03697 0
M  V30 2324 H 230.166 -3.10707 0.343542 0
M  V30 2325 H 229.386 -2.76861 2.80609 0
M  V30 2326 H 230.674 -3.89112 3.27825 0
M  V30 2327 H 230.072 -5.62397 0.610449 0
M  V30 2328 H 228.629 -6.42719 1.08423 0
M  V30 2329 N 232.062 -1.29571 -0.897171 0
M  V30 2330 C 232.972 -1.16808 -2.03453 0
M  V30 2331 C 233.988 -0.0907471 -1.73763 0
M  V30 2332 O 235.164 -0.303312 -1.99103 0
M  V30 2333 C 232.229 -0.848264 -3.36163 0
M  V30 2334 C 231.29 -2.0097 -3.79354 0
M  V30 2335 C 230.523 -1.70505 -5.05731 0
M  V30 2336 O 230.746 -0.62718 -5.66941 0
M  V30 2337 O 229.68 -2.5538 -5.45036 0
M  V30 2338 H 233.506 -2.12325 -2.17144 0
M  V30 2339 H 231.091 -1.09047 -1.02123 0
M  V30 2340 H 232.973 -0.684581 -4.15802 0
M  V30 2341 H 231.648 0.0771071 -3.23608 0
M  V30 2342 H 230.555 -2.22863 -3.00471 0
M  V30 2343 H 231.888 -2.91636 -3.96496 0
M  V30 2344 N 233.54 1.10788 -1.12088 0
M  V30 2345 C 234.765 1.87002 -0.896949 0
M  V30 2346 C 235.19 1.79933 0.548261 0
M  V30 2347 O 234.548 1.16662 1.38779 0
M  V30 2348 C 234.596 3.3349 -1.37174 0
M  V30 2349 O 233.7 4.08745 -0.547831 0
M  V30 2350 H 233.041 0.580397 -0.322545 0
M  V30 2351 H 235.571 1.39996 -1.49206 0
M  V30 2352 H 235.581 3.84339 -1.36922 0
M  V30 2353 H 234.256 3.37951 -2.42408 0
M  V30 2354 H 232.833 3.6776 -0.617034 0
M  V30 2355 N 235.018 0.912232 1.28515 0
M  V30 2356 C 235.928 0.404506 2.31086 0
M  V30 2357 C 236.944 -0.50707 1.66448 0
M  V30 2358 O 238.12 -0.393624 1.97516 0
M  V30 2359 C 235.185 -0.348572 3.44943 0
M  V30 2360 C 234.246 0.59604 4.25142 0
M  V30 2361 C 233.479 -0.121194 5.33562 0
M  V30 2362 O 233.702 -1.34317 5.5436 0
M  V30 2363 O 232.636 0.542716 5.99448 0
M  V30 2364 H 236.462 1.25579 2.76521 0
M  V30 2365 H 234.047 0.676998 1.33181 0
M  V30 2366 H 235.929 -0.77395 4.14232 0
M  V30 2367 H 234.604 -1.17571 3.01594 0
M  V30 2368 H 233.511 1.07079 3.58448 0
M  V30 2369 H 234.844 1.38995 4.72167 0
M  V30 2370 N 236.496 -1.42363 0.676048 0
M  V30 2371 C 237.743 -2.01522 0.19883 0
M  V30 2372 C 238.071 -1.53456 -1.19505 0
M  V30 2373 O 237.326 -0.727967 -1.81657 0
M  V30 2374 C 237.625 -3.56929 0.183431 0
M  V30 2375 C 237.291 -4.24431 1.52215 0
M  V30 2376 C 235.953 -4.42585 1.8887 0
M  V30 2377 C 238.305 -4.62459 2.40377 0
M  V30 2378 C 235.633 -4.96039 3.13309 0
M  V30 2379 C 237.985 -5.17294 3.64129 0
M  V30 2380 C 236.649 -5.33661 4.00951 0
M  V30 2381 H 235.919 -0.737419 0.0727571 0
M  V30 2382 H 238.566 -1.70531 0.871281 0
M  V30 2383 H 236.871 -3.87594 -0.572532 0
M  V30 2384 H 238.568 -4.00486 -0.203035 0
M  V30 2385 H 235.158 -4.10661 1.22701 0
M  V30 2386 H 239.342 -4.48105 2.13343 0
M  V30 2387 H 234.598 -5.06896 3.41857 0
M  V30 2388 H 238.772 -5.45704 4.32644 0
M  V30 2389 H 236.399 -5.74845 4.9745 0
M  V30 2390 N 237.974 -0.419461 -1.51915 0
M  V30 2391 C 239.22 0.145505 -2.02879 0
M  V30 2392 C 239.575 1.41926 -1.29903 0
M  V30 2393 O 238.868 1.87383 -0.399782 0
M  V30 2394 C 239.062 0.437067 -3.54717 0
M  V30 2395 C 238.891 -0.806877 -4.42402 0
M  V30 2396 C 237.661 -1.33514 -4.87342 0
M  V30 2397 C 239.859 -1.68796 -4.85811 0
M  V30 2398 N 237.841 -2.53349 -5.59185 0
M  V30 2399 C 239.212 -2.73247 -5.56539 0
M  V30 2400 C 241.267 -1.70449 -4.67816 0
M  V30 2401 C 239.97 -3.79276 -6.11181 0
M  V30 2402 C 241.996 -2.75403 -5.23361 0
M  V30 2403 C 241.358 -3.78575 -5.9402 0
M  V30 2404 H 237.457 0.0145424 -0.781865 0
M  V30 2405 H 240.041 -0.576126 -1.85981 0
M  V30 2406 H 238.212 1.12774 -3.71667 0
M  V30 2407 H 239.944 0.99182 -3.92358 0
M  V30 2408 H 236.699 -0.891657 -4.65131 0
M  V30 2409 H 237.123 -3.14066 -5.99743 0
M  V30 2410 H 241.765 -0.920209 -4.12664 0
M  V30 2411 H 239.483 -4.58554 -6.65397 0
M  V30 2412 H 243.069 -2.77603 -5.113 0
M  V30 2413 H 241.949 -4.58453 -6.36231 0
M  V30 2414 N 239.452 1.56882 -0.150215 0
M  V30 2415 C 240.382 2.19935 0.784284 0
M  V30 2416 C 241.363 1.14854 1.25469 0
M  V30 2417 O 242.548 1.43209 1.31168 0
M  V30 2418 C 239.678 2.82349 2.02229 0
M  V30 2419 C 238.632 3.93285 1.68853 0
M  V30 2420 C 237.958 4.42649 2.99944 0
M  V30 2421 C 239.258 5.13904 0.932714 0
M  V30 2422 H 240.952 2.9828 0.258781 0
M  V30 2423 H 238.498 1.43473 0.123029 0
M  V30 2424 H 240.451 3.25126 2.68088 0
M  V30 2425 H 239.175 2.0134 2.57157 0
M  V30 2426 H 237.834 3.5113 1.05371 0
M  V30 2427 H 237.482 3.58458 3.52869 0
M  V30 2428 H 237.182 5.17476 2.78374 0
M  V30 2429 H 238.706 4.88099 3.66868 0
M  V30 2430 H 240.12 5.53506 1.49345 0
M  V30 2431 H 238.517 5.94515 0.81684 0
M  V30 2432 H 239.587 4.84842 -0.0749568 0
M  V30 2433 N 240.93 -0.123565 1.57115 0
M  V30 2434 C 242.178 -0.83051 1.84247 0
M  V30 2435 C 242.499 -1.80629 0.73471 0
M  V30 2436 O 241.769 -1.94403 -0.241688 0
M  V30 2437 H 240.349 -0.309694 0.679778 0
M  V30 2438 H 243.011 -0.111976 1.94578 0
M  V30 2439 H 242.107 -1.37852 2.80006 0
M  V30 2440 N 242.408 -1.52605 -0.393616 0
M  V30 2441 C 243.356 -1.77688 -1.50099 0
M  V30 2442 C 244.35 -0.644615 -1.56656 0
M  V30 2443 O 245.556 -0.826997 -1.59877 0
M  V30 2444 H 241.931 -0.562159 -0.499481 0
M  V30 2445 H 243.902 -2.7043 -1.26135 0
M  V30 2446 C 242.651 -1.95858 -2.87289 0
M  V30 2447 H 241.974 -2.8241 -2.82992 0
M  V30 2448 H 243.414 -2.174 -3.64024 0
M  V30 2449 C 241.873 -0.729848 -3.28899 0
M  V30 2450 O 242.403 0.0949217 -4.01588 0
M  V30 2451 N 240.609 -0.561283 -2.85128 0
M  V30 2452 H 240.156 -1.23357 -2.26143 0
M  V30 2453 H 240.114 0.2595 -3.13327 0
M  V30 2454 N 243.887 0.651787 -1.4349 0
M  V30 2455 C 244.797 1.79368 -1.5121 0
M  V30 2456 C 245.813 1.69361 -0.399093 0
M  V30 2457 O 246.989 1.90505 -0.653431 0
M  V30 2458 C 244.054 3.15653 -1.43401 0
M  V30 2459 C 243.115 3.37446 -2.65384 0
M  V30 2460 C 242.348 4.67229 -2.57939 0
M  V30 2461 O 242.571 5.46676 -1.62792 0
M  V30 2462 O 241.505 4.90773 -3.48462 0
M  V30 2463 H 245.331 1.7581 -2.47638 0
M  V30 2464 H 242.916 0.810447 -1.25507 0
M  V30 2465 H 244.798 3.96935 -1.41494 0
M  V30 2466 H 243.473 3.19798 -0.501085 0
M  V30 2467 H 242.38 2.55923 -2.72863 0
M  V30 2468 H 243.713 3.38148 -3.57654 0
M  V30 2469 N 245.365 1.30045 0.890287 0
M  V30 2470 C 246.313 1.15873 2.01683 0
M  V30 2471 C 247.307 0.0719403 1.69247 0
M  V30 2472 O 248.513 0.232414 1.78493 0
M  V30 2473 H 244.888 0.358203 0.661207 0
M  V30 2474 H 246.859 2.11229 2.10772 0
M  V30 2475 C 245.608 0.861842 3.36849 0
M  V30 2476 H 244.931 1.69016 3.62317 0
M  V30 2477 H 246.371 0.802762 4.16331 0
M  V30 2478 C 244.83 -0.435132 3.34078 0
M  V30 2479 O 245.36 -1.4583 3.74295 0
M  V30 2480 N 243.566 -0.444377 2.87182 0
M  V30 2481 H 243.113 0.388723 2.5465 0
M  V30 2482 H 243.071 -1.31213 2.85711 0
M  V30 2483 N 246.843 -1.10192 1.12674 0
M  V30 2484 C 247.773 -2.18652 0.819362 0
M  V30 2485 C 248.754 -1.68698 -0.217915 0
M  V30 2486 O 249.939 -1.94041 -0.0785581 0
M  V30 2487 C 247.069 -3.46202 0.27594 0
M  V30 2488 C 246.023 -4.09444 1.24656 0
M  V30 2489 C 245.349 -5.31725 0.563258 0
M  V30 2490 C 246.649 -4.52863 2.60217 0
M  V30 2491 H 248.343 -2.44622 1.72628 0
M  V30 2492 H 245.889 -1.17571 0.831451 0
M  V30 2493 H 247.842 -4.21372 0.0486149 0
M  V30 2494 H 246.566 -3.1973 -0.666331 0
M  V30 2495 H 245.225 -3.36284 1.45974 0
M  V30 2496 H 244.873 -5.0153 -0.384235 0
M  V30 2497 H 244.573 -5.74991 1.21075 0
M  V30 2498 H 246.097 -6.09624 0.34503 0
M  V30 2499 H 247.511 -5.19294 2.42913 0
M  V30 2500 H 245.908 -5.06986 3.21068 0
M  V30 2501 H 246.978 -3.65656 3.18471 0
M  V30 2502 N 248.321 -0.919034 -1.28029 0
M  V30 2503 C 249.271 -0.382574 -2.24767 0
M  V30 2504 C 250.255 0.508286 -1.52661 0
M  V30 2505 O 251.447 0.347145 -1.73562 0
M  V30 2506 C 248.576 0.371432 -3.41285 0
M  V30 2507 C 247.662 -0.535449 -4.20706 0
M  V30 2508 N 248.053 -1.65141 -4.78082 0
M  V30 2509 C 246.351 -0.336824 -4.44726 0
M  V30 2510 C 247.052 -2.21475 -5.37888 0
M  V30 2511 N 246.028 -1.50537 -5.22341 0
M  V30 2512 H 249.83 -1.23477 -2.66703 0
M  V30 2513 H 247.344 -0.772299 -1.42861 0
M  V30 2514 H 249.341 0.772638 -4.09678 0
M  V30 2515 H 248.001 1.22066 -3.00882 0
M  V30 2516 H 249.012 -2.03392 -4.7629 0
M  V30 2517 H 245.689 0.47246 -4.14818 0
M  V30 2518 H 247.079 -3.15379 -5.93284 0
M  V30 2519 N 249.799 1.42003 -0.683588 0
M  V30 2520 C 250.731 2.29183 0.0283068 0
M  V30 2521 C 251.744 1.4415 0.756611 0
M  V30 2522 O 252.933 1.67779 0.609306 0
M  V30 2523 C 250.033 3.21765 1.06398 0
M  V30 2524 C 249.206 4.35496 0.407723 0
M  V30 2525 C 248.265 5.08737 1.34437 0
M  V30 2526 O 247.291 5.62948 0.841318 0
M  V30 2527 N 248.493 5.15075 2.67728 0
M  V30 2528 H 251.258 2.9092 -0.720105 0
M  V30 2529 H 248.819 1.53025 -0.528682 0
M  V30 2530 H 250.811 3.6763 1.69204 0
M  V30 2531 H 249.381 2.61418 1.71404 0
M  V30 2532 H 248.601 3.92165 -0.400012 0
M  V30 2533 H 249.889 5.08776 -0.0490956 0
M  V30 2534 H 249.287 4.72457 3.11129 0
M  V30 2535 H 247.844 5.64556 3.2576 0
M  V30 2536 N 251.277 0.427512 1.51691 0
M  V30 2537 C 252.207 -0.3796 2.30394 0
M  V30 2538 C 253.188 -1.02982 1.35384 0
M  V30 2539 O 254.373 -1.03534 1.643 0
M  V30 2540 C 251.503 -1.48649 3.1388 0
M  V30 2541 C 250.457 -0.960294 4.17088 0
M  V30 2542 C 249.783 -2.16219 4.89033 0
M  V30 2543 C 251.083 -0.00153679 5.223 0
M  V30 2544 H 252.777 0.277164 2.98114 0
M  V30 2545 H 250.323 0.134739 1.43368 0
M  V30 2546 H 252.276 -2.05826 3.67714 0
M  V30 2547 H 251 -2.1714 2.43962 0
M  V30 2548 H 249.659 -0.410806 3.64291 0
M  V30 2549 H 249.307 -2.83307 4.15628 0
M  V30 2550 H 249.007 -1.81654 5.58816 0
M  V30 2551 H 250.531 -2.73968 5.45687 0
M  V30 2552 H 251.945 -0.482687 5.71264 0
M  V30 2553 H 250.342 0.256199 5.99553 0
M  V30 2554 H 251.412 0.938174 4.75738 0
M  V30 2555 N 252.755 -1.56801 0.158532 0
M  V30 2556 C 253.983 -2.00859 -0.496303 0
M  V30 2557 C 254.398 -1.03871 -1.57659 0
M  V30 2558 O 253.755 -0.0375165 -1.82461 0
M  V30 2559 C 253.806 -3.4479 -1.08638 0
M  V30 2560 O 253.527 -4.38072 -0.0492322 0
M  V30 2561 C 255.028 -4.04185 -1.8207 0
M  V30 2562 H 252.248 -0.65864 -0.128199 0
M  V30 2563 H 254.792 -2.02885 0.256506 0
M  V30 2564 H 252.947 -3.43579 -1.78975 0
M  V30 2565 H 253.361 -5.2227 -0.483102 0
M  V30 2566 H 254.835 -5.06857 -2.18633 0
M  V30 2567 H 255.312 -3.45549 -2.71095 0
M  V30 2568 H 255.918 -4.0906 -1.16405 0
M  V30 2569 N 254.233 0.115231 -1.57178 0
M  V30 2570 C 255.163 1.1423 -2.03651 0
M  V30 2571 C 256.144 1.42967 -0.921655 0
M  V30 2572 O 257.329 1.53343 -1.19162 0
M  V30 2573 C 254.459 2.4675 -2.44401 0
M  V30 2574 C 253.413 2.32467 -3.59365 0
M  V30 2575 C 252.739 3.69984 -3.86026 0
M  V30 2576 C 254.039 1.78203 -4.90959 0
M  V30 2577 H 255.733 0.755749 -2.89705 0
M  V30 2578 H 253.279 0.362093 -1.39373 0
M  V30 2579 H 255.232 3.18854 -2.75517 0
M  V30 2580 H 253.956 2.87302 -1.55322 0
M  V30 2581 H 252.615 1.62811 -3.28463 0
M  V30 2582 H 252.263 4.08028 -2.94147 0
M  V30 2583 H 251.963 3.61279 -4.63412 0
M  V30 2584 H 253.487 4.43587 -4.19599 0
M  V30 2585 H 254.901 2.40128 -5.20587 0
M  V30 2586 H 253.298 1.8031 -5.72371 0
M  V30 2587 H 254.368 0.739876 -4.79222 0
M  V30 2588 N 255.711 1.52812 0.385517 0
M  V30 2589 C 256.643 1.74096 1.49074 0
M  V30 2590 C 257.656 0.621462 1.50472 0
M  V30 2591 O 258.845 0.897245 1.54311 0
M  V30 2592 C 255.945 1.78774 2.87911 0
M  V30 2593 C 255.118 3.08134 3.10439 0
M  V30 2594 C 254.177 3.04313 4.29278 0
M  V30 2595 O 253.203 3.78168 4.25415 0
M  V30 2596 N 254.405 2.23741 5.35649 0
M  V30 2597 H 257.17 2.69455 1.31202 0
M  V30 2598 H 254.731 1.51343 0.575065 0
M  V30 2599 H 256.723 1.73721 3.65518 0
M  V30 2600 H 255.293 0.907869 2.99126 0
M  V30 2601 H 254.513 3.26649 2.20667 0
M  V30 2602 H 255.801 3.93662 3.22347 0
M  V30 2603 H 255.199 1.63211 5.41645 0
M  V30 2604 H 253.756 2.24524 6.11909 0
M  V30 2605 N 257.189 -0.644168 1.43834 0
M  V30 2606 C 258.437 -1.40117 1.45642 0
M  V30 2607 C 258.758 -1.94814 0.0852413 0
M  V30 2608 O 258.028 -1.74988 -0.880688 0
M  V30 2609 H 256.608 -0.52005 0.536243 0
M  V30 2610 H 259.27 -0.7591 1.7951 0
M  V30 2611 H 258.366 -2.23902 2.17427 0
M  V30 2612 N 258.668 -1.30515 -0.883378 0
M  V30 2613 C 259.616 -1.16941 -2.01066 0
M  V30 2614 C 260.61 -0.0809148 -1.69207 0
M  V30 2615 O 261.816 -0.241877 -1.78367 0
M  V30 2616 H 258.191 -0.361705 -0.659298 0
M  V30 2617 H 260.162 -2.12344 -2.09649 0
M  V30 2618 C 258.911 -0.879694 -3.36388 0
M  V30 2619 H 258.234 -1.70936 -3.61415 0
M  V30 2620 H 259.674 -0.82483 -4.159 0
M  V30 2621 C 258.133 0.417409 -3.34304 0
M  V30 2622 O 258.663 1.43843 -3.75063 0
M  V30 2623 N 256.869 0.429141 -2.87414 0
M  V30 2624 H 256.416 -0.402222 -2.5444 0
M  V30 2625 H 256.374 1.29696 -2.86403 0
M  V30 2626 N 260.146 1.09593 -1.13257 0
M  V30 2627 C 261.392 1.82181 -0.904521 0
M  V30 2628 C 261.747 1.83967 0.563358 0
M  V30 2629 O 261.04 1.29566 1.41149 0
M  V30 2630 C 261.234 3.27802 -1.42411 0
M  V30 2631 C 261.063 3.40201 -2.94097 0
M  V30 2632 C 259.833 3.52104 -3.62424 0
M  V30 2633 C 262.031 3.32875 -3.92044 0
M  V30 2634 N 260.013 3.53169 -5.0214 0
M  V30 2635 C 261.384 3.40789 -5.17941 0
M  V30 2636 C 263.439 3.16531 -3.84334 0
M  V30 2637 C 262.142 3.34042 -6.37031 0
M  V30 2638 C 264.168 3.11109 -5.02956 0
M  V30 2639 C 263.53 3.19614 -6.27715 0
M  V30 2640 H 259.629 0.681015 -0.384373 0
M  V30 2641 H 262.213 1.3099 -1.44048 0
M  V30 2642 H 260.384 3.77466 -0.915086 0
M  V30 2643 H 262.116 3.88393 -1.13722 0
M  V30 2644 H 258.871 3.5548 -3.12939 0
M  V30 2645 H 259.295 3.57291 -5.75041 0
M  V30 2646 H 263.937 3.08827 -2.88766 0
M  V30 2647 H 261.655 3.4051 -7.32857 0
M  V30 2648 H 265.241 2.99601 -4.98729 0
M  V30 2649 H 264.121 3.15432 -7.17964 0
M  V30 2650 N 261.624 0.925811 1.2754 0
M  V30 2651 C 262.534 0.428993 2.30644 0
M  V30 2652 C 263.55 -0.489387 1.66976 0
M  V30 2653 O 264.726 -0.372653 1.97922 0
M  V30 2654 C 261.791 -0.311967 3.45294 0
M  V30 2655 C 260.852 0.641098 4.24486 0
M  V30 2656 C 260.085 -0.0645955 5.33661 0
M  V30 2657 O 260.308 -1.28429 5.55754 0
M  V30 2658 O 259.242 0.606265 5.98839 0
M  V30 2659 H 263.068 1.28504 2.75173 0
M  V30 2660 H 260.653 0.691086 1.32455 0
M  V30 2661 H 262.535 -0.729972 4.15029 0
M  V30 2662 H 261.21 -1.14365 3.02824 0
M  V30 2663 H 260.117 1.10874 3.57292 0
M  V30 2664 H 261.45 1.43995 4.70666 0
M  V30 2665 N 263.102 -1.41638 0.69111 0
M  V30 2666 C 264.032 -2.3347 0.037248 0
M  V30 2667 C 265.013 -1.51575 -0.771947 0
M  V30 2668 O 266.198 -1.80126 -0.72582 0
M  V30 2669 C 263.328 -3.35354 -0.903064 0
M  V30 2670 C 262.282 -4.27526 -0.201288 0
M  V30 2671 C 261.608 -5.19747 -1.25565 0
M  V30 2672 C 262.908 -5.13959 0.929689 0
M  V30 2673 H 264.602 -2.88397 0.804227 0
M  V30 2674 H 262.148 -1.38669 0.388189 0
M  V30 2675 H 264.101 -3.98519 -1.36969 0
M  V30 2676 H 262.825 -2.78767 -1.70166 0
M  V30 2677 H 261.484 -3.65779 0.245265 0
M  V30 2678 H 261.132 -4.59479 -2.04666 0
M  V30 2679 H 260.832 -5.8225 -0.791128 0
M  V30 2680 H 262.356 -5.85789 -1.72288 0
M  V30 2681 H 263.77 -5.70718 0.543546 0
M  V30 2682 H 262.167 -5.85379 1.32103 0
M  V30 2683 H 263.237 -4.51389 1.77133 0
M  V30 2684 N 264.58 -0.43555 -1.51462 0
M  V30 2685 C 265.996 -0.0877501 -1.59359 0
M  V30 2686 C 266.196 1.4027 -1.4466 0
M  V30 2687 O 265.252 2.17243 -1.28693 0
M  V30 2688 C 266.565 -0.606264 -2.94525 0
M  V30 2689 C 268.113 -0.566548 -3.0783 0
M  V30 2690 C 268.588 -1.06201 -4.45517 0
M  V30 2691 N 270.079 -1.01992 -4.51832 0
M  V30 2692 C 270.814 -1.37417 -5.5669 0
M  V30 2693 N 270.31 -1.80119 -6.68976 0
M  V30 2694 N 272.103 -1.29245 -5.47039 0
M  V30 2695 H 264.254 -1.40533 -1.59261 0
M  V30 2696 H 266.517 -0.578992 -0.750648 0
M  V30 2697 H 266.223 -1.64901 -3.10645 0
M  V30 2698 H 266.097 -0.0302097 -3.77188 0
M  V30 2699 H 268.484 0.467208 -2.91378 0
M  V30 2700 H 268.565 -1.17898 -2.2701 0
M  V30 2701 H 268.209 -2.09422 -4.62715 0
M  V30 2702 H 268.139 -0.426127 -5.24873 0
M  V30 2703 H 270.63 -0.706308 -3.71241 0
M  V30 2704 H 270.943 -2.05392 -7.45006 0
M  V30 2705 H 269.288 -1.84044 -6.70189 0
M  V30 2706 H 272.479 -0.957522 -4.58202 0
M  V30 2707 H 272.652 -1.57182 -6.28648 0
M  V30 2708 N 266.058 1.56714 -0.166846 0
M  V30 2709 C 267.304 1.97039 0.479962 0
M  V30 2710 C 267.637 1.05264 1.63197 0
M  V30 2711 O 266.912 0.0988833 1.94248 0
M  V30 2712 C 267.195 3.46867 0.967212 0
M  V30 2713 C 267.048 4.49421 -0.18466 0
M  V30 2714 C 268.367 3.9968 1.84238 0
M  V30 2715 H 265.486 0.71641 0.172992 0
M  V30 2716 H 268.128 1.8832 -0.252079 0
M  V30 2717 H 266.278 3.54428 1.59101 0
M  V30 2718 H 267.95 4.53924 -0.821621 0
M  V30 2719 H 266.193 4.25573 -0.840837 0
M  V30 2720 H 266.864 5.51644 0.198317 0
M  V30 2721 H 269.34 3.94723 1.31655 0
M  V30 2722 H 268.216 5.04941 2.15234 0
M  V30 2723 H 268.477 3.43226 2.78654 0
M  V30 2724 N 267.536 -0.106894 1.57237 0
M  V30 2725 C 268.446 -1.14911 2.0453 0
M  V30 2726 C 269.462 -1.44592 0.96795 0
M  V30 2727 O 270.638 -1.55468 1.2803 0
M  V30 2728 C 267.703 -2.45272 2.45036 0
M  V30 2729 C 266.764 -2.22879 3.66911 0
M  V30 2730 C 265.997 -3.47024 4.05475 0
M  V30 2731 O 266.22 -4.54804 3.44252 0
M  V30 2732 O 265.154 -3.3731 4.98504 0
M  V30 2733 H 268.98 -0.777461 2.9358 0
M  V30 2734 H 266.565 -0.318563 1.45964 0
M  V30 2735 H 268.447 -3.22055 2.71769 0
M  V30 2736 H 267.122 -2.81886 1.59129 0
M  V30 2737 H 266.029 -1.43915 3.45311 0
M  V30 2738 H 267.362 -1.91163 4.53561 0
M  V30 2739 N 269.014 -1.53014 -0.377408 0
M  V30 2740 C 269.944 -1.81589 -1.46791 0
M  V30 2741 C 270.925 -0.668622 -1.56408 0
M  V30 2742 O 272.11 -0.917337 -1.71168 0
M  V30 2743 C 269.24 -1.99519 -2.8427 0
M  V30 2744 C 268.194 -3.15249 -2.89486 0
M  V30 2745 C 267.52 -3.18451 -4.29527 0
M  V30 2746 C 268.82 -4.54084 -2.58079 0
M  V30 2747 H 270.514 -2.7291 -1.23127 0
M  V30 2748 H 268.06 -1.31319 -0.590883 0
M  V30 2749 H 270.013 -2.18092 -3.60575 0
M  V30 2750 H 268.737 -1.04897 -3.09296 0
M  V30 2751 H 267.396 -2.96477 -2.15631 0
M  V30 2752 H 267.044 -2.2149 -4.5161 0
M  V30 2753 H 266.744 -3.962 -4.33934 0
M  V30 2754 H 268.268 -3.39193 -5.07721 0
M  V30 2755 H 269.682 -4.72899 -3.24098 0
M  V30 2756 H 268.079 -5.33987 -2.7382 0
M  V30 2757 H 269.149 -4.60006 -1.53372 0
M  V30 2758 N 270.492 0.636531 -1.44174 0
M  V30 2759 C 271.402 1.77754 -1.53103 0
M  V30 2760 C 272.418 1.68928 -0.417034 0
M  V30 2761 O 273.594 1.89801 -0.6736 0
M  V30 2762 C 270.659 3.14115 -1.46741 0
M  V30 2763 C 269.72 3.34612 -2.68948 0
M  V30 2764 C 268.953 4.64467 -2.6288 0
M  V30 2765 O 269.176 5.44919 -1.68581 0
M  V30 2766 O 268.11 4.87049 -3.53648 0
M  V30 2767 H 271.936 1.73174 -2.49489 0
M  V30 2768 H 269.521 0.79709 -1.2636 0
M  V30 2769 H 271.403 3.95412 -1.45696 0
M  V30 2770 H 270.078 3.19249 -0.534975 0
M  V30 2771 H 268.985 2.53014 -2.75562 0
M  V30 2772 H 270.318 3.34336 -3.61221 0
M  V30 2773 N 271.97 1.30982 0.876444 0
M  V30 2774 C 273.247 1.10942 1.61094 0
M  V30 2775 C 273.627 -0.338223 2.08373 0
M  V30 2776 O 272.975 -1.33122 1.85717 0
M  V30 2777 C 273.185 2.11789 2.77392 0
M  V30 2778 C 274.533 2.43965 3.47514 0
M  V30 2779 O 275.557 2.10166 2.87591 0
M  V30 2780 O 274.416 3.01817 4.55597 0
M  V30 2781 H 271.51 0.42667 0.708436 0
M  V30 2782 H 274.056 1.42438 0.922474 0
M  V30 2783 H 272.828 3.09194 2.39823 0
M  V30 2784 H 272.451 1.81161 3.5393 0
M  V30 2785 N 273.449 -1.08991 1.13837 0
M  V30 2786 C 274.696 -1.81258 0.902882 0
M  V30 2787 C 275.024 -1.85936 -0.570803 0
M  V30 2788 O 274.279 -1.3267 -1.43865 0
M  V30 2789 C 274.578 -3.27042 1.44147 0
M  V30 2790 C 274.244 -3.4249 2.93276 0
M  V30 2791 C 272.906 -3.46414 3.33992 0
M  V30 2792 C 275.258 -3.4666 3.892 0
M  V30 2793 C 272.586 -3.52091 4.69307 0
M  V30 2794 C 274.938 -3.53872 5.24364 0
M  V30 2795 C 273.602 -3.56066 5.646 0
M  V30 2796 H 272.872 -0.663268 0.330388 0
M  V30 2797 H 275.519 -1.28368 1.42105 0
M  V30 2798 H 273.824 -3.82599 0.844097 0
M  V30 2799 H 275.521 -3.81499 1.23528 0
M  V30 2800 H 272.111 -3.40124 2.60794 0
M  V30 2801 H 276.295 -3.42865 3.58828 0
M  V30 2802 H 271.551 -3.52079 4.9985 0
M  V30 2803 H 275.725 -3.56043 5.98503 0
M  V30 2804 H 273.352 -3.60218 6.69438 0
M  V30 2805 N 274.927 -0.932562 -1.27047 0
M  V30 2806 C 275.875 -0.42603 -2.28665 0
M  V30 2807 C 276.869 0.49219 -1.62092 0
M  V30 2808 O 278.075 0.371355 -1.76128 0
M  V30 2809 H 274.45 -0.119213 -0.742491 0
M  V30 2810 H 276.421 -1.29579 -2.68797 0
M  V30 2811 C 275.17 0.301426 -3.46391 0
M  V30 2812 H 274.493 -0.39595 -3.97834 0
M  V30 2813 H 275.933 0.6202 -4.1944 0
M  V30 2814 C 274.392 1.51616 -3.00856 0
M  V30 2815 O 274.922 2.61476 -3.04948 0
M  V30 2816 N 273.128 1.36969 -2.56296 0
M  V30 2817 H 272.675 0.475873 -2.53166 0
M  V30 2818 H 272.633 2.18368 -2.26192 0
M  V30 2819 N 276.405 1.4127 -0.698611 0
M  V30 2820 C 277.653 2.00782 -0.230409 0
M  V30 2821 C 277.974 1.5562 1.17505 0
M  V30 2822 O 277.244 0.78815 1.79346 0
M  V30 2823 H 275.824 0.742464 -0.0821944 0
M  V30 2824 H 278.486 1.72852 -0.90045 0
M  V30 2825 H 277.582 3.11095 -0.25021 0
M  V30 2826 N 277.883 0.443576 1.51229 0
M  V30 2827 C 278.831 -0.37904 2.29491 0
M  V30 2828 C 279.825 -1.0153 1.35603 0
M  V30 2829 O 281.031 -0.94955 1.52917 0
M  V30 2830 H 277.406 -0.141053 0.738653 0
M  V30 2831 H 279.377 0.301799 2.9687 0
M  V30 2832 C 278.126 -1.46426 3.15364 0
M  V30 2833 H 277.449 -0.984037 3.87501 0
M  V30 2834 H 278.889 -2.01297 3.7317 0
M  V30 2835 C 277.348 -2.45099 2.31146 0
M  V30 2836 O 277.878 -3.49773 1.9754 0
M  V30 2837 N 276.084 -2.16139 1.94249 0
M  V30 2838 H 275.631 -1.31044 2.21777 0
M  V30 2839 H 275.589 -2.82398 1.38198 0
M  V30 2840 N 279.361 -1.56624 0.175154 0
M  V30 2841 C 280.777 -1.58571 -0.180966 0
M  V30 2842 C 280.977 -1.19065 -1.6256 0
M  V30 2843 O 280.033 -0.904044 -2.35761 0
M  V30 2844 C 281.346 -3.00522 0.103326 0
M  V30 2845 C 282.894 -3.12972 0.0418426 0
M  V30 2846 C 283.369 -4.57022 0.299175 0
M  V30 2847 N 284.86 -4.62541 0.247086 0
M  V30 2848 C 285.595 -5.71857 0.420318 0
M  V30 2849 N 285.091 -6.89717 0.652816 0
M  V30 2850 N 286.884 -5.60972 0.355957 0
M  V30 2851 H 279.035 -1.80589 1.11809 0
M  V30 2852 H 281.298 -0.837178 0.444788 0
M  V30 2853 H 281.004 -3.33916 1.10422 0
M  V30 2854 H 280.878 -3.72344 -0.603299 0
M  V30 2855 H 283.265 -2.79403 -0.949636 0
M  V30 2856 H 283.346 -2.43578 0.781238 0
M  V30 2857 H 282.99 -4.913 1.28788 0
M  V30 2858 H 282.92 -5.24579 -0.460876 0
M  V30 2859 H 285.411 -3.77829 0.0731895 0
M  V30 2860 H 285.724 -7.68911 0.774347 0
M  V30 2861 H 284.069 -6.91572 0.689476 0
M  V30 2862 H 287.26 -4.67773 0.174882 0
M  V30 2863 H 287.433 -6.46111 0.494388 0
M  V30 2864 N 280.839 0.0985539 -1.57292 0
M  V30 2865 C 282.067 0.816318 -1.90115 0
M  V30 2866 C 282.482 1.72451 -0.768509 0
M  V30 2867 O 281.839 1.80643 0.259687 0
M  V30 2868 C 281.89 1.63259 -3.22535 0
M  V30 2869 O 281.611 0.760934 -4.31441 0
M  V30 2870 C 283.112 2.45372 -3.69199 0
M  V30 2871 H 280.332 0.233595 -0.629027 0
M  V30 2872 H 282.876 0.0768229 -2.04356 0
M  V30 2873 H 281.031 2.32463 -3.09903 0
M  V30 2874 H 281.445 1.32595 -5.07463 0
M  V30 2875 H 282.919 2.98144 -4.64558 0
M  V30 2876 H 283.396 3.23677 -2.96867 0
M  V30 2877 H 284.002 1.81373 -3.84687 0
M  V30 2878 N 282.317 1.53212 0.369288 0
M  V30 2879 C 283.564 1.69215 1.11232 0
M  V30 2880 C 283.892 0.442048 1.8941 0
M  V30 2881 O 283.147 -0.575944 1.87033 0
M  V30 2882 C 283.446 2.89101 2.10132 0
M  V30 2883 C 283.112 4.25758 1.48463 0
M  V30 2884 C 281.774 4.6292 1.31372 0
M  V30 2885 C 284.126 5.10757 1.03811 0
M  V30 2886 C 281.454 5.82722 0.68207 0
M  V30 2887 C 283.806 6.31201 0.420487 0
M  V30 2888 C 282.47 6.67079 0.237038 0
M  V30 2889 H 281.74 0.619201 0.407027 0
M  V30 2890 H 284.387 1.87391 0.394552 0
M  V30 2891 H 282.692 2.65421 2.88199 0
M  V30 2892 H 284.389 2.98676 2.6757 0
M  V30 2893 H 280.979 3.96494 1.62758 0
M  V30 2894 H 285.163 4.82599 1.1581 0
M  V30 2895 H 280.419 6.09113 0.528316 0
M  V30 2896 H 284.593 6.96368 0.0662874 0
M  V30 2897 H 282.22 7.59774 -0.254477 0
M  V30 2898 N 283.795 -0.628877 1.44509 0
M  V30 2899 C 284.758 -1.72263 1.51188 0
M  V30 2900 C 285.758 -1.55907 0.39367 0
M  V30 2901 O 286.948 -1.61361 0.656377 0
M  V30 2902 C 284.08 -3.11365 1.38798 0
M  V30 2903 H 285.273 -1.67714 2.4862 0
M  V30 2904 H 282.826 -0.842737 1.31634 0
M  V30 2905 H 283.561 -3.21507 0.424693 0
M  V30 2906 H 283.346 -3.24644 2.19884 0
M  V30 2907 H 284.836 -3.91075 1.46458 0
M  V30 2908 N 285.273 -1.31445 -0.869486 0
M  V30 2909 C 286.223 -1.15731 -1.96444 0
M  V30 2910 C 287.207 -0.0681855 -1.60755 0
M  V30 2911 O 288.399 -0.293154 -1.74555 0
M  V30 2912 C 285.528 -0.867255 -3.32165 0
M  V30 2913 C 284.614 -1.99738 -3.74119 0
M  V30 2914 N 285.005 -3.24447 -3.88031 0
M  V30 2915 C 283.303 -1.89723 -4.03635 0
M  V30 2916 C 284.004 -3.98374 -4.23879 0
M  V30 2917 N 282.98 -3.26547 -4.3459 0
M  V30 2918 H 286.782 -2.10296 -2.05312 0
M  V30 2919 H 284.296 -1.23009 -1.06031 0
M  V30 2920 H 286.293 -0.735668 -4.10358 0
M  V30 2921 H 284.953 0.0701614 -3.24624 0
M  V30 2922 H 285.964 -3.59557 -3.72746 0
M  V30 2923 H 282.641 -1.03449 -4.04481 0
M  V30 2924 H 284.031 -5.05844 -4.42235 0
M  V30 2925 N 286.751 1.08385 -1.14413 0
M  V30 2926 C 287.981 1.8425 -0.934644 0
M  V30 2927 C 288.389 1.81907 0.520234 0
M  V30 2928 O 287.732 1.22126 1.37226 0
M  V30 2929 C 287.794 3.32853 -1.35828 0
M  V30 2930 C 287.458 3.5893 -2.82875 0
M  V30 2931 C 288.455 3.53756 -3.80989 0
M  V30 2932 C 286.14 3.86934 -3.20293 0
M  V30 2933 C 288.134 3.76216 -5.14529 0
M  V30 2934 C 285.821 4.09047 -4.54008 0
M  V30 2935 C 286.819 4.03682 -5.50936 0
M  V30 2936 O 286.507 4.25214 -6.82238 0
M  V30 2937 H 286.239 0.588502 -0.332628 0
M  V30 2938 H 288.793 1.37792 -1.52324 0
M  V30 2939 H 287.023 3.8007 -0.713019 0
M  V30 2940 H 288.712 3.90154 -1.11957 0
M  V30 2941 H 289.478 3.32135 -3.53428 0
M  V30 2942 H 285.357 3.9023 -2.45442 0
M  V30 2943 H 288.901 3.71943 -5.90173 0
M  V30 2944 H 284.798 4.30151 -4.8129 0
M  V30 2945 H 285.566 4.42619 -6.88499 0
M  V30 2946 N 288.23 0.939286 1.26551 0
M  V30 2947 C 289.193 0.451987 2.24699 0
M  V30 2948 C 290.193 -0.435869 1.5478 0
M  V30 2949 O 291.383 -0.235314 1.72603 0
M  V30 2950 C 288.515 -0.348801 3.39111 0
M  V30 2951 H 289.708 1.3193 2.69322 0
M  V30 2952 H 287.261 0.721072 1.38673 0
M  V30 2953 H 287.996 -1.23444 2.99887 0
M  V30 2954 H 287.781 0.287945 3.91041 0
M  V30 2955 H 289.271 -0.679726 4.12031 0
M  V30 2956 N 289.708 -1.40897 0.706093 0
M  V30 2957 C 290.936 -2.05373 0.250887 0
M  V30 2958 C 291.351 -1.53172 -1.10381 0
M  V30 2959 O 290.708 -0.684305 -1.69185 0
M  V30 2960 C 290.759 -3.6088 0.211571 0
M  V30 2961 O 290.48 -4.11153 1.51276 0
M  V30 2962 C 291.981 -4.42517 -0.263346 0
M  V30 2963 H 289.201 -0.66115 0.114552 0
M  V30 2964 H 291.745 -1.80479 0.961635 0
M  V30 2965 H 289.9 -3.84777 -0.450073 0
M  V30 2966 H 290.314 -5.05279 1.40689 0
M  V30 2967 H 291.788 -5.51479 -0.239718 0
M  V30 2968 H 292.265 -4.19396 -1.30397 0
M  V30 2969 H 292.871 -4.23708 0.367677 0
M  V30 2970 N 291.186 -0.45159 -1.50991 0
M  V30 2971 C 292.433 0.110074 -2.02201 0
M  V30 2972 C 292.761 1.4146 -1.33489 0
M  V30 2973 O 292.016 1.90617 -0.443125 0
M  V30 2974 C 292.315 0.361728 -3.55565 0
M  V30 2975 C 291.981 -0.858717 -4.42648 0
M  V30 2976 C 290.643 -1.19338 -4.66167 0
M  V30 2977 C 292.995 -1.67221 -4.93646 0
M  V30 2978 C 290.323 -2.34195 -5.37931 0
M  V30 2979 C 292.675 -2.8119 -5.6667 0
M  V30 2980 C 291.339 -3.15094 -5.88449 0
M  V30 2981 H 290.609 0.040279 -0.739904 0
M  V30 2982 H 293.256 -0.601696 -1.81802 0
M  V30 2983 H 291.561 1.15554 -3.74372 0
M  V30 2984 H 293.258 0.80996 -3.92735 0
M  V30 2985 H 289.848 -0.58796 -4.24548 0
M  V30 2986 H 294.032 -1.42686 -4.75347 0
M  V30 2987 H 289.288 -2.6076 -5.53005 0
M  V30 2988 H 293.462 -3.44585 -6.05173 0
M  V30 2989 H 291.089 -4.04204 -6.43835 0
M  V30 2990 N 292.664 1.56529 -0.183458 0
M  V30 2991 C 294.08 1.58664 0.172554 0
M  V30 2992 C 294.28 1.19925 1.61926 0
M  V30 2993 O 293.336 0.916534 2.35278 0
M  V30 2994 C 294.649 3.00463 -0.119262 0
M  V30 2995 C 296.197 3.12945 -0.0584396 0
M  V30 2996 C 296.672 4.56857 -0.323408 0
M  V30 2997 N 298.163 4.62403 -0.271612 0
M  V30 2998 C 298.898 5.71626 -0.450639 0
M  V30 2999 N 298.394 6.89362 -0.689384 0
M  V30 3000 N 300.187 5.60775 -0.385701 0
M  V30 3001 H 292.338 1.79994 -1.12765 0
M  V30 3002 H 294.601 0.834808 -0.449222 0
M  V30 3003 H 294.307 3.33326 -1.12192 0
M  V30 3004 H 294.181 3.72659 0.583544 0
M  V30 3005 H 296.568 2.79902 0.934805 0
M  V30 3006 H 296.649 2.4316 -0.794144 0
M  V30 3007 H 296.293 4.9061 -1.31392 0
M  V30 3008 H 296.223 5.24816 0.43305 0
M  V30 3009 H 298.714 3.77785 -0.0932256 0
M  V30 3010 H 299.027 7.68489 -0.815113 0
M  V30 3011 H 297.372 6.91196 -0.726142 0
M  V30 3012 H 300.563 4.67674 -0.199687 0
M  V30 3013 H 300.736 6.4584 -0.528646 0
M  V30 3014 N 294.142 -0.090211 1.57342 0
M  V30 3015 C 295.072 -1.10976 2.05443 0
M  V30 3016 C 296.053 -1.41482 0.944284 0
M  V30 3017 O 297.238 -1.51428 1.21586 0
M  V30 3018 C 294.368 -2.42831 2.48295 0
M  V30 3019 C 293.322 -2.26721 3.63018 0
M  V30 3020 C 292.648 -3.63796 3.91863 0
M  V30 3021 C 293.948 -1.7037 4.93732 0
M  V30 3022 H 295.642 -0.709564 2.9087 0
M  V30 3023 H 293.188 -0.339874 1.39932 0
M  V30 3024 H 295.141 -3.14431 2.80555 0
M  V30 3025 H 293.865 -2.84795 1.59873 0
M  V30 3026 H 292.524 -1.57565 3.31012 0
M  V30 3027 H 292.172 -4.03297 3.00601 0
M  V30 3028 H 291.872 -3.53861 4.69101 0
M  V30 3029 H 293.396 -4.36855 4.26603 0
M  V30 3030 H 294.81 -2.31816 5.24342 0
M  V30 3031 H 293.207 -1.71181 5.75167 0
M  V30 3032 H 294.277 -0.663542 4.80339 0
M  V30 3033 N 295.62 -1.53406 -0.361157 0
M  V30 3034 C 296.55 -1.83136 -1.44857 0
M  V30 3035 C 297.531 -0.685174 -1.5569 0
M  V30 3036 O 298.716 -0.93544 -1.70186 0
M  V30 3037 C 295.846 -2.02522 -2.82138 0
M  V30 3038 C 294.8 -3.18302 -2.86126 0
M  V30 3039 C 294.126 -3.22989 -4.26125 0
M  V30 3040 C 295.426 -4.56796 -2.53248 0
M  V30 3041 H 297.12 -2.74201 -1.20226 0
M  V30 3042 H 294.666 -1.31938 -0.576922 0
M  V30 3043 H 296.619 -2.21904 -3.58241 0
M  V30 3044 H 295.343 -1.08172 -3.08166 0
M  V30 3045 H 294.002 -2.98747 -2.12475 0
M  V30 3046 H 293.65 -2.26267 -4.49235 0
M  V30 3047 H 293.35 -4.00781 -4.29708 0
M  V30 3048 H 294.874 -3.44559 -5.04094 0
M  V30 3049 H 296.288 -4.7631 -3.19064 0
M  V30 3050 H 294.685 -5.36862 -2.68141 0
M  V30 3051 H 295.755 -4.61606 -1.48484 0
M  V30 3052 N 297.098 0.621204 -1.44841 0
M  V30 3053 C 298.346 1.37783 -1.47852 0
M  V30 3054 C 298.667 1.94653 -0.116224 0
M  V30 3055 O 297.937 1.76367 0.852737 0
M  V30 3056 H 296.517 0.511453 -0.544449 0
M  V30 3057 H 299.179 0.730446 -1.80694 0
M  V30 3058 H 298.275 2.20414 -2.20961 0
M  V30 3059 N 298.576 1.31904 0.862503 0
M  V30 3060 C 299.486 1.22161 2.00285 0
M  V30 3061 C 300.502 0.136785 1.73462 0
M  V30 3062 O 301.678 0.355994 1.98229 0
M  V30 3063 C 298.743 0.937093 3.33796 0
M  V30 3064 C 297.804 2.10957 3.73893 0
M  V30 3065 C 297.037 1.83853 5.01033 0
M  V30 3066 O 297.26 0.777274 5.65079 0
M  V30 3067 O 296.194 2.69741 5.38074 0
M  V30 3068 H 300.02 2.18008 2.11439 0
M  V30 3069 H 297.605 1.11716 0.991957 0
M  V30 3070 H 299.487 0.794583 4.13841 0
M  V30 3071 H 298.162 0.00871894 3.23699 0
M  V30 3072 H 297.069 2.30752 2.94456 0
M  V30 3073 H 298.402 3.02046 3.88625 0
M  V30 3074 N 300.054 -1.07777 1.14986 0
M  V30 3075 C 301.3 -1.80557 0.923422 0
M  V30 3076 C 301.633 -1.86298 -0.548337 0
M  V30 3077 O 300.908 -1.34354 -1.40639 0
M  V30 3078 C 301.191 -3.25839 1.53299 0
M  V30 3079 C 301.044 -3.28269 3.07505 0
M  V30 3080 C 302.363 -4.22991 1.21518 0
M  V30 3081 H 299.482 -0.655493 0.336894 0
M  V30 3082 H 302.124 -1.26144 1.42083 0
M  V30 3083 H 300.274 -3.72306 1.10999 0
M  V30 3084 H 301.946 -2.90079 3.58681 0
M  V30 3085 H 300.189 -2.67355 3.4162 0
M  V30 3086 H 300.86 -4.30691 3.45266 0
M  V30 3087 H 303.336 -3.84894 1.581 0
M  V30 3088 H 302.212 -5.22945 1.66793 0
M  V30 3089 H 302.473 -4.41904 0.131505 0
M  V30 3090 N 301.532 -0.945985 -1.26051 0
M  V30 3091 C 302.809 -0.513816 -1.88731 0
M  V30 3092 C 303.189 1.00872 -1.8544 0
M  V30 3093 O 302.537 1.8708 -1.312 0
M  V30 3094 C 302.747 -1.08062 -3.31849 0
M  V30 3095 C 304.095 -1.1522 -4.08668 0
M  V30 3096 O 305.119 -1.03155 -3.40936 0
M  V30 3097 O 303.978 -1.34044 -5.29806 0
M  V30 3098 H 301.072 -0.168193 -0.809716 0
M  V30 3099 H 303.618 -1.03886 -1.34186 0
M  V30 3100 H 302.39 -2.1241 -3.2863 0
M  V30 3101 H 302.013 -0.538307 -3.93939 0
M  V30 3102 N 303.011 1.40521 -0.713556 0
M  V30 3103 C 303.961 2.27971 -0.036165 0
M  V30 3104 C 304.945 1.43151 0.734623 0
M  V30 3105 O 306.137 1.66261 0.607158 0
M  V30 3106 C 303.266 3.31661 0.886331 0
M  V30 3107 C 302.352 4.23955 0.110836 0
M  V30 3108 N 302.743 4.97641 -0.904847 0
M  V30 3109 C 301.041 4.44674 0.343692 0
M  V30 3110 C 301.742 5.65322 -1.37064 0
M  V30 3111 N 300.718 5.39162 -0.693168 0
M  V30 3112 H 304.52 2.82384 -0.814645 0
M  V30 3113 H 302.034 1.52948 -0.545963 0
M  V30 3114 H 304.031 3.93154 1.38692 0
M  V30 3115 H 302.691 2.78808 1.66421 0
M  V30 3116 H 303.702 5.01689 -1.28563 0
M  V30 3117 H 300.379 4.02801 1.09805 0
M  V30 3118 H 301.769 6.34359 -2.21447 0
M  V30 3119 N 304.489 0.459591 1.5075 0
M  V30 3120 C 305.719 -0.0972338 2.06371 0
M  V30 3121 C 306.127 -1.35074 1.32483 0
M  V30 3122 O 305.47 -1.79637 0.384226 0
M  V30 3123 C 305.532 -0.462759 3.56509 0
M  V30 3124 C 305.196 0.687084 4.51805 0
M  V30 3125 C 306.193 1.56578 4.95761 0
M  V30 3126 C 303.878 0.874144 4.94635 0
M  V30 3127 C 305.872 2.61604 5.81242 0
M  V30 3128 C 303.559 1.92765 5.79901 0
M  V30 3129 C 304.557 2.79697 6.23104 0
M  V30 3130 O 304.245 3.83235 7.06673 0
M  V30 3131 H 303.977 -0.00140687 0.675999 0
M  V30 3132 H 306.531 0.644011 1.95043 0
M  V30 3133 H 304.761 -1.25703 3.65699 0
M  V30 3134 H 306.45 -0.953323 3.94546 0
M  V30 3135 H 307.216 1.4329 4.6335 0
M  V30 3136 H 303.095 0.207006 4.60535 0
M  V30 3137 H 306.639 3.29489 6.14884 0
M  V30 3138 H 302.536 2.06064 6.11725 0
M  V30 3139 H 303.304 3.80084 7.24899 0
M  V30 3140 N 305.967 -1.56429 0.191757 0
M  V30 3141 C 306.899 -2.16154 -0.762245 0
M  V30 3142 C 307.912 -1.12247 -1.17917 0
M  V30 3143 O 309.101 -1.39353 -1.11548 0
M  V30 3144 C 306.201 -2.70606 -2.04024 0
M  V30 3145 C 305.374 -3.99381 -1.78364 0
M  V30 3146 C 304.433 -4.38692 -2.90578 0
M  V30 3147 O 303.459 -5.06179 -2.6033 0
M  V30 3148 N 304.661 -4.01922 -4.18854 0
M  V30 3149 H 307.426 -2.98643 -0.251526 0
M  V30 3150 H 304.987 -1.61897 0.00967373 0
M  V30 3151 H 306.979 -2.93891 -2.78227 0
M  V30 3152 H 305.549 -1.9259 -2.46227 0
M  V30 3153 H 304.769 -3.84262 -0.879581 0
M  V30 3154 H 306.057 -4.83445 -1.58614 0
M  V30 3155 H 305.455 -3.47631 -4.46283 0
M  V30 3156 H 304.012 -4.30165 -4.89695 0
M  V30 3157 N 307.445 0.0818655 -1.57387 0
M  V30 3158 C 308.375 1.09885 -2.06028 0
M  V30 3159 C 309.356 1.4098 -0.951774 0
M  V30 3160 O 310.541 1.50781 -1.22387 0
M  V30 3161 C 307.671 2.4151 -2.4958 0
M  V30 3162 C 306.625 2.24792 -3.64215 0
M  V30 3163 C 305.951 3.61712 -3.93787 0
M  V30 3164 C 307.251 1.67749 -4.94629 0
M  V30 3165 H 308.945 0.694128 -2.91243 0
M  V30 3166 H 306.491 0.332448 -1.4011 0
M  V30 3167 H 308.444 3.12939 -2.82219 0
M  V30 3168 H 307.168 2.83943 -1.61381 0
M  V30 3169 H 305.827 1.55807 -3.31843 0
M  V30 3170 H 305.475 4.01697 -3.02735 0
M  V30 3171 H 305.175 3.51368 -4.70971 0
M  V30 3172 H 306.699 4.34587 -4.28913 0
M  V30 3173 H 308.113 2.29032 -5.25564 0
M  V30 3174 H 306.51 1.68128 -5.76067 0
M  V30 3175 H 307.58 0.638059 -4.80684 0
M  V30 3176 N 308.923 1.53595 0.353017 0
M  V30 3177 C 309.886 1.80232 1.41594 0
M  V30 3178 C 310.886 0.673081 1.46035 0
M  V30 3179 O 312.076 0.941335 1.46576 0
M  V30 3180 C 309.208 1.93578 2.80607 0
M  V30 3181 H 310.401 2.75174 1.19244 0
M  V30 3182 H 307.954 1.44864 0.586872 0
M  V30 3183 H 308.689 1.00746 3.08254 0
M  V30 3184 H 308.474 2.75724 2.78781 0
M  V30 3185 H 309.964 2.15735 3.57558 0
M  V30 3186 N 310.401 -0.613514 1.45168 0
M  V30 3187 C 311.331 -1.7354 1.56225 0
M  V30 3188 C 312.312 -1.64981 0.41414 0
M  V30 3189 O 313.497 -1.83472 0.636526 0
M  V30 3190 C 310.627 -3.12128 1.52295 0
M  V30 3191 C 309.581 -3.35491 2.65762 0
M  V30 3192 C 308.907 -4.74291 2.46885 0
M  V30 3193 C 310.207 -3.26325 4.0781 0
M  V30 3194 H 311.901 -1.64543 2.50132 0
M  V30 3195 H 309.447 -0.790185 1.20383 0
M  V30 3196 H 311.4 -3.90404 1.58628 0
M  V30 3197 H 310.124 -3.2195 0.549139 0
M  V30 3198 H 308.783 -2.59603 2.58847 0
M  V30 3199 H 308.431 -4.80839 1.47657 0
M  V30 3200 H 308.131 -4.9088 3.22972 0
M  V30 3201 H 309.655 -5.54775 2.55063 0
M  V30 3202 H 311.069 -3.94483 4.16 0
M  V30 3203 H 309.466 -3.54445 4.8424 0
M  V30 3204 H 310.536 -2.23855 4.30136 0
M  V30 3205 N 311.879 -1.3236 -0.855495 0
M  V30 3206 C 313.127 -1.22629 -1.60644 0
M  V30 3207 C 313.448 0.212136 -1.93843 0
M  V30 3208 O 312.718 1.13666 -1.59552 0
M  V30 3209 H 311.298 -0.450882 -0.595579 0
M  V30 3210 H 313.96 -1.65871 -1.02337 0
M  V30 3211 H 313.056 -1.80832 -2.54374 0
M  V30 3212 N 313.357 1.07166 -1.15556 0
M  V30 3213 C 314.304 2.14417 -0.854055 0
M  V30 3214 C 315.274 1.64965 0.193806 0
M  V30 3215 O 316.459 1.90703 0.0609443 0
M  V30 3216 C 313.599 3.43304 -0.351574 0
M  V30 3217 C 312.712 4.06537 -1.46123 0
M  V30 3218 C 311.847 5.23266 -0.914677 0
M  V30 3219 C 310.886 5.78464 -2.00114 0
M  V30 3220 N 310.023 6.86521 -1.47083 0
M  V30 3221 H 314.863 2.39548 -1.77259 0
M  V30 3222 H 312.4 1.17543 -0.884425 0
M  V30 3223 H 314.358 4.17179 -0.0419409 0
M  V30 3224 H 312.988 3.18419 0.530037 0
M  V30 3225 H 312.04 3.30297 -1.88701 0
M  V30 3226 H 313.352 4.43567 -2.28144 0
M  V30 3227 H 312.506 6.04131 -0.557698 0
M  V30 3228 H 311.245 4.87658 -0.0636583 0
M  V30 3229 H 310.25 4.96243 -2.36692 0
M  V30 3230 H 311.475 6.16126 -2.85597 0
M  V30 3231 H 309.421 6.52849 -0.642198 0
M  V30 3232 H 309.338 7.22446 -2.22729 0
M  V30 3233 H 310.606 7.71087 -1.14215 0
M  V30 3234 N 314.835 0.952656 1.25548 0
M  V30 3235 C 316.082 0.606373 1.93208 0
M  V30 3236 C 316.41 -0.85631 1.74636 0
M  V30 3237 O 315.665 -1.62951 1.08376 0
M  V30 3238 C 315.964 0.908818 3.45652 0
M  V30 3239 C 315.63 2.35722 3.84378 0
M  V30 3240 C 314.292 2.75312 3.9466 0
M  V30 3241 C 316.644 3.29793 4.03591 0
M  V30 3242 C 313.972 4.08047 4.21562 0
M  V30 3243 C 316.324 4.62138 4.31985 0
M  V30 3244 C 314.988 5.01528 4.40484 0
M  V30 3245 H 314.258 0.221888 0.706998 0
M  V30 3246 H 316.905 1.20132 1.49133 0
M  V30 3247 H 315.21 0.231456 3.91116 0
M  V30 3248 H 316.907 0.619498 3.96186 0
M  V30 3249 H 313.497 2.04017 3.76928 0
M  V30 3250 H 317.681 3.00397 3.95064 0
M  V30 3251 H 312.937 4.38212 4.26357 0
M  V30 3252 H 317.111 5.35012 4.45797 0
M  V30 3253 H 314.738 6.04406 4.61083 0
M  V30 3254 N 316.313 -1.40141 0.720998 0
M  V30 3255 C 317.538 -2.05618 0.271258 0
M  V30 3256 C 317.963 -1.53978 -1.08039 0
M  V30 3257 O 317.321 -0.677463 -1.68167 0
M  V30 3258 C 317.369 -3.59609 0.267197 0
M  V30 3259 O 316.473 -4.05526 -0.749814 0
M  V30 3260 H 315.814 -0.651904 0.126162 0
M  V30 3261 H 318.344 -1.79439 0.982997 0
M  V30 3262 H 318.354 -4.0786 0.106744 0
M  V30 3263 H 317.029 -3.96559 1.25354 0
M  V30 3264 H 315.606 -3.68722 -0.556644 0
M  V30 3265 N 317.792 -0.46758 -1.50504 0
M  V30 3266 C 318.702 0.33382 -2.32213 0
M  V30 3267 C 319.718 0.999323 -1.42441 0
M  V30 3268 O 320.894 0.988068 -1.75497 0
M  V30 3269 C 317.959 1.4035 -3.17022 0
M  V30 3270 C 317.02 0.754961 -4.2261 0
M  V30 3271 C 316.253 1.77367 -5.03365 0
M  V30 3272 O 316.476 2.99976 -4.8515 0
M  V30 3273 O 315.41 1.34744 -5.86624 0
M  V30 3274 H 319.236 -0.334067 -3.01857 0
M  V30 3275 H 316.821 -0.229496 -1.47627 0
M  V30 3276 H 318.703 2.02318 -3.69656 0
M  V30 3277 H 317.378 2.05492 -2.5011 0
M  V30 3278 H 316.285 0.0964244 -3.73976 0
M  V30 3279 H 317.618 0.146545 -4.91982 0
M  V30 3280 N 319.27 1.56325 -0.20005 0
M  V30 3281 C 320.518 1.97329 0.436547 0
M  V30 3282 C 320.839 1.08826 1.61808 0
M  V30 3283 O 320.109 0.160604 1.95241 0
M  V30 3284 H 318.689 0.728714 0.164272 0
M  V30 3285 H 321.351 1.92761 -0.287937 0
M  V30 3286 H 320.447 3.02264 0.777353 0
M  V30 3287 N 320.748 -0.0735177 1.57428 0
M  V30 3288 C 321.976 -0.785969 1.9139 0
M  V30 3289 C 322.391 -1.71207 0.795847 0
M  V30 3290 O 321.748 -1.81033 -0.230915 0
M  V30 3291 C 321.799 -1.58107 3.25091 0
M  V30 3292 O 321.52 -0.6922 4.32597 0
M  V30 3293 C 323.021 -2.39467 3.73055 0
M  V30 3294 H 320.241 -0.223558 0.632663 0
M  V30 3295 H 322.785 -0.044302 2.04452 0
M  V30 3296 H 320.94 -2.27503 3.13562 0
M  V30 3297 H 321.354 -1.24504 5.09508 0
M  V30 3298 H 322.828 -2.90716 4.69242 0
M  V30 3299 H 323.305 -3.18913 3.01979 0
M  V30 3300 H 323.911 -1.7523 3.87523 0
M  V30 3301 N 322.226 -1.5378 -0.344866 0
M  V30 3302 C 323.189 -1.80981 -1.40637 0
M  V30 3303 C 324.189 -0.680816 -1.45676 0
M  V30 3304 O 325.379 -0.949095 -1.46075 0
M  V30 3305 C 322.511 -1.95063 -2.79577 0
M  V30 3306 H 323.704 -2.75803 -1.17783 0
M  V30 3307 H 321.257 -1.45173 -0.579181 0
M  V30 3308 H 321.992 -1.02379 -3.07716 0
M  V30 3309 H 321.777 -2.77198 -2.77315 0
M  V30 3310 H 323.267 -2.17629 -3.56409 0
M  V30 3311 N 323.704 0.605807 -1.45491 0
M  V30 3312 C 324.952 1.36207 -1.49305 0
M  V30 3313 C 325.273 1.94519 -0.136863 0
M  V30 3314 O 324.543 1.77261 0.833983 0
M  V30 3315 H 323.123 0.50565 -0.549843 0
M  V30 3316 H 325.785 0.711239 -1.81459 0
M  V30 3317 H 324.881 2.18058 -2.23287 0
M  V30 3318 N 325.182 1.32811 0.848464 0
M  V30 3319 C 326.459 1.14334 1.58704 0
M  V30 3320 C 326.839 -0.293948 2.09043 0
M  V30 3321 O 326.187 -1.29153 1.88499 0
M  V30 3322 C 326.397 2.17626 2.72837 0
M  V30 3323 C 327.745 2.51282 3.42261 0
M  V30 3324 O 328.769 2.16219 2.83068 0
M  V30 3325 O 327.628 3.11413 4.49093 0
M  V30 3326 H 324.722 0.441601 0.699226 0
M  V30 3327 H 327.268 1.44362 0.892053 0
M  V30 3328 H 326.04 3.14211 2.3321 0
M  V30 3329 H 325.663 1.88628 3.50008 0
M  V30 3330 N 326.66 -1.06551 1.16123 0
M  V30 3331 C 327.885 -1.83544 0.965735 0
M  V30 3332 C 328.31 -1.81843 -0.481102 0
M  V30 3333 O 327.668 -1.21732 -1.34354 0
M  V30 3334 C 327.716 -3.28169 1.49457 0
M  V30 3335 O 326.82 -4.0643 0.699157 0
M  V30 3336 H 326.161 -0.568026 0.343864 0
M  V30 3337 H 328.691 -1.34362 1.54299 0
M  V30 3338 H 328.701 -3.78992 1.51092 0
M  V30 3339 H 327.376 -3.28722 2.54784 0
M  V30 3340 H 325.953 -3.65216 0.7531 0
M  V30 3341 N 328.138 -0.959301 -1.25041 0
M  V30 3342 C 329.068 -0.501388 -2.28053 0
M  V30 3343 C 330.049 0.454673 -1.63911 0
M  V30 3344 O 331.234 0.352618 -1.90972 0
M  V30 3345 C 328.364 0.217224 -3.4662 0
M  V30 3346 C 327.318 -0.654034 -4.22973 0
M  V30 3347 C 326.644 0.195589 -5.34342 0
M  V30 3348 C 327.944 -1.93447 -4.85155 0
M  V30 3349 H 329.638 -1.36238 -2.66608 0
M  V30 3350 H 327.184 -0.656534 -1.28163 0
M  V30 3351 H 329.137 0.548732 -4.17812 0
M  V30 3352 H 327.861 1.1125 -3.07068 0
M  V30 3353 H 326.52 -0.968693 -3.5357 0
M  V30 3354 H 326.168 1.09076 -4.91031 0
M  V30 3355 H 325.868 -0.384091 -5.86343 0
M  V30 3356 H 327.392 0.521958 -6.08365 0
M  V30 3357 H 328.806 -1.66908 -5.48466 0
M  V30 3358 H 327.203 -2.46018 -5.47353 0
M  V30 3359 H 328.273 -2.63466 -4.07079 0
M  V30 3360 N 329.616 1.39756 -0.72842 0
M  V30 3361 C 330.841 2.05472 -0.282159 0
M  V30 3362 C 331.266 1.54549 1.07221 0
M  V30 3363 O 330.624 0.686372 1.67805 0
M  V30 3364 C 330.672 3.59462 -0.286264 0
M  V30 3365 O 329.776 4.05918 0.728298 0
M  V30 3366 H 329.117 0.651226 -0.129618 0
M  V30 3367 H 331.647 1.78915 -0.992499 0
M  V30 3368 H 331.657 4.07798 -0.128373 0
M  V30 3369 H 330.332 3.95889 -1.27456 0
M  V30 3370 H 328.909 3.69012 0.537081 0
M  V30 3371 N 331.094 0.475555 1.50254 0
M  V30 3372 C 332.024 -0.30611 2.31485 0
M  V30 3373 C 333.005 -0.986228 1.38591 0
M  V30 3374 O 334.19 -0.982541 1.67511 0
M  V30 3375 C 331.32 -1.38588 3.1845 0
M  V30 3376 C 330.274 -0.827115 4.19932 0
M  V30 3377 C 329.6 -2.00551 4.95665 0
M  V30 3378 C 330.9 0.16463 5.2204 0
M  V30 3379 H 332.594 0.371866 2.97082 0
M  V30 3380 H 330.14 0.180282 1.42867 0
M  V30 3381 H 332.093 -1.94023 3.74076 0
M  V30 3382 H 330.817 -2.09269 2.50747 0
M  V30 3383 H 329.476 -0.294702 3.65414 0
M  V30 3384 H 329.124 -2.6994 4.2443 0
M  V30 3385 H 328.824 -1.63784 5.64313 0
M  V30 3386 H 330.348 -2.56468 5.54127 0
M  V30 3387 H 331.762 -0.300699 5.72511 0
M  V30 3388 H 330.159 0.446813 5.98434 0
M  V30 3389 H 331.229 1.08905 4.72512 0
M  V30 3390 N 332.573 -1.56217 0.208337 0
M  V30 3391 C 333.523 -2.16324 -0.720281 0
M  V30 3392 C 334.507 -1.10775 -1.16695 0
M  V30 3393 O 335.699 -1.36801 -1.12314 0
M  V30 3394 C 332.828 -2.83644 -1.93393 0
M  V30 3395 C 331.914 -3.96401 -1.50755 0
M  V30 3396 N 332.305 -4.99546 -0.792937 0
M  V30 3397 C 330.603 -4.08246 -1.79585 0
M  V30 3398 C 331.304 -5.78828 -0.577364 0
M  V30 3399 N 330.28 -5.31723 -1.1301 0
M  V30 3400 H 334.082 -2.93432 -0.165725 0
M  V30 3401 H 331.596 -1.62397 0.00906463 0
M  V30 3402 H 333.593 -3.25107 -2.60981 0
M  V30 3403 H 332.253 -2.08027 -2.49308 0
M  V30 3404 H 333.264 -5.15967 -0.447004 0
M  V30 3405 H 329.941 -3.4377 -2.36915 0
M  V30 3406 H 331.331 -6.71899 -0.00952956 0
M  V30 3407 N 334.051 0.0651679 -1.57465 0
M  V30 3408 C 335.276 0.779605 -1.9219 0
M  V30 3409 C 335.701 1.69988 -0.805333 0
M  V30 3410 O 335.059 1.79685 0.241435 0
M  V30 3411 C 335.107 1.54364 -3.2589 0
M  V30 3412 O 334.211 2.65474 -3.1559 0
M  V30 3413 H 333.552 0.212249 -0.629163 0
M  V30 3414 H 336.082 0.0314294 -2.04576 0
M  V30 3415 H 336.092 1.92146 -3.59922 0
M  V30 3416 H 334.767 0.868457 -4.06732 0
M  V30 3417 H 333.344 2.30501 -2.93128 0
M  V30 3418 N 335.529 1.53961 0.336706 0
M  V30 3419 C 336.777 1.71197 1.07405 0
M  V30 3420 C 337.098 0.481475 1.88962 0
M  V30 3421 O 336.368 -0.504585 1.8929 0
M  V30 3422 H 334.948 0.631185 0.399517 0
M  V30 3423 H 337.61 1.91232 0.376323 0
M  V30 3424 H 336.706 2.58587 1.74755 0
M  V30 3425 N 337.007 -0.598083 1.45811 0
M  V30 3426 C 338.423 -0.919847 1.30426 0
M  V30 3427 C 338.623 -1.99759 0.264303 0
M  V30 3428 O 337.679 -2.50221 -0.338472 0
M  V30 3429 C 338.992 -1.35176 2.68603 0
M  V30 3430 C 340.54 -1.46546 2.76574 0
M  V30 3431 C 341.015 -1.9311 4.15298 0
M  V30 3432 N 342.506 -2.00328 4.1764 0
M  V30 3433 C 343.241 -2.37599 5.21856 0
M  V30 3434 N 342.737 -2.73771 6.36413 0
M  V30 3435 N 344.53 -2.38021 5.09218 0
M  V30 3436 H 336.681 0.114111 2.12093 0
M  V30 3437 H 338.944 -0.0116121 0.947929 0
M  V30 3438 H 338.65 -0.633969 3.45939 0
M  V30 3439 H 338.524 -2.3164 2.97696 0
M  V30 3440 H 340.911 -2.17415 1.99537 0
M  V30 3441 H 340.992 -0.483727 2.51185 0
M  V30 3442 H 340.636 -1.22824 4.92825 0
M  V30 3443 H 340.566 -2.92213 4.38086 0
M  V30 3444 H 343.057 -1.74925 3.34977 0
M  V30 3445 H 343.37 -3.0112 7.11721 0
M  V30 3446 H 341.715 -2.71445 6.39799 0
M  V30 3447 H 344.906 -2.09174 4.18765 0
M  V30 3448 H 345.079 -2.66741 5.90554 0
M  V30 3449 N 338.485 -1.33259 -0.841409 0
M  V30 3450 C 339.896 -1.22066 -1.41269 0
M  V30 3451 C 340.247 0.161479 -1.95534 0
M  V30 3452 O 339.372 1.06094 -1.88608 0
M  V30 3453 C 339.967 -2.20996 -2.568 0
M  V30 3454 C 338.526 -2.13649 -3.09888 0
M  V30 3455 C 337.673 -2.08623 -1.82679 0
M  V30 3456 H 340.624 -1.44895 -0.647395 0
M  V30 3457 H 340.645 -1.81621 -3.34356 0
M  V30 3458 H 340.157 -3.2158 -2.17274 0
M  V30 3459 H 338.258 -1.16359 -3.53965 0
M  V30 3460 H 338.371 -3.04079 -3.70234 0
M  V30 3461 H 336.735 -1.54061 -2.02824 0
M  V30 3462 H 337.518 -3.1101 -1.45353 0
M  V30 3463 N 339.963 1.05934 -1.16686 0
M  V30 3464 C 341.21 1.788 -0.950622 0
M  V30 3465 C 341.538 1.87384 0.521305 0
M  V30 3466 O 340.793 1.36438 1.40297 0
M  V30 3467 C 341.092 3.23105 -1.52767 0
M  V30 3468 C 340.758 3.34594 -3.02254 0
M  V30 3469 C 339.42 3.37437 -3.43059 0
M  V30 3470 C 341.772 3.36219 -3.98254 0
M  V30 3471 C 339.1 3.39525 -4.78477 0
M  V30 3472 C 341.452 3.39845 -5.33562 0
M  V30 3473 C 340.116 3.40971 -5.73842 0
M  V30 3474 H 339.386 0.654275 -0.347857 0
M  V30 3475 H 342.033 1.24555 -1.45459 0
M  V30 3476 H 340.338 3.80227 -0.94524 0
M  V30 3477 H 342.035 3.7809 -1.336 0
M  V30 3478 H 338.625 3.3309 -2.6972 0
M  V30 3479 H 342.809 3.33231 -3.67792 0
M  V30 3480 H 338.065 3.38703 -5.09009 0
M  V30 3481 H 342.239 3.4005 -6.07733 0
M  V30 3482 H 339.866 3.42342 -6.78753 0
M  V30 3483 N 341.441 0.965919 1.2453 0
M  V30 3484 C 342.669 0.644385 1.96609 0
M  V30 3485 C 343.084 -0.785823 1.71669 0
M  V30 3486 O 342.441 -1.52703 0.999399 0
M  V30 3487 C 342.492 0.907375 3.49927 0
M  V30 3488 O 342.213 2.28136 3.74013 0
M  V30 3489 C 343.714 0.599784 4.39224 0
M  V30 3490 H 340.934 0.240588 0.626385 0
M  V30 3491 H 343.478 1.29337 1.58405 0
M  V30 3492 H 341.633 0.304631 3.862 0
M  V30 3493 H 342.047 2.36002 4.68405 0
M  V30 3494 H 343.521 0.834263 5.45659 0
M  V30 3495 H 343.998 -0.465921 4.36722 0
M  V30 3496 H 344.604 1.18235 4.08535 0
M  V30 3497 N 342.919 -1.39368 0.735821 0
M  V30 3498 C 344.147 -2.04795 0.294393 0
M  V30 3499 C 344.562 -1.55478 -1.07107 0
M  V30 3500 O 343.919 -0.720038 -1.67695 0
M  V30 3501 C 343.97 -3.6035 0.288071 0
M  V30 3502 O 343.691 -4.07852 1.59963 0
M  V30 3503 C 345.192 -4.42976 -0.169422 0
M  V30 3504 H 342.412 -0.658571 0.128551 0
M  V30 3505 H 344.956 -1.78399 0.999701 0
M  V30 3506 H 343.111 -3.85645 -0.368355 0
M  V30 3507 H 343.525 -5.02181 1.51375 0
M  V30 3508 H 344.999 -5.51864 -0.122687 0
M  V30 3509 H 345.476 -4.22068 -1.21472 0
M  V30 3510 H 346.082 -4.22832 0.457469 0
M  V30 3511 N 344.397 -0.483516 -1.5 0
M  V30 3512 C 345.627 0.0643896 -2.065 0
M  V30 3513 C 346.035 1.32949 -1.34615 0
M  V30 3514 O 345.378 1.79003 -0.412756 0
M  V30 3515 C 345.44 0.405983 -3.572 0
M  V30 3516 C 345.104 -0.758875 -4.50655 0
M  V30 3517 C 346.101 -1.64445 -4.93208 0
M  V30 3518 C 343.786 -0.952725 -4.93182 0
M  V30 3519 C 345.78 -2.70818 -5.77006 0
M  V30 3520 C 343.467 -2.01966 -5.76761 0
M  V30 3521 C 344.465 -2.89574 -6.18576 0
M  V30 3522 O 344.153 -3.94429 -7.00486 0
M  V30 3523 H 343.885 -0.00934786 -0.675935 0
M  V30 3524 H 346.439 -0.674959 -1.93993 0
M  V30 3525 H 344.669 1.19869 -3.67652 0
M  V30 3526 H 346.358 0.890433 -3.96013 0
M  V30 3527 H 347.124 -1.50643 -4.61012 0
M  V30 3528 H 343.003 -0.280247 -4.60147 0
M  V30 3529 H 346.547 -3.3923 -6.09565 0
M  V30 3530 H 342.444 -2.1577 -6.0837 0
M  V30 3531 H 343.212 -3.91568 -7.1876 0
M  V30 3532 N 345.875 1.56104 -0.216619 0
M  V30 3533 C 347.152 1.89988 0.465165 0
M  V30 3534 C 347.532 1.13326 1.78102 0
M  V30 3535 O 346.88 0.241033 2.27225 0
M  V30 3536 C 347.09 3.42646 0.662939 0
M  V30 3537 C 348.438 4.13311 0.972602 0
M  V30 3538 O 349.462 3.48217 0.749901 0
M  V30 3539 O 348.321 5.28396 1.39499 0
M  V30 3540 H 345.415 0.78979 0.245276 0
M  V30 3541 H 347.961 1.67721 -0.258436 0
M  V30 3542 H 346.733 3.90399 -0.26543 0
M  V30 3543 H 346.356 3.70677 1.43821 0
M  V30 3544 N 347.353 -0.0568162 1.57498 0
M  V30 3545 C 348.316 -1.05038 2.03715 0
M  V30 3546 C 349.316 -1.30709 0.936577 0
M  V30 3547 O 350.506 -1.26178 1.20103 0
M  V30 3548 C 347.638 -2.39034 2.43055 0
M  V30 3549 H 348.831 -0.651715 2.92733 0
M  V30 3550 H 346.384 -0.302947 1.53336 0
M  V30 3551 H 347.119 -2.83703 1.57108 0
M  V30 3552 H 346.904 -2.21739 3.2338 0
M  V30 3553 H 348.394 -3.10421 2.79336 0
M  V30 3554 N 348.832 -1.54138 -0.328536 0
M  V30 3555 C 350.109 -1.62749 -1.08499 0
M  V30 3556 C 350.489 -0.458198 -2.06067 0
M  V30 3557 O 349.837 0.548046 -2.2183 0
M  V30 3558 C 350.047 -2.99519 -1.79135 0
M  V30 3559 C 351.395 -3.55394 -2.32337 0
M  V30 3560 O 352.419 -3.01792 -1.89209 0
M  V30 3561 O 351.278 -4.49186 -3.11279 0
M  V30 3562 H 348.372 -0.65886 -0.499832 0
M  V30 3563 H 350.918 -1.66484 -0.328826 0
M  V30 3564 H 349.69 -3.76061 -1.08139 0
M  V30 3565 H 349.313 -2.99441 -2.61574 0
M  V30 3566 N 350.31 0.590341 -1.46126 0
M  V30 3567 C 351.26 1.69466 -1.5253 0
M  V30 3568 C 352.244 1.56179 -0.386917 0
M  V30 3569 O 353.436 1.65223 -0.634858 0
M  V30 3570 C 350.565 3.08245 -1.5113 0
M  V30 3571 C 349.651 3.26856 -2.70233 0
M  V30 3572 N 350.042 3.15657 -3.95214 0
M  V30 3573 C 348.34 3.57775 -2.66296 0
M  V30 3574 C 349.041 3.36066 -4.74799 0
M  V30 3575 N 348.017 3.60865 -4.06543 0
M  V30 3576 H 351.819 1.59326 -2.46966 0
M  V30 3577 H 349.333 0.79414 -1.41659 0
M  V30 3578 H 351.33 3.87492 -1.53804 0
M  V30 3579 H 349.99 3.19521 -0.577636 0
M  V30 3580 H 351.001 2.93686 -4.26578 0
M  V30 3581 H 347.678 3.75782 -1.81918 0
M  V30 3582 H 349.068 3.32655 -5.83772 0
M  V30 3583 N 351.788 1.33704 0.83433 0
M  V30 3584 C 353.065 1.16011 1.57483 0
M  V30 3585 C 353.445 -0.27176 2.09343 0
M  V30 3586 O 352.793 -1.27146 1.89858 0
M  V30 3587 C 353.003 2.20507 2.70514 0
M  V30 3588 C 354.351 2.54898 3.39577 0
M  V30 3589 O 355.375 2.19209 2.80759 0
M  V30 3590 O 354.234 3.16158 4.45765 0
M  V30 3591 H 351.328 0.448992 0.694503 0
M  V30 3592 H 353.874 1.453 0.876691 0
M  V30 3593 H 352.646 3.16667 2.29865 0
M  V30 3594 H 352.269 1.92329 3.47987 0
M  V30 3595 N 353.266 -1.05314 1.17247 0
M  V30 3596 C 354.491 -1.82509 0.985148 0
M  V30 3597 C 354.916 -1.82343 -0.461788 0
M  V30 3598 O 354.274 -1.23151 -1.33055 0
M  V30 3599 C 354.322 -3.26566 1.52929 0
M  V30 3600 O 353.426 -4.05666 0.742225 0
M  V30 3601 H 352.767 -0.564347 0.349869 0
M  V30 3602 H 355.297 -1.32718 1.55715 0
M  V30 3603 H 355.307 -3.77369 1.55103 0
M  V30 3604 H 353.982 -3.26001 2.58256 0
M  V30 3605 H 352.559 -3.64397 0.791794 0
M  V30 3606 N 354.744 -0.972509 -1.24016 0
M  V30 3607 C 355.969 -0.654417 -1.96805 0
M  V30 3608 C 356.394 0.770398 -1.716 0
M  V30 3609 O 355.752 1.52361 -0.982647 0
M  V30 3610 C 355.8 -0.941031 -3.48105 0
M  V30 3611 O 354.904 -0.0289472 -4.1239 0
M  V30 3612 H 354.245 -0.24692 -0.616382 0
M  V30 3613 H 356.775 -1.30396 -1.57664 0
M  V30 3614 H 356.785 -0.87452 -3.98517 0
M  V30 3615 H 355.46 -1.97939 -3.65777 0
M  V30 3616 H 354.037 -0.149192 -3.72601 0
M  V30 3617 N 356.222 1.38976 -0.743202 0
M  V30 3618 C 357.17 2.32394 -0.0978389 0
M  V30 3619 C 358.164 1.53486 0.716824 0
M  V30 3620 O 359.37 1.69092 0.617088 0
M  V30 3621 H 355.745 0.75189 -0.0128402 0
M  V30 3622 H 357.716 2.84441 -0.901981 0
M  V30 3623 C 356.465 3.38629 0.789036 0
M  V30 3624 H 355.788 3.99432 0.171559 0
M  V30 3625 H 357.228 4.06426 1.20807 0
M  V30 3626 C 355.687 2.76347 1.92702 0
M  V30 3627 O 356.217 2.64836 3.02034 0
M  V30 3628 N 354.423 2.34311 1.71891 0
M  V30 3629 H 353.97 2.43873 0.829675 0
M  V30 3630 H 353.928 1.9298 2.48205 0
M  V30 3631 N 357.7 0.491464 1.49741 0
M  V30 3632 C 358.925 -0.0557177 2.07325 0
M  V30 3633 C 359.35 -1.30925 1.35056 0
M  V30 3634 O 358.708 -1.76733 0.404365 0
M  V30 3635 C 358.756 -0.302074 3.59333 0
M  V30 3636 O 357.86 -1.37868 3.88672 0
M  V30 3637 H 357.201 0.0219956 0.663636 0
M  V30 3638 H 359.731 0.688352 1.92673 0
M  V30 3639 H 359.741 -0.536464 4.04458 0
M  V30 3640 H 358.416 0.61383 4.11345 0
M  V30 3641 H 356.993 -1.12999 3.55367 0
M  V30 3642 N 359.178 -1.55987 0.224894 0
M  V30 3643 C 360.126 -2.21808 -0.700283 0
M  V30 3644 C 361.12 -1.19854 -1.19714 0
M  V30 3645 O 362.326 -1.37925 -1.15658 0
M  V30 3646 H 358.701 -0.711226 -0.244258 0
M  V30 3647 H 360.672 -2.98152 -0.121749 0
M  V30 3648 C 359.421 -2.91444 -1.8962 0
M  V30 3649 H 358.744 -3.69655 -1.52299 0
M  V30 3650 H 360.184 -3.40894 -2.52125 0
M  V30 3651 C 358.643 -1.94098 -2.75368 0
M  V30 3652 O 359.173 -1.46004 -3.74227 0
M  V30 3653 N 357.379 -1.61675 -2.41474 0
M  V30 3654 H 356.926 -2.00979 -1.61137 0
M  V30 3655 H 356.884 -0.968036 -2.99126 0
M  V30 3656 N 360.656 0.0484629 -1.57525 0
M  V30 3657 C 361.896 0.748196 -1.90214 0
M  V30 3658 C 362.26 1.73545 -0.821347 0
M  V30 3659 O 363.461 2.48201 -1.03198 0
M  V30 3660 C 361.732 1.41727 -3.28098 0
M  V30 3661 S 363.291 2.14884 -3.82584 0
M  V30 3662 H 360.109 0.248307 -0.666232 0
M  V30 3663 H 362.711 0.00343188 -1.955 0
M  V30 3664 H 361.415 0.685244 -4.04639 0
M  V30 3665 H 360.946 2.20099 -3.26068 0
M  V30 3666 H 362.961 3.41755 -3.59747 0
M  V30 3667 N 362.134 1.5431 0.320358 0
M  V30 3668 C 363.097 1.83195 1.3774 0
M  V30 3669 C 364.097 0.703906 1.44575 0
M  V30 3670 O 365.287 0.972214 1.44546 0
M  V30 3671 C 362.419 1.99487 2.76438 0
M  V30 3672 H 363.612 2.77642 1.1338 0
M  V30 3673 H 361.165 1.46076 0.556012 0
M  V30 3674 H 361.9 1.07262 3.06048 0
M  V30 3675 H 361.685 2.81575 2.7287 0
M  V30 3676 H 363.175 2.23271 3.52902 0
M  V30 3677 N 363.613 -0.582584 1.46437 0
M  V30 3678 C 364.859 -1.34278 1.51978 0
M  V30 3679 C 365.192 -1.93446 0.170973 0
M  V30 3680 O 364.467 -1.76481 -0.817608 0
M  V30 3681 C 364.75 -2.47203 2.61845 0
M  V30 3682 C 364.603 -1.93069 4.06257 0
M  V30 3683 C 365.922 -3.49247 2.67795 0
M  V30 3684 H 363.041 -0.486876 0.553282 0
M  V30 3685 H 365.683 -0.654437 1.78374 0
M  V30 3686 H 363.833 -3.0592 2.39469 0
M  V30 3687 H 365.505 -1.38808 4.3992 0
M  V30 3688 H 363.748 -1.23898 4.1573 0
M  V30 3689 H 364.419 -2.74586 4.7886 0
M  V30 3690 H 366.895 -3.00411 2.8791 0
M  V30 3691 H 365.771 -4.25719 3.46489 0
M  V30 3692 H 366.032 -4.06482 1.73852 0
M  V30 3693 N 365.091 -1.34144 -0.827227 0
M  V30 3694 C 366.34 -1.25602 -1.5782 0
M  V30 3695 C 366.653 0.173445 -1.94829 0
M  V30 3696 O 367.859 0.380984 -2.68814 0
M  V30 3697 C 366.315 -2.20151 -2.84713 0
M  V30 3698 C 365.923 -3.68331 -2.55021 0
M  V30 3699 C 367.667 -2.20508 -3.62735 0
M  V30 3700 C 365.574 -4.54762 -3.78082 0
M  V30 3701 H 364.504 -0.466573 -0.592306 0
M  V30 3702 H 367.155 -1.59283 -0.911116 0
M  V30 3703 H 365.537 -1.79417 -3.53023 0
M  V30 3704 H 366.711 -4.17577 -1.94849 0
M  V30 3705 H 365.026 -3.7038 -1.90283 0
M  V30 3706 H 367.623 -2.82306 -4.54101 0
M  V30 3707 H 367.966 -1.20322 -3.98533 0
M  V30 3708 H 368.499 -2.59664 -3.01362 0
M  V30 3709 H 365.238 -5.55867 -3.47407 0
M  V30 3710 H 364.758 -4.10254 -4.37552 0
M  V30 3711 H 366.437 -4.69153 -4.45538 0
M  V30 3712 N 366.569 1.04691 -1.17803 0
M  V30 3713 C 367.815 1.78045 -0.970969 0
M  V30 3714 C 368.148 1.87686 0.498751 0
M  V30 3715 O 367.423 1.38035 1.37027 0
M  V30 3716 C 367.706 3.2166 -1.61884 0
M  V30 3717 C 367.559 3.20001 -3.161 0
M  V30 3718 C 368.878 4.1962 -1.3269 0
M  V30 3719 H 365.997 0.64633 -0.354155 0
M  V30 3720 H 368.639 1.22333 -1.45378 0
M  V30 3721 H 366.789 3.69232 -1.20831 0
M  V30 3722 H 368.461 2.80467 -3.66246 0
M  V30 3723 H 366.704 2.58203 -3.48588 0
M  V30 3724 H 367.375 4.21386 -3.56564 0
M  V30 3725 H 369.851 3.80567 -1.68249 0
M  V30 3726 H 368.727 5.18339 -1.80599 0
M  V30 3727 H 368.988 4.414 -0.248622 0
M  V30 3728 N 368.047 0.979072 1.23499 0
M  V30 3729 C 368.997 0.489378 2.22686 0
M  V30 3730 C 369.981 -0.434871 1.54912 0
M  V30 3731 O 371.173 -0.263941 1.75021 0
M  V30 3732 C 368.302 -0.208178 3.42668 0
M  V30 3733 C 367.388 0.735563 4.17672 0
M  V30 3734 N 367.779 1.87763 4.69658 0
M  V30 3735 C 366.077 0.548625 4.42613 0
M  V30 3736 C 366.778 2.46886 5.26709 0
M  V30 3737 N 365.754 1.75287 5.14563 0
M  V30 3738 H 369.556 1.36062 2.60508 0
M  V30 3739 H 367.07 0.83958 1.39014 0
M  V30 3740 H 369.067 -0.576295 4.12898 0
M  V30 3741 H 367.727 -1.07572 3.06363 0
M  V30 3742 H 368.738 2.25885 4.66043 0
M  V30 3743 H 365.415 -0.274006 4.166 0
M  V30 3744 H 366.805 3.43326 5.77561 0
M  V30 3745 N 369.525 -1.3858 0.750561 0
M  V30 3746 C 370.773 -1.99789 0.30477 0
M  V30 3747 C 371.094 -1.59874 -1.11649 0
M  V30 3748 O 370.364 -0.85417 -1.76297 0
M  V30 3749 H 368.944 -0.738902 0.109694 0
M  V30 3750 H 371.606 -1.69391 0.963983 0
M  V30 3751 H 370.702 -3.09952 0.365499 0
M  V30 3752 N 371.003 -0.499398 -1.49478 0
M  V30 3753 C 371.966 0.268838 -2.27618 0
M  V30 3754 C 372.966 0.895383 -1.33565 0
M  V30 3755 O 374.156 0.760164 -1.56739 0
M  V30 3756 C 371.288 1.38559 -3.11471 0
M  V30 3757 H 372.481 -0.416812 -2.96989 0
M  V30 3758 H 370.034 -0.254313 -1.54217 0
M  V30 3759 H 370.769 2.10544 -2.46661 0
M  V30 3760 H 370.554 0.941797 -3.80621 0
M  V30 3761 H 372.044 1.92678 -3.70493 0
M  V30 3762 N 372.481 1.55866 -0.233164 0
M  V30 3763 C 373.727 1.99643 0.389148 0
M  V30 3764 C 374.082 1.11836 1.56558 0
M  V30 3765 O 373.375 0.170848 1.90837 0
M  V30 3766 C 373.569 3.46856 0.861724 0
M  V30 3767 C 373.398 4.48904 -0.267376 0
M  V30 3768 C 372.168 4.99888 -0.737577 0
M  V30 3769 C 374.366 5.02624 -1.08966 0
M  V30 3770 N 372.348 5.8566 -1.84052 0
M  V30 3771 C 373.719 5.85434 -2.04125 0
M  V30 3772 C 375.774 4.84959 -1.12779 0
M  V30 3773 C 374.477 6.52466 -3.02789 0
M  V30 3774 C 376.503 5.52759 -2.10266 0
M  V30 3775 C 375.865 6.35346 -3.04162 0
M  V30 3776 H 371.964 0.774402 0.108742 0
M  V30 3777 H 374.548 1.91572 -0.347596 0
M  V30 3778 H 372.719 3.55352 1.5678 0
M  V30 3779 H 374.451 3.77531 1.45783 0
M  V30 3780 H 371.206 4.7249 -0.324122 0
M  V30 3781 H 371.63 6.33246 -2.39434 0
M  V30 3782 H 376.272 4.20751 -0.415749 0
M  V30 3783 H 373.99 7.15849 -3.74948 0
M  V30 3784 H 377.576 5.41051 -2.13905 0
M  V30 3785 H 376.456 6.86883 -3.78366 0
M  V30 3786 N 373.959 -0.0401083 1.57549 0
M  V30 3787 C 375.205 -0.728793 1.89895 0
M  V30 3788 C 375.56 -1.73551 0.830535 0
M  V30 3789 O 374.853 -1.90914 -0.162007 0
M  V30 3790 C 375.047 -1.44902 3.26708 0
M  V30 3791 C 374.876 -0.513568 4.46758 0
M  V30 3792 C 373.646 -0.138698 5.0511 0
M  V30 3793 C 375.844 0.203341 5.13898 0
M  V30 3794 N 373.826 0.799159 6.08676 0
M  V30 3795 C 375.197 0.997246 6.11927 0
M  V30 3796 C 377.252 0.271459 4.97159 0
M  V30 3797 C 375.955 1.85299 6.95023 0
M  V30 3798 C 377.981 1.11429 5.80808 0
M  V30 3799 C 377.343 1.89615 6.78399 0
M  V30 3800 H 373.442 -0.241125 0.743897 0
M  V30 3801 H 376.026 0.0108016 1.94697 0
M  V30 3802 H 374.197 -2.15914 3.22856 0
M  V30 3803 H 375.929 -2.08921 3.46603 0
M  V30 3804 H 372.684 -0.498496 4.70969 0
M  V30 3805 H 373.108 1.26227 6.65128 0
M  V30 3806 H 377.75 -0.318709 4.21597 0
M  V30 3807 H 375.468 2.454 7.69938 0
M  V30 3808 H 379.054 1.17038 5.69906 0
M  V30 3809 H 377.934 2.53779 7.42001 0
M  V30 3810 N 375.437 -1.54477 -0.31217 0
M  V30 3811 C 376.667 -1.76948 -1.06645 0
M  V30 3812 C 377.075 -0.523593 -1.81811 0
M  V30 3813 O 376.418 0.51578 -1.76311 0
M  V30 3814 C 376.48 -2.91668 -2.10166 0
M  V30 3815 C 376.144 -4.30165 -1.54296 0
M  V30 3816 C 377.141 -5.10603 -0.978793 0
M  V30 3817 C 374.826 -4.76738 -1.58196 0
M  V30 3818 C 376.82 -6.3573 -0.461048 0
M  V30 3819 C 374.507 -6.01831 -1.06034 0
M  V30 3820 C 375.505 -6.81161 -0.500844 0
M  V30 3821 O 375.193 -8.03899 0.0128958 0
M  V30 3822 H 374.925 -0.594088 -0.322546 0
M  V30 3823 H 377.479 -2.02213 -0.360441 0
M  V30 3824 H 375.709 -2.62001 -2.84416 0
M  V30 3825 H 377.398 -3.01817 -2.71406 0
M  V30 3826 H 378.164 -4.75771 -0.941651 0
M  V30 3827 H 374.043 -4.15027 -2.00683 0
M  V30 3828 H 377.587 -6.97596 -0.0236894 0
M  V30 3829 H 373.484 -6.36152 -1.09459 0
M  V30 3830 H 374.252 -8.18437 -0.101457 0
M  V30 3831 N 376.915 0.57481 -1.46744 0
M  V30 3832 C 377.878 1.66533 -1.57478 0
M  V30 3833 C 378.878 1.54338 -0.451263 0
M  V30 3834 O 380.068 1.58814 -0.715813 0
M  V30 3835 C 377.2 3.05999 -1.50259 0
M  V30 3836 H 378.393 1.58372 -2.54673 0
M  V30 3837 H 375.946 0.793301 -1.34672 0
M  V30 3838 H 376.681 3.19709 -0.543725 0
M  V30 3839 H 376.466 3.16259 -2.31781 0
M  V30 3840 H 377.956 3.8537 -1.60872 0
M  V30 3841 N 378.394 1.34581 0.820102 0
M  V30 3842 C 379.619 1.30333 1.61332 0
M  V30 3843 C 380.044 -0.119339 1.87721 0
M  V30 3844 O 379.402 -1.08197 1.45475 0
M  V30 3845 C 379.45 2.10258 2.92957 0
M  V30 3846 O 378.554 1.47404 3.85157 0
M  V30 3847 H 377.895 0.447488 0.490561 0
M  V30 3848 H 380.425 1.77425 1.01889 0
M  V30 3849 H 380.435 2.21718 3.42498 0
M  V30 3850 H 379.11 3.13693 2.73074 0
M  V30 3851 H 377.687 1.44703 3.43679 0
M  V30 3852 N 379.872 -1.04064 1.18357 0
M  V30 3853 C 381.112 -1.78829 0.989921 0
M  V30 3854 C 381.476 -1.86106 -0.472095 0
M  V30 3855 O 382.677 -2.57076 -0.785187 0
M  V30 3856 C 380.948 -3.1823 1.6268 0
M  V30 3857 S 382.507 -4.09332 1.58091 0
M  V30 3858 H 379.325 -0.615754 0.355482 0
M  V30 3859 H 381.927 -1.24778 1.50501 0
M  V30 3860 H 380.631 -3.10543 2.68311 0
M  V30 3861 H 380.162 -3.77357 1.112 0
M  V30 3862 H 382.177 -4.92598 0.596817 0
M  V30 3863 N 381.35 -0.985608 -1.22978 0
M  V30 3864 C 382.58 -0.674603 -1.95276 0
M  V30 3865 C 382.988 0.763483 -1.73111 0
M  V30 3866 O 382.331 1.52601 -1.02268 0
M  V30 3867 C 382.393 -0.891597 -3.48268 0
M  V30 3868 C 382.057 -2.31275 -3.94158 0
M  V30 3869 C 383.054 -3.29179 -4.02415 0
M  V30 3870 C 380.739 -2.64524 -4.27004 0
M  V30 3871 C 382.733 -4.58407 -4.42879 0
M  V30 3872 C 380.42 -3.93974 -4.67149 0
M  V30 3873 C 381.418 -4.90727 -4.75053 0
M  V30 3874 O 381.106 -6.17865 -5.14294 0
M  V30 3875 H 380.838 -0.249251 -0.628371 0
M  V30 3876 H 383.392 -1.32106 -1.5728 0
M  V30 3877 H 381.622 -0.187962 -3.86243 0
M  V30 3878 H 383.311 -0.576957 -4.01779 0
M  V30 3879 H 384.077 -3.04823 -3.77237 0
M  V30 3880 H 379.956 -1.89923 -4.2006 0
M  V30 3881 H 383.5 -5.33926 -4.48964 0
M  V30 3882 H 379.397 -4.18122 -4.91777 0
M  V30 3883 H 380.165 -6.21694 -5.32389 0
M  V30 3884 N 382.828 1.3818 -0.7579 0
M  V30 3885 C 384.244 1.5353 -0.435972 0
M  V30 3886 C 384.444 1.71961 1.05032 0
M  V30 3887 O 383.5 1.73307 1.83633 0
M  V30 3888 C 384.813 2.73989 -1.23898 0
M  V30 3889 C 386.361 2.87841 -1.22949 0
M  V30 3890 C 386.836 4.11266 -2.01554 0
M  V30 3891 N 388.327 4.18352 -1.98837 0
M  V30 3892 C 389.062 5.12856 -2.5645 0
M  V30 3893 N 388.558 6.13005 -3.22794 0
M  V30 3894 N 390.351 5.05238 -2.46356 0
M  V30 3895 H 382.502 1.24467 -1.7211 0
M  V30 3896 H 384.765 0.604982 -0.729864 0
M  V30 3897 H 384.471 2.66789 -2.29165 0
M  V30 3898 H 384.345 3.67294 -0.858764 0
M  V30 3899 H 386.732 2.9452 -0.184854 0
M  V30 3900 H 386.813 1.95534 -1.64924 0
M  V30 3901 H 386.457 4.05349 -3.06031 0
M  V30 3902 H 386.387 5.02661 -1.5697 0
M  V30 3903 H 388.878 3.46628 -1.50524 0
M  V30 3904 H 389.191 6.81619 -3.64165 0
M  V30 3905 H 387.536 6.13325 -3.2689 0
M  V30 3906 H 390.727 4.25938 -1.9415 0
M  V30 3907 H 390.9 5.78707 -2.91552 0
M  V30 3908 N 384.306 0.507319 1.49211 0
M  V30 3909 C 385.531 -0.033725 2.07373 0
M  V30 3910 C 385.956 -1.29485 1.36437 0
M  V30 3911 O 385.314 -1.76294 0.423087 0
M  V30 3912 C 385.362 -0.263945 3.59633 0
M  V30 3913 O 384.466 -1.33737 3.90113 0
M  V30 3914 H 383.807 0.0290331 0.663365 0
M  V30 3915 H 386.337 0.708749 1.91932 0
M  V30 3916 H 386.347 -0.493536 4.05004 0
M  V30 3917 H 385.022 0.657424 4.10671 0
M  V30 3918 H 383.599 -1.09224 3.56545 0
M  V30 3919 N 385.784 -1.5574 0.241426 0
M  V30 3920 C 386.732 -2.22538 -0.676718 0
M  V30 3921 C 387.726 -1.21117 -1.18436 0
M  V30 3922 O 388.932 -1.39144 -1.14188 0
M  V30 3923 H 385.307 -0.713776 -0.236701 0
M  V30 3924 H 387.278 -2.98264 -0.0901187 0
M  V30 3925 C 386.027 -2.93439 -1.86518 0
M  V30 3926 H 385.35 -3.7125 -1.4837 0
M  V30 3927 H 386.79 -3.43549 -2.48495 0
M  V30 3928 C 385.249 -1.97008 -2.73294 0
M  V30 3929 O 385.779 -1.49965 -3.72657 0
M  V30 3930 N 383.985 -1.64227 -2.39745 0
M  V30 3931 H 383.532 -2.02677 -1.58996 0
M  V30 3932 H 383.49 -0.999708 -2.98083 0
M  V30 3933 N 387.262 0.0317525 -1.57568 0
M  V30 3934 C 388.192 1.03274 -2.0942 0
M  V30 3935 C 389.173 1.3788 -0.996143 0
M  V30 3936 O 390.358 1.46811 -1.27122 0
M  V30 3937 C 387.488 2.33448 -2.57137 0
M  V30 3938 C 386.442 2.13091 -3.71182 0
M  V30 3939 C 385.768 3.49001 -4.05095 0
M  V30 3940 C 387.068 1.51928 -4.99715 0
M  V30 3941 H 388.762 0.60112 -2.93303 0
M  V30 3942 H 386.308 0.287705 -1.41097 0
M  V30 3943 H 388.261 3.03802 -2.92032 0
M  V30 3944 H 386.985 2.78665 -1.70333 0
M  V30 3945 H 385.644 1.45171 -3.36632 0
M  V30 3946 H 385.292 3.91862 -3.15362 0
M  V30 3947 H 384.992 3.36207 -4.81911 0
M  V30 3948 H 386.516 4.20721 -4.42522 0
M  V30 3949 H 387.93 2.12196 -5.32584 0
M  V30 3950 H 386.327 1.49716 -5.81124 0
M  V30 3951 H 387.397 0.484811 -4.8247 0
M  V30 3952 N 388.74 1.54641 0.303973 0
M  V30 3953 C 389.688 1.86137 1.39484 0
M  V30 3954 C 390.682 0.734854 1.52631 0
M  V30 3955 O 391.888 0.918803 1.54784 0
M  V30 3956 H 388.263 0.590324 0.465856 0
M  V30 3957 H 390.234 2.77324 1.10154 0
M  V30 3958 C 388.983 2.12274 2.75382 0
M  V30 3959 H 388.306 2.98429 2.66046 0
M  V30 3960 H 389.746 2.38254 3.5073 0
M  V30 3961 C 388.205 0.920365 3.24085 0
M  V30 3962 O 388.735 0.139377 4.01458 0
M  V30 3963 N 386.941 0.726566 2.81371 0
M  V30 3964 H 386.488 1.36332 2.18567 0
M  V30 3965 H 386.446 -0.0763799 3.14307 0
M  V30 3966 N 390.218 -0.567019 1.47046 0
M  V30 3967 C 391.466 -1.322 1.52864 0
M  V30 3968 C 391.787 -1.94088 0.188388 0
M  V30 3969 O 391.057 -1.7941 -0.786693 0
M  V30 3970 H 389.637 -0.490894 0.563056 0
M  V30 3971 H 392.299 -0.662879 1.83281 0
M  V30 3972 H 391.395 -2.12062 2.2899 0
M  V30 3973 N 391.696 -1.35014 -0.812953 0
M  V30 3974 C 393.112 -1.14914 -1.10757 0
M  V30 3975 C 393.312 0.0426818 -2.01455 0
M  V30 3976 O 392.368 0.715212 -2.42159 0
M  V30 3977 C 393.681 -2.44911 -1.74468 0
M  V30 3978 C 395.229 -2.5106 -1.86917 0
M  V30 3979 C 395.704 -3.81085 -2.54044 0
M  V30 3980 N 397.195 -3.82301 -2.61535 0
M  V30 3981 C 397.93 -4.79634 -3.14227 0
M  V30 3982 N 397.426 -5.87353 -3.67407 0
M  V30 3983 N 399.219 -4.67078 -3.12721 0
M  V30 3984 H 391.37 -2.1136 -0.20989 0
M  V30 3985 H 393.633 -0.935128 -0.155692 0
M  V30 3986 H 393.339 -3.32267 -1.15289 0
M  V30 3987 H 393.213 -2.58989 -2.74234 0
M  V30 3988 H 395.6 -1.64137 -2.45241 0
M  V30 3989 H 395.681 -2.40901 -0.860242 0
M  V30 3990 H 395.325 -4.68402 -1.96372 0
M  V30 3991 H 395.255 -3.88529 -3.55461 0
M  V30 3992 H 397.746 -3.04465 -2.23851 0
M  V30 3993 H 398.059 -6.57624 -4.05894 0
M  V30 3994 H 396.404 -5.91054 -3.65623 0
M  V30 3995 H 399.595 -3.82067 -2.70449 0
M  V30 3996 H 399.768 -5.43098 -3.53481 0
M  V30 3997 N 393.175 1.03435 -1.18907 0
M  V30 3998 C 394.405 1.8012 -1.01195 0
M  V30 3999 C 394.813 1.8395 0.442613 0
M  V30 4000 O 394.156 1.27836 1.31923 0
M  V30 4001 C 394.218 3.26792 -1.49823 0
M  V30 4002 C 393.882 3.46609 -2.97844 0
M  V30 4003 C 394.879 3.37278 -3.95651 0
M  V30 4004 C 392.564 3.73001 -3.36416 0
M  V30 4005 C 394.558 3.54054 -5.30023 0
M  V30 4006 C 392.245 3.89423 -4.70949 0
M  V30 4007 C 393.243 3.79951 -5.67562 0
M  V30 4008 O 392.931 3.95895 -6.99659 0
M  V30 4009 H 392.663 0.573865 -0.357289 0
M  V30 4010 H 395.217 1.31207 -1.58031 0
M  V30 4011 H 393.447 3.76703 -0.873578 0
M  V30 4012 H 395.136 3.85055 -1.28404 0
M  V30 4013 H 395.902 3.16846 -3.67197 0
M  V30 4014 H 391.781 3.79469 -2.61772 0
M  V30 4015 H 395.325 3.46577 -6.05417 0
M  V30 4016 H 391.222 4.09351 -4.99101 0
M  V30 4017 H 391.99 4.13019 -7.06653 0
M  V30 4018 N 394.653 0.992116 1.22453 0
M  V30 4019 C 395.616 0.546883 2.2258 0
M  V30 4020 C 396.616 -0.369829 1.56489 0
M  V30 4021 O 397.806 -0.161896 1.73446 0
M  V30 4022 C 394.938 -0.204659 3.40285 0
M  V30 4023 H 396.131 1.43234 2.63484 0
M  V30 4024 H 393.684 0.779239 1.3549 0
M  V30 4025 H 394.419 -1.10614 3.04853 0
M  V30 4026 H 394.204 0.45354 3.89468 0
M  V30 4027 H 395.694 -0.504358 4.14543 0
M  V30 4028 N 396.131 -1.37776 0.765217 0
M  V30 4029 C 397.377 -2.00145 0.327072 0
M  V30 4030 C 397.71 -1.60607 -1.09175 0
M  V30 4031 O 396.985 -0.849127 -1.74986 0
M  V30 4032 C 397.268 -3.57109 0.46319 0
M  V30 4033 C 397.121 -4.06576 1.92395 0
M  V30 4034 C 398.44 -4.39888 -0.136473 0
M  V30 4035 H 395.559 -0.727113 0.120316 0
M  V30 4036 H 398.201 -1.63549 0.967039 0
M  V30 4037 H 396.351 -3.88414 -0.0816358 0
M  V30 4038 H 398.023 -3.85864 2.52798 0
M  V30 4039 H 396.266 -3.59011 2.43503 0
M  V30 4040 H 396.937 -5.15639 1.97028 0
M  V30 4041 H 399.413 -4.14803 0.328317 0
M  V30 4042 H 398.289 -5.48899 -0.0110582 0
M  V30 4043 H 398.55 -4.24758 -1.22608 0
M  V30 4044 N 397.609 -0.515225 -1.4894 0
M  V30 4045 C 398.834 0.022727 -2.07388 0
M  V30 4046 C 399.259 1.2876 -1.37122 0
M  V30 4047 O 398.617 1.76067 -0.432431 0
M  V30 4048 C 398.665 0.244869 -3.59768 0
M  V30 4049 O 397.769 1.31667 -3.90817 0
M  V30 4050 H 397.11 -0.0325506 -0.663202 0
M  V30 4051 H 399.64 -0.718918 -1.91553 0
M  V30 4052 H 399.65 0.47205 -4.0526 0
M  V30 4053 H 398.325 -0.679194 -4.10317 0
M  V30 4054 H 396.902 1.07331 -3.5712 0
M  V30 4055 N 399.087 1.5561 -0.249682 0
M  V30 4056 C 399.997 2.25143 0.659375 0
M  V30 4057 C 401.013 1.2685 1.19101 0
M  V30 4058 O 402.189 1.59732 1.22669 0
M  V30 4059 C 399.254 2.93945 1.8384 0
M  V30 4060 C 398.315 4.07655 1.34596 0
M  V30 4061 C 397.548 4.73167 2.46878 0
M  V30 4062 O 397.771 4.37768 3.65671 0
M  V30 4063 O 396.705 5.61623 2.16478 0
M  V30 4064 H 400.531 3.03545 0.0968698 0
M  V30 4065 H 398.116 1.49389 -0.018074 0
M  V30 4066 H 399.998 3.37271 2.52638 0
M  V30 4067 H 398.673 2.18481 2.38847 0
M  V30 4068 H 397.58 3.68839 0.625174 0
M  V30 4069 H 398.913 4.84946 0.841941 0
M  V30 4070 N 400.565 -0.0233959 1.57583 0
M  V30 4071 C 401.528 -1.00693 2.05897 0
M  V30 4072 C 402.528 -1.28693 0.964092 0
M  V30 4073 O 403.718 -1.23602 1.22753 0
M  V30 4074 C 400.85 -2.33825 2.4807 0
M  V30 4075 H 402.043 -0.589476 2.9405 0
M  V30 4076 H 399.596 -0.270354 1.53944 0
M  V30 4077 H 400.331 -2.80307 1.6309 0
M  V30 4078 H 400.116 -2.1483 3.2801 0
M  V30 4079 H 401.606 -3.04426 2.85857 0
M  V30 4080 N 402.043 -1.548 -0.295768 0
M  V30 4081 C 403.006 -1.85363 -1.34808 0
M  V30 4082 C 404.006 -0.726817 -1.43436 0
M  V30 4083 O 405.196 -0.995088 -1.42981 0
M  V30 4084 C 402.328 -2.03859 -2.73229 0
M  V30 4085 H 403.521 -2.7941 -1.08949 0
M  V30 4086 H 401.074 -1.46942 -0.532702 0
M  V30 4087 H 401.809 -1.12117 -3.04303 0
M  V30 4088 H 401.594 -2.8588 -2.68356 0
M  V30 4089 H 403.084 -2.28857 -3.49305 0
M  V30 4090 N 403.521 0.559213 -1.47345 0
M  V30 4091 C 404.484 1.64854 -1.59235 0
M  V30 4092 C 405.484 1.53851 -0.467607 0
M  V30 4093 O 406.674 1.58045 -0.732617 0
M  V30 4094 C 403.806 3.04388 -1.53496 0
M  V30 4095 H 404.999 1.55662 -2.56339 0
M  V30 4096 H 402.552 0.778973 -1.35505 0
M  V30 4097 H 403.287 3.19115 -0.577604 0
M  V30 4098 H 403.072 3.13783 -2.35123 0
M  V30 4099 H 404.562 3.83642 -1.6495 0
M  V30 4100 N 404.999 1.35443 0.805782 0
M  V30 4101 C 405.949 1.24972 1.90699 0
M  V30 4102 C 406.933 0.144806 1.60247 0
M  V30 4103 O 408.125 0.376102 1.72958 0
M  V30 4104 C 405.254 1.02475 3.27649 0
M  V30 4105 C 404.34 2.17361 3.64164 0
M  V30 4106 N 404.731 3.42591 3.72109 0
M  V30 4107 C 403.029 2.08765 3.94123 0
M  V30 4108 C 403.73 4.18144 4.04389 0
M  V30 4109 N 402.706 3.4691 4.18515 0
M  V30 4110 H 406.508 2.19852 1.95044 0
M  V30 4111 H 404.022 1.27928 1.00041 0
M  V30 4112 H 406.019 0.930617 4.06381 0
M  V30 4113 H 404.679 0.0848009 3.24589 0
M  V30 4114 H 405.69 3.76932 3.55166 0
M  V30 4115 H 402.367 1.22629 3.99084 0
M  V30 4116 H 403.757 5.26367 4.17597 0
M  V30 4117 N 406.477 -1.02803 1.19454 0
M  V30 4118 C 407.424 -2.11099 0.933046 0
M  V30 4119 C 408.394 -1.65571 -0.132447 0
M  V30 4120 O 409.579 -1.90797 0.00987576 0
M  V30 4121 C 406.719 -3.41763 0.478747 0
M  V30 4122 C 405.832 -4.00833 1.6111 0
M  V30 4123 C 404.967 -5.19511 1.10825 0
M  V30 4124 C 404.006 -5.70639 2.21445 0
M  V30 4125 N 403.143 -6.80589 1.72461 0
M  V30 4126 H 407.983 -2.32804 1.86028 0
M  V30 4127 H 405.52 -1.14179 0.927441 0
M  V30 4128 H 407.478 -4.16736 0.196745 0
M  V30 4129 H 406.108 -3.20166 -0.411493 0
M  V30 4130 H 405.16 -3.23066 2.00829 0
M  V30 4131 H 406.472 -4.34794 2.4445 0
M  V30 4132 H 405.626 -6.01645 0.781533 0
M  V30 4133 H 404.365 -4.87086 0.244606 0
M  V30 4134 H 403.37 -4.87116 2.54947 0
M  V30 4135 H 404.595 -6.05102 3.08267 0
M  V30 4136 H 402.541 -6.50016 0.884056 0
M  V30 4137 H 402.458 -7.13681 2.49389 0
M  V30 4138 H 403.726 -7.66317 1.42755 0
M  V30 4139 N 407.956 -0.998596 -1.21925 0
M  V30 4140 C 409.186 -0.695276 -1.94549 0
M  V30 4141 C 409.594 0.745079 -1.73911 0
M  V30 4142 O 408.937 1.51507 -1.03881 0
M  V30 4143 C 408.999 -0.928485 -3.47303 0
M  V30 4144 C 408.663 -2.35443 -3.91683 0
M  V30 4145 C 409.66 -3.33428 -3.98901 0
M  V30 4146 C 407.345 -2.69038 -4.24174 0
M  V30 4147 C 409.339 -4.63079 -4.37992 0
M  V30 4148 C 407.026 -3.98906 -4.62944 0
M  V30 4149 C 408.024 -4.95738 -4.69822 0
M  V30 4150 O 407.712 -6.23285 -5.07711 0
M  V30 4151 H 407.444 -0.255902 -0.625692 0
M  V30 4152 H 409.998 -1.33767 -1.5587 0
M  V30 4153 H 408.228 -0.228917 -3.86022 0
M  V30 4154 H 409.917 -0.619539 -4.01144 0
M  V30 4155 H 410.683 -3.08807 -3.73983 0
M  V30 4156 H 406.562 -1.94367 -4.18022 0
M  V30 4157 H 410.106 -5.38658 -4.43275 0
M  V30 4158 H 406.003 -4.23314 -4.87314 0
M  V30 4159 H 406.771 -6.27306 -5.25766 0
M  V30 4160 N 409.434 1.37368 -0.772513 0
M  V30 4161 C 410.682 1.99279 -0.336516 0
M  V30 4162 C 411.003 1.6163 1.09091 0
M  V30 4163 O 410.273 0.882109 1.74916 0
M  V30 4164 H 408.853 0.737063 -0.121435 0
M  V30 4165 H 411.515 1.67836 -0.990809 0
M  V30 4166 H 410.611 3.09332 -0.414763 0
M  V30 4167 N 410.912 0.523116 1.48665 0
M  V30 4168 C 412.161 -0.01544 2.01694 0
M  V30 4169 C 412.474 -1.35975 1.40606 0
M  V30 4170 O 413.68 -1.98627 1.85093 0
M  V30 4171 C 412.136 -0.0779303 3.59816 0
M  V30 4172 C 411.744 1.26107 4.29885 0
M  V30 4173 C 413.488 -0.565678 4.20714 0
M  V30 4174 C 411.395 1.15954 5.79921 0
M  V30 4175 H 410.325 -0.00954163 0.75394 0
M  V30 4176 H 412.976 0.665865 1.70993 0
M  V30 4177 H 411.358 -0.824165 3.87329 0
M  V30 4178 H 412.532 2.02233 4.14051 0
M  V30 4179 H 410.847 1.68401 3.80828 0
M  V30 4180 H 413.444 -0.6595 5.30617 0
M  V30 4181 H 413.787 -1.56984 3.85567 0
M  V30 4182 H 414.32 0.12467 3.97605 0
M  V30 4183 H 411.059 2.13864 6.19631 0
M  V30 4184 H 410.579 0.439529 5.98187 0
M  V30 4185 H 412.258 0.847361 6.41427 0
M  V30 4186 N 412.39 -1.55475 0.257931 0
M  V30 4187 C 413.667 -1.91155 -0.414629 0
M  V30 4188 C 414.047 -1.18008 -1.75035 0
M  V30 4189 O 413.395 -0.301193 -2.26506 0
M  V30 4190 C 413.605 -3.44283 -0.571859 0
M  V30 4191 C 414.953 -4.15744 -0.862678 0
M  V30 4192 O 415.977 -3.50083 -0.657314 0
M  V30 4193 O 414.836 -5.31909 -1.2544 0
M  V30 4194 H 411.93 -0.796016 -0.22425 0
M  V30 4195 H 414.476 -1.66976 0.302814 0
M  V30 4196 H 413.248 -3.89558 0.368844 0
M  V30 4197 H 412.871 -3.7436 -1.33943 0
M  V30 4198 N 413.868 0.0150385 -1.57593 0
M  V30 4199 C 415.114 0.69849 -1.91031 0
M  V30 4200 C 415.469 1.72208 -0.85804 0
M  V30 4201 O 414.762 1.91147 0.131614 0
M  V30 4202 C 414.956 1.39686 -3.28972 0
M  V30 4203 C 414.785 0.442428 -4.47518 0
M  V30 4204 C 413.555 0.0583223 -5.05266 0
M  V30 4205 C 415.753 -0.285072 -5.13509 0
M  V30 4206 N 413.735 -0.895893 -6.07328 0
M  V30 4207 C 415.106 -1.09447 -6.10263 0
M  V30 4208 C 417.161 -0.350518 -4.96665 0
M  V30 4209 C 415.864 -1.96333 -6.91987 0
M  V30 4210 C 417.89 -1.20655 -5.78962 0
M  V30 4211 C 417.252 -2.00383 -6.75297 0
M  V30 4212 H 413.351 0.22926 -0.747639 0
M  V30 4213 H 415.935 -0.0417748 -1.94655 0
M  V30 4214 H 414.106 2.1075 -3.2625 0
M  V30 4215 H 415.838 2.03381 -3.49883 0
M  V30 4216 H 412.593 0.423506 -4.71703 0
M  V30 4217 H 413.017 -1.36792 -6.63036 0
M  V30 4218 H 417.659 0.251596 -4.22051 0
M  V30 4219 H 415.377 -2.57618 -7.65936 0
M  V30 4220 H 418.963 -1.2609 -5.67972 0
M  V30 4221 H 417.843 -2.65552 -7.3787 0
M  V30 4222 N 415.346 1.54954 0.287554 0
M  V30 4223 C 416.309 1.86076 1.33823 0
M  V30 4224 C 417.309 0.734414 1.43049 0
M  V30 4225 O 418.499 1.00266 1.42452 0
M  V30 4226 C 415.631 2.05305 2.72144 0
M  V30 4227 H 416.824 2.79984 1.07465 0
M  V30 4228 H 414.377 1.47223 0.524902 0
M  V30 4229 H 415.112 1.1373 3.03704 0
M  V30 4230 H 414.897 2.873 2.66836 0
M  V30 4231 H 416.387 2.30706 3.48087 0
M  V30 4232 N 416.824 -0.551391 1.4764 0
M  V30 4233 C 418.049 -1.33837 1.58437 0
M  V30 4234 C 418.474 -1.866 0.237063 0
M  V30 4235 O 417.832 -1.6328 -0.787994 0
M  V30 4236 C 417.88 -2.48014 2.61766 0
M  V30 4237 O 416.984 -3.50419 2.1744 0
M  V30 4238 H 416.325 -0.397299 0.532024 0
M  V30 4239 H 418.855 -0.665759 1.93465 0
M  V30 4240 H 418.865 -2.94503 2.82369 0
M  V30 4241 H 417.54 -2.08969 3.5959 0
M  V30 4242 H 416.117 -3.10196 2.06961 0
M  V30 4243 N 418.302 -1.35869 -0.798587 0
M  V30 4244 C 419.55 -1.29332 -1.55298 0
M  V30 4245 C 419.871 0.129729 -1.94568 0
M  V30 4246 O 419.141 1.06796 -1.6423 0
M  V30 4247 H 417.721 -0.475737 -0.57592 0
M  V30 4248 H 420.383 -1.70062 -0.952093 0
M  V30 4249 H 419.479 -1.91458 -2.46476 0
M  V30 4250 N 419.78 1.02168 -1.19998 0
M  V30 4251 C 421.196 1.27969 -0.953737 0
M  V30 4252 C 421.396 1.98079 0.369703 0
M  V30 4253 O 420.452 2.27306 1.09947 0
M  V30 4254 C 421.765 2.11971 -2.13281 0
M  V30 4255 C 423.313 2.25255 -2.17323 0
M  V30 4256 C 423.788 3.12632 -3.34702 0
M  V30 4257 N 425.279 3.2022 -3.34684 0
M  V30 4258 C 426.014 3.88039 -4.22153 0
M  V30 4259 N 425.51 4.58027 -5.19791 0
M  V30 4260 N 427.303 3.84511 -4.10009 0
M  V30 4261 H 419.454 0.550794 -2.05134 0
M  V30 4262 H 421.717 0.305683 -0.897364 0
M  V30 4263 H 421.423 1.67785 -3.09097 0
M  V30 4264 H 421.297 3.12699 -2.10949 0
M  V30 4265 H 423.684 2.68667 -1.22073 0
M  V30 4266 H 423.765 1.24053 -2.23706 0
M  V30 4267 H 423.409 2.69926 -4.30235 0
M  V30 4268 H 423.339 4.13909 -3.25556 0
M  V30 4269 H 425.83 2.70382 -2.64012 0
M  V30 4270 H 426.143 5.07429 -5.82868 0
M  V30 4271 H 424.488 4.56869 -5.23733 0
M  V30 4272 H 427.679 3.28978 -3.33003 0
M  V30 4273 H 427.852 4.3709 -4.78389 0
M  V30 4274 N 421.258 1.00505 1.21394 0
M  V30 4275 C 422.506 0.686415 1.90086 0
M  V30 4276 C 422.827 -0.785264 1.7849 0
M  V30 4277 O 422.097 -1.56387 1.17983 0
M  V30 4278 H 420.677 0.2509 0.703604 0
M  V30 4279 H 423.339 1.27417 1.47482 0
M  V30 4280 H 422.435 0.959621 2.96981 0
M  V30 4281 N 422.737 -1.36956 0.779787 0
M  V30 4282 C 423.983 -1.99787 0.348281 0
M  V30 4283 C 424.316 -1.61756 -1.07465 0
M  V30 4284 O 423.591 -0.867639 -1.74075 0
M  V30 4285 C 423.874 -3.56597 0.50104 0
M  V30 4286 C 423.727 -4.04513 1.96697 0
M  V30 4287 C 425.046 -4.40008 -0.0898097 0
M  V30 4288 H 422.165 -0.725796 0.128022 0
M  V30 4289 H 424.807 -1.62514 0.984331 0
M  V30 4290 H 422.957 -3.88479 -0.0404347 0
M  V30 4291 H 424.629 -3.83161 2.56876 0
M  V30 4292 H 422.872 -3.56408 2.47297 0
M  V30 4293 H 423.543 -5.1352 2.02486 0
M  V30 4294 H 426.019 -4.14431 0.372293 0
M  V30 4295 H 424.895 -5.4888 0.0471605 0
M  V30 4296 H 425.156 -4.26035 -1.18096 0
M  V30 4297 N 424.215 -0.530993 -1.48385 0
M  V30 4298 C 425.463 0.00273189 -2.021 0
M  V30 4299 C 425.784 1.34672 -1.41027 0
M  V30 4300 O 425.054 1.8724 -0.576012 0
M  V30 4301 H 423.634 0.00399774 -0.746989 0
M  V30 4302 H 426.296 -0.695054 -1.82085 0
M  V30 4303 H 425.392 0.11031 -3.11905 0
M  V30 4304 N 425.693 1.55336 -0.266172 0
M  V30 4305 C 426.643 2.18848 0.639497 0
M  V30 4306 C 427.627 1.1503 1.12503 0
M  V30 4307 O 428.819 1.40875 1.0716 0
M  V30 4308 C 425.948 2.90626 1.82733 0
M  V30 4309 C 425.034 4.01723 1.35939 0
M  V30 4310 N 425.425 5.02145 0.606988 0
M  V30 4311 C 423.723 4.1463 1.6431 0
M  V30 4312 C 424.424 5.80572 0.362138 0
M  V30 4313 N 423.4 5.35551 0.931971 0
M  V30 4314 H 427.202 2.93845 0.0567057 0
M  V30 4315 H 424.716 1.62252 -0.0693312 0
M  V30 4316 H 426.713 3.34569 2.48735 0
M  V30 4317 H 425.373 2.17137 2.41416 0
M  V30 4318 H 426.384 5.17271 0.255198 0
M  V30 4319 H 423.061 3.52326 2.23993 0
M  V30 4320 H 424.451 6.71472 -0.239848 0
M  V30 4321 N 427.171 -0.0066808 1.57599 0
M  V30 4322 C 428.582 -0.550379 1.78403 0
M  V30 4323 C 428.933 -1.74339 0.900014 0
M  V30 4324 O 428.058 -2.16166 0.100713 0
M  V30 4325 C 428.653 -1.00523 3.23544 0
M  V30 4326 C 427.212 -1.49428 3.45468 0
M  V30 4327 C 426.359 -0.442444 2.73748 0
M  V30 4328 H 429.31 0.219508 1.57175 0
M  V30 4329 H 429.331 -1.87157 3.31289 0
M  V30 4330 H 428.843 -0.136735 3.87859 0
M  V30 4331 H 426.944 -2.3839 2.86358 0
M  V30 4332 H 427.057 -1.52635 4.54136 0
M  V30 4333 H 425.421 -0.902578 2.38171 0
M  V30 4334 H 426.204 0.416973 3.40758 0
M  V30 4335 N 428.649 -1.55105 -0.279332 0
M  V30 4336 C 429.879 -1.7917 -1.02867 0
M  V30 4337 C 430.287 -0.56204 -1.80659 0
M  V30 4338 O 429.63 0.478266 -1.77365 0
M  V30 4339 C 429.692 -2.96061 -2.03932 0
M  V30 4340 C 429.356 -4.33341 -1.45137 0
M  V30 4341 C 430.353 -5.12565 -0.870266 0
M  V30 4342 C 428.038 -4.79987 -1.48048 0
M  V30 4343 C 430.032 -6.36565 -0.326097 0
M  V30 4344 C 427.719 -6.03944 -0.932443 0
M  V30 4345 C 428.717 -6.8207 -0.356247 0
M  V30 4346 O 428.405 -8.03691 0.183412 0
M  V30 4347 H 428.137 -0.600796 -0.309872 0
M  V30 4348 H 430.691 -2.02932 -0.317468 0
M  V30 4349 H 428.921 -2.67975 -2.78794 0
M  V30 4350 H 430.61 -3.07506 -2.64943 0
M  V30 4351 H 431.376 -4.77661 -0.840521 0
M  V30 4352 H 427.255 -4.1919 -1.91835 0
M  V30 4353 H 430.799 -6.97489 0.124286 0
M  V30 4354 H 426.696 -6.3833 -0.959407 0
M  V30 4355 H 427.464 -8.18468 0.0721681 0
M  V30 4356 N 430.127 0.543554 -1.4793 0
M  V30 4357 C 431.543 0.870806 -1.3375 0
M  V30 4358 C 431.743 1.9864 -0.338261 0
M  V30 4359 O 430.799 2.51305 0.245371 0
M  V30 4360 C 432.112 1.25114 -2.73435 0
M  V30 4361 C 433.66 1.3618 -2.81823 0
M  V30 4362 C 434.135 1.77563 -4.22179 0
M  V30 4363 N 435.626 1.8469 -4.24787 0
M  V30 4364 C 436.361 2.18067 -5.30315 0
M  V30 4365 N 435.857 2.49963 -6.46135 0
M  V30 4366 N 437.65 2.18958 -5.17701 0
M  V30 4367 H 429.801 -0.19275 -2.11524 0
M  V30 4368 H 432.064 -0.0235777 -0.947707 0
M  V30 4369 H 431.77 0.50514 -3.48053 0
M  V30 4370 H 431.644 2.20431 -3.06088 0
M  V30 4371 H 434.031 2.09859 -2.07468 0
M  V30 4372 H 434.112 0.390169 -2.52807 0
M  V30 4373 H 433.756 1.04449 -4.97044 0
M  V30 4374 H 433.686 2.75753 -4.48629 0
M  V30 4375 H 436.177 1.62372 -3.41239 0
M  V30 4376 H 436.49 2.74497 -7.22406 0
M  V30 4377 H 434.835 2.47513 -6.49432 0
M  V30 4378 H 438.026 1.93488 -4.2624 0
M  V30 4379 H 438.199 2.44639 -6.00047 0
M  V30 4380 N 431.605 1.3629 0.791371 0
M  V30 4381 C 433.021 1.16661 1.08914 0
M  V30 4382 C 433.221 -0.0106266 2.01497 0
M  V30 4383 O 432.277 -0.676596 2.43266 0
M  V30 4384 C 433.59 2.47656 1.70549 0
M  V30 4385 C 435.138 2.54002 1.82899 0
M  V30 4386 C 435.613 3.85078 2.47949 0
M  V30 4387 N 437.104 3.86413 2.5542 0
M  V30 4388 C 437.839 4.84572 3.06557 0
M  V30 4389 N 437.335 5.93124 3.58016 0
M  V30 4390 N 439.128 4.71994 3.05251 0
M  V30 4391 H 431.279 2.11668 0.176238 0
M  V30 4392 H 433.542 0.937486 0.140796 0
M  V30 4393 H 433.248 3.34059 1.09989 0
M  V30 4394 H 433.122 2.63319 2.70079 0
M  V30 4395 H 435.509 1.68018 2.42598 0
M  V30 4396 H 435.59 2.42239 0.821808 0
M  V30 4397 H 435.234 4.71467 1.88895 0
M  V30 4398 H 435.164 3.94135 3.49235 0
M  V30 4399 H 437.655 3.07988 2.18979 0
M  V30 4400 H 437.968 6.63999 3.95381 0
M  V30 4401 H 436.313 5.96796 3.56173 0
M  V30 4402 H 439.504 3.86321 2.64336 0
M  V30 4403 H 439.677 5.48653 3.44796 0
M  V30 4404 N 433.083 -1.0153 1.20538 0
M  V30 4405 C 434.329 -1.75408 1.01783 0
M  V30 4406 C 434.662 -1.88943 -0.448814 0
M  V30 4407 O 433.937 -1.4162 -1.33319 0
M  V30 4408 C 434.22 -3.17255 1.70356 0
M  V30 4409 C 434.073 -3.11508 3.24473 0
M  V30 4410 C 435.392 -4.15955 1.43769 0
M  V30 4411 H 432.511 -0.636713 0.371167 0
M  V30 4412 H 435.153 -1.18436 1.4857 0
M  V30 4413 H 433.303 -3.65898 1.30578 0
M  V30 4414 H 434.975 -2.70658 3.73553 0
M  V30 4415 H 433.218 -2.4887 3.55311 0
M  V30 4416 H 433.889 -4.11784 3.67611 0
M  V30 4417 H 436.365 -3.75973 1.7828 0
M  V30 4418 H 435.241 -5.13368 1.94279 0
M  V30 4419 H 435.502 -4.40586 0.365564 0
M  V30 4420 N 434.561 -1.01147 -1.20859 0
M  V30 4421 C 435.977 -0.725422 -1.42161 0
M  V30 4422 C 436.177 0.696919 -1.89064 0
M  V30 4423 O 435.233 1.46539 -2.05627 0
M  V30 4424 C 436.546 -1.74678 -2.44761 0
M  V30 4425 C 438.094 -1.76433 -2.58535 0
M  V30 4426 C 438.569 -2.77481 -3.64374 0
M  V30 4427 N 440.06 -2.76189 -3.71852 0
M  V30 4428 C 440.795 -3.51035 -4.53389 0
M  V30 4429 N 440.291 -4.35541 -5.38773 0
M  V30 4430 N 442.084 -3.39655 -4.47873 0
M  V30 4431 H 434.235 -1.92979 -0.887282 0
M  V30 4432 H 436.498 -0.833327 -0.451962 0
M  V30 4433 H 436.204 -2.76551 -2.17285 0
M  V30 4434 H 436.078 -1.55472 -3.43669 0
M  V30 4435 H 438.465 -0.75248 -2.85345 0
M  V30 4436 H 438.546 -1.99712 -1.5984 0
M  V30 4437 H 438.19 -3.78827 -3.38308 0
M  V30 4438 H 438.12 -2.51466 -4.6268 0
M  V30 4439 H 440.611 -2.14885 -3.10858 0
M  V30 4440 H 440.924 -4.89432 -5.98061 0
M  V30 4441 H 439.269 -4.39621 -5.38292 0
M  V30 4442 H 442.46 -2.73063 -3.80203 0
M  V30 4443 H 442.633 -3.9824 -5.11184 0
M  V30 4444 N 436.039 1.36541 -0.78704 0
M  V30 4445 C 436.972 2.27831 -0.129765 0
M  V30 4446 C 437.95 1.47105 0.692732 0
M  V30 4447 O 439.134 1.7641 0.664222 0
M  V30 4448 C 436.261 3.28577 0.821883 0
M  V30 4449 C 435.307 4.26422 0.0814771 0
M  V30 4450 S 436.14 5.20919 -1.24112 0
M  V30 4451 C 437.296 6.25212 -0.293409 0
M  V30 4452 H 437.529 2.83229 -0.903811 0
M  V30 4453 H 435.062 1.43046 -0.581144 0
M  V30 4454 H 437.02 3.87123 1.3655 0
M  V30 4455 H 435.681 2.72096 1.56916 0
M  V30 4456 H 434.874 4.97554 0.803485 0
M  V30 4457 H 434.476 3.71944 -0.391589 0
M  V30 4458 H 436.768 6.75435 0.528622 0
M  V30 4459 H 437.711 7.01378 -0.973344 0
M  V30 4460 H 438.119 5.64407 0.102196 0
M  V30 4461 N 437.518 0.538854 1.48102 0
M  V30 4462 C 438.451 -0.266495 2.26639 0
M  V30 4463 C 439.429 -0.93687 1.32897 0
M  V30 4464 O 440.613 -0.959507 1.62252 0
M  V30 4465 C 437.74 -1.37814 3.09394 0
M  V30 4466 C 436.786 -0.818247 4.18577 0
M  V30 4467 S 437.619 0.320848 5.34538 0
M  V30 4468 C 438.775 -0.793059 6.20855 0
M  V30 4469 H 439.008 0.399994 2.94597 0
M  V30 4470 H 436.541 0.324808 1.50945 0
M  V30 4471 H 438.499 -2.01488 3.57649 0
M  V30 4472 H 437.16 -2.01639 2.40833 0
M  V30 4473 H 436.353 -1.65247 4.7614 0
M  V30 4474 H 435.955 -0.258036 3.73109 0
M  V30 4475 H 438.247 -1.68961 6.56093 0
M  V30 4476 H 439.19 -0.255204 7.0764 0
M  V30 4477 H 439.598 -1.07746 5.54122 0
M  V30 4478 N 438.996 -1.55193 0.274407 0
M  V30 4479 C 439.926 -2.25471 -0.607032 0
M  V30 4480 C 440.907 -1.24461 -1.15946 0
M  V30 4481 O 442.092 -1.53179 -1.19373 0
M  V30 4482 C 439.222 -2.97526 -1.79153 0
M  V30 4483 C 438.176 -4.05459 -1.37067 0
M  V30 4484 C 437.502 -4.65084 -2.6382 0
M  V30 4485 C 438.802 -5.19691 -0.521389 0
M  V30 4486 H 440.496 -2.99393 -0.0209343 0
M  V30 4487 H 438.042 -1.43997 -0.00862866 0
M  V30 4488 H 439.995 -3.45402 -2.41404 0
M  V30 4489 H 438.719 -2.21138 -2.40344 0
M  V30 4490 H 437.378 -3.58393 -0.771355 0
M  V30 4491 H 437.026 -3.85365 -3.23268 0
M  V30 4492 H 436.726 -5.37961 -2.36372 0
M  V30 4493 H 438.25 -5.15708 -3.26921 0
M  V30 4494 H 439.664 -5.63623 -1.04889 0
M  V30 4495 H 438.061 -5.99126 -0.341825 0
M  V30 4496 H 439.131 -4.82713 0.46 0
M  V30 4497 N 440.474 -0.00167713 -1.576 0
M  V30 4498 C 441.89 0.354422 -1.55615 0
M  V30 4499 C 442.09 1.74679 -1.00447 0
M  V30 4500 O 441.146 2.4428 -0.639022 0
M  V30 4501 C 442.459 0.22812 -2.99833 0
M  V30 4502 C 444.007 0.302934 -3.11531 0
M  V30 4503 C 444.482 0.205737 -4.57538 0
M  V30 4504 N 445.973 0.263584 -4.62449 0
M  V30 4505 C 446.708 0.211742 -5.73009 0
M  V30 4506 N 446.204 0.110399 -6.92712 0
M  V30 4507 N 447.997 0.263729 -5.61481 0
M  V30 4508 H 440.148 -0.912498 -1.918 0
M  V30 4509 H 442.411 -0.349928 -0.881053 0
M  V30 4510 H 442.117 -0.729934 -3.44042 0
M  V30 4511 H 441.991 1.00951 -3.6344 0
M  V30 4512 H 444.378 1.25143 -2.67251 0
M  V30 4513 H 444.459 -0.508357 -2.50698 0
M  V30 4514 H 444.103 -0.739225 -5.02492 0
M  V30 4515 H 444.033 1.03554 -5.16318 0
M  V30 4516 H 446.524 0.343173 -3.76339 0
M  V30 4517 H 446.837 0.0767828 -7.72762 0
M  V30 4518 H 445.182 0.0760025 -6.94958 0
M  V30 4519 H 448.373 0.34111 -4.66855 0
M  V30 4520 H 448.546 0.219862 -6.47627 0
M  V30 4521 O 441.991 1.60887 0.140552 0
M  V30 4522 H 442.682 1.77558 0.77413 0
M  V30 END ATOM
M  V30 BEGIN BOND
M  V30 END BOND
M  V30 END CTAB
M  END
$$$$
