drugbank_target|O75746 Calcium-binding mitochondrial carrier protein Aralar1 (DB00128)
 OpenBabel12092119273D

  0  0  0     0  0            999 V3000
M  V30 BEGIN CTAB
M  V30 COUNTS 10582 10703 0 0 0
M  V30 BEGIN ATOM
M  V30 1 H -0.908 1.98254 -0.117106 0
M  V30 2 N 0 1.576 0 0
M  V30 3 C 0.933 2.03868 1.02534 0
M  V30 4 C 1.911 0.928543 1.3348 0
M  V30 5 O 3.095 1.19667 1.45644 0
M  V30 6 C 0.222 2.43627 2.35294 0
M  V30 7 C -0.732 3.65373 2.2001 0
M  V30 8 S 0.101 5.13292 1.52614 0
M  V30 9 C 1.257 5.56322 2.86805 0
M  V30 10 H 1.49 2.90518 0.631377 0
M  V30 11 H -0.977 1.52953 0.210867 0
M  V30 12 H 0.981 2.67203 3.11629 0
M  V30 13 H -0.358 1.57376 2.7183 0
M  V30 14 H -1.165 3.90944 3.18086 0
M  V30 15 H -1.563 3.418 1.51819 0
M  V30 16 H 0.729 5.58782 3.83104 0
M  V30 17 H 1.672 6.56266 2.65933 0
M  V30 18 H 2.08 4.83886 2.90714 0
M  V30 19 N 1.4781 -0.272755 1.55222 0
M  V30 20 C 2.4411 -1.32041 1.87344 0
M  V30 21 C 3.4411 -1.42342 0.74803 0
M  V30 22 O 4.6311 -1.41488 1.0162 0
M  V30 23 C 1.7631 -2.70173 2.07893 0
M  V30 24 H 2.9561 -1.04789 2.80997 0
M  V30 25 H 0.5091 -0.51083 1.47717 0
M  V30 26 H 1.2441 -3.02605 1.16622 0
M  V30 27 H 1.0291 -2.64082 2.89833 0
M  V30 28 H 2.5191 -3.45869 2.34017 0
M  V30 29 N 2.9562 -1.48159 -0.537278 0
M  V30 30 C 4.2022 -1.56035 -1.29541 0
M  V30 31 C 4.5352 -0.230377 -1.92829 0
M  V30 32 O 3.8102 0.762952 -1.78911 0
M  V30 33 C 4.0932 -2.69323 -2.39034 0
M  V30 34 C 3.9462 -4.12002 -1.80485 0
M  V30 35 C 5.2652 -2.78408 -3.40847 0
M  V30 36 H 2.3842 -0.567992 -0.469632 0
M  V30 37 H 5.0262 -1.80302 -0.599277 0
M  V30 38 H 3.1762 -2.48763 -2.98412 0
M  V30 39 H 4.8482 -4.43981 -1.25215 0
M  V30 40 H 3.0912 -4.19344 -1.11055 0
M  V30 41 H 3.7622 -4.87077 -2.59731 0
M  V30 42 H 6.2382 -2.97012 -2.91416 0
M  V30 43 H 5.1142 -3.59416 -4.14863 0
M  V30 44 H 5.3752 -1.86269 -4.00944 0
M  V30 45 N 4.4343 0.785586 -1.36625 0
M  V30 46 C 5.3813 1.89838 -1.31264 0
M  V30 47 C 6.3513 1.65115 -0.180633 0
M  V30 48 O 7.5363 1.87222 -0.36777 0
M  V30 49 C 4.6763 3.26706 -1.11163 0
M  V30 50 C 3.7893 3.63476 -2.33472 0
M  V30 51 C 2.9243 4.89481 -2.06353 0
M  V30 52 C 1.9633 5.18941 -3.24602 0
M  V30 53 N 1.1003 6.36131 -2.97123 0
M  V30 54 H 5.9403 1.93756 -2.26413 0
M  V30 55 H 3.4773 0.947454 -1.12524 0
M  V30 56 H 5.4353 4.05639 -0.975337 0
M  V30 57 H 4.0653 3.222 -0.196674 0
M  V30 58 H 3.1173 2.79636 -2.57891 0
M  V30 59 H 4.4293 3.81193 -3.21704 0
M  V30 60 H 3.5833 5.76288 -1.89675 0
M  V30 61 H 2.3223 4.73841 -1.15437 0
M  V30 62 H 1.3273 4.30615 -3.41834 0
M  V30 63 H 2.5523 5.36498 -4.16349 0
M  V30 64 H 0.4983 6.21875 -2.08823 0
M  V30 65 H 0.4153 6.54198 -3.78894 0
M  V30 66 H 1.6833 7.2591 -2.84033 0
M  V30 67 N 5.9124 1.20967 1.01018 0
M  V30 68 C 7.1584 1.02526 1.74975 0
M  V30 69 C 7.4914 -0.4408 1.89131 0
M  V30 70 O 6.7664 -1.32718 1.42184 0
M  V30 71 C 7.0494 1.71699 3.1653 0
M  V30 72 C 6.9024 3.25791 3.10129 0
M  V30 73 C 8.2214 1.45531 4.15342 0
M  V30 74 H 5.3404 0.373863 0.635134 0
M  V30 75 H 7.9824 1.49071 1.17805 0
M  V30 76 H 6.1324 1.32128 3.65341 0
M  V30 77 H 7.8044 3.74697 2.69072 0
M  V30 78 H 6.0474 3.56363 2.47362 0
M  V30 79 H 6.7184 3.69353 4.10222 0
M  V30 80 H 9.1944 1.79872 3.75213 0
M  V30 81 H 8.0704 1.96453 5.1254 0
M  V30 82 H 8.3314 0.384237 4.40427 0
M  V30 83 N 7.3905 -1.2043 1.01659 0
M  V30 84 C 8.3225 -2.22626 0.544988 0
M  V30 85 C 9.3355 -1.58479 -0.372609 0
M  V30 86 O 10.5245 -1.77679 -0.170958 0
M  V30 87 C 7.6245 -3.38141 -0.22663 0
M  V30 88 C 6.7975 -4.31877 0.692876 0
M  V30 89 C 5.8565 -5.26191 -0.0311616 0
M  V30 90 O 4.8825 -5.6612 0.591343 0
M  V30 91 N 6.0845 -5.65618 -1.30601 0
M  V30 92 H 8.8495 -2.63716 1.42388 0
M  V30 93 H 6.4105 -1.34971 0.894116 0
M  V30 94 H 8.4025 -3.98239 -0.72024 0
M  V30 95 H 6.9725 -2.95943 -1.00681 0
M  V30 96 H 6.1925 -3.69746 1.36679 0
M  V30 97 H 7.4805 -4.91426 1.31824 0
M  V30 98 H 6.8785 -5.3519 -1.83269 0
M  V30 99 H 5.4355 -6.28025 -1.74435 0
M  V30 100 N 8.8686 -0.792821 -1.36206 0
M  V30 101 C 10.0966 -0.378825 -2.03402 0
M  V30 102 C 10.5116 1.00586 -1.59774 0
M  V30 103 O 9.8686 1.64574 -0.788764 0
M  V30 104 C 9.9196 -0.43683 -3.58851 0
M  V30 105 O 9.6406 -1.76691 -4.00889 0
M  V30 106 C 11.1416 -0.0138943 -4.43298 0
M  V30 107 H 8.3616 -0.155673 -0.652692 0
M  V30 108 H 10.9056 -1.07261 -1.74113 0
M  V30 109 H 9.0606 0.208575 -3.86838 0
M  V30 110 H 9.4746 -1.72011 -4.95492 0
M  V30 111 H 10.9486 -0.105615 -5.51899 0
M  V30 112 H 11.4256 1.03915 -4.2673 0
M  V30 113 H 12.0316 -0.63192 -4.20579 0
M  V30 114 N 10.3467 1.47872 -0.545128 0
M  V30 115 C 11.5747 2.06889 -0.021084 0
M  V30 116 C 11.9897 1.39955 1.2672 0
M  V30 117 O 11.3467 0.492036 1.75742 0
M  V30 118 C 11.3977 3.60996 0.190817 0
M  V30 119 O 11.1187 4.25419 -1.04644 0
M  V30 120 C 12.6197 4.36849 0.753521 0
M  V30 121 H 9.8397 0.669785 -0.0403635 0
M  V30 122 H 12.3837 1.90049 -0.755095 0
M  V30 123 H 10.5387 3.77391 0.87492 0
M  V30 124 H 10.9527 5.17785 -0.836611 0
M  V30 125 H 12.4267 5.45399 0.851139 0
M  V30 126 H 12.9037 4.02306 1.762 0
M  V30 127 H 13.5097 4.25169 0.105503 0
M  V30 128 N 11.8248 0.280983 1.55075 0
M  V30 129 C 12.7718 -0.603937 2.22758 0
M  V30 130 C 13.7418 -1.1452 1.20309 0
M  V30 131 O 14.9268 -1.19343 1.48869 0
M  V30 132 C 12.0668 -1.77947 2.95684 0
M  V30 133 C 11.1798 -1.2715 4.12864 0
M  V30 134 C 10.3148 -2.4093 4.7342 0
M  V30 135 C 9.3538 -1.87165 5.82783 0
M  V30 136 N 8.4908 -2.94441 6.37377 0
M  V30 137 H 13.3308 -0.020124 2.97993 0
M  V30 138 H 10.8678 0.00183425 1.471 0
M  V30 139 H 12.8258 -2.47055 3.36184 0
M  V30 140 H 11.4558 -2.33522 2.22861 0
M  V30 141 H 10.5078 -0.473331 3.77444 0
M  V30 142 H 11.8198 -0.837751 4.91715 0
M  V30 143 H 10.9738 -3.18021 5.1667 0
M  V30 144 H 9.7128 -2.87623 3.93859 0
M  V30 145 H 8.7178 -1.08556 5.38976 0
M  V30 146 H 9.9428 -1.41401 6.64216 0
M  V30 147 H 7.8888 -3.40505 5.60707 0
M  V30 148 H 7.8058 -2.55501 7.11516 0
M  V30 149 H 9.0738 -3.71489 6.85285 0
M  V30 150 N 13.3029 -1.57598 0.00835791 0
M  V30 151 C 14.7189 -1.55764 -0.347822 0
M  V30 152 C 14.9189 -1.01186 -1.74252 0
M  V30 153 O 13.9749 -0.649371 -2.44007 0
M  V30 154 C 15.2879 -2.99927 -0.215407 0
M  V30 155 C 16.8359 -3.11656 -0.289725 0
M  V30 156 C 17.3109 -4.57621 -0.18634 0
M  V30 157 N 18.8019 -4.62557 -0.243978 0
M  V30 158 C 19.5369 -5.73094 -0.18745 0
M  V30 159 N 19.0329 -6.92753 -0.0810331 0
M  V30 160 N 20.8259 -5.61588 -0.239925 0
M  V30 161 H 12.9769 -1.91411 0.92062 0
M  V30 162 H 15.2399 -0.879562 0.353659 0
M  V30 163 H 14.9459 -3.43729 0.744512 0
M  V30 164 H 14.8199 -3.63865 -0.994097 0
M  V30 165 H 17.2069 -2.67779 -1.24009 0
M  V30 166 H 17.2879 -2.5048 0.51898 0
M  V30 167 H 16.9319 -5.02174 0.760519 0
M  V30 168 H 16.8619 -5.16752 -1.01364 0
M  V30 169 H 19.3529 -3.76481 -0.327217 0
M  V30 170 H 19.6659 -7.72787 -0.0440241 0
M  V30 171 H 18.0109 -6.94984 -0.0465419 0
M  V30 172 H 21.2019 -4.66996 -0.321317 0
M  V30 173 H 21.3749 -6.47714 -0.192407 0
M  V30 174 N 14.781 0.264519 -1.55364 0
M  V30 175 C 16.029 0.993021 -1.76021 0
M  V30 176 C 16.35 1.86511 -0.569099 0
M  V30 177 O 15.62 1.91438 0.415735 0
M  V30 178 H 14.2 0.369639 -0.649135 0
M  V30 179 H 16.862 0.286707 -1.9278 0
M  V30 180 H 15.958 1.62502 -2.66457 0
M  V30 181 N 16.2591 1.48442 0.529413 0
M  V30 182 C 17.5361 1.46978 1.29062 0
M  V30 183 C 17.9161 0.181769 2.10316 0
M  V30 184 O 17.2641 -0.836481 2.12639 0
M  V30 185 C 17.4741 2.7321 2.17157 0
M  V30 186 C 18.8221 3.21562 2.77278 0
M  V30 187 O 19.8461 2.74131 2.27444 0
M  V30 188 O 18.7051 4.04094 3.67927 0
M  V30 189 H 15.7991 0.587003 0.582543 0
M  V30 190 H 18.3451 1.60676 0.546021 0
M  V30 191 H 17.1171 3.58465 1.56903 0
M  V30 192 H 16.7401 2.62235 2.98862 0
M  V30 193 N 17.7372 -0.778329 1.37039 0
M  V30 194 C 19.1482 -1.35421 1.28523 0
M  V30 195 C 19.4992 -1.96075 -0.0700901 0
M  V30 196 O 18.6242 -1.93352 -0.971801 0
M  V30 197 C 19.2192 -2.46211 2.32735 0
M  V30 198 C 17.7782 -2.99585 2.27873 0
M  V30 199 C 16.9252 -1.72748 2.16918 0
M  V30 200 H 19.8762 -0.5791 1.47757 0
M  V30 201 H 19.8972 -3.2552 1.9702 0
M  V30 202 H 19.4092 -2.02036 3.31365 0
M  V30 203 H 17.5102 -3.48152 1.32745 0
M  V30 204 H 17.6232 -3.55646 3.21018 0
M  V30 205 H 15.9872 -1.95416 1.63354 0
M  V30 206 H 16.7702 -1.30686 3.17452 0
M  V30 207 N 19.2153 -1.21501 -1.00376 0
M  V30 208 C 20.1653 -0.942843 -2.07592 0
M  V30 209 C 21.1493 0.102384 -1.60574 0
M  V30 210 O 22.3413 -0.10671 -1.76678 0
M  V30 211 C 19.4703 -0.510729 -3.3948 0
M  V30 212 C 18.5563 -1.59009 -3.93163 0
M  V30 213 N 18.9473 -2.81544 -4.20198 0
M  V30 214 C 17.2453 -1.45925 -4.21452 0
M  V30 215 C 17.9463 -3.51261 -4.63671 0
M  V30 216 N 16.9223 -2.78703 -4.66718 0
M  V30 217 H 20.7243 -1.87378 -2.26421 0
M  V30 218 H 18.2383 -1.11093 -1.18458 0
M  V30 219 H 20.2353 -0.297101 -4.1584 0
M  V30 220 H 18.8953 0.413436 -3.22057 0
M  V30 221 H 19.9063 -3.18075 -4.08716 0
M  V30 222 H 16.5833 -0.600467 -4.13159 0
M  V30 223 H 17.9733 -4.56183 -4.93302 0
M  V30 224 N 20.6934 1.19889 -1.02296 0
M  V30 225 C 21.6034 2.26571 -0.608508 0
M  V30 226 C 22.6194 1.70299 0.356964 0
M  V30 227 O 23.7954 2.00235 0.216326 0
M  V30 228 C 20.8604 3.46677 0.0402814 0
M  V30 229 C 19.9214 4.18153 -0.97194 0
M  V30 230 C 19.1544 5.32525 -0.354016 0
M  V30 231 O 19.3774 5.64112 0.844604 0
M  V30 232 O 18.3114 5.92242 -1.07391 0
M  V30 233 H 22.1374 2.64251 -1.49684 0
M  V30 234 H 19.7224 1.26629 -0.792809 0
M  V30 235 H 21.6044 4.19475 0.402324 0
M  V30 236 H 20.2794 3.10858 0.902707 0
M  V30 237 H 19.1864 3.47499 -1.38546 0
M  V30 238 H 20.5194 4.57927 -1.80454 0
M  V30 239 N 22.1715 0.800033 1.35784 0
M  V30 240 C 23.1015 0.220184 2.3246 0
M  V30 241 C 24.0825 -0.65073 1.57161 0
M  V30 242 O 25.2675 -0.582359 1.85263 0
M  V30 243 C 22.3975 -0.637353 3.41402 0
M  V30 244 C 21.3515 0.134531 4.27789 0
M  V30 245 C 20.6775 -0.844285 5.27992 0
M  V30 246 C 21.9775 1.32979 5.05088 0
M  V30 247 H 23.6715 1.02787 2.81203 0
M  V30 248 H 21.2175 0.495717 1.35199 0
M  V30 249 H 23.1705 -1.05302 4.08031 0
M  V30 250 H 21.8945 -1.47785 2.91251 0
M  V30 251 H 20.5535 0.531296 3.6273 0
M  V30 252 H 20.2015 -1.68011 4.74111 0
M  V30 253 H 19.9015 -0.332184 5.8666 0
M  V30 254 H 21.4255 -1.2583 5.97494 0
M  V30 255 H 22.8395 0.98934 5.64699 0
M  V30 256 H 21.2365 1.77593 5.7322 0
M  V30 257 H 22.3065 2.11978 4.36111 0
M  V30 258 N 23.6496 -1.47581 0.552962 0
M  V30 259 C 25.0656 -1.5818 0.212424 0
M  V30 260 C 25.2656 -1.55213 -1.28496 0
M  V30 261 O 24.3216 -1.45329 -2.06484 0
M  V30 262 C 25.6346 -2.88865 0.835318 0
M  V30 263 C 27.1826 -3.0244 0.806156 0
M  V30 264 C 27.6576 -4.35819 1.40804 0
M  V30 265 N 29.1486 -4.42444 1.37103 0
M  V30 266 C 29.8836 -5.44202 1.80641 0
M  V30 267 N 29.3796 -6.52795 2.32015 0
M  V30 268 N 31.1726 -5.35222 1.71738 0
M  V30 269 H 23.3236 -1.47753 1.52587 0
M  V30 270 H 25.5866 -0.702941 0.636064 0
M  V30 271 H 25.2926 -2.9676 1.88749 0
M  V30 272 H 25.1666 -3.7579 0.325848 0
M  V30 273 H 27.5536 -2.94144 -0.237317 0
M  V30 274 H 27.6346 -2.17068 1.35334 0
M  V30 275 H 27.2786 -4.44871 2.45056 0
M  V30 276 H 27.2086 -5.19916 0.836338 0
M  V30 277 H 29.6996 -3.6456 0.995202 0
M  V30 278 H 30.0126 -7.26609 2.63171 0
M  V30 279 H 28.3576 -6.53696 2.36023 0
M  V30 280 H 31.5486 -4.49284 1.31382 0
M  V30 281 H 31.7216 -6.14389 2.05987 0
M  V30 282 N 25.1277 -0.289203 -1.54924 0
M  V30 283 C 26.0757 0.607966 -2.24514 0
M  V30 284 C 27.0697 1.14655 -1.24702 0
M  V30 285 O 28.2757 1.09856 -1.4259 0
M  V30 286 H 24.6507 0.21464 -0.720718 0
M  V30 287 H 26.6217 -0.00164182 -2.984 0
M  V30 288 C 25.3707 1.77406 -2.99036 0
M  V30 289 H 24.6937 1.36884 -3.75637 0
M  V30 290 H 26.1337 2.37814 -3.51028 0
M  V30 291 C 24.5927 2.67107 -2.05318 0
M  V30 292 O 25.1227 3.6787 -1.61353 0
M  V30 293 N 23.3287 2.34582 -1.71521 0
M  V30 294 H 22.8757 1.52688 -2.07471 0
M  V30 295 H 22.8337 2.94867 -1.0909 0
M  V30 296 N 26.6058 1.57591 -0.0167156 0
M  V30 297 C 27.8548 1.90461 0.663877 0
M  V30 298 C 28.1678 0.893515 1.73999 0
M  V30 299 O 29.3738 1.11302 2.47637 0
M  V30 300 C 27.8298 3.38155 1.23204 0
M  V30 301 C 27.4378 4.47597 0.189866 0
M  V30 302 C 29.1818 3.80111 1.88986 0
M  V30 303 C 27.0888 5.86379 0.768964 0
M  V30 304 H 26.0188 0.710738 0.251729 0
M  V30 305 H 28.6698 1.83326 -0.0799926 0
M  V30 306 H 27.0518 3.40182 2.02712 0
M  V30 307 H 28.2258 4.57112 -0.581846 0
M  V30 308 H 26.5408 4.14766 -0.368475 0
M  V30 309 H 29.1378 4.81145 2.33247 0
M  V30 310 H 29.4808 3.14511 2.72743 0
M  V30 311 H 30.0138 3.80454 1.16187 0
M  V30 312 H 26.7528 6.55493 -0.0301957 0
M  V30 313 H 26.2728 5.80496 1.50945 0
M  V30 314 H 27.9518 6.34563 1.26251 0
M  V30 315 N 28.0839 -0.256276 1.55502 0
M  V30 316 C 29.3309 -0.985619 1.76895 0
M  V30 317 C 29.6589 -1.85671 0.579355 0
M  V30 318 O 28.9139 -1.90744 -0.437651 0
M  V30 319 C 29.2129 -1.88432 3.03691 0
M  V30 320 C 28.8789 -1.16936 4.35473 0
M  V30 321 C 27.5409 -0.97173 4.71286 0
M  V30 322 C 29.8929 -0.661889 5.1698 0
M  V30 323 C 27.2209 -0.254179 5.86149 0
M  V30 324 C 29.5729 0.042149 6.32586 0
M  V30 325 C 28.2369 0.25134 6.67027 0
M  V30 326 H 27.5069 -0.360663 0.647304 0
M  V30 327 H 30.1539 -0.256483 1.89775 0
M  V30 328 H 28.4589 -2.68021 2.85783 0
M  V30 329 H 30.1559 -2.45015 3.1744 0
M  V30 330 H 26.7459 -1.33332 4.07333 0
M  V30 331 H 30.9299 -0.802145 4.89775 0
M  V30 332 H 26.1859 -0.0815408 6.11346 0
M  V30 333 H 30.3599 0.443049 6.94989 0
M  V30 334 H 27.9869 0.809314 7.5588 0
M  V30 335 N 29.562 -1.4872 -0.521534 0
M  V30 336 C 30.492 -1.66771 -1.63431 0
M  V30 337 C 31.473 -0.516499 -1.62069 0
M  V30 338 O 32.658 -0.750013 -1.79132 0
M  V30 339 C 29.788 -1.71515 -3.01993 0
M  V30 340 C 28.742 -2.86222 -3.18216 0
M  V30 341 C 28.068 -2.76061 -4.57924 0
M  V30 342 C 29.368 -4.27419 -3.00184 0
M  V30 343 H 31.062 -2.59932 -1.48579 0
M  V30 344 H 28.608 -1.25089 -0.713358 0
M  V30 345 H 30.561 -1.82731 -3.7972 0
M  V30 346 H 29.285 -0.749393 -3.17886 0
M  V30 347 H 27.944 -2.74575 -2.42908 0
M  V30 348 H 27.592 -1.77437 -4.70665 0
M  V30 349 H 27.292 -3.53037 -4.69722 0
M  V30 350 H 28.816 -2.89256 -5.37739 0
M  V30 351 H 30.23 -4.39855 -3.67697 0
M  V30 352 H 28.627 -5.05458 -3.2347 0
M  V30 353 H 29.697 -4.43293 -1.96518 0
M  V30 354 N 31.0401 0.771051 -1.3745 0
M  V30 355 C 31.9721 1.89352 -1.29146 0
M  V30 356 C 32.9851 1.61477 -0.207124 0
M  V30 357 O 34.1741 1.72382 -0.463324 0
M  V30 358 C 31.2741 3.24596 -0.974195 0
M  V30 359 C 30.4471 3.80111 -2.16413 0
M  V30 360 C 29.5061 4.93832 -1.81703 0
M  V30 361 O 28.5321 5.09382 -2.54006 0
M  V30 362 N 29.7341 5.75483 -0.761573 0
M  V30 363 H 32.4991 1.96991 -2.25864 0
M  V30 364 H 30.0601 0.950191 -1.31084 0
M  V30 365 H 32.0521 3.98193 -0.722828 0
M  V30 366 H 30.6221 3.12454 -0.0955527 0
M  V30 367 H 29.8421 2.98284 -2.57721 0
M  V30 368 H 31.1301 4.13932 -2.95867 0
M  V30 369 H 30.5281 5.65469 -0.161609 0
M  V30 370 H 29.0851 6.49302 -0.570064 0
M  V30 371 N 32.5182 1.22032 0.997298 0
M  V30 372 C 33.7482 1.06686 1.76923 0
M  V30 373 C 34.1562 -0.385838 1.85224 0
M  V30 374 O 33.4992 -1.27929 1.31833 0
M  V30 375 C 33.5612 1.59802 3.22031 0
M  V30 376 C 33.2252 3.08362 3.37286 0
M  V30 377 C 34.2222 4.05835 3.24952 0
M  V30 378 C 31.9072 3.47727 3.6248 0
M  V30 379 C 33.9012 5.4066 3.37588 0
M  V30 380 C 31.5882 4.82701 3.74757 0
M  V30 381 C 32.5862 5.78977 3.62319 0
M  V30 382 O 32.2742 7.11502 3.74193 0
M  V30 383 H 32.0062 0.374767 0.562606 0
M  V30 384 H 34.5602 1.61991 1.26286 0
M  V30 385 H 32.7902 0.989003 3.73839 0
M  V30 386 H 34.4792 1.40184 3.80924 0
M  V30 387 H 35.2452 3.76766 3.05405 0
M  V30 388 H 31.1242 2.73317 3.7124 0
M  V30 389 H 34.6682 6.15788 3.27796 0
M  V30 390 H 30.5652 5.11453 3.9381 0
M  V30 391 H 31.3332 7.19019 3.91093 0
M  V30 392 N 33.9963 -1.19345 1.0293 0
M  V30 393 C 34.9593 -2.20793 0.615069 0
M  V30 394 C 35.9593 -1.57553 -0.321533 0
M  V30 395 O 37.1493 -1.73862 -0.108483 0
M  V30 396 C 34.2813 -3.40754 -0.0999222 0
M  V30 397 H 35.4743 -2.58955 1.51269 0
M  V30 398 H 33.0273 -1.3303 0.820534 0
M  V30 399 H 33.7623 -3.0811 -1.01187 0
M  V30 400 H 33.5473 -3.87889 0.57309 0
M  V30 401 H 35.0373 -4.15898 -0.376645 0
M  V30 402 N 35.4744 -0.807222 -1.35358 0
M  V30 403 C 36.6994 -0.399309 -2.0352 0
M  V30 404 C 37.1244 0.981986 -1.60433 0
M  V30 405 O 36.4824 1.63601 -0.781299 0
M  V30 406 C 36.5304 -0.491552 -3.57234 0
M  V30 407 O 35.6344 0.494754 -4.09421 0
M  V30 408 H 34.9754 -0.166682 -0.642739 0
M  V30 409 H 37.5054 -1.09328 -1.72941 0
M  V30 410 H 37.5154 -0.361588 -4.06395 0
M  V30 411 H 36.1904 -1.49907 -3.87944 0
M  V30 412 H 34.7674 0.324977 -3.71481 0
M  V30 413 N 36.9525 1.47285 -0.560781 0
M  V30 414 C 38.1805 2.06855 -0.0430262 0
M  V30 415 C 38.5955 1.41291 1.25229 0
M  V30 416 O 37.9525 0.510648 1.7521 0
M  V30 417 C 38.0035 3.61178 0.152518 0
M  V30 418 O 37.7245 4.24285 -1.0915 0
M  V30 419 C 39.2255 4.37624 0.707145 0
M  V30 420 H 36.4455 0.669319 -0.0474652 0
M  V30 421 H 38.9895 1.89237 -0.77521 0
M  V30 422 H 37.1445 3.78298 0.834843 0
M  V30 423 H 37.5585 5.16868 -0.891482 0
M  V30 424 H 39.0325 5.46271 0.793244 0
M  V30 425 H 39.5095 4.04152 1.71923 0
M  V30 426 H 40.1155 4.25257 0.0604027 0
M  V30 427 N 38.4306 0.297415 1.54768 0
M  V30 428 C 39.3406 -0.58983 2.27064 0
M  V30 429 C 40.3566 -1.15144 1.30453 0
M  V30 430 O 41.5326 -1.17699 1.63428 0
M  V30 431 C 38.5976 -1.74714 2.9946 0
M  V30 432 C 37.6586 -1.21997 4.11601 0
M  V30 433 C 36.8916 -2.32212 4.80535 0
M  V30 434 O 37.1146 -3.52036 4.48806 0
M  V30 435 O 36.0486 -1.99106 5.68014 0
M  V30 436 H 39.8746 -0.00348199 3.037 0
M  V30 437 H 37.4596 0.0640035 1.49263 0
M  V30 438 H 39.3416 -2.42147 3.44881 0
M  V30 439 H 38.0166 -2.32016 2.25722 0
M  V30 440 H 36.9236 -0.511458 3.70587 0
M  V30 441 H 38.2566 -0.692419 4.87305 0
M  V30 442 N 39.9087 -1.5758 0.0250728 0
M  V30 443 C 41.1547 -1.91917 -0.655413 0
M  V30 444 C 41.4877 -0.901433 -1.72011 0
M  V30 445 O 40.7627 0.0764069 -1.9435 0
M  V30 446 C 41.0457 -3.36751 -1.27558 0
M  V30 447 C 40.8987 -4.49258 -0.220719 0
M  V30 448 C 42.2177 -3.81469 -2.19475 0
M  V30 449 H 39.3367 -0.697925 -0.23679 0
M  V30 450 H 41.9787 -1.89825 0.0815036 0
M  V30 451 H 40.1287 -3.38664 -1.90365 0
M  V30 452 H 41.8007 -4.59478 0.409601 0
M  V30 453 H 40.0437 -4.31415 0.454264 0
M  V30 454 H 40.7147 -5.47618 -0.694175 0
M  V30 455 H 43.1907 -3.81266 -1.66659 0
M  V30 456 H 42.0667 -4.83512 -2.59822 0
M  V30 457 H 42.3277 -3.16744 -3.08424 0
M  V30 458 N 41.3868 0.248026 -1.55636 0
M  V30 459 C 42.6638 0.998988 -1.68165 0
M  V30 460 C 43.0438 2.03409 -0.564621 0
M  V30 461 O 42.3918 2.24378 0.432076 0
M  V30 462 C 42.6018 1.63334 -3.0842 0
M  V30 463 C 43.9498 2.13562 -3.66983 0
M  V30 464 O 44.9738 1.73277 -3.11213 0
M  V30 465 O 43.8328 2.87526 -4.64749 0
M  V30 466 H 40.9268 0.464933 -0.683935 0
M  V30 467 H 43.4728 0.241902 -1.67967 0
M  V30 468 H 42.2448 0.884583 -3.8117 0
M  V30 469 H 41.8678 2.45666 -3.12624 0
M  V30 470 N 42.8649 1.48995 0.513639 0
M  V30 471 C 44.1129 1.57531 1.26604 0
M  V30 472 C 44.4339 0.258236 1.93283 0
M  V30 473 O 43.7039 -0.721502 1.8213 0
M  V30 474 H 42.2839 0.580387 0.470276 0
M  V30 475 H 44.9459 1.85552 0.596373 0
M  V30 476 H 44.0419 2.36486 2.03669 0
M  V30 477 N 44.343 -0.763751 1.37857 0
M  V30 478 C 45.253 -1.90817 1.36478 0
M  V30 479 C 46.269 -1.71997 0.263248 0
M  V30 480 O 47.445 -1.95095 0.499979 0
M  V30 481 C 44.51 -3.2605 1.17864 0
M  V30 482 C 43.571 -3.57467 2.3773 0
M  V30 483 C 42.804 -4.86249 2.19995 0
M  V30 484 O 43.027 -5.57884 1.18836 0
M  V30 485 O 41.961 -5.16911 3.08361 0
M  V30 486 H 45.787 -1.94933 2.32884 0
M  V30 487 H 43.372 -0.907619 1.1867 0
M  V30 488 H 45.254 -4.06924 1.09504 0
M  V30 489 H 43.929 -3.22769 0.245372 0
M  V30 490 H 42.836 -2.76796 2.51664 0
M  V30 491 H 44.169 -3.655 3.29652 0
M  V30 492 N 45.8211 -1.22559 -0.990812 0
M  V30 493 C 47.2371 -0.985996 -1.255 0
M  V30 494 C 47.4371 0.319173 -1.98956 0
M  V30 495 O 46.4931 1.04127 -2.3003 0
M  V30 496 C 47.8061 -2.18607 -2.06474 0
M  V30 497 C 49.3541 -2.22985 -2.19651 0
M  V30 498 C 49.8291 -3.4255 -3.04012 0
M  V30 499 N 51.3201 -3.42725 -3.11599 0
M  V30 500 C 52.0551 -4.31892 -3.7717 0
M  V30 501 N 51.5511 -5.31279 -4.44651 0
M  V30 502 N 53.3441 -4.19662 -3.73952 0
M  V30 503 H 45.4951 -2.06469 -0.49841 0
M  V30 504 H 47.7581 -0.904853 -0.282747 0
M  V30 505 H 47.4641 -3.13267 -1.59865 0
M  V30 506 H 47.3381 -2.18838 -3.07229 0
M  V30 507 H 49.7251 -1.28871 -2.65474 0
M  V30 508 H 49.8061 -2.26791 -1.18319 0
M  V30 509 H 49.4501 -4.36965 -2.58889 0
M  V30 510 H 49.3801 -3.35984 -4.0549 0
M  V30 511 H 51.8711 -2.70807 -2.63575 0
M  V30 512 H 52.1841 -5.95593 -4.92431 0
M  V30 513 H 50.5291 -5.3519 -4.43392 0
M  V30 514 H 53.7201 -3.41268 -3.20396 0
M  V30 515 H 53.8931 -4.89358 -4.24774 0
M  V30 516 N 47.2992 1.18797 -1.03562 0
M  V30 517 C 48.5292 1.92319 -0.754773 0
M  V30 518 C 48.9372 1.7612 0.691248 0
M  V30 519 O 48.2802 1.08491 1.48241 0
M  V30 520 C 48.3422 3.44284 -1.03484 0
M  V30 521 C 48.0062 3.84258 -2.47376 0
M  V30 522 C 49.0032 3.88459 -3.45537 0
M  V30 523 C 46.6882 4.15701 -2.81954 0
M  V30 524 C 48.6822 4.23545 -4.76328 0
M  V30 525 C 46.3692 4.50458 -4.12954 0
M  V30 526 C 47.3672 4.54356 -5.09951 0
M  V30 527 O 47.0552 4.88305 -6.38603 0
M  V30 528 H 46.7872 0.617527 -0.275021 0
M  V30 529 H 49.3412 1.51683 -1.38497 0
M  V30 530 H 47.5712 3.85135 -0.347513 0
M  V30 531 H 49.2602 3.99049 -0.7426 0
M  V30 532 H 50.0262 3.6431 -3.20162 0
M  V30 533 H 45.9052 4.11847 -2.0713 0
M  V30 534 H 49.4492 4.26502 -5.52035 0
M  V30 535 H 45.3462 4.74067 -4.38099 0
M  V30 536 H 46.1142 5.06227 -6.43177 0
M  V30 537 N 48.7773 0.814389 1.34928 0
M  V30 538 C 49.7103 0.175641 2.27523 0
M  V30 539 C 50.6883 -0.662953 1.48471 0
M  V30 540 O 51.8723 -0.628545 1.77712 0
M  V30 541 C 48.9993 -0.755516 3.30166 0
M  V30 542 C 48.0453 0.00445305 4.265 0
M  V30 543 S 48.8783 1.34582 5.18313 0
M  V30 544 C 50.0343 0.419315 6.24494 0
M  V30 545 H 50.2673 0.960691 2.8135 0
M  V30 546 H 47.8003 0.609846 1.41846 0
M  V30 547 H 49.7583 -1.28723 3.89796 0
M  V30 548 H 48.4193 -1.51402 2.75202 0
M  V30 549 H 47.6123 -0.703077 4.99072 0
M  V30 550 H 47.2143 0.466447 3.7108 0
M  V30 551 H 49.5063 -0.392432 6.76362 0
M  V30 552 H 50.4493 1.11446 6.99275 0
M  V30 553 H 50.8573 0.0115389 5.64499 0
M  V30 554 N 50.2554 -1.46986 0.568584 0
M  V30 555 C 51.4834 -2.0683 0.0539956 0
M  V30 556 C 51.8984 -1.41953 -1.24478 0
M  V30 557 O 51.2554 -0.519933 -1.74937 0
M  V30 558 C 51.3064 -3.61254 -0.133362 0
M  V30 559 O 51.0274 -4.237 1.11399 0
M  V30 560 C 52.5284 -4.37992 -0.683927 0
M  V30 561 H 49.7484 -0.669058 0.0510141 0
M  V30 562 H 52.2924 -1.88824 0.785234 0
M  V30 563 H 50.4474 -3.78735 -0.81477 0
M  V30 564 H 50.8614 -5.16388 0.91888 0
M  V30 565 H 52.3354 -5.46684 -0.764263 0
M  V30 566 H 52.8124 -4.05058 -1.69778 0
M  V30 567 H 53.4184 -4.25283 -0.0378494 0
M  V30 568 N 51.7335 -0.305618 -1.54608 0
M  V30 569 C 53.1445 0.186098 -1.8577 0
M  V30 570 C 53.4955 1.53058 -1.22751 0
M  V30 571 O 52.6205 2.09888 -0.526893 0
M  V30 572 C 53.2155 0.344449 -3.37044 0
M  V30 573 C 51.7745 0.780384 -3.68221 0
M  V30 574 C 50.9215 -0.108554 -2.77087 0
M  V30 575 H 53.8725 -0.526485 -1.49712 0
M  V30 576 H 53.8935 1.17828 -3.61796 0
M  V30 577 H 53.4055 -0.634235 -3.82883 0
M  V30 578 H 51.5065 1.76945 -3.27904 0
M  V30 579 H 51.6195 0.596572 -4.75371 0
M  V30 580 H 49.9835 0.412931 -2.5133 0
M  V30 581 H 50.7665 -1.08368 -3.25747 0
M  V30 582 N 53.2116 1.57565 -0.0334293 0
M  V30 583 C 54.1216 2.13943 0.962572 0
M  V30 584 C 55.1376 1.09276 1.35406 0
M  V30 585 O 56.3136 1.41355 1.4346 0
M  V30 586 C 53.3786 2.65887 2.22497 0
M  V30 587 C 52.4396 3.85286 1.8935 0
M  V30 588 C 51.6726 4.34743 3.09571 0
M  V30 589 O 51.8956 3.83352 4.22371 0
M  V30 590 O 50.8296 5.26538 2.91618 0
M  V30 591 H 54.6556 2.99333 0.513169 0
M  V30 592 H 52.2406 1.4822 0.18743 0
M  V30 593 H 54.1226 2.99346 2.96598 0
M  V30 594 H 52.7976 1.83578 2.6661 0
M  V30 595 H 51.7046 3.56746 1.1262 0
M  V30 596 H 53.0376 4.68771 1.5005 0
M  V30 597 N 54.6897 -0.239769 1.55765 0
M  V30 598 C 55.9667 -0.990056 1.68693 0
M  V30 599 C 56.3467 -2.03107 0.5754 0
M  V30 600 O 55.6947 -2.24604 -0.42017 0
M  V30 601 C 55.9047 -1.61696 3.09282 0
M  V30 602 C 57.2527 -2.11613 3.6811 0
M  V30 603 O 58.2767 -1.71624 3.12127 0
M  V30 604 O 57.1357 -2.85057 4.66267 0
M  V30 605 H 54.2297 -0.461299 0.686391 0
M  V30 606 H 56.7757 -0.232991 1.68093 0
M  V30 607 H 55.5477 -0.864357 3.81634 0
M  V30 608 H 55.1707 -2.44005 3.13923 0
M  V30 609 N 56.1678 -1.49265 -0.50573 0
M  V30 610 C 57.4148 -1.58513 -1.26015 0
M  V30 611 C 57.7428 -0.26972 -1.92621 0
M  V30 612 O 56.9978 0.741997 -1.81088 0
M  V30 613 C 57.2968 -2.69008 -2.35308 0
M  V30 614 C 56.9628 -4.10662 -1.86192 0
M  V30 615 C 55.6248 -4.49212 -1.72516 0
M  V30 616 C 57.9768 -4.99336 -1.49375 0
M  V30 617 C 55.3048 -5.74214 -1.20394 0
M  V30 618 C 57.6568 -6.24852 -0.987072 0
M  V30 619 C 56.3208 -6.62236 -0.836669 0
M  V30 620 H 55.5908 -0.580041 -0.461122 0
M  V30 621 H 58.2378 -1.83078 -0.561665 0
M  V30 622 H 56.5428 -2.38396 -3.10926 0
M  V30 623 H 58.2398 -2.73373 -2.93374 0
M  V30 624 H 54.8298 -3.8023 -1.97795 0
M  V30 625 H 59.0138 -4.70212 -1.5879 0
M  V30 626 H 54.2698 -6.01883 -1.07458 0
M  V30 627 H 58.4438 -6.92944 -0.692983 0
M  V30 628 H 56.0708 -7.58979 -0.430607 0
M  V30 629 N 57.6459 0.756429 -1.3826 0
M  V30 630 C 58.8919 1.51772 -1.34511 0
M  V30 631 C 59.2249 1.94089 0.0656691 0
M  V30 632 O 58.4999 1.65221 1.02626 0
M  V30 633 C 58.7829 2.77226 -2.29821 0
M  V30 634 C 58.6359 2.41065 -3.79747 0
M  V30 635 C 59.9549 3.79236 -2.23312 0
M  V30 636 H 57.0739 0.550578 -0.489931 0
M  V30 637 H 59.7159 0.866607 -1.69086 0
M  V30 638 H 57.8659 3.32784 -2.00467 0
M  V30 639 H 59.5379 1.91303 -4.19763 0
M  V30 640 H 57.7809 1.7356 -3.97567 0
M  V30 641 H 58.4519 3.3081 -4.41892 0
M  V30 642 H 60.9279 3.3321 -2.49219 0
M  V30 643 H 59.8039 4.64714 -2.92116 0
M  V30 644 H 60.0649 4.24615 -1.23102 0
M  V30 645 N 59.124 1.23083 0.984299 0
M  V30 646 C 60.056 0.96636 2.07832 0
M  V30 647 C 61.069 -0.0582135 1.62696 0
M  V30 648 O 62.258 0.176843 1.77622 0
M  V30 649 C 59.358 0.433397 3.36117 0
M  V30 650 C 58.531 1.51722 4.10243 0
M  V30 651 C 57.59 0.989821 5.16807 0
M  V30 652 O 56.616 1.67794 5.43906 0
M  V30 653 N 57.818 -0.184367 5.80207 0
M  V30 654 H 60.583 1.90824 2.31098 0
M  V30 655 H 58.144 1.13888 1.1507 0
M  V30 656 H 60.136 0.065699 4.04647 0
M  V30 657 H 58.706 -0.413806 3.09849 0
M  V30 658 H 57.926 2.05786 3.36223 0
M  V30 659 H 59.214 2.24619 4.56534 0
M  V30 660 H 58.612 -0.760062 5.60571 0
M  V30 661 H 57.169 -0.493366 6.4993 0
M  V30 662 N 60.6021 -1.18246 1.0419 0
M  V30 663 C 62.0181 -1.40269 0.761366 0
M  V30 664 C 62.2181 -1.90777 -0.648578 0
M  V30 665 O 61.2741 -2.0929 -1.41258 0
M  V30 666 C 62.5871 -2.40237 1.8085 0
M  V30 667 C 64.1351 -2.53961 1.82955 0
M  V30 668 C 64.6101 -3.57194 2.86664 0
M  V30 669 N 66.1011 -3.64702 2.85563 0
M  V30 670 C 66.8361 -4.44309 3.6246 0
M  V30 671 N 66.3321 -5.27514 4.49111 0
M  V30 672 N 68.1251 -4.39084 3.50944 0
M  V30 673 H 60.2761 -0.837882 1.95175 0
M  V30 674 H 62.5391 -0.430608 0.84456 0
M  V30 675 H 62.2451 -2.10176 2.81991 0
M  V30 676 H 62.1191 -3.39601 1.64168 0
M  V30 677 H 64.5061 -2.83338 0.824855 0
M  V30 678 H 64.5871 -1.54706 2.03715 0
M  V30 679 H 64.2311 -3.28558 3.87314 0
M  V30 680 H 64.1611 -4.5613 2.6316 0
M  V30 681 H 66.6521 -3.05289 2.22727 0
M  V30 682 H 66.9651 -5.85411 5.04493 0
M  V30 683 H 65.3101 -5.2693 4.53178 0
M  V30 684 H 68.5011 -3.7313 2.82651 0
M  V30 685 H 68.6741 -5.00883 4.11121 0
M  V30 686 N 62.0802 -0.821533 -1.34494 0
M  V30 687 C 63.3102 -0.421272 -2.02259 0
M  V30 688 C 63.7182 0.977047 -1.6202 0
M  V30 689 O 63.0612 1.64348 -0.820703 0
M  V30 690 C 63.1232 -0.44231 -3.56769 0
M  V30 691 C 62.7872 -1.79372 -4.20327 0
M  V30 692 C 63.7842 -2.75435 -4.40944 0
M  V30 693 C 61.4692 -2.08182 -4.57127 0
M  V30 694 C 63.4632 -3.98482 -4.97484 0
M  V30 695 C 61.1502 -3.31489 -5.13379 0
M  V30 696 C 62.1482 -4.26457 -5.33501 0
M  V30 697 O 61.8362 -5.47585 -5.88562 0
M  V30 698 H 61.5682 -0.167473 -0.654927 0
M  V30 699 H 64.1222 -1.11073 -1.72777 0
M  V30 700 H 62.3522 0.303836 -3.85505 0
M  V30 701 H 64.0412 -0.0622925 -4.05852 0
M  V30 702 H 64.8072 -2.54473 -4.12878 0
M  V30 703 H 60.6862 -1.35066 -4.4077 0
M  V30 704 H 64.2302 -4.72618 -5.13106 0
M  V30 705 H 60.1272 -3.52316 -5.40873 0
M  V30 706 H 60.8952 -5.49086 -6.06998 0
M  V30 707 N 63.5583 1.46682 -0.576371 0
M  V30 708 C 64.4883 2.33028 0.148397 0
M  V30 709 C 65.4693 1.44961 0.889956 0
M  V30 710 O 66.6543 1.73789 0.866662 0
M  V30 711 C 63.7843 3.27117 1.1667 0
M  V30 712 C 62.7383 4.24575 0.540386 0
M  V30 713 C 62.0643 5.08126 1.6647 0
M  V30 714 C 63.3643 5.19722 -0.518331 0
M  V30 715 H 65.0583 2.93875 -0.572509 0
M  V30 716 H 62.6043 1.41315 -0.276768 0
M  V30 717 H 64.5573 3.86374 1.68204 0
M  V30 718 H 63.2813 2.64364 1.9178 0
M  V30 719 H 61.9403 3.66571 0.0461769 0
M  V30 720 H 61.5883 4.41762 2.40531 0
M  V30 721 H 61.2883 5.74122 1.25131 0
M  V30 722 H 62.8123 5.70246 2.18293 0
M  V30 723 H 64.2263 5.73232 -0.0883058 0
M  V30 724 H 62.6233 5.94026 -0.851679 0
M  V30 725 H 63.6933 4.64037 -1.40703 0
M  V30 726 N 65.0364 0.313813 1.54444 0
M  V30 727 C 66.2844 -0.291099 1.99993 0
M  V30 728 C 66.6054 -1.53418 1.20366 0
M  V30 729 O 65.8754 -1.93544 0.302927 0
M  V30 730 H 64.4554 -0.110552 0.738774 0
M  V30 731 H 67.1174 0.428106 1.9014 0
M  V30 732 H 66.2134 -0.554268 3.07139 0
M  V30 733 N 66.5145 -1.57545 0.0417849 0
M  V30 734 C 67.4445 -2.14009 -0.933929 0
M  V30 735 C 68.4255 -1.05938 -1.33083 0
M  V30 736 O 69.6105 -1.33833 -1.40721 0
M  V30 737 C 66.7405 -2.67747 -2.21199 0
M  V30 738 C 65.6945 -3.80718 -1.95544 0
M  V30 739 C 65.0205 -4.20935 -3.29724 0
M  V30 740 C 66.3205 -5.06258 -1.28452 0
M  V30 741 H 68.0145 -2.95788 -0.463645 0
M  V30 742 H 65.5605 -1.42285 -0.221573 0
M  V30 743 H 67.5135 -3.05886 -2.89848 0
M  V30 744 H 66.2375 -1.83147 -2.70416 0
M  V30 745 H 64.8965 -3.43037 -1.2931 0
M  V30 746 H 64.5445 -3.33298 -3.76724 0
M  V30 747 H 64.2445 -4.9707 -3.13361 0
M  V30 748 H 65.7685 -4.61666 -3.9962 0
M  V30 749 H 67.1825 -5.41903 -1.8712 0
M  V30 750 H 65.5795 -5.87475 -1.22445 0
M  V30 751 H 66.6495 -4.84207 -0.259219 0
M  V30 752 N 67.9926 0.231505 -1.5589 0
M  V30 753 C 69.2226 0.973092 -1.82248 0
M  V30 754 C 69.6306 1.78845 -0.617328 0
M  V30 755 O 68.9736 1.78752 0.423499 0
M  V30 756 C 69.0356 1.94732 -3.02192 0
M  V30 757 C 68.6996 1.31743 -4.37599 0
M  V30 758 C 69.6966 0.712238 -5.14998 0
M  V30 759 C 67.3816 1.33218 -4.84312 0
M  V30 760 C 69.3756 0.130195 -6.37267 0
M  V30 761 C 67.0626 0.746286 -6.06526 0
M  V30 762 C 68.0606 0.146337 -6.82843 0
M  V30 763 O 67.7486 -0.430465 -8.02747 0
M  V30 764 H 67.4806 0.29125 -0.61004 0
M  V30 765 H 70.0346 0.254915 -2.03812 0
M  V30 766 H 68.2646 2.70422 -2.76422 0
M  V30 767 H 69.9536 2.55362 -3.15508 0
M  V30 768 H 70.7196 0.69324 -4.8002 0
M  V30 769 H 66.5986 1.78854 -4.24891 0
M  V30 770 H 70.1426 -0.33871 -6.96777 0
M  V30 771 H 66.0396 0.762663 -6.40979 0
M  V30 772 H 66.8076 -0.323818 -8.17859 0
M  V30 773 N 69.4707 1.49531 0.497807 0
M  V30 774 C 70.4187 1.66926 1.61983 0
M  V30 775 C 71.4127 0.535167 1.60724 0
M  V30 776 O 72.6187 0.714896 1.65195 0
M  V30 777 H 68.9937 0.526415 0.537021 0
M  V30 778 H 70.9647 2.61098 1.44465 0
M  V30 779 C 69.7137 1.75602 3.00099 0
M  V30 780 H 69.0367 2.62244 3.01775 0
M  V30 781 H 70.4767 1.91807 3.78135 0
M  V30 782 C 68.9357 0.501543 3.33146 0
M  V30 783 O 69.4657 -0.371342 3.9998 0
M  V30 784 N 67.6717 0.363531 2.88317 0
M  V30 785 H 67.2187 1.07485 2.34104 0
M  V30 786 H 67.1767 -0.474728 3.10795 0
M  V30 787 N 70.9488 -0.749086 1.3866 0
M  V30 788 C 72.2258 -1.4992 1.25632 0
M  V30 789 C 72.6058 -2.10633 -0.140317 0
M  V30 790 O 71.9538 -1.97437 -1.15025 0
M  V30 791 C 72.1638 -2.56195 2.36992 0
M  V30 792 C 73.5118 -3.22972 2.75634 0
M  V30 793 O 74.5358 -2.66502 2.36337 0
M  V30 794 O 73.3948 -4.25122 3.43415 0
M  V30 795 H 70.4888 -0.665067 0.491544 0
M  V30 796 H 73.0348 -0.784113 1.50498 0
M  V30 797 H 71.8068 -2.09612 3.30422 0
M  V30 798 H 71.4298 -3.35279 2.13714 0
M  V30 799 N 72.4269 -1.23603 -0.977757 0
M  V30 800 C 73.8379 -1.06424 -1.53398 0
M  V30 801 C 74.1889 0.367578 -1.92726 0
M  V30 802 O 73.3139 1.25465 -1.76316 0
M  V30 803 C 73.9089 -1.92568 -2.78753 0
M  V30 804 C 72.4679 -1.79642 -3.30765 0
M  V30 805 C 71.6149 -1.88111 -2.03739 0
M  V30 806 H 74.5659 -1.37227 -0.797152 0
M  V30 807 H 74.5869 -1.45203 -3.51705 0
M  V30 808 H 74.0989 -2.96771 -2.50098 0
M  V30 809 H 72.1999 -0.782325 -3.64294 0
M  V30 810 H 72.3129 -2.63174 -4.00345 0
M  V30 811 H 70.6769 -1.31723 -2.17994 0
M  V30 812 H 71.4599 -2.93875 -1.77461 0
M  V30 813 N 73.905 1.17692 -1.04816 0
M  V30 814 C 74.853 2.23632 -0.63966 0
M  V30 815 C 75.847 1.6601 0.337219 0
M  V30 816 O 77.053 1.78844 0.203693 0
M  V30 817 H 73.428 0.727949 -0.188665 0
M  V30 818 H 75.399 2.55387 -1.54337 0
M  V30 819 C 74.148 3.4769 -0.0264051 0
M  V30 820 H 73.471 3.92331 -0.769164 0
M  V30 821 H 74.911 4.23418 0.222098 0
M  V30 822 C 73.37 3.13807 1.22584 0
M  V30 823 O 73.9 3.28236 2.31569 0
M  V30 824 N 72.106 2.68065 1.12202 0
M  V30 825 H 71.653 2.56525 0.235133 0
M  V30 826 H 71.611 2.45767 1.96076 0
M  V30 827 N 75.3831 0.828654 1.34056 0
M  V30 828 C 76.6081 0.431637 2.02859 0
M  V30 829 C 77.0331 -0.956339 1.61975 0
M  V30 830 O 76.3911 -1.62338 0.807228 0
M  V30 831 C 76.4391 0.548323 3.56407 0
M  V30 832 O 75.5431 -0.429556 4.10157 0
M  V30 833 H 74.8841 0.176886 0.640006 0
M  V30 834 H 77.4141 1.12066 1.71179 0
M  V30 835 H 77.4241 0.426196 4.05768 0
M  V30 836 H 76.0991 1.5606 3.8551 0
M  V30 837 H 74.6761 -0.265836 3.71951 0
M  V30 838 N 76.8612 -1.46375 0.584142 0
M  V30 839 C 77.8092 -2.32042 -0.161047 0
M  V30 840 C 78.8032 -1.44569 -0.882966 0
M  V30 841 O 80.0092 -1.61186 -0.801191 0
M  V30 842 H 76.3842 -0.748659 -0.0708033 0
M  V30 843 H 78.3552 -2.92704 0.580269 0
M  V30 844 C 77.1042 -3.27762 -1.1605 0
M  V30 845 H 76.4272 -3.95051 -0.614419 0
M  V30 846 H 77.8672 -3.90481 -1.65228 0
M  V30 847 C 76.3262 -2.53218 -2.22221 0
M  V30 848 O 76.8562 -2.29628 -3.29597 0
M  V30 849 N 75.0622 -2.13756 -1.96868 0
M  V30 850 H 74.6092 -2.33142 -1.09557 0
M  V30 851 H 74.5672 -1.642 -2.68115 0
M  V30 852 N 78.3393 -0.321999 -1.54275 0
M  V30 853 C 79.7503 0.166384 -1.85957 0
M  V30 854 C 80.1013 1.51747 -1.24367 0
M  V30 855 O 79.2263 2.09317 -0.549124 0
M  V30 856 C 79.8213 0.308681 -3.37391 0
M  V30 857 C 78.3803 0.741286 -3.69028 0
M  V30 858 C 77.5273 -0.137937 -2.76957 0
M  V30 859 H 80.4783 -0.542335 -1.49146 0
M  V30 860 H 80.4993 1.13984 -3.63026 0
M  V30 861 H 80.0113 -0.674809 -3.82188 0
M  V30 862 H 78.1123 1.73458 -3.29762 0
M  V30 863 H 78.2253 0.546118 -4.75977 0
M  V30 864 H 76.5893 0.386251 -2.51754 0
M  V30 865 H 77.3723 -1.11816 -3.2458 0
M  V30 866 N 79.8174 1.5752 -0.0501392 0
M  V30 867 C 80.7644 2.1147 0.924603 0
M  V30 868 C 81.7344 1.02182 1.30951 0
M  V30 869 O 82.9194 1.29723 1.39916 0
M  V30 870 C 80.0594 2.66337 2.19451 0
M  V30 871 C 79.1724 3.89708 1.86418 0
M  V30 872 C 78.3074 4.32893 3.07859 0
M  V30 873 C 77.3464 5.48967 2.70742 0
M  V30 874 N 76.4834 5.87211 3.84874 0
M  V30 875 H 81.3234 2.94465 0.457639 0
M  V30 876 H 78.8604 1.45531 0.214266 0
M  V30 877 H 80.8184 2.96247 2.93758 0
M  V30 878 H 79.4484 1.86141 2.63726 0
M  V30 879 H 78.5004 3.66396 1.02264 0
M  V30 880 H 79.8124 4.74074 1.55096 0
M  V30 881 H 78.9664 4.6435 3.90466 0
M  V30 882 H 77.7054 3.47336 3.42358 0
M  V30 883 H 76.7104 5.17183 1.86551 0
M  V30 884 H 77.9354 6.3624 2.37436 0
M  V30 885 H 75.8814 5.04607 4.19175 0
M  V30 886 H 75.7984 6.66266 3.57247 0
M  V30 887 H 77.0664 6.23282 4.68123 0
M  V30 888 N 81.2955 -0.223234 1.56011 0
M  V30 889 C 82.5445 -0.945912 1.78144 0
M  V30 890 C 82.8575 -1.85567 0.618396 0
M  V30 891 O 84.0635 -2.61688 0.723318 0
M  V30 892 C 82.5195 -1.73216 3.15475 0
M  V30 893 C 82.1275 -0.868619 4.39499 0
M  V30 894 C 83.8715 -2.44615 3.46935 0
M  V30 895 C 81.7785 -1.65212 5.67855 0
M  V30 896 H 80.7085 -0.356929 0.664167 0
M  V30 897 H 83.3595 -0.199845 1.82409 0
M  V30 898 H 81.7415 -2.52107 3.05382 0
M  V30 899 H 82.9155 -0.120366 4.60643 0
M  V30 900 H 81.2305 -0.26683 4.15544 0
M  V30 901 H 83.8275 -3.03732 4.40058 0
M  V30 902 H 84.1705 -3.17417 2.69355 0
M  V30 903 H 84.7035 -1.72715 3.58349 0
M  V30 904 H 81.4425 -0.967407 6.48322 0
M  V30 905 H 80.9625 -2.37503 5.50774 0
M  V30 906 H 82.6415 -2.21322 6.07968 0
M  V30 907 N 82.7736 -1.49793 -0.48987 0
M  V30 908 C 84.0196 -1.60078 -1.24511 0
M  V30 909 C 84.3526 -0.291608 -1.91998 0
M  V30 910 O 83.6276 0.705647 -1.81248 0
M  V30 911 C 83.9106 -2.76791 -2.30345 0
M  V30 912 C 83.7636 -4.17535 -1.67286 0
M  V30 913 C 85.0826 -2.89111 -3.31817 0
M  V30 914 H 82.2016 -0.582645 -0.451324 0
M  V30 915 H 84.8436 -1.82117 -0.541612 0
M  V30 916 H 82.9936 -2.5813 -2.90346 0
M  V30 917 H 84.6656 -4.4774 -1.11026 0
M  V30 918 H 82.9086 -4.22665 -0.976577 0
M  V30 919 H 83.5796 -4.95094 -2.44103 0
M  V30 920 H 86.0556 -3.06133 -2.81819 0
M  V30 921 H 84.9316 -3.72433 -4.03219 0
M  V30 922 H 85.1926 -1.9893 -3.94815 0
M  V30 923 N 84.2517 0.741722 -1.39055 0
M  V30 924 C 85.1837 1.8657 -1.33133 0
M  V30 925 C 86.1967 1.61001 -0.241329 0
M  V30 926 O 87.3857 1.7136 -0.499784 0
M  V30 927 C 84.4857 3.22457 -1.04283 0
M  V30 928 C 83.6587 3.75435 -2.24427 0
M  V30 929 C 82.7177 4.89867 -1.92138 0
M  V30 930 O 81.7437 5.03879 -2.64754 0
M  V30 931 N 82.9457 5.73738 -0.88347 0
M  V30 932 H 85.7107 1.92156 -2.29991 0
M  V30 933 H 83.2717 0.922172 -1.3307 0
M  V30 934 H 85.2637 3.9657 -0.807128 0
M  V30 935 H 83.8337 3.12181 -0.161807 0
M  V30 936 H 83.0537 2.92751 -2.6399 0
M  V30 937 H 84.3417 4.07563 -3.04581 0
M  V30 938 H 83.7397 5.64999 -0.281517 0
M  V30 939 H 82.2967 6.47947 -0.707662 0
M  V30 940 N 85.7298 1.2412 0.971189 0
M  V30 941 C 86.6598 1.05508 2.08304 0
M  V30 942 C 87.6408 -0.0308864 1.70072 0
M  V30 943 O 88.8258 0.135521 1.93727 0
M  V30 944 C 85.9558 0.655365 3.4106 0
M  V30 945 C 84.9098 1.68971 3.93234 0
M  V30 946 C 84.2358 1.14516 5.22293 0
M  V30 947 C 85.5358 3.08487 4.21465 0
M  V30 948 H 87.2298 1.98507 2.24132 0
M  V30 949 H 84.7758 0.955821 1.07704 0
M  V30 950 H 86.7288 0.51217 4.18276 0
M  V30 951 H 85.4528 -0.31032 3.25122 0
M  V30 952 H 84.1118 1.82106 3.18171 0
M  V30 953 H 83.7598 0.170189 5.02712 0
M  V30 954 H 83.4598 1.83635 5.58168 0
M  V30 955 H 84.9838 1.01401 6.02121 0
M  V30 956 H 86.3978 2.98601 4.89398 0
M  V30 957 H 84.7948 3.74926 4.68562 0
M  V30 958 H 85.8648 3.56787 3.28376 0
M  V30 959 N 87.2079 -1.17134 1.05439 0
M  V30 960 C 88.1379 -2.2342 0.678649 0
M  V30 961 C 89.1189 -1.66971 -0.32476 0
M  V30 962 O 90.3039 -1.93149 -0.201802 0
M  V30 963 C 87.4339 -3.47256 0.0552099 0
M  V30 964 C 86.3879 -4.16543 0.98365 0
M  V30 965 C 85.7139 -5.34231 0.223961 0
M  V30 966 C 87.0139 -4.68495 2.3089 0
M  V30 967 H 88.7079 -2.55105 1.56722 0
M  V30 968 H 86.2539 -1.2262 0.754998 0
M  V30 969 H 88.2069 -4.20828 -0.21946 0
M  V30 970 H 86.9309 -3.14846 -0.868319 0
M  V30 971 H 85.5899 -3.44887 1.24293 0
M  V30 972 H 85.2379 -4.98071 -0.702412 0
M  V30 973 H 84.9379 -5.81527 0.842627 0
M  V30 974 H 86.4619 -6.10585 -0.0433671 0
M  V30 975 H 87.8759 -5.33691 2.09396 0
M  V30 976 H 86.2729 -5.26379 2.88176 0
M  V30 977 H 87.3429 -3.85169 2.94572 0
M  V30 978 N 88.686 -0.835752 -1.33615 0
M  V30 979 C 89.649 -0.272 -2.2758 0
M  V30 980 C 90.649 0.557487 -1.50827 0
M  V30 981 O 91.839 0.37173 -1.70188 0
M  V30 982 C 88.971 0.617173 -3.35267 0
M  V30 983 H 90.164 -1.10111 -2.78954 0
M  V30 984 H 87.717 -0.608594 -1.43965 0
M  V30 985 H 88.452 1.46884 -2.89129 0
M  V30 986 H 88.237 0.0237066 -3.92093 0
M  V30 987 H 89.727 1.005 -4.05326 0
M  V30 988 N 90.1641 1.46063 -0.591896 0
M  V30 989 C 91.4121 2.01938 -0.0808391 0
M  V30 990 C 91.7331 1.46475 1.28725 0
M  V30 991 O 91.0031 0.652944 1.84698 0
M  V30 992 H 89.5831 0.746516 -0.0268938 0
M  V30 993 H 92.2451 1.79055 -0.769752 0
M  V30 994 H 91.3411 3.12094 -0.0187578 0
M  V30 995 N 91.6422 0.330177 1.54103 0
M  V30 996 C 92.8882 -0.270806 2.00984 0
M  V30 997 C 93.2212 -1.51265 1.21789 0
M  V30 998 O 92.4962 -1.92142 0.301927 0
M  V30 999 C 92.7792 -0.598339 3.55094 0
M  V30 1000 C 92.6322 0.654674 4.4501 0
M  V30 1001 C 93.9512 -1.41334 4.16789 0
M  V30 1002 H 91.0702 -0.0969531 0.730595 0
M  V30 1003 H 93.7122 0.448066 1.84641 0
M  V30 1004 H 91.8622 -1.21078 3.69151 0
M  V30 1005 H 93.5342 1.29285 4.42813 0
M  V30 1006 H 91.7772 1.28224 4.14416 0
M  V30 1007 H 92.4482 0.380944 5.50684 0
M  V30 1008 H 94.9242 -0.895597 4.06347 0
M  V30 1009 H 93.8002 -1.61127 5.24718 0
M  V30 1010 H 94.0612 -2.41146 3.70541 0
M  V30 1011 N 93.1203 -1.57491 0.0584922 0
M  V30 1012 C 94.0833 -2.1085 -0.898617 0
M  V30 1013 C 95.0833 -1.02964 -1.23511 0
M  V30 1014 O 96.2733 -1.29007 -1.17059 0
M  V30 1015 C 93.4053 -2.59881 -2.20623 0
M  V30 1016 H 94.5983 -2.96715 -0.435936 0
M  V30 1017 H 92.1513 -1.55141 -0.190023 0
M  V30 1018 H 92.8863 -1.77431 -2.71457 0
M  V30 1019 H 92.6713 -3.38727 -1.97501 0
M  V30 1020 H 94.1613 -3.01285 -2.89166 0
M  V30 1021 N 94.5984 0.214957 -1.56127 0
M  V30 1022 C 95.8754 0.963093 -1.70247 0
M  V30 1023 C 96.2554 2.02166 -0.60764 0
M  V30 1024 O 95.6034 2.25244 0.384385 0
M  V30 1025 C 95.8134 1.56756 -3.11815 0
M  V30 1026 C 97.1614 2.0573 -3.7143 0
M  V30 1027 O 98.1854 1.66637 -3.14818 0
M  V30 1028 O 97.0444 2.77603 -4.70743 0
M  V30 1029 H 94.1384 0.450321 -0.693643 0
M  V30 1030 H 96.6844 0.206219 -1.68442 0
M  V30 1031 H 95.4564 0.803533 -3.82961 0
M  V30 1032 H 95.0794 2.3898 -3.17765 0
M  V30 1033 N 96.0765 1.50051 0.48192 0
M  V30 1034 C 97.0085 1.64263 1.59844 0
M  V30 1035 C 98.0215 0.52451 1.54119 0
M  V30 1036 O 99.2105 0.797293 1.59704 0
M  V30 1037 C 96.3105 1.60102 2.98698 0
M  V30 1038 C 95.4835 2.87767 3.29407 0
M  V30 1039 C 94.5425 2.76397 4.47762 0
M  V30 1040 O 93.5685 3.50348 4.48603 0
M  V30 1041 N 94.7705 1.89222 5.48794 0
M  V30 1042 H 97.5355 2.60566 1.48073 0
M  V30 1043 H 95.0965 1.47379 0.670149 0
M  V30 1044 H 97.0885 1.50123 3.75826 0
M  V30 1045 H 95.6585 0.715798 3.04294 0
M  V30 1046 H 94.8785 3.11954 2.40994 0
M  V30 1047 H 96.1665 3.72365 3.4673 0
M  V30 1048 H 95.5645 1.28434 5.50928 0
M  V30 1049 H 94.1215 1.85154 6.24949 0
M  V30 1050 N 97.5546 -0.734337 1.39446 0
M  V30 1051 C 98.7826 -1.52358 1.39981 0
M  V30 1052 C 99.1976 -1.88799 -0.0054975 0
M  V30 1053 O 98.5546 -1.54146 -0.976998 0
M  V30 1054 C 98.6056 -2.81072 2.27333 0
M  V30 1055 O 98.3266 -2.46178 3.62392 0
M  V30 1056 C 99.8276 -3.75096 2.36259 0
M  V30 1057 H 97.0476 -0.470806 0.478103 0
M  V30 1058 H 99.5916 -0.907339 1.83269 0
M  V30 1059 H 97.7466 -3.39026 1.87457 0
M  V30 1060 H 98.1606 -3.28866 4.08592 0
M  V30 1061 H 99.6346 -4.62305 3.01626 0
M  V30 1062 H 100.112 -4.16892 1.38194 0
M  V30 1063 H 100.718 -3.23061 2.76608 0
M  V30 1064 N 99.0327 -1.24633 -0.964593 0
M  V30 1065 C 99.9797 -1.04144 -2.05968 0
M  V30 1066 C 100.95 0.046262 -1.66036 0
M  V30 1067 O 102.135 -0.108972 -1.90489 0
M  V30 1068 C 99.2747 -0.65563 -3.38815 0
M  V30 1069 C 98.3877 -1.81714 -3.91923 0
M  V30 1070 C 97.5227 -1.37662 -5.13052 0
M  V30 1071 C 96.5617 -2.50788 -5.58365 0
M  V30 1072 N 95.6987 -2.07582 -6.70712 0
M  V30 1073 H 100.539 -1.9787 -2.22827 0
M  V30 1074 H 98.0757 -0.9855 -1.09208 0
M  V30 1075 H 100.034 -0.412954 -4.15151 0
M  V30 1076 H 98.6637 0.244627 -3.21872 0
M  V30 1077 H 97.7157 -2.1734 -3.12198 0
M  V30 1078 H 99.0277 -2.66705 -4.21509 0
M  V30 1079 H 98.1817 -1.093 -5.96773 0
M  V30 1080 H 96.9207 -0.497293 -4.85158 0
M  V30 1081 H 95.9257 -2.79906 -4.73215 0
M  V30 1082 H 97.1507 -3.39283 -5.88272 0
M  V30 1083 H 95.0967 -1.22051 -6.44546 0
M  V30 1084 H 95.0137 -2.86125 -6.99763 0
M  V30 1085 H 96.2817 -1.82369 -7.57867 0
M  V30 1086 N 100.511 1.16574 -1.06058 0
M  V30 1087 C 101.788 1.83048 -0.689416 0
M  V30 1088 C 102.168 1.94122 0.829443 0
M  V30 1089 O 101.516 1.48249 1.7388 0
M  V30 1090 C 101.726 3.20186 -1.38859 0
M  V30 1091 C 103.074 3.95989 -1.53226 0
M  V30 1092 O 104.098 3.29696 -1.3483 0
M  V30 1093 O 102.957 5.14813 -1.83384 0
M  V30 1094 H 100.051 0.790258 -0.243764 0
M  V30 1095 H 102.597 1.23797 -1.16071 0
M  V30 1096 H 101.369 3.07146 -2.4244 0
M  V30 1097 H 100.992 3.87112 -0.907216 0
M  V30 1098 N 101.989 0.842826 1.3317 0
M  V30 1099 C 103.237 0.439577 1.97262 0
M  V30 1100 C 103.558 -1.00548 1.67078 0
M  V30 1101 O 102.828 -1.70098 0.971779 0
M  V30 1102 H 101.408 0.159558 0.72976 0
M  V30 1103 H 104.07 1.07665 1.62463 0
M  V30 1104 H 103.166 0.574886 3.0676 0
M  V30 1105 N 103.467 -1.45747 0.599634 0
M  V30 1106 C 104.397 -2.33235 -0.111306 0
M  V30 1107 C 105.378 -1.46359 -0.866781 0
M  V30 1108 O 106.563 -1.75146 -0.838904 0
M  V30 1109 C 103.693 -3.28932 -1.11451 0
M  V30 1110 C 102.647 -4.25381 -0.472772 0
M  V30 1111 C 101.973 -5.1071 -1.58365 0
M  V30 1112 C 103.273 -5.18831 0.600948 0
M  V30 1113 H 104.967 -2.92927 0.61919 0
M  V30 1114 H 102.513 -1.40857 0.299215 0
M  V30 1115 H 104.466 -3.89002 -1.62036 0
M  V30 1116 H 103.19 -2.67381 -1.8755 0
M  V30 1117 H 101.849 -3.66598 0.0121472 0
M  V30 1118 H 101.497 -4.45533 -2.33473 0
M  V30 1119 H 101.197 -5.7604 -1.15982 0
M  V30 1120 H 102.721 -5.73647 -2.09194 0
M  V30 1121 H 104.135 -5.73019 0.179491 0
M  V30 1122 H 102.532 -5.92595 0.946076 0
M  V30 1123 H 103.602 -4.6174 1.48068 0
M  V30 1124 N 104.945 -0.338344 -1.53925 0
M  V30 1125 C 106.194 0.260732 -2.00008 0
M  V30 1126 C 106.507 1.52073 -1.23017 0
M  V30 1127 O 107.713 2.19672 -1.5955 0
M  V30 1128 C 106.169 0.51515 -3.56194 0
M  V30 1129 C 105.777 -0.728645 -4.42035 0
M  V30 1130 C 107.521 1.07337 -4.10706 0
M  V30 1131 C 105.428 -0.445315 -5.89721 0
M  V30 1132 H 104.358 0.101205 -0.747177 0
M  V30 1133 H 107.009 -0.452866 -1.77824 0
M  V30 1134 H 105.391 1.28932 -3.74423 0
M  V30 1135 H 106.565 -1.50352 -4.35581 0
M  V30 1136 H 104.88 -1.20813 -3.98489 0
M  V30 1137 H 107.477 1.30022 -5.18651 0
M  V30 1138 H 107.82 2.0273 -3.63602 0
M  V30 1139 H 108.353 0.360034 -3.96167 0
M  V30 1140 H 105.092 -1.36883 -6.41049 0
M  V30 1141 H 104.612 0.291569 -5.99091 0
M  V30 1142 H 106.291 -0.0606218 -6.46972 0
M  V30 1143 N 106.423 1.57458 -0.0668435 0
M  V30 1144 C 107.648 1.9804 0.616027 0
M  V30 1145 C 108.073 0.944771 1.62652 0
M  V30 1146 O 107.431 -0.0902094 1.81075 0
M  V30 1147 C 107.479 3.37665 1.26549 0
M  V30 1148 O 106.583 3.36701 2.38131 0
M  V30 1149 H 105.924 0.644719 0.158849 0
M  V30 1150 H 108.454 2.04121 -0.139891 0
M  V30 1151 H 108.464 3.7474 1.6135 0
M  V30 1152 H 107.139 4.12573 0.525016 0
M  V30 1153 H 105.716 3.1139 2.0516 0
M  V30 1154 N 107.901 -0.206675 1.56239 0
M  V30 1155 C 109.131 -0.943975 1.83773 0
M  V30 1156 C 109.539 -1.77841 0.645703 0
M  V30 1157 O 108.882 -1.79403 -0.395008 0
M  V30 1158 C 108.944 -1.899 3.05251 0
M  V30 1159 C 108.608 -1.24764 4.39639 0
M  V30 1160 C 109.605 -0.630216 5.16066 0
M  V30 1161 C 107.29 -1.25496 4.8637 0
M  V30 1162 C 109.284 -0.0287946 6.37393 0
M  V30 1163 C 106.971 -0.649698 6.07637 0
M  V30 1164 C 107.969 -0.0376845 6.8299 0
M  V30 1165 O 107.657 0.55812 8.0196 0
M  V30 1166 H 107.389 -0.281508 0.614597 0
M  V30 1167 H 109.943 -0.222458 2.04192 0
M  V30 1168 H 108.173 -2.6599 2.80689 0
M  V30 1169 H 109.862 -2.5031 3.1953 0
M  V30 1170 H 110.628 -0.616785 4.81062 0
M  V30 1171 H 106.507 -1.72072 4.27683 0
M  V30 1172 H 110.051 0.449518 6.9615 0
M  V30 1173 H 105.948 -0.660592 6.42111 0
M  V30 1174 H 106.716 0.453891 8.17241 0
M  V30 1175 N 109.379 -1.50304 -0.473955 0
M  V30 1176 C 110.311 -1.65109 -1.58971 0
M  V30 1177 C 111.324 -0.532676 -1.53839 0
M  V30 1178 O 112.513 -0.805751 -1.59279 0
M  V30 1179 C 109.613 -1.61684 -2.97845 0
M  V30 1180 C 108.786 -2.8951 -3.27876 0
M  V30 1181 C 107.845 -2.78768 -4.4629 0
M  V30 1182 O 106.871 -3.52722 -4.46739 0
M  V30 1183 N 108.073 -1.9213 -5.47783 0
M  V30 1184 H 110.838 -2.61347 -1.46689 0
M  V30 1185 H 108.399 -1.47732 -0.662324 0
M  V30 1186 H 110.391 -1.52114 -3.75024 0
M  V30 1187 H 108.961 -0.731925 -3.03911 0
M  V30 1188 H 108.181 -3.13228 -2.39336 0
M  V30 1189 H 109.469 -3.74199 -3.4475 0
M  V30 1190 H 108.867 -1.31353 -5.50239 0
M  V30 1191 H 107.424 -1.88466 -6.23958 0
M  V30 1192 N 110.857 0.726932 -1.39834 0
M  V30 1193 C 111.767 1.87131 -1.41489 0
M  V30 1194 C 112.783 1.71239 -0.308757 0
M  V30 1195 O 113.959 1.93701 -0.551529 0
M  V30 1196 C 111.024 3.22811 -1.26468 0
M  V30 1197 C 110.085 3.51039 -2.47124 0
M  V30 1198 C 109.318 4.80245 -2.3281 0
M  V30 1199 O 109.541 5.54537 -1.33585 0
M  V30 1200 O 108.475 5.08554 -3.21957 0
M  V30 1201 H 112.301 1.8869 -2.3797 0
M  V30 1202 H 109.886 0.875837 -1.21035 0
M  V30 1203 H 111.768 4.03877 -1.20255 0
M  V30 1204 H 110.443 3.22005 -0.330862 0
M  V30 1205 H 109.35 2.70027 -2.58914 0
M  V30 1206 H 110.683 3.56632 -3.39227 0
M  V30 1207 N 112.336 1.25143 0.95797 0
M  V30 1208 C 113.583 1.09692 1.70217 0
M  V30 1209 C 113.911 -0.362654 1.91089 0
M  V30 1210 O 113.166 -1.28386 1.47701 0
M  V30 1211 C 113.465 1.79272 3.09187 0
M  V30 1212 C 113.131 3.29196 3.08125 0
M  V30 1213 C 111.793 3.70096 3.07543 0
M  V30 1214 C 114.145 4.24995 3.0171 0
M  V30 1215 C 111.473 5.05213 2.9829 0
M  V30 1216 C 113.825 5.60132 2.93999 0
M  V30 1217 C 112.489 6.00365 2.9175 0
M  V30 1218 H 111.759 0.401393 0.622868 0
M  V30 1219 H 114.406 1.55372 1.11945 0
M  V30 1220 H 112.711 1.26014 3.70982 0
M  V30 1221 H 114.408 1.64773 3.65583 0
M  V30 1222 H 110.998 2.96651 3.09348 0
M  V30 1223 H 115.182 3.9439 3.01281 0
M  V30 1224 H 110.438 5.35569 2.94916 0
M  V30 1225 H 114.612 6.3406 2.87996 0
M  V30 1226 H 112.239 7.05023 2.84336 0
M  V30 1227 N 113.814 -1.1601 1.06675 0
M  V30 1228 C 114.744 -2.22688 0.702307 0
M  V30 1229 C 115.725 -1.67306 -0.307032 0
M  V30 1230 O 116.91 -1.93352 -0.181305 0
M  V30 1231 C 114.04 -3.47178 0.092038 0
M  V30 1232 C 112.994 -4.15477 1.02777 0
M  V30 1233 C 112.32 -5.33963 0.28061 0
M  V30 1234 C 113.62 -4.66019 2.35846 0
M  V30 1235 H 115.314 -2.53429 1.59419 0
M  V30 1236 H 112.86 -1.21813 0.767961 0
M  V30 1237 H 114.813 -4.21037 -0.174814 0
M  V30 1238 H 113.537 -3.15749 -0.834877 0
M  V30 1239 H 112.196 -3.43549 1.27944 0
M  V30 1240 H 111.844 -4.98788 -0.649545 0
M  V30 1241 H 111.544 -5.806 0.904258 0
M  V30 1242 H 113.068 -6.10596 0.021396 0
M  V30 1243 H 114.482 -5.3144 2.15045 0
M  V30 1244 H 112.879 -5.23293 2.93743 0
M  V30 1245 H 113.949 -3.82023 2.98641 0
M  V30 1246 N 115.292 -0.849877 -1.32721 0
M  V30 1247 C 116.255 -0.296122 -2.27279 0
M  V30 1248 C 117.255 0.541458 -1.5141 0
M  V30 1249 O 118.445 0.353658 -1.70572 0
M  V30 1250 C 115.577 0.581579 -3.35902 0
M  V30 1251 H 116.77 -1.13064 -2.77771 0
M  V30 1252 H 114.323 -0.62383 -1.43311 0
M  V30 1253 H 115.058 1.43809 -2.9067 0
M  V30 1254 H 114.843 -0.0178814 -3.92096 0
M  V30 1255 H 116.333 0.961951 -4.0637 0
M  V30 1256 N 116.77 1.45427 -0.607355 0
M  V30 1257 C 118.017 2.02241 -0.102455 0
M  V30 1258 C 118.345 1.4758 1.26691 0
M  V30 1259 O 117.6 0.640468 1.84923 0
M  V30 1260 C 117.899 3.57398 -0.0129263 0
M  V30 1261 C 117.565 4.3121 -1.31792 0
M  V30 1262 C 116.227 4.51092 -1.67539 0
M  V30 1263 C 118.579 4.73401 -2.18039 0
M  V30 1264 C 115.907 5.10422 -2.89285 0
M  V30 1265 C 118.259 5.34078 -3.39034 0
M  V30 1266 C 116.923 5.52184 -3.75033 0
M  V30 1267 H 116.193 0.740051 -0.037491 0
M  V30 1268 H 118.84 1.74494 -0.788926 0
M  V30 1269 H 117.145 3.84421 0.756806 0
M  V30 1270 H 118.842 3.99061 0.393881 0
M  V30 1271 H 115.432 4.16047 -1.02968 0
M  V30 1272 H 119.616 4.57774 -1.91721 0
M  V30 1273 H 114.872 5.22629 -3.17283 0
M  V30 1274 H 119.046 5.65724 -4.06115 0
M  V30 1275 H 116.673 5.97925 -4.69457 0
M  V30 1276 N 118.248 0.346503 1.53744 0
M  V30 1277 C 119.158 -0.517293 2.28826 0
M  V30 1278 C 120.174 -1.10935 1.3405 0
M  V30 1279 O 121.35 -1.1244 1.6709 0
M  V30 1280 C 118.415 -1.65098 3.04866 0
M  V30 1281 C 117.476 -1.0884 4.15274 0
M  V30 1282 C 116.709 -2.16806 4.87679 0
M  V30 1283 O 116.932 -3.3758 4.59778 0
M  V30 1284 O 115.866 -1.80934 5.74061 0
M  V30 1285 H 119.692 0.0931396 3.03557 0
M  V30 1286 H 117.277 0.111458 1.48984 0
M  V30 1287 H 119.159 -2.31053 3.5241 0
M  V30 1288 H 117.834 -2.24717 2.32989 0
M  V30 1289 H 116.741 -0.3933 3.72027 0
M  V30 1290 H 118.074 -0.537036 4.89261 0
M  V30 1291 N 119.726 -1.57421 0.075193 0
M  V30 1292 C 120.951 -1.98364 -0.605515 0
M  V30 1293 C 121.376 -0.953383 -1.62149 0
M  V30 1294 O 120.734 0.0806053 -1.81121 0
M  V30 1295 C 120.782 -3.38332 -1.24756 0
M  V30 1296 O 119.886 -3.37959 -2.36342 0
M  V30 1297 H 119.227 -0.645553 -0.155428 0
M  V30 1298 H 121.757 -2.04044 0.150714 0
M  V30 1299 H 121.767 -3.75591 -1.5936 0
M  V30 1300 H 120.442 -4.12846 -0.503129 0
M  V30 1301 H 119.019 -3.12474 -2.03506 0
M  V30 1302 N 121.204 0.198386 -1.56346 0
M  V30 1303 C 122.45 0.920648 -1.80698 0
M  V30 1304 C 122.783 1.83045 -0.648697 0
M  V30 1305 O 122.058 1.91308 0.350925 0
M  V30 1306 C 122.341 1.73971 -3.15287 0
M  V30 1307 C 122.194 0.85485 -4.41602 0
M  V30 1308 C 123.513 2.71296 -3.46535 0
M  V30 1309 H 120.632 0.333261 -0.657348 0
M  V30 1310 H 123.274 0.188198 -1.89066 0
M  V30 1311 H 121.424 2.36416 -3.08285 0
M  V30 1312 H 123.096 0.245362 -4.60647 0
M  V30 1313 H 121.339 0.161398 -4.335 0
M  V30 1314 H 122.01 1.46286 -5.32264 0
M  V30 1315 H 124.486 2.18983 -3.53816 0
M  V30 1316 H 123.362 3.2569 -4.41834 0
M  V30 1317 H 123.623 3.5018 -2.69864 0
M  V30 1318 N 122.682 1.50554 0.465978 0
M  V30 1319 C 123.612 1.72722 1.57128 0
M  V30 1320 C 124.593 0.576294 1.6004 0
M  V30 1321 O 125.778 0.81598 1.76225 0
M  V30 1322 C 122.908 1.82605 2.95419 0
M  V30 1323 C 121.862 2.97835 3.07373 0
M  V30 1324 C 121.188 2.92867 4.47363 0
M  V30 1325 C 122.488 4.38265 2.84114 0
M  V30 1326 H 124.182 2.65267 1.38829 0
M  V30 1327 H 121.728 1.2765 0.666441 0
M  V30 1328 H 123.681 1.96698 3.72677 0
M  V30 1329 H 122.405 0.866858 3.14886 0
M  V30 1330 H 121.064 2.83401 2.3255 0
M  V30 1331 H 120.712 1.94783 4.63755 0
M  V30 1332 H 120.412 3.70227 4.56296 0
M  V30 1333 H 121.936 3.09015 5.26633 0
M  V30 1334 H 123.35 4.53198 3.51118 0
M  V30 1335 H 121.747 5.17115 3.04487 0
M  V30 1336 H 122.817 4.50281 1.7993 0
M  V30 1337 N 124.16 -0.719506 1.40217 0
M  V30 1338 C 125.4 -1.49181 1.39729 0
M  V30 1339 C 125.764 -1.92 -0.00250614 0
M  V30 1340 O 126.965 -2.68473 -0.132479 0
M  V30 1341 C 125.236 -2.68767 2.35582 0
M  V30 1342 S 126.795 -3.58224 2.53418 0
M  V30 1343 H 123.613 -0.510091 0.495307 0
M  V30 1344 H 126.215 -0.841724 1.76452 0
M  V30 1345 H 124.919 -2.35475 3.36124 0
M  V30 1346 H 124.45 -3.38691 2.0013 0
M  V30 1347 H 126.465 -4.63033 1.78367 0
M  V30 1348 N 125.638 -1.25649 -0.95132 0
M  V30 1349 C 126.601 -1.06399 -2.03007 0
M  V30 1350 C 127.601 -0.0156794 -1.60792 0
M  V30 1351 O 128.791 -0.25817 -1.72276 0
M  V30 1352 C 125.923 -0.616184 -3.35285 0
M  V30 1353 H 127.116 -2.02164 -2.21517 0
M  V30 1354 H 124.669 -1.08103 -1.12887 0
M  V30 1355 H 125.404 0.343917 -3.22471 0
M  V30 1356 H 125.189 -1.37301 -3.67275 0
M  V30 1357 H 126.679 -0.503032 -4.14559 0
M  V30 1358 N 127.117 1.15442 -1.07289 0
M  V30 1359 C 128.528 1.67803 -0.818475 0
M  V30 1360 C 128.879 1.8489 0.656507 0
M  V30 1361 O 128.004 1.55176 1.50829 0
M  V30 1362 C 128.599 3.04805 -1.47917 0
M  V30 1363 C 127.158 3.54245 -1.27229 0
M  V30 1364 C 126.305 2.29986 -1.54925 0
M  V30 1365 H 129.256 0.996646 -1.23502 0
M  V30 1366 H 129.277 3.69702 -0.90005 0
M  V30 1367 H 128.789 2.92336 -2.55267 0
M  V30 1368 H 126.89 3.71956 -0.21899 0
M  V30 1369 H 127.003 4.35723 -1.99203 0
M  V30 1370 H 125.367 2.35496 -0.970242 0
M  V30 1371 H 126.15 2.20105 -2.63455 0
M  V30 1372 N 128.595 0.856903 1.32268 0
M  V30 1373 C 129.872 0.382583 1.91822 0
M  V30 1374 C 130.252 -1.13407 1.78051 0
M  V30 1375 O 129.6 -1.95673 1.18001 0
M  V30 1376 C 129.81 0.849446 3.38505 0
M  V30 1377 C 131.158 0.867936 4.15634 0
M  V30 1378 O 132.182 0.794232 3.47232 0
M  V30 1379 O 131.041 0.972286 5.37781 0
M  V30 1380 H 128.135 0.112014 0.819379 0
M  V30 1381 H 130.681 0.943952 1.41024 0
M  V30 1382 H 129.453 1.89267 3.42482 0
M  V30 1383 H 129.076 0.265652 3.96712 0
M  V30 1384 N 130.073 -1.45103 0.615059 0
M  V30 1385 C 131.298 -2.07064 0.117988 0
M  V30 1386 C 131.723 -1.4554 -1.19163 0
M  V30 1387 O 131.081 -0.550855 -1.72729 0
M  V30 1388 C 131.129 -3.606 -0.000288387 0
M  V30 1389 O 130.233 -3.98847 -1.04856 0
M  V30 1390 H 129.574 -0.659467 0.0774581 0
M  V30 1391 H 132.104 -1.86236 0.847186 0
M  V30 1392 H 132.114 -4.07529 -0.196091 0
M  V30 1393 H 130.789 -4.04765 0.955932 0
M  V30 1394 H 129.366 -3.63577 -0.828619 0
M  V30 1395 N 131.551 -0.354651 -1.53558 0
M  V30 1396 C 132.484 0.540273 -2.21712 0
M  V30 1397 C 133.462 1.09161 -1.2051 0
M  V30 1398 O 134.646 1.14979 -1.49372 0
M  V30 1399 C 131.773 1.74435 -2.90328 0
M  V30 1400 C 130.819 1.32146 -4.05512 0
M  V30 1401 S 131.652 0.331924 -5.3447 0
M  V30 1402 C 132.808 1.54258 -6.06593 0
M  V30 1403 H 133.041 -0.0385776 -2.97275 0
M  V30 1404 H 130.574 -0.138736 -1.53775 0
M  V30 1405 H 132.532 2.43507 -3.30476 0
M  V30 1406 H 131.193 2.29444 -2.1451 0
M  V30 1407 H 130.386 2.21952 -4.52497 0
M  V30 1408 H 129.988 0.710091 -3.67197 0
M  V30 1409 H 132.28 2.47534 -6.30661 0
M  V30 1410 H 133.223 1.11431 -6.99277 0
M  V30 1411 H 133.631 1.74367 -5.36895 0
M  V30 1412 N 133.029 1.57378 -0.0835403 0
M  V30 1413 C 134.276 1.9393 0.58287 0
M  V30 1414 C 134.604 0.964455 1.68904 0
M  V30 1415 O 133.859 -0.0179474 1.95692 0
M  V30 1416 C 134.158 3.37063 1.1884 0
M  V30 1417 C 133.824 4.50424 0.207194 0
M  V30 1418 C 132.486 4.81159 -0.0627115 0
M  V30 1419 C 134.838 5.19136 -0.463426 0
M  V30 1420 C 132.166 5.77939 -1.01012 0
M  V30 1421 C 134.518 6.16931 -1.39924 0
M  V30 1422 C 133.182 6.46078 -1.67749 0
M  V30 1423 H 132.452 0.70964 0.213287 0
M  V30 1424 H 135.099 1.90856 -0.156916 0
M  V30 1425 H 133.404 3.3666 2.00418 0
M  V30 1426 H 135.101 3.6264 1.71153 0
M  V30 1427 H 131.691 4.2646 0.427747 0
M  V30 1428 H 135.875 4.95576 -0.268034 0
M  V30 1429 H 131.131 5.98842 -1.23283 0
M  V30 1430 H 135.305 6.69273 -1.92476 0
M  V30 1431 H 132.932 7.2088 -2.41321 0
M  V30 1432 N 134.507 -0.190092 1.56449 0
M  V30 1433 C 135.756 -0.907912 1.80111 0
M  V30 1434 C 136.069 -1.84214 0.657619 0
M  V30 1435 O 137.275 -2.60094 0.778663 0
M  V30 1436 C 135.731 -1.66485 3.19078 0
M  V30 1437 C 135.339 -0.7752 4.41242 0
M  V30 1438 C 137.083 -2.37201 3.52045 0
M  V30 1439 C 134.99 -1.53129 5.71231 0
M  V30 1440 H 133.92 -0.34276 0.671589 0
M  V30 1441 H 136.571 -0.161109 1.82791 0
M  V30 1442 H 134.953 -2.45572 3.10661 0
M  V30 1443 H 136.127 -0.0226298 4.60794 0
M  V30 1444 H 134.442 -0.178627 4.16017 0
M  V30 1445 H 137.039 -2.94329 4.46402 0
M  V30 1446 H 137.382 -3.11632 2.76028 0
M  V30 1447 H 137.915 -1.65075 3.61932 0
M  V30 1448 H 134.654 -0.82967 6.50228 0
M  V30 1449 H 134.174 -2.25767 5.55688 0
M  V30 1450 H 135.853 -2.08377 6.12526 0
M  V30 1451 N 135.985 -1.50799 -0.457987 0
M  V30 1452 C 137.231 -1.62683 -1.21088 0
M  V30 1453 C 137.564 -0.332268 -1.91336 0
M  V30 1454 O 136.839 0.667043 -1.82704 0
M  V30 1455 C 137.122 -2.81615 -2.24422 0
M  V30 1456 C 136.975 -4.20989 -1.58392 0
M  V30 1457 C 138.294 -2.96085 -3.2561 0
M  V30 1458 H 135.413 -0.592087 -0.438864 0
M  V30 1459 H 138.055 -1.83225 -0.50286 0
M  V30 1460 H 136.205 -2.64231 -2.84806 0
M  V30 1461 H 137.877 -4.49994 -1.01504 0
M  V30 1462 H 136.12 -4.24641 -0.886704 0
M  V30 1463 H 136.791 -5.0016 -2.33547 0
M  V30 1464 H 139.267 -3.12042 -2.75262 0
M  V30 1465 H 138.143 -3.80902 -3.95228 0
M  V30 1466 H 138.404 -2.0726 -3.90507 0
M  V30 1467 N 137.463 0.71206 -1.40597 0
M  V30 1468 C 138.426 1.80785 -1.40888 0
M  V30 1469 C 139.426 1.57937 -0.302103 0
M  V30 1470 O 140.616 1.64913 -0.561182 0
M  V30 1471 C 137.748 3.18927 -1.20409 0
M  V30 1472 H 138.941 1.81924 -2.38419 0
M  V30 1473 H 136.494 0.91805 -1.26497 0
M  V30 1474 H 137.229 3.23436 -0.236522 0
M  V30 1475 H 137.014 3.36911 -2.00582 0
M  V30 1476 H 138.504 3.98949 -1.23408 0
M  V30 1477 N 138.941 1.26152 0.944643 0
M  V30 1478 C 140.188 1.11492 1.69044 0
M  V30 1479 C 140.516 -0.342366 1.91463 0
M  V30 1480 O 139.771 -1.26812 1.49054 0
M  V30 1481 C 140.07 1.82541 3.07268 0
M  V30 1482 C 139.736 3.32445 3.04616 0
M  V30 1483 C 138.398 3.73337 3.036 0
M  V30 1484 C 140.75 4.28171 2.97185 0
M  V30 1485 C 138.078 5.08348 2.92915 0
M  V30 1486 C 140.43 5.63218 2.88041 0
M  V30 1487 C 139.094 6.03426 2.85366 0
M  V30 1488 H 138.364 0.407977 0.618576 0
M  V30 1489 H 141.011 1.56551 1.10291 0
M  V30 1490 H 139.316 1.29941 3.69625 0
M  V30 1491 H 141.013 1.68642 3.63815 0
M  V30 1492 H 137.603 2.99915 3.06185 0
M  V30 1493 H 141.787 3.97563 2.97081 0
M  V30 1494 H 137.043 5.38667 2.89219 0
M  V30 1495 H 141.217 6.37078 2.81254 0
M  V30 1496 H 138.844 7.07999 2.76842 0
M  V30 1497 N 140.419 -1.14872 1.07899 0
M  V30 1498 C 141.351 -2.19425 0.662231 0
M  V30 1499 C 142.364 -1.60231 -0.288079 0
M  V30 1500 O 143.553 -1.78336 -0.076534 0
M  V30 1501 C 140.653 -3.38867 -0.0470695 0
M  V30 1502 C 139.826 -4.27597 0.920831 0
M  V30 1503 C 138.885 -5.25616 0.247805 0
M  V30 1504 O 137.911 -5.62189 0.890599 0
M  V30 1505 N 139.113 -5.71746 -1.00435 0
M  V30 1506 H 141.878 -2.55797 1.56166 0
M  V30 1507 H 139.439 -1.30042 0.964404 0
M  V30 1508 H 141.431 -4.01497 -0.50813 0
M  V30 1509 H 140.001 -3.00864 -0.848523 0
M  V30 1510 H 139.221 -3.61982 1.56087 0
M  V30 1511 H 140.509 -4.83748 1.57688 0
M  V30 1512 H 139.907 -5.44153 -1.54642 0
M  V30 1513 H 138.464 -6.36389 -1.40899 0
M  V30 1514 N 141.898 -0.863906 -1.31812 0
M  V30 1515 C 142.828 -0.330843 -2.31144 0
M  V30 1516 C 143.809 0.575005 -1.60087 0
M  V30 1517 O 144.994 0.493304 -1.8783 0
M  V30 1518 C 142.124 0.47374 -3.44054 0
M  V30 1519 C 141.078 -0.338481 -4.26659 0
M  V30 1520 C 140.404 0.591412 -5.31419 0
M  V30 1521 C 141.704 -1.56926 -4.98168 0
M  V30 1522 H 143.398 -1.16086 -2.75979 0
M  V30 1523 H 140.944 -0.559657 -1.32679 0
M  V30 1524 H 142.897 0.857143 -4.12591 0
M  V30 1525 H 141.621 1.33721 -2.9797 0
M  V30 1526 H 140.28 -0.703754 -3.59782 0
M  V30 1527 H 139.928 1.45199 -4.81587 0
M  V30 1528 H 139.628 0.0519022 -5.87577 0
M  V30 1529 H 141.152 0.97179 -6.02817 0
M  V30 1530 H 142.566 -1.25764 -5.59336 0
M  V30 1531 H 140.963 -2.04739 -5.64094 0
M  V30 1532 H 142.033 -2.32544 -4.25501 0
M  V30 1533 N 143.376 1.44774 -0.622745 0
M  V30 1534 C 144.623 2.02121 -0.1239 0
M  V30 1535 C 144.951 1.48915 1.25118 0
M  V30 1536 O 144.206 0.660045 1.84233 0
M  V30 1537 C 144.505 3.57364 -0.0508323 0
M  V30 1538 C 144.171 4.29787 -1.36358 0
M  V30 1539 C 142.833 4.4929 -1.72314 0
M  V30 1540 C 145.185 4.71062 -2.23048 0
M  V30 1541 C 142.513 5.07325 -2.94682 0
M  V30 1542 C 144.865 5.30452 -3.44679 0
M  V30 1543 C 143.529 5.48175 -3.80868 0
M  V30 1544 H 142.799 0.739612 -0.0453381 0
M  V30 1545 H 145.446 1.73648 -0.807389 0
M  V30 1546 H 143.751 3.85202 0.715991 0
M  V30 1547 H 145.448 3.99456 0.351533 0
M  V30 1548 H 142.038 4.14932 -1.07375 0
M  V30 1549 H 146.222 4.55715 -1.96565 0
M  V30 1550 H 141.478 5.19235 -3.22809 0
M  V30 1551 H 145.652 5.61385 -4.12092 0
M  V30 1552 H 143.279 5.92912 -4.75773 0
M  V30 1553 N 144.854 0.36279 1.53368 0
M  V30 1554 C 146.131 -0.284021 1.93527 0
M  V30 1555 C 146.511 -1.66628 1.29608 0
M  V30 1556 O 145.859 -2.23942 0.45413 0
M  V30 1557 C 146.069 -0.337028 3.47369 0
M  V30 1558 C 147.417 -0.578708 4.20638 0
M  V30 1559 O 148.441 -0.418352 3.53735 0
M  V30 1560 O 147.3 -0.89074 5.39192 0
M  V30 1561 H 144.394 -0.169743 0.809393 0
M  V30 1562 H 146.94 0.41537 1.64538 0
M  V30 1563 H 145.712 0.632217 3.86159 0
M  V30 1564 H 145.335 -1.08243 3.82582 0
M  V30 1565 N 146.332 -1.57332 0.0918853 0
M  V30 1566 C 147.279 -2.13847 -0.868211 0
M  V30 1567 C 148.249 -1.05618 -1.28196 0
M  V30 1568 O 149.434 -1.33387 -1.36427 0
M  V30 1569 C 146.574 -2.72062 -2.12312 0
M  V30 1570 C 145.687 -3.94514 -1.7602 0
M  V30 1571 C 144.822 -4.40903 -2.96273 0
M  V30 1572 C 143.861 -5.55953 -2.56092 0
M  V30 1573 N 142.998 -5.97209 -3.69169 0
M  V30 1574 H 147.838 -2.95575 -0.379406 0
M  V30 1575 H 145.375 -1.46048 -0.175606 0
M  V30 1576 H 147.333 -3.03931 -2.858 0
M  V30 1577 H 145.963 -1.93068 -2.58698 0
M  V30 1578 H 145.015 -3.68979 -0.925135 0
M  V30 1579 H 146.327 -4.7802 -1.42472 0
M  V30 1580 H 145.481 -4.74539 -3.78018 0
M  V30 1581 H 144.22 -3.56291 -3.33029 0
M  V30 1582 H 143.225 -5.21948 -1.72773 0
M  V30 1583 H 144.45 -6.42311 -2.20484 0
M  V30 1584 H 142.396 -5.15543 -4.05649 0
M  V30 1585 H 142.313 -6.75504 -3.39456 0
M  V30 1586 H 143.581 -6.35475 -4.51434 0
M  V30 1587 N 147.81 0.181792 -1.56548 0
M  V30 1588 C 149.035 0.920019 -1.85877 0
M  V30 1589 C 149.46 1.75494 -0.677021 0
M  V30 1590 O 148.818 1.77399 0.374056 0
M  V30 1591 C 148.866 1.78112 -3.13542 0
M  V30 1592 O 147.97 2.88152 -2.95029 0
M  V30 1593 H 147.311 0.258334 -0.611686 0
M  V30 1594 H 149.841 0.183092 -2.03779 0
M  V30 1595 H 149.851 2.18314 -3.44678 0
M  V30 1596 H 148.526 1.16777 -3.99169 0
M  V30 1597 H 147.103 2.51609 -2.75222 0
M  V30 1598 N 149.288 1.51039 0.449983 0
M  V30 1599 C 150.536 1.62759 1.19808 0
M  V30 1600 C 150.857 0.339981 1.92013 0
M  V30 1601 O 150.127 -0.643606 1.85026 0
M  V30 1602 H 148.707 0.599811 0.445237 0
M  V30 1603 H 151.369 1.87914 0.517138 0
M  V30 1604 H 150.465 2.44911 1.93455 0
M  V30 1605 N 150.766 -0.704594 1.40972 0
M  V30 1606 C 151.714 -1.83994 1.42299 0
M  V30 1607 C 152.708 -1.66684 0.302111 0
M  V30 1608 O 153.914 -1.73655 0.473697 0
M  V30 1609 H 150.289 -0.606171 0.44504 0
M  V30 1610 H 152.26 -1.79992 2.38003 0
M  V30 1611 C 151.009 -3.21946 1.31323 0
M  V30 1612 H 150.332 -3.35878 2.16855 0
M  V30 1613 H 151.772 -4.01491 1.36311 0
M  V30 1614 C 150.231 -3.36891 0.0245977 0
M  V30 1615 O 150.761 -3.90687 -0.934153 0
M  V30 1616 N 148.967 -2.90559 -0.0485243 0
M  V30 1617 H 148.514 -2.46968 0.732419 0
M  V30 1618 H 148.472 -3.00937 -0.910171 0
M  V30 1619 N 152.244 -1.26651 -0.937939 0
M  V30 1620 C 153.492 -1.12165 -1.68118 0
M  V30 1621 C 153.813 0.334983 -1.92101 0
M  V30 1622 O 153.083 1.23583 -1.52 0
M  V30 1623 H 151.663 -0.412093 -0.623048 0
M  V30 1624 H 154.325 -1.59027 -1.12678 0
M  V30 1625 H 153.421 -1.64289 -2.6536 0
M  V30 1626 N 153.722 1.14298 -1.08507 0
M  V30 1627 C 154.632 2.23027 -0.727753 0
M  V30 1628 C 155.648 1.71952 0.26619 0
M  V30 1629 O 156.824 2.011 0.109882 0
M  V30 1630 C 153.889 3.46403 -0.143541 0
M  V30 1631 C 152.95 4.12413 -1.19223 0
M  V30 1632 C 152.183 5.29899 -0.635798 0
M  V30 1633 O 152.406 5.67796 0.544393 0
M  V30 1634 O 151.34 5.85717 -1.38634 0
M  V30 1635 H 155.166 2.55945 -1.63481 0
M  V30 1636 H 152.751 1.22248 -0.858817 0
M  V30 1637 H 154.633 4.21018 0.179404 0
M  V30 1638 H 153.308 3.15206 0.736659 0
M  V30 1639 H 152.215 3.39667 -1.56772 0
M  V30 1640 H 153.548 4.47718 -2.04474 0
M  V30 1641 N 155.201 0.870884 1.31352 0
M  V30 1642 C 156.447 0.482987 1.96965 0
M  V30 1643 C 156.78 -0.962462 1.68672 0
M  V30 1644 O 156.055 -1.6779 0.98371 0
M  V30 1645 C 156.338 0.741752 3.52378 0
M  V30 1646 C 156.191 2.2368 3.9024 0
M  V30 1647 C 157.51 0.208838 4.39604 0
M  V30 1648 H 154.629 0.176955 0.715441 0
M  V30 1649 H 157.271 1.09229 1.55464 0
M  V30 1650 H 155.421 0.223149 3.87859 0
M  V30 1651 H 157.093 2.82273 3.64856 0
M  V30 1652 H 155.336 2.70901 3.38814 0
M  V30 1653 H 156.007 2.3685 4.98604 0
M  V30 1654 H 158.483 0.652529 4.10952 0
M  V30 1655 H 157.359 0.419336 5.47296 0
M  V30 1656 H 157.62 -0.889275 4.33064 0
M  V30 1657 N 156.679 -1.44442 0.630414 0
M  V30 1658 C 157.907 -2.06414 0.141671 0
M  V30 1659 C 158.322 -1.47105 -1.18345 0
M  V30 1660 O 157.679 -0.593662 -1.72574 0
M  V30 1661 C 157.73 -3.61494 0.0199784 0
M  V30 1662 O 157.451 -4.18594 1.29269 0
M  V30 1663 C 158.952 -4.40499 -0.497544 0
M  V30 1664 H 156.172 -0.666292 0.0793452 0
M  V30 1665 H 158.716 -1.85323 0.864614 0
M  V30 1666 H 156.871 -3.8185 -0.653402 0
M  V30 1667 H 157.285 -5.12026 1.13707 0
M  V30 1668 H 158.759 -5.49433 -0.531708 0
M  V30 1669 H 159.236 -4.11895 -1.52445 0
M  V30 1670 H 159.842 -4.25061 0.142562 0
M  V30 1671 N 158.157 -0.370918 -1.53173 0
M  V30 1672 C 159.404 0.217102 -2.01333 0
M  V30 1673 C 159.732 1.48338 -1.25802 0
M  V30 1674 O 158.987 1.92698 -0.34146 0
M  V30 1675 C 159.286 0.549696 -3.53147 0
M  V30 1676 C 158.952 -0.622872 -4.46577 0
M  V30 1677 C 157.614 -0.944595 -4.71838 0
M  V30 1678 C 159.966 -1.40819 -5.01816 0
M  V30 1679 C 157.294 -2.05351 -5.49589 0
M  V30 1680 C 159.646 -2.50757 -5.80778 0
M  V30 1681 C 158.31 -2.83458 -6.04324 0
M  V30 1682 H 157.58 0.0794431 -0.736729 0
M  V30 1683 H 160.227 -0.504481 -1.84736 0
M  V30 1684 H 158.532 1.35237 -3.6772 0
M  V30 1685 H 160.229 1.017 -3.87889 0
M  V30 1686 H 156.819 -0.36209 -4.27068 0
M  V30 1687 H 161.003 -1.17289 -4.82242 0
M  V30 1688 H 156.259 -2.3108 -5.6605 0
M  V30 1689 H 160.433 -3.12022 -6.22588 0
M  V30 1690 H 158.06 -3.69508 -6.64355 0
M  V30 1691 N 159.635 1.57281 -0.100228 0
M  V30 1692 C 160.545 2.17833 0.870965 0
M  V30 1693 C 161.561 1.14921 1.30649 0
M  V30 1694 O 162.737 1.47313 1.37335 0
M  V30 1695 C 159.802 2.75085 2.1102 0
M  V30 1696 C 158.863 3.9297 1.72838 0
M  V30 1697 C 158.096 4.47482 2.90854 0
M  V30 1698 O 158.319 4.00922 4.05731 0
M  V30 1699 O 157.253 5.38433 2.69023 0
M  V30 1700 H 161.079 3.0124 0.38575 0
M  V30 1701 H 158.664 1.48881 0.124397 0
M  V30 1702 H 160.546 3.11656 2.83634 0
M  V30 1703 H 159.221 1.94721 2.58584 0
M  V30 1704 H 158.128 3.61201 0.973883 0
M  V30 1705 H 159.461 4.74713 1.30033 0
M  V30 1706 N 161.113 -0.173488 1.56642 0
M  V30 1707 C 162.061 -1.23417 1.97157 0
M  V30 1708 C 163.055 -1.45946 0.860013 0
M  V30 1709 O 164.261 -1.46551 1.04512 0
M  V30 1710 H 160.636 -0.414818 0.62724 0
M  V30 1711 H 162.607 -0.865582 2.8557 0
M  V30 1712 C 161.356 -2.5665 2.34576 0
M  V30 1713 H 160.679 -2.40137 3.19647 0
M  V30 1714 H 162.119 -3.2956 2.6677 0
M  V30 1715 C 160.578 -3.15245 1.18836 0
M  V30 1716 O 161.108 -3.98883 0.474869 0
M  V30 1717 N 159.314 -2.74303 0.959497 0
M  V30 1718 H 158.861 -2.0639 1.54146 0
M  V30 1719 H 158.819 -3.13844 0.186932 0
M  V30 1720 N 162.591 -1.51276 -0.441967 0
M  V30 1721 C 163.837 -1.63958 -1.19355 0
M  V30 1722 C 164.17 -0.352543 -1.90973 0
M  V30 1723 O 163.445 0.647627 -1.83401 0
M  V30 1724 C 163.728 -2.83979 -2.21422 0
M  V30 1725 C 163.581 -4.22646 -1.53918 0
M  V30 1726 C 164.9 -2.99521 -3.22451 0
M  V30 1727 H 162.019 -0.596709 -0.432559 0
M  V30 1728 H 164.661 -1.83748 -0.483398 0
M  V30 1729 H 162.811 -2.67237 -2.81987 0
M  V30 1730 H 164.483 -4.51045 -0.967256 0
M  V30 1731 H 162.726 -4.25558 -0.841615 0
M  V30 1732 H 163.397 -5.02609 -2.28229 0
M  V30 1733 H 165.873 -3.14944 -2.71937 0
M  V30 1734 H 164.749 -3.85072 -3.91166 0
M  V30 1735 H 165.01 -2.11391 -3.88287 0
M  V30 1736 N 164.069 0.697108 -1.41344 0
M  V30 1737 C 165.016 1.81106 -1.43071 0
M  V30 1738 C 165.986 1.63632 -0.285275 0
M  V30 1739 O 167.171 1.84504 -0.486091 0
M  V30 1740 C 164.311 3.18975 -1.31715 0
M  V30 1741 C 163.424 3.47892 -2.56115 0
M  V30 1742 C 162.559 4.75367 -2.37064 0
M  V30 1743 C 161.598 4.97247 -3.56948 0
M  V30 1744 N 160.735 6.15947 -3.36977 0
M  V30 1745 H 165.575 1.78965 -2.38276 0
M  V30 1746 H 163.112 0.873975 -1.18322 0
M  V30 1747 H 165.07 3.98615 -1.23133 0
M  V30 1748 H 163.7 3.20297 -0.401183 0
M  V30 1749 H 162.752 2.62669 -2.75153 0
M  V30 1750 H 164.064 3.59962 -3.45295 0
M  V30 1751 H 163.218 5.63059 -2.25941 0
M  V30 1752 H 161.957 4.65541 -1.45338 0
M  V30 1753 H 160.962 4.08004 -3.68527 0
M  V30 1754 H 162.187 5.08934 -4.49626 0
M  V30 1755 H 160.133 6.07336 -2.47949 0
M  V30 1756 H 160.05 6.28777 -4.19732 0
M  V30 1757 H 161.318 7.06377 -3.29623 0
M  V30 1758 N 165.547 1.27147 0.931209 0
M  V30 1759 C 166.457 1.11372 2.06478 0
M  V30 1760 C 167.473 0.044645 1.73943 0
M  V30 1761 O 168.649 0.250417 1.99837 0
M  V30 1762 C 165.714 0.758838 3.38294 0
M  V30 1763 C 164.775 1.90841 3.84549 0
M  V30 1764 C 164.008 1.57036 5.10074 0
M  V30 1765 O 164.231 0.476645 5.68405 0
M  V30 1766 O 163.165 2.40839 5.51616 0
M  V30 1767 H 166.991 2.06493 2.22698 0
M  V30 1768 H 164.576 1.06301 1.04978 0
M  V30 1769 H 166.458 0.574098 4.17471 0
M  V30 1770 H 165.133 -0.162879 3.2329 0
M  V30 1771 H 164.04 2.14819 3.06274 0
M  V30 1772 H 165.373 2.81021 4.04089 0
M  V30 1773 N 167.025 -1.13721 1.09112 0
M  V30 1774 C 168.274 -1.84275 0.82009 0
M  V30 1775 C 168.587 -1.84253 -0.656509 0
M  V30 1776 O 169.793 -2.50668 -1.04296 0
M  V30 1777 C 168.249 -3.30825 1.41714 0
M  V30 1778 C 167.857 -3.39244 2.92605 0
M  V30 1779 C 169.601 -4.06443 1.22492 0
M  V30 1780 C 167.508 -4.80047 3.45411 0
M  V30 1781 H 166.438 -0.690387 0.30312 0
M  V30 1782 H 169.089 -1.28146 1.31343 0
M  V30 1783 H 167.471 -3.86737 0.851498 0
M  V30 1784 H 168.645 -2.93344 3.55367 0
M  V30 1785 H 166.96 -2.77088 3.10823 0
M  V30 1786 H 169.557 -5.10387 1.59402 0
M  V30 1787 H 169.9 -4.15972 0.165299 0
M  V30 1788 H 170.433 -3.56852 1.75788 0
M  V30 1789 H 167.172 -4.75709 4.50978 0
M  V30 1790 H 166.692 -5.26455 2.87411 0
M  V30 1791 H 168.371 -5.48957 3.42425 0
M  V30 1792 N 168.503 -0.877838 -1.30888 0
M  V30 1793 C 169.75 -0.492696 -1.96415 0
M  V30 1794 C 170.078 0.956671 -1.69346 0
M  V30 1795 O 169.333 1.68993 -0.986913 0
M  V30 1796 C 169.632 -0.705748 -3.50363 0
M  V30 1797 C 169.298 -2.1291 -3.97467 0
M  V30 1798 C 167.96 -2.51834 -4.1004 0
M  V30 1799 C 170.312 -3.05702 -4.22132 0
M  V30 1800 C 167.64 -3.82775 -4.44635 0
M  V30 1801 C 169.992 -4.36166 -4.58194 0
M  V30 1802 C 168.656 -4.74993 -4.68975 0
M  V30 1803 H 167.926 -0.18029 -0.718733 0
M  V30 1804 H 170.573 -1.11233 -1.55883 0
M  V30 1805 H 168.878 -0.00303058 -3.918 0
M  V30 1806 H 170.575 -0.387456 -3.99124 0
M  V30 1807 H 167.165 -1.81694 -3.88182 0
M  V30 1808 H 171.349 -2.76853 -4.11906 0
M  V30 1809 H 166.605 -4.12609 -4.51181 0
M  V30 1810 H 170.779 -5.08111 -4.76231 0
M  V30 1811 H 168.406 -5.76495 -4.95537 0
M  V30 1812 N 169.982 1.44106 -0.638065 0
M  V30 1813 C 171.23 2.01579 -0.145043 0
M  V30 1814 C 171.551 1.50496 1.24 0
M  V30 1815 O 170.821 0.711374 1.82527 0
M  V30 1816 H 169.401 0.745282 -0.05063 0
M  V30 1817 H 172.063 1.76516 -0.826327 0
M  V30 1818 H 171.159 3.11877 -0.118039 0
M  V30 1819 N 171.46 0.379036 1.52974 0
M  V30 1820 C 172.392 -0.495963 2.2377 0
M  V30 1821 C 173.405 -1.03517 1.25651 0
M  V30 1822 O 174.594 -0.939249 1.51791 0
M  V30 1823 C 171.694 -1.69894 2.93239 0
M  V30 1824 C 170.867 -1.2889 4.17979 0
M  V30 1825 C 169.926 -2.35543 4.70538 0
M  V30 1826 O 168.952 -1.97375 5.33883 0
M  V30 1827 N 170.154 -3.67318 4.49508 0
M  V30 1828 H 172.919 0.110523 2.99496 0
M  V30 1829 H 170.48 0.204878 1.60598 0
M  V30 1830 H 172.472 -2.40747 3.25304 0
M  V30 1831 H 171.042 -2.212 2.20883 0
M  V30 1832 H 170.262 -0.409676 3.92065 0
M  V30 1833 H 171.55 -0.991443 4.99047 0
M  V30 1834 H 170.948 -4.01095 3.98923 0
M  V30 1835 H 169.505 -4.34235 4.8609 0
M  V30 1836 N 172.938 -1.57226 0.108567 0
M  V30 1837 C 174.166 -1.99179 -0.559954 0
M  V30 1838 C 174.581 -0.988022 -1.60884 0
M  V30 1839 O 173.938 0.0205512 -1.82488 0
M  V30 1840 C 173.989 -3.41159 -1.19552 0
M  V30 1841 O 173.71 -4.37694 -0.188577 0
M  V30 1842 C 175.211 -3.98188 -1.94837 0
M  V30 1843 H 172.431 -0.654228 -0.149088 0
M  V30 1844 H 174.975 -2.03598 0.19183 0
M  V30 1845 H 173.13 -3.37711 -1.89815 0
M  V30 1846 H 173.544 -5.20469 -0.649014 0
M  V30 1847 H 175.018 -4.99644 -2.34648 0
M  V30 1848 H 175.495 -3.3675 -2.81951 0
M  V30 1849 H 176.101 -4.0515 -1.2936 0
M  V30 1850 N 174.416 0.165178 -1.56732 0
M  V30 1851 C 175.665 0.879143 -1.81532 0
M  V30 1852 C 175.978 1.83144 -0.686842 0
M  V30 1853 O 177.184 2.58823 -0.819944 0
M  V30 1854 C 175.64 1.61388 -3.21686 0
M  V30 1855 C 175.248 0.704904 -4.4242 0
M  V30 1856 C 176.992 2.3157 -3.55774 0
M  V30 1857 C 174.899 1.44022 -5.73595 0
M  V30 1858 H 173.829 0.332033 -0.676957 0
M  V30 1859 H 176.48 0.132008 -1.83025 0
M  V30 1860 H 174.862 2.40599 -3.14529 0
M  V30 1861 H 176.036 -0.0506815 -4.60772 0
M  V30 1862 H 174.351 0.112419 -4.16248 0
M  V30 1863 H 176.948 2.8719 -4.51028 0
M  V30 1864 H 177.291 3.07201 -2.8095 0
M  V30 1865 H 177.824 1.59297 -3.64513 0
M  V30 1866 H 174.563 0.72612 -6.51466 0
M  V30 1867 H 174.083 2.16898 -5.5921 0
M  V30 1868 H 175.762 1.98606 -6.15764 0
M  V30 1869 N 175.894 1.51508 0.433938 0
M  V30 1870 C 177.143 1.63578 1.18005 0
M  V30 1871 C 177.456 0.359514 1.92268 0
M  V30 1872 O 178.662 0.359632 2.69108 0
M  V30 1873 C 177.118 2.88901 2.14626 0
M  V30 1874 C 176.726 4.23544 1.45995 0
M  V30 1875 C 178.47 3.10328 2.89649 0
M  V30 1876 C 176.377 5.40014 2.4112 0
M  V30 1877 H 175.307 0.609277 0.444182 0
M  V30 1878 H 177.958 1.77978 0.446773 0
M  V30 1879 H 176.34 2.68142 2.91403 0
M  V30 1880 H 177.514 4.54696 0.747532 0
M  V30 1881 H 175.829 4.08021 0.831115 0
M  V30 1882 H 178.426 3.94518 3.60915 0
M  V30 1883 H 178.769 2.23544 3.51189 0
M  V30 1884 H 179.302 3.31443 2.19978 0
M  V30 1885 H 176.041 6.29068 1.84264 0
M  V30 1886 H 175.561 5.13233 3.10406 0
M  V30 1887 H 177.24 5.72099 3.02177 0
M  V30 1888 N 177.372 -0.689602 1.41712 0
M  V30 1889 C 178.322 -1.79571 1.40493 0
M  V30 1890 C 179.306 -1.58473 0.278409 0
M  V30 1891 O 180.498 -1.69204 0.519532 0
M  V30 1892 C 177.627 -3.17923 1.29536 0
M  V30 1893 C 176.713 -3.44695 2.47075 0
M  V30 1894 N 177.104 -3.42132 3.72531 0
M  V30 1895 C 175.402 -3.75269 2.41017 0
M  V30 1896 C 176.103 -3.67976 4.50521 0
M  V30 1897 N 175.079 -3.88014 3.80718 0
M  V30 1898 H 178.881 -1.75961 2.35404 0
M  V30 1899 H 176.395 -0.889839 1.35851 0
M  V30 1900 H 178.392 -3.97167 1.26745 0
M  V30 1901 H 177.052 -3.22741 0.356153 0
M  V30 1902 H 178.063 -3.22375 4.05333 0
M  V30 1903 H 174.74 -3.87421 1.55599 0
M  V30 1904 H 176.13 -3.7208 5.59469 0
M  V30 1905 N 178.85 -1.27639 -0.924453 0
M  V30 1906 C 179.8 -1.07295 -2.01176 0
M  V30 1907 C 180.784 5.77352e-05 -1.609 0
M  V30 1908 O 181.976 -0.218855 -1.75642 0
M  V30 1909 C 179.105 -0.725592 -3.35544 0
M  V30 1910 C 178.191 -1.83691 -3.82254 0
M  V30 1911 N 178.582 -3.07697 -4.01443 0
M  V30 1912 C 176.88 -1.72433 -4.11319 0
M  V30 1913 C 177.581 -3.80037 -4.40394 0
M  V30 1914 N 176.557 -3.0782 -4.48049 0
M  V30 1915 H 180.359 -2.01399 -2.14046 0
M  V30 1916 H 177.873 -1.18401 -1.11153 0
M  V30 1917 H 179.87 -0.560959 -4.13109 0
M  V30 1918 H 178.53 0.207782 -3.24034 0
M  V30 1919 H 179.541 -3.43424 -3.8766 0
M  V30 1920 H 176.218 -0.862005 -4.08504 0
M  V30 1921 H 177.608 -4.86632 -4.63291 0
M  V30 1922 N 180.328 1.1314 -1.09713 0
M  V30 1923 C 181.278 2.16709 -0.708593 0
M  V30 1924 C 182.262 1.58471 0.278523 0
M  V30 1925 O 183.454 1.76779 0.088427 0
M  V30 1926 C 180.583 3.43039 -0.133923 0
M  V30 1927 C 179.669 4.08277 -1.14763 0
M  V30 1928 N 180.06 4.48637 -2.33577 0
M  V30 1929 C 178.358 4.34954 -0.986446 0
M  V30 1930 C 179.059 4.9952 -2.98085 0
M  V30 1931 N 178.035 4.94561 -2.25632 0
M  V30 1932 H 181.837 2.45672 -1.61315 0
M  V30 1933 H 179.351 1.29967 -0.973775 0
M  V30 1934 H 181.348 4.16583 0.162465 0
M  V30 1935 H 180.008 3.15549 0.765447 0
M  V30 1936 H 181.019 4.41246 -2.7115 0
M  V30 1937 H 177.696 4.17258 -0.142008 0
M  V30 1938 H 179.086 5.40521 -3.99108 0
M  V30 1939 N 181.806 0.884767 1.30421 0
M  V30 1940 C 183.055 0.499164 1.95426 0
M  V30 1941 C 183.368 -0.95645 1.70621 0
M  V30 1942 O 184.574 -1.44889 2.29607 0
M  V30 1943 C 183.03 0.84177 3.49917 0
M  V30 1944 C 182.638 2.31514 3.83543 0
M  V30 1945 C 184.382 0.525355 4.21237 0
M  V30 1946 C 182.289 2.59939 5.31212 0
M  V30 1947 H 181.219 0.182944 0.73147 0
M  V30 1948 H 183.87 1.07971 1.48373 0
M  V30 1949 H 182.252 0.190311 3.95542 0
M  V30 1950 H 183.426 3.0109 3.48829 0
M  V30 1951 H 181.741 2.59907 3.25326 0
M  V30 1952 H 184.338 0.714762 5.29901 0
M  V30 1953 H 184.681 -0.535222 4.12845 0
M  V30 1954 H 185.214 1.134 3.81294 0
M  V30 1955 H 181.953 3.64736 5.44654 0
M  V30 1956 H 181.473 1.94972 5.67227 0
M  V30 1957 H 183.152 2.45429 5.98643 0
M  V30 1958 N 183.284 -1.43765 0.645699 0
M  V30 1959 C 184.695 -1.85193 0.236719 0
M  V30 1960 C 185.046 -1.54045 -1.21509 0
M  V30 1961 O 184.171 -0.985694 -1.92647 0
M  V30 1962 C 184.766 -3.36151 0.422845 0
M  V30 1963 C 183.325 -3.76338 0.0682492 0
M  V30 1964 C 182.472 -2.67538 0.729306 0
M  V30 1965 H 185.423 -1.34025 0.849883 0
M  V30 1966 H 185.444 -3.79032 -0.333904 0
M  V30 1967 H 184.956 -3.5879 1.47958 0
M  V30 1968 H 183.057 -3.59312 -0.986179 0
M  V30 1969 H 183.17 -4.76603 0.488469 0
M  V30 1970 H 181.534 -2.54176 0.163235 0
M  V30 1971 H 182.317 -2.93006 1.78892 0
M  V30 1972 N 184.763 -0.387143 -1.52771 0
M  V30 1973 C 186.01 0.195735 -2.01552 0
M  V30 1974 C 186.338 1.46995 -1.27369 0
M  V30 1975 O 185.593 1.92325 -0.361879 0
M  V30 1976 C 185.892 0.512209 -3.53711 0
M  V30 1977 C 185.558 -0.670202 -4.45891 0
M  V30 1978 C 184.22 -0.994586 -4.70809 0
M  V30 1979 C 186.572 -1.46134 -5.00294 0
M  V30 1980 C 183.9 -2.11169 -5.4738 0
M  V30 1981 C 186.252 -2.56903 -5.78086 0
M  V30 1982 C 184.916 -2.89852 -6.01284 0
M  V30 1983 H 184.186 0.0716246 -0.73753 0
M  V30 1984 H 186.833 -0.524046 -1.8419 0
M  V30 1985 H 185.138 1.31329 -3.69134 0
M  V30 1986 H 186.835 0.975804 -3.88946 0
M  V30 1987 H 183.425 -0.407366 -4.2666 0
M  V30 1988 H 187.609 -1.22397 -4.80971 0
M  V30 1989 H 182.865 -2.3707 -5.63567 0
M  V30 1990 H 187.039 -3.18608 -6.19243 0
M  V30 1991 H 184.666 -3.76533 -6.60399 0
M  V30 1992 N 186.241 1.57166 -0.116904 0
M  V30 1993 C 187.189 2.16457 0.851418 0
M  V30 1994 C 188.183 1.11323 1.27686 0
M  V30 1995 O 189.389 1.2963 1.24884 0
M  V30 1996 H 185.764 0.69271 0.292672 0
M  V30 1997 H 187.735 2.96605 0.32685 0
M  V30 1998 C 186.484 2.77689 2.09246 0
M  V30 1999 H 185.807 3.58285 1.77402 0
M  V30 2000 H 187.247 3.22716 2.7501 0
M  V30 2001 C 185.706 1.74667 2.88085 0
M  V30 2002 O 186.236 1.19877 3.83396 0
M  V30 2003 N 184.442 1.44656 2.52038 0
M  V30 2004 H 183.989 1.89402 1.74599 0
M  V30 2005 H 183.947 0.759675 3.05084 0
M  V30 2006 N 187.719 -0.156864 1.56817 0
M  V30 2007 C 188.965 -0.867645 1.83966 0
M  V30 2008 C 189.32 -1.79233 0.699511 0
M  V30 2009 O 188.613 -1.89186 -0.303176 0
M  V30 2010 C 188.807 -1.68737 3.1506 0
M  V30 2011 C 188.636 -0.843548 4.41718 0
M  V30 2012 C 187.406 -0.512994 5.02689 0
M  V30 2013 C 189.604 -0.178416 5.1399 0
M  V30 2014 N 187.586 0.345456 6.12927 0
M  V30 2015 C 188.957 0.540586 6.17639 0
M  V30 2016 C 191.012 -0.0980696 4.97803 0
M  V30 2017 C 189.715 1.33233 7.06853 0
M  V30 2018 C 191.741 0.680387 5.87473 0
M  V30 2019 C 191.103 1.3877 6.90596 0
M  V30 2020 H 187.202 -0.295642 0.723961 0
M  V30 2021 H 189.786 -0.13365 1.94241 0
M  V30 2022 H 187.957 -2.39268 3.0595 0
M  V30 2023 H 189.689 -2.34056 3.30151 0
M  V30 2024 H 186.444 -0.846476 4.65974 0
M  V30 2025 H 186.868 0.765415 6.72659 0
M  V30 2026 H 191.51 -0.630562 4.18071 0
M  V30 2027 H 189.228 1.87612 7.8602 0
M  V30 2028 H 192.814 0.744415 5.77018 0
M  V30 2029 H 191.694 1.9804 7.58782 0
M  V30 2030 N 189.197 -1.51736 -0.425897 0
M  V30 2031 C 190.474 -1.55519 -1.1863 0
M  V30 2032 C 190.854 -0.326219 -2.08564 0
M  V30 2033 O 190.202 0.688012 -2.17896 0
M  V30 2034 C 190.412 -2.87521 -1.9782 0
M  V30 2035 C 191.76 -3.39899 -2.54468 0
M  V30 2036 O 192.784 -2.89148 -2.08019 0
M  V30 2037 O 191.643 -4.2848 -3.39215 0
M  V30 2038 H 188.737 -0.625739 -0.540721 0
M  V30 2039 H 191.283 -1.64055 -0.434038 0
M  V30 2040 H 190.055 -3.68422 -1.31836 0
M  V30 2041 H 189.678 -2.822 -2.80088 0
M  V30 2042 N 190.675 0.682077 -1.42076 0
M  V30 2043 C 191.915 1.45424 -1.43636 0
M  V30 2044 C 192.279 1.91939 -0.0484001 0
M  V30 2045 O 193.48 2.6873 0.0612514 0
M  V30 2046 C 191.751 2.62427 -2.42625 0
M  V30 2047 S 193.31 3.51379 -2.62827 0
M  V30 2048 H 190.128 0.496779 -0.508657 0
M  V30 2049 H 192.73 0.794645 -1.78621 0
M  V30 2050 H 191.434 2.26481 -3.42249 0
M  V30 2051 H 190.965 3.33266 -2.09039 0
M  V30 2052 H 192.98 4.58141 -1.9058 0
M  V30 2053 N 192.153 1.28127 0.917671 0
M  V30 2054 C 193.063 1.13556 2.05286 0
M  V30 2055 C 194.079 0.0630914 1.73886 0
M  V30 2056 O 195.255 0.271598 1.9956 0
M  V30 2057 C 192.32 0.794676 3.3747 0
M  V30 2058 C 191.381 1.94909 3.82504 0
M  V30 2059 C 190.614 1.62437 5.0838 0
M  V30 2060 O 190.837 0.536905 5.67867 0
M  V30 2061 O 189.771 2.46677 5.4903 0
M  V30 2062 H 193.597 2.08844 2.20495 0
M  V30 2063 H 191.182 1.07409 1.03845 0
M  V30 2064 H 193.064 0.618344 4.16839 0
M  V30 2065 H 191.739 -0.128581 3.23445 0
M  V30 2066 H 190.646 2.18055 3.03978 0
M  V30 2067 H 191.979 2.85291 4.01086 0
M  V30 2068 N 193.631 -1.12557 1.10312 0
M  V30 2069 C 194.878 -1.84038 0.844759 0
M  V30 2070 C 195.206 -1.84026 -0.629668 0
M  V30 2071 O 194.461 -1.28026 -1.48013 0
M  V30 2072 C 194.76 -3.31462 1.33669 0
M  V30 2073 C 194.426 -3.51647 2.82232 0
M  V30 2074 C 193.088 -3.56864 3.22802 0
M  V30 2075 C 195.44 -3.58867 3.77974 0
M  V30 2076 C 192.768 -3.66844 4.57867 0
M  V30 2077 C 195.12 -3.70375 5.1284 0
M  V30 2078 C 193.784 -3.73848 5.52986 0
M  V30 2079 H 193.054 -0.673444 0.309119 0
M  V30 2080 H 195.701 -1.32824 1.37949 0
M  V30 2081 H 194.006 -3.85091 0.721949 0
M  V30 2082 H 195.703 -3.85236 1.11329 0
M  V30 2083 H 192.293 -3.48249 2.49842 0
M  V30 2084 H 196.477 -3.54107 3.47738 0
M  V30 2085 H 191.733 -3.67804 4.88396 0
M  V30 2086 H 195.907 -3.74904 5.86873 0
M  V30 2087 H 193.534 -3.81333 6.57639 0
M  V30 2088 N 195.109 -0.891671 -1.2995 0
M  V30 2089 C 196.358 -0.509521 -1.95158 0
M  V30 2090 C 196.671 0.947388 -1.71125 0
M  V30 2091 O 197.877 1.43669 -2.30372 0
M  V30 2092 C 196.333 -0.860315 -3.49466 0
M  V30 2093 C 195.941 -2.33545 -3.8231 0
M  V30 2094 C 197.685 -0.547687 -4.20952 0
M  V30 2095 C 195.592 -2.62752 -5.29826 0
M  V30 2096 H 194.522 -0.18682 -0.730489 0
M  V30 2097 H 197.173 -1.08756 -1.47798 0
M  V30 2098 H 195.555 -0.211285 -3.95436 0
M  V30 2099 H 196.729 -3.02936 -3.47227 0
M  V30 2100 H 195.044 -2.61629 -3.23944 0
M  V30 2101 H 197.641 -0.742854 -5.29515 0
M  V30 2102 H 197.984 0.51332 -4.13123 0
M  V30 2103 H 198.517 -1.1542 -3.80688 0
M  V30 2104 H 195.256 -3.6762 -5.42712 0
M  V30 2105 H 194.776 -1.97977 -5.66185 0
M  V30 2106 H 196.455 -2.48601 -5.97333 0
M  V30 2107 N 196.587 1.43421 -0.653314 0
M  V30 2108 C 198.003 1.56341 -0.320886 0
M  V30 2109 C 198.203 1.63696 1.17499 0
M  V30 2110 O 197.259 1.59208 1.95982 0
M  V30 2111 C 198.572 2.82424 -1.03233 0
M  V30 2112 C 200.12 2.96168 -1.01259 0
M  V30 2113 C 200.595 4.25084 -1.70492 0
M  V30 2114 N 202.086 4.31948 -1.67257 0
M  V30 2115 C 202.821 5.30466 -2.17701 0
M  V30 2116 N 202.317 6.35261 -2.76434 0
M  V30 2117 N 204.11 5.2212 -2.082 0
M  V30 2118 H 196.261 1.3689 -1.62403 0
M  V30 2119 H 198.524 0.657455 -0.682977 0
M  V30 2120 H 198.23 2.83053 -2.08744 0
M  V30 2121 H 198.104 3.72653 -0.583948 0
M  V30 2122 H 200.491 2.9508 0.0341235 0
M  V30 2123 H 200.572 2.07229 -1.49966 0
M  V30 2124 H 200.216 4.26932 -2.7512 0
M  V30 2125 H 200.146 5.1292 -1.19251 0
M  V30 2126 H 202.637 3.56838 -1.24398 0
M  V30 2127 H 202.95 7.06754 -3.12601 0
M  V30 2128 H 201.295 6.35884 -2.80495 0
M  V30 2129 H 204.486 4.39166 -1.62021 0
M  V30 2130 H 204.659 5.98739 -2.47822 0
M  V30 2131 N 198.065 0.39524 1.52563 0
M  V30 2132 C 198.995 -0.428384 2.29537 0
M  V30 2133 C 199.976 -1.05831 1.33169 0
M  V30 2134 O 201.161 -1.06995 1.62067 0
M  V30 2135 C 198.291 -1.55274 3.10656 0
M  V30 2136 C 197.245 -1.04855 4.14957 0
M  V30 2137 C 196.571 -2.26543 4.84337 0
M  V30 2138 C 197.871 -0.112324 5.22179 0
M  V30 2139 H 199.565 0.213867 2.98635 0
M  V30 2140 H 197.111 0.104298 1.43622 0
M  V30 2141 H 199.064 -2.1358 3.63265 0
M  V30 2142 H 197.788 -2.22266 2.39302 0
M  V30 2143 H 196.447 -0.487985 3.63338 0
M  V30 2144 H 196.095 -2.92059 4.09525 0
M  V30 2145 H 195.795 -1.93466 5.54837 0
M  V30 2146 H 197.319 -2.85481 5.39753 0
M  V30 2147 H 198.733 -0.603752 5.70112 0
M  V30 2148 H 197.13 0.128968 5.99961 0
M  V30 2149 H 198.2 0.837052 4.77621 0
M  V30 2150 N 199.544 -1.57102 0.125237 0
M  V30 2151 C 200.494 -2.12202 -0.833936 0
M  V30 2152 C 201.478 -1.04433 -1.22403 0
M  V30 2153 O 202.67 -1.30655 -1.19408 0
M  V30 2154 C 199.799 -2.72994 -2.08157 0
M  V30 2155 C 198.885 -3.87852 -1.71556 0
M  V30 2156 N 199.276 -4.9464 -1.05662 0
M  V30 2157 C 197.574 -3.98153 -2.00973 0
M  V30 2158 C 198.275 -5.74953 -0.883376 0
M  V30 2159 N 197.251 -5.24985 -1.41036 0
M  V30 2160 H 201.053 -2.92141 -0.321035 0
M  V30 2161 H 198.567 -1.62217 -0.0770315 0
M  V30 2162 H 200.564 -3.10816 -2.77847 0
M  V30 2163 H 199.224 -1.9452 -2.59985 0
M  V30 2164 H 200.235 -5.12872 -0.719878 0
M  V30 2165 H 196.912 -3.30728 -2.54804 0
M  V30 2166 H 198.302 -6.70904 -0.365675 0
M  V30 2167 N 201.022 0.148545 -1.56898 0
M  V30 2168 C 202.269 0.861418 -1.83264 0
M  V30 2169 C 202.597 1.81239 -0.705883 0
M  V30 2170 O 201.852 1.93305 0.305212 0
M  V30 2171 C 202.151 1.67064 -3.1595 0
M  V30 2172 C 201.817 0.866591 -4.42494 0
M  V30 2173 C 200.479 0.644762 -4.76861 0
M  V30 2174 C 202.831 0.30418 -5.20312 0
M  V30 2175 C 200.159 -0.15021 -5.86508 0
M  V30 2176 C 202.511 -0.477824 -6.30793 0
M  V30 2177 C 201.175 -0.710244 -6.63711 0
M  V30 2178 H 200.445 0.315215 -0.670612 0
M  V30 2179 H 203.092 0.125142 -1.91091 0
M  V30 2180 H 201.397 2.47698 -3.03567 0
M  V30 2181 H 203.094 2.22566 -3.33565 0
M  V30 2182 H 199.684 1.04955 -4.15551 0
M  V30 2183 H 203.868 0.462844 -4.94137 0
M  V30 2184 H 199.124 -0.339796 -6.10455 0
M  V30 2185 H 203.298 -0.92076 -6.90286 0
M  V30 2186 H 200.925 -1.3281 -7.48509 0
M  V30 2187 N 202.5 1.5196 0.417844 0
M  V30 2188 C 203.748 1.65263 1.16329 0
M  V30 2189 C 204.069 0.380634 1.91249 0
M  V30 2190 O 203.339 -0.604214 1.86349 0
M  V30 2191 H 201.919 0.60912 0.432414 0
M  V30 2192 H 204.581 1.88969 0.477162 0
M  V30 2193 H 203.677 2.4896 1.88217 0
M  V30 2194 N 203.978 -0.674533 1.42435 0
M  V30 2195 C 204.928 -1.7807 1.4239 0
M  V30 2196 C 205.912 -1.58169 0.295202 0
M  V30 2197 O 207.104 -1.68643 0.537449 0
M  V30 2198 C 204.233 -3.16532 1.32901 0
M  V30 2199 C 203.319 -3.42055 2.50717 0
M  V30 2200 N 203.71 -3.38162 3.76139 0
M  V30 2201 C 202.008 -3.72692 2.44983 0
M  V30 2202 C 202.709 -3.63177 4.54398 0
M  V30 2203 N 201.685 -3.83954 3.84812 0
M  V30 2204 H 205.487 -1.73454 2.37257 0
M  V30 2205 H 203.001 -0.875381 1.36788 0
M  V30 2206 H 204.998 -3.958 1.30951 0
M  V30 2207 H 203.658 -3.22345 0.390363 0
M  V30 2208 H 204.669 -3.18057 4.0873 0
M  V30 2209 H 201.346 -3.85749 1.59699 0
M  V30 2210 H 202.736 -3.66125 5.63384 0
M  V30 2211 N 205.456 -1.28612 -0.910864 0
M  V30 2212 C 206.404 -1.1265 -2.03501 0
M  V30 2213 C 207.398 -0.0450054 -1.6934 0
M  V30 2214 O 208.604 -0.203988 -1.7884 0
M  V30 2215 H 204.979 -0.347639 -0.666822 0
M  V30 2216 H 206.95 -2.07849 -2.14106 0
M  V30 2217 C 205.699 -0.808143 -3.38178 0
M  V30 2218 H 205.022 -1.63231 -3.6496 0
M  V30 2219 H 206.462 -0.736426 -4.17556 0
M  V30 2220 C 204.921 0.488226 -3.33344 0
M  V30 2221 O 205.451 1.51766 -3.71927 0
M  V30 2222 N 203.657 0.490009 -2.86439 0
M  V30 2223 H 203.204 -0.348161 -2.55236 0
M  V30 2224 H 203.162 1.35741 -2.83587 0
M  V30 2225 N 206.934 1.1197 -1.10907 0
M  V30 2226 C 208.35 1.35591 -0.841852 0
M  V30 2227 C 208.55 1.94233 0.536246 0
M  V30 2228 O 207.606 2.1717 1.28816 0
M  V30 2229 C 208.919 2.29284 -1.94549 0
M  V30 2230 C 210.467 2.42862 -1.97451 0
M  V30 2231 C 210.942 3.39873 -3.07002 0
M  V30 2232 N 212.433 3.47433 -3.06341 0
M  V30 2233 C 213.168 4.22421 -3.87748 0
M  V30 2234 N 212.664 5.00432 -4.79103 0
M  V30 2235 N 214.457 4.17876 -3.75946 0
M  V30 2236 H 206.608 0.722664 -1.99728 0
M  V30 2237 H 208.871 0.380635 -0.868229 0
M  V30 2238 H 208.577 1.93378 -2.93765 0
M  V30 2239 H 208.451 3.29452 -1.83688 0
M  V30 2240 H 210.838 2.78046 -0.988645 0
M  V30 2241 H 210.919 1.42566 -2.12388 0
M  V30 2242 H 210.563 3.05417 -4.05811 0
M  V30 2243 H 210.493 4.40011 -2.89306 0
M  V30 2244 H 212.984 2.91784 -2.40147 0
M  V30 2245 H 213.297 5.55002 -5.37766 0
M  V30 2246 H 211.642 4.99612 -4.83128 0
M  V30 2247 H 214.833 3.56016 -3.03924 0
M  V30 2248 H 215.006 4.76061 -4.39624 0
M  V30 2249 N 208.412 0.89855 1.29475 0
M  V30 2250 C 209.359 0.373819 2.27753 0
M  V30 2251 C 210.329 -0.543444 1.56958 0
M  V30 2252 O 211.514 -0.468934 1.84948 0
M  V30 2253 C 208.654 -0.393648 3.42848 0
M  V30 2254 C 207.767 0.554379 4.28428 0
M  V30 2255 C 206.902 -0.230026 5.30702 0
M  V30 2256 C 205.941 0.712599 6.07938 0
M  V30 2257 N 205.078 -0.0373283 7.0209 0
M  V30 2258 H 209.918 1.21699 2.72017 0
M  V30 2259 H 207.455 0.611456 1.33789 0
M  V30 2260 H 209.413 -0.85466 4.08352 0
M  V30 2261 H 208.043 -1.20128 2.99615 0
M  V30 2262 H 207.095 1.13391 3.63107 0
M  V30 2263 H 208.407 1.27597 4.82204 0
M  V30 2264 H 207.561 -0.752288 6.02018 0
M  V30 2265 H 206.3 -0.984758 4.77654 0
M  V30 2266 H 205.305 1.24637 5.35486 0
M  V30 2267 H 206.53 1.46664 6.63074 0
M  V30 2268 H 204.476 -0.774348 6.51414 0
M  V30 2269 H 204.393 0.624374 7.53417 0
M  V30 2270 H 205.661 -0.539891 7.77628 0
M  V30 2271 N 209.89 -1.43072 0.660911 0
M  V30 2272 C 210.837 -2.30785 -0.0259884 0
M  V30 2273 C 211.807 -1.45184 -0.806888 0
M  V30 2274 O 212.992 -1.74041 -0.781943 0
M  V30 2275 C 210.132 -3.30861 -0.981067 0
M  V30 2276 C 209.245 -4.31558 -0.195458 0
M  V30 2277 C 208.38 -5.18712 -1.14503 0
M  V30 2278 C 207.419 -6.11097 -0.350299 0
M  V30 2279 N 206.556 -6.90849 -1.25186 0
M  V30 2280 H 211.396 -2.88975 0.727846 0
M  V30 2281 H 208.933 -1.42353 0.370682 0
M  V30 2282 H 210.891 -3.87399 -1.54849 0
M  V30 2283 H 209.521 -2.74304 -1.70169 0
M  V30 2284 H 208.573 -3.77252 0.488374 0
M  V30 2285 H 209.885 -4.9701 0.422176 0
M  V30 2286 H 209.039 -5.79914 -1.78284 0
M  V30 2287 H 207.778 -4.53404 -1.79656 0
M  V30 2288 H 206.783 -5.48976 0.300808 0
M  V30 2289 H 208.008 -6.7845 0.296941 0
M  V30 2290 H 205.954 -6.28182 -1.89005 0
M  V30 2291 H 205.871 -7.52854 -0.688971 0
M  V30 2292 H 207.139 -7.5655 -1.87757 0
M  V30 2293 N 211.368 -0.403325 -1.52352 0
M  V30 2294 C 212.318 0.442244 -2.2367 0
M  V30 2295 C 213.302 1.01823 -1.24583 0
M  V30 2296 O 214.494 0.942005 -1.49851 0
M  V30 2297 C 211.623 1.5615 -3.05732 0
M  V30 2298 C 210.709 0.996575 -4.12225 0
M  V30 2299 N 211.1 0.157804 -5.05554 0
M  V30 2300 C 209.398 1.26767 -4.27605 0
M  V30 2301 C 210.099 -0.155853 -5.81491 0
M  V30 2302 N 209.075 0.451775 -5.41719 0
M  V30 2303 H 212.877 -0.204964 -2.93184 0
M  V30 2304 H 210.391 -0.213418 -1.60992 0
M  V30 2305 H 212.388 2.17981 -3.55373 0
M  V30 2306 H 211.048 2.21139 -2.37755 0
M  V30 2307 H 212.059 -0.206049 -5.1749 0
M  V30 2308 H 208.736 1.91757 -3.70858 0
M  V30 2309 H 210.126 -0.836329 -6.66675 0
M  V30 2310 N 212.846 1.57033 -0.133567 0
M  V30 2311 C 213.776 2.1909 0.807567 0
M  V30 2312 C 214.757 1.13517 1.26681 0
M  V30 2313 O 215.942 1.41809 1.32679 0
M  V30 2314 C 213.072 2.80188 2.05212 0
M  V30 2315 C 212.026 3.91471 1.73015 0
M  V30 2316 C 211.352 4.39443 3.04622 0
M  V30 2317 C 212.652 5.12886 0.987168 0
M  V30 2318 H 214.346 2.97988 0.290403 0
M  V30 2319 H 211.892 1.43335 0.138239 0
M  V30 2320 H 213.845 3.22264 2.71521 0
M  V30 2321 H 212.569 1.98601 2.59278 0
M  V30 2322 H 211.228 3.49993 1.0909 0
M  V30 2323 H 210.876 3.54695 3.56651 0
M  V30 2324 H 210.576 5.14495 2.83847 0
M  V30 2325 H 212.1 4.8418 3.72024 0
M  V30 2326 H 213.514 5.51891 1.55208 0
M  V30 2327 H 211.911 5.93615 0.87985 0
M  V30 2328 H 212.981 4.84894 -0.0235286 0
M  V30 2329 N 214.325 -0.140222 1.56975 0
M  V30 2330 C 215.273 -1.19207 1.99731 0
M  V30 2331 C 216.267 -1.44089 0.890777 0
M  V30 2332 O 217.473 -1.44301 1.07597 0
M  V30 2333 H 213.848 -0.40142 0.635898 0
M  V30 2334 H 215.819 -0.804813 2.87342 0
M  V30 2335 C 214.568 -2.51617 2.39967 0
M  V30 2336 H 213.891 -2.33303 3.24669 0
M  V30 2337 H 215.331 -3.23827 2.73701 0
M  V30 2338 C 213.79 -3.12654 1.25496 0
M  V30 2339 O 214.32 -3.97786 0.559371 0
M  V30 2340 N 212.526 -2.72206 1.01746 0
M  V30 2341 H 212.073 -2.03074 1.58489 0
M  V30 2342 H 212.031 -3.13377 0.253461 0
M  V30 2343 N 215.803 -1.52179 -0.40978 0
M  V30 2344 C 217.033 -1.69807 -1.17682 0
M  V30 2345 C 217.441 -0.406908 -1.84773 0
M  V30 2346 O 216.784 0.626863 -1.72673 0
M  V30 2347 C 216.846 -2.77712 -2.2829 0
M  V30 2348 C 216.51 -4.19481 -1.81341 0
M  V30 2349 C 217.507 -5.03345 -1.30154 0
M  V30 2350 C 215.192 -4.65713 -1.88194 0
M  V30 2351 C 217.186 -6.31511 -0.864416 0
M  V30 2352 C 214.873 -5.93869 -1.44093 0
M  V30 2353 C 215.871 -6.76597 -0.933023 0
M  V30 2354 O 215.559 -8.02354 -0.49838 0
M  V30 2355 H 215.291 -0.572372 -0.359675 0
M  V30 2356 H 217.845 -1.99511 -0.488311 0
M  V30 2357 H 216.075 -2.43383 -3.00502 0
M  V30 2358 H 217.764 -2.83946 -2.90051 0
M  V30 2359 H 218.53 -4.68819 -1.24232 0
M  V30 2360 H 214.409 -4.01424 -2.26671 0
M  V30 2361 H 217.953 -6.96033 -0.467286 0
M  V30 2362 H 213.85 -6.27903 -1.49694 0
M  V30 2363 H 214.618 -8.16135 -0.621747 0
M  V30 2364 N 217.281 0.66697 -1.42791 0
M  V30 2365 C 218.509 1.45505 -1.47091 0
M  V30 2366 C 218.924 1.8861 -0.0845873 0
M  V30 2367 O 218.281 1.58632 0.90234 0
M  V30 2368 C 218.332 2.69906 -2.40485 0
M  V30 2369 O 218.053 2.28608 -3.73725 0
M  V30 2370 C 219.554 3.63396 -2.53886 0
M  V30 2371 H 216.774 0.447459 -0.500022 0
M  V30 2372 H 219.318 0.818866 -1.8739 0
M  V30 2373 H 217.473 3.29696 -2.03419 0
M  V30 2374 H 217.887 3.08997 -4.23817 0
M  V30 2375 H 219.361 4.47387 -3.2334 0
M  V30 2376 H 219.838 4.09824 -1.57927 0
M  V30 2377 H 220.444 3.09495 -2.91706 0
M  V30 2378 N 218.759 1.29093 0.90403 0
M  V30 2379 C 219.669 1.15727 2.0407 0
M  V30 2380 C 220.685 0.0815308 1.73809 0
M  V30 2381 O 221.861 0.292749 1.99261 0
M  V30 2382 C 218.926 0.830424 3.36608 0
M  V30 2383 C 217.987 1.98955 3.80415 0
M  V30 2384 C 217.22 1.6782 5.06628 0
M  V30 2385 O 217.443 0.597105 5.67266 0
M  V30 2386 O 216.377 2.52486 5.46383 0
M  V30 2387 H 220.203 2.11171 2.18267 0
M  V30 2388 H 217.788 1.08504 1.027 0
M  V30 2389 H 219.67 0.662521 4.16159 0
M  V30 2390 H 218.345 -0.0942678 3.23563 0
M  V30 2391 H 217.252 2.21267 3.01648 0
M  V30 2392 H 218.585 2.89529 3.98037 0
M  V30 2393 N 220.237 -1.11381 1.11499 0
M  V30 2394 C 221.484 -1.83132 0.864231 0
M  V30 2395 C 221.812 -1.84683 -0.610114 0
M  V30 2396 O 221.067 -1.29589 -1.46646 0
M  V30 2397 C 221.366 -3.30026 1.37177 0
M  V30 2398 C 221.032 -3.48634 2.85946 0
M  V30 2399 C 219.694 -3.53421 3.26569 0
M  V30 2400 C 222.046 -3.54837 3.81759 0
M  V30 2401 C 219.374 -3.61967 4.61733 0
M  V30 2402 C 221.726 -3.64915 5.1674 0
M  V30 2403 C 220.39 -3.67962 5.5692 0
M  V30 2404 H 219.66 -0.670127 0.316245 0
M  V30 2405 H 222.307 -1.31354 1.3935 0
M  V30 2406 H 220.612 -3.84304 0.762753 0
M  V30 2407 H 222.309 -3.84034 1.15408 0
M  V30 2408 H 218.899 -3.45579 2.53521 0
M  V30 2409 H 223.083 -3.50399 3.51474 0
M  V30 2410 H 218.339 -3.62603 4.92269 0
M  V30 2411 H 222.513 -3.68658 5.90816 0
M  V30 2412 H 220.14 -3.74336 6.61647 0
M  V30 2413 N 221.715 -0.905404 -1.28997 0
M  V30 2414 C 222.943 -0.549846 -1.9946 0
M  V30 2415 C 223.358 0.866834 -1.67724 0
M  V30 2416 O 222.715 1.57298 -0.925404 0
M  V30 2417 C 222.766 -0.739387 -3.53858 0
M  V30 2418 O 222.487 -2.10031 -3.84472 0
M  V30 2419 C 223.988 -0.389541 -4.41585 0
M  V30 2420 H 221.208 -0.210429 -0.637151 0
M  V30 2421 H 223.752 -1.21632 -1.64396 0
M  V30 2422 H 221.907 -0.120023 -3.87214 0
M  V30 2423 H 222.321 -2.13385 -4.79132 0
M  V30 2424 H 223.795 -0.572972 -5.49018 0
M  V30 2425 H 224.272 0.673756 -4.34001 0
M  V30 2426 H 224.878 -0.986089 -4.1371 0
M  V30 2427 N 223.193 1.4272 -0.668489 0
M  V30 2428 C 224.125 2.2914 0.052613 0
M  V30 2429 C 225.138 1.43339 0.771857 0
M  V30 2430 O 226.327 1.67123 0.627067 0
M  V30 2431 C 223.427 3.20618 1.09804 0
M  V30 2432 C 222.6 4.35039 0.45389 0
M  V30 2433 C 221.659 5.07282 1.39825 0
M  V30 2434 O 220.685 5.62024 0.900978 0
M  V30 2435 N 221.887 5.12206 2.73176 0
M  V30 2436 H 224.652 2.91668 -0.689209 0
M  V30 2437 H 222.213 1.53577 -0.512422 0
M  V30 2438 H 224.205 3.65815 1.73094 0
M  V30 2439 H 222.775 2.59585 1.74167 0
M  V30 2440 H 221.995 3.92567 -0.358396 0
M  V30 2441 H 223.283 5.088 0.00486972 0
M  V30 2442 H 222.681 4.6913 3.16122 0
M  V30 2443 H 221.238 5.61069 3.31729 0
M  V30 2444 N 224.671 0.411399 1.52136 0
M  V30 2445 C 225.918 -0.163645 2.01838 0
M  V30 2446 C 226.246 -1.4495 1.29691 0
M  V30 2447 O 225.501 -1.91725 0.392431 0
M  V30 2448 C 225.8 -0.455872 3.54481 0
M  V30 2449 C 225.466 0.741055 4.44769 0
M  V30 2450 C 224.128 1.06936 4.69167 0
M  V30 2451 C 226.48 1.54075 4.97906 0
M  V30 2452 C 223.808 2.19851 5.43951 0
M  V30 2453 C 226.16 2.66067 5.73926 0
M  V30 2454 C 224.824 2.99381 5.96596 0
M  V30 2455 H 224.094 -0.0598821 0.738576 0
M  V30 2456 H 226.741 0.553283 1.83333 0
M  V30 2457 H 225.046 -1.2544 3.71177 0
M  V30 2458 H 226.743 -0.913802 3.90449 0
M  V30 2459 H 223.333 0.475192 4.25958 0
M  V30 2460 H 227.517 1.30033 4.78963 0
M  V30 2461 H 222.773 2.46006 5.59724 0
M  V30 2462 H 226.947 3.28419 6.14096 0
M  V30 2463 H 224.574 3.86992 6.54325 0
M  V30 2464 N 226.149 -1.5696 0.141893 0
M  V30 2465 C 227.079 -2.19516 -0.795936 0
M  V30 2466 C 228.06 -1.14187 -1.26077 0
M  V30 2467 O 229.245 -1.42511 -1.31925 0
M  V30 2468 C 226.375 -2.81272 -2.03723 0
M  V30 2469 C 225.329 -3.92384 -1.70936 0
M  V30 2470 C 224.655 -4.41052 -3.02287 0
M  V30 2471 C 225.955 -5.13403 -0.959954 0
M  V30 2472 H 227.649 -2.98138 -0.274596 0
M  V30 2473 H 225.195 -1.43406 -0.130636 0
M  V30 2474 H 227.148 -3.237 -2.69808 0
M  V30 2475 H 225.872 -1.99973 -2.58221 0
M  V30 2476 H 224.531 -3.50566 -1.07232 0
M  V30 2477 H 224.179 -3.56582 -3.54765 0
M  V30 2478 H 223.879 -5.15993 -2.81114 0
M  V30 2479 H 225.403 -4.86146 -3.69451 0
M  V30 2480 H 226.817 -5.52706 -1.52279 0
M  V30 2481 H 225.214 -5.94073 -0.848357 0
M  V30 2482 H 226.284 -4.84875 0.0492434 0
M  V30 2483 N 227.627 0.131896 -1.57047 0
M  V30 2484 C 228.559 1.1878 -1.9602 0
M  V30 2485 C 229.572 1.38363 -0.857875 0
M  V30 2486 O 230.761 1.37666 -1.13623 0
M  V30 2487 C 227.861 2.55008 -2.23213 0
M  V30 2488 C 227.034 2.56201 -3.54513 0
M  V30 2489 C 226.093 3.7408 -3.70069 0
M  V30 2490 O 225.119 3.58258 -4.42312 0
M  V30 2491 N 226.321 4.92137 -3.07866 0
M  V30 2492 H 229.086 0.85639 -2.87204 0
M  V30 2493 H 226.647 0.321309 -1.5868 0
M  V30 2494 H 228.639 3.32404 -2.30846 0
M  V30 2495 H 227.209 2.80382 -1.3822 0
M  V30 2496 H 226.429 1.64613 -3.58185 0
M  V30 2497 H 227.717 2.54043 -4.4084 0
M  V30 2498 H 227.115 5.07895 -2.49116 0
M  V30 2499 H 225.672 5.67254 -3.21039 0
M  V30 2500 N 229.106 1.52395 0.401703 0
M  V30 2501 C 230.016 1.7917 1.51444 0
M  V30 2502 C 231.032 0.677691 1.6026 0
M  V30 2503 O 232.208 0.963909 1.76835 0
M  V30 2504 C 229.273 1.94347 2.87107 0
M  V30 2505 C 228.334 3.18257 2.88116 0
M  V30 2506 C 227.567 3.32701 4.17308 0
M  V30 2507 O 227.79 2.52238 5.11598 0
M  V30 2508 O 226.724 4.25891 4.25324 0
M  V30 2509 H 230.55 2.73633 1.31752 0
M  V30 2510 H 228.135 1.3733 0.588296 0
M  V30 2511 H 230.017 2.06109 3.67555 0
M  V30 2512 H 228.692 1.03073 3.06851 0
M  V30 2513 H 227.599 3.11947 2.06494 0
M  V30 2514 H 228.932 4.09336 2.73322 0
M  V30 2515 N 230.584 -0.659388 1.43143 0
M  V30 2516 C 231.514 -1.78422 1.50625 0
M  V30 2517 C 232.495 -1.66216 0.361443 0
M  V30 2518 O 233.68 -1.85404 0.577834 0
M  V30 2519 C 230.81 -3.16815 1.42287 0
M  V30 2520 C 229.764 -3.43777 2.54954 0
M  V30 2521 C 229.09 -4.81905 2.31671 0
M  V30 2522 C 230.39 -3.39134 3.97222 0
M  V30 2523 H 232.084 -1.72417 2.44771 0
M  V30 2524 H 229.63 -0.828084 1.17808 0
M  V30 2525 H 231.583 -3.95253 1.46127 0
M  V30 2526 H 230.307 -3.23534 0.446435 0
M  V30 2527 H 228.966 -2.67707 2.50457 0
M  V30 2528 H 228.614 -4.85294 1.32284 0
M  V30 2529 H 228.314 -5.00906 3.07192 0
M  V30 2530 H 229.838 -5.62609 2.37284 0
M  V30 2531 H 231.252 -4.07518 4.03239 0
M  V30 2532 H 229.649 -3.69671 4.72719 0
M  V30 2533 H 230.719 -2.37426 4.22797 0
M  V30 2534 N 232.062 -1.29571 -0.897171 0
M  V30 2535 C 232.994 -1.10724 -2.00681 0
M  V30 2536 C 234.007 -0.0540026 -1.6271 0
M  V30 2537 O 235.196 -0.298783 -1.75982 0
M  V30 2538 C 232.296 -0.663912 -3.32333 0
M  V30 2539 C 231.469 -1.79622 -3.98816 0
M  V30 2540 C 230.528 -1.34349 -5.0876 0
M  V30 2541 O 229.554 -2.04864 -5.31055 0
M  V30 2542 N 230.756 -0.215764 -5.80099 0
M  V30 2543 H 233.521 -2.06291 -2.17403 0
M  V30 2544 H 231.082 -1.21544 -1.06951 0
M  V30 2545 H 233.074 -0.344295 -4.03233 0
M  V30 2546 H 231.644 0.199375 -3.11964 0
M  V30 2547 H 230.864 -2.28459 -3.21248 0
M  V30 2548 H 232.152 -2.55535 -4.39976 0
M  V30 2549 H 231.55 0.372091 -5.64475 0
M  V30 2550 H 230.107 0.0444707 -6.51785 0
M  V30 2551 N 233.54 1.10788 -1.12088 0
M  V30 2552 C 234.47 2.19083 -0.807755 0
M  V30 2553 C 235.451 1.6858 0.226859 0
M  V30 2554 O 236.636 1.93997 0.0888475 0
M  V30 2555 C 233.766 3.46344 -0.257576 0
M  V30 2556 C 232.72 4.101 -1.22483 0
M  V30 2557 C 232.046 5.32016 -0.535052 0
M  V30 2558 C 233.346 4.54236 -2.57811 0
M  V30 2559 H 235.04 2.45534 -1.71328 0
M  V30 2560 H 232.586 1.1801 -0.825205 0
M  V30 2561 H 234.539 4.21392 -0.0262679 0
M  V30 2562 H 233.263 3.19373 0.683278 0
M  V30 2563 H 231.922 3.37054 -1.44189 0
M  V30 2564 H 231.57 5.01319 0.410827 0
M  V30 2565 H 231.27 5.75625 -1.18024 0
M  V30 2566 H 232.794 6.09799 -0.312695 0
M  V30 2567 H 234.208 5.20575 -2.40155 0
M  V30 2568 H 232.605 5.08682 -3.18375 0
M  V30 2569 H 233.675 3.6734 -3.16528 0
M  V30 2570 N 235.018 0.912232 1.28515 0
M  V30 2571 C 235.928 0.404506 2.31086 0
M  V30 2572 C 236.944 -0.50707 1.66448 0
M  V30 2573 O 238.12 -0.393624 1.97516 0
M  V30 2574 C 235.185 -0.348572 3.44943 0
M  V30 2575 C 234.246 0.59604 4.25142 0
M  V30 2576 C 233.479 -0.121194 5.33562 0
M  V30 2577 O 233.702 -1.34317 5.5436 0
M  V30 2578 O 232.636 0.542716 5.99448 0
M  V30 2579 H 236.462 1.25579 2.76521 0
M  V30 2580 H 234.047 0.676998 1.33181 0
M  V30 2581 H 235.929 -0.77395 4.14232 0
M  V30 2582 H 234.604 -1.17571 3.01594 0
M  V30 2583 H 233.511 1.07079 3.58448 0
M  V30 2584 H 234.844 1.38995 4.72167 0
M  V30 2585 N 236.496 -1.42363 0.676048 0
M  V30 2586 C 237.446 -2.27987 -0.0242903 0
M  V30 2587 C 238.43 -1.41153 -0.772319 0
M  V30 2588 O 239.622 -1.64592 -0.651025 0
M  V30 2589 C 236.751 -3.29195 -0.973953 0
M  V30 2590 C 235.837 -4.23512 -0.223202 0
M  V30 2591 N 236.228 -4.99865 0.772589 0
M  V30 2592 C 234.526 -4.43606 -0.461469 0
M  V30 2593 C 235.227 -5.68757 1.22027 0
M  V30 2594 N 234.203 -5.40811 0.549975 0
M  V30 2595 H 238.005 -2.84445 0.73949 0
M  V30 2596 H 235.519 -1.54341 0.50522 0
M  V30 2597 H 237.516 -3.89339 -1.49067 0
M  V30 2598 H 236.176 -2.74298 -1.73755 0
M  V30 2599 H 237.187 -5.04921 1.15217 0
M  V30 2600 H 233.864 -3.99749 -1.20446 0
M  V30 2601 H 235.254 -6.40007 2.0455 0
M  V30 2602 N 237.974 -0.419461 -1.51915 0
M  V30 2603 C 238.937 0.389116 -2.25873 0
M  V30 2604 C 239.937 0.964924 -1.28631 0
M  V30 2605 O 241.127 0.842179 -1.52489 0
M  V30 2606 C 238.259 1.54874 -3.03689 0
M  V30 2607 H 239.452 -0.258799 -2.98781 0
M  V30 2608 H 237.005 -0.172209 -1.55348 0
M  V30 2609 H 237.74 2.23323 -2.35154 0
M  V30 2610 H 237.525 1.14223 -3.75094 0
M  V30 2611 H 239.015 2.12046 -3.59759 0
M  V30 2612 N 239.452 1.56882 -0.150215 0
M  V30 2613 C 240.868 1.58263 0.20617 0
M  V30 2614 C 241.068 1.16464 1.64434 0
M  V30 2615 O 240.124 0.866422 2.3717 0
M  V30 2616 C 241.437 3.00649 -0.0555025 0
M  V30 2617 C 242.985 3.12999 0.00795388 0
M  V30 2618 C 243.46 4.5744 -0.226429 0
M  V30 2619 N 244.951 4.62875 -0.173469 0
M  V30 2620 C 245.686 5.72454 -0.329288 0
M  V30 2621 N 245.182 6.90669 -0.543005 0
M  V30 2622 N 246.975 5.61467 -0.266666 0
M  V30 2623 H 239.126 1.82345 -1.08922 0
M  V30 2624 H 241.389 0.844149 -0.431413 0
M  V30 2625 H 241.095 3.3563 -1.05096 0
M  V30 2626 H 240.969 3.71337 0.66246 0
M  V30 2627 H 243.356 2.77857 0.993966 0
M  V30 2628 H 243.437 2.4479 -0.742388 0
M  V30 2629 H 243.081 4.93287 -1.20956 0
M  V30 2630 H 243.011 5.2378 0.544274 0
M  V30 2631 H 245.502 3.77898 -0.0130709 0
M  V30 2632 H 245.815 7.70045 -0.651922 0
M  V30 2633 H 244.16 6.92581 -0.579366 0
M  V30 2634 H 247.351 4.67992 -0.100441 0
M  V30 2635 H 247.524 6.46816 -0.391535 0
M  V30 2636 N 240.93 -0.123565 1.57115 0
M  V30 2637 C 241.862 -1.17739 1.96648 0
M  V30 2638 C 242.875 -1.37906 0.865201 0
M  V30 2639 O 244.064 -1.37062 1.14351 0
M  V30 2640 C 241.164 -2.53821 2.24562 0
M  V30 2641 C 240.337 -2.54317 3.55867 0
M  V30 2642 C 239.396 -3.72112 3.72047 0
M  V30 2643 O 238.422 -3.55907 4.44206 0
M  V30 2644 N 239.624 -4.90498 3.10471 0
M  V30 2645 H 242.389 -0.841147 2.87654 0
M  V30 2646 H 239.95 -0.31289 1.58848 0
M  V30 2647 H 241.942 -3.31175 2.32606 0
M  V30 2648 H 240.512 -2.79645 1.39705 0
M  V30 2649 H 239.732 -1.62711 3.59053 0
M  V30 2650 H 241.02 -2.51701 4.42181 0
M  V30 2651 H 240.418 -5.06567 2.51806 0
M  V30 2652 H 238.975 -5.65544 3.24043 0
M  V30 2653 N 242.408 -1.52605 -0.393616 0
M  V30 2654 C 243.371 -1.76415 -1.46323 0
M  V30 2655 C 244.371 -0.634126 -1.47768 0
M  V30 2656 O 245.561 -0.902142 -1.4902 0
M  V30 2657 C 242.693 -1.8607 -2.85641 0
M  V30 2658 H 243.886 -2.71916 -1.26498 0
M  V30 2659 H 241.439 -1.43257 -0.625073 0
M  V30 2660 H 242.174 -0.925378 -3.10817 0
M  V30 2661 H 241.959 -2.68235 -2.85993 0
M  V30 2662 H 243.449 -2.06179 -3.63153 0
M  V30 2663 N 243.887 0.651787 -1.4349 0
M  V30 2664 C 245.134 1.41167 -1.45183 0
M  V30 2665 C 245.462 1.94349 -0.0766601 0
M  V30 2666 O 244.717 1.72804 0.918555 0
M  V30 2667 C 245.016 2.60914 -2.44251 0
M  V30 2668 C 244.682 2.26142 -3.9009 0
M  V30 2669 C 243.344 2.16371 -4.2981 0
M  V30 2670 C 245.696 1.98334 -4.81989 0
M  V30 2671 C 243.024 1.7695 -5.5938 0
M  V30 2672 C 245.376 1.6041 -6.11924 0
M  V30 2673 C 244.04 1.49166 -6.5062 0
M  V30 2674 H 243.31 0.516566 -0.531263 0
M  V30 2675 H 245.957 0.741099 -1.76579 0
M  V30 2676 H 244.262 3.3311 -2.06265 0
M  V30 2677 H 245.959 3.19127 -2.42815 0
M  V30 2678 H 242.549 2.34658 -3.58655 0
M  V30 2679 H 246.733 2.04803 -4.52072 0
M  V30 2680 H 241.989 1.66831 -5.88198 0
M  V30 2681 H 246.163 1.37925 -6.82605 0
M  V30 2682 H 243.79 1.1839 -7.50925 0
M  V30 2683 N 245.365 1.30045 0.890287 0
M  V30 2684 C 246.328 1.15963 1.977 0
M  V30 2685 C 247.328 0.0923777 1.60534 0
M  V30 2686 O 248.518 0.340071 1.70848 0
M  V30 2687 C 245.65 0.775451 3.31963 0
M  V30 2688 H 246.843 2.12502 2.11619 0
M  V30 2689 H 244.396 1.13366 1.07601 0
M  V30 2690 H 245.131 -0.189671 3.23745 0
M  V30 2691 H 244.916 1.54668 3.60306 0
M  V30 2692 H 246.406 0.700251 4.11687 0
M  V30 2693 N 246.843 -1.10192 1.12674 0
M  V30 2694 C 247.773 -2.18652 0.819362 0
M  V30 2695 C 248.754 -1.68698 -0.217915 0
M  V30 2696 O 249.939 -1.94041 -0.0785581 0
M  V30 2697 C 247.069 -3.46202 0.27594 0
M  V30 2698 C 246.023 -4.09444 1.24656 0
M  V30 2699 C 245.349 -5.31725 0.563258 0
M  V30 2700 C 246.649 -4.52863 2.60217 0
M  V30 2701 H 248.343 -2.44622 1.72628 0
M  V30 2702 H 245.889 -1.17571 0.831451 0
M  V30 2703 H 247.842 -4.21372 0.0486149 0
M  V30 2704 H 246.566 -3.1973 -0.666331 0
M  V30 2705 H 245.225 -3.36284 1.45974 0
M  V30 2706 H 244.873 -5.0153 -0.384235 0
M  V30 2707 H 244.573 -5.74991 1.21075 0
M  V30 2708 H 246.097 -6.09624 0.34503 0
M  V30 2709 H 247.511 -5.19294 2.42913 0
M  V30 2710 H 245.908 -5.06986 3.21068 0
M  V30 2711 H 246.978 -3.65656 3.18471 0
M  V30 2712 N 248.321 -0.919034 -1.28029 0
M  V30 2713 C 249.268 -0.410005 -2.27129 0
M  V30 2714 C 250.238 0.518405 -1.57803 0
M  V30 2715 O 251.423 0.439451 -1.8567 0
M  V30 2716 C 248.563 0.339054 -3.4343 0
M  V30 2717 C 247.676 -0.622468 -4.27492 0
M  V30 2718 C 246.811 0.145567 -5.31001 0
M  V30 2719 C 245.85 -0.809226 -6.06727 0
M  V30 2720 N 244.987 -0.0743728 -7.02061 0
M  V30 2721 H 249.827 -1.26011 -2.70047 0
M  V30 2722 H 247.364 -0.632663 -1.328 0
M  V30 2723 H 249.322 0.789586 -4.0966 0
M  V30 2724 H 247.952 1.15346 -3.01488 0
M  V30 2725 H 247.004 -1.19153 -3.61257 0
M  V30 2726 H 248.316 -1.35252 -4.80113 0
M  V30 2727 H 247.47 0.656417 -6.03139 0
M  V30 2728 H 246.209 0.908643 -4.79161 0
M  V30 2729 H 245.214 -1.3314 -5.33436 0
M  V30 2730 H 246.439 -1.57194 -6.60656 0
M  V30 2731 H 244.385 0.670616 -6.52563 0
M  V30 2732 H 244.302 -0.744157 -7.52329 0
M  V30 2733 H 245.57 0.416109 -7.78389 0
M  V30 2734 N 249.799 1.42003 -0.683588 0
M  V30 2735 C 251.076 1.95112 -0.138075 0
M  V30 2736 C 251.456 1.62359 1.34918 0
M  V30 2737 O 250.804 0.924311 2.08971 0
M  V30 2738 C 251.014 3.46505 -0.416581 0
M  V30 2739 C 252.362 4.23254 -0.337834 0
M  V30 2740 O 253.386 3.54468 -0.35082 0
M  V30 2741 O 252.245 5.45743 -0.287596 0
M  V30 2742 H 249.339 0.826961 -0.00797996 0
M  V30 2743 H 251.885 1.51784 -0.758924 0
M  V30 2744 H 250.657 3.63582 -1.4465 0
M  V30 2745 H 250.28 3.969 0.235839 0
M  V30 2746 N 251.277 0.427512 1.51691 0
M  V30 2747 C 252.224 -0.388867 2.275 0
M  V30 2748 C 253.194 -1.02532 1.30677 0
M  V30 2749 O 254.379 -1.0461 1.59566 0
M  V30 2750 C 251.519 -1.48954 3.11298 0
M  V30 2751 C 250.632 -0.872194 4.23104 0
M  V30 2752 C 249.767 -1.94709 4.94228 0
M  V30 2753 C 248.806 -1.30766 5.97969 0
M  V30 2754 N 247.943 -2.32349 6.62539 0
M  V30 2755 H 252.783 0.263997 2.96828 0
M  V30 2756 H 250.32 0.142033 1.46413 0
M  V30 2757 H 252.278 -2.13887 3.58201 0
M  V30 2758 H 250.908 -2.11217 2.44105 0
M  V30 2759 H 249.96 -0.111419 3.80237 0
M  V30 2760 H 251.272 -0.365264 4.97461 0
M  V30 2761 H 250.426 -2.67327 5.44629 0
M  V30 2762 H 249.165 -2.48773 4.1948 0
M  V30 2763 H 248.17 -0.566902 5.4687 0
M  V30 2764 H 249.395 -0.774483 6.74669 0
M  V30 2765 H 247.341 -2.85511 5.90609 0
M  V30 2766 H 247.258 -1.8652 7.3263 0
M  V30 2767 H 248.526 -3.04481 7.17574 0
M  V30 2768 N 252.755 -1.56801 0.158532 0
M  V30 2769 C 253.98 -2.01295 -0.499516 0
M  V30 2770 C 254.405 -1.03799 -1.56867 0
M  V30 2771 O 253.763 -0.0155162 -1.81293 0
M  V30 2772 C 253.811 -3.44469 -1.06647 0
M  V30 2773 O 252.915 -3.50012 -2.18095 0
M  V30 2774 H 252.256 -0.652884 -0.12099 0
M  V30 2775 H 254.786 -2.02958 0.258661 0
M  V30 2776 H 254.796 -3.8351 -1.39227 0
M  V30 2777 H 253.471 -4.14932 -0.283581 0
M  V30 2778 H 252.048 -3.22822 -1.86656 0
M  V30 2779 N 254.233 0.115231 -1.57178 0
M  V30 2780 C 255.18 1.14115 -2.00615 0
M  V30 2781 C 256.15 1.40939 -0.878941 0
M  V30 2782 O 257.335 1.52741 -1.14345 0
M  V30 2783 C 254.475 2.46156 -2.4187 0
M  V30 2784 C 253.588 2.26236 -3.68024 0
M  V30 2785 C 252.723 3.51534 -3.98243 0
M  V30 2786 C 251.762 3.26787 -5.17568 0
M  V30 2787 N 250.899 4.44298 -5.43639 0
M  V30 2788 H 255.739 0.763743 -2.88047 0
M  V30 2789 H 253.276 0.365615 -1.42484 0
M  V30 2790 H 255.234 3.23189 -2.63827 0
M  V30 2791 H 253.864 2.81783 -1.57475 0
M  V30 2792 H 252.916 1.40102 -3.5366 0
M  V30 2793 H 254.228 2.03929 -4.55208 0
M  V30 2794 H 253.382 4.36984 -4.20868 0
M  V30 2795 H 252.121 3.76876 -3.09541 0
M  V30 2796 H 251.126 2.39729 -4.94783 0
M  V30 2797 H 252.351 3.02812 -6.0785 0
M  V30 2798 H 250.297 4.69754 -4.57895 0
M  V30 2799 H 250.214 4.25109 -6.25154 0
M  V30 2800 H 251.482 5.3087 -5.70786 0
M  V30 2801 N 255.711 1.52812 0.385517 0
M  V30 2802 C 256.936 1.72207 1.15583 0
M  V30 2803 C 257.361 0.441034 1.82857 0
M  V30 2804 O 256.719 -0.603465 1.70962 0
M  V30 2805 C 256.767 2.87476 2.17692 0
M  V30 2806 O 255.871 2.54693 3.24354 0
M  V30 2807 H 255.212 0.572526 0.336319 0
M  V30 2808 H 257.742 1.99618 0.448744 0
M  V30 2809 H 257.752 3.13072 2.6163 0
M  V30 2810 H 256.427 3.80408 1.68115 0
M  V30 2811 H 255.004 2.3985 2.85529 0
M  V30 2812 N 257.189 -0.644168 1.43834 0
M  V30 2813 C 258.437 -1.40117 1.45642 0
M  V30 2814 C 258.758 -1.94814 0.0852413 0
M  V30 2815 O 258.028 -1.74988 -0.880688 0
M  V30 2816 H 256.608 -0.52005 0.536243 0
M  V30 2817 H 259.27 -0.7591 1.7951 0
M  V30 2818 H 258.366 -2.23902 2.17427 0
M  V30 2819 N 258.668 -1.30515 -0.883378 0
M  V30 2820 C 259.601 -1.11359 -1.99184 0
M  V30 2821 C 260.579 -0.0207858 -1.62587 0
M  V30 2822 O 261.763 -0.174646 -1.87689 0
M  V30 2823 C 258.89 -0.69871 -3.31415 0
M  V30 2824 C 257.936 -1.79261 -3.86998 0
M  V30 2825 S 258.769 -3.39536 -4.14096 0
M  V30 2826 C 259.925 -2.99954 -5.49344 0
M  V30 2827 H 260.158 -2.052 -2.15128 0
M  V30 2828 H 257.691 -1.14847 -1.03196 0
M  V30 2829 H 259.649 -0.466075 -4.07846 0
M  V30 2830 H 258.31 0.220368 -3.13326 0
M  V30 2831 H 257.503 -1.45464 -4.82552 0
M  V30 2832 H 257.105 -1.97961 -3.17313 0
M  V30 2833 H 259.397 -2.48013 -6.30473 0
M  V30 2834 H 260.34 -3.9442 -5.8808 0
M  V30 2835 H 260.748 -2.37775 -5.1198 0
M  V30 2836 N 260.146 1.09593 -1.13257 0
M  V30 2837 C 261.395 1.81105 -0.887917 0
M  V30 2838 C 261.708 1.86563 0.587672 0
M  V30 2839 O 262.914 2.54367 0.949204 0
M  V30 2840 C 261.37 3.25338 -1.53895 0
M  V30 2841 C 260.978 3.28151 -3.04994 0
M  V30 2842 C 262.722 4.01617 -1.37492 0
M  V30 2843 C 260.629 4.66897 -3.6299 0
M  V30 2844 H 259.559 0.678661 -0.328534 0
M  V30 2845 H 262.21 1.23183 -1.36008 0
M  V30 2846 H 260.592 3.8331 -0.994446 0
M  V30 2847 H 261.766 2.79953 -3.66009 0
M  V30 2848 H 260.081 2.65361 -3.20893 0
M  V30 2849 H 262.678 5.04119 -1.78235 0
M  V30 2850 H 263.021 4.15072 -0.31957 0
M  V30 2851 H 263.554 3.50082 -1.88912 0
M  V30 2852 H 260.293 4.58643 -4.68323 0
M  V30 2853 H 259.813 5.15426 -3.06752 0
M  V30 2854 H 261.492 5.3587 -3.62563 0
M  V30 2855 N 261.624 0.925811 1.2754 0
M  V30 2856 C 262.849 0.580924 1.99098 0
M  V30 2857 C 263.274 -0.833555 1.68622 0
M  V30 2858 O 262.632 -1.55903 0.925422 0
M  V30 2859 C 262.68 0.811186 3.51358 0
M  V30 2860 O 261.784 -0.124129 4.12213 0
M  V30 2861 H 261.125 0.223873 0.625122 0
M  V30 2862 H 263.655 1.24455 1.62395 0
M  V30 2863 H 263.665 0.72601 4.01489 0
M  V30 2864 H 262.34 1.84227 3.72872 0
M  V30 2865 H 260.917 0.0108006 3.72898 0
M  V30 2866 N 263.102 -1.41638 0.69111 0
M  V30 2867 C 264.35 -2.00902 0.219758 0
M  V30 2868 C 264.671 -1.54994 -1.18329 0
M  V30 2869 O 263.941 -0.778628 -1.79762 0
M  V30 2870 H 262.521 -0.74289 0.0782558 0
M  V30 2871 H 265.183 -1.73327 0.891271 0
M  V30 2872 H 264.279 -3.11224 0.233708 0
M  V30 2873 N 264.58 -0.43555 -1.51462 0
M  V30 2874 C 265.51 0.367376 -2.30592 0
M  V30 2875 C 266.491 1.02263 -1.35928 0
M  V30 2876 O 267.676 1.02661 -1.64847 0
M  V30 2877 C 264.806 1.46983 -3.14664 0
M  V30 2878 C 263.76 0.938161 -4.17591 0
M  V30 2879 C 263.086 2.13622 -4.90173 0
M  V30 2880 C 264.386 -0.0261621 -5.22293 0
M  V30 2881 H 266.08 -0.292969 -2.97963 0
M  V30 2882 H 263.626 -0.14234 -1.43295 0
M  V30 2883 H 265.579 2.03873 -3.688 0
M  V30 2884 H 264.303 2.15843 -2.4511 0
M  V30 2885 H 262.962 0.391481 -3.64504 0
M  V30 2886 H 262.61 2.81098 -4.17124 0
M  V30 2887 H 262.31 1.78688 -5.59772 0
M  V30 2888 H 263.834 2.7107 -5.47132 0
M  V30 2889 H 265.248 0.452384 -5.71512 0
M  V30 2890 H 263.645 -0.287992 -5.99409 0
M  V30 2891 H 264.715 -0.963391 -4.75233 0
M  V30 2892 N 266.058 1.56714 -0.166846 0
M  V30 2893 C 267.335 1.88412 0.525373 0
M  V30 2894 C 267.715 1.07602 1.81618 0
M  V30 2895 O 267.063 0.168621 2.27877 0
M  V30 2896 C 267.273 3.40363 0.771613 0
M  V30 2897 C 268.621 4.10007 1.1036 0
M  V30 2898 O 269.645 3.45655 0.860304 0
M  V30 2899 O 268.504 5.2369 1.56239 0
M  V30 2900 H 265.598 0.781587 0.270278 0
M  V30 2901 H 268.144 1.68458 -0.204946 0
M  V30 2902 H 266.916 3.91046 -0.141093 0
M  V30 2903 H 266.539 3.65914 1.55541 0
M  V30 2904 N 267.536 -0.106894 1.57237 0
M  V30 2905 C 268.783 -0.812526 1.85484 0
M  V30 2906 C 269.111 -1.79304 0.753687 0
M  V30 2907 O 268.366 -1.94047 -0.253853 0
M  V30 2908 C 268.665 -1.58628 3.20268 0
M  V30 2909 C 268.331 -0.748967 4.44636 0
M  V30 2910 C 266.993 -0.518104 4.78403 0
M  V30 2911 C 269.345 -0.166122 5.20935 0
M  V30 2912 C 266.673 0.305659 5.85903 0
M  V30 2913 C 269.025 0.644899 6.29304 0
M  V30 2914 C 267.689 0.885965 6.61594 0
M  V30 2915 H 266.959 -0.297324 0.678734 0
M  V30 2916 H 269.606 -0.0744332 1.91355 0
M  V30 2917 H 267.911 -2.39562 3.10028 0
M  V30 2918 H 269.608 -2.13643 3.39349 0
M  V30 2919 H 266.198 -0.939006 4.18187 0
M  V30 2920 H 270.382 -0.33167 4.95191 0
M  V30 2921 H 265.638 0.501528 6.0934 0
M  V30 2922 H 269.812 1.10345 6.87602 0
M  V30 2923 H 267.439 1.52609 7.44725 0
M  V30 2924 N 269.014 -1.53014 -0.377408 0
M  V30 2925 C 270.239 -1.72818 -1.14668 0
M  V30 2926 C 270.664 -0.450725 -1.8262 0
M  V30 2927 O 270.022 0.59439 -1.7128 0
M  V30 2928 C 270.07 -2.88627 -2.16164 0
M  V30 2929 O 269.174 -2.56409 -3.22998 0
M  V30 2930 H 268.515 -0.574301 -0.333278 0
M  V30 2931 H 271.045 -1.99853 -0.438152 0
M  V30 2932 H 271.055 -3.14455 -2.59966 0
M  V30 2933 H 269.73 -3.81294 -1.66095 0
M  V30 2934 H 268.307 -2.4136 -2.84253 0
M  V30 2935 N 270.492 0.636531 -1.44174 0
M  V30 2936 C 271.769 1.39463 -1.37148 0
M  V30 2937 C 272.149 2.11082 -0.027507 0
M  V30 2938 O 271.497 2.05954 0.989716 0
M  V30 2939 C 271.707 2.36552 -2.56601 0
M  V30 2940 C 273.055 3.00048 -3.00427 0
M  V30 2941 O 274.079 2.46878 -2.56767 0
M  V30 2942 O 272.938 3.96488 -3.76111 0
M  V30 2943 H 270.032 0.623903 -0.542839 0
M  V30 2944 H 272.578 0.662039 -1.56253 0
M  V30 2945 H 271.35 1.82692 -3.46034 0
M  V30 2946 H 270.973 3.17236 -2.39681 0
M  V30 2947 N 271.97 1.30982 0.876444 0
M  V30 2948 C 273.219 1.19658 1.62373 0
M  V30 2949 C 273.532 -0.245636 1.94052 0
M  V30 2950 O 274.738 -0.48049 2.67214 0
M  V30 2951 C 273.194 2.09433 2.92687 0
M  V30 2952 C 272.802 3.58613 2.68516 0
M  V30 2953 C 274.546 2.06893 3.70669 0
M  V30 2954 C 272.453 4.40416 3.94699 0
M  V30 2955 H 271.383 0.444268 0.609214 0
M  V30 2956 H 274.034 1.55791 0.969605 0
M  V30 2957 H 272.416 1.66191 3.59439 0
M  V30 2958 H 273.59 4.10058 2.10212 0
M  V30 2959 H 271.905 3.63063 2.03898 0
M  V30 2960 H 274.502 2.65258 4.64265 0
M  V30 2961 H 274.845 1.05448 4.02724 0
M  V30 2962 H 275.378 2.48301 3.10792 0
M  V30 2963 H 272.117 5.42591 3.67798 0
M  V30 2964 H 271.637 3.93731 4.52477 0
M  V30 2965 H 273.316 4.52294 4.62644 0
M  V30 2966 N 273.449 -1.08991 1.13837 0
M  V30 2967 C 274.382 -2.15049 0.763477 0
M  V30 2968 C 275.36 -1.60629 -0.252398 0
M  V30 2969 O 276.544 -1.87958 -0.142853 0
M  V30 2970 C 273.671 -3.38441 0.132545 0
M  V30 2971 C 272.717 -4.11596 1.11763 0
M  V30 2972 S 273.55 -4.6521 2.65216 0
M  V30 2973 C 274.706 -5.91896 2.03495 0
M  V30 2974 H 274.939 -2.46518 1.66182 0
M  V30 2975 H 272.472 -1.21008 0.958976 0
M  V30 2976 H 274.43 -4.09883 -0.225074 0
M  V30 2977 H 273.091 -3.05182 -0.743135 0
M  V30 2978 H 272.284 -5.00121 0.624076 0
M  V30 2979 H 271.886 -3.46038 1.41894 0
M  V30 2980 H 274.178 -6.63156 1.38675 0
M  V30 2981 H 275.121 -6.45938 2.9012 0
M  V30 2982 H 275.529 -5.44625 1.48471 0
M  V30 2983 N 274.927 -0.932562 -1.27047 0
M  V30 2984 C 276.173 -0.576412 -1.94436 0
M  V30 2985 C 276.506 0.880891 -1.73072 0
M  V30 2986 O 275.781 1.62905 -1.06264 0
M  V30 2987 C 276.064 -0.909031 -3.48437 0
M  V30 2988 C 275.917 -2.42044 -3.79123 0
M  V30 2989 C 277.236 -0.418341 -4.38107 0
M  V30 2990 H 274.355 -0.210888 -0.706184 0
M  V30 2991 H 276.997 -1.16522 -1.50075 0
M  V30 2992 H 275.147 -0.407947 -3.86352 0
M  V30 2993 H 276.819 -2.99359 -3.50973 0
M  V30 2994 H 275.062 -2.86758 -3.25503 0
M  V30 2995 H 275.733 -2.6037 -4.86736 0
M  V30 2996 H 278.209 -0.847856 -4.0737 0
M  V30 2997 H 277.085 -0.679981 -5.44672 0
M  V30 2998 H 277.346 0.681642 -4.36814 0
M  V30 2999 N 276.405 1.4127 -0.698611 0
M  V30 3000 C 277.633 2.05503 -0.239992 0
M  V30 3001 C 278.048 1.52584 1.11191 0
M  V30 3002 O 277.405 0.675323 1.69545 0
M  V30 3003 C 277.456 3.60987 -0.192429 0
M  V30 3004 O 277.177 4.1195 -1.49094 0
M  V30 3005 C 278.678 4.42371 0.28681 0
M  V30 3006 H 275.898 0.661748 -0.111045 0
M  V30 3007 H 278.442 1.80987 -0.95205 0
M  V30 3008 H 276.597 3.84533 0.470472 0
M  V30 3009 H 277.011 5.06018 -1.38007 0
M  V30 3010 H 278.485 5.51344 0.26896 0
M  V30 3011 H 278.962 4.18699 1.32619 0
M  V30 3012 H 279.568 4.23897 -0.345201 0
M  V30 3013 N 277.883 0.443576 1.51229 0
M  V30 3014 C 279.132 -0.122332 2.01329 0
M  V30 3015 C 279.445 -1.43237 1.33201 0
M  V30 3016 O 280.651 -2.0816 1.74304 0
M  V30 3017 C 279.107 -0.268551 3.58897 0
M  V30 3018 C 278.715 1.03142 4.35965 0
M  V30 3019 C 280.459 -0.787894 4.17124 0
M  V30 3020 C 278.366 0.850504 5.85252 0
M  V30 3021 H 277.296 -0.0494929 0.752374 0
M  V30 3022 H 279.947 0.574289 1.74282 0
M  V30 3023 H 278.329 -1.02832 3.82415 0
M  V30 3024 H 279.503 1.80001 4.24189 0
M  V30 3025 H 277.818 1.47977 3.89219 0
M  V30 3026 H 280.415 -0.939841 5.26375 0
M  V30 3027 H 280.758 -1.77201 3.76703 0
M  V30 3028 H 281.291 -0.0862669 3.97706 0
M  V30 3029 H 278.03 1.80718 6.30096 0
M  V30 3030 H 277.55 0.121825 5.99676 0
M  V30 3031 H 279.229 0.506163 6.45017 0
M  V30 3032 N 279.361 -1.56624 0.175154 0
M  V30 3033 C 280.777 -1.58571 -0.180966 0
M  V30 3034 C 280.977 -1.19065 -1.6256 0
M  V30 3035 O 280.033 -0.904044 -2.35761 0
M  V30 3036 C 281.346 -3.00522 0.103326 0
M  V30 3037 C 282.894 -3.12972 0.0418426 0
M  V30 3038 C 283.369 -4.57022 0.299175 0
M  V30 3039 N 284.86 -4.62541 0.247086 0
M  V30 3040 C 285.595 -5.71857 0.420318 0
M  V30 3041 N 285.091 -6.89717 0.652816 0
M  V30 3042 N 286.884 -5.60972 0.355957 0
M  V30 3043 H 279.035 -1.80589 1.11809 0
M  V30 3044 H 281.298 -0.837178 0.444788 0
M  V30 3045 H 281.004 -3.33916 1.10422 0
M  V30 3046 H 280.878 -3.72344 -0.603299 0
M  V30 3047 H 283.265 -2.79403 -0.949636 0
M  V30 3048 H 283.346 -2.43578 0.781238 0
M  V30 3049 H 282.99 -4.913 1.28788 0
M  V30 3050 H 282.92 -5.24579 -0.460876 0
M  V30 3051 H 285.411 -3.77829 0.0731895 0
M  V30 3052 H 285.724 -7.68911 0.774347 0
M  V30 3053 H 284.069 -6.91572 0.689476 0
M  V30 3054 H 287.26 -4.67773 0.174882 0
M  V30 3055 H 287.433 -6.46111 0.494388 0
M  V30 3056 N 280.839 0.0985539 -1.57292 0
M  V30 3057 C 282.064 0.820196 -1.90493 0
M  V30 3058 C 282.489 1.71658 -0.769094 0
M  V30 3059 O 281.847 1.79133 0.279495 0
M  V30 3060 C 281.895 1.61242 -3.22542 0
M  V30 3061 O 280.999 2.72108 -3.09888 0
M  V30 3062 H 280.34 0.225547 -0.62452 0
M  V30 3063 H 282.87 0.0748159 -2.04463 0
M  V30 3064 H 282.88 1.99737 -3.55766 0
M  V30 3065 H 281.555 0.954535 -4.04798 0
M  V30 3066 H 280.132 2.36667 -2.88172 0
M  V30 3067 N 282.317 1.53212 0.369288 0
M  V30 3068 C 283.267 1.75769 1.45222 0
M  V30 3069 C 284.251 0.612136 1.48801 0
M  V30 3070 O 285.443 0.870674 1.54105 0
M  V30 3071 C 282.572 1.94769 2.82701 0
M  V30 3072 C 281.658 3.15315 2.83615 0
M  V30 3073 N 282.049 4.37295 2.54178 0
M  V30 3074 C 280.347 3.15962 3.14776 0
M  V30 3075 C 281.048 5.19015 2.62675 0
M  V30 3076 N 280.024 4.55142 2.97232 0
M  V30 3077 H 283.826 2.67691 1.2132 0
M  V30 3078 H 281.34 1.51787 0.577438 0
M  V30 3079 H 283.337 2.09056 3.60696 0
M  V30 3080 H 281.997 1.04073 3.07569 0
M  V30 3081 H 283.008 4.65091 2.27839 0
M  V30 3082 H 279.685 2.35144 3.44983 0
M  V30 3083 H 281.075 6.26305 2.43294 0
M  V30 3084 N 283.795 -0.628877 1.44509 0
M  V30 3085 C 284.728 -1.75367 1.46019 0
M  V30 3086 C 285.706 -1.59444 0.318787 0
M  V30 3087 O 286.89 -1.81297 0.516099 0
M  V30 3088 C 284.017 -3.12965 1.29501 0
M  V30 3089 C 283.063 -3.47532 2.47233 0
M  V30 3090 S 283.896 -3.44758 4.09758 0
M  V30 3091 C 285.052 -4.84973 3.95667 0
M  V30 3092 H 285.285 -1.7382 2.41193 0
M  V30 3093 H 282.818 -0.803686 1.31834 0
M  V30 3094 H 284.776 -3.92367 1.20658 0
M  V30 3095 H 283.437 -3.12049 0.358341 0
M  V30 3096 H 282.63 -4.47664 2.31544 0
M  V30 3097 H 282.232 -2.75598 2.52828 0
M  V30 3098 H 284.524 -5.74255 3.59496 0
M  V30 3099 H 285.467 -5.05716 4.95638 0
M  V30 3100 H 285.875 -4.59653 3.27688 0
M  V30 3101 N 285.273 -1.31445 -0.869486 0
M  V30 3102 C 286.203 -1.21727 -1.99261 0
M  V30 3103 C 287.184 -0.104359 -1.6978 0
M  V30 3104 O 288.369 -0.289038 -1.92037 0
M  V30 3105 C 285.499 -0.924317 -3.34774 0
M  V30 3106 C 284.453 -1.99685 -3.78563 0
M  V30 3107 C 283.779 -1.55658 -5.11541 0
M  V30 3108 C 285.079 -3.41003 -3.95619 0
M  V30 3109 H 286.773 -2.1569 -2.07649 0
M  V30 3110 H 284.319 -1.03839 -0.997675 0
M  V30 3111 H 286.272 -0.842934 -4.12883 0
M  V30 3112 H 284.996 0.0509793 -3.2656 0
M  V30 3113 H 283.655 -2.06813 -3.02694 0
M  V30 3114 H 283.303 -0.569132 -4.9977 0
M  V30 3115 H 283.003 -2.27409 -5.41811 0
M  V30 3116 H 284.527 -1.48928 -5.92159 0
M  V30 3117 H 285.941 -3.36547 -4.64122 0
M  V30 3118 H 284.338 -4.10975 -4.37286 0
M  V30 3119 H 285.408 -3.81754 -2.98985 0
M  V30 3120 N 286.751 1.08385 -1.14413 0
M  V30 3121 C 287.979 1.84517 -0.936001 0
M  V30 3122 C 288.394 1.81626 0.515503 0
M  V30 3123 O 287.751 1.22008 1.35721 0
M  V30 3124 C 287.802 3.32049 -1.42918 0
M  V30 3125 O 287.523 3.34951 -2.82381 0
M  V30 3126 C 289.024 4.24986 -1.26103 0
M  V30 3127 H 286.244 0.582491 -0.333084 0
M  V30 3128 H 288.788 1.36885 -1.5193 0
M  V30 3129 H 286.943 3.7707 -0.888641 0
M  V30 3130 H 287.357 4.27048 -3.04517 0
M  V30 3131 H 288.831 5.26615 -1.6547 0
M  V30 3132 H 289.308 4.38726 -0.20392 0
M  V30 3133 H 289.914 3.85791 -1.79012 0
M  V30 3134 N 288.23 0.939286 1.26551 0
M  V30 3135 C 289.641 0.628782 1.75793 0
M  V30 3136 C 289.992 -0.856046 1.7654 0
M  V30 3137 O 289.117 -1.66994 1.3763 0
M  V30 3138 C 289.712 1.13465 3.19235 0
M  V30 3139 C 288.271 0.874601 3.66098 0
M  V30 3140 C 287.418 1.28667 2.45642 0
M  V30 3141 H 290.369 1.1178 1.12654 0
M  V30 3142 H 290.39 0.487609 3.77363 0
M  V30 3143 H 289.902 2.21535 3.1866 0
M  V30 3144 H 288.003 -0.191793 3.72106 0
M  V30 3145 H 288.116 1.50028 4.55004 0
M  V30 3146 H 286.48 0.705109 2.44745 0
M  V30 3147 H 287.263 2.37625 2.47769 0
M  V30 3148 N 289.708 -1.40897 0.706093 0
M  V30 3149 C 290.955 -2.01054 0.241531 0
M  V30 3150 C 291.283 -1.55956 -1.16223 0
M  V30 3151 O 290.538 -0.766336 -1.80072 0
M  V30 3152 C 290.837 -3.5646 0.259099 0
M  V30 3153 C 290.503 -4.21106 1.61184 0
M  V30 3154 C 289.165 -4.38479 1.98216 0
M  V30 3155 C 291.517 -4.57256 2.50132 0
M  V30 3156 C 288.845 -4.89282 3.2376 0
M  V30 3157 C 291.197 -5.09454 3.7502 0
M  V30 3158 C 289.861 -5.25037 4.12181 0
M  V30 3159 H 289.131 -0.73571 0.0883825 0
M  V30 3160 H 291.778 -1.68645 0.907257 0
M  V30 3161 H 290.083 -3.88721 -0.490189 0
M  V30 3162 H 291.78 -4.00826 -0.11804 0
M  V30 3163 H 288.37 -4.07966 1.31384 0
M  V30 3164 H 292.554 -4.43479 2.228 0
M  V30 3165 H 287.81 -4.99531 3.52532 0
M  V30 3166 H 291.984 -5.36404 4.44121 0
M  V30 3167 H 289.611 -5.64164 5.09532 0
M  V30 3168 N 291.186 -0.45159 -1.50991 0
M  V30 3169 C 292.432 0.110237 -2.025 0
M  V30 3170 C 292.765 1.41109 -1.33424 0
M  V30 3171 O 292.04 1.89135 -0.453659 0
M  V30 3172 C 292.323 0.314271 -3.58726 0
M  V30 3173 C 292.176 -1.00623 -4.38401 0
M  V30 3174 C 293.495 1.07767 -4.26702 0
M  V30 3175 H 290.614 0.0385897 -0.735989 0
M  V30 3176 H 293.256 -0.593374 -1.80497 0
M  V30 3177 H 291.406 0.913601 -3.77605 0
M  V30 3178 H 293.078 -1.64064 -4.31139 0
M  V30 3179 H 291.321 -1.6075 -4.02917 0
M  V30 3180 H 291.992 -0.817341 -5.45915 0
M  V30 3181 H 294.468 0.56986 -4.12179 0
M  V30 3182 H 293.344 1.18921 -5.35863 0
M  V30 3183 H 293.605 2.10939 -3.88532 0
M  V30 3184 N 292.664 1.56529 -0.183458 0
M  V30 3185 C 293.574 2.22144 0.754272 0
M  V30 3186 C 294.59 1.21684 1.24374 0
M  V30 3187 O 295.766 1.54385 1.29333 0
M  V30 3188 C 292.831 2.85884 1.96141 0
M  V30 3189 C 291.892 4.01579 1.51765 0
M  V30 3190 C 291.125 4.6227 2.66725 0
M  V30 3191 O 291.348 4.21865 3.83909 0
M  V30 3192 O 290.282 5.51936 2.40104 0
M  V30 3193 H 294.108 3.02861 0.225527 0
M  V30 3194 H 291.693 1.49331 0.0453032 0
M  V30 3195 H 293.575 3.26253 2.66715 0
M  V30 3196 H 292.25 2.08154 2.47899 0
M  V30 3197 H 291.157 3.65856 0.781049 0
M  V30 3198 H 292.49 4.80938 1.04686 0
M  V30 3199 N 294.142 -0.090211 1.57342 0
M  V30 3200 C 295.052 -1.12735 2.05738 0
M  V30 3201 C 296.068 -1.43557 0.983231 0
M  V30 3202 O 297.244 -1.54101 1.29672 0
M  V30 3203 C 294.309 -2.42659 2.47624 0
M  V30 3204 C 293.37 -2.18975 3.69254 0
M  V30 3205 C 292.603 -3.42704 4.09133 0
M  V30 3206 O 292.826 -4.51127 3.49057 0
M  V30 3207 O 291.76 -3.32003 5.02053 0
M  V30 3208 H 295.586 -0.746279 2.94388 0
M  V30 3209 H 293.171 -0.303064 1.46294 0
M  V30 3210 H 295.053 -3.19155 2.7517 0
M  V30 3211 H 293.728 -2.80182 1.62109 0
M  V30 3212 H 292.635 -1.40244 3.46818 0
M  V30 3213 H 293.968 -1.86342 4.55563 0
M  V30 3214 N 295.62 -1.53406 -0.361157 0
M  V30 3215 C 296.568 -1.80832 -1.46296 0
M  V30 3216 C 297.562 -0.677699 -1.55253 0
M  V30 3217 O 298.768 -0.860723 -1.58087 0
M  V30 3218 H 295.143 -0.572627 -0.487445 0
M  V30 3219 H 297.114 -2.73045 -1.20371 0
M  V30 3220 C 295.863 -2.01907 -2.8307 0
M  V30 3221 H 295.186 -2.88349 -2.76938 0
M  V30 3222 H 296.626 -2.25072 -3.59331 0
M  V30 3223 C 295.085 -0.799449 -3.27277 0
M  V30 3224 O 295.615 0.00971761 -4.01699 0
M  V30 3225 N 293.821 -0.621637 -2.83873 0
M  V30 3226 H 293.368 -1.28126 -2.23476 0
M  V30 3227 H 293.326 0.19298 -3.13807 0
M  V30 3228 N 297.098 0.621204 -1.44841 0
M  V30 3229 C 298.028 1.74366 -1.55303 0
M  V30 3230 C 299.009 1.65199 -0.405385 0
M  V30 3231 O 300.194 1.83807 -0.626787 0
M  V30 3232 C 297.324 3.12931 -1.50637 0
M  V30 3233 C 296.278 3.36896 -2.63979 0
M  V30 3234 C 295.604 4.75594 -2.44366 0
M  V30 3235 C 296.904 3.28483 -4.06074 0
M  V30 3236 H 298.598 1.65867 -2.49256 0
M  V30 3237 H 296.144 0.796558 -1.19962 0
M  V30 3238 H 298.097 3.9124 -1.56555 0
M  V30 3239 H 296.821 3.22237 -0.532057 0
M  V30 3240 H 295.48 2.60972 -2.57467 0
M  V30 3241 H 295.128 4.81616 -1.45105 0
M  V30 3242 H 294.828 4.92586 -3.20364 0
M  V30 3243 H 296.352 5.5612 -2.52117 0
M  V30 3244 H 297.766 3.96684 -4.13902 0
M  V30 3245 H 296.163 3.57008 -4.82354 0
M  V30 3246 H 297.233 2.26133 -4.28943 0
M  V30 3247 N 298.576 1.31904 0.862503 0
M  V30 3248 C 299.822 1.22197 1.61851 0
M  V30 3249 C 300.155 -0.217641 1.92977 0
M  V30 3250 O 299.43 -1.15264 1.56666 0
M  V30 3251 C 299.713 2.07378 2.94391 0
M  V30 3252 C 299.566 3.59678 2.70096 0
M  V30 3253 C 300.885 1.92891 3.95577 0
M  V30 3254 H 298.004 0.445255 0.587296 0
M  V30 3255 H 300.646 1.6177 0.99651 0
M  V30 3256 H 298.796 1.73758 3.47477 0
M  V30 3257 H 300.468 4.03472 2.23625 0
M  V30 3258 H 298.711 3.82735 2.04197 0
M  V30 3259 H 299.382 4.14595 3.64438 0
M  V30 3260 H 301.858 2.22327 3.51724 0
M  V30 3261 H 300.734 2.54781 4.86187 0
M  V30 3262 H 300.995 0.894315 4.3296 0
M  V30 3263 N 300.054 -1.07777 1.14986 0
M  V30 3264 C 301.279 -1.84558 0.946213 0
M  V30 3265 C 301.704 -1.81323 -0.500362 0
M  V30 3266 O 301.062 -1.20301 -1.35637 0
M  V30 3267 C 301.11 -3.29736 1.45968 0
M  V30 3268 O 300.214 -4.07149 0.65601 0
M  V30 3269 H 299.555 -0.571641 0.33782 0
M  V30 3270 H 302.085 -1.35991 1.52865 0
M  V30 3271 H 302.095 -3.80574 1.47063 0
M  V30 3272 H 300.77 -3.31406 2.51283 0
M  V30 3273 H 299.347 -3.65994 0.714322 0
M  V30 3274 N 301.532 -0.945985 -1.26051 0
M  V30 3275 C 302.495 -0.463897 -2.24456 0
M  V30 3276 C 303.495 0.427655 -1.55009 0
M  V30 3277 O 304.685 0.226157 -1.72726 0
M  V30 3278 C 301.817 0.330812 -3.39291 0
M  V30 3279 H 303.01 -1.33357 -2.68619 0
M  V30 3280 H 300.563 -0.728416 -1.38289 0
M  V30 3281 H 301.298 1.21852 -3.00537 0
M  V30 3282 H 301.083 -0.308679 -3.90883 0
M  V30 3283 H 302.573 0.657865 -4.12386 0
M  V30 3284 N 303.011 1.40521 -0.713556 0
M  V30 3285 C 303.974 2.29098 -0.0684347 0
M  V30 3286 C 304.974 1.45268 0.689472 0
M  V30 3287 O 306.164 1.66205 0.521677 0
M  V30 3288 C 303.296 3.28446 0.913024 0
M  V30 3289 H 304.489 2.87645 -0.84855 0
M  V30 3290 H 302.042 1.48809 -0.47809 0
M  V30 3291 H 302.777 2.74913 1.72027 0
M  V30 3292 H 302.562 3.90327 0.372472 0
M  V30 3293 H 304.052 3.94777 1.36165 0
M  V30 3294 N 304.489 0.459591 1.5075 0
M  V30 3295 C 305.737 -0.0991532 2.01857 0
M  V30 3296 C 306.058 -1.41247 1.34441 0
M  V30 3297 O 305.328 -1.89775 0.486022 0
M  V30 3298 H 303.908 -0.039633 0.745948 0
M  V30 3299 H 306.57 0.607387 1.85194 0
M  V30 3300 H 305.666 -0.258998 3.11023 0
M  V30 3301 N 305.967 -1.56429 0.191757 0
M  V30 3302 C 307.215 -1.97095 -0.447006 0
M  V30 3303 C 307.536 -1.07967 -1.62383 0
M  V30 3304 O 306.806 -0.150248 -1.95323 0
M  V30 3305 H 305.386 -0.727832 -0.168135 0
M  V30 3306 H 308.048 -1.92911 0.27771 0
M  V30 3307 H 307.144 -3.01848 -0.793371 0
M  V30 3308 N 307.445 0.0818655 -1.57387 0
M  V30 3309 C 308.67 0.799946 -1.91352 0
M  V30 3310 C 309.095 1.70833 -0.787258 0
M  V30 3311 O 308.453 1.79419 0.26048 0
M  V30 3312 C 308.501 1.57812 -3.24234 0
M  V30 3313 O 307.605 2.68806 -3.12757 0
M  V30 3314 H 306.946 0.21891 -0.626877 0
M  V30 3315 H 309.476 0.0531256 -2.04531 0
M  V30 3316 H 309.486 1.95952 -3.57864 0
M  V30 3317 H 308.161 0.911548 -4.05788 0
M  V30 3318 H 306.738 2.33597 -2.90666 0
M  V30 3319 N 308.923 1.53595 0.353017 0
M  V30 3320 C 310.172 1.69603 1.09168 0
M  V30 3321 C 310.485 0.460925 1.90092 0
M  V30 3322 O 311.691 0.501774 2.66823 0
M  V30 3323 C 310.147 2.99872 1.9901 0
M  V30 3324 C 309.755 4.30687 1.23339 0
M  V30 3325 C 311.499 3.25246 2.72792 0
M  V30 3326 C 309.406 5.52036 2.12156 0
M  V30 3327 H 308.336 0.631966 0.411261 0
M  V30 3328 H 310.987 1.80096 0.351802 0
M  V30 3329 H 309.369 2.83212 2.7678 0
M  V30 3330 H 310.543 4.58019 0.505456 0
M  V30 3331 H 308.858 4.11853 0.613663 0
M  V30 3332 H 311.455 4.13095 3.39495 0
M  V30 3333 H 311.798 2.41846 3.38846 0
M  V30 3334 H 312.331 3.42638 2.021 0
M  V30 3335 H 309.07 6.37951 1.50659 0
M  V30 3336 H 308.59 5.28966 2.82764 0
M  V30 3337 H 310.269 5.87313 2.71427 0
M  V30 3338 N 310.401 -0.613514 1.45168 0
M  V30 3339 C 311.626 -1.40437 1.52618 0
M  V30 3340 C 312.051 -1.87438 0.157707 0
M  V30 3341 O 311.409 -1.59791 -0.856537 0
M  V30 3342 C 311.457 -2.58894 2.51011 0
M  V30 3343 O 310.561 -3.59326 2.02382 0
M  V30 3344 H 309.902 -0.419506 0.514695 0
M  V30 3345 H 312.432 -0.747215 1.90467 0
M  V30 3346 H 312.442 -3.06214 2.69624 0
M  V30 3347 H 311.117 -2.24032 3.50403 0
M  V30 3348 H 309.694 -3.18695 1.93618 0
M  V30 3349 N 311.879 -1.3236 -0.855495 0
M  V30 3350 C 312.829 -1.17809 -1.95205 0
M  V30 3351 C 313.813 -0.0852319 -1.60674 0
M  V30 3352 O 315.005 -0.311651 -1.74235 0
M  V30 3353 C 312.134 -0.902437 -3.31226 0
M  V30 3354 C 311.22 -2.03695 -3.7198 0
M  V30 3355 N 311.611 -3.28544 -3.84568 0
M  V30 3356 C 309.909 -1.93993 -4.016 0
M  V30 3357 C 310.61 -4.02847 -4.19629 0
M  V30 3358 N 309.586 -3.31138 -4.31102 0
M  V30 3359 H 313.388 -2.12462 -2.0307 0
M  V30 3360 H 310.902 -1.24127 -1.0472 0
M  V30 3361 H 312.899 -0.77915 -4.09554 0
M  V30 3362 H 311.559 0.0357267 -3.2468 0
M  V30 3363 H 312.57 -3.6349 -3.68911 0
M  V30 3364 H 309.247 -1.07733 -4.03361 0
M  V30 3365 H 310.637 -5.10506 -4.36845 0
M  V30 3366 N 313.357 1.07166 -1.15556 0
M  V30 3367 C 314.289 2.14341 -0.811815 0
M  V30 3368 C 315.302 1.61835 0.177015 0
M  V30 3369 O 316.491 1.78439 -0.0464996 0
M  V30 3370 C 313.591 3.38387 -0.186481 0
M  V30 3371 C 312.764 4.20238 -1.21321 0
M  V30 3372 C 311.823 5.2266 -0.609302 0
M  V30 3373 O 310.849 5.54719 -1.27576 0
M  V30 3374 N 312.051 5.77306 0.608099 0
M  V30 3375 H 314.816 2.44431 -1.73417 0
M  V30 3376 H 312.377 1.23089 -1.0517 0
M  V30 3377 H 314.369 4.04044 0.230339 0
M  V30 3378 H 312.939 3.05994 0.639249 0
M  V30 3379 H 312.159 3.50369 -1.80652 0
M  V30 3380 H 313.447 4.71736 -1.90638 0
M  V30 3381 H 312.845 5.53513 1.1679 0
M  V30 3382 H 311.402 6.44583 0.96725 0
M  V30 3383 N 314.835 0.952656 1.25548 0
M  V30 3384 C 316.081 0.607272 1.93494 0
M  V30 3385 C 316.414 -0.853245 1.74452 0
M  V30 3386 O 315.689 -1.61194 1.08843 0
M  V30 3387 C 315.972 0.96435 3.46947 0
M  V30 3388 C 315.825 2.48045 3.75225 0
M  V30 3389 C 317.144 0.487987 4.37386 0
M  V30 3390 H 314.263 0.222096 0.702739 0
M  V30 3391 H 316.905 1.18895 1.48203 0
M  V30 3392 H 315.055 0.469361 3.85654 0
M  V30 3393 H 316.727 3.04905 3.46166 0
M  V30 3394 H 314.97 2.919 3.209 0
M  V30 3395 H 315.641 2.6808 4.82532 0
M  V30 3396 H 318.117 0.912558 4.0597 0
M  V30 3397 H 316.993 0.766547 5.43521 0
M  V30 3398 H 317.254 -0.612063 4.37843 0
M  V30 3399 N 316.313 -1.40141 0.720998 0
M  V30 3400 C 317.538 -2.05618 0.271258 0
M  V30 3401 C 317.963 -1.53978 -1.08039 0
M  V30 3402 O 317.321 -0.677463 -1.68167 0
M  V30 3403 C 317.369 -3.59609 0.267197 0
M  V30 3404 O 316.473 -4.05526 -0.749814 0
M  V30 3405 H 315.814 -0.651904 0.126162 0
M  V30 3406 H 318.344 -1.79439 0.982997 0
M  V30 3407 H 318.354 -4.0786 0.106744 0
M  V30 3408 H 317.029 -3.96559 1.25354 0
M  V30 3409 H 315.606 -3.68722 -0.556644 0
M  V30 3410 N 317.792 -0.46758 -1.50504 0
M  V30 3411 C 319.039 0.0886219 -2.02306 0
M  V30 3412 C 319.367 1.40037 -1.34981 0
M  V30 3413 O 318.622 1.90136 -0.463318 0
M  V30 3414 C 318.921 0.323995 -3.55928 0
M  V30 3415 C 318.587 -0.905618 -4.41712 0
M  V30 3416 C 317.249 -1.24275 -4.64875 0
M  V30 3417 C 319.601 -1.72448 -4.91845 0
M  V30 3418 C 316.929 -2.39888 -5.35417 0
M  V30 3419 C 319.281 -2.87185 -5.63656 0
M  V30 3420 C 317.945 -3.21317 -5.85074 0
M  V30 3421 H 317.215 0.0324291 -0.74029 0
M  V30 3422 H 319.862 -0.620945 -1.81153 0
M  V30 3423 H 318.167 1.11577 -3.75577 0
M  V30 3424 H 319.864 0.76826 -3.93572 0
M  V30 3425 H 316.454 -0.632956 -4.239 0
M  V30 3426 H 320.638 -1.4772 -4.73806 0
M  V30 3427 H 315.894 -2.66611 -5.50208 0
M  V30 3428 H 320.068 -3.50985 -6.01484 0
M  V30 3429 H 317.695 -4.1101 -6.39511 0
M  V30 3430 N 319.27 1.56325 -0.20005 0
M  V30 3431 C 320.495 2.02548 0.44597 0
M  V30 3432 C 320.92 1.07922 1.5406 0
M  V30 3433 O 320.278 0.0635775 1.81188 0
M  V30 3434 C 320.326 3.47175 0.974761 0
M  V30 3435 O 319.43 3.55671 2.08739 0
M  V30 3436 H 318.771 0.655862 0.103638 0
M  V30 3437 H 321.301 2.02201 -0.312381 0
M  V30 3438 H 321.311 3.87067 1.2901 0
M  V30 3439 H 319.986 4.15538 0.17347 0
M  V30 3440 H 318.563 3.27657 1.78032 0
M  V30 3441 N 320.748 -0.0735177 1.57428 0
M  V30 3442 C 321.978 -0.78483 1.91112 0
M  V30 3443 C 322.386 -1.71729 0.7941 0
M  V30 3444 O 321.729 -1.82105 -0.241542 0
M  V30 3445 C 321.791 -1.63346 3.20247 0
M  V30 3446 C 321.455 -0.870557 4.48632 0
M  V30 3447 C 322.452 -0.19058 5.19551 0
M  V30 3448 C 320.137 -0.838242 4.95256 0
M  V30 3449 C 322.131 0.511503 6.35344 0
M  V30 3450 C 319.818 -0.132386 6.10957 0
M  V30 3451 C 320.816 0.541288 6.80852 0
M  V30 3452 O 320.504 1.23578 7.94345 0
M  V30 3453 H 320.236 -0.228408 0.636244 0
M  V30 3454 H 322.79 -0.0486039 2.05342 0
M  V30 3455 H 321.02 -2.41245 3.02222 0
M  V30 3456 H 322.709 -2.22329 3.39595 0
M  V30 3457 H 323.475 -0.206864 4.84559 0
M  V30 3458 H 319.354 -1.35206 4.40727 0
M  V30 3459 H 322.898 1.03789 6.89836 0
M  V30 3460 H 318.795 -0.114023 6.45399 0
M  V30 3461 H 319.563 1.14487 8.10454 0
M  V30 3462 N 322.226 -1.5378 -0.344866 0
M  V30 3463 C 323.473 -1.70963 -1.08526 0
M  V30 3464 C 323.801 -0.472126 -1.88683 0
M  V30 3465 O 323.056 0.546116 -1.87926 0
M  V30 3466 C 323.355 -2.92407 -2.05506 0
M  V30 3467 C 323.021 -4.28066 -1.41671 0
M  V30 3468 C 321.683 -4.64951 -1.2399 0
M  V30 3469 C 324.035 -5.12344 -0.956726 0
M  V30 3470 C 321.363 -5.83733 -0.589277 0
M  V30 3471 C 323.715 -6.3179 -0.320015 0
M  V30 3472 C 322.379 -6.67372 -0.130881 0
M  V30 3473 H 321.649 -0.625598 -0.397124 0
M  V30 3474 H 324.296 -1.87995 -0.36469 0
M  V30 3475 H 322.601 -2.69973 -2.8394 0
M  V30 3476 H 324.298 -3.02895 -2.62784 0
M  V30 3477 H 320.888 -3.99034 -1.56429 0
M  V30 3478 H 325.072 -4.8438 -1.08118 0
M  V30 3479 H 320.328 -6.09877 -0.431344 0
M  V30 3480 H 324.502 -6.96386 0.0445072 0
M  V30 3481 H 322.129 -7.59273 0.375318 0
M  V30 3482 N 323.704 0.605807 -1.45491 0
M  V30 3483 C 324.652 1.73754 -1.54636 0
M  V30 3484 C 325.646 1.64207 -0.416219 0
M  V30 3485 O 326.852 1.69979 -0.592199 0
M  V30 3486 H 323.227 0.574073 -0.485741 0
M  V30 3487 H 325.198 1.63169 -2.49837 0
M  V30 3488 C 323.947 3.12135 -1.53189 0
M  V30 3489 H 323.27 3.20141 -2.39478 0
M  V30 3490 H 324.71 3.91147 -1.63645 0
M  V30 3491 C 323.169 3.35921 -0.256616 0
M  V30 3492 O 323.699 3.96194 0.662798 0
M  V30 3493 N 321.905 2.90204 -0.151751 0
M  V30 3494 H 321.452 2.41336 -0.90081 0
M  V30 3495 H 321.41 3.06492 0.700699 0
M  V30 3496 N 325.182 1.32811 0.848464 0
M  V30 3497 C 326.145 1.22194 1.9391 0
M  V30 3498 C 327.145 0.143404 1.60159 0
M  V30 3499 O 328.335 0.394253 1.6968 0
M  V30 3500 C 325.467 0.88067 3.29328 0
M  V30 3501 H 326.66 2.19127 2.04752 0
M  V30 3502 H 324.213 1.16731 1.0394 0
M  V30 3503 H 324.948 -0.0865776 3.24184 0
M  V30 3504 H 324.733 1.66052 3.55203 0
M  V30 3505 H 326.223 0.830871 4.09251 0
M  V30 3506 N 326.66 -1.06551 1.16123 0
M  V30 3507 C 327.907 -1.79302 0.941126 0
M  V30 3508 C 328.235 -1.87105 -0.531235 0
M  V30 3509 O 327.49 -1.35692 -1.41018 0
M  V30 3510 C 327.789 -3.23911 1.51052 0
M  V30 3511 C 327.455 -3.36193 3.00475 0
M  V30 3512 C 326.117 -3.39252 3.41265 0
M  V30 3513 C 328.469 -3.38326 3.96465 0
M  V30 3514 C 325.797 -3.42057 4.76669 0
M  V30 3515 C 328.149 -3.4267 5.31752 0
M  V30 3516 C 326.813 -3.4401 5.72026 0
M  V30 3517 H 326.083 -0.656111 0.344382 0
M  V30 3518 H 328.73 -1.25325 1.44796 0
M  V30 3519 H 327.035 -3.80723 0.925063 0
M  V30 3520 H 328.732 -3.78793 1.31593 0
M  V30 3521 H 325.322 -3.34516 2.6795 0
M  V30 3522 H 329.506 -3.35176 3.6602 0
M  V30 3523 H 324.762 -3.41398 5.07206 0
M  V30 3524 H 328.936 -3.43268 6.05921 0
M  V30 3525 H 326.563 -3.45937 6.76928 0
M  V30 3526 N 328.138 -0.959301 -1.25041 0
M  V30 3527 C 329.086 -0.474437 -2.2771 0
M  V30 3528 C 330.08 0.457697 -1.631 0
M  V30 3529 O 331.286 0.333912 -1.76876 0
M  V30 3530 H 327.661 -0.134936 -0.739795 0
M  V30 3531 H 329.632 -1.35251 -2.65988 0
M  V30 3532 C 328.381 0.227884 -3.46952 0
M  V30 3533 H 327.704 -0.480248 -3.96905 0
M  V30 3534 H 329.144 0.531091 -4.20661 0
M  V30 3535 C 327.603 1.452 -3.04004 0
M  V30 3536 O 328.133 2.54949 -3.10426 0
M  V30 3537 N 326.339 1.31502 -2.59144 0
M  V30 3538 H 325.886 0.422065 -2.54119 0
M  V30 3539 H 325.844 2.13521 -2.30773 0
M  V30 3540 N 329.616 1.39756 -0.72842 0
M  V30 3541 C 330.841 2.05472 -0.282159 0
M  V30 3542 C 331.266 1.54549 1.07221 0
M  V30 3543 O 330.624 0.686372 1.67805 0
M  V30 3544 C 330.672 3.59462 -0.286264 0
M  V30 3545 O 329.776 4.05918 0.728298 0
M  V30 3546 H 329.117 0.651226 -0.129618 0
M  V30 3547 H 331.647 1.78915 -0.992499 0
M  V30 3548 H 331.657 4.07798 -0.128373 0
M  V30 3549 H 330.332 3.95889 -1.27456 0
M  V30 3550 H 328.909 3.69012 0.537081 0
M  V30 3551 N 331.094 0.475555 1.50254 0
M  V30 3552 C 332.024 -0.30611 2.31485 0
M  V30 3553 C 333.005 -0.986228 1.38591 0
M  V30 3554 O 334.19 -0.982541 1.67511 0
M  V30 3555 C 331.32 -1.38588 3.1845 0
M  V30 3556 C 330.274 -0.827115 4.19932 0
M  V30 3557 C 329.6 -2.00551 4.95665 0
M  V30 3558 C 330.9 0.16463 5.2204 0
M  V30 3559 H 332.594 0.371866 2.97082 0
M  V30 3560 H 330.14 0.180282 1.42867 0
M  V30 3561 H 332.093 -1.94023 3.74076 0
M  V30 3562 H 330.817 -2.09269 2.50747 0
M  V30 3563 H 329.476 -0.294702 3.65414 0
M  V30 3564 H 329.124 -2.6994 4.2443 0
M  V30 3565 H 328.824 -1.63784 5.64313 0
M  V30 3566 H 330.348 -2.56468 5.54127 0
M  V30 3567 H 331.762 -0.300699 5.72511 0
M  V30 3568 H 330.159 0.446813 5.98434 0
M  V30 3569 H 331.229 1.08905 4.72512 0
M  V30 3570 N 332.573 -1.56217 0.208337 0
M  V30 3571 C 333.503 -2.22694 -0.702116 0
M  V30 3572 C 334.484 -1.19432 -1.2112 0
M  V30 3573 O 335.669 -1.47978 -1.25762 0
M  V30 3574 C 332.799 -2.8966 -1.9161 0
M  V30 3575 C 331.753 -3.9928 -1.5414 0
M  V30 3576 C 331.079 -4.53476 -2.83308 0
M  V30 3577 C 332.379 -5.17012 -0.741339 0
M  V30 3578 H 334.073 -2.99034 -0.147898 0
M  V30 3579 H 331.619 -1.43831 -0.0696951 0
M  V30 3580 H 333.572 -3.34852 -2.55836 0
M  V30 3581 H 332.296 -2.10746 -2.49507 0
M  V30 3582 H 330.955 -3.54799 -0.922668 0
M  V30 3583 H 330.603 -3.71308 -3.39322 0
M  V30 3584 H 330.303 -5.27451 -2.58976 0
M  V30 3585 H 331.827 -5.01378 -3.485 0
M  V30 3586 H 333.241 -5.58667 -1.28699 0
M  V30 3587 H 331.638 -5.97137 -0.595627 0
M  V30 3588 H 332.708 -4.8423 0.254851 0
M  V30 3589 N 334.051 0.0651679 -1.57465 0
M  V30 3590 C 334.999 1.09542 -2.05191 0
M  V30 3591 C 335.993 1.39675 -0.958509 0
M  V30 3592 O 337.199 1.39003 -1.14359 0
M  V30 3593 H 333.574 0.370623 -0.654326 0
M  V30 3594 H 335.545 0.666802 -2.90854 0
M  V30 3595 C 334.294 2.39881 -2.51699 0
M  V30 3596 H 333.617 2.17547 -3.3543 0
M  V30 3597 H 335.057 3.104 -2.88839 0
M  V30 3598 C 333.516 3.0631 -1.40271 0
M  V30 3599 O 334.046 3.94664 -0.748523 0
M  V30 3600 N 332.252 2.67041 -1.14618 0
M  V30 3601 H 331.799 1.95281 -1.67997 0
M  V30 3602 H 331.757 3.1181 -0.402688 0
M  V30 3603 N 335.529 1.53961 0.336706 0
M  V30 3604 C 336.477 1.83136 1.43401 0
M  V30 3605 C 337.471 0.702313 1.54156 0
M  V30 3606 O 338.677 0.885765 1.56698 0
M  V30 3607 H 335.052 0.580309 0.478273 0
M  V30 3608 H 337.023 2.74925 1.16012 0
M  V30 3609 C 335.772 2.06385 2.79822 0
M  V30 3610 H 335.095 2.92718 2.72316 0
M  V30 3611 H 336.535 2.30761 3.55704 0
M  V30 3612 C 334.994 0.851414 3.25964 0
M  V30 3613 O 335.524 0.0541904 4.01663 0
M  V30 3614 N 333.73 0.66672 2.82848 0
M  V30 3615 H 333.277 1.31665 2.21409 0
M  V30 3616 H 333.235 -0.143032 3.14074 0
M  V30 3617 N 337.007 -0.598083 1.45811 0
M  V30 3618 C 337.94 -1.7223 1.49706 0
M  V30 3619 C 338.918 -1.58732 0.352535 0
M  V30 3620 O 340.102 -1.80162 0.554438 0
M  V30 3621 C 337.229 -3.10148 1.3611 0
M  V30 3622 C 336.275 -3.42209 2.54549 0
M  V30 3623 S 337.108 -3.35989 4.16979 0
M  V30 3624 C 338.264 -4.76471 4.05865 0
M  V30 3625 H 338.497 -1.68665 2.44826 0
M  V30 3626 H 336.03 -0.775541 1.33509 0
M  V30 3627 H 337.988 -3.8972 1.28953 0
M  V30 3628 H 336.649 -3.11219 0.424451 0
M  V30 3629 H 335.842 -4.42652 2.40988 0
M  V30 3630 H 335.444 -2.70173 2.58617 0
M  V30 3631 H 337.736 -5.665 3.71596 0
M  V30 3632 H 338.679 -4.95089 5.06253 0
M  V30 3633 H 339.087 -4.52599 3.37364 0
M  V30 3634 N 338.485 -1.33259 -0.841409 0
M  V30 3635 C 339.395 -1.25332 -1.98316 0
M  V30 3636 C 340.411 -0.164364 -1.73222 0
M  V30 3637 O 341.587 -0.387486 -1.97637 0
M  V30 3638 C 338.652 -0.990078 -3.32262 0
M  V30 3639 C 337.713 -2.16879 -3.70489 0
M  V30 3640 C 336.946 -1.91801 -4.98044 0
M  V30 3641 O 337.169 -0.867075 -5.63771 0
M  V30 3642 O 336.103 -2.78267 -5.33714 0
M  V30 3643 H 339.929 -2.21344 -2.07944 0
M  V30 3644 H 337.514 -1.1328 -0.974058 0
M  V30 3645 H 339.396 -0.860321 -4.12524 0
M  V30 3646 H 338.071 -0.0602155 -3.23644 0
M  V30 3647 H 336.978 -2.35407 -2.90748 0
M  V30 3648 H 338.311 -3.0819 -3.8377 0
M  V30 3649 N 339.963 1.05934 -1.16686 0
M  V30 3650 C 340.893 2.1546 -0.899949 0
M  V30 3651 C 341.874 1.69391 0.155154 0
M  V30 3652 O 343.059 1.94199 0.00648693 0
M  V30 3653 C 340.189 3.44939 -0.404241 0
M  V30 3654 C 339.143 4.04536 -1.39767 0
M  V30 3655 C 338.469 5.29268 -0.760216 0
M  V30 3656 C 339.769 4.42893 -2.76845 0
M  V30 3657 H 341.463 2.38046 -1.81588 0
M  V30 3658 H 339.009 1.14404 -0.874514 0
M  V30 3659 H 340.962 4.20901 -0.204971 0
M  V30 3660 H 339.686 3.21983 0.547206 0
M  V30 3661 H 338.345 3.30635 -1.58355 0
M  V30 3662 H 337.993 5.02611 0.197831 0
M  V30 3663 H 337.693 5.70101 -1.42332 0
M  V30 3664 H 339.217 6.07924 -0.57105 0
M  V30 3665 H 340.631 5.09921 -2.62019 0
M  V30 3666 H 339.028 4.94721 -3.39663 0
M  V30 3667 H 340.098 3.53584 -3.31823 0
M  V30 3668 N 341.441 0.965919 1.2453 0
M  V30 3669 C 342.687 0.62776 1.92839 0
M  V30 3670 C 343.02 -0.834694 1.75347 0
M  V30 3671 O 342.295 -1.60031 1.10546 0
M  V30 3672 C 342.578 1.00109 3.45905 0
M  V30 3673 C 342.431 2.52011 3.72573 0
M  V30 3674 C 343.75 0.53435 4.36844 0
M  V30 3675 H 340.869 0.229537 0.700344 0
M  V30 3676 H 343.511 1.2046 1.46933 0
M  V30 3677 H 341.661 0.510238 3.85135 0
M  V30 3678 H 343.333 3.08559 3.42912 0
M  V30 3679 H 341.576 2.95287 3.17786 0
M  V30 3680 H 342.247 2.73183 4.79661 0
M  V30 3681 H 344.723 0.955565 4.04979 0
M  V30 3682 H 343.599 0.824152 5.42678 0
M  V30 3683 H 343.86 -0.565589 4.38467 0
M  V30 3684 N 342.919 -1.39368 0.735821 0
M  V30 3685 C 344.335 -1.54204 0.411492 0
M  V30 3686 C 344.535 -1.70268 -1.07755 0
M  V30 3687 O 343.591 -1.70364 -1.86366 0
M  V30 3688 C 344.904 -2.75925 1.19523 0
M  V30 3689 C 346.452 -2.89761 1.18354 0
M  V30 3690 C 346.927 -4.14421 1.94986 0
M  V30 3691 N 348.418 -4.21462 1.92156 0
M  V30 3692 C 349.153 -5.16871 2.48258 0
M  V30 3693 N 348.649 -6.18063 3.13001 0
M  V30 3694 N 350.442 -5.09093 2.38287 0
M  V30 3695 H 342.593 -1.27189 1.70108 0
M  V30 3696 H 344.856 -0.616517 0.720147 0
M  V30 3697 H 344.562 -2.70401 2.24892 0
M  V30 3698 H 344.436 -3.68614 0.800222 0
M  V30 3699 H 346.823 -2.94777 0.137975 0
M  V30 3700 H 346.904 -1.98133 1.61793 0
M  V30 3701 H 346.548 -4.10166 2.99543 0
M  V30 3702 H 346.478 -5.05095 1.48953 0
M  V30 3703 H 348.969 -3.48979 1.44991 0
M  V30 3704 H 349.282 -6.87326 3.53275 0
M  V30 3705 H 347.627 -6.18448 3.17091 0
M  V30 3706 H 350.818 -4.28973 1.8735 0
M  V30 3707 H 350.991 -5.83272 2.82308 0
M  V30 3708 N 344.397 -0.483516 -1.5 0
M  V30 3709 C 345.344 0.304164 -2.28787 0
M  V30 3710 C 346.314 0.976114 -1.34392 0
M  V30 3711 O 347.499 0.986156 -1.63339 0
M  V30 3712 C 344.639 1.37298 -3.16612 0
M  V30 3713 C 343.752 0.714561 -4.26049 0
M  V30 3714 C 342.887 1.76232 -5.01114 0
M  V30 3715 C 341.926 1.08483 -6.0241 0
M  V30 3716 N 341.063 2.076 -6.70706 0
M  V30 3717 H 345.903 -0.373981 -2.95644 0
M  V30 3718 H 343.44 -0.196275 -1.45785 0
M  V30 3719 H 345.398 2.00445 -3.65893 0
M  V30 3720 H 344.028 2.02012 -2.51776 0
M  V30 3721 H 343.08 -0.0297798 -3.80388 0
M  V30 3722 H 344.392 0.180383 -4.98474 0
M  V30 3723 H 343.546 2.46929 -5.54176 0
M  V30 3724 H 342.285 2.33033 -4.28424 0
M  V30 3725 H 341.29 0.363545 -5.48597 0
M  V30 3726 H 342.515 0.523551 -6.77079 0
M  V30 3727 H 340.461 2.63394 -6.00799 0
M  V30 3728 H 340.378 1.59201 -7.39047 0
M  V30 3729 H 341.646 2.77639 -7.2838 0
M  V30 3730 N 345.875 1.56104 -0.216619 0
M  V30 3731 C 347.124 1.97348 0.416744 0
M  V30 3732 C 347.437 1.10715 1.6125 0
M  V30 3733 O 348.643 1.41836 2.31506 0
M  V30 3734 C 347.099 3.51059 0.792835 0
M  V30 3735 C 346.707 4.46387 -0.379828 0
M  V30 3736 C 348.451 4.01026 1.39208 0
M  V30 3737 C 346.358 5.91397 0.0184223 0
M  V30 3738 H 345.288 0.736942 0.159475 0
M  V30 3739 H 347.939 1.80827 -0.31205 0
M  V30 3740 H 346.321 3.63162 1.57891 0
M  V30 3741 H 347.495 4.46029 -1.15737 0
M  V30 3742 H 345.81 4.06734 -0.891979 0
M  V30 3743 H 348.407 5.0686 1.70286 0
M  V30 3744 H 348.75 3.46587 2.30614 0
M  V30 3745 H 349.283 3.92125 0.669537 0
M  V30 3746 H 346.022 6.49807 -0.862002 0
M  V30 3747 H 345.542 5.94961 0.760384 0
M  V30 3748 H 347.221 6.45455 0.446818 0
M  V30 3749 N 347.353 -0.0568162 1.57498 0
M  V30 3750 C 348.583 -0.764515 1.91934 0
M  V30 3751 C 348.991 -1.70877 0.81227 0
M  V30 3752 O 348.334 -1.82351 -0.222213 0
M  V30 3753 C 348.396 -1.5994 3.21962 0
M  V30 3754 C 348.06 -0.822925 4.4953 0
M  V30 3755 C 349.057 -0.135464 5.19723 0
M  V30 3756 C 346.742 -0.785666 4.96117 0
M  V30 3757 C 348.736 0.578861 6.34766 0
M  V30 3758 C 346.423 -0.0675784 6.11063 0
M  V30 3759 C 347.421 0.613471 6.80239 0
M  V30 3760 O 347.109 1.31996 7.92989 0
M  V30 3761 H 346.841 -0.221647 0.63863 0
M  V30 3762 H 349.395 -0.0268218 2.05382 0
M  V30 3763 H 347.625 -2.38026 3.04763 0
M  V30 3764 H 349.314 -2.18715 3.41934 0
M  V30 3765 H 350.08 -0.155458 4.84751 0
M  V30 3766 H 345.959 -1.30524 4.42136 0
M  V30 3767 H 349.503 1.111 6.88696 0
M  V30 3768 H 345.4 -0.0455636 6.45484 0
M  V30 3769 H 346.168 1.23077 8.09194 0
M  V30 3770 N 348.832 -1.54138 -0.328536 0
M  V30 3771 C 350.057 -1.76378 -1.09112 0
M  V30 3772 C 350.482 -0.508596 -1.81094 0
M  V30 3773 O 349.84 0.539598 -1.73084 0
M  V30 3774 C 349.888 -2.95358 -2.06872 0
M  V30 3775 O 348.992 -2.66556 -3.14677 0
M  V30 3776 H 348.333 -0.584614 -0.314838 0
M  V30 3777 H 350.863 -2.01146 -0.374348 0
M  V30 3778 H 350.873 -3.22566 -2.4983 0
M  V30 3779 H 349.548 -3.86385 -1.5388 0
M  V30 3780 H 348.125 -2.50282 -2.7643 0
M  V30 3781 N 350.31 0.590341 -1.46126 0
M  V30 3782 C 351.538 1.37504 -1.54597 0
M  V30 3783 C 351.953 1.87897 -0.184447 0
M  V30 3784 O 351.31 1.63192 0.816984 0
M  V30 3785 C 351.361 2.56779 -2.54454 0
M  V30 3786 O 351.082 2.08476 -3.85317 0
M  V30 3787 C 352.583 3.49427 -2.72792 0
M  V30 3788 H 349.803 0.420325 -0.523037 0
M  V30 3789 H 352.347 0.718383 -1.91467 0
M  V30 3790 H 350.502 3.1845 -2.20609 0
M  V30 3791 H 350.916 2.86097 -4.396 0
M  V30 3792 H 352.39 4.29619 -3.466 0
M  V30 3793 H 352.867 4.00876 -1.79429 0
M  V30 3794 H 353.473 2.93598 -3.07702 0
M  V30 3795 N 351.788 1.33704 0.83433 0
M  V30 3796 C 352.718 1.26967 1.95963 0
M  V30 3797 C 353.699 0.149337 1.69443 0
M  V30 3798 O 354.884 0.339852 1.91203 0
M  V30 3799 C 352.014 1.01275 3.32206 0
M  V30 3800 C 350.968 2.09652 3.73136 0
M  V30 3801 C 350.294 1.69166 5.07235 0
M  V30 3802 C 351.594 3.51372 3.86439 0
M  V30 3803 H 353.288 2.2112 2.01857 0
M  V30 3804 H 350.834 1.06447 0.969793 0
M  V30 3805 H 352.787 0.952106 4.10503 0
M  V30 3806 H 351.511 0.0356203 3.26581 0
M  V30 3807 H 350.17 2.14766 2.97104 0
M  V30 3808 H 349.818 0.701437 4.98085 0
M  V30 3809 H 349.518 2.41694 5.35591 0
M  V30 3810 H 351.042 1.64576 5.88003 0
M  V30 3811 H 352.456 3.48734 4.55036 0
M  V30 3812 H 350.853 4.22425 4.26236 0
M  V30 3813 H 351.923 3.89546 2.88759 0
M  V30 3814 N 353.266 -1.05314 1.17247 0
M  V30 3815 C 354.229 -2.112 0.890357 0
M  V30 3816 C 355.229 -1.60359 -0.118943 0
M  V30 3817 O 356.419 -1.73833 0.113086 0
M  V30 3818 C 353.551 -3.39266 0.333422 0
M  V30 3819 H 354.744 -2.37659 1.82916 0
M  V30 3820 H 352.297 -1.21538 0.982758 0
M  V30 3821 H 353.032 -3.18462 -0.612587 0
M  V30 3822 H 352.817 -3.77477 1.06082 0
M  V30 3823 H 354.307 -4.17315 0.154322 0
M  V30 3824 N 354.744 -0.972509 -1.24016 0
M  V30 3825 C 355.992 -0.635776 -1.91839 0
M  V30 3826 C 356.313 0.832312 -1.76345 0
M  V30 3827 O 355.583 1.5946 -1.13795 0
M  V30 3828 H 354.163 -0.232157 -0.710009 0
M  V30 3829 H 356.825 -1.23462 -1.50809 0
M  V30 3830 H 355.921 -0.880545 -2.99421 0
M  V30 3831 N 356.222 1.38976 -0.743202 0
M  V30 3832 C 357.45 2.04636 -0.30525 0
M  V30 3833 C 357.865 1.56044 1.06281 0
M  V30 3834 O 357.222 0.728921 1.67311 0
M  V30 3835 C 357.273 3.60193 -0.307177 0
M  V30 3836 O 356.994 4.06998 -1.62124 0
M  V30 3837 C 358.495 4.4306 0.145928 0
M  V30 3838 H 355.715 0.65788 -0.132041 0
M  V30 3839 H 358.259 1.77866 -1.00915 0
M  V30 3840 H 356.414 3.85835 0.347898 0
M  V30 3841 H 356.828 5.01371 -1.54036 0
M  V30 3842 H 358.302 5.51921 0.0934183 0
M  V30 3843 H 358.779 4.22706 1.19231 0
M  V30 3844 H 359.385 4.22584 -0.479886 0
M  V30 3845 N 357.7 0.491464 1.49741 0
M  V30 3846 C 359.116 0.146835 1.58923 0
M  V30 3847 C 359.316 -1.34804 1.49767 0
M  V30 3848 O 358.372 -2.12317 1.36667 0
M  V30 3849 C 359.685 0.715157 2.92072 0
M  V30 3850 C 361.233 0.680407 3.05515 0
M  V30 3851 C 361.708 1.22663 4.41269 0
M  V30 3852 N 363.199 1.18691 4.47735 0
M  V30 3853 C 363.934 1.57984 5.51207 0
M  V30 3854 N 363.43 2.04824 6.6183 0
M  V30 3855 N 365.223 1.49459 5.41866 0
M  V30 3856 H 357.374 1.46347 1.53936 0
M  V30 3857 H 359.637 0.606453 0.728642 0
M  V30 3858 H 359.343 1.76317 3.04311 0
M  V30 3859 H 359.217 0.17018 3.76816 0
M  V30 3860 H 361.604 -0.358743 2.92911 0
M  V30 3861 H 361.685 1.26242 2.22478 0
M  V30 3862 H 361.329 2.26451 4.54623 0
M  V30 3863 H 361.259 0.620637 5.2293 0
M  V30 3864 H 363.75 0.843605 3.68364 0
M  V30 3865 H 364.063 2.32901 7.3687 0
M  V30 3866 H 362.408 2.08791 6.62896 0
M  V30 3867 H 365.599 1.12692 4.54333 0
M  V30 3868 H 365.772 1.80406 6.22381 0
M  V30 3869 N 359.178 -1.55987 0.224894 0
M  V30 3870 C 360.125 -2.20436 -0.68385 0
M  V30 3871 C 361.095 -1.16102 -1.18783 0
M  V30 3872 O 362.28 -1.4447 -1.24632 0
M  V30 3873 C 359.42 -2.89076 -1.88491 0
M  V30 3874 C 358.533 -4.08012 -1.41951 0
M  V30 3875 C 357.668 -4.64426 -2.5784 0
M  V30 3876 C 356.707 -5.75656 -2.08053 0
M  V30 3877 N 355.844 -6.26347 -3.17227 0
M  V30 3878 H 360.684 -2.97727 -0.12754 0
M  V30 3879 H 358.221 -1.47011 -0.0511978 0
M  V30 3880 H 360.179 -3.27059 -2.59014 0
M  V30 3881 H 358.809 -2.14298 -2.41405 0
M  V30 3882 H 357.861 -3.75492 -0.609095 0
M  V30 3883 H 359.173 -4.88375 -1.01447 0
M  V30 3884 H 358.327 -5.04869 -3.3644 0
M  V30 3885 H 357.066 -3.83233 -3.01635 0
M  V30 3886 H 356.071 -5.34712 -1.27916 0
M  V30 3887 H 357.296 -6.58686 -1.65255 0
M  V30 3888 H 355.242 -5.48067 -3.60497 0
M  V30 3889 H 355.159 -7.01843 -2.80986 0
M  V30 3890 H 356.427 -6.71447 -3.95953 0
M  V30 3891 N 360.656 0.0484629 -1.57525 0
M  V30 3892 C 361.933 0.777447 -1.79486 0
M  V30 3893 C 362.313 1.94597 -0.818251 0
M  V30 3894 O 361.661 2.28047 0.143767 0
M  V30 3895 C 361.871 1.22864 -3.26658 0
M  V30 3896 C 363.219 1.65251 -3.91123 0
M  V30 3897 O 364.243 1.32372 -3.3069 0
M  V30 3898 O 363.102 2.26207 -4.97486 0
M  V30 3899 H 360.196 0.374357 -0.737419 0
M  V30 3900 H 362.742 0.0267359 -1.69679 0
M  V30 3901 H 361.514 0.393589 -3.89316 0
M  V30 3902 H 361.137 2.03996 -3.41279 0
M  V30 3903 N 362.134 1.5431 0.320358 0
M  V30 3904 C 363.38 1.72924 1.05949 0
M  V30 3905 C 363.713 0.503185 1.87568 0
M  V30 3906 O 362.988 -0.499839 1.87968 0
M  V30 3907 C 363.271 3.00676 1.98156 0
M  V30 3908 C 363.124 4.3354 1.19845 0
M  V30 3909 C 364.443 3.24198 2.9763 0
M  V30 3910 H 361.562 0.629195 0.383774 0
M  V30 3911 H 364.204 1.87008 0.335854 0
M  V30 3912 H 362.354 2.888 2.59859 0
M  V30 3913 H 364.026 4.57305 0.605773 0
M  V30 3914 H 362.269 4.309 0.500784 0
M  V30 3915 H 362.94 5.19156 1.87567 0
M  V30 3916 H 365.416 3.35557 2.4605 0
M  V30 3917 H 364.292 4.14938 3.59329 0
M  V30 3918 H 364.553 2.41577 3.7026 0
M  V30 3919 N 363.613 -0.582584 1.46437 0
M  V30 3920 C 364.523 -1.71949 1.59595 0
M  V30 3921 C 365.539 -1.67264 0.479443 0
M  V30 3922 O 366.715 -1.87171 0.743579 0
M  V30 3923 C 363.78 -3.08452 1.58298 0
M  V30 3924 C 362.841 -3.244 2.81182 0
M  V30 3925 C 362.074 -4.54391 2.79937 0
M  V30 3926 O 362.297 -5.38287 1.8869 0
M  V30 3927 O 361.231 -4.73588 3.71481 0
M  V30 3928 H 365.057 -1.63795 2.55744 0
M  V30 3929 H 362.642 -0.749643 1.29231 0
M  V30 3930 H 364.524 -3.89732 1.60271 0
M  V30 3931 H 363.199 -3.17043 0.653094 0
M  V30 3932 H 362.106 -2.42613 2.84763 0
M  V30 3933 H 363.439 -3.20699 3.7338 0
M  V30 3934 N 365.091 -1.34144 -0.827227 0
M  V30 3935 C 366.337 -1.26446 -1.58554 0
M  V30 3936 C 366.67 0.1664 -1.93486 0
M  V30 3937 O 365.945 1.1107 -1.59667 0
M  V30 3938 C 366.228 -2.15111 -2.8879 0
M  V30 3939 C 366.081 -3.66712 -2.60465 0
M  V30 3940 C 367.4 -2.03311 -3.90324 0
M  V30 3941 H 364.519 -0.46067 -0.575284 0
M  V30 3942 H 367.161 -1.64356 -0.953269 0
M  V30 3943 H 365.311 -1.8291 -3.42748 0
M  V30 3944 H 366.983 -4.09259 -2.1285 0
M  V30 3945 H 365.226 -3.88014 -1.93978 0
M  V30 3946 H 365.897 -4.24112 -3.53317 0
M  V30 3947 H 368.373 -2.31574 -3.45706 0
M  V30 3948 H 367.249 -2.67582 -4.79261 0
M  V30 3949 H 367.51 -1.00879 -4.30437 0
M  V30 3950 N 366.569 1.04691 -1.17803 0
M  V30 3951 C 367.797 1.81446 -0.99423 0
M  V30 3952 C 368.212 1.83174 0.457459 0
M  V30 3953 O 367.569 1.26265 1.31771 0
M  V30 3954 C 367.62 3.27334 -1.5341 0
M  V30 3955 O 367.341 3.25798 -2.92895 0
M  V30 3956 C 368.842 4.20759 -1.39559 0
M  V30 3957 H 366.062 0.571599 -0.351447 0
M  V30 3958 H 368.606 1.31982 -1.56208 0
M  V30 3959 H 366.761 3.74052 -1.00815 0
M  V30 3960 H 367.175 4.17144 -3.17949 0
M  V30 3961 H 368.649 5.21084 -1.82141 0
M  V30 3962 H 369.126 4.37856 -0.343394 0
M  V30 3963 H 369.732 3.79901 -1.91195 0
M  V30 3964 N 368.047 0.979072 1.23499 0
M  V30 3965 C 368.994 0.517904 2.24914 0
M  V30 3966 C 369.964 -0.442525 1.60097 0
M  V30 3967 O 371.149 -0.350365 1.87556 0
M  V30 3968 C 368.289 -0.174813 3.44657 0
M  V30 3969 C 367.402 0.825721 4.24035 0
M  V30 3970 C 366.537 0.107946 5.3109 0
M  V30 3971 C 365.576 1.09778 6.02175 0
M  V30 3972 N 364.713 0.40925 7.00906 0
M  V30 3973 H 369.553 1.38751 2.63727 0
M  V30 3974 H 367.09 0.695303 1.2963 0
M  V30 3975 H 369.048 -0.593233 4.12961 0
M  V30 3976 H 367.678 -1.0083 3.06648 0
M  V30 3977 H 366.73 1.36253 3.55161 0
M  V30 3978 H 368.042 1.58005 4.73113 0
M  V30 3979 H 367.196 -0.367904 6.05583 0
M  V30 3980 H 365.935 -0.678994 4.8295 0
M  V30 3981 H 364.94 1.5844 5.26476 0
M  V30 3982 H 366.165 1.88536 6.52404 0
M  V30 3983 H 364.111 -0.358506 6.5502 0
M  V30 3984 H 364.028 1.10226 7.47921 0
M  V30 3985 H 365.296 -0.0442557 7.79487 0
M  V30 3986 N 369.525 -1.3858 0.750561 0
M  V30 3987 C 370.435 -2.34278 0.122825 0
M  V30 3988 C 371.451 -1.59116 -0.704131 0
M  V30 3989 O 372.627 -1.91326 -0.628987 0
M  V30 3990 C 369.692 -3.38221 -0.762086 0
M  V30 3991 C 368.753 -4.29227 0.078896 0
M  V30 3992 C 367.986 -5.28205 -0.763874 0
M  V30 3993 O 368.209 -5.34112 -2.00201 0
M  V30 3994 O 367.143 -6.01618 -0.18428 0
M  V30 3995 H 370.969 -2.89649 0.913088 0
M  V30 3996 H 368.554 -1.40374 0.511417 0
M  V30 3997 H 370.436 -4.01872 -1.26793 0
M  V30 3998 H 369.111 -2.85211 -1.5309 0
M  V30 3999 H 368.018 -3.68747 0.630621 0
M  V30 4000 H 369.351 -4.85484 0.810289 0
M  V30 4001 N 371.003 -0.499398 -1.49478 0
M  V30 4002 C 371.913 0.284489 -2.32869 0
M  V30 4003 C 372.929 0.968885 -1.44529 0
M  V30 4004 O 374.105 0.95062 -1.77553 0
M  V30 4005 C 371.17 1.33594 -3.19928 0
M  V30 4006 C 370.231 0.665149 -4.24116 0
M  V30 4007 C 369.464 1.6665 -5.07014 0
M  V30 4008 O 369.687 2.89618 -4.91404 0
M  V30 4009 O 368.621 1.22271 -5.8935 0
M  V30 4010 H 372.447 -0.39802 -3.01081 0
M  V30 4011 H 370.032 -0.260758 -1.47107 0
M  V30 4012 H 371.914 1.94431 -3.73864 0
M  V30 4013 H 370.589 2.0014 -2.54412 0
M  V30 4014 H 369.496 0.0170769 -3.74096 0
M  V30 4015 H 370.829 0.0421555 -4.92182 0
M  V30 4016 N 372.481 1.55866 -0.233164 0
M  V30 4017 C 373.728 1.98603 0.395374 0
M  V30 4018 C 374.056 1.12105 1.58942 0
M  V30 4019 O 373.311 0.168656 1.94972 0
M  V30 4020 C 373.61 3.46856 0.861724 0
M  V30 4021 C 373.276 4.50348 -0.223066 0
M  V30 4022 C 371.938 4.78371 -0.521038 0
M  V30 4023 C 374.29 5.12355 -0.956124 0
M  V30 4024 C 371.618 5.6568 -1.55638 0
M  V30 4025 C 373.97 6.00786 -1.98089 0
M  V30 4026 C 372.634 6.27148 -2.28565 0
M  V30 4027 H 371.904 0.726739 0.144677 0
M  V30 4028 H 374.551 1.88491 -0.338114 0
M  V30 4029 H 372.856 3.5423 1.67418 0
M  V30 4030 H 374.553 3.77302 1.35809 0
M  V30 4031 H 371.143 4.28596 0.0193234 0
M  V30 4032 H 375.327 4.90765 -0.739166 0
M  V30 4033 H 370.583 5.84365 -1.798 0
M  V30 4034 H 374.757 6.4788 -2.55391 0
M  V30 4035 H 372.384 6.94597 -3.08932 0
M  V30 4036 N 373.959 -0.0401083 1.57549 0
M  V30 4037 C 374.922 -1.02871 2.04817 0
M  V30 4038 C 375.922 -1.29708 0.950388 0
M  V30 4039 O 377.112 -1.24897 1.21435 0
M  V30 4040 C 374.244 -2.36443 2.45576 0
M  V30 4041 H 375.437 -0.620631 2.93408 0
M  V30 4042 H 372.99 -0.286667 1.53649 0
M  V30 4043 H 373.725 -2.82021 1.60108 0
M  V30 4044 H 373.51 -2.18296 3.25713 0
M  V30 4045 H 375 -3.07441 2.82612 0
M  V30 4046 N 375.437 -1.54477 -0.31217 0
M  V30 4047 C 376.369 -1.81011 -1.40598 0
M  V30 4048 C 377.382 -0.692546 -1.47335 0
M  V30 4049 O 378.571 -0.969847 -1.49854 0
M  V30 4050 C 375.671 -1.92307 -2.79054 0
M  V30 4051 C 374.844 -3.22594 -2.95384 0
M  V30 4052 C 373.903 -3.24448 -4.1427 0
M  V30 4053 O 372.929 -3.98035 -4.06887 0
M  V30 4054 N 374.131 -2.49042 -5.24365 0
M  V30 4055 H 376.896 -2.75408 -1.18196 0
M  V30 4056 H 374.457 -1.53914 -0.502202 0
M  V30 4057 H 376.449 -1.90962 -3.56813 0
M  V30 4058 H 375.019 -1.04955 -2.94454 0
M  V30 4059 H 374.239 -3.36806 -2.04831 0
M  V30 4060 H 375.527 -4.08593 -3.03198 0
M  V30 4061 H 374.925 -1.88867 -5.33241 0
M  V30 4062 H 373.482 -2.53463 -6.005 0
M  V30 4063 N 376.915 0.57481 -1.46744 0
M  V30 4064 C 378.14 1.36341 -1.56288 0
M  V30 4065 C 378.565 1.86954 -0.207347 0
M  V30 4066 O 377.923 1.62006 0.813871 0
M  V30 4067 C 377.971 2.52147 -2.57787 0
M  V30 4068 O 377.075 3.53834 -2.11838 0
M  V30 4069 H 376.416 0.405713 -0.525636 0
M  V30 4070 H 378.946 0.696453 -1.92382 0
M  V30 4071 H 378.956 2.98958 -2.77648 0
M  V30 4072 H 377.631 2.14663 -3.5622 0
M  V30 4073 H 376.208 3.1345 -2.01999 0
M  V30 4074 N 378.394 1.34581 0.820102 0
M  V30 4075 C 379.357 1.2628 1.91275 0
M  V30 4076 C 380.357 0.177344 1.59819 0
M  V30 4077 O 381.547 0.430156 1.68806 0
M  V30 4078 C 378.679 0.950327 3.27386 0
M  V30 4079 H 379.872 2.23421 2.00057 0
M  V30 4080 H 377.425 1.1891 1.0144 0
M  V30 4081 H 378.16 -0.0177938 3.24295 0
M  V30 4082 H 377.945 1.73549 3.51601 0
M  V30 4083 H 379.435 0.917492 4.07396 0
M  V30 4084 N 379.872 -1.04064 1.18357 0
M  V30 4085 C 381.121 -1.76662 0.973313 0
M  V30 4086 C 381.434 -1.89154 -0.497991 0
M  V30 4087 O 382.64 -2.58606 -0.826762 0
M  V30 4088 C 381.096 -3.17624 1.69242 0
M  V30 4089 C 380.704 -3.13225 3.20303 0
M  V30 4090 C 382.448 -3.946 1.56497 0
M  V30 4091 C 380.355 -4.49046 3.84853 0
M  V30 4092 H 379.285 -0.662214 0.36054 0
M  V30 4093 H 381.936 -1.16553 1.41731 0
M  V30 4094 H 380.318 -3.78129 1.1762 0
M  V30 4095 H 381.492 -2.62172 3.78949 0
M  V30 4096 H 379.807 -2.49749 3.33189 0
M  V30 4097 H 382.404 -4.95042 2.02084 0
M  V30 4098 H 382.747 -4.13074 0.517243 0
M  V30 4099 H 383.28 -3.4067 2.05399 0
M  V30 4100 H 380.019 -4.35777 4.89672 0
M  V30 4101 H 379.539 -5.00203 3.30994 0
M  V30 4102 H 381.218 -5.17961 3.87718 0
M  V30 4103 N 381.35 -0.985608 -1.22978 0
M  V30 4104 C 382.766 -0.695104 -1.43668 0
M  V30 4105 C 382.966 0.736866 -1.87543 0
M  V30 4106 O 382.022 1.50868 -2.02473 0
M  V30 4107 C 383.335 -1.69447 -2.48412 0
M  V30 4108 C 384.883 -1.70909 -2.62219 0
M  V30 4109 C 385.358 -2.6969 -3.70178 0
M  V30 4110 N 386.849 -2.6824 -3.77626 0
M  V30 4111 C 387.584 -3.41339 -4.60733 0
M  V30 4112 N 387.08 -4.24015 -5.4789 0
M  V30 4113 N 388.873 -3.30079 -4.54977 0
M  V30 4114 H 381.024 -1.91054 -0.928016 0
M  V30 4115 H 383.287 -0.823553 -0.469536 0
M  V30 4116 H 382.993 -2.7188 -2.23102 0
M  V30 4117 H 382.867 -1.48147 -3.46889 0
M  V30 4118 H 385.254 -0.691785 -2.86877 0
M  V30 4119 H 385.335 -1.96276 -1.6404 0
M  V30 4120 H 384.979 -3.71566 -3.46268 0
M  V30 4121 H 384.909 -2.41595 -4.67909 0
M  V30 4122 H 387.4 -2.08243 -3.15346 0
M  V30 4123 H 387.713 -4.76636 -6.08308 0
M  V30 4124 H 386.058 -4.28104 -5.47496 0
M  V30 4125 H 389.249 -2.64937 -3.85909 0
M  V30 4126 H 389.422 -3.87308 -5.19516 0
M  V30 4127 N 382.828 1.3818 -0.7579 0
M  V30 4128 C 384.058 2.04004 -0.326463 0
M  V30 4129 C 384.466 1.57286 1.05156 0
M  V30 4130 O 383.809 0.743144 1.67997 0
M  V30 4131 C 383.871 3.58444 -0.275402 0
M  V30 4132 C 383.535 4.28237 -1.59569 0
M  V30 4133 C 384.532 4.53312 -2.54566 0
M  V30 4134 C 382.217 4.66341 -1.86631 0
M  V30 4135 C 384.211 5.15531 -3.74842 0
M  V30 4136 C 381.898 5.28283 -3.0718 0
M  V30 4137 C 382.896 5.52814 -4.01106 0
M  V30 4138 O 382.584 6.13465 -5.19534 0
M  V30 4139 H 382.316 0.662026 -0.136739 0
M  V30 4140 H 384.87 1.7777 -1.02893 0
M  V30 4141 H 383.1 3.83667 0.483337 0
M  V30 4142 H 384.789 4.05701 0.127099 0
M  V30 4143 H 385.555 4.24299 -2.34936 0
M  V30 4144 H 381.434 4.46591 -1.14358 0
M  V30 4145 H 384.978 5.34594 -4.48168 0
M  V30 4146 H 380.875 5.56719 -3.26702 0
M  V30 4147 H 381.643 6.31951 -5.20173 0
M  V30 4148 N 384.306 0.507319 1.49211 0
M  V30 4149 C 385.554 -0.0348839 2.0207 0
M  V30 4150 C 385.875 -1.36898 1.38866 0
M  V30 4151 O 385.145 -1.88133 0.546151 0
M  V30 4152 H 383.725 -0.0158812 0.746831 0
M  V30 4153 H 386.387 0.665998 1.83168 0
M  V30 4154 H 385.483 -0.159917 3.1169 0
M  V30 4155 N 385.784 -1.5574 0.241426 0
M  V30 4156 C 386.716 -2.18469 -0.693091 0
M  V30 4157 C 387.729 -1.15942 -1.14286 0
M  V30 4158 O 388.918 -1.42832 -1.07058 0
M  V30 4159 C 386.018 -2.7696 -1.95311 0
M  V30 4160 C 385.191 -4.04853 -1.65568 0
M  V30 4161 C 384.25 -4.47715 -2.76474 0
M  V30 4162 O 383.276 -5.14205 -2.44094 0
M  V30 4163 N 384.478 -4.15044 -4.05855 0
M  V30 4164 H 387.243 -2.99292 -0.156388 0
M  V30 4165 H 384.804 -1.61784 0.0611752 0
M  V30 4166 H 386.796 -3.02594 -2.68736 0
M  V30 4167 H 385.366 -2.00326 -2.39975 0
M  V30 4168 H 384.586 -3.86865 -0.756886 0
M  V30 4169 H 385.874 -4.88246 -1.43153 0
M  V30 4170 H 385.272 -3.61654 -4.34998 0
M  V30 4171 H 383.829 -4.45526 -4.75762 0
M  V30 4172 N 387.262 0.0317525 -1.57568 0
M  V30 4173 C 388.508 0.724175 -1.8943 0
M  V30 4174 C 388.841 1.75149 -0.838836 0
M  V30 4175 O 388.116 1.93948 0.146422 0
M  V30 4176 C 388.399 1.39615 -3.31933 0
M  V30 4177 C 388.252 0.382537 -4.4817 0
M  V30 4178 C 389.571 2.33084 -3.73309 0
M  V30 4179 H 386.69 0.261797 -0.688935 0
M  V30 4180 H 389.332 -0.013017 -1.89996 0
M  V30 4181 H 387.482 2.02451 -3.31581 0
M  V30 4182 H 389.154 -0.243689 -4.60656 0
M  V30 4183 H 387.397 -0.29844 -4.32772 0
M  V30 4184 H 388.068 0.891145 -5.44759 0
M  V30 4185 H 390.544 1.80295 -3.7501 0
M  V30 4186 H 389.42 2.77084 -4.73831 0
M  V30 4187 H 389.681 3.19643 -3.05419 0
M  V30 4188 N 388.74 1.54641 0.303973 0
M  V30 4189 C 389.968 1.77768 1.05858 0
M  V30 4190 C 390.383 0.535722 1.8104 0
M  V30 4191 O 389.74 -0.494337 1.75677 0
M  V30 4192 C 389.791 2.9834 2.04146 0
M  V30 4193 O 389.512 4.17736 1.32015 0
M  V30 4194 C 391.013 3.33832 2.91669 0
M  V30 4195 H 388.233 0.592961 0.314067 0
M  V30 4196 H 390.777 2.01583 0.344149 0
M  V30 4197 H 388.932 2.76742 2.71096 0
M  V30 4198 H 389.346 4.85693 1.97998 0
M  V30 4199 H 390.82 4.21448 3.56491 0
M  V30 4200 H 391.297 2.51857 3.59812 0
M  V30 4201 H 391.903 3.57579 2.30254 0
M  V30 4202 N 390.218 -0.567019 1.47046 0
M  V30 4203 C 391.629 -1.14916 1.47143 0
M  V30 4204 C 391.98 -1.94954 0.220767 0
M  V30 4205 O 391.105 -2.05602 -0.67505 0
M  V30 4206 C 391.7 -2.09069 2.666 0
M  V30 4207 C 390.259 -2.62575 2.69687 0
M  V30 4208 C 389.406 -1.38755 2.40088 0
M  V30 4209 H 392.357 -0.354126 1.54699 0
M  V30 4210 H 392.378 -2.92789 2.43011 0
M  V30 4211 H 391.89 -1.50789 3.57609 0
M  V30 4212 H 389.991 -3.24681 1.82792 0
M  V30 4213 H 390.104 -3.04239 3.70102 0
M  V30 4214 H 388.468 -1.69098 1.90468 0
M  V30 4215 H 389.251 -0.822822 3.33293 0
M  V30 4216 N 391.696 -1.35014 -0.812953 0
M  V30 4217 C 392.626 -1.30069 -1.93919 0
M  V30 4218 C 393.607 -0.176275 -1.69184 0
M  V30 4219 O 394.792 -0.370227 -1.90638 0
M  V30 4220 C 391.922 -1.06547 -3.30552 0
M  V30 4221 C 390.876 -2.15561 -3.69753 0
M  V30 4222 C 390.202 -1.77214 -5.04479 0
M  V30 4223 C 391.502 -3.57476 -3.808 0
M  V30 4224 H 393.196 -2.24303 -1.98314 0
M  V30 4225 H 390.742 -1.07977 -0.952736 0
M  V30 4226 H 392.695 -1.01729 -4.08937 0
M  V30 4227 H 391.419 -0.0875719 -3.26483 0
M  V30 4228 H 390.078 -2.19466 -2.9365 0
M  V30 4229 H 389.726 -0.780589 -4.96906 0
M  V30 4230 H 389.426 -2.50184 -5.31678 0
M  V30 4231 H 390.95 -1.7391 -5.8531 0
M  V30 4232 H 392.364 -3.55929 -4.4943 0
M  V30 4233 H 390.761 -4.29152 -4.19462 0
M  V30 4234 H 391.831 -3.94091 -2.82525 0
M  V30 4235 N 393.175 1.03435 -1.18907 0
M  V30 4236 C 394.085 2.15075 -0.937015 0
M  V30 4237 C 395.101 1.73706 0.101085 0
M  V30 4238 O 396.277 2.01232 -0.0822948 0
M  V30 4239 C 393.342 3.43458 -0.473057 0
M  V30 4240 C 392.403 3.99172 -1.57989 0
M  V30 4241 C 391.636 5.21427 -1.13797 0
M  V30 4242 O 391.859 5.704 0.000725941 0
M  V30 4243 O 390.793 5.69837 -1.9383 0
M  V30 4244 H 394.619 2.39198 -1.87131 0
M  V30 4245 H 392.204 1.13506 -0.971427 0
M  V30 4246 H 394.086 4.20811 -0.222702 0
M  V30 4247 H 392.761 3.20793 0.432869 0
M  V30 4248 H 391.668 3.23178 -1.88433 0
M  V30 4249 H 393.001 4.2619 -2.46217 0
M  V30 4250 N 394.653 0.992116 1.22453 0
M  V30 4251 C 395.902 0.662992 1.90492 0
M  V30 4252 C 396.215 -0.808407 1.78113 0
M  V30 4253 O 397.421 -1.24908 2.41061 0
M  V30 4254 C 395.877 1.1353 3.41524 0
M  V30 4255 C 395.485 2.63187 3.62542 0
M  V30 4256 C 397.229 0.880465 4.15269 0
M  V30 4257 C 395.136 3.04024 5.0727 0
M  V30 4258 H 394.066 0.244278 0.713333 0
M  V30 4259 H 396.717 1.20157 1.38688 0
M  V30 4260 H 395.099 0.52485 3.92506 0
M  V30 4261 H 396.273 3.2957 3.22056 0
M  V30 4262 H 394.588 2.86543 3.02129 0
M  V30 4263 H 397.185 1.16128 5.21937 0
M  V30 4264 H 397.528 -0.183408 4.15896 0
M  V30 4265 H 398.061 1.45307 3.70312 0
M  V30 4266 H 394.8 4.09584 5.11782 0
M  V30 4267 H 394.32 2.42343 5.48662 0
M  V30 4268 H 395.999 2.95282 5.75689 0
M  V30 4269 N 396.131 -1.37776 0.765217 0
M  V30 4270 C 397.408 -1.93975 0.251596 0
M  V30 4271 C 397.788 -1.69949 -1.25222 0
M  V30 4272 O 397.136 -1.04457 -2.03226 0
M  V30 4273 C 397.346 -3.43487 0.617895 0
M  V30 4274 C 398.694 -4.20564 0.584029 0
M  V30 4275 O 399.718 -3.5182 0.556888 0
M  V30 4276 O 398.577 -5.43138 0.605291 0
M  V30 4277 H 395.671 -0.82509 0.0561806 0
M  V30 4278 H 398.217 -1.47101 0.846128 0
M  V30 4279 H 396.989 -3.5453 1.65602 0
M  V30 4280 H 396.612 -3.976 -0.00403411 0
M  V30 4281 N 397.609 -0.515225 -1.4894 0
M  V30 4282 C 398.858 0.0261361 -2.01683 0
M  V30 4283 C 399.171 1.36719 -1.39883 0
M  V30 4284 O 400.377 1.99606 -1.84037 0
M  V30 4285 C 398.833 0.0970111 -3.59769 0
M  V30 4286 C 398.441 -1.23825 -4.30548 0
M  V30 4287 C 400.185 0.587981 -4.20408 0
M  V30 4288 C 398.092 -1.12877 -5.80528 0
M  V30 4289 H 397.022 0.0135398 -0.753878 0
M  V30 4290 H 399.673 -0.656787 -1.71343 0
M  V30 4291 H 398.055 0.844694 -3.86886 0
M  V30 4292 H 399.229 -2.00034 -4.15118 0
M  V30 4293 H 397.544 -1.66379 -3.81716 0
M  V30 4294 H 400.141 0.68763 -5.3026 0
M  V30 4295 H 400.484 1.59026 -3.84729 0
M  V30 4296 H 401.017 -0.103582 -3.97665 0
M  V30 4297 H 397.756 -2.10575 -6.20756 0
M  V30 4298 H 397.276 -0.407799 -5.98412 0
M  V30 4299 H 398.955 -0.813332 -6.41868 0
M  V30 4300 N 399.087 1.5561 -0.249682 0
M  V30 4301 C 400.017 2.24477 0.642826 0
M  V30 4302 C 400.998 1.22601 1.17911 0
M  V30 4303 O 402.183 1.5126 1.21795 0
M  V30 4304 C 399.313 2.94638 1.83863 0
M  V30 4305 C 398.267 4.03227 1.435 0
M  V30 4306 C 397.593 4.60828 2.71186 0
M  V30 4307 C 398.893 5.18796 0.604002 0
M  V30 4308 H 400.587 2.99321 0.0685625 0
M  V30 4309 H 398.133 1.43965 0.0315363 0
M  V30 4310 H 400.086 3.41517 2.46868 0
M  V30 4311 H 398.81 2.17287 2.43832 0
M  V30 4312 H 397.469 3.57121 0.828275 0
M  V30 4313 H 397.117 3.80174 3.29358 0
M  V30 4314 H 396.817 5.34132 2.44901 0
M  V30 4315 H 398.341 5.10442 3.35084 0
M  V30 4316 H 399.755 5.61883 1.13842 0
M  V30 4317 H 398.152 5.98506 0.437097 0
M  V30 4318 H 399.222 4.83384 -0.383147 0
M  V30 4319 N 400.565 -0.0233959 1.57583 0
M  V30 4320 C 401.795 -0.723631 1.93513 0
M  V30 4321 C 402.203 -1.69115 0.848333 0
M  V30 4322 O 401.546 -1.82781 -0.183484 0
M  V30 4323 C 401.608 -1.53075 3.25282 0
M  V30 4324 C 401.272 -0.727388 4.51174 0
M  V30 4325 C 402.269 -0.0251924 5.19894 0
M  V30 4326 C 399.954 -0.680256 4.97672 0
M  V30 4327 C 401.948 0.713374 6.33395 0
M  V30 4328 C 399.635 0.0620523 6.11068 0
M  V30 4329 C 400.633 0.757622 6.78785 0
M  V30 4330 O 400.321 1.48787 7.90011 0
M  V30 4331 H 400.053 -0.208051 0.643188 0
M  V30 4332 H 402.607 0.0167489 2.05393 0
M  V30 4333 H 400.837 -2.31508 3.09744 0
M  V30 4334 H 402.526 -2.11413 3.46496 0
M  V30 4335 H 403.292 -0.0526003 4.84971 0
M  V30 4336 H 399.171 -1.21116 4.44805 0
M  V30 4337 H 402.715 1.25683 6.86185 0
M  V30 4338 H 398.612 0.0913634 6.45435 0
M  V30 4339 H 399.38 1.40213 8.06401 0
M  V30 4340 N 402.043 -1.548 -0.295768 0
M  V30 4341 C 402.975 -1.82492 -1.3867 0
M  V30 4342 C 403.988 -0.708134 -1.46592 0
M  V30 4343 O 405.177 -0.985686 -1.48817 0
M  V30 4344 C 402.277 -1.95256 -2.76999 0
M  V30 4345 C 401.45 -3.25709 -2.91946 0
M  V30 4346 C 400.509 -3.28824 -4.10806 0
M  V30 4347 O 399.535 -4.02328 -4.02643 0
M  V30 4348 N 400.737 -2.5459 -5.21694 0
M  V30 4349 H 403.502 -2.76646 -1.15269 0
M  V30 4350 H 401.063 -1.54438 -0.485849 0
M  V30 4351 H 403.055 -1.94736 -3.54768 0
M  V30 4352 H 401.625 -1.08072 -2.93324 0
M  V30 4353 H 400.845 -3.38959 -2.01247 0
M  V30 4354 H 402.133 -4.11786 -2.98847 0
M  V30 4355 H 401.531 -1.94512 -5.31208 0
M  V30 4356 H 400.088 -2.59818 -5.97778 0
M  V30 4357 N 403.521 0.559213 -1.47345 0
M  V30 4358 C 404.451 1.67622 -1.62558 0
M  V30 4359 C 405.432 1.63331 -0.475087 0
M  V30 4360 O 406.617 1.80983 -0.704182 0
M  V30 4361 C 403.747 3.0626 -1.63774 0
M  V30 4362 C 402.701 3.25397 -2.7803 0
M  V30 4363 C 402.027 4.64801 -2.64318 0
M  V30 4364 C 403.327 3.10965 -4.19641 0
M  V30 4365 H 405.021 1.55146 -2.56067 0
M  V30 4366 H 402.567 0.744961 -1.23233 0
M  V30 4367 H 404.52 3.84247 -1.73008 0
M  V30 4368 H 403.244 3.1969 -0.66825 0
M  V30 4369 H 401.903 2.49817 -2.68304 0
M  V30 4370 H 401.551 4.75028 -1.65401 0
M  V30 4371 H 401.251 4.78555 -3.40968 0
M  V30 4372 H 402.775 5.44926 -2.75478 0
M  V30 4373 H 404.189 3.78772 -4.30354 0
M  V30 4374 H 402.586 3.36229 -4.97062 0
M  V30 4375 H 403.656 2.07736 -4.38148 0
M  V30 4376 N 404.999 1.35443 0.805782 0
M  V30 4377 C 405.962 1.28301 1.89925 0
M  V30 4378 C 406.962 0.194285 1.59622 0
M  V30 4379 O 408.152 0.448036 1.6834 0
M  V30 4380 C 405.284 0.984997 3.2636 0
M  V30 4381 H 406.477 2.2553 1.97677 0
M  V30 4382 H 404.03 1.19979 1.00173 0
M  V30 4383 H 404.765 0.016603 3.24296 0
M  V30 4384 H 404.55 1.77269 3.4974 0
M  V30 4385 H 406.04 0.960651 4.064 0
M  V30 4386 N 406.477 -1.02803 1.19454 0
M  V30 4387 C 407.754 -1.73299 0.907013 0
M  V30 4388 C 408.134 -2.02772 -0.587086 0
M  V30 4389 O 407.482 -1.68304 -1.54551 0
M  V30 4390 C 407.692 -3.00912 1.76785 0
M  V30 4391 C 409.04 -3.74403 2.00268 0
M  V30 4392 O 410.064 -3.10841 1.73943 0
M  V30 4393 O 408.923 -4.88675 2.4466 0
M  V30 4394 H 406.017 -0.754727 0.338106 0
M  V30 4395 H 408.563 -1.08754 1.30271 0
M  V30 4396 H 407.335 -2.75366 2.7801 0
M  V30 4397 H 406.958 -3.73197 1.37149 0
M  V30 4398 N 407.956 -0.998596 -1.21925 0
M  V30 4399 C 408.886 -0.573688 -2.26343 0
M  V30 4400 C 409.867 0.402296 -1.65274 0
M  V30 4401 O 411.052 0.291683 -1.91997 0
M  V30 4402 C 408.182 0.106839 -3.47136 0
M  V30 4403 C 407.136 -0.788269 -4.20678 0
M  V30 4404 C 406.462 0.0254927 -5.34694 0
M  V30 4405 C 407.762 -2.08784 -4.78755 0
M  V30 4406 H 409.456 -1.44651 -2.62138 0
M  V30 4407 H 407.002 -0.696975 -1.26009 0
M  V30 4408 H 408.955 0.415531 -4.19346 0
M  V30 4409 H 407.679 1.01424 -3.10452 0
M  V30 4410 H 406.338 -1.08069 -3.50309 0
M  V30 4411 H 405.986 0.933989 -4.94253 0
M  V30 4412 H 405.686 -0.570437 -5.84825 0
M  V30 4413 H 407.21 0.328147 -6.09718 0
M  V30 4414 H 408.624 -1.84272 -5.42878 0
M  V30 4415 H 407.021 -2.63307 -5.39249 0
M  V30 4416 H 408.091 -2.76284 -3.98491 0
M  V30 4417 N 409.434 1.37368 -0.772513 0
M  V30 4418 C 410.664 2.03647 -0.348082 0
M  V30 4419 C 411.072 1.58392 1.03482 0
M  V30 4420 O 410.415 0.760921 1.672 0
M  V30 4421 C 410.477 3.58131 -0.313404 0
M  V30 4422 C 410.141 4.2652 -1.64102 0
M  V30 4423 C 411.138 4.50587 -2.5936 0
M  V30 4424 C 408.823 4.64335 -1.91567 0
M  V30 4425 C 410.817 5.11526 -3.80289 0
M  V30 4426 C 408.504 5.24996 -3.12766 0
M  V30 4427 C 409.502 5.48529 -4.06946 0
M  V30 4428 O 409.19 6.07921 -5.26011 0
M  V30 4429 H 408.922 0.660538 -0.143753 0
M  V30 4430 H 411.476 1.76669 -1.04772 0
M  V30 4431 H 409.706 3.84159 0.442617 0
M  V30 4432 H 411.395 4.05813 0.0840613 0
M  V30 4433 H 412.161 4.21784 -2.39423 0
M  V30 4434 H 408.04 4.45353 -1.19088 0
M  V30 4435 H 411.584 5.29811 -4.53813 0
M  V30 4436 H 407.481 5.53223 -3.32588 0
M  V30 4437 H 408.249 6.26398 -5.26847 0
M  V30 4438 N 410.912 0.523116 1.48665 0
M  V30 4439 C 411.86 -0.256859 2.31177 0
M  V30 4440 C 412.854 -0.94199 1.40794 0
M  V30 4441 O 414.06 -0.867157 1.57735 0
M  V30 4442 H 410.435 -0.1017 0.745091 0
M  V30 4443 H 412.406 0.458739 2.94853 0
M  V30 4444 C 411.155 -1.29503 3.22683 0
M  V30 4445 H 410.478 -0.777248 3.92172 0
M  V30 4446 H 411.918 -1.81233 3.83315 0
M  V30 4447 C 410.377 -2.32501 2.43813 0
M  V30 4448 O 410.907 -3.3881 2.15803 0
M  V30 4449 N 409.113 -2.05538 2.05432 0
M  V30 4450 H 408.66 -1.19104 2.28412 0
M  V30 4451 H 408.618 -2.74676 1.52973 0
M  V30 4452 N 412.39 -1.55475 0.257931 0
M  V30 4453 C 413.353 -2.20551 -0.623706 0
M  V30 4454 C 414.353 -1.17809 -1.09443 0
M  V30 4455 O 415.543 -1.42823 -0.997362 0
M  V30 4456 C 412.675 -2.85784 -1.8585 0
M  V30 4457 H 413.868 -2.99848 -0.0557743 0
M  V30 4458 H 411.421 -1.56298 0.0084422 0
M  V30 4459 H 412.156 -2.10453 -2.46739 0
M  V30 4460 H 411.941 -3.61057 -1.52907 0
M  V30 4461 H 413.431 -3.35553 -2.48584 0
M  V30 4462 N 413.868 0.0150385 -1.57593 0
M  V30 4463 C 415.093 0.718067 -1.94573 0
M  V30 4464 C 415.518 1.6734 -0.859005 0
M  V30 4465 O 414.876 1.80362 0.184147 0
M  V30 4466 C 414.924 1.43918 -3.30636 0
M  V30 4467 O 414.028 2.55299 -3.23876 0
M  V30 4468 H 413.369 0.192125 -0.635597 0
M  V30 4469 H 415.899 -0.0336708 -2.04572 0
M  V30 4470 H 415.909 1.80598 -3.65853 0
M  V30 4471 H 414.584 0.738619 -4.09289 0
M  V30 4472 H 413.161 2.21058 -3.00312 0
M  V30 4473 N 415.346 1.54954 0.287554 0
M  V30 4474 C 416.594 1.74528 1.01904 0
M  V30 4475 C 416.915 0.541349 1.87335 0
M  V30 4476 O 416.185 -0.444108 1.908 0
M  V30 4477 H 414.765 0.643576 0.379235 0
M  V30 4478 H 417.427 1.92333 0.315294 0
M  V30 4479 H 416.523 2.64015 1.6644 0
M  V30 4480 N 416.824 -0.551391 1.4764 0
M  V30 4481 C 418.24 -0.877887 1.33287 0
M  V30 4482 C 418.44 -1.98817 0.327721 0
M  V30 4483 O 417.496 -2.51171 -0.258695 0
M  V30 4484 C 418.809 -1.26563 2.72768 0
M  V30 4485 C 420.357 -1.37673 2.81097 0
M  V30 4486 C 420.832 -1.79799 4.21232 0
M  V30 4487 N 422.323 -1.8694 4.23802 0
M  V30 4488 C 423.058 -2.20876 5.29151 0
M  V30 4489 N 422.554 -2.53386 6.448 0
M  V30 4490 N 424.347 -2.217 5.16532 0
M  V30 4491 H 416.498 0.18153 2.11623 0
M  V30 4492 H 418.761 0.0185514 0.947818 0
M  V30 4493 H 418.467 -0.523591 3.47781 0
M  V30 4494 H 418.341 -2.22052 3.04915 0
M  V30 4495 H 420.728 -2.10956 2.06353 0
M  V30 4496 H 420.809 -0.40357 2.52596 0
M  V30 4497 H 420.453 -1.07083 4.96483 0
M  V30 4498 H 420.383 -2.78128 4.4716 0
M  V30 4499 H 422.874 -1.64179 3.40373 0
M  V30 4500 H 423.187 -2.78325 7.20941 0
M  V30 4501 H 421.532 -2.50953 6.48111 0
M  V30 4502 H 424.723 -1.95745 4.25207 0
M  V30 4503 H 424.896 -2.47818 5.98741 0
M  V30 4504 N 418.302 -1.35869 -0.798587 0
M  V30 4505 C 419.232 -1.32118 -1.92528 0
M  V30 4506 C 420.213 -0.194209 -1.68988 0
M  V30 4507 O 421.398 -0.390426 -1.90235 0
M  V30 4508 C 418.528 -1.10047 -3.29404 0
M  V30 4509 C 417.482 -2.19471 -3.67446 0
M  V30 4510 C 416.808 -1.82555 -5.02571 0
M  V30 4511 C 418.108 -3.61495 -3.76987 0
M  V30 4512 H 419.802 -2.26394 -1.95924 0
M  V30 4513 H 417.348 -1.08981 -0.94123 0
M  V30 4514 H 419.301 -1.06061 -4.07835 0
M  V30 4515 H 418.025 -0.122195 -3.26371 0
M  V30 4516 H 416.684 -2.22568 -2.91306 0
M  V30 4517 H 416.332 -0.833249 -4.9605 0
M  V30 4518 H 416.032 -2.5581 -5.28995 0
M  V30 4519 H 417.556 -1.80108 -5.83432 0
M  V30 4520 H 418.97 -3.60676 -4.4563 0
M  V30 4521 H 417.367 -4.33577 -4.14887 0
M  V30 4522 H 418.437 -3.97065 -2.78329 0
M  V30 4523 N 419.78 1.02168 -1.19998 0
M  V30 4524 C 421.008 1.79296 -1.03249 0
M  V30 4525 C 421.423 1.84103 0.418502 0
M  V30 4526 O 420.78 1.29031 1.29063 0
M  V30 4527 C 420.831 3.24007 -1.60319 0
M  V30 4528 O 420.552 3.19512 -2.99739 0
M  V30 4529 C 422.053 4.17704 -1.48453 0
M  V30 4530 H 419.273 0.564016 -0.363493 0
M  V30 4531 H 421.817 1.28639 -1.58973 0
M  V30 4532 H 419.972 3.7183 -1.08727 0
M  V30 4533 H 420.386 4.10306 -3.26725 0
M  V30 4534 H 421.86 5.17104 -1.93153 0
M  V30 4535 H 422.337 4.37029 -0.436193 0
M  V30 4536 H 422.943 3.7576 -1.99211 0
M  V30 4537 N 421.258 1.00505 1.21394 0
M  V30 4538 C 422.188 0.585684 2.26035 0
M  V30 4539 C 423.169 -0.393525 1.65485 0
M  V30 4540 O 424.354 -0.281497 1.92149 0
M  V30 4541 C 421.484 -0.0884283 3.47187 0
M  V30 4542 C 420.438 0.810567 4.20254 0
M  V30 4543 C 419.764 0.00286382 5.347 0
M  V30 4544 C 421.064 2.1132 4.77641 0
M  V30 4545 H 422.758 1.46039 2.61368 0
M  V30 4546 H 420.304 0.703648 1.25638 0
M  V30 4547 H 422.257 -0.393286 4.19561 0
M  V30 4548 H 420.981 -0.997766 3.10986 0
M  V30 4549 H 419.64 1.09925 3.49731 0
M  V30 4550 H 419.288 -0.907765 4.94741 0
M  V30 4551 H 418.988 0.601444 5.84514 0
M  V30 4552 H 420.512 -0.295808 6.09883 0
M  V30 4553 H 421.926 1.87148 5.41893 0
M  V30 4554 H 420.323 2.66164 5.37845 0
M  V30 4555 H 421.393 2.78393 3.9702 0
M  V30 4556 N 422.737 -1.36956 0.779787 0
M  V30 4557 C 423.7 -2.2851 0.177662 0
M  V30 4558 C 424.7 -1.48393 -0.619377 0
M  V30 4559 O 425.89 -1.68505 -0.441785 0
M  V30 4560 C 423.022 -3.32428 -0.755279 0
M  V30 4561 H 424.215 -2.83269 0.984823 0
M  V30 4562 H 421.768 -1.46358 0.548544 0
M  V30 4563 H 422.503 -2.82808 -1.58714 0
M  V30 4564 H 422.288 -3.91659 -0.185817 0
M  V30 4565 H 423.778 -4.00824 -1.17174 0
M  V30 4566 N 424.215 -0.530993 -1.48385 0
M  V30 4567 C 425.492 0.0671788 -1.95485 0
M  V30 4568 C 425.872 1.51191 -1.47324 0
M  V30 4569 O 425.22 2.17507 -0.700202 0
M  V30 4570 C 425.43 -0.0511206 -3.48963 0
M  V30 4571 C 426.778 0.107632 -4.24464 0
M  V30 4572 O 427.802 0.0226248 -3.56193 0
M  V30 4573 O 426.661 0.285972 -5.45751 0
M  V30 4574 H 423.755 0.0787365 -0.823243 0
M  V30 4575 H 426.301 -0.595662 -1.58902 0
M  V30 4576 H 425.073 -1.05747 -3.7674 0
M  V30 4577 H 424.696 0.650525 -3.92242 0
M  V30 4578 N 425.693 1.55336 -0.266172 0
M  V30 4579 C 426.942 1.98574 0.353749 0
M  V30 4580 C 427.255 1.15789 1.57646 0
M  V30 4581 O 428.461 1.49129 2.26876 0
M  V30 4582 C 426.917 3.53403 0.680747 0
M  V30 4583 C 426.525 4.44953 -0.52165 0
M  V30 4584 C 428.269 4.05251 1.26379 0
M  V30 4585 C 426.176 5.91156 -0.169736 0
M  V30 4586 H 425.106 0.741643 0.135949 0
M  V30 4587 H 427.757 1.79743 -0.369421 0
M  V30 4588 H 426.139 3.68001 1.46257 0
M  V30 4589 H 427.313 4.42121 -1.29869 0
M  V30 4590 H 425.628 4.03691 -1.02093 0
M  V30 4591 H 428.225 5.12021 1.54074 0
M  V30 4592 H 428.568 3.53749 2.19471 0
M  V30 4593 H 429.101 3.94057 0.544447 0
M  V30 4594 H 425.84 6.46736 -1.0683 0
M  V30 4595 H 425.36 5.97079 0.570717 0
M  V30 4596 H 427.039 6.4655 0.241245 0
M  V30 4597 N 427.171 -0.0066808 1.57599 0
M  V30 4598 C 428.081 -1.01671 2.11424 0
M  V30 4599 C 429.097 -1.38143 1.05795 0
M  V30 4600 O 430.273 -1.47011 1.37658 0
M  V30 4601 C 427.338 -2.29192 2.60139 0
M  V30 4602 C 426.399 -1.99094 3.80342 0
M  V30 4603 C 425.632 -3.20535 4.26724 0
M  V30 4604 O 425.855 -4.3199 3.72479 0
M  V30 4605 O 424.789 -3.04924 5.18946 0
M  V30 4606 H 428.615 -0.589181 2.9793 0
M  V30 4607 H 426.2 -0.225091 1.47695 0
M  V30 4608 H 428.082 -3.0412 2.917 0
M  V30 4609 H 426.757 -2.71195 1.76733 0
M  V30 4610 H 425.664 -1.21663 3.53764 0
M  V30 4611 H 426.997 -1.61931 4.648 0
M  V30 4612 N 428.649 -1.55105 -0.279332 0
M  V30 4613 C 430.065 -1.46803 -0.626187 0
M  V30 4614 C 430.265 -0.676939 -1.89789 0
M  V30 4615 O 429.321 -0.19326 -2.51759 0
M  V30 4616 C 430.634 -2.90962 -0.759034 0
M  V30 4617 C 432.182 -3.01138 -0.853504 0
M  V30 4618 C 432.657 -4.46539 -1.01818 0
M  V30 4619 N 434.148 -4.50341 -1.08386 0
M  V30 4620 C 434.883 -5.60053 -1.22996 0
M  V30 4621 N 434.379 -6.79645 -1.34366 0
M  V30 4622 N 436.172 -5.47783 -1.26056 0
M  V30 4623 H 428.323 -2.04996 0.555921 0
M  V30 4624 H 430.586 -0.929325 0.187239 0
M  V30 4625 H 430.292 -3.51544 0.104852 0
M  V30 4626 H 430.166 -3.39619 -1.64131 0
M  V30 4627 H 432.553 -2.40658 -1.70786 0
M  V30 4628 H 432.634 -2.55745 0.0532466 0
M  V30 4629 H 432.278 -5.0762 -0.168504 0
M  V30 4630 H 432.208 -4.89583 -1.93948 0
M  V30 4631 H 434.699 -3.64191 -1.00864 0
M  V30 4632 H 435.012 -7.59012 -1.4533 0
M  V30 4633 H 433.357 -6.82469 -1.31382 0
M  V30 4634 H 436.548 -4.53294 -1.168 0
M  V30 4635 H 436.721 -6.33331 -1.37098 0
M  V30 4636 N 430.127 0.543554 -1.4793 0
M  V30 4637 C 431.376 1.29649 -1.54512 0
M  V30 4638 C 431.689 1.94382 -0.217973 0
M  V30 4639 O 432.895 2.71017 -0.161908 0
M  V30 4640 C 431.351 2.35175 -2.72435 0
M  V30 4641 C 430.959 1.76572 -4.11736 0
M  V30 4642 C 432.703 3.11564 -2.8832 0
M  V30 4643 C 430.61 2.79958 -5.20939 0
M  V30 4644 H 429.54 0.487541 -0.57517 0
M  V30 4645 H 432.191 0.575708 -1.74235 0
M  V30 4646 H 430.573 3.10229 -2.46118 0
M  V30 4647 H 431.747 1.07799 -4.48013 0
M  V30 4648 H 430.062 1.12722 -4.00852 0
M  V30 4649 H 432.659 3.88794 -3.67074 0
M  V30 4650 H 433.002 3.66594 -1.97268 0
M  V30 4651 H 433.535 2.43623 -3.14472 0
M  V30 4652 H 430.274 2.29766 -6.13912 0
M  V30 4653 H 429.794 3.47101 -4.89164 0
M  V30 4654 H 431.473 3.43198 -5.48474 0
M  V30 4655 N 431.605 1.3629 0.791371 0
M  V30 4656 C 432.568 1.30309 1.88553 0
M  V30 4657 C 433.568 0.211204 1.59407 0
M  V30 4658 O 434.758 0.465865 1.67855 0
M  V30 4659 C 431.89 1.01956 3.25297 0
M  V30 4660 H 433.083 2.27614 1.95273 0
M  V30 4661 H 430.636 1.21035 0.988953 0
M  V30 4662 H 431.371 0.050998 3.2426 0
M  V30 4663 H 431.156 1.80968 3.4784 0
M  V30 4664 H 432.646 1.0037 4.05359 0
M  V30 4665 N 433.083 -1.0153 1.20538 0
M  V30 4666 C 434.494 -1.56598 1.01657 0
M  V30 4667 C 434.845 -1.91505 -0.426668 0
M  V30 4668 O 433.97 -1.72375 -1.30827 0
M  V30 4669 C 434.565 -2.84542 1.83905 0
M  V30 4670 C 433.124 -3.36133 1.69386 0
M  V30 4671 C 432.271 -2.09427 1.81757 0
M  V30 4672 H 435.222 -0.838974 1.34711 0
M  V30 4673 H 435.243 -3.56004 1.34319 0
M  V30 4674 H 434.755 -2.59105 2.8894 0
M  V30 4675 H 432.856 -3.66528 0.669933 0
M  V30 4676 H 432.969 -4.08248 2.50739 0
M  V30 4677 H 431.333 -2.21941 1.24957 0
M  V30 4678 H 432.116 -1.86414 2.88279 0
M  V30 4679 N 434.561 -1.01147 -1.20859 0
M  V30 4680 C 435.491 -0.597663 -2.25722 0
M  V30 4681 C 436.472 0.384744 -1.65692 0
M  V30 4682 O 437.657 0.271303 -1.92296 0
M  V30 4683 C 434.787 0.0700149 -3.47229 0
M  V30 4684 C 433.741 -0.832843 -4.19819 0
M  V30 4685 C 433.067 -0.0312202 -5.34691 0
M  V30 4686 C 434.367 -2.1385 -4.76514 0
M  V30 4687 H 436.061 -1.47423 -2.60589 0
M  V30 4688 H 433.607 -0.710301 -1.25263 0
M  V30 4689 H 435.56 0.37103 -4.19763 0
M  V30 4690 H 434.284 0.981259 -3.11511 0
M  V30 4691 H 432.943 -1.11778 -3.49144 0
M  V30 4692 H 432.591 0.881515 -4.95215 0
M  V30 4693 H 432.291 -0.632434 -5.84187 0
M  V30 4694 H 433.815 0.26346 -6.10031 0
M  V30 4695 H 435.229 -1.9002 -5.40893 0
M  V30 4696 H 433.626 -2.69012 -5.36426 0
M  V30 4697 H 434.696 -2.80495 -3.95538 0
M  V30 4698 N 436.039 1.36541 -0.78704 0
M  V30 4699 C 437.002 2.28413 -0.189778 0
M  V30 4700 C 438.002 1.48719 0.611499 0
M  V30 4701 O 439.192 1.68737 0.432842 0
M  V30 4702 C 436.324 3.32824 0.737638 0
M  V30 4703 H 437.517 2.82743 -0.999831 0
M  V30 4704 H 435.07 1.46065 -0.556298 0
M  V30 4705 H 435.805 2.83646 1.57212 0
M  V30 4706 H 435.59 3.91752 0.165044 0
M  V30 4707 H 437.08 4.0144 1.15047 0
M  V30 4708 N 437.518 0.538854 1.48102 0
M  V30 4709 C 438.428 -0.222648 2.33541 0
M  V30 4710 C 439.444 -0.930225 1.47047 0
M  V30 4711 O 440.62 -0.903211 1.80011 0
M  V30 4712 C 437.685 -1.25064 3.23357 0
M  V30 4713 C 436.746 -0.552469 4.2573 0
M  V30 4714 C 435.979 -1.53149 5.11254 0
M  V30 4715 O 436.202 -2.76487 4.9891 0
M  V30 4716 O 435.136 -1.06602 5.92385 0
M  V30 4717 H 438.962 0.477707 2.99919 0
M  V30 4718 H 436.547 0.299669 1.46364 0
M  V30 4719 H 438.429 -1.8445 3.78888 0
M  V30 4720 H 437.104 -1.93325 2.59629 0
M  V30 4721 H 436.011 0.082114 3.7401 0
M  V30 4722 H 437.344 0.0883526 4.92121 0
M  V30 4723 N 438.996 -1.55193 0.274407 0
M  V30 4724 C 440.244 -1.99187 -0.341902 0
M  V30 4725 C 440.565 -1.16422 -1.56431 0
M  V30 4726 O 439.835 -0.253573 -1.94252 0
M  V30 4727 H 438.415 -0.735721 -0.129317 0
M  V30 4728 H 441.077 -1.91168 0.379578 0
M  V30 4729 H 440.173 -3.05629 -0.632253 0
M  V30 4730 N 440.474 -0.00167713 -1.576 0
M  V30 4731 C 441.437 0.974046 -2.07473 0
M  V30 4732 C 442.437 1.27143 -0.984444 0
M  V30 4733 O 443.627 1.21633 -1.24703 0
M  V30 4734 C 440.759 2.29849 -2.51759 0
M  V30 4735 H 441.952 0.54262 -2.9495 0
M  V30 4736 H 439.505 0.245829 -1.54355 0
M  V30 4737 H 440.24 2.77677 -1.67529 0
M  V30 4738 H 440.025 2.09584 -3.31386 0
M  V30 4739 H 441.515 2.9984 -2.90664 0
M  V30 4740 N 441.952 1.55251 0.271103 0
M  V30 4741 C 442.882 1.9127 1.33933 0
M  V30 4742 C 443.863 0.77478 1.5143 0
M  V30 4743 O 445.048 1.03307 1.64442 0
M  V30 4744 C 442.178 2.18627 2.69851 0
M  V30 4745 C 441.132 3.34442 2.67081 0
M  V30 4746 C 440.458 3.47284 4.06569 0
M  V30 4747 C 441.758 4.70784 2.26185 0
M  V30 4748 H 443.452 2.80744 1.04035 0
M  V30 4749 H 440.998 1.35077 0.499017 0
M  V30 4750 H 442.951 2.42413 3.44694 0
M  V30 4751 H 441.675 1.25955 3.01335 0
M  V30 4752 H 440.334 3.10627 1.94695 0
M  V30 4753 H 439.982 2.52074 4.35279 0
M  V30 4754 H 439.682 4.25152 4.0561 0
M  V30 4755 H 441.206 3.73363 4.83148 0
M  V30 4756 H 442.62 4.94102 2.90751 0
M  V30 4757 H 441.017 5.51582 2.36384 0
M  V30 4758 H 442.087 4.69478 1.21319 0
M  V30 4759 N 443.43 -0.535701 1.48216 0
M  V30 4760 C 444.841 -1.11769 1.49548 0
M  V30 4761 C 445.192 -1.94442 0.26207 0
M  V30 4762 O 444.317 -2.06987 -0.631287 0
M  V30 4763 C 444.912 -2.03367 2.70975 0
M  V30 4764 C 443.471 -2.56795 2.75196 0
M  V30 4765 C 442.618 -1.33631 2.42977 0
M  V30 4766 H 445.569 -0.321232 1.55415 0
M  V30 4767 H 445.59 -2.87569 2.49167 0
M  V30 4768 H 445.102 -1.43169 3.60727 0
M  V30 4769 H 443.203 -3.20731 1.89638 0
M  V30 4770 H 443.316 -2.9632 3.76472 0
M  V30 4771 H 441.68 -1.6502 1.94012 0
M  V30 4772 H 442.463 -0.75194 3.34964 0
M  V30 4773 N 444.908 -1.36708 -0.784132 0
M  V30 4774 C 446.138 -1.34203 -1.57077 0
M  V30 4775 C 446.546 0.0774945 -1.89041 0
M  V30 4776 O 445.889 1.04628 -1.50992 0
M  V30 4777 C 445.951 -2.10351 -2.91535 0
M  V30 4778 C 445.615 -3.59405 -2.82272 0
M  V30 4779 C 446.612 -4.53545 -2.54151 0
M  V30 4780 C 444.297 -4.02362 -3.00683 0
M  V30 4781 C 446.291 -5.8862 -2.44551 0
M  V30 4782 C 443.978 -5.37526 -2.90704 0
M  V30 4783 C 444.976 -6.30468 -2.62677 0
M  V30 4784 O 444.664 -7.63149 -2.52702 0
M  V30 4785 H 444.396 -0.461791 -0.493685 0
M  V30 4786 H 446.95 -1.80475 -0.980712 0
M  V30 4787 H 445.18 -1.5875 -3.52612 0
M  V30 4788 H 446.869 -2.00636 -3.52845 0
M  V30 4789 H 447.635 -4.21669 -2.39625 0
M  V30 4790 H 443.514 -3.30389 -3.21503 0
M  V30 4791 H 447.058 -6.61133 -2.22596 0
M  V30 4792 H 442.955 -5.69008 -3.04795 0
M  V30 4793 H 443.723 -7.73331 -2.68144 0
M  V30 4794 N 446.386 1.0089 -1.21074 0
M  V30 4795 C 447.334 2.11707 -0.963476 0
M  V30 4796 C 448.328 1.69172 0.0879032 0
M  V30 4797 O 449.534 1.79889 -0.0631415 0
M  V30 4798 H 445.909 0.692026 -0.294287 0
M  V30 4799 H 447.88 2.29743 -1.90422 0
M  V30 4800 C 446.629 3.43473 -0.540509 0
M  V30 4801 H 445.952 3.76634 -1.34114 0
M  V30 4802 H 447.392 4.22044 -0.406777 0
M  V30 4803 C 445.851 3.2849 0.748079 0
M  V30 4804 O 446.381 3.58883 1.8046 0
M  V30 4805 N 444.587 2.81715 0.713081 0
M  V30 4806 H 444.134 2.5718 -0.146973 0
M  V30 4807 H 444.092 2.72071 1.57558 0
M  V30 4808 N 447.864 1.01787 1.20321 0
M  V30 4809 C 448.794 0.609625 2.25401 0
M  V30 4810 C 449.775 -0.375951 1.65893 0
M  V30 4811 O 450.96 -0.261101 1.92437 0
M  V30 4812 C 448.09 -0.0515995 3.47262 0
M  V30 4813 C 447.044 0.855095 4.19371 0
M  V30 4814 C 446.37 0.0595757 5.34667 0
M  V30 4815 C 447.67 2.16374 4.75373 0
M  V30 4816 H 449.364 1.48803 2.59804 0
M  V30 4817 H 446.91 0.716934 1.24884 0
M  V30 4818 H 448.863 -0.348764 4.19954 0
M  V30 4819 H 447.587 -0.964726 3.12027 0
M  V30 4820 H 446.246 1.13628 3.48546 0
M  V30 4821 H 445.894 -0.85524 4.95676 0
M  V30 4822 H 445.594 0.663406 5.83843 0
M  V30 4823 H 447.118 -0.231105 6.10162 0
M  V30 4824 H 448.532 1.92885 5.39878 0
M  V30 4825 H 446.929 2.71853 5.34991 0
M  V30 4826 H 447.999 2.82589 3.94045 0
M  V30 4827 N 449.342 -1.36122 0.79427 0
M  V30 4828 C 450.305 -2.28309 0.201889 0
M  V30 4829 C 451.305 -1.49041 -0.603603 0
M  V30 4830 O 452.495 -1.68964 -0.423888 0
M  V30 4831 C 449.627 -3.3321 -0.719978 0
M  V30 4832 H 450.82 -2.82208 1.01481 0
M  V30 4833 H 448.373 -1.45768 0.564037 0
M  V30 4834 H 449.108 -2.84475 -1.55706 0
M  V30 4835 H 448.893 -3.91835 -0.144266 0
M  V30 4836 H 450.383 -4.02044 -1.12916 0
M  V30 4837 N 450.82 -0.546701 -1.47814 0
M  V30 4838 C 451.73 0.21026 -2.33656 0
M  V30 4839 C 452.746 0.922413 -1.47538 0
M  V30 4840 O 453.922 0.893652 -1.80488 0
M  V30 4841 C 450.987 1.23348 -3.24016 0
M  V30 4842 C 450.048 0.529883 -4.26017 0
M  V30 4843 C 449.281 1.50435 -5.12059 0
M  V30 4844 O 449.504 2.73837 -5.00369 0
M  V30 4845 O 448.438 1.03459 -5.92942 0
M  V30 4846 H 452.264 -0.493605 -2.99662 0
M  V30 4847 H 449.849 -0.307427 -1.46203 0
M  V30 4848 H 451.731 1.82438 -3.79861 0
M  V30 4849 H 450.406 1.91945 -2.60651 0
M  V30 4850 H 449.313 -0.101948 -3.73961 0
M  V30 4851 H 450.646 -0.11445 -4.92067 0
M  V30 4852 N 452.299 1.55045 -0.282633 0
M  V30 4853 C 453.229 2.2579 0.595066 0
M  V30 4854 C 454.21 1.25074 1.15284 0
M  V30 4855 O 455.395 1.5381 1.18559 0
M  V30 4856 C 452.525 2.98472 1.77572 0
M  V30 4857 C 451.479 4.0618 1.34914 0
M  V30 4858 C 450.805 4.66477 2.6135 0
M  V30 4859 C 452.105 5.1996 0.493821 0
M  V30 4860 H 453.799 2.994 0.00505653 0
M  V30 4861 H 451.345 1.44 0.000992001 0
M  V30 4862 H 453.298 3.46677 2.39568 0
M  V30 4863 H 452.022 2.2241 2.39168 0
M  V30 4864 H 450.681 3.58797 0.752338 0
M  V30 4865 H 450.329 3.87074 3.2122 0
M  V30 4866 H 450.029 5.39207 2.33516 0
M  V30 4867 H 451.553 5.17435 3.24181 0
M  V30 4868 H 452.967 5.64172 1.01898 0
M  V30 4869 H 451.364 5.99299 0.310047 0
M  V30 4870 H 452.434 4.82462 -0.485593 0
M  V30 4871 N 453.777 0.010035 1.57597 0
M  V30 4872 C 454.709 -1.00649 2.05918 0
M  V30 4873 C 455.722 -1.30077 0.978964 0
M  V30 4874 O 456.911 -1.26878 1.25556 0
M  V30 4875 C 454.011 -2.33876 2.45265 0
M  V30 4876 C 453.184 -2.23242 3.7614 0
M  V30 4877 C 452.243 -3.39242 4.02245 0
M  V30 4878 O 451.269 -3.1698 4.72771 0
M  V30 4879 N 452.471 -4.6242 3.50924 0
M  V30 4880 H 455.236 -0.594333 2.93748 0
M  V30 4881 H 452.797 -0.17714 1.60928 0
M  V30 4882 H 454.789 -3.1027 2.59836 0
M  V30 4883 H 453.359 -2.66799 1.62902 0
M  V30 4884 H 452.579 -1.31696 3.71551 0
M  V30 4885 H 453.867 -2.13321 4.61922 0
M  V30 4886 H 453.265 -4.83404 2.93832 0
M  V30 4887 H 451.822 -5.36046 3.70807 0
M  V30 4888 N 455.255 -1.55392 -0.262866 0
M  V30 4889 C 456.671 -1.47459 -0.610582 0
M  V30 4890 C 456.871 -0.697031 -1.8906 0
M  V30 4891 O 455.927 -0.219952 -2.5154 0
M  V30 4892 C 457.24 -2.91751 -0.728131 0
M  V30 4893 C 458.788 -3.02027 -0.821517 0
M  V30 4894 C 459.263 -4.47594 -0.97076 0
M  V30 4895 N 460.754 -4.51465 -1.03603 0
M  V30 4896 C 461.489 -5.61326 -1.17049 0
M  V30 4897 N 460.985 -6.81032 -1.2715 0
M  V30 4898 N 462.778 -5.49089 -1.20239 0
M  V30 4899 H 454.929 -2.04395 0.577632 0
M  V30 4900 H 457.192 -0.927287 0.197086 0
M  V30 4901 H 456.898 -3.51413 0.142132 0
M  V30 4902 H 456.772 -3.4134 -1.6052 0
M  V30 4903 H 459.159 -2.42456 -1.68224 0
M  V30 4904 H 459.24 -2.55674 0.0803688 0
M  V30 4905 H 458.884 -5.07771 -0.114655 0
M  V30 4906 H 458.814 -4.91613 -1.88745 0
M  V30 4907 H 461.305 -3.6524 -0.96996 0
M  V30 4908 H 461.618 -7.60511 -1.37271 0
M  V30 4909 H 459.963 -6.83824 -1.24136 0
M  V30 4910 H 463.154 -4.54507 -1.11985 0
M  V30 4911 H 463.327 -6.34749 -1.30373 0
M  V30 4912 N 456.733 0.527833 -1.48498 0
M  V30 4913 C 457.665 1.6482 -1.5927 0
M  V30 4914 C 458.678 1.55659 -0.476869 0
M  V30 4915 O 459.867 1.62081 -0.747806 0
M  V30 4916 C 456.967 3.0348 -1.50842 0
M  V30 4917 C 456.14 3.381 -2.77502 0
M  V30 4918 C 455.199 4.5605 -2.62497 0
M  V30 4919 O 454.225 4.59165 -3.36387 0
M  V30 4920 N 455.427 5.54353 -1.72257 0
M  V30 4921 H 458.192 1.56015 -2.55889 0
M  V30 4922 H 455.753 0.715152 -1.45249 0
M  V30 4923 H 457.745 3.80264 -1.38496 0
M  V30 4924 H 456.315 3.06352 -0.621887 0
M  V30 4925 H 455.535 2.50473 -3.04396 0
M  V30 4926 H 456.823 3.58017 -3.61527 0
M  V30 4927 H 456.221 5.54617 -1.11431 0
M  V30 4928 H 454.778 6.30347 -1.65849 0
M  V30 4929 N 458.211 1.37122 0.776871 0
M  V30 4930 C 459.143 1.28342 1.89897 0
M  V30 4931 C 460.156 0.200277 1.61563 0
M  V30 4932 O 461.345 0.456012 1.72577 0
M  V30 4933 C 458.445 0.960427 3.25006 0
M  V30 4934 C 457.618 2.148 3.81025 0
M  V30 4935 C 456.677 1.79608 4.94598 0
M  V30 4936 O 455.703 2.51845 5.10454 0
M  V30 4937 N 456.905 0.737171 5.758 0
M  V30 4938 H 459.67 2.25027 1.97947 0
M  V30 4939 H 457.231 1.3068 0.955739 0
M  V30 4940 H 459.223 0.705942 3.98495 0
M  V30 4941 H 457.793 0.0823066 3.12492 0
M  V30 4942 H 457.013 2.56454 2.99374 0
M  V30 4943 H 458.301 2.9411 4.15183 0
M  V30 4944 H 457.699 0.137637 5.65533 0
M  V30 4945 H 456.256 0.542534 6.49538 0
M  V30 4946 N 459.689 -1.00246 1.21608 0
M  V30 4947 C 460.914 -1.78167 1.06167 0
M  V30 4948 C 461.339 -1.84138 -0.384035 0
M  V30 4949 O 460.697 -1.28683 -1.27712 0
M  V30 4950 C 460.745 -3.19786 1.66642 0
M  V30 4951 O 459.849 -4.02153 0.913613 0
M  V30 4952 H 459.19 -0.549 0.37349 0
M  V30 4953 H 461.72 -1.25994 1.61204 0
M  V30 4954 H 461.73 -3.70451 1.70969 0
M  V30 4955 H 460.405 -3.14754 2.7185 0
M  V30 4956 H 458.982 -3.60711 0.945635 0
M  V30 4957 N 461.167 -1.02423 -1.1978 0
M  V30 4958 C 462.578 -0.748389 -1.71044 0
M  V30 4959 C 462.929 0.732398 -1.82017 0
M  V30 4960 O 462.054 1.57116 -1.48807 0
M  V30 4961 C 462.649 -1.35187 -3.1066 0
M  V30 4962 C 461.208 -1.12472 -3.59203 0
M  V30 4963 C 460.355 -1.45283 -2.36195 0
M  V30 4964 H 463.306 -1.19275 -1.04686 0
M  V30 4965 H 463.327 -0.746408 -3.73107 0
M  V30 4966 H 462.839 -2.4296 -3.02642 0
M  V30 4967 H 460.94 -0.0649983 -3.72543 0
M  V30 4968 H 461.053 -1.81016 -4.43588 0
M  V30 4969 H 459.417 -0.872034 -2.39307 0
M  V30 4970 H 460.2 -2.54129 -2.30811 0
M  V30 4971 N 462.645 1.35699 -0.801477 0
M  V30 4972 C 463.893 1.9852 -0.37871 0
M  V30 4973 C 464.214 1.63907 1.05638 0
M  V30 4974 O 463.484 0.919013 1.73006 0
M  V30 4975 H 462.064 0.734322 -0.137042 0
M  V30 4976 H 464.726 1.65697 -1.02619 0
M  V30 4977 H 463.822 3.08382 -0.480284 0
M  V30 4978 N 464.123 0.554532 1.47522 0
M  V30 4979 C 465.053 -0.182974 2.32782 0
M  V30 4980 C 466.034 -0.911377 1.43624 0
M  V30 4981 O 467.219 -0.892366 1.72483 0
M  V30 4982 C 464.349 -1.21513 3.25349 0
M  V30 4983 C 463.303 -0.603355 4.23726 0
M  V30 4984 C 462.629 -1.73995 5.05598 0
M  V30 4985 C 463.929 0.441121 5.20434 0
M  V30 4986 H 465.623 0.52882 2.94693 0
M  V30 4987 H 463.169 0.255759 1.41711 0
M  V30 4988 H 465.122 -1.73922 3.83835 0
M  V30 4989 H 463.846 -1.95683 2.61487 0
M  V30 4990 H 462.505 -0.10059 3.66462 0
M  V30 4991 H 462.153 -2.47063 4.38143 0
M  V30 4992 H 461.853 -1.3364 5.72201 0
M  V30 4993 H 463.377 -2.26735 5.66942 0
M  V30 4994 H 464.791 0.00319931 5.733 0
M  V30 4995 H 463.188 0.763402 5.95224 0
M  V30 4996 H 464.258 1.33799 4.66075 0
M  V30 4997 N 465.601 -1.54893 0.290851 0
M  V30 4998 C 466.849 -1.99538 -0.320756 0
M  V30 4999 C 467.17 -1.18075 -1.55188 0
M  V30 5000 O 466.44 -0.274162 -1.93972 0
M  V30 5001 H 465.02 -0.737052 -0.121507 0
M  V30 5002 H 467.682 -1.90755 0.399832 0
M  V30 5003 H 466.778 -3.06282 -0.599802 0
M  V30 5004 N 467.08 -0.0183926 -1.57589 0
M  V30 5005 C 468.496 0.337897 -1.55982 0
M  V30 5006 C 468.696 1.73604 -1.02294 0
M  V30 5007 O 467.752 2.43589 -0.664895 0
M  V30 5008 C 469.065 0.196305 -3.00059 0
M  V30 5009 C 470.613 0.269875 -3.11834 0
M  V30 5010 C 471.088 0.157197 -4.5773 0
M  V30 5011 N 472.579 0.214521 -4.62703 0
M  V30 5012 C 473.314 0.150955 -5.73201 0
M  V30 5013 N 472.81 0.0369212 -6.9279 0
M  V30 5014 N 474.603 0.204162 -5.61729 0
M  V30 5015 H 466.754 -0.93279 -1.90821 0
M  V30 5016 H 469.017 -0.359253 -0.877292 0
M  V30 5017 H 468.723 -0.766383 -3.43248 0
M  V30 5018 H 468.597 0.970908 -3.6449 0
M  V30 5019 H 470.984 1.22302 -2.68563 0
M  V30 5020 H 471.065 -0.534918 -2.50144 0
M  V30 5021 H 470.709 -0.792479 -5.01679 0
M  V30 5022 H 470.639 0.980717 -5.17387 0
M  V30 5023 H 473.13 0.303238 -3.76681 0
M  V30 5024 H 473.443 -0.00518321 -7.728 0
M  V30 5025 H 471.788 0.0022886 -6.95 0
M  V30 5026 H 474.979 0.291575 -4.67191 0
M  V30 5027 H 475.152 0.15116 -6.47824 0
M  V30 5028 N 468.558 1.5553 0.254621 0
M  V30 5029 C 469.969 1.67518 0.824286 0
M  V30 5030 C 470.32 0.614429 1.86331 0
M  V30 5031 O 469.445 -0.240736 2.15057 0
M  V30 5032 C 470.04 3.03692 1.50189 0
M  V30 5033 C 468.599 3.17646 2.01935 0
M  V30 5034 C 467.746 2.63373 0.867746 0
M  V30 5035 H 470.697 1.58671 0.0305843 0
M  V30 5036 H 470.718 2.97706 2.36962 0
M  V30 5037 H 470.23 3.80874 0.745431 0
M  V30 5038 H 468.331 2.45273 2.80485 0
M  V30 5039 H 468.444 4.24455 2.22204 0
M  V30 5040 H 466.808 2.20999 1.26616 0
M  V30 5041 H 467.591 3.43074 0.124498 0
M  V30 5042 N 470.036 -0.519951 1.48776 0
M  V30 5043 C 471.285 -1.27175 1.56555 0
M  V30 5044 C 471.598 -1.9401 0.248869 0
M  V30 5045 O 472.804 -2.70725 0.205004 0
M  V30 5046 C 471.26 -2.30811 2.76142 0
M  V30 5047 C 470.868 -1.7 4.14493 0
M  V30 5048 C 472.612 -3.06937 2.9324 0
M  V30 5049 C 470.519 -2.71635 5.25327 0
M  V30 5050 H 469.449 -0.478329 0.582853 0
M  V30 5051 H 472.1 -0.547916 1.75129 0
M  V30 5052 H 470.482 -3.06274 2.51023 0
M  V30 5053 H 471.656 -1.00658 4.49672 0
M  V30 5054 H 469.971 -1.06331 4.02595 0
M  V30 5055 H 472.568 -3.82905 3.73213 0
M  V30 5056 H 472.911 -3.63409 2.03075 0
M  V30 5057 H 473.444 -2.38589 3.18308 0
M  V30 5058 H 470.183 -2.1997 6.1749 0
M  V30 5059 H 469.703 -3.39275 4.94624 0
M  V30 5060 H 471.382 -3.34429 5.53865 0
M  V30 5061 N 471.514 -1.37532 -0.769588 0
M  V30 5062 C 472.76 -1.34063 -1.52966 0
M  V30 5063 C 473.115 0.0737942 -1.92258 0
M  V30 5064 O 472.408 1.03291 -1.61374 0
M  V30 5065 C 472.602 -2.21558 -2.8044 0
M  V30 5066 C 472.431 -3.71367 -2.53608 0
M  V30 5067 C 471.201 -4.40464 -2.47628 0
M  V30 5068 C 473.399 -4.64177 -2.21459 0
M  V30 5069 N 471.381 -5.758 -2.12902 0
M  V30 5070 C 472.752 -5.87907 -1.9689 0
M  V30 5071 C 474.807 -4.52541 -2.07633 0
M  V30 5072 C 473.51 -7.01304 -1.59892 0
M  V30 5073 C 475.536 -5.65825 -1.72034 0
M  V30 5074 C 474.898 -6.88606 -1.48327 0
M  V30 5075 H 470.997 -0.545856 -0.559969 0
M  V30 5076 H 473.581 -1.72773 -0.897634 0
M  V30 5077 H 471.752 -1.85061 -3.41478 0
M  V30 5078 H 473.484 -2.09332 -3.46356 0
M  V30 5079 H 470.239 -3.93491 -2.63556 0
M  V30 5080 H 470.663 -6.47328 -1.9823 0
M  V30 5081 H 475.305 -3.58183 -2.24643 0
M  V30 5082 H 473.023 -7.95594 -1.4162 0
M  V30 5083 H 476.609 -5.58793 -1.61991 0
M  V30 5084 H 475.489 -7.74779 -1.21189 0
M  V30 5085 N 472.992 0.995999 -1.22138 0
M  V30 5086 C 473.922 2.10387 -1.01289 0
M  V30 5087 C 474.903 1.69975 0.0651454 0
M  V30 5088 O 476.088 1.9396 -0.0964628 0
M  V30 5089 C 473.218 3.42312 -0.586517 0
M  V30 5090 C 472.172 3.96558 -1.61014 0
M  V30 5091 C 471.498 5.24494 -1.0397 0
M  V30 5092 C 472.798 4.27595 -2.99933 0
M  V30 5093 H 474.492 2.28086 -1.93951 0
M  V30 5094 H 472.038 1.09607 -0.933928 0
M  V30 5095 H 473.991 4.19223 -0.427793 0
M  V30 5096 H 472.715 3.24431 0.375761 0
M  V30 5097 H 471.374 3.21776 -1.75658 0
M  V30 5098 H 471.022 5.02953 -0.0688703 0
M  V30 5099 H 470.722 5.61755 -1.72352 0
M  V30 5100 H 472.246 6.04042 -0.892494 0
M  V30 5101 H 473.66 4.95315 -2.8868 0
M  V30 5102 H 472.057 4.76021 -3.6541 0
M  V30 5103 H 473.127 3.35498 -3.50099 0
M  V30 5104 N 474.47 1.03057 1.19235 0
M  V30 5105 C 475.402 0.570932 2.21975 0
M  V30 5106 C 476.415 -0.354088 1.58903 0
M  V30 5107 O 477.604 -0.150211 1.77867 0
M  V30 5108 C 474.704 -0.187152 3.38383 0
M  V30 5109 C 473.877 0.743231 4.31039 0
M  V30 5110 C 472.936 0.0302493 5.26191 0
M  V30 5111 O 471.962 0.657371 5.65391 0
M  V30 5112 N 473.164 -1.23991 5.67104 0
M  V30 5113 H 475.929 1.45456 2.62036 0
M  V30 5114 H 473.49 0.909807 1.33918 0
M  V30 5115 H 475.482 -0.673715 3.99053 0
M  V30 5116 H 474.052 -0.972205 2.97098 0
M  V30 5117 H 473.272 1.40985 3.68126 0
M  V30 5118 H 474.56 1.3755 4.89854 0
M  V30 5119 H 473.958 -1.77011 5.37293 0
M  V30 5120 H 472.515 -1.67093 6.30018 0
M  V30 5121 N 475.948 -1.35272 0.808662 0
M  V30 5122 C 477.197 -1.97963 0.386483 0
M  V30 5123 C 477.51 -1.64866 -1.05255 0
M  V30 5124 O 478.716 -2.20937 -1.57794 0
M  V30 5125 C 477.172 -3.54162 0.640096 0
M  V30 5126 C 476.78 -3.96166 2.0918 0
M  V30 5127 C 478.524 -4.23553 0.283376 0
M  V30 5128 C 476.431 -5.4522 2.29106 0
M  V30 5129 H 475.361 -0.740742 0.140774 0
M  V30 5130 H 478.012 -1.5431 0.993012 0
M  V30 5131 H 476.394 -3.95983 -0.0364117 0
M  V30 5132 H 477.568 -3.65491 2.80629 0
M  V30 5133 H 475.883 -3.3967 2.40859 0
M  V30 5134 H 478.48 -5.33124 0.410273 0
M  V30 5135 H 478.823 -4.09105 -0.770659 0
M  V30 5136 H 479.356 -3.8716 0.913884 0
M  V30 5137 H 476.095 -5.64638 3.32962 0
M  V30 5138 H 475.615 -5.77457 1.62184 0
M  V30 5139 H 477.294 -6.1171 2.1076 0
M  V30 5140 N 477.426 -0.562348 -1.47226 0
M  V30 5141 C 478.389 0.172056 -2.28553 0
M  V30 5142 C 479.389 0.837928 -1.37242 0
M  V30 5143 O 480.579 0.693001 -1.59822 0
M  V30 5144 C 477.711 1.25223 -3.17068 0
M  V30 5145 H 478.904 -0.542401 -2.94954 0
M  V30 5146 H 476.457 -0.319493 -1.53 0
M  V30 5147 H 477.192 1.99892 -2.55369 0
M  V30 5148 H 476.977 0.779515 -3.84273 0
M  V30 5149 H 478.467 1.76791 -3.78332 0
M  V30 5150 N 478.904 1.54736 -0.299062 0
M  V30 5151 C 479.814 2.27127 0.587413 0
M  V30 5152 C 480.83 1.30575 1.15005 0
M  V30 5153 O 482.006 1.63554 1.17525 0
M  V30 5154 C 479.071 2.99645 1.74395 0
M  V30 5155 C 478.132 4.11731 1.21559 0
M  V30 5156 C 477.365 4.80781 2.317 0
M  V30 5157 O 477.588 4.4918 3.51558 0
M  V30 5158 O 476.522 5.68226 1.98501 0
M  V30 5159 H 480.348 3.037 0.000250109 0
M  V30 5160 H 477.933 1.49256 -0.0655919 0
M  V30 5161 H 479.815 3.45138 2.4178 0
M  V30 5162 H 478.49 2.25969 2.31775 0
M  V30 5163 H 477.397 3.70641 0.507514 0
M  V30 5164 H 478.73 4.87379 0.687233 0
M  V30 5165 N 480.382 0.0267497 1.57577 0
M  V30 5166 C 481.607 -0.666227 1.96408 0
M  V30 5167 C 482.032 -1.65004 0.903071 0
M  V30 5168 O 481.39 -1.80787 -0.136263 0
M  V30 5169 C 481.438 -1.35101 3.34335 0
M  V30 5170 O 480.542 -2.46623 3.30531 0
M  V30 5171 H 479.883 -0.175206 0.640468 0
M  V30 5172 H 482.413 0.0878977 2.04411 0
M  V30 5173 H 482.423 -1.70834 3.70513 0
M  V30 5174 H 481.098 -0.629844 4.11103 0
M  V30 5175 H 479.675 -2.13019 3.06068 0
M  V30 5176 N 481.861 -1.55662 -0.24637 0
M  V30 5177 C 482.824 -1.89558 -1.28842 0
M  V30 5178 C 483.824 -0.772082 -1.41052 0
M  V30 5179 O 485.014 -1.04007 -1.39743 0
M  V30 5180 C 482.146 -2.12449 -2.66605 0
M  V30 5181 H 483.339 -2.82735 -1.00004 0
M  V30 5182 H 480.892 -1.48562 -0.485684 0
M  V30 5183 H 481.627 -1.21742 -3.00582 0
M  V30 5184 H 481.412 -2.94273 -2.59125 0
M  V30 5185 H 482.902 -2.39854 -3.41847 0
M  V30 5186 N 483.339 0.512053 -1.4905 0
M  V30 5187 C 484.569 1.28928 -1.61434 0
M  V30 5188 C 484.977 1.87107 -0.280647 0
M  V30 5189 O 484.32 1.68024 0.742537 0
M  V30 5190 C 484.382 2.466 -2.61588 0
M  V30 5191 C 484.046 2.09375 -4.06216 0
M  V30 5192 C 485.043 1.63994 -4.93358 0
M  V30 5193 C 482.728 2.19348 -4.51876 0
M  V30 5194 C 484.722 1.29076 -6.24194 0
M  V30 5195 C 482.409 1.84041 -5.82728 0
M  V30 5196 C 483.407 1.38978 -6.68711 0
M  V30 5197 O 483.095 1.04144 -7.97126 0
M  V30 5198 H 482.827 0.397668 -0.546659 0
M  V30 5199 H 485.381 0.622507 -1.9574 0
M  V30 5200 H 483.611 3.16318 -2.22441 0
M  V30 5201 H 485.3 3.08642 -2.63619 0
M  V30 5202 H 486.066 1.55744 -4.59313 0
M  V30 5203 H 481.945 2.53376 -3.85125 0
M  V30 5204 H 485.489 0.938303 -6.91261 0
M  V30 5205 H 481.386 1.91938 -6.16304 0
M  V30 5206 H 482.154 1.17387 -8.10039 0
M  V30 5207 N 484.817 1.37938 0.762283 0
M  V30 5208 C 486.233 1.18945 1.06415 0
M  V30 5209 C 486.433 0.0321163 2.01474 0
M  V30 5210 O 485.489 -0.624844 2.44647 0
M  V30 5211 C 486.802 2.51218 1.65258 0
M  V30 5212 C 488.35 2.57824 1.7747 0
M  V30 5213 C 488.825 3.90251 2.39725 0
M  V30 5214 N 490.316 3.91744 2.47166 0
M  V30 5215 C 491.051 4.90966 2.96209 0
M  V30 5216 N 490.547 6.00585 3.45354 0
M  V30 5217 N 492.34 4.78363 2.9517 0
M  V30 5218 H 484.491 2.11994 0.131301 0
M  V30 5219 H 486.754 0.940262 0.120879 0
M  V30 5220 H 486.46 3.36317 1.02878 0
M  V30 5221 H 486.334 2.68989 2.64433 0
M  V30 5222 H 488.721 1.73126 2.3898 0
M  V30 5223 H 488.802 2.43928 0.770241 0
M  V30 5224 H 488.446 4.75368 1.78852 0
M  V30 5225 H 488.376 4.01454 3.40796 0
M  V30 5226 H 490.867 3.12563 2.12397 0
M  V30 5227 H 491.18 6.72236 3.81207 0
M  V30 5228 H 489.525 6.04217 3.43434 0
M  V30 5229 H 492.716 3.91841 2.56082 0
M  V30 5230 H 492.889 5.55843 3.33081 0
M  V30 5231 N 486.295 -0.989507 1.22664 0
M  V30 5232 C 487.542 -1.72953 1.05325 0
M  V30 5233 C 487.87 -1.90104 -0.411168 0
M  V30 5234 O 487.125 -1.44386 -1.32103 0
M  V30 5235 C 487.424 -3.13649 1.71345 0
M  V30 5236 C 487.09 -3.16403 3.21248 0
M  V30 5237 C 485.752 -3.16862 3.62149 0
M  V30 5238 C 488.104 -3.12428 4.17179 0
M  V30 5239 C 485.432 -3.11051 4.97458 0
M  V30 5240 C 487.784 -3.08159 5.52468 0
M  V30 5241 C 486.448 -3.06935 5.92746 0
M  V30 5242 H 485.718 -0.632881 0.385412 0
M  V30 5243 H 488.365 -1.15863 1.52473 0
M  V30 5244 H 486.67 -3.74069 1.16532 0
M  V30 5245 H 488.367 -3.69658 1.55416 0
M  V30 5246 H 484.957 -3.16798 2.88682 0
M  V30 5247 H 489.141 -3.11221 3.86595 0
M  V30 5248 H 484.397 -3.0845 5.27891 0
M  V30 5249 H 488.571 -3.04039 6.26525 0
M  V30 5250 H 486.198 -3.02186 6.97558 0
M  V30 5251 N 487.773 -1.03688 -1.18687 0
M  V30 5252 C 489.001 -0.757918 -1.92518 0
M  V30 5253 C 489.416 0.684398 -1.75959 0
M  V30 5254 O 488.773 1.46617 -1.08673 0
M  V30 5255 C 488.824 -1.10985 -3.44042 0
M  V30 5256 O 488.545 -2.49554 -3.60076 0
M  V30 5257 C 490.046 -0.854844 -4.3498 0
M  V30 5258 H 487.266 -0.276699 -0.611293 0
M  V30 5259 H 489.81 -1.38352 -1.50595 0
M  V30 5260 H 487.965 -0.529279 -3.83767 0
M  V30 5261 H 488.379 -2.6291 -4.53849 0
M  V30 5262 H 489.853 -1.15098 -5.39867 0
M  V30 5263 H 490.33 0.210507 -4.38695 0
M  V30 5264 H 490.936 -1.41853 -4.00946 0
M  V30 5265 N 489.251 1.34841 -0.815825 0
M  V30 5266 C 490.181 2.32187 -0.247298 0
M  V30 5267 C 491.162 1.5791 0.632344 0
M  V30 5268 O 492.347 1.8593 0.560698 0
M  V30 5269 C 489.477 3.42122 0.597466 0
M  V30 5270 C 488.431 4.27602 -0.184446 0
M  V30 5271 C 487.757 5.28942 0.782609 0
M  V30 5272 C 489.057 5.03502 -1.38865 0
M  V30 5273 H 490.751 2.79985 -1.06061 0
M  V30 5274 H 488.297 1.34611 -0.511461 0
M  V30 5275 H 490.25 4.09232 1.00533 0
M  V30 5276 H 488.974 2.92956 1.44376 0
M  V30 5277 H 487.633 3.62085 -0.573592 0
M  V30 5278 H 487.281 4.7604 1.62466 0
M  V30 5279 H 486.981 5.87008 0.263695 0
M  V30 5280 H 488.505 5.98922 1.18848 0
M  V30 5281 H 489.919 5.63506 -1.05518 0
M  V30 5282 H 488.316 5.71108 -1.8427 0
M  V30 5283 H 489.386 4.33608 -2.17054 0
M  V30 5284 N 490.729 0.570148 1.46925 0
M  V30 5285 C 491.977 0.0508523 2.02036 0
M  V30 5286 C 492.298 -1.30885 1.44548 0
M  V30 5287 O 491.568 -1.85647 0.625453 0
M  V30 5288 H 490.148 0.0158088 0.746833 0
M  V30 5289 H 492.81 0.743086 1.80178 0
M  V30 5290 H 491.906 -0.027575 3.12088 0
M  V30 5291 N 492.207 -1.54576 0.307264 0
M  V30 5292 C 493.432 -2.05139 -0.305379 0
M  V30 5293 C 493.857 -1.18278 -1.46259 0
M  V30 5294 O 493.215 -0.188243 -1.8032 0
M  V30 5295 C 493.263 -3.53066 -0.733283 0
M  V30 5296 O 492.367 -3.69206 -1.83741 0
M  V30 5297 H 491.708 -0.661444 -0.0582105 0
M  V30 5298 H 494.238 -1.99569 0.450931 0
M  V30 5299 H 494.248 -3.95034 -1.02039 0
M  V30 5300 H 492.923 -4.15746 0.113198 0
M  V30 5301 H 491.5 -3.39143 -1.55037 0
M  V30 5302 N 493.685 -0.035106 -1.57561 0
M  V30 5303 C 494.931 0.64318 -1.92331 0
M  V30 5304 C 495.264 1.71434 -0.912368 0
M  V30 5305 O 494.539 1.94395 0.0640303 0
M  V30 5306 C 494.822 1.25411 -3.37556 0
M  V30 5307 C 494.675 0.192109 -4.4939 0
M  V30 5308 C 495.994 2.17041 -3.82859 0
M  V30 5309 H 493.113 0.232341 -0.699419 0
M  V30 5310 H 495.755 -0.0935889 -1.89769 0
M  V30 5311 H 493.905 1.88205 -3.39869 0
M  V30 5312 H 495.577 -0.438849 -4.59208 0
M  V30 5313 H 493.82 -0.481725 -4.31117 0
M  V30 5314 H 494.491 0.659292 -5.48049 0
M  V30 5315 H 496.967 1.64228 -3.8232 0
M  V30 5316 H 495.843 2.56738 -4.85157 0
M  V30 5317 H 496.104 3.06401 -3.18702 0
M  V30 5318 N 495.163 1.55791 0.238111 0
M  V30 5319 C 496.126 1.90239 1.27835 0
M  V30 5320 C 497.126 0.779552 1.4064 0
M  V30 5321 O 498.316 1.04747 1.3919 0
M  V30 5322 C 495.448 2.13859 2.65475 0
M  V30 5323 H 496.641 2.83262 0.985034 0
M  V30 5324 H 494.194 1.48818 0.477799 0
M  V30 5325 H 494.929 1.23334 2.99932 0
M  V30 5326 H 494.714 2.95643 2.57561 0
M  V30 5327 H 496.204 2.41664 3.40571 0
M  V30 5328 N 496.642 -0.504142 1.49319 0
M  V30 5329 C 497.89 -1.25598 1.58334 0
M  V30 5330 C 498.211 -1.93114 0.270538 0
M  V30 5331 O 497.481 -1.82585 -0.709891 0
M  V30 5332 H 496.061 -0.466571 0.58337 0
M  V30 5333 H 498.723 -0.584547 1.85928 0
M  V30 5334 H 497.819 -2.02159 2.37778 0
M  V30 5335 N 498.12 -1.38341 -0.754957 0
M  V30 5336 C 499.083 -1.35262 -1.85032 0
M  V30 5337 C 500.083 -0.253393 -1.58791 0
M  V30 5338 O 501.273 -0.510205 -1.66561 0
M  V30 5339 C 498.405 -1.10544 -3.22479 0
M  V30 5340 H 499.598 -2.32712 -1.8917 0
M  V30 5341 H 497.151 -1.23614 -0.956515 0
M  V30 5342 H 497.886 -0.136952 -3.24011 0
M  V30 5343 H 497.671 -1.90127 -3.4292 0
M  V30 5344 H 499.161 -1.11082 -4.02555 0
M  V30 5345 N 499.598 0.982988 -1.23187 0
M  V30 5346 C 500.844 1.72648 -1.06398 0
M  V30 5347 C 501.177 1.90066 0.398561 0
M  V30 5348 O 500.452 1.45105 1.29518 0
M  V30 5349 C 500.735 3.12627 -1.78707 0
M  V30 5350 C 500.588 3.02795 -3.32618 0
M  V30 5351 C 501.907 4.11997 -1.54747 0
M  V30 5352 H 499.026 0.626649 -0.387918 0
M  V30 5353 H 501.668 1.14455 -1.51658 0
M  V30 5354 H 499.818 3.62308 -1.40234 0
M  V30 5355 H 501.49 2.60659 -3.80598 0
M  V30 5356 H 499.733 2.39362 -3.61785 0
M  V30 5357 H 500.404 4.01893 -3.78399 0
M  V30 5358 H 502.88 3.71114 -1.88186 0
M  V30 5359 H 501.756 5.08037 -2.07821 0
M  V30 5360 H 502.017 4.39462 -0.482249 0
M  V30 5361 N 501.076 1.04316 1.18135 0
M  V30 5362 C 502.324 0.746542 1.87806 0
M  V30 5363 C 502.645 -0.728082 1.80898 0
M  V30 5364 O 501.915 -1.52554 1.22899 0
M  V30 5365 H 500.495 0.273157 0.695265 0
M  V30 5366 H 503.157 1.32044 1.43354 0
M  V30 5367 H 502.253 1.05362 2.93778 0
M  V30 5368 N 502.554 -1.34406 0.822964 0
M  V30 5369 C 503.517 -2.2783 0.250271 0
M  V30 5370 C 504.517 -1.50288 -0.571854 0
M  V30 5371 O 505.707 -1.69825 -0.387952 0
M  V30 5372 C 502.839 -3.34663 -0.649137 0
M  V30 5373 H 504.032 -2.79992 1.07444 0
M  V30 5374 H 501.585 -1.44539 0.594829 0
M  V30 5375 H 502.32 -2.87714 -1.49637 0
M  V30 5376 H 502.105 -3.92052 -0.0611199 0
M  V30 5377 H 503.595 -4.04349 -1.04363 0
M  V30 5378 N 504.032 -0.577932 -1.46621 0
M  V30 5379 C 505.26 -0.0671642 -2.06791 0
M  V30 5380 C 505.675 1.23571 -1.42743 0
M  V30 5381 O 505.032 1.74602 -0.531062 0
M  V30 5382 C 505.083 0.110357 -3.61332 0
M  V30 5383 O 504.804 -1.14095 -4.22982 0
M  V30 5384 C 506.305 0.656025 -4.38419 0
M  V30 5385 H 503.525 -0.0552732 -0.66872 0
M  V30 5386 H 506.069 -0.797242 -1.8832 0
M  V30 5387 H 504.224 0.790637 -3.79246 0
M  V30 5388 H 504.638 -0.951742 -5.15793 0
M  V30 5389 H 506.112 0.729438 -5.47159 0
M  V30 5390 H 506.589 1.67195 -4.06131 0
M  V30 5391 H 507.195 0.0107692 -4.25299 0
M  V30 5392 N 505.51 1.54411 -0.315457 0
M  V30 5393 C 506.473 2.22713 0.54142 0
M  V30 5394 C 507.473 1.2179 1.04995 0
M  V30 5395 O 508.663 1.46426 0.943667 0
M  V30 5396 C 505.795 2.92485 1.75116 0
M  V30 5397 H 506.988 2.99849 -0.0555508 0
M  V30 5398 H 504.541 1.56159 -0.0664453 0
M  V30 5399 H 505.276 2.19466 2.38758 0
M  V30 5400 H 505.061 3.66483 1.39401 0
M  V30 5401 H 506.551 3.44548 2.35959 0
M  V30 5402 N 506.988 0.0434614 1.5754 0
M  V30 5403 C 508.234 -0.632971 1.92669 0
M  V30 5404 C 508.567 -1.70947 0.921446 0
M  V30 5405 O 507.842 -1.94426 -0.0537202 0
M  V30 5406 C 508.125 -1.23619 3.38216 0
M  V30 5407 C 507.978 -0.168274 4.49485 0
M  V30 5408 C 509.297 -2.15008 3.84005 0
M  V30 5409 H 506.416 -0.228629 0.700641 0
M  V30 5410 H 509.058 0.103651 1.89717 0
M  V30 5411 H 507.208 -1.864 3.40863 0
M  V30 5412 H 508.88 0.463196 4.58969 0
M  V30 5413 H 507.123 0.504581 4.30855 0
M  V30 5414 H 507.794 -0.630218 5.48391 0
M  V30 5415 H 510.27 -1.62198 3.83185 0
M  V30 5416 H 509.146 -2.54161 4.86511 0
M  V30 5417 H 509.407 -3.04707 3.20322 0
M  V30 5418 N 508.466 -1.55915 -0.229846 0
M  V30 5419 C 509.696 -1.82352 -0.971152 0
M  V30 5420 C 510.104 -0.619231 -1.7878 0
M  V30 5421 O 509.447 0.421597 -1.78797 0
M  V30 5422 C 509.509 -3.02399 -1.9441 0
M  V30 5423 C 509.173 -4.37739 -1.31277 0
M  V30 5424 C 510.17 -5.15074 -0.706757 0
M  V30 5425 C 507.855 -4.84454 -1.32702 0
M  V30 5426 C 509.849 -6.37281 -0.123413 0
M  V30 5427 C 507.536 -6.06605 -0.739831 0
M  V30 5428 C 508.534 -6.82858 -0.139071 0
M  V30 5429 O 508.222 -8.027 0.439007 0
M  V30 5430 H 507.954 -0.61035 -0.290601 0
M  V30 5431 H 510.508 -2.03839 -0.252746 0
M  V30 5432 H 508.738 -2.76709 -2.70128 0
M  V30 5433 H 510.427 -3.15779 -2.55026 0
M  V30 5434 H 511.193 -4.80093 -0.688131 0
M  V30 5435 H 507.072 -4.25081 -1.78402 0
M  V30 5436 H 510.616 -6.96741 0.346124 0
M  V30 5437 H 506.513 -6.4106 -0.755841 0
M  V30 5438 H 507.281 -8.17824 0.332521 0
M  V30 5439 N 509.944 0.496216 -1.49584 0
M  V30 5440 C 511.355 1.07765 -1.52459 0
M  V30 5441 C 511.706 1.93679 -0.31353 0
M  V30 5442 O 510.831 2.08588 0.576186 0
M  V30 5443 C 511.426 1.96111 -2.76271 0
M  V30 5444 C 509.985 2.49409 -2.81908 0
M  V30 5445 C 509.132 1.27142 -2.46435 0
M  V30 5446 H 512.083 0.279914 -1.56212 0
M  V30 5447 H 512.104 2.80862 -2.56704 0
M  V30 5448 H 511.616 1.33555 -3.64396 0
M  V30 5449 H 509.717 3.1559 -1.98074 0
M  V30 5450 H 509.83 2.86234 -3.84196 0
M  V30 5451 H 508.194 1.59818 -1.98319 0
M  V30 5452 H 508.977 0.662866 -3.3684 0
M  V30 5453 N 511.423 1.38739 0.74761 0
M  V30 5454 C 512.672 1.3459 1.50228 0
M  V30 5455 C 512.985 -0.0595592 1.95509 0
M  V30 5456 O 514.191 -0.22361 2.70578 0
M  V30 5457 C 512.647 2.36377 2.71393 0
M  V30 5458 C 512.255 3.82573 2.33113 0
M  V30 5459 C 513.999 2.41281 3.49262 0
M  V30 5460 C 511.906 4.76032 3.50924 0
M  V30 5461 H 510.836 0.500312 0.564096 0
M  V30 5462 H 513.487 1.64324 0.8167 0
M  V30 5463 H 511.869 1.99694 3.41962 0
M  V30 5464 H 513.043 4.28227 1.70171 0
M  V30 5465 H 511.358 3.80844 1.68365 0
M  V30 5466 H 513.955 3.08301 4.36869 0
M  V30 5467 H 514.298 1.43353 3.9084 0
M  V30 5468 H 514.831 2.76793 2.85711 0
M  V30 5469 H 511.57 5.75177 3.14408 0
M  V30 5470 H 511.09 4.35066 4.12889 0
M  V30 5471 H 512.769 4.94331 4.17427 0
M  V30 5472 N 512.901 -0.976442 1.23707 0
M  V30 5473 C 514.178 -1.69296 0.979699 0
M  V30 5474 C 514.558 -2.0508 -0.500555 0
M  V30 5475 O 513.906 -1.74708 -1.47273 0
M  V30 5476 C 514.116 -2.93143 1.89389 0
M  V30 5477 C 515.464 -3.65572 2.15968 0
M  V30 5478 O 516.488 -3.03184 1.86971 0
M  V30 5479 O 515.347 -4.77859 2.65167 0
M  V30 5480 H 512.441 -0.739708 0.369812 0
M  V30 5481 H 514.987 -1.03131 1.34767 0
M  V30 5482 H 513.759 -2.63327 2.89439 0
M  V30 5483 H 513.382 -3.67044 1.52854 0
M  V30 5484 N 514.379 -1.04941 -1.1758 0
M  V30 5485 C 515.309 -0.669172 -2.23706 0
M  V30 5486 C 516.29 0.331835 -1.66832 0
M  V30 5487 O 517.475 0.209988 -1.93061 0
M  V30 5488 C 514.605 -0.0404889 -3.47276 0
M  V30 5489 C 513.559 -0.965983 -4.16957 0
M  V30 5490 C 512.885 -0.201312 -5.34321 0
M  V30 5491 C 514.185 -2.28902 -4.69469 0
M  V30 5492 H 515.879 -1.55639 -2.55767 0
M  V30 5493 H 513.425 -0.749793 -1.22939 0
M  V30 5494 H 515.378 0.237298 -4.20731 0
M  V30 5495 H 514.102 0.881658 -3.14475 0
M  V30 5496 H 512.761 -1.22829 -3.45411 0
M  V30 5497 H 512.409 0.723519 -4.97769 0
M  V30 5498 H 512.109 -0.817968 -5.81879 0
M  V30 5499 H 513.633 0.0692499 -6.10561 0
M  V30 5500 H 515.047 -2.07132 -5.34574 0
M  V30 5501 H 513.444 -2.85942 -5.27596 0
M  V30 5502 H 514.514 -2.92937 -3.86414 0
M  V30 5503 N 515.857 1.33968 -0.830081 0
M  V30 5504 C 517.103 1.98357 -0.422191 0
M  V30 5505 C 517.436 1.65633 1.01387 0
M  V30 5506 O 516.711 0.931648 1.70735 0
M  V30 5507 C 516.994 3.54492 -0.633043 0
M  V30 5508 C 516.847 3.96934 -2.11574 0
M  V30 5509 C 518.166 4.40039 -0.0735584 0
M  V30 5510 H 515.285 0.720544 -0.154871 0
M  V30 5511 H 517.927 1.58749 -1.04397 0
M  V30 5512 H 516.077 3.88361 -0.103775 0
M  V30 5513 H 517.749 3.73363 -2.7092 0
M  V30 5514 H 515.992 3.46984 -2.60354 0
M  V30 5515 H 516.663 5.05651 -2.21406 0
M  V30 5516 H 519.139 4.12764 -0.52585 0
M  V30 5517 H 518.015 5.48327 -0.250841 0
M  V30 5518 H 518.276 4.30124 1.02202 0
M  V30 5519 N 517.335 0.585699 1.46312 0
M  V30 5520 C 518.282 -0.145835 2.30339 0
M  V30 5521 C 519.252 -0.881215 1.40797 0
M  V30 5522 O 520.437 -0.871293 1.69744 0
M  V30 5523 C 517.577 -1.15161 3.25318 0
M  V30 5524 C 516.69 -0.419367 4.2996 0
M  V30 5525 C 515.825 -1.41293 5.12064 0
M  V30 5526 C 514.864 -0.667261 6.08452 0
M  V30 5527 N 514.001 -1.60903 6.83414 0
M  V30 5528 H 518.841 0.576755 2.92365 0
M  V30 5529 H 516.378 0.296237 1.44086 0
M  V30 5530 H 518.336 -1.74763 3.78832 0
M  V30 5531 H 516.966 -1.84188 2.65094 0
M  V30 5532 H 516.018 0.291751 3.7928 0
M  V30 5533 H 517.33 0.163433 4.98532 0
M  V30 5534 H 516.484 -2.08167 5.6987 0
M  V30 5535 H 515.223 -2.02966 4.43459 0
M  V30 5536 H 514.228 0.0152356 5.49798 0
M  V30 5537 H 515.453 -0.0558817 6.79077 0
M  V30 5538 H 513.399 -2.21381 6.17516 0
M  V30 5539 H 513.316 -1.07911 7.48259 0
M  V30 5540 H 514.584 -2.26802 7.45775 0
M  V30 5541 N 518.813 -1.54241 0.323641 0
M  V30 5542 C 520.041 -2.04985 -0.280871 0
M  V30 5543 C 520.456 -1.19978 -1.45777 0
M  V30 5544 O 519.813 -0.230471 -1.81039 0
M  V30 5545 C 519.864 -3.54353 -0.715258 0
M  V30 5546 O 519.585 -4.36132 0.414817 0
M  V30 5547 C 521.086 -4.21189 -1.38257 0
M  V30 5548 H 518.306 -0.66851 -0.0577502 0
M  V30 5549 H 520.85 -1.99029 0.469852 0
M  V30 5550 H 519.005 -3.60596 -1.41596 0
M  V30 5551 H 519.419 -5.2445 0.0725227 0
M  V30 5552 H 520.893 -5.27154 -1.63745 0
M  V30 5553 H 521.37 -3.72307 -2.32989 0
M  V30 5554 H 521.976 -4.19085 -0.724447 0
M  V30 5555 N 520.291 -0.0518155 -1.57515 0
M  V30 5556 C 521.707 0.304735 -1.56664 0
M  V30 5557 C 521.907 1.71395 -1.05953 0
M  V30 5558 O 520.963 2.42123 -0.716414 0
M  V30 5559 C 522.276 0.132614 -3.00407 0
M  V30 5560 C 523.824 0.20367 -3.12337 0
M  V30 5561 C 524.299 0.0600706 -4.57961 0
M  V30 5562 N 525.79 0.116326 -4.63054 0
M  V30 5563 C 526.525 0.0293363 -5.73392 0
M  V30 5564 N 526.021 -0.110038 -6.92713 0
M  V30 5565 N 527.814 0.0849651 -5.62036 0
M  V30 5566 H 519.965 -0.973056 -1.888 0
M  V30 5567 H 522.228 -0.377781 -0.869474 0
M  V30 5568 H 521.934 -0.839019 -3.41546 0
M  V30 5569 H 521.808 0.893376 -3.66468 0
M  V30 5570 H 524.195 1.16578 -2.71097 0
M  V30 5571 H 524.276 -0.587857 -2.48954 0
M  V30 5572 H 523.92 -0.898715 -4.99886 0
M  V30 5573 H 523.85 0.87075 -5.19351 0
M  V30 5574 H 526.341 0.22327 -3.7724 0
M  V30 5575 H 526.654 -0.169104 -7.72615 0
M  V30 5576 H 524.999 -0.145132 -6.94848 0
M  V30 5577 H 528.19 0.192411 -4.67704 0
M  V30 5578 H 528.363 0.0137131 -6.47999 0
M  V30 5579 N 521.769 1.56035 0.221574 0
M  V30 5580 C 522.702 1.87427 1.30178 0
M  V30 5581 C 523.68 0.731658 1.45209 0
M  V30 5582 O 524.864 0.980016 1.61022 0
M  V30 5583 C 521.991 2.08127 2.67209 0
M  V30 5584 C 521.037 3.30813 2.69194 0
M  V30 5585 S 521.87 4.86738 2.23263 0
M  V30 5586 C 523.026 5.10474 3.62171 0
M  V30 5587 H 523.259 2.78756 1.03355 0
M  V30 5588 H 520.792 1.48469 0.423813 0
M  V30 5589 H 522.75 2.20736 3.46101 0
M  V30 5590 H 521.411 1.17595 2.91256 0
M  V30 5591 H 520.604 3.42341 3.6989 0
M  V30 5592 H 520.206 3.1706 1.98366 0
M  V30 5593 H 522.498 4.9937 4.5786 0
M  V30 5594 H 523.441 6.12359 3.55558 0
M  V30 5595 H 523.849 4.38208 3.55857 0
M  V30 5596 N 523.247 -0.488276 1.49845 0
M  V30 5597 C 524.179 -1.60539 1.63584 0
M  V30 5598 C 525.192 -1.5434 0.517972 0
M  V30 5599 O 526.381 -1.60041 0.790516 0
M  V30 5600 C 523.481 -2.99374 1.58835 0
M  V30 5601 C 522.654 -3.30624 2.86368 0
M  V30 5602 C 521.713 -4.4893 2.74496 0
M  V30 5603 O 520.739 -4.50085 3.48443 0
M  V30 5604 N 521.941 -5.49591 1.86894 0
M  V30 5605 H 524.706 -1.49176 2.59936 0
M  V30 5606 H 522.267 -0.67639 1.47094 0
M  V30 5607 H 524.259 -3.76459 1.48529 0
M  V30 5608 H 522.829 -3.04595 0.702892 0
M  V30 5609 H 522.049 -2.42314 3.1093 0
M  V30 5610 H 523.337 -3.48305 3.70892 0
M  V30 5611 H 522.735 -5.51467 1.26097 0
M  V30 5612 H 521.292 -6.25728 1.82503 0
M  V30 5613 N 524.725 -1.39134 -0.740242 0
M  V30 5614 C 525.673 -1.3757 -1.87556 0
M  V30 5615 C 526.667 -0.259593 -1.67399 0
M  V30 5616 O 527.873 -0.429349 -1.74804 0
M  V30 5617 H 524.248 -0.42947 -0.6173 0
M  V30 5618 H 526.219 -2.33345 -1.85991 0
M  V30 5619 C 524.968 -1.23087 -3.25184 0
M  V30 5620 H 524.291 -2.08237 -3.41288 0
M  V30 5621 H 525.731 -1.26049 -4.0483 0
M  V30 5622 C 524.19 0.0611471 -3.36845 0
M  V30 5623 O 524.72 1.03328 -3.88183 0
M  V30 5624 N 522.926 0.122454 -2.90342 0
M  V30 5625 H 522.473 -0.669329 -2.48752 0
M  V30 5626 H 522.431 0.986463 -2.98523 0
M  V30 5627 N 526.204 0.969867 -1.24223 0
M  V30 5628 C 527.136 2.0669 -0.99055 0
M  V30 5629 C 528.149 1.62753 0.0392222 0
M  V30 5630 O 529.338 1.77403 -0.197561 0
M  V30 5631 C 526.438 3.35589 -0.472594 0
M  V30 5632 C 525.611 4.08444 -1.56499 0
M  V30 5633 C 524.67 5.15616 -1.05007 0
M  V30 5634 O 523.696 5.41911 -1.7413 0
M  V30 5635 N 524.898 5.80383 0.116641 0
M  V30 5636 H 527.663 2.28855 -1.93508 0
M  V30 5637 H 525.224 1.13733 -1.15223 0
M  V30 5638 H 527.216 4.04542 -0.112919 0
M  V30 5639 H 525.786 3.10311 0.377617 0
M  V30 5640 H 525.006 3.33798 -2.09696 0
M  V30 5641 H 526.294 4.53882 -2.29932 0
M  V30 5642 H 525.692 5.6142 0.694589 0
M  V30 5643 H 524.249 6.50462 0.417483 0
M  V30 5644 N 527.682 1.05563 1.17022 0
M  V30 5645 C 529.098 0.777684 1.39371 0
M  V30 5646 C 529.298 -0.626269 1.91521 0
M  V30 5647 O 528.354 -1.38806 2.10924 0
M  V30 5648 C 529.667 1.83642 2.3811 0
M  V30 5649 C 531.215 1.85907 2.51809 0
M  V30 5650 C 531.69 2.90813 3.53824 0
M  V30 5651 N 533.181 2.898 3.61345 0
M  V30 5652 C 533.916 3.6762 4.40049 0
M  V30 5653 N 533.412 4.55237 5.22237 0
M  V30 5654 N 535.205 3.56044 4.34959 0
M  V30 5655 H 527.356 1.9614 0.815047 0
M  V30 5656 H 529.619 0.849527 0.420722 0
M  V30 5657 H 529.325 2.84425 2.06871 0
M  V30 5658 H 529.199 1.6812 3.37662 0
M  V30 5659 H 531.586 0.857865 2.82356 0
M  V30 5660 H 531.667 2.05506 1.52318 0
M  V30 5661 H 531.311 3.91122 3.24015 0
M  V30 5662 H 531.241 2.68465 4.53028 0
M  V30 5663 H 533.732 2.26274 3.02669 0
M  V30 5664 H 534.045 5.11291 5.79484 0
M  V30 5665 H 532.39 4.59296 5.21605 0
M  V30 5666 H 535.581 2.86986 3.69806 0
M  V30 5667 H 535.754 4.16938 4.96051 0
M  V30 5668 N 529.16 -1.33526 0.837174 0
M  V30 5669 C 530.408 -1.97446 0.431211 0
M  V30 5670 C 530.729 -1.6665 -1.01255 0
M  V30 5671 O 529.999 -0.964559 -1.70508 0
M  V30 5672 H 528.579 -0.73043 0.156463 0
M  V30 5673 H 531.241 -1.62918 1.06976 0
M  V30 5674 H 530.337 -3.07001 0.561877 0
M  V30 5675 N 530.638 -0.59345 -1.46 0
M  V30 5676 C 531.863 -0.0872365 -2.07216 0
M  V30 5677 C 532.288 1.2131 -1.43755 0
M  V30 5678 O 531.646 1.73528 -0.525152 0
M  V30 5679 C 531.694 0.0538197 -3.6056 0
M  V30 5680 O 530.798 1.10765 -3.97247 0
M  V30 5681 H 530.139 -0.0676598 -0.660544 0
M  V30 5682 H 532.669 -0.819445 -1.87473 0
M  V30 5683 H 532.679 0.256567 -4.07193 0
M  V30 5684 H 531.354 -0.895739 -4.0614 0
M  V30 5685 H 529.931 0.882501 -3.62307 0
M  V30 5686 N 532.116 1.54067 -0.331816 0
M  V30 5687 C 533.364 2.00319 0.267739 0
M  V30 5688 C 533.685 1.22148 1.52003 0
M  V30 5689 O 532.955 0.325494 1.93177 0
M  V30 5690 H 531.535 0.740014 0.101922 0
M  V30 5691 H 534.197 1.89628 -0.450267 0
M  V30 5692 H 533.293 3.07765 0.518385 0
M  V30 5693 N 533.594 0.0601682 1.57485 0
M  V30 5694 C 534.819 -0.624416 1.97777 0
M  V30 5695 C 535.244 -1.63051 0.937867 0
M  V30 5696 O 534.602 -1.81036 -0.0978845 0
M  V30 5697 C 534.65 -1.27979 3.37126 0
M  V30 5698 O 533.754 -2.39556 3.35688 0
M  V30 5699 H 533.095 -0.161581 0.64404 0
M  V30 5700 H 535.625 0.131237 2.04179 0
M  V30 5701 H 535.635 -1.62937 3.74053 0
M  V30 5702 H 534.31 -0.542501 4.12347 0
M  V30 5703 H 532.887 -2.06478 3.10517 0
M  V30 5704 N 535.072 -1.5615 -0.213296 0
M  V30 5705 C 536.318 -1.79812 -0.937849 0
M  V30 5706 C 536.651 -0.631201 -1.83656 0
M  V30 5707 O 535.926 0.369165 -1.90964 0
M  V30 5708 C 536.209 -3.13613 -1.76972 0
M  V30 5709 C 536.062 -4.40766 -0.89695 0
M  V30 5710 C 537.381 -3.43931 -2.7459 0
M  V30 5711 H 534.5 -0.654138 -0.339518 0
M  V30 5712 H 537.142 -1.88877 -0.20623 0
M  V30 5713 H 535.292 -3.06015 -2.39347 0
M  V30 5714 H 536.964 -4.60392 -0.289306 0
M  V30 5715 H 535.207 -4.33326 -0.202756 0
M  V30 5716 H 535.878 -5.30843 -1.51358 0
M  V30 5717 H 538.354 -3.5171 -2.22349 0
M  V30 5718 H 537.23 -4.38706 -3.29891 0
M  V30 5719 H 537.491 -2.6651 -3.52739 0
M  V30 5720 N 536.55 0.480323 -1.50102 0
M  V30 5721 C 537.796 1.23489 -1.60867 0
M  V30 5722 C 538.129 1.91809 -0.303827 0
M  V30 5723 O 537.404 1.81694 0.694092 0
M  V30 5724 C 537.687 2.28578 -2.78252 0
M  V30 5725 C 537.54 1.64624 -4.18592 0
M  V30 5726 C 538.859 3.2997 -2.91218 0
M  V30 5727 H 535.978 0.447605 -0.585507 0
M  V30 5728 H 538.62 0.530005 -1.82458 0
M  V30 5729 H 536.77 2.88697 -2.59974 0
M  V30 5730 H 538.442 1.08173 -4.48438 0
M  V30 5731 H 536.685 0.949645 -4.23278 0
M  V30 5732 H 537.356 2.40946 -4.96638 0
M  V30 5733 H 539.832 2.79864 -3.07921 0
M  V30 5734 H 538.708 4.00839 -3.74993 0
M  V30 5735 H 538.969 3.93541 -2.0144 0
M  V30 5736 N 538.028 1.39524 0.732853 0
M  V30 5737 C 539.276 1.36594 1.48951 0
M  V30 5738 C 539.597 -0.0367507 1.94965 0
M  V30 5739 O 538.867 -0.988391 1.69138 0
M  V30 5740 H 537.447 0.502673 0.552566 0
M  V30 5741 H 540.109 1.74411 0.869869 0
M  V30 5742 H 539.205 2.03 2.3706 0
M  V30 5743 N 539.506 -0.963266 1.24736 0
M  V30 5744 C 540.416 -2.09246 1.06082 0
M  V30 5745 C 541.432 -1.74 0.000363101 0
M  V30 5746 O 542.608 -2.0041 0.199479 0
M  V30 5747 C 539.673 -3.40115 0.672498 0
M  V30 5748 C 538.734 -3.89282 1.80993 0
M  V30 5749 C 537.967 -5.13905 1.44004 0
M  V30 5750 O 538.19 -5.69434 0.331835 0
M  V30 5751 O 537.124 -5.57566 2.26723 0
M  V30 5752 H 540.95 -2.27881 2.00759 0
M  V30 5753 H 538.535 -1.07649 1.03595 0
M  V30 5754 H 540.417 -4.18797 0.467668 0
M  V30 5755 H 539.092 -3.22771 -0.245102 0
M  V30 5756 H 537.999 -3.11642 2.06955 0
M  V30 5757 H 539.332 -4.1111 2.70646 0
M  V30 5758 N 540.985 -1.06182 -1.16461 0
M  V30 5759 C 541.915 -0.692861 -2.22984 0
M  V30 5760 C 542.896 0.314122 -1.67174 0
M  V30 5761 O 544.081 0.189499 -1.93273 0
M  V30 5762 C 541.211 -0.07732 -3.47214 0
M  V30 5763 C 540.165 -1.01015 -4.15909 0
M  V30 5764 C 539.491 -0.257973 -5.34077 0
M  V30 5765 C 540.791 -2.33868 -4.67015 0
M  V30 5766 H 542.485 -1.58343 -2.54102 0
M  V30 5767 H 540.031 -0.76279 -1.22137 0
M  V30 5768 H 541.984 0.19266 -4.20959 0
M  V30 5769 H 540.708 0.848254 -3.15392 0
M  V30 5770 H 539.367 -1.26486 -3.44088 0
M  V30 5771 H 539.015 0.670684 -4.98509 0
M  V30 5772 H 538.715 -0.879638 -5.80979 0
M  V30 5773 H 540.239 0.00448788 -6.106 0
M  V30 5774 H 541.653 -2.1279 -5.32347 0
M  V30 5775 H 540.05 -2.91522 -5.24533 0
M  V30 5776 H 541.12 -2.97019 -3.83286 0
M  V30 5777 N 542.463 1.3308 -0.844243 0
M  V30 5778 C 543.396 2.27075 -0.226279 0
M  V30 5779 C 544.374 1.49911 0.629716 0
M  V30 5780 O 545.558 1.79068 0.588803 0
M  V30 5781 C 542.685 3.31767 0.681782 0
M  V30 5782 C 541.731 4.26384 -0.0994565 0
M  V30 5783 S 542.564 5.15186 -1.46094 0
M  V30 5784 C 543.72 6.23405 -0.558319 0
M  V30 5785 H 543.953 2.79141 -1.02312 0
M  V30 5786 H 541.486 1.40452 -0.641292 0
M  V30 5787 H 543.444 3.92566 1.20008 0
M  V30 5788 H 542.105 2.78507 1.45234 0
M  V30 5789 H 541.298 5.00514 0.591733 0
M  V30 5790 H 540.9 3.69949 -0.548991 0
M  V30 5791 H 543.192 6.77069 0.241672 0
M  V30 5792 H 544.135 6.96619 -1.26995 0
M  V30 5793 H 544.543 5.64333 -0.13728 0
M  V30 5794 N 543.941 0.601185 1.45683 0
M  V30 5795 C 545.171 0.0999093 2.06358 0
M  V30 5796 C 545.579 -1.21831 1.44754 0
M  V30 5797 O 544.922 -1.75157 0.553695 0
M  V30 5798 C 544.984 -0.12085 3.59297 0
M  V30 5799 C 544.648 1.11459 4.432 0
M  V30 5800 C 545.645 2.03118 4.7858 0
M  V30 5801 C 543.33 1.34162 4.84051 0
M  V30 5802 C 545.324 3.15814 5.53661 0
M  V30 5803 C 543.011 2.4716 5.58888 0
M  V30 5804 C 544.009 3.37814 5.93608 0
M  V30 5805 O 543.697 4.48846 6.66928 0
M  V30 5806 H 543.429 0.0630316 0.673055 0
M  V30 5807 H 545.983 0.826982 1.88016 0
M  V30 5808 H 544.213 -0.902744 3.76015 0
M  V30 5809 H 545.902 -0.572925 4.01836 0
M  V30 5810 H 546.668 1.86801 4.47583 0
M  V30 5811 H 542.547 0.645018 4.56465 0
M  V30 5812 H 546.091 3.86596 5.8068 0
M  V30 5813 H 541.988 2.63432 5.89299 0
M  V30 5814 H 542.756 4.47446 6.85371 0
M  V30 5815 N 545.419 -1.53889 0.339982 0
M  V30 5816 C 546.366 -2.24902 -0.518452 0
M  V30 5817 C 547.336 -1.24593 -1.09844 0
M  V30 5818 O 548.521 -1.53317 -1.13572 0
M  V30 5819 C 545.661 -3.02262 -1.66529 0
M  V30 5820 C 544.774 -4.17418 -1.11295 0
M  V30 5821 C 543.909 -4.82273 -2.2268 0
M  V30 5822 C 542.948 -5.89503 -1.6478 0
M  V30 5823 N 542.085 -6.48153 -2.69893 0
M  V30 5824 H 546.925 -2.97853 0.0936579 0
M  V30 5825 H 544.462 -1.46986 0.0579924 0
M  V30 5826 H 546.42 -3.45371 -2.3404 0
M  V30 5827 H 545.05 -2.31614 -2.24844 0
M  V30 5828 H 544.102 -3.78976 -0.328886 0
M  V30 5829 H 545.414 -4.94554 -0.649414 0
M  V30 5830 H 544.568 -5.28435 -2.98063 0
M  V30 5831 H 543.307 -4.04552 -2.72376 0
M  V30 5832 H 542.312 -5.42728 -0.879004 0
M  V30 5833 H 543.537 -6.6913 -1.1594 0
M  V30 5834 H 541.483 -5.73298 -3.1885 0
M  V30 5835 H 541.4 -7.20752 -2.28151 0
M  V30 5836 H 542.668 -6.98968 -3.45056 0
M  V30 5837 N 546.897 -0.0685191 -1.57451 0
M  V30 5838 C 547.845 0.917577 -2.13736 0
M  V30 5839 C 548.839 1.31049 -1.07344 0
M  V30 5840 O 550.045 1.28811 -1.25728 0
M  V30 5841 H 546.42 0.313835 -0.683382 0
M  V30 5842 H 548.391 0.417903 -2.95459 0
M  V30 5843 C 547.14 2.17686 -2.71123 0
M  V30 5844 H 546.463 1.88336 -3.52661 0
M  V30 5845 H 547.903 2.84803 -3.14107 0
M  V30 5846 C 546.362 2.9332 -1.65726 0
M  V30 5847 O 546.892 3.86901 -1.08031 0
M  V30 5848 N 545.098 2.56367 -1.36837 0
M  V30 5849 H 544.645 1.80341 -1.83943 0
M  V30 5850 H 544.603 3.07276 -0.665501 0
M  V30 5851 N 548.375 1.56261 0.205012 0
M  V30 5852 C 549.6 1.84491 0.947512 0
M  V30 5853 C 550.025 0.650894 1.76479 0
M  V30 5854 O 549.383 -0.40035 1.76824 0
M  V30 5855 C 549.431 3.10863 1.82747 0
M  V30 5856 O 548.535 2.90719 2.925 0
M  V30 5857 H 547.876 0.607783 0.267386 0
M  V30 5858 H 550.406 2.03485 0.213323 0
M  V30 5859 H 550.416 3.41399 2.23407 0
M  V30 5860 H 549.091 3.97392 1.2269 0
M  V30 5861 H 547.668 2.71457 2.55667 0
M  V30 5862 N 549.853 -0.472356 1.50355 0
M  V30 5863 C 551.1 -1.22453 1.61281 0
M  V30 5864 C 551.428 -1.91972 0.31256 0
M  V30 5865 O 550.683 -1.82696 -0.701475 0
M  V30 5866 C 550.982 -2.29257 2.74182 0
M  V30 5867 C 550.648 -1.76999 4.14708 0
M  V30 5868 C 549.31 -1.62467 4.52944 0
M  V30 5869 C 551.662 -1.38215 5.0254 0
M  V30 5870 C 548.99 -1.07574 5.76754 0
M  V30 5871 C 551.342 -0.847638 6.26895 0
M  V30 5872 C 550.006 -0.688946 6.63935 0
M  V30 5873 H 549.276 -0.448087 0.590168 0
M  V30 5874 H 551.923 -0.520744 1.84284 0
M  V30 5875 H 550.228 -3.05538 2.45263 0
M  V30 5876 H 551.925 -2.87212 2.7984 0
M  V30 5877 H 548.515 -1.89276 3.84542 0
M  V30 5878 H 552.699 -1.48276 4.73633 0
M  V30 5879 H 547.955 -0.940237 6.04127 0
M  V30 5880 H 552.129 -0.538455 6.94315 0
M  V30 5881 H 549.756 -0.261435 7.5975 0
M  V30 5882 N 551.331 -1.39911 -0.725443 0
M  V30 5883 C 552.608 -1.28158 -1.47766 0
M  V30 5884 C 552.988 0.104545 -2.10841 0
M  V30 5885 O 552.336 1.11657 -1.99361 0
M  V30 5886 C 552.546 -2.41306 -2.52135 0
M  V30 5887 C 553.894 -2.81076 -3.18247 0
M  V30 5888 O 554.918 -2.40827 -2.62452 0
M  V30 5889 O 553.777 -3.50581 -4.19231 0
M  V30 5890 H 550.871 -0.502761 -0.656628 0
M  V30 5891 H 553.417 -1.51808 -0.758456 0
M  V30 5892 H 552.189 -3.33932 -2.03974 0
M  V30 5893 H 551.812 -2.19374 -3.31603 0
M  V30 5894 N 552.809 0.956637 -1.25245 0
M  V30 5895 C 554.049 1.71585 -1.11076 0
M  V30 5896 C 554.413 1.88916 0.34277 0
M  V30 5897 O 555.614 2.61875 0.606227 0
M  V30 5898 C 553.885 3.06267 -1.84215 0
M  V30 5899 S 555.444 3.97469 -1.85914 0
M  V30 5900 H 552.262 0.589803 -0.397055 0
M  V30 5901 H 554.864 1.14114 -1.58739 0
M  V30 5902 H 553.568 2.91322 -2.89067 0
M  V30 5903 H 553.099 3.688 -1.36931 0
M  V30 5904 H 555.114 4.87316 -0.93474 0
M  V30 5905 N 554.287 1.06798 1.15896 0
M  V30 5906 C 555.534 0.787767 1.86549 0
M  V30 5907 C 555.862 -0.685959 1.82002 0
M  V30 5908 O 555.117 -1.5188 1.23414 0
M  V30 5909 C 555.416 1.23414 3.35416 0
M  V30 5910 C 555.082 2.71285 3.6016 0
M  V30 5911 C 553.744 3.11676 3.66622 0
M  V30 5912 C 556.096 3.6676 3.7032 0
M  V30 5913 C 553.424 4.4637 3.8075 0
M  V30 5914 C 555.776 5.01209 3.8597 0
M  V30 5915 C 554.44 5.41229 3.90676 0
M  V30 5916 H 553.71 0.288264 0.682631 0
M  V30 5917 H 556.357 1.338 1.37003 0
M  V30 5918 H 554.662 0.60319 3.87129 0
M  V30 5919 H 556.359 0.994298 3.88477 0
M  V30 5920 H 552.949 2.39015 3.55767 0
M  V30 5921 H 557.133 3.36685 3.64633 0
M  V30 5922 H 552.389 4.76855 3.82648 0
M  V30 5923 H 556.563 5.75067 3.92773 0
M  V30 5924 H 554.19 6.45602 4.01375 0
M  V30 5925 N 555.766 -1.3263 0.851289 0
M  V30 5926 C 556.713 -2.28952 0.291469 0
M  V30 5927 C 557.683 -1.54897 -0.599676 0
M  V30 5928 O 558.868 -1.83137 -0.535305 0
M  V30 5929 C 556.008 -3.41206 -0.516992 0
M  V30 5930 C 555.121 -4.30148 0.399566 0
M  V30 5931 C 554.256 -5.29527 -0.4212 0
M  V30 5932 C 553.295 -6.10112 0.492969 0
M  V30 5933 N 552.432 -7.01499 -0.290414 0
M  V30 5934 H 557.272 -2.76228 1.11813 0
M  V30 5935 H 554.809 -1.35907 0.562826 0
M  V30 5936 H 556.767 -4.05005 -1.00132 0
M  V30 5937 H 555.397 -2.9509 -1.30851 0
M  V30 5938 H 554.449 -3.66959 1.00227 0
M  V30 5939 H 555.761 -4.8649 1.1013 0
M  V30 5940 H 554.915 -5.98914 -0.968832 0
M  V30 5941 H 553.654 -4.73794 -1.15632 0
M  V30 5942 H 552.659 -5.39632 1.05251 0
M  V30 5943 H 553.884 -6.6793 1.22664 0
M  V30 5944 H 551.83 -6.48199 -1.00868 0
M  V30 5945 H 551.747 -7.55178 0.352354 0
M  V30 5946 H 553.015 -7.75176 -0.819882 0
M  V30 5947 N 557.244 -0.608902 -1.45362 0
M  V30 5948 C 558.191 0.109172 -2.30542 0
M  V30 5949 C 559.161 0.858704 -1.42181 0
M  V30 5950 O 560.346 0.844178 -1.71109 0
M  V30 5951 C 557.486 1.09971 -3.27109 0
M  V30 5952 C 556.599 0.350911 -4.30572 0
M  V30 5953 C 555.734 1.33129 -5.14247 0
M  V30 5954 C 554.773 0.570377 -6.09437 0
M  V30 5955 N 553.91 1.5001 -6.85887 0
M  V30 5956 H 558.75 -0.623195 -2.91411 0
M  V30 5957 H 556.287 -0.319122 -1.43597 0
M  V30 5958 H 558.245 1.68714 -3.81564 0
M  V30 5959 H 556.875 1.79947 -2.67991 0
M  V30 5960 H 555.927 -0.352054 -3.78767 0
M  V30 5961 H 557.239 -0.242725 -4.98209 0
M  V30 5962 H 556.393 1.99074 -5.73109 0
M  V30 5963 H 555.132 1.95885 -4.46632 0
M  V30 5964 H 554.137 -0.102702 -5.49704 0
M  V30 5965 H 555.362 -0.0521607 -6.7908 0
M  V30 5966 H 553.308 2.11529 -6.2096 0
M  V30 5967 H 553.225 0.959934 -7.49881 0
M  V30 5968 H 554.493 2.14909 -7.49289 0
M  V30 5969 N 558.722 1.53707 -0.348139 0
M  V30 5970 C 559.968 2.01286 0.247332 0
M  V30 5971 C 560.301 1.23546 1.49834 0
M  V30 5972 O 559.576 0.324331 1.91777 0
M  V30 5973 C 559.859 3.55768 0.556858 0
M  V30 5974 C 559.712 4.44216 -0.706564 0
M  V30 5975 C 561.031 4.1841 1.3646 0
M  V30 5976 H 558.15 0.731677 0.0884201 0
M  V30 5977 H 560.792 1.84106 -0.469584 0
M  V30 5978 H 558.942 3.70539 1.16761 0
M  V30 5979 H 560.614 4.41274 -1.34444 0
M  V30 5980 H 558.857 4.12892 -1.33052 0
M  V30 5981 H 559.528 5.50202 -0.445186 0
M  V30 5982 H 562.004 4.07365 0.848113 0
M  V30 5983 H 560.88 5.26563 1.54992 0
M  V30 5984 H 561.141 3.7333 2.36805 0
M  V30 5985 N 560.2 0.0768682 1.57412 0
M  V30 5986 C 561.13 -0.886026 2.16037 0
M  V30 5987 C 562.111 -1.30691 1.08876 0
M  V30 5988 O 563.296 -1.37705 1.36934 0
M  V30 5989 C 560.426 -2.1518 2.72608 0
M  V30 5990 C 559.38 -1.87015 3.8498 0
M  V30 5991 C 558.706 -3.20266 4.28175 0
M  V30 5992 C 560.006 -1.17143 5.08994 0
M  V30 5993 H 561.7 -0.397642 2.96748 0
M  V30 5994 H 559.246 -0.189823 1.42743 0
M  V30 5995 H 561.199 -2.82962 3.12266 0
M  V30 5996 H 559.923 -2.66269 1.89125 0
M  V30 5997 H 558.582 -1.21636 3.45833 0
M  V30 5998 H 558.23 -3.69207 3.41607 0
M  V30 5999 H 557.93 -3.0221 5.03927 0
M  V30 6000 H 559.454 -3.89237 4.70454 0
M  V30 6001 H 560.868 -1.75003 5.45937 0
M  V30 6002 H 559.265 -1.09328 5.90057 0
M  V30 6003 H 560.335 -0.151295 4.84664 0
M  V30 6004 N 561.678 -1.56367 -0.196722 0
M  V30 6005 C 563.094 -1.49916 -0.54749 0
M  V30 6006 C 563.294 -0.77659 -1.85934 0
M  V30 6007 O 562.35 -0.32644 -2.50381 0
M  V30 6008 C 563.663 -2.94577 -0.603734 0
M  V30 6009 C 565.211 -3.05239 -0.692677 0
M  V30 6010 C 565.686 -4.51308 -0.780046 0
M  V30 6011 N 567.177 -4.55453 -0.843616 0
M  V30 6012 C 567.912 -5.65786 -0.931358 0
M  V30 6013 N 567.408 -6.85812 -0.981503 0
M  V30 6014 N 569.201 -5.53695 -0.968421 0
M  V30 6015 H 561.352 -2.01761 0.663803 0
M  V30 6016 H 563.615 -0.918094 0.236238 0
M  V30 6017 H 563.321 -3.50494 0.29105 0
M  V30 6018 H 563.195 -3.47841 -1.45898 0
M  V30 6019 H 565.582 -2.49372 -1.57789 0
M  V30 6020 H 565.663 -2.55103 0.188736 0
M  V30 6021 H 565.307 -5.078 0.100811 0
M  V30 6022 H 565.237 -4.99176 -1.67724 0
M  V30 6023 H 567.728 -3.69025 -0.814176 0
M  V30 6024 H 568.041 -7.65648 -1.04892 0
M  V30 6025 H 566.386 -6.88474 -0.950208 0
M  V30 6026 H 569.577 -4.58848 -0.926072 0
M  V30 6027 H 569.75 -6.39708 -1.03334 0
M  V30 6028 N 563.156 0.464375 -1.50603 0
M  V30 6029 C 564.386 1.23727 -1.65454 0
M  V30 6030 C 564.794 1.86119 -0.340032 0
M  V30 6031 O 564.137 1.70301 0.688706 0
M  V30 6032 C 564.199 2.38153 -2.69301 0
M  V30 6033 C 563.863 1.96345 -4.12671 0
M  V30 6034 C 564.86 1.48215 -4.98326 0
M  V30 6035 C 562.545 2.04861 -4.58625 0
M  V30 6036 C 564.539 1.09152 -6.27985 0
M  V30 6037 C 562.226 1.65409 -5.88288 0
M  V30 6038 C 563.224 1.17634 -6.72794 0
M  V30 6039 O 562.912 0.787312 -8.00035 0
M  V30 6040 H 562.644 0.380075 -0.559034 0
M  V30 6041 H 565.198 0.559919 -1.97621 0
M  V30 6042 H 563.428 3.09081 -2.32392 0
M  V30 6043 H 565.117 3.00099 -2.73304 0
M  V30 6044 H 565.883 1.41052 -4.64036 0
M  V30 6045 H 561.762 2.40996 -3.92991 0
M  V30 6046 H 565.306 0.717909 -6.93896 0
M  V30 6047 H 561.203 1.72233 -6.22098 0
M  V30 6048 H 561.971 0.915567 -8.13363 0
M  V30 6049 N 564.634 1.40294 0.718013 0
M  V30 6050 C 565.544 1.42678 1.86226 0
M  V30 6051 C 566.56 0.319655 1.71039 0
M  V30 6052 O 567.736 0.563852 1.93346 0
M  V30 6053 C 564.801 1.2852 3.21999 0
M  V30 6054 C 563.862 2.49354 3.49458 0
M  V30 6055 C 563.095 2.35863 4.78753 0
M  V30 6056 O 563.318 1.37114 5.53675 0
M  V30 6057 O 562.252 3.25189 5.06494 0
M  V30 6058 H 566.078 2.39167 1.87171 0
M  V30 6059 H 563.663 1.2159 0.868112 0
M  V30 6060 H 565.545 1.22824 4.03103 0
M  V30 6061 H 564.22 0.351359 3.21787 0
M  V30 6062 H 563.127 2.60628 2.68373 0
M  V30 6063 H 564.46 3.41491 3.54464 0
M  V30 6064 N 566.112 -0.949982 1.2575 0
M  V30 6065 C 567.36 -1.6918 1.10555 0
M  V30 6066 C 567.681 -1.91773 -0.353298 0
M  V30 6067 O 566.951 -1.50814 -1.25027 0
M  V30 6068 H 565.531 -0.626952 0.406129 0
M  V30 6069 H 568.193 -1.1419 1.57945 0
M  V30 6070 H 567.289 -2.66915 1.61749 0
M  V30 6071 N 567.59 -1.07411 -1.15328 0
M  V30 6072 C 568.837 -0.797649 -1.86128 0
M  V30 6073 C 569.165 0.676298 -1.82364 0
M  V30 6074 O 568.42 1.51223 -1.24218 0
M  V30 6075 C 568.719 -1.25191 -3.34757 0
M  V30 6076 C 568.385 -2.73191 -3.58716 0
M  V30 6077 C 567.047 -3.13616 -3.64964 0
M  V30 6078 C 569.399 -3.68718 -3.6837 0
M  V30 6079 C 566.727 -4.48383 -3.78377 0
M  V30 6080 C 569.079 -5.03248 -3.83306 0
M  V30 6081 C 567.743 -5.43293 -3.878 0
M  V30 6082 H 567.013 -0.29188 -0.681092 0
M  V30 6083 H 569.66 -1.34524 -1.36292 0
M  V30 6084 H 567.965 -0.623712 -3.86804 0
M  V30 6085 H 569.662 -1.01489 -3.87945 0
M  V30 6086 H 566.252 -2.40898 -3.54494 0
M  V30 6087 H 570.436 -3.38614 -3.62842 0
M  V30 6088 H 565.692 -4.78877 -3.80114 0
M  V30 6089 H 569.866 -5.77142 -3.89718 0
M  V30 6090 H 567.493 -6.47721 -3.97946 0
M  V30 6091 N 569.068 1.32177 -0.85831 0
M  V30 6092 C 570.315 1.97125 -0.463484 0
M  V30 6093 C 570.643 1.67907 0.981705 0
M  V30 6094 O 569.898 0.961717 1.70439 0
M  V30 6095 C 570.197 3.51372 -0.653658 0
M  V30 6096 C 569.863 4.00584 -2.06987 0
M  V30 6097 C 568.525 4.13733 -2.4572 0
M  V30 6098 C 570.877 4.26624 -2.99402 0
M  V30 6099 C 568.205 4.50268 -3.76132 0
M  V30 6100 C 570.557 4.64618 -4.29316 0
M  V30 6101 C 569.221 4.75975 -4.67979 0
M  V30 6102 H 568.491 0.72133 -0.169601 0
M  V30 6103 H 571.138 1.57517 -1.08907 0
M  V30 6104 H 569.443 3.91761 0.0551328 0
M  V30 6105 H 571.14 3.99655 -0.328163 0
M  V30 6106 H 567.73 3.90837 -1.75911 0
M  V30 6107 H 571.914 4.1597 -2.70708 0
M  V30 6108 H 567.17 4.57256 -4.05865 0
M  V30 6109 H 571.344 4.83722 -5.00985 0
M  V30 6110 H 568.971 5.04041 -5.69076 0
M  V30 6111 N 570.547 0.616602 1.45037 0
M  V30 6112 C 571.795 0.115103 2.01772 0
M  V30 6113 C 572.116 -1.2622 1.48639 0
M  V30 6114 O 571.386 -1.83563 0.684199 0
M  V30 6115 H 569.966 0.0395607 0.745952 0
M  V30 6116 H 572.628 0.800032 1.77723 0
M  V30 6117 H 571.724 0.0717274 3.12018 0
M  V30 6118 N 572.025 -1.5352 0.356285 0
M  V30 6119 C 572.955 -2.28372 -0.486661 0
M  V30 6120 C 573.936 -1.30432 -1.09185 0
M  V30 6121 O 575.121 -1.59291 -1.11085 0
M  V30 6122 C 572.251 -3.06604 -1.63129 0
M  V30 6123 C 571.205 -4.12154 -1.15381 0
M  V30 6124 C 570.531 -4.78415 -2.38796 0
M  V30 6125 C 571.831 -5.21724 -0.245179 0
M  V30 6126 H 573.525 -2.99083 0.137797 0
M  V30 6127 H 571.071 -1.43841 0.0677134 0
M  V30 6128 H 573.024 -3.57712 -2.22755 0
M  V30 6129 H 571.748 -2.33568 -2.28284 0
M  V30 6130 H 570.407 -3.61978 -0.580294 0
M  V30 6131 H 570.055 -4.01959 -3.02387 0
M  V30 6132 H 569.755 -5.49734 -2.07524 0
M  V30 6133 H 571.279 -5.32313 -2.99125 0
M  V30 6134 H 572.693 -5.68391 -0.748646 0
M  V30 6135 H 571.09 -6.00095 -0.0237608 0
M  V30 6136 H 572.16 -4.79596 0.715229 0
M  V30 6137 N 573.503 -0.0852151 -1.57369 0
M  V30 6138 C 574.733 0.588605 -1.98038 0
M  V30 6139 C 575.141 1.62869 -0.962817 0
M  V30 6140 O 574.484 1.83611 0.057134 0
M  V30 6141 C 574.546 1.30303 -3.35054 0
M  V30 6142 C 574.21 0.414855 -4.55113 0
M  V30 6143 C 575.207 -0.333011 -5.18832 0
M  V30 6144 C 572.892 0.335804 -5.01176 0
M  V30 6145 C 574.886 -1.14801 -6.26976 0
M  V30 6146 C 572.573 -0.482857 -6.09189 0
M  V30 6147 C 573.571 -1.22342 -6.71953 0
M  V30 6148 O 573.259 -2.02855 -7.77885 0
M  V30 6149 H 572.991 0.163249 -0.655992 0
M  V30 6150 H 575.545 -0.1582 -2.0479 0
M  V30 6151 H 573.775 2.0962 -3.24956 0
M  V30 6152 H 575.464 1.87041 -3.60237 0
M  V30 6153 H 576.23 -0.281611 -4.84182 0
M  V30 6154 H 572.109 0.901869 -4.52092 0
M  V30 6155 H 575.653 -1.72654 -6.75897 0
M  V30 6156 H 571.55 -0.535773 -6.43273 0
M  V30 6157 H 572.318 -1.95432 -7.94826 0
M  V30 6158 N 574.981 1.5647 0.188427 0
M  V30 6159 C 576.397 1.50204 0.539532 0
M  V30 6160 C 576.597 0.78644 1.85519 0
M  V30 6161 O 575.653 0.339714 2.50204 0
M  V30 6162 C 576.966 2.94893 0.588103 0
M  V30 6163 C 578.514 3.05602 0.67648 0
M  V30 6164 C 578.989 4.51716 0.756101 0
M  V30 6165 N 580.48 4.55894 0.819451 0
M  V30 6166 C 581.215 5.66272 0.90134 0
M  V30 6167 N 580.711 6.86323 0.945118 0
M  V30 6168 N 582.504 5.54201 0.939043 0
M  V30 6169 H 574.655 2.01406 -0.674493 0
M  V30 6170 H 576.918 0.916828 -0.241103 0
M  V30 6171 H 576.624 3.50334 -0.309633 0
M  V30 6172 H 576.498 3.4861 1.44051 0
M  V30 6173 H 578.885 2.50206 1.56465 0
M  V30 6174 H 578.966 2.54999 -0.202262 0
M  V30 6175 H 578.61 5.07739 -0.12774 0
M  V30 6176 H 578.54 5.00058 1.65074 0
M  V30 6177 H 581.031 3.69452 0.794594 0
M  V30 6178 H 581.344 7.66194 1.0083 0
M  V30 6179 H 579.689 6.88968 0.913683 0
M  V30 6180 H 582.88 4.59333 0.901725 0
M  V30 6181 H 583.053 6.40247 0.999402 0
M  V30 6182 N 576.459 -0.456382 1.50847 0
M  V30 6183 C 577.707 -1.20497 1.62249 0
M  V30 6184 C 578.028 -1.92156 0.331839 0
M  V30 6185 O 577.298 -1.84751 -0.651443 0
M  V30 6186 H 575.878 -0.447775 0.597918 0
M  V30 6187 H 578.54 -0.525099 1.87693 0
M  V30 6188 H 577.636 -1.94492 2.44089 0
M  V30 6189 N 577.937 -1.40673 -0.710563 0
M  V30 6190 C 578.867 -1.44095 -1.83736 0
M  V30 6191 C 579.848 -0.301286 -1.67411 0
M  V30 6192 O 581.033 -0.510618 -1.87367 0
M  V30 6193 C 578.163 -1.30773 -3.21738 0
M  V30 6194 C 577.117 -2.42395 -3.52745 0
M  V30 6195 C 576.443 -2.14147 -4.89944 0
M  V30 6196 C 577.743 -3.84738 -3.53234 0
M  V30 6197 H 579.437 -2.38396 -1.81129 0
M  V30 6198 H 576.983 -1.14746 -0.870017 0
M  V30 6199 H 578.936 -1.31783 -4.00264 0
M  V30 6200 H 577.66 -0.329507 -3.24934 0
M  V30 6201 H 576.319 -2.40643 -2.76562 0
M  V30 6202 H 575.967 -1.14703 -4.89747 0
M  V30 6203 H 575.667 -2.88934 -5.11655 0
M  V30 6204 H 577.191 -2.16848 -5.70797 0
M  V30 6205 H 578.605 -3.88286 -4.2179 0
M  V30 6206 H 577.002 -4.59085 -3.86473 0
M  V30 6207 H 578.072 -4.13962 -2.52514 0
M  V30 6208 N 579.415 0.9433 -1.26252 0
M  V30 6209 C 580.664 1.68369 -1.11062 0
M  V30 6210 C 580.977 1.92514 0.346104 0
M  V30 6211 O 582.183 2.64358 0.618646 0
M  V30 6212 C 580.639 3.03171 -1.93946 0
M  V30 6213 C 580.247 2.86782 -3.4418 0
M  V30 6214 C 581.991 3.80916 -1.87359 0
M  V30 6215 C 579.898 4.17044 -4.19319 0
M  V30 6216 H 578.828 0.631469 -0.412023 0
M  V30 6217 H 581.479 1.04922 -1.50544 0
M  V30 6218 H 579.861 3.67587 -1.47296 0
M  V30 6219 H 581.035 2.31229 -3.98585 0
M  V30 6220 H 579.35 2.22482 -3.51981 0
M  V30 6221 H 581.947 4.77417 -2.40784 0
M  V30 6222 H 582.29 4.07658 -0.843857 0
M  V30 6223 H 582.823 3.2327 -2.31821 0
M  V30 6224 H 579.562 3.95487 -5.22753 0
M  V30 6225 H 579.082 4.72319 -3.69696 0
M  V30 6226 H 580.761 4.85513 -4.27651 0
M  V30 6227 N 580.893 1.08022 1.14757 0
M  V30 6228 C 582.304 0.829144 1.67279 0
M  V30 6229 C 582.655 -0.644721 1.85305 0
M  V30 6230 O 581.78 -1.49838 1.56133 0
M  V30 6231 C 582.375 1.49855 3.03857 0
M  V30 6232 C 580.934 1.29482 3.53428 0
M  V30 6233 C 580.081 1.56386 2.28995 0
M  V30 6234 H 583.032 1.24134 0.988762 0
M  V30 6235 H 583.053 0.923572 3.69121 0
M  V30 6236 H 582.565 2.57123 2.90705 0
M  V30 6237 H 580.666 0.242669 3.71809 0
M  V30 6238 H 580.779 2.01974 4.34446 0
M  V30 6239 H 579.143 0.985217 2.34874 0
M  V30 6240 H 579.926 2.64851 2.18423 0
M  V30 6241 N 582.371 -1.3172 0.865308 0
M  V30 6242 C 583.303 -2.27545 0.274906 0
M  V30 6243 C 584.316 -1.52887 -0.559413 0
M  V30 6244 O 585.505 -1.74361 -0.382166 0
M  V30 6245 C 582.605 -3.33006 -0.629286 0
M  V30 6246 C 581.778 -4.37063 0.171553 0
M  V30 6247 C 580.837 -5.22044 -0.660052 0
M  V30 6248 O 579.863 -5.69129 -0.0897527 0
M  V30 6249 N 581.065 -5.45946 -1.97289 0
M  V30 6250 H 583.83 -2.78848 1.09836 0
M  V30 6251 H 581.391 -1.44693 0.726331 0
M  V30 6252 H 583.383 -3.86772 -1.19121 0
M  V30 6253 H 581.953 -2.81782 -1.35342 0
M  V30 6254 H 581.173 -3.83436 0.914919 0
M  V30 6255 H 582.461 -5.03662 0.721235 0
M  V30 6256 H 581.859 -5.0944 -2.45942 0
M  V30 6257 H 580.416 -6.02665 -2.4827 0
M  V30 6258 N 583.85 -0.624285 -1.44708 0
M  V30 6259 C 584.779 0.0717025 -2.3339 0
M  V30 6260 C 585.76 0.841814 -1.47809 0
M  V30 6261 O 586.946 0.809056 -1.76544 0
M  V30 6262 C 584.076 1.05852 -3.30776 0
M  V30 6263 C 583.029 0.400503 -4.26122 0
M  V30 6264 C 582.356 1.49674 -5.13324 0
M  V30 6265 C 583.656 -0.688924 -5.17737 0
M  V30 6266 H 585.35 -0.668819 -2.91834 0
M  V30 6267 H 582.896 -0.32308 -1.40329 0
M  V30 6268 H 584.849 1.5541 -3.91696 0
M  V30 6269 H 583.572 1.82984 -2.70526 0
M  V30 6270 H 582.231 -0.0743687 -3.66525 0
M  V30 6271 H 581.88 2.25877 -4.49431 0
M  V30 6272 H 581.58 1.06188 -5.77926 0
M  V30 6273 H 583.104 1.99427 -5.77115 0
M  V30 6274 H 584.518 -0.276724 -5.72632 0
M  V30 6275 H 582.915 -1.04652 -5.90904 0
M  V30 6276 H 583.985 -1.55884 -4.5916 0
M  V30 6277 N 585.328 1.53329 -0.364422 0
M  V30 6278 C 586.577 2.00421 0.226747 0
M  V30 6279 C 586.89 1.25581 1.49963 0
M  V30 6280 O 588.096 1.63256 2.16933 0
M  V30 6281 C 586.552 3.57017 0.454618 0
M  V30 6282 C 586.16 4.40734 -0.803568 0
M  V30 6283 C 587.904 4.12468 1.00351 0
M  V30 6284 C 585.811 5.8888 -0.545345 0
M  V30 6285 H 584.741 0.748787 0.0885082 0
M  V30 6286 H 587.392 1.7703 -0.482983 0
M  V30 6287 H 585.774 3.76558 1.22558 0
M  V30 6288 H 586.948 4.32967 -1.57723 0
M  V30 6289 H 585.263 3.96381 -1.27559 0
M  V30 6290 H 587.86 5.20783 1.212 0
M  V30 6291 H 588.203 3.6699 1.9653 0
M  V30 6292 H 588.736 3.96721 0.29274 0
M  V30 6293 H 585.475 6.38633 -1.47743 0
M  V30 6294 H 584.995 5.99499 0.189842 0
M  V30 6295 H 586.674 6.46776 -0.170425 0
M  V30 6296 N 586.806 0.0935595 1.57322 0
M  V30 6297 C 588.054 -0.569383 1.93913 0
M  V30 6298 C 588.375 -1.68817 0.976009 0
M  V30 6299 O 587.645 -1.9588 0.0278099 0
M  V30 6300 H 586.225 -0.21332 0.715894 0
M  V30 6301 H 588.887 0.156531 1.9427 0
M  V30 6302 H 587.983 -0.980577 2.96296 0
M  V30 6303 N 588.284 -1.56567 -0.180126 0
M  V30 6304 C 589.53 -1.81761 -0.899497 0
M  V30 6305 C 589.863 -0.670015 -1.82276 0
M  V30 6306 O 589.138 0.328575 -1.91705 0
M  V30 6307 C 589.421 -3.17296 -1.7028 0
M  V30 6308 C 589.274 -4.4257 -0.803255 0
M  V30 6309 C 590.593 -3.49678 -2.67233 0
M  V30 6310 H 587.712 -0.661192 -0.325567 0
M  V30 6311 H 590.354 -1.89272 -0.16612 0
M  V30 6312 H 588.504 -3.11023 -2.32802 0
M  V30 6313 H 590.176 -4.60902 -0.191585 0
M  V30 6314 H 588.419 -4.33658 -0.110796 0
M  V30 6315 H 589.09 -5.33935 -1.40064 0
M  V30 6316 H 591.566 -3.56347 -2.14839 0
M  V30 6317 H 590.442 -4.45605 -3.20511 0
M  V30 6318 H 590.703 -2.73932 -3.47007 0
M  V30 6319 N 589.762 0.448376 -1.51087 0
M  V30 6320 C 590.725 1.52588 -1.71025 0
M  V30 6321 C 591.725 1.49958 -0.580442 0
M  V30 6322 O 592.915 1.52176 -0.847833 0
M  V30 6323 C 590.047 2.92163 -1.75652 0
M  V30 6324 H 591.24 1.36218 -2.67179 0
M  V30 6325 H 588.793 0.676313 -1.4091 0
M  V30 6326 H 589.528 3.13951 -0.812724 0
M  V30 6327 H 589.313 2.95478 -2.57751 0
M  V30 6328 H 590.803 3.70349 -1.92953 0
M  V30 6329 N 591.24 1.41047 0.703093 0
M  V30 6330 C 592.651 1.35657 1.28274 0
M  V30 6331 C 593.002 0.0360309 1.96167 0
M  V30 6332 O 592.127 -0.865833 1.98324 0
M  V30 6333 C 592.722 2.45707 2.33267 0
M  V30 6334 C 591.281 2.43738 2.86825 0
M  V30 6335 C 590.428 2.25941 1.60767 0
M  V30 6336 H 593.379 1.50672 0.49836 0
M  V30 6337 H 593.4 2.14333 3.14391 0
M  V30 6338 H 592.912 3.41805 1.83824 0
M  V30 6339 H 591.013 1.51375 3.40465 0
M  V30 6340 H 591.126 3.39779 3.37768 0
M  V30 6341 H 589.49 1.73681 1.86298 0
M  V30 6342 H 590.273 3.24054 1.1333 0
M  V30 6343 N 592.718 -0.936591 1.26751 0
M  V30 6344 C 593.628 -2.06949 1.10496 0
M  V30 6345 C 594.644 -1.7396 0.037271 0
M  V30 6346 O 595.82 -1.99941 0.241944 0
M  V30 6347 C 592.885 -3.38612 0.744491 0
M  V30 6348 C 591.946 -3.85355 1.89209 0
M  V30 6349 C 591.179 -5.10735 1.54873 0
M  V30 6350 O 591.402 -5.68602 0.452546 0
M  V30 6351 O 590.336 -5.52632 2.38499 0
M  V30 6352 H 594.162 -2.23571 2.05547 0
M  V30 6353 H 591.747 -1.05428 1.05855 0
M  V30 6354 H 593.629 -4.17711 0.556396 0
M  V30 6355 H 592.304 -3.23218 -0.176582 0
M  V30 6356 H 591.211 -3.07182 2.13518 0
M  V30 6357 H 592.544 -4.05277 2.79305 0
M  V30 6358 N 594.196 -1.08629 -1.14182 0
M  V30 6359 C 595.143 -0.718299 -2.19338 0
M  V30 6360 C 596.113 0.296587 -1.63431 0
M  V30 6361 O 597.298 0.180079 -1.89948 0
M  V30 6362 C 594.438 -0.136203 -3.44831 0
M  V30 6363 C 593.551 -1.20414 -4.14879 0
M  V30 6364 C 592.686 -0.585666 -5.27962 0
M  V30 6365 C 591.725 -1.63548 -5.89846 0
M  V30 6366 N 590.862 -1.03864 -6.94375 0
M  V30 6367 H 595.702 -1.61932 -2.50164 0
M  V30 6368 H 593.239 -0.80919 -1.22844 0
M  V30 6369 H 595.197 0.219021 -4.16625 0
M  V30 6370 H 593.827 0.728121 -3.14481 0
M  V30 6371 H 592.879 -1.67676 -3.41451 0
M  V30 6372 H 594.191 -1.99959 -4.56966 0
M  V30 6373 H 593.345 -0.178818 -6.06436 0
M  V30 6374 H 592.084 0.24142 -4.87102 0
M  V30 6375 H 591.089 -2.05197 -5.10073 0
M  V30 6376 H 592.314 -2.46509 -6.3278 0
M  V30 6377 H 590.26 -0.232687 -6.55587 0
M  V30 6378 H 590.177 -1.77116 -7.3496 0
M  V30 6379 H 591.445 -0.657724 -7.7672 0
M  V30 6380 N 595.674 1.31259 -0.872281 0
M  V30 6381 C 596.637 2.26744 -0.334656 0
M  V30 6382 C 597.637 1.52307 0.515681 0
M  V30 6383 O 598.827 1.71148 0.324656 0
M  V30 6384 C 595.959 3.36841 0.524482 0
M  V30 6385 H 597.152 2.75812 -1.17762 0
M  V30 6386 H 594.705 1.42232 -0.648064 0
M  V30 6387 H 595.44 2.93069 1.38855 0
M  V30 6388 H 595.225 3.92009 -0.0844299 0
M  V30 6389 H 596.715 4.07944 0.892838 0
M  V30 6390 N 597.152 0.631951 1.44375 0
M  V30 6391 C 598.401 0.134214 2.01253 0
M  V30 6392 C 598.714 -1.25171 1.50305 0
M  V30 6393 O 599.92 -1.8435 1.99317 0
M  V30 6394 C 598.376 0.189187 3.59402 0
M  V30 6395 C 597.984 1.57647 4.19346 0
M  V30 6396 C 599.728 -0.252044 4.23751 0
M  V30 6397 C 597.635 1.58651 5.69722 0
M  V30 6398 H 596.565 0.0464101 0.75257 0
M  V30 6399 H 599.216 0.790868 1.65582 0
M  V30 6400 H 597.598 -0.534584 3.92375 0
M  V30 6401 H 598.772 2.32389 3.97909 0
M  V30 6402 H 597.087 1.96186 3.67288 0
M  V30 6403 H 599.684 -0.264084 5.34047 0
M  V30 6404 H 600.027 -1.27951 3.96149 0
M  V30 6405 H 600.56 0.41926 3.95584 0
M  V30 6406 H 597.299 2.59237 6.0206 0
M  V30 6407 H 596.819 0.882039 5.93279 0
M  V30 6408 H 598.498 1.32082 6.33375 0
M  V30 6409 N 598.631 -1.53133 0.372548 0
M  V30 6410 C 599.578 -2.25951 -0.470631 0
M  V30 6411 C 600.548 -1.26895 -1.07176 0
M  V30 6412 O 601.733 -1.55691 -1.10294 0
M  V30 6413 C 598.873 -3.05726 -1.6008 0
M  V30 6414 C 597.986 -4.19684 -1.02416 0
M  V30 6415 C 597.121 -4.86888 -2.124 0
M  V30 6416 C 596.16 -5.92866 -1.52238 0
M  V30 6417 N 595.297 -6.53732 -2.56084 0
M  V30 6418 H 600.137 -2.97587 0.156816 0
M  V30 6419 H 597.674 -1.4683 0.0891571 0
M  V30 6420 H 599.632 -3.50258 -2.26661 0
M  V30 6421 H 598.262 -2.36331 -2.1988 0
M  V30 6422 H 597.314 -3.79588 -0.248426 0
M  V30 6423 H 598.626 -4.95821 -0.544366 0
M  V30 6424 H 597.78 -5.34638 -2.86787 0
M  V30 6425 H 596.519 -4.10239 -2.63734 0
M  V30 6426 H 595.524 -5.4447 -0.763685 0
M  V30 6427 H 596.749 -6.71439 -1.0172 0
M  V30 6428 H 594.695 -5.79932 -3.06618 0
M  V30 6429 H 594.612 -7.25429 -2.12811 0
M  V30 6430 H 595.88 -7.0613 -3.30152 0
M  V30 6431 N 600.109 -0.101901 -1.5727 0
M  V30 6432 C 601.039 0.851544 -2.17419 0
M  V30 6433 C 602.02 1.28942 -1.10941 0
M  V30 6434 O 603.205 1.35509 -1.39107 0
M  V30 6435 C 600.335 2.10816 -2.75996 0
M  V30 6436 C 599.289 1.80867 -3.87906 0
M  V30 6437 C 598.615 3.13413 -4.33216 0
M  V30 6438 C 599.915 1.0903 -5.10793 0
M  V30 6439 H 601.609 0.350381 -2.97343 0
M  V30 6440 H 599.155 0.16709 -1.43027 0
M  V30 6441 H 601.108 2.77959 -3.16729 0
M  V30 6442 H 599.832 2.63227 -1.93337 0
M  V30 6443 H 598.491 1.16119 -3.47724 0
M  V30 6444 H 598.139 3.63725 -3.47438 0
M  V30 6445 H 597.839 2.94155 -5.08671 0
M  V30 6446 H 599.363 3.81704 -4.76586 0
M  V30 6447 H 600.777 1.66295 -5.48652 0
M  V30 6448 H 599.174 0.99927 -5.91722 0
M  V30 6449 H 600.244 0.0741704 -4.84843 0
M  V30 6450 N 601.587 1.56661 0.17182 0
M  V30 6451 C 602.815 1.861 0.904115 0
M  V30 6452 C 603.23 0.687227 1.75848 0
M  V30 6453 O 602.587 -0.343671 1.79235 0
M  V30 6454 C 602.638 3.14568 1.78127 0
M  V30 6455 O 602.359 4.27422 0.961366 0
M  V30 6456 C 603.86 3.5735 2.62327 0
M  V30 6457 H 601.08 0.617445 0.262684 0
M  V30 6458 H 603.624 2.03775 0.172068 0
M  V30 6459 H 601.779 2.98721 2.46666 0
M  V30 6460 H 602.193 5.00725 1.56123 0
M  V30 6461 H 603.667 4.50144 3.1949 0
M  V30 6462 H 604.144 2.81445 3.37173 0
M  V30 6463 H 604.75 3.75807 1.99121 0
M  V30 6464 N 603.065 -0.440357 1.51323 0
M  V30 6465 C 604.311 -1.19181 1.64085 0
M  V30 6466 C 604.644 -1.90936 0.354575 0
M  V30 6467 O 603.919 -1.8347 -0.645675 0
M  V30 6468 C 604.202 -2.2112 2.84215 0
M  V30 6469 C 604.055 -1.53468 4.22809 0
M  V30 6470 C 605.374 -3.22133 2.99864 0
M  V30 6471 H 602.493 -0.431924 0.597169 0
M  V30 6472 H 605.135 -0.481443 1.83799 0
M  V30 6473 H 603.285 -2.81703 2.67537 0
M  V30 6474 H 604.957 -0.962455 4.51148 0
M  V30 6475 H 603.2 -0.837086 4.25647 0
M  V30 6476 H 603.871 -2.27694 5.02852 0
M  V30 6477 H 606.347 -2.71601 3.15233 0
M  V30 6478 H 605.223 -3.90756 3.85488 0
M  V30 6479 H 605.484 -3.88061 2.11804 0
M  V30 6480 N 604.543 -1.41418 -0.695603 0
M  V30 6481 C 605.491 -1.43467 -1.83084 0
M  V30 6482 C 606.485 -0.312719 -1.66489 0
M  V30 6483 O 607.691 -0.484744 -1.7335 0
M  V30 6484 H 604.066 -0.448891 -0.603325 0
M  V30 6485 H 606.037 -2.39144 -1.78473 0
M  V30 6486 C 604.786 -1.3337 -3.21104 0
M  V30 6487 H 604.109 -2.18989 -3.3449 0
M  V30 6488 H 605.549 -1.38865 -4.00615 0
M  V30 6489 C 604.008 -0.0460484 -3.36869 0
M  V30 6490 O 604.538 0.909258 -3.91274 0
M  V30 6491 N 602.744 0.0300222 -2.90584 0
M  V30 6492 H 602.291 -0.748129 -2.46497 0
M  V30 6493 H 602.249 0.890991 -3.01511 0
M  V30 6494 N 606.021 0.929856 -1.27246 0
M  V30 6495 C 607.298 1.65544 -1.04186 0
M  V30 6496 C 607.678 2.06796 0.424097 0
M  V30 6497 O 607.026 1.80053 1.40688 0
M  V30 6498 C 607.236 2.85912 -2.00138 0
M  V30 6499 C 608.584 3.57305 -2.29387 0
M  V30 6500 O 609.608 2.96036 -1.98094 0
M  V30 6501 O 608.467 4.67688 -2.82719 0
M  V30 6502 H 605.561 0.725473 -0.397011 0
M  V30 6503 H 608.107 0.980583 -1.38501 0
M  V30 6504 H 606.879 2.52403 -2.99013 0
M  V30 6505 H 606.502 3.61118 -1.66371 0
M  V30 6506 N 607.499 1.09233 1.13605 0
M  V30 6507 C 608.746 0.827159 1.84836 0
M  V30 6508 C 609.074 -0.647199 1.83416 0
M  V30 6509 O 608.329 -1.49228 1.26608 0
M  V30 6510 C 608.628 1.305 3.32723 0
M  V30 6511 C 608.294 2.78864 3.54325 0
M  V30 6512 C 606.956 3.19382 3.59928 0
M  V30 6513 C 609.308 3.74532 3.62457 0
M  V30 6514 C 606.636 4.54346 3.71196 0
M  V30 6515 C 608.988 5.09283 3.75252 0
M  V30 6516 C 607.652 5.49394 3.79108 0
M  V30 6517 H 606.922 0.302679 0.676363 0
M  V30 6518 H 609.569 1.36676 1.34134 0
M  V30 6519 H 607.874 0.68517 3.85762 0
M  V30 6520 H 609.571 1.07648 3.86281 0
M  V30 6521 H 606.161 2.46507 3.50617 0
M  V30 6522 H 610.345 3.44343 3.57409 0
M  V30 6523 H 605.601 4.84864 3.72447 0
M  V30 6524 H 609.775 5.83269 3.80487 0
M  V30 6525 H 607.402 6.5397 3.87591 0
M  V30 6526 N 608.977 -1.30795 0.87923 0
M  V30 6527 C 610.223 -1.96653 0.495519 0
M  V30 6528 C 610.556 -1.69282 -0.951703 0
M  V30 6529 O 609.831 -0.994374 -1.6716 0
M  V30 6530 C 610.114 -3.51898 0.764174 0
M  V30 6531 C 609.967 -3.88808 2.2616 0
M  V30 6532 C 611.286 -4.39462 0.236825 0
M  V30 6533 H 608.405 -0.7143 0.181507 0
M  V30 6534 H 611.047 -1.54765 1.10217 0
M  V30 6535 H 609.197 -3.87709 0.247841 0
M  V30 6536 H 610.869 -3.63051 2.8459 0
M  V30 6537 H 609.112 -3.37082 2.73053 0
M  V30 6538 H 609.783 -4.97086 2.4002 0
M  V30 6539 H 612.259 -4.10528 0.678683 0
M  V30 6540 H 611.135 -5.47018 0.454176 0
M  V30 6541 H 611.396 -4.33621 -0.861683 0
M  V30 6542 N 610.455 -0.639598 -1.44038 0
M  V30 6543 C 611.871 -0.305953 -1.5664 0
M  V30 6544 C 612.071 1.19055 -1.62567 0
M  V30 6545 O 611.127 1.97492 -1.57331 0
M  V30 6546 C 612.44 -1.00533 -2.83397 0
M  V30 6547 C 613.988 -0.984278 -2.97121 0
M  V30 6548 C 614.463 -1.66428 -4.26691 0
M  V30 6549 N 615.954 -1.63127 -4.33525 0
M  V30 6550 C 616.689 -2.12629 -5.32519 0
M  V30 6551 N 616.185 -2.70359 -6.3787 0
M  V30 6552 N 617.978 -2.03208 -5.24083 0
M  V30 6553 H 610.129 -1.6109 -1.38434 0
M  V30 6554 H 612.392 -0.676672 -0.663942 0
M  V30 6555 H 612.098 -2.06034 -2.85032 0
M  V30 6556 H 611.972 -0.548362 -3.73193 0
M  V30 6557 H 614.359 0.0622792 -2.95034 0
M  V30 6558 H 614.44 -1.47981 -2.08651 0
M  V30 6559 H 614.084 -2.71034 -4.29538 0
M  V30 6560 H 614.014 -1.14351 -5.14034 0
M  V30 6561 H 616.505 -1.20987 -3.58009 0
M  V30 6562 H 616.818 -3.05842 -7.09704 0
M  V30 6563 H 615.163 -2.74414 -6.38531 0
M  V30 6564 H 618.354 -1.57823 -4.40692 0
M  V30 6565 H 618.527 -2.42097 -6.01077 0
M  V30 6566 N 611.933 1.52934 -0.380664 0
M  V30 6567 C 613.21 1.93845 0.261417 0
M  V30 6568 C 613.59 1.31544 1.65104 0
M  V30 6569 O 612.938 0.480234 2.23397 0
M  V30 6570 C 613.148 3.47739 0.296466 0
M  V30 6571 C 614.496 4.21284 0.529578 0
M  V30 6572 O 615.52 3.54199 0.377041 0
M  V30 6573 O 614.379 5.40195 0.827753 0
M  V30 6574 H 611.473 0.811318 0.160285 0
M  V30 6575 H 614.019 1.64042 -0.434544 0
M  V30 6576 H 612.791 3.85395 -0.67724 0
M  V30 6577 H 612.414 3.8382 1.0377 0
M  V30 6578 N 613.412 0.11024 1.57214 0
M  V30 6579 C 614.359 -0.843195 2.14846 0
M  V30 6580 C 615.329 -1.26954 1.07107 0
M  V30 6581 O 616.514 -1.34861 1.34971 0
M  V30 6582 C 613.654 -2.09123 2.74521 0
M  V30 6583 C 612.767 -1.71404 3.96541 0
M  V30 6584 C 611.902 -2.91107 4.44331 0
M  V30 6585 C 610.941 -2.49586 5.58903 0
M  V30 6586 N 610.078 -3.62175 6.01477 0
M  V30 6587 H 614.918 -0.344886 2.95998 0
M  V30 6588 H 612.455 -0.15855 1.46243 0
M  V30 6589 H 614.413 -2.82234 3.07246 0
M  V30 6590 H 613.043 -2.56427 1.96074 0
M  V30 6591 H 612.095 -0.88201 3.70033 0
M  V30 6592 H 613.407 -1.36884 4.7965 0
M  V30 6593 H 612.561 -3.72454 4.78919 0
M  V30 6594 H 611.3 -3.28848 3.60153 0
M  V30 6595 H 610.305 -1.6667 5.23929 0
M  V30 6596 H 611.53 -2.12973 6.4484 0
M  V30 6597 H 609.476 -3.99605 5.20242 0
M  V30 6598 H 609.393 -3.3155 6.79419 0
M  V30 6599 H 610.661 -4.43987 6.407 0
M  V30 6600 N 614.89 -1.56749 -0.16351 0
M  V30 6601 C 616.137 -1.82434 -0.878866 0
M  V30 6602 C 616.465 -0.688557 -1.81904 0
M  V30 6603 O 615.72 0.323644 -1.93005 0
M  V30 6604 C 616.019 -3.14342 -1.70071 0
M  V30 6605 C 615.685 -4.41647 -0.908775 0
M  V30 6606 C 614.347 -4.76224 -0.690236 0
M  V30 6607 C 616.699 -5.19998 -0.353815 0
M  V30 6608 C 614.027 -5.86624 0.0942374 0
M  V30 6609 C 616.379 -6.3122 0.41761 0
M  V30 6610 C 615.043 -6.64358 0.646879 0
M  V30 6611 H 614.313 -0.667574 -0.3216 0
M  V30 6612 H 616.96 -1.90963 -0.14337 0
M  V30 6613 H 615.265 -3.0119 -2.50583 0
M  V30 6614 H 616.962 -3.31426 -2.25738 0
M  V30 6615 H 613.552 -4.1453 -1.08916 0
M  V30 6616 H 617.736 -4.93673 -0.509975 0
M  V30 6617 H 612.992 -6.10751 0.281529 0
M  V30 6618 H 617.166 -6.91133 0.854849 0
M  V30 6619 H 614.793 -7.49742 1.25662 0
M  V30 6620 N 616.368 0.432326 -1.51554 0
M  V30 6621 C 617.596 1.20364 -1.68286 0
M  V30 6622 C 618.011 1.84888 -0.38233 0
M  V30 6623 O 617.368 1.70924 0.639627 0
M  V30 6624 C 617.419 2.28398 -2.80208 0
M  V30 6625 O 617.14 1.66512 -4.05223 0
M  V30 6626 C 618.641 3.18584 -3.08251 0
M  V30 6627 H 615.861 0.36259 -0.564596 0
M  V30 6628 H 618.405 0.511647 -1.97996 0
M  V30 6629 H 616.56 2.93305 -2.53083 0
M  V30 6630 H 616.974 2.37951 -4.67418 0
M  V30 6631 H 618.448 3.90511 -3.90135 0
M  V30 6632 H 618.925 3.79628 -2.2086 0
M  V30 6633 H 619.531 2.59372 -3.37055 0
M  V30 6634 N 617.846 1.41785 0.688094 0
M  V30 6635 C 619.262 1.24419 0.999608 0
M  V30 6636 C 619.462 0.138868 2.01021 0
M  V30 6637 O 618.518 -0.494283 2.47615 0
M  V30 6638 C 619.831 2.59625 1.51709 0
M  V30 6639 C 621.379 2.66869 1.63554 0
M  V30 6640 C 621.854 4.0241 2.18702 0
M  V30 6641 N 623.345 4.04295 2.26053 0
M  V30 6642 C 624.08 5.05977 2.69768 0
M  V30 6643 N 623.576 6.18047 3.13033 0
M  V30 6644 N 625.369 4.93336 2.69398 0
M  V30 6645 H 617.52 2.12392 0.0187427 0
M  V30 6646 H 619.783 0.945347 0.0708673 0
M  V30 6647 H 619.489 3.41297 0.849059 0
M  V30 6648 H 619.363 2.82628 2.49803 0
M  V30 6649 H 621.75 1.8555 2.29467 0
M  V30 6650 H 621.831 2.47668 0.639857 0
M  V30 6651 H 621.475 4.8418 1.53402 0
M  V30 6652 H 621.405 4.18955 3.19037 0
M  V30 6653 H 623.896 3.23383 1.9553 0
M  V30 6654 H 624.209 6.91498 3.45038 0
M  V30 6655 H 622.554 6.21572 3.10923 0
M  V30 6656 H 625.745 4.04865 2.34952 0
M  V30 6657 H 625.918 5.72717 3.03148 0
M  V30 6658 N 619.324 -0.923095 1.27737 0
M  V30 6659 C 620.74 -1.19985 1.05241 0
M  V30 6660 C 620.94 -2.00391 -0.21113 0
M  V30 6661 O 619.996 -2.35324 -0.915366 0
M  V30 6662 C 621.309 -1.94352 2.29451 0
M  V30 6663 C 622.857 -2.07273 2.34536 0
M  V30 6664 C 623.332 -2.85046 3.58487 0
M  V30 6665 N 624.823 -2.92612 3.59072 0
M  V30 6666 C 625.558 -3.53266 4.51654 0
M  V30 6667 N 625.054 -4.15274 5.54545 0
M  V30 6668 N 626.847 -3.50714 4.39268 0
M  V30 6669 H 618.998 -0.386042 2.08862 0
M  V30 6670 H 621.261 -0.233407 0.918817 0
M  V30 6671 H 620.967 -1.42692 3.21453 0
M  V30 6672 H 620.841 -2.94947 2.3513 0
M  V30 6673 H 623.228 -2.58117 1.43037 0
M  V30 6674 H 623.309 -1.05884 2.32857 0
M  V30 6675 H 622.953 -2.34884 4.50324 0
M  V30 6676 H 622.883 -3.8673 3.57418 0
M  V30 6677 H 625.374 -2.48547 2.84663 0
M  V30 6678 H 625.687 -4.59507 6.21348 0
M  V30 6679 H 624.032 -4.13806 5.58382 0
M  V30 6680 H 627.223 -3.01475 3.58093 0
M  V30 6681 H 627.396 -3.97693 5.1161 0
M  V30 6682 N 620.802 -1.09834 -1.13024 0
M  V30 6683 C 622.079 -0.749225 -1.80682 0
M  V30 6684 C 622.459 0.765171 -1.96744 0
M  V30 6685 O 621.807 1.68912 -1.53886 0
M  V30 6686 C 622.017 -1.49311 -3.15448 0
M  V30 6687 C 623.365 -1.66162 -3.90737 0
M  V30 6688 O 624.389 -1.45597 -3.25085 0
M  V30 6689 O 623.248 -2.00211 -5.08505 0
M  V30 6690 H 620.342 -0.269614 -0.781817 0
M  V30 6691 H 622.888 -1.20078 -1.19914 0
M  V30 6692 H 621.66 -2.52407 -2.99009 0
M  V30 6693 H 621.283 -1.034 -3.8392 0
M  V30 6694 N 622.28 1.30327 -0.886154 0
M  V30 6695 C 623.528 1.9571 -0.504195 0
M  V30 6696 C 623.849 1.70294 0.950003 0
M  V30 6697 O 623.119 1.02718 1.66811 0
M  V30 6698 H 621.699 0.72412 -0.183465 0
M  V30 6699 H 624.361 1.58835 -1.12949 0
M  V30 6700 H 623.457 3.04704 -0.675431 0
M  V30 6701 N 623.758 0.647228 1.43697 0
M  V30 6702 C 624.983 0.164083 2.0675 0
M  V30 6703 C 625.408 -1.15892 1.48158 0
M  V30 6704 O 624.766 -1.71459 0.589194 0
M  V30 6705 C 624.814 0.0800368 3.60511 0
M  V30 6706 O 623.918 -0.959453 4.01084 0
M  V30 6707 H 623.259 0.0921288 0.657578 0
M  V30 6708 H 625.789 0.88846 1.84303 0
M  V30 6709 H 625.799 -0.105263 4.07864 0
M  V30 6710 H 624.474 1.04586 4.02535 0
M  V30 6711 H 623.051 -0.747425 3.65333 0
M  V30 6712 N 625.236 -1.5273 0.388769 0
M  V30 6713 C 626.482 -2.01871 -0.193877 0
M  V30 6714 C 626.815 -1.27475 -1.46505 0
M  V30 6715 O 626.09 -0.375063 -1.90849 0
M  V30 6716 C 626.373 -3.5712 -0.462336 0
M  V30 6717 C 626.226 -4.42186 0.824091 0
M  V30 6718 C 627.545 -4.21881 -1.25319 0
M  V30 6719 H 624.664 -0.733764 -0.0689899 0
M  V30 6720 H 627.306 -1.82796 0.518231 0
M  V30 6721 H 625.456 -3.73504 -1.06896 0
M  V30 6722 H 627.128 -4.37554 1.46096 0
M  V30 6723 H 625.371 -4.09219 1.43952 0
M  V30 6724 H 626.042 -5.48828 0.590905 0
M  V30 6725 H 628.518 -4.0947 -0.73981 0
M  V30 6726 H 627.394 -5.30487 -1.40977 0
M  V30 6727 H 627.655 -3.79478 -2.26824 0
M  V30 6728 N 626.714 -0.118576 -1.57153 0
M  V30 6729 C 628.125 0.40687 -1.82213 0
M  V30 6730 C 628.476 1.66636 -1.03571 0
M  V30 6731 O 627.601 2.14682 -0.272171 0
M  V30 6732 C 628.196 0.744949 -3.30509 0
M  V30 6733 C 626.755 1.21503 -3.5625 0
M  V30 6734 C 625.902 0.223511 -2.76398 0
M  V30 6735 H 628.853 -0.343712 -1.54933 0
M  V30 6736 H 628.874 1.6024 -3.45114 0
M  V30 6737 H 628.386 -0.171911 -3.87719 0
M  V30 6738 H 626.487 2.1488 -3.04396 0
M  V30 6739 H 626.6 1.16065 -4.64829 0
M  V30 6740 H 624.964 0.71046 -2.44591 0
M  V30 6741 H 625.747 -0.686439 -3.36367 0
M  V30 6742 N 628.193 1.56834 0.155195 0
M  V30 6743 C 629.123 2.00678 1.19376 0
M  V30 6744 C 630.104 0.884973 1.45266 0
M  V30 6745 O 631.289 1.1522 1.56326 0
M  V30 6746 C 628.419 2.38042 2.5289 0
M  V30 6747 C 627.373 3.53332 2.41538 0
M  V30 6748 C 626.699 3.76485 3.79688 0
M  V30 6749 C 627.999 4.86265 1.9064 0
M  V30 6750 H 629.693 2.87688 0.829232 0
M  V30 6751 H 627.239 1.38407 0.397445 0
M  V30 6752 H 629.192 2.67314 3.25763 0
M  V30 6753 H 627.916 1.4796 2.91162 0
M  V30 6754 H 626.575 3.24213 1.71117 0
M  V30 6755 H 626.223 2.83667 4.15382 0
M  V30 6756 H 625.923 4.54068 3.72956 0
M  V30 6757 H 627.447 4.08174 4.54122 0
M  V30 6758 H 628.861 5.14308 2.53299 0
M  V30 6759 H 627.258 5.67597 1.94818 0
M  V30 6760 H 628.328 4.77184 0.861596 0
M  V30 6761 N 629.671 -0.424282 1.51781 0
M  V30 6762 C 631.082 -1.00368 1.57427 0
M  V30 6763 C 631.433 -1.91962 0.40558 0
M  V30 6764 O 630.558 -2.111 -0.47601 0
M  V30 6765 C 631.153 -1.82707 2.85313 0
M  V30 6766 C 629.712 -2.35675 2.93487 0
M  V30 6767 C 628.859 -1.1524 2.5222 0
M  V30 6768 H 631.81 -0.205064 1.5737 0
M  V30 6769 H 631.831 -2.68294 2.69812 0
M  V30 6770 H 631.343 -1.16017 3.70353 0
M  V30 6771 H 629.444 -3.05781 2.12906 0
M  V30 6772 H 629.557 -2.67578 3.97415 0
M  V30 6773 H 627.921 -1.50174 2.05718 0
M  V30 6774 H 628.704 -0.5014 3.39619 0
M  V30 6775 N 631.149 -1.42148 -0.680565 0
M  V30 6776 C 632.112 -1.4488 -1.77602 0
M  V30 6777 C 633.112 -0.337209 -1.57224 0
M  V30 6778 O 634.302 -0.597778 -1.63622 0
M  V30 6779 C 631.434 -1.27483 -3.16166 0
M  V30 6780 H 632.627 -2.42412 -1.76568 0
M  V30 6781 H 630.18 -1.28511 -0.889645 0
M  V30 6782 H 630.915 -0.30851 -3.22829 0
M  V30 6783 H 630.7 -2.08037 -3.3236 0
M  V30 6784 H 632.19 -1.32265 -3.96101 0
M  V30 6785 N 632.627 0.916307 -1.28225 0
M  V30 6786 C 633.537 2.05165 -1.13775 0
M  V30 6787 C 634.553 1.73879 -0.0649418 0
M  V30 6788 O 635.729 1.99531 -0.273722 0
M  V30 6789 C 632.794 3.37385 -0.798267 0
M  V30 6790 C 631.855 3.82296 -1.95316 0
M  V30 6791 C 631.088 5.08206 -1.62978 0
M  V30 6792 O 631.311 5.6781 -0.542948 0
M  V30 6793 O 630.245 5.48768 -2.47261 0
M  V30 6794 H 634.071 2.20273 -2.09078 0
M  V30 6795 H 631.656 1.0373 -1.07519 0
M  V30 6796 H 633.538 4.16773 -0.62278 0
M  V30 6797 H 632.213 3.23458 0.125139 0
M  V30 6798 H 631.12 3.03746 -2.18378 0
M  V30 6799 H 632.453 4.00782 -2.85718 0
M  V30 6800 N 634.105 1.10431 1.1244 0
M  V30 6801 C 635.351 0.847972 1.84221 0
M  V30 6802 C 635.684 -0.624903 1.83871 0
M  V30 6803 O 634.959 -1.46074 1.28423 0
M  V30 6804 C 635.242 1.39695 3.319 0
M  V30 6805 C 635.095 2.93668 3.40704 0
M  V30 6806 C 636.414 1.03924 4.27654 0
M  V30 6807 H 633.533 0.309502 0.668863 0
M  V30 6808 H 636.175 1.36745 1.31912 0
M  V30 6809 H 634.325 0.955095 3.76577 0
M  V30 6810 H 635.997 3.46379 3.04662 0
M  V30 6811 H 634.24 3.30272 2.81252 0
M  V30 6812 H 634.911 3.27162 4.446 0
M  V30 6813 H 637.387 1.42049 3.91102 0
M  V30 6814 H 636.263 1.45027 5.29394 0
M  V30 6815 H 636.524 -0.051336 4.4207 0
M  V30 6816 N 635.583 -1.29855 0.893053 0
M  V30 6817 C 636.513 -2.3035 0.382249 0
M  V30 6818 C 637.494 -1.61328 -0.539203 0
M  V30 6819 O 638.679 -1.88882 -0.451342 0
M  V30 6820 C 635.809 -3.45024 -0.396983 0
M  V30 6821 C 634.763 -4.258 0.433437 0
M  V30 6822 C 634.089 -5.32605 -0.472889 0
M  V30 6823 C 635.389 -4.94549 1.67984 0
M  V30 6824 H 637.083 -2.73325 1.22205 0
M  V30 6825 H 634.629 -1.314 0.589073 0
M  V30 6826 H 636.582 -4.14398 -0.765024 0
M  V30 6827 H 635.306 -3.00875 -1.2705 0
M  V30 6828 H 633.965 -3.58125 0.783723 0
M  V30 6829 H 633.613 -4.84702 -1.34435 0
M  V30 6830 H 633.313 -5.87547 0.0789958 0
M  V30 6831 H 634.837 -6.04832 -0.837269 0
M  V30 6832 H 636.251 -5.56395 1.38192 0
M  V30 6833 H 634.648 -5.59393 2.17254 0
M  V30 6834 H 635.718 -4.20215 2.41965 0
M  V30 6835 N 637.061 -0.65484 -1.43351 0
M  V30 6836 C 638.024 0.0263562 -2.29185 0
M  V30 6837 C 639.024 0.748951 -1.42293 0
M  V30 6838 O 640.214 0.589957 -1.63906 0
M  V30 6839 C 637.346 1.04806 -3.2439 0
M  V30 6840 H 638.539 -0.728883 -2.90908 0
M  V30 6841 H 636.092 -0.416149 -1.50658 0
M  V30 6842 H 636.827 1.83247 -2.67565 0
M  V30 6843 H 636.612 0.533554 -3.88453 0
M  V30 6844 H 638.102 1.52372 -3.88809 0
M  V30 6845 N 638.539 1.52521 -0.396863 0
M  V30 6846 C 639.787 2.01274 0.182536 0
M  V30 6847 C 640.108 1.28485 1.46685 0
M  V30 6848 O 639.378 0.407134 1.91623 0
M  V30 6849 H 637.958 0.743671 0.0704442 0
M  V30 6850 H 640.62 1.87547 -0.530289 0
M  V30 6851 H 639.716 3.09687 0.387385 0
M  V30 6852 N 640.017 0.126909 1.57088 0
M  V30 6853 C 641.265 -0.528123 1.95078 0
M  V30 6854 C 641.586 -1.66708 1.0116 0
M  V30 6855 O 640.856 -1.95777 0.0693527 0
M  V30 6856 H 639.436 -0.198087 0.720257 0
M  V30 6857 H 642.098 0.197703 1.93895 0
M  V30 6858 H 641.194 -0.917507 2.98309 0
M  V30 6859 N 641.495 -1.56914 -0.146875 0
M  V30 6860 C 642.735 -1.85163 -0.86568 0
M  V30 6861 C 643.099 -0.711215 -1.78342 0
M  V30 6862 O 644.3 -0.874754 -2.54168 0
M  V30 6863 C 642.571 -3.18593 -1.61967 0
M  V30 6864 S 644.13 -3.68397 -2.38388 0
M  V30 6865 H 640.948 -0.6494 -0.289483 0
M  V30 6866 H 643.55 -1.95096 -0.125679 0
M  V30 6867 H 642.254 -3.99562 -0.93694 0
M  V30 6868 H 641.785 -3.11666 -2.40058 0
M  V30 6869 H 643.8 -3.37672 -3.63582 0
M  V30 6870 N 642.974 0.416227 -1.52004 0
M  V30 6871 C 643.937 1.48926 -1.74223 0
M  V30 6872 C 644.937 1.48693 -0.612119 0
M  V30 6873 O 646.127 1.50343 -0.879921 0
M  V30 6874 C 643.259 2.88372 -1.81809 0
M  V30 6875 H 644.452 1.3052 -2.70008 0
M  V30 6876 H 642.005 0.646271 -1.42313 0
M  V30 6877 H 642.74 3.12157 -0.879135 0
M  V30 6878 H 642.525 2.89944 -2.6396 0
M  V30 6879 H 644.015 3.66173 -2.00766 0
M  V30 6880 N 644.452 1.42507 0.673017 0
M  V30 6881 C 645.7 1.42789 1.43023 0
M  V30 6882 C 646.021 0.0459738 1.94946 0
M  V30 6883 O 645.291 -0.915765 1.73178 0
M  V30 6884 H 643.871 0.525657 0.530748 0
M  V30 6885 H 646.533 1.77944 0.795113 0
M  V30 6886 H 645.629 2.12872 2.28237 0
M  V30 6887 N 645.93 -0.909495 1.28709 0
M  V30 6888 C 647.178 -1.65577 1.15882 0
M  V30 6889 C 647.499 -1.928 -0.292108 0
M  V30 6890 O 646.769 -1.54716 -1.20166 0
M  V30 6891 H 645.349 -0.613714 0.425869 0
M  V30 6892 H 648.011 -1.09108 1.61498 0
M  V30 6893 H 647.107 -2.61634 1.70159 0
M  V30 6894 N 647.408 -1.11026 -1.11852 0
M  V30 6895 C 648.633 -0.879064 -1.87849 0
M  V30 6896 C 649.058 0.565406 -1.79401 0
M  V30 6897 O 648.416 1.39886 -1.15333 0
M  V30 6898 C 648.464 -1.33985 -3.34784 0
M  V30 6899 O 647.568 -0.508803 -4.09249 0
M  V30 6900 H 646.909 -0.316992 -0.583448 0
M  V30 6901 H 649.439 -1.47863 -1.41413 0
M  V30 6902 H 649.449 -1.33248 -3.85628 0
M  V30 6903 H 648.124 -2.39172 -3.40249 0
M  V30 6904 H 646.701 -0.581913 -3.68332 0
M  V30 6905 N 648.886 1.2938 -0.899927 0
M  V30 6906 C 649.818 2.26737 -0.335139 0
M  V30 6907 C 650.831 1.54316 0.518681 0
M  V30 6908 O 652.02 1.75313 0.335803 0
M  V30 6909 C 649.12 3.34558 0.540774 0
M  V30 6910 C 648.293 4.36455 -0.287372 0
M  V30 6911 C 647.352 5.2361 0.52141 0
M  V30 6912 O 646.378 5.69167 -0.0611735 0
M  V30 6913 N 647.58 5.50985 1.82745 0
M  V30 6914 H 650.345 2.75838 -1.17191 0
M  V30 6915 H 647.906 1.42716 -0.764438 0
M  V30 6916 H 649.898 3.89794 1.08825 0
M  V30 6917 H 648.468 2.85272 1.27823 0
M  V30 6918 H 647.688 3.80875 -1.01626 0
M  V30 6919 H 648.976 5.01573 -0.854518 0
M  V30 6920 H 648.374 5.15781 2.32349 0
M  V30 6921 H 646.931 6.09036 2.32204 0
M  V30 6922 N 650.364 0.662433 1.43002 0
M  V30 6923 C 651.61 0.179857 2.02001 0
M  V30 6924 C 651.943 -1.20625 1.52195 0
M  V30 6925 O 651.218 -1.80726 0.718911 0
M  V30 6926 C 651.501 0.200845 3.59539 0
M  V30 6927 C 651.354 1.62153 4.19555 0
M  V30 6928 C 652.673 -0.457738 4.37713 0
M  V30 6929 H 649.792 0.0668305 0.733964 0
M  V30 6930 H 652.434 0.84487 1.70182 0
M  V30 6931 H 650.584 -0.365411 3.86778 0
M  V30 6932 H 652.256 2.23908 4.03315 0
M  V30 6933 H 650.499 2.16601 3.75854 0
M  V30 6934 H 651.17 1.58799 5.28665 0
M  V30 6935 H 653.646 0.0241495 4.16093 0
M  V30 6936 H 652.522 -0.412363 5.47349 0
M  V30 6937 H 652.783 -1.53336 4.14657 0
M  V30 6938 N 651.842 -1.52309 0.404946 0
M  V30 6939 C 653.091 -2.00952 -0.173529 0
M  V30 6940 C 653.404 -1.29512 -1.46581 0
M  V30 6941 O 654.61 -1.6895 -2.12528 0
M  V30 6942 C 653.066 -3.58097 -0.359801 0
M  V30 6943 C 652.674 -4.38449 0.920138 0
M  V30 6944 C 654.418 -4.14984 -0.893794 0
M  V30 6945 C 652.325 -5.87227 0.701285 0
M  V30 6946 H 651.255 -0.750871 -0.0686244 0
M  V30 6947 H 653.906 -1.75687 0.529749 0
M  V30 6948 H 652.288 -3.79675 -1.12531 0
M  V30 6949 H 653.462 -4.28633 1.69147 0
M  V30 6950 H 651.777 -3.92859 1.38024 0
M  V30 6951 H 654.374 -5.23813 -1.0735 0
M  V30 6952 H 654.717 -3.72072 -1.8673 0
M  V30 6953 H 655.25 -3.97358 -0.187453 0
M  V30 6954 H 651.989 -6.34491 1.64624 0
M  V30 6955 H 651.509 -5.99792 -0.0308288 0
M  V30 6956 H 653.188 -6.46096 0.341846 0
M  V30 6957 N 653.32 -0.135238 -1.57019 0
M  V30 6958 C 654.567 0.518794 -1.95742 0
M  V30 6959 C 654.895 1.65642 -1.01947 0
M  V30 6960 O 654.15 1.95645 -0.0464016 0
M  V30 6961 C 654.449 1.07694 -3.40788 0
M  V30 6962 C 654.115 0.058992 -4.50861 0
M  V30 6963 C 652.777 -0.220872 -4.80693 0
M  V30 6964 C 655.129 -0.633856 -5.17331 0
M  V30 6965 C 652.457 -1.19959 -5.74305 0
M  V30 6966 C 654.809 -1.60131 -6.11997 0
M  V30 6967 C 653.473 -1.889 -6.40213 0
M  V30 6968 H 652.743 0.18984 -0.716269 0
M  V30 6969 H 655.39 -0.219581 -1.90237 0
M  V30 6970 H 653.695 1.89241 -3.43067 0
M  V30 6971 H 655.392 1.59137 -3.68071 0
M  V30 6972 H 651.982 0.287304 -4.27636 0
M  V30 6973 H 656.166 -0.430823 -4.94427 0
M  V30 6974 H 651.422 -1.42905 -5.94465 0
M  V30 6975 H 655.596 -2.14376 -6.62583 0
M  V30 6976 H 653.223 -2.64891 -7.12556 0
M  V30 6977 N 654.798 1.5699 0.138552 0
M  V30 6978 C 656.026 1.87976 0.864437 0
M  V30 6979 C 656.441 0.724372 1.74351 0
M  V30 6980 O 655.798 -0.305575 1.79924 0
M  V30 6981 C 655.849 3.18276 1.71414 0
M  V30 6982 O 655.57 4.29365 0.870487 0
M  V30 6983 C 657.071 3.62834 2.54688 0
M  V30 6984 H 654.291 0.622878 0.249528 0
M  V30 6985 H 656.835 2.04094 0.128805 0
M  V30 6986 H 654.99 3.03886 2.40274 0
M  V30 6987 H 655.404 5.03924 1.45466 0
M  V30 6988 H 656.878 4.5682 3.0987 0
M  V30 6989 H 657.355 2.88533 3.31127 0
M  V30 6990 H 657.961 3.79946 1.91105 0
M  V30 6991 N 656.276 -0.40816 1.52223 0
M  V30 6992 C 657.224 -1.51788 1.76248 0
M  V30 6993 C 658.218 -1.57264 0.629638 0
M  V30 6994 O 659.424 -1.60659 0.811704 0
M  V30 6995 H 655.799 -0.504823 0.557367 0
M  V30 6996 H 657.77 -1.2871 2.69214 0
M  V30 6997 C 656.519 -2.89145 1.93107 0
M  V30 6998 H 655.842 -2.85674 2.79697 0
M  V30 6999 H 657.282 -3.66082 2.13916 0
M  V30 7000 C 655.741 -3.29581 0.698431 0
M  V30 7001 O 656.271 -4.01479 -0.133238 0
M  V30 7002 N 654.477 -2.85651 0.53405 0
M  V30 7003 H 654.024 -2.2731 1.21194 0
M  V30 7004 H 653.982 -3.13065 -0.289387 0
M  V30 7005 N 657.755 -1.42862 -0.66545 0
M  V30 7006 C 659.166 -1.3901 -1.24632 0
M  V30 7007 C 659.517 -0.0880285 -1.96002 0
M  V30 7008 O 658.642 0.812947 -2.0055 0
M  V30 7009 C 659.237 -2.51806 -2.2667 0
M  V30 7010 C 657.796 -2.51257 -2.80262 0
M  V30 7011 C 656.943 -2.30124 -1.5472 0
M  V30 7012 H 659.894 -1.5194 -0.458237 0
M  V30 7013 H 659.915 -2.22593 -3.08598 0
M  V30 7014 H 659.427 -3.46558 -1.74697 0
M  V30 7015 H 657.528 -1.60349 -3.36332 0
M  V30 7016 H 657.641 -3.48614 -3.28641 0
M  V30 7017 H 656.005 -1.7856 -1.81627 0
M  V30 7018 H 656.788 -3.26945 -1.04699 0
M  V30 7019 N 659.233 0.902656 -1.29189 0
M  V30 7020 C 660.163 2.02294 -1.16616 0
M  V30 7021 C 661.144 1.6999 -0.0611175 0
M  V30 7022 O 662.329 1.9271 -0.240072 0
M  V30 7023 C 659.459 3.37018 -0.83882 0
M  V30 7024 C 658.413 3.83522 -1.89986 0
M  V30 7025 C 657.739 5.15337 -1.42589 0
M  V30 7026 C 659.039 4.04169 -3.30824 0
M  V30 7027 H 660.733 2.13071 -2.10336 0
M  V30 7028 H 658.279 1.02378 -1.01266 0
M  V30 7029 H 660.232 4.14895 -0.737584 0
M  V30 7030 H 658.956 3.26325 0.134071 0
M  V30 7031 H 657.615 3.07859 -1.99043 0
M  V30 7032 H 657.263 5.01056 -0.441759 0
M  V30 7033 H 656.963 5.47423 -2.13547 0
M  V30 7034 H 658.487 5.95758 -1.3381 0
M  V30 7035 H 659.901 4.72537 -3.24626 0
M  V30 7036 H 658.298 4.47604 -3.99713 0
M  V30 7037 H 659.368 3.08604 -3.74021 0
M  V30 7038 N 660.711 1.11618 1.11262 0
M  V30 7039 C 661.621 0.78898 2.20935 0
M  V30 7040 C 662.637 -0.21867 1.7262 0
M  V30 7041 O 663.813 -0.0543826 2.01327 0
M  V30 7042 C 660.878 0.239014 3.45875 0
M  V30 7043 C 659.939 1.3055 4.08968 0
M  V30 7044 C 659.172 0.781687 5.27944 0
M  V30 7045 O 659.395 -0.387605 5.69082 0
M  V30 7046 O 658.329 1.54734 5.81671 0
M  V30 7047 H 662.155 1.70477 2.51339 0
M  V30 7048 H 659.74 0.892203 1.19834 0
M  V30 7049 H 661.622 -0.0632312 4.21353 0
M  V30 7050 H 660.297 -0.649454 3.17118 0
M  V30 7051 H 659.204 1.66079 3.35214 0
M  V30 7052 H 660.537 2.16743 4.41909 0
M  V30 7053 N 662.189 -1.289 0.906776 0
M  V30 7054 C 663.438 -1.9455 0.532262 0
M  V30 7055 C 663.751 -1.72219 -0.927353 0
M  V30 7056 O 664.957 -2.32033 -1.40971 0
M  V30 7057 C 663.413 -3.48438 0.901041 0
M  V30 7058 C 663.021 -3.79558 2.37991 0
M  V30 7059 C 664.765 -4.20284 0.596777 0
M  V30 7060 C 662.672 -5.26723 2.68918 0
M  V30 7061 H 661.602 -0.728259 0.195333 0
M  V30 7062 H 664.253 -1.46519 1.10474 0
M  V30 7063 H 662.635 -3.95162 0.257419 0
M  V30 7064 H 663.809 -3.43668 3.06967 0
M  V30 7065 H 662.124 -3.20868 2.65391 0
M  V30 7066 H 664.721 -5.28612 0.8046 0
M  V30 7067 H 665.064 -4.13694 -0.465072 0
M  V30 7068 H 665.597 -3.79315 1.19855 0
M  V30 7069 H 662.336 -5.38384 3.73928 0
M  V30 7070 H 661.856 -5.63836 2.04571 0
M  V30 7071 H 663.535 -5.94391 2.55555 0
M  V30 7072 N 663.667 -0.670007 -1.42649 0
M  V30 7073 C 664.913 -0.190568 -2.01903 0
M  V30 7074 C 665.246 1.19817 -1.52832 0
M  V30 7075 O 664.521 1.80342 -0.728485 0
M  V30 7076 C 664.804 -0.21991 -3.59428 0
M  V30 7077 C 664.657 -1.64376 -4.18689 0
M  V30 7078 C 665.976 0.434519 -4.3795 0
M  V30 7079 H 663.095 -0.0707219 -0.733599 0
M  V30 7080 H 665.737 -0.853883 -1.69732 0
M  V30 7081 H 663.887 0.344894 -3.86966 0
M  V30 7082 H 665.559 -2.26044 -4.02122 0
M  V30 7083 H 663.802 -2.18591 -3.747 0
M  V30 7084 H 664.473 -1.61601 -5.27815 0
M  V30 7085 H 666.949 -0.0462156 -4.16074 0
M  V30 7086 H 665.825 0.38333 -5.4756 0
M  V30 7087 H 666.086 1.51135 -4.15464 0
M  V30 7088 N 665.145 1.52092 -0.413018 0
M  V30 7089 C 666.092 2.27119 0.410558 0
M  V30 7090 C 667.062 1.29692 1.03774 0
M  V30 7091 O 668.247 1.58561 1.06128 0
M  V30 7092 C 665.387 3.09863 1.51918 0
M  V30 7093 C 664.5 4.22252 0.912528 0
M  V30 7094 C 663.635 4.92348 1.99417 0
M  V30 7095 C 662.674 5.96694 1.36466 0
M  V30 7096 N 661.811 6.60292 2.38661 0
M  V30 7097 H 666.651 2.97067 -0.235661 0
M  V30 7098 H 664.188 1.46542 -0.128055 0
M  V30 7099 H 666.146 3.56144 2.17295 0
M  V30 7100 H 664.776 2.42078 2.13537 0
M  V30 7101 H 663.828 3.80113 0.147697 0
M  V30 7102 H 665.14 4.9709 0.412717 0
M  V30 7103 H 664.294 5.42054 2.72512 0
M  V30 7104 H 663.033 4.17087 2.52764 0
M  V30 7105 H 662.038 5.46304 0.61906 0
M  V30 7106 H 663.263 6.73899 0.838827 0
M  V30 7107 H 661.209 5.87858 2.91134 0
M  V30 7108 H 661.126 7.30816 1.93503 0
M  V30 7109 H 662.394 7.14635 3.11314 0
M  V30 7110 N 666.623 0.143563 1.56945 0
M  V30 7111 C 667.872 -0.50835 1.95189 0
M  V30 7112 C 668.185 -1.66239 1.03073 0
M  V30 7113 O 669.391 -2.3787 1.30882 0
M  V30 7114 C 667.847 -0.955735 3.46978 0
M  V30 7115 C 667.455 0.171183 4.47673 0
M  V30 7116 C 669.199 -1.57763 3.94095 0
M  V30 7117 C 667.106 -0.294279 5.90667 0
M  V30 7118 H 666.036 -0.193679 0.728701 0
M  V30 7119 H 668.687 0.227357 1.82086 0
M  V30 7120 H 667.069 -1.7466 3.55401 0
M  V30 7121 H 668.243 0.948049 4.50942 0
M  V30 7122 H 666.558 0.701273 4.10452 0
M  V30 7123 H 669.155 -1.93745 4.98364 0
M  V30 7124 H 669.498 -2.46531 3.35452 0
M  V30 7125 H 670.031 -0.851728 3.88575 0
M  V30 7126 H 666.77 0.557939 6.53121 0
M  V30 7127 H 666.29 -1.0371 5.90766 0
M  V30 7128 H 667.969 -0.747426 6.42668 0
M  V30 7129 N 668.101 -1.57061 -0.130224 0
M  V30 7130 C 669.517 -1.52103 -0.483413 0
M  V30 7131 C 669.717 -0.854752 -1.82473 0
M  V30 7132 O 668.773 -0.432342 -2.48771 0
M  V30 7133 C 670.086 -2.96872 -0.47825 0
M  V30 7134 C 671.634 -3.07902 -0.562592 0
M  V30 7135 C 672.109 -4.54211 -0.587929 0
M  V30 7136 N 673.6 -4.58621 -0.649684 0
M  V30 7137 C 674.335 -5.69227 -0.690551 0
M  V30 7138 N 673.831 -6.89358 -0.689743 0
M  V30 7139 N 675.624 -5.57304 -0.732708 0
M  V30 7140 H 667.775 -1.98764 0.748779 0
M  V30 7141 H 670.038 -0.907248 0.274965 0
M  V30 7142 H 669.744 -3.48944 0.439444 0
M  V30 7143 H 669.618 -3.53716 -1.31013 0
M  V30 7144 H 672.005 -2.5584 -1.47071 0
M  V30 7145 H 672.086 -2.54073 0.296764 0
M  V30 7146 H 671.73 -5.06915 0.316096 0
M  V30 7147 H 671.66 -5.0584 -1.46401 0
M  V30 7148 H 674.151 -3.72146 -0.656927 0
M  V30 7149 H 674.464 -7.69408 -0.723239 0
M  V30 7150 H 672.809 -6.91884 -0.657347 0
M  V30 7151 H 676 -4.62363 -0.730625 0
M  V30 7152 H 676.173 -6.43515 -0.76109 0
M  V30 7153 N 669.579 0.400081 -1.52437 0
M  V30 7154 C 670.509 1.4947 -1.7939 0
M  V30 7155 C 671.49 1.57383 -0.645329 0
M  V30 7156 O 672.675 1.72511 -0.891826 0
M  V30 7157 C 669.805 2.87201 -1.95276 0
M  V30 7158 C 668.759 2.94134 -3.10917 0
M  V30 7159 C 668.085 4.34207 -3.1204 0
M  V30 7160 C 669.385 2.64791 -4.50203 0
M  V30 7161 H 671.079 1.27165 -2.71052 0
M  V30 7162 H 668.625 0.610312 -1.30427 0
M  V30 7163 H 670.578 3.63772 -2.12715 0
M  V30 7164 H 669.302 3.10819 -1.00294 0
M  V30 7165 H 667.961 2.20009 -2.93243 0
M  V30 7166 H 667.609 4.54848 -2.14761 0
M  V30 7167 H 667.309 4.39768 -3.89715 0
M  V30 7168 H 668.833 5.127 -3.31619 0
M  V30 7169 H 670.247 3.31083 -4.68035 0
M  V30 7170 H 668.644 2.81717 -5.29864 0
M  V30 7171 H 669.714 1.60184 -4.57678 0
M  V30 7172 N 671.057 1.43213 0.657864 0
M  V30 7173 C 671.989 1.43974 1.78337 0
M  V30 7174 C 673.002 0.336482 1.59285 0
M  V30 7175 O 674.191 0.600631 1.68091 0
M  V30 7176 C 671.291 1.23242 3.15697 0
M  V30 7177 C 670.464 2.46319 3.61449 0
M  V30 7178 C 669.523 2.2088 4.77597 0
M  V30 7179 O 668.549 2.942 4.87273 0
M  V30 7180 N 669.751 1.22251 5.67481 0
M  V30 7181 H 672.516 2.40993 1.78164 0
M  V30 7182 H 670.077 1.3831 0.841549 0
M  V30 7183 H 672.069 1.04113 3.91079 0
M  V30 7184 H 670.639 0.346849 3.1067 0
M  V30 7185 H 669.859 2.80904 2.76563 0
M  V30 7186 H 671.147 3.28239 3.88763 0
M  V30 7187 H 670.545 0.616433 5.62331 0
M  V30 7188 H 669.102 1.09107 6.42603 0
M  V30 7189 N 672.536 -0.895792 1.29666 0
M  V30 7190 C 673.782 -1.64908 1.18039 0
M  V30 7191 C 674.115 -1.9236 -0.266682 0
M  V30 7192 O 673.39 -1.53682 -1.19214 0
M  V30 7193 C 673.673 -2.99574 1.99819 0
M  V30 7194 C 673.526 -2.79163 3.52687 0
M  V30 7195 C 674.845 -4.00358 1.82761 0
M  V30 7196 H 671.964 -0.598437 0.430165 0
M  V30 7197 H 674.606 -1.03736 1.59182 0
M  V30 7198 H 672.756 -3.51786 1.64859 0
M  V30 7199 H 674.428 -2.33821 3.9765 0
M  V30 7200 H 672.671 -2.13871 3.77414 0
M  V30 7201 H 673.342 -3.74871 4.05186 0
M  V30 7202 H 675.818 -3.57268 2.13304 0
M  V30 7203 H 674.694 -4.92514 2.42325 0
M  V30 7204 H 674.955 -4.35096 0.783839 0
M  V30 7205 N 674.014 -1.12206 -1.10668 0
M  V30 7206 C 674.977 -0.790867 -2.15123 0
M  V30 7207 C 675.977 0.193618 -1.5963 0
M  V30 7208 O 677.167 -0.0318728 -1.74171 0
M  V30 7209 C 674.299 -0.174797 -3.40452 0
M  V30 7210 H 675.492 -1.7163 -2.45933 0
M  V30 7211 H 673.045 -0.924993 -1.2599 0
M  V30 7212 H 673.78 0.760478 -3.15257 0
M  V30 7213 H 673.565 -0.88358 -3.82015 0
M  V30 7214 H 675.055 0.0405162 -4.1758 0
M  V30 7215 N 675.492 1.28418 -0.913599 0
M  V30 7216 C 676.74 1.94596 -0.545594 0
M  V30 7217 C 677.061 1.7227 0.913668 0
M  V30 7218 O 676.331 1.06233 1.64595 0
M  V30 7219 H 674.911 0.720065 -0.198783 0
M  V30 7220 H 677.573 1.56404 -1.16292 0
M  V30 7221 H 676.669 3.03202 -0.739911 0
M  V30 7222 N 676.97 0.677563 1.42291 0
M  V30 7223 C 677.88 0.000962654 2.346 0
M  V30 7224 C 678.896 -0.785833 1.55244 0
M  V30 7225 O 680.072 -0.727523 1.87801 0
M  V30 7226 C 677.137 -0.936746 3.33805 0
M  V30 7227 C 676.198 -0.144173 4.29058 0
M  V30 7228 C 675.431 -1.03722 5.23524 0
M  V30 7229 O 675.654 -2.27675 5.22992 0
M  V30 7230 O 674.588 -0.496542 5.99848 0
M  V30 7231 H 678.414 0.761397 2.94001 0
M  V30 7232 H 675.999 0.43781 1.42841 0
M  V30 7233 H 677.881 -1.47497 3.94744 0
M  V30 7234 H 676.556 -1.67698 2.76874 0
M  V30 7235 H 675.463 0.438224 3.71524 0
M  V30 7236 H 676.796 0.55701 4.89038 0
M  V30 7237 N 678.448 -1.51871 0.421078 0
M  V30 7238 C 679.697 -2.01125 -0.152206 0
M  V30 7239 C 680.01 -1.3106 -1.45199 0
M  V30 7240 O 681.216 -1.71195 -2.10724 0
M  V30 7241 C 679.672 -3.58458 -0.3218 0
M  V30 7242 C 679.28 -4.37448 0.96659 0
M  V30 7243 C 681.024 -4.15908 -0.84973 0
M  V30 7244 C 678.931 -5.86451 0.763529 0
M  V30 7245 H 677.861 -0.751556 -0.0606565 0
M  V30 7246 H 680.512 -1.75115 0.548354 0
M  V30 7247 H 678.894 -3.80847 -1.08498 0
M  V30 7248 H 680.068 -4.26814 1.73684 0
M  V30 7249 H 678.383 -3.91373 1.42183 0
M  V30 7250 H 680.98 -5.24922 -1.01788 0
M  V30 7251 H 681.323 -3.74031 -1.82774 0
M  V30 7252 H 681.856 -3.97535 -0.145297 0
M  V30 7253 H 678.595 -6.3271 1.71344 0
M  V30 7254 H 678.115 -5.99791 0.0327889 0
M  V30 7255 H 679.794 -6.45697 0.410354 0
M  V30 7256 N 679.926 -0.151884 -1.56866 0
M  V30 7257 C 681.154 0.504813 -2.00647 0
M  V30 7258 C 681.569 1.58098 -1.03201 0
M  V30 7259 O 680.926 1.82476 -0.0297814 0
M  V30 7260 C 680.977 1.10099 -3.44326 0
M  V30 7261 O 680.698 0.0678021 -4.38048 0
M  V30 7262 C 682.199 1.83782 -4.03409 0
M  V30 7263 H 679.419 0.130989 -0.65809 0
M  V30 7264 H 681.963 -0.247903 -2.02992 0
M  V30 7265 H 680.118 1.8043 -3.42817 0
M  V30 7266 H 680.532 0.505237 -5.22061 0
M  V30 7267 H 682.006 2.2078 -5.05925 0
M  V30 7268 H 682.483 2.72557 -3.44397 0
M  V30 7269 H 683.089 1.18138 -4.08563 0
M  V30 7270 N 681.404 1.57128 0.121893 0
M  V30 7271 C 682.632 1.88883 0.844451 0
M  V30 7272 C 683.047 0.742824 1.73573 0
M  V30 7273 O 682.404 -0.286475 1.80238 0
M  V30 7274 C 682.455 3.20076 1.68029 0
M  V30 7275 O 682.176 4.30264 0.824898 0
M  V30 7276 C 683.677 3.65515 2.50826 0
M  V30 7277 H 680.897 0.62549 0.242907 0
M  V30 7278 H 683.441 2.04219 0.107151 0
M  V30 7279 H 681.596 3.06418 2.37038 0
M  V30 7280 H 682.01 5.05439 1.40113 0
M  V30 7281 H 683.484 4.60081 3.05008 0
M  V30 7282 H 683.961 2.92029 3.28048 0
M  V30 7283 H 684.567 3.81952 1.87064 0
M  V30 7284 N 682.882 -0.391992 1.52647 0
M  V30 7285 C 684.13 -1.13507 1.67214 0
M  V30 7286 C 684.451 -1.90575 0.41304 0
M  V30 7287 O 683.721 -1.87348 -0.572498 0
M  V30 7288 H 682.301 -0.422013 0.616372 0
M  V30 7289 H 684.963 -0.44502 1.89751 0
M  V30 7290 H 684.059 -1.83964 2.52118 0
M  V30 7291 N 684.36 -1.4356 -0.65026 0
M  V30 7292 C 685.771 -1.40324 -1.2315 0
M  V30 7293 C 686.122 -0.108812 -1.95898 0
M  V30 7294 O 685.247 0.79163 -2.01401 0
M  V30 7295 C 685.842 -2.54195 -2.23987 0
M  V30 7296 C 684.401 -2.54215 -2.77582 0
M  V30 7297 C 683.548 -2.31752 -1.5227 0
M  V30 7298 H 686.499 -1.52418 -0.442095 0
M  V30 7299 H 686.52 -2.25854 -3.0622 0
M  V30 7300 H 686.032 -3.48392 -1.71011 0
M  V30 7301 H 684.133 -1.63907 -3.34612 0
M  V30 7302 H 684.246 -3.52081 -3.24925 0
M  V30 7303 H 682.61 -1.80476 -1.79723 0
M  V30 7304 H 683.393 -3.28037 -1.01225 0
M  V30 7305 N 685.838 0.888903 -1.30139 0
M  V30 7306 C 687.254 1.17153 -1.08385 0
M  V30 7307 C 687.454 2.0088 0.157925 0
M  V30 7308 O 686.51 2.37668 0.852652 0
M  V30 7309 C 687.823 1.882 -2.34523 0
M  V30 7310 C 689.371 2.00981 -2.39949 0
M  V30 7311 C 689.846 2.75441 -3.65918 0
M  V30 7312 N 691.337 2.82989 -3.66704 0
M  V30 7313 C 692.072 3.41167 -4.60861 0
M  V30 7314 N 691.568 4.00425 -5.6536 0
M  V30 7315 N 693.361 3.38944 -4.48412 0
M  V30 7316 H 685.512 0.33053 -2.09812 0
M  V30 7317 H 687.775 0.208964 -0.924683 0
M  V30 7318 H 687.481 1.34119 -3.25123 0
M  V30 7319 H 687.355 2.88609 -2.42868 0
M  V30 7320 H 689.742 2.54234 -1.4983 0
M  V30 7321 H 689.823 0.996725 -2.35582 0
M  V30 7322 H 689.467 2.22861 -4.56394 0
M  V30 7323 H 689.397 3.77118 -3.67546 0
M  V30 7324 H 691.888 2.40912 -2.91153 0
M  V30 7325 H 692.201 4.42871 -6.33313 0
M  V30 7326 H 690.546 3.98856 -5.69157 0
M  V30 7327 H 693.737 2.91875 -3.6596 0
M  V30 7328 H 693.91 3.83989 -5.21974 0
M  V30 7329 N 687.317 1.12792 1.10072 0
M  V30 7330 C 688.563 0.886857 1.82381 0
M  V30 7331 C 688.896 -0.58576 1.85155 0
M  V30 7332 O 688.171 -1.43317 1.31493 0
M  V30 7333 C 688.454 1.46703 3.28862 0
M  V30 7334 C 688.307 3.00829 3.34398 0
M  V30 7335 C 689.626 1.12971 4.25353 0
M  V30 7336 H 686.745 0.32362 0.662148 0
M  V30 7337 H 689.387 1.39513 1.28982 0
M  V30 7338 H 687.537 1.03476 3.74466 0
M  V30 7339 H 689.209 3.52764 2.97247 0
M  V30 7340 H 687.452 3.36164 2.74183 0
M  V30 7341 H 688.123 3.36519 4.3756 0
M  V30 7342 H 690.599 1.50313 3.88001 0
M  V30 7343 H 689.475 1.56223 5.26199 0
M  V30 7344 H 689.736 0.0424452 4.4208 0
M  V30 7345 N 688.795 -1.27931 0.920396 0
M  V30 7346 C 690.02 -1.99343 0.572478 0
M  V30 7347 C 690.445 -1.68267 -0.840696 0
M  V30 7348 O 689.803 -0.918805 -1.56294 0
M  V30 7349 C 689.851 -3.51698 0.796284 0
M  V30 7350 O 688.955 -4.12157 -0.141602 0
M  V30 7351 H 688.296 -0.626065 0.221221 0
M  V30 7352 H 690.826 -1.62921 1.23765 0
M  V30 7353 H 690.836 -4.01793 0.708984 0
M  V30 7354 H 689.511 -3.73649 1.82644 0
M  V30 7355 H 688.088 -3.729 -0.005007 0
M  V30 7356 N 690.273 -0.685099 -1.4193 0
M  V30 7357 C 691.236 -0.0222632 -2.29189 0
M  V30 7358 C 692.236 0.7186 -1.4385 0
M  V30 7359 O 693.426 0.555058 -1.6512 0
M  V30 7360 C 690.558 0.979013 -3.2654 0
M  V30 7361 H 691.751 -0.790424 -2.89296 0
M  V30 7362 H 689.304 -0.448012 -1.49742 0
M  V30 7363 H 690.039 1.77531 -2.71392 0
M  V30 7364 H 689.824 0.451037 -3.89497 0
M  V30 7365 H 691.314 1.44091 -3.91954 0
M  V30 7366 N 691.751 1.51645 -0.429126 0
M  V30 7367 C 692.681 2.30434 0.377148 0
M  V30 7368 C 693.662 1.35493 1.02838 0
M  V30 7369 O 694.847 1.6441 1.03359 0
M  V30 7370 C 691.977 3.14038 1.48315 0
M  V30 7371 C 690.931 4.1719 0.955855 0
M  V30 7372 C 690.257 4.89263 2.15698 0
M  V30 7373 C 691.557 5.223 -0.00402136 0
M  V30 7374 H 693.251 2.98085 -0.280336 0
M  V30 7375 H 690.797 1.43354 -0.136265 0
M  V30 7376 H 692.75 3.67933 2.05435 0
M  V30 7377 H 691.474 2.44193 2.16881 0
M  V30 7378 H 690.133 3.64335 0.406929 0
M  V30 7379 H 689.781 4.15929 2.82864 0
M  V30 7380 H 689.481 5.59009 1.81059 0
M  V30 7381 H 691.005 5.45978 2.73387 0
M  V30 7382 H 692.419 5.71315 0.476607 0
M  V30 7383 H 690.816 5.99525 -0.26258 0
M  V30 7384 H 691.886 4.75638 -0.943236 0
M  V30 7385 N 693.229 0.160201 1.56784 0
M  V30 7386 C 694.177 -0.791402 2.18723 0
M  V30 7387 C 695.171 -1.24567 1.14801 0
M  V30 7388 O 696.377 -1.21262 1.33025 0
M  V30 7389 H 692.752 -0.273458 0.700517 0
M  V30 7390 H 694.723 -0.244931 2.97393 0
M  V30 7391 C 693.472 -2.01509 2.83354 0
M  V30 7392 H 692.795 -1.67454 3.63041 0
M  V30 7393 H 694.235 -2.66006 3.30177 0
M  V30 7394 C 692.694 -2.83159 1.82545 0
M  V30 7395 O 693.224 -3.79944 1.30405 0
M  V30 7396 N 691.43 -2.47953 1.51552 0
M  V30 7397 H 690.977 -1.69309 1.94144 0
M  V30 7398 H 690.935 -3.02873 0.843519 0
M  V30 7399 N 694.707 -1.5719 -0.113559 0
M  V30 7400 C 695.953 -1.85412 -0.821597 0
M  V30 7401 C 696.286 -0.746722 -1.7927 0
M  V30 7402 O 695.561 0.246971 -1.92926 0
M  V30 7403 C 695.844 -3.24233 -1.56669 0
M  V30 7404 C 695.697 -4.45578 -0.614823 0
M  V30 7405 C 697.016 -3.60697 -2.52161 0
M  V30 7406 H 694.135 -0.674406 -0.29723 0
M  V30 7407 H 696.777 -1.89807 -0.085694 0
M  V30 7408 H 694.927 -3.20617 -2.19401 0
M  V30 7409 H 696.599 -4.613 0.00407137 0
M  V30 7410 H 694.842 -4.33738 0.0732332 0
M  V30 7411 H 695.513 -5.39395 -1.17292 0
M  V30 7412 H 697.989 -3.65139 -1.99532 0
M  V30 7413 H 696.865 -4.58798 -3.01323 0
M  V30 7414 H 697.126 -2.88403 -3.35076 0
M  V30 7415 N 696.185 0.383891 -1.52853 0
M  V30 7416 C 697.115 1.47559 -1.80965 0
M  V30 7417 C 698.096 1.5669 -0.661986 0
M  V30 7418 O 699.281 1.71556 -0.910072 0
M  V30 7419 C 696.411 2.85114 -1.98312 0
M  V30 7420 C 695.365 2.9082 -3.14019 0
M  V30 7421 C 694.691 4.30873 -3.16627 0
M  V30 7422 C 695.991 2.60001 -4.52986 0
M  V30 7423 H 697.685 1.24283 -2.72386 0
M  V30 7424 H 695.231 0.596445 -1.31067 0
M  V30 7425 H 697.184 3.61496 -2.16561 0
M  V30 7426 H 695.908 3.09738 -1.03585 0
M  V30 7427 H 694.567 2.16886 -2.9556 0
M  V30 7428 H 694.215 4.52545 -2.19573 0
M  V30 7429 H 693.915 4.3561 -3.94357 0
M  V30 7430 H 695.439 5.09154 -3.37038 0
M  V30 7431 H 696.853 3.261 -4.71521 0
M  V30 7432 H 695.25 2.76081 -5.32822 0
M  V30 7433 H 696.32 1.5532 -4.59351 0
M  V30 7434 N 697.663 1.43903 0.642637 0
M  V30 7435 C 699.079 1.27536 0.959519 0
M  V30 7436 C 699.279 0.202751 2.00477 0
M  V30 7437 O 698.335 -0.415256 2.49062 0
M  V30 7438 C 699.648 2.6432 1.43372 0
M  V30 7439 C 701.196 2.71937 1.54981 0
M  V30 7440 C 701.671 4.09164 2.05789 0
M  V30 7441 N 703.162 4.11282 2.13076 0
M  V30 7442 C 703.897 5.14303 2.53534 0
M  V30 7443 N 703.393 6.27693 2.93212 0
M  V30 7444 N 705.186 5.01657 2.53567 0
M  V30 7445 H 697.337 2.12344 -0.0488376 0
M  V30 7446 H 699.6 0.947124 0.0407559 0
M  V30 7447 H 699.306 3.43826 0.740048 0
M  V30 7448 H 699.18 2.90432 2.40685 0
M  V30 7449 H 701.567 1.92757 2.23448 0
M  V30 7450 H 701.648 2.49578 0.560739 0
M  V30 7451 H 701.292 4.88815 1.37921 0
M  V30 7452 H 701.222 4.28893 3.05546 0
M  V30 7453 H 703.713 3.2944 1.85143 0
M  V30 7454 H 704.026 7.02125 3.22863 0
M  V30 7455 H 702.371 6.31149 2.90991 0
M  V30 7456 H 705.562 4.12134 2.21952 0
M  V30 7457 H 705.735 5.82072 2.84774 0
M  V30 7458 N 699.141 -0.881989 1.30609 0
M  V30 7459 C 700.418 -1.61563 1.10258 0
M  V30 7460 C 700.798 -2.08228 -0.347053 0
M  V30 7461 O 700.146 -1.85151 -1.33908 0
M  V30 7462 C 700.356 -2.78287 2.10612 0
M  V30 7463 C 701.704 -3.48545 2.4249 0
M  V30 7464 O 702.728 -2.88479 2.08945 0
M  V30 7465 O 701.587 -4.56873 2.99883 0
M  V30 7466 H 698.681 -0.710238 0.423663 0
M  V30 7467 H 701.227 -0.928503 1.42045 0
M  V30 7468 H 699.999 -2.41131 3.08174 0
M  V30 7469 H 699.622 -3.54695 1.79659 0
M  V30 7470 N 700.619 -1.13374 -1.09472 0
M  V30 7471 C 701.549 -0.833268 -2.18126 0
M  V30 7472 C 702.53 0.207169 -1.68834 0
M  V30 7473 O 703.715 0.0662012 -1.94087 0
M  V30 7474 C 700.845 -0.297979 -3.46019 0
M  V30 7475 C 699.799 -1.27261 -4.08642 0
M  V30 7476 C 699.125 -0.597104 -5.31356 0
M  V30 7477 C 700.425 -2.63095 -4.51197 0
M  V30 7478 H 702.119 -1.74182 -2.43518 0
M  V30 7479 H 699.665 -0.838921 -1.17039 0
M  V30 7480 H 701.618 -0.0754444 -4.21332 0
M  V30 7481 H 700.342 0.645959 -3.20148 0
M  V30 7482 H 699.001 -1.48113 -3.35348 0
M  V30 7483 H 698.649 0.352293 -5.01765 0
M  V30 7484 H 698.349 -1.24734 -5.74208 0
M  V30 7485 H 699.873 -0.38384 -6.09392 0
M  V30 7486 H 701.287 -2.46214 -5.17737 0
M  V30 7487 H 699.684 -3.2429 -5.04932 0
M  V30 7488 H 700.754 -3.20793 -3.6362 0
M  V30 7489 N 702.098 1.27442 -0.927168 0
M  V30 7490 C 703.346 1.94007 -0.566203 0
M  V30 7491 C 703.667 1.7323 0.895345 0
M  V30 7492 O 702.937 1.07973 1.63459 0
M  V30 7493 H 701.517 0.717917 -0.206409 0
M  V30 7494 H 704.179 1.55161 -1.17945 0
M  V30 7495 H 703.275 3.02401 -0.772028 0
M  V30 7496 N 703.576 0.692616 1.41565 0
M  V30 7497 C 704.825 0.219452 2.00503 0
M  V30 7498 C 705.138 -1.18683 1.55479 0
M  V30 7499 O 706.344 -1.75731 2.06956 0
M  V30 7500 C 704.8 0.341451 3.58277 0
M  V30 7501 C 704.408 1.75291 4.12283 0
M  V30 7502 C 706.152 -0.0720899 4.24439 0
M  V30 7503 C 704.059 1.82673 5.62481 0
M  V30 7504 H 702.989 0.0782874 0.749925 0
M  V30 7505 H 705.64 0.860386 1.62079 0
M  V30 7506 H 704.022 -0.367683 3.94289 0
M  V30 7507 H 705.196 2.49057 3.87695 0
M  V30 7508 H 703.511 2.11587 3.58636 0
M  V30 7509 H 706.108 -0.0373385 5.34687 0
M  V30 7510 H 706.451 -1.11034 4.0122 0
M  V30 7511 H 706.984 0.586663 3.9345 0
M  V30 7512 H 703.723 2.84539 5.90523 0
M  V30 7513 H 703.243 1.13288 5.89004 0
M  V30 7514 H 704.922 1.58827 6.27203 0
M  V30 7515 N 705.054 -1.51416 0.437162 0
M  V30 7516 C 706.301 -2.02086 -0.129364 0
M  V30 7517 C 706.629 -1.32133 -1.42728 0
M  V30 7518 O 705.884 -0.424916 -1.91031 0
M  V30 7519 C 706.183 -3.55203 -0.39564 0
M  V30 7520 C 705.849 -4.43447 0.81644 0
M  V30 7521 C 704.511 -4.67285 1.14884 0
M  V30 7522 C 706.863 -4.95219 1.62503 0
M  V30 7523 C 704.191 -5.40141 2.29052 0
M  V30 7524 C 706.543 -5.69327 2.7577 0
M  V30 7525 C 705.207 -5.91429 3.09464 0
M  V30 7526 H 704.477 -0.739486 -0.0473375 0
M  V30 7527 H 707.124 -1.82368 0.584321 0
M  V30 7528 H 705.429 -3.73252 -1.19121 0
M  V30 7529 H 707.126 -3.91944 -0.847399 0
M  V30 7530 H 703.716 -4.2509 0.547422 0
M  V30 7531 H 707.9 -4.76686 1.38144 0
M  V30 7532 H 703.156 -5.55468 2.55471 0
M  V30 7533 H 707.33 -6.08433 3.38795 0
M  V30 7534 H 704.957 -6.47662 3.98042 0
M  V30 7535 N 706.532 -0.168513 -1.56696 0
M  V30 7536 C 707.78 0.476216 -1.96409 0
M  V30 7537 C 708.101 1.63968 -1.05544 0
M  V30 7538 O 707.371 1.95525 -0.121235 0
M  V30 7539 H 705.951 0.178921 -0.725256 0
M  V30 7540 H 708.613 -0.249042 -1.93302 0
M  V30 7541 H 707.709 0.838094 -3.00637 0
M  V30 7542 N 708.01 1.57248 0.105221 0
M  V30 7543 C 708.94 2.04374 1.12931 0
M  V30 7544 C 709.921 0.93074 1.42377 0
M  V30 7545 O 711.106 1.20136 1.52581 0
M  V30 7546 C 708.236 2.45967 2.45189 0
M  V30 7547 C 707.19 3.60838 2.30174 0
M  V30 7548 C 706.516 3.88374 3.67518 0
M  V30 7549 C 707.816 4.92084 1.75073 0
M  V30 7550 H 709.51 2.9018 0.737287 0
M  V30 7551 H 707.056 1.39601 0.353211 0
M  V30 7552 H 709.009 2.77542 3.17094 0
M  V30 7553 H 707.733 1.57148 2.86308 0
M  V30 7554 H 706.392 3.29493 1.60716 0
M  V30 7555 H 706.04 2.96739 4.06147 0
M  V30 7556 H 705.74 4.65703 3.58321 0
M  V30 7557 H 707.264 4.22415 4.40906 0
M  V30 7558 H 708.678 5.22106 2.36809 0
M  V30 7559 H 707.075 5.73507 1.76662 0
M  V30 7560 H 708.145 4.79684 0.709347 0
M  V30 7561 N 709.488 -0.375779 1.53054 0
M  V30 7562 C 710.718 -1.1387 1.72386 0
M  V30 7563 C 711.126 -1.8382 0.447966 0
M  V30 7564 O 710.469 -1.74027 -0.588244 0
M  V30 7565 C 710.531 -2.22047 2.82728 0
M  V30 7566 C 710.195 -1.71951 4.23417 0
M  V30 7567 C 711.192 -1.18909 5.06119 0
M  V30 7568 C 708.877 -1.77773 4.69789 0
M  V30 7569 C 710.871 -0.723529 6.3328 0
M  V30 7570 C 708.558 -1.30829 5.96931 0
M  V30 7571 C 709.556 -0.782077 6.78508 0
M  V30 7572 O 709.244 -0.319529 8.03265 0
M  V30 7573 H 708.976 -0.346835 0.580242 0
M  V30 7574 H 711.53 -0.443748 2.00549 0
M  V30 7575 H 709.76 -2.95006 2.50017 0
M  V30 7576 H 711.449 -2.83654 2.90336 0
M  V30 7577 H 712.215 -1.13758 4.7147 0
M  V30 7578 H 708.094 -2.17673 4.06373 0
M  V30 7579 H 711.638 -0.312126 6.96901 0
M  V30 7580 H 707.535 -1.3567 6.31081 0
M  V30 7581 H 708.303 -0.439796 8.17318 0
M  V30 7582 N 710.966 -1.44241 -0.634997 0
M  V30 7583 C 711.913 -1.5081 -1.74714 0
M  V30 7584 C 712.883 -0.356147 -1.62237 0
M  V30 7585 O 714.068 -0.565848 -1.82216 0
M  V30 7586 C 711.208 -1.45458 -3.12947 0
M  V30 7587 C 710.321 -2.70998 -3.36428 0
M  V30 7588 C 709.456 -2.57507 -4.64611 0
M  V30 7589 C 708.495 -3.78229 -4.81258 0
M  V30 7590 N 707.632 -3.63438 -6.00714 0
M  V30 7591 H 712.472 -2.45832 -1.68436 0
M  V30 7592 H 710.009 -1.2201 -0.821706 0
M  V30 7593 H 711.967 -1.40347 -3.92885 0
M  V30 7594 H 710.597 -0.540058 -3.1825 0
M  V30 7595 H 709.649 -2.86312 -2.50458 0
M  V30 7596 H 710.961 -3.60619 -3.44609 0
M  V30 7597 H 710.115 -2.50207 -5.52703 0
M  V30 7598 H 708.854 -1.65441 -4.58782 0
M  V30 7599 H 707.859 -3.85918 -3.91596 0
M  V30 7600 H 709.084 -4.71327 -4.88904 0
M  V30 7601 H 707.03 -2.7412 -5.95982 0
M  V30 7602 H 706.947 -4.46672 -6.09934 0
M  V30 7603 H 708.215 -3.60022 -6.91378 0
M  V30 7604 N 712.444 0.87505 -1.31075 0
M  V30 7605 C 713.692 1.62447 -1.20231 0
M  V30 7606 C 714.013 1.93506 0.240888 0
M  V30 7607 O 713.283 1.57847 1.16022 0
M  V30 7608 H 711.863 0.602207 -0.441991 0
M  V30 7609 H 714.525 1.04788 -1.64334 0
M  V30 7610 H 713.621 2.57031 -1.77036 0
M  V30 7611 N 713.922 1.13953 1.08869 0
M  V30 7612 C 714.885 0.824991 2.13838 0
M  V30 7613 C 715.885 -0.168198 1.59918 0
M  V30 7614 O 717.075 0.0595778 1.74098 0
M  V30 7615 C 714.207 0.228938 3.4013 0
M  V30 7616 H 715.4 1.75521 2.43171 0
M  V30 7617 H 712.953 0.94492 1.24503 0
M  V30 7618 H 713.688 -0.710227 3.16427 0
M  V30 7619 H 713.473 0.944243 3.80561 0
M  V30 7620 H 714.963 0.0259223 4.17592 0
M  V30 7621 N 715.4 -1.26948 0.933913 0
M  V30 7622 C 716.347 -2.26635 0.436484 0
M  V30 7623 C 717.317 -1.58397 -0.499953 0
M  V30 7624 O 718.502 -1.86171 -0.417753 0
M  V30 7625 C 715.642 -3.43803 -0.298951 0
M  V30 7626 C 714.755 -4.26736 0.672316 0
M  V30 7627 C 713.89 -5.31134 -0.0835872 0
M  V30 7628 C 712.929 -6.05742 0.879979 0
M  V30 7629 N 712.066 -7.01926 0.156301 0
M  V30 7630 H 716.906 -2.68558 1.29154 0
M  V30 7631 H 714.443 -1.32052 0.648118 0
M  V30 7632 H 716.401 -4.10554 -0.741723 0
M  V30 7633 H 715.031 -3.02814 -1.1182 0
M  V30 7634 H 714.083 -3.59842 1.23361 0
M  V30 7635 H 715.395 -4.78502 1.40846 0
M  V30 7636 H 714.549 -6.03863 -0.585984 0
M  V30 7637 H 713.288 -4.80188 -0.852661 0
M  V30 7638 H 712.293 -5.31846 1.39357 0
M  V30 7639 H 713.518 -6.58777 1.64894 0
M  V30 7640 H 711.464 -6.53301 -0.594413 0
M  V30 7641 H 711.381 -7.51409 0.831906 0
M  V30 7642 H 712.649 -7.78821 -0.325239 0
M  V30 7643 N 716.879 -0.700114 -1.41195 0
M  V30 7644 C 717.842 -0.0465706 -2.29153 0
M  V30 7645 C 718.842 0.703302 -1.44604 0
M  V30 7646 O 720.032 0.537513 -1.657 0
M  V30 7647 C 717.164 0.944324 -3.2756 0
M  V30 7648 H 718.357 -0.821064 -2.88442 0
M  V30 7649 H 715.91 -0.463869 -1.49258 0
M  V30 7650 H 716.645 1.74642 -2.73259 0
M  V30 7651 H 716.43 0.409701 -3.89954 0
M  V30 7652 H 717.92 1.39925 -3.9346 0
M  V30 7653 N 718.357 1.51182 -0.445186 0
M  V30 7654 C 719.597 2.04061 0.117717 0
M  V30 7655 C 719.961 1.32158 1.39278 0
M  V30 7656 O 721.162 1.75452 2.03642 0
M  V30 7657 C 719.433 3.55933 0.323445 0
M  V30 7658 S 720.992 4.30516 0.848627 0
M  V30 7659 H 717.81 0.710442 0.028165 0
M  V30 7660 H 720.412 1.85858 -0.606391 0
M  V30 7661 H 719.116 4.0583 -0.610764 0
M  V30 7662 H 718.647 3.78444 1.07441 0
M  V30 7663 H 720.662 4.48382 2.12528 0
M  V30 7664 N 719.835 0.176821 1.56605 0
M  V30 7665 C 721.082 -0.466715 1.97048 0
M  V30 7666 C 721.41 -1.6288 1.06302 0
M  V30 7667 O 720.665 -1.95453 0.0982571 0
M  V30 7668 C 720.964 -0.986208 3.43524 0
M  V30 7669 C 720.63 0.0605667 4.50859 0
M  V30 7670 C 719.292 0.348242 4.79938 0
M  V30 7671 C 721.644 0.770794 5.15469 0
M  V30 7672 C 718.972 1.35144 5.70923 0
M  V30 7673 C 721.324 1.76301 6.07537 0
M  V30 7674 C 719.988 2.05808 6.3498 0
M  V30 7675 H 719.258 -0.170783 0.721051 0
M  V30 7676 H 721.905 0.269942 1.89588 0
M  V30 7677 H 720.21 -1.80079 3.47964 0
M  V30 7678 H 721.907 -1.49323 3.72161 0
M  V30 7679 H 718.497 -0.173823 4.28247 0
M  V30 7680 H 722.681 0.56176 4.9311 0
M  V30 7681 H 717.937 1.58616 5.90467 0
M  V30 7682 H 722.111 2.31868 6.56666 0
M  V30 7683 H 719.738 2.8369 7.05283 0
M  V30 7684 N 721.313 -1.57302 -0.09688 0
M  V30 7685 C 722.243 -2.0497 -1.11846 0
M  V30 7686 C 723.224 -0.938278 -1.41882 0
M  V30 7687 O 724.409 -1.20943 -1.51942 0
M  V30 7688 C 721.539 -2.47264 -2.43881 0
M  V30 7689 C 720.493 -3.62053 -2.28257 0
M  V30 7690 C 719.819 -3.90318 -3.65453 0
M  V30 7691 C 721.119 -4.93005 -1.72461 0
M  V30 7692 H 722.813 -2.90567 -0.721888 0
M  V30 7693 H 720.359 -1.39786 -0.345803 0
M  V30 7694 H 722.312 -2.7922 -3.15617 0
M  V30 7695 H 721.036 -1.58664 -2.8547 0
M  V30 7696 H 719.695 -3.30341 -1.58967 0
M  V30 7697 H 719.343 -2.98889 -4.04567 0
M  V30 7698 H 719.043 -4.67597 -3.55846 0
M  V30 7699 H 720.567 -4.24747 -4.3866 0
M  V30 7700 H 721.981 -5.23354 -2.34036 0
M  V30 7701 H 720.378 -5.74436 -1.73618 0
M  V30 7702 H 721.448 -4.80053 -0.683898 0
M  V30 7703 N 722.791 0.367657 -1.53252 0
M  V30 7704 C 724.207 0.709191 -1.42978 0
M  V30 7705 C 724.407 1.93352 -0.567193 0
M  V30 7706 O 723.463 2.52453 -0.0488349 0
M  V30 7707 C 724.776 0.924338 -2.86141 0
M  V30 7708 C 726.324 1.02448 -2.95759 0
M  V30 7709 C 726.799 1.27211 -4.39979 0
M  V30 7710 N 728.29 1.33986 -4.43398 0
M  V30 7711 C 729.025 1.54852 -5.52095 0
M  V30 7712 N 728.521 1.73049 -6.7084 0
M  V30 7713 N 730.314 1.57205 -5.39669 0
M  V30 7714 H 722.465 -0.437669 -2.07842 0
M  V30 7715 H 724.728 -0.133737 -0.938519 0
M  V30 7716 H 724.434 0.0965455 -3.51567 0
M  V30 7717 H 724.308 1.83302 -3.29667 0
M  V30 7718 H 726.695 1.84282 -2.30487 0
M  V30 7719 H 726.776 0.0932301 -2.5563 0
M  V30 7720 H 726.42 0.458792 -5.05824 0
M  V30 7721 H 726.35 2.21654 -4.77679 0
M  V30 7722 H 728.841 1.21545 -3.5782 0
M  V30 7723 H 729.154 1.88538 -7.49449 0
M  V30 7724 H 727.499 1.70231 -6.7383 0
M  V30 7725 H 730.69 1.42555 -4.45865 0
M  V30 7726 H 730.863 1.73126 -6.24445 0
M  V30 7727 N 724.269 1.44576 0.627338 0
M  V30 7728 C 725.546 1.38033 1.38586 0
M  V30 7729 C 725.926 0.0409468 2.1106 0
M  V30 7730 O 725.274 -0.976582 2.0658 0
M  V30 7731 C 725.484 2.58102 2.34913 0
M  V30 7732 C 726.832 3.02332 2.98129 0
M  V30 7733 O 727.856 2.58334 2.45238 0
M  V30 7734 O 726.715 3.78628 3.94085 0
M  V30 7735 H 723.809 0.546801 0.620434 0
M  V30 7736 H 726.355 1.56672 0.652077 0
M  V30 7737 H 725.127 3.4719 1.80485 0
M  V30 7738 H 724.75 2.41696 3.15703 0
M  V30 7739 N 725.747 -0.868086 1.31537 0
M  V30 7740 C 726.996 -1.61607 1.20689 0
M  V30 7741 C 727.309 -1.94204 -0.233275 0
M  V30 7742 O 728.515 -2.67515 -0.463465 0
M  V30 7743 C 726.971 -2.91348 2.11292 0
M  V30 7744 C 726.579 -2.66227 3.60315 0
M  V30 7745 C 728.323 -3.69344 2.09249 0
M  V30 7746 C 726.23 -3.91887 4.42921 0
M  V30 7747 H 725.16 -0.606373 0.448138 0
M  V30 7748 H 727.811 -0.959666 1.56405 0
M  V30 7749 H 726.193 -3.58374 1.68477 0
M  V30 7750 H 727.367 -2.07597 4.11388 0
M  V30 7751 H 725.682 -2.01582 3.64354 0
M  V30 7752 H 728.279 -4.62567 2.68209 0
M  V30 7753 H 728.622 -4.02044 1.0801 0
M  V30 7754 H 729.155 -3.09205 2.50274 0
M  V30 7755 H 725.894 -3.64336 5.44922 0
M  V30 7756 H 725.414 -4.49961 3.96605 0
M  V30 7757 H 727.093 -4.59754 4.55231 0
M  V30 7758 N 727.225 -1.14528 -1.08264 0
M  V30 7759 C 728.636 -0.925261 -1.6216 0
M  V30 7760 C 728.987 0.535587 -1.88748 0
M  V30 7761 O 728.112 1.4048 -1.64604 0
M  V30 7762 C 728.707 -1.67316 -2.94603 0
M  V30 7763 C 727.266 -1.49868 -3.45278 0
M  V30 7764 C 726.413 -1.69471 -2.19487 0
M  V30 7765 H 729.364 -1.29687 -0.914707 0
M  V30 7766 H 729.385 -1.13721 -3.63109 0
M  V30 7767 H 728.897 -2.73635 -2.75219 0
M  V30 7768 H 726.998 -0.459032 -3.69762 0
M  V30 7769 H 727.111 -2.2696 -4.21931 0
M  V30 7770 H 725.475 -1.12048 -2.2873 0
M  V30 7771 H 726.258 -2.77136 -2.0261 0
M  V30 7772 N 728.703 1.26451 -0.940633 0
M  V30 7773 C 729.95 1.93778 -0.587909 0
M  V30 7774 C 730.278 1.73811 0.872935 0
M  V30 7775 O 729.533 1.06816 1.63978 0
M  V30 7776 C 729.832 3.46503 -0.875794 0
M  V30 7777 C 729.498 3.86609 -2.32043 0
M  V30 7778 C 728.16 3.97269 -2.71534 0
M  V30 7779 C 730.512 4.0672 -3.25927 0
M  V30 7780 C 727.84 4.25436 -4.04006 0
M  V30 7781 C 730.192 4.36375 -4.57995 0
M  V30 7782 C 728.856 4.45249 -4.97302 0
M  V30 7783 H 728.126 0.709084 -0.215131 0
M  V30 7784 H 730.773 1.50272 -1.18704 0
M  V30 7785 H 729.078 3.91319 -0.194124 0
M  V30 7786 H 730.775 3.96759 -0.581665 0
M  V30 7787 H 727.365 3.78858 -2.00411 0
M  V30 7788 H 731.549 3.97912 -2.96614 0
M  V30 7789 H 726.805 4.30519 -4.34124 0
M  V30 7790 H 730.979 4.50882 -5.30734 0
M  V30 7791 H 728.606 4.66829 -5.99979 0
M  V30 7792 N 730.181 0.707592 1.40822 0
M  V30 7793 C 731.406 0.251626 2.05868 0
M  V30 7794 C 731.831 -1.09503 1.5294 0
M  V30 7795 O 731.189 -1.68806 0.661385 0
M  V30 7796 C 731.237 0.23287 3.59847 0
M  V30 7797 O 730.341 -0.788477 4.04792 0
M  V30 7798 H 729.682 0.119936 0.653078 0
M  V30 7799 H 732.212 0.96583 1.80369 0
M  V30 7800 H 732.222 0.0678204 4.07944 0
M  V30 7801 H 730.897 1.21565 3.97737 0
M  V30 7802 H 729.474 -0.591802 3.68174 0
M  V30 7803 N 731.66 -1.50943 0.453197 0
M  V30 7804 C 732.623 -2.26684 -0.338705 0
M  V30 7805 C 733.623 -1.30748 -0.936032 0
M  V30 7806 O 734.813 -1.54327 -0.808002 0
M  V30 7807 C 731.945 -3.07063 -1.48071 0
M  V30 7808 H 733.138 -2.98131 0.325289 0
M  V30 7809 H 730.691 -1.54926 0.206771 0
M  V30 7810 H 731.426 -2.4007 -2.18029 0
M  V30 7811 H 731.211 -3.77545 -1.0584 0
M  V30 7812 H 732.701 -3.64393 -2.0398 0
M  V30 7813 N 733.138 -0.185124 -1.56509 0
M  V30 7814 C 734.387 0.456421 -1.96468 0
M  V30 7815 C 734.7 1.63448 -1.07444 0
M  V30 7816 O 735.906 2.34316 -1.37143 0
M  V30 7817 C 734.362 0.863404 -3.4939 0
M  V30 7818 C 733.97 -0.289815 -4.47062 0
M  V30 7819 C 735.714 1.47259 -3.98139 0
M  V30 7820 C 733.621 0.137571 -5.9124 0
M  V30 7821 H 732.551 0.17429 -0.733579 0
M  V30 7822 H 735.202 -0.275554 -1.81419 0
M  V30 7823 H 733.584 1.65176 -3.59907 0
M  V30 7824 H 734.758 -1.06728 -4.4827 0
M  V30 7825 H 733.073 -0.809851 -4.08449 0
M  V30 7826 H 735.67 1.80463 -5.03326 0
M  V30 7827 H 736.013 2.3755 -3.41871 0
M  V30 7828 H 736.546 0.748405 -3.90696 0
M  V30 7829 H 733.285 -0.730907 -6.51412 0
M  V30 7830 H 732.805 0.8801 -5.93308 0
M  V30 7831 H 734.484 0.576771 -6.44424 0
M  V30 7832 N 734.616 1.57351 0.0885366 0
M  V30 7833 C 735.846 1.90355 0.80303 0
M  V30 7834 C 736.254 0.777678 1.72478 0
M  V30 7835 O 735.597 -0.258908 1.81866 0
M  V30 7836 C 735.659 3.18674 1.66395 0
M  V30 7837 C 735.323 4.4778 0.913327 0
M  V30 7838 C 736.32 5.19345 0.240148 0
M  V30 7839 C 734.005 4.94434 0.885462 0
M  V30 7840 C 735.999 6.35803 -0.450854 0
M  V30 7841 C 733.686 6.10802 0.190679 0
M  V30 7842 C 734.684 6.81337 -0.476295 0
M  V30 7843 O 734.372 7.95488 -1.15992 0
M  V30 7844 H 734.104 0.634035 0.234469 0
M  V30 7845 H 736.658 2.05287 0.0681959 0
M  V30 7846 H 734.888 2.99906 2.44117 0
M  V30 7847 H 736.577 3.37458 2.2556 0
M  V30 7848 H 737.343 4.84339 0.253092 0
M  V30 7849 H 733.222 4.39417 1.39406 0
M  V30 7850 H 736.766 6.90795 -0.972019 0
M  V30 7851 H 732.663 6.45261 0.175603 0
M  V30 7852 H 733.431 8.11509 -1.06749 0
M  V30 7853 N 736.094 -0.359525 1.53444 0
M  V30 7854 C 737.341 -1.10152 1.6992 0
M  V30 7855 C 737.669 -1.89125 0.4541 0
M  V30 7856 O 736.924 -1.87396 -0.564023 0
M  V30 7857 C 737.223 -2.08287 2.90433 0
M  V30 7858 C 736.889 -1.45749 4.26694 0
M  V30 7859 C 735.551 -1.28421 4.63747 0
M  V30 7860 C 737.903 -1.00557 5.11408 0
M  V30 7861 C 735.231 -0.644951 5.83144 0
M  V30 7862 C 737.583 -0.380288 6.31456 0
M  V30 7863 C 736.247 -0.194557 6.67216 0
M  V30 7864 H 735.517 -0.403076 0.621781 0
M  V30 7865 H 738.164 -0.382612 1.87639 0
M  V30 7866 H 736.469 -2.86503 2.67251 0
M  V30 7867 H 738.166 -2.65662 3.00374 0
M  V30 7868 H 734.756 -1.6023 3.97523 0
M  V30 7869 H 738.94 -1.12735 4.83326 0
M  V30 7870 H 734.196 -0.48952 6.09437 0
M  V30 7871 H 738.37 -0.0219455 6.96397 0
M  V30 7872 H 735.997 0.30285 7.59597 0
M  V30 7873 N 737.572 -1.44907 -0.619662 0
M  V30 7874 C 738.983 -1.42905 -1.20146 0
M  V30 7875 C 739.334 -0.150341 -1.95623 0
M  V30 7876 O 738.459 0.748732 -2.03034 0
M  V30 7877 C 739.054 -2.58889 -2.18545 0
M  V30 7878 C 737.613 -2.60046 -2.72127 0
M  V30 7879 C 736.76 -2.3493 -1.4732 0
M  V30 7880 H 739.711 -1.53321 -0.409666 0
M  V30 7881 H 739.732 -2.32298 -3.0136 0
M  V30 7882 H 739.244 -3.51941 -1.63583 0
M  V30 7883 H 737.345 -1.70968 -3.3106 0
M  V30 7884 H 737.458 -3.58893 -3.17384 0
M  V30 7885 H 735.822 -1.84248 -1.75855 0
M  V30 7886 H 736.605 -3.3011 -0.942442 0
M  V30 7887 N 739.05 0.861098 -1.31996 0
M  V30 7888 C 740.296 1.61721 -1.22369 0
M  V30 7889 C 740.629 1.93 0.215587 0
M  V30 7890 O 739.904 1.56789 1.15098 0
M  V30 7891 C 740.187 2.9417 -2.07691 0
M  V30 7892 C 740.04 2.69714 -3.59965 0
M  V30 7893 C 741.359 3.95372 -1.93312 0
M  V30 7894 H 738.478 0.586822 -0.44588 0
M  V30 7895 H 741.12 0.994788 -1.61876 0
M  V30 7896 H 739.27 3.47292 -1.74128 0
M  V30 7897 H 740.942 2.23196 -4.03709 0
M  V30 7898 H 739.185 2.03789 -3.82952 0
M  V30 7899 H 739.856 3.63996 -4.14983 0
M  V30 7900 H 742.332 3.51487 -2.22701 0
M  V30 7901 H 741.208 4.85916 -2.55298 0
M  V30 7902 H 741.469 4.32865 -0.898922 0
M  V30 7903 N 740.528 1.15101 1.07655 0
M  V30 7904 C 741.758 0.946357 1.83651 0
M  V30 7905 C 742.166 -0.508641 1.82235 0
M  V30 7906 O 741.509 -1.36445 1.22997 0
M  V30 7907 C 741.571 1.37945 3.31981 0
M  V30 7908 C 741.235 2.85155 3.57122 0
M  V30 7909 C 742.232 3.83234 3.51323 0
M  V30 7910 C 739.917 3.2275 3.84887 0
M  V30 7911 C 741.911 5.16914 3.72932 0
M  V30 7912 C 739.598 4.56604 4.06148 0
M  V30 7913 C 740.596 5.53495 4.00165 0
M  V30 7914 O 740.284 6.84931 4.20861 0
M  V30 7915 H 740.016 0.336368 0.586372 0
M  V30 7916 H 742.57 1.53198 1.36819 0
M  V30 7917 H 740.8 0.737205 3.79608 0
M  V30 7918 H 742.489 1.14439 3.89434 0
M  V30 7919 H 743.255 3.55535 3.29878 0
M  V30 7920 H 739.134 2.47921 3.88659 0
M  V30 7921 H 742.678 5.92529 3.68178 0
M  V30 7922 H 738.575 4.84019 4.27078 0
M  V30 7923 H 739.343 6.91304 4.38226 0
M  V30 7924 N 742.006 -1.2595 0.947325 0
M  V30 7925 C 742.969 -2.24407 0.466285 0
M  V30 7926 C 743.969 -1.55054 -0.426005 0
M  V30 7927 O 745.159 -1.7275 -0.224319 0
M  V30 7928 C 742.291 -3.39326 -0.327201 0
M  V30 7929 H 743.484 -2.68477 1.33642 0
M  V30 7930 H 741.037 -1.38211 0.729887 0
M  V30 7931 H 741.772 -3.00667 -1.21532 0
M  V30 7932 H 741.557 -3.9085 0.312839 0
M  V30 7933 H 743.047 -4.12455 -0.653477 0
M  V30 7934 N 743.484 -0.715051 -1.40445 0
M  V30 7935 C 744.434 -0.038591 -2.27967 0
M  V30 7936 C 745.418 0.733099 -1.43229 0
M  V30 7937 O 746.61 0.605388 -1.66325 0
M  V30 7938 C 743.739 0.882801 -3.31755 0
M  V30 7939 C 742.825 0.106325 -4.23967 0
M  V30 7940 N 743.216 -0.910143 -4.97544 0
M  V30 7941 C 741.514 0.33896 -4.4471 0
M  V30 7942 C 742.215 -1.37665 -5.65175 0
M  V30 7943 N 741.191 -0.698905 -5.39088 0
M  V30 7944 H 744.993 -0.81765 -2.82297 0
M  V30 7945 H 742.507 -0.547591 -1.5289 0
M  V30 7946 H 744.504 1.38273 -3.93302 0
M  V30 7947 H 743.164 1.66124 -2.78985 0
M  V30 7948 H 744.175 -1.29097 -5.01552 0
M  V30 7949 H 740.852 1.09377 -4.02918 0
M  V30 7950 H 742.242 -2.22122 -6.34123 0
M  V30 7951 N 744.962 1.50701 -0.461195 0
M  V30 7952 C 746.202 2.04174 0.0960673 0
M  V30 7953 C 746.566 1.33628 1.37868 0
M  V30 7954 O 747.767 1.77602 2.0177 0
M  V30 7955 C 746.038 3.56256 0.285676 0
M  V30 7956 S 747.597 4.31392 0.802917 0
M  V30 7957 H 744.415 0.710701 0.0206282 0
M  V30 7958 H 747.017 1.85204 -0.62607 0
M  V30 7959 H 745.721 4.05159 -0.653773 0
M  V30 7960 H 745.252 3.79562 1.03421 0
M  V30 7961 H 747.267 4.50611 2.07761 0
M  V30 7962 N 746.441 0.193421 1.56409 0
M  V30 7963 C 747.388 -0.728124 2.19014 0
M  V30 7964 C 748.358 -1.21098 1.13686 0
M  V30 7965 O 749.543 -1.27517 1.4193 0
M  V30 7966 C 746.683 -1.94277 2.8522 0
M  V30 7967 C 745.796 -1.50143 4.05069 0
M  V30 7968 C 744.931 -2.67145 4.59137 0
M  V30 7969 C 743.97 -2.19609 5.71348 0
M  V30 7970 N 743.107 -3.29782 6.19829 0
M  V30 7971 H 747.947 -0.187499 2.9741 0
M  V30 7972 H 745.484 -0.0808064 1.46878 0
M  V30 7973 H 747.442 -2.65551 3.21774 0
M  V30 7974 H 746.072 -2.45673 2.09391 0
M  V30 7975 H 745.124 -0.684624 3.74189 0
M  V30 7976 H 746.436 -1.11266 4.86232 0
M  V30 7977 H 745.59 -3.46544 4.97988 0
M  V30 7978 H 744.329 -3.09295 3.77078 0
M  V30 7979 H 743.334 -1.38664 5.32027 0
M  V30 7980 H 744.559 -1.78492 6.55223 0
M  V30 7981 H 742.505 -3.71466 5.40693 0
M  V30 7982 H 742.422 -2.95069 6.96039 0
M  V30 7983 H 743.69 -4.094 6.63334 0
M  V30 7984 N 747.919 -1.57396 -0.0801906 0
M  V30 7985 C 748.849 -2.06145 -1.09665 0
M  V30 7986 C 749.83 -0.953273 -1.40878 0
M  V30 7987 O 751.015 -1.22548 -1.50651 0
M  V30 7988 C 748.145 -2.49836 -2.41245 0
M  V30 7989 C 747.099 -3.64454 -2.24405 0
M  V30 7990 C 746.425 -3.94172 -3.61293 0
M  V30 7991 C 747.725 -4.94807 -1.67223 0
M  V30 7992 H 749.419 -2.91316 -0.691028 0
M  V30 7993 H 746.965 -1.40145 -0.330957 0
M  V30 7994 H 748.918 -2.82552 -3.12638 0
M  V30 7995 H 747.642 -1.61683 -2.83771 0
M  V30 7996 H 746.301 -3.32008 -1.55454 0
M  V30 7997 H 745.949 -3.03163 -4.01374 0
M  V30 7998 H 745.649 -4.71345 -3.50867 0
M  V30 7999 H 747.173 -4.29376 -4.3413 0
M  V30 8000 H 748.587 -5.25807 -2.28472 0
M  V30 8001 H 746.984 -5.76245 -1.67515 0
M  V30 8002 H 748.054 -4.80751 -0.632944 0
M  V30 8003 N 749.397 0.351382 -1.53633 0
M  V30 8004 C 750.327 1.43688 -1.84055 0
M  V30 8005 C 751.308 1.55251 -0.695073 0
M  V30 8006 O 752.493 1.69587 -0.946257 0
M  V30 8007 C 749.623 2.80843 -2.04315 0
M  V30 8008 C 748.577 2.84094 -3.20117 0
M  V30 8009 C 747.903 4.2406 -3.25696 0
M  V30 8010 C 749.203 2.50334 -4.58399 0
M  V30 8011 H 750.897 1.18478 -2.74961 0
M  V30 8012 H 748.443 0.568509 -1.32303 0
M  V30 8013 H 750.396 3.56821 -2.2418 0
M  V30 8014 H 749.12 3.07471 -1.10132 0
M  V30 8015 H 747.779 2.10568 -3.00094 0
M  V30 8016 H 747.427 4.47785 -2.29123 0
M  V30 8017 H 747.127 4.27147 -4.03509 0
M  V30 8018 H 748.651 5.0189 -3.47762 0
M  V30 8019 H 750.065 3.16025 -4.78332 0
M  V30 8020 H 748.462 2.64717 -5.38558 0
M  V30 8021 H 749.532 1.45542 -4.62543 0
M  V30 8022 N 750.875 1.45233 0.611969 0
M  V30 8023 C 751.805 1.5641 1.73373 0
M  V30 8024 C 752.786 0.415896 1.64937 0
M  V30 8025 O 753.971 0.638478 1.83404 0
M  V30 8026 C 751.101 1.52627 3.11965 0
M  V30 8027 C 750.055 2.66119 3.35208 0
M  V30 8028 C 749.381 2.4739 4.74028 0
M  V30 8029 C 750.681 4.08157 3.25891 0
M  V30 8030 H 752.375 2.50307 1.64277 0
M  V30 8031 H 749.921 1.20467 0.788904 0
M  V30 8032 H 751.874 1.59043 3.90235 0
M  V30 8033 H 750.598 0.552564 3.21892 0
M  V30 8034 H 749.257 2.59123 2.59327 0
M  V30 8035 H 748.905 1.48168 4.80682 0
M  V30 8036 H 748.605 3.23494 4.90536 0
M  V30 8037 H 750.129 2.55653 5.54503 0
M  V30 8038 H 751.543 4.1642 3.9404 0
M  V30 8039 H 749.94 4.84617 3.5393 0
M  V30 8040 H 751.01 4.30374 2.23397 0
M  V30 8041 N 752.353 -0.854086 1.3245 0
M  V30 8042 C 753.316 -1.94427 1.21371 0
M  V30 8043 C 754.316 -1.60219 0.136613 0
M  V30 8044 O 755.506 -1.69846 0.387057 0
M  V30 8045 C 752.638 -3.29698 0.866701 0
M  V30 8046 H 753.831 -2.05679 2.18257 0
M  V30 8047 H 751.384 -1.04434 1.1629 0
M  V30 8048 H 752.119 -3.24145 -0.100319 0
M  V30 8049 H 751.904 -3.55903 1.64545 0
M  V30 8050 H 753.394 -4.09599 0.813515 0
M  V30 8051 N 753.831 -1.1567 -1.07043 0
M  V30 8052 C 755.108 -0.843948 -1.76456 0
M  V30 8053 C 755.488 0.659806 -2.00524 0
M  V30 8054 O 754.836 1.60518 -1.62623 0
M  V30 8055 C 755.046 -1.65822 -3.0709 0
M  V30 8056 C 756.394 -1.8664 -3.8138 0
M  V30 8057 O 757.418 -1.62624 -3.1691 0
M  V30 8058 O 756.277 -2.26884 -4.97178 0
M  V30 8059 H 753.371 -0.310677 -0.766426 0
M  V30 8060 H 755.917 -1.26266 -1.1338 0
M  V30 8061 H 754.689 -2.67902 -2.85209 0
M  V30 8062 H 754.312 -1.23605 -3.77899 0
M  V30 8063 N 755.309 1.25446 -0.953992 0
M  V30 8064 C 756.219 2.29632 -0.480264 0
M  V30 8065 C 757.235 1.68025 0.452071 0
M  V30 8066 O 758.411 1.98703 0.328472 0
M  V30 8067 C 755.476 3.45903 0.234974 0
M  V30 8068 C 754.537 4.22953 -0.735495 0
M  V30 8069 C 753.77 5.33672 -0.0542957 0
M  V30 8070 O 753.993 5.58477 1.16018 0
M  V30 8071 O 752.927 5.9734 -0.739509 0
M  V30 8072 H 756.753 2.72242 -1.34602 0
M  V30 8073 H 754.338 1.30883 -0.720419 0
M  V30 8074 H 756.22 4.16552 0.637341 0
M  V30 8075 H 754.895 3.05296 1.07592 0
M  V30 8076 H 753.802 3.54734 -1.18806 0
M  V30 8077 H 755.135 4.67341 -1.54444 0
M  V30 8078 N 756.787 0.722489 1.40064 0
M  V30 8079 C 757.735 0.063329 2.32514 0
M  V30 8080 C 758.729 -0.73953 1.52405 0
M  V30 8081 O 759.935 -0.642122 1.68157 0
M  V30 8082 H 756.31 0.00167692 0.751998 0
M  V30 8083 H 758.281 0.859656 2.85749 0
M  V30 8084 C 757.03 -0.839219 3.3742 0
M  V30 8085 H 756.353 -0.230836 3.99133 0
M  V30 8086 H 757.793 -1.26827 4.04587 0
M  V30 8087 C 756.252 -1.96783 2.73456 0
M  V30 8088 O 756.782 -3.05933 2.60323 0
M  V30 8089 N 754.988 -1.75351 2.31734 0
M  V30 8090 H 754.535 -0.865787 2.42615 0
M  V30 8091 H 754.493 -2.51043 1.89275 0
M  V30 8092 N 758.265 -1.50454 0.469181 0
M  V30 8093 C 759.513 -2.01916 -0.0862982 0
M  V30 8094 C 759.834 -1.35337 -1.40388 0
M  V30 8095 O 759.104 -0.498096 -1.89462 0
M  V30 8096 H 757.684 -0.746185 -0.0348825 0
M  V30 8097 H 760.346 -1.84804 0.619167 0
M  V30 8098 H 759.442 -3.11182 -0.239189 0
M  V30 8099 N 759.743 -0.201713 -1.56304 0
M  V30 8100 C 760.693 0.729444 -2.16016 0
M  V30 8101 C 761.677 1.17164 -1.10279 0
M  V30 8102 O 762.869 1.12893 -1.36324 0
M  V30 8103 C 759.998 1.94594 -2.82822 0
M  V30 8104 C 759.084 1.52434 -3.95758 0
M  V30 8105 N 759.475 0.814106 -4.99205 0
M  V30 8106 C 757.773 1.81314 -4.07481 0
M  V30 8107 C 758.474 0.601896 -5.78578 0
M  V30 8108 N 757.45 1.15263 -5.3124 0
M  V30 8109 H 761.252 0.178163 -2.93359 0
M  V30 8110 H 758.766 -0.00218038 -1.624 0
M  V30 8111 H 760.763 2.62357 -3.23998 0
M  V30 8112 H 759.423 2.50188 -2.06969 0
M  V30 8113 H 760.434 0.468872 -5.15773 0
M  V30 8114 H 757.111 2.3837 -3.42762 0
M  V30 8115 H 758.501 0.0380119 -6.71889 0
M  V30 8116 N 761.222 1.57436 0.0718424 0
M  V30 8117 C 762.468 1.87525 0.772149 0
M  V30 8118 C 762.801 0.79399 1.77227 0
M  V30 8119 O 762.076 -0.195733 1.93513 0
M  V30 8120 C 762.359 3.28272 1.48018 0
M  V30 8121 C 762.212 4.47052 0.49647 0
M  V30 8122 C 763.531 3.67256 2.42509 0
M  V30 8123 H 760.65 0.682049 0.279245 0
M  V30 8124 H 763.292 1.89967 0.03534 0
M  V30 8125 H 761.442 3.26321 2.10824 0
M  V30 8126 H 763.114 4.61127 -0.126375 0
M  V30 8127 H 761.357 4.33392 -0.188205 0
M  V30 8128 H 762.028 5.42315 1.02949 0
M  V30 8129 H 764.504 3.70301 1.89781 0
M  V30 8130 H 763.38 4.66626 2.89053 0
M  V30 8131 H 763.641 2.97186 3.27312 0
M  V30 8132 N 762.7 -0.34323 1.53817 0
M  V30 8133 C 763.948 -1.0813 1.70741 0
M  V30 8134 C 764.269 -1.89165 0.473461 0
M  V30 8135 O 763.539 -1.89075 -0.512605 0
M  V30 8136 H 762.119 -0.40219 0.629486 0
M  V30 8137 H 764.781 -0.384426 1.91071 0
M  V30 8138 H 763.877 -1.7585 2.57843 0
M  V30 8139 N 764.178 -1.45556 -0.604258 0
M  V30 8140 C 765.426 -1.4945 -1.36048 0
M  V30 8141 C 765.747 -0.138933 -1.94504 0
M  V30 8142 O 765.017 0.832097 -1.7735 0
M  V30 8143 H 763.597 -0.550381 -0.505064 0
M  V30 8144 H 766.259 -1.81535 -0.709308 0
M  V30 8145 H 765.355 -2.23519 -2.17821 0
M  V30 8146 N 765.656 0.84705 -1.32902 0
M  V30 8147 C 766.586 1.97166 -1.25091 0
M  V30 8148 C 767.567 1.69578 -0.133161 0
M  V30 8149 O 768.752 1.91519 -0.321591 0
M  V30 8150 C 765.882 3.33157 -0.981006 0
M  V30 8151 C 764.836 3.75119 -2.06082 0
M  V30 8152 C 764.162 5.08826 -1.64318 0
M  V30 8153 C 765.462 3.89774 -3.47669 0
M  V30 8154 H 767.156 2.03958 -2.19184 0
M  V30 8155 H 764.702 0.979907 -1.05517 0
M  V30 8156 H 766.655 4.11393 -0.912891 0
M  V30 8157 H 765.379 3.266 -0.00445559 0
M  V30 8158 H 764.038 2.9914 -2.11921 0
M  V30 8159 H 763.686 4.98732 -0.653876 0
M  V30 8160 H 763.386 5.37873 -2.36572 0
M  V30 8161 H 764.91 5.89546 -1.58958 0
M  V30 8162 H 766.324 4.58343 -3.44376 0
M  V30 8163 H 764.721 4.30248 -4.18338 0
M  V30 8164 H 765.791 2.92463 -3.86773 0
M  V30 8165 N 767.134 1.16236 1.06428 0
M  V30 8166 C 768.082 0.863669 2.15971 0
M  V30 8167 C 769.076 -0.166723 1.68578 0
M  V30 8168 O 770.282 -0.0208425 1.79988 0
M  V30 8169 H 766.657 0.261684 0.705 0
M  V30 8170 H 768.628 1.79498 2.38376 0
M  V30 8171 C 767.377 0.379697 3.45621 0
M  V30 8172 H 766.7 1.16399 3.82481 0
M  V30 8173 H 768.14 0.209458 4.23482 0
M  V30 8174 C 766.599 -0.900499 3.24642 0
M  V30 8175 O 767.129 -1.97004 3.50074 0
M  V30 8176 N 765.335 -0.843721 2.78082 0
M  V30 8177 H 764.882 0.0268429 2.57586 0
M  V30 8178 H 764.84 -1.70078 2.64425 0
M  V30 8179 N 768.612 -1.24939 0.960631 0
M  V30 8180 C 769.542 -2.28 0.503815 0
M  V30 8181 C 770.523 -1.63959 -0.452928 0
M  V30 8182 O 771.708 -1.91009 -0.350585 0
M  V30 8183 C 768.838 -3.46643 -0.213535 0
M  V30 8184 C 767.792 -4.22903 0.658535 0
M  V30 8185 C 767.118 -5.34363 -0.189902 0
M  V30 8186 C 768.418 -4.84949 1.93963 0
M  V30 8187 H 770.112 -2.66462 1.36521 0
M  V30 8188 H 767.658 -1.28093 0.657897 0
M  V30 8189 H 769.611 -4.1787 -0.544286 0
M  V30 8190 H 768.335 -3.07187 -1.10923 0
M  V30 8191 H 766.994 -3.53467 0.972455 0
M  V30 8192 H 766.642 -4.91147 -1.08553 0
M  V30 8193 H 766.342 -5.86302 0.390331 0
M  V30 8194 H 767.866 -6.0842 -0.515484 0
M  V30 8195 H 769.28 -5.48288 1.67491 0
M  V30 8196 H 767.677 -5.47091 2.46601 0
M  V30 8197 H 768.747 -4.06799 2.639 0
M  V30 8198 N 770.09 -0.729906 -1.39679 0
M  V30 8199 C 771.02 -0.101618 -2.33279 0
M  V30 8200 C 772.001 0.729854 -1.53646 0
M  V30 8201 O 773.186 0.67587 -1.82059 0
M  V30 8202 C 770.316 0.81024 -3.37716 0
M  V30 8203 C 769.27 0.0833126 -4.27919 0
M  V30 8204 C 768.596 1.11185 -5.23012 0
M  V30 8205 C 769.896 -1.07107 -5.112 0
M  V30 8206 H 771.59 -0.883452 -2.86069 0
M  V30 8207 H 769.136 -0.426283 -1.37546 0
M  V30 8208 H 771.089 1.25927 -4.02145 0
M  V30 8209 H 769.813 1.62413 -2.83354 0
M  V30 8210 H 768.472 -0.346043 -3.64963 0
M  V30 8211 H 768.12 1.91917 -4.64948 0
M  V30 8212 H 767.82 0.63026 -5.8421 0
M  V30 8213 H 769.344 1.56068 -5.90318 0
M  V30 8214 H 770.758 -0.700726 -5.69002 0
M  V30 8215 H 769.155 -1.48196 -5.81514 0
M  V30 8216 H 770.225 -1.89513 -4.46332 0
M  V30 8217 N 771.568 1.50203 -0.477153 0
M  V30 8218 C 772.531 2.27194 0.302599 0
M  V30 8219 C 773.531 1.32221 0.915112 0
M  V30 8220 O 774.721 1.55593 0.783348 0
M  V30 8221 C 771.853 3.0938 1.43167 0
M  V30 8222 H 773.046 2.97575 -0.372678 0
M  V30 8223 H 770.599 1.54578 -0.231392 0
M  V30 8224 H 771.334 2.43509 2.14182 0
M  V30 8225 H 771.119 3.79181 0.998197 0
M  V30 8226 H 772.609 3.67592 1.98157 0
M  V30 8227 N 773.046 0.209999 1.56195 0
M  V30 8228 C 774.009 -0.691232 2.18528 0
M  V30 8229 C 775.009 -1.13013 1.14388 0
M  V30 8230 O 776.199 -1.04081 1.39688 0
M  V30 8231 C 773.331 -1.94551 2.79934 0
M  V30 8232 H 774.524 -0.147953 2.99535 0
M  V30 8233 H 772.077 -0.0396243 1.5625 0
M  V30 8234 H 772.812 -2.53094 2.02766 0
M  V30 8235 H 772.597 -1.63938 3.56184 0
M  V30 8236 H 774.087 -2.58785 3.2775 0
M  V30 8237 N 774.524 -1.57472 -0.0634922 0
M  V30 8238 C 775.772 -1.87283 -0.759563 0
M  V30 8239 C 776.093 -0.803135 -1.77693 0
M  V30 8240 O 775.363 0.167293 -1.95184 0
M  V30 8241 H 773.943 -0.691106 -0.283516 0
M  V30 8242 H 776.605 -1.94864 -0.0376091 0
M  V30 8243 H 775.701 -2.85064 -1.27062 0
M  V30 8244 N 776.003 0.335068 -1.53997 0
M  V30 8245 C 776.966 1.39481 -1.81872 0
M  V30 8246 C 777.966 1.4524 -0.690078 0
M  V30 8247 O 779.156 1.45467 -0.958377 0
M  V30 8248 C 776.288 2.78329 -1.9684 0
M  V30 8249 H 777.481 1.16024 -2.76547 0
M  V30 8250 H 775.034 0.569926 -1.45539 0
M  V30 8251 H 775.769 3.07058 -1.04337 0
M  V30 8252 H 775.554 2.75544 -2.78958 0
M  V30 8253 H 777.044 3.55016 -2.19894 0
M  V30 8254 N 777.481 1.45874 0.596531 0
M  V30 8255 C 778.414 1.49889 1.72071 0
M  V30 8256 C 779.392 0.354224 1.58695 0
M  V30 8257 O 780.576 0.556355 1.80103 0
M  V30 8258 C 777.703 1.3644 3.10003 0
M  V30 8259 C 776.749 2.54913 3.41938 0
M  V30 8260 S 777.582 4.17336 3.35545 0
M  V30 8261 C 778.738 4.06372 4.76039 0
M  V30 8262 H 778.971 2.45005 1.68404 0
M  V30 8263 H 776.504 1.33592 0.77412 0
M  V30 8264 H 778.462 1.29368 3.89582 0
M  V30 8265 H 777.123 0.427762 3.11174 0
M  V30 8266 H 776.316 2.41458 4.42396 0
M  V30 8267 H 775.918 2.58904 2.69898 0
M  V30 8268 H 778.21 3.72199 5.66105 0
M  V30 8269 H 779.153 5.0678 4.9455 0
M  V30 8270 H 779.561 3.37846 4.52239 0
M  V30 8271 N 778.959 -0.83999 1.33349 0
M  V30 8272 C 779.922 -1.93128 1.23426 0
M  V30 8273 C 780.922 -1.60065 0.153599 0
M  V30 8274 O 782.112 -1.69425 0.405049 0
M  V30 8275 C 779.244 -3.28761 0.901622 0
M  V30 8276 H 780.437 -2.03352 2.20427 0
M  V30 8277 H 777.99 -1.03194 1.17391 0
M  V30 8278 H 778.725 -3.24233 -0.0659337 0
M  V30 8279 H 778.51 -3.54138 1.68311 0
M  V30 8280 H 780 -4.08714 0.856913 0
M  V30 8281 N 780.437 -1.16799 -1.0581 0
M  V30 8282 C 781.685 -0.950642 -1.78346 0
M  V30 8283 C 782.006 0.522524 -1.87869 0
M  V30 8284 O 781.276 1.3795 -1.39092 0
M  V30 8285 H 779.856 -0.348736 -0.6606 0
M  V30 8286 H 782.518 -1.47158 -1.27791 0
M  V30 8287 H 781.614 -1.37359 -2.80248 0
M  V30 8288 N 781.915 1.24427 -0.967243 0
M  V30 8289 C 783.161 1.92772 -0.629812 0
M  V30 8290 C 783.494 1.75436 0.832827 0
M  V30 8291 O 782.769 1.10716 1.59913 0
M  V30 8292 C 783.052 3.45798 -1.00477 0
M  V30 8293 C 782.905 3.72304 -2.52407 0
M  V30 8294 C 784.224 4.36787 -0.538999 0
M  V30 8295 H 781.343 0.700099 -0.230282 0
M  V30 8296 H 783.985 1.46805 -1.20616 0
M  V30 8297 H 782.135 3.8508 -0.514336 0
M  V30 8298 H 783.807 3.42584 -3.08924 0
M  V30 8299 H 782.05 3.17472 -2.95625 0
M  V30 8300 H 782.721 4.7937 -2.73693 0
M  V30 8301 H 785.197 4.04877 -0.959874 0
M  V30 8302 H 784.073 5.4259 -0.829926 0
M  V30 8303 H 784.334 4.38527 0.560923 0
M  V30 8304 N 783.393 0.737304 1.3929 0
M  V30 8305 C 784.804 0.355966 1.83275 0
M  V30 8306 C 785.155 -1.11295 1.6158 0
M  V30 8307 O 784.28 -1.85871 1.10819 0
M  V30 8308 C 784.875 0.63931 3.32713 0
M  V30 8309 C 783.434 0.31144 3.75109 0
M  V30 8310 C 782.581 0.900765 2.62262 0
M  V30 8311 H 785.532 0.934763 1.28249 0
M  V30 8312 H 785.553 -0.0881293 3.80398 0
M  V30 8313 H 785.065 1.70847 3.48472 0
M  V30 8314 H 783.166 -0.751791 3.64937 0
M  V30 8315 H 783.279 0.795611 4.72448 0
M  V30 8316 H 781.643 0.327239 2.52589 0
M  V30 8317 H 782.426 1.97463 2.80826 0
M  V30 8318 N 784.871 -1.49948 0.485112 0
M  V30 8319 C 785.834 -2.27351 -0.290546 0
M  V30 8320 C 786.834 -1.32704 -0.908087 0
M  V30 8321 O 788.024 -1.56007 -0.775085 0
M  V30 8322 C 785.156 -3.10135 -1.41524 0
M  V30 8323 H 786.349 -2.97374 0.388454 0
M  V30 8324 H 783.902 -1.54453 0.239586 0
M  V30 8325 H 784.637 -2.44641 -2.12888 0
M  V30 8326 H 784.422 -3.79705 -0.978074 0
M  V30 8327 H 785.912 -3.68638 -1.96204 0
M  V30 8328 N 786.349 -0.21828 -1.56081 0
M  V30 8329 C 787.312 0.679633 -2.18892 0
M  V30 8330 C 788.312 1.12405 -1.14986 0
M  V30 8331 O 789.502 1.03339 -1.40238 0
M  V30 8332 C 786.634 1.93063 -2.80962 0
M  V30 8333 H 787.827 0.132066 -2.99609 0
M  V30 8334 H 785.38 0.0313374 -1.56269 0
M  V30 8335 H 786.115 2.52015 -2.04106 0
M  V30 8336 H 785.9 1.62046 -3.57048 0
M  V30 8337 H 787.39 2.57043 -3.29118 0
M  V30 8338 N 787.827 1.57504 0.0551401 0
M  V30 8339 C 789.052 1.92682 0.767352 0
M  V30 8340 C 789.477 0.81614 1.69472 0
M  V30 8341 O 788.835 -0.229989 1.79835 0
M  V30 8342 C 788.883 3.26866 1.52286 0
M  V30 8343 O 787.987 3.17274 2.63459 0
M  V30 8344 H 787.328 0.630502 0.208238 0
M  V30 8345 H 789.858 2.04592 0.0184026 0
M  V30 8346 H 789.868 3.61138 1.8985 0
M  V30 8347 H 788.543 4.07276 0.842541 0
M  V30 8348 H 787.12 2.94589 2.2863 0
M  V30 8349 N 789.305 -0.326896 1.54172 0
M  V30 8350 C 790.235 -1.40741 1.86317 0
M  V30 8351 C 791.216 -1.54125 0.719684 0
M  V30 8352 O 792.401 -1.6806 0.973117 0
M  V30 8353 C 789.531 -2.77557 2.08757 0
M  V30 8354 C 788.485 -2.78965 3.24596 0
M  V30 8355 C 787.811 -4.18824 3.32401 0
M  V30 8356 C 789.111 -2.4301 4.62324 0
M  V30 8357 H 790.805 -1.14088 2.76811 0
M  V30 8358 H 788.351 -0.547389 1.3319 0
M  V30 8359 H 790.304 -3.53209 2.29829 0
M  V30 8360 H 789.028 -3.0568 1.15009 0
M  V30 8361 H 787.687 -2.05767 3.03406 0
M  V30 8362 H 787.335 -4.44083 2.36218 0
M  V30 8363 H 787.035 -4.20673 4.10253 0
M  V30 8364 H 788.559 -4.96294 3.55703 0
M  V30 8365 H 789.973 -3.08375 4.83299 0
M  V30 8366 H 788.37 -2.56116 5.42701 0
M  V30 8367 H 789.44 -1.38165 4.64799 0
M  V30 8368 N 790.784 -1.46188 -0.588786 0
M  V30 8369 C 792.03 -1.51407 -1.34921 0
M  V30 8370 C 792.363 -0.162771 -1.93517 0
M  V30 8371 O 791.638 0.825082 -1.76132 0
M  V30 8372 C 791.921 -2.60795 -2.48311 0
M  V30 8373 C 791.774 -4.05435 -1.94789 0
M  V30 8374 C 793.093 -2.66313 -3.50379 0
M  V30 8375 H 790.212 -0.551213 -0.489217 0
M  V30 8376 H 792.854 -1.78095 -0.661993 0
M  V30 8377 H 791.004 -2.3817 -3.06932 0
M  V30 8378 H 792.676 -4.39328 -1.40672 0
M  V30 8379 H 790.919 -4.15202 -1.25659 0
M  V30 8380 H 791.59 -4.77691 -2.76613 0
M  V30 8381 H 794.066 -2.86634 -3.01629 0
M  V30 8382 H 792.942 -3.44681 -4.27184 0
M  V30 8383 H 793.203 -1.72127 -4.07216 0
M  V30 8384 N 792.262 0.832906 -1.33792 0
M  V30 8385 C 793.49 1.62048 -1.28639 0
M  V30 8386 C 793.905 1.88269 0.141522 0
M  V30 8387 O 793.262 1.46706 1.08553 0
M  V30 8388 C 793.313 2.96722 -2.0649 0
M  V30 8389 O 793.034 2.7165 -3.43712 0
M  V30 8390 C 794.535 3.91144 -2.08617 0
M  V30 8391 H 791.755 0.504032 -0.442937 0
M  V30 8392 H 794.299 1.03704 -1.76255 0
M  V30 8393 H 792.454 3.51652 -1.62541 0
M  V30 8394 H 792.868 3.57453 -3.83833 0
M  V30 8395 H 794.342 4.82837 -2.67531 0
M  V30 8396 H 794.819 4.25766 -1.07796 0
M  V30 8397 H 795.425 3.42152 -2.52611 0
M  V30 8398 N 793.74 1.17359 1.05189 0
M  V30 8399 C 795.151 0.96793 1.5965 0
M  V30 8400 C 795.502 -0.485355 1.90102 0
M  V30 8401 O 794.627 -1.36066 1.6827 0
M  V30 8402 C 795.222 1.75068 2.90063 0
M  V30 8403 C 793.781 1.58969 3.41183 0
M  V30 8404 C 792.928 1.75231 2.14917 0
M  V30 8405 H 795.879 1.32067 0.880001 0
M  V30 8406 H 795.9 1.23308 3.59966 0
M  V30 8407 H 795.412 2.80835 2.67868 0
M  V30 8408 H 793.513 0.556906 3.68415 0
M  V30 8409 H 793.626 2.38067 4.15766 0
M  V30 8410 H 791.99 1.18073 2.25679 0
M  V30 8411 H 792.773 2.8241 1.95191 0
M  V30 8412 N 795.218 -1.23913 0.973828 0
M  V30 8413 C 796.181 -2.23367 0.51378 0
M  V30 8414 C 797.181 -1.55923 -0.39302 0
M  V30 8415 O 798.371 -1.73187 -0.187626 0
M  V30 8416 C 795.503 -3.39944 -0.255152 0
M  V30 8417 H 796.696 -2.65581 1.39307 0
M  V30 8418 H 794.249 -1.36632 0.759039 0
M  V30 8419 H 794.984 -3.03177 -1.15127 0
M  V30 8420 H 794.769 -3.90098 0.395673 0
M  V30 8421 H 796.259 -4.13749 -0.565842 0
M  V30 8422 N 796.696 -0.74468 -1.38897 0
M  V30 8423 C 797.973 -0.222773 -1.94327 0
M  V30 8424 C 798.353 1.27731 -1.68071 0
M  V30 8425 O 797.701 2.04754 -1.01429 0
M  V30 8426 C 797.911 -0.566836 -3.44366 0
M  V30 8427 C 799.259 -0.521531 -4.21385 0
M  V30 8428 O 800.283 -0.504599 -3.52608 0
M  V30 8429 O 799.142 -0.524595 -5.43976 0
M  V30 8430 H 796.236 -0.0439259 -0.825833 0
M  V30 8431 H 798.782 -0.824197 -1.48341 0
M  V30 8432 H 797.554 -1.60321 -3.56949 0
M  V30 8433 H 797.177 0.0630577 -3.9755 0
M  V30 8434 N 798.174 1.49689 -0.493057 0
M  V30 8435 C 799.42 2.02727 0.0543518 0
M  V30 8436 C 799.753 1.37264 1.37376 0
M  V30 8437 O 799.028 0.505644 1.87812 0
M  V30 8438 C 799.311 3.59456 0.215226 0
M  V30 8439 C 799.164 4.35459 -1.12675 0
M  V30 8440 C 800.483 4.29511 0.959586 0
M  V30 8441 H 797.602 0.736773 0.0182786 0
M  V30 8442 H 800.244 1.78792 -0.642924 0
M  V30 8443 H 798.394 3.79981 0.809122 0
M  V30 8444 H 800.066 4.2645 -1.75891 0
M  V30 8445 H 798.309 3.9833 -1.71801 0
M  V30 8446 H 798.98 5.43454 -0.967578 0
M  V30 8447 H 801.456 4.13594 0.455977 0
M  V30 8448 H 800.332 5.38939 1.04098 0
M  V30 8449 H 800.593 3.94202 2.00144 0
M  V30 8450 N 799.652 0.226554 1.55963 0
M  V30 8451 C 800.901 -0.40417 1.97609 0
M  V30 8452 C 801.214 -1.60541 1.1174 0
M  V30 8453 O 802.42 -2.30598 1.43307 0
M  V30 8454 C 800.876 -0.770466 3.51556 0
M  V30 8455 C 800.484 0.408244 4.46136 0
M  V30 8456 C 802.228 -1.36651 4.01904 0
M  V30 8457 C 800.135 0.0192347 5.91397 0
M  V30 8458 H 799.065 -0.15478 0.737943 0
M  V30 8459 H 801.716 0.323558 1.80625 0
M  V30 8460 H 800.098 -1.55575 3.6416 0
M  V30 8461 H 801.272 1.18575 4.45283 0
M  V30 8462 H 799.587 0.917859 4.06158 0
M  V30 8463 H 802.184 -1.67055 5.07934 0
M  V30 8464 H 802.527 -2.28403 3.48049 0
M  V30 8465 H 803.06 -0.644556 3.92543 0
M  V30 8466 H 799.799 0.90336 6.49245 0
M  V30 8467 H 799.319 -0.722485 5.95433 0
M  V30 8468 H 800.998 -0.405711 6.45727 0
M  V30 8469 N 801.13 -1.57531 -0.0467866 0
M  V30 8470 C 802.077 -2.05387 -1.05285 0
M  V30 8471 C 803.047 -0.939385 -1.36985 0
M  V30 8472 O 804.232 -1.20877 -1.47626 0
M  V30 8473 C 801.372 -2.52343 -2.35408 0
M  V30 8474 C 800.485 -3.77512 -2.10022 0
M  V30 8475 C 799.62 -4.1315 -3.33887 0
M  V30 8476 C 798.659 -5.31286 -3.03976 0
M  V30 8477 N 797.796 -5.62441 -4.20243 0
M  V30 8478 H 802.636 -2.91095 -0.637788 0
M  V30 8479 H 800.173 -1.43939 -0.303322 0
M  V30 8480 H 802.131 -2.77628 -3.11413 0
M  V30 8481 H 800.761 -1.69577 -2.7467 0
M  V30 8482 H 799.813 -3.59417 -1.24594 0
M  V30 8483 H 801.125 -4.63644 -1.83945 0
M  V30 8484 H 800.279 -4.39469 -4.18273 0
M  V30 8485 H 799.018 -3.25634 -3.63062 0
M  V30 8486 H 798.023 -5.04738 -2.17991 0
M  V30 8487 H 799.248 -6.20441 -2.76098 0
M  V30 8488 H 797.194 -4.77885 -4.49402 0
M  V30 8489 H 797.111 -6.43046 -3.97528 0
M  V30 8490 H 798.379 -5.93327 -5.05553 0
M  V30 8491 N 802.608 0.318715 -1.54344 0
M  V30 8492 C 803.836 1.0755 -1.7675 0
M  V30 8493 C 804.251 1.81543 -0.518422 0
M  V30 8494 O 803.608 1.75198 0.511078 0
M  V30 8495 C 803.659 2.06983 -2.96378 0
M  V30 8496 O 803.38 1.35995 -4.16458 0
M  V30 8497 C 804.881 2.94841 -3.31034 0
M  V30 8498 H 802.101 0.319711 -0.589937 0
M  V30 8499 H 804.645 0.363369 -2.01246 0
M  V30 8500 H 802.8 2.73724 -2.74142 0
M  V30 8501 H 803.214 2.02623 -4.83781 0
M  V30 8502 H 804.688 3.60496 -4.18027 0
M  V30 8503 H 805.165 3.62199 -2.48412 0
M  V30 8504 H 805.771 2.33656 -3.55366 0
M  V30 8505 N 804.086 1.46499 0.581025 0
M  V30 8506 C 805.502 1.31491 0.904563 0
M  V30 8507 C 805.702 0.287598 1.99437 0
M  V30 8508 O 804.758 -0.309247 2.50599 0
M  V30 8509 C 806.071 2.70163 1.32032 0
M  V30 8510 C 807.619 2.78266 1.43308 0
M  V30 8511 C 808.094 4.17524 1.8825 0
M  V30 8512 N 809.585 4.19949 1.9544 0
M  V30 8513 C 810.32 5.24594 2.31493 0
M  V30 8514 N 809.816 6.39564 2.66326 0
M  V30 8515 N 811.609 5.11961 2.32062 0
M  V30 8516 H 803.76 2.11946 -0.138856 0
M  V30 8517 H 806.023 0.948 0.000548528 0
M  V30 8518 H 805.729 3.46655 0.593554 0
M  V30 8519 H 805.603 3.00379 2.2815 0
M  V30 8520 H 807.99 2.02061 2.15071 0
M  V30 8521 H 808.071 2.51732 0.45438 0
M  V30 8522 H 807.715 4.94225 1.17065 0
M  V30 8523 H 807.645 4.41466 2.87081 0
M  V30 8524 H 810.136 3.36996 1.71004 0
M  V30 8525 H 810.449 7.15187 2.92793 0
M  V30 8526 H 808.794 6.42923 2.6396 0
M  V30 8527 H 811.985 4.21177 2.04272 0
M  V30 8528 H 812.158 5.93626 2.5983 0
M  V30 8529 N 805.565 -0.825799 1.34232 0
M  V30 8530 C 806.495 -1.95151 1.28212 0
M  V30 8531 C 807.476 -1.69345 0.160123 0
M  V30 8532 O 808.661 -1.90983 0.352019 0
M  V30 8533 C 805.791 -3.31554 1.03388 0
M  V30 8534 C 804.745 -3.71793 2.12023 0
M  V30 8535 C 804.071 -5.06147 1.72392 0
M  V30 8536 C 805.371 -3.84193 3.53826 0
M  V30 8537 H 807.065 -2.00445 2.22401 0
M  V30 8538 H 804.611 -0.962996 1.07063 0
M  V30 8539 H 806.564 -4.09889 0.978225 0
M  V30 8540 H 805.288 -3.26551 0.0564142 0
M  V30 8541 H 803.947 -2.95731 2.16654 0
M  V30 8542 H 803.595 -4.97628 0.733137 0
M  V30 8543 H 803.295 -5.34041 2.451 0
M  V30 8544 H 804.819 -5.86943 1.68317 0
M  V30 8545 H 806.233 -4.52806 3.51624 0
M  V30 8546 H 804.63 -4.23538 4.2513 0
M  V30 8547 H 805.7 -2.86272 3.91377 0
M  V30 8548 N 807.043 -1.17915 -1.04565 0
M  V30 8549 C 807.975 -0.859359 -2.1248 0
M  V30 8550 C 808.988 0.140922 -1.62189 0
M  V30 8551 O 810.177 -0.0862361 -1.78292 0
M  V30 8552 C 807.277 -0.261811 -3.37887 0
M  V30 8553 C 806.45 -1.30651 -4.17431 0
M  V30 8554 C 805.509 -0.725575 -5.21174 0
M  V30 8555 O 804.535 -1.39901 -5.51739 0
M  V30 8556 N 805.737 0.479351 -5.78517 0
M  V30 8557 H 808.502 -1.78818 -2.40508 0
M  V30 8558 H 806.063 -1.07885 -1.20716 0
M  V30 8559 H 808.055 0.14028 -4.04457 0
M  V30 8560 H 806.625 0.570929 -3.07342 0
M  V30 8561 H 805.845 -1.88412 -3.46258 0
M  V30 8562 H 807.133 -2.01099 -4.67372 0
M  V30 8563 H 806.531 1.04431 -5.55977 0
M  V30 8564 H 805.088 0.823427 -6.46578 0
M  V30 8565 N 808.521 1.23394 -0.980386 0
M  V30 8566 C 809.767 1.92094 -0.650223 0
M  V30 8567 C 810.1 1.76309 0.814173 0
M  V30 8568 O 809.375 1.12406 1.5873 0
M  V30 8569 C 809.658 3.44713 -1.04139 0
M  V30 8570 C 809.511 3.69606 -2.56342 0
M  V30 8571 C 810.83 4.36191 -0.585296 0
M  V30 8572 H 807.949 0.697618 -0.237695 0
M  V30 8573 H 810.591 1.45517 -1.22167 0
M  V30 8574 H 808.741 3.84513 -0.55515 0
M  V30 8575 H 810.413 3.39288 -3.1254 0
M  V30 8576 H 808.656 3.14318 -2.98976 0
M  V30 8577 H 809.327 4.76441 -2.78762 0
M  V30 8578 H 811.803 4.03836 -1.00276 0
M  V30 8579 H 810.679 5.41679 -0.887428 0
M  V30 8580 H 810.94 4.39097 0.51438 0
M  V30 8581 N 809.999 0.752036 1.385 0
M  V30 8582 C 810.962 0.131587 2.28822 0
M  V30 8583 C 811.962 -0.649149 1.47115 0
M  V30 8584 O 813.152 -0.475645 1.67581 0
M  V30 8585 C 810.284 -0.822101 3.30839 0
M  V30 8586 H 811.477 0.927551 2.85196 0
M  V30 8587 H 809.03 0.518945 1.47434 0
M  V30 8588 H 809.765 -1.6438 2.79553 0
M  V30 8589 H 809.55 -0.264689 3.91206 0
M  V30 8590 H 811.04 -1.25226 3.98382 0
M  V30 8591 N 811.477 -1.49425 0.500989 0
M  V30 8592 C 812.44 -2.27646 -0.266416 0
M  V30 8593 C 813.44 -1.3366 -0.893961 0
M  V30 8594 O 814.63 -1.5682 -0.758495 0
M  V30 8595 C 811.762 -3.11618 -1.38227 0
M  V30 8596 H 812.955 -2.96945 0.419973 0
M  V30 8597 H 810.508 -1.5419 0.255954 0
M  V30 8598 H 811.243 -2.46885 -2.10281 0
M  V30 8599 H 811.028 -3.80721 -0.937746 0
M  V30 8600 H 812.518 -3.70698 -1.92283 0
M  V30 8601 N 812.955 -0.234822 -1.55841 0
M  V30 8602 C 814.371 0.120295 -1.59146 0
M  V30 8603 C 814.571 1.57896 -1.25184 0
M  V30 8604 O 813.627 2.32138 -0.993393 0
M  V30 8605 C 814.94 -0.217984 -2.99909 0
M  V30 8606 C 816.488 -0.161298 -3.12584 0
M  V30 8607 C 816.963 -0.473438 -4.55546 0
M  V30 8608 N 818.454 -0.423494 -4.6126 0
M  V30 8609 C 819.189 -0.638334 -5.69836 0
M  V30 8610 N 818.685 -0.915659 -6.86722 0
M  V30 8611 N 820.478 -0.569864 -5.59204 0
M  V30 8612 H 812.629 -1.18622 -1.76189 0
M  V30 8613 H 814.892 -0.476426 -0.819587 0
M  V30 8614 H 814.598 -1.2309 -3.29457 0
M  V30 8615 H 814.472 0.460707 -3.74376 0
M  V30 8616 H 816.859 0.842274 -2.82825 0
M  V30 8617 H 816.94 -0.873661 -2.40418 0
M  V30 8618 H 816.584 -1.47451 -4.86025 0
M  V30 8619 H 816.514 0.260268 -5.25956 0
M  V30 8620 H 819.005 -0.217383 -3.77274 0
M  V30 8621 H 819.318 -1.06734 -7.65394 0
M  V30 8622 H 817.663 -0.953 -6.88435 0
M  V30 8623 H 820.854 -0.35334 -4.66765 0
M  V30 8624 H 821.027 -0.740698 -6.43753 0
M  V30 8625 N 814.433 1.57553 0.0384317 0
M  V30 8626 C 815.396 2.04927 1.02653 0
M  V30 8627 C 816.396 0.951768 1.29607 0
M  V30 8628 O 817.586 1.21568 1.24768 0
M  V30 8629 C 814.718 2.45828 2.36181 0
M  V30 8630 H 815.911 2.93474 0.617508 0
M  V30 8631 H 813.464 1.53679 0.285031 0
M  V30 8632 H 814.199 1.60408 2.8185 0
M  V30 8633 H 813.984 3.25945 2.1795 0
M  V30 8634 H 815.474 2.82939 3.0714 0
M  V30 8635 N 815.911 -0.310526 1.54511 0
M  V30 8636 C 817.159 -1.04484 1.72996 0
M  V30 8637 C 817.48 -1.88118 0.513479 0
M  V30 8638 O 816.75 -1.90119 -0.472384 0
M  V30 8639 H 815.33 -0.388747 0.637875 0
M  V30 8640 H 817.992 -0.343811 1.91844 0
M  V30 8641 H 817.088 -1.70341 2.61515 0
M  V30 8642 N 817.389 -1.46805 -0.573248 0
M  V30 8643 C 818.321 -1.54127 -1.6964 0
M  V30 8644 C 819.334 -0.428778 -1.57052 0
M  V30 8645 O 820.523 -0.697612 -1.64303 0
M  V30 8646 C 817.623 -1.41438 -3.07975 0
M  V30 8647 C 816.796 -2.66974 -3.46474 0
M  V30 8648 C 815.855 -2.48349 -4.63906 0
M  V30 8649 O 814.881 -3.22109 -4.69292 0
M  V30 8650 N 816.083 -1.55129 -5.59388 0
M  V30 8651 H 818.848 -2.50971 -1.6381 0
M  V30 8652 H 816.409 -1.42981 -0.759479 0
M  V30 8653 H 818.401 -1.26737 -3.84343 0
M  V30 8654 H 816.971 -0.527388 -3.08119 0
M  V30 8655 H 816.191 -2.9655 -2.59715 0
M  V30 8656 H 817.479 -3.50347 -3.68964 0
M  V30 8657 H 816.877 -0.94324 -5.57781 0
M  V30 8658 H 815.434 -1.46387 -6.35149 0
M  V30 8659 N 818.867 0.818669 -1.34668 0
M  V30 8660 C 820.095 1.60674 -1.30351 0
M  V30 8661 C 820.51 1.88408 0.121546 0
M  V30 8662 O 819.867 1.47849 1.06991 0
M  V30 8663 C 819.918 2.94516 -2.09625 0
M  V30 8664 O 819.639 2.6799 -3.46573 0
M  V30 8665 C 821.14 3.8891 -2.12754 0
M  V30 8666 H 818.36 0.499306 -0.448258 0
M  V30 8667 H 820.904 1.01828 -1.77345 0
M  V30 8668 H 819.059 3.49908 -1.66262 0
M  V30 8669 H 819.473 3.53361 -3.87603 0
M  V30 8670 H 820.947 4.79972 -2.72637 0
M  V30 8671 H 821.424 4.24599 -1.12306 0
M  V30 8672 H 822.03 3.39453 -2.56225 0
M  V30 8673 N 820.346 1.18468 1.03938 0
M  V30 8674 C 821.574 1.00576 1.80809 0
M  V30 8675 C 821.989 -0.445786 1.83462 0
M  V30 8676 O 821.346 -1.30964 1.27101 0
M  V30 8677 C 821.397 1.55491 3.26351 0
M  V30 8678 O 821.118 2.94963 3.23926 0
M  V30 8679 C 822.619 1.42236 4.19862 0
M  V30 8680 H 819.839 0.35508 0.56935 0
M  V30 8681 H 822.383 1.57046 1.30984 0
M  V30 8682 H 820.538 1.03195 3.73403 0
M  V30 8683 H 820.952 3.20598 4.15111 0
M  V30 8684 H 822.426 1.85455 5.19914 0
M  V30 8685 H 822.903 0.371267 4.37628 0
M  V30 8686 H 823.509 1.9361 3.78675 0
M  V30 8687 N 821.824 -1.22873 0.986916 0
M  V30 8688 C 823.054 -1.95204 0.67668 0
M  V30 8689 C 823.462 -1.73193 -0.761641 0
M  V30 8690 O 822.805 -1.0243 -1.52492 0
M  V30 8691 C 822.867 -3.48173 0.895302 0
M  V30 8692 C 822.531 -3.93912 2.31695 0
M  V30 8693 C 823.528 -4.02064 3.29607 0
M  V30 8694 C 821.213 -4.26722 2.64978 0
M  V30 8695 C 823.207 -4.42391 4.58878 0
M  V30 8696 C 820.894 -4.66729 3.94471 0
M  V30 8697 C 821.892 -4.74531 4.91232 0
M  V30 8698 O 821.58 -5.13636 6.18412 0
M  V30 8699 H 821.312 -0.628105 0.24992 0
M  V30 8700 H 823.866 -1.5714 1.32274 0
M  V30 8701 H 822.096 -3.86223 0.192072 0
M  V30 8702 H 823.785 -4.01717 0.581233 0
M  V30 8703 H 824.551 -3.76912 3.05225 0
M  V30 8704 H 820.43 -4.19858 1.9037 0
M  V30 8705 H 823.974 -4.48395 5.34404 0
M  V30 8706 H 819.871 -4.91332 4.18645 0
M  V30 8707 H 820.639 -5.31728 6.2226 0
M  V30 8708 N 823.302 -0.75937 -1.38099 0
M  V30 8709 C 824.527 -0.327859 -2.04792 0
M  V30 8710 C 824.952 1.03752 -1.56899 0
M  V30 8711 O 824.31 1.66235 -0.723581 0
M  V30 8712 C 824.358 -0.366264 -3.58735 0
M  V30 8713 O 823.462 0.637697 -4.0744 0
M  V30 8714 H 822.803 -0.144092 -0.648177 0
M  V30 8715 H 825.333 -1.03211 -1.7666 0
M  V30 8716 H 825.343 -0.219179 -4.07411 0
M  V30 8717 H 824.018 -1.36243 -3.92951 0
M  V30 8718 H 822.595 0.454749 -3.70117 0
M  V30 8719 N 824.78 1.49157 -0.508906 0
M  V30 8720 C 826.028 2.02073 0.0327335 0
M  V30 8721 C 826.349 1.39012 1.3675 0
M  V30 8722 O 825.619 0.548153 1.88075 0
M  V30 8723 H 824.199 0.746848 0.0150864 0
M  V30 8724 H 826.861 1.83097 -0.667946 0
M  V30 8725 H 825.957 3.11707 0.1566 0
M  V30 8726 N 826.258 0.243083 1.55714 0
M  V30 8727 C 827.504 -0.383287 1.99145 0
M  V30 8728 C 827.837 -1.57868 1.13098 0
M  V30 8729 O 827.112 -1.93535 0.193509 0
M  V30 8730 C 827.395 -0.796879 3.51172 0
M  V30 8731 C 827.248 0.403642 4.47985 0
M  V30 8732 C 828.567 -1.64525 4.08191 0
M  V30 8733 H 825.686 -0.137843 0.723995 0
M  V30 8734 H 828.328 0.343631 1.86867 0
M  V30 8735 H 826.478 -1.41625 3.61766 0
M  V30 8736 H 828.15 1.04204 4.49376 0
M  V30 8737 H 826.393 1.04741 4.20965 0
M  V30 8738 H 827.064 0.0709794 5.51954 0
M  V30 8739 H 829.54 -1.12246 4.00674 0
M  V30 8740 H 828.416 -1.9035 5.14838 0
M  V30 8741 H 828.677 -2.61582 3.56409 0
M  V30 8742 N 827.736 -1.57571 -0.0300757 0
M  V30 8743 C 828.985 -1.88407 -0.720126 0
M  V30 8744 C 829.298 -0.841466 -1.76575 0
M  V30 8745 O 830.504 -1.03902 -2.50832 0
M  V30 8746 C 828.96 -3.34348 -1.33188 0
M  V30 8747 C 828.568 -4.46837 -0.32266 0
M  V30 8748 C 830.312 -3.74333 -2.00187 0
M  V30 8749 C 828.219 -5.83838 -0.942703 0
M  V30 8750 H 827.149 -0.702952 -0.272718 0
M  V30 8751 H 829.8 -1.83482 0.0255337 0
M  V30 8752 H 828.182 -3.34014 -2.12721 0
M  V30 8753 H 829.356 -4.58638 0.445887 0
M  V30 8754 H 827.671 -4.15678 0.245181 0
M  V30 8755 H 830.268 -4.74008 -2.47428 0
M  V30 8756 H 830.611 -3.06275 -2.81959 0
M  V30 8757 H 831.144 -3.76837 -1.2743 0
M  V30 8758 H 827.883 -6.55294 -0.164413 0
M  V30 8759 H 827.403 -5.75759 -1.68111 0
M  V30 8760 H 829.082 -6.30535 -1.45034 0
M  V30 8761 N 829.214 0.302327 -1.54673 0
M  V30 8762 C 830.491 1.05721 -1.64567 0
M  V30 8763 C 830.871 2.0526 -0.493108 0
M  V30 8764 O 830.219 2.22729 0.510315 0
M  V30 8765 C 830.429 1.74025 -3.02517 0
M  V30 8766 C 831.777 2.26271 -3.59286 0
M  V30 8767 O 832.801 1.8406 -3.0496 0
M  V30 8768 O 831.66 3.0361 -4.54404 0
M  V30 8769 H 828.754 0.488577 -0.667249 0
M  V30 8770 H 831.3 0.300521 -1.67018 0
M  V30 8771 H 830.072 1.0174 -3.77842 0
M  V30 8772 H 829.695 2.56454 -3.03838 0
M  V30 8773 N 830.692 1.47107 0.565454 0
M  V30 8774 C 831.932 1.5488 1.33385 0
M  V30 8775 C 832.296 0.202804 1.90926 0
M  V30 8776 O 833.497 0.155345 2.68351 0
M  V30 8777 C 831.768 2.62969 2.42037 0
M  V30 8778 S 833.327 2.90269 3.29074 0
M  V30 8779 H 830.145 0.547008 0.454206 0
M  V30 8780 H 832.747 1.8444 0.648228 0
M  V30 8781 H 831.451 3.59376 1.98185 0
M  V30 8782 H 830.982 2.35197 3.15351 0
M  V30 8783 H 832.997 2.26854 4.41307 0
M  V30 8784 N 832.17 -0.811516 1.35101 0
M  V30 8785 C 833.417 -1.56835 1.28098 0
M  V30 8786 C 833.745 -1.93951 -0.14597 0
M  V30 8787 O 833 -1.61173 -1.11004 0
M  V30 8788 C 833.299 -2.87121 2.1283 0
M  V30 8789 C 832.965 -2.69245 3.61688 0
M  V30 8790 C 831.627 -2.64078 4.02264 0
M  V30 8791 C 833.979 -2.52122 4.56162 0
M  V30 8792 C 831.307 -2.39724 5.3549 0
M  V30 8793 C 833.659 -2.29298 5.89581 0
M  V30 8794 C 832.323 -2.2255 6.29307 0
M  V30 8795 H 831.593 -0.5739 0.468742 0
M  V30 8796 H 834.24 -0.93806 1.66951 0
M  V30 8797 H 832.545 -3.54502 1.66841 0
M  V30 8798 H 834.242 -3.44788 2.0475 0
M  V30 8799 H 830.832 -2.74112 3.29485 0
M  V30 8800 H 835.016 -2.5513 4.25702 0
M  V30 8801 H 830.272 -2.32965 5.65276 0
M  V30 8802 H 834.446 -2.15038 6.62368 0
M  V30 8803 H 832.073 -2.0344 7.32473 0
M  V30 8804 N 833.648 -1.19017 -1.03309 0
M  V30 8805 C 835.064 -0.941483 -1.28873 0
M  V30 8806 C 835.264 0.388587 -1.97718 0
M  V30 8807 O 834.32 1.12111 -2.26246 0
M  V30 8808 C 835.633 -2.11249 -2.13996 0
M  V30 8809 C 837.181 -2.15164 -2.27318 0
M  V30 8810 C 837.656 -3.31704 -3.15811 0
M  V30 8811 N 839.147 -3.31613 -3.23399 0
M  V30 8812 C 839.882 -4.18431 -3.9205 0
M  V30 8813 N 839.378 -5.15397 -4.62966 0
M  V30 8814 N 841.171 -4.06321 -3.88406 0
M  V30 8815 H 833.322 -2.04599 -0.570343 0
M  V30 8816 H 835.585 -0.894406 -0.314232 0
M  V30 8817 H 835.291 -3.07482 -1.70727 0
M  V30 8818 H 835.165 -2.07955 -3.14697 0
M  V30 8819 H 837.552 -1.19504 -2.6982 0
M  V30 8820 H 837.633 -2.22513 -1.26182 0
M  V30 8821 H 837.277 -4.2764 -2.74019 0
M  V30 8822 H 837.207 -3.21592 -4.16997 0
M  V30 8823 H 839.698 -2.6142 -2.72888 0
M  V30 8824 H 840.011 -5.78 -5.12968 0
M  V30 8825 H 838.356 -5.19349 -4.61846 0
M  V30 8826 H 841.547 -3.29849 -3.3214 0
M  V30 8827 H 841.72 -4.74196 -4.41635 0
M  V30 8828 N 835.127 1.22348 -0.993418 0
M  V30 8829 C 836.074 2.24294 -0.544118 0
M  V30 8830 C 837.044 1.60602 0.42381 0
M  V30 8831 O 838.229 1.87952 0.328453 0
M  V30 8832 C 835.369 3.44837 0.134578 0
M  V30 8833 C 834.482 4.23043 -0.875151 0
M  V30 8834 C 833.617 5.30928 -0.169919 0
M  V30 8835 C 832.656 6.00853 -1.16798 0
M  V30 8836 N 831.793 7.00381 -0.491021 0
M  V30 8837 H 836.633 2.6209 -1.4182 0
M  V30 8838 H 834.17 1.2881 -0.710384 0
M  V30 8839 H 836.128 4.13625 0.544998 0
M  V30 8840 H 834.758 3.07804 0.972446 0
M  V30 8841 H 833.81 3.53546 -1.40389 0
M  V30 8842 H 835.122 4.71237 -1.63516 0
M  V30 8843 H 834.276 6.05972 0.297205 0
M  V30 8844 H 833.015 4.8371 0.622586 0
M  V30 8845 H 832.02 5.24591 -1.64573 0
M  V30 8846 H 833.245 6.50159 -1.96137 0
M  V30 8847 H 831.191 6.55393 0.282037 0
M  V30 8848 H 831.108 7.46584 -1.18947 0
M  V30 8849 H 832.376 7.79486 -0.0467169 0
M  V30 8850 N 836.605 0.766683 1.37694 0
M  V30 8851 C 837.854 0.325425 1.99057 0
M  V30 8852 C 838.167 -1.10275 1.61551 0
M  V30 8853 O 839.373 -1.64513 2.1598 0
M  V30 8854 C 837.829 0.530886 3.55963 0
M  V30 8855 C 837.437 1.96899 4.02411 0
M  V30 8856 C 839.181 0.152997 4.24224 0
M  V30 8857 C 837.088 2.12232 5.52007 0
M  V30 8858 H 836.018 0.117929 0.744721 0
M  V30 8859 H 838.669 0.945091 1.5729 0
M  V30 8860 H 837.051 -0.158162 3.95684 0
M  V30 8861 H 838.225 2.69258 3.73948 0
M  V30 8862 H 836.54 2.303 3.46916 0
M  V30 8863 H 839.137 0.24614 5.34133 0
M  V30 8864 H 839.48 -0.896096 4.06541 0
M  V30 8865 H 840.013 0.794398 3.89787 0
M  V30 8866 H 836.752 3.15442 5.7461 0
M  V30 8867 H 836.272 1.4435 5.82171 0
M  V30 8868 H 837.951 1.9185 6.17902 0
M  V30 8869 N 838.083 -1.48885 0.516809 0
M  V30 8870 C 839.013 -2.32241 -0.242157 0
M  V30 8871 C 839.994 -1.41258 -0.947633 0
M  V30 8872 O 841.179 -1.70156 -0.935973 0
M  V30 8873 C 838.309 -3.22151 -1.29754 0
M  V30 8874 C 837.263 -4.22053 -0.710995 0
M  V30 8875 C 836.589 -5.01007 -1.86806 0
M  V30 8876 C 837.889 -5.21388 0.30853 0
M  V30 8877 H 839.583 -2.95943 0.453651 0
M  V30 8878 H 837.129 -1.42316 0.219612 0
M  V30 8879 H 839.082 -3.79284 -1.83634 0
M  V30 8880 H 837.806 -2.56423 -2.02274 0
M  V30 8881 H 836.465 -3.66087 -0.193819 0
M  V30 8882 H 836.113 -4.31713 -2.58133 0
M  V30 8883 H 835.813 -5.68615 -1.48159 0
M  V30 8884 H 837.337 -5.60989 -2.4109 0
M  V30 8885 H 838.751 -5.73122 -0.142703 0
M  V30 8886 H 837.148 -5.96975 0.611673 0
M  V30 8887 H 838.218 -4.69329 1.21894 0
M  V30 8888 N 839.561 -0.251338 -1.55583 0
M  V30 8889 C 840.977 0.103409 -1.59265 0
M  V30 8890 C 841.177 1.56559 -1.26852 0
M  V30 8891 O 840.233 2.31071 -1.01796 0
M  V30 8892 C 841.546 -0.249781 -2.99661 0
M  V30 8893 C 843.094 -0.194442 -3.12395 0
M  V30 8894 C 843.569 -0.521728 -4.55019 0
M  V30 8895 N 845.06 -0.472393 -4.60785 0
M  V30 8896 C 845.795 -0.698737 -5.69127 0
M  V30 8897 N 845.291 -0.988443 -6.85713 0
M  V30 8898 N 847.084 -0.629143 -5.58568 0
M  V30 8899 H 839.235 -1.20484 -1.74921 0
M  V30 8900 H 841.498 -0.485092 -0.814488 0
M  V30 8901 H 841.204 -1.26577 -3.28133 0
M  V30 8902 H 841.078 0.420973 -3.74844 0
M  V30 8903 H 843.465 0.812229 -2.83702 0
M  V30 8904 H 843.546 -0.899111 -2.39478 0
M  V30 8905 H 843.19 -1.52597 -4.84434 0
M  V30 8906 H 843.12 0.204468 -5.26203 0
M  V30 8907 H 845.611 -0.257386 -3.77022 0
M  V30 8908 H 845.924 -1.14846 -7.64219 0
M  V30 8909 H 844.269 -1.02596 -6.87386 0
M  V30 8910 H 847.46 -0.402826 -4.66364 0
M  V30 8911 H 847.633 -0.808935 -6.42931 0
M  V30 8912 N 841.039 1.57585 0.0217189 0
M  V30 8913 C 841.949 2.10444 1.03684 0
M  V30 8914 C 842.965 1.04472 1.39146 0
M  V30 8915 O 844.141 1.36249 1.48317 0
M  V30 8916 C 841.206 2.5794 2.31664 0
M  V30 8917 C 840.267 3.78425 2.02714 0
M  V30 8918 C 839.5 4.23646 3.24592 0
M  V30 8919 O 839.723 3.6834 4.35525 0
M  V30 8920 O 838.657 5.16013 3.09862 0
M  V30 8921 H 842.483 2.97354 0.617584 0
M  V30 8922 H 840.068 1.47473 0.239174 0
M  V30 8923 H 841.95 2.88785 3.06889 0
M  V30 8924 H 840.625 1.74138 2.7287 0
M  V30 8925 H 839.532 3.52587 1.25033 0
M  V30 8926 H 840.865 4.63234 1.66359 0
M  V30 8927 N 842.517 -0.29412 1.54831 0
M  V30 8928 C 843.427 -1.3854 1.89325 0
M  V30 8929 C 844.443 -1.55127 0.788133 0
M  V30 8930 O 845.619 -1.6966 1.08524 0
M  V30 8931 C 842.684 -2.72809 2.13954 0
M  V30 8932 C 841.745 -2.65148 3.37631 0
M  V30 8933 C 840.978 -3.93014 3.61076 0
M  V30 8934 O 841.201 -4.927 2.87406 0
M  V30 8935 O 840.135 -3.94491 4.54599 0
M  V30 8936 H 843.961 -1.12289 2.82179 0
M  V30 8937 H 841.546 -0.490793 1.41108 0
M  V30 8938 H 843.428 -3.52238 2.31315 0
M  V30 8939 H 842.103 -2.9889 1.24285 0
M  V30 8940 H 841.01 -1.84168 3.25627 0
M  V30 8941 H 842.343 -2.4402 4.27452 0
M  V30 8942 N 843.995 -1.47404 -0.557645 0
M  V30 8943 C 845.243 -1.53703 -1.31224 0
M  V30 8944 C 845.564 -0.200742 -1.93964 0
M  V30 8945 O 844.834 0.775253 -1.79907 0
M  V30 8946 H 843.414 -0.566171 -0.487299 0
M  V30 8947 H 846.076 -1.83699 -0.651195 0
M  V30 8948 H 845.172 -2.30335 -2.10599 0
M  V30 8949 N 845.473 0.80434 -1.35529 0
M  V30 8950 C 846.884 1.37849 -1.25915 0
M  V30 8951 C 847.235 1.95905 0.107495 0
M  V30 8952 O 846.36 1.91462 1.00852 0
M  V30 8953 C 846.955 2.50608 -2.27994 0
M  V30 8954 C 845.514 3.03879 -2.22114 0
M  V30 8955 C 844.661 1.76856 -2.13582 0
M  V30 8956 H 847.612 0.607192 -1.46625 0
M  V30 8957 H 847.633 3.29221 -1.90772 0
M  V30 8958 H 847.145 2.08323 -3.27449 0
M  V30 8959 H 845.246 3.50622 -1.26077 0
M  V30 8960 H 845.359 3.61707 -3.14173 0
M  V30 8961 H 843.723 1.98498 -1.59595 0
M  V30 8962 H 844.506 1.36721 -3.14901 0
M  V30 8963 N 846.951 1.19563 1.02676 0
M  V30 8964 C 848.176 1.02556 1.80269 0
M  V30 8965 C 848.601 -0.421056 1.83327 0
M  V30 8966 O 847.959 -1.30279 1.26084 0
M  V30 8967 C 848.007 1.60165 3.23078 0
M  V30 8968 O 847.111 0.832404 4.03912 0
M  V30 8969 H 846.452 0.362354 0.556413 0
M  V30 8970 H 848.982 1.58633 1.29216 0
M  V30 8971 H 848.992 1.6347 3.7382 0
M  V30 8972 H 847.667 2.65454 3.20167 0
M  V30 8973 H 846.244 0.872768 3.62543 0
M  V30 8974 N 848.429 -1.21819 0.999893 0
M  V30 8975 C 849.392 -2.22227 0.561044 0
M  V30 8976 C 850.392 -1.56722 -0.359858 0
M  V30 8977 O 851.582 -1.73546 -0.150848 0
M  V30 8978 C 848.714 -3.40409 -0.182987 0
M  V30 8979 H 849.907 -2.62567 1.44909 0
M  V30 8980 H 847.46 -1.34991 0.78785 0
M  V30 8981 H 848.195 -3.05551 -1.08671 0
M  V30 8982 H 847.98 -3.89171 0.47833 0
M  V30 8983 H 849.47 -4.14856 -0.477952 0
M  V30 8984 N 849.908 -0.773975 -1.37286 0
M  V30 8985 C 851.155 -0.339306 -1.99637 0
M  V30 8986 C 851.483 1.08478 -1.61439 0
M  V30 8987 O 850.738 1.7612 -0.853252 0
M  V30 8988 C 851.037 -0.432651 -3.54772 0
M  V30 8989 C 850.703 -1.81531 -4.12744 0
M  V30 8990 C 849.365 -2.19366 -4.2829 0
M  V30 8991 C 851.717 -2.72137 -4.44512 0
M  V30 8992 C 849.045 -3.47239 -4.72908 0
M  V30 8993 C 851.397 -3.99421 -4.90556 0
M  V30 8994 C 850.061 -4.37298 -5.04308 0
M  V30 8995 H 849.331 -0.124161 -0.730524 0
M  V30 8996 H 851.978 -0.988432 -1.64019 0
M  V30 8997 H 850.283 0.30001 -3.9065 0
M  V30 8998 H 851.98 -0.0776 -4.00925 0
M  V30 8999 H 848.57 -1.51126 -4.01072 0
M  V30 9000 H 852.754 -2.44165 -4.32084 0
M  V30 9001 H 848.01 -3.76477 -4.81742 0
M  V30 9002 H 852.184 -4.69756 -5.14104 0
M  V30 9003 H 849.811 -5.36442 -5.38641 0
M  V30 9004 N 851.386 1.48609 -0.524698 0
M  V30 9005 C 852.632 2.034 0.00323579 0
M  V30 9006 C 852.987 1.39513 1.32491 0
M  V30 9007 O 852.28 0.529876 1.84127 0
M  V30 9008 C 852.474 3.56906 0.187873 0
M  V30 9009 C 852.303 4.35674 -1.11436 0
M  V30 9010 C 851.073 4.76809 -1.67276 0
M  V30 9011 C 853.271 4.72814 -2.02365 0
M  V30 9012 N 851.253 5.40093 -2.91843 0
M  V30 9013 C 852.624 5.36062 -3.11508 0
M  V30 9014 C 854.679 4.54747 -2.02755 0
M  V30 9015 C 853.382 5.83154 -4.21099 0
M  V30 9016 C 855.408 5.02815 -3.11337 0
M  V30 9017 C 854.77 5.66084 -4.19199 0
M  V30 9018 H 850.869 0.780967 -0.0401842 0
M  V30 9019 H 853.453 1.81495 -0.704808 0
M  V30 9020 H 851.624 3.78645 0.864996 0
M  V30 9021 H 853.356 3.98335 0.714938 0
M  V30 9022 H 850.111 4.57754 -1.21483 0
M  V30 9023 H 850.535 5.76305 -3.55249 0
M  V30 9024 H 855.177 4.05217 -1.20661 0
M  V30 9025 H 852.895 6.31692 -5.03975 0
M  V30 9026 H 856.481 4.9063 -3.12688 0
M  V30 9027 H 855.361 6.02604 -5.01834 0
M  V30 9028 N 852.864 0.259585 1.55447 0
M  V30 9029 C 853.811 -0.634578 2.21905 0
M  V30 9030 C 854.781 -1.16168 1.18719 0
M  V30 9031 O 855.966 -1.21383 1.4721 0
M  V30 9032 C 853.106 -1.82005 2.93203 0
M  V30 9033 C 852.219 -1.32828 4.11073 0
M  V30 9034 C 851.354 -2.47431 4.70055 0
M  V30 9035 C 850.393 -1.95179 5.80148 0
M  V30 9036 N 849.53 -3.03197 6.33258 0
M  V30 9037 H 854.37 -0.0611886 2.97937 0
M  V30 9038 H 851.907 -0.0184378 1.47088 0
M  V30 9039 H 853.865 -2.51664 3.32748 0
M  V30 9040 H 852.495 -2.36571 2.19622 0
M  V30 9041 H 851.547 -0.525301 3.76756 0
M  V30 9042 H 852.859 -0.905435 4.90513 0
M  V30 9043 H 852.013 -3.25111 5.12238 0
M  V30 9044 H 850.752 -2.93023 3.89857 0
M  V30 9045 H 849.757 -1.15974 5.37429 0
M  V30 9046 H 850.982 -1.50541 6.62204 0
M  V30 9047 H 848.928 -3.48199 5.55961 0
M  V30 9048 H 848.845 -2.65282 7.07928 0
M  V30 9049 H 850.113 -3.80898 6.80101 0
M  V30 9050 N 854.342 -1.57594 -0.0133615 0
M  V30 9051 C 855.59 -1.89605 -0.699596 0
M  V30 9052 C 855.911 -0.85926 -1.75048 0
M  V30 9053 O 855.181 0.105112 -1.95618 0
M  V30 9054 H 853.761 -0.699776 -0.261385 0
M  V30 9055 H 856.423 -1.94885 0.0244044 0
M  V30 9056 H 855.519 -2.88962 -1.17928 0
M  V30 9057 N 855.82 0.285905 -1.54985 0
M  V30 9058 C 857.048 1.03776 -1.78992 0
M  V30 9059 C 857.463 1.80402 -0.556814 0
M  V30 9060 O 856.82 1.76242 0.473801 0
M  V30 9061 C 856.871 2.0065 -3.00702 0
M  V30 9062 O 856.592 1.27131 -4.19249 0
M  V30 9063 C 858.093 2.87753 -3.37214 0
M  V30 9064 H 855.313 0.307126 -0.596586 0
M  V30 9065 H 857.857 0.3206 -2.01971 0
M  V30 9066 H 856.012 2.67847 -2.79887 0
M  V30 9067 H 856.426 1.92316 -4.8797 0
M  V30 9068 H 857.9 3.51548 -4.2558 0
M  V30 9069 H 858.377 3.56848 -2.56039 0
M  V30 9070 H 858.983 2.26065 -3.60242 0
M  V30 9071 N 857.298 1.47698 0.54982 0
M  V30 9072 C 858.261 1.60282 1.63837 0
M  V30 9073 C 859.261 0.477394 1.5355 0
M  V30 9074 O 860.451 0.742665 1.57576 0
M  V30 9075 C 857.583 1.55431 3.03404 0
M  V30 9076 H 858.776 2.57325 1.54026 0
M  V30 9077 H 856.329 1.35999 0.770329 0
M  V30 9078 H 857.064 0.597912 3.1874 0
M  V30 9079 H 856.849 2.37116 3.12279 0
M  V30 9080 H 858.339 1.6739 3.82584 0
M  V30 9081 N 858.776 -0.797141 1.35954 0
M  V30 9082 C 859.739 -1.89104 1.29508 0
M  V30 9083 C 860.739 -1.59495 0.204444 0
M  V30 9084 O 861.929 -1.68051 0.458746 0
M  V30 9085 C 859.061 -3.25726 1.00576 0
M  V30 9086 H 860.254 -1.96237 2.26785 0
M  V30 9087 H 857.807 -0.994075 1.20614 0
M  V30 9088 H 858.542 -3.24279 0.0372519 0
M  V30 9089 H 858.327 -3.48604 1.79492 0
M  V30 9090 H 859.817 -4.0578 0.986508 0
M  V30 9091 N 860.254 -1.20106 -1.0204 0
M  V30 9092 C 861.67 -0.955099 -1.27867 0
M  V30 9093 C 861.87 0.367595 -1.98119 0
M  V30 9094 O 860.926 1.09705 -2.27423 0
M  V30 9095 C 862.239 -2.13507 -2.11744 0
M  V30 9096 C 863.787 -2.17563 -2.25023 0
M  V30 9097 C 864.262 -3.35035 -3.12275 0
M  V30 9098 N 865.753 -3.35024 -3.19864 0
M  V30 9099 C 866.488 -4.22566 -3.8759 0
M  V30 9100 N 865.984 -5.20278 -4.57474 0
M  V30 9101 N 867.777 -4.10418 -3.84075 0
M  V30 9102 H 859.928 -2.05193 -0.54861 0
M  V30 9103 H 862.191 -0.897689 -0.304728 0
M  V30 9104 H 861.897 -3.09275 -1.67456 0
M  V30 9105 H 861.771 -2.11281 -3.12474 0
M  V30 9106 H 864.158 -1.22359 -2.68537 0
M  V30 9107 H 864.239 -2.23838 -1.23815 0
M  V30 9108 H 863.883 -4.30522 -2.69468 0
M  V30 9109 H 863.813 -3.25996 -4.13563 0
M  V30 9110 H 866.304 -2.64299 -2.701 0
M  V30 9111 H 866.617 -5.83408 -5.06809 0
M  V30 9112 H 864.962 -5.24219 -4.56311 0
M  V30 9113 H 868.153 -3.33353 -3.28623 0
M  V30 9114 H 868.326 -4.78854 -4.36581 0
M  V30 9115 N 861.732 1.21287 -1.00634 0
M  V30 9116 C 862.978 1.90671 -0.690822 0
M  V30 9117 C 863.311 1.77996 0.776592 0
M  V30 9118 O 862.586 1.15748 1.5631 0
M  V30 9119 C 862.869 3.42426 -1.11428 0
M  V30 9120 C 862.722 3.64086 -2.64124 0
M  V30 9121 C 864.041 4.34851 -0.677686 0
M  V30 9122 H 861.16 0.692419 -0.252439 0
M  V30 9123 H 863.802 1.42893 -1.25226 0
M  V30 9124 H 861.952 3.83249 -0.636586 0
M  V30 9125 H 863.624 3.32582 -3.19667 0
M  V30 9126 H 861.867 3.07906 -3.05576 0
M  V30 9127 H 862.538 4.7042 -2.88806 0
M  V30 9128 H 865.014 4.01619 -1.0882 0
M  V30 9129 H 863.89 5.39675 -1.00213 0
M  V30 9130 H 864.151 4.4009 0.421125 0
M  V30 9131 N 863.21 0.781244 1.36873 0
M  V30 9132 C 864.457 0.349889 1.99454 0
M  V30 9133 C 864.785 -1.07621 1.62013 0
M  V30 9134 O 864.04 -1.75665 0.86258 0
M  V30 9135 C 864.339 0.45146 3.54537 0
M  V30 9136 C 864.005 1.83718 4.11775 0
M  V30 9137 C 862.667 2.21634 4.2712 0
M  V30 9138 C 865.019 2.7449 4.43063 0
M  V30 9139 C 862.347 3.49742 4.7106 0
M  V30 9140 C 864.699 4.02017 4.88431 0
M  V30 9141 C 863.363 4.39967 5.01982 0
M  V30 9142 H 862.633 0.128033 0.729855 0
M  V30 9143 H 865.28 0.997117 1.63493 0
M  V30 9144 H 863.585 -0.279288 3.90803 0
M  V30 9145 H 865.282 0.0988609 4.00878 0
M  V30 9146 H 861.872 1.53251 4.00265 0
M  V30 9147 H 866.056 2.46453 4.30783 0
M  V30 9148 H 861.312 3.79026 4.79738 0
M  V30 9149 H 865.486 4.72475 5.11605 0
M  V30 9150 H 863.113 5.39291 5.35788 0
M  V30 9151 N 864.689 -1.48329 0.532571 0
M  V30 9152 C 866.105 -1.58458 0.190605 0
M  V30 9153 C 866.305 -1.53427 -1.30623 0
M  V30 9154 O 865.361 -1.4247 -2.08467 0
M  V30 9155 C 866.674 -2.89989 0.79543 0
M  V30 9156 C 868.222 -3.03523 0.7644 0
M  V30 9157 C 868.697 -4.37718 1.34785 0
M  V30 9158 N 870.188 -4.44292 1.30993 0
M  V30 9159 C 870.923 -5.4664 1.73124 0
M  V30 9160 N 870.419 -6.5593 2.22997 0
M  V30 9161 N 872.212 -5.37538 1.64346 0
M  V30 9162 H 864.363 -1.49842 1.50537 0
M  V30 9163 H 866.626 -0.71164 0.626316 0
M  V30 9164 H 866.332 -2.99333 1.84642 0
M  V30 9165 H 866.206 -3.76203 0.27403 0
M  V30 9166 H 868.593 -2.93789 -0.277831 0
M  V30 9167 H 868.674 -2.18912 1.3233 0
M  V30 9168 H 868.318 -4.48206 2.38902 0
M  V30 9169 H 868.248 -5.21019 0.764609 0
M  V30 9170 H 870.739 -3.65897 0.944868 0
M  V30 9171 H 871.052 -7.30167 2.53133 0
M  V30 9172 H 869.397 -6.56886 2.26992 0
M  V30 9173 H 872.588 -4.51052 1.25178 0
M  V30 9174 H 872.761 -6.17169 1.97501 0
M  V30 9175 N 866.167 -0.267825 -1.55308 0
M  V30 9176 C 867.392 0.357487 -2.04296 0
M  V30 9177 C 867.817 1.49222 -1.14518 0
M  V30 9178 O 867.175 1.80741 -0.142292 0
M  V30 9179 C 867.223 0.822899 -3.51085 0
M  V30 9180 O 866.327 1.93078 -3.6441 0
M  V30 9181 H 865.668 0.075025 -0.659748 0
M  V30 9182 H 868.198 -0.399996 -2.00652 0
M  V30 9183 H 868.208 1.12059 -3.92309 0
M  V30 9184 H 866.883 -0.0073562 -4.15899 0
M  V30 9185 H 865.46 1.63618 -3.35087 0
M  V30 9186 N 867.645 1.57599 0.00500368 0
M  V30 9187 C 868.87 1.95026 0.705663 0
M  V30 9188 C 869.295 0.869643 1.6679 0
M  V30 9189 O 868.653 -0.172659 1.80476 0
M  V30 9190 C 868.701 3.31545 1.4181 0
M  V30 9191 O 867.805 3.25495 2.53232 0
M  V30 9192 H 867.146 0.636808 0.188074 0
M  V30 9193 H 869.676 2.04547 -0.046696 0
M  V30 9194 H 869.686 3.66996 1.78265 0
M  V30 9195 H 868.361 4.09751 0.712543 0
M  V30 9196 H 866.938 3.01714 2.19142 0
M  V30 9197 N 869.123 -0.277682 1.55134 0
M  V30 9198 C 870.534 -0.849063 1.66276 0
M  V30 9199 C 870.885 -1.87223 0.5867 0
M  V30 9200 O 870.01 -2.14676 -0.272635 0
M  V30 9201 C 870.605 -1.54681 3.01429 0
M  V30 9202 C 869.164 -2.06628 3.14614 0
M  V30 9203 C 868.311 -0.906748 2.62056 0
M  V30 9204 H 871.262 -0.0541357 1.58608 0
M  V30 9205 H 871.283 -2.41356 2.94156 0
M  V30 9206 H 870.795 -0.80189 3.79725 0
M  V30 9207 H 868.896 -2.84095 2.41082 0
M  V30 9208 H 869.009 -2.2848 4.2111 0
M  V30 9209 H 867.373 -1.29882 2.19095 0
M  V30 9210 H 868.156 -0.175414 3.42852 0
M  V30 9211 N 870.601 -1.47988 -0.541979 0
M  V30 9212 C 871.533 -1.5769 -1.66332 0
M  V30 9213 C 872.546 -0.461994 -1.56107 0
M  V30 9214 O 873.735 -0.732306 -1.62787 0
M  V30 9215 C 870.835 -1.47939 -3.04905 0
M  V30 9216 C 870.008 -2.74263 -3.40733 0
M  V30 9217 C 869.067 -2.58133 -4.58534 0
M  V30 9218 O 868.093 -3.31991 -4.62354 0
M  V30 9219 N 869.295 -1.6696 -5.55972 0
M  V30 9220 H 872.06 -2.54389 -1.5845 0
M  V30 9221 H 869.621 -1.4456 -0.728979 0
M  V30 9222 H 871.613 -1.34861 -3.81569 0
M  V30 9223 H 870.183 -0.592626 -3.06931 0
M  V30 9224 H 869.403 -3.01992 -2.53366 0
M  V30 9225 H 870.691 -3.58094 -3.6145 0
M  V30 9226 H 870.089 -1.06134 -5.55655 0
M  V30 9227 H 868.646 -1.59826 -6.31901 0
M  V30 9228 N 872.079 0.78992 -1.36375 0
M  V30 9229 C 873.326 1.54777 -1.30576 0
M  V30 9230 C 873.654 1.94159 0.115095 0
M  V30 9231 O 872.909 1.62918 1.08426 0
M  V30 9232 C 873.208 2.83698 -2.17371 0
M  V30 9233 C 872.874 2.63457 -3.65925 0
M  V30 9234 C 871.536 2.57645 -4.06415 0
M  V30 9235 C 873.888 2.44833 -4.60115 0
M  V30 9236 C 871.216 2.31174 -5.39236 0
M  V30 9237 C 873.568 2.19889 -5.93154 0
M  V30 9238 C 872.232 2.1251 -6.32768 0
M  V30 9239 H 871.502 0.566371 -0.477813 0
M  V30 9240 H 874.149 0.91138 -1.68422 0
M  V30 9241 H 872.454 3.51802 -1.72459 0
M  V30 9242 H 874.151 3.41487 -2.10209 0
M  V30 9243 H 870.741 2.68836 -3.33804 0
M  V30 9244 H 874.925 2.48325 -4.29707 0
M  V30 9245 H 870.181 2.23942 -5.68911 0
M  V30 9246 H 874.355 2.04473 -6.65705 0
M  V30 9247 H 871.982 1.91761 -7.35616 0
M  V30 9248 N 873.557 1.20646 1.01402 0
M  V30 9249 C 874.805 1.01618 1.74695 0
M  V30 9250 C 875.126 -0.452438 1.89679 0
M  V30 9251 O 874.396 -1.32693 1.44116 0
M  V30 9252 H 872.976 0.373013 0.647202 0
M  V30 9253 H 875.638 1.518 1.22241 0
M  V30 9254 H 874.734 1.47666 2.74957 0
M  V30 9255 N 875.035 -1.20752 1.01276 0
M  V30 9256 C 876.281 -1.90302 0.700924 0
M  V30 9257 C 876.614 -1.78406 -0.767142 0
M  V30 9258 O 875.889 -1.16575 -1.55694 0
M  V30 9259 C 876.172 -3.41831 1.13242 0
M  V30 9260 C 876.025 -3.6268 2.66051 0
M  V30 9261 C 877.344 -4.34486 0.700738 0
M  V30 9262 H 874.463 -0.69107 0.256107 0
M  V30 9263 H 877.105 -1.42227 1.25982 0
M  V30 9264 H 875.255 -3.82906 0.656902 0
M  V30 9265 H 876.927 -3.30882 3.21426 0
M  V30 9266 H 875.17 -3.06281 3.07204 0
M  V30 9267 H 875.841 -4.68882 2.91296 0
M  V30 9268 H 878.317 -4.01036 1.10948 0
M  V30 9269 H 877.193 -5.39136 1.03073 0
M  V30 9270 H 877.454 -4.40307 -0.39778 0
M  V30 9271 N 876.513 -0.788492 -1.36457 0
M  V30 9272 C 877.741 -0.372365 -2.03522 0
M  V30 9273 C 878.156 1.01093 -1.59454 0
M  V30 9274 O 877.513 1.64824 -0.783535 0
M  V30 9275 C 877.564 -0.425435 -3.58988 0
M  V30 9276 O 877.285 -1.75418 -4.01448 0
M  V30 9277 C 878.786 0.000180167 -4.433 0
M  V30 9278 H 876.006 -0.1536 -0.653183 0
M  V30 9279 H 878.55 -1.06708 -1.74452 0
M  V30 9280 H 876.705 0.220856 -3.8677 0
M  V30 9281 H 877.119 -1.70437 -4.96036 0
M  V30 9282 H 878.593 -0.0880919 -5.5193 0
M  V30 9283 H 879.07 1.05269 -4.26398 0
M  V30 9284 H 879.676 -0.618563 -4.20778 0
M  V30 9285 N 877.991 1.48044 -0.54043 0
M  V30 9286 C 878.921 2.32597 0.205178 0
M  V30 9287 C 879.902 1.42748 0.925041 0
M  V30 9288 O 881.087 1.71624 0.908784 0
M  V30 9289 C 878.217 3.24175 1.24612 0
M  V30 9290 C 877.171 4.23131 0.64376 0
M  V30 9291 C 876.497 5.03915 1.78812 0
M  V30 9292 C 877.797 5.20831 -0.39144 0
M  V30 9293 H 879.491 2.95184 -0.500676 0
M  V30 9294 H 877.037 1.41948 -0.242225 0
M  V30 9295 H 878.99 3.82158 1.77576 0
M  V30 9296 H 877.714 2.59608 1.98169 0
M  V30 9297 H 876.373 3.66349 0.135554 0
M  V30 9298 H 876.021 4.35765 2.51232 0
M  V30 9299 H 875.721 5.709 1.39094 0
M  V30 9300 H 877.245 5.64753 2.32134 0
M  V30 9301 H 878.659 5.73277 0.0515064 0
M  V30 9302 H 877.056 5.95926 -0.706569 0
M  V30 9303 H 878.126 4.6733 -1.29345 0
M  V30 9304 N 879.47 0.276058 1.55163 0
M  V30 9305 C 880.716 -0.340959 1.99913 0
M  V30 9306 C 881.049 -1.55434 1.16422 0
M  V30 9307 O 880.324 -1.93081 0.234517 0
M  V30 9308 C 880.607 -0.722211 3.52783 0
M  V30 9309 C 880.46 0.498575 4.47028 0
M  V30 9310 C 881.779 -1.5583 4.11589 0
M  V30 9311 H 878.898 -0.122455 0.726756 0
M  V30 9312 H 881.54 0.38319 1.86096 0
M  V30 9313 H 879.69 -1.33919 3.64689 0
M  V30 9314 H 881.362 1.13713 4.47065 0
M  V30 9315 H 879.605 1.13646 4.18649 0
M  V30 9316 H 880.276 0.188041 5.5168 0
M  V30 9317 H 882.752 -1.03722 4.02965 0
M  V30 9318 H 881.628 -1.79387 5.1876 0
M  V30 9319 H 881.889 -2.53963 3.61877 0
M  V30 9320 N 880.948 -1.576 0.00335426 0
M  V30 9321 C 882.176 -1.94996 -0.691685 0
M  V30 9322 C 882.591 -0.878405 -1.67121 0
M  V30 9323 O 881.948 0.142343 -1.81944 0
M  V30 9324 C 881.999 -3.32416 -1.42063 0
M  V30 9325 O 881.72 -4.35458 -0.48038 0
M  V30 9326 C 883.221 -3.84291 -2.20987 0
M  V30 9327 H 880.441 -0.642814 -0.192434 0
M  V30 9328 H 882.985 -2.04425 0.0554706 0
M  V30 9329 H 881.14 -3.24285 -2.11939 0
M  V30 9330 H 881.554 -5.14975 -0.995054 0
M  V30 9331 H 883.028 -4.82863 -2.67483 0
M  V30 9332 H 883.505 -3.17174 -3.03805 0
M  V30 9333 H 884.111 -3.95609 -1.56121 0
M  V30 9334 N 882.426 0.269451 -1.5528 0
M  V30 9335 C 883.656 1.01724 -1.79821 0
M  V30 9336 C 884.064 1.80298 -0.573532 0
M  V30 9337 O 883.407 1.77666 0.466963 0
M  V30 9338 C 883.469 2.02043 -2.97353 0
M  V30 9339 C 883.133 1.42375 -4.34256 0
M  V30 9340 C 884.13 0.837611 -5.13108 0
M  V30 9341 C 881.815 1.44988 -4.8092 0
M  V30 9342 C 883.809 0.285557 -6.3676 0
M  V30 9343 C 881.496 0.893969 -6.04526 0
M  V30 9344 C 882.494 0.312809 -6.82283 0
M  V30 9345 O 882.182 -0.234582 -8.03558 0
M  V30 9346 H 881.914 0.30604 -0.602757 0
M  V30 9347 H 884.468 0.30454 -2.0313 0
M  V30 9348 H 882.698 2.77082 -2.69745 0
M  V30 9349 H 884.387 2.6298 -3.09187 0
M  V30 9350 H 885.153 0.81009 -4.78187 0
M  V30 9351 H 881.032 1.89162 -4.20403 0
M  V30 9352 H 884.576 -0.168696 -6.97396 0
M  V30 9353 H 880.473 0.918742 -6.38928 0
M  V30 9354 H 881.241 -0.124282 -8.18406 0
M  V30 9355 N 883.904 1.48273 0.534124 0
M  V30 9356 C 884.814 1.65162 1.66609 0
M  V30 9357 C 885.83 0.534177 1.65598 0
M  V30 9358 O 887.006 0.804715 1.84625 0
M  V30 9359 C 884.071 1.68354 3.03081 0
M  V30 9360 C 883.132 2.91696 3.1498 0
M  V30 9361 C 882.365 2.94725 4.44941 0
M  V30 9362 O 882.588 2.06285 5.31792 0
M  V30 9363 O 881.522 3.8685 4.61119 0
M  V30 9364 H 885.348 2.60991 1.55298 0
M  V30 9365 H 882.933 1.31626 0.706749 0
M  V30 9366 H 884.815 1.72998 3.84252 0
M  V30 9367 H 883.49 0.756978 3.14725 0
M  V30 9368 H 882.397 2.92586 2.33119 0
M  V30 9369 H 883.73 3.83722 3.0825 0
M  V30 9370 N 885.382 -0.782676 1.36792 0
M  V30 9371 C 886.312 -1.90973 1.34356 0
M  V30 9372 C 887.293 -1.6875 0.213917 0
M  V30 9373 O 888.478 -1.89766 0.412601 0
M  V30 9374 C 885.608 -3.28097 1.13884 0
M  V30 9375 C 884.562 -3.6486 2.23744 0
M  V30 9376 C 883.888 -5.00406 1.88408 0
M  V30 9377 C 885.188 -3.72742 3.6587 0
M  V30 9378 H 886.882 -1.93268 2.28665 0
M  V30 9379 H 884.428 -0.928447 1.10072 0
M  V30 9380 H 886.381 -4.06569 1.10813 0
M  V30 9381 H 885.105 -3.26206 0.160275 0
M  V30 9382 H 883.764 -2.88689 2.25952 0
M  V30 9383 H 883.412 -4.95044 0.891083 0
M  V30 9384 H 883.112 -5.25973 2.61966 0
M  V30 9385 H 884.636 -5.81291 1.86905 0
M  V30 9386 H 886.05 -4.4139 3.65852 0
M  V30 9387 H 884.447 -4.09798 4.38389 0
M  V30 9388 H 885.517 -2.73676 4.00287 0
M  V30 9389 N 886.86 -1.21182 -1.00761 0
M  V30 9390 C 887.79 -0.992773 -2.11344 0
M  V30 9391 C 888.771 0.0813618 -1.69905 0
M  V30 9392 O 889.956 -0.0779503 -1.94043 0
M  V30 9393 C 887.086 -0.553826 -3.42856 0
M  V30 9394 C 886.04 -1.57223 -3.98077 0
M  V30 9395 C 885.366 -0.989605 -5.25463 0
M  V30 9396 C 886.666 -2.95839 -4.30438 0
M  V30 9397 H 888.36 -1.91766 -2.29927 0
M  V30 9398 H 885.906 -0.923426 -1.10494 0
M  V30 9399 H 887.859 -0.387771 -4.19612 0
M  V30 9400 H 886.583 0.406702 -3.24058 0
M  V30 9401 H 885.242 -1.7258 -3.23437 0
M  V30 9402 H 884.89 -0.0208743 -5.02996 0
M  V30 9403 H 884.59 -1.66984 -5.63374 0
M  V30 9404 H 886.114 -0.834815 -6.04866 0
M  V30 9405 H 887.528 -2.8394 -4.98047 0
M  V30 9406 H 885.925 -3.60851 -4.79486 0
M  V30 9407 H 886.995 -3.46882 -3.38823 0
M  V30 9408 N 888.338 1.20213 -1.01915 0
M  V30 9409 C 889.27 2.2251 -0.549725 0
M  V30 9410 C 890.283 1.58558 0.369235 0
M  V30 9411 O 891.472 1.77715 0.167176 0
M  V30 9412 C 888.572 3.38189 0.219432 0
M  V30 9413 C 887.745 4.31729 -0.702066 0
M  V30 9414 C 886.804 5.26196 0.0199624 0
M  V30 9415 O 885.83 5.65993 -0.60339 0
M  V30 9416 N 887.032 5.65895 1.29397 0
M  V30 9417 H 889.797 2.63412 -1.42948 0
M  V30 9418 H 887.358 1.3478 -0.896987 0
M  V30 9419 H 889.35 3.98392 0.711763 0
M  V30 9420 H 887.92 2.96156 1.00051 0
M  V30 9421 H 887.14 3.69455 -1.37466 0
M  V30 9422 H 888.428 4.91145 -1.3287 0
M  V30 9423 H 887.826 5.35579 1.8213 0
M  V30 9424 H 886.383 6.28395 1.73098 0
M  V30 9425 N 889.816 0.795718 1.36037 0
M  V30 9426 C 891.232 0.478145 1.52269 0
M  V30 9427 C 891.432 -1.0025 1.74792 0
M  V30 9428 O 890.488 -1.78783 1.78305 0
M  V30 9429 C 891.801 1.31406 2.70468 0
M  V30 9430 C 893.349 1.3084 2.84341 0
M  V30 9431 C 893.824 2.12819 4.05551 0
M  V30 9432 N 895.315 2.10298 4.12709 0
M  V30 9433 C 896.05 2.70495 5.05589 0
M  V30 9434 N 895.546 3.39576 6.03871 0
M  V30 9435 N 897.339 2.60195 4.98252 0
M  V30 9436 H 889.49 1.75477 1.19673 0
M  V30 9437 H 891.753 0.74627 0.584624 0
M  V30 9438 H 891.459 2.36435 2.60368 0
M  V30 9439 H 891.333 0.959726 3.64786 0
M  V30 9440 H 893.72 0.266003 2.93899 0
M  V30 9441 H 893.801 1.70254 1.90912 0
M  V30 9442 H 893.445 3.17093 3.96755 0
M  V30 9443 H 893.375 1.70772 4.98141 0
M  V30 9444 H 895.866 1.60026 3.42345 0
M  V30 9445 H 896.179 3.82823 6.71317 0
M  V30 9446 H 894.524 3.43679 6.04077 0
M  V30 9447 H 897.715 2.05823 4.20422 0
M  V30 9448 H 897.888 3.074 5.70447 0
M  V30 9449 N 891.294 -1.47756 0.548274 0
M  V30 9450 C 892.54 -2.03379 0.0291238 0
M  V30 9451 C 892.895 -1.41603 -1.30255 0
M  V30 9452 O 892.188 -0.559102 -1.83261 0
M  V30 9453 C 892.382 -3.5716 -0.131069 0
M  V30 9454 C 892.211 -4.33846 1.18353 0
M  V30 9455 C 890.981 -4.74087 1.74841 0
M  V30 9456 C 893.179 -4.69535 2.09861 0
M  V30 9457 N 891.161 -5.35382 3.00398 0
M  V30 9458 C 892.532 -5.31039 3.19997 0
M  V30 9459 C 894.587 -4.51464 2.09964 0
M  V30 9460 C 893.29 -5.7638 4.30323 0
M  V30 9461 C 895.316 -4.97798 3.19297 0
M  V30 9462 C 894.678 -5.59343 4.28152 0
M  V30 9463 H 890.777 -0.780229 0.0526037 0
M  V30 9464 H 893.361 -1.80351 0.733593 0
M  V30 9465 H 891.532 -3.79974 -0.804647 0
M  V30 9466 H 893.264 -3.99422 -0.651476 0
M  V30 9467 H 890.019 -4.55764 1.2875 0
M  V30 9468 H 890.443 -5.7058 3.64372 0
M  V30 9469 H 895.085 -4.03246 1.27093 0
M  V30 9470 H 892.803 -6.23594 5.13961 0
M  V30 9471 H 896.389 -4.85593 3.20454 0
M  V30 9472 H 895.269 -5.94544 5.11358 0
M  V30 9473 N 892.772 -0.284283 -1.55015 0
M  V30 9474 C 894.019 0.329864 -1.99795 0
M  V30 9475 C 894.347 1.55171 -1.1727 0
M  V30 9476 O 893.602 1.94312 -0.232667 0
M  V30 9477 C 893.901 0.747219 -3.49502 0
M  V30 9478 C 893.567 -0.37101 -4.49371 0
M  V30 9479 C 892.229 -0.678034 -4.76399 0
M  V30 9480 C 894.581 -1.12406 -5.08935 0
M  V30 9481 C 891.909 -1.74152 -5.60257 0
M  V30 9482 C 894.261 -2.17734 -5.93948 0
M  V30 9483 C 892.925 -2.49061 -6.19294 0
M  V30 9484 H 892.195 0.120706 -0.731103 0
M  V30 9485 H 894.842 -0.399904 -1.87278 0
M  V30 9486 H 893.147 1.55681 -3.59542 0
M  V30 9487 H 894.844 1.2333 -3.81563 0
M  V30 9488 H 891.434 -0.1216 -4.28427 0
M  V30 9489 H 895.618 -0.900119 -4.88069 0
M  V30 9490 H 890.874 -1.98915 -5.78137 0
M  V30 9491 H 895.048 -2.76553 -6.39133 0
M  V30 9492 H 892.675 -3.31602 -6.84064 0
M  V30 9493 N 894.251 1.57596 -0.0117121 0
M  V30 9494 C 895.481 1.95077 0.680346 0
M  V30 9495 C 895.889 0.885793 1.67184 0
M  V30 9496 O 895.232 -0.142723 1.83145 0
M  V30 9497 C 895.294 3.28611 1.45791 0
M  V30 9498 C 894.958 4.52682 0.626706 0
M  V30 9499 C 895.955 5.19821 -0.0906223 0
M  V30 9500 C 893.64 4.99064 0.569229 0
M  V30 9501 C 895.634 6.31649 -0.854289 0
M  V30 9502 C 893.321 6.10779 -0.198155 0
M  V30 9503 C 894.319 6.76929 -0.908636 0
M  V30 9504 O 894.007 7.86501 -1.66348 0
M  V30 9505 H 893.739 0.647663 0.193672 0
M  V30 9506 H 896.293 2.05305 -0.0624969 0
M  V30 9507 H 894.523 3.14824 2.2455 0
M  V30 9508 H 896.212 3.51119 2.03642 0
M  V30 9509 H 896.978 4.84968 -0.0554421 0
M  V30 9510 H 892.857 4.47393 1.11178 0
M  V30 9511 H 896.401 6.83215 -1.40937 0
M  V30 9512 H 892.298 6.45072 -0.235114 0
M  V30 9513 H 893.066 8.03078 -1.58141 0
M  V30 9514 N 895.729 -0.261212 1.5542 0
M  V30 9515 C 896.978 -0.989072 1.75785 0
M  V30 9516 C 897.291 -1.8702 0.572961 0
M  V30 9517 O 898.497 -2.63374 0.659289 0
M  V30 9518 C 896.953 -1.80857 3.11157 0
M  V30 9519 C 896.561 -0.975535 4.3725 0
M  V30 9520 C 898.305 -2.53003 3.40866 0
M  V30 9521 C 896.212 -1.7901 5.63657 0
M  V30 9522 H 895.142 -0.373019 0.655266 0
M  V30 9523 H 897.793 -0.244267 1.81867 0
M  V30 9524 H 896.175 -2.59479 2.99144 0
M  V30 9525 H 897.349 -0.232661 4.60212 0
M  V30 9526 H 895.664 -0.368083 4.1477 0
M  V30 9527 H 898.261 -3.14372 4.32521 0
M  V30 9528 H 898.604 -3.23891 2.61535 0
M  V30 9529 H 899.137 -1.81403 3.54031 0
M  V30 9530 H 895.876 -1.12522 6.4577 0
M  V30 9531 H 895.396 -2.50863 5.44819 0
M  V30 9532 H 897.075 -2.36082 6.0239 0
M  V30 9533 N 897.207 -1.48554 -0.526253 0
M  V30 9534 C 898.484 -1.47252 -1.28748 0
M  V30 9535 C 898.864 -0.186245 -2.10277 0
M  V30 9536 O 898.212 0.831954 -2.12816 0
M  V30 9537 C 898.422 -2.73672 -2.16575 0
M  V30 9538 C 899.77 -3.22151 -2.76593 0
M  V30 9539 O 900.794 -2.74614 -2.2686 0
M  V30 9540 O 899.653 -4.04877 -3.67066 0
M  V30 9541 H 896.747 -0.588242 -0.581292 0
M  V30 9542 H 899.293 -1.60792 -0.5426 0
M  V30 9543 H 898.065 -3.58798 -1.56139 0
M  V30 9544 H 897.688 -2.6287 -2.98304 0
M  V30 9545 N 898.685 0.775411 -1.37205 0
M  V30 9546 C 899.932 1.53384 -1.32211 0
M  V30 9547 C 900.26 1.9427 0.0944958 0
M  V30 9548 O 899.515 1.64059 1.06692 0
M  V30 9549 C 899.814 2.81377 -2.20367 0
M  V30 9550 C 899.48 2.59561 -3.68699 0
M  V30 9551 C 898.142 2.53319 -4.09124 0
M  V30 9552 C 900.494 2.39939 -4.62686 0
M  V30 9553 C 897.822 2.25442 -5.41658 0
M  V30 9554 C 900.174 2.13586 -5.95453 0
M  V30 9555 C 898.838 2.05786 -6.34987 0
M  V30 9556 H 898.108 0.561271 -0.483793 0
M  V30 9557 H 900.755 0.893466 -1.6938 0
M  V30 9558 H 899.06 3.49954 -1.76181 0
M  V30 9559 H 900.757 3.39238 -2.13819 0
M  V30 9560 H 897.347 2.6528 -3.36637 0
M  V30 9561 H 901.531 2.43753 -4.32317 0
M  V30 9562 H 896.787 2.17896 -5.71254 0
M  V30 9563 H 900.961 1.97401 -6.67837 0
M  V30 9564 H 898.588 1.83948 -7.37609 0
M  V30 9565 N 900.163 1.21714 1.00117 0
M  V30 9566 C 901.411 1.03465 1.73607 0
M  V30 9567 C 901.732 -0.432295 1.90148 0
M  V30 9568 O 901.002 -1.31157 1.45515 0
M  V30 9569 H 899.582 0.379857 0.643209 0
M  V30 9570 H 902.244 1.53088 1.20624 0
M  V30 9571 H 901.34 1.50574 2.73375 0
M  V30 9572 N 901.641 -1.19671 1.02551 0
M  V30 9573 C 902.889 -1.88894 0.71858 0
M  V30 9574 C 903.21 -1.79797 -0.754856 0
M  V30 9575 O 902.48 -1.20621 -1.54362 0
M  V30 9576 H 901.06 -0.699244 0.262806 0
M  V30 9577 H 903.722 -1.45298 1.29902 0
M  V30 9578 H 902.818 -2.95309 1.00989 0
M  V30 9579 N 903.119 -0.802921 -1.35613 0
M  V30 9580 C 904.049 -0.225131 -2.32412 0
M  V30 9581 C 905.03 0.647383 -1.57299 0
M  V30 9582 O 906.215 0.578414 -1.85386 0
M  V30 9583 C 903.345 0.630085 -3.41537 0
M  V30 9584 C 902.299 -0.143635 -4.27759 0
M  V30 9585 C 901.625 0.833046 -5.28171 0
M  V30 9586 C 902.925 -1.34054 -5.04804 0
M  V30 9587 H 904.619 -1.03385 -2.80984 0
M  V30 9588 H 902.165 -0.498593 -1.35093 0
M  V30 9589 H 904.118 1.04433 -4.08254 0
M  V30 9590 H 902.842 1.47165 -2.91565 0
M  V30 9591 H 901.501 -0.539015 -3.62616 0
M  V30 9592 H 901.149 1.67001 -4.74468 0
M  V30 9593 H 900.849 0.319697 -5.8673 0
M  V30 9594 H 902.373 1.24558 -5.97761 0
M  V30 9595 H 903.787 -1.00136 -5.64487 0
M  V30 9596 H 902.184 -1.78812 -5.72841 0
M  V30 9597 H 903.254 -2.12906 -4.35659 0
M  V30 9598 N 904.597 1.47463 -0.556102 0
M  V30 9599 C 905.544 2.29998 0.192213 0
M  V30 9600 C 906.514 1.38993 0.909403 0
M  V30 9601 O 907.699 1.67954 0.905316 0
M  V30 9602 C 904.839 3.22932 1.21692 0
M  V30 9603 C 903.952 4.29027 0.505908 0
M  V30 9604 C 903.087 5.09114 1.51581 0
M  V30 9605 C 902.126 6.06984 0.789714 0
M  V30 9606 N 901.263 6.80033 1.74639 0
M  V30 9607 H 906.103 2.93468 -0.517734 0
M  V30 9608 H 903.64 1.44654 -0.267147 0
M  V30 9609 H 905.598 3.75234 1.8236 0
M  V30 9610 H 904.228 2.61329 1.89491 0
M  V30 9611 H 903.28 3.7979 -0.215276 0
M  V30 9612 H 904.592 4.9876 -0.062958 0
M  V30 9613 H 903.746 5.6556 2.19606 0
M  V30 9614 H 902.485 4.3928 2.11859 0
M  V30 9615 H 901.49 5.49717 0.0955382 0
M  V30 9616 H 902.715 6.78827 0.192688 0
M  V30 9617 H 900.661 6.12931 2.33777 0
M  V30 9618 H 900.578 7.45933 1.22965 0
M  V30 9619 H 901.846 7.41054 2.41782 0
M  V30 9620 N 906.075 0.2925 1.54862 0
M  V30 9621 C 907.486 -0.201841 1.85606 0
M  V30 9622 C 907.837 -1.54093 1.21449 0
M  V30 9623 O 906.962 -2.10327 0.509079 0
M  V30 9624 C 907.557 -0.373011 3.3674 0
M  V30 9625 C 906.116 -0.811574 3.67547 0
M  V30 9626 C 905.263 0.0850583 2.7717 0
M  V30 9627 H 908.214 0.513774 1.50153 0
M  V30 9628 H 908.235 -1.20892 3.60785 0
M  V30 9629 H 907.747 0.601751 3.83407 0
M  V30 9630 H 905.848 -1.79719 3.26392 0
M  V30 9631 H 905.961 -0.636853 4.74848 0
M  V30 9632 H 904.325 -0.434224 2.50971 0
M  V30 9633 H 905.108 1.05602 3.26654 0
M  V30 9634 N 907.553 -1.57587 0.0200696 0
M  V30 9635 C 908.516 -2.08595 -0.949767 0
M  V30 9636 C 909.516 -0.999215 -1.25985 0
M  V30 9637 O 910.706 -1.26115 -1.2017 0
M  V30 9638 C 907.838 -2.54424 -2.26895 0
M  V30 9639 H 909.031 -2.95563 -0.508161 0
M  V30 9640 H 906.584 -1.54631 -0.227798 0
M  V30 9641 H 907.319 -1.70758 -2.75703 0
M  V30 9642 H 907.104 -3.3381 -2.05702 0
M  V30 9643 H 908.594 -2.94144 -2.96427 0
M  V30 9644 N 909.032 0.252966 -1.55557 0
M  V30 9645 C 910.28 0.979912 -1.76754 0
M  V30 9646 C 910.601 1.86083 -0.582944 0
M  V30 9647 O 909.871 1.91742 0.401497 0
M  V30 9648 H 908.451 0.364805 -0.651864 0
M  V30 9649 H 911.113 0.272372 -1.92987 0
M  V30 9650 H 910.209 1.60518 -2.67657 0
M  V30 9651 N 910.51 1.48831 0.518367 0
M  V30 9652 C 911.735 1.61379 1.30275 0
M  V30 9653 C 912.16 0.278571 1.86026 0
M  V30 9654 O 911.518 -0.751427 1.64995 0
M  V30 9655 C 911.566 2.67225 2.42122 0
M  V30 9656 O 910.67 2.25192 3.45489 0
M  V30 9657 H 910.011 0.540742 0.385349 0
M  V30 9658 H 912.541 1.949 0.622498 0
M  V30 9659 H 912.551 2.88859 2.8814 0
M  V30 9660 H 911.226 3.64155 2.00907 0
M  V30 9661 H 909.803 2.13819 3.05509 0
M  V30 9662 N 911.988 -0.768124 1.37614 0
M  V30 9663 C 912.898 -1.91249 1.35871 0
M  V30 9664 C 913.914 -1.7208 0.257786 0
M  V30 9665 O 915.09 -1.95253 0.493782 0
M  V30 9666 C 912.155 -3.26423 1.16829 0
M  V30 9667 C 911.216 -3.5822 2.36594 0
M  V30 9668 C 910.449 -4.86945 2.1845 0
M  V30 9669 O 910.672 -5.58258 1.17064 0
M  V30 9670 O 909.606 -5.17888 3.06718 0
M  V30 9671 H 913.432 -1.95671 2.32264 0
M  V30 9672 H 911.017 -0.911382 1.18382 0
M  V30 9673 H 912.899 -4.07269 1.08212 0
M  V30 9674 H 911.574 -3.22845 0.235123 0
M  V30 9675 H 910.481 -2.77594 2.50783 0
M  V30 9676 H 911.814 -3.66545 3.2849 0
M  V30 9677 N 913.466 -1.22244 -0.994698 0
M  V30 9678 C 914.877 -1.043 -1.5485 0
M  V30 9679 C 915.228 0.394102 -1.92201 0
M  V30 9680 O 914.353 1.27883 -1.74571 0
M  V30 9681 C 914.948 -1.88708 -2.8138 0
M  V30 9682 C 913.507 -1.75067 -3.3321 0
M  V30 9683 C 912.654 -1.85286 -2.06312 0
M  V30 9684 H 915.605 -1.36115 -0.815988 0
M  V30 9685 H 915.626 -1.40342 -3.53673 0
M  V30 9686 H 915.138 -2.93296 -2.54164 0
M  V30 9687 H 913.239 -0.732047 -3.65338 0
M  V30 9688 H 913.352 -2.57632 -4.03934 0
M  V30 9689 H 911.716 -1.28706 -2.19788 0
M  V30 9690 H 912.499 -2.91401 -1.81494 0
M  V30 9691 N 914.944 1.19125 -1.03184 0
M  V30 9692 C 916.172 1.92838 -0.74975 0
M  V30 9693 C 916.587 1.75667 0.691851 0
M  V30 9694 O 915.944 1.0805 1.47076 0
M  V30 9695 C 915.995 3.44509 -1.09525 0
M  V30 9696 O 915.716 3.6113 -2.48025 0
M  V30 9697 C 917.217 4.35338 -0.836397 0
M  V30 9698 H 914.437 0.61246 -0.274105 0
M  V30 9699 H 916.981 1.5118 -1.37712 0
M  V30 9700 H 915.136 3.83988 -0.513006 0
M  V30 9701 H 915.55 4.54959 -2.60984 0
M  V30 9702 H 917.024 5.4035 -1.12808 0
M  V30 9703 H 917.501 4.38602 0.229102 0
M  V30 9704 H 918.107 4.01544 -1.40152 0
M  V30 9705 N 916.422 0.810101 1.35185 0
M  V30 9706 C 917.833 0.452616 1.81131 0
M  V30 9707 C 918.184 -1.02573 1.67252 0
M  V30 9708 O 917.309 -1.79735 1.20516 0
M  V30 9709 C 917.904 0.814775 3.28857 0
M  V30 9710 C 916.463 0.509839 3.72931 0
M  V30 9711 C 915.61 1.03852 2.57119 0
M  V30 9712 H 918.561 1.00143 1.23114 0
M  V30 9713 H 918.582 0.113635 3.8033 0
M  V30 9714 H 918.094 1.89078 3.38926 0
M  V30 9715 H 916.195 -0.557289 3.68409 0
M  V30 9716 H 916.308 1.04493 4.67566 0
M  V30 9717 H 914.672 0.460671 2.50499 0
M  V30 9718 H 915.455 2.12071 2.69964 0
M  V30 9719 N 917.9 -1.47166 0.563914 0
M  V30 9720 C 918.847 -2.30097 -0.180013 0
M  V30 9721 C 919.817 -1.39473 -0.902019 0
M  V30 9722 O 921.002 -1.68432 -0.896396 0
M  V30 9723 C 918.142 -3.23573 -1.19978 0
M  V30 9724 C 917.255 -4.2929 -0.483149 0
M  V30 9725 C 916.39 -5.0991 -1.48879 0
M  V30 9726 C 915.429 -6.07395 -0.757513 0
M  V30 9727 N 914.566 -6.8095 -1.71031 0
M  V30 9728 H 919.406 -2.93189 0.53329 0
M  V30 9729 H 916.943 -1.4451 0.274814 0
M  V30 9730 H 918.901 -3.76196 -1.80368 0
M  V30 9731 H 917.531 -2.6233 -1.88103 0
M  V30 9732 H 916.583 -3.79671 0.235414 0
M  V30 9733 H 917.895 -4.9872 0.0894075 0
M  V30 9734 H 917.049 -5.66717 -2.16603 0
M  V30 9735 H 915.788 -4.40397 -2.09527 0
M  V30 9736 H 914.793 -5.4976 -0.0663841 0
M  V30 9737 H 916.018 -6.78919 -0.156685 0
M  V30 9738 H 913.964 -6.14162 -2.30524 0
M  V30 9739 H 913.881 -7.46574 -1.19007 0
M  V30 9740 H 915.149 -7.42326 -2.37849 0
M  V30 9741 N 919.378 -0.300708 -1.54705 0
M  V30 9742 C 920.603 0.314073 -2.05008 0
M  V30 9743 C 921.028 1.46759 -1.17657 0
M  V30 9744 O 920.386 1.80398 -0.180598 0
M  V30 9745 C 920.434 0.748243 -3.52752 0
M  V30 9746 O 919.538 1.85305 -3.68424 0
M  V30 9747 H 918.879 0.0610139 -0.661191 0
M  V30 9748 H 921.409 -0.442467 -1.99758 0
M  V30 9749 H 921.419 1.03713 -3.94598 0
M  V30 9750 H 920.094 -0.095573 -4.1579 0
M  V30 9751 H 918.671 1.56473 -3.38483 0
M  V30 9752 N 920.856 1.57574 -0.0284266 0
M  V30 9753 C 922.272 1.56194 0.327958 0
M  V30 9754 C 922.472 1.03397 1.72949 0
M  V30 9755 O 921.528 0.680392 2.4316 0
M  V30 9756 C 922.841 3.00177 0.177196 0
M  V30 9757 C 924.389 3.12 0.250014 0
M  V30 9758 C 924.864 4.57821 0.128049 0
M  V30 9759 N 926.355 4.6283 0.185054 0
M  V30 9760 C 927.09 5.73286 0.114454 0
M  V30 9761 N 926.586 6.928 -0.00719225 0
M  V30 9762 N 928.379 5.61848 0.16839 0
M  V30 9763 H 920.53 1.90224 -0.944921 0
M  V30 9764 H 922.793 0.874987 -0.364832 0
M  V30 9765 H 922.499 3.42753 -0.788224 0
M  V30 9766 H 922.373 3.65101 0.94768 0
M  V30 9767 H 924.76 2.69337 1.20589 0
M  V30 9768 H 924.841 2.49799 -0.550835 0
M  V30 9769 H 924.485 5.01165 -0.824407 0
M  V30 9770 H 924.415 5.18001 0.947753 0
M  V30 9771 H 926.906 3.76867 0.279247 0
M  V30 9772 H 927.219 7.72781 -0.0543903 0
M  V30 9773 H 925.564 6.94987 -0.0419648 0
M  V30 9774 H 928.755 4.67367 0.261821 0
M  V30 9775 H 928.928 6.47907 0.109908 0
M  V30 9776 N 922.334 -0.244713 1.55689 0
M  V30 9777 C 923.583 -0.970373 1.76824 0
M  V30 9778 C 923.896 -1.86402 0.592764 0
M  V30 9779 O 925.102 -2.62659 0.687186 0
M  V30 9780 C 923.558 -1.77547 3.13058 0
M  V30 9781 C 923.166 -0.929104 4.3826 0
M  V30 9782 C 924.91 -2.49373 3.43531 0
M  V30 9783 C 922.817 -1.73021 5.65524 0
M  V30 9784 H 921.747 -0.366048 0.659185 0
M  V30 9785 H 924.398 -0.224964 1.82116 0
M  V30 9786 H 922.78 -2.56291 3.01879 0
M  V30 9787 H 923.954 -0.183836 4.60433 0
M  V30 9788 H 922.269 -0.324071 4.15137 0
M  V30 9789 H 924.866 -3.09767 4.35831 0
M  V30 9790 H 925.209 -3.21099 2.64955 0
M  V30 9791 H 925.742 -1.77637 3.55935 0
M  V30 9792 H 922.481 -1.05666 6.46927 0
M  V30 9793 H 922.001 -2.45071 5.47449 0
M  V30 9794 H 923.68 -2.2968 6.0486 0
M  V30 9795 N 923.813 -1.49104 -0.510467 0
M  V30 9796 C 924.776 -1.64569 -1.59529 0
M  V30 9797 C 925.776 -0.517937 -1.5223 0
M  V30 9798 O 926.966 -0.784183 -1.55551 0
M  V30 9799 C 924.098 -1.6342 -2.99177 0
M  V30 9800 H 925.291 -2.61318 -1.4715 0
M  V30 9801 H 922.844 -1.37993 -0.734001 0
M  V30 9802 H 923.579 -0.68221 -3.17043 0
M  V30 9803 H 923.364 -2.45312 -3.05883 0
M  V30 9804 H 924.854 -1.77474 -3.78011 0
M  V30 9805 N 925.291 0.760815 -1.38019 0
M  V30 9806 C 926.568 1.5098 -1.24356 0
M  V30 9807 C 926.948 2.10507 0.158169 0
M  V30 9808 O 926.296 1.96455 1.16695 0
M  V30 9809 C 926.506 2.58195 -2.34811 0
M  V30 9810 C 927.854 3.25297 -2.72886 0
M  V30 9811 O 928.878 2.68496 -2.34069 0
M  V30 9812 O 927.737 4.28018 -3.39799 0
M  V30 9813 H 924.831 0.66921 -0.485888 0
M  V30 9814 H 927.377 0.796844 -1.49828 0
M  V30 9815 H 926.149 2.12406 -3.28633 0
M  V30 9816 H 925.772 3.37079 -2.10864 0
M  V30 9817 N 926.769 1.22769 0.988202 0
M  V30 9818 C 927.699 1.02627 2.09738 0
M  V30 9819 C 928.68 -0.0543211 1.70013 0
M  V30 9820 O 929.865 0.108811 1.93895 0
M  V30 9821 C 926.995 0.608302 3.41931 0
M  V30 9822 C 925.949 1.63536 3.95525 0
M  V30 9823 C 925.275 1.07308 5.23822 0
M  V30 9824 C 926.575 3.02649 4.25677 0
M  V30 9825 H 928.269 1.954 2.26847 0
M  V30 9826 H 925.815 0.940888 1.09011 0
M  V30 9827 H 927.768 0.454478 4.18942 0
M  V30 9828 H 926.492 -0.355095 3.24664 0
M  V30 9829 H 925.151 1.77704 3.20651 0
M  V30 9830 H 924.799 0.100894 5.02899 0
M  V30 9831 H 924.499 1.75925 5.60646 0
M  V30 9832 H 926.023 0.930938 6.03462 0
M  V30 9833 H 927.437 2.91828 4.93467 0
M  V30 9834 H 925.834 3.68434 4.73684 0
M  V30 9835 H 926.904 3.52228 3.33262 0
M  V30 9836 N 928.247 -1.18576 1.03814 0
M  V30 9837 C 929.658 -1.70159 0.768299 0
M  V30 9838 C 930.009 -1.8286 -0.711106 0
M  V30 9839 O 929.134 -1.5063 -1.55369 0
M  V30 9840 C 929.729 -3.09062 1.38804 0
M  V30 9841 C 928.288 -3.57866 1.16656 0
M  V30 9842 C 927.435 -2.34484 1.48029 0
M  V30 9843 H 930.386 -1.03287 1.20488 0
M  V30 9844 H 930.407 -3.72211 0.7899 0
M  V30 9845 H 929.919 -2.99785 2.46476 0
M  V30 9846 H 928.02 -3.72442 0.108471 0
M  V30 9847 H 928.133 -4.41445 1.8618 0
M  V30 9848 H 926.497 -2.38273 0.899902 0
M  V30 9849 H 927.28 -2.27829 2.56805 0
M  V30 9850 N 929.725 -0.817259 -1.34754 0
M  V30 9851 C 931.136 -0.462215 -1.80888 0
M  V30 9852 C 931.487 1.01685 -1.67794 0
M  V30 9853 O 930.612 1.79094 -1.21468 0
M  V30 9854 C 931.207 -0.832204 -3.2842 0
M  V30 9855 C 929.766 -0.52961 -3.72655 0
M  V30 9856 C 928.913 -1.05214 -2.56564 0
M  V30 9857 H 931.864 -1.00795 -1.22581 0
M  V30 9858 H 931.885 -0.133804 -3.80265 0
M  V30 9859 H 931.397 -1.90873 -3.37919 0
M  V30 9860 H 929.498 0.537743 -3.68699 0
M  V30 9861 H 929.611 -1.06971 -4.67005 0
M  V30 9862 H 927.975 -0.473949 -2.50251 0
M  V30 9863 H 928.758 -2.135 -2.68836 0
M  V30 9864 N 931.203 1.46865 -0.571711 0
M  V30 9865 C 932.166 2.28658 0.157499 0
M  V30 9866 C 933.166 1.37773 0.829172 0
M  V30 9867 O 934.356 1.6026 0.682811 0
M  V30 9868 C 931.488 3.17859 1.23202 0
M  V30 9869 H 932.681 2.94603 -0.561171 0
M  V30 9870 H 930.234 1.52793 -0.329229 0
M  V30 9871 H 930.969 2.56637 1.98262 0
M  V30 9872 H 930.754 3.84762 0.755031 0
M  V30 9873 H 932.244 3.7945 1.74378 0
M  V30 9874 N 932.681 0.308908 1.54543 0
M  V30 9875 C 933.629 -0.579326 2.2527 0
M  V30 9876 C 934.623 -1.13058 1.26152 0
M  V30 9877 O 935.829 -1.08031 1.43977 0
M  V30 9878 H 932.204 -0.205444 0.723392 0
M  V30 9879 H 934.175 0.0396415 2.98374 0
M  V30 9880 C 932.924 -1.73584 3.01271 0
M  V30 9881 H 932.247 -1.32089 3.77349 0
M  V30 9882 H 933.687 -2.33324 3.54028 0
M  V30 9883 C 932.146 -2.6447 2.08703 0
M  V30 9884 O 932.676 -3.65785 1.66025 0
M  V30 9885 N 930.882 -2.32379 1.74495 0
M  V30 9886 H 930.429 -1.50034 2.09398 0
M  V30 9887 H 930.387 -2.93454 1.12836 0
M  V30 9888 N 934.159 -1.57557 0.0367827 0
M  V30 9889 C 935.57 -1.79853 -0.500971 0
M  V30 9890 C 935.921 -0.947749 -1.71791 0
M  V30 9891 O 935.046 -0.160287 -2.15806 0
M  V30 9892 C 935.641 -3.26193 -0.915626 0
M  V30 9893 C 934.2 -3.49457 -1.39845 0
M  V30 9894 C 933.347 -2.74864 -0.366784 0
M  V30 9895 H 936.298 -1.56509 0.262768 0
M  V30 9896 H 936.319 -3.36324 -1.7795 0
M  V30 9897 H 935.831 -3.88089 -0.0297227 0
M  V30 9898 H 933.932 -2.92823 -2.30402 0
M  V30 9899 H 934.045 -4.58172 -1.40054 0
M  V30 9900 H 932.409 -2.4057 -0.836554 0
M  V30 9901 H 933.192 -3.39479 0.510785 0
M  V30 9902 N 935.637 0.236453 -1.55816 0
M  V30 9903 C 936.914 0.986463 -1.68903 0
M  V30 9904 C 937.294 2.02984 -0.579722 0
M  V30 9905 O 936.642 2.24693 0.415389 0
M  V30 9906 C 936.852 1.61038 -3.09625 0
M  V30 9907 C 938.2 2.10829 -3.6856 0
M  V30 9908 O 939.224 1.7096 -3.12492 0
M  V30 9909 O 938.083 2.84064 -4.66873 0
M  V30 9910 H 935.177 0.459837 -0.687371 0
M  V30 9911 H 937.723 0.229412 -1.68142 0
M  V30 9912 H 936.495 0.856232 -3.81817 0
M  V30 9913 H 936.118 2.43336 -3.14441 0
M  V30 9914 N 937.115 1.49373 0.502552 0
M  V30 9915 C 938.065 1.62321 1.60112 0
M  V30 9916 C 939.049 0.47895 1.53606 0
M  V30 9917 O 940.241 0.731824 1.61162 0
M  V30 9918 C 937.37 1.69162 2.98729 0
M  V30 9919 C 936.456 2.89161 3.10237 0
M  V30 9920 N 936.847 4.13256 2.91638 0
M  V30 9921 C 935.145 2.87065 3.41335 0
M  V30 9922 C 935.846 4.93913 3.07287 0
M  V30 9923 N 934.822 4.27249 3.36094 0
M  V30 9924 H 938.624 2.55989 1.44384 0
M  V30 9925 H 936.138 1.46123 0.708644 0
M  V30 9926 H 938.135 1.76536 3.77678 0
M  V30 9927 H 936.795 0.766301 3.15528 0
M  V30 9928 H 937.806 4.4326 2.67844 0
M  V30 9929 H 934.483 2.03905 3.6432 0
M  V30 9930 H 935.873 6.02491 2.97413 0
M  V30 9931 N 938.594 -0.753485 1.38421 0
M  V30 9932 C 939.843 -1.50797 1.33952 0
M  V30 9933 C 940.156 -1.95482 -0.0678464 0
M  V30 9934 O 941.362 -2.7048 -0.235078 0
M  V30 9935 C 939.818 -2.72393 2.35224 0
M  V30 9936 C 939.426 -2.34733 3.81582 0
M  V30 9937 C 941.17 -3.50281 2.39798 0
M  V30 9938 C 939.077 -3.52939 4.7454 0
M  V30 9939 H 938.007 -0.566211 0.497916 0
M  V30 9940 H 940.658 -0.823659 1.63976 0
M  V30 9941 H 939.04 -3.42806 1.98243 0
M  V30 9942 H 940.214 -1.71985 4.27502 0
M  V30 9943 H 938.529 -1.69978 3.80127 0
M  V30 9944 H 941.126 -4.38172 3.06447 0
M  V30 9945 H 941.469 -3.91444 1.41695 0
M  V30 9946 H 942.002 -2.86881 2.75579 0
M  V30 9947 H 938.741 -3.16843 5.73839 0
M  V30 9948 H 938.261 -4.1473 4.33312 0
M  V30 9949 H 939.94 -4.19519 4.92557 0
M  V30 9950 N 940.072 -1.23292 -0.981677 0
M  V30 9951 C 941.32 -1.06214 -1.71939 0
M  V30 9952 C 941.641 0.401989 -1.90812 0
M  V30 9953 O 940.911 1.28825 -1.47584 0
M  V30 9954 H 939.491 -0.390042 -0.637084 0
M  V30 9955 H 942.153 -1.54988 -1.18173 0
M  V30 9956 H 941.249 -1.54904 -2.70945 0
M  V30 9957 N 941.55 1.18024 -1.04442 0
M  V30 9958 C 942.798 1.87727 -0.74854 0
M  V30 9959 C 943.119 1.80975 0.726156 0
M  V30 9960 O 942.389 1.23061 1.52423 0
M  V30 9961 H 940.969 0.694974 -0.273897 0
M  V30 9962 H 943.631 1.43213 -1.32197 0
M  V30 9963 H 942.727 2.93665 -1.05674 0
M  V30 9964 N 943.028 0.824394 1.34319 0
M  V30 9965 C 944.258 0.425576 2.02169 0
M  V30 9966 C 944.666 -0.973596 1.62227 0
M  V30 9967 O 944.009 -1.64173 0.824199 0
M  V30 9968 C 944.071 0.449902 3.56674 0
M  V30 9969 C 943.735 1.80266 4.19944 0
M  V30 9970 C 944.732 2.76373 4.40357 0
M  V30 9971 C 942.417 2.09155 4.56683 0
M  V30 9972 C 944.411 3.9954 4.96635 0
M  V30 9973 C 942.098 3.32581 5.12672 0
M  V30 9974 C 943.096 4.27591 5.32592 0
M  V30 9975 O 942.784 5.48837 5.87395 0
M  V30 9976 H 942.516 0.168866 0.654569 0
M  V30 9977 H 945.07 1.11441 1.7254 0
M  V30 9978 H 943.3 -0.295631 3.85568 0
M  V30 9979 H 944.989 0.0709302 4.05838 0
M  V30 9980 H 945.755 2.55351 4.12336 0
M  V30 9981 H 941.634 1.36004 4.40481 0
M  V30 9982 H 945.178 4.73709 5.12099 0
M  V30 9983 H 941.075 3.53466 5.40122 0
M  V30 9984 H 941.843 5.50377 6.05828 0
M  V30 9985 N 944.506 -1.46559 0.579492 0
M  V30 9986 C 945.922 -1.57771 0.240921 0
M  V30 9987 C 946.122 -1.57505 -1.25676 0
M  V30 9988 O 945.178 -1.4903 -2.03829 0
M  V30 9989 C 946.491 -2.87311 0.887285 0
M  V30 9990 C 948.039 -3.00937 0.860576 0
M  V30 9991 C 948.514 -4.33208 1.48642 0
M  V30 9992 N 950.005 -4.39899 1.45062 0
M  V30 9993 C 950.74 -5.40856 1.90428 0
M  V30 9994 N 950.236 -6.48503 2.43752 0
M  V30 9995 N 952.029 -5.32037 1.81364 0
M  V30 9996 H 944.18 -1.44976 1.55228 0
M  V30 9997 H 946.443 -0.691354 0.648639 0
M  V30 9998 H 946.149 -2.93307 1.94071 0
M  V30 9999 H 946.023 -3.75141 0.393577 0
M  V30 10000 H 948.41 -2.94524 -0.184223 0
M  V30 10001 H 948.491 -2.14591 1.39227 0
M  V30 10002 H 948.135 -4.40378 2.5304 0
M  V30 10003 H 948.065 -5.18323 0.92998 0
M  V30 10004 H 950.556 -3.62706 1.0608 0
M  V30 10005 H 950.869 -7.21744 2.76234 0
M  V30 10006 H 949.214 -6.49332 2.47776 0
M  V30 10007 H 952.405 -4.46841 1.39465 0
M  V30 10008 H 952.578 -6.10573 2.17035 0
M  V30 10009 N 945.984 -0.3171 -1.54377 0
M  V30 10010 C 946.914 0.544623 -2.2706 0
M  V30 10011 C 947.895 1.12469 -1.27611 0
M  V30 10012 O 949.08 1.15103 -1.56413 0
M  V30 10013 C 946.21 1.70879 -3.02353 0
M  V30 10014 C 945.164 1.25833 -4.09084 0
M  V30 10015 C 944.49 2.50894 -4.72182 0
M  V30 10016 C 945.79 0.377876 -5.20931 0
M  V30 10017 H 947.484 -0.0616372 -2.99337 0
M  V30 10018 H 945.03 -0.0310848 -1.43966 0
M  V30 10019 H 946.983 2.31787 -3.51927 0
M  V30 10020 H 945.707 2.34155 -2.27682 0
M  V30 10021 H 944.366 0.672228 -3.60384 0
M  V30 10022 H 944.014 3.12518 -3.94134 0
M  V30 10023 H 943.714 2.21447 -5.44275 0
M  V30 10024 H 945.238 3.12575 -5.24528 0
M  V30 10025 H 946.652 0.893056 -5.66302 0
M  V30 10026 H 945.049 0.176474 -5.9984 0
M  V30 10027 H 946.119 -0.592943 -4.81261 0
M  V30 10028 N 947.462 1.57535 -0.0451378 0
M  V30 10029 C 948.425 2.1008 0.916461 0
M  V30 10030 C 949.425 1.01913 1.2438 0
M  V30 10031 O 950.615 1.2801 1.18148 0
M  V30 10032 C 947.747 2.58001 2.22818 0
M  V30 10033 H 948.94 2.96334 0.461076 0
M  V30 10034 H 946.493 1.54974 0.203169 0
M  V30 10035 H 947.228 1.75123 2.72951 0
M  V30 10036 H 947.013 3.3704 2.00366 0
M  V30 10037 H 948.503 2.98822 2.9171 0
M  V30 10038 N 948.94 -0.228186 1.55939 0
M  V30 10039 C 950.168 -0.970618 1.8272 0
M  V30 10040 C 950.583 -1.78212 0.623385 0
M  V30 10041 O 949.94 -1.77879 -0.408063 0
M  V30 10042 C 949.991 -1.89352 3.07942 0
M  V30 10043 O 949.712 -1.11483 4.23678 0
M  V30 10044 C 951.213 -2.75039 3.47661 0
M  V30 10045 H 948.433 -0.284772 0.607574 0
M  V30 10046 H 950.977 -0.245419 2.03022 0
M  V30 10047 H 949.132 -2.57275 2.89635 0
M  V30 10048 H 949.546 -1.74073 4.94772 0
M  V30 10049 H 951.02 -3.35511 4.38334 0
M  V30 10050 H 951.497 -3.471 2.69106 0
M  V30 10051 H 952.103 -2.1254 3.68384 0
M  V30 10052 N 950.418 -1.49637 -0.494624 0
M  V30 10053 C 951.381 -1.66252 -1.57775 0
M  V30 10054 C 952.381 -0.534054 -1.51672 0
M  V30 10055 O 953.571 -0.800637 -1.54711 0
M  V30 10056 C 950.703 -1.66584 -2.97426 0
M  V30 10057 H 951.896 -2.62864 -1.4437 0
M  V30 10058 H 949.449 -1.38764 -0.719323 0
M  V30 10059 H 950.184 -0.715798 -3.16302 0
M  V30 10060 H 949.969 -2.48543 -3.03264 0
M  V30 10061 H 951.459 -1.81474 -3.76108 0
M  V30 10062 N 951.896 0.746133 -1.38819 0
M  V30 10063 C 953.124 1.53539 -1.38685 0
M  V30 10064 C 953.539 1.88788 0.0215039 0
M  V30 10065 O 952.896 1.53312 0.990031 0
M  V30 10066 C 952.947 2.8299 -2.24942 0
M  V30 10067 O 952.668 2.49242 -3.60292 0
M  V30 10068 C 954.169 3.77085 -2.3307 0
M  V30 10069 H 951.389 0.474842 -0.474095 0
M  V30 10070 H 953.933 0.922844 -1.82493 0
M  V30 10071 H 952.088 3.40603 -1.84576 0
M  V30 10072 H 952.502 3.32319 -4.05789 0
M  V30 10073 H 953.976 4.64845 -2.97696 0
M  V30 10074 H 954.453 4.18049 -1.34655 0
M  V30 10075 H 955.059 3.25394 -2.73859 0
M  V30 10076 N 953.375 1.23811 0.975125 0
M  V30 10077 C 954.622 1.07336 1.71712 0
M  V30 10078 C 954.95 -0.388954 1.90571 0
M  V30 10079 O 954.205 -1.30409 1.45918 0
M  V30 10080 C 954.504 1.74994 3.11628 0
M  V30 10081 C 954.17 3.24918 3.12632 0
M  V30 10082 C 952.832 3.65822 3.12614 0
M  V30 10083 C 955.184 4.20797 3.07538 0
M  V30 10084 C 952.512 5.01054 3.05224 0
M  V30 10085 C 954.864 5.56027 3.0169 0
M  V30 10086 C 953.528 5.96287 2.99996 0
M  V30 10087 H 952.798 0.392771 0.62834 0
M  V30 10088 H 955.445 1.53815 1.14075 0
M  V30 10089 H 953.75 1.20889 3.72684 0
M  V30 10090 H 955.447 1.5972 3.67819 0
M  V30 10091 H 952.037 2.92359 3.13407 0
M  V30 10092 H 956.221 3.902 3.06688 0
M  V30 10093 H 951.477 5.31454 3.02268 0
M  V30 10094 H 955.651 6.3003 2.96706 0
M  V30 10095 H 953.278 7.01037 2.94025 0
M  V30 10096 N 954.853 -1.17469 1.05066 0
M  V30 10097 C 955.816 -2.19648 0.654793 0
M  V30 10098 C 956.816 -1.58107 -0.293063 0
M  V30 10099 O 958.006 -1.74029 -0.077106 0
M  V30 10100 C 955.138 -3.40878 -0.0384437 0
M  V30 10101 H 956.331 -2.56184 1.55915 0
M  V30 10102 H 953.884 -1.31528 0.844396 0
M  V30 10103 H 954.619 -3.09885 -0.956133 0
M  V30 10104 H 954.404 -3.86792 0.642961 0
M  V30 10105 H 955.894 -4.1651 -0.301568 0
M  V30 10106 N 956.331 -0.831506 -1.3388 0
M  V30 10107 C 957.579 -0.422837 -1.97627 0
M  V30 10108 C 957.9 1.01961 -1.6622 0
M  V30 10109 O 957.17 1.70916 -0.957323 0
M  V30 10110 H 955.75 -0.153365 -0.731087 0
M  V30 10111 H 958.412 -1.06284 -1.6337 0
M  V30 10112 H 957.508 -0.548858 -3.07236 0
M  V30 10113 N 957.809 1.4625 -0.587256 0
M  V30 10114 C 959.058 2.01571 -0.0722643 0
M  V30 10115 C 959.371 1.46385 1.29733 0
M  V30 10116 O 960.577 1.93554 1.90392 0
M  V30 10117 C 959.033 3.59814 -0.078579 0
M  V30 10118 C 958.641 4.23996 -1.44678 0
M  V30 10119 C 960.385 4.22776 0.382231 0
M  V30 10120 C 958.292 5.74332 -1.41057 0
M  V30 10121 H 957.222 0.753642 -0.0232461 0
M  V30 10122 H 959.873 1.67936 -0.739577 0
M  V30 10123 H 958.255 3.90546 0.654988 0
M  V30 10124 H 959.429 4.04867 -2.20043 0
M  V30 10125 H 957.744 3.73147 -1.84799 0
M  V30 10126 H 960.341 5.32983 0.428182 0
M  V30 10127 H 960.684 3.92027 1.40072 0
M  V30 10128 H 961.217 3.96687 -0.297417 0
M  V30 10129 H 957.956 6.09747 -2.40601 0
M  V30 10130 H 957.476 5.95711 -0.699185 0
M  V30 10131 H 959.155 6.37137 -1.12543 0
M  V30 10132 N 959.287 0.325282 1.54207 0
M  V30 10133 C 960.197 -0.548778 2.28091 0
M  V30 10134 C 961.213 -1.12772 1.32508 0
M  V30 10135 O 962.389 -1.14732 1.65525 0
M  V30 10136 C 959.454 -1.69284 3.02562 0
M  V30 10137 C 958.515 -1.14553 4.13734 0
M  V30 10138 C 957.748 -2.23506 4.84645 0
M  V30 10139 O 957.971 -3.43884 4.55082 0
M  V30 10140 O 956.905 -1.88828 5.71513 0
M  V30 10141 H 960.731 0.0512974 3.03657 0
M  V30 10142 H 958.316 0.0909159 1.49123 0
M  V30 10143 H 960.198 -2.35887 3.49192 0
M  V30 10144 H 958.873 -2.27906 2.2987 0
M  V30 10145 H 957.78 -0.444532 3.71449 0
M  V30 10146 H 959.113 -0.60441 4.88475 0
M  V30 10147 N 960.765 -1.57509 0.0534917 0
M  V30 10148 C 961.713 -2.12851 -0.937931 0
M  V30 10149 C 962.707 -1.06088 -1.32067 0
M  V30 10150 O 963.913 -1.24494 -1.30005 0
M  V30 10151 H 960.288 -0.680357 -0.320342 0
M  V30 10152 H 962.259 -2.95047 -0.446077 0
M  V30 10153 C 961.008 -2.69034 -2.20264 0
M  V30 10154 H 960.331 -3.50848 -1.91693 0
M  V30 10155 H 961.771 -3.11375 -2.87788 0
M  V30 10156 C 960.23 -1.62919 -2.94888 0
M  V30 10157 O 960.76 -1.04334 -3.87914 0
M  V30 10158 N 958.966 -1.34385 -2.57661 0
M  V30 10159 H 958.513 -1.82214 -1.82088 0
M  V30 10160 H 958.471 -0.636149 -3.07897 0
M  V30 10161 N 962.243 0.219913 -1.56058 0
M  V30 10162 C 963.19 1.27254 -1.92549 0
M  V30 10163 C 964.16 1.46493 -0.782883 0
M  V30 10164 O 965.345 1.60035 -1.03892 0
M  V30 10165 C 962.485 2.61756 -2.24896 0
M  V30 10166 C 961.598 2.50302 -3.52098 0
M  V30 10167 C 960.733 3.77338 -3.73884 0
M  V30 10168 C 959.772 3.60613 -4.94595 0
M  V30 10169 N 958.909 4.79603 -5.12763 0
M  V30 10170 H 963.749 0.954352 -2.82305 0
M  V30 10171 H 961.286 0.459928 -1.39725 0
M  V30 10172 H 963.244 3.40082 -2.4166 0
M  V30 10173 H 961.874 2.91668 -1.38311 0
M  V30 10174 H 960.926 1.63401 -3.43517 0
M  V30 10175 H 962.238 2.33866 -4.40577 0
M  V30 10176 H 961.392 4.64108 -3.90754 0
M  V30 10177 H 960.131 3.96702 -2.83689 0
M  V30 10178 H 959.136 2.72228 -4.77674 0
M  V30 10179 H 960.361 3.42719 -5.86277 0
M  V30 10180 H 958.307 4.99277 -4.2551 0
M  V30 10181 H 958.224 4.65899 -5.95377 0
M  V30 10182 H 959.492 5.67794 -5.34069 0
M  V30 10183 N 963.721 1.49897 0.486681 0
M  V30 10184 C 964.968 1.60105 1.23986 0
M  V30 10185 C 965.296 0.294228 1.92262 0
M  V30 10186 O 964.551 -0.718876 1.82018 0
M  V30 10187 C 964.85 2.71982 2.31863 0
M  V30 10188 C 964.516 4.13 1.80948 0
M  V30 10189 C 963.178 4.51373 1.66782 0
M  V30 10190 C 965.53 5.01198 1.43004 0
M  V30 10191 C 962.858 5.75701 1.13072 0
M  V30 10192 C 965.21 6.26058 0.90742 0
M  V30 10193 C 963.874 6.63247 0.752269 0
M  V30 10194 H 963.144 0.585866 0.453698 0
M  V30 10195 H 965.791 1.83778 0.538305 0
M  V30 10196 H 964.096 2.42336 3.07865 0
M  V30 10197 H 965.793 2.77087 2.89869 0
M  V30 10198 H 962.383 3.82718 1.92937 0
M  V30 10199 H 966.567 4.72196 1.52789 0
M  V30 10200 H 961.823 6.03202 0.997842 0
M  V30 10201 H 965.997 6.9377 0.604684 0
M  V30 10202 H 963.624 7.59466 0.33392 0
M  V30 10203 N 965.199 -0.738761 1.39212 0
M  V30 10204 C 966.447 -1.49529 1.35962 0
M  V30 10205 C 966.768 -1.94948 -0.0450152 0
M  V30 10206 O 966.038 -1.68717 -0.995552 0
M  V30 10207 H 964.618 -0.554692 0.500326 0
M  V30 10208 H 967.28 -0.877255 1.74041 0
M  V30 10209 H 966.376 -2.37919 2.01993 0
M  V30 10210 N 966.677 -1.24326 -0.968545 0
M  V30 10211 C 967.607 -1.05951 -2.08079 0
M  V30 10212 C 968.588 0.0272666 -1.70078 0
M  V30 10213 O 969.773 -0.139644 -1.93697 0
M  V30 10214 C 966.903 -0.662623 -3.4092 0
M  V30 10215 C 965.857 -1.69807 -3.92873 0
M  V30 10216 C 965.183 -1.15628 -5.22048 0
M  V30 10217 C 966.483 -3.09383 -4.20808 0
M  V30 10218 H 968.177 -1.98984 -2.23709 0
M  V30 10219 H 965.723 -0.958112 -1.075 0
M  V30 10220 H 967.676 -0.521071 -4.18166 0
M  V30 10221 H 966.4 0.303399 -3.25188 0
M  V30 10222 H 965.059 -1.82783 -3.17783 0
M  V30 10223 H 964.707 -0.180888 -5.02675 0
M  V30 10224 H 964.407 -1.84822 -5.57776 0
M  V30 10225 H 965.931 -1.02683 -6.01904 0
M  V30 10226 H 967.345 -2.99642 -4.88761 0
M  V30 10227 H 965.742 -3.75923 -4.67763 0
M  V30 10228 H 966.812 -3.57486 -3.27616 0
M  V30 10229 N 968.156 1.1691 -1.05688 0
M  V30 10230 C 969.386 1.90927 -0.789339 0
M  V30 10231 C 969.794 1.77339 0.659369 0
M  V30 10232 O 969.137 1.11147 1.4626 0
M  V30 10233 C 969.199 3.42361 -1.09677 0
M  V30 10234 C 968.863 3.79733 -2.54267 0
M  V30 10235 C 969.86 3.82163 -3.52487 0
M  V30 10236 C 967.545 4.10547 -2.89406 0
M  V30 10237 C 969.539 4.14884 -4.8389 0
M  V30 10238 C 967.226 4.42936 -4.21011 0
M  V30 10239 C 968.224 4.45084 -5.18063 0
M  V30 10240 O 967.912 4.76707 -6.47307 0
M  V30 10241 H 967.644 0.612466 -0.286115 0
M  V30 10242 H 970.198 1.4916 -1.4121 0
M  V30 10243 H 968.428 3.84446 -0.416924 0
M  V30 10244 H 970.117 3.97645 -0.814456 0
M  V30 10245 H 970.883 3.58476 -3.26681 0
M  V30 10246 H 966.762 4.08044 -2.14525 0
M  V30 10247 H 970.306 4.16475 -5.59638 0
M  V30 10248 H 966.203 4.66088 -4.46579 0
M  V30 10249 H 966.971 4.94544 -6.52203 0
M  V30 10250 N 969.634 0.838594 1.33437 0
M  V30 10251 C 970.564 0.286672 2.31734 0
M  V30 10252 C 971.545 -0.605451 1.5896 0
M  V30 10253 O 972.73 -0.529059 1.86854 0
M  V30 10254 C 969.86 -0.539311 3.43087 0
M  V30 10255 C 968.814 0.256997 4.27228 0
M  V30 10256 C 968.14 -0.692718 5.30194 0
M  V30 10257 C 969.44 1.47391 5.01072 0
M  V30 10258 H 971.134 1.10798 2.78144 0
M  V30 10259 H 968.68 0.534235 1.33723 0
M  V30 10260 H 970.633 -0.935724 4.1088 0
M  V30 10261 H 969.357 -1.39383 2.95364 0
M  V30 10262 H 968.016 0.634967 3.61059 0
M  V30 10263 H 967.664 -1.54363 4.78729 0
M  V30 10264 H 967.364 -0.164023 5.87371 0
M  V30 10265 H 968.888 -1.08665 6.00853 0
M  V30 10266 H 970.302 1.15067 5.61634 0
M  V30 10267 H 968.699 1.93937 5.67898 0
M  V30 10268 H 969.769 2.24382 4.29861 0
M  V30 10269 N 971.112 -1.45937 0.595003 0
M  V30 10270 C 972.523 -1.85908 0.171779 0
M  V30 10271 C 972.874 -1.497 -1.26824 0
M  V30 10272 O 971.999 -0.917688 -1.95978 0
M  V30 10273 C 972.594 -3.37425 0.304976 0
M  V30 10274 C 971.153 -3.76346 -0.0634635 0
M  V30 10275 C 970.3 -2.69926 0.635255 0
M  V30 10276 H 973.251 -1.36916 0.802471 0
M  V30 10277 H 973.272 -3.77632 -0.466313 0
M  V30 10278 H 972.784 -3.63747 1.35314 0
M  V30 10279 H 970.885 -3.55642 -1.11129 0
M  V30 10280 H 970.998 -4.78021 0.321419 0
M  V30 10281 H 969.362 -2.54592 0.0742054 0
M  V30 10282 H 970.145 -2.99086 1.68531 0
M  V30 10283 N 972.59 -0.333456 -1.54032 0
M  V30 10284 C 973.537 0.527981 -2.2468 0
M  V30 10285 C 974.507 1.10371 -1.24127 0
M  V30 10286 O 975.692 1.14221 -1.52834 0
M  V30 10287 C 972.832 1.67808 -3.01553 0
M  V30 10288 C 971.945 1.13064 -4.16942 0
M  V30 10289 C 971.08 2.24722 -4.81325 0
M  V30 10290 C 970.119 1.67277 -5.88799 0
M  V30 10291 N 969.256 2.72638 -6.47003 0
M  V30 10292 H 974.096 -0.0810308 -2.9789 0
M  V30 10293 H 971.633 -0.051761 -1.47009 0
M  V30 10294 H 973.591 2.35502 -3.44376 0
M  V30 10295 H 972.221 2.25823 -2.30659 0
M  V30 10296 H 971.273 0.344948 -3.78833 0
M  V30 10297 H 972.585 0.670373 -4.94275 0
M  V30 10298 H 971.739 3.00301 -5.27166 0
M  V30 10299 H 970.478 2.74089 -4.03394 0
M  V30 10300 H 969.483 0.902002 -5.4235 0
M  V30 10301 H 970.708 1.18775 -6.68632 0
M  V30 10302 H 968.654 3.21277 -5.71941 0
M  V30 10303 H 968.571 2.31204 -7.19778 0
M  V30 10304 H 969.839 3.48015 -6.97499 0
M  V30 10305 N 974.068 1.57479 -0.061844 0
M  V30 10306 C 975.315 1.93108 0.60954 0
M  V30 10307 C 975.643 0.941086 1.70217 0
M  V30 10308 O 974.898 -0.044914 1.95648 0
M  V30 10309 C 975.197 3.35394 1.23474 0
M  V30 10310 C 974.863 4.50095 0.269247 0
M  V30 10311 C 973.525 4.812 0.00360316 0
M  V30 10312 C 975.877 5.19725 -0.391839 0
M  V30 10313 C 973.205 5.79276 -0.930383 0
M  V30 10314 C 975.557 6.18801 -1.31408 0
M  V30 10315 C 974.221 6.48328 -1.58829 0
M  V30 10316 H 973.491 0.706634 0.223046 0
M  V30 10317 H 976.138 1.91054 -0.1306 0
M  V30 10318 H 974.443 3.33866 2.05039 0
M  V30 10319 H 976.14 3.60247 1.76134 0
M  V30 10320 H 972.73 4.2583 0.486477 0
M  V30 10321 H 976.914 4.95898 -0.199713 0
M  V30 10322 H 972.17 6.00484 -1.15019 0
M  V30 10323 H 976.344 6.71862 -1.83234 0
M  V30 10324 H 973.971 7.24137 -2.31363 0
M  V30 10325 N 975.546 -0.211634 1.56173 0
M  V30 10326 C 976.493 -1.26231 1.93221 0
M  V30 10327 C 977.463 -1.46076 0.790641 0
M  V30 10328 O 978.648 -1.59482 1.04739 0
M  V30 10329 C 975.788 -2.60559 2.26281 0
M  V30 10330 C 974.901 -2.48431 3.5342 0
M  V30 10331 C 974.036 -3.7535 3.7588 0
M  V30 10332 C 973.075 -3.57985 4.96501 0
M  V30 10333 N 972.212 -4.76877 5.15299 0
M  V30 10334 H 977.052 -0.939367 2.82807 0
M  V30 10335 H 974.589 -0.452511 1.39967 0
M  V30 10336 H 976.547 -3.38796 2.43461 0
M  V30 10337 H 975.177 -2.9093 1.39855 0
M  V30 10338 H 974.229 -1.61577 3.44379 0
M  V30 10339 H 975.541 -2.31526 4.41811 0
M  V30 10340 H 974.695 -4.62029 3.9321 0
M  V30 10341 H 973.434 -3.95191 2.85788 0
M  V30 10342 H 972.439 -2.69691 4.79111 0
M  V30 10343 H 973.664 -3.39605 5.88086 0
M  V30 10344 H 971.61 -4.97013 4.28152 0
M  V30 10345 H 971.527 -4.62735 5.9784 0
M  V30 10346 H 972.795 -5.64954 5.37073 0
M  V30 10347 N 977.024 -1.50153 -0.478725 0
M  V30 10348 C 978.249 -1.64776 -1.2595 0
M  V30 10349 C 978.674 -0.327794 -1.85222 0
M  V30 10350 O 978.032 0.707418 -1.66929 0
M  V30 10351 C 978.08 -2.73551 -2.34952 0
M  V30 10352 O 977.184 -2.34273 -3.39397 0
M  V30 10353 H 976.525 -0.550769 -0.370877 0
M  V30 10354 H 979.055 -1.96482 -0.570605 0
M  V30 10355 H 979.065 -2.96397 -2.8038 0
M  V30 10356 H 977.74 -3.69354 -1.91181 0
M  V30 10357 H 976.317 -2.21844 -2.99733 0
M  V30 10358 N 978.502 0.731368 -1.39602 0
M  V30 10359 C 979.913 1.30981 -1.33045 0
M  V30 10360 C 980.264 1.962 0.00349918 0
M  V30 10361 O 979.389 1.96539 0.905615 0
M  V30 10362 C 979.984 2.3817 -2.40958 0
M  V30 10363 C 978.543 2.91678 -2.3791 0
M  V30 10364 C 977.69 1.65286 -2.22656 0
M  V30 10365 H 980.641 0.528615 -1.49637 0
M  V30 10366 H 980.662 3.18645 -2.07955 0
M  V30 10367 H 980.174 1.90673 -3.38032 0
M  V30 10368 H 978.275 3.43446 -1.44485 0
M  V30 10369 H 978.388 3.44545 -3.32904 0
M  V30 10370 H 976.752 1.89759 -1.69893 0
M  V30 10371 H 977.535 1.19836 -3.21705 0
M  V30 10372 N 979.98 1.24838 0.961938 0
M  V30 10373 C 981.205 1.11967 1.7458 0
M  V30 10374 C 981.63 -0.323287 1.85301 0
M  V30 10375 O 980.988 -1.23412 1.32812 0
M  V30 10376 C 981.036 1.77066 3.14134 0
M  V30 10377 O 980.14 1.04534 3.98932 0
M  V30 10378 H 979.481 0.391338 0.536424 0
M  V30 10379 H 982.011 1.65259 1.20626 0
M  V30 10380 H 982.021 1.83056 3.64629 0
M  V30 10381 H 980.696 2.82052 3.05646 0
M  V30 10382 H 979.273 1.06372 3.57407 0
M  V30 10383 N 981.458 -1.16348 1.06306 0
M  V30 10384 C 982.704 -1.87158 0.781007 0
M  V30 10385 C 983.037 -1.81499 -0.690784 0
M  V30 10386 O 982.312 -1.23074 -1.50609 0
M  V30 10387 C 982.595 -3.3672 1.27639 0
M  V30 10388 C 982.448 -3.51069 2.81194 0
M  V30 10389 C 983.767 -4.31122 0.884388 0
M  V30 10390 H 980.886 -0.679586 0.285187 0
M  V30 10391 H 983.528 -1.36756 1.31901 0
M  V30 10392 H 981.678 -3.79775 0.818715 0
M  V30 10393 H 983.35 -3.16952 3.35171 0
M  V30 10394 H 981.593 -2.92976 3.19918 0
M  V30 10395 H 982.264 -4.56105 3.10921 0
M  V30 10396 H 984.74 -3.95969 1.27858 0
M  V30 10397 H 983.616 -5.34279 1.25847 0
M  V30 10398 H 983.877 -4.41598 -0.210673 0
M  V30 10399 N 982.937 -0.845659 -1.3299 0
M  V30 10400 C 983.9 -0.288905 -2.27372 0
M  V30 10401 C 984.9 0.546263 -1.51237 0
M  V30 10402 O 986.09 0.359072 -1.70459 0
M  V30 10403 C 983.222 0.59224 -3.35716 0
M  V30 10404 H 984.415 -1.12181 -2.78128 0
M  V30 10405 H 981.968 -0.619276 -1.43508 0
M  V30 10406 H 982.703 1.44732 -2.90212 0
M  V30 10407 H 982.488 -0.00543255 -3.921 0
M  V30 10408 H 983.978 0.974848 -4.06062 0
M  V30 10409 N 984.415 1.45619 -0.602734 0
M  V30 10410 C 985.661 2.02572 -0.0961759 0
M  V30 10411 C 985.994 1.47076 1.26815 0
M  V30 10412 O 985.269 0.643566 1.83544 0
M  V30 10413 C 985.552 3.60062 -0.0520032 0
M  V30 10414 C 985.405 4.25901 -1.44665 0
M  V30 10415 C 986.724 4.35446 0.638342 0
M  V30 10416 H 983.843 0.736099 -0.0364238 0
M  V30 10417 H 986.485 1.7353 -0.773776 0
M  V30 10418 H 984.635 3.84936 0.525032 0
M  V30 10419 H 986.307 4.12228 -2.0704 0
M  V30 10420 H 984.55 3.84489 -2.00874 0
M  V30 10421 H 985.221 5.34779 -1.36803 0
M  V30 10422 H 987.697 4.15837 0.147926 0
M  V30 10423 H 986.573 5.45176 0.63834 0
M  V30 10424 H 986.834 4.07962 1.70351 0
M  V30 10425 N 985.893 0.34162 1.53853 0
M  V30 10426 C 987.139 -0.255862 2.01179 0
M  V30 10427 C 987.472 -1.50356 1.22909 0
M  V30 10428 O 986.747 -1.91913 0.316198 0
M  V30 10429 C 987.03 -0.571934 3.55529 0
M  V30 10430 C 986.883 0.687727 4.44511 0
M  V30 10431 C 988.202 -1.38233 4.17827 0
M  V30 10432 H 985.321 -0.091521 0.731295 0
M  V30 10433 H 987.963 0.461775 1.84303 0
M  V30 10434 H 986.113 -1.18331 3.70041 0
M  V30 10435 H 987.785 1.32572 4.4184 0
M  V30 10436 H 986.028 1.313 4.13452 0
M  V30 10437 H 986.699 0.421858 5.50386 0
M  V30 10438 H 989.175 -0.865374 4.07002 0
M  V30 10439 H 988.051 -1.57223 5.25901 0
M  V30 10440 H 988.312 -2.38386 3.72323 0
M  V30 10441 N 987.371 -1.57444 0.0701946 0
M  V30 10442 C 988.303 -2.09611 -0.927142 0
M  V30 10443 C 989.316 -1.02791 -1.26245 0
M  V30 10444 O 990.505 -1.30309 -1.21992 0
M  V30 10445 C 987.605 -2.54015 -2.24342 0
M  V30 10446 C 986.778 -3.84389 -2.08719 0
M  V30 10447 C 985.837 -4.14904 -3.23638 0
M  V30 10448 O 984.863 -4.84528 -2.98699 0
M  V30 10449 N 986.065 -3.68322 -4.48686 0
M  V30 10450 H 988.83 -2.95803 -0.481753 0
M  V30 10451 H 986.391 -1.61487 -0.115572 0
M  V30 10452 H 988.383 -2.71492 -3.00124 0
M  V30 10453 H 986.953 -1.72969 -2.60385 0
M  V30 10454 H 986.173 -3.76308 -1.17415 0
M  V30 10455 H 987.461 -4.69729 -1.9553 0
M  V30 10456 H 986.859 -3.12073 -4.71834 0
M  V30 10457 H 985.416 -3.91002 -5.21499 0
M  V30 10458 N 988.849 0.203349 -1.56283 0
M  V30 10459 C 990.26 0.768764 -1.70138 0
M  V30 10460 C 990.611 1.8421 -0.675358 0
M  V30 10461 O 989.736 2.15732 0.1699 0
M  V30 10462 C 990.331 1.40123 -3.08466 0
M  V30 10463 C 988.89 1.91382 -3.24114 0
M  V30 10464 C 988.037 0.780685 -2.66084 0
M  V30 10465 H 990.988 -0.0215997 -1.58685 0
M  V30 10466 H 991.009 2.27046 -3.05336 0
M  V30 10467 H 990.521 0.619805 -3.83119 0
M  V30 10468 H 988.622 2.7227 -2.54362 0
M  V30 10469 H 988.735 2.08128 -4.31531 0
M  V30 10470 H 987.099 1.19281 -2.25042 0
M  V30 10471 H 987.882 0.0116351 -3.43298 0
M  V30 10472 N 990.327 1.50405 0.470755 0
M  V30 10473 C 991.274 1.69293 1.56871 0
M  V30 10474 C 992.244 0.534248 1.57274 0
M  V30 10475 O 993.429 0.764855 1.74799 0
M  V30 10476 C 990.569 1.79338 2.94842 0
M  V30 10477 C 989.682 3.06709 3.04226 0
M  V30 10478 C 988.817 3.07548 4.33114 0
M  V30 10479 C 987.856 4.29372 4.36241 0
M  V30 10480 N 986.993 4.27949 5.56601 0
M  V30 10481 H 991.833 2.63029 1.40071 0
M  V30 10482 H 989.37 1.30386 0.681016 0
M  V30 10483 H 991.328 1.83143 3.74853 0
M  V30 10484 H 989.958 0.890411 3.10277 0
M  V30 10485 H 989.01 3.12374 2.17086 0
M  V30 10486 H 990.322 3.96684 3.02396 0
M  V30 10487 H 989.476 3.10084 5.21472 0
M  V30 10488 H 988.215 2.15404 4.37553 0
M  V30 10489 H 987.22 4.27048 3.4628 0
M  V30 10490 H 988.445 5.22743 4.33493 0
M  V30 10491 H 986.391 3.38658 5.61824 0
M  V30 10492 H 986.308 5.11692 5.56513 0
M  V30 10493 H 987.576 4.34631 6.47083 0
M  V30 10494 N 991.805 -0.723954 1.39988 0
M  V30 10495 C 992.768 -1.81973 1.3935 0
M  V30 10496 C 993.768 -1.58187 0.288702 0
M  V30 10497 O 994.958 -1.65383 0.547181 0
M  V30 10498 C 992.09 -3.19937 1.177 0
M  V30 10499 H 993.283 -1.83939 2.36868 0
M  V30 10500 H 990.836 -0.928742 1.25714 0
M  V30 10501 H 991.571 -3.23625 0.209093 0
M  V30 10502 H 991.356 -3.386 1.97719 0
M  V30 10503 H 992.846 -3.99981 1.20022 0
M  V30 10504 N 993.283 -1.25346 -0.955304 0
M  V30 10505 C 994.246 -1.05754 -2.03344 0
M  V30 10506 C 995.246 -0.0105743 -1.60797 0
M  V30 10507 O 996.436 -0.252699 -1.72357 0
M  V30 10508 C 993.568 -0.605536 -3.35479 0
M  V30 10509 H 994.761 -2.01459 -2.22158 0
M  V30 10510 H 992.314 -1.07744 -1.1323 0
M  V30 10511 H 993.049 0.354154 -3.2236 0
M  V30 10512 H 992.834 -1.36134 -3.67709 0
M  V30 10513 H 994.324 -0.489867 -4.14717 0
M  V30 10514 N 994.761 1.15782 -1.06922 0
M  V30 10515 C 996.007 1.86741 -0.790922 0
M  V30 10516 C 996.34 1.81863 0.681149 0
M  V30 10517 O 995.615 1.23871 1.49954 0
M  V30 10518 C 995.898 3.36038 -1.29422 0
M  V30 10519 C 995.751 3.49573 -2.83052 0
M  V30 10520 C 997.07 4.30647 -0.907239 0
M  V30 10521 H 994.189 0.678064 -0.288787 0
M  V30 10522 H 996.831 1.36054 -1.32624 0
M  V30 10523 H 994.981 3.79336 -0.838843 0
M  V30 10524 H 996.653 3.1517 -3.36847 0
M  V30 10525 H 994.896 2.91275 -3.21467 0
M  V30 10526 H 995.567 4.5445 -3.13335 0
M  V30 10527 H 998.043 3.95286 -1.29956 0
M  V30 10528 H 996.919 5.33604 -1.28679 0
M  V30 10529 H 997.18 4.41703 0.187251 0
M  V30 10530 N 996.239 0.8527 1.3254 0
M  V30 10531 C 997.202 0.300959 2.27215 0
M  V30 10532 C 998.202 -0.538235 1.51525 0
M  V30 10533 O 999.392 -0.350027 1.70647 0
M  V30 10534 C 996.524 -0.574428 3.36025 0
M  V30 10535 H 997.717 1.13655 2.77529 0
M  V30 10536 H 995.27 0.626878 1.43178 0
M  V30 10537 H 996.005 -1.43191 2.90976 0
M  V30 10538 H 995.79 0.0262265 3.92091 0
M  V30 10539 H 997.28 -0.9533 4.06573 0
M  V30 10540 N 997.718 -1.45297 0.610449 0
M  V30 10541 C 998.681 -2.28995 -0.0968194 0
M  V30 10542 C 999.681 -1.39923 -0.792353 0
M  V30 10543 O 1000.87 -1.62014 -0.64008 0
M  V30 10544 C 998.003 -3.21013 -1.14731 0
M  V30 10545 H 999.196 -2.93012 0.639082 0
M  V30 10546 H 996.749 -1.51867 0.369624 0
M  V30 10547 H 997.484 -2.61803 -1.91388 0
M  V30 10548 H 997.269 -3.86628 -0.652753 0
M  V30 10549 H 998.759 -3.8394 -1.64256 0
M  V30 10550 N 999.196 -0.349774 -1.5367 0
M  V30 10551 C 1000.42 0.246038 -2.05432 0
M  V30 10552 C 1000.84 1.43719 -1.22435 0
M  V30 10553 O 1000.2 1.80622 -0.261166 0
M  V30 10554 C 1000.25 0.65501 -3.55516 0
M  V30 10555 O 999.968 -0.488782 -4.35365 0
M  V30 10556 C 1001.47 1.31088 -4.23475 0
M  V30 10557 H 998.689 0.0463952 -0.669394 0
M  V30 10558 H 1001.23 -0.503566 -1.98203 0
M  V30 10559 H 999.388 1.35455 -3.62947 0
M  V30 10560 H 999.802 -0.161528 -5.24251 0
M  V30 10561 H 1001.28 1.54774 -5.29857 0
M  V30 10562 H 1001.75 2.26636 -3.76208 0
M  V30 10563 H 1002.36 0.653211 -4.20254 0
M  V30 10564 N 1000.67 1.57404 -0.0785433 0
M  V30 10565 C 1001.61 2.101 0.916013 0
M  V30 10566 C 1002.62 1.03459 1.25698 0
M  V30 10567 O 1003.81 1.30954 1.21299 0
M  V30 10568 C 1000.91 2.55202 2.22992 0
M  V30 10569 C 1000.08 3.85491 2.06678 0
M  V30 10570 C 999.14 4.16614 3.21433 0
M  V30 10571 O 998.166 4.86105 2.96126 0
M  V30 10572 N 999.368 3.70697 4.46726 0
M  V30 10573 H 1002.13 2.96054 0.466059 0
M  V30 10574 H 999.694 1.61546 0.107006 0
M  V30 10575 H 1001.69 2.7308 2.9868 0
M  V30 10576 H 1000.26 1.74348 2.59464 0
M  V30 10577 H 999.476 3.76925 1.15417 0
M  V30 10578 H 1000.76 4.70759 1.93036 0
M  V30 10579 H 1000.16 3.14571 4.70172 0
M  V30 10580 H 998.719 3.93762 5.19418 0
M  V30 10581 O 1002.19 -0.0619135 1.61381 0
M  V30 10582 H 1002.88 -0.686606 1.81123 0
M  V30 END ATOM
M  V30 BEGIN BOND
M  V30 END BOND
M  V30 END CTAB
M  END
$$$$
