drugbank_target|O75747 Phosphatidylinositol 4-phosphate 3-kinase C2 domain-containing subunit gamma (DB12010)
 OpenBabel12092121183D

  0  0  0     0  0            999 V3000
M  V30 BEGIN CTAB
M  V30 COUNTS 23244 23540 0 0 0
M  V30 BEGIN ATOM
M  V30 1 H -0.908 1.98254 -0.117106 0
M  V30 2 N 0 1.576 0 0
M  V30 3 C 0.933 2.03868 1.02534 0
M  V30 4 C 1.911 0.928543 1.3348 0
M  V30 5 O 3.095 1.19667 1.45644 0
M  V30 6 C 0.222 2.43627 2.35294 0
M  V30 7 C -0.732 3.65373 2.2001 0
M  V30 8 S 0.101 5.13292 1.52614 0
M  V30 9 C 1.257 5.56322 2.86805 0
M  V30 10 H 1.49 2.90518 0.631377 0
M  V30 11 H -0.977 1.52953 0.210867 0
M  V30 12 H 0.981 2.67203 3.11629 0
M  V30 13 H -0.358 1.57376 2.7183 0
M  V30 14 H -1.165 3.90944 3.18086 0
M  V30 15 H -1.563 3.418 1.51819 0
M  V30 16 H 0.729 5.58782 3.83104 0
M  V30 17 H 1.672 6.56266 2.65933 0
M  V30 18 H 2.08 4.83886 2.90714 0
M  V30 19 N 1.4781 -0.272755 1.55222 0
M  V30 20 C 2.4411 -1.32041 1.87344 0
M  V30 21 C 3.4411 -1.42342 0.74803 0
M  V30 22 O 4.6311 -1.41488 1.0162 0
M  V30 23 C 1.7631 -2.70173 2.07893 0
M  V30 24 H 2.9561 -1.04789 2.80997 0
M  V30 25 H 0.5091 -0.51083 1.47717 0
M  V30 26 H 1.2441 -3.02605 1.16622 0
M  V30 27 H 1.0291 -2.64082 2.89833 0
M  V30 28 H 2.5191 -3.45869 2.34017 0
M  V30 29 N 2.9562 -1.48159 -0.537278 0
M  V30 30 C 4.1862 -1.59223 -1.3165 0
M  V30 31 C 4.5942 -0.248849 -1.87556 0
M  V30 32 O 3.9372 0.770949 -1.6674 0
M  V30 33 C 3.9992 -2.57365 -2.51005 0
M  V30 34 C 3.6632 -4.02603 -2.16239 0
M  V30 35 C 4.6602 -4.90503 -1.72344 0
M  V30 36 C 2.3452 -4.48088 -2.26986 0
M  V30 37 C 4.3392 -6.21913 -1.39651 0
M  V30 38 C 2.0262 -5.7952 -1.93906 0
M  V30 39 C 3.0242 -6.66255 -1.50309 0
M  V30 40 O 2.7122 -7.95243 -1.17659 0
M  V30 41 H 2.4442 -0.539831 -0.406889 0
M  V30 42 H 4.9982 -1.94655 -0.655641 0
M  V30 43 H 3.2282 -2.1704 -3.20048 0
M  V30 44 H 4.9172 -2.58342 -3.13072 0
M  V30 45 H 5.6832 -4.56604 -1.63517 0
M  V30 46 H 1.5622 -3.80769 -2.59877 0
M  V30 47 H 5.1062 -6.89569 -1.0555 0
M  V30 48 H 1.0032 -6.12957 -2.02371 0
M  V30 49 H 1.7712 -8.0793 -1.31119 0
M  V30 50 N 4.4343 0.785586 -1.36625 0
M  V30 51 C 5.6593 1.57963 -1.34397 0
M  V30 52 C 6.0843 1.87964 0.071526 0
M  V30 53 O 5.4423 1.48182 1.0446 0
M  V30 54 C 5.4903 2.87511 -2.17646 0
M  V30 55 O 4.5943 3.81281 -1.57158 0
M  V30 56 H 3.9353 0.479014 -0.459828 0
M  V30 57 H 6.4653 0.973411 -1.79961 0
M  V30 58 H 6.4753 3.36745 -2.30362 0
M  V30 59 H 5.1503 2.65002 -3.20541 0
M  V30 60 H 3.7273 3.39885 -1.53403 0
M  V30 61 N 5.9124 1.20967 1.01018 0
M  V30 62 C 7.1584 1.0353 1.7508 0
M  V30 63 C 7.5134 -0.42734 1.87594 0
M  V30 64 O 6.8064 -1.31298 1.3954 0
M  V30 65 C 7.0004 1.65997 3.16512 0
M  V30 66 C 6.8294 3.18184 3.17788 0
M  V30 67 C 5.5994 3.87198 3.24662 0
M  V30 68 C 7.7974 4.15334 3.03319 0
M  V30 69 N 5.7794 5.26618 3.15509 0
M  V30 70 C 7.1504 5.41472 3.02007 0
M  V30 71 C 9.2054 4.06449 2.87583 0
M  V30 72 C 7.9084 6.5975 2.86571 0
M  V30 73 C 9.9344 5.24357 2.73503 0
M  V30 74 C 9.2964 6.49404 2.72862 0
M  V30 75 H 5.3954 0.433137 0.651089 0
M  V30 76 H 7.9794 1.5324 1.20107 0
M  V30 77 H 6.1504 1.18863 3.69765 0
M  V30 78 H 7.8824 1.41816 3.79039 0
M  V30 79 H 4.6374 3.38093 3.31648 0
M  V30 80 H 5.0614 5.99626 3.14289 0
M  V30 81 H 9.7034 3.10573 2.86887 0
M  V30 82 H 7.4214 7.55792 2.86015 0
M  V30 83 H 11.0074 5.19299 2.62334 0
M  V30 84 H 9.8874 7.39105 2.62093 0
M  V30 85 N 7.3905 -1.2043 1.01659 0
M  V30 86 C 8.3225 -2.22626 0.544988 0
M  V30 87 C 9.3355 -1.58479 -0.372609 0
M  V30 88 O 10.5245 -1.77679 -0.170958 0
M  V30 89 C 7.6245 -3.38141 -0.22663 0
M  V30 90 C 6.7975 -4.31877 0.692876 0
M  V30 91 C 5.8565 -5.26191 -0.0311616 0
M  V30 92 O 4.8825 -5.6612 0.591343 0
M  V30 93 N 6.0845 -5.65618 -1.30601 0
M  V30 94 H 8.8495 -2.63716 1.42388 0
M  V30 95 H 6.4105 -1.34971 0.894116 0
M  V30 96 H 8.4025 -3.98239 -0.72024 0
M  V30 97 H 6.9725 -2.95943 -1.00681 0
M  V30 98 H 6.1925 -3.69746 1.36679 0
M  V30 99 H 7.4805 -4.91426 1.31824 0
M  V30 100 H 6.8785 -5.3519 -1.83269 0
M  V30 101 H 5.4355 -6.28025 -1.74435 0
M  V30 102 N 8.8686 -0.792821 -1.36206 0
M  V30 103 C 10.0966 -0.378825 -2.03402 0
M  V30 104 C 10.5116 1.00586 -1.59774 0
M  V30 105 O 9.8686 1.64574 -0.788764 0
M  V30 106 C 9.9196 -0.43683 -3.58851 0
M  V30 107 O 9.6406 -1.76691 -4.00889 0
M  V30 108 C 11.1416 -0.0138943 -4.43298 0
M  V30 109 H 8.3616 -0.155673 -0.652692 0
M  V30 110 H 10.9056 -1.07261 -1.74113 0
M  V30 111 H 9.0606 0.208575 -3.86838 0
M  V30 112 H 9.4746 -1.72011 -4.95492 0
M  V30 113 H 10.9486 -0.105615 -5.51899 0
M  V30 114 H 11.4256 1.03915 -4.2673 0
M  V30 115 H 12.0316 -0.63192 -4.20579 0
M  V30 116 N 10.3467 1.47872 -0.545128 0
M  V30 117 C 11.6237 1.9554 0.0485222 0
M  V30 118 C 12.0037 1.4876 1.49779 0
M  V30 119 O 11.3517 0.720925 2.16829 0
M  V30 120 C 11.5617 3.48898 -0.084417 0
M  V30 121 C 12.9097 4.24547 0.0671239 0
M  V30 122 O 13.9337 3.56198 -0.0113649 0
M  V30 123 O 12.7927 5.45999 0.233882 0
M  V30 124 H 9.8867 0.823957 0.0708773 0
M  V30 125 H 12.4327 1.58327 -0.610798 0
M  V30 126 H 11.2047 3.75714 -1.09337 0
M  V30 127 H 10.8277 3.92845 0.613066 0
M  V30 128 N 11.8248 0.280983 1.55075 0
M  V30 129 C 13.2358 -0.215629 1.85451 0
M  V30 130 C 13.5868 -1.54991 1.203 0
M  V30 131 O 12.7118 -2.10699 0.493435 0
M  V30 132 C 13.3068 -0.398026 3.36454 0
M  V30 133 C 11.8658 -0.838866 3.66933 0
M  V30 134 C 11.0128 0.064458 2.77225 0
M  V30 135 H 13.9638 0.502601 1.50531 0
M  V30 136 H 13.9848 -1.23569 3.59876 0
M  V30 137 H 13.4968 0.573241 3.83843 0
M  V30 138 H 11.5978 -1.8214 3.25048 0
M  V30 139 H 11.7108 -0.672123 4.74362 0
M  V30 140 H 10.0748 -0.452863 2.50642 0
M  V30 141 H 10.8578 1.03172 3.2743 0
M  V30 142 N 13.3029 -1.57598 0.00835791 0
M  V30 143 C 14.2509 -2.10078 -0.998508 0
M  V30 144 C 15.2449 -1.02262 -1.35051 0
M  V30 145 O 16.4509 -1.20719 -1.33518 0
M  V30 146 H 12.8259 -0.670903 -0.339696 0
M  V30 147 H 14.7969 -2.93648 -0.530398 0
M  V30 148 C 13.5459 -2.62615 -2.27879 0
M  V30 149 H 12.8689 -3.45213 -2.01662 0
M  V30 150 H 14.3089 -3.03004 -2.96588 0
M  V30 151 C 12.7679 -1.54407 -2.99433 0
M  V30 152 O 13.2979 -0.931812 -3.90743 0
M  V30 153 N 11.5039 -1.2695 -2.61404 0
M  V30 154 H 11.0509 -1.76924 -1.87232 0
M  V30 155 H 11.0089 -0.547704 -3.09593 0
M  V30 156 N 14.781 0.264519 -1.55364 0
M  V30 157 C 16.192 0.834936 -1.6699 0
M  V30 158 C 16.543 1.86718 -0.602552 0
M  V30 159 O 15.668 2.14899 0.254425 0
M  V30 160 C 16.263 1.5212 -3.02729 0
M  V30 161 C 14.822 2.03954 -3.16354 0
M  V30 162 C 13.969 0.884498 -2.62815 0
M  V30 163 H 16.92 0.0406869 -1.58648 0
M  V30 164 H 16.941 2.38853 -2.96191 0
M  V30 165 H 16.453 0.769668 -3.80392 0
M  V30 166 H 14.554 2.82041 -2.43482 0
M  V30 167 H 14.667 2.24902 -4.23032 0
M  V30 168 H 13.031 1.2802 -2.20188 0
M  V30 169 H 13.814 0.14634 -3.42988 0
M  V30 170 N 16.2591 1.48442 0.529413 0
M  V30 171 C 17.2071 1.63452 1.65487 0
M  V30 172 C 18.2011 0.500955 1.61823 0
M  V30 173 O 19.4071 0.679695 1.66674 0
M  V30 174 H 15.7821 0.514905 0.548066 0
M  V30 175 H 17.7531 2.57975 1.49971 0
M  V30 176 C 16.5021 1.69196 3.03756 0
M  V30 177 H 15.8251 2.55784 3.07269 0
M  V30 178 H 17.2651 1.83743 3.82119 0
M  V30 179 C 15.7241 0.430765 3.34135 0
M  V30 180 O 16.2541 -0.4561 3.99102 0
M  V30 181 N 14.4601 0.302293 2.89023 0
M  V30 182 H 14.0071 1.02496 2.36331 0
M  V30 183 H 13.9651 -0.540546 3.09718 0
M  V30 184 N 17.7372 -0.778329 1.37039 0
M  V30 185 C 18.6472 -1.92253 1.34446 0
M  V30 186 C 19.6632 -1.72267 0.244991 0
M  V30 187 O 20.8392 -1.95615 0.479258 0
M  V30 188 C 17.9042 -3.27282 1.144 0
M  V30 189 C 16.9652 -3.59969 2.33925 0
M  V30 190 C 16.1982 -4.88555 2.14825 0
M  V30 191 O 16.4212 -5.59113 1.12912 0
M  V30 192 O 15.3552 -5.20153 3.02861 0
M  V30 193 H 19.1812 -1.97392 2.30803 0
M  V30 194 H 16.7662 -0.920154 1.17701 0
M  V30 195 H 18.6482 -4.08062 1.05182 0
M  V30 196 H 17.3232 -3.23011 0.211124 0
M  V30 197 H 16.2302 -2.7945 2.48714 0
M  V30 198 H 17.5632 -3.68976 3.25757 0
M  V30 199 N 19.2153 -1.21501 -1.00376 0
M  V30 200 C 20.4403 -1.05977 -1.78279 0
M  V30 201 C 20.8653 0.385994 -1.84097 0
M  V30 202 O 20.2233 1.27849 -1.28547 0
M  V30 203 C 20.2713 -1.66302 -3.19963 0
M  V30 204 O 19.3753 -0.909333 -4.0225 0
M  V30 205 H 18.7163 -0.372906 -0.549397 0
M  V30 206 H 21.2463 -1.6107 -1.26165 0
M  V30 207 H 21.2563 -1.70574 -3.70632 0
M  V30 208 H 19.9313 -2.71515 -3.15043 0
M  V30 209 H 18.5083 -0.941795 -3.60811 0
M  V30 210 N 20.6934 1.19889 -1.02296 0
M  V30 211 C 21.6434 2.20777 -0.56934 0
M  V30 212 C 22.6274 1.56379 0.378741 0
M  V30 213 O 23.8194 1.75859 0.200673 0
M  V30 214 C 20.9484 3.43196 0.0845077 0
M  V30 215 C 20.0344 4.14749 -0.88566 0
M  V30 216 N 20.4254 4.62584 -2.04573 0
M  V30 217 C 18.7234 4.40347 -0.707835 0
M  V30 218 C 19.4244 5.17466 -2.65714 0
M  V30 219 N 18.4004 5.0791 -1.93723 0
M  V30 220 H 22.2024 2.55434 -1.45365 0
M  V30 221 H 19.7164 1.35897 -0.88915 0
M  V30 222 H 21.7134 4.14707 0.427067 0
M  V30 223 H 20.3734 3.10042 0.964574 0
M  V30 224 H 21.3844 4.57597 -2.4254 0
M  V30 225 H 18.0614 4.17317 0.12364 0
M  V30 226 H 19.4514 5.64808 -3.63925 0
M  V30 227 N 22.1715 0.800033 1.35784 0
M  V30 228 C 23.0815 0.207204 2.33683 0
M  V30 229 C 24.0975 -0.64631 1.61551 0
M  V30 230 O 25.2735 -0.559604 1.93469 0
M  V30 231 C 22.3385 -0.639659 3.40748 0
M  V30 232 C 21.3995 0.233585 4.28664 0
M  V30 233 C 20.6325 -0.572954 5.30616 0
M  V30 234 O 20.8555 -1.80816 5.40982 0
M  V30 235 O 19.7895 0.0327285 6.01891 0
M  V30 236 H 23.6155 1.01692 2.86169 0
M  V30 237 H 21.2005 0.561691 1.38439 0
M  V30 238 H 23.0825 -1.12223 4.06182 0
M  V30 239 H 21.7575 -1.42708 2.90544 0
M  V30 240 H 20.6645 0.763147 3.66233 0
M  V30 241 H 21.9975 0.984784 4.82248 0
M  V30 242 N 23.6496 -1.47581 0.552962 0
M  V30 243 C 24.5966 -2.29957 -0.197108 0
M  V30 244 C 25.5666 -1.38799 -0.912359 0
M  V30 245 O 26.7516 -1.67761 -0.908888 0
M  V30 246 C 23.8916 -3.22672 -1.22379 0
M  V30 247 C 23.0046 -4.28919 -0.515038 0
M  V30 248 C 22.1396 -5.0879 -1.52664 0
M  V30 249 C 21.1786 -6.06815 -0.802631 0
M  V30 250 N 20.3156 -6.7966 -1.76086 0
M  V30 251 H 25.1556 -2.93578 0.511486 0
M  V30 252 H 22.6926 -1.4471 0.264067 0
M  V30 253 H 24.6506 -3.74845 -1.83159 0
M  V30 254 H 23.2806 -2.60925 -1.90047 0
M  V30 255 H 22.3326 -3.79835 0.207192 0
M  V30 256 H 23.6446 -4.98773 0.0523425 0
M  V30 257 H 22.7986 -5.65091 -2.20809 0
M  V30 258 H 21.5376 -4.38828 -2.12794 0
M  V30 259 H 20.5426 -5.49695 -0.107238 0
M  V30 260 H 21.7676 -6.78784 -0.207135 0
M  V30 261 H 19.7136 -6.12432 -2.35081 0
M  V30 262 H 19.6306 -7.45669 -1.24552 0
M  V30 263 H 20.8986 -7.40538 -2.43359 0
M  V30 264 N 25.1277 -0.289203 -1.54924 0
M  V30 265 C 26.0597 0.625583 -2.20497 0
M  V30 266 C 27.0727 1.10667 -1.19402 0
M  V30 267 O 28.2617 1.02615 -1.46056 0
M  V30 268 C 25.3617 1.86702 -2.82835 0
M  V30 269 C 24.5347 1.5304 -4.09753 0
M  V30 270 C 23.5937 2.62576 -4.56005 0
M  V30 271 O 22.6197 2.28167 -5.21468 0
M  V30 272 N 23.8217 3.92901 -4.27328 0
M  V30 273 H 26.5867 0.0642801 -2.99631 0
M  V30 274 H 24.1477 -0.110896 -1.6152 0
M  V30 275 H 26.1397 2.59304 -3.10715 0
M  V30 276 H 24.7097 2.33702 -2.07611 0
M  V30 277 H 23.9297 0.637564 -3.8901 0
M  V30 278 H 25.2177 1.28072 -4.92418 0
M  V30 279 H 24.6157 4.23671 -3.74859 0
M  V30 280 H 23.1727 4.61837 -4.59946 0
M  V30 281 N 26.6058 1.57591 -0.0167156 0
M  V30 282 C 27.8358 1.95292 0.674149 0
M  V30 283 C 28.2438 0.891097 1.66901 0
M  V30 284 O 27.5868 -0.136908 1.83189 0
M  V30 285 C 27.6488 3.29072 1.44747 0
M  V30 286 C 27.3128 4.52879 0.612331 0
M  V30 287 C 28.3098 5.1979 -0.107126 0
M  V30 288 C 25.9948 4.99242 0.553381 0
M  V30 289 C 27.9888 6.31375 -0.874339 0
M  V30 290 C 25.6758 6.10713 -0.217546 0
M  V30 291 C 26.6738 6.76637 -0.930123 0
M  V30 292 O 26.3618 7.85969 -1.68844 0
M  V30 293 H 26.0938 0.648275 0.191615 0
M  V30 294 H 28.6478 2.05284 -0.0690148 0
M  V30 295 H 26.8778 3.15535 2.2355 0
M  V30 296 H 28.5668 3.51764 2.02526 0
M  V30 297 H 29.3328 4.84948 -0.0708392 0
M  V30 298 H 25.2118 4.47744 1.09757 0
M  V30 299 H 28.7558 6.82764 -1.43106 0
M  V30 300 H 24.6528 6.44994 -0.255593 0
M  V30 301 H 25.4208 8.02571 -1.6069 0
M  V30 302 N 28.0839 -0.256276 1.55502 0
M  V30 303 C 28.9939 -1.33882 1.92647 0
M  V30 304 C 30.0099 -1.53159 0.825727 0
M  V30 305 O 31.1859 -1.66963 1.12629 0
M  V30 306 C 28.2509 -2.6751 2.20543 0
M  V30 307 C 27.3119 -2.56836 3.43997 0
M  V30 308 C 26.5449 -3.84092 3.70553 0
M  V30 309 O 26.7679 -4.85545 2.99336 0
M  V30 310 O 25.7019 -3.83288 4.64084 0
M  V30 311 H 29.5279 -1.05374 2.84833 0
M  V30 312 H 27.1129 -0.456237 1.42263 0
M  V30 313 H 28.9949 -3.46492 2.39835 0
M  V30 314 H 27.6699 -2.9577 1.31536 0
M  V30 315 H 26.5769 -1.76172 3.30021 0
M  V30 316 H 27.9099 -2.33523 4.33275 0
M  V30 317 N 29.562 -1.4872 -0.521534 0
M  V30 318 C 30.512 -1.60269 -1.62166 0
M  V30 319 C 31.496 -0.45935 -1.54204 0
M  V30 320 O 32.688 -0.711241 -1.62081 0
M  V30 321 C 29.817 -1.65344 -3.00859 0
M  V30 322 C 28.903 -2.85187 -3.13894 0
M  V30 323 N 29.294 -4.09509 -2.96877 0
M  V30 324 C 27.592 -2.82695 -3.44963 0
M  V30 325 C 28.293 -4.89959 -3.13552 0
M  V30 326 N 27.269 -4.22934 -3.41508 0
M  V30 327 H 31.071 -2.5413 -1.47632 0
M  V30 328 H 28.585 -1.45209 -0.727194 0
M  V30 329 H 30.582 -1.71713 -3.79895 0
M  V30 330 H 29.242 -0.726058 -3.16478 0
M  V30 331 H 30.253 -4.39814 -2.73467 0
M  V30 332 H 26.93 -1.99249 -3.66887 0
M  V30 333 H 28.32 -5.98654 -3.05061 0
M  V30 334 N 31.0401 0.771051 -1.3745 0
M  V30 335 C 31.9721 1.89352 -1.29146 0
M  V30 336 C 32.9851 1.61477 -0.207124 0
M  V30 337 O 34.1741 1.72382 -0.463324 0
M  V30 338 C 31.2741 3.24596 -0.974195 0
M  V30 339 C 30.4471 3.80111 -2.16413 0
M  V30 340 C 29.5061 4.93832 -1.81703 0
M  V30 341 O 28.5321 5.09382 -2.54006 0
M  V30 342 N 29.7341 5.75483 -0.761573 0
M  V30 343 H 32.4991 1.96991 -2.25864 0
M  V30 344 H 30.0601 0.950191 -1.31084 0
M  V30 345 H 32.0521 3.98193 -0.722828 0
M  V30 346 H 30.6221 3.12454 -0.0955527 0
M  V30 347 H 29.8421 2.98284 -2.57721 0
M  V30 348 H 31.1301 4.13932 -2.95867 0
M  V30 349 H 30.5281 5.65469 -0.161609 0
M  V30 350 H 29.0851 6.49302 -0.570064 0
M  V30 351 N 32.5182 1.22032 0.997298 0
M  V30 352 C 33.4282 1.00271 2.12092 0
M  V30 353 C 34.4442 -0.047621 1.73935 0
M  V30 354 O 35.6202 0.144136 2.00884 0
M  V30 355 C 32.6852 0.578449 3.4184 0
M  V30 356 C 31.7462 1.70189 3.94125 0
M  V30 357 C 30.9792 1.29778 5.17681 0
M  V30 358 O 31.2022 0.174676 5.70132 0
M  V30 359 O 30.1362 2.11261 5.63607 0
M  V30 360 H 33.9622 1.94398 2.3333 0
M  V30 361 H 31.5472 1.00587 1.10465 0
M  V30 362 H 33.4292 0.351998 4.19927 0
M  V30 363 H 32.1042 -0.334019 3.21972 0
M  V30 364 H 31.0112 1.98282 3.1723 0
M  V30 365 H 32.3442 2.59206 4.18417 0
M  V30 366 N 33.9963 -1.19345 1.0293 0
M  V30 367 C 35.2433 -1.89038 0.726008 0
M  V30 368 C 35.5713 -1.79649 -0.745427 0
M  V30 369 O 34.8263 -1.18354 -1.55855 0
M  V30 370 C 35.1253 -3.39292 1.12319 0
M  V30 371 C 34.7913 -3.68885 2.59297 0
M  V30 372 C 33.4533 -3.76671 2.99453 0
M  V30 373 C 35.8053 -3.82178 3.54386 0
M  V30 374 C 33.1333 -3.9522 4.33611 0
M  V30 375 C 35.4853 -4.0224 4.88248 0
M  V30 376 C 34.1493 -4.08259 5.28092 0
M  V30 377 H 33.4193 -0.691739 0.265665 0
M  V30 378 H 36.0663 -1.41328 1.29223 0
M  V30 379 H 34.3713 -3.88903 0.475584 0
M  V30 380 H 36.0683 -3.91536 0.866037 0
M  V30 381 H 32.6583 -3.63433 2.27189 0
M  V30 382 H 36.8423 -3.75505 3.24514 0
M  V30 383 H 32.0983 -3.98119 4.64016 0
M  V30 384 H 36.2723 -4.11468 5.61843 0
M  V30 385 H 33.8993 -4.22384 6.32057 0
M  V30 386 N 35.4744 -0.807222 -1.35358 0
M  V30 387 C 36.4044 -0.232509 -2.3234 0
M  V30 388 C 37.3854 0.642386 -1.57504 0
M  V30 389 O 38.5704 0.572526 -1.85569 0
M  V30 390 C 35.7004 0.619238 -3.41735 0
M  V30 391 C 34.6544 -0.157215 -4.27711 0
M  V30 392 C 33.9804 0.816273 -5.28433 0
M  V30 393 C 35.2804 -1.35656 -5.04376 0
M  V30 394 H 36.9744 -1.04276 -2.80654 0
M  V30 395 H 34.5204 -0.50288 -1.34934 0
M  V30 396 H 36.4734 1.03137 -4.08584 0
M  V30 397 H 35.1974 1.46239 -2.92031 0
M  V30 398 H 33.8564 -0.550525 -3.62443 0
M  V30 399 H 33.5044 1.65494 -4.74996 0
M  V30 400 H 33.2044 0.301067 -5.86828 0
M  V30 401 H 34.7284 1.22659 -5.98153 0
M  V30 402 H 36.1424 -1.01927 -5.64166 0
M  V30 403 H 34.5394 -1.8063 -5.7227 0
M  V30 404 H 35.6094 -2.14288 -4.34981 0
M  V30 405 N 36.9525 1.47285 -0.560781 0
M  V30 406 C 38.1995 2.02464 -0.038062 0
M  V30 407 C 38.5275 1.43474 1.31322 0
M  V30 408 O 37.7825 0.581311 1.86867 0
M  V30 409 C 38.0815 3.57258 0.100784 0
M  V30 410 C 37.7475 4.35184 -1.18007 0
M  V30 411 C 36.4095 4.56194 -1.53103 0
M  V30 412 C 38.7615 4.80098 -2.02867 0
M  V30 413 C 36.0895 5.19367 -2.729 0
M  V30 414 C 38.4415 5.44593 -3.21871 0
M  V30 415 C 37.1055 5.63835 -3.57276 0
M  V30 416 H 36.3755 0.740869 -0.0139279 0
M  V30 417 H 39.0225 1.76916 -0.733012 0
M  V30 418 H 37.3275 3.81819 0.878724 0
M  V30 419 H 39.0245 3.97606 0.520639 0
M  V30 420 H 35.6145 4.19113 -0.8968 0
M  V30 421 H 39.7985 4.63642 -1.7706 0
M  V30 422 H 35.0545 5.32459 -3.00496 0
M  V30 423 H 39.2285 5.78358 -3.87911 0
M  V30 424 H 36.8555 6.12557 -4.50197 0
M  V30 425 N 38.4306 0.297415 1.54768 0
M  V30 426 C 39.6766 -0.313376 2.00364 0
M  V30 427 C 40.0096 -1.53815 1.18553 0
M  V30 428 O 39.2846 -1.92739 0.261103 0
M  V30 429 C 39.5676 -0.673525 3.53745 0
M  V30 430 C 39.4206 0.560133 4.46299 0
M  V30 431 C 40.7396 -1.50143 4.13697 0
M  V30 432 H 37.8586 -0.112428 0.728374 0
M  V30 433 H 40.5006 0.4088 1.8555 0
M  V30 434 H 38.6506 -1.28881 3.665 0
M  V30 435 H 40.3226 1.19863 4.45455 0
M  V30 436 H 38.5656 1.19405 4.17043 0
M  V30 437 H 39.2366 0.26405 5.51368 0
M  V30 438 H 41.7126 -0.981588 4.04356 0
M  V30 439 H 40.5886 -1.72221 5.21182 0
M  V30 440 H 40.8496 -2.48952 3.65343 0
M  V30 441 N 39.9087 -1.5758 0.0250728 0
M  V30 442 C 40.8567 -2.11125 -0.97617 0
M  V30 443 C 41.8507 -1.03689 -1.33959 0
M  V30 444 O 43.0567 -1.22128 -1.3223 0
M  V30 445 H 39.4317 -0.674468 -0.332561 0
M  V30 446 H 41.4027 -2.94194 -0.499223 0
M  V30 447 C 40.1517 -2.65017 -2.2508 0
M  V30 448 H 39.4747 -3.47333 -1.9799 0
M  V30 449 H 40.9147 -3.06133 -2.93357 0
M  V30 450 C 39.3737 -1.57574 -2.97779 0
M  V30 451 O 39.9037 -0.973203 -3.89733 0
M  V30 452 N 38.1097 -1.29716 -2.60043 0
M  V30 453 H 37.6567 -1.789 -1.85345 0
M  V30 454 H 37.6147 -0.58051 -3.08994 0
M  V30 455 N 41.3868 0.248026 -1.55636 0
M  V30 456 C 42.3188 1.32993 -1.8667 0
M  V30 457 C 43.3318 1.44345 -0.752877 0
M  V30 458 O 44.5208 1.45715 -1.03098 0
M  V30 459 C 41.6208 2.70863 -2.03682 0
M  V30 460 C 40.7938 2.81792 -3.34532 0
M  V30 461 C 39.8528 4.005 -3.41301 0
M  V30 462 O 38.8788 3.9008 -4.14519 0
M  V30 463 N 40.0808 5.13618 -2.70512 0
M  V30 464 H 42.8458 1.06707 -2.8006 0
M  V30 465 H 40.4068 0.438129 -1.55859 0
M  V30 466 H 42.3988 3.48612 -2.05553 0
M  V30 467 H 40.9688 2.89862 -1.17041 0
M  V30 468 H 40.1888 1.90729 -3.44987 0
M  V30 469 H 41.4768 2.86043 -4.20781 0
M  V30 470 H 40.8748 5.24975 -2.10755 0
M  V30 471 H 39.4318 5.89505 -2.78077 0
M  V30 472 N 42.8649 1.48995 0.513639 0
M  V30 473 C 44.2759 1.5119 1.09537 0
M  V30 474 C 44.6269 0.290906 1.94031 0
M  V30 475 O 43.7519 -0.60049 2.07902 0
M  V30 476 C 44.3469 2.73964 1.99322 0
M  V30 477 C 42.9059 2.78978 2.52682 0
M  V30 478 C 42.0529 2.44934 1.30009 0
M  V30 479 H 45.0039 1.55875 0.298125 0
M  V30 480 H 45.0249 2.53409 2.83838 0
M  V30 481 H 44.5369 3.62813 1.37799 0
M  V30 482 H 42.6379 1.94378 3.1788 0
M  V30 483 H 42.7509 3.8083 2.90698 0
M  V30 484 H 41.1149 1.9644 1.62122 0
M  V30 485 H 41.8979 3.36043 0.702131 0
M  V30 486 N 44.343 -0.763751 1.37857 0
M  V30 487 C 45.293 -1.86765 1.30777 0
M  V30 488 C 46.277 -1.59726 0.194015 0
M  V30 489 O 47.469 -1.7172 0.42911 0
M  V30 490 C 44.598 -3.24343 1.12502 0
M  V30 491 C 43.684 -3.57307 2.28456 0
M  V30 492 N 44.075 -3.61398 3.53871 0
M  V30 493 C 42.373 -3.87517 2.20786 0
M  V30 494 C 43.074 -3.91339 4.30382 0
M  V30 495 N 42.05 -4.07649 3.59615 0
M  V30 496 H 45.852 -1.88191 2.25746 0
M  V30 497 H 43.366 -0.9606 1.30944 0
M  V30 498 H 45.363 -4.03327 1.05514 0
M  V30 499 H 44.023 -3.24175 0.184574 0
M  V30 500 H 45.034 -3.43407 3.87675 0
M  V30 501 H 41.711 -3.95125 1.34844 0
M  V30 502 H 43.101 -4.01213 5.3896 0
M  V30 503 N 45.8211 -1.22559 -0.990812 0
M  V30 504 C 47.0461 -1.07862 -1.77145 0
M  V30 505 C 47.4711 0.366447 -1.84496 0
M  V30 506 O 46.8291 1.26478 -1.29896 0
M  V30 507 C 46.8771 -1.69686 -3.18181 0
M  V30 508 O 45.9811 -0.951946 -4.01263 0
M  V30 509 H 45.3221 -0.378712 -0.545411 0
M  V30 510 H 47.8521 -1.62399 -1.2445 0
M  V30 511 H 47.8621 -1.74496 -3.68802 0
M  V30 512 H 46.5371 -2.74841 -3.12146 0
M  V30 513 H 45.1141 -0.980011 -3.59792 0
M  V30 514 N 47.2992 1.18797 -1.03562 0
M  V30 515 C 48.5242 1.9314 -0.755764 0
M  V30 516 C 48.9492 1.7537 0.68022 0
M  V30 517 O 48.3072 1.06046 1.47051 0
M  V30 518 C 48.3552 3.42747 -1.12058 0
M  V30 519 O 47.4592 4.11683 -0.243124 0
M  V30 520 H 46.8002 0.602724 -0.278604 0
M  V30 521 H 49.3302 1.50678 -1.3841 0
M  V30 522 H 49.3402 3.93437 -1.08035 0
M  V30 523 H 48.0152 3.55002 -2.16672 0
M  V30 524 H 46.5922 3.71323 -0.342539 0
M  V30 525 N 48.7773 0.814389 1.34928 0
M  V30 526 C 50.0023 0.410097 2.03305 0
M  V30 527 C 50.4273 -0.973464 1.60951 0
M  V30 528 O 49.7853 -1.63185 0.789964 0
M  V30 529 C 49.8333 0.51049 3.56968 0
M  V30 530 O 48.9373 -0.473035 4.09678 0
M  V30 531 H 48.2783 0.170088 0.641846 0
M  V30 532 H 50.8083 1.10244 1.72358 0
M  V30 533 H 50.8183 0.383135 4.06197 0
M  V30 534 H 49.4933 1.51963 3.87144 0
M  V30 535 H 48.0703 -0.305272 3.71648 0
M  V30 536 N 50.2554 -1.46986 0.568584 0
M  V30 537 C 51.1874 -2.28233 -0.210337 0
M  V30 538 C 52.2004 -1.37682 -0.868767 0
M  V30 539 O 53.3894 -1.62406 -0.740705 0
M  V30 540 C 50.4894 -3.12293 -1.3163 0
M  V30 541 C 49.6624 -4.30878 -0.7525 0
M  V30 542 C 48.7214 -4.96445 -1.74439 0
M  V30 543 O 47.7474 -5.54482 -1.286 0
M  V30 544 N 48.9494 -4.92171 -3.07812 0
M  V30 545 H 51.7144 -2.95723 0.486648 0
M  V30 546 H 49.2754 -1.56742 0.405409 0
M  V30 547 H 51.2674 -3.53022 -1.97883 0
M  V30 548 H 49.8374 -2.46971 -1.91636 0
M  V30 549 H 49.0574 -3.94104 0.0871128 0
M  V30 550 H 50.3454 -5.07558 -0.35536 0
M  V30 551 H 49.7434 -4.46239 -3.47688 0
M  V30 552 H 48.3004 -5.36884 -3.69592 0
M  V30 553 N 51.7335 -0.305618 -1.54608 0
M  V30 554 C 52.9795 0.302746 -2.00528 0
M  V30 555 C 53.3125 1.53184 -1.19367 0
M  V30 556 O 52.5875 1.92598 -0.271321 0
M  V30 557 C 52.8705 0.654756 -3.54097 0
M  V30 558 C 52.7235 -0.583793 -4.45995 0
M  V30 559 C 54.0425 1.47947 -4.14487 0
M  V30 560 H 51.1615 0.108564 -0.72896 0
M  V30 561 H 53.8035 -0.418634 -1.85331 0
M  V30 562 H 51.9535 1.26935 -3.67178 0
M  V30 563 H 53.6255 -1.22224 -4.44814 0
M  V30 564 H 51.8685 -1.21615 -4.16404 0
M  V30 565 H 52.5395 -0.293287 -5.5122 0
M  V30 566 H 55.0155 0.96013 -4.04871 0
M  V30 567 H 53.8915 1.69454 -5.22088 0
M  V30 568 H 54.1525 2.47011 -3.66658 0
M  V30 569 N 53.2116 1.57565 -0.0334293 0
M  V30 570 C 54.4366 1.96689 0.657895 0
M  V30 571 C 54.8616 0.910057 1.64619 0
M  V30 572 O 54.2196 -0.128598 1.80843 0
M  V30 573 C 54.2676 3.34905 1.33683 0
M  V30 574 O 53.3716 3.31574 2.45219 0
M  V30 575 H 52.7126 0.641205 0.172489 0
M  V30 576 H 55.2426 2.04372 -0.0965621 0
M  V30 577 H 55.2526 3.71234 1.69262 0
M  V30 578 H 53.9276 4.11366 0.612411 0
M  V30 579 H 52.5046 3.06968 2.11719 0
M  V30 580 N 54.6897 -0.239769 1.55765 0
M  V30 581 C 55.6197 -1.30052 1.9393 0
M  V30 582 C 56.6007 -1.49839 0.805132 0
M  V30 583 O 57.7857 -1.62328 1.06599 0
M  V30 584 C 54.9157 -2.65391 2.2402 0
M  V30 585 C 53.8697 -2.60289 3.39755 0
M  V30 586 C 53.1957 -3.99489 3.55405 0
M  V30 587 C 54.4957 -2.16654 4.75246 0
M  V30 588 H 56.1897 -0.983573 2.82783 0
M  V30 589 H 53.7357 -0.471701 1.36055 0
M  V30 590 H 55.6887 -3.3974 2.49308 0
M  V30 591 H 54.4127 -2.98736 1.32 0
M  V30 592 H 53.0717 -1.88398 3.14487 0
M  V30 593 H 52.7197 -4.30112 2.60793 0
M  V30 594 H 52.4197 -3.96962 4.33238 0
M  V30 595 H 53.9437 -4.75528 3.83022 0
M  V30 596 H 55.3577 -2.80737 4.99859 0
M  V30 597 H 53.7547 -2.25223 5.56232 0
M  V30 598 H 54.8247 -1.11835 4.71827 0
M  V30 599 N 56.1678 -1.49265 -0.50573 0
M  V30 600 C 57.4158 -1.582 -1.25766 0
M  V30 601 C 57.7368 -0.268482 -1.93143 0
M  V30 602 O 57.0068 0.711833 -1.8251 0
M  V30 603 H 55.5868 -0.582873 -0.467191 0
M  V30 604 H 58.2488 -1.85865 -0.586525 0
M  V30 605 H 57.3448 -2.37563 -2.02412 0
M  V30 606 N 57.6459 0.756429 -1.3826 0
M  V30 607 C 58.8929 1.51547 -1.34312 0
M  V30 608 C 59.2209 1.94382 0.0677144 0
M  V30 609 O 58.4759 1.65514 1.04421 0
M  V30 610 C 58.7749 2.78313 -2.24224 0
M  V30 611 C 58.4409 2.54455 -3.72241 0
M  V30 612 C 57.1029 2.47657 -4.12576 0
M  V30 613 C 59.4549 2.3354 -4.65949 0
M  V30 614 C 56.7829 2.17956 -5.44713 0
M  V30 615 C 59.1349 2.05359 -5.9834 0
M  V30 616 C 57.7989 1.97016 -6.37762 0
M  V30 617 H 57.0689 0.55455 -0.491482 0
M  V30 618 H 59.7159 0.870039 -1.70595 0
M  V30 619 H 58.0209 3.47492 -1.80987 0
M  V30 620 H 59.7179 3.36259 -2.18474 0
M  V30 621 H 56.3079 2.60616 -3.40261 0
M  V30 622 H 60.4919 2.37772 -4.35635 0
M  V30 623 H 55.7479 2.10003 -5.74203 0
M  V30 624 H 59.9219 1.88179 -6.70494 0
M  V30 625 H 57.5489 1.73766 -7.40074 0
M  V30 626 N 59.124 1.23083 0.984299 0
M  V30 627 C 60.401 0.9689 1.69917 0
M  V30 628 C 60.781 -0.513604 2.04757 0
M  V30 629 O 60.129 -1.48383 1.73767 0
M  V30 630 C 60.339 1.87518 2.94343 0
M  V30 631 C 61.687 2.13636 3.6694 0
M  V30 632 O 62.711 1.85036 3.04368 0
M  V30 633 O 61.57 2.62119 4.79537 0
M  V30 634 H 58.664 0.365095 0.742048 0
M  V30 635 H 61.21 1.34107 1.03987 0
M  V30 636 H 59.982 2.87756 2.65164 0
M  V30 637 H 59.605 1.50514 3.6801 0
M  V30 638 N 60.6021 -1.18246 1.0419 0
M  V30 639 C 61.5341 -2.2142 0.592088 0
M  V30 640 C 62.5471 -1.59233 -0.338909 0
M  V30 641 O 63.7361 -1.78002 -0.133231 0
M  V30 642 C 60.8361 -3.38546 -0.154854 0
M  V30 643 C 60.0091 -4.3031 0.784328 0
M  V30 644 C 59.0681 -5.26138 0.0804583 0
M  V30 645 O 58.0941 -5.64738 0.711292 0
M  V30 646 N 59.2961 -5.68261 -1.18574 0
M  V30 647 H 62.0611 -2.60636 1.47949 0
M  V30 648 H 59.6221 -1.33044 0.922544 0
M  V30 649 H 61.6141 -3.99678 -0.635606 0
M  V30 650 H 60.1841 -2.98012 -0.943811 0
M  V30 651 H 59.4041 -3.66764 1.44491 0
M  V30 652 H 60.6921 -4.8852 1.42218 0
M  V30 653 H 60.0901 -5.38957 -1.71876 0
M  V30 654 H 58.6471 -6.31584 -1.61074 0
M  V30 655 N 62.0802 -0.821533 -1.34494 0
M  V30 656 C 63.3292 -0.405355 -1.97585 0
M  V30 657 C 63.6422 1.03677 -1.65863 0
M  V30 658 O 64.8482 1.55679 -2.22433 0
M  V30 659 C 63.3042 -0.673861 -3.53535 0
M  V30 660 C 62.9122 -2.12951 -3.94152 0
M  V30 661 C 64.6562 -0.32378 -4.23263 0
M  V30 662 C 62.5632 -2.34298 -5.43009 0
M  V30 663 H 61.4932 -0.147836 -0.739365 0
M  V30 664 H 64.1442 -1.00769 -1.53355 0
M  V30 665 H 62.5262 -0.00137554 -3.96 0
M  V30 666 H 63.7002 -2.84104 -3.62797 0
M  V30 667 H 62.0152 -2.44089 -3.37356 0
M  V30 668 H 64.6122 -0.461126 -5.32708 0
M  V30 669 H 64.9552 0.731586 -4.09821 0
M  V30 670 H 65.4882 -0.950786 -3.8627 0
M  V30 671 H 62.2272 -3.38335 -5.61435 0
M  V30 672 H 61.7472 -1.67687 -5.75883 0
M  V30 673 H 63.4262 -2.16588 -6.09671 0
M  V30 674 N 63.5583 1.46682 -0.576371 0
M  V30 675 C 64.8043 2.02712 -0.0596221 0
M  V30 676 C 65.1373 1.44765 1.29448 0
M  V30 677 O 64.4123 0.610355 1.84675 0
M  V30 678 C 64.6953 3.60098 0.0129503 0
M  V30 679 C 64.5483 4.28441 -1.3696 0
M  V30 680 C 65.8673 4.34224 0.71678 0
M  V30 681 H 62.9863 0.736637 -0.0231407 0
M  V30 682 H 65.6283 1.74898 -0.742351 0
M  V30 683 H 63.7783 3.83926 0.594378 0
M  V30 684 H 65.4503 4.15896 -1.9957 0
M  V30 685 H 63.6933 3.8805 -1.93907 0
M  V30 686 H 64.3643 5.3716 -1.27135 0
M  V30 687 H 66.8403 4.15503 0.222908 0
M  V30 688 H 65.7163 5.43936 0.73657 0
M  V30 689 H 65.9773 4.04823 1.77682 0
M  V30 690 N 65.0364 0.313813 1.54444 0
M  V30 691 C 66.3134 -0.345447 1.92525 0
M  V30 692 C 66.6934 -1.70667 1.24242 0
M  V30 693 O 66.0414 -2.25273 0.382654 0
M  V30 694 C 66.2514 -0.44737 3.46121 0
M  V30 695 C 67.5994 -0.712238 4.18584 0
M  V30 696 O 68.6234 -0.530678 3.52225 0
M  V30 697 O 67.4824 -1.06183 5.36085 0
M  V30 698 H 64.5764 -0.195407 0.803583 0
M  V30 699 H 67.1224 0.362813 1.65776 0
M  V30 700 H 65.8944 0.509043 3.87975 0
M  V30 701 H 65.5174 -1.20359 3.78945 0
M  V30 702 N 66.5145 -1.57545 0.0417849 0
M  V30 703 C 67.4245 -2.14451 -0.951213 0
M  V30 704 C 68.4405 -1.09992 -1.34825 0
M  V30 705 O 69.6165 -1.42114 -1.42708 0
M  V30 706 C 66.6815 -2.67063 -2.21084 0
M  V30 707 C 65.7425 -3.86284 -1.87304 0
M  V30 708 C 64.9755 -4.36378 -3.07261 0
M  V30 709 O 65.1985 -3.85587 -4.20332 0
M  V30 710 O 64.1325 -5.28077 -2.88822 0
M  V30 711 H 67.9585 -2.99601 -0.497287 0
M  V30 712 H 65.5435 -1.48317 -0.179567 0
M  V30 713 H 67.4255 -3.00914 -2.95006 0
M  V30 714 H 66.1005 -1.84989 -2.65633 0
M  V30 715 H 65.0075 -3.57338 -1.10727 0
M  V30 716 H 66.3405 -4.6956 -1.47562 0
M  V30 717 N 67.9926 0.231505 -1.5589 0
M  V30 718 C 69.2416 0.955346 -1.7764 0
M  V30 719 C 69.5546 1.85893 -0.608546 0
M  V30 720 O 70.7606 2.62067 -0.70943 0
M  V30 721 C 69.2166 1.74886 -3.14552 0
M  V30 722 C 68.8246 0.891915 -4.39032 0
M  V30 723 C 70.5686 2.46452 -3.45633 0
M  V30 724 C 68.4756 1.68221 -5.66971 0
M  V30 725 H 67.4056 0.360446 -0.662265 0
M  V30 726 H 70.0566 0.209516 -1.823 0
M  V30 727 H 68.4386 2.53723 -3.04041 0
M  V30 728 H 69.6126 0.144793 -4.60572 0
M  V30 729 H 67.9276 0.288863 -4.15397 0
M  V30 730 H 70.5246 3.06061 -4.38441 0
M  V30 731 H 70.8676 3.18841 -2.67668 0
M  V30 732 H 71.4006 1.74613 -3.57428 0
M  V30 733 H 68.1396 1.00178 -6.478 0
M  V30 734 H 67.6596 2.4042 -5.49507 0
M  V30 735 H 69.3386 2.24544 -6.06786 0
M  V30 736 N 69.4707 1.49531 0.497807 0
M  V30 737 C 70.6957 1.63159 1.28039 0
M  V30 738 C 71.1207 0.30418 1.85624 0
M  V30 739 O 70.4787 -0.728618 1.66015 0
M  V30 740 C 70.5267 2.70537 2.38416 0
M  V30 741 O 69.6307 2.29931 3.42353 0
M  V30 742 H 68.9717 0.546001 0.377861 0
M  V30 743 H 71.5017 1.9574 0.59558 0
M  V30 744 H 71.5117 2.92802 2.84132 0
M  V30 745 H 70.1867 3.6689 1.95869 0
M  V30 746 H 68.7637 2.18009 3.02533 0
M  V30 747 N 70.9488 -0.749086 1.3866 0
M  V30 748 C 72.1968 -1.50535 1.34847 0
M  V30 749 C 72.5178 -1.94909 -0.0595016 0
M  V30 750 O 71.7878 -1.67973 -1.00806 0
M  V30 751 H 70.3678 -0.558395 0.49619 0
M  V30 752 H 73.0298 -0.890165 1.73384 0
M  V30 753 H 72.1258 -2.39413 2.00219 0
M  V30 754 N 72.4269 -1.23603 -0.977757 0
M  V30 755 C 73.3739 -1.01954 -2.07061 0
M  V30 756 C 74.3439 0.0638697 -1.65977 0
M  V30 757 O 75.5289 -0.0887624 -1.90593 0
M  V30 758 C 72.6689 -0.619658 -3.39491 0
M  V30 759 C 71.7819 -1.77547 -3.93829 0
M  V30 760 C 70.9169 -1.32212 -5.14484 0
M  V30 761 C 69.9559 -2.44852 -5.60994 0
M  V30 762 N 69.0929 -2.00456 -6.72876 0
M  V30 763 H 73.9329 -1.95495 -2.24913 0
M  V30 764 H 71.4699 -0.973861 -1.10247 0
M  V30 765 H 73.4279 -0.368898 -4.15566 0
M  V30 766 H 72.0579 0.278752 -3.21594 0
M  V30 767 H 71.1099 -2.14016 -3.14486 0
M  V30 768 H 72.4219 -2.62219 -4.24314 0
M  V30 769 H 71.5759 -1.02965 -5.97899 0
M  V30 770 H 70.3149 -0.445808 -4.85658 0
M  V30 771 H 69.3199 -2.74871 -4.76157 0
M  V30 772 H 70.5449 -3.33024 -5.91837 0
M  V30 773 H 68.4909 -1.15208 -6.45804 0
M  V30 774 H 68.4079 -2.78687 -7.02759 0
M  V30 775 H 69.6759 -1.7432 -7.59758 0
M  V30 776 N 73.905 1.17692 -1.04816 0
M  V30 777 C 75.154 1.87192 -0.751132 0
M  V30 778 C 75.467 1.8169 0.724441 0
M  V30 779 O 76.673 2.46625 1.13527 0
M  V30 780 C 75.129 3.35857 -1.29338 0
M  V30 781 C 74.737 3.4987 -2.79812 0
M  V30 782 C 76.481 4.10709 -1.07322 0
M  V30 783 C 74.388 4.92536 -3.27356 0
M  V30 784 H 73.318 0.701162 -0.277288 0
M  V30 785 H 75.969 1.32932 -1.26496 0
M  V30 786 H 74.351 3.89631 -0.707376 0
M  V30 787 H 75.525 3.06332 -3.44235 0
M  V30 788 H 73.84 2.88433 -3.00325 0
M  V30 789 H 76.437 5.15952 -1.4035 0
M  V30 790 H 76.78 4.16299 -0.0108001 0
M  V30 791 H 77.313 3.6313 -1.62423 0
M  V30 792 H 74.052 4.92119 -4.33012 0
M  V30 793 H 73.572 5.3676 -2.67673 0
M  V30 794 H 75.251 5.61288 -3.21815 0
M  V30 795 N 75.3831 0.828654 1.34056 0
M  V30 796 C 76.7941 0.477534 1.8049 0
M  V30 797 C 77.1451 -1.00258 1.6865 0
M  V30 798 O 76.2701 -1.78057 1.22982 0
M  V30 799 C 76.8651 0.860018 3.27703 0
M  V30 800 C 75.4241 0.561185 3.72193 0
M  V30 801 C 74.5711 1.07385 2.55663 0
M  V30 802 H 77.5221 1.0183 1.21722 0
M  V30 803 H 77.5431 0.166038 3.80138 0
M  V30 804 H 77.0551 1.93731 3.36288 0
M  V30 805 H 75.1561 -0.506465 3.69142 0
M  V30 806 H 75.2691 1.10926 4.66082 0
M  V30 807 H 73.6331 0.495149 2.49841 0
M  V30 808 H 74.4161 2.15771 2.67016 0
M  V30 809 N 76.8612 -1.46375 0.584142 0
M  V30 810 C 77.8112 -2.27371 -0.169232 0
M  V30 811 C 78.7952 -1.35955 -0.860523 0
M  V30 812 O 79.9872 -1.60119 -0.754382 0
M  V30 813 C 77.1162 -3.22334 -1.18134 0
M  V30 814 C 76.2022 -4.21235 -0.492088 0
M  V30 815 N 76.5932 -5.03766 0.453129 0
M  V30 816 C 74.8912 -4.39773 -0.742652 0
M  V30 817 C 75.5922 -5.75366 0.85609 0
M  V30 818 N 74.5682 -5.43214 0.204926 0
M  V30 819 H 78.3702 -2.88572 0.557097 0
M  V30 820 H 75.8842 -1.57242 0.406042 0
M  V30 821 H 77.8812 -3.79071 -1.73525 0
M  V30 822 H 76.5412 -2.62693 -1.90847 0
M  V30 823 H 77.5522 -5.11227 0.828723 0
M  V30 824 H 74.2292 -3.91279 -1.45625 0
M  V30 825 H 75.6192 -6.5172 1.63434 0
M  V30 826 N 78.3393 -0.321999 -1.54275 0
M  V30 827 C 79.5693 0.282642 -2.04658 0
M  V30 828 C 79.9773 1.46453 -1.19784 0
M  V30 829 O 79.3203 1.82367 -0.220932 0
M  V30 830 C 79.3823 0.781857 -3.50895 0
M  V30 831 C 79.0463 -0.277517 -4.56157 0
M  V30 832 C 80.0433 -1.11307 -5.07845 0
M  V30 833 C 77.7283 -0.425256 -5.00497 0
M  V30 834 C 79.7223 -2.08211 -6.02434 0
M  V30 835 C 77.4093 -1.39771 -5.94901 0
M  V30 836 C 78.4073 -2.2246 -6.45756 0
M  V30 837 O 78.0953 -3.18054 -7.38307 0
M  V30 838 H 77.8273 0.0622636 -0.673126 0
M  V30 839 H 80.3813 -0.465792 -2.00049 0
M  V30 840 H 78.6113 1.58118 -3.52896 0
M  V30 841 H 80.3003 1.30467 -3.84361 0
M  V30 842 H 81.0663 -1.00991 -4.74369 0
M  V30 843 H 76.9453 0.20847 -4.60528 0
M  V30 844 H 80.4893 -2.72791 -6.42052 0
M  V30 845 H 76.3863 -1.50152 -6.27794 0
M  V30 846 H 77.1543 -3.13275 -7.56175 0
M  V30 847 N 79.8174 1.5752 -0.0501392 0
M  V30 848 C 80.7274 2.14952 0.939827 0
M  V30 849 C 81.7434 1.10706 1.34239 0
M  V30 850 O 82.9194 1.42869 1.41952 0
M  V30 851 C 79.9844 2.68232 2.19665 0
M  V30 852 C 79.0454 3.87272 1.85253 0
M  V30 853 C 78.2784 4.38002 3.04943 0
M  V30 854 O 78.5014 3.87811 4.18281 0
M  V30 855 O 77.4354 5.29602 2.86017 0
M  V30 856 H 81.2614 2.9986 0.481392 0
M  V30 857 H 78.8464 1.4841 0.171699 0
M  V30 858 H 80.7284 3.02475 2.93406 0
M  V30 859 H 79.4034 1.86395 2.64648 0
M  V30 860 H 78.3104 3.5792 1.0883 0
M  V30 861 H 79.6434 4.70336 1.4507 0
M  V30 862 N 81.2955 -0.223234 1.56011 0
M  V30 863 C 82.5205 -0.968978 1.83373 0
M  V30 864 C 82.9455 -1.77227 0.630254 0
M  V30 865 O 82.3035 -1.76345 -0.420959 0
M  V30 866 C 82.3515 -1.86363 3.08709 0
M  V30 867 O 81.4555 -2.95873 2.87285 0
M  V30 868 H 80.7965 -0.274461 0.604622 0
M  V30 869 H 83.3265 -0.237056 2.03222 0
M  V30 870 H 83.3365 -2.27376 3.38768 0
M  V30 871 H 82.0115 -1.27319 3.95933 0
M  V30 872 H 80.5885 -2.58818 2.68454 0
M  V30 873 N 82.7736 -1.49793 -0.48987 0
M  V30 874 C 83.6836 -1.70036 -1.61632 0
M  V30 875 C 84.6996 -0.583102 -1.63939 0
M  V30 876 O 85.8756 -0.859169 -1.82154 0
M  V30 877 C 82.9406 -1.77277 -2.97949 0
M  V30 878 C 82.0016 -3.00918 -3.06181 0
M  V30 879 C 81.2346 -3.07804 -4.35996 0
M  V30 880 O 81.4576 -2.21982 -5.25433 0
M  V30 881 O 80.3916 -4.00369 -4.49431 0
M  V30 882 H 84.2176 -2.65486 -1.47482 0
M  V30 883 H 81.8026 -1.33666 -0.667362 0
M  V30 884 H 83.6846 -1.84329 -3.78947 0
M  V30 885 H 82.3596 -0.850076 -3.12339 0
M  V30 886 H 81.2666 -2.99377 -2.2433 0
M  V30 887 H 82.5996 -3.92704 -2.96723 0
M  V30 888 N 84.2517 0.741722 -1.39055 0
M  V30 889 C 85.5007 1.49656 -1.35225 0
M  V30 890 C 85.8137 1.95533 0.0512708 0
M  V30 891 O 87.0197 2.7067 0.212138 0
M  V30 892 C 85.4757 2.70389 -2.37525 0
M  V30 893 C 85.0837 2.31489 -3.83558 0
M  V30 894 C 86.8277 3.48236 -2.42759 0
M  V30 895 C 84.7347 3.48903 -4.77515 0
M  V30 896 H 83.6647 0.56197 -0.502699 0
M  V30 897 H 86.3157 0.809727 -1.64668 0
M  V30 898 H 84.6977 3.41113 -2.01142 0
M  V30 899 H 85.8717 1.68354 -4.28945 0
M  V30 900 H 84.1867 1.66749 -3.81554 0
M  V30 901 H 86.7837 4.35558 -3.1015 0
M  V30 902 H 87.1267 3.90229 -1.45008 0
M  V30 903 H 87.6597 2.84535 -2.78002 0
M  V30 904 H 84.3987 3.11966 -5.76504 0
M  V30 905 H 83.9187 4.11041 -4.36813 0
M  V30 906 H 85.5977 4.15328 -4.96096 0
M  V30 907 N 85.7298 1.2412 0.971189 0
M  V30 908 C 87.0068 0.986867 1.6888 0
M  V30 909 C 87.3868 -0.491857 2.0529 0
M  V30 910 O 86.7348 -1.46531 1.75331 0
M  V30 911 C 86.9448 1.9063 2.92338 0
M  V30 912 C 88.2928 2.17515 3.64654 0
M  V30 913 O 89.3168 1.88254 3.02388 0
M  V30 914 O 88.1758 2.6719 4.7673 0
M  V30 915 H 85.2698 0.372944 0.738134 0
M  V30 916 H 87.8158 1.35203 1.02559 0
M  V30 917 H 86.5878 2.90552 2.62097 0
M  V30 918 H 86.2108 1.54408 3.66393 0
M  V30 919 N 87.2079 -1.17134 1.05439 0
M  V30 920 C 88.1179 -2.24878 0.668365 0
M  V30 921 C 89.1339 -1.71186 -0.311687 0
M  V30 922 O 90.3099 -2.00738 -0.163161 0
M  V30 923 C 87.3749 -3.46662 0.051648 0
M  V30 924 C 86.4359 -4.15429 1.08246 0
M  V30 925 C 85.6689 -5.31399 0.495082 0
M  V30 926 O 85.8919 -5.66153 -0.694743 0
M  V30 927 O 84.8259 -5.89187 1.23056 0
M  V30 928 H 88.6519 -2.60189 1.56637 0
M  V30 929 H 86.2369 -1.24482 0.826104 0
M  V30 930 H 88.1189 -4.20394 -0.290966 0
M  V30 931 H 86.7939 -3.13142 -0.819971 0
M  V30 932 H 85.7009 -3.43704 1.47711 0
M  V30 933 H 87.0339 -4.52982 1.92532 0
M  V30 934 N 88.686 -0.835752 -1.33615 0
M  V30 935 C 89.634 -0.255238 -2.31195 0
M  V30 936 C 90.628 0.61107 -1.57995 0
M  V30 937 O 91.834 0.500979 -1.72888 0
M  V30 938 H 88.209 -0.0638085 -0.749288 0
M  V30 939 H 90.18 -1.09283 -2.77669 0
M  V30 940 C 88.929 0.55754 -3.43201 0
M  V30 941 H 88.252 -0.0997553 -3.99676 0
M  V30 942 H 89.692 0.929622 -4.13683 0
M  V30 943 C 88.151 1.73515 -2.88781 0
M  V30 944 O 88.681 2.83376 -2.84712 0
M  V30 945 N 86.887 1.55603 -2.4543 0
M  V30 946 H 86.434 0.662354 -2.48939 0
M  V30 947 H 86.392 2.34545 -2.09371 0
M  V30 948 N 90.1641 1.46063 -0.591896 0
M  V30 949 C 91.3921 2.06717 -0.0868936 0
M  V30 950 C 91.8071 1.43916 1.22203 0
M  V30 951 O 91.1641 0.547698 1.74088 0
M  V30 952 C 91.2151 3.6142 0.0758725 0
M  V30 953 O 90.9361 4.21874 -1.18126 0
M  V30 954 C 92.4371 4.39025 0.61416 0
M  V30 955 H 89.6571 0.668162 -0.0616518 0
M  V30 956 H 92.2011 1.8755 -0.815175 0
M  V30 957 H 90.3561 3.79983 0.754413 0
M  V30 958 H 90.7701 5.14861 -1.00092 0
M  V30 959 H 92.2441 5.4783 0.677193 0
M  V30 960 H 92.7211 4.07708 1.63312 0
M  V30 961 H 93.3271 4.2529 -0.0298142 0
M  V30 962 N 91.6422 0.330177 1.54103 0
M  V30 963 C 92.8892 -0.270405 2.00686 0
M  V30 964 C 93.2172 -1.51621 1.21825 0
M  V30 965 O 92.4722 -1.93536 0.29025 0
M  V30 966 C 92.7712 -0.643134 3.51566 0
M  V30 967 C 92.4372 0.504251 4.48072 0
M  V30 968 C 91.0992 0.819163 4.74176 0
M  V30 969 C 93.4512 1.27465 5.05373 0
M  V30 970 C 90.7792 1.90708 5.5484 0
M  V30 971 C 93.1312 2.35271 5.87223 0
M  V30 972 C 91.7952 2.67336 6.11627 0
M  V30 973 H 91.0652 -0.0989482 0.734364 0
M  V30 974 H 93.7122 0.455324 1.86008 0
M  V30 975 H 92.0172 -1.44938 3.64006 0
M  V30 976 H 93.7142 -1.11949 3.85056 0
M  V30 977 H 90.3042 0.248733 4.27878 0
M  V30 978 H 94.4882 1.04462 4.85182 0
M  V30 979 H 89.7442 2.15991 5.71977 0
M  V30 980 H 93.9182 2.95405 6.30641 0
M  V30 981 H 91.5452 3.51763 6.73919 0
M  V30 982 N 93.1203 -1.57491 0.0584922 0
M  V30 983 C 94.3673 -1.92978 -0.613648 0
M  V30 984 C 94.6953 -0.937461 -1.70417 0
M  V30 985 O 93.9503 0.049078 -1.95638 0
M  V30 986 C 94.2493 -3.3513 -1.24188 0
M  V30 987 C 93.9153 -4.50037 -0.278826 0
M  V30 988 C 92.5773 -4.81198 -0.0138447 0
M  V30 989 C 94.9293 -5.19807 0.380777 0
M  V30 990 C 92.2573 -5.79473 0.918052 0
M  V30 991 C 94.6093 -6.19079 1.30091 0
M  V30 992 C 93.2733 -6.48665 1.57449 0
M  V30 993 H 92.5433 -0.706157 -0.22455 0
M  V30 994 H 95.1903 -1.91082 0.126533 0
M  V30 995 H 93.4953 -3.33429 -2.05749 0
M  V30 996 H 95.1923 -3.59871 -1.769 0
M  V30 997 H 91.7823 -4.25726 -0.495539 0
M  V30 998 H 95.9663 -4.95939 0.189158 0
M  V30 999 H 91.2223 -6.00727 1.1374 0
M  V30 1000 H 95.3963 -6.7225 1.81804 0
M  V30 1001 H 93.0233 -7.24628 2.29822 0
M  V30 1002 N 94.5984 0.214957 -1.56127 0
M  V30 1003 C 95.8444 0.939762 -1.79712 0
M  V30 1004 C 96.1774 1.83723 -0.629247 0
M  V30 1005 O 95.4524 1.90925 0.371197 0
M  V30 1006 C 95.7354 1.77306 -3.13424 0
M  V30 1007 C 95.5884 0.90164 -4.40671 0
M  V30 1008 C 96.9074 2.74956 -3.43638 0
M  V30 1009 H 94.0264 0.340214 -0.653776 0
M  V30 1010 H 96.6684 0.20824 -1.88855 0
M  V30 1011 H 94.8184 2.39673 -3.0576 0
M  V30 1012 H 96.4904 0.294206 -4.60361 0
M  V30 1013 H 94.7334 0.207368 -4.33304 0
M  V30 1014 H 95.4044 1.51923 -5.30682 0
M  V30 1015 H 97.8804 2.22724 -3.51473 0
M  V30 1016 H 96.7564 3.30358 -4.38355 0
M  V30 1017 H 97.0174 3.53023 -2.66134 0
M  V30 1018 N 96.0765 1.50051 0.48192 0
M  V30 1019 C 97.4875 1.5348 1.06305 0
M  V30 1020 C 97.8385 0.331997 1.93371 0
M  V30 1021 O 96.9635 -0.556256 2.09129 0
M  V30 1022 C 97.5585 2.7813 1.93466 0
M  V30 1023 C 96.1175 2.84275 2.46707 0
M  V30 1024 C 95.2645 2.47637 1.24785 0
M  V30 1025 H 98.2155 1.56472 0.264995 0
M  V30 1026 H 98.2365 2.59372 2.78399 0
M  V30 1027 H 97.7485 3.65654 1.30072 0
M  V30 1028 H 95.8495 2.01077 3.13686 0
M  V30 1029 H 95.9625 3.8691 2.82555 0
M  V30 1030 H 94.3265 1.99835 1.57918 0
M  V30 1031 H 95.1095 3.37457 0.630694 0
M  V30 1032 N 97.5546 -0.734337 1.39446 0
M  V30 1033 C 98.7826 -1.52358 1.39981 0
M  V30 1034 C 99.1976 -1.88799 -0.0054975 0
M  V30 1035 O 98.5546 -1.54146 -0.976998 0
M  V30 1036 C 98.6056 -2.81072 2.27333 0
M  V30 1037 O 98.3266 -2.46178 3.62392 0
M  V30 1038 C 99.8276 -3.75096 2.36259 0
M  V30 1039 H 97.0476 -0.470806 0.478103 0
M  V30 1040 H 99.5916 -0.907339 1.83269 0
M  V30 1041 H 97.7466 -3.39026 1.87457 0
M  V30 1042 H 98.1606 -3.28866 4.08592 0
M  V30 1043 H 99.6346 -4.62305 3.01626 0
M  V30 1044 H 100.112 -4.16892 1.38194 0
M  V30 1045 H 100.718 -3.23061 2.76608 0
M  V30 1046 N 99.0327 -1.24633 -0.964593 0
M  V30 1047 C 99.9957 -1.0424 -2.04124 0
M  V30 1048 C 100.996 0.00137563 -1.608 0
M  V30 1049 O 102.186 -0.239883 -1.7254 0
M  V30 1050 C 99.3177 -0.580588 -3.3592 0
M  V30 1051 H 100.511 -1.99803 -2.23649 0
M  V30 1052 H 98.0637 -1.06899 -1.14027 0
M  V30 1053 H 98.7987 0.3781 -3.22088 0
M  V30 1054 H 98.5837 -1.33398 -3.6871 0
M  V30 1055 H 100.074 -0.459034 -4.15069 0
M  V30 1056 N 100.511 1.16574 -1.06058 0
M  V30 1057 C 101.922 1.68662 -0.800632 0
M  V30 1058 C 102.273 1.84184 0.67608 0
M  V30 1059 O 101.398 1.53568 1.52466 0
M  V30 1060 C 101.993 3.06356 -1.44676 0
M  V30 1061 C 100.552 3.55575 -1.23465 0
M  V30 1062 C 99.6988 2.31616 -1.52477 0
M  V30 1063 H 102.65 1.00969 -1.22438 0
M  V30 1064 H 102.671 3.70636 -0.860788 0
M  V30 1065 H 102.183 2.95027 -2.52152 0
M  V30 1066 H 100.284 3.72167 -0.179527 0
M  V30 1067 H 100.397 4.37812 -1.94571 0
M  V30 1068 H 98.7608 2.36512 -0.945209 0
M  V30 1069 H 99.5438 2.22887 -2.61106 0
M  V30 1070 N 101.989 0.842826 1.3317 0
M  V30 1071 C 102.936 0.276885 2.29133 0
M  V30 1072 C 103.906 -0.609527 1.54512 0
M  V30 1073 O 105.091 -0.546955 1.82792 0
M  V30 1074 C 102.231 -0.538707 3.40869 0
M  V30 1075 C 101.344 0.372169 4.30394 0
M  V30 1076 C 100.479 -0.454908 5.29249 0
M  V30 1077 C 99.5179 0.45411 6.10413 0
M  V30 1078 N 98.6549 -0.335075 7.013 0
M  V30 1079 H 103.495 1.10052 2.76934 0
M  V30 1080 H 101.032 0.554161 1.36262 0
M  V30 1081 H 102.99 -1.02709 4.0436 0
M  V30 1082 H 101.62 -1.32727 2.9425 0
M  V30 1083 H 100.672 0.97888 3.6759 0
M  V30 1084 H 101.984 1.0703 4.87182 0
M  V30 1085 H 101.138 -1.00695 5.98285 0
M  V30 1086 H 99.8769 -1.18646 4.73048 0
M  V30 1087 H 98.8819 1.01813 5.40291 0
M  V30 1088 H 100.107 1.18409 6.68697 0
M  V30 1089 H 98.0529 -1.04994 6.47543 0
M  V30 1090 H 97.9699 0.304262 7.55387 0
M  V30 1091 H 99.2379 -0.869224 7.74638 0
M  V30 1092 N 103.467 -1.45747 0.599634 0
M  V30 1093 C 104.713 -2.03153 0.100263 0
M  V30 1094 C 105.068 -1.46073 -1.25221 0
M  V30 1095 O 104.361 -0.622878 -1.81193 0
M  V30 1096 C 104.555 -3.57399 -0.00602758 0
M  V30 1097 C 104.384 -4.2944 1.3346 0
M  V30 1098 C 103.154 -4.6768 1.91321 0
M  V30 1099 C 105.352 -4.61905 2.2616 0
M  V30 1100 N 103.334 -5.24544 3.18946 0
M  V30 1101 C 104.705 -5.19518 3.3838 0
M  V30 1102 C 106.76 -4.43841 2.25631 0
M  V30 1103 C 105.463 -5.60972 4.50226 0
M  V30 1104 C 107.489 -4.86322 3.36518 0
M  V30 1105 C 106.851 -5.44021 4.4746 0
M  V30 1106 H 102.95 -0.777911 0.0798696 0
M  V30 1107 H 105.534 -1.77674 0.796244 0
M  V30 1108 H 103.705 -3.82556 -0.671212 0
M  V30 1109 H 105.437 -4.01457 -0.51133 0
M  V30 1110 H 102.192 -4.5098 1.44617 0
M  V30 1111 H 102.616 -5.57483 3.84112 0
M  V30 1112 H 107.258 -3.98552 1.41123 0
M  V30 1113 H 104.976 -6.0523 5.35464 0
M  V30 1114 H 108.562 -4.74084 3.37247 0
M  V30 1115 H 107.442 -5.76289 5.31846 0
M  V30 1116 N 104.945 -0.338344 -1.53925 0
M  V30 1117 C 106.222 0.314774 -1.93051 0
M  V30 1118 C 106.602 1.68669 -1.26941 0
M  V30 1119 O 105.95 2.24636 -0.418445 0
M  V30 1120 C 106.16 0.392249 -3.46789 0
M  V30 1121 C 107.508 0.645554 -4.19664 0
M  V30 1122 O 108.532 0.474575 -3.53024 0
M  V30 1123 O 107.391 0.976408 -5.37707 0
M  V30 1124 H 104.485 0.182598 -0.80659 0
M  V30 1125 H 107.031 -0.389141 -1.65178 0
M  V30 1126 H 105.803 -0.570702 -3.87116 0
M  V30 1127 H 105.426 1.14316 -3.80812 0
M  V30 1128 N 106.423 1.57458 -0.0668435 0
M  V30 1129 C 107.648 1.9804 0.616027 0
M  V30 1130 C 108.073 0.944771 1.62652 0
M  V30 1131 O 107.431 -0.0902094 1.81075 0
M  V30 1132 C 107.479 3.37665 1.26549 0
M  V30 1133 O 106.583 3.36701 2.38131 0
M  V30 1134 H 105.924 0.644719 0.158849 0
M  V30 1135 H 108.454 2.04121 -0.139891 0
M  V30 1136 H 108.464 3.7474 1.6135 0
M  V30 1137 H 107.139 4.12573 0.525016 0
M  V30 1138 H 105.716 3.1139 2.0516 0
M  V30 1139 N 107.901 -0.206675 1.56239 0
M  V30 1140 C 109.129 -0.945345 1.8404 0
M  V30 1141 C 109.544 -1.77336 0.647885 0
M  V30 1142 O 108.901 -1.78425 -0.383511 0
M  V30 1143 C 108.952 -1.8509 3.10522 0
M  V30 1144 O 108.673 -1.05634 4.25174 0
M  V30 1145 C 110.174 -2.70222 3.51418 0
M  V30 1146 H 107.394 -0.276372 0.61144 0
M  V30 1147 H 109.938 -0.217417 2.03341 0
M  V30 1148 H 108.093 -2.53259 2.93153 0
M  V30 1149 H 108.507 -1.67238 4.97124 0
M  V30 1150 H 109.981 -3.29438 4.42916 0
M  V30 1151 H 110.458 -3.43358 2.73864 0
M  V30 1152 H 111.064 -2.07443 3.71278 0
M  V30 1153 N 109.379 -1.50304 -0.473955 0
M  V30 1154 C 110.627 -1.60832 -1.22382 0
M  V30 1155 C 110.948 -0.30939 -1.9253 0
M  V30 1156 O 110.218 0.67296 -1.83978 0
M  V30 1157 H 108.798 -0.592652 -0.454723 0
M  V30 1158 H 111.46 -1.87068 -0.546968 0
M  V30 1159 H 110.556 -2.41803 -1.97327 0
M  V30 1160 N 110.857 0.726932 -1.39834 0
M  V30 1161 C 111.807 1.83232 -1.35683 0
M  V30 1162 C 112.791 1.59155 -0.236295 0
M  V30 1163 O 113.983 1.70522 -0.474488 0
M  V30 1164 C 111.112 3.21246 -1.21062 0
M  V30 1165 C 110.198 3.51125 -2.37849 0
M  V30 1166 N 110.589 3.51889 -3.63329 0
M  V30 1167 C 108.887 3.81527 -2.30982 0
M  V30 1168 C 109.588 3.79791 -4.40606 0
M  V30 1169 N 108.564 3.97971 -3.70297 0
M  V30 1170 H 112.366 1.8214 -2.30656 0
M  V30 1171 H 109.88 0.925545 -1.33444 0
M  V30 1172 H 111.877 4.00387 -1.16171 0
M  V30 1173 H 110.537 3.23572 -0.270458 0
M  V30 1174 H 111.548 3.33008 -3.96643 0
M  V30 1175 H 108.225 3.91411 -1.45272 0
M  V30 1176 H 109.615 3.86783 -5.49408 0
M  V30 1177 N 112.336 1.25143 0.95797 0
M  V30 1178 C 113.561 1.12521 1.74223 0
M  V30 1179 C 113.986 -0.317402 1.85403 0
M  V30 1180 O 113.344 -1.2299 1.33204 0
M  V30 1181 C 113.392 1.78062 3.1357 0
M  V30 1182 O 112.496 1.058 3.98598 0
M  V30 1183 H 111.837 0.39304 0.535178 0
M  V30 1184 H 114.367 1.65641 1.201 0
M  V30 1185 H 114.377 1.84213 3.64046 0
M  V30 1186 H 113.052 2.83021 3.04749 0
M  V30 1187 H 111.629 1.07506 3.57067 0
M  V30 1188 N 113.814 -1.1601 1.06675 0
M  V30 1189 C 114.744 -2.22688 0.702307 0
M  V30 1190 C 115.725 -1.67306 -0.307032 0
M  V30 1191 O 116.91 -1.93352 -0.181305 0
M  V30 1192 C 114.04 -3.47178 0.092038 0
M  V30 1193 C 112.994 -4.15477 1.02777 0
M  V30 1194 C 112.32 -5.33963 0.28061 0
M  V30 1195 C 113.62 -4.66019 2.35846 0
M  V30 1196 H 115.314 -2.53429 1.59419 0
M  V30 1197 H 112.86 -1.21813 0.767961 0
M  V30 1198 H 114.813 -4.21037 -0.174814 0
M  V30 1199 H 113.537 -3.15749 -0.834877 0
M  V30 1200 H 112.196 -3.43549 1.27944 0
M  V30 1201 H 111.844 -4.98788 -0.649545 0
M  V30 1202 H 111.544 -5.806 0.904258 0
M  V30 1203 H 113.068 -6.10596 0.021396 0
M  V30 1204 H 114.482 -5.3144 2.15045 0
M  V30 1205 H 112.879 -5.23293 2.93743 0
M  V30 1206 H 113.949 -3.82023 2.98641 0
M  V30 1207 N 115.292 -0.849877 -1.32721 0
M  V30 1208 C 116.24 -0.279745 -2.30912 0
M  V30 1209 C 117.234 0.594278 -1.58634 0
M  V30 1210 O 118.44 0.482613 -1.73409 0
M  V30 1211 H 114.815 -0.0717521 -0.748569 0
M  V30 1212 H 116.786 -1.12222 -2.76494 0
M  V30 1213 C 115.535 0.521108 -3.43773 0
M  V30 1214 H 114.858 -0.142141 -3.99547 0
M  V30 1215 H 116.298 0.885693 -4.14646 0
M  V30 1216 C 114.757 1.70442 -2.90605 0
M  V30 1217 O 115.287 2.8034 -2.87702 0
M  V30 1218 N 113.493 1.52991 -2.47067 0
M  V30 1219 H 113.04 0.635914 -2.49628 0
M  V30 1220 H 112.998 2.32311 -2.11847 0
M  V30 1221 N 116.77 1.45427 -0.607355 0
M  V30 1222 C 117.68 2.34325 0.113463 0
M  V30 1223 C 118.696 1.51226 0.860617 0
M  V30 1224 O 119.872 1.84029 0.818255 0
M  V30 1225 C 116.937 3.28839 1.09844 0
M  V30 1226 C 115.998 4.27844 0.353271 0
M  V30 1227 C 115.231 5.17842 1.29133 0
M  V30 1228 O 115.454 5.11264 2.52913 0
M  V30 1229 O 114.388 5.96713 0.788523 0
M  V30 1230 H 118.214 2.97364 -0.617094 0
M  V30 1231 H 115.799 1.44807 -0.367619 0
M  V30 1232 H 117.681 3.8708 1.66575 0
M  V30 1233 H 116.356 2.68365 1.81003 0
M  V30 1234 H 115.263 3.7322 -0.256494 0
M  V30 1235 H 116.596 4.91173 -0.317822 0
M  V30 1236 N 118.248 0.346503 1.53744 0
M  V30 1237 C 119.211 -0.496439 2.23759 0
M  V30 1238 C 120.211 -1.0252 1.2388 0
M  V30 1239 O 121.401 -0.913974 1.48297 0
M  V30 1240 C 118.533 -1.69187 2.95954 0
M  V30 1241 H 119.726 0.115952 2.99676 0
M  V30 1242 H 117.279 0.0978939 1.55993 0
M  V30 1243 H 118.014 -2.34288 2.24231 0
M  V30 1244 H 117.799 -1.31989 3.69217 0
M  V30 1245 H 119.289 -2.28969 3.49232 0
M  V30 1246 N 119.726 -1.57421 0.075193 0
M  V30 1247 C 120.676 -2.09441 -0.901025 0
M  V30 1248 C 121.66 -1.00486 -1.25663 0
M  V30 1249 O 122.852 -1.2679 -1.23504 0
M  V30 1250 C 119.981 -2.66233 -2.16737 0
M  V30 1251 C 119.067 -3.82198 -1.83808 0
M  V30 1252 N 119.458 -4.91028 -1.21345 0
M  V30 1253 C 117.756 -3.91558 -2.13538 0
M  V30 1254 C 118.457 -5.71852 -1.06585 0
M  V30 1255 N 117.433 -5.20233 -1.57667 0
M  V30 1256 H 121.235 -2.90972 -0.413815 0
M  V30 1257 H 118.749 -1.6189 -0.128601 0
M  V30 1258 H 120.746 -3.01819 -2.87595 0
M  V30 1259 H 119.406 -1.8615 -2.66042 0
M  V30 1260 H 120.417 -5.10323 -0.88268 0
M  V30 1261 H 117.094 -3.22454 -2.65197 0
M  V30 1262 H 118.484 -6.69401 -0.578933 0
M  V30 1263 N 121.204 0.198386 -1.56346 0
M  V30 1264 C 122.136 1.26987 -1.90806 0
M  V30 1265 C 123.149 1.41877 -0.798419 0
M  V30 1266 O 124.338 1.42362 -1.07682 0
M  V30 1267 C 121.438 2.64246 -2.12196 0
M  V30 1268 C 120.611 2.71007 -3.43328 0
M  V30 1269 C 119.67 3.89439 -3.5387 0
M  V30 1270 O 118.696 3.76695 -4.26719 0
M  V30 1271 N 119.898 5.04752 -2.86715 0
M  V30 1272 H 122.663 0.977433 -2.83313 0
M  V30 1273 H 120.224 0.388322 -1.57174 0
M  V30 1274 H 122.216 3.41896 -2.1654 0
M  V30 1275 H 120.786 2.85992 -1.26204 0
M  V30 1276 H 120.006 1.79657 -3.50881 0
M  V30 1277 H 121.294 2.72512 -4.29668 0
M  V30 1278 H 120.692 5.18004 -2.2735 0
M  V30 1279 H 119.249 5.8036 -2.96691 0
M  V30 1280 N 122.682 1.50554 0.465978 0
M  V30 1281 C 123.931 1.61038 1.21448 0
M  V30 1282 C 124.244 0.31865 1.92987 0
M  V30 1283 O 125.45 0.302469 2.6981 0
M  V30 1284 C 123.906 2.84283 2.20706 0
M  V30 1285 C 123.514 4.20352 1.54946 0
M  V30 1286 C 125.258 3.04115 2.96166 0
M  V30 1287 C 123.165 5.34778 2.5252 0
M  V30 1288 H 122.095 0.599718 0.457005 0
M  V30 1289 H 124.746 1.7699 0.484424 0
M  V30 1290 H 123.128 2.61901 2.97025 0
M  V30 1291 H 124.302 4.53008 0.843811 0
M  V30 1292 H 122.617 4.06167 0.917475 0
M  V30 1293 H 125.214 3.86774 3.69202 0
M  V30 1294 H 125.557 2.16045 3.55852 0
M  V30 1295 H 126.09 3.26702 2.26959 0
M  V30 1296 H 122.829 6.25018 1.97566 0
M  V30 1297 H 122.349 5.06534 3.21222 0
M  V30 1298 H 124.028 5.65561 3.14245 0
M  V30 1299 N 124.16 -0.719506 1.40217 0
M  V30 1300 C 125.385 -1.51371 1.4178 0
M  V30 1301 C 125.81 -1.88091 0.0182355 0
M  V30 1302 O 125.168 -1.52997 -0.972707 0
M  V30 1303 C 125.216 -2.768 2.31115 0
M  V30 1304 O 124.32 -3.73349 1.7517 0
M  V30 1305 H 123.661 -0.456529 0.482159 0
M  V30 1306 H 126.191 -0.88644 1.844 0
M  V30 1307 H 126.201 -3.25371 2.46167 0
M  V30 1308 H 124.876 -2.49407 3.3282 0
M  V30 1309 H 123.453 -3.32179 1.69444 0
M  V30 1310 N 125.638 -1.25649 -0.95132 0
M  V30 1311 C 126.568 -1.08808 -2.06599 0
M  V30 1312 C 127.549 0.00382547 -1.701 0
M  V30 1313 O 128.734 -0.166325 -1.93486 0
M  V30 1314 C 125.864 -0.709542 -3.39975 0
M  V30 1315 C 124.818 -1.75206 -3.90496 0
M  V30 1316 C 124.144 -1.22811 -5.20405 0
M  V30 1317 C 125.444 -3.15153 -4.16504 0
M  V30 1318 H 127.138 -2.02048 -2.20946 0
M  V30 1319 H 124.684 -0.972835 -1.06169 0
M  V30 1320 H 126.637 -0.578649 -4.17408 0
M  V30 1321 H 125.361 0.258556 -3.25575 0
M  V30 1322 H 124.02 -1.87145 -3.15234 0
M  V30 1323 H 123.668 -0.250145 -5.02378 0
M  V30 1324 H 123.368 -1.92492 -5.55176 0
M  V30 1325 H 124.892 -1.10968 -6.00432 0
M  V30 1326 H 126.306 -3.06349 -4.84586 0
M  V30 1327 H 124.703 -3.82333 -4.62538 0
M  V30 1328 H 125.773 -3.61966 -3.22658 0
M  V30 1329 N 127.117 1.15442 -1.07289 0
M  V30 1330 C 128.065 2.22225 -0.686952 0
M  V30 1331 C 129.059 1.66688 0.30193 0
M  V30 1332 O 130.265 1.79236 0.165712 0
M  V30 1333 H 126.64 0.723783 -0.204064 0
M  V30 1334 H 128.611 2.52056 -1.5972 0
M  V30 1335 C 127.36 3.47556 -0.100149 0
M  V30 1336 H 126.683 3.90612 -0.852211 0
M  V30 1337 H 128.123 4.23794 0.132235 0
M  V30 1338 C 126.582 3.16337 1.159 0
M  V30 1339 O 127.112 3.33074 2.24555 0
M  V30 1340 N 125.318 2.70385 1.06491 0
M  V30 1341 H 124.865 2.56966 0.180668 0
M  V30 1342 H 124.823 2.49871 1.90819 0
M  V30 1343 N 128.595 0.856903 1.32268 0
M  V30 1344 C 129.505 0.306131 2.32594 0
M  V30 1345 C 130.521 -0.577209 1.64147 0
M  V30 1346 O 131.697 -0.477043 1.95669 0
M  V30 1347 C 128.762 -0.494561 3.43154 0
M  V30 1348 C 127.823 0.415186 4.27288 0
M  V30 1349 C 127.056 -0.347387 5.32568 0
M  V30 1350 O 127.279 -1.57708 5.48165 0
M  V30 1351 O 126.213 0.287982 6.01211 0
M  V30 1352 H 130.039 1.13737 2.81598 0
M  V30 1353 H 127.624 0.619902 1.35932 0
M  V30 1354 H 129.506 -0.948944 4.10576 0
M  V30 1355 H 128.181 -1.30257 2.96336 0
M  V30 1356 H 127.088 0.917793 3.62667 0
M  V30 1357 H 128.421 1.18844 4.77637 0
M  V30 1358 N 130.073 -1.45103 0.615059 0
M  V30 1359 C 131.32 -2.02183 0.113179 0
M  V30 1360 C 131.648 -1.48249 -1.25906 0
M  V30 1361 O 130.903 -0.650265 -1.84581 0
M  V30 1362 C 131.202 -3.57386 0.0318797 0
M  V30 1363 C 130.868 -4.30505 1.34077 0
M  V30 1364 C 129.53 -4.50197 1.69929 0
M  V30 1365 C 131.882 -4.72238 2.20546 0
M  V30 1366 C 129.21 -5.08881 2.91988 0
M  V30 1367 C 131.562 -5.32272 3.41861 0
M  V30 1368 C 130.226 -5.50187 3.77956 0
M  V30 1369 H 129.496 -0.739842 0.0414151 0
M  V30 1370 H 132.143 -1.74073 0.798168 0
M  V30 1371 H 130.448 -3.84817 -0.736409 0
M  V30 1372 H 132.145 -3.99264 -0.372712 0
M  V30 1373 H 128.735 -4.15496 1.05173 0
M  V30 1374 H 132.919 -4.56751 1.94146 0
M  V30 1375 H 128.175 -5.20939 3.2005 0
M  V30 1376 H 132.349 -5.63563 4.09109 0
M  V30 1377 H 129.976 -5.95427 4.72622 0
M  V30 1378 N 131.551 -0.354651 -1.53558 0
M  V30 1379 C 132.779 0.239515 -2.05509 0
M  V30 1380 C 133.194 1.4333 -1.2289 0
M  V30 1381 O 132.551 1.80538 -0.266899 0
M  V30 1382 C 132.602 0.643719 -3.55723 0
M  V30 1383 O 132.323 -0.502602 -4.35207 0
M  V30 1384 C 133.824 1.29743 -4.23889 0
M  V30 1385 H 131.044 0.0442697 -0.669538 0
M  V30 1386 H 133.588 -0.509856 -1.98042 0
M  V30 1387 H 131.743 1.34302 -3.63376 0
M  V30 1388 H 132.157 -0.178172 -5.24197 0
M  V30 1389 H 133.631 1.53091 -5.30346 0
M  V30 1390 H 134.108 2.25441 -3.76926 0
M  V30 1391 H 134.714 0.639865 -4.20459 0
M  V30 1392 N 133.029 1.57378 -0.0835403 0
M  V30 1393 C 134.254 1.98682 0.594987 0
M  V30 1394 C 134.679 0.961969 1.61641 0
M  V30 1395 O 134.037 -0.0709989 1.81161 0
M  V30 1396 C 134.085 3.38988 1.2296 0
M  V30 1397 O 133.189 3.39208 2.34546 0
M  V30 1398 H 132.53 0.646368 0.152002 0
M  V30 1399 H 135.06 2.03961 -0.161533 0
M  V30 1400 H 135.07 3.76431 1.57366 0
M  V30 1401 H 133.745 4.13107 0.481228 0
M  V30 1402 H 132.322 3.13548 2.01846 0
M  V30 1403 N 134.507 -0.190092 1.56449 0
M  V30 1404 C 135.454 -1.23557 1.94942 0
M  V30 1405 C 136.424 -1.44972 0.810696 0
M  V30 1406 O 137.609 -1.58023 1.06927 0
M  V30 1407 C 134.749 -2.57416 2.2985 0
M  V30 1408 C 133.862 -2.43537 3.5681 0
M  V30 1409 C 132.997 -3.70134 3.81017 0
M  V30 1410 C 132.036 -3.51109 5.01387 0
M  V30 1411 N 131.173 -4.6973 5.21822 0
M  V30 1412 H 136.013 -0.900304 2.84075 0
M  V30 1413 H 133.55 -0.43318 1.40577 0
M  V30 1414 H 135.508 -3.35409 2.48106 0
M  V30 1415 H 134.138 -2.88975 1.43852 0
M  V30 1416 H 133.19 -1.56816 3.46573 0
M  V30 1417 H 134.502 -2.25415 4.4496 0
M  V30 1418 H 133.656 -4.56566 3.9954 0
M  V30 1419 H 132.395 -3.91215 2.91207 0
M  V30 1420 H 131.4 -2.63063 4.82782 0
M  V30 1421 H 132.625 -3.31468 5.9271 0
M  V30 1422 H 130.571 -4.91065 4.34961 0
M  V30 1423 H 130.488 -4.54452 6.0416 0
M  V30 1424 H 131.756 -5.57499 5.44808 0
M  V30 1425 N 135.985 -1.50799 -0.457987 0
M  V30 1426 C 137.21 -1.66496 -1.23668 0
M  V30 1427 C 137.635 -0.353288 -1.84752 0
M  V30 1428 O 136.993 0.684346 -1.67888 0
M  V30 1429 C 137.041 -2.76763 -2.3116 0
M  V30 1430 O 136.145 -2.38928 -3.36136 0
M  V30 1431 H 135.486 -0.555828 -0.363252 0
M  V30 1432 H 138.016 -1.9725 -0.543474 0
M  V30 1433 H 138.026 -3.00232 -2.76269 0
M  V30 1434 H 136.701 -3.71954 -1.86073 0
M  V30 1435 H 135.278 -2.25953 -2.96647 0
M  V30 1436 N 137.463 0.71206 -1.40597 0
M  V30 1437 C 138.879 1.02058 -1.22704 0
M  V30 1438 C 139.079 2.01228 -0.104729 0
M  V30 1439 O 138.135 2.4674 0.53624 0
M  V30 1440 C 139.448 1.56094 -2.57012 0
M  V30 1441 C 140.996 1.6806 -2.64054 0
M  V30 1442 C 141.471 2.25501 -3.9864 0
M  V30 1443 N 142.962 2.32882 -4.004 0
M  V30 1444 C 143.697 2.78317 -5.01325 0
M  V30 1445 N 143.193 3.23478 -6.12645 0
M  V30 1446 N 144.986 2.77733 -4.88693 0
M  V30 1447 H 137.137 0.0547896 -2.12329 0
M  V30 1448 H 139.4 0.0869027 -0.944008 0
M  V30 1449 H 139.106 0.906865 -3.39807 0
M  V30 1450 H 138.98 2.54564 -2.78347 0
M  V30 1451 H 141.367 2.32583 -1.81629 0
M  V30 1452 H 141.448 0.681802 -2.46546 0
M  V30 1453 H 141.092 1.61598 -4.81506 0
M  V30 1454 H 141.022 3.26102 -4.13479 0
M  V30 1455 H 143.513 2.00991 -3.20017 0
M  V30 1456 H 143.826 3.56725 -6.85542 0
M  V30 1457 H 142.171 3.21429 -6.16205 0
M  V30 1458 H 145.362 2.4179 -4.00818 0
M  V30 1459 H 145.535 3.12826 -5.67489 0
M  V30 1460 N 138.941 1.26152 0.944643 0
M  V30 1461 C 139.851 1.09176 2.07648 0
M  V30 1462 C 140.867 0.0261935 1.7398 0
M  V30 1463 O 142.043 0.229208 2.00091 0
M  V30 1464 C 139.108 0.722915 3.39079 0
M  V30 1465 C 138.169 1.86752 3.86552 0
M  V30 1466 C 137.402 1.51617 5.11711 0
M  V30 1467 O 137.625 0.416331 5.68879 0
M  V30 1468 O 136.559 2.34975 5.54139 0
M  V30 1469 H 140.385 2.0412 2.24875 0
M  V30 1470 H 137.97 1.05182 1.061 0
M  V30 1471 H 139.852 0.529787 4.18056 0
M  V30 1472 H 138.527 -0.197159 3.23099 0
M  V30 1473 H 137.434 2.11558 3.08535 0
M  V30 1474 H 138.767 2.76719 4.07047 0
M  V30 1475 N 140.419 -1.14872 1.07899 0
M  V30 1476 C 141.349 -2.2193 0.725887 0
M  V30 1477 C 142.33 -1.67622 -0.28927 0
M  V30 1478 O 143.515 -1.93533 -0.160787 0
M  V30 1479 C 140.645 -3.47061 0.128856 0
M  V30 1480 C 139.599 -4.14363 1.07178 0
M  V30 1481 C 138.925 -5.33636 0.337229 0
M  V30 1482 C 140.225 -4.63492 2.40775 0
M  V30 1483 H 141.919 -2.51724 1.62097 0
M  V30 1484 H 139.465 -1.20991 0.780838 0
M  V30 1485 H 141.418 -4.21199 -0.130147 0
M  V30 1486 H 140.142 -3.16617 -0.80134 0
M  V30 1487 H 138.801 -3.42173 1.3158 0
M  V30 1488 H 138.449 -4.99449 -0.596606 0
M  V30 1489 H 138.149 -5.79609 0.965788 0
M  V30 1490 H 139.673 -6.10539 0.0861567 0
M  V30 1491 H 141.087 -5.2913 2.20669 0
M  V30 1492 H 139.484 -5.20148 2.99276 0
M  V30 1493 H 140.554 -3.78834 3.02676 0
M  V30 1494 N 141.898 -0.863906 -1.31812 0
M  V30 1495 C 143.123 -0.48527 -2.01643 0
M  V30 1496 C 143.548 0.913058 -1.64453 0
M  V30 1497 O 142.906 1.6014 -0.849985 0
M  V30 1498 C 142.954 -0.642625 -3.54828 0
M  V30 1499 O 142.058 0.320659 -4.11151 0
M  V30 1500 H 141.399 -0.193793 -0.635091 0
M  V30 1501 H 143.929 -1.16565 -1.68148 0
M  V30 1502 H 143.939 -0.533628 -4.04495 0
M  V30 1503 H 142.614 -1.66227 -3.81237 0
M  V30 1504 H 141.191 0.167126 -3.72525 0
M  V30 1505 N 143.376 1.44774 -0.622745 0
M  V30 1506 C 144.622 2.02968 -0.13257 0
M  V30 1507 C 144.977 1.48047 1.22881 0
M  V30 1508 O 144.27 0.651625 1.80179 0
M  V30 1509 C 144.464 3.57364 -0.0508323 0
M  V30 1510 C 144.293 4.27262 -1.40275 0
M  V30 1511 C 143.063 4.64577 -1.98737 0
M  V30 1512 C 145.261 4.58248 -2.3348 0
M  V30 1513 N 143.243 5.19404 -3.27251 0
M  V30 1514 C 144.614 5.14069 -3.46603 0
M  V30 1515 C 146.669 4.40195 -2.32664 0
M  V30 1516 C 145.372 5.53738 -4.59093 0
M  V30 1517 C 147.398 4.80907 -3.44213 0
M  V30 1518 C 146.76 5.36834 -4.56058 0
M  V30 1519 H 142.859 0.776541 -0.0922354 0
M  V30 1520 H 145.443 1.76385 -0.82441 0
M  V30 1521 H 143.614 3.83576 0.610265 0
M  V30 1522 H 145.346 4.02219 0.447397 0
M  V30 1523 H 142.101 4.48622 -1.51774 0
M  V30 1524 H 142.525 5.51301 -3.92933 0
M  V30 1525 H 147.167 3.96257 -1.47446 0
M  V30 1526 H 144.885 5.96635 -5.45025 0
M  V30 1527 H 148.471 4.68659 -3.44747 0
M  V30 1528 H 147.351 5.67755 -5.40947 0
M  V30 1529 N 144.854 0.36279 1.53368 0
M  V30 1530 C 145.804 -0.501391 2.22419 0
M  V30 1531 C 146.788 -1.0509 1.2184 0
M  V30 1532 O 147.98 -0.981404 1.47301 0
M  V30 1533 C 145.109 -1.64201 3.01484 0
M  V30 1534 C 144.195 -1.10552 4.09438 0
M  V30 1535 N 144.586 -0.291788 5.04958 0
M  V30 1536 C 142.884 -1.3806 4.24094 0
M  V30 1537 C 143.585 0.00162655 5.817 0
M  V30 1538 N 142.561 -0.595244 5.40331 0
M  V30 1539 H 146.363 0.127159 2.93625 0
M  V30 1540 H 143.877 0.170658 1.61501 0
M  V30 1541 H 145.874 -2.27326 3.49469 0
M  V30 1542 H 144.534 -2.27365 2.31809 0
M  V30 1543 H 145.545 0.0687731 5.17854 0
M  V30 1544 H 142.222 -2.01522 3.65644 0
M  V30 1545 H 143.612 0.659278 6.68658 0
M  V30 1546 N 146.332 -1.57332 0.0918853 0
M  V30 1547 C 147.264 -2.10869 -0.898168 0
M  V30 1548 C 148.277 -1.04521 -1.24817 0
M  V30 1549 O 149.466 -1.31977 -1.20184 0
M  V30 1550 C 146.566 -2.57083 -2.2082 0
M  V30 1551 C 145.739 -3.87229 -2.03402 0
M  V30 1552 C 144.798 -4.19324 -3.17889 0
M  V30 1553 O 143.824 -4.88598 -2.91994 0
M  V30 1554 N 145.026 -3.74471 -4.43567 0
M  V30 1555 H 147.791 -2.96439 -0.440943 0
M  V30 1556 H 145.352 -1.61631 -0.0933064 0
M  V30 1557 H 147.344 -2.75602 -2.96354 0
M  V30 1558 H 145.914 -1.76541 -2.57977 0
M  V30 1559 H 145.134 -3.7789 -1.12218 0
M  V30 1560 H 146.422 -4.72379 -1.89038 0
M  V30 1561 H 145.82 -3.18546 -4.67488 0
M  V30 1562 H 144.377 -3.98151 -5.16061 0
M  V30 1563 N 147.81 0.181792 -1.56548 0
M  V30 1564 C 149.056 0.901431 -1.81665 0
M  V30 1565 C 149.389 1.82347 -0.668075 0
M  V30 1566 O 148.664 1.91669 0.330615 0
M  V30 1567 C 148.947 1.70618 -3.17115 0
M  V30 1568 C 148.8 0.807964 -4.42484 0
M  V30 1569 C 150.119 2.67605 -3.49393 0
M  V30 1570 H 147.238 0.32627 -0.660846 0
M  V30 1571 H 149.88 0.168134 -1.89255 0
M  V30 1572 H 148.03 2.33133 -3.10775 0
M  V30 1573 H 149.702 0.19649 -4.60881 0
M  V30 1574 H 147.945 0.115411 -4.33646 0
M  V30 1575 H 148.616 1.40632 -5.33785 0
M  V30 1576 H 151.092 2.15218 -3.56118 0
M  V30 1577 H 149.968 3.20985 -4.45264 0
M  V30 1578 H 150.229 3.47298 -2.73563 0
M  V30 1579 N 149.288 1.51039 0.449983 0
M  V30 1580 C 150.513 1.6715 1.22783 0
M  V30 1581 C 150.938 0.363081 1.84563 0
M  V30 1582 O 150.296 -0.675433 1.68249 0
M  V30 1583 C 150.344 2.77985 2.29689 0
M  V30 1584 O 149.448 2.40707 3.34864 0
M  V30 1585 H 148.789 0.557746 0.360299 0
M  V30 1586 H 151.319 1.97535 0.533005 0
M  V30 1587 H 151.329 3.01693 2.74673 0
M  V30 1588 H 150.004 3.72935 1.84098 0
M  V30 1589 H 148.581 2.27523 2.95445 0
M  V30 1590 N 150.766 -0.704594 1.40972 0
M  V30 1591 C 151.713 -1.81862 1.42109 0
M  V30 1592 C 152.683 -1.63781 0.276593 0
M  V30 1593 O 153.868 -1.84759 0.4763 0
M  V30 1594 C 151.008 -3.19669 1.30022 0
M  V30 1595 C 150.121 -3.49246 2.54267 0
M  V30 1596 C 149.256 -4.76618 2.3454 0
M  V30 1597 C 148.295 -4.99133 3.54306 0
M  V30 1598 N 147.432 -6.17726 3.33706 0
M  V30 1599 H 152.272 -1.80226 2.37324 0
M  V30 1600 H 149.809 -0.880238 1.17857 0
M  V30 1601 H 151.767 -3.99263 1.21018 0
M  V30 1602 H 150.397 -3.20506 0.384192 0
M  V30 1603 H 149.449 -2.64125 2.73756 0
M  V30 1604 H 150.761 -3.61788 3.43381 0
M  V30 1605 H 149.915 -5.64249 2.22952 0
M  V30 1606 H 148.654 -4.66305 1.42867 0
M  V30 1607 H 147.659 -4.09953 3.66359 0
M  V30 1608 H 148.884 -5.11311 4.4692 0
M  V30 1609 H 146.83 -6.08642 2.44725 0
M  V30 1610 H 146.747 -6.30995 4.16391 0
M  V30 1611 H 148.015 -7.08115 3.25873 0
M  V30 1612 N 152.244 -1.26651 -0.937939 0
M  V30 1613 C 153.207 -1.08546 -2.01867 0
M  V30 1614 C 154.207 -0.0327327 -1.60767 0
M  V30 1615 O 155.397 -0.276427 -1.71993 0
M  V30 1616 C 152.529 -0.651711 -3.34613 0
M  V30 1617 H 153.722 -2.04502 -2.1936 0
M  V30 1618 H 151.275 -1.09294 -1.11734 0
M  V30 1619 H 152.01 0.309696 -3.22818 0
M  V30 1620 H 151.795 -1.41189 -3.65798 0
M  V30 1621 H 153.285 -0.546973 -4.14002 0
M  V30 1622 N 153.722 1.14298 -1.08507 0
M  V30 1623 C 155.133 1.66926 -0.836227 0
M  V30 1624 C 155.484 1.85576 0.63686 0
M  V30 1625 O 154.609 1.56767 1.49175 0
M  V30 1626 C 155.204 3.03219 -1.51142 0
M  V30 1627 C 153.763 3.52876 -1.30979 0
M  V30 1628 C 152.91 2.2833 -1.57356 0
M  V30 1629 H 155.861 0.983491 -1.24552 0
M  V30 1630 H 155.882 3.68726 -0.939211 0
M  V30 1631 H 155.394 2.89612 -2.58353 0
M  V30 1632 H 153.495 3.71703 -0.258429 0
M  V30 1633 H 153.608 4.33586 -2.03814 0
M  V30 1634 H 151.972 2.34454 -0.995164 0
M  V30 1635 H 152.755 2.17298 -2.65775 0
M  V30 1636 N 155.201 0.870884 1.31352 0
M  V30 1637 C 156.164 0.332243 2.26779 0
M  V30 1638 C 157.164 -0.517302 1.52252 0
M  V30 1639 O 158.354 -0.326477 1.71113 0
M  V30 1640 C 155.486 -0.528066 3.36785 0
M  V30 1641 H 156.679 1.17469 2.75937 0
M  V30 1642 H 154.232 0.64655 1.423 0
M  V30 1643 H 154.967 -1.39167 2.92922 0
M  V30 1644 H 154.752 0.0802582 3.92018 0
M  V30 1645 H 156.242 -0.897179 4.07849 0
M  V30 1646 N 156.679 -1.44442 0.630414 0
M  V30 1647 C 157.928 -2.01267 0.132073 0
M  V30 1648 C 158.241 -1.50172 -1.25331 0
M  V30 1649 O 159.447 -1.9912 -1.84562 0
M  V30 1650 C 157.903 -3.59422 0.185362 0
M  V30 1651 C 157.511 -4.19514 1.57201 0
M  V30 1652 C 159.255 -4.23724 -0.256553 0
M  V30 1653 C 157.162 -5.69891 1.58045 0
M  V30 1654 H 156.092 -0.752619 0.0456092 0
M  V30 1655 H 158.743 -1.65666 0.789106 0
M  V30 1656 H 157.125 -3.92318 -0.538759 0
M  V30 1657 H 158.299 -3.98156 2.31966 0
M  V30 1658 H 156.614 -3.67496 1.95795 0
M  V30 1659 H 159.211 -5.34019 -0.269767 0
M  V30 1660 H 159.554 -3.96013 -1.28372 0
M  V30 1661 H 160.087 -3.95629 0.41505 0
M  V30 1662 H 156.826 -6.02336 2.58597 0
M  V30 1663 H 156.346 -5.93373 0.875725 0
M  V30 1664 H 158.025 -6.33515 1.31408 0
M  V30 1665 N 158.157 -0.370918 -1.53173 0
M  V30 1666 C 159.405 0.216673 -2.00935 0
M  V30 1667 C 159.726 1.48845 -1.25977 0
M  V30 1668 O 158.996 1.92286 -0.374551 0
M  V30 1669 H 157.576 0.0830565 -0.742368 0
M  V30 1670 H 160.238 -0.49838 -1.8842 0
M  V30 1671 H 159.334 0.439893 -3.08984 0
M  V30 1672 N 159.635 1.57281 -0.100228 0
M  V30 1673 C 160.882 1.94537 0.562268 0
M  V30 1674 C 161.21 0.982315 1.67871 0
M  V30 1675 O 160.465 0.00280936 1.957 0
M  V30 1676 C 160.764 3.38305 1.15259 0
M  V30 1677 C 160.43 4.50618 0.159409 0
M  V30 1678 C 159.092 4.81066 -0.113741 0
M  V30 1679 C 161.444 5.18615 -0.518461 0
M  V30 1680 C 158.772 5.76835 -1.07137 0
M  V30 1681 C 161.124 6.15412 -1.46459 0
M  V30 1682 C 159.788 6.44262 -1.74592 0
M  V30 1683 H 159.058 0.711863 0.205748 0
M  V30 1684 H 161.705 1.90679 -0.17715 0
M  V30 1685 H 160.01 3.38766 1.96836 0
M  V30 1686 H 161.707 3.64435 1.67297 0
M  V30 1687 H 158.297 4.2689 0.382491 0
M  V30 1688 H 162.481 4.95264 -0.320581 0
M  V30 1689 H 157.737 5.975 -1.29628 0
M  V30 1690 H 161.911 6.67194 -1.99564 0
M  V30 1691 H 159.538 7.1828 -2.48953 0
M  V30 1692 N 161.113 -0.173488 1.56642 0
M  V30 1693 C 162.338 -0.910149 1.86363 0
M  V30 1694 C 162.763 -1.75132 0.686318 0
M  V30 1695 O 162.121 -1.77595 -0.364643 0
M  V30 1696 C 162.169 -1.76447 3.14482 0
M  V30 1697 O 161.273 -2.86584 2.96553 0
M  V30 1698 H 160.614 -0.255086 0.613047 0
M  V30 1699 H 163.144 -0.172283 2.03873 0
M  V30 1700 H 163.154 -2.16483 3.45831 0
M  V30 1701 H 161.829 -1.14658 3.99783 0
M  V30 1702 H 160.406 -2.50146 2.76553 0
M  V30 1703 N 162.591 -1.51276 -0.441967 0
M  V30 1704 C 164.002 -1.56244 -1.02199 0
M  V30 1705 C 164.353 -0.383149 -1.92422 0
M  V30 1706 O 163.478 0.500613 -2.1053 0
M  V30 1707 C 164.073 -2.83162 -1.86024 0
M  V30 1708 C 162.632 -2.90716 -2.39084 0
M  V30 1709 C 161.779 -2.50858 -1.18175 0
M  V30 1710 H 164.73 -1.5712 -0.223416 0
M  V30 1711 H 164.751 -2.66663 -2.71425 0
M  V30 1712 H 164.263 -3.68974 -1.20331 0
M  V30 1713 H 162.364 -2.09323 -3.08244 0
M  V30 1714 H 162.477 -3.94266 -2.72198 0
M  V30 1715 H 160.841 -2.03951 -1.52565 0
M  V30 1716 H 161.624 -3.3901 -0.541001 0
M  V30 1717 N 164.069 0.697108 -1.41344 0
M  V30 1718 C 165.294 1.49096 -1.44171 0
M  V30 1719 C 165.719 1.88038 -0.0481568 0
M  V30 1720 O 165.077 1.54525 0.948243 0
M  V30 1721 C 165.125 2.73088 -2.3549 0
M  V30 1722 O 164.229 3.70514 -1.81088 0
M  V30 1723 H 163.57 0.448801 -0.489361 0
M  V30 1724 H 166.1 0.856992 -1.85787 0
M  V30 1725 H 166.11 3.21413 -2.51312 0
M  V30 1726 H 164.785 2.44081 -3.36745 0
M  V30 1727 H 163.362 3.29441 -1.74708 0
M  V30 1728 N 165.547 1.27147 0.931209 0
M  V30 1729 C 166.793 1.13446 1.68101 0
M  V30 1730 C 167.126 -0.319628 1.91552 0
M  V30 1731 O 166.401 -1.23407 1.50336 0
M  V30 1732 C 166.684 1.91482 3.0497 0
M  V30 1733 C 166.537 3.44855 2.88782 0
M  V30 1734 C 167.856 1.71651 4.05246 0
M  V30 1735 H 164.975 0.413498 0.610072 0
M  V30 1736 H 167.617 1.56261 1.08086 0
M  V30 1737 H 165.767 1.55095 3.56199 0
M  V30 1738 H 167.439 3.9105 2.44698 0
M  V30 1739 H 165.682 3.71373 2.24198 0
M  V30 1740 H 166.353 3.94694 3.85902 0
M  V30 1741 H 168.829 2.0337 3.63015 0
M  V30 1742 H 167.705 2.28651 4.99009 0
M  V30 1743 H 167.966 0.663555 4.37092 0
M  V30 1744 N 167.025 -1.13721 1.09112 0
M  V30 1745 C 167.955 -2.21148 0.749385 0
M  V30 1746 C 168.936 -1.6792 -0.271475 0
M  V30 1747 O 170.121 -1.93693 -0.140251 0
M  V30 1748 C 167.251 -3.46905 0.165659 0
M  V30 1749 C 166.205 -4.13203 1.11567 0
M  V30 1750 C 165.531 -5.33248 0.393809 0
M  V30 1751 C 166.831 -4.60912 2.45678 0
M  V30 1752 H 168.525 -2.4999 1.64758 0
M  V30 1753 H 166.071 -1.20156 0.793626 0
M  V30 1754 H 168.024 -4.21313 -0.085466 0
M  V30 1755 H 166.748 -3.17449 -0.767714 0
M  V30 1756 H 165.407 -3.40758 1.35202 0
M  V30 1757 H 165.055 -5.00054 -0.543599 0
M  V30 1758 H 164.755 -5.78552 1.02721 0
M  V30 1759 H 166.279 -6.10413 0.150908 0
M  V30 1760 H 167.693 -5.26759 2.26269 0
M  V30 1761 H 166.09 -5.16944 3.04776 0
M  V30 1762 H 167.16 -3.75603 3.06677 0
M  V30 1763 N 168.503 -0.877838 -1.30888 0
M  V30 1764 C 169.914 -0.544193 -1.78593 0
M  V30 1765 C 170.265 0.939301 -1.72254 0
M  V30 1766 O 169.39 1.7337 -1.29505 0
M  V30 1767 C 169.985 -0.98105 -3.24285 0
M  V30 1768 C 168.544 -0.698935 -3.69854 0
M  V30 1769 C 167.691 -1.168 -2.51502 0
M  V30 1770 H 170.642 -1.06278 -1.17859 0
M  V30 1771 H 170.663 -0.307009 -3.79259 0
M  V30 1772 H 170.175 -2.06079 -3.28866 0
M  V30 1773 H 168.276 0.369112 -3.70767 0
M  V30 1774 H 168.389 -1.28148 -4.61644 0
M  V30 1775 H 166.753 -0.587535 -2.47831 0
M  V30 1776 H 167.536 -2.25533 -2.58824 0
M  V30 1777 N 169.982 1.44106 -0.638065 0
M  V30 1778 C 170.929 2.30715 0.062701 0
M  V30 1779 C 171.899 1.43882 0.829883 0
M  V30 1780 O 173.084 1.72775 0.809532 0
M  V30 1781 C 170.224 3.29258 1.03358 0
M  V30 1782 C 169.337 4.31192 0.26409 0
M  V30 1783 C 168.472 5.16825 1.22741 0
M  V30 1784 C 167.511 6.10462 0.447475 0
M  V30 1785 N 166.648 6.8877 1.36161 0
M  V30 1786 H 171.488 2.90096 -0.681781 0
M  V30 1787 H 169.025 1.42925 -0.347988 0
M  V30 1788 H 170.983 3.84886 1.60992 0
M  V30 1789 H 169.613 2.71562 1.74511 0
M  V30 1790 H 168.665 3.77981 -0.428295 0
M  V30 1791 H 169.977 4.97619 -0.343052 0
M  V30 1792 H 169.131 5.77004 1.87487 0
M  V30 1793 H 167.87 4.50488 1.86847 0
M  V30 1794 H 166.875 5.49386 -0.213433 0
M  V30 1795 H 168.1 6.78837 -0.188968 0
M  V30 1796 H 166.046 6.25096 1.98975 0
M  V30 1797 H 165.963 7.51663 0.808656 0
M  V30 1798 H 167.231 7.53467 1.99769 0
M  V30 1799 N 171.46 0.379036 1.52974 0
M  V30 1800 C 172.871 -0.0972525 1.86447 0
M  V30 1801 C 173.222 -1.47027 1.29914 0
M  V30 1802 O 172.347 -2.07135 0.626433 0
M  V30 1803 C 172.942 -0.183248 3.38304 0
M  V30 1804 C 171.501 -0.603812 3.71525 0
M  V30 1805 C 170.648 0.240632 2.76254 0
M  V30 1806 H 173.599 0.597316 1.4703 0
M  V30 1807 H 173.62 -1.00432 3.67006 0
M  V30 1808 H 173.132 0.816191 3.79421 0
M  V30 1809 H 171.233 -1.61099 3.35973 0
M  V30 1810 H 171.346 -0.369086 4.77676 0
M  V30 1811 H 169.71 -0.292548 2.53014 0
M  V30 1812 H 170.493 1.23786 3.20206 0
M  V30 1813 N 172.938 -1.57226 0.108567 0
M  V30 1814 C 173.87 -2.11809 -0.875752 0
M  V30 1815 C 174.883 -1.05839 -1.23701 0
M  V30 1816 O 176.072 -1.33245 -1.18778 0
M  V30 1817 C 173.172 -2.59411 -2.18081 0
M  V30 1818 C 172.345 -3.89364 -1.99284 0
M  V30 1819 C 171.404 -4.22672 -3.13424 0
M  V30 1820 O 170.43 -4.91668 -2.86795 0
M  V30 1821 N 171.632 -3.79154 -4.3957 0
M  V30 1822 H 174.397 -2.9689 -0.409477 0
M  V30 1823 H 171.958 -1.61721 -0.076158 0
M  V30 1824 H 173.95 -2.7873 -2.93414 0
M  V30 1825 H 172.52 -1.79268 -2.5609 0
M  V30 1826 H 171.74 -3.79059 -1.08203 0
M  V30 1827 H 173.028 -4.74358 -1.84017 0
M  V30 1828 H 172.426 -3.23486 -4.64083 0
M  V30 1829 H 170.983 -4.03602 -5.11809 0
M  V30 1830 N 174.416 0.165178 -1.56732 0
M  V30 1831 C 175.364 1.22369 -1.97809 0
M  V30 1832 C 176.358 1.45488 -0.867741 0
M  V30 1833 O 177.564 1.45995 -1.05288 0
M  V30 1834 H 173.939 0.411486 -0.629431 0
M  V30 1835 H 175.91 0.850425 -2.86025 0
M  V30 1836 C 174.659 2.55403 -2.35934 0
M  V30 1837 H 173.982 2.38438 -3.20916 0
M  V30 1838 H 175.422 3.2814 -2.68514 0
M  V30 1839 C 173.881 3.14611 -1.20506 0
M  V30 1840 O 174.411 3.98626 -0.496016 0
M  V30 1841 N 172.617 2.7379 -0.97403 0
M  V30 1842 H 172.164 2.0557 -1.55238 0
M  V30 1843 H 172.122 3.1374 -0.203573 0
M  V30 1844 N 175.894 1.51508 0.433938 0
M  V30 1845 C 177.122 1.68157 1.20543 0
M  V30 1846 C 177.537 0.380362 1.84929 0
M  V30 1847 O 176.894 -0.641446 1.70856 0
M  V30 1848 C 176.945 2.79965 2.28696 0
M  V30 1849 O 176.666 4.05045 1.66943 0
M  V30 1850 C 178.167 3.07912 3.18912 0
M  V30 1851 H 175.387 0.56421 0.363191 0
M  V30 1852 H 177.931 1.97941 0.513754 0
M  V30 1853 H 176.086 2.5277 2.93574 0
M  V30 1854 H 176.5 4.67165 2.38448 0
M  V30 1855 H 177.974 3.89719 3.90926 0
M  V30 1856 H 178.451 2.20456 3.79863 0
M  V30 1857 H 179.057 3.36779 2.59731 0
M  V30 1858 N 177.372 -0.689602 1.41712 0
M  V30 1859 C 178.32 -1.82475 1.44242 0
M  V30 1860 C 179.314 -1.66354 0.319774 0
M  V30 1861 O 180.52 -1.73143 0.492089 0
M  V30 1862 H 176.895 -0.601416 0.451445 0
M  V30 1863 H 178.866 -1.77458 2.39899 0
M  V30 1864 C 177.615 -3.20535 1.3473 0
M  V30 1865 H 176.938 -3.33559 2.20405 0
M  V30 1866 H 178.378 -4.00023 1.40562 0
M  V30 1867 C 176.837 -3.36846 0.0603281 0
M  V30 1868 O 177.367 -3.91656 -0.892663 0
M  V30 1869 N 175.573 -2.90595 -0.0177039 0
M  V30 1870 H 175.12 -2.46178 0.758572 0
M  V30 1871 H 175.078 -3.01886 -0.878201 0
M  V30 1872 N 178.85 -1.27639 -0.924453 0
M  V30 1873 C 179.797 -1.10644 -2.0255 0
M  V30 1874 C 180.767 -0.00658438 -1.66099 0
M  V30 1875 O 181.952 -0.16952 -1.90045 0
M  V30 1876 C 179.092 -0.76309 -3.36557 0
M  V30 1877 C 178.205 -1.94091 -3.85944 0
M  V30 1878 C 177.34 -1.53914 -5.08413 0
M  V30 1879 C 176.379 -2.68425 -5.50104 0
M  V30 1880 N 175.516 -2.28815 -6.63768 0
M  V30 1881 H 180.356 -2.04858 -2.16419 0
M  V30 1882 H 177.893 -1.01974 -1.06017 0
M  V30 1883 H 179.851 -0.544822 -4.13627 0
M  V30 1884 H 178.481 0.142102 -3.22487 0
M  V30 1885 H 177.533 -2.27162 -3.05125 0
M  V30 1886 H 178.845 -2.7998 -4.12811 0
M  V30 1887 H 177.999 -1.28231 -5.92994 0
M  V30 1888 H 176.738 -0.651391 -4.8333 0
M  V30 1889 H 175.743 -2.94819 -4.64071 0
M  V30 1890 H 176.968 -3.57826 -5.7718 0
M  V30 1891 H 174.914 -1.42495 -6.40337 0
M  V30 1892 H 174.831 -3.08242 -6.90306 0
M  V30 1893 H 176.099 -2.06387 -7.51681 0
M  V30 1894 N 180.328 1.1314 -1.09713 0
M  V30 1895 C 181.238 2.22242 -0.751367 0
M  V30 1896 C 182.254 1.72224 0.247938 0
M  V30 1897 O 183.43 2.01205 0.0885463 0
M  V30 1898 C 180.495 3.46231 -0.180274 0
M  V30 1899 C 179.556 4.11125 -1.2359 0
M  V30 1900 C 178.789 5.29195 -0.691966 0
M  V30 1901 O 179.012 5.68342 0.48414 0
M  V30 1902 O 177.946 5.84214 -1.44838 0
M  V30 1903 H 181.772 2.54197 -1.66186 0
M  V30 1904 H 179.357 1.21331 -0.871735 0
M  V30 1905 H 181.239 4.21185 0.134739 0
M  V30 1906 H 179.914 3.1597 0.703185 0
M  V30 1907 H 178.821 3.37985 -1.60366 0
M  V30 1908 H 180.154 4.45524 -2.09211 0
M  V30 1909 N 181.806 0.884767 1.30421 0
M  V30 1910 C 183.046 0.509806 1.9794 0
M  V30 1911 C 183.41 -0.923736 1.68319 0
M  V30 1912 O 184.611 -1.40481 2.29169 0
M  V30 1913 C 182.882 0.776732 3.48858 0
M  V30 1914 S 184.441 0.503843 4.35898 0
M  V30 1915 H 181.259 0.189699 0.685227 0
M  V30 1916 H 183.861 1.14399 1.58535 0
M  V30 1917 H 182.565 1.81857 3.67908 0
M  V30 1918 H 182.096 0.1301 3.93185 0
M  V30 1919 H 184.111 -0.657625 4.91823 0
M  V30 1920 N 183.284 -1.43765 0.645699 0
M  V30 1921 C 184.509 -2.06767 0.161883 0
M  V30 1922 C 184.934 -1.48034 -1.16049 0
M  V30 1923 O 184.292 -0.587369 -1.71522 0
M  V30 1924 C 184.34 -3.60519 0.0762003 0
M  V30 1925 O 183.444 -4.00982 -0.963721 0
M  V30 1926 H 182.785 -0.657675 0.091429 0
M  V30 1927 H 185.315 -1.84397 0.886499 0
M  V30 1928 H 185.325 -4.07853 -0.109604 0
M  V30 1929 H 184 -4.02646 1.04157 0
M  V30 1930 H 182.577 -3.65253 -0.751312 0
M  V30 1931 N 184.763 -0.387143 -1.52771 0
M  V30 1932 C 186.009 0.188506 -2.02525 0
M  V30 1933 C 186.364 1.44649 -1.26864 0
M  V30 1934 O 185.657 1.88189 -0.359945 0
M  V30 1935 C 185.851 0.512209 -3.53711 0
M  V30 1936 C 185.68 -0.712855 -4.44014 0
M  V30 1937 C 184.45 -1.23147 -4.90064 0
M  V30 1938 C 186.648 -1.58453 -4.89282 0
M  V30 1939 N 184.63 -2.41431 -5.64433 0
M  V30 1940 C 186.001 -2.61381 -5.6221 0
M  V30 1941 C 188.056 -1.60488 -4.71326 0
M  V30 1942 C 186.759 -3.66227 -6.19088 0
M  V30 1943 C 188.785 -2.6424 -5.29085 0
M  V30 1944 C 188.147 -3.6589 -6.01917 0
M  V30 1945 H 184.246 0.0311236 -0.78138 0
M  V30 1946 H 186.83 -0.536548 -1.87161 0
M  V30 1947 H 185.001 1.20632 -3.69192 0
M  V30 1948 H 186.733 1.07482 -3.90166 0
M  V30 1949 H 183.488 -0.792795 -4.66917 0
M  V30 1950 H 183.912 -3.01274 -6.0627 0
M  V30 1951 H 188.554 -0.83247 -4.14524 0
M  V30 1952 H 186.272 -4.44337 -6.74974 0
M  V30 1953 H 189.858 -2.66695 -5.17074 0
M  V30 1954 H 188.738 -4.44855 -6.45813 0
M  V30 1955 N 186.241 1.57166 -0.116904 0
M  V30 1956 C 187.489 1.94737 0.540533 0
M  V30 1957 C 187.81 1.00096 1.67349 0
M  V30 1958 O 187.08 0.0568854 1.95817 0
M  V30 1959 H 185.66 0.718981 0.202669 0
M  V30 1960 H 188.322 1.94017 -0.185353 0
M  V30 1961 H 187.418 2.97719 0.936483 0
M  V30 1962 N 187.719 -0.156864 1.56817 0
M  V30 1963 C 188.944 -0.890331 1.87318 0
M  V30 1964 C 189.369 -1.74394 0.704855 0
M  V30 1965 O 188.727 -1.77972 -0.345786 0
M  V30 1966 C 188.775 -1.73102 3.16336 0
M  V30 1967 O 187.879 -2.83422 2.99576 0
M  V30 1968 H 187.22 -0.24857 0.615718 0
M  V30 1969 H 189.75 -0.150649 2.04045 0
M  V30 1970 H 189.76 -2.12803 3.48107 0
M  V30 1971 H 188.435 -1.10412 4.00976 0
M  V30 1972 H 187.012 -2.47199 2.7919 0
M  V30 1973 N 189.197 -1.51736 -0.425897 0
M  V30 1974 C 190.608 -1.5732 -1.00536 0
M  V30 1975 C 190.959 -0.403537 -1.92005 0
M  V30 1976 O 190.084 0.478256 -2.11049 0
M  V30 1977 C 190.679 -2.85119 -1.8301 0
M  V30 1978 C 189.238 -2.93236 -2.35987 0
M  V30 1979 C 188.385 -2.52098 -1.15508 0
M  V30 1980 H 191.336 -1.57348 -0.206739 0
M  V30 1981 H 191.357 -2.69526 -2.68581 0
M  V30 1982 H 190.869 -3.7023 -1.16411 0
M  V30 1983 H 188.97 -2.12581 -3.06007 0
M  V30 1984 H 189.083 -3.9713 -2.68001 0
M  V30 1985 H 187.447 -2.05558 -1.50393 0
M  V30 1986 H 188.23 -3.39565 -0.505014 0
M  V30 1987 N 190.675 0.682077 -1.42076 0
M  V30 1988 C 191.924 1.43786 -1.41451 0
M  V30 1989 C 192.237 1.95574 -0.0317074 0
M  V30 1990 O 193.443 2.71326 0.0971462 0
M  V30 1991 C 191.899 2.60071 -2.48779 0
M  V30 1992 C 191.507 2.15013 -3.93031 0
M  V30 1993 C 193.251 3.37626 -2.57311 0
M  V30 1994 C 191.158 3.28336 -4.91883 0
M  V30 1995 H 190.088 0.540143 -0.526082 0
M  V30 1996 H 192.739 0.739157 -1.67955 0
M  V30 1997 H 191.121 3.32275 -2.15429 0
M  V30 1998 H 192.295 1.5001 -4.35699 0
M  V30 1999 H 190.61 1.50416 -3.88284 0
M  V30 2000 H 193.207 4.22012 -3.28345 0
M  V30 2001 H 193.55 3.83727 -1.61429 0
M  V30 2002 H 194.083 2.72488 -2.89819 0
M  V30 2003 H 190.822 2.87234 -5.89217 0
M  V30 2004 H 190.342 3.92145 -4.53853 0
M  V30 2005 H 192.021 3.93913 -5.13265 0
M  V30 2006 N 192.153 1.28127 0.917671 0
M  V30 2007 C 193.401 1.14825 1.66312 0
M  V30 2008 C 193.722 -0.304379 1.9261 0
M  V30 2009 O 192.992 -1.21149 1.53947 0
M  V30 2010 H 191.572 0.421953 0.616413 0
M  V30 2011 H 194.234 1.608 1.10134 0
M  V30 2012 H 193.33 1.68489 2.62712 0
M  V30 2013 N 193.631 -1.12557 1.10312 0
M  V30 2014 C 194.578 -2.18247 0.750781 0
M  V30 2015 C 195.548 -1.63853 -0.272293 0
M  V30 2016 O 196.733 -1.90195 -0.151862 0
M  V30 2017 C 193.873 -3.44591 0.187379 0
M  V30 2018 C 192.986 -4.13046 1.2656 0
M  V30 2019 C 192.121 -5.27034 0.663978 0
M  V30 2020 C 191.16 -5.87353 1.72287 0
M  V30 2021 N 190.297 -6.92757 1.1416 0
M  V30 2022 H 195.137 -2.47732 1.65628 0
M  V30 2023 H 192.674 -1.21629 0.827337 0
M  V30 2024 H 194.632 -4.16904 -0.157148 0
M  V30 2025 H 193.262 -3.15527 -0.681355 0
M  V30 2026 H 192.314 -3.38924 1.72727 0
M  V30 2027 H 193.626 -4.53947 2.06721 0
M  V30 2028 H 192.78 -6.06104 0.268824 0
M  V30 2029 H 191.519 -4.87407 -0.169082 0
M  V30 2030 H 190.524 -5.06971 2.12746 0
M  V30 2031 H 191.749 -6.29051 2.55875 0
M  V30 2032 H 189.695 -6.5517 0.329984 0
M  V30 2033 H 189.612 -7.3225 1.88007 0
M  V30 2034 H 190.88 -7.75658 0.772956 0
M  V30 2035 N 195.109 -0.891671 -1.2995 0
M  V30 2036 C 196.059 -0.334811 -2.25528 0
M  V30 2037 C 197.043 0.540553 -1.51548 0
M  V30 2038 O 198.235 0.383882 -1.72787 0
M  V30 2039 C 195.364 0.44374 -3.4042 0
M  V30 2040 C 194.45 -0.44609 -4.21747 0
M  V30 2041 N 194.841 -1.54963 -4.81477 0
M  V30 2042 C 193.139 -0.242415 -4.45341 0
M  V30 2043 C 193.84 -2.10015 -5.42465 0
M  V30 2044 N 192.816 -1.39423 -5.25416 0
M  V30 2045 H 196.618 -1.17792 -2.69262 0
M  V30 2046 H 194.132 -0.741822 -1.44467 0
M  V30 2047 H 196.129 0.859362 -4.07947 0
M  V30 2048 H 194.789 1.28421 -2.98225 0
M  V30 2049 H 195.8 -1.93244 -4.80497 0
M  V30 2050 H 192.477 0.560342 -4.13723 0
M  V30 2051 H 193.867 -3.02724 -5.9984 0
M  V30 2052 N 196.587 1.43421 -0.653314 0
M  V30 2053 C 197.537 2.2792 0.060558 0
M  V30 2054 C 198.521 1.39906 0.794677 0
M  V30 2055 O 199.713 1.63536 0.677128 0
M  V30 2056 C 196.842 3.27603 1.0262 0
M  V30 2057 C 195.928 4.23104 0.290551 0
M  V30 2058 N 196.319 5.01031 -0.692967 0
M  V30 2059 C 194.617 4.42816 0.531984 0
M  V30 2060 C 195.318 5.70626 -1.12963 0
M  V30 2061 N 194.294 5.41617 -0.463867 0
M  V30 2062 H 198.096 2.85585 -0.694143 0
M  V30 2063 H 195.61 1.55126 -0.480602 0
M  V30 2064 H 197.607 3.86918 1.55242 0
M  V30 2065 H 196.267 2.71499 1.78096 0
M  V30 2066 H 197.278 5.0669 -1.07169 0
M  V30 2067 H 193.955 3.97782 1.26791 0
M  V30 2068 H 195.345 6.4318 -1.94343 0
M  V30 2069 N 198.065 0.39524 1.52563 0
M  V30 2070 C 199.313 -0.184678 2.01254 0
M  V30 2071 C 199.634 -1.46822 1.28329 0
M  V30 2072 O 198.904 -1.91666 0.405094 0
M  V30 2073 H 197.484 -0.0712355 0.743596 0
M  V30 2074 H 200.146 0.528293 1.87603 0
M  V30 2075 H 199.242 -0.390681 3.09645 0
M  V30 2076 N 199.544 -1.57102 0.125237 0
M  V30 2077 C 200.507 -2.14471 -0.80838 0
M  V30 2078 C 201.507 -1.0811 -1.19033 0
M  V30 2079 O 202.697 -1.33856 -1.11482 0
M  V30 2080 C 199.829 -2.69005 -2.09402 0
M  V30 2081 H 201.022 -2.98297 -0.309696 0
M  V30 2082 H 198.575 -1.55807 -0.124051 0
M  V30 2083 H 199.31 -1.88785 -2.63687 0
M  V30 2084 H 199.095 -3.46799 -1.82957 0
M  V30 2085 H 200.585 -3.13278 -2.76128 0
M  V30 2086 N 201.022 0.148545 -1.56898 0
M  V30 2087 C 202.299 0.890019 -1.74178 0
M  V30 2088 C 202.679 1.99407 -0.692839 0
M  V30 2089 O 202.027 2.26671 0.288505 0
M  V30 2090 C 202.237 1.43389 -3.18183 0
M  V30 2091 C 203.585 1.89791 -3.79822 0
M  V30 2092 O 204.609 1.53134 -3.21603 0
M  V30 2093 O 203.468 2.57387 -4.82093 0
M  V30 2094 H 200.562 0.420496 -0.712118 0
M  V30 2095 H 203.108 0.134591 -1.69165 0
M  V30 2096 H 201.88 0.640383 -3.86024 0
M  V30 2097 H 201.503 2.25287 -3.27615 0
M  V30 2098 N 202.5 1.5196 0.417844 0
M  V30 2099 C 203.777 1.56146 1.17803 0
M  V30 2100 C 204.157 0.337275 2.08388 0
M  V30 2101 O 203.505 -0.676447 2.18258 0
M  V30 2102 C 203.715 2.88566 1.96293 0
M  V30 2103 C 205.063 3.41244 2.52662 0
M  V30 2104 O 206.087 2.90247 2.06483 0
M  V30 2105 O 204.946 4.30273 3.36938 0
M  V30 2106 H 202.04 0.628598 0.537395 0
M  V30 2107 H 204.586 1.64283 0.425331 0
M  V30 2108 H 203.358 3.69116 1.2988 0
M  V30 2109 H 202.981 2.83681 2.78587 0
M  V30 2110 N 203.978 -0.674533 1.42435 0
M  V30 2111 C 205.203 -1.46784 1.46524 0
M  V30 2112 C 205.628 -1.87938 0.078066 0
M  V30 2113 O 204.986 -1.56014 -0.92354 0
M  V30 2114 C 205.034 -2.69307 2.39805 0
M  V30 2115 O 204.138 -3.67587 1.86959 0
M  V30 2116 H 203.479 -0.440959 0.496439 0
M  V30 2117 H 206.009 -0.827326 1.87127 0
M  V30 2118 H 206.019 -3.17374 2.56393 0
M  V30 2119 H 204.694 -2.38692 3.40586 0
M  V30 2120 H 203.271 -3.2662 1.79927 0
M  V30 2121 N 205.456 -1.28612 -0.910864 0
M  V30 2122 C 206.872 -1.06381 -1.18976 0
M  V30 2123 C 207.072 0.191998 -2.00583 0
M  V30 2124 O 206.128 0.892869 -2.36187 0
M  V30 2125 C 207.441 -2.31295 -1.92154 0
M  V30 2126 C 208.989 -2.36503 -2.05025 0
M  V30 2127 C 209.464 -3.61191 -2.81612 0
M  V30 2128 N 210.955 -3.61847 -2.89172 0
M  V30 2129 C 211.69 -4.55004 -3.4894 0
M  V30 2130 N 211.186 -5.58482 -4.09963 0
M  V30 2131 N 212.979 -4.42594 -3.46506 0
M  V30 2132 H 205.13 -2.09221 -0.366094 0
M  V30 2133 H 207.393 -0.921003 -0.224629 0
M  V30 2134 H 207.099 -3.228 -1.39618 0
M  V30 2135 H 206.973 -2.37934 -2.9269 0
M  V30 2136 H 209.36 -1.45494 -2.5674 0
M  V30 2137 H 209.441 -2.33857 -1.03657 0
M  V30 2138 H 209.085 -4.52545 -2.30576 0
M  V30 2139 H 209.015 -3.61092 -3.83302 0
M  V30 2140 H 211.506 -2.87022 -2.45819 0
M  V30 2141 H 211.819 -6.25704 -4.53557 0
M  V30 2142 H 210.164 -5.62305 -4.08459 0
M  V30 2143 H 213.355 -3.60953 -2.98045 0
M  V30 2144 H 213.528 -5.15381 -3.92793 0
M  V30 2145 N 206.934 1.1197 -1.10907 0
M  V30 2146 C 208.181 1.83588 -0.854507 0
M  V30 2147 C 208.509 1.84357 0.6199 0
M  V30 2148 O 207.764 1.28809 1.47332 0
M  V30 2149 C 208.063 3.30749 -1.35425 0
M  V30 2150 C 207.729 3.50146 -2.84093 0
M  V30 2151 C 206.391 3.55148 -3.2469 0
M  V30 2152 C 208.743 3.56857 -3.79872 0
M  V30 2153 C 206.071 3.6441 -4.59806 0
M  V30 2154 C 208.423 3.6765 -5.14797 0
M  V30 2155 C 207.087 3.7091 -5.54961 0
M  V30 2156 H 206.357 0.671795 -0.312686 0
M  V30 2157 H 209.004 1.32091 -1.38652 0
M  V30 2158 H 207.309 3.84703 -0.742361 0
M  V30 2159 H 209.006 3.8464 -1.1337 0
M  V30 2160 H 205.596 3.46919 -2.51685 0
M  V30 2161 H 209.78 3.52258 -3.49611 0
M  V30 2162 H 205.036 3.65208 -4.9034 0
M  V30 2163 H 209.21 3.71786 -5.88853 0
M  V30 2164 H 206.837 3.7784 -6.59652 0
M  V30 2165 N 208.412 0.89855 1.29475 0
M  V30 2166 C 209.637 0.538561 2.00285 0
M  V30 2167 C 210.062 -0.869135 1.66816 0
M  V30 2168 O 209.42 -1.57831 0.892145 0
M  V30 2169 C 209.468 0.736475 3.52999 0
M  V30 2170 O 208.572 -0.211537 4.11857 0
M  V30 2171 H 207.913 0.210563 0.62973 0
M  V30 2172 H 210.443 1.20982 1.64998 0
M  V30 2173 H 210.453 0.640685 4.02938 0
M  V30 2174 H 209.128 1.76276 3.76696 0
M  V30 2175 H 207.705 -0.0682991 3.72837 0
M  V30 2176 N 209.89 -1.43072 0.660911 0
M  V30 2177 C 211.139 -2.00942 0.174735 0
M  V30 2178 C 211.452 -1.52797 -1.22117 0
M  V30 2179 O 212.658 -2.02991 -1.80297 0
M  V30 2180 C 211.114 -3.58948 0.261559 0
M  V30 2181 C 210.722 -4.16085 1.66064 0
M  V30 2182 C 212.466 -4.24173 -0.166617 0
M  V30 2183 C 210.373 -5.6641 1.70098 0
M  V30 2184 H 209.303 -0.751483 0.0615631 0
M  V30 2185 H 211.954 -1.63955 0.824069 0
M  V30 2186 H 210.336 -3.93372 -0.455421 0
M  V30 2187 H 211.51 -3.93147 2.40359 0
M  V30 2188 H 209.825 -3.6326 2.03546 0
M  V30 2189 H 212.422 -5.34471 -0.156433 0
M  V30 2190 H 212.765 -3.98647 -1.19943 0
M  V30 2191 H 213.298 -3.94659 0.498875 0
M  V30 2192 H 210.037 -5.96715 2.71315 0
M  V30 2193 H 209.557 -5.91382 1.00139 0
M  V30 2194 H 211.236 -6.30585 1.44816 0
M  V30 2195 N 211.368 -0.403325 -1.52352 0
M  V30 2196 C 212.298 0.416205 -2.29761 0
M  V30 2197 C 213.279 1.05123 -1.33728 0
M  V30 2198 O 214.464 1.06134 -1.62632 0
M  V30 2199 C 211.594 1.53624 -3.11475 0
M  V30 2200 C 210.548 1.02653 -4.15507 0
M  V30 2201 C 209.874 2.23971 -4.85532 0
M  V30 2202 C 211.174 0.08463 -5.22231 0
M  V30 2203 H 212.868 -0.229701 -2.98518 0
M  V30 2204 H 210.414 -0.111913 -1.43564 0
M  V30 2205 H 212.367 2.1165 -3.64393 0
M  V30 2206 H 211.091 2.20994 -2.40477 0
M  V30 2207 H 209.75 0.46871 -3.63591 0
M  V30 2208 H 209.398 2.89883 -4.11068 0
M  V30 2209 H 209.098 1.90521 -5.55856 0
M  V30 2210 H 210.622 2.82614 -5.41259 0
M  V30 2211 H 212.036 0.573509 -5.70424 0
M  V30 2212 H 210.433 -0.160783 -5.99885 0
M  V30 2213 H 211.503 -0.86237 -4.7717 0
M  V30 2214 N 212.846 1.57033 -0.133567 0
M  V30 2215 C 213.809 2.14897 0.796995 0
M  V30 2216 C 214.809 1.0874 1.18458 0
M  V30 2217 O 215.999 1.34446 1.1077 0
M  V30 2218 C 213.131 2.70112 2.07973 0
M  V30 2219 H 214.324 2.98457 0.293873 0
M  V30 2220 H 211.877 1.55871 0.115787 0
M  V30 2221 H 212.612 1.9018 2.62682 0
M  V30 2222 H 212.397 3.47764 1.81115 0
M  V30 2223 H 213.887 3.14738 2.74462 0
M  V30 2224 N 214.325 -0.140222 1.56975 0
M  V30 2225 C 215.736 -0.699596 1.73097 0
M  V30 2226 C 216.087 -1.8134 0.749022 0
M  V30 2227 O 215.212 -2.16241 -0.0828503 0
M  V30 2228 C 215.807 -1.27582 3.1386 0
M  V30 2229 C 214.366 -1.78169 3.31561 0
M  V30 2230 C 213.513 -0.672855 2.69013 0
M  V30 2231 H 216.464 0.0855115 1.58469 0
M  V30 2232 H 216.485 -2.14561 3.14235 0
M  V30 2233 H 215.997 -0.464955 3.85305 0
M  V30 2234 H 214.098 -2.61801 2.65124 0
M  V30 2235 H 214.211 -1.90574 4.39566 0
M  V30 2236 H 212.575 -1.10118 2.29665 0
M  V30 2237 H 213.358 0.126679 3.43066 0
M  V30 2238 N 215.803 -1.52179 -0.40978 0
M  V30 2239 C 217.028 -1.70347 -1.18308 0
M  V30 2240 C 217.453 -0.411887 -1.83535 0
M  V30 2241 O 216.811 0.630587 -1.6998 0
M  V30 2242 C 216.859 -2.83977 -2.22238 0
M  V30 2243 O 215.963 -2.495 -3.28365 0
M  V30 2244 H 215.304 -0.567103 -0.345384 0
M  V30 2245 H 217.834 -1.98879 -0.480445 0
M  V30 2246 H 217.844 -3.0887 -2.66577 0
M  V30 2247 H 216.519 -3.77685 -1.74146 0
M  V30 2248 H 215.096 -2.35277 -2.89308 0
M  V30 2249 N 217.281 0.66697 -1.42791 0
M  V30 2250 C 218.528 1.42699 -1.43678 0
M  V30 2251 C 218.856 1.94419 -0.0560425 0
M  V30 2252 O 218.111 1.7182 0.936831 0
M  V30 2253 C 218.41 2.6349 -2.4147 0
M  V30 2254 C 218.076 2.30267 -3.8767 0
M  V30 2255 C 216.738 2.20918 -4.27491 0
M  V30 2256 C 219.09 2.03435 -4.79858 0
M  V30 2257 C 216.418 1.82873 -5.57471 0
M  V30 2258 C 218.77 1.66892 -6.10188 0
M  V30 2259 C 217.434 1.56058 -6.49001 0
M  V30 2260 H 216.704 0.522171 -0.525755 0
M  V30 2261 H 219.351 0.759785 -1.75783 0
M  V30 2262 H 217.656 3.35279 -2.0272 0
M  V30 2263 H 219.353 3.21684 -2.39417 0
M  V30 2264 H 215.943 2.38449 -3.56146 0
M  V30 2265 H 220.127 2.09586 -4.49875 0
M  V30 2266 H 215.383 1.7306 -5.86396 0
M  V30 2267 H 219.557 1.45157 -6.81104 0
M  V30 2268 H 217.184 1.26348 -7.49627 0
M  V30 2269 N 218.759 1.29093 0.90403 0
M  V30 2270 C 219.987 1.19689 1.68766 0
M  V30 2271 C 220.402 -0.243113 1.87228 0
M  V30 2272 O 219.759 -1.16326 1.40621 0
M  V30 2273 C 219.81 1.90144 3.07453 0
M  V30 2274 O 219.531 3.2852 2.89838 0
M  V30 2275 C 221.032 1.87162 4.01852 0
M  V30 2276 H 218.252 0.415035 0.527244 0
M  V30 2277 H 220.796 1.7039 1.13082 0
M  V30 2278 H 218.951 1.43289 3.59926 0
M  V30 2279 H 219.365 3.63944 3.77684 0
M  V30 2280 H 220.839 2.41032 4.96596 0
M  V30 2281 H 221.316 0.84617 4.30972 0
M  V30 2282 H 221.922 2.33741 3.5531 0
M  V30 2283 N 220.237 -1.11381 1.11499 0
M  V30 2284 C 221.462 -1.87475 0.887019 0
M  V30 2285 C 221.887 -1.79639 -0.557796 0
M  V30 2286 O 221.245 -1.15924 -1.39396 0
M  V30 2287 C 221.293 -3.34213 1.35403 0
M  V30 2288 O 220.397 -4.0903 0.526146 0
M  V30 2289 H 219.738 -0.582099 0.319463 0
M  V30 2290 H 222.268 -1.40785 1.48461 0
M  V30 2291 H 222.278 -3.8506 1.34881 0
M  V30 2292 H 220.953 -3.39232 2.40612 0
M  V30 2293 H 219.53 -3.68082 0.597522 0
M  V30 2294 N 221.715 -0.905404 -1.28997 0
M  V30 2295 C 222.645 -0.404212 -2.29975 0
M  V30 2296 C 223.626 0.523784 -1.61835 0
M  V30 2297 O 224.811 0.433298 -1.89304 0
M  V30 2298 C 221.941 0.364042 -3.45387 0
M  V30 2299 C 220.895 -0.474048 -4.25367 0
M  V30 2300 C 220.221 0.422045 -5.33032 0
M  V30 2301 C 221.521 -1.72696 -4.92923 0
M  V30 2302 H 223.215 -1.24807 -2.72146 0
M  V30 2303 H 220.761 -0.601585 -1.30832 0
M  V30 2304 H 222.714 0.725447 -4.15109 0
M  V30 2305 H 221.438 1.24174 -3.02074 0
M  V30 2306 H 220.097 -0.81786 -3.57361 0
M  V30 2307 H 219.745 1.29804 -4.85963 0
M  V30 2308 H 219.445 -0.135057 -5.87445 0
M  V30 2309 H 220.969 0.779517 -6.05604 0
M  V30 2310 H 222.383 -1.43495 -5.55051 0
M  V30 2311 H 220.78 -2.22582 -5.57295 0
M  V30 2312 H 221.85 -2.45964 -4.17887 0
M  V30 2313 N 223.193 1.4272 -0.668489 0
M  V30 2314 C 224.47 1.95248 -0.117373 0
M  V30 2315 C 224.85 1.60919 1.36632 0
M  V30 2316 O 224.198 0.902095 2.09939 0
M  V30 2317 C 224.408 3.46927 -0.379806 0
M  V30 2318 C 225.756 4.23588 -0.292923 0
M  V30 2319 O 226.78 3.5482 -0.313204 0
M  V30 2320 O 225.639 5.46017 -0.229697 0
M  V30 2321 H 222.733 0.827 0.00079152 0
M  V30 2322 H 225.279 1.52581 -0.742783 0
M  V30 2323 H 224.051 3.65096 -1.40786 0
M  V30 2324 H 223.674 3.96627 0.277923 0
M  V30 2325 N 224.671 0.411399 1.52136 0
M  V30 2326 C 225.618 -0.412975 2.27075 0
M  V30 2327 C 226.588 -1.03912 1.29582 0
M  V30 2328 O 227.773 -1.06296 1.58448 0
M  V30 2329 C 224.913 -1.52247 3.09701 0
M  V30 2330 C 224.026 -0.917021 4.22155 0
M  V30 2331 C 223.161 -1.9994 4.92135 0
M  V30 2332 C 222.2 -1.37101 5.96548 0
M  V30 2333 N 221.337 -2.39364 6.60038 0
M  V30 2334 H 226.177 0.232499 2.97092 0
M  V30 2335 H 223.714 0.126496 1.46555 0
M  V30 2336 H 225.672 -2.17674 3.55913 0
M  V30 2337 H 224.302 -2.13794 2.41851 0
M  V30 2338 H 223.354 -0.151742 3.80097 0
M  V30 2339 H 224.666 -0.418006 4.97045 0
M  V30 2340 H 223.82 -2.73088 5.41763 0
M  V30 2341 H 222.559 -2.53208 4.16818 0
M  V30 2342 H 221.564 -0.624873 5.46237 0
M  V30 2343 H 222.789 -0.845998 6.7381 0
M  V30 2344 H 220.735 -2.91759 5.87548 0
M  V30 2345 H 220.652 -1.9428 7.3061 0
M  V30 2346 H 221.92 -3.12074 7.14304 0
M  V30 2347 N 226.149 -1.5696 0.141893 0
M  V30 2348 C 227.398 -1.95135 -0.510427 0
M  V30 2349 C 227.711 -1.02896 -1.66348 0
M  V30 2350 O 228.917 -1.30629 -2.38009 0
M  V30 2351 C 227.373 -3.46876 -0.959427 0
M  V30 2352 C 226.981 -4.47691 0.166419 0
M  V30 2353 C 228.725 -3.93927 -1.58183 0
M  V30 2354 C 226.632 -5.90636 -0.300565 0
M  V30 2355 H 225.562 -0.728494 -0.194454 0
M  V30 2356 H 228.213 -1.8211 0.22542 0
M  V30 2357 H 226.595 -3.55215 -1.75038 0
M  V30 2358 H 227.769 -4.51043 0.94325 0
M  V30 2359 H 226.084 -4.10527 0.696905 0
M  V30 2360 H 228.681 -4.98158 -1.94275 0
M  V30 2361 H 229.024 -3.3519 -2.46888 0
M  V30 2362 H 229.557 -3.88484 -0.855863 0
M  V30 2363 H 226.296 -6.5318 0.550989 0
M  V30 2364 H 225.816 -5.90655 -1.04338 0
M  V30 2365 H 227.495 -6.42588 -0.754265 0
M  V30 2366 N 227.627 0.131896 -1.57047 0
M  V30 2367 C 228.575 1.18146 -2.0036 0
M  V30 2368 C 229.569 1.43614 -0.898406 0
M  V30 2369 O 230.775 1.43729 -1.08361 0
M  V30 2370 H 227.15 0.398042 -0.638018 0
M  V30 2371 H 229.121 0.789564 -2.87765 0
M  V30 2372 C 227.87 2.50341 -2.41298 0
M  V30 2373 H 227.193 2.31578 -3.25902 0
M  V30 2374 H 228.633 3.22371 -2.75414 0
M  V30 2375 C 227.092 3.11984 -1.27153 0
M  V30 2376 O 227.622 3.97484 -0.580459 0
M  V30 2377 N 225.828 2.71662 -1.03189 0
M  V30 2378 H 225.375 2.02231 -1.59564 0
M  V30 2379 H 225.333 3.13238 -0.270077 0
M  V30 2380 N 229.106 1.52395 0.401703 0
M  V30 2381 C 230.036 1.79231 1.49661 0
M  V30 2382 C 231.017 0.643654 1.57452 0
M  V30 2383 O 232.202 0.889989 1.72606 0
M  V30 2384 C 229.332 1.94971 2.87409 0
M  V30 2385 C 228.286 3.10604 2.94465 0
M  V30 2386 C 227.612 3.11577 4.34538 0
M  V30 2387 C 228.912 4.49921 2.6527 0
M  V30 2388 H 230.606 2.70917 1.27454 0
M  V30 2389 H 228.152 1.30362 0.6117 0
M  V30 2390 H 230.105 2.12328 3.63999 0
M  V30 2391 H 228.829 0.999632 3.10926 0
M  V30 2392 H 227.488 2.93009 2.20321 0
M  V30 2393 H 227.136 2.14277 4.55076 0
M  V30 2394 H 226.836 3.89247 4.40183 0
M  V30 2395 H 228.36 3.31073 5.13053 0
M  V30 2396 H 229.774 4.67683 3.31581 0
M  V30 2397 H 228.171 5.29564 2.82281 0
M  V30 2398 H 229.241 4.57507 1.60671 0
M  V30 2399 N 230.584 -0.659388 1.43143 0
M  V30 2400 C 231.494 -1.80167 1.50256 0
M  V30 2401 C 232.51 -1.69571 0.390106 0
M  V30 2402 O 233.686 -1.90849 0.643319 0
M  V30 2403 C 230.751 -3.16409 1.41725 0
M  V30 2404 C 229.812 -3.38848 2.63591 0
M  V30 2405 C 229.045 -4.68591 2.55458 0
M  V30 2406 O 229.268 -5.47532 1.59891 0
M  V30 2407 O 228.202 -4.92614 3.45854 0
M  V30 2408 H 232.028 -1.77121 2.46702 0
M  V30 2409 H 229.613 -0.817092 1.25076 0
M  V30 2410 H 231.495 -3.9768 1.39387 0
M  V30 2411 H 230.17 -3.20059 0.484118 0
M  V30 2412 H 229.077 -2.57366 2.71502 0
M  V30 2413 H 230.41 -3.4004 3.55856 0
M  V30 2414 N 232.062 -1.29571 -0.897171 0
M  V30 2415 C 233.009 -1.14916 -2.00158 0
M  V30 2416 C 233.979 -0.0418149 -1.66047 0
M  V30 2417 O 235.164 -0.209793 -1.89643 0
M  V30 2418 C 232.304 -0.834307 -3.34863 0
M  V30 2419 C 231.417 -2.02234 -3.8174 0
M  V30 2420 C 230.552 -1.64664 -5.05034 0
M  V30 2421 C 229.591 -2.80033 -5.44286 0
M  V30 2422 N 228.728 -2.42843 -6.58765 0
M  V30 2423 H 233.568 -2.09403 -2.12025 0
M  V30 2424 H 231.105 -1.042 -1.0383 0
M  V30 2425 H 233.063 -0.632436 -4.12379 0
M  V30 2426 H 231.693 0.0736656 -3.22716 0
M  V30 2427 H 230.745 -2.33583 -3.00238 0
M  V30 2428 H 232.057 -2.88673 -4.06779 0
M  V30 2429 H 231.211 -1.4078 -5.9014 0
M  V30 2430 H 229.95 -0.753766 -4.8184 0
M  V30 2431 H 228.955 -3.04596 -4.57713 0
M  V30 2432 H 230.18 -3.69989 -5.6946 0
M  V30 2433 H 228.126 -1.56046 -6.3717 0
M  V30 2434 H 228.043 -3.22815 -6.83613 0
M  V30 2435 H 229.311 -2.22285 -7.47134 0
M  V30 2436 N 233.54 1.10788 -1.12088 0
M  V30 2437 C 234.45 2.20599 -0.798338 0
M  V30 2438 C 235.466 1.72712 0.21135 0
M  V30 2439 O 236.642 2.01348 0.0458477 0
M  V30 2440 C 233.707 3.45771 -0.253674 0
M  V30 2441 C 232.768 4.08411 -1.32283 0
M  V30 2442 C 232.001 5.27608 -0.80406 0
M  V30 2443 O 232.224 5.69241 0.363478 0
M  V30 2444 O 231.158 5.8101 -1.57198 0
M  V30 2445 H 234.984 2.50614 -1.7154 0
M  V30 2446 H 232.569 1.19454 -0.897275 0
M  V30 2447 H 234.451 4.21376 0.0453691 0
M  V30 2448 H 233.126 3.1739 0.636005 0
M  V30 2449 H 232.033 3.34507 -1.67499 0
M  V30 2450 H 233.366 4.40986 -2.18614 0
M  V30 2451 N 235.018 0.912232 1.28515 0
M  V30 2452 C 235.948 0.416403 2.29757 0
M  V30 2453 C 236.929 -0.515194 1.6211 0
M  V30 2454 O 238.114 -0.423253 1.89532 0
M  V30 2455 C 235.244 -0.34572 3.45575 0
M  V30 2456 C 234.198 0.496599 4.25109 0
M  V30 2457 C 233.524 -0.393771 5.33248 0
M  V30 2458 C 234.824 1.75307 4.92001 0
M  V30 2459 H 236.518 1.26249 2.7148 0
M  V30 2460 H 234.064 0.608515 1.30511 0
M  V30 2461 H 236.017 -0.703422 4.15488 0
M  V30 2462 H 234.741 -1.2257 3.02728 0
M  V30 2463 H 233.4 0.8368 3.56922 0
M  V30 2464 H 233.048 -1.27225 4.86644 0
M  V30 2465 H 232.748 0.166209 5.87365 0
M  V30 2466 H 234.272 -0.747389 6.06009 0
M  V30 2467 H 235.686 1.46437 5.54283 0
M  V30 2468 H 234.083 2.25534 5.56106 0
M  V30 2469 H 235.153 2.48176 4.16577 0
M  V30 2470 N 236.496 -1.42363 0.676048 0
M  V30 2471 C 237.406 -2.346 -0.00153389 0
M  V30 2472 C 238.422 -1.5516 -0.787485 0
M  V30 2473 O 239.598 -1.87723 -0.729521 0
M  V30 2474 C 236.663 -3.33705 -0.940298 0
M  V30 2475 C 235.724 -4.29042 -0.148739 0
M  V30 2476 C 234.957 -5.23413 -1.04279 0
M  V30 2477 O 235.18 -5.22749 -2.28232 0
M  V30 2478 O 234.114 -5.99795 -0.502925 0
M  V30 2479 H 237.94 -2.94082 0.758268 0
M  V30 2480 H 235.525 -1.42888 0.436289 0
M  V30 2481 H 237.407 -3.94586 -1.47917 0
M  V30 2482 H 236.082 -2.76695 -1.67993 0
M  V30 2483 H 234.989 -3.71571 0.43427 0
M  V30 2484 H 236.322 -4.89097 0.551805 0
M  V30 2485 N 237.974 -0.419461 -1.51915 0
M  V30 2486 C 238.922 0.415502 -2.28859 0
M  V30 2487 C 239.916 1.03674 -1.3397 0
M  V30 2488 O 241.122 0.973757 -1.51387 0
M  V30 2489 H 237.497 0.152786 -0.736315 0
M  V30 2490 H 239.468 -0.254531 -2.97312 0
M  V30 2491 C 238.217 1.51425 -3.12995 0
M  V30 2492 H 237.54 1.04556 -3.85886 0
M  V30 2493 H 238.98 2.07208 -3.6992 0
M  V30 2494 C 237.439 2.48745 -2.27217 0
M  V30 2495 O 237.969 3.52871 -1.9195 0
M  V30 2496 N 236.175 2.19202 -1.90785 0
M  V30 2497 H 235.722 1.34556 -2.19664 0
M  V30 2498 H 235.68 2.84561 -1.33687 0
M  V30 2499 N 239.452 1.56882 -0.150215 0
M  V30 2500 C 240.362 2.20494 0.801222 0
M  V30 2501 C 241.378 1.19019 1.26927 0
M  V30 2502 O 242.554 1.51607 1.32579 0
M  V30 2503 C 239.619 2.81659 2.02161 0
M  V30 2504 C 238.68 3.9827 1.60249 0
M  V30 2505 C 237.913 4.56508 2.7647 0
M  V30 2506 O 238.136 4.13627 3.92771 0
M  V30 2507 O 237.07 5.46719 2.51757 0
M  V30 2508 H 240.896 3.02315 0.289717 0
M  V30 2509 H 238.481 1.49202 0.0769684 0
M  V30 2510 H 240.363 3.20522 2.73576 0
M  V30 2511 H 239.038 2.02849 2.52258 0
M  V30 2512 H 237.945 3.64117 0.858477 0
M  V30 2513 H 239.278 4.78609 1.14864 0
M  V30 2514 N 240.93 -0.123565 1.57115 0
M  V30 2515 C 241.878 -1.17082 2.00984 0
M  V30 2516 C 242.872 -1.43136 0.906009 0
M  V30 2517 O 244.078 -1.43152 1.09121 0
M  V30 2518 H 240.453 -0.394653 0.64012 0
M  V30 2519 H 242.424 -0.774292 2.88179 0
M  V30 2520 C 241.173 -2.49057 2.42623 0
M  V30 2521 H 240.496 -2.29846 3.27125 0
M  V30 2522 H 241.936 -3.20906 2.7712 0
M  V30 2523 C 240.395 -3.11305 1.28805 0
M  V30 2524 O 240.925 -3.97171 0.60153 0
M  V30 2525 N 239.131 -2.71111 1.04628 0
M  V30 2526 H 238.678 -2.01382 1.60634 0
M  V30 2527 H 238.636 -3.1309 0.286685 0
M  V30 2528 N 242.408 -1.52605 -0.393616 0
M  V30 2529 C 243.358 -1.73436 -1.48 0
M  V30 2530 C 244.342 -0.588386 -1.49756 0
M  V30 2531 O 245.534 -0.846047 -1.5547 0
M  V30 2532 C 242.663 -1.90247 -2.85764 0
M  V30 2533 C 241.749 -3.10763 -2.88595 0
M  V30 2534 N 242.14 -4.33196 -2.61103 0
M  V30 2535 C 240.438 -3.10914 -3.19763 0
M  V30 2536 C 241.139 -5.1477 -2.70899 0
M  V30 2537 N 240.115 -4.50356 -3.04435 0
M  V30 2538 H 243.917 -2.65727 -1.25563 0
M  V30 2539 H 241.431 -1.5085 -0.601513 0
M  V30 2540 H 243.428 -2.03291 -3.63976 0
M  V30 2541 H 242.088 -0.991663 -3.09186 0
M  V30 2542 H 243.099 -4.61408 -2.35209 0
M  V30 2543 H 239.776 -2.29626 -3.4868 0
M  V30 2544 H 241.166 -6.22355 -2.53227 0
M  V30 2545 N 243.887 0.651787 -1.4349 0
M  V30 2546 C 244.835 1.78586 -1.49029 0
M  V30 2547 C 245.829 1.65448 -0.363767 0
M  V30 2548 O 247.035 1.71777 -0.537821 0
M  V30 2549 H 243.41 0.589236 -0.467231 0
M  V30 2550 H 245.381 1.71035 -2.44519 0
M  V30 2551 C 244.13 3.16851 -1.43181 0
M  V30 2552 H 243.453 3.27598 -2.29171 0
M  V30 2553 H 244.893 3.96156 -1.51118 0
M  V30 2554 C 243.352 3.36568 -0.149616 0
M  V30 2555 O 243.882 3.93885 0.788509 0
M  V30 2556 N 242.088 2.90539 -0.0593484 0
M  V30 2557 H 241.635 2.4408 -0.823575 0
M  V30 2558 H 241.593 3.04108 0.797853 0
M  V30 2559 N 245.365 1.30045 0.890287 0
M  V30 2560 C 246.595 1.21296 1.67245 0
M  V30 2561 C 247.003 -0.227471 1.87828 0
M  V30 2562 O 246.346 -1.16296 1.422 0
M  V30 2563 C 246.408 1.86519 3.07329 0
M  V30 2564 C 246.072 3.35837 3.09939 0
M  V30 2565 C 247.069 4.31915 2.89389 0
M  V30 2566 C 244.754 3.77196 3.31706 0
M  V30 2567 C 246.748 5.67325 2.90552 0
M  V30 2568 C 244.435 5.12725 3.32499 0
M  V30 2569 C 245.433 6.076 3.11947 0
M  V30 2570 O 245.121 7.40655 3.12547 0
M  V30 2571 H 244.853 0.4211 0.528821 0
M  V30 2572 H 247.407 1.72111 1.12103 0
M  V30 2573 H 245.637 1.30228 3.64112 0
M  V30 2574 H 247.326 1.71963 3.67673 0
M  V30 2575 H 248.092 4.01294 2.72375 0
M  V30 2576 H 243.971 3.03796 3.4674 0
M  V30 2577 H 247.515 6.41354 2.74429 0
M  V30 2578 H 243.412 5.42988 3.49047 0
M  V30 2579 H 244.18 7.49577 3.28749 0
M  V30 2580 N 246.843 -1.10192 1.12674 0
M  V30 2581 C 247.793 -2.14754 0.765801 0
M  V30 2582 C 248.777 -1.59154 -0.236409 0
M  V30 2583 O 249.969 -1.76951 -0.0415261 0
M  V30 2584 C 247.098 -3.42563 0.224827 0
M  V30 2585 C 246.184 -4.05091 1.25548 0
M  V30 2586 N 246.575 -4.42287 2.4539 0
M  V30 2587 C 244.873 -4.32186 1.10142 0
M  V30 2588 C 245.574 -4.91441 3.11224 0
M  V30 2589 N 244.55 -4.88405 2.38666 0
M  V30 2590 H 248.352 -2.41309 1.67772 0
M  V30 2591 H 245.866 -1.27339 1.00789 0
M  V30 2592 H 247.863 -4.16868 -0.0519578 0
M  V30 2593 H 246.523 -3.17467 -0.681515 0
M  V30 2594 H 247.534 -4.33902 2.82754 0
M  V30 2595 H 244.211 -4.16735 0.252587 0
M  V30 2596 H 245.601 -5.29749 4.13298 0
M  V30 2597 N 248.321 -0.919034 -1.28029 0
M  V30 2598 C 249.57 -0.550802 -1.94034 0
M  V30 2599 C 249.883 0.910877 -1.73096 0
M  V30 2600 O 251.089 1.3875 -2.33368 0
M  V30 2601 C 249.545 -0.934249 -3.47563 0
M  V30 2602 C 249.153 -2.41602 -3.7727 0
M  V30 2603 C 250.897 -0.636854 -4.19696 0
M  V30 2604 C 248.804 -2.73932 -5.24133 0
M  V30 2605 H 247.734 -0.202273 -0.726362 0
M  V30 2606 H 250.385 -1.11867 -1.45458 0
M  V30 2607 H 248.767 -0.295115 -3.94899 0
M  V30 2608 H 249.941 -3.10233 -3.40723 0
M  V30 2609 H 248.256 -2.68441 -3.18321 0
M  V30 2610 H 250.853 -0.855005 -5.2782 0
M  V30 2611 H 251.196 0.425575 -4.14119 0
M  V30 2612 H 251.729 -1.23469 -3.78154 0
M  V30 2613 H 248.468 -3.79049 -5.34792 0
M  V30 2614 H 247.988 -2.09942 -5.61858 0
M  V30 2615 H 249.667 -2.61215 -5.91925 0
M  V30 2616 N 249.799 1.42003 -0.683588 0
M  V30 2617 C 251.047 2.01015 -0.209101 0
M  V30 2618 C 251.368 1.54365 1.19149 0
M  V30 2619 O 250.638 0.769083 1.80172 0
M  V30 2620 H 249.218 0.743294 -0.074315 0
M  V30 2621 H 251.88 1.73798 -0.882066 0
M  V30 2622 H 250.976 3.11343 -0.2172 0
M  V30 2623 N 251.277 0.427512 1.51691 0
M  V30 2624 C 252.524 -0.142229 2.02 0
M  V30 2625 C 252.852 -1.43566 1.31221 0
M  V30 2626 O 252.107 -1.91298 0.412744 0
M  V30 2627 C 252.406 -0.418249 3.54944 0
M  V30 2628 C 252.072 0.788187 4.43958 0
M  V30 2629 C 250.734 1.11906 4.68007 0
M  V30 2630 C 253.086 1.59347 4.96244 0
M  V30 2631 C 250.414 2.25608 5.41588 0
M  V30 2632 C 252.766 2.7214 5.71072 0
M  V30 2633 C 251.43 3.05692 5.93387 0
M  V30 2634 H 250.7 -0.0520451 0.73917 0
M  V30 2635 H 253.347 0.572697 1.82736 0
M  V30 2636 H 251.652 -1.21496 3.72486 0
M  V30 2637 H 253.349 -0.872339 3.91397 0
M  V30 2638 H 249.939 0.520344 4.2543 0
M  V30 2639 H 254.123 1.35106 4.77556 0
M  V30 2640 H 249.379 2.51929 5.57083 0
M  V30 2641 H 253.553 3.34914 6.10578 0
M  V30 2642 H 251.18 3.9391 6.50184 0
M  V30 2643 N 252.755 -1.56801 0.158532 0
M  V30 2644 C 253.665 -2.20916 -0.789518 0
M  V30 2645 C 254.681 -1.1969 -1.26294 0
M  V30 2646 O 255.857 -1.52308 -1.31773 0
M  V30 2647 C 252.922 -2.82727 -2.00665 0
M  V30 2648 C 251.983 -3.99114 -1.58134 0
M  V30 2649 C 251.216 -4.57968 -2.74045 0
M  V30 2650 O 251.439 -4.15704 -3.90572 0
M  V30 2651 O 250.373 -5.48047 -2.48855 0
M  V30 2652 H 254.199 -3.02464 -0.273681 0
M  V30 2653 H 251.784 -1.4924 -0.0690548 0
M  V30 2654 H 253.666 -3.21968 -2.71872 0
M  V30 2655 H 252.341 -2.04184 -2.51179 0
M  V30 2656 H 251.248 -3.64567 -0.839155 0
M  V30 2657 H 252.581 -4.79212 -1.12325 0
M  V30 2658 N 254.233 0.115231 -1.57178 0
M  V30 2659 C 255.458 0.840354 -1.89612 0
M  V30 2660 C 255.883 1.72464 -0.750845 0
M  V30 2661 O 255.241 1.78826 0.298478 0
M  V30 2662 C 255.289 1.64654 -3.20814 0
M  V30 2663 O 254.393 2.7538 -3.06985 0
M  V30 2664 H 253.734 0.232158 -0.622092 0
M  V30 2665 H 256.264 0.0964977 -2.04372 0
M  V30 2666 H 256.274 2.03499 -3.53627 0
M  V30 2667 H 254.949 0.997416 -4.03763 0
M  V30 2668 H 253.526 2.3971 -2.85646 0
M  V30 2669 N 255.711 1.52812 0.385517 0
M  V30 2670 C 256.936 1.72207 1.15583 0
M  V30 2671 C 257.361 0.441034 1.82857 0
M  V30 2672 O 256.719 -0.603465 1.70962 0
M  V30 2673 C 256.767 2.87476 2.17692 0
M  V30 2674 O 255.871 2.54693 3.24354 0
M  V30 2675 H 255.212 0.572526 0.336319 0
M  V30 2676 H 257.742 1.99618 0.448744 0
M  V30 2677 H 257.752 3.13072 2.6163 0
M  V30 2678 H 256.427 3.80408 1.68115 0
M  V30 2679 H 255.004 2.3985 2.85529 0
M  V30 2680 N 257.189 -0.644168 1.43834 0
M  V30 2681 C 258.438 -1.39985 1.45214 0
M  V30 2682 C 258.751 -1.95421 0.0835494 0
M  V30 2683 O 259.957 -2.71488 -0.0251748 0
M  V30 2684 C 258.413 -2.53384 2.55587 0
M  V30 2685 C 258.021 -2.04517 3.98594 0
M  V30 2686 C 259.765 -3.30685 2.66172 0
M  V30 2687 C 257.672 -3.1518 5.00416 0
M  V30 2688 H 256.602 -0.526005 0.540218 0
M  V30 2689 H 259.253 -0.694367 1.69855 0
M  V30 2690 H 257.635 -3.26446 2.24163 0
M  V30 2691 H 258.809 -1.38405 4.39523 0
M  V30 2692 H 257.124 -1.40068 3.92135 0
M  V30 2693 H 259.721 -4.13158 3.39418 0
M  V30 2694 H 260.064 -3.79312 1.71546 0
M  V30 2695 H 260.597 -2.64708 2.96942 0
M  V30 2696 H 257.336 -2.71511 5.96625 0
M  V30 2697 H 256.856 -3.79974 4.64091 0
M  V30 2698 H 258.535 -3.80166 5.23529 0
M  V30 2699 N 258.668 -1.30515 -0.883378 0
M  V30 2700 C 260.079 -1.17509 -1.45081 0
M  V30 2701 C 260.43 0.223605 -1.94922 0
M  V30 2702 O 259.555 1.12041 -1.85137 0
M  V30 2703 C 260.15 -2.12715 -2.63701 0
M  V30 2704 C 258.709 -2.03682 -3.16529 0
M  V30 2705 C 257.856 -2.02706 -1.89224 0
M  V30 2706 H 260.807 -1.42762 -0.693165 0
M  V30 2707 H 260.828 -1.70891 -3.39965 0
M  V30 2708 H 260.34 -3.14505 -2.27395 0
M  V30 2709 H 258.441 -1.05039 -3.57488 0
M  V30 2710 H 258.554 -2.92146 -3.7972 0
M  V30 2711 H 256.918 -1.4753 -2.07622 0
M  V30 2712 H 257.701 -3.06229 -1.55174 0
M  V30 2713 N 260.146 1.09593 -1.13257 0
M  V30 2714 C 261.557 1.63229 -0.906274 0
M  V30 2715 C 261.908 1.8811 0.557578 0
M  V30 2716 O 261.033 1.62953 1.42391 0
M  V30 2717 C 261.628 2.96535 -1.63867 0
M  V30 2718 C 260.187 3.47003 -1.45828 0
M  V30 2719 C 259.334 2.2145 -1.66898 0
M  V30 2720 H 262.285 0.92978 -1.28611 0
M  V30 2721 H 262.306 3.64411 -1.09476 0
M  V30 2722 H 261.818 2.78394 -2.70404 0
M  V30 2723 H 259.919 3.70272 -0.415848 0
M  V30 2724 H 260.032 4.24551 -2.2202 0
M  V30 2725 H 258.396 2.30022 -1.09371 0
M  V30 2726 H 259.179 2.0583 -2.74752 0
M  V30 2727 N 261.624 0.925811 1.2754 0
M  V30 2728 C 262.852 0.581509 1.9856 0
M  V30 2729 C 263.267 -0.840041 1.69082 0
M  V30 2730 O 262.624 -1.55805 0.950312 0
M  V30 2731 C 262.675 0.795589 3.52637 0
M  V30 2732 O 262.396 2.16121 3.81082 0
M  V30 2733 C 263.897 0.459744 4.4091 0
M  V30 2734 H 261.117 0.220538 0.633722 0
M  V30 2735 H 263.661 1.24232 1.6244 0
M  V30 2736 H 261.816 0.18161 3.86974 0
M  V30 2737 H 262.23 2.2098 4.75676 0
M  V30 2738 H 263.704 0.660244 5.48037 0
M  V30 2739 H 264.181 -0.604625 4.35018 0
M  V30 2740 H 264.787 1.05178 4.12089 0
M  V30 2741 N 263.102 -1.41638 0.69111 0
M  V30 2742 C 264.05 -2.32597 0.0115199 0
M  V30 2743 C 265.044 -1.5072 -0.773296 0
M  V30 2744 O 266.25 -1.66685 -0.67942 0
M  V30 2745 H 262.625 -0.751849 -0.0150746 0
M  V30 2746 H 264.596 -2.87593 0.795791 0
M  V30 2747 C 263.345 -3.35467 -0.914172 0
M  V30 2748 H 262.668 -3.9852 -0.319687 0
M  V30 2749 H 264.108 -4.01662 -1.35808 0
M  V30 2750 C 262.567 -2.69004 -2.02826 0
M  V30 2751 O 263.097 -2.53444 -3.11655 0
M  V30 2752 N 261.303 -2.2777 -1.80469 0
M  V30 2753 H 260.85 -2.40626 -0.919615 0
M  V30 2754 H 260.808 -1.83635 -2.55197 0
M  V30 2755 N 264.58 -0.43555 -1.51462 0
M  V30 2756 C 265.805 0.132627 -2.06976 0
M  V30 2757 C 266.23 1.35848 -1.30104 0
M  V30 2758 O 265.588 1.78112 -0.338493 0
M  V30 2759 C 265.636 0.43523 -3.57964 0
M  V30 2760 O 264.74 1.52198 -3.83288 0
M  V30 2761 H 264.081 0.00265 -0.663995 0
M  V30 2762 H 266.611 -0.616369 -1.95095 0
M  V30 2763 H 266.621 0.686206 -4.02188 0
M  V30 2764 H 265.296 -0.460739 -4.1334 0
M  V30 2765 H 263.873 1.2611 -3.50928 0
M  V30 2766 N 266.058 1.56714 -0.166846 0
M  V30 2767 C 267.283 2.01557 0.488833 0
M  V30 2768 C 267.708 1.0463 1.56314 0
M  V30 2769 O 267.066 0.0251304 1.81283 0
M  V30 2770 C 267.114 3.4503 1.04818 0
M  V30 2771 O 266.218 3.51163 2.16236 0
M  V30 2772 H 265.559 0.653516 0.117526 0
M  V30 2773 H 268.089 2.02818 -0.269421 0
M  V30 2774 H 268.099 3.84243 1.37191 0
M  V30 2775 H 266.774 4.15077 0.261572 0
M  V30 2776 H 265.351 3.23807 1.84942 0
M  V30 2777 N 267.536 -0.106894 1.57237 0
M  V30 2778 C 268.783 -0.812526 1.85484 0
M  V30 2779 C 269.111 -1.79304 0.753687 0
M  V30 2780 O 268.366 -1.94047 -0.253853 0
M  V30 2781 C 268.665 -1.58628 3.20268 0
M  V30 2782 C 268.331 -0.748967 4.44636 0
M  V30 2783 C 266.993 -0.518104 4.78403 0
M  V30 2784 C 269.345 -0.166122 5.20935 0
M  V30 2785 C 266.673 0.305659 5.85903 0
M  V30 2786 C 269.025 0.644899 6.29304 0
M  V30 2787 C 267.689 0.885965 6.61594 0
M  V30 2788 H 266.959 -0.297324 0.678734 0
M  V30 2789 H 269.606 -0.0744332 1.91355 0
M  V30 2790 H 267.911 -2.39562 3.10028 0
M  V30 2791 H 269.608 -2.13643 3.39349 0
M  V30 2792 H 266.198 -0.939006 4.18187 0
M  V30 2793 H 270.382 -0.33167 4.95191 0
M  V30 2794 H 265.638 0.501528 6.0934 0
M  V30 2795 H 269.812 1.10345 6.87602 0
M  V30 2796 H 267.439 1.52609 7.44725 0
M  V30 2797 N 269.014 -1.53014 -0.377408 0
M  V30 2798 C 270.239 -1.72818 -1.14668 0
M  V30 2799 C 270.664 -0.450725 -1.8262 0
M  V30 2800 O 270.022 0.59439 -1.7128 0
M  V30 2801 C 270.07 -2.88627 -2.16164 0
M  V30 2802 O 269.174 -2.56409 -3.22998 0
M  V30 2803 H 268.515 -0.574301 -0.333278 0
M  V30 2804 H 271.045 -1.99853 -0.438152 0
M  V30 2805 H 271.055 -3.14455 -2.59966 0
M  V30 2806 H 269.73 -3.81294 -1.66095 0
M  V30 2807 H 268.307 -2.4136 -2.84253 0
M  V30 2808 N 270.492 0.636531 -1.44174 0
M  V30 2809 C 271.717 1.42847 -1.50364 0
M  V30 2810 C 272.142 1.87665 -0.127867 0
M  V30 2811 O 271.5 1.58408 0.88185 0
M  V30 2812 C 271.548 2.62854 -2.4686 0
M  V30 2813 O 270.652 3.62501 -1.9664 0
M  V30 2814 H 269.993 0.427642 -0.507955 0
M  V30 2815 H 272.523 0.777422 -1.89255 0
M  V30 2816 H 272.533 3.10465 -2.64718 0
M  V30 2817 H 271.208 2.29578 -3.46795 0
M  V30 2818 H 269.785 3.21735 -1.88523 0
M  V30 2819 N 271.97 1.30982 0.876444 0
M  V30 2820 C 273.247 1.10942 1.61094 0
M  V30 2821 C 273.627 -0.338223 2.08373 0
M  V30 2822 O 272.975 -1.33122 1.85717 0
M  V30 2823 C 273.185 2.11789 2.77392 0
M  V30 2824 C 274.533 2.43965 3.47514 0
M  V30 2825 O 275.557 2.10166 2.87591 0
M  V30 2826 O 274.416 3.01817 4.55597 0
M  V30 2827 H 271.51 0.42667 0.708436 0
M  V30 2828 H 274.056 1.42438 0.922474 0
M  V30 2829 H 272.828 3.09194 2.39823 0
M  V30 2830 H 272.451 1.81161 3.5393 0
M  V30 2831 N 273.449 -1.08991 1.13837 0
M  V30 2832 C 274.696 -1.81258 0.902882 0
M  V30 2833 C 275.024 -1.85936 -0.570803 0
M  V30 2834 O 274.279 -1.3267 -1.43865 0
M  V30 2835 C 274.578 -3.27042 1.44147 0
M  V30 2836 C 274.244 -3.4249 2.93276 0
M  V30 2837 C 272.906 -3.46414 3.33992 0
M  V30 2838 C 275.258 -3.4666 3.892 0
M  V30 2839 C 272.586 -3.52091 4.69307 0
M  V30 2840 C 274.938 -3.53872 5.24364 0
M  V30 2841 C 273.602 -3.56066 5.646 0
M  V30 2842 H 272.872 -0.663268 0.330388 0
M  V30 2843 H 275.519 -1.28368 1.42105 0
M  V30 2844 H 273.824 -3.82599 0.844097 0
M  V30 2845 H 275.521 -3.81499 1.23528 0
M  V30 2846 H 272.111 -3.40124 2.60794 0
M  V30 2847 H 276.295 -3.42865 3.58828 0
M  V30 2848 H 271.551 -3.52079 4.9985 0
M  V30 2849 H 275.725 -3.56043 5.98503 0
M  V30 2850 H 273.352 -3.60218 6.69438 0
M  V30 2851 N 274.927 -0.932562 -1.27047 0
M  V30 2852 C 275.86 -0.379774 -2.25018 0
M  V30 2853 C 276.838 0.526587 -1.53837 0
M  V30 2854 O 278.022 0.465992 -1.82649 0
M  V30 2855 C 275.149 0.455187 -3.35627 0
M  V30 2856 C 274.195 -0.388428 -4.24728 0
M  V30 2857 S 275.028 -1.80701 -5.04091 0
M  V30 2858 C 276.184 -0.979865 -6.18182 0
M  V30 2859 H 276.417 -1.2101 -2.71558 0
M  V30 2860 H 273.95 -0.735078 -1.35779 0
M  V30 2861 H 275.908 0.931052 -3.99802 0
M  V30 2862 H 274.569 1.26009 -2.87716 0
M  V30 2863 H 273.762 0.25089 -5.03375 0
M  V30 2864 H 273.364 -0.798649 -3.65373 0
M  V30 2865 H 275.656 -0.218115 -6.77149 0
M  V30 2866 H 276.599 -1.73951 -6.86401 0
M  V30 2867 H 277.007 -0.51973 -5.62102 0
M  V30 2868 N 276.405 1.4127 -0.698611 0
M  V30 2869 C 277.816 1.84187 -0.305289 0
M  V30 2870 C 278.167 1.58449 1.15708 0
M  V30 2871 O 277.292 1.05651 1.88856 0
M  V30 2872 C 277.887 3.3435 -0.547314 0
M  V30 2873 C 276.446 3.75826 -0.207878 0
M  V30 2874 C 275.593 2.64647 -0.828099 0
M  V30 2875 H 278.544 1.30778 -0.89904 0
M  V30 2876 H 278.565 3.8001 0.192998 0
M  V30 2877 H 278.077 3.53051 -1.61172 0
M  V30 2878 H 276.178 3.62725 0.852143 0
M  V30 2879 H 276.291 4.74462 -0.665021 0
M  V30 2880 H 274.655 2.53395 -0.257458 0
M  V30 2881 H 275.438 2.86165 -1.89643 0
M  V30 2882 N 277.883 0.443576 1.51229 0
M  V30 2883 C 278.83 -0.364716 2.279 0
M  V30 2884 C 279.8 -1.0114 1.31757 0
M  V30 2885 O 280.985 -1.02912 1.60667 0
M  V30 2886 C 278.125 -1.45644 3.12861 0
M  V30 2887 C 277.238 -0.827269 4.24005 0
M  V30 2888 C 276.373 -1.89456 4.96266 0
M  V30 2889 C 275.412 -1.24416 5.99322 0
M  V30 2890 N 274.549 -2.25309 6.64966 0
M  V30 2891 H 279.389 0.295464 2.96532 0
M  V30 2892 H 276.926 0.157554 1.46254 0
M  V30 2893 H 278.884 -2.10076 3.6045 0
M  V30 2894 H 277.514 -2.08616 2.46331 0
M  V30 2895 H 276.566 -0.0710839 3.80334 0
M  V30 2896 H 277.878 -0.312481 4.9782 0
M  V30 2897 H 277.032 -2.61535 5.47434 0
M  V30 2898 H 275.771 -2.4431 4.22095 0
M  V30 2899 H 274.776 -0.508868 5.4744 0
M  V30 2900 H 276.001 -0.702882 6.75453 0
M  V30 2901 H 273.947 -2.79231 5.93604 0
M  V30 2902 H 273.864 -1.78739 7.34567 0
M  V30 2903 H 275.132 -2.96853 7.20763 0
M  V30 2904 N 279.361 -1.56624 0.175154 0
M  V30 2905 C 280.271 -2.21741 -0.766042 0
M  V30 2906 C 281.287 -1.21023 -1.25018 0
M  V30 2907 O 282.463 -1.53697 -1.3015 0
M  V30 2908 C 279.528 -2.84839 -1.97655 0
M  V30 2909 C 278.589 -4.00769 -1.53892 0
M  V30 2910 C 277.822 -4.60849 -2.69173 0
M  V30 2911 O 278.045 -4.19823 -3.86141 0
M  V30 2912 O 276.979 -5.50655 -2.43028 0
M  V30 2913 H 280.805 -3.02738 -0.241585 0
M  V30 2914 H 278.39 -1.49305 -0.053222 0
M  V30 2915 H 280.272 -3.24834 -2.68442 0
M  V30 2916 H 278.947 -2.06836 -2.48999 0
M  V30 2917 H 277.854 -3.65436 -0.80044 0
M  V30 2918 H 279.187 -4.80376 -1.07236 0
M  V30 2919 N 280.839 0.0985539 -1.57292 0
M  V30 2920 C 281.749 1.13824 -2.05137 0
M  V30 2921 C 282.765 1.44076 -0.975604 0
M  V30 2922 O 283.941 1.54786 -1.28853 0
M  V30 2923 C 281.006 2.43969 -2.46333 0
M  V30 2924 C 280.067 2.2093 -3.68087 0
M  V30 2925 C 279.3 3.44869 -4.0731 0
M  V30 2926 O 279.523 4.52972 -3.46659 0
M  V30 2927 O 278.457 3.34661 -5.00285 0
M  V30 2928 H 282.283 0.761881 -2.93988 0
M  V30 2929 H 279.868 0.310818 -1.46131 0
M  V30 2930 H 281.75 3.20609 -2.73473 0
M  V30 2931 H 280.425 2.81038 -1.60621 0
M  V30 2932 H 279.332 1.42081 -3.46069 0
M  V30 2933 H 280.665 1.88755 -4.54568 0
M  V30 2934 N 282.317 1.53212 0.369288 0
M  V30 2935 C 283.265 1.80054 1.47253 0
M  V30 2936 C 284.259 0.669456 1.55611 0
M  V30 2937 O 285.465 0.852328 1.58541 0
M  V30 2938 H 281.84 0.570034 0.490475 0
M  V30 2939 H 283.811 2.72403 1.21817 0
M  V30 2940 C 282.56 2.00403 2.84137 0
M  V30 2941 H 281.883 2.86876 2.78464 0
M  V30 2942 H 283.323 2.23164 3.60519 0
M  V30 2943 C 281.782 0.782081 3.27697 0
M  V30 2944 O 282.312 -0.0310205 4.01688 0
M  V30 2945 N 280.518 0.606573 2.84199 0
M  V30 2946 H 280.065 1.26939 2.24152 0
M  V30 2947 H 280.023 -0.20962 3.137 0
M  V30 2948 N 283.795 -0.628877 1.44509 0
M  V30 2949 C 284.742 -1.74074 1.51549 0
M  V30 2950 C 285.712 -1.62084 0.363021 0
M  V30 2951 O 286.897 -1.81975 0.573567 0
M  V30 2952 C 284.037 -3.12328 1.46784 0
M  V30 2953 C 283.15 -3.35277 2.72422 0
M  V30 2954 C 282.285 -4.63515 2.59475 0
M  V30 2955 C 281.324 -4.7965 3.80266 0
M  V30 2956 N 280.461 -5.99168 3.65981 0
M  V30 2957 H 285.301 -1.67392 2.46544 0
M  V30 2958 H 282.838 -0.816527 1.22357 0
M  V30 2959 H 284.796 -3.92286 1.42012 0
M  V30 2960 H 283.426 -3.18018 0.553544 0
M  V30 2961 H 282.478 -2.49242 2.87372 0
M  V30 2962 H 283.79 -3.43078 3.62076 0
M  V30 2963 H 282.944 -5.51638 2.52548 0
M  V30 2964 H 281.683 -4.58076 1.67384 0
M  V30 2965 H 280.688 -3.89957 3.87574 0
M  V30 2966 H 281.913 -4.86902 4.73395 0
M  V30 2967 H 279.859 -5.94814 2.76644 0
M  V30 2968 H 279.776 -6.08035 4.49254 0
M  V30 2969 H 281.044 -6.89846 3.6295 0
M  V30 2970 N 285.273 -1.31445 -0.869486 0
M  V30 2971 C 286.689 -1.10113 -1.15531 0
M  V30 2972 C 286.889 0.128087 -2.01092 0
M  V30 2973 O 285.945 0.817276 -2.38908 0
M  V30 2974 C 287.258 -2.37291 -1.84698 0
M  V30 2975 C 288.806 -2.42906 -1.97397 0
M  V30 2976 C 289.281 -3.69967 -2.69979 0
M  V30 2977 N 290.772 -3.70864 -2.77514 0
M  V30 2978 C 291.507 -4.65875 -3.34287 0
M  V30 2979 N 291.003 -5.71242 -3.91988 0
M  V30 2980 N 292.796 -4.53394 -3.3225 0
M  V30 2981 H 284.947 -2.1028 -0.299347 0
M  V30 2982 H 287.21 -0.927683 -0.195214 0
M  V30 2983 H 286.916 -3.27078 -1.29278 0
M  V30 2984 H 286.79 -2.47125 -2.84972 0
M  V30 2985 H 289.177 -1.53588 -2.51982 0
M  V30 2986 H 289.258 -2.37036 -0.961643 0
M  V30 2987 H 288.902 -4.59652 -2.16062 0
M  V30 2988 H 288.832 -3.73103 -3.7162 0
M  V30 2989 H 291.323 -2.94697 -2.36563 0
M  V30 2990 H 291.636 -6.39817 -4.33421 0
M  V30 2991 H 289.981 -5.75015 -3.90362 0
M  V30 2992 H 293.172 -3.70252 -2.8641 0
M  V30 2993 H 293.345 -5.27617 -3.76197 0
M  V30 2994 N 286.751 1.08385 -1.14413 0
M  V30 2995 C 287.976 1.85057 -0.936413 0
M  V30 2996 C 288.401 1.81055 0.509971 0
M  V30 2997 O 287.759 1.1958 1.36273 0
M  V30 2998 C 287.807 3.30505 -1.44217 0
M  V30 2999 O 286.911 4.07491 -0.634409 0
M  V30 3000 H 286.252 0.573425 -0.334784 0
M  V30 3001 H 288.782 1.36799 -1.52142 0
M  V30 3002 H 288.792 3.81348 -1.45043 0
M  V30 3003 H 287.467 3.32734 -2.49522 0
M  V30 3004 H 286.044 3.66368 -0.694902 0
M  V30 3005 N 288.23 0.939286 1.26551 0
M  V30 3006 C 289.478 0.58469 1.93457 0
M  V30 3007 C 289.799 -0.878774 1.74076 0
M  V30 3008 O 289.069 -1.62421 1.09528 0
M  V30 3009 H 287.649 0.21325 0.715914 0
M  V30 3010 H 290.311 1.1942 1.54029 0
M  V30 3011 H 289.407 0.800849 3.0165 0
M  V30 3012 N 289.708 -1.40897 0.706093 0
M  V30 3013 C 290.658 -2.27987 0.0240746 0
M  V30 3014 C 291.642 -1.42759 -0.742204 0
M  V30 3015 O 292.834 -1.65936 -0.615966 0
M  V30 3016 C 289.963 -3.31186 -0.903907 0
M  V30 3017 C 289.049 -4.2389 -0.133318 0
M  V30 3018 N 289.44 -4.98113 0.878444 0
M  V30 3019 C 287.738 -4.44485 -0.367269 0
M  V30 3020 C 288.439 -5.6604 1.34064 0
M  V30 3021 N 287.415 -5.39522 0.664565 0
M  V30 3022 H 291.217 -2.82812 0.799658 0
M  V30 3023 H 288.731 -1.53235 0.537845 0
M  V30 3024 H 290.728 -3.92413 -1.40775 0
M  V30 3025 H 289.388 -2.77922 -1.67897 0
M  V30 3026 H 290.399 -5.02364 1.25901 0
M  V30 3027 H 287.076 -4.02213 -1.1194 0
M  V30 3028 H 288.466 -6.35524 2.1808 0
M  V30 3029 N 291.186 -0.45159 -1.50991 0
M  V30 3030 C 292.432 0.110237 -2.025 0
M  V30 3031 C 292.765 1.41109 -1.33424 0
M  V30 3032 O 292.04 1.89135 -0.453659 0
M  V30 3033 C 292.323 0.314271 -3.58726 0
M  V30 3034 C 292.176 -1.00623 -4.38401 0
M  V30 3035 C 293.495 1.07767 -4.26702 0
M  V30 3036 H 290.614 0.0385897 -0.735989 0
M  V30 3037 H 293.256 -0.593374 -1.80497 0
M  V30 3038 H 291.406 0.913601 -3.77605 0
M  V30 3039 H 293.078 -1.64064 -4.31139 0
M  V30 3040 H 291.321 -1.6075 -4.02917 0
M  V30 3041 H 291.992 -0.817341 -5.45915 0
M  V30 3042 H 294.468 0.56986 -4.12179 0
M  V30 3043 H 293.344 1.18921 -5.35863 0
M  V30 3044 H 293.605 2.10939 -3.88532 0
M  V30 3045 N 292.664 1.56529 -0.183458 0
M  V30 3046 C 293.612 2.19873 0.758845 0
M  V30 3047 C 294.606 1.16638 1.22849 0
M  V30 3048 O 295.812 1.3481 1.19274 0
M  V30 3049 H 292.187 0.7045 0.263029 0
M  V30 3050 H 294.158 2.97724 0.200755 0
M  V30 3051 C 292.907 2.86314 1.9728 0
M  V30 3052 H 292.23 3.65487 1.62047 0
M  V30 3053 H 293.67 3.3409 2.61075 0
M  V30 3054 C 292.129 1.86729 2.80418 0
M  V30 3055 O 292.659 1.36031 3.77966 0
M  V30 3056 N 290.865 1.55216 2.45675 0
M  V30 3057 H 290.412 1.96636 1.66409 0
M  V30 3058 H 290.37 0.888388 3.01588 0
M  V30 3059 N 294.142 -0.090211 1.57342 0
M  V30 3060 C 295.391 -0.791531 1.8552 0
M  V30 3061 C 295.704 -1.79659 0.773441 0
M  V30 3062 O 296.91 -2.54616 0.942497 0
M  V30 3063 C 295.366 -1.45856 3.2902 0
M  V30 3064 C 294.974 -0.493017 4.45279 0
M  V30 3065 C 296.718 -2.14332 3.66418 0
M  V30 3066 C 294.625 -1.16491 5.79814 0
M  V30 3067 H 293.555 -0.299356 0.692027 0
M  V30 3068 H 296.206 -0.0445343 1.83446 0
M  V30 3069 H 294.588 -2.25318 3.2565 0
M  V30 3070 H 295.762 0.270464 4.60006 0
M  V30 3071 H 294.077 0.0863061 4.16311 0
M  V30 3072 H 296.674 -2.65344 4.64216 0
M  V30 3073 H 297.017 -2.93447 2.95287 0
M  V30 3074 H 297.55 -1.41724 3.71698 0
M  V30 3075 H 294.289 -0.41447 6.54188 0
M  V30 3076 H 293.809 -1.8997 5.68921 0
M  V30 3077 H 295.488 -1.69001 6.24538 0
M  V30 3078 N 295.62 -1.53406 -0.361157 0
M  V30 3079 C 296.866 -1.70054 -1.10496 0
M  V30 3080 C 297.199 -0.453278 -1.88836 0
M  V30 3081 O 296.474 0.5495 -1.86576 0
M  V30 3082 C 296.757 -2.95317 -2.06058 0
M  V30 3083 C 296.61 -4.3021 -1.31298 0
M  V30 3084 C 297.929 -3.16193 -3.06121 0
M  V30 3085 H 295.048 -0.618799 -0.400321 0
M  V30 3086 H 297.69 -1.86052 -0.385318 0
M  V30 3087 H 295.84 -2.81809 -2.67425 0
M  V30 3088 H 297.512 -4.55538 -0.726807 0
M  V30 3089 H 295.755 -4.29421 -0.614853 0
M  V30 3090 H 296.426 -5.14 -2.01265 0
M  V30 3091 H 298.902 -3.28916 -2.5486 0
M  V30 3092 H 297.778 -4.05266 -3.70204 0
M  V30 3093 H 298.039 -2.31676 -3.76535 0
M  V30 3094 N 297.098 0.621204 -1.44841 0
M  V30 3095 C 298.008 1.7612 -1.5498 0
M  V30 3096 C 299.024 1.68477 -0.434927 0
M  V30 3097 O 300.2 1.89076 -0.693693 0
M  V30 3098 C 297.265 3.1254 -1.50065 0
M  V30 3099 C 296.326 3.31741 -2.72482 0
M  V30 3100 C 295.559 4.61653 -2.67792 0
M  V30 3101 O 295.782 5.431 -1.74352 0
M  V30 3102 O 294.716 4.83271 -3.58794 0
M  V30 3103 H 298.542 1.70518 -2.51311 0
M  V30 3104 H 296.127 0.783643 -1.27198 0
M  V30 3105 H 298.009 3.93844 -1.49882 0
M  V30 3106 H 296.684 3.18663 -0.568806 0
M  V30 3107 H 295.591 2.50077 -2.7823 0
M  V30 3108 H 296.924 3.30486 -3.64746 0
M  V30 3109 N 298.576 1.31904 0.862503 0
M  V30 3110 C 299.987 1.19803 1.43193 0
M  V30 3111 C 300.338 -0.192567 1.95253 0
M  V30 3112 O 299.463 -1.09081 1.86896 0
M  V30 3113 C 300.058 2.16883 2.60283 0
M  V30 3114 C 298.617 2.08692 3.13248 0
M  V30 3115 C 297.764 2.05691 1.85975 0
M  V30 3116 H 300.715 1.43846 0.670365 0
M  V30 3117 H 300.736 1.76278 3.37204 0
M  V30 3118 H 300.248 3.18083 2.22363 0
M  V30 3119 H 298.349 1.10713 3.55771 0
M  V30 3120 H 298.462 2.9815 3.75025 0
M  V30 3121 H 296.826 1.50814 2.05249 0
M  V30 3122 H 297.609 3.08659 1.50282 0
M  V30 3123 N 300.054 -1.07777 1.14986 0
M  V30 3124 C 301.279 -1.84558 0.946213 0
M  V30 3125 C 301.704 -1.81323 -0.500362 0
M  V30 3126 O 301.062 -1.20301 -1.35637 0
M  V30 3127 C 301.11 -3.29736 1.45968 0
M  V30 3128 O 300.214 -4.07149 0.65601 0
M  V30 3129 H 299.555 -0.571641 0.33782 0
M  V30 3130 H 302.085 -1.35991 1.52865 0
M  V30 3131 H 302.095 -3.80574 1.47063 0
M  V30 3132 H 300.77 -3.31406 2.51283 0
M  V30 3133 H 299.347 -3.65994 0.714322 0
M  V30 3134 N 301.532 -0.945985 -1.26051 0
M  V30 3135 C 302.462 -0.477172 -2.28572 0
M  V30 3136 C 303.443 0.472032 -1.63419 0
M  V30 3137 O 304.628 0.372853 -1.90587 0
M  V30 3138 C 301.758 0.253975 -3.4637 0
M  V30 3139 C 300.712 -0.609135 -4.23643 0
M  V30 3140 C 300.038 0.252252 -5.34105 0
M  V30 3141 C 301.338 -1.8829 -4.8718 0
M  V30 3142 H 303.032 -1.33402 -2.68038 0
M  V30 3143 H 300.578 -0.642904 -1.28852 0
M  V30 3144 H 302.531 0.593016 -4.17207 0
M  V30 3145 H 301.255 1.145 -3.05871 0
M  V30 3146 H 299.914 -0.931138 -3.54578 0
M  V30 3147 H 299.562 1.14278 -4.89846 0
M  V30 3148 H 299.262 -0.32188 -5.86718 0
M  V30 3149 H 300.786 0.586454 -6.07777 0
M  V30 3150 H 302.2 -1.61081 -5.50205 0
M  V30 3151 H 300.597 -2.40199 -5.49931 0
M  V30 3152 H 301.667 -2.59134 -4.09851 0
M  V30 3153 N 303.011 1.40521 -0.713556 0
M  V30 3154 C 303.944 2.28198 -0.00881422 0
M  V30 3155 C 304.922 1.43227 0.769735 0
M  V30 3156 O 306.106 1.72641 0.756799 0
M  V30 3157 C 303.233 3.23758 0.994899 0
M  V30 3158 C 302.279 4.25391 0.3074 0
M  V30 3159 S 303.112 5.26765 -0.963247 0
M  V30 3160 C 304.268 6.25888 0.0384143 0
M  V30 3161 H 304.501 2.87622 -0.752407 0
M  V30 3162 H 302.034 1.45925 -0.504502 0
M  V30 3163 H 303.992 3.79341 1.56879 0
M  V30 3164 H 302.653 2.63396 1.71118 0
M  V30 3165 H 301.846 4.92596 1.0661 0
M  V30 3166 H 301.448 3.73497 -0.193879 0
M  V30 3167 H 303.74 6.71683 0.885912 0
M  V30 3168 H 304.683 7.05552 -0.60019 0
M  V30 3169 H 305.091 5.63072 0.401233 0
M  V30 3170 N 304.489 0.459591 1.5075 0
M  V30 3171 C 305.419 -0.330644 2.31147 0
M  V30 3172 C 306.4 -1.00087 1.37538 0
M  V30 3173 O 307.585 -1.00025 1.66459 0
M  V30 3174 C 304.715 -1.41958 3.16962 0
M  V30 3175 C 303.669 -0.871608 4.19031 0
M  V30 3176 C 302.995 -2.05797 4.9351 0
M  V30 3177 C 304.295 0.109251 5.22186 0
M  V30 3178 H 305.989 0.340336 2.97459 0
M  V30 3179 H 303.535 0.165119 1.4305 0
M  V30 3180 H 305.488 -1.9798 3.71997 0
M  V30 3181 H 304.212 -2.11917 2.48513 0
M  V30 3182 H 302.871 -0.333442 3.6508 0
M  V30 3183 H 302.519 -2.74427 4.21544 0
M  V30 3184 H 302.219 -1.6976 5.62544 0
M  V30 3185 H 303.743 -2.62331 5.51375 0
M  V30 3186 H 305.157 -0.361405 5.7216 0
M  V30 3187 H 303.554 0.383316 5.98875 0
M  V30 3188 H 304.624 1.03887 4.73641 0
M  V30 3189 N 305.967 -1.56429 0.191757 0
M  V30 3190 C 306.897 -2.21937 -0.725696 0
M  V30 3191 C 307.878 -1.1814 -1.2238 0
M  V30 3192 O 309.063 -1.46636 -1.27325 0
M  V30 3193 C 306.193 -2.87611 -1.94672 0
M  V30 3194 C 305.147 -3.97623 -1.58366 0
M  V30 3195 C 304.473 -4.50446 -2.88102 0
M  V30 3196 C 305.773 -5.16197 -0.796133 0
M  V30 3197 H 307.467 -2.98861 -0.179606 0
M  V30 3198 H 305.013 -1.43749 -0.0849464 0
M  V30 3199 H 306.966 -3.3212 -2.59373 0
M  V30 3200 H 305.69 -2.08087 -2.51728 0
M  V30 3201 H 304.349 -3.53801 -0.960247 0
M  V30 3202 H 303.997 -3.67688 -3.43241 0
M  V30 3203 H 303.697 -5.24675 -2.64556 0
M  V30 3204 H 305.221 -4.97654 -3.53798 0
M  V30 3205 H 306.635 -5.57271 -1.34618 0
M  V30 3206 H 305.032 -5.96471 -0.658928 0
M  V30 3207 H 306.102 -4.84473 0.203478 0
M  V30 3208 N 307.445 0.0818655 -1.57387 0
M  V30 3209 C 308.392 1.09834 -2.0299 0
M  V30 3210 C 309.362 1.39043 -0.908639 0
M  V30 3211 O 310.547 1.50282 -1.17559 0
M  V30 3212 C 307.687 2.40971 -2.47037 0
M  V30 3213 C 306.8 2.18379 -3.7274 0
M  V30 3214 C 305.935 3.43008 -4.0561 0
M  V30 3215 C 304.974 3.15736 -5.24383 0
M  V30 3216 N 304.111 4.32667 -5.52941 0
M  V30 3217 H 308.951 0.702472 -2.89602 0
M  V30 3218 H 306.488 0.33531 -1.43227 0
M  V30 3219 H 308.446 3.1752 -2.70623 0
M  V30 3220 H 307.076 2.78379 -1.63417 0
M  V30 3221 H 306.128 1.32569 -3.56552 0
M  V30 3222 H 307.44 1.94227 -4.59431 0
M  V30 3223 H 306.594 4.27958 -4.30043 0
M  V30 3224 H 305.333 3.70225 -3.17466 0
M  V30 3225 H 304.338 2.2918 -4.99757 0
M  V30 3226 H 305.563 2.8985 -6.14136 0
M  V30 3227 H 303.509 4.59935 -4.67756 0
M  V30 3228 H 303.426 4.11753 -6.34031 0
M  V30 3229 H 304.694 5.18644 -5.81918 0
M  V30 3230 N 308.923 1.53595 0.353017 0
M  V30 3231 C 310.171 1.70049 1.09215 0
M  V30 3232 C 310.492 0.461406 1.89463 0
M  V30 3233 O 309.762 -0.524633 1.88744 0
M  V30 3234 H 308.342 0.626912 0.40619 0
M  V30 3235 H 311.004 1.90822 0.396585 0
M  V30 3236 H 310.1 2.56718 1.77488 0
M  V30 3237 N 310.401 -0.613514 1.45168 0
M  V30 3238 C 311.626 -1.40437 1.52618 0
M  V30 3239 C 312.051 -1.87438 0.157707 0
M  V30 3240 O 311.409 -1.59791 -0.856537 0
M  V30 3241 C 311.457 -2.58894 2.51011 0
M  V30 3242 O 310.561 -3.59326 2.02382 0
M  V30 3243 H 309.902 -0.419506 0.514695 0
M  V30 3244 H 312.432 -0.747215 1.90467 0
M  V30 3245 H 312.442 -3.06214 2.69624 0
M  V30 3246 H 311.117 -2.24032 3.50403 0
M  V30 3247 H 309.694 -3.18695 1.93618 0
M  V30 3248 N 311.879 -1.3236 -0.855495 0
M  V30 3249 C 312.809 -1.23833 -1.97958 0
M  V30 3250 C 313.79 -0.122361 -1.69659 0
M  V30 3251 O 314.975 -0.30939 -1.9172 0
M  V30 3252 C 312.105 -0.959772 -3.33775 0
M  V30 3253 C 311.059 -2.03689 -3.76424 0
M  V30 3254 C 310.385 -1.61075 -5.09862 0
M  V30 3255 C 311.685 -3.4518 -3.9198 0
M  V30 3256 H 313.379 -2.1788 -2.0535 0
M  V30 3257 H 310.925 -1.04891 -0.986605 0
M  V30 3258 H 312.878 -0.886678 -4.11966 0
M  V30 3259 H 311.602 0.0163404 -3.26596 0
M  V30 3260 H 310.261 -2.10012 -3.00484 0
M  V30 3261 H 309.909 -0.622107 -4.99138 0
M  V30 3262 H 309.609 -2.33143 -5.39368 0
M  V30 3263 H 311.133 -1.55201 -5.90546 0
M  V30 3264 H 312.547 -3.4145 -4.60526 0
M  V30 3265 H 310.944 -4.1559 -4.32903 0
M  V30 3266 H 312.014 -3.84903 -2.94919 0
M  V30 3267 N 313.357 1.07166 -1.15556 0
M  V30 3268 C 314.289 2.14341 -0.811815 0
M  V30 3269 C 315.302 1.61835 0.177015 0
M  V30 3270 O 316.491 1.78439 -0.0464996 0
M  V30 3271 C 313.591 3.38387 -0.186481 0
M  V30 3272 C 312.764 4.20238 -1.21321 0
M  V30 3273 C 311.823 5.2266 -0.609302 0
M  V30 3274 O 310.849 5.54719 -1.27576 0
M  V30 3275 N 312.051 5.77306 0.608099 0
M  V30 3276 H 314.816 2.44431 -1.73417 0
M  V30 3277 H 312.377 1.23089 -1.0517 0
M  V30 3278 H 314.369 4.04044 0.230339 0
M  V30 3279 H 312.939 3.05994 0.639249 0
M  V30 3280 H 312.159 3.50369 -1.80652 0
M  V30 3281 H 313.447 4.71736 -1.90638 0
M  V30 3282 H 312.845 5.53513 1.1679 0
M  V30 3283 H 311.402 6.44583 0.96725 0
M  V30 3284 N 314.835 0.952656 1.25548 0
M  V30 3285 C 316.246 0.647392 1.75116 0
M  V30 3286 C 316.597 -0.837274 1.77438 0
M  V30 3287 O 315.722 -1.65525 1.39393 0
M  V30 3288 C 316.317 1.16845 3.18014 0
M  V30 3289 C 314.876 0.913382 3.6515 0
M  V30 3290 C 314.023 1.31265 2.44264 0
M  V30 3291 H 316.974 1.12968 1.11462 0
M  V30 3292 H 316.995 0.527606 3.76824 0
M  V30 3293 H 316.507 2.24902 3.16292 0
M  V30 3294 H 314.608 -0.152316 3.72289 0
M  V30 3295 H 314.721 1.54845 4.53387 0
M  V30 3296 H 313.085 0.731028 2.43984 0
M  V30 3297 H 313.868 2.40239 2.45234 0
M  V30 3298 N 316.313 -1.40141 0.720998 0
M  V30 3299 C 317.561 -2.0039 0.262323 0
M  V30 3300 C 317.882 -1.57469 -1.15015 0
M  V30 3301 O 317.152 -0.816582 -1.78069 0
M  V30 3302 H 315.732 -0.741063 0.093996 0
M  V30 3303 H 318.394 -1.71398 0.927835 0
M  V30 3304 H 317.49 -3.10658 0.299671 0
M  V30 3305 N 317.792 -0.46758 -1.50504 0
M  V30 3306 C 318.725 0.374324 -2.25109 0
M  V30 3307 C 319.703 0.99921 -1.28275 0
M  V30 3308 O 320.887 1.03583 -1.57489 0
M  V30 3309 C 318.014 1.52419 -3.02467 0
M  V30 3310 C 317.06 1.01702 -4.14197 0
M  V30 3311 S 317.893 -0.0654477 -5.3546 0
M  V30 3312 C 319.049 1.08837 -6.16365 0
M  V30 3313 H 319.282 -0.258983 -2.9617 0
M  V30 3314 H 316.815 -0.252421 -1.52323 0
M  V30 3315 H 318.773 2.18322 -3.47628 0
M  V30 3316 H 317.434 2.129 -2.30938 0
M  V30 3317 H 316.627 1.87776 -4.67714 0
M  V30 3318 H 316.229 0.435757 -3.71453 0
M  V30 3319 H 318.521 2.00071 -6.47285 0
M  V30 3320 H 319.464 0.592538 -7.05616 0
M  V30 3321 H 319.872 1.34061 -5.4835 0
M  V30 3322 N 319.27 1.56325 -0.20005 0
M  V30 3323 C 320.516 1.98772 0.431408 0
M  V30 3324 C 320.871 1.0849 1.58895 0
M  V30 3325 O 320.164 0.130331 1.91156 0
M  V30 3326 C 320.358 3.4495 0.935103 0
M  V30 3327 C 320.187 4.49371 -0.172096 0
M  V30 3328 C 318.957 5.0134 -0.631377 0
M  V30 3329 C 321.155 5.04822 -0.982806 0
M  V30 3330 N 319.137 5.89433 -1.71588 0
M  V30 3331 C 320.508 5.89632 -1.91661 0
M  V30 3332 C 322.563 4.87242 -1.02467 0
M  V30 3333 C 321.266 6.58741 -2.88881 0
M  V30 3334 C 323.292 5.57094 -1.98494 0
M  V30 3335 C 322.654 6.41655 -2.90617 0
M  V30 3336 H 318.753 0.771922 0.125144 0
M  V30 3337 H 321.337 1.92266 -0.306883 0
M  V30 3338 H 319.508 3.51946 1.64282 0
M  V30 3339 H 321.24 3.74354 1.53758 0
M  V30 3340 H 317.995 4.73071 -0.223827 0
M  V30 3341 H 318.419 6.38182 -2.25948 0
M  V30 3342 H 323.061 4.21538 -0.326408 0
M  V30 3343 H 320.779 7.23641 -3.5968 0
M  V30 3344 H 324.365 5.45466 -2.0238 0
M  V30 3345 H 323.245 6.94755 -3.63711 0
M  V30 3346 N 320.748 -0.0735177 1.57428 0
M  V30 3347 C 321.658 -1.10547 2.06922 0
M  V30 3348 C 322.674 -1.42506 0.998402 0
M  V30 3349 O 323.85 -1.52717 1.31299 0
M  V30 3350 C 320.915 -2.40019 2.50184 0
M  V30 3351 C 319.976 -2.15046 3.71556 0
M  V30 3352 C 319.209 -3.38345 4.12745 0
M  V30 3353 O 319.432 -4.47399 3.53822 0
M  V30 3354 O 318.366 -3.2666 5.05546 0
M  V30 3355 H 322.192 -0.715013 2.95163 0
M  V30 3356 H 319.777 -0.287531 1.46607 0
M  V30 3357 H 321.659 -3.16218 2.78539 0
M  V30 3358 H 320.334 -2.78447 1.65072 0
M  V30 3359 H 319.241 -1.36558 3.48285 0
M  V30 3360 H 320.574 -1.81499 4.57514 0
M  V30 3361 N 322.226 -1.5378 -0.344866 0
M  V30 3362 C 323.451 -1.75211 -1.10977 0
M  V30 3363 C 323.876 -0.48936 -1.81623 0
M  V30 3364 O 323.234 0.557925 -1.72502 0
M  V30 3365 C 323.282 -2.93147 -2.09993 0
M  V30 3366 O 322.386 -2.63203 -3.17487 0
M  V30 3367 H 321.727 -0.581241 -0.321021 0
M  V30 3368 H 324.257 -2.00738 -0.395661 0
M  V30 3369 H 324.267 -3.19898 -2.53237 0
M  V30 3370 H 322.942 -3.84731 -1.5797 0
M  V30 3371 H 321.519 -2.47336 -2.79069 0
M  V30 3372 N 323.704 0.605807 -1.45491 0
M  V30 3373 C 324.932 1.39136 -1.5313 0
M  V30 3374 C 325.347 1.88082 -0.164507 0
M  V30 3375 O 324.704 1.62316 0.834247 0
M  V30 3376 C 324.755 2.59463 -2.51716 0
M  V30 3377 O 324.476 2.12551 -3.83084 0
M  V30 3378 C 325.977 3.52301 -2.6907 0
M  V30 3379 H 323.197 0.425849 -0.51855 0
M  V30 3380 H 325.741 0.73865 -1.90694 0
M  V30 3381 H 323.896 3.20772 -2.17219 0
M  V30 3382 H 324.31 2.90744 -4.36541 0
M  V30 3383 H 325.784 4.33271 -3.42024 0
M  V30 3384 H 326.261 4.02757 -1.75167 0
M  V30 3385 H 326.867 2.96845 -3.04571 0
M  V30 3386 N 325.182 1.32811 0.848464 0
M  V30 3387 C 326.428 1.24917 1.60522 0
M  V30 3388 C 326.783 -0.185761 1.91501 0
M  V30 3389 O 326.076 -1.12524 1.55077 0
M  V30 3390 C 326.27 2.04831 2.92881 0
M  V30 3391 C 326.099 3.55949 2.74828 0
M  V30 3392 C 324.869 4.25277 2.72887 0
M  V30 3393 C 327.067 4.50476 2.48145 0
M  V30 3394 N 325.049 5.62408 2.46111 0
M  V30 3395 C 326.42 5.75427 2.30832 0
M  V30 3396 C 328.475 4.39665 2.33664 0
M  V30 3397 C 327.178 6.90789 2.00508 0
M  V30 3398 C 329.204 5.54833 2.04731 0
M  V30 3399 C 328.566 6.78787 1.88223 0
M  V30 3400 H 324.665 0.512279 0.590842 0
M  V30 3401 H 327.249 1.67246 0.996839 0
M  V30 3402 H 325.42 1.64837 3.51686 0
M  V30 3403 H 327.152 1.88782 3.57971 0
M  V30 3404 H 323.907 3.77456 2.86049 0
M  V30 3405 H 324.331 6.3467 2.35634 0
M  V30 3406 H 328.973 3.44477 2.45144 0
M  V30 3407 H 326.691 7.85984 1.87765 0
M  V30 3408 H 330.277 5.48398 1.94295 0
M  V30 3409 H 329.157 7.66396 1.66155 0
M  V30 3410 N 326.66 -1.06551 1.16123 0
M  V30 3411 C 327.592 -2.13908 0.823171 0
M  V30 3412 C 328.605 -1.61926 -0.16843 0
M  V30 3413 O 329.794 -1.78412 0.055962 0
M  V30 3414 C 326.894 -3.38283 0.204424 0
M  V30 3415 C 326.067 -4.19589 1.23548 0
M  V30 3416 C 325.126 -5.2233 0.637011 0
M  V30 3417 O 324.152 -5.54034 1.30516 0
M  V30 3418 N 325.354 -5.77621 -0.577474 0
M  V30 3419 H 328.119 -2.43508 1.74711 0
M  V30 3420 H 325.68 -1.2253 1.05821 0
M  V30 3421 H 327.672 -4.0416 -0.208909 0
M  V30 3422 H 326.242 -3.06329 -0.623012 0
M  V30 3423 H 325.462 -3.49406 1.82507 0
M  V30 3424 H 326.75 -4.70718 1.93137 0
M  V30 3425 H 326.148 -5.54125 -1.13853 0
M  V30 3426 H 324.705 -6.45087 -0.933053 0
M  V30 3427 N 328.138 -0.959301 -1.25041 0
M  V30 3428 C 329.085 -0.482057 -2.2571 0
M  V30 3429 C 330.055 0.467939 -1.59372 0
M  V30 3430 O 331.24 0.380159 -1.86974 0
M  V30 3431 C 328.38 0.229623 -3.44335 0
M  V30 3432 C 327.493 -0.758156 -4.25295 0
M  V30 3433 C 326.628 -0.0234403 -5.31195 0
M  V30 3434 C 325.667 -1.00184 -6.03846 0
M  V30 3435 N 324.804 -0.29769 -7.01469 0
M  V30 3436 H 329.644 -1.34538 -2.65901 0
M  V30 3437 H 327.181 -0.674592 -1.3072 0
M  V30 3438 H 329.139 0.658856 -4.11965 0
M  V30 3439 H 327.769 1.05696 -3.05005 0
M  V30 3440 H 326.821 -1.30586 -3.57284 0
M  V30 3441 H 328.133 -1.50458 -4.75567 0
M  V30 3442 H 327.287 0.464201 -6.04922 0
M  V30 3443 H 326.026 0.755741 -4.81809 0
M  V30 3444 H 325.031 -1.50044 -5.2893 0
M  V30 3445 H 326.256 -1.78133 -6.55321 0
M  V30 3446 H 324.202 0.462668 -6.54366 0
M  V30 3447 H 324.119 -0.983128 -7.4958 0
M  V30 3448 H 325.387 0.16826 -7.79318 0
M  V30 3449 N 329.616 1.39756 -0.72842 0
M  V30 3450 C 330.564 2.32485 -0.0731849 0
M  V30 3451 C 331.558 1.52717 0.733063 0
M  V30 3452 O 332.764 1.68428 0.634988 0
M  V30 3453 H 329.139 0.751984 -0.00486469 0
M  V30 3454 H 331.11 2.85382 -0.871761 0
M  V30 3455 C 329.859 3.37773 0.824908 0
M  V30 3456 H 329.182 3.99227 0.213915 0
M  V30 3457 H 330.622 4.05121 1.25111 0
M  V30 3458 C 329.081 2.74287 1.95622 0
M  V30 3459 O 329.611 2.61618 3.04826 0
M  V30 3460 N 327.817 2.32475 1.74367 0
M  V30 3461 H 327.364 2.4298 0.855494 0
M  V30 3462 H 327.322 1.90337 2.50238 0
M  V30 3463 N 331.094 0.475555 1.50254 0
M  V30 3464 C 332.343 -0.0795996 2.01543 0
M  V30 3465 C 332.656 -1.4038 1.36209 0
M  V30 3466 O 333.862 -2.04415 1.7868 0
M  V30 3467 C 332.318 -0.192363 3.59386 0
M  V30 3468 C 331.926 1.12367 4.33679 0
M  V30 3469 C 333.67 -0.699238 4.18701 0
M  V30 3470 C 331.577 0.974453 5.83317 0
M  V30 3471 H 330.507 -0.0335228 0.753254 0
M  V30 3472 H 333.158 0.611128 1.73025 0
M  V30 3473 H 331.54 -0.946974 3.84511 0
M  V30 3474 H 332.714 1.88958 4.20276 0
M  V30 3475 H 331.029 1.562 3.85993 0
M  V30 3476 H 333.626 -0.827978 5.28251 0
M  V30 3477 H 333.969 -1.69171 3.80377 0
M  V30 3478 H 334.502 -0.00188807 3.978 0
M  V30 3479 H 331.241 1.94042 6.26121 0
M  V30 3480 H 330.761 0.248998 5.99283 0
M  V30 3481 H 332.44 0.642867 6.43798 0
M  V30 3482 N 332.573 -1.56217 0.208337 0
M  V30 3483 C 333.483 -2.23316 -0.718836 0
M  V30 3484 C 334.499 -1.23648 -1.22422 0
M  V30 3485 O 335.675 -1.56423 -1.26861 0
M  V30 3486 C 332.74 -2.88968 -1.91568 0
M  V30 3487 C 331.801 -4.03943 -1.45357 0
M  V30 3488 C 331.034 -4.66455 -2.59337 0
M  V30 3489 O 331.257 -4.27919 -3.77149 0
M  V30 3490 O 330.191 -5.55686 -2.31293 0
M  V30 3491 H 334.017 -3.03182 -0.177315 0
M  V30 3492 H 331.602 -1.49384 -0.0215402 0
M  V30 3493 H 333.484 -3.30455 -2.61491 0
M  V30 3494 H 332.159 -2.12071 -2.44556 0
M  V30 3495 H 331.066 -3.67052 -0.722746 0
M  V30 3496 H 332.399 -4.82543 -0.970219 0
M  V30 3497 N 334.051 0.0651679 -1.57465 0
M  V30 3498 C 335.276 0.779605 -1.9219 0
M  V30 3499 C 335.701 1.69988 -0.805333 0
M  V30 3500 O 335.059 1.79685 0.241435 0
M  V30 3501 C 335.107 1.54364 -3.2589 0
M  V30 3502 O 334.211 2.65474 -3.1559 0
M  V30 3503 H 333.552 0.212249 -0.629163 0
M  V30 3504 H 336.082 0.0314294 -2.04576 0
M  V30 3505 H 336.092 1.92146 -3.59922 0
M  V30 3506 H 334.767 0.868457 -4.06732 0
M  V30 3507 H 333.344 2.30501 -2.93128 0
M  V30 3508 N 335.529 1.53961 0.336706 0
M  V30 3509 C 336.778 1.70751 1.07363 0
M  V30 3510 C 337.091 0.481061 1.89592 0
M  V30 3511 O 338.297 0.530046 2.66276 0
M  V30 3512 C 336.753 3.01965 1.95818 0
M  V30 3513 C 336.361 4.31971 1.18764 0
M  V30 3514 C 338.105 3.28121 2.69327 0
M  V30 3515 C 336.012 5.54255 2.06289 0
M  V30 3516 H 334.942 0.636292 0.404535 0
M  V30 3517 H 337.593 1.80459 0.332681 0
M  V30 3518 H 335.975 2.86132 2.7376 0
M  V30 3519 H 337.149 4.5853 0.456849 0
M  V30 3520 H 335.464 4.12481 0.569946 0
M  V30 3521 H 338.061 4.16673 3.35094 0
M  V30 3522 H 338.404 2.45426 3.36261 0
M  V30 3523 H 338.937 3.44762 1.98454 0
M  V30 3524 H 335.676 6.39513 1.43885 0
M  V30 3525 H 335.196 5.31935 2.77138 0
M  V30 3526 H 336.875 5.90159 2.65182 0
M  V30 3527 N 337.007 -0.598083 1.45811 0
M  V30 3528 C 338.255 -1.35413 1.50026 0
M  V30 3529 C 338.576 -1.94444 0.147177 0
M  V30 3530 O 337.846 -1.77701 -0.824571 0
M  V30 3531 H 336.426 -0.502727 0.552517 0
M  V30 3532 H 339.088 -0.701606 1.81834 0
M  V30 3533 H 338.184 -2.16871 2.2444 0
M  V30 3534 N 338.485 -1.33259 -0.841409 0
M  V30 3535 C 339.725 -1.25902 -1.61022 0
M  V30 3536 C 340.089 0.173325 -1.91216 0
M  V30 3537 O 341.29 0.370824 -2.6623 0
M  V30 3538 C 339.561 -2.10735 -2.88662 0
M  V30 3539 S 341.12 -2.20541 -3.79351 0
M  V30 3540 H 337.938 -0.447958 -0.552137 0
M  V30 3541 H 340.54 -1.68263 -0.995382 0
M  V30 3542 H 339.244 -3.1384 -2.64448 0
M  V30 3543 H 338.775 -1.69201 -3.55154 0
M  V30 3544 H 340.79 -1.36462 -4.77067 0
M  V30 3545 N 339.963 1.05934 -1.16686 0
M  V30 3546 C 341.188 1.83029 -0.975455 0
M  V30 3547 C 341.613 1.82096 0.471452 0
M  V30 3548 O 340.971 1.22443 1.33706 0
M  V30 3549 C 341.019 3.27372 -1.51195 0
M  V30 3550 O 340.123 4.06054 -0.720701 0
M  V30 3551 H 339.464 0.566194 -0.346872 0
M  V30 3552 H 341.994 1.33541 -1.55009 0
M  V30 3553 H 342.004 3.78186 -1.53099 0
M  V30 3554 H 340.679 3.27366 -2.56523 0
M  V30 3555 H 339.256 3.64812 -0.772458 0
M  V30 3556 N 341.441 0.965919 1.2453 0
M  V30 3557 C 342.69 0.622437 1.91856 0
M  V30 3558 C 343.003 -0.846006 1.76358 0
M  V30 3559 O 344.209 -1.29993 2.38357 0
M  V30 3560 C 342.665 1.0626 3.43856 0
M  V30 3561 C 342.273 2.55437 3.68043 0
M  V30 3562 C 344.017 0.792183 4.17043 0
M  V30 3563 C 341.924 2.93196 5.13605 0
M  V30 3564 H 340.854 0.229092 0.718354 0
M  V30 3565 H 343.505 1.17189 1.41206 0
M  V30 3566 H 341.887 0.441476 3.93531 0
M  V30 3567 H 343.061 3.22665 3.28974 0
M  V30 3568 H 341.376 2.8007 3.08139 0
M  V30 3569 H 343.973 1.05031 5.24283 0
M  V30 3570 H 344.316 -0.271584 4.15413 0
M  V30 3571 H 344.849 1.37419 3.73311 0
M  V30 3572 H 341.588 3.98636 5.20355 0
M  V30 3573 H 341.108 2.30651 5.53679 0
M  V30 3574 H 342.787 2.83004 5.81823 0
M  V30 3575 N 342.919 -1.39368 0.735821 0
M  V30 3576 C 343.851 -2.2913 0.0567723 0
M  V30 3577 C 344.864 -1.46859 -0.702589 0
M  V30 3578 O 346.053 -1.69925 -0.546616 0
M  V30 3579 C 343.153 -3.25492 -0.943823 0
M  V30 3580 C 342.326 -4.36709 -0.24581 0
M  V30 3581 C 341.385 -5.13376 -1.15463 0
M  V30 3582 O 340.411 -5.65683 -0.631803 0
M  V30 3583 N 341.613 -5.24656 -2.48427 0
M  V30 3584 H 344.378 -2.88047 0.827582 0
M  V30 3585 H 341.939 -1.50957 0.585112 0
M  V30 3586 H 343.931 -3.73657 -1.55443 0
M  V30 3587 H 342.501 -2.676 -1.61583 0
M  V30 3588 H 341.721 -3.9041 0.545286 0
M  V30 3589 H 343.009 -5.08244 0.237891 0
M  V30 3590 H 342.407 -4.83679 -2.93379 0
M  V30 3591 H 340.964 -5.76258 -3.04582 0
M  V30 3592 N 344.397 -0.483516 -1.5 0
M  V30 3593 C 345.327 0.293829 -2.31644 0
M  V30 3594 C 346.308 0.978864 -1.39112 0
M  V30 3595 O 347.493 0.973644 -1.68029 0
M  V30 3596 C 344.623 1.36897 -3.19181 0
M  V30 3597 C 343.577 0.804833 -4.20365 0
M  V30 3598 C 342.903 1.9792 -4.96721 0
M  V30 3599 C 344.203 -0.192313 -5.21946 0
M  V30 3600 H 345.897 -0.387616 -2.9688 0
M  V30 3601 H 343.443 -0.187856 -1.42769 0
M  V30 3602 H 345.396 1.92037 -3.751 0
M  V30 3603 H 344.12 2.07936 -2.51853 0
M  V30 3604 H 342.779 0.275319 -3.65565 0
M  V30 3605 H 342.427 2.67686 -4.25856 0
M  V30 3606 H 342.127 1.60789 -5.65173 0
M  V30 3607 H 343.651 2.53526 -5.55479 0
M  V30 3608 H 345.065 0.270333 -5.72662 0
M  V30 3609 H 343.462 -0.478543 -5.98189 0
M  V30 3610 H 344.532 -1.11409 -4.71928 0
M  V30 3611 N 345.875 1.56104 -0.216619 0
M  V30 3612 C 347.121 1.98466 0.417033 0
M  V30 3613 C 347.454 1.10403 1.59765 0
M  V30 3614 O 346.729 0.160632 1.93836 0
M  V30 3615 C 347.012 3.49769 0.85637 0
M  V30 3616 C 346.865 4.48606 -0.327546 0
M  V30 3617 C 348.184 4.05339 1.7143 0
M  V30 3618 H 345.303 0.721551 0.150112 0
M  V30 3619 H 347.945 1.87423 -0.311864 0
M  V30 3620 H 346.095 3.5931 1.47745 0
M  V30 3621 H 347.767 4.5108 -0.965618 0
M  V30 3622 H 346.01 4.22682 -0.975805 0
M  V30 3623 H 346.681 5.51995 0.0227149 0
M  V30 3624 H 349.157 3.98712 1.19031 0
M  V30 3625 H 348.033 5.11533 1.99061 0
M  V30 3626 H 348.294 3.51918 2.67593 0
M  V30 3627 N 347.353 -0.0568162 1.57498 0
M  V30 3628 C 348.263 -1.08346 2.08083 0
M  V30 3629 C 349.279 -1.41439 1.01346 0
M  V30 3630 O 350.455 -1.51316 1.32912 0
M  V30 3631 C 347.52 -2.37352 2.52715 0
M  V30 3632 C 346.581 -2.11093 3.73816 0
M  V30 3633 C 345.814 -3.33949 4.1631 0
M  V30 3634 O 346.037 -4.43622 3.58547 0
M  V30 3635 O 344.971 -3.21279 5.08983 0
M  V30 3636 H 348.797 -0.683667 2.95905 0
M  V30 3637 H 346.382 -0.271965 1.46904 0
M  V30 3638 H 348.264 -3.13246 2.81877 0
M  V30 3639 H 346.939 -2.76681 1.68016 0
M  V30 3640 H 345.846 -1.32856 3.49714 0
M  V30 3641 H 347.179 -1.76637 4.59413 0
M  V30 3642 N 348.832 -1.54138 -0.328536 0
M  V30 3643 C 350.078 -1.7236 -1.06865 0
M  V30 3644 C 350.411 -0.493231 -1.87832 0
M  V30 3645 O 349.686 0.5098 -1.877 0
M  V30 3646 C 349.969 -2.99621 -1.99747 0
M  V30 3647 C 349.822 -4.32899 -1.22143 0
M  V30 3648 C 351.141 -3.22615 -2.99345 0
M  V30 3649 H 348.26 -0.627151 -0.387105 0
M  V30 3650 H 350.902 -1.86827 -0.345767 0
M  V30 3651 H 349.052 -2.87418 -2.61387 0
M  V30 3652 H 350.724 -4.56978 -0.630017 0
M  V30 3653 H 348.967 -4.30628 -0.523628 0
M  V30 3654 H 349.638 -5.18154 -1.90318 0
M  V30 3655 H 352.114 -3.34248 -2.47826 0
M  V30 3656 H 350.99 -4.13027 -3.61524 0
M  V30 3657 H 351.251 -2.3961 -3.71536 0
M  V30 3658 N 350.31 0.590341 -1.46126 0
M  V30 3659 C 351.721 1.17243 -1.45296 0
M  V30 3660 C 352.072 1.95281 -0.189723 0
M  V30 3661 O 351.197 2.04502 0.707674 0
M  V30 3662 C 351.792 2.13284 -2.6324 0
M  V30 3663 C 350.351 2.66832 -2.65476 0
M  V30 3664 C 349.498 1.42557 -2.3785 0
M  V30 3665 H 352.449 0.378692 -1.54116 0
M  V30 3666 H 352.47 2.96619 -2.38323 0
M  V30 3667 H 351.982 1.56459 -3.55165 0
M  V30 3668 H 350.083 3.27548 -1.77603 0
M  V30 3669 H 350.196 3.10088 -3.65215 0
M  V30 3670 H 348.56 1.72107 -1.87753 0
M  V30 3671 H 349.343 0.875741 -3.31942 0
M  V30 3672 N 351.788 1.33704 0.83433 0
M  V30 3673 C 352.72 1.20172 1.9517 0
M  V30 3674 C 353.733 0.131572 1.62267 0
M  V30 3675 O 354.922 0.382406 1.74356 0
M  V30 3676 C 352.022 0.821716 3.28787 0
M  V30 3677 C 351.195 1.98446 3.89792 0
M  V30 3678 C 350.254 1.58469 5.01771 0
M  V30 3679 O 349.28 2.29968 5.20676 0
M  V30 3680 N 350.482 0.492291 5.78409 0
M  V30 3681 H 353.247 2.16429 2.07313 0
M  V30 3682 H 350.808 1.26509 1.0103 0
M  V30 3683 H 352.8 0.536291 4.01131 0
M  V30 3684 H 351.37 -0.0503058 3.1256 0
M  V30 3685 H 350.59 2.43526 3.09982 0
M  V30 3686 H 351.878 2.76236 4.27283 0
M  V30 3687 H 351.276 -0.102349 5.65607 0
M  V30 3688 H 349.833 0.266555 6.51255 0
M  V30 3689 N 353.266 -1.05314 1.17247 0
M  V30 3690 C 354.491 -1.82509 0.985148 0
M  V30 3691 C 354.916 -1.82343 -0.461788 0
M  V30 3692 O 354.274 -1.23151 -1.33055 0
M  V30 3693 C 354.322 -3.26566 1.52929 0
M  V30 3694 O 353.426 -4.05666 0.742225 0
M  V30 3695 H 352.767 -0.564347 0.349869 0
M  V30 3696 H 355.297 -1.32718 1.55715 0
M  V30 3697 H 355.307 -3.77369 1.55103 0
M  V30 3698 H 353.982 -3.26001 2.58256 0
M  V30 3699 H 352.559 -3.64397 0.791794 0
M  V30 3700 N 354.744 -0.972509 -1.24016 0
M  V30 3701 C 355.969 -0.654417 -1.96805 0
M  V30 3702 C 356.394 0.770398 -1.716 0
M  V30 3703 O 355.752 1.52361 -0.982647 0
M  V30 3704 C 355.8 -0.941031 -3.48105 0
M  V30 3705 O 354.904 -0.0289472 -4.1239 0
M  V30 3706 H 354.245 -0.24692 -0.616382 0
M  V30 3707 H 356.775 -1.30396 -1.57664 0
M  V30 3708 H 356.785 -0.87452 -3.98517 0
M  V30 3709 H 355.46 -1.97939 -3.65777 0
M  V30 3710 H 354.037 -0.149192 -3.72601 0
M  V30 3711 N 356.222 1.38976 -0.743202 0
M  V30 3712 C 357.17 2.32394 -0.0978389 0
M  V30 3713 C 358.164 1.53486 0.716824 0
M  V30 3714 O 359.37 1.69092 0.617088 0
M  V30 3715 H 355.745 0.75189 -0.0128402 0
M  V30 3716 H 357.716 2.84441 -0.901981 0
M  V30 3717 C 356.465 3.38629 0.789036 0
M  V30 3718 H 355.788 3.99432 0.171559 0
M  V30 3719 H 357.228 4.06426 1.20807 0
M  V30 3720 C 355.687 2.76347 1.92702 0
M  V30 3721 O 356.217 2.64836 3.02034 0
M  V30 3722 N 354.423 2.34311 1.71891 0
M  V30 3723 H 353.97 2.43873 0.829675 0
M  V30 3724 H 353.928 1.9298 2.48205 0
M  V30 3725 N 357.7 0.491464 1.49741 0
M  V30 3726 C 358.928 -0.0535151 2.06831 0
M  V30 3727 C 359.343 -1.31683 1.35296 0
M  V30 3728 O 358.7 -1.77402 0.42836 0
M  V30 3729 C 358.751 -0.320835 3.60073 0
M  V30 3730 O 358.472 0.892394 4.28915 0
M  V30 3731 C 359.973 -0.910519 4.33848 0
M  V30 3732 H 357.193 0.0161909 0.670805 0
M  V30 3733 H 359.737 0.68609 1.92647 0
M  V30 3734 H 357.892 -1.0104 3.73991 0
M  V30 3735 H 358.306 0.649401 5.20464 0
M  V30 3736 H 359.78 -1.04721 5.41976 0
M  V30 3737 H 360.257 -1.90589 3.95692 0
M  V30 3738 H 360.863 -0.258712 4.24512 0
M  V30 3739 N 359.178 -1.55987 0.224894 0
M  V30 3740 C 360.403 -2.03232 -0.41369 0
M  V30 3741 C 360.828 -1.10359 -1.52323 0
M  V30 3742 O 360.186 -0.092395 -1.81064 0
M  V30 3743 C 360.234 -3.48682 -0.919405 0
M  V30 3744 O 359.338 -3.58947 -2.03054 0
M  V30 3745 H 358.679 -0.657428 -0.0931903 0
M  V30 3746 H 361.209 -2.01679 0.34451 0
M  V30 3747 H 361.219 -3.8907 -1.22835 0
M  V30 3748 H 359.894 -4.15761 -0.107339 0
M  V30 3749 H 358.471 -3.30448 -1.72796 0
M  V30 3750 N 360.656 0.0484629 -1.57525 0
M  V30 3751 C 361.586 1.0549 -2.08313 0
M  V30 3752 C 362.567 1.38929 -0.981463 0
M  V30 3753 O 363.752 1.48151 -1.25558 0
M  V30 3754 C 360.882 2.36162 -2.54646 0
M  V30 3755 C 359.836 2.17016 -3.68901 0
M  V30 3756 C 359.162 3.53278 -4.01371 0
M  V30 3757 C 360.462 1.57219 -4.98076 0
M  V30 3758 H 362.156 0.632195 -2.92649 0
M  V30 3759 H 359.702 0.302654 -1.40784 0
M  V30 3760 H 361.655 3.06882 -2.88793 0
M  V30 3761 H 360.379 2.80456 -1.67368 0
M  V30 3762 H 359.038 1.48733 -3.35073 0
M  V30 3763 H 358.686 3.95185 -3.11188 0
M  V30 3764 H 358.386 3.41299 -4.78318 0
M  V30 3765 H 359.91 4.25391 -4.38035 0
M  V30 3766 H 361.324 2.17832 -5.30304 0
M  V30 3767 H 359.721 1.55871 -5.79503 0
M  V30 3768 H 360.791 0.535956 -4.81929 0
M  V30 3769 N 362.134 1.5431 0.320358 0
M  V30 3770 C 363.097 1.83195 1.3774 0
M  V30 3771 C 364.097 0.703906 1.44575 0
M  V30 3772 O 365.287 0.972214 1.44546 0
M  V30 3773 C 362.419 1.99487 2.76438 0
M  V30 3774 H 363.612 2.77642 1.1338 0
M  V30 3775 H 361.165 1.46076 0.556012 0
M  V30 3776 H 361.9 1.07262 3.06048 0
M  V30 3777 H 361.685 2.81575 2.7287 0
M  V30 3778 H 363.175 2.23271 3.52902 0
M  V30 3779 N 363.613 -0.582584 1.46437 0
M  V30 3780 C 364.838 -1.37168 1.55563 0
M  V30 3781 C 365.263 -1.87061 0.19743 0
M  V30 3782 O 364.621 -1.61572 -0.822451 0
M  V30 3783 C 364.669 -2.53511 2.56446 0
M  V30 3784 O 363.773 -3.54953 2.09958 0
M  V30 3785 H 363.114 -0.408494 0.523477 0
M  V30 3786 H 365.644 -0.706646 1.9201 0
M  V30 3787 H 365.654 -3.00426 2.76058 0
M  V30 3788 H 364.329 -2.16549 3.55076 0
M  V30 3789 H 362.906 -3.14516 2.00334 0
M  V30 3790 N 365.091 -1.34144 -0.827227 0
M  V30 3791 C 366.338 -1.26258 -1.58319 0
M  V30 3792 C 366.666 0.168595 -1.93768 0
M  V30 3793 O 365.921 1.12877 -1.59866 0
M  V30 3794 C 366.22 -2.09464 -2.89585 0
M  V30 3795 C 365.886 -3.58521 -2.73448 0
M  V30 3796 C 364.548 -3.99155 -2.68754 0
M  V30 3797 C 366.9 -4.53189 -2.57428 0
M  V30 3798 C 364.228 -5.32656 -2.45957 0
M  V30 3799 C 366.58 -5.86864 -2.36163 0
M  V30 3800 C 365.244 -6.26667 -2.29879 0
M  V30 3801 H 364.514 -0.462013 -0.579332 0
M  V30 3802 H 367.161 -1.65845 -0.95748 0
M  V30 3803 H 365.466 -1.62692 -3.56425 0
M  V30 3804 H 367.163 -2.00712 -3.47154 0
M  V30 3805 H 363.753 -3.26264 -2.77939 0
M  V30 3806 H 367.937 -4.22696 -2.60081 0
M  V30 3807 H 363.193 -5.62519 -2.39546 0
M  V30 3808 H 367.367 -6.59813 -2.22754 0
M  V30 3809 H 364.994 -7.30049 -2.11975 0
M  V30 3810 N 366.569 1.04691 -1.17803 0
M  V30 3811 C 367.809 1.79352 -0.980423 0
M  V30 3812 C 368.173 1.85853 0.481958 0
M  V30 3813 O 369.374 2.56656 0.798809 0
M  V30 3814 C 367.645 3.19088 -1.6099 0
M  V30 3815 S 369.204 4.10164 -1.55918 0
M  V30 3816 H 366.022 0.617631 -0.352211 0
M  V30 3817 H 368.624 1.25575 -1.49837 0
M  V30 3818 H 367.328 3.11962 -2.66661 0
M  V30 3819 H 366.859 3.77941 -1.09197 0
M  V30 3820 H 368.874 4.92907 -0.570685 0
M  V30 3821 N 368.047 0.979072 1.23499 0
M  V30 3822 C 368.995 0.510604 2.26926 0
M  V30 3823 C 369.989 -0.431691 1.63807 0
M  V30 3824 O 371.195 -0.30573 1.77385 0
M  V30 3825 H 367.57 0.146688 0.737554 0
M  V30 3826 H 369.541 1.39466 2.63803 0
M  V30 3827 C 368.29 -0.172658 3.47271 0
M  V30 3828 H 367.613 0.543331 3.96091 0
M  V30 3829 H 369.053 -0.464101 4.21452 0
M  V30 3830 C 367.512 -1.40345 3.06276 0
M  V30 3831 O 368.042 -2.49978 3.14442 0
M  V30 3832 N 366.248 -1.27362 2.61203 0
M  V30 3833 H 365.795 -0.381584 2.54758 0
M  V30 3834 H 365.753 -2.09822 2.34141 0
M  V30 3835 N 369.525 -1.3858 0.750561 0
M  V30 3836 C 370.472 -2.30483 0.120835 0
M  V30 3837 C 371.442 -1.50022 -0.712923 0
M  V30 3838 O 372.627 -1.78662 -0.669676 0
M  V30 3839 C 369.767 -3.36431 -0.768666 0
M  V30 3840 C 368.88 -4.31927 0.0793922 0
M  V30 3841 C 368.015 -5.24944 -0.81283 0
M  V30 3842 C 367.054 -6.12088 0.0390447 0
M  V30 3843 N 366.191 -6.97412 -0.809969 0
M  V30 3844 H 371.031 -2.83761 0.91015 0
M  V30 3845 H 368.568 -1.39707 0.460463 0
M  V30 3846 H 370.526 -3.96462 -1.29898 0
M  V30 3847 H 369.156 -2.8457 -1.5238 0
M  V30 3848 H 368.208 -3.73382 0.727303 0
M  V30 3849 H 369.52 -4.93319 0.737401 0
M  V30 3850 H 368.674 -5.90078 -1.41042 0
M  V30 3851 H 367.413 -4.63911 -1.50458 0
M  V30 3852 H 366.418 -5.45952 0.649328 0
M  V30 3853 H 367.643 -6.75189 0.727809 0
M  V30 3854 H 365.589 -6.38931 -1.48672 0
M  V30 3855 H 365.506 -7.55712 -0.208789 0
M  V30 3856 H 366.774 -7.66959 -1.39263 0
M  V30 3857 N 371.003 -0.499398 -1.49478 0
M  V30 3858 C 372.249 0.0457576 -2.02748 0
M  V30 3859 C 372.582 1.36793 -1.37846 0
M  V30 3860 O 371.857 1.87596 -0.513601 0
M  V30 3861 C 372.14 0.199986 -3.59544 0
M  V30 3862 C 371.993 -1.1452 -4.34977 0
M  V30 3863 C 373.312 0.94137 -4.29914 0
M  V30 3864 H 370.431 0.0151552 -0.736844 0
M  V30 3865 H 373.073 -0.650498 -1.78518 0
M  V30 3866 H 371.223 0.793007 -3.8032 0
M  V30 3867 H 372.895 -1.77697 -4.25701 0
M  V30 3868 H 371.138 -1.73488 -3.97598 0
M  V30 3869 H 371.809 -0.990607 -5.43039 0
M  V30 3870 H 374.285 0.43844 -4.13784 0
M  V30 3871 H 373.161 1.01812 -5.39375 0
M  V30 3872 H 373.422 1.98471 -3.95046 0
M  V30 3873 N 372.481 1.55866 -0.233164 0
M  V30 3874 C 373.428 2.20796 0.67215 0
M  V30 3875 C 374.398 1.16731 1.18166 0
M  V30 3876 O 375.583 1.45129 1.23864 0
M  V30 3877 C 372.723 2.90072 1.86955 0
M  V30 3878 C 371.836 4.08759 1.39786 0
M  V30 3879 C 370.971 4.65787 2.55374 0
M  V30 3880 C 370.01 5.76752 2.04998 0
M  V30 3881 N 369.147 6.28021 3.13901 0
M  V30 3882 H 373.987 2.9779 0.111749 0
M  V30 3883 H 371.524 1.47036 0.0434007 0
M  V30 3884 H 373.482 3.28428 2.57276 0
M  V30 3885 H 372.112 2.15575 2.40265 0
M  V30 3886 H 371.164 3.7581 0.589173 0
M  V30 3887 H 372.476 4.88906 0.98856 0
M  V30 3888 H 371.63 5.06646 3.33758 0
M  V30 3889 H 370.369 3.84828 2.99598 0
M  V30 3890 H 369.374 5.35383 1.25079 0
M  V30 3891 H 370.599 6.59553 1.61759 0
M  V30 3892 H 368.545 5.49971 3.57586 0
M  V30 3893 H 368.462 7.03323 2.7726 0
M  V30 3894 H 369.73 6.73538 3.92386 0
M  V30 3895 N 373.959 -0.0401083 1.57549 0
M  V30 3896 C 374.906 -1.04413 2.05831 0
M  V30 3897 C 375.876 -1.36585 0.945184 0
M  V30 3898 O 377.061 -1.47112 1.21502 0
M  V30 3899 C 374.201 -2.34336 2.53339 0
M  V30 3900 C 373.314 -2.08419 3.78398 0
M  V30 3901 C 372.449 -3.32133 4.14561 0
M  V30 3902 C 371.488 -3.01721 5.3257 0
M  V30 3903 N 370.625 -4.17855 5.64218 0
M  V30 3904 H 375.465 -0.625442 2.91363 0
M  V30 3905 H 373.002 -0.297218 1.44066 0
M  V30 3906 H 374.96 -3.10234 2.78946 0
M  V30 3907 H 373.59 -2.73948 1.7074 0
M  V30 3908 H 372.642 -1.23069 3.59942 0
M  V30 3909 H 373.954 -1.81978 4.64419 0
M  V30 3910 H 373.108 -4.16406 4.41238 0
M  V30 3911 H 371.847 -3.61678 3.2717 0
M  V30 3912 H 370.852 -2.15849 5.05657 0
M  V30 3913 H 372.077 -2.73466 6.21605 0
M  V30 3914 H 370.023 -4.47372 4.79786 0
M  V30 3915 H 369.94 -3.94798 6.44725 0
M  V30 3916 H 371.208 -5.03033 5.95465 0
M  V30 3917 N 375.437 -1.54477 -0.31217 0
M  V30 3918 C 376.686 -1.72438 -1.04633 0
M  V30 3919 C 376.999 -0.511163 -1.88803 0
M  V30 3920 O 378.205 -0.572341 -2.65399 0
M  V30 3921 C 376.661 -3.05043 -1.9099 0
M  V30 3922 C 376.269 -4.33806 -1.11877 0
M  V30 3923 C 378.013 -3.32364 -2.64073 0
M  V30 3924 C 375.92 -5.57467 -1.97445 0
M  V30 3925 H 374.85 -0.642647 -0.394361 0
M  V30 3926 H 377.501 -1.80966 -0.303929 0
M  V30 3927 H 375.883 -2.90451 -2.69173 0
M  V30 3928 H 377.057 -4.59199 -0.383843 0
M  V30 3929 H 375.372 -4.13336 -0.504252 0
M  V30 3930 H 377.969 -4.21951 -3.28423 0
M  V30 3931 H 378.312 -2.50745 -3.32314 0
M  V30 3932 H 378.845 -3.47875 -1.92944 0
M  V30 3933 H 375.584 -6.41722 -1.33692 0
M  V30 3934 H 375.104 -5.36277 -2.6864 0
M  V30 3935 H 376.783 -5.94303 -2.5576 0
M  V30 3936 N 376.915 0.57481 -1.46744 0
M  V30 3937 C 378.331 0.898981 -1.31873 0
M  V30 3938 C 378.531 1.99313 -0.29605 0
M  V30 3939 O 377.587 2.50728 0.298621 0
M  V30 3940 C 378.9 1.30886 -2.7072 0
M  V30 3941 C 380.448 1.42127 -2.78871 0
M  V30 3942 C 380.923 1.86478 -4.18318 0
M  V30 3943 N 382.414 1.93658 -4.20774 0
M  V30 3944 C 383.149 2.29267 -5.2557 0
M  V30 3945 N 382.645 2.63612 -6.40688 0
M  V30 3946 N 384.438 2.29889 -5.1294 0
M  V30 3947 H 376.589 -0.147839 -2.11885 0
M  V30 3948 H 378.852 -0.00347013 -0.947994 0
M  V30 3949 H 378.558 0.578853 -3.46904 0
M  V30 3950 H 378.432 2.26874 -3.01343 0
M  V30 3951 H 380.819 2.14213 -2.0297 0
M  V30 3952 H 380.9 0.443705 -2.51922 0
M  V30 3953 H 380.544 1.14968 -4.94717 0
M  V30 3954 H 380.474 2.85207 -4.42679 0
M  V30 3955 H 382.965 1.69574 -3.37718 0
M  V30 3956 H 383.278 2.89759 -7.16421 0
M  V30 3957 H 381.623 2.61232 -6.44036 0
M  V30 3958 H 384.814 2.02485 -4.22039 0
M  V30 3959 H 384.987 2.57312 -5.94722 0
M  V30 3960 N 378.394 1.34581 0.820102 0
M  V30 3961 C 379.304 1.28471 1.96297 0
M  V30 3962 C 380.32 0.191902 1.72939 0
M  V30 3963 O 381.496 0.418879 1.96996 0
M  V30 3964 C 378.561 1.04281 3.30645 0
M  V30 3965 C 377.622 2.22745 3.66992 0
M  V30 3966 C 376.855 1.997 4.9493 0
M  V30 3967 O 377.078 0.956656 5.6232 0
M  V30 3968 O 376.012 2.86723 5.2922 0
M  V30 3969 H 379.838 2.24624 2.04396 0
M  V30 3970 H 377.423 1.14816 0.955913 0
M  V30 3971 H 379.305 0.925841 4.11104 0
M  V30 3972 H 377.98 0.111697 3.23507 0
M  V30 3973 H 376.887 2.40003 2.86966 0
M  V30 3974 H 378.22 3.14257 3.78819 0
M  V30 3975 N 379.872 -1.04064 1.18357 0
M  V30 3976 C 381.288 -1.2947 0.933258 0
M  V30 3977 C 381.488 -1.97466 -0.401169 0
M  V30 3978 O 380.544 -2.25528 -1.13549 0
M  V30 3979 C 381.857 -2.15337 2.09882 0
M  V30 3980 C 383.405 -2.28683 2.13712 0
M  V30 3981 C 383.88 -3.17917 3.29686 0
M  V30 3982 N 385.371 -3.25504 3.29547 0
M  V30 3983 C 386.106 -3.94706 4.15926 0
M  V30 3984 N 385.602 -4.66239 5.12439 0
M  V30 3985 N 387.395 -3.90986 4.0384 0
M  V30 3986 H 379.546 -0.583359 2.04232 0
M  V30 3987 H 381.809 -0.319921 0.892387 0
M  V30 3988 H 381.515 -1.72682 3.06389 0
M  V30 3989 H 381.389 -3.16015 2.05947 0
M  V30 3990 H 383.776 -2.70575 1.17784 0
M  V30 3991 H 383.857 -1.27596 2.21705 0
M  V30 3992 H 383.501 -2.76736 4.25887 0
M  V30 3993 H 383.431 -4.19036 3.1893 0
M  V30 3994 H 385.922 -2.74547 2.59677 0
M  V30 3995 H 386.235 -5.16638 5.74722 0
M  V30 3996 H 384.58 -4.65143 5.16398 0
M  V30 3997 H 387.771 -3.34234 3.27727 0
M  V30 3998 H 387.944 -4.44646 4.71375 0
M  V30 3999 N 381.35 -0.985608 -1.22978 0
M  V30 4000 C 382.58 -0.674603 -1.95276 0
M  V30 4001 C 382.988 0.763483 -1.73111 0
M  V30 4002 O 382.331 1.52601 -1.02268 0
M  V30 4003 C 382.393 -0.891597 -3.48268 0
M  V30 4004 C 382.057 -2.31275 -3.94158 0
M  V30 4005 C 383.054 -3.29179 -4.02415 0
M  V30 4006 C 380.739 -2.64524 -4.27004 0
M  V30 4007 C 382.733 -4.58407 -4.42879 0
M  V30 4008 C 380.42 -3.93974 -4.67149 0
M  V30 4009 C 381.418 -4.90727 -4.75053 0
M  V30 4010 O 381.106 -6.17865 -5.14294 0
M  V30 4011 H 380.838 -0.249251 -0.628371 0
M  V30 4012 H 383.392 -1.32106 -1.5728 0
M  V30 4013 H 381.622 -0.187962 -3.86243 0
M  V30 4014 H 383.311 -0.576957 -4.01779 0
M  V30 4015 H 384.077 -3.04823 -3.77237 0
M  V30 4016 H 379.956 -1.89923 -4.2006 0
M  V30 4017 H 383.5 -5.33926 -4.48964 0
M  V30 4018 H 379.397 -4.18122 -4.91777 0
M  V30 4019 H 380.165 -6.21694 -5.32389 0
M  V30 4020 N 382.828 1.3818 -0.7579 0
M  V30 4021 C 383.778 2.27741 -0.108674 0
M  V30 4022 C 384.762 1.45415 0.688709 0
M  V30 4023 O 385.954 1.68108 0.553956 0
M  V30 4024 C 383.083 3.34313 0.780367 0
M  V30 4025 C 382.169 4.24093 -0.0240977 0
M  V30 4026 N 382.56 4.9451 -1.06271 0
M  V30 4027 C 380.858 4.45542 0.202049 0
M  V30 4028 C 381.559 5.60675 -1.54979 0
M  V30 4029 N 380.535 5.36684 -0.864348 0
M  V30 4030 H 384.337 2.79649 -0.904071 0
M  V30 4031 H 381.851 1.51133 -0.594346 0
M  V30 4032 H 383.848 3.97368 1.26114 0
M  V30 4033 H 382.508 2.83962 1.57467 0
M  V30 4034 H 383.519 4.97345 -1.44459 0
M  V30 4035 H 380.196 4.06091 0.96935 0
M  V30 4036 H 381.586 6.26992 -2.41517 0
M  V30 4037 N 384.306 0.507319 1.49211 0
M  V30 4038 C 385.269 -0.256763 2.27757 0
M  V30 4039 C 386.269 -0.888287 1.34038 0
M  V30 4040 O 387.459 -0.751841 1.5714 0
M  V30 4041 C 384.591 -1.36905 3.12202 0
M  V30 4042 H 385.784 0.432557 2.96764 0
M  V30 4043 H 383.337 0.262488 1.5408 0
M  V30 4044 H 384.072 -2.09233 2.47775 0
M  V30 4045 H 383.857 -0.921599 3.81115 0
M  V30 4046 H 385.347 -1.9071 3.7151 0
M  V30 4047 N 385.784 -1.5574 0.241426 0
M  V30 4048 C 386.747 -2.19877 -0.647063 0
M  V30 4049 C 387.747 -1.16642 -1.10686 0
M  V30 4050 O 388.937 -1.41757 -1.01245 0
M  V30 4051 C 386.069 -2.83797 -1.88871 0
M  V30 4052 H 387.262 -2.99772 -0.087574 0
M  V30 4053 H 384.815 -1.56298 -0.00813574 0
M  V30 4054 H 385.55 -2.07824 -2.48957 0
M  V30 4055 H 385.335 -3.59414 -1.56728 0
M  V30 4056 H 386.825 -3.32898 -2.52129 0
M  V30 4057 N 387.262 0.0317525 -1.57568 0
M  V30 4058 C 388.539 0.758366 -1.803 0
M  V30 4059 C 388.919 1.93718 -0.838845 0
M  V30 4060 O 388.267 2.28187 0.119571 0
M  V30 4061 C 388.477 1.19392 -3.27943 0
M  V30 4062 C 389.825 1.61094 -3.92854 0
M  V30 4063 O 390.849 1.28857 -3.32076 0
M  V30 4064 O 389.708 2.20918 -4.99858 0
M  V30 4065 H 386.802 0.366514 -0.741348 0
M  V30 4066 H 389.348 0.00873765 -1.69698 0
M  V30 4067 H 388.12 0.352275 -3.89711 0
M  V30 4068 H 387.743 2.00365 -3.43424 0
M  V30 4069 N 388.74 1.54641 0.303973 0
M  V30 4070 C 389.986 1.74038 1.04109 0
M  V30 4071 C 390.319 0.523051 1.87024 0
M  V30 4072 O 389.594 -0.479874 1.88487 0
M  V30 4073 C 389.877 3.02761 1.94955 0
M  V30 4074 C 389.73 4.34787 1.1524 0
M  V30 4075 C 391.049 3.27336 2.94175 0
M  V30 4076 H 388.168 0.63323 0.377079 0
M  V30 4077 H 390.81 1.87354 0.316001 0
M  V30 4078 H 388.96 2.9154 2.56782 0
M  V30 4079 H 390.632 4.57922 0.557236 0
M  V30 4080 H 388.875 4.31407 0.455053 0
M  V30 4081 H 389.546 5.21116 1.8205 0
M  V30 4082 H 392.022 3.38148 2.42477 0
M  V30 4083 H 390.898 4.18726 3.54908 0
M  V30 4084 H 391.159 2.45491 3.67677 0
M  V30 4085 N 390.218 -0.567019 1.47046 0
M  V30 4086 C 391.166 -1.69593 1.59188 0
M  V30 4087 C 392.16 -1.63046 0.459609 0
M  V30 4088 O 393.366 -1.6835 0.637058 0
M  V30 4089 H 389.741 -0.560993 0.500791 0
M  V30 4090 H 391.712 -1.56488 2.54075 0
M  V30 4091 C 390.461 -3.07964 1.61411 0
M  V30 4092 H 389.784 -3.13679 2.47881 0
M  V30 4093 H 391.224 -3.86671 1.73958 0
M  V30 4094 C 389.683 -3.35123 0.34559 0
M  V30 4095 O 390.213 -3.97812 -0.557521 0
M  V30 4096 N 388.419 -2.89699 0.22864 0
M  V30 4097 H 387.966 -2.38863 0.964479 0
M  V30 4098 H 387.924 -3.08242 -0.619192 0
M  V30 4099 N 391.696 -1.35014 -0.812953 0
M  V30 4100 C 392.943 -1.27931 -1.56971 0
M  V30 4101 C 393.271 0.148034 -1.93936 0
M  V30 4102 O 392.526 1.11175 -1.61054 0
M  V30 4103 C 392.825 -2.12524 -2.87347 0
M  V30 4104 C 392.491 -3.61401 -2.6963 0
M  V30 4105 C 391.153 -4.01983 -2.64506 0
M  V30 4106 C 393.505 -4.55894 -2.52607 0
M  V30 4107 C 390.833 -5.35235 -2.40293 0
M  V30 4108 C 393.185 -5.89336 -2.29925 0
M  V30 4109 C 391.849 -6.2907 -2.23219 0
M  V30 4110 H 391.119 -0.468131 -0.574399 0
M  V30 4111 H 393.766 -1.66851 -0.939836 0
M  V30 4112 H 392.071 -1.66463 -3.54679 0
M  V30 4113 H 393.768 -2.04383 -3.45005 0
M  V30 4114 H 390.358 -3.29193 -2.74463 0
M  V30 4115 H 394.542 -4.25431 -2.55583 0
M  V30 4116 H 389.798 -5.65028 -2.33566 0
M  V30 4117 H 393.972 -6.62139 -2.15743 0
M  V30 4118 H 391.599 -7.32256 -2.04219 0
M  V30 4119 N 393.175 1.03435 -1.18907 0
M  V30 4120 C 394.123 2.13703 -0.918353 0
M  V30 4121 C 395.117 1.68947 0.123767 0
M  V30 4122 O 396.323 1.79983 -0.0249701 0
M  V30 4123 H 392.698 0.698112 -0.279542 0
M  V30 4124 H 394.669 2.33731 -1.85506 0
M  V30 4125 C 393.418 3.44542 -0.467532 0
M  V30 4126 H 392.741 3.79394 -1.26095 0
M  V30 4127 H 394.181 4.22812 -0.317164 0
M  V30 4128 C 392.64 3.26829 0.817588 0
M  V30 4129 O 393.17 3.54975 1.88031 0
M  V30 4130 N 391.376 2.80139 0.772677 0
M  V30 4131 H 390.923 2.57434 -0.0923883 0
M  V30 4132 H 390.881 2.68668 1.63294 0
M  V30 4133 N 394.653 0.992116 1.22453 0
M  V30 4134 C 395.878 0.685644 1.95739 0
M  V30 4135 C 396.303 -0.743 1.72804 0
M  V30 4136 O 395.661 -1.50778 1.00676 0
M  V30 4137 C 395.709 0.996293 3.46564 0
M  V30 4138 O 394.813 0.0945512 4.12292 0
M  V30 4139 H 394.154 0.256694 0.612376 0
M  V30 4140 H 396.684 1.32888 1.5557 0
M  V30 4141 H 396.694 0.93781 3.97076 0
M  V30 4142 H 395.369 2.03733 3.62582 0
M  V30 4143 H 393.946 0.208451 3.72317 0
M  V30 4144 N 396.131 -1.37776 0.765217 0
M  V30 4145 C 397.379 -1.99454 0.325943 0
M  V30 4146 C 397.7 -1.61049 -1.09947 0
M  V30 4147 O 396.97 -0.872821 -1.75381 0
M  V30 4148 H 395.55 -0.737697 0.117525 0
M  V30 4149 H 398.212 -1.68359 0.981895 0
M  V30 4150 H 397.308 -3.09547 0.398353 0
M  V30 4151 N 397.609 -0.515225 -1.4894 0
M  V30 4152 C 398.556 0.255567 -2.29381 0
M  V30 4153 C 399.526 0.947387 -1.36432 0
M  V30 4154 O 400.711 0.951288 -1.65394 0
M  V30 4155 C 397.851 1.30551 -3.19453 0
M  V30 4156 C 396.964 0.624029 -4.27469 0
M  V30 4157 C 396.099 1.65563 -5.0474 0
M  V30 4158 C 395.138 0.956802 -6.04576 0
M  V30 4159 N 394.275 1.93326 -6.74959 0
M  V30 4160 H 399.115 -0.436607 -2.94784 0
M  V30 4161 H 396.652 -0.227154 -1.45336 0
M  V30 4162 H 398.61 1.92639 -3.70062 0
M  V30 4163 H 397.24 1.96626 -2.56004 0
M  V30 4164 H 396.292 -0.110459 -3.8024 0
M  V30 4165 H 397.604 0.0746092 -4.98744 0
M  V30 4166 H 396.758 2.35119 -5.59289 0
M  V30 4167 H 395.497 2.23893 -4.3327 0
M  V30 4168 H 394.502 0.247097 -5.49244 0
M  V30 4169 H 395.727 0.379814 -6.78037 0
M  V30 4170 H 393.673 2.50591 -6.06251 0
M  V30 4171 H 393.59 1.43489 -7.42258 0
M  V30 4172 H 394.858 2.62126 -7.34105 0
M  V30 4173 N 399.087 1.5561 -0.249682 0
M  V30 4174 C 400.336 1.98187 0.37479 0
M  V30 4175 C 400.649 1.14111 1.58865 0
M  V30 4176 O 401.855 1.46714 2.28445 0
M  V30 4177 C 400.311 3.52661 0.718192 0
M  V30 4178 C 399.919 4.45481 -0.474428 0
M  V30 4179 C 401.663 4.03888 1.3067 0
M  V30 4180 C 399.57 5.91303 -0.107026 0
M  V30 4181 H 398.5 0.740159 0.143808 0
M  V30 4182 H 401.151 1.80125 -0.350336 0
M  V30 4183 H 399.533 3.66429 1.50152 0
M  V30 4184 H 400.707 4.43473 -1.25172 0
M  V30 4185 H 399.022 4.04751 -0.978052 0
M  V30 4186 H 401.619 5.10358 1.59496 0
M  V30 4187 H 401.962 3.51401 2.23211 0
M  V30 4188 H 402.495 3.93457 0.586211 0
M  V30 4189 H 399.234 6.47833 -0.999642 0
M  V30 4190 H 398.754 5.9644 0.634013 0
M  V30 4191 H 400.433 6.46258 0.309807 0
M  V30 4192 N 400.565 -0.0233959 1.57583 0
M  V30 4193 C 401.811 -0.708611 1.90657 0
M  V30 4194 C 402.166 -1.7266 0.848895 0
M  V30 4195 O 401.459 -1.91075 -0.141749 0
M  V30 4196 C 401.653 -1.41428 3.28227 0
M  V30 4197 C 401.482 -0.466155 4.47277 0
M  V30 4198 C 400.252 -0.085117 5.05228 0
M  V30 4199 C 402.45 0.257836 5.13653 0
M  V30 4200 N 400.432 0.863672 6.07794 0
M  V30 4201 C 401.803 1.06209 6.10835 0
M  V30 4202 C 403.858 0.324174 4.96844 0
M  V30 4203 C 402.561 1.9266 6.93018 0
M  V30 4204 C 404.587 1.17583 5.79593 0
M  V30 4205 C 403.949 1.96799 6.7635 0
M  V30 4206 H 400.048 -0.233222 0.746412 0
M  V30 4207 H 402.632 0.0314512 1.94675 0
M  V30 4208 H 400.803 -2.12477 3.25128 0
M  V30 4209 H 402.535 -2.05233 3.488 0
M  V30 4210 H 399.29 -0.448516 4.71471 0
M  V30 4211 H 399.714 1.33274 6.63752 0
M  V30 4212 H 404.356 -0.273975 4.21911 0
M  V30 4213 H 402.074 2.53552 7.67292 0
M  V30 4214 H 405.66 1.23076 5.68633 0
M  V30 4215 H 404.54 2.61635 7.39268 0
M  V30 4216 N 402.043 -1.548 -0.295768 0
M  V30 4217 C 403.268 -1.78653 -1.05346 0
M  V30 4218 C 403.693 -0.546894 -1.79974 0
M  V30 4219 O 403.051 0.502763 -1.7419 0
M  V30 4220 C 403.099 -2.99679 -2.00561 0
M  V30 4221 O 402.203 -2.7317 -3.08953 0
M  V30 4222 H 401.544 -0.59116 -0.302367 0
M  V30 4223 H 404.074 -2.01895 -0.331598 0
M  V30 4224 H 404.084 -3.27793 -2.42932 0
M  V30 4225 H 402.759 -3.89562 -1.4565 0
M  V30 4226 H 401.336 -2.56089 -2.71059 0
M  V30 4227 N 403.521 0.559213 -1.47345 0
M  V30 4228 C 404.749 1.34194 -1.57479 0
M  V30 4229 C 405.164 1.87463 -0.224261 0
M  V30 4230 O 404.521 1.64888 0.782185 0
M  V30 4231 C 404.572 2.51324 -2.59843 0
M  V30 4232 O 404.293 2.00256 -3.89653 0
M  V30 4233 C 405.794 3.43563 -2.80142 0
M  V30 4234 H 403.014 0.409136 -0.531835 0
M  V30 4235 H 405.558 0.677609 -1.92947 0
M  V30 4236 H 403.713 3.13699 -2.27314 0
M  V30 4237 H 404.127 2.76708 -4.4557 0
M  V30 4238 H 405.601 4.2217 -3.55635 0
M  V30 4239 H 406.078 3.9698 -1.87892 0
M  V30 4240 H 406.684 2.87005 -3.1386 0
M  V30 4241 N 404.999 1.35443 0.805782 0
M  V30 4242 C 406.227 1.31878 1.59423 0
M  V30 4243 C 406.642 -0.103562 1.88516 0
M  V30 4244 O 405.999 -1.05575 1.48863 0
M  V30 4245 C 406.05 2.12426 2.92502 0
M  V30 4246 O 405.771 3.49115 2.6467 0
M  V30 4247 C 407.272 2.16455 3.86862 0
M  V30 4248 H 404.492 0.453002 0.495005 0
M  V30 4249 H 407.036 1.78309 1.00131 0
M  V30 4250 H 405.191 1.69593 3.48306 0
M  V30 4251 H 405.605 3.90957 3.49647 0
M  V30 4252 H 407.079 2.77204 4.77349 0
M  V30 4253 H 407.556 1.16352 4.23508 0
M  V30 4254 H 408.162 2.59453 3.36993 0
M  V30 4255 N 406.477 -1.02803 1.19454 0
M  V30 4256 C 407.705 -1.79841 1.02297 0
M  V30 4257 C 408.12 -1.83879 -0.428259 0
M  V30 4258 O 407.477 -1.28345 -1.29745 0
M  V30 4259 C 407.528 -3.24852 1.58598 0
M  V30 4260 O 407.249 -3.21097 2.98041 0
M  V30 4261 C 408.75 -4.18485 1.46236 0
M  V30 4262 H 405.97 -0.565936 0.360496 0
M  V30 4263 H 408.514 -1.2948 1.58288 0
M  V30 4264 H 406.669 -3.72401 1.06753 0
M  V30 4265 H 407.083 -4.12033 3.24545 0
M  V30 4266 H 408.557 -5.18121 1.90407 0
M  V30 4267 H 409.034 -4.37254 0.41301 0
M  V30 4268 H 409.64 -3.76811 1.97215 0
M  V30 4269 N 407.956 -0.998596 -1.21925 0
M  V30 4270 C 408.919 -0.558679 -2.22287 0
M  V30 4271 C 409.919 0.361525 -1.56683 0
M  V30 4272 O 411.109 0.152695 -1.73529 0
M  V30 4273 C 408.241 0.18661 -3.40389 0
M  V30 4274 H 409.434 -1.4463 -2.62721 0
M  V30 4275 H 406.987 -0.786413 -1.35075 0
M  V30 4276 H 407.722 1.08996 -3.05435 0
M  V30 4277 H 407.507 -0.474188 -3.89222 0
M  V30 4278 H 408.997 0.482367 -4.14805 0
M  V30 4279 N 409.434 1.37368 -0.772513 0
M  V30 4280 C 410.681 1.99673 -0.337182 0
M  V30 4281 C 411.009 1.61324 1.0865 0
M  V30 4282 O 410.264 0.851377 1.7621 0
M  V30 4283 C 410.563 3.54817 -0.428876 0
M  V30 4284 C 410.229 4.12936 -1.81092 0
M  V30 4285 C 408.891 4.28523 -2.1891 0
M  V30 4286 C 411.243 4.44801 -2.71664 0
M  V30 4287 C 408.571 4.73277 -3.46735 0
M  V30 4288 C 410.923 4.90981 -3.98899 0
M  V30 4289 C 409.587 5.04773 -4.36761 0
M  V30 4290 H 408.857 0.730656 -0.123384 0
M  V30 4291 H 411.504 1.64124 -0.986686 0
M  V30 4292 H 409.809 3.90618 0.304167 0
M  V30 4293 H 411.506 4.00933 -0.0733334 0
M  V30 4294 H 408.096 4.01233 -1.50699 0
M  V30 4295 H 412.28 4.32344 -2.43706 0
M  V30 4296 H 407.536 4.82142 -3.75964 0
M  V30 4297 H 411.71 5.14603 -4.69208 0
M  V30 4298 H 409.337 5.39211 -5.35868 0
M  V30 4299 N 410.912 0.523116 1.48665 0
M  V30 4300 C 412.323 0.0808997 1.86525 0
M  V30 4301 C 412.674 -1.33975 1.43336 0
M  V30 4302 O 411.799 -2.00221 0.821009 0
M  V30 4303 C 412.394 0.140037 3.3851 0
M  V30 4304 C 410.953 -0.246948 3.75589 0
M  V30 4305 C 410.1 0.502845 2.72703 0
M  V30 4306 H 413.051 0.734736 1.40667 0
M  V30 4307 H 413.072 -0.649945 3.74908 0
M  V30 4308 H 412.584 1.17412 3.69914 0
M  V30 4309 H 410.685 -1.28343 3.49798 0
M  V30 4310 H 410.798 0.0878859 4.79019 0
M  V30 4311 H 409.162 -0.0500581 2.54651 0
M  V30 4312 H 409.945 1.53743 3.0695 0
M  V30 4313 N 412.39 -1.55475 0.257931 0
M  V30 4314 C 413.62 -2.03314 -0.367026 0
M  V30 4315 C 414.028 -1.13625 -1.51281 0
M  V30 4316 O 413.371 -0.145334 -1.83124 0
M  V30 4317 C 413.433 -3.47362 -0.926284 0
M  V30 4318 C 413.097 -4.56914 0.0886584 0
M  V30 4319 C 414.094 -5.12013 0.902123 0
M  V30 4320 C 411.779 -5.01827 0.217936 0
M  V30 4321 C 413.773 -6.10529 1.83122 0
M  V30 4322 C 411.46 -6.00172 1.15052 0
M  V30 4323 C 412.458 -6.54402 1.95568 0
M  V30 4324 O 412.146 -7.50827 2.87253 0
M  V30 4325 H 411.878 -0.669976 -0.0900443 0
M  V30 4326 H 414.432 -2.01804 0.382673 0
M  V30 4327 H 412.662 -3.46056 -1.72575 0
M  V30 4328 H 414.351 -3.78637 -1.46249 0
M  V30 4329 H 415.117 -4.78139 0.812891 0
M  V30 4330 H 410.996 -4.59272 -0.398721 0
M  V30 4331 H 414.54 -6.52783 2.46008 0
M  V30 4332 H 410.437 -6.33465 1.24064 0
M  V30 4333 H 411.205 -7.68483 2.81739 0
M  V30 4334 N 413.868 0.0150385 -1.57593 0
M  V30 4335 C 414.8 1.03912 -2.04291 0
M  V30 4336 C 415.813 1.31618 -0.958146 0
M  V30 4337 O 417.002 1.28859 -1.23522 0
M  V30 4338 C 414.102 2.37749 -2.41514 0
M  V30 4339 C 413.275 2.29198 -3.72541 0
M  V30 4340 C 412.334 3.45598 -3.96797 0
M  V30 4341 O 411.36 3.24461 -4.67668 0
M  V30 4342 N 412.562 4.67945 -3.43523 0
M  V30 4343 H 415.327 0.64099 -2.92765 0
M  V30 4344 H 412.888 0.20272 -1.60626 0
M  V30 4345 H 414.88 3.14364 -2.54867 0
M  V30 4346 H 413.45 2.69357 -1.58637 0
M  V30 4347 H 412.67 1.3759 -3.69408 0
M  V30 4348 H 413.958 2.20642 -4.5847 0
M  V30 4349 H 413.356 4.88017 -2.86104 0
M  V30 4350 H 411.913 5.41878 -3.62232 0
M  V30 4351 N 415.346 1.54954 0.287554 0
M  V30 4352 C 416.276 1.89839 1.35954 0
M  V30 4353 C 417.257 0.758675 1.52244 0
M  V30 4354 O 418.442 1.01557 1.65529 0
M  V30 4355 C 415.572 2.15753 2.72154 0
M  V30 4356 C 414.526 3.3159 2.70614 0
M  V30 4357 C 413.852 3.42952 4.10229 0
M  V30 4358 C 415.152 4.68359 2.31165 0
M  V30 4359 H 416.846 2.79625 1.07007 0
M  V30 4360 H 414.392 1.3454 0.513316 0
M  V30 4361 H 416.345 2.38743 3.47246 0
M  V30 4362 H 415.069 1.22752 3.02654 0
M  V30 4363 H 413.728 3.08545 1.97979 0
M  V30 4364 H 413.376 2.47443 4.37928 0
M  V30 4365 H 413.076 4.20826 4.10097 0
M  V30 4366 H 414.6 3.68218 4.87081 0
M  V30 4367 H 416.014 4.9099 2.95976 0
M  V30 4368 H 414.411 5.49044 2.42221 0
M  V30 4369 H 415.481 4.68165 1.26291 0
M  V30 4370 N 416.824 -0.551391 1.4764 0
M  V30 4371 C 418.071 -1.3083 1.54563 0
M  V30 4372 C 418.399 -1.93359 0.210361 0
M  V30 4373 O 417.654 -1.78721 -0.797332 0
M  V30 4374 C 417.953 -2.43469 2.61644 0
M  V30 4375 C 417.619 -1.98732 4.04742 0
M  V30 4376 C 416.281 -1.86248 4.43695 0
M  V30 4377 C 418.633 -1.64659 4.94507 0
M  V30 4378 C 415.961 -1.37995 5.70241 0
M  V30 4379 C 418.313 -1.17875 6.21521 0
M  V30 4380 C 416.977 -1.03992 6.5935 0
M  V30 4381 H 416.247 -0.478741 0.565587 0
M  V30 4382 H 418.894 -0.617697 1.81264 0
M  V30 4383 H 417.199 -3.18109 2.28722 0
M  V30 4384 H 418.896 -3.01642 2.64222 0
M  V30 4385 H 415.486 -2.09393 3.73968 0
M  V30 4386 H 419.67 -1.73174 4.65107 0
M  V30 4387 H 414.926 -1.25915 5.98294 0
M  V30 4388 H 419.1 -0.905739 6.90485 0
M  V30 4389 H 416.727 -0.663794 7.57296 0
M  V30 4390 N 418.302 -1.35869 -0.798587 0
M  V30 4391 C 419.527 -1.32883 -1.59238 0
M  V30 4392 C 419.952 0.0894587 -1.87887 0
M  V30 4393 O 419.31 1.05869 -1.47178 0
M  V30 4394 C 419.358 -2.14892 -2.89575 0
M  V30 4395 O 418.462 -1.53512 -3.82763 0
M  V30 4396 H 417.803 -0.455236 -0.48338 0
M  V30 4397 H 420.333 -1.79024 -0.990539 0
M  V30 4398 H 420.343 -2.27139 -3.38928 0
M  V30 4399 H 419.018 -3.17998 -2.68049 0
M  V30 4400 H 417.595 -1.50153 -3.41334 0
M  V30 4401 N 419.78 1.02168 -1.19998 0
M  V30 4402 C 420.727 2.10601 -0.944228 0
M  V30 4403 C 421.697 1.65639 0.123664 0
M  V30 4404 O 422.882 1.9079 -0.0199941 0
M  V30 4405 C 420.022 3.41504 -0.496865 0
M  V30 4406 C 419.135 3.99973 -1.63234 0
M  V30 4407 C 418.27 5.18915 -1.13579 0
M  V30 4408 C 417.309 5.69456 -2.24468 0
M  V30 4409 N 416.446 6.79665 -1.76068 0
M  V30 4410 H 421.286 2.31814 -1.8726 0
M  V30 4411 H 418.823 1.13686 -0.933483 0
M  V30 4412 H 420.781 4.16626 -0.218843 0
M  V30 4413 H 419.411 3.2038 0.394508 0
M  V30 4414 H 418.463 3.21997 -2.0254 0
M  V30 4415 H 419.775 4.33492 -2.46752 0
M  V30 4416 H 418.929 6.01222 -0.813429 0
M  V30 4417 H 417.668 4.8695 -0.270434 0
M  V30 4418 H 416.673 4.85757 -2.57526 0
M  V30 4419 H 417.898 6.03459 -3.11472 0
M  V30 4420 H 415.844 6.49538 -0.918516 0
M  V30 4421 H 415.761 7.12349 -2.5317 0
M  V30 4422 H 417.029 7.65549 -1.46817 0
M  V30 4423 N 421.258 1.00505 1.21394 0
M  V30 4424 C 422.486 0.706609 1.9446 0
M  V30 4425 C 422.901 -0.73081 1.74082 0
M  V30 4426 O 422.258 -1.49446 1.04747 0
M  V30 4427 C 422.309 1.01824 3.46863 0
M  V30 4428 O 422.03 2.39919 3.66566 0
M  V30 4429 C 423.531 0.739216 4.37093 0
M  V30 4430 H 420.751 0.260394 0.618414 0
M  V30 4431 H 423.295 1.34311 1.54211 0
M  V30 4432 H 421.45 0.427343 3.85036 0
M  V30 4433 H 421.864 2.50784 4.6066 0
M  V30 4434 H 423.338 1.00744 5.42729 0
M  V30 4435 H 423.815 -0.326746 4.37983 0
M  V30 4436 H 424.421 1.31173 4.04566 0
M  V30 4437 N 422.737 -1.36956 0.779787 0
M  V30 4438 C 423.684 -2.30175 0.169697 0
M  V30 4439 C 424.654 -1.51501 -0.68094 0
M  V30 4440 O 425.839 -1.80042 -0.631629 0
M  V30 4441 C 422.979 -3.37985 -0.697131 0
M  V30 4442 C 422.092 -4.31661 0.170992 0
M  V30 4443 C 421.227 -5.2655 -0.701298 0
M  V30 4444 C 420.266 -6.11867 0.168869 0
M  V30 4445 N 419.403 -6.98973 -0.661855 0
M  V30 4446 H 424.243 -2.81767 0.970135 0
M  V30 4447 H 421.78 -1.38699 0.489994 0
M  V30 4448 H 423.738 -3.99128 -1.2146 0
M  V30 4449 H 422.368 -2.87739 -1.46309 0
M  V30 4450 H 421.42 -3.71756 0.80634 0
M  V30 4451 H 422.732 -4.91644 0.841875 0
M  V30 4452 H 421.886 -5.92937 -1.28494 0
M  V30 4453 H 420.625 -4.66998 -1.40584 0
M  V30 4454 H 419.63 -5.44452 0.764986 0
M  V30 4455 H 420.855 -6.73493 0.870863 0
M  V30 4456 H 418.801 -6.41941 -1.35086 0
M  V30 4457 H 418.718 -7.55984 -0.0484447 0
M  V30 4458 H 419.986 -7.6974 -1.22963 0
M  V30 4459 N 424.215 -0.530993 -1.48385 0
M  V30 4460 C 425.462 0.0027373 -2.025 0
M  V30 4461 C 425.79 1.34186 -1.40799 0
M  V30 4462 O 425.045 1.88 -0.543544 0
M  V30 4463 C 425.344 0.172742 -3.56982 0
M  V30 4464 C 425.01 -1.09215 -4.37473 0
M  V30 4465 C 423.672 -1.43881 -4.59186 0
M  V30 4466 C 426.024 -1.93153 -4.84088 0
M  V30 4467 C 423.352 -2.62381 -5.2476 0
M  V30 4468 C 425.704 -3.10833 -5.50968 0
M  V30 4469 C 424.368 -3.45843 -5.70919 0
M  V30 4470 H 423.638 0.00100165 -0.740999 0
M  V30 4471 H 426.285 -0.697219 -1.78357 0
M  V30 4472 H 424.59 0.955473 -3.79971 0
M  V30 4473 H 426.287 0.600642 -3.96476 0
M  V30 4474 H 422.877 -0.812177 -4.20834 0
M  V30 4475 H 427.061 -1.67683 -4.67115 0
M  V30 4476 H 422.317 -2.89707 -5.38405 0
M  V30 4477 H 426.491 -3.7618 -5.86056 0
M  V30 4478 H 424.118 -4.37764 -6.21503 0
M  V30 4479 N 425.693 1.55336 -0.266172 0
M  V30 4480 C 426.641 2.23587 0.641228 0
M  V30 4481 C 427.635 1.22986 1.16494 0
M  V30 4482 O 428.841 1.40943 1.1196 0
M  V30 4483 H 425.216 0.717452 0.225315 0
M  V30 4484 H 427.187 2.9837 0.0426561 0
M  V30 4485 C 425.936 2.96369 1.81826 0
M  V30 4486 H 425.259 3.73563 1.42445 0
M  V30 4487 H 426.699 3.47459 2.42998 0
M  V30 4488 C 425.158 2.0133 2.70125 0
M  V30 4489 O 425.688 1.55875 3.70224 0
M  V30 4490 N 423.894 1.6802 2.37102 0
M  V30 4491 H 423.441 2.05181 1.55751 0
M  V30 4492 H 423.399 1.047 2.96454 0
M  V30 4493 N 427.171 -0.0066808 1.57599 0
M  V30 4494 C 428.42 -0.692078 1.89455 0
M  V30 4495 C 428.733 -1.75306 0.867586 0
M  V30 4496 O 429.939 -2.49262 1.07614 0
M  V30 4497 C 428.395 -1.2821 3.36289 0
M  V30 4498 C 428.003 -0.256291 4.47266 0
M  V30 4499 C 429.747 -1.94608 3.77264 0
M  V30 4500 C 427.654 -0.855927 5.85173 0
M  V30 4501 H 426.584 -0.262252 0.706923 0
M  V30 4502 H 429.235 0.052769 1.83424 0
M  V30 4503 H 427.617 -2.0774 3.37135 0
M  V30 4504 H 428.791 0.513923 4.57925 0
M  V30 4505 H 427.106 0.306862 4.15268 0
M  V30 4506 H 429.703 -2.40364 4.77629 0
M  V30 4507 H 430.046 -2.77382 3.10427 0
M  V30 4508 H 430.579 -1.21822 3.78688 0
M  V30 4509 H 427.318 -0.0671161 6.55466 0
M  V30 4510 H 426.838 -1.59546 5.78191 0
M  V30 4511 H 428.517 -1.35658 6.32618 0
M  V30 4512 N 428.649 -1.55105 -0.279332 0
M  V30 4513 C 429.599 -1.83937 -1.34727 0
M  V30 4514 C 430.583 -0.69785 -1.44979 0
M  V30 4515 O 431.775 -0.95904 -1.48766 0
M  V30 4516 C 428.904 -2.1092 -2.70864 0
M  V30 4517 C 427.99 -3.31314 -2.64748 0
M  V30 4518 N 428.381 -4.51371 -2.2825 0
M  V30 4519 C 426.679 -3.33777 -2.95819 0
M  V30 4520 C 427.38 -5.33447 -2.31969 0
M  V30 4521 N 426.356 -4.71697 -2.7019 0
M  V30 4522 H 430.158 -2.74309 -1.05506 0
M  V30 4523 H 427.672 -1.54896 -0.487959 0
M  V30 4524 H 429.669 -2.2973 -3.47893 0
M  V30 4525 H 428.329 -1.21828 -3.00979 0
M  V30 4526 H 429.34 -4.77584 -2.00335 0
M  V30 4527 H 426.017 -2.54858 -3.30687 0
M  V30 4528 H 427.407 -6.39424 -2.06365 0
M  V30 4529 N 430.127 0.543554 -1.4793 0
M  V30 4530 C 431.376 1.29649 -1.54512 0
M  V30 4531 C 431.689 1.94382 -0.217973 0
M  V30 4532 O 432.895 2.71017 -0.161908 0
M  V30 4533 C 431.351 2.35175 -2.72435 0
M  V30 4534 C 430.959 1.76572 -4.11736 0
M  V30 4535 C 432.703 3.11564 -2.8832 0
M  V30 4536 C 430.61 2.79958 -5.20939 0
M  V30 4537 H 429.54 0.487541 -0.57517 0
M  V30 4538 H 432.191 0.575708 -1.74235 0
M  V30 4539 H 430.573 3.10229 -2.46118 0
M  V30 4540 H 431.747 1.07799 -4.48013 0
M  V30 4541 H 430.062 1.12722 -4.00852 0
M  V30 4542 H 432.659 3.88794 -3.67074 0
M  V30 4543 H 433.002 3.66594 -1.97268 0
M  V30 4544 H 433.535 2.43623 -3.14472 0
M  V30 4545 H 430.274 2.29766 -6.13912 0
M  V30 4546 H 429.794 3.47101 -4.89164 0
M  V30 4547 H 431.473 3.43198 -5.48474 0
M  V30 4548 N 431.605 1.3629 0.791371 0
M  V30 4549 C 432.852 1.30412 1.54916 0
M  V30 4550 C 433.18 -0.117162 1.94147 0
M  V30 4551 O 432.435 -1.08599 1.62803 0
M  V30 4552 C 432.734 2.17068 2.8393 0
M  V30 4553 C 432.4 3.65645 2.63846 0
M  V30 4554 C 431.062 4.0614 2.58077 0
M  V30 4555 C 433.414 4.59855 2.45322 0
M  V30 4556 C 430.742 5.3899 2.31748 0
M  V30 4557 C 433.094 5.9292 2.2052 0
M  V30 4558 C 431.758 6.32542 2.13183 0
M  V30 4559 H 431.028 0.47721 0.566879 0
M  V30 4560 H 433.675 1.68325 0.913172 0
M  V30 4561 H 431.98 1.72085 3.51986 0
M  V30 4562 H 433.677 2.09846 3.4171 0
M  V30 4563 H 430.267 3.33518 2.69191 0
M  V30 4564 H 434.451 4.29443 2.48782 0
M  V30 4565 H 429.707 5.68672 2.24548 0
M  V30 4566 H 433.881 6.65487 2.05182 0
M  V30 4567 H 431.508 7.35412 1.92544 0
M  V30 4568 N 433.083 -1.0153 1.20538 0
M  V30 4569 C 434.332 -1.74558 1.01057 0
M  V30 4570 C 434.645 -1.90168 -0.457756 0
M  V30 4571 O 435.851 -2.60301 -0.771722 0
M  V30 4572 C 434.307 -3.13963 1.75941 0
M  V30 4573 C 433.915 -3.06361 3.26875 0
M  V30 4574 C 435.659 -3.91191 1.64832 0
M  V30 4575 C 433.566 -4.40782 3.94291 0
M  V30 4576 H 432.496 -0.654417 0.374505 0
M  V30 4577 H 435.147 -1.13521 1.44171 0
M  V30 4578 H 433.529 -3.75549 1.25614 0
M  V30 4579 H 434.703 -2.54074 3.84425 0
M  V30 4580 H 433.018 -2.42625 3.38411 0
M  V30 4581 H 435.615 -4.90644 2.12539 0
M  V30 4582 H 435.958 -4.11884 0.604745 0
M  V30 4583 H 436.491 -3.36236 2.12579 0
M  V30 4584 H 433.23 -4.25292 4.98805 0
M  V30 4585 H 432.75 -4.9307 3.41529 0
M  V30 4586 H 434.429 -5.09621 3.98617 0
M  V30 4587 N 434.561 -1.01147 -1.20859 0
M  V30 4588 C 435.838 -0.613136 -1.85742 0
M  V30 4589 C 436.218 0.909004 -1.90526 0
M  V30 4590 O 435.566 1.79862 -1.40932 0
M  V30 4591 C 435.776 -1.255 -3.25654 0
M  V30 4592 C 437.124 -1.3672 -4.01986 0
M  V30 4593 O 438.148 -1.21082 -3.34989 0
M  V30 4594 O 437.007 -1.6194 -5.21956 0
M  V30 4595 H 434.101 -0.210878 -0.799662 0
M  V30 4596 H 436.647 -1.10853 -1.2849 0
M  V30 4597 H 435.419 -2.29532 -3.16908 0
M  V30 4598 H 435.042 -0.746369 -3.90532 0
M  V30 4599 N 436.039 1.36541 -0.78704 0
M  V30 4600 C 436.987 2.31965 -0.171724 0
M  V30 4601 C 437.981 1.55689 0.667631 0
M  V30 4602 O 439.187 1.70969 0.562981 0
M  V30 4603 H 435.562 0.751101 -0.0367545 0
M  V30 4604 H 437.533 2.81428 -0.992017 0
M  V30 4605 C 436.282 3.40968 0.680904 0
M  V30 4606 H 435.605 3.99775 0.0443961 0
M  V30 4607 H 437.045 4.10063 1.07815 0
M  V30 4608 C 435.504 2.82338 1.83813 0
M  V30 4609 O 436.034 2.74311 2.93456 0
M  V30 4610 N 434.24 2.39661 1.6435 0
M  V30 4611 H 433.787 2.46389 0.751668 0
M  V30 4612 H 433.745 2.00779 2.4194 0
M  V30 4613 N 437.518 0.538854 1.48102 0
M  V30 4614 C 438.743 0.0102694 2.07397 0
M  V30 4615 C 439.168 -1.26562 1.39153 0
M  V30 4616 O 438.526 -1.75357 0.460387 0
M  V30 4617 C 438.574 -0.187602 3.60112 0
M  V30 4618 O 437.678 -1.25432 3.92862 0
M  V30 4619 H 437.019 0.0430975 0.6626 0
M  V30 4620 H 439.549 0.749301 1.90385 0
M  V30 4621 H 439.559 -0.407517 4.0596 0
M  V30 4622 H 438.234 0.744386 4.09184 0
M  V30 4623 H 436.811 -1.01636 3.58782 0
M  V30 4624 N 438.996 -1.55193 0.274407 0
M  V30 4625 C 440.224 -2.03987 -0.345943 0
M  V30 4626 C 440.639 -1.15279 -1.4952 0
M  V30 4627 O 439.996 -0.172759 -1.8168 0
M  V30 4628 C 440.047 -3.51898 -0.827631 0
M  V30 4629 O 439.768 -4.37231 0.275855 0
M  V30 4630 C 441.269 -4.16577 -1.51587 0
M  V30 4631 H 438.489 -0.666335 -0.0789892 0
M  V30 4632 H 441.033 -2.00423 0.406294 0
M  V30 4633 H 439.188 -3.55909 -1.52996 0
M  V30 4634 H 439.602 -5.24415 -0.0943638 0
M  V30 4635 H 441.076 -5.21678 -1.80433 0
M  V30 4636 H 441.553 -3.64707 -2.44716 0
M  V30 4637 H 442.159 -4.16568 -0.857409 0
M  V30 4638 N 440.474 -0.00167713 -1.576 0
M  V30 4639 C 441.406 1.0174 -2.05382 0
M  V30 4640 C 442.419 1.30595 -0.972052 0
M  V30 4641 O 443.608 1.27542 -1.24882 0
M  V30 4642 C 440.708 2.35174 -2.44022 0
M  V30 4643 C 439.881 2.25234 -3.74951 0
M  V30 4644 C 438.94 3.4137 -4.00441 0
M  V30 4645 O 437.966 3.19483 -4.71083 0
M  V30 4646 N 439.168 4.64275 -3.48467 0
M  V30 4647 H 441.933 0.609902 -2.93428 0
M  V30 4648 H 439.494 0.185672 -1.60832 0
M  V30 4649 H 441.486 3.11643 -2.58187 0
M  V30 4650 H 440.056 2.67659 -1.61485 0
M  V30 4651 H 439.276 1.33664 -3.70847 0
M  V30 4652 H 440.564 2.15767 -4.60784 0
M  V30 4653 H 439.962 4.84955 -2.91264 0
M  V30 4654 H 438.519 5.38005 -3.67959 0
M  V30 4655 N 441.952 1.55251 0.271103 0
M  V30 4656 C 443.363 1.66635 0.842007 0
M  V30 4657 C 443.714 0.594631 1.86972 0
M  V30 4658 O 442.839 -0.263532 2.14789 0
M  V30 4659 C 443.434 3.02082 1.53401 0
M  V30 4660 C 441.993 3.15487 2.05293 0
M  V30 4661 C 441.14 2.62438 0.895631 0
M  V30 4662 H 444.091 1.58629 0.0474117 0
M  V30 4663 H 444.112 2.95176 2.40107 0
M  V30 4664 H 443.624 3.80062 0.785786 0
M  V30 4665 H 441.725 2.42284 2.83071 0
M  V30 4666 H 441.838 4.22075 2.26693 0
M  V30 4667 H 440.202 2.19644 1.28953 0
M  V30 4668 H 440.985 3.42923 0.160878 0
M  V30 4669 N 443.43 -0.535701 1.48216 0
M  V30 4670 C 444.36 -1.65014 1.65204 0
M  V30 4671 C 445.341 -1.62554 0.501011 0
M  V30 4672 O 446.526 -1.7984 0.732886 0
M  V30 4673 C 443.656 -3.03616 1.68626 0
M  V30 4674 C 442.61 -3.20932 2.83172 0
M  V30 4675 C 441.936 -4.60537 2.71679 0
M  V30 4676 C 443.236 -3.04249 4.24535 0
M  V30 4677 H 444.93 -1.51053 2.58502 0
M  V30 4678 H 442.476 -0.725262 1.24402 0
M  V30 4679 H 444.429 -3.81446 1.79099 0
M  V30 4680 H 443.153 -3.18587 0.719026 0
M  V30 4681 H 441.812 -2.45517 2.72244 0
M  V30 4682 H 441.46 -4.72336 1.72937 0
M  V30 4683 H 441.16 -4.73069 3.48538 0
M  V30 4684 H 442.684 -5.40475 2.84112 0
M  V30 4685 H 444.098 -3.71877 4.36326 0
M  V30 4686 H 442.495 -3.28278 5.02348 0
M  V30 4687 H 443.565 -2.00739 4.41397 0
M  V30 4688 N 444.908 -1.36708 -0.784132 0
M  V30 4689 C 445.858 -1.2799 -1.88686 0
M  V30 4690 C 446.842 -0.170282 -1.59996 0
M  V30 4691 O 448.034 -0.403571 -1.72338 0
M  V30 4692 C 445.163 -1.07674 -3.25977 0
M  V30 4693 C 444.249 -2.23127 -3.60659 0
M  V30 4694 N 444.64 -3.48467 -3.66612 0
M  V30 4695 C 442.938 -2.15009 -3.90752 0
M  V30 4696 C 443.639 -4.24525 -3.97685 0
M  V30 4697 N 442.615 -3.53524 -4.12943 0
M  V30 4698 H 446.417 -2.22927 -1.91522 0
M  V30 4699 H 443.931 -1.29503 -0.979933 0
M  V30 4700 H 445.928 -0.995151 -4.04849 0
M  V30 4701 H 444.588 -0.13643 -3.24413 0
M  V30 4702 H 445.599 -3.82534 -3.49125 0
M  V30 4703 H 442.276 -1.28963 -3.97083 0
M  V30 4704 H 443.666 -5.32944 -4.0917 0
M  V30 4705 N 446.386 1.0089 -1.21074 0
M  V30 4706 C 447.633 1.74607 -1.0256 0
M  V30 4707 C 447.961 1.89426 0.44136 0
M  V30 4708 O 447.216 1.42266 1.34384 0
M  V30 4709 C 447.515 3.16335 -1.66334 0
M  V30 4710 C 447.181 3.21474 -3.16173 0
M  V30 4711 C 445.843 3.22583 -3.57062 0
M  V30 4712 C 448.195 3.19025 -4.12156 0
M  V30 4713 C 445.523 3.18925 -4.92446 0
M  V30 4714 C 447.875 3.16909 -5.47496 0
M  V30 4715 C 446.539 3.16326 -5.87787 0
M  V30 4716 H 445.809 0.638933 -0.375294 0
M  V30 4717 H 448.456 1.18274 -1.50611 0
M  V30 4718 H 446.761 3.75876 -1.10566 0
M  V30 4719 H 448.458 3.72083 -1.49516 0
M  V30 4720 H 445.048 3.2135 -2.83605 0
M  V30 4721 H 449.232 3.17332 -3.81595 0
M  V30 4722 H 444.488 3.16809 -5.22917 0
M  V30 4723 H 448.662 3.13968 -6.21609 0
M  V30 4724 H 446.289 3.13246 -6.92662 0
M  V30 4725 N 447.864 1.01787 1.20321 0
M  V30 4726 C 448.797 0.533882 2.21867 0
M  V30 4727 C 449.775 -0.419361 1.57099 0
M  V30 4728 O 450.959 -0.339062 1.85426 0
M  V30 4729 C 448.086 -0.222899 3.37966 0
M  V30 4730 C 447.132 0.680091 4.21043 0
M  V30 4731 S 447.965 2.14997 4.90445 0
M  V30 4732 C 449.121 1.40339 6.09964 0
M  V30 4733 H 449.354 1.39429 2.62577 0
M  V30 4734 H 446.887 0.826867 1.30393 0
M  V30 4735 H 448.845 -0.653425 4.05266 0
M  V30 4736 H 447.506 -1.0589 2.95713 0
M  V30 4737 H 446.699 0.0964704 5.03908 0
M  V30 4738 H 446.301 1.04845 3.59004 0
M  V30 4739 H 448.593 0.68407 6.74038 0
M  V30 4740 H 449.536 2.20823 6.72787 0
M  V30 4741 H 449.944 0.905716 5.57187 0
M  V30 4742 N 449.342 -1.36122 0.79427 0
M  V30 4743 C 450.753 -1.81646 0.431446 0
M  V30 4744 C 451.104 -1.66043 -1.04518 0
M  V30 4745 O 450.229 -1.1841 -1.8113 0
M  V30 4746 C 450.824 -3.29785 0.776341 0
M  V30 4747 C 449.383 -3.73501 0.466282 0
M  V30 4748 C 448.53 -2.58313 1.00844 0
M  V30 4749 H 451.481 -1.24274 0.986995 0
M  V30 4750 H 451.502 -3.80437 0.0692413 0
M  V30 4751 H 451.014 -3.4111 1.8511 0
M  V30 4752 H 449.115 -3.67733 -0.600245 0
M  V30 4753 H 449.228 -4.68754 0.990288 0
M  V30 4754 H 447.592 -2.5102 0.431406 0
M  V30 4755 H 448.375 -2.72421 2.08906 0
M  V30 4756 N 450.82 -0.546701 -1.47814 0
M  V30 4757 C 452.06 -0.0209604 -2.04389 0
M  V30 4758 C 452.424 1.29993 -1.413 0
M  V30 4759 O 453.625 1.91273 -1.8886 0
M  V30 4760 C 451.896 0.0812844 -3.57308 0
M  V30 4761 S 453.455 0.55467 -4.3528 0
M  V30 4762 H 450.273 -0.0200865 -0.710716 0
M  V30 4763 H 452.875 -0.731055 -1.81317 0
M  V30 4764 H 451.579 -0.884616 -4.00753 0
M  V30 4765 H 451.11 0.815253 -3.8486 0
M  V30 4766 H 453.125 1.81627 -4.61764 0
M  V30 4767 N 452.299 1.55045 -0.282633 0
M  V30 4768 C 453.262 2.21515 0.588539 0
M  V30 4769 C 454.262 1.19535 1.07554 0
M  V30 4770 O 455.452 1.44391 0.974514 0
M  V30 4771 C 452.584 2.88704 1.8128 0
M  V30 4772 H 453.777 2.99899 0.00806397 0
M  V30 4773 H 451.33 1.56265 -0.0333067 0
M  V30 4774 H 452.065 2.14352 2.43359 0
M  V30 4775 H 451.85 3.63443 1.47144 0
M  V30 4776 H 453.34 3.39465 2.43214 0
M  V30 4777 N 453.777 0.010035 1.57597 0
M  V30 4778 C 454.725 -0.996272 2.10184 0
M  V30 4779 C 455.719 -1.34942 1.02406 0
M  V30 4780 O 456.925 -1.33389 1.20861 0
M  V30 4781 H 453.3 -0.338982 0.671264 0
M  V30 4782 H 455.271 -0.527272 2.93705 0
M  V30 4783 C 454.02 -2.27599 2.62857 0
M  V30 4784 H 453.343 -2.01295 3.45428 0
M  V30 4785 H 454.783 -2.96265 3.0332 0
M  V30 4786 C 453.242 -2.99269 1.54725 0
M  V30 4787 O 453.772 -3.90644 0.93597 0
M  V30 4788 N 451.978 -2.61269 1.27228 0
M  V30 4789 H 451.525 -1.87043 1.77123 0
M  V30 4790 H 451.483 -3.09534 0.550999 0
M  V30 4791 N 455.255 -1.55392 -0.262866 0
M  V30 4792 C 456.485 -1.80251 -1.00961 0
M  V30 4793 C 456.893 -0.58117 -1.80053 0
M  V30 4794 O 456.236 0.459427 -1.77862 0
M  V30 4795 C 456.298 -2.98207 -2.00781 0
M  V30 4796 C 455.962 -4.34856 -1.40533 0
M  V30 4797 C 456.959 -5.13459 -0.815853 0
M  V30 4798 C 454.644 -4.8153 -1.42948 0
M  V30 4799 C 456.638 -6.36875 -0.258562 0
M  V30 4800 C 454.325 -6.04899 -0.868334 0
M  V30 4801 C 455.323 -6.8241 -0.283884 0
M  V30 4802 O 455.011 -8.03451 0.268644 0
M  V30 4803 H 454.743 -0.604049 -0.303482 0
M  V30 4804 H 457.297 -2.03257 -0.295926 0
M  V30 4805 H 455.527 -2.70917 -2.75936 0
M  V30 4806 H 457.216 -3.10299 -2.61667 0
M  V30 4807 H 457.982 -4.78526 -0.789812 0
M  V30 4808 H 453.861 -4.21201 -1.87378 0
M  V30 4809 H 457.405 -6.97318 0.198257 0
M  V30 4810 H 453.302 -6.39312 -0.891649 0
M  V30 4811 H 454.07 -8.18346 0.158974 0
M  V30 4812 N 456.733 0.527833 -1.48498 0
M  V30 4813 C 457.663 1.64136 -1.66077 0
M  V30 4814 C 458.644 1.62286 -0.509625 0
M  V30 4815 O 459.829 1.79449 -0.742413 0
M  V30 4816 C 456.959 3.02717 -1.70234 0
M  V30 4817 C 455.913 3.19426 -2.8487 0
M  V30 4818 C 455.239 4.5909 -2.74118 0
M  V30 4819 C 456.539 3.01993 -4.26142 0
M  V30 4820 H 458.233 1.4968 -2.593 0
M  V30 4821 H 455.779 0.718654 -1.24785 0
M  V30 4822 H 457.732 3.80491 -1.8112 0
M  V30 4823 H 456.456 3.18201 -0.735911 0
M  V30 4824 H 455.115 2.4407 -2.73542 0
M  V30 4825 H 454.763 4.71413 -1.7544 0
M  V30 4826 H 454.463 4.71214 -3.51042 0
M  V30 4827 H 455.987 5.3896 -2.86974 0
M  V30 4828 H 457.401 3.69558 -4.38292 0
M  V30 4829 H 455.798 3.2561 -5.04082 0
M  V30 4830 H 456.868 1.98396 -4.42456 0
M  V30 4831 N 458.211 1.37122 0.776871 0
M  V30 4832 C 459.457 1.32243 1.53752 0
M  V30 4833 C 459.79 -0.0944745 1.9397 0
M  V30 4834 O 459.065 -1.05068 1.6368 0
M  V30 4835 C 459.348 2.25681 2.80607 0
M  V30 4836 C 459.201 3.76127 2.46676 0
M  V30 4837 C 460.52 2.17657 3.82509 0
M  V30 4838 H 457.639 0.481704 0.557791 0
M  V30 4839 H 460.281 1.6778 0.891612 0
M  V30 4840 H 458.431 1.95505 3.35723 0
M  V30 4841 H 460.103 4.16877 1.97513 0
M  V30 4842 H 458.346 3.94946 1.79443 0
M  V30 4843 H 459.017 4.36933 3.37333 0
M  V30 4844 H 461.493 2.44245 3.36873 0
M  V30 4845 H 460.369 2.85185 4.69 0
M  V30 4846 H 460.63 1.16785 4.26396 0
M  V30 4847 N 459.689 -1.00246 1.21608 0
M  V30 4848 C 460.636 -2.09073 0.977613 0
M  V30 4849 C 461.606 -1.65815 -0.097297 0
M  V30 4850 O 462.791 -1.90734 0.0503445 0
M  V30 4851 C 459.931 -3.40671 0.551133 0
M  V30 4852 C 459.044 -3.97326 1.69576 0
M  V30 4853 C 458.179 -5.17043 1.2182 0
M  V30 4854 C 457.218 -5.65813 2.335 0
M  V30 4855 N 456.355 -6.76778 1.86859 0
M  V30 4856 H 461.195 -2.28806 1.90924 0
M  V30 4857 H 458.732 -1.12186 0.951452 0
M  V30 4858 H 460.69 -4.16225 0.285097 0
M  V30 4859 H 459.32 -3.20967 -0.343489 0
M  V30 4860 H 458.372 -3.18734 2.07637 0
M  V30 4861 H 459.684 -4.29511 2.53617 0
M  V30 4862 H 458.838 -5.99852 0.908975 0
M  V30 4863 H 457.577 -4.86458 0.347869 0
M  V30 4864 H 456.582 -4.81599 2.65222 0
M  V30 4865 H 457.807 -5.98427 3.21033 0
M  V30 4866 H 455.753 -6.47994 1.02174 0
M  V30 4867 H 455.67 -7.08231 2.64471 0
M  V30 4868 H 456.938 -7.63116 1.58978 0
M  V30 4869 N 461.167 -1.02423 -1.1978 0
M  V30 4870 C 462.444 -0.632802 -1.85081 0
M  V30 4871 C 462.824 0.888745 -1.9148 0
M  V30 4872 O 462.172 1.78357 -1.42832 0
M  V30 4873 C 462.382 -1.28947 -3.24305 0
M  V30 4874 C 463.73 -1.40976 -4.00513 0
M  V30 4875 O 464.754 -1.24628 -3.33686 0
M  V30 4876 O 463.613 -1.67467 -5.20209 0
M  V30 4877 H 460.707 -0.219348 -0.79738 0
M  V30 4878 H 463.253 -1.12209 -1.27307 0
M  V30 4879 H 462.025 -2.3288 -3.14456 0
M  V30 4880 H 461.648 -0.787748 -3.89718 0
M  V30 4881 N 462.645 1.35699 -0.801477 0
M  V30 4882 C 463.575 2.32436 -0.222658 0
M  V30 4883 C 464.556 1.5723 0.649057 0
M  V30 4884 O 465.741 1.85324 0.580387 0
M  V30 4885 C 462.871 3.41469 0.633719 0
M  V30 4886 C 461.825 4.27774 -0.139083 0
M  V30 4887 C 461.151 5.28082 0.838666 0
M  V30 4888 C 462.451 5.04946 -1.33517 0
M  V30 4889 H 464.145 2.81094 -1.03086 0
M  V30 4890 H 461.691 1.35146 -0.497155 0
M  V30 4891 H 463.644 4.08143 1.04868 0
M  V30 4892 H 462.368 2.91408 1.47475 0
M  V30 4893 H 461.027 3.62673 -0.535156 0
M  V30 4894 H 460.675 4.7429 1.67506 0
M  V30 4895 H 460.375 5.86695 0.32594 0
M  V30 4896 H 461.899 5.97628 1.25194 0
M  V30 4897 H 463.313 5.64593 -0.995349 0
M  V30 4898 H 461.71 5.7303 -1.78202 0
M  V30 4899 H 462.78 4.35886 -2.12442 0
M  V30 4900 N 464.123 0.554532 1.47522 0
M  V30 4901 C 465.372 0.0273458 2.01681 0
M  V30 4902 C 465.685 -1.32962 1.43459 0
M  V30 4903 O 466.891 -1.94657 1.89265 0
M  V30 4904 C 465.347 -0.00159057 3.599 0
M  V30 4905 C 464.955 1.35197 4.27113 0
M  V30 4906 C 466.699 -0.476311 4.21819 0
M  V30 4907 C 464.606 1.28229 5.77331 0
M  V30 4908 H 463.536 0.00645269 0.753972 0
M  V30 4909 H 466.187 0.701985 1.69542 0
M  V30 4910 H 464.569 -0.741821 3.8899 0
M  V30 4911 H 465.743 2.1097 4.09668 0
M  V30 4912 H 464.058 1.76441 3.77171 0
M  V30 4913 H 466.655 -0.5468 5.31897 0
M  V30 4914 H 466.998 -1.4877 3.8881 0
M  V30 4915 H 467.531 0.20898 3.97251 0
M  V30 4916 H 464.27 2.26959 6.14955 0
M  V30 4917 H 463.79 0.566314 5.97121 0
M  V30 4918 H 465.469 0.983226 6.39485 0
M  V30 4919 N 465.601 -1.54893 0.290851 0
M  V30 4920 C 466.564 -2.21824 -0.576784 0
M  V30 4921 C 467.564 -1.20104 -1.06919 0
M  V30 4922 O 468.754 -1.44906 -0.966843 0
M  V30 4923 C 465.886 -2.89662 -1.79747 0
M  V30 4924 H 467.079 -2.99899 0.00784051 0
M  V30 4925 H 464.632 -1.56245 0.0415934 0
M  V30 4926 H 465.367 -2.15639 -2.42219 0
M  V30 4927 H 465.152 -3.64219 -1.45214 0
M  V30 4928 H 466.642 -3.4075 -2.4141 0
M  V30 4929 N 467.08 -0.0183926 -1.57589 0
M  V30 4930 C 467.99 0.982943 -2.13015 0
M  V30 4931 C 469.006 1.36443 -1.07979 0
M  V30 4932 O 470.182 1.44802 -1.3998 0
M  V30 4933 C 467.247 2.25024 -2.63752 0
M  V30 4934 C 466.308 1.93018 -3.83461 0
M  V30 4935 C 465.541 3.13706 -4.31769 0
M  V30 4936 O 465.764 4.2601 -3.79305 0
M  V30 4937 O 464.698 2.96629 -5.23732 0
M  V30 4938 H 468.524 0.541709 -2.9883 0
M  V30 4939 H 466.109 0.201565 -1.48034 0
M  V30 4940 H 467.991 2.99441 -2.96502 0
M  V30 4941 H 466.666 2.68349 -1.81026 0
M  V30 4942 H 465.573 1.16019 -3.55655 0
M  V30 4943 H 466.906 1.54516 -4.67317 0
M  V30 4944 N 468.558 1.5553 0.254621 0
M  V30 4945 C 469.807 1.76202 0.981612 0
M  V30 4946 C 470.12 0.580883 1.86776 0
M  V30 4947 O 471.326 0.670448 2.63092 0
M  V30 4948 C 469.782 3.11921 1.79537 0
M  V30 4949 C 469.39 4.37659 0.956991 0
M  V30 4950 C 471.134 3.41936 2.51555 0
M  V30 4951 C 469.041 5.64411 1.76619 0
M  V30 4952 H 467.971 0.656841 0.370237 0
M  V30 4953 H 470.622 1.81969 0.236556 0
M  V30 4954 H 469.004 3.00241 2.58208 0
M  V30 4955 H 470.178 4.60307 0.21315 0
M  V30 4956 H 468.493 4.14922 0.350497 0
M  V30 4957 H 471.09 4.33849 3.12536 0
M  V30 4958 H 471.433 2.62905 3.22779 0
M  V30 4959 H 471.966 3.54797 1.799 0
M  V30 4960 H 468.705 6.46241 1.09783 0
M  V30 4961 H 468.225 5.45877 2.48551 0
M  V30 4962 H 469.904 6.03386 2.33527 0
M  V30 4963 N 470.036 -0.519951 1.48776 0
M  V30 4964 C 470.966 -1.63253 1.66945 0
M  V30 4965 C 471.947 -1.62014 0.518224 0
M  V30 4966 O 473.132 -1.79053 0.751919 0
M  V30 4967 C 470.262 -3.0181 1.71836 0
M  V30 4968 C 469.216 -3.17911 2.8656 0
M  V30 4969 C 468.542 -4.5763 2.76548 0
M  V30 4970 C 469.842 -2.99729 4.27738 0
M  V30 4971 H 471.536 -1.48302 2.6009 0
M  V30 4972 H 469.082 -0.712026 1.25165 0
M  V30 4973 H 471.035 -3.79525 1.83135 0
M  V30 4974 H 469.759 -3.17806 0.752775 0
M  V30 4975 H 468.418 -2.42616 2.74833 0
M  V30 4976 H 468.066 -4.70476 1.77937 0
M  V30 4977 H 467.766 -4.69346 3.53536 0
M  V30 4978 H 469.29 -5.37431 2.89828 0
M  V30 4979 H 470.704 -3.67228 4.40246 0
M  V30 4980 H 469.101 -3.22932 5.05801 0
M  V30 4981 H 470.171 -1.96047 4.43502 0
M  V30 4982 N 471.514 -1.37532 -0.769588 0
M  V30 4983 C 472.464 -1.29984 -1.87318 0
M  V30 4984 C 473.448 -0.187242 -1.59807 0
M  V30 4985 O 474.64 -0.421827 -1.719 0
M  V30 4986 C 471.769 -1.11126 -3.24817 0
M  V30 4987 C 470.855 -2.26939 -3.58273 0
M  V30 4988 N 471.246 -3.52336 -3.62895 0
M  V30 4989 C 469.544 -2.19141 -3.8845 0
M  V30 4990 C 470.245 -4.28719 -3.9316 0
M  V30 4991 N 469.221 -3.57884 -4.0917 0
M  V30 4992 H 473.023 -2.24946 -1.89147 0
M  V30 4993 H 470.537 -1.30535 -0.966143 0
M  V30 4994 H 472.534 -1.03803 -4.0377 0
M  V30 4995 H 471.194 -0.17083 -3.2425 0
M  V30 4996 H 472.205 -3.86216 -3.45048 0
M  V30 4997 H 468.882 -1.33167 -3.95693 0
M  V30 4998 H 470.272 -5.37254 -4.03494 0
M  V30 4999 N 472.992 0.995999 -1.22138 0
M  V30 5000 C 474.239 1.7351 -1.04406 0
M  V30 5001 C 474.567 1.89884 0.421244 0
M  V30 5002 O 473.822 1.43683 1.32867 0
M  V30 5003 C 474.121 3.14553 -1.6968 0
M  V30 5004 C 473.787 3.18102 -3.19565 0
M  V30 5005 C 472.449 3.18778 -3.60464 0
M  V30 5006 C 474.801 3.14636 -4.15516 0
M  V30 5007 C 472.129 3.13684 -4.95801 0
M  V30 5008 C 474.481 3.11084 -5.50826 0
M  V30 5009 C 473.145 3.10074 -5.91109 0
M  V30 5010 H 472.415 0.634916 -0.38205 0
M  V30 5011 H 475.062 1.1667 -1.51857 0
M  V30 5012 H 473.367 3.74682 -1.14546 0
M  V30 5013 H 475.064 3.70477 -1.53454 0
M  V30 5014 H 471.654 3.18324 -2.86998 0
M  V30 5015 H 475.838 3.13266 -3.84939 0
M  V30 5016 H 471.094 3.11245 -5.26247 0
M  V30 5017 H 475.268 3.07357 -6.24904 0
M  V30 5018 H 472.895 3.05882 -6.95946 0
M  V30 5019 N 474.47 1.03057 1.19235 0
M  V30 5020 C 475.71 0.736757 1.9066 0
M  V30 5021 C 476.074 -0.721521 1.77927 0
M  V30 5022 O 477.275 -1.12849 2.43964 0
M  V30 5023 C 475.546 1.17755 3.37444 0
M  V30 5024 S 477.105 1.00783 4.27069 0
M  V30 5025 H 473.923 0.268174 0.658486 0
M  V30 5026 H 476.525 1.32076 1.4414 0
M  V30 5027 H 475.229 2.23448 3.44237 0
M  V30 5028 H 474.76 0.586912 3.88997 0
M  V30 5029 H 476.775 -0.0806356 4.96134 0
M  V30 5030 N 475.948 -1.35272 0.808662 0
M  V30 5031 C 477.176 -2.02946 0.402537 0
M  V30 5032 C 477.591 -1.60937 -0.987147 0
M  V30 5033 O 476.948 -0.807917 -1.63643 0
M  V30 5034 C 476.999 -3.58317 0.47868 0
M  V30 5035 O 476.72 -3.98799 1.81358 0
M  V30 5036 C 478.221 -4.43251 0.0656281 0
M  V30 5037 H 475.441 -0.650831 0.163279 0
M  V30 5038 H 477.985 -1.72849 1.09286 0
M  V30 5039 H 476.14 -3.87055 -0.163415 0
M  V30 5040 H 476.554 -4.93451 1.77781 0
M  V30 5041 H 478.028 -5.51738 0.170017 0
M  V30 5042 H 478.505 -4.27913 -0.989278 0
M  V30 5043 H 479.111 -4.19813 0.68096 0
M  V30 5044 N 477.426 -0.562348 -1.47226 0
M  V30 5045 C 478.374 0.195476 -2.31777 0
M  V30 5046 C 479.368 0.90433 -1.43242 0
M  V30 5047 O 480.574 0.825031 -1.59979 0
M  V30 5048 H 476.949 0.0819095 -0.747526 0
M  V30 5049 H 478.92 -0.536753 -2.93533 0
M  V30 5050 C 477.669 1.20902 -3.26003 0
M  V30 5051 H 476.992 0.672997 -3.94095 0
M  V30 5052 H 478.432 1.71006 -3.87986 0
M  V30 5053 C 476.891 2.25955 -2.49891 0
M  V30 5054 O 477.421 3.32969 -2.2471 0
M  V30 5055 N 475.627 2.00019 -2.1081 0
M  V30 5056 H 475.174 1.13006 -2.31489 0
M  V30 5057 H 475.132 2.70523 -1.60201 0
M  V30 5058 N 478.904 1.54736 -0.299062 0
M  V30 5059 C 480.181 1.92187 0.363802 0
M  V30 5060 C 480.561 1.22607 1.71845 0
M  V30 5061 O 479.909 0.361141 2.25628 0
M  V30 5062 C 480.119 3.45678 0.480377 0
M  V30 5063 C 481.467 4.17885 0.752147 0
M  V30 5064 O 482.491 3.51702 0.564264 0
M  V30 5065 O 481.35 5.35048 1.11294 0
M  V30 5066 H 478.444 0.801681 0.203066 0
M  V30 5067 H 480.99 1.66115 -0.346978 0
M  V30 5068 H 479.762 3.88443 -0.471999 0
M  V30 5069 H 479.385 3.77779 1.2397 0
M  V30 5070 N 480.382 0.0267497 1.57577 0
M  V30 5071 C 481.314 -0.984594 2.06974 0
M  V30 5072 C 482.327 -1.29032 0.992705 0
M  V30 5073 O 483.516 -1.25539 1.26895 0
M  V30 5074 C 480.616 -2.31262 2.47732 0
M  V30 5075 C 479.789 -2.1924 3.78487 0
M  V30 5076 C 478.848 -3.34956 4.05821 0
M  V30 5077 O 477.874 -3.11948 4.76106 0
M  V30 5078 N 479.076 -4.58672 3.55809 0
M  V30 5079 H 481.841 -0.563143 2.94362 0
M  V30 5080 H 479.402 -0.160061 1.61107 0
M  V30 5081 H 481.394 -3.07496 2.63112 0
M  V30 5082 H 479.964 -2.65056 1.65723 0
M  V30 5083 H 479.184 -1.27747 3.72927 0
M  V30 5084 H 480.472 -2.08409 4.64158 0
M  V30 5085 H 479.87 -4.8026 2.98942 0
M  V30 5086 H 478.427 -5.32083 3.76472 0
M  V30 5087 N 481.861 -1.55662 -0.24637 0
M  V30 5088 C 482.791 -1.93377 -1.30873 0
M  V30 5089 C 483.772 -0.798773 -1.50179 0
M  V30 5090 O 484.957 -1.0591 -1.62778 0
M  V30 5091 C 482.087 -2.22893 -2.66338 0
M  V30 5092 C 481.041 -3.38649 -2.61727 0
M  V30 5093 C 480.367 -3.53708 -4.00992 0
M  V30 5094 C 481.667 -4.74323 -2.18666 0
M  V30 5095 H 483.361 -2.82363 -0.995552 0
M  V30 5096 H 480.907 -1.35854 -0.477464 0
M  V30 5097 H 482.86 -2.47866 -3.40794 0
M  V30 5098 H 481.584 -1.30733 -2.99293 0
M  V30 5099 H 480.243 -3.13685 -1.89729 0
M  V30 5100 H 479.891 -2.58967 -4.31214 0
M  V30 5101 H 479.591 -4.31551 -3.98795 0
M  V30 5102 H 481.115 -3.81003 -4.77147 0
M  V30 5103 H 482.529 -4.98665 -2.82854 0
M  V30 5104 H 480.926 -5.55273 -2.27579 0
M  V30 5105 H 481.996 -4.71349 -1.13834 0
M  V30 5106 N 483.339 0.512053 -1.4905 0
M  V30 5107 C 484.269 1.62365 -1.67809 0
M  V30 5108 C 485.25 1.61737 -0.526809 0
M  V30 5109 O 486.435 1.78651 -0.761404 0
M  V30 5110 C 483.565 3.00895 -1.73435 0
M  V30 5111 C 482.519 3.16387 -2.88242 0
M  V30 5112 C 481.845 4.56157 -2.78971 0
M  V30 5113 C 483.145 2.97457 -4.29321 0
M  V30 5114 H 484.839 1.46921 -2.60873 0
M  V30 5115 H 482.385 0.705379 -1.2554 0
M  V30 5116 H 484.338 3.78549 -1.85145 0
M  V30 5117 H 483.062 3.17403 -0.769619 0
M  V30 5118 H 481.721 2.41155 -2.76116 0
M  V30 5119 H 481.369 4.69525 -1.8043 0
M  V30 5120 H 481.069 4.67465 -3.5602 0
M  V30 5121 H 482.593 5.35886 -2.92675 0
M  V30 5122 H 484.007 3.64888 -4.42187 0
M  V30 5123 H 482.404 3.20245 -5.07507 0
M  V30 5124 H 483.474 1.93692 -4.44535 0
M  V30 5125 N 484.817 1.37938 0.762283 0
M  V30 5126 C 486.228 1.30094 1.33912 0
M  V30 5127 C 486.579 -0.0472026 1.96143 0
M  V30 5128 O 485.704 -0.94917 1.94473 0
M  V30 5129 C 486.299 2.35592 2.43478 0
M  V30 5130 C 484.858 2.31353 2.96905 0
M  V30 5131 C 484.005 2.18919 1.70205 0
M  V30 5132 H 486.956 1.48423 0.561816 0
M  V30 5133 H 486.977 2.00806 3.23199 0
M  V30 5134 H 486.489 3.33701 1.98155 0
M  V30 5135 H 484.59 1.36799 3.46579 0
M  V30 5136 H 484.703 3.25147 3.51875 0
M  V30 5137 H 483.067 1.65624 1.93496 0
M  V30 5138 H 483.85 3.18956 1.26973 0
M  V30 5139 N 486.295 -0.989507 1.22664 0
M  V30 5140 C 487.242 -2.08024 0.999733 0
M  V30 5141 C 488.212 -1.65909 -0.0797047 0
M  V30 5142 O 489.397 -1.90669 0.0705715 0
M  V30 5143 C 486.537 -3.40067 0.587234 0
M  V30 5144 C 485.65 -3.95505 1.73781 0
M  V30 5145 C 484.785 -5.15722 1.27297 0
M  V30 5146 C 483.824 -5.63305 2.39488 0
M  V30 5147 N 482.961 -6.74758 1.94026 0
M  V30 5148 H 487.801 -2.26768 1.9334 0
M  V30 5149 H 485.338 -1.11171 0.963297 0
M  V30 5150 H 487.296 -4.15899 0.329227 0
M  V30 5151 H 485.926 -3.21314 -0.309426 0
M  V30 5152 H 484.978 -3.16513 2.11006 0
M  V30 5153 H 486.29 -4.26797 2.58158 0
M  V30 5154 H 485.444 -5.98854 0.972546 0
M  V30 5155 H 484.183 -4.86061 0.399445 0
M  V30 5156 H 483.188 -4.78759 2.70315 0
M  V30 5157 H 484.413 -5.94988 3.27362 0
M  V30 5158 H 482.359 -6.46874 1.09041 0
M  V30 5159 H 482.276 -7.05386 2.71968 0
M  V30 5160 H 483.544 -7.61387 1.67062 0
M  V30 5161 N 487.773 -1.03688 -1.18687 0
M  V30 5162 C 489.05 -0.652397 -1.84399 0
M  V30 5163 C 489.43 0.868386 -1.92412 0
M  V30 5164 O 488.778 1.76832 -1.44716 0
M  V30 5165 C 488.988 -1.3238 -3.22919 0
M  V30 5166 C 490.336 -1.45216 -3.98996 0
M  V30 5167 O 491.36 -1.2816 -3.32345 0
M  V30 5168 O 490.219 -1.72975 -5.18403 0
M  V30 5169 H 487.313 -0.227793 -0.795009 0
M  V30 5170 H 489.859 -1.13553 -1.2611 0
M  V30 5171 H 488.631 -2.36202 -3.11968 0
M  V30 5172 H 488.254 -0.829039 -3.88861 0
M  V30 5173 N 489.251 1.34841 -0.815825 0
M  V30 5174 C 490.201 2.27075 -0.205169 0
M  V30 5175 C 491.185 1.48205 0.626414 0
M  V30 5176 O 492.377 1.70306 0.482157 0
M  V30 5177 C 489.506 3.37322 0.637871 0
M  V30 5178 C 488.592 4.23609 -0.203948 0
M  V30 5179 N 488.983 4.89558 -1.27149 0
M  V30 5180 C 487.281 4.45998 0.0128971 0
M  V30 5181 C 487.982 5.53597 -1.7862 0
M  V30 5182 N 486.958 5.32535 -1.0912 0
M  V30 5183 H 490.76 2.75563 -1.02187 0
M  V30 5184 H 488.274 1.48477 -0.657912 0
M  V30 5185 H 490.271 4.02359 1.09146 0
M  V30 5186 H 488.931 2.90385 1.45281 0
M  V30 5187 H 489.942 4.9077 -1.65423 0
M  V30 5188 H 486.619 4.09837 0.79624 0
M  V30 5189 H 488.009 6.16184 -2.67892 0
M  V30 5190 N 490.729 0.570148 1.46925 0
M  V30 5191 C 491.978 0.0487352 2.01641 0
M  V30 5192 C 492.291 -1.31433 1.44861 0
M  V30 5193 O 493.497 -1.92638 1.91318 0
M  V30 5194 C 491.953 0.0365817 3.59881 0
M  V30 5195 C 491.561 1.39719 4.25655 0
M  V30 5196 C 493.305 -0.431545 4.22301 0
M  V30 5197 C 491.212 1.34345 5.75939 0
M  V30 5198 H 490.142 0.0144492 0.753862 0
M  V30 5199 H 492.793 0.719928 1.68788 0
M  V30 5200 H 491.175 -0.700522 3.89755 0
M  V30 5201 H 492.349 2.15303 4.07408 0
M  V30 5202 H 490.664 1.80431 3.75278 0
M  V30 5203 H 493.261 -0.490354 5.32447 0
M  V30 5204 H 493.604 -1.44638 3.90366 0
M  V30 5205 H 494.137 0.251102 3.97007 0
M  V30 5206 H 490.876 2.33469 6.12513 0
M  V30 5207 H 490.396 0.629615 5.96486 0
M  V30 5208 H 492.075 1.051 6.38407 0
M  V30 5209 N 492.207 -1.54576 0.307264 0
M  V30 5210 C 493.137 -2.26708 -0.55907 0
M  V30 5211 C 494.118 -1.26893 -1.1328 0
M  V30 5212 O 495.303 -1.55677 -1.16097 0
M  V30 5213 C 492.433 -3.01259 -1.72801 0
M  V30 5214 C 491.387 -4.08275 -1.28435 0
M  V30 5215 C 490.713 -4.70575 -2.53895 0
M  V30 5216 C 492.013 -5.2068 -0.411038 0
M  V30 5217 H 493.707 -2.9937 0.042576 0
M  V30 5218 H 491.253 -1.43983 0.0219173 0
M  V30 5219 H 493.206 -3.50444 -2.34023 0
M  V30 5220 H 491.93 -2.26187 -2.356 0
M  V30 5221 H 490.589 -3.59949 -0.695161 0
M  V30 5222 H 490.237 -3.92136 -3.15021 0
M  V30 5223 H 489.937 -5.42854 -2.24908 0
M  V30 5224 H 491.461 -5.22527 -3.15908 0
M  V30 5225 H 492.875 -5.65721 -0.929097 0
M  V30 5226 H 491.272 -5.99716 -0.214664 0
M  V30 5227 H 492.342 -4.81629 0.562287 0
M  V30 5228 N 493.685 -0.035106 -1.57561 0
M  V30 5229 C 494.91 0.655802 -1.96759 0
M  V30 5230 C 495.335 1.64523 -0.911809 0
M  V30 5231 O 494.693 1.80857 0.126673 0
M  V30 5232 C 494.741 1.33326 -3.35047 0
M  V30 5233 O 493.845 2.44866 -3.31835 0
M  V30 5234 H 493.186 0.171807 -0.641388 0
M  V30 5235 H 495.716 -0.0987369 -2.04362 0
M  V30 5236 H 495.726 1.68867 -3.71413 0
M  V30 5237 H 494.401 0.608033 -4.11431 0
M  V30 5238 H 492.978 2.11392 -3.07193 0
M  V30 5239 N 495.163 1.55791 0.238111 0
M  V30 5240 C 496.409 1.78297 0.966337 0
M  V30 5241 C 496.742 0.601903 1.84637 0
M  V30 5242 O 496.017 -0.399499 1.90353 0
M  V30 5243 C 496.3 3.10758 1.81939 0
M  V30 5244 C 496.153 4.39283 0.966958 0
M  V30 5245 C 497.472 3.39519 2.80027 0
M  V30 5246 H 494.591 0.648654 0.349882 0
M  V30 5247 H 497.233 1.88525 0.236253 0
M  V30 5248 H 495.383 3.02168 2.44185 0
M  V30 5249 H 497.055 4.59873 0.362514 0
M  V30 5250 H 495.298 4.32948 0.271669 0
M  V30 5251 H 495.969 5.28368 1.59784 0
M  V30 5252 H 498.445 3.48128 2.27917 0
M  V30 5253 H 497.321 4.33402 3.36829 0
M  V30 5254 H 497.582 2.60864 3.56934 0
M  V30 5255 N 496.642 -0.504142 1.49319 0
M  V30 5256 C 497.882 -1.26867 1.60263 0
M  V30 5257 C 498.246 -1.89924 0.281578 0
M  V30 5258 O 499.447 -2.67479 0.266176 0
M  V30 5259 C 497.718 -2.30956 2.72753 0
M  V30 5260 S 499.277 -3.1679 3.03628 0
M  V30 5261 H 496.095 -0.431198 0.565322 0
M  V30 5262 H 498.697 -0.571407 1.86963 0
M  V30 5263 H 497.401 -1.83156 3.67263 0
M  V30 5264 H 496.932 -3.05356 2.48035 0
M  V30 5265 H 498.947 -4.31549 2.44908 0
M  V30 5266 N 498.12 -1.38341 -0.754957 0
M  V30 5267 C 499.368 -1.34208 -1.51105 0
M  V30 5268 C 499.689 0.0677634 -1.94882 0
M  V30 5269 O 498.959 1.01517 -1.67544 0
M  V30 5270 H 497.539 -0.493819 -0.560493 0
M  V30 5271 H 500.201 -1.73005 -0.897507 0
M  V30 5272 H 499.297 -1.99203 -2.4026 0
M  V30 5273 N 499.598 0.982988 -1.23187 0
M  V30 5274 C 500.823 1.76455 -1.08988 0
M  V30 5275 C 501.248 1.84726 0.354691 0
M  V30 5276 O 500.606 1.30699 1.25649 0
M  V30 5277 C 500.654 3.17094 -1.71708 0
M  V30 5278 O 499.758 4.00648 -0.977477 0
M  V30 5279 H 499.099 0.542988 -0.382177 0
M  V30 5280 H 501.629 1.23413 -1.63188 0
M  V30 5281 H 501.639 3.67684 -1.76841 0
M  V30 5282 H 500.314 3.10389 -2.76823 0
M  V30 5283 H 498.891 3.59161 -1.0029 0
M  V30 5284 N 501.076 1.04316 1.18135 0
M  V30 5285 C 501.986 0.646876 2.25505 0
M  V30 5286 C 503.002 -0.328008 1.7088 0
M  V30 5287 O 504.178 -0.182309 2.00573 0
M  V30 5288 C 501.243 0.0185664 3.46695 0
M  V30 5289 C 500.304 1.04277 4.16443 0
M  V30 5290 C 499.537 0.444352 5.31847 0
M  V30 5291 O 499.76 -0.748735 5.65465 0
M  V30 5292 O 498.694 1.17428 5.90334 0
M  V30 5293 H 502.52 1.54147 2.61672 0
M  V30 5294 H 500.105 0.814188 1.25265 0
M  V30 5295 H 501.987 -0.331068 4.20097 0
M  V30 5296 H 500.662 -0.849814 3.12346 0
M  V30 5297 H 499.569 1.44425 3.45098 0
M  V30 5298 H 500.902 1.882 4.54798 0
M  V30 5299 N 502.554 -1.34406 0.822964 0
M  V30 5300 C 503.464 -2.33298 0.246838 0
M  V30 5301 C 504.48 -1.62625 -0.618797 0
M  V30 5302 O 505.656 -1.94391 -0.526685 0
M  V30 5303 C 502.721 -3.41785 -0.581731 0
M  V30 5304 C 501.782 -4.28206 0.306309 0
M  V30 5305 C 501.015 -5.31512 -0.48281 0
M  V30 5306 O 501.238 -5.43973 -1.71607 0
M  V30 5307 O 500.172 -6.01749 0.134884 0
M  V30 5308 H 503.998 -2.84401 1.06534 0
M  V30 5309 H 501.583 -1.37466 0.585108 0
M  V30 5310 H 503.465 -4.08028 -1.05313 0
M  V30 5311 H 502.14 -2.92925 -1.37756 0
M  V30 5312 H 501.047 -3.64885 0.825199 0
M  V30 5313 H 502.38 -4.80507 1.06649 0
M  V30 5314 N 504.032 -0.577932 -1.46621 0
M  V30 5315 C 505.279 -0.0616879 -2.02406 0
M  V30 5316 C 505.607 1.29638 -1.44997 0
M  V30 5317 O 504.862 1.86176 -0.60308 0
M  V30 5318 C 505.161 0.0590832 -3.57351 0
M  V30 5319 C 504.827 -1.23077 -4.33777 0
M  V30 5320 C 503.489 -1.58416 -4.54376 0
M  V30 5321 C 505.841 -2.08457 -4.77698 0
M  V30 5322 C 503.169 -2.78943 -5.16147 0
M  V30 5323 C 505.521 -3.28204 -5.408 0
M  V30 5324 C 504.185 -3.63832 -5.59627 0
M  V30 5325 H 503.455 -0.0225732 -0.740656 0
M  V30 5326 H 506.102 -0.753609 -1.76048 0
M  V30 5327 H 504.407 0.834104 -3.82818 0
M  V30 5328 H 506.104 0.474202 -3.98186 0
M  V30 5329 H 502.694 -0.945652 -4.18038 0
M  V30 5330 H 506.878 -1.82459 -4.61544 0
M  V30 5331 H 502.134 -3.06689 -5.28916 0
M  V30 5332 H 506.308 -3.94634 -5.73792 0
M  V30 5333 H 503.935 -4.57315 -6.07262 0
M  V30 5334 N 505.51 1.54411 -0.315457 0
M  V30 5335 C 506.44 2.27002 0.547039 0
M  V30 5336 C 507.421 1.27492 1.12605 0
M  V30 5337 O 508.606 1.5629 1.15269 0
M  V30 5338 C 505.736 3.02171 1.71201 0
M  V30 5339 C 504.69 4.0895 1.26268 0
M  V30 5340 C 504.016 4.71915 2.51396 0
M  V30 5341 C 505.316 5.20891 0.383419 0
M  V30 5342 H 507.01 2.99343 -0.0584517 0
M  V30 5343 H 504.556 1.4397 -0.0295527 0
M  V30 5344 H 506.509 3.51681 2.32161 0
M  V30 5345 H 505.233 2.27433 2.34397 0
M  V30 5346 H 503.892 3.60312 0.676062 0
M  V30 5347 H 503.54 3.93801 3.12937 0
M  V30 5348 H 503.24 5.44039 2.22026 0
M  V30 5349 H 504.764 5.24195 3.13133 0
M  V30 5350 H 506.178 5.66206 0.899082 0
M  V30 5351 H 504.575 5.99821 0.182857 0
M  V30 5352 H 505.645 4.81324 -0.587821 0
M  V30 5353 N 506.988 0.0434614 1.5754 0
M  V30 5354 C 507.92 -0.962586 2.08007 0
M  V30 5355 C 508.933 -1.27972 1.00634 0
M  V30 5356 O 510.122 -1.24186 1.28219 0
M  V30 5357 C 507.222 -2.28621 2.50171 0
M  V30 5358 C 506.395 -2.15214 3.80791 0
M  V30 5359 C 505.454 -3.30633 4.09351 0
M  V30 5360 O 504.48 -3.0688 4.79388 0
M  V30 5361 N 505.682 -4.54873 3.60654 0
M  V30 5362 H 508.447 -0.531891 2.94942 0
M  V30 5363 H 506.008 -0.142965 1.61268 0
M  V30 5364 H 508 -3.04689 2.66359 0
M  V30 5365 H 506.57 -2.63283 1.68525 0
M  V30 5366 H 505.79 -1.23785 3.74261 0
M  V30 5367 H 507.078 -2.03475 4.66343 0
M  V30 5368 H 506.476 -4.77063 3.04019 0
M  V30 5369 H 505.033 -5.2806 3.82094 0
M  V30 5370 N 508.466 -1.55915 -0.229846 0
M  V30 5371 C 509.414 -1.9258 -1.30444 0
M  V30 5372 C 510.408 -0.806839 -1.48951 0
M  V30 5373 O 511.614 -0.991606 -1.50224 0
M  V30 5374 H 507.989 -0.611878 -0.437161 0
M  V30 5375 H 509.96 -2.82264 -0.96797 0
M  V30 5376 C 508.709 -2.25171 -2.6494 0
M  V30 5377 H 508.032 -3.10782 -2.51504 0
M  V30 5378 H 509.472 -2.54716 -3.38963 0
M  V30 5379 C 507.931 -1.07394 -3.19324 0
M  V30 5380 O 508.461 -0.330759 -4.00336 0
M  V30 5381 N 506.667 -0.859984 -2.77584 0
M  V30 5382 H 506.214 -1.46605 -2.11813 0
M  V30 5383 H 506.172 -0.0736671 -3.14314 0
M  V30 5384 N 509.944 0.496216 -1.49584 0
M  V30 5385 C 511.221 1.25755 -1.49816 0
M  V30 5386 C 511.601 2.09859 -0.228572 0
M  V30 5387 O 510.949 2.14449 0.788908 0
M  V30 5388 C 511.159 2.11017 -2.7798 0
M  V30 5389 C 512.507 2.70047 -3.27658 0
M  V30 5390 O 513.531 2.21281 -2.79129 0
M  V30 5391 O 512.39 3.58834 -4.1219 0
M  V30 5392 H 509.484 0.569322 -0.599834 0
M  V30 5393 H 512.03 0.510094 -1.61852 0
M  V30 5394 H 510.802 1.48879 -3.61871 0
M  V30 5395 H 510.425 2.92947 -2.68827 0
M  V30 5396 N 511.423 1.38739 0.74761 0
M  V30 5397 C 512.373 1.32948 1.85226 0
M  V30 5398 C 513.357 0.212642 1.59489 0
M  V30 5399 O 514.549 0.449121 1.71207 0
M  V30 5400 C 511.678 1.16279 3.23008 0
M  V30 5401 C 510.764 2.32611 3.54617 0
M  V30 5402 N 511.155 3.58065 3.57244 0
M  V30 5403 C 509.453 2.25293 3.84914 0
M  V30 5404 C 510.154 4.34919 3.8629 0
M  V30 5405 N 509.13 3.64348 4.03425 0
M  V30 5406 H 512.932 2.27927 1.85544 0
M  V30 5407 H 510.446 1.32056 0.945253 0
M  V30 5408 H 512.443 1.10214 4.02068 0
M  V30 5409 H 511.103 0.222394 3.23937 0
M  V30 5410 H 512.114 3.91656 3.3886 0
M  V30 5411 H 508.791 1.39446 3.93524 0
M  V30 5412 H 510.181 5.43605 3.94896 0
M  V30 5413 N 512.901 -0.976442 1.23707 0
M  V30 5414 C 514.141 -1.73331 1.08332 0
M  V30 5415 C 514.505 -1.88346 -0.372781 0
M  V30 5416 O 515.706 -2.60877 -0.647813 0
M  V30 5417 C 513.977 -3.09159 1.7932 0
M  V30 5418 S 515.536 -4.00376 1.79567 0
M  V30 5419 H 512.354 -0.596045 0.387622 0
M  V30 5420 H 514.956 -1.16625 1.56904 0
M  V30 5421 H 513.66 -2.95884 2.84395 0
M  V30 5422 H 513.191 -3.70932 1.31046 0
M  V30 5423 H 515.206 -4.88742 0.857094 0
M  V30 5424 N 514.379 -1.04941 -1.1758 0
M  V30 5425 C 515.309 -0.669172 -2.23706 0
M  V30 5426 C 516.29 0.331835 -1.66832 0
M  V30 5427 O 517.475 0.209988 -1.93061 0
M  V30 5428 C 514.605 -0.0404889 -3.47276 0
M  V30 5429 C 513.559 -0.965983 -4.16957 0
M  V30 5430 C 512.885 -0.201312 -5.34321 0
M  V30 5431 C 514.185 -2.28902 -4.69469 0
M  V30 5432 H 515.879 -1.55639 -2.55767 0
M  V30 5433 H 513.425 -0.749793 -1.22939 0
M  V30 5434 H 515.378 0.237298 -4.20731 0
M  V30 5435 H 514.102 0.881658 -3.14475 0
M  V30 5436 H 512.761 -1.22829 -3.45411 0
M  V30 5437 H 512.409 0.723519 -4.97769 0
M  V30 5438 H 512.109 -0.817968 -5.81879 0
M  V30 5439 H 513.633 0.0692499 -6.10561 0
M  V30 5440 H 515.047 -2.07132 -5.34574 0
M  V30 5441 H 513.444 -2.85942 -5.27596 0
M  V30 5442 H 514.514 -2.92937 -3.86414 0
M  V30 5443 N 515.857 1.33968 -0.830081 0
M  V30 5444 C 517.105 1.97672 -0.420734 0
M  V30 5445 C 517.426 1.66111 1.02138 0
M  V30 5446 O 516.696 0.955503 1.71017 0
M  V30 5447 H 515.276 0.73125 -0.152587 0
M  V30 5448 H 517.938 1.63483 -1.0611 0
M  V30 5449 H 517.034 3.07294 -0.545588 0
M  V30 5450 N 517.335 0.585699 1.46312 0
M  V30 5451 C 518.56 0.0762461 2.0726 0
M  V30 5452 C 518.985 -1.22071 1.43109 0
M  V30 5453 O 518.343 -1.73804 0.515942 0
M  V30 5454 C 518.391 -0.0729404 3.60526 0
M  V30 5455 O 517.495 -1.1287 3.96654 0
M  V30 5456 H 516.836 0.0641558 0.660893 0
M  V30 5457 H 519.366 0.809492 1.87905 0
M  V30 5458 H 519.376 -0.278158 4.07051 0
M  V30 5459 H 518.051 0.874188 4.06609 0
M  V30 5460 H 516.628 -0.901703 3.61834 0
M  V30 5461 N 518.813 -1.54241 0.323641 0
M  V30 5462 C 519.763 -2.21071 -0.557833 0
M  V30 5463 C 520.747 -1.19126 -1.08157 0
M  V30 5464 O 521.939 -1.44755 -1.01857 0
M  V30 5465 C 519.068 -2.97208 -1.71821 0
M  V30 5466 C 518.154 -4.06491 -1.20936 0
M  V30 5467 N 518.545 -5.04052 -0.420202 0
M  V30 5468 C 516.843 -4.20443 -1.48808 0
M  V30 5469 C 517.544 -5.81516 -0.146413 0
M  V30 5470 N 516.52 -5.38641 -0.732562 0
M  V30 5471 H 520.322 -2.93853 0.0523921 0
M  V30 5472 H 517.836 -1.61883 0.129502 0
M  V30 5473 H 519.833 -3.4357 -2.36146 0
M  V30 5474 H 518.493 -2.25947 -2.33191 0
M  V30 5475 H 519.504 -5.17862 -0.0630401 0
M  V30 5476 H 516.181 -3.60396 -2.10762 0
M  V30 5477 H 517.571 -6.70119 0.488895 0
M  V30 5478 N 520.291 -0.0518155 -1.57515 0
M  V30 5479 C 521.238 0.922352 -2.11569 0
M  V30 5480 C 522.208 1.30842 -1.02321 0
M  V30 5481 O 523.393 1.39778 -1.29872 0
M  V30 5482 C 520.533 2.19167 -2.6657 0
M  V30 5483 C 519.646 1.86003 -3.89906 0
M  V30 5484 C 518.781 3.07398 -4.33221 0
M  V30 5485 C 517.82 2.70158 -5.49255 0
M  V30 5486 N 516.957 3.84248 -5.8762 0
M  V30 5487 H 521.797 0.454506 -2.94514 0
M  V30 5488 H 519.334 0.212718 -1.45554 0
M  V30 5489 H 521.292 2.93443 -2.96559 0
M  V30 5490 H 519.922 2.63528 -1.86421 0
M  V30 5491 H 518.974 1.01874 -3.66505 0
M  V30 5492 H 520.286 1.54592 -4.74239 0
M  V30 5493 H 519.44 3.89972 -4.64765 0
M  V30 5494 H 518.179 3.41988 -3.477 0
M  V30 5495 H 517.184 1.86001 -5.17382 0
M  V30 5496 H 518.409 2.36759 -6.36492 0
M  V30 5497 H 516.355 4.18638 -5.05053 0
M  V30 5498 H 516.272 3.56538 -6.66646 0
M  V30 5499 H 517.54 4.6746 -6.2378 0
M  V30 5500 N 521.769 1.56035 0.221574 0
M  V30 5501 C 522.702 1.87427 1.30178 0
M  V30 5502 C 523.68 0.731658 1.45209 0
M  V30 5503 O 524.864 0.980016 1.61022 0
M  V30 5504 C 521.991 2.08127 2.67209 0
M  V30 5505 C 521.037 3.30813 2.69194 0
M  V30 5506 S 521.87 4.86738 2.23263 0
M  V30 5507 C 523.026 5.10474 3.62171 0
M  V30 5508 H 523.259 2.78756 1.03355 0
M  V30 5509 H 520.792 1.48469 0.423813 0
M  V30 5510 H 522.75 2.20736 3.46101 0
M  V30 5511 H 521.411 1.17595 2.91256 0
M  V30 5512 H 520.604 3.42341 3.6989 0
M  V30 5513 H 520.206 3.1706 1.98366 0
M  V30 5514 H 522.498 4.9937 4.5786 0
M  V30 5515 H 523.441 6.12359 3.55558 0
M  V30 5516 H 523.849 4.38208 3.55857 0
M  V30 5517 N 523.247 -0.488276 1.49845 0
M  V30 5518 C 524.494 -1.24157 1.59973 0
M  V30 5519 C 524.822 -1.92293 0.292182 0
M  V30 5520 O 524.077 -1.81942 -0.720813 0
M  V30 5521 C 524.376 -2.32152 2.71735 0
M  V30 5522 C 524.042 -1.81387 4.12807 0
M  V30 5523 C 522.704 -1.67262 4.51195 0
M  V30 5524 C 525.056 -1.43537 5.01045 0
M  V30 5525 C 522.384 -1.13685 5.7558 0
M  V30 5526 C 524.736 -0.914081 6.25961 0
M  V30 5527 C 523.4 -0.759327 6.63167 0
M  V30 5528 H 522.67 -0.454322 0.585383 0
M  V30 5529 H 525.317 -0.540261 1.83721 0
M  V30 5530 H 523.622 -3.08122 2.42008 0
M  V30 5531 H 525.319 -2.90164 2.76778 0
M  V30 5532 H 521.909 -1.93344 3.82513 0
M  V30 5533 H 526.093 -1.53292 4.72033 0
M  V30 5534 H 521.349 -1.00426 6.03096 0
M  V30 5535 H 525.523 -0.612066 6.93705 0
M  V30 5536 H 523.15 -0.342002 7.5943 0
M  V30 5537 N 524.725 -1.39134 -0.740242 0
M  V30 5538 C 525.657 -1.33332 -1.86428 0
M  V30 5539 C 526.67 -0.243042 -1.60976 0
M  V30 5540 O 527.859 -0.501608 -1.71307 0
M  V30 5541 C 524.959 -1.04626 -3.22346 0
M  V30 5542 C 524.132 -2.24826 -3.75196 0
M  V30 5543 C 523.191 -1.92659 -4.89662 0
M  V30 5544 O 522.217 -2.6529 -5.03597 0
M  V30 5545 N 523.419 -0.889575 -5.73643 0
M  V30 5546 H 526.184 -2.30196 -1.91911 0
M  V30 5547 H 523.745 -1.33168 -0.920756 0
M  V30 5548 H 525.737 -0.811347 -3.96484 0
M  V30 5549 H 524.307 -0.165129 -3.12164 0
M  V30 5550 H 523.527 -2.64301 -2.9247 0
M  V30 5551 H 524.815 -3.05015 -4.07239 0
M  V30 5552 H 524.213 -0.287529 -5.64969 0
M  V30 5553 H 522.77 -0.714557 -6.47871 0
M  V30 5554 N 526.204 0.969867 -1.24223 0
M  V30 5555 C 527.151 2.06407 -1.0327 0
M  V30 5556 C 528.121 1.66014 0.0533 0
M  V30 5557 O 529.306 1.90533 -0.100896 0
M  V30 5558 C 526.446 3.3909 -0.641262 0
M  V30 5559 C 525.559 3.9269 -1.80051 0
M  V30 5560 C 524.694 5.13631 -1.35486 0
M  V30 5561 C 523.733 5.59423 -2.48419 0
M  V30 5562 N 522.87 6.71586 -2.04737 0
M  V30 5563 H 527.71 2.23663 -1.96923 0
M  V30 5564 H 525.247 1.09624 -0.980862 0
M  V30 5565 H 527.205 4.15323 -0.395351 0
M  V30 5566 H 525.835 3.21765 0.258269 0
M  V30 5567 H 524.887 3.13116 -2.16014 0
M  V30 5568 H 526.199 4.22636 -2.64916 0
M  V30 5569 H 525.353 5.97231 -1.0677 0
M  V30 5570 H 524.092 4.85364 -0.476722 0
M  V30 5571 H 523.097 4.74398 -2.77897 0
M  V30 5572 H 524.322 5.89705 -3.36786 0
M  V30 5573 H 522.268 6.45058 -1.19318 0
M  V30 5574 H 522.185 7.0097 -2.83156 0
M  V30 5575 H 523.453 7.58633 -1.79154 0
M  V30 5576 N 527.682 1.05563 1.17022 0
M  V30 5577 C 528.959 0.68165 1.83338 0
M  V30 5578 C 529.339 -0.837665 1.93769 0
M  V30 5579 O 528.687 -1.74507 1.47511 0
M  V30 5580 C 528.897 1.375 3.20772 0
M  V30 5581 C 530.245 1.51545 3.96635 0
M  V30 5582 O 531.269 1.33431 3.30264 0
M  V30 5583 O 530.128 1.812 5.15586 0
M  V30 5584 H 527.222 0.240412 0.791285 0
M  V30 5585 H 529.768 1.15545 1.24288 0
M  V30 5586 H 528.54 2.41135 3.08171 0
M  V30 5587 H 528.163 0.890798 3.87493 0
M  V30 5588 N 529.16 -1.33526 0.837174 0
M  V30 5589 C 530.107 -2.29248 0.267169 0
M  V30 5590 C 531.077 -1.54252 -0.616071 0
M  V30 5591 O 532.262 -1.82559 -0.554699 0
M  V30 5592 C 529.402 -3.40638 -0.553152 0
M  V30 5593 C 528.515 -4.30548 0.353921 0
M  V30 5594 C 527.65 -5.29051 -0.477339 0
M  V30 5595 C 526.689 -6.106 0.42823 0
M  V30 5596 N 525.826 -7.01152 -0.364801 0
M  V30 5597 H 530.666 -2.77398 1.08877 0
M  V30 5598 H 528.203 -1.36496 0.54838 0
M  V30 5599 H 530.161 -4.03921 -1.04422 0
M  V30 5600 H 528.791 -2.93685 -1.33973 0
M  V30 5601 H 527.843 -3.68001 0.963289 0
M  V30 5602 H 529.155 -4.87631 1.04964 0
M  V30 5603 H 528.309 -5.97853 -1.0323 0
M  V30 5604 H 527.048 -4.72541 -1.2065 0
M  V30 5605 H 526.053 -5.40718 0.995219 0
M  V30 5606 H 527.278 -6.69193 1.15573 0
M  V30 5607 H 525.224 -6.47092 -1.07738 0
M  V30 5608 H 525.141 -7.5551 0.272238 0
M  V30 5609 H 526.409 -7.74263 -0.902054 0
M  V30 5610 N 530.638 -0.59345 -1.46 0
M  V30 5611 C 531.863 -0.0872365 -2.07216 0
M  V30 5612 C 532.288 1.2131 -1.43755 0
M  V30 5613 O 531.646 1.73528 -0.525152 0
M  V30 5614 C 531.694 0.0538197 -3.6056 0
M  V30 5615 O 530.798 1.10765 -3.97247 0
M  V30 5616 H 530.139 -0.0676598 -0.660544 0
M  V30 5617 H 532.669 -0.819445 -1.87473 0
M  V30 5618 H 532.679 0.256567 -4.07193 0
M  V30 5619 H 531.354 -0.895739 -4.0614 0
M  V30 5620 H 529.931 0.882501 -3.62307 0
M  V30 5621 N 532.116 1.54067 -0.331816 0
M  V30 5622 C 533.362 2.01012 0.268667 0
M  V30 5623 C 533.695 1.2195 1.51136 0
M  V30 5624 O 532.97 0.303972 1.9211 0
M  V30 5625 C 533.253 3.55158 0.59456 0
M  V30 5626 C 533.106 4.4494 -0.659409 0
M  V30 5627 C 534.425 4.16939 1.4089 0
M  V30 5628 H 531.544 0.730698 0.0961756 0
M  V30 5629 H 534.186 1.84593 -0.450031 0
M  V30 5630 H 532.336 3.6928 1.20685 0
M  V30 5631 H 534.008 4.42675 -1.29756 0
M  V30 5632 H 532.251 4.1428 -1.28665 0
M  V30 5633 H 532.922 5.50643 -0.386804 0
M  V30 5634 H 535.398 4.06443 0.891272 0
M  V30 5635 H 534.274 5.24889 1.60569 0
M  V30 5636 H 534.535 3.70798 2.40752 0
M  V30 5637 N 533.594 0.0601682 1.57485 0
M  V30 5638 C 534.843 -0.611101 1.9222 0
M  V30 5639 C 535.156 -1.71469 0.941159 0
M  V30 5640 O 536.362 -2.44473 1.18089 0
M  V30 5641 C 534.818 -1.13832 3.41424 0
M  V30 5642 C 534.426 -0.0663596 4.47951 0
M  V30 5643 C 536.17 -1.78432 3.85178 0
M  V30 5644 C 534.077 -0.606965 5.88277 0
M  V30 5645 H 533.007 -0.232033 0.71741 0
M  V30 5646 H 535.658 0.130518 1.83035 0
M  V30 5647 H 534.04 -1.93254 3.45643 0
M  V30 5648 H 535.214 0.707682 4.55333 0
M  V30 5649 H 533.529 0.482715 4.13593 0
M  V30 5650 H 536.126 -2.1989 4.87394 0
M  V30 5651 H 536.469 -2.63966 3.21913 0
M  V30 5652 H 537.002 -1.05651 3.83514 0
M  V30 5653 H 533.741 0.21095 6.5516 0
M  V30 5654 H 533.261 -1.34879 5.84438 0
M  V30 5655 H 534.94 -1.08704 6.37803 0
M  V30 5656 N 535.072 -1.5615 -0.213296 0
M  V30 5657 C 536.004 -1.89586 -1.28802 0
M  V30 5658 C 537.017 -0.784844 -1.42633 0
M  V30 5659 O 538.206 -1.06319 -1.43383 0
M  V30 5660 C 535.306 -2.09665 -2.66259 0
M  V30 5661 C 534.479 -3.40726 -2.7427 0
M  V30 5662 C 533.538 -3.50137 -3.92798 0
M  V30 5663 O 532.564 -4.23105 -3.8075 0
M  V30 5664 N 533.766 -2.81886 -5.07465 0
M  V30 5665 H 536.531 -2.82368 -1.00442 0
M  V30 5666 H 534.092 -1.56796 -0.403302 0
M  V30 5667 H 536.084 -2.13268 -3.43946 0
M  V30 5668 H 534.654 -1.23469 -2.87183 0
M  V30 5669 H 533.874 -3.4915 -1.82997 0
M  V30 5670 H 535.162 -4.27048 -2.76599 0
M  V30 5671 H 534.56 -2.22397 -5.2015 0
M  V30 5672 H 533.117 -2.91139 -5.83165 0
M  V30 5673 N 536.55 0.480323 -1.50102 0
M  V30 5674 C 537.48 1.58769 -1.71215 0
M  V30 5675 C 538.461 1.60583 -0.560997 0
M  V30 5676 O 539.646 1.76996 -0.799127 0
M  V30 5677 C 536.776 2.97148 -1.79778 0
M  V30 5678 C 535.73 3.10201 -2.94888 0
M  V30 5679 C 535.056 4.50137 -2.88584 0
M  V30 5680 C 536.356 2.88283 -4.35534 0
M  V30 5681 H 538.05 1.41354 -2.6393 0
M  V30 5682 H 535.596 0.678591 -1.27008 0
M  V30 5683 H 537.549 3.74536 -1.93133 0
M  V30 5684 H 536.273 3.15699 -0.836772 0
M  V30 5685 H 534.932 2.35244 -2.81169 0
M  V30 5686 H 534.58 4.65593 -1.90349 0
M  V30 5687 H 534.28 4.59808 -3.65856 0
M  V30 5688 H 535.804 5.29558 -3.03976 0
M  V30 5689 H 537.218 3.55427 -4.49827 0
M  V30 5690 H 535.615 3.09408 -5.14186 0
M  V30 5691 H 536.685 1.84219 -4.48544 0
M  V30 5692 N 538.028 1.39524 0.732853 0
M  V30 5693 C 538.978 1.34905 1.83806 0
M  V30 5694 C 539.962 0.229546 1.59254 0
M  V30 5695 O 541.154 0.467255 1.70721 0
M  V30 5696 C 538.283 1.19699 3.21756 0
M  V30 5697 C 537.369 2.36359 3.5213 0
M  V30 5698 N 537.76 3.61834 3.53426 0
M  V30 5699 C 536.058 2.29363 3.82503 0
M  V30 5700 C 536.759 4.38992 3.81655 0
M  V30 5701 N 535.735 3.68606 3.99538 0
M  V30 5702 H 539.537 2.29882 1.83116 0
M  V30 5703 H 537.051 1.33051 0.931194 0
M  V30 5704 H 539.048 1.14472 4.00876 0
M  V30 5705 H 537.708 0.256739 3.23683 0
M  V30 5706 H 538.719 3.95228 3.34686 0
M  V30 5707 H 535.396 1.43612 3.92023 0
M  V30 5708 H 536.786 5.47763 3.89108 0
M  V30 5709 N 539.506 -0.963266 1.24736 0
M  V30 5710 C 540.436 -2.07628 1.06832 0
M  V30 5711 C 541.417 -1.70088 -0.0200566 0
M  V30 5712 O 542.602 -1.93636 0.147854 0
M  V30 5713 C 539.732 -3.40636 0.677069 0
M  V30 5714 C 538.686 -3.9215 1.71471 0
M  V30 5715 C 538.012 -5.21553 1.1784 0
M  V30 5716 C 539.312 -4.19493 3.11164 0
M  V30 5717 H 541.006 -2.22864 1.9993 0
M  V30 5718 H 538.552 -1.07093 0.96266 0
M  V30 5719 H 540.505 -4.17941 0.538792 0
M  V30 5720 H 539.229 -3.25313 -0.289612 0
M  V30 5721 H 537.888 -3.17005 1.84128 0
M  V30 5722 H 537.536 -5.02593 0.202195 0
M  V30 5723 H 537.236 -5.56988 1.87185 0
M  V30 5724 H 538.76 -6.01463 1.05233 0
M  V30 5725 H 540.174 -4.87487 3.01711 0
M  V30 5726 H 538.571 -4.66165 3.77902 0
M  V30 5727 H 539.641 -3.26097 3.58871 0
M  V30 5728 N 540.985 -1.06182 -1.16461 0
M  V30 5729 C 541.917 -0.629584 -2.20383 0
M  V30 5730 C 542.93 0.311834 -1.59786 0
M  V30 5731 O 544.119 0.103 -1.78203 0
M  V30 5732 C 541.219 0.0973695 -3.3876 0
M  V30 5733 C 540.392 -0.857252 -4.28917 0
M  V30 5734 C 539.451 -0.169749 -5.25926 0
M  V30 5735 O 538.477 -0.807044 -5.6345 0
M  V30 5736 N 539.679 1.08911 -5.70192 0
M  V30 5737 H 542.444 -1.52352 -2.58087 0
M  V30 5738 H 540.005 -0.944993 -1.31459 0
M  V30 5739 H 541.997 0.567676 -4.00699 0
M  V30 5740 H 540.567 0.893093 -2.99571 0
M  V30 5741 H 539.787 -1.50696 -3.64259 0
M  V30 5742 H 541.075 -1.50489 -4.86035 0
M  V30 5743 H 540.473 1.62703 -5.41797 0
M  V30 5744 H 539.03 1.50331 -6.34227 0
M  V30 5745 N 542.463 1.3308 -0.844243 0
M  V30 5746 C 543.41 2.29104 -0.279323 0
M  V30 5747 C 544.38 1.54577 0.607882 0
M  V30 5748 O 545.565 1.8285 0.545009 0
M  V30 5749 C 542.705 3.40927 0.53508 0
M  V30 5750 C 541.818 4.30354 -0.376749 0
M  V30 5751 C 540.953 5.29297 0.449276 0
M  V30 5752 C 539.992 6.10365 -0.460606 0
M  V30 5753 N 539.129 7.01335 0.327612 0
M  V30 5754 H 543.969 2.76817 -1.10346 0
M  V30 5755 H 541.506 1.36203 -0.555611 0
M  V30 5756 H 543.464 4.04469 1.02278 0
M  V30 5757 H 542.094 2.94391 1.32414 0
M  V30 5758 H 541.146 3.67485 -0.982791 0
M  V30 5759 H 542.458 4.87067 -1.07549 0
M  V30 5760 H 541.612 5.98392 1.00058 0
M  V30 5761 H 540.351 4.73174 1.18143 0
M  V30 5762 H 539.356 5.40182 -1.02388 0
M  V30 5763 H 540.581 6.68571 -1.1912 0
M  V30 5764 H 538.527 6.47655 1.04305 0
M  V30 5765 H 538.444 7.55355 -0.3123 0
M  V30 5766 H 539.712 7.74731 0.86098 0
M  V30 5767 N 543.941 0.601185 1.45683 0
M  V30 5768 C 545.166 0.0982245 2.07167 0
M  V30 5769 C 545.591 -1.20546 1.44396 0
M  V30 5770 O 544.949 -1.73247 0.534347 0
M  V30 5771 C 544.997 -0.0346976 3.60583 0
M  V30 5772 O 544.101 -1.08657 3.97828 0
M  V30 5773 H 543.442 0.0711618 0.660176 0
M  V30 5774 H 545.972 0.829376 1.87036 0
M  V30 5775 H 545.982 -0.234969 4.07323 0
M  V30 5776 H 544.657 0.917265 4.05659 0
M  V30 5777 H 543.234 -0.863275 3.6277 0
M  V30 5778 N 545.419 -1.53889 0.339982 0
M  V30 5779 C 546.835 -1.59595 -0.0120752 0
M  V30 5780 C 547.035 -1.35605 -1.49042 0
M  V30 5781 O 546.091 -1.14856 -2.24865 0
M  V30 5782 C 547.404 -2.9774 0.420898 0
M  V30 5783 C 548.952 -3.1077 0.37294 0
M  V30 5784 C 549.427 -4.51286 0.781327 0
M  V30 5785 N 550.918 -4.57325 0.735374 0
M  V30 5786 C 551.653 -5.64194 1.02336 0
M  V30 5787 N 551.149 -6.7893 1.37933 0
M  V30 5788 N 552.942 -5.54051 0.947838 0
M  V30 5789 H 545.093 -1.67738 1.30299 0
M  V30 5790 H 547.356 -0.785385 0.530918 0
M  V30 5791 H 547.062 -3.20349 1.45152 0
M  V30 5792 H 546.936 -3.76639 -0.205721 0
M  V30 5793 H 549.323 -2.87886 -0.648505 0
M  V30 5794 H 549.404 -2.33939 1.03472 0
M  V30 5795 H 549.048 -4.74905 1.80077 0
M  V30 5796 H 548.978 -5.26511 0.0970679 0
M  V30 5797 H 551.469 -3.74931 0.472773 0
M  V30 5798 H 551.782 -7.56392 1.58402 0
M  V30 5799 H 550.127 -6.80386 1.41774 0
M  V30 5800 H 553.318 -4.63293 0.669115 0
M  V30 5801 H 553.491 -6.37246 1.17563 0
M  V30 5802 N 546.897 -0.0685191 -1.57451 0
M  V30 5803 C 547.807 0.914677 -2.16034 0
M  V30 5804 C 548.823 1.32938 -1.12265 0
M  V30 5805 O 549.999 1.40275 -1.44516 0
M  V30 5806 C 547.064 2.16519 -2.70777 0
M  V30 5807 C 546.125 1.80721 -3.89408 0
M  V30 5808 C 545.358 2.9981 -4.41531 0
M  V30 5809 O 545.581 4.13727 -3.92666 0
M  V30 5810 O 544.515 2.79817 -5.32903 0
M  V30 5811 H 548.341 0.446364 -3.00402 0
M  V30 5812 H 545.926 0.154367 -1.486 0
M  V30 5813 H 547.808 2.89856 -3.05878 0
M  V30 5814 H 546.483 2.62454 -1.89471 0
M  V30 5815 H 545.39 1.04646 -3.59166 0
M  V30 5816 H 546.723 1.39571 -4.71997 0
M  V30 5817 N 548.375 1.56261 0.205012 0
M  V30 5818 C 549.338 1.92908 1.23771 0
M  V30 5819 C 550.338 0.809208 1.38955 0
M  V30 5820 O 551.528 1.07676 1.36936 0
M  V30 5821 C 548.66 2.19442 2.60879 0
M  V30 5822 H 549.853 2.85287 0.924728 0
M  V30 5823 H 547.406 1.49798 0.446125 0
M  V30 5824 H 548.141 1.29668 2.97248 0
M  V30 5825 H 547.926 3.0104 2.51232 0
M  V30 5826 H 549.416 2.48833 3.35368 0
M  V30 5827 N 549.853 -0.472356 1.50355 0
M  V30 5828 C 551.264 -1.05326 1.54154 0
M  V30 5829 C 551.615 -1.93155 0.344303 0
M  V30 5830 O 550.74 -2.09479 -0.542928 0
M  V30 5831 C 551.335 -1.91691 2.79356 0
M  V30 5832 C 549.894 -2.44892 2.8584 0
M  V30 5833 C 549.041 -1.23205 2.48426 0
M  V30 5834 H 551.992 -0.255027 1.56637 0
M  V30 5835 H 552.013 -2.76742 2.6114 0
M  V30 5836 H 551.525 -1.27741 3.66475 0
M  V30 5837 H 549.626 -3.12399 2.0307 0
M  V30 5838 H 549.739 -2.80086 3.88701 0
M  V30 5839 H 548.103 -1.56643 2.00836 0
M  V30 5840 H 548.886 -0.609194 3.37852 0
M  V30 5841 N 551.331 -1.39911 -0.725443 0
M  V30 5842 C 552.579 -1.37382 -1.48224 0
M  V30 5843 C 552.9 0.0264107 -1.94982 0
M  V30 5844 O 552.17 0.979408 -1.6966 0
M  V30 5845 H 550.75 -0.505596 -0.549892 0
M  V30 5846 H 553.412 -1.7487 -0.860608 0
M  V30 5847 H 552.508 -2.04254 -2.3598 0
M  V30 5848 N 552.809 0.956637 -1.25245 0
M  V30 5849 C 553.756 2.053 -1.05454 0
M  V30 5850 C 554.726 1.66062 0.0356889 0
M  V30 5851 O 555.911 1.90415 -0.121099 0
M  V30 5852 C 553.051 3.38391 -0.677191 0
M  V30 5853 C 552.164 3.90758 -1.84206 0
M  V30 5854 C 551.299 5.12165 -1.40926 0
M  V30 5855 C 550.338 5.56757 -2.54338 0
M  V30 5856 N 549.475 6.69376 -2.11848 0
M  V30 5857 H 554.315 2.21562 -1.99284 0
M  V30 5858 H 551.852 1.08578 -0.992434 0
M  V30 5859 H 553.81 4.1488 -0.43938 0
M  V30 5860 H 552.44 3.22021 0.224127 0
M  V30 5861 H 551.492 3.10808 -2.19323 0
M  V30 5862 H 552.804 4.19802 -2.69383 0
M  V30 5863 H 551.958 5.96065 -1.13098 0
M  V30 5864 H 550.697 4.84832 -0.528175 0
M  V30 5865 H 549.702 4.71423 -2.82913 0
M  V30 5866 H 550.927 5.861 -3.43022 0
M  V30 5867 H 548.873 6.43756 -1.26153 0
M  V30 5868 H 548.79 6.97927 -2.90574 0
M  V30 5869 H 550.058 7.5669 -1.87191 0
M  V30 5870 N 554.287 1.06798 1.15896 0
M  V30 5871 C 555.217 0.704677 2.22613 0
M  V30 5872 C 556.198 -0.305252 1.67339 0
M  V30 5873 O 557.383 -0.179247 1.93371 0
M  V30 5874 C 554.513 0.0957325 3.47168 0
M  V30 5875 C 553.467 1.0322 4.15367 0
M  V30 5876 C 552.793 0.286293 5.33933 0
M  V30 5877 C 554.093 2.36341 4.65768 0
M  V30 5878 H 555.787 1.59688 2.53259 0
M  V30 5879 H 553.333 0.769257 1.21731 0
M  V30 5880 H 555.286 -0.170333 4.21056 0
M  V30 5881 H 554.01 -0.831516 3.15838 0
M  V30 5882 H 552.669 1.28309 3.43413 0
M  V30 5883 H 552.317 -0.644237 4.98857 0
M  V30 5884 H 552.017 0.910436 5.80504 0
M  V30 5885 H 553.541 0.0278938 6.10594 0
M  V30 5886 H 554.955 2.1561 5.31211 0
M  V30 5887 H 553.352 2.94299 5.2298 0
M  V30 5888 H 554.422 2.99047 3.81705 0
M  V30 5889 N 555.766 -1.3263 0.851289 0
M  V30 5890 C 556.991 -2.02097 0.466006 0
M  V30 5891 C 557.416 -1.63574 -0.928709 0
M  V30 5892 O 556.774 -0.834665 -1.60944 0
M  V30 5893 C 556.822 -3.55425 0.608737 0
M  V30 5894 O 555.926 -4.10827 -0.359878 0
M  V30 5895 H 555.267 -0.636911 0.187724 0
M  V30 5896 H 557.797 -1.69253 1.14955 0
M  V30 5897 H 557.807 -4.04986 0.495006 0
M  V30 5898 H 556.482 -3.82806 1.62581 0
M  V30 5899 H 555.059 -3.72349 -0.202666 0
M  V30 5900 N 557.244 -0.608902 -1.45362 0
M  V30 5901 C 558.66 -0.272659 -1.57254 0
M  V30 5902 C 558.86 1.22477 -1.60005 0
M  V30 5903 O 557.916 2.00785 -1.53106 0
M  V30 5904 C 559.229 -0.944991 -2.85465 0
M  V30 5905 C 560.777 -0.921033 -2.99142 0
M  V30 5906 C 561.252 -1.5734 -4.30126 0
M  V30 5907 N 562.743 -1.53895 -4.36887 0
M  V30 5908 C 563.478 -2.01286 -5.36909 0
M  V30 5909 N 562.974 -2.56768 -6.43461 0
M  V30 5910 N 564.767 -1.92046 -5.28275 0
M  V30 5911 H 556.918 -1.58117 -1.4182 0
M  V30 5912 H 559.181 -0.662437 -0.678146 0
M  V30 5913 H 558.887 -1.99941 -2.89338 0
M  V30 5914 H 558.761 -0.469079 -3.74272 0
M  V30 5915 H 561.148 0.124846 -2.94836 0
M  V30 5916 H 561.229 -1.43522 -2.11743 0
M  V30 5917 H 560.873 -2.61862 -4.35191 0
M  V30 5918 H 560.803 -1.03422 -5.16344 0
M  V30 5919 H 563.294 -1.13366 -3.60495 0
M  V30 5920 H 563.607 -2.9072 -7.16032 0
M  V30 5921 H 561.952 -2.60808 -6.44208 0
M  V30 5922 H 565.143 -1.48439 -4.43941 0
M  V30 5923 H 565.316 -2.29293 -6.06077 0
M  V30 5924 N 558.722 1.53707 -0.348139 0
M  V30 5925 C 559.669 2.25173 0.506518 0
M  V30 5926 C 560.639 1.25174 1.09182 0
M  V30 5927 O 561.824 1.53917 1.12757 0
M  V30 5928 C 558.964 3.03141 1.64923 0
M  V30 5929 C 558.077 4.18002 1.0908 0
M  V30 5930 C 557.212 4.83447 2.20119 0
M  V30 5931 C 556.251 5.90369 1.61651 0
M  V30 5932 N 555.388 6.49575 2.66451 0
M  V30 5933 H 560.228 2.97799 -0.109452 0
M  V30 5934 H 557.765 1.46953 -0.0657866 0
M  V30 5935 H 559.723 3.46607 2.32205 0
M  V30 5936 H 558.353 2.32803 2.23612 0
M  V30 5937 H 557.405 3.79145 0.308783 0
M  V30 5938 H 558.717 4.94892 0.623178 0
M  V30 5939 H 557.871 5.30008 2.95257 0
M  V30 5940 H 556.61 4.05991 2.70227 0
M  V30 5941 H 555.615 5.43186 0.850209 0
M  V30 5942 H 556.84 6.69735 1.1239 0
M  V30 5943 H 554.786 5.74981 3.15805 0
M  V30 5944 H 554.703 7.21952 2.24325 0
M  V30 5945 H 555.971 7.00789 3.41344 0
M  V30 5946 N 560.2 0.0768682 1.57412 0
M  V30 5947 C 561.15 -0.898795 2.09537 0
M  V30 5948 C 562.134 -1.25556 1.0062 0
M  V30 5949 O 563.326 -1.23369 1.26921 0
M  V30 5950 C 560.455 -2.16453 2.66464 0
M  V30 5951 C 559.541 -1.83401 3.82393 0
M  V30 5952 N 559.932 -1.20823 4.91157 0
M  V30 5953 C 558.23 -2.13121 3.91785 0
M  V30 5954 C 558.931 -1.05976 5.71965 0
M  V30 5955 N 557.907 -1.57113 5.204 0
M  V30 5956 H 561.709 -0.410718 2.91016 0
M  V30 5957 H 559.223 -0.126878 1.61904 0
M  V30 5958 H 561.22 -2.87274 3.02125 0
M  V30 5959 H 559.88 -2.65844 1.86433 0
M  V30 5960 H 560.891 -0.877249 5.10416 0
M  V30 5961 H 557.568 -2.64854 3.22736 0
M  V30 5962 H 558.958 -0.571809 6.69462 0
M  V30 5963 N 561.678 -1.56367 -0.196722 0
M  V30 5964 C 562.588 -1.97617 -1.2643 0
M  V30 5965 C 563.604 -0.883598 -1.49895 0
M  V30 5966 O 564.78 -1.18921 -1.62541 0
M  V30 5967 C 561.845 -2.30595 -2.58895 0
M  V30 5968 C 560.906 -3.53551 -2.43516 0
M  V30 5969 C 560.139 -3.84946 -3.69665 0
M  V30 5970 O 560.362 -3.17655 -4.73763 0
M  V30 5971 O 559.296 -4.78379 -3.65291 0
M  V30 5972 H 563.122 -2.88648 -0.944233 0
M  V30 5973 H 560.707 -1.43901 -0.401592 0
M  V30 5974 H 562.589 -2.52889 -3.37083 0
M  V30 5975 H 561.264 -1.42732 -2.90533 0
M  V30 5976 H 560.171 -3.36507 -1.63445 0
M  V30 5977 H 561.504 -4.41875 -2.16812 0
M  V30 5978 N 563.156 0.464375 -1.50603 0
M  V30 5979 C 564.066 1.58723 -1.72754 0
M  V30 5980 C 565.082 1.62925 -0.610844 0
M  V30 5981 O 566.258 1.8067 -0.889963 0
M  V30 5982 C 563.323 2.94897 -1.82309 0
M  V30 5983 C 562.384 3.0103 -3.06071 0
M  V30 5984 C 561.617 4.30708 -3.1516 0
M  V30 5985 O 561.84 5.2159 -2.30868 0
M  V30 5986 O 560.774 4.42571 -4.0794 0
M  V30 5987 H 564.6 1.42954 -2.67951 0
M  V30 5988 H 562.185 0.644579 -1.3478 0
M  V30 5989 H 564.067 3.75764 -1.90735 0
M  V30 5990 H 562.742 3.10851 -0.902967 0
M  V30 5991 H 561.649 2.19217 -3.03142 0
M  V30 5992 H 562.982 2.90014 -3.97684 0
M  V30 5993 N 564.634 1.40294 0.718013 0
M  V30 5994 C 565.911 1.2894 1.47084 0
M  V30 5995 C 566.291 -0.0933625 2.10893 0
M  V30 5996 O 565.639 -1.10598 1.99951 0
M  V30 5997 C 565.849 2.4264 2.50852 0
M  V30 5998 C 567.197 2.8276 3.16752 0
M  V30 5999 O 568.221 2.42215 2.61171 0
M  V30 6000 O 567.08 3.528 4.17366 0
M  V30 6001 H 564.174 0.506236 0.653952 0
M  V30 6002 H 566.72 1.52208 0.750394 0
M  V30 6003 H 565.492 3.35009 2.022 0
M  V30 6004 H 565.115 2.21129 3.30435 0
M  V30 6005 N 566.112 -0.949982 1.2575 0
M  V30 6006 C 567.062 -2.03297 1.03221 0
M  V30 6007 C 568.046 -1.60867 -0.0324751 0
M  V30 6008 O 569.238 -1.76047 0.183423 0
M  V30 6009 C 566.367 -3.36938 0.657841 0
M  V30 6010 C 565.453 -3.85878 1.75952 0
M  V30 6011 N 565.844 -4.0756 2.99547 0
M  V30 6012 C 564.142 -4.14709 1.64111 0
M  V30 6013 C 564.843 -4.47961 3.71087 0
M  V30 6014 N 563.819 -4.5416 2.98731 0
M  V30 6015 H 567.621 -2.1806 1.97045 0
M  V30 6016 H 565.135 -1.13516 1.16138 0
M  V30 6017 H 567.132 -4.14155 0.477614 0
M  V30 6018 H 565.792 -3.2355 -0.273025 0
M  V30 6019 H 566.803 -3.94501 3.35544 0
M  V30 6020 H 563.48 -4.10158 0.779527 0
M  V30 6021 H 564.87 -4.73002 4.77199 0
M  V30 6022 N 567.59 -1.07411 -1.15328 0
M  V30 6023 C 568.815 -0.818856 -1.90551 0
M  V30 6024 C 569.24 0.622194 -1.77512 0
M  V30 6025 O 568.598 1.43484 -1.10824 0
M  V30 6026 C 568.646 -1.23267 -3.38877 0
M  V30 6027 O 567.75 -0.378345 -4.10661 0
M  V30 6028 H 567.091 -0.29827 -0.593238 0
M  V30 6029 H 569.621 -1.43289 -1.46046 0
M  V30 6030 H 569.631 -1.20912 -3.89672 0
M  V30 6031 H 568.306 -2.28226 -3.47686 0
M  V30 6032 H 566.883 -0.464437 -3.69996 0
M  V30 6033 N 569.068 1.32177 -0.85831 0
M  V30 6034 C 570 2.27688 -0.262835 0
M  V30 6035 C 571.013 1.52588 0.567513 0
M  V30 6036 O 572.202 1.74156 0.391407 0
M  V30 6037 C 569.302 3.32668 0.646937 0
M  V30 6038 C 568.475 4.37148 -0.148372 0
M  V30 6039 C 567.534 5.21686 0.687728 0
M  V30 6040 O 566.56 5.69074 0.119934 0
M  V30 6041 N 567.762 5.44892 2.00182 0
M  V30 6042 H 570.527 2.79426 -1.08356 0
M  V30 6043 H 568.088 1.45076 -0.718647 0
M  V30 6044 H 570.08 3.86134 1.2117 0
M  V30 6045 H 568.65 2.81061 1.36834 0
M  V30 6046 H 567.87 3.83915 -0.894572 0
M  V30 6047 H 569.158 5.04038 -0.694514 0
M  V30 6048 H 568.556 5.08128 2.4864 0
M  V30 6049 H 567.113 6.0134 2.51463 0
M  V30 6050 N 570.547 0.616602 1.45037 0
M  V30 6051 C 571.794 0.115331 2.02171 0
M  V30 6052 C 572.122 -1.25748 1.48383 0
M  V30 6053 O 571.377 -1.84511 0.652229 0
M  V30 6054 C 571.676 0.0356829 3.57382 0
M  V30 6055 C 571.342 1.34535 4.30362 0
M  V30 6056 C 570.004 1.70408 4.50016 0
M  V30 6057 C 572.356 2.21049 4.72003 0
M  V30 6058 C 569.684 2.92529 5.0857 0
M  V30 6059 C 572.036 3.42427 5.31908 0
M  V30 6060 C 570.7 3.78541 5.49784 0
M  V30 6061 H 569.97 0.0422024 0.739797 0
M  V30 6062 H 572.617 0.80002 1.73988 0
M  V30 6063 H 570.922 -0.732314 3.84895 0
M  V30 6064 H 572.619 -0.368463 3.99304 0
M  V30 6065 H 569.209 1.05615 4.15383 0
M  V30 6066 H 573.393 1.94632 4.56544 0
M  V30 6067 H 568.649 3.20605 5.20598 0
M  V30 6068 H 572.823 4.09709 5.63127 0
M  V30 6069 H 570.45 4.73255 5.94923 0
M  V30 6070 N 572.025 -1.5352 0.356285 0
M  V30 6071 C 573.255 -2.05236 -0.236983 0
M  V30 6072 C 573.663 -1.23016 -1.43749 0
M  V30 6073 O 573.006 -0.2615 -1.81829 0
M  V30 6074 C 573.068 -3.52549 -0.7035 0
M  V30 6075 C 572.732 -4.55425 0.379059 0
M  V30 6076 C 573.729 -5.0524 1.22592 0
M  V30 6077 C 571.414 -4.99425 0.536638 0
M  V30 6078 C 573.408 -5.97647 2.21578 0
M  V30 6079 C 571.095 -5.9164 1.52988 0
M  V30 6080 C 572.093 -6.4064 2.3679 0
M  V30 6081 O 571.781 -7.31039 3.34421 0
M  V30 6082 H 571.513 -0.674346 -0.047254 0
M  V30 6083 H 574.067 -1.98962 0.510238 0
M  V30 6084 H 572.297 -3.56331 -1.50217 0
M  V30 6085 H 573.986 -3.87171 -1.21873 0
M  V30 6086 H 574.752 -4.72002 1.11532 0
M  V30 6087 H 570.631 -4.60879 -0.105834 0
M  V30 6088 H 574.175 -6.35816 2.87025 0
M  V30 6089 H 570.072 -6.24293 1.64099 0
M  V30 6090 H 570.84 -7.49009 3.30041 0
M  V30 6091 N 573.503 -0.0852151 -1.57369 0
M  V30 6092 C 574.433 0.874556 -2.16503 0
M  V30 6093 C 575.414 1.30111 -1.09568 0
M  V30 6094 O 576.599 1.36977 -1.37662 0
M  V30 6095 C 573.729 2.13731 -2.73745 0
M  V30 6096 C 572.683 1.84971 -3.85966 0
M  V30 6097 C 572.009 3.17991 -4.29867 0
M  V30 6098 C 573.309 1.14442 -5.09608 0
M  V30 6099 H 575.003 0.381899 -2.96954 0
M  V30 6100 H 572.549 0.18225 -1.42842 0
M  V30 6101 H 574.502 2.81302 -3.13763 0
M  V30 6102 H 573.226 2.65263 -1.90534 0
M  V30 6103 H 571.885 1.19801 -3.46473 0
M  V30 6104 H 571.533 3.6739 -3.4356 0
M  V30 6105 H 571.233 2.99534 -5.05523 0
M  V30 6106 H 572.757 3.86737 -4.72511 0
M  V30 6107 H 574.171 1.72105 -5.46857 0
M  V30 6108 H 572.568 1.06197 -5.90629 0
M  V30 6109 H 573.638 0.12559 -4.84737 0
M  V30 6110 N 574.981 1.5647 0.188427 0
M  V30 6111 C 575.929 1.95971 1.25293 0
M  V30 6112 C 576.923 0.846047 1.4676 0
M  V30 6113 O 578.129 1.03109 1.47542 0
M  V30 6114 H 574.504 0.623253 0.420784 0
M  V30 6115 H 576.475 2.84731 0.892792 0
M  V30 6116 C 575.224 2.32116 2.58877 0
M  V30 6117 H 574.547 3.17341 2.43176 0
M  V30 6118 H 575.987 2.63613 3.3209 0
M  V30 6119 C 574.446 1.15823 3.16365 0
M  V30 6120 O 574.976 0.436785 3.99318 0
M  V30 6121 N 573.182 0.933278 2.75206 0
M  V30 6122 H 572.729 1.52169 2.07852 0
M  V30 6123 H 572.687 0.156976 3.14008 0
M  V30 6124 N 576.459 -0.456382 1.50847 0
M  V30 6125 C 577.391 -1.57033 1.66953 0
M  V30 6126 C 578.404 -1.53207 0.550593 0
M  V30 6127 O 579.593 -1.58328 0.824285 0
M  V30 6128 C 576.693 -2.95937 1.65149 0
M  V30 6129 C 575.866 -3.24475 2.93317 0
M  V30 6130 C 574.925 -4.43007 2.83957 0
M  V30 6131 O 573.951 -4.42592 3.57912 0
M  V30 6132 N 575.153 -5.45503 1.9851 0
M  V30 6133 H 577.918 -1.43629 2.63042 0
M  V30 6134 H 575.479 -0.645037 1.48495 0
M  V30 6135 H 577.471 -3.73224 1.56481 0
M  V30 6136 H 576.041 -3.03036 0.767343 0
M  V30 6137 H 575.261 -2.35664 3.16 0
M  V30 6138 H 576.549 -3.4036 3.78196 0
M  V30 6139 H 575.947 -5.48668 1.37766 0
M  V30 6140 H 574.504 -6.21716 1.95735 0
M  V30 6141 N 577.937 -1.40673 -0.710563 0
M  V30 6142 C 578.867 -1.44095 -1.83736 0
M  V30 6143 C 579.848 -0.301286 -1.67411 0
M  V30 6144 O 581.033 -0.510618 -1.87367 0
M  V30 6145 C 578.163 -1.30773 -3.21738 0
M  V30 6146 C 577.117 -2.42395 -3.52745 0
M  V30 6147 C 576.443 -2.14147 -4.89944 0
M  V30 6148 C 577.743 -3.84738 -3.53234 0
M  V30 6149 H 579.437 -2.38396 -1.81129 0
M  V30 6150 H 576.983 -1.14746 -0.870017 0
M  V30 6151 H 578.936 -1.31783 -4.00264 0
M  V30 6152 H 577.66 -0.329507 -3.24934 0
M  V30 6153 H 576.319 -2.40643 -2.76562 0
M  V30 6154 H 575.967 -1.14703 -4.89747 0
M  V30 6155 H 575.667 -2.88934 -5.11655 0
M  V30 6156 H 577.191 -2.16848 -5.70797 0
M  V30 6157 H 578.605 -3.88286 -4.2179 0
M  V30 6158 H 577.002 -4.59085 -3.86473 0
M  V30 6159 H 578.072 -4.13962 -2.52514 0
M  V30 6160 N 579.415 0.9433 -1.26252 0
M  V30 6161 C 580.345 2.05902 -1.10122 0
M  V30 6162 C 581.326 1.70099 -0.00700552 0
M  V30 6163 O 582.511 1.93377 -0.178641 0
M  V30 6164 C 579.641 3.39516 -0.731175 0
M  V30 6165 C 578.595 3.89372 -1.77688 0
M  V30 6166 C 577.921 5.19613 -1.26122 0
M  V30 6167 C 579.221 4.14489 -3.17799 0
M  V30 6168 H 580.915 2.19655 -2.03451 0
M  V30 6169 H 578.461 1.05548 -0.979576 0
M  V30 6170 H 580.414 4.17031 -0.605215 0
M  V30 6171 H 579.138 3.25733 0.23782 0
M  V30 6172 H 577.797 3.14036 -1.89148 0
M  V30 6173 H 577.445 5.02208 -0.282128 0
M  V30 6174 H 577.145 5.53939 -1.96023 0
M  V30 6175 H 578.669 5.99713 -1.14789 0
M  V30 6176 H 580.083 4.82625 -3.09428 0
M  V30 6177 H 578.48 4.60094 -3.85271 0
M  V30 6178 H 579.55 3.20347 -3.64014 0
M  V30 6179 N 580.893 1.08022 1.14757 0
M  V30 6180 C 581.803 0.718292 2.23333 0
M  V30 6181 C 582.819 -0.273477 1.71837 0
M  V30 6182 O 583.995 -0.118406 2.01052 0
M  V30 6183 C 581.06 0.128855 3.4646 0
M  V30 6184 C 580.121 1.17473 4.12915 0
M  V30 6185 C 579.354 0.61333 5.30164 0
M  V30 6186 O 579.577 -0.568458 5.6756 0
M  V30 6187 O 578.511 1.3615 5.86299 0
M  V30 6188 H 582.337 1.62394 2.56636 0
M  V30 6189 H 579.922 0.853628 1.22611 0
M  V30 6190 H 581.804 -0.197249 4.20938 0
M  V30 6191 H 580.479 -0.750014 3.14891 0
M  V30 6192 H 579.386 1.5533 3.40328 0
M  V30 6193 H 580.719 2.02574 4.48581 0
M  V30 6194 N 582.371 -1.3172 0.865308 0
M  V30 6195 C 583.618 -1.96876 0.473931 0
M  V30 6196 C 583.946 -1.68425 -0.972786 0
M  V30 6197 O 583.201 -0.970742 -1.69927 0
M  V30 6198 C 583.5 -3.5102 0.672283 0
M  V30 6199 C 583.166 -3.9948 2.09108 0
M  V30 6200 C 581.828 -4.12425 2.4791 0
M  V30 6201 C 584.18 -4.2503 3.0166 0
M  V30 6202 C 581.508 -4.48267 3.78515 0
M  V30 6203 C 583.86 -4.62335 4.31774 0
M  V30 6204 C 582.524 -4.73486 4.70497 0
M  V30 6205 H 581.794 -0.72042 0.173424 0
M  V30 6206 H 584.441 -1.56937 1.0974 0
M  V30 6207 H 582.746 -3.91785 -0.034356 0
M  V30 6208 H 584.443 -3.99475 0.349353 0
M  V30 6209 H 581.033 -3.89898 1.77981 0
M  V30 6210 H 585.217 -4.14529 2.7291 0
M  V30 6211 H 580.473 -4.55097 4.08285 0
M  V30 6212 H 584.647 -4.81058 5.03543 0
M  V30 6213 H 582.274 -5.01016 5.71741 0
M  V30 6214 N 583.85 -0.624285 -1.44708 0
M  V30 6215 C 584.783 0.133905 -2.27807 0
M  V30 6216 C 585.76 0.857794 -1.38133 0
M  V30 6217 O 586.945 0.863277 -1.6757 0
M  V30 6218 C 584.072 1.19541 -3.16903 0
M  V30 6219 C 583.118 0.572813 -4.22636 0
M  V30 6220 S 583.951 -0.631953 -5.31758 0
M  V30 6221 C 585.106 0.429733 -6.24423 0
M  V30 6222 H 585.34 -0.571072 -2.91764 0
M  V30 6223 H 582.873 -0.412261 -1.48794 0
M  V30 6224 H 584.831 1.80293 -3.68788 0
M  V30 6225 H 583.492 1.87255 -2.5218 0
M  V30 6226 H 582.685 1.37205 -4.84965 0
M  V30 6227 H 582.287 0.0400641 -3.73979 0
M  V30 6228 H 584.579 1.30421 -6.64828 0
M  V30 6229 H 585.522 -0.157804 -7.07924 0
M  V30 6230 H 585.93 0.75256 -5.59461 0
M  V30 6231 N 585.328 1.53329 -0.364422 0
M  V30 6232 C 586.278 2.22472 0.499024 0
M  V30 6233 C 587.262 1.21952 1.0496 0
M  V30 6234 O 588.454 1.47405 0.979836 0
M  V30 6235 C 585.583 3.01659 1.6388 0
M  V30 6236 C 584.669 4.09555 1.10116 0
M  V30 6237 N 585.06 5.04988 0.286414 0
M  V30 6238 C 583.358 4.2424 1.37608 0
M  V30 6239 C 584.059 5.81699 -0.00781682 0
M  V30 6240 N 583.035 5.40394 0.589494 0
M  V30 6241 H 586.837 2.93611 -0.130284 0
M  V30 6242 H 584.351 1.61483 -0.172377 0
M  V30 6243 H 586.348 3.4971 2.26954 0
M  V30 6244 H 585.008 2.32051 2.27118 0
M  V30 6245 H 586.019 5.17847 -0.0742839 0
M  V30 6246 H 582.696 3.65858 2.01133 0
M  V30 6247 H 584.086 6.68587 -0.666394 0
M  V30 6248 N 586.806 0.0935595 1.57322 0
M  V30 6249 C 588.055 -0.570191 1.93473 0
M  V30 6250 C 588.368 -1.69434 0.977318 0
M  V30 6251 O 589.574 -2.41914 1.23248 0
M  V30 6252 C 588.03 -1.06564 3.43762 0
M  V30 6253 C 587.638 0.0286723 4.47991 0
M  V30 6254 C 589.382 -1.70221 3.88877 0
M  V30 6255 C 587.289 -0.482046 5.89432 0
M  V30 6256 H 586.219 -0.216764 0.72217 0
M  V30 6257 H 588.87 0.169313 1.82717 0
M  V30 6258 H 587.252 -1.85878 3.49664 0
M  V30 6259 H 588.426 0.804106 4.5373 0
M  V30 6260 H 586.741 0.570336 4.12476 0
M  V30 6261 H 589.338 -2.09502 4.91948 0
M  V30 6262 H 589.681 -2.57078 3.27439 0
M  V30 6263 H 590.214 -0.974919 3.85668 0
M  V30 6264 H 586.953 0.349871 6.54566 0
M  V30 6265 H 586.473 -1.22452 5.87167 0
M  V30 6266 H 588.152 -0.951508 6.39965 0
M  V30 6267 N 588.284 -1.56567 -0.180126 0
M  V30 6268 C 589.53 -1.82658 -0.894859 0
M  V30 6269 C 589.885 -0.672826 -1.80252 0
M  V30 6270 O 589.178 0.331227 -1.88715 0
M  V30 6271 C 589.372 -3.1252 -1.73395 0
M  V30 6272 C 589.201 -4.40417 -0.909028 0
M  V30 6273 C 587.971 -5.01872 -0.587562 0
M  V30 6274 C 590.169 -5.13669 -0.254698 0
M  V30 6275 N 588.151 -6.13373 0.254428 0
M  V30 6276 C 589.522 -6.18373 0.448837 0
M  V30 6277 C 591.577 -4.97603 -0.171958 0
M  V30 6278 C 590.28 -7.08753 1.22725 0
M  V30 6279 C 592.306 -5.88418 0.593101 0
M  V30 6280 C 591.668 -6.92579 1.28503 0
M  V30 6281 H 587.767 -0.719493 -0.306356 0
M  V30 6282 H 590.351 -1.94021 -0.16247 0
M  V30 6283 H 588.522 -3.02365 -2.43783 0
M  V30 6284 H 590.254 -3.2664 -2.38931 0
M  V30 6285 H 587.009 -4.64666 -0.915557 0
M  V30 6286 H 587.433 -6.73721 0.665474 0
M  V30 6287 H 592.075 -4.17089 -0.692555 0
M  V30 6288 H 589.793 -7.88718 1.75923 0
M  V30 6289 H 593.379 -5.78059 0.658674 0
M  V30 6290 H 592.259 -7.61638 1.86754 0
M  V30 6291 N 589.762 0.448376 -1.51087 0
M  V30 6292 C 590.709 1.54341 -1.71603 0
M  V30 6293 C 591.679 1.56463 -0.557536 0
M  V30 6294 O 592.864 1.73644 -0.79072 0
M  V30 6295 C 590.004 2.92148 -1.83695 0
M  V30 6296 C 589.117 2.99639 -3.11192 0
M  V30 6297 C 588.252 4.285 -3.13944 0
M  V30 6298 C 587.291 4.29819 -4.35801 0
M  V30 6299 N 586.428 5.50186 -4.36164 0
M  V30 6300 H 591.268 1.36151 -2.65079 0
M  V30 6301 H 588.805 0.661585 -1.31383 0
M  V30 6302 H 590.763 3.72093 -1.88687 0
M  V30 6303 H 589.393 3.0892 -0.936374 0
M  V30 6304 H 588.445 2.12425 -3.15562 0
M  V30 6305 H 589.757 2.96474 -4.01129 0
M  V30 6306 H 588.911 5.16811 -3.17791 0
M  V30 6307 H 587.65 4.34307 -2.21876 0
M  V30 6308 H 586.655 3.39902 -4.32142 0
M  V30 6309 H 587.88 4.25685 -5.29121 0
M  V30 6310 H 585.826 5.56735 -3.46961 0
M  V30 6311 H 585.743 5.48856 -5.19897 0
M  V30 6312 H 587.011 6.40559 -4.44189 0
M  V30 6313 N 591.24 1.41047 0.703093 0
M  V30 6314 C 592.486 1.40207 1.46526 0
M  V30 6315 C 592.819 0.00847763 1.94198 0
M  V30 6316 O 592.094 -0.962437 1.69019 0
M  V30 6317 C 592.377 2.40238 2.6825 0
M  V30 6318 C 592.23 3.88674 2.26391 0
M  V30 6319 C 593.549 2.37627 3.70434 0
M  V30 6320 H 590.668 0.510594 0.531472 0
M  V30 6321 H 593.31 1.72271 0.801422 0
M  V30 6322 H 591.46 2.13026 3.24888 0
M  V30 6323 H 593.132 4.2676 1.75138 0
M  V30 6324 H 591.375 4.03903 1.58255 0
M  V30 6325 H 592.046 4.542 3.13698 0
M  V30 6326 H 594.522 2.61759 3.23452 0
M  V30 6327 H 593.398 3.09645 4.53223 0
M  V30 6328 H 593.659 1.39223 4.19606 0
M  V30 6329 N 592.718 -0.936591 1.26751 0
M  V30 6330 C 593.943 -1.72288 1.15462 0
M  V30 6331 C 594.368 -1.85915 -0.285887 0
M  V30 6332 O 593.726 -1.35272 -1.20711 0
M  V30 6333 C 593.774 -3.10503 1.83359 0
M  V30 6334 O 592.878 -3.96745 1.1255 0
M  V30 6335 H 592.219 -0.52843 0.402067 0
M  V30 6336 H 594.749 -1.17271 1.67656 0
M  V30 6337 H 594.759 -3.60867 1.90365 0
M  V30 6338 H 593.434 -2.99901 2.88153 0
M  V30 6339 H 592.011 -3.55191 1.13551 0
M  V30 6340 N 594.196 -1.08629 -1.14182 0
M  V30 6341 C 595.612 -0.814363 -1.3726 0
M  V30 6342 C 595.812 0.575271 -1.93114 0
M  V30 6343 O 594.868 1.33165 -2.1453 0
M  V30 6344 C 596.181 -1.8989 -2.33157 0
M  V30 6345 C 597.729 -1.92518 -2.46791 0
M  V30 6346 C 598.204 -3.00092 -3.45989 0
M  V30 6347 N 599.695 -2.99279 -3.53534 0
M  V30 6348 C 600.43 -3.79158 -4.30147 0
M  V30 6349 N 599.926 -4.68923 -5.09983 0
M  V30 6350 N 601.719 -3.67451 -4.25366 0
M  V30 6351 H 593.87 -1.98232 -0.762758 0
M  V30 6352 H 596.133 -0.860383 -0.398051 0
M  V30 6353 H 595.839 -2.89809 -1.99257 0
M  V30 6354 H 595.713 -1.77013 -3.33086 0
M  V30 6355 H 598.1 -0.932425 -2.79982 0
M  V30 6356 H 598.181 -2.09473 -1.46816 0
M  V30 6357 H 597.825 -3.99575 -3.13532 0
M  V30 6358 H 597.755 -2.80382 -4.45751 0
M  V30 6359 H 600.246 -2.3422 -2.96563 0
M  V30 6360 H 600.559 -5.26475 -5.65724 0
M  V30 6361 H 598.904 -4.72964 -5.09244 0
M  V30 6362 H 602.095 -2.9669 -3.62067 0
M  V30 6363 H 602.268 -4.29944 -4.84822 0
M  V30 6364 N 595.674 1.31259 -0.872281 0
M  V30 6365 C 596.606 2.27396 -0.28697 0
M  V30 6366 C 597.619 1.53181 0.551297 0
M  V30 6367 O 598.808 1.74561 0.372914 0
M  V30 6368 C 595.908 3.33335 0.611617 0
M  V30 6369 C 595.081 4.36966 -0.194729 0
M  V30 6370 C 594.14 5.22387 0.632358 0
M  V30 6371 O 593.166 5.69169 0.0595691 0
M  V30 6372 N 594.368 5.46985 1.94391 0
M  V30 6373 H 597.133 2.78261 -1.11314 0
M  V30 6374 H 594.694 1.44306 -0.733994 0
M  V30 6375 H 596.686 3.87398 1.17068 0
M  V30 6376 H 595.256 2.82496 1.33846 0
M  V30 6377 H 594.476 3.82945 -0.935241 0
M  V30 6378 H 595.764 5.03273 -0.747935 0
M  V30 6379 H 595.162 5.10737 2.43237 0
M  V30 6380 H 593.719 6.03973 2.45071 0
M  V30 6381 N 597.152 0.631951 1.44375 0
M  V30 6382 C 598.392 0.14009 2.03919 0
M  V30 6383 C 598.756 -1.21534 1.48639 0
M  V30 6384 O 599.957 -1.79936 1.99691 0
M  V30 6385 C 598.228 0.127174 3.57174 0
M  V30 6386 S 599.787 -0.299946 4.37774 0
M  V30 6387 H 596.605 0.0614891 0.708336 0
M  V30 6388 H 599.207 0.835524 1.76746 0
M  V30 6389 H 597.911 1.11676 3.94913 0
M  V30 6390 H 597.442 -0.589482 3.88958 0
M  V30 6391 H 599.457 -1.54396 4.71568 0
M  V30 6392 N 598.631 -1.53133 0.372548 0
M  V30 6393 C 599.561 -2.28876 -0.462412 0
M  V30 6394 C 600.542 -1.31583 -1.07796 0
M  V30 6395 O 601.727 -1.60461 -1.09389 0
M  V30 6396 C 598.857 -3.08317 -1.59868 0
M  V30 6397 C 597.811 -4.13355 -1.11003 0
M  V30 6398 C 597.137 -4.8092 -2.33708 0
M  V30 6399 C 598.437 -5.21955 -0.18983 0
M  V30 6400 H 600.131 -2.9892 0.169511 0
M  V30 6401 H 597.677 -1.43761 0.0829658 0
M  V30 6402 H 599.63 -3.60055 -2.18949 0
M  V30 6403 H 598.354 -2.35976 -2.25794 0
M  V30 6404 H 597.013 -3.62573 -0.541869 0
M  V30 6405 H 596.661 -4.05144 -2.98106 0
M  V30 6406 H 596.361 -5.51904 -2.01682 0
M  V30 6407 H 597.885 -5.35455 -2.93462 0
M  V30 6408 H 599.299 -5.69153 -0.688319 0
M  V30 6409 H 597.696 -6.00087 0.0398887 0
M  V30 6410 H 598.766 -4.78811 0.766057 0
M  V30 6411 N 600.109 -0.101901 -1.5727 0
M  V30 6412 C 601.039 0.851544 -2.17419 0
M  V30 6413 C 602.02 1.28942 -1.10941 0
M  V30 6414 O 603.205 1.35509 -1.39107 0
M  V30 6415 C 600.335 2.10816 -2.75996 0
M  V30 6416 C 599.289 1.80867 -3.87906 0
M  V30 6417 C 598.615 3.13413 -4.33216 0
M  V30 6418 C 599.915 1.0903 -5.10793 0
M  V30 6419 H 601.609 0.350381 -2.97343 0
M  V30 6420 H 599.155 0.16709 -1.43027 0
M  V30 6421 H 601.108 2.77959 -3.16729 0
M  V30 6422 H 599.832 2.63227 -1.93337 0
M  V30 6423 H 598.491 1.16119 -3.47724 0
M  V30 6424 H 598.139 3.63725 -3.47438 0
M  V30 6425 H 597.839 2.94155 -5.08671 0
M  V30 6426 H 599.363 3.81704 -4.76586 0
M  V30 6427 H 600.777 1.66295 -5.48652 0
M  V30 6428 H 599.174 0.99927 -5.91722 0
M  V30 6429 H 600.244 0.0741704 -4.84843 0
M  V30 6430 N 601.587 1.56661 0.17182 0
M  V30 6431 C 602.815 1.861 0.904115 0
M  V30 6432 C 603.23 0.687227 1.75848 0
M  V30 6433 O 602.587 -0.343671 1.79235 0
M  V30 6434 C 602.638 3.14568 1.78127 0
M  V30 6435 O 602.359 4.27422 0.961366 0
M  V30 6436 C 603.86 3.5735 2.62327 0
M  V30 6437 H 601.08 0.617445 0.262684 0
M  V30 6438 H 603.624 2.03775 0.172068 0
M  V30 6439 H 601.779 2.98721 2.46666 0
M  V30 6440 H 602.193 5.00725 1.56123 0
M  V30 6441 H 603.667 4.50144 3.1949 0
M  V30 6442 H 604.144 2.81445 3.37173 0
M  V30 6443 H 604.75 3.75807 1.99121 0
M  V30 6444 N 603.065 -0.440357 1.51323 0
M  V30 6445 C 603.995 -1.54174 1.75364 0
M  V30 6446 C 604.976 -1.59039 0.603375 0
M  V30 6447 O 606.161 -1.74815 0.845774 0
M  V30 6448 C 603.291 -2.92277 1.87593 0
M  V30 6449 C 602.245 -3.02274 3.03009 0
M  V30 6450 C 601.571 -4.42327 3.00418 0
M  V30 6451 C 602.871 -2.76634 4.43024 0
M  V30 6452 H 604.565 -1.34307 2.67585 0
M  V30 6453 H 602.111 -0.644678 1.28763 0
M  V30 6454 H 604.064 -3.69284 2.02995 0
M  V30 6455 H 602.788 -3.13369 0.920179 0
M  V30 6456 H 601.447 -2.27706 2.87307 0
M  V30 6457 H 601.095 -4.60382 2.02626 0
M  V30 6458 H 600.795 -4.49946 3.77918 0
M  V30 6459 H 602.319 -5.21312 3.17909 0
M  V30 6460 H 603.733 -3.43376 4.59093 0
M  V30 6461 H 602.13 -2.95666 5.22208 0
M  V30 6462 H 603.2 -1.72262 4.5327 0
M  V30 6463 N 604.543 -1.41418 -0.695603 0
M  V30 6464 C 605.792 -1.40073 -1.4513 0
M  V30 6465 C 606.105 -0.0130439 -1.95596 0
M  V30 6466 O 607.311 0.123032 -2.71221 0
M  V30 6467 C 605.767 -2.46286 -2.62433 0
M  V30 6468 C 605.375 -3.90962 -2.18753 0
M  V30 6469 C 607.119 -2.54077 -3.40066 0
M  V30 6470 C 605.026 -4.88728 -3.33015 0
M  V30 6471 H 603.956 -0.520903 -0.545138 0
M  V30 6472 H 606.607 -1.67242 -0.75515 0
M  V30 6473 H 604.989 -2.12248 -3.34315 0
M  V30 6474 H 606.163 -4.34248 -1.54161 0
M  V30 6475 H 604.478 -3.86831 -1.54114 0
M  V30 6476 H 607.075 -3.24303 -4.25125 0
M  V30 6477 H 607.418 -1.5776 -3.8525 0
M  V30 6478 H 607.951 -2.87206 -2.75241 0
M  V30 6479 H 604.69 -5.86449 -2.92844 0
M  V30 6480 H 604.21 -4.50091 -3.96457 0
M  V30 6481 H 605.889 -5.09483 -3.98793 0
M  V30 6482 N 606.021 0.929856 -1.27246 0
M  V30 6483 C 607.437 1.20542 -1.04603 0
M  V30 6484 C 607.637 2.00276 0.221754 0
M  V30 6485 O 606.693 2.34835 0.927833 0
M  V30 6486 C 608.006 1.95566 -2.28417 0
M  V30 6487 C 609.554 2.08513 -2.33433 0
M  V30 6488 C 610.029 2.86943 -3.5697 0
M  V30 6489 N 611.52 2.94512 -3.57515 0
M  V30 6490 C 612.255 3.55656 -4.49774 0
M  V30 6491 N 611.751 4.18209 -5.52334 0
M  V30 6492 N 613.544 3.53038 -4.37402 0
M  V30 6493 H 605.695 0.397113 -2.08655 0
M  V30 6494 H 607.958 0.238277 -0.917566 0
M  V30 6495 H 607.664 1.44395 -3.20691 0
M  V30 6496 H 607.538 2.9619 -2.33563 0
M  V30 6497 H 609.925 2.58872 -1.41666 0
M  V30 6498 H 610.006 1.07117 -2.32292 0
M  V30 6499 H 609.65 2.37268 -4.49072 0
M  V30 6500 H 609.58 3.8862 -3.55362 0
M  V30 6501 H 612.071 2.50053 -2.83341 0
M  V30 6502 H 612.384 4.62796 -6.18902 0
M  V30 6503 H 610.729 4.16761 -5.56179 0
M  V30 6504 H 613.92 3.0337 -3.56489 0
M  V30 6505 H 614.093 4.004 -5.09493 0
M  V30 6506 N 607.499 1.09233 1.13605 0
M  V30 6507 C 608.446 0.729921 2.18954 0
M  V30 6508 C 609.416 -0.287916 1.63586 0
M  V30 6509 O 610.601 -0.170003 1.90041 0
M  V30 6510 C 607.741 0.154489 3.44754 0
M  V30 6511 C 606.854 1.22613 4.14234 0
M  V30 6512 C 605.989 0.613657 5.27644 0
M  V30 6513 C 605.028 1.66674 5.8897 0
M  V30 6514 N 604.165 1.07545 6.93814 0
M  V30 6515 H 609.005 1.63257 2.49302 0
M  V30 6516 H 606.542 0.815693 1.22413 0
M  V30 6517 H 608.5 -0.196923 4.16735 0
M  V30 6518 H 607.13 -0.711433 3.14863 0
M  V30 6519 H 606.182 1.69485 3.40557 0
M  V30 6520 H 607.494 2.0238 4.55899 0
M  V30 6521 H 606.648 0.210976 6.06333 0
M  V30 6522 H 605.387 -0.215584 4.87223 0
M  V30 6523 H 604.392 2.07899 5.08978 0
M  V30 6524 H 605.617 2.49861 6.31464 0
M  V30 6525 H 603.563 0.267451 6.55455 0
M  V30 6526 H 603.48 1.81011 7.3401 0
M  V30 6527 H 604.748 0.698906 7.7636 0
M  V30 6528 N 608.977 -1.30795 0.87923 0
M  V30 6529 C 610.207 -2.00237 0.50881 0
M  V30 6530 C 610.615 -1.66115 -0.905682 0
M  V30 6531 O 609.958 -0.89138 -1.60624 0
M  V30 6532 C 610.02 -3.54508 0.597003 0
M  V30 6533 C 609.684 -4.12131 1.97477 0
M  V30 6534 C 610.681 -4.28552 2.94346 0
M  V30 6535 C 608.366 -4.47644 2.2786 0
M  V30 6536 C 610.36 -4.79689 4.19735 0
M  V30 6537 C 608.047 -4.98481 3.53496 0
M  V30 6538 C 609.045 -5.14456 4.49248 0
M  V30 6539 O 608.733 -5.64199 5.72656 0
M  V30 6540 H 608.465 -0.647026 0.195788 0
M  V30 6541 H 611.019 -1.67785 1.1848 0
M  V30 6542 H 609.249 -3.86461 -0.135945 0
M  V30 6543 H 610.938 -4.05198 0.238684 0
M  V30 6544 H 611.704 -4.01424 2.72183 0
M  V30 6545 H 607.583 -4.34481 1.54102 0
M  V30 6546 H 611.127 -4.92073 4.9448 0
M  V30 6547 H 607.024 -5.25044 3.75498 0
M  V30 6548 H 607.792 -5.82551 5.74957 0
M  V30 6549 N 610.455 -0.639598 -1.44038 0
M  V30 6550 C 611.732 -0.078012 -1.95444 0
M  V30 6551 C 612.112 1.39847 -1.58133 0
M  V30 6552 O 611.46 2.11714 -0.859614 0
M  V30 6553 C 611.67 -0.309832 -3.47622 0
M  V30 6554 C 613.018 -0.207521 -4.24093 0
M  V30 6555 O 614.042 -0.241653 -3.55379 0
M  V30 6556 O 612.901 -0.119641 -5.46369 0
M  V30 6557 H 609.995 0.0174534 -0.826816 0
M  V30 6558 H 612.541 -0.711891 -1.54046 0
M  V30 6559 H 611.313 -1.33401 -3.67858 0
M  V30 6560 H 610.936 0.357777 -3.95987 0
M  V30 6561 N 611.933 1.52934 -0.380664 0
M  V30 6562 C 613.18 2.01467 0.204278 0
M  V30 6563 C 613.508 1.26744 1.47533 0
M  V30 6564 O 612.763 0.353723 1.92477 0
M  V30 6565 C 613.062 3.5349 0.527199 0
M  V30 6566 C 612.728 4.46171 -0.651295 0
M  V30 6567 C 611.39 4.71227 -0.974619 0
M  V30 6568 C 613.742 5.00909 -1.44012 0
M  V30 6569 C 611.07 5.4827 -2.08847 0
M  V30 6570 C 613.422 5.7917 -2.5445 0
M  V30 6571 C 612.086 6.02507 -2.87301 0
M  V30 6572 H 611.356 0.73722 0.0747504 0
M  V30 6573 H 614.003 1.84411 -0.516234 0
M  V30 6574 H 612.308 3.68574 1.32892 0
M  V30 6575 H 614.005 3.88529 0.992283 0
M  V30 6576 H 610.595 4.26829 -0.389276 0
M  V30 6577 H 614.779 4.81485 -1.20357 0
M  V30 6578 H 610.035 5.64567 -2.34679 0
M  V30 6579 H 614.209 6.20588 -3.1598 0
M  V30 6580 H 611.836 6.61989 -3.7373 0
M  V30 6581 N 613.412 0.11024 1.57214 0
M  V30 6582 C 614.362 -0.854147 2.11396 0
M  V30 6583 C 615.346 -1.23394 1.03261 0
M  V30 6584 O 616.538 -1.20649 1.2951 0
M  V30 6585 C 613.667 -2.10752 2.70995 0
M  V30 6586 C 612.753 -1.75249 3.86198 0
M  V30 6587 N 613.144 -1.10377 4.9361 0
M  V30 6588 C 611.442 -2.04763 3.96217 0
M  V30 6589 C 612.143 -0.938199 5.74084 0
M  V30 6590 N 611.119 -1.46039 5.23616 0
M  V30 6591 H 614.921 -0.348897 2.91822 0
M  V30 6592 H 612.435 -0.0925071 1.62136 0
M  V30 6593 H 614.432 -2.80801 3.0815 0
M  V30 6594 H 613.092 -2.61829 1.9203 0
M  V30 6595 H 614.103 -0.768785 5.12162 0
M  V30 6596 H 610.78 -2.57948 3.28282 0
M  V30 6597 H 612.17 -0.429678 6.70525 0
M  V30 6598 N 614.89 -1.56749 -0.16351 0
M  V30 6599 C 615.82 -2.00042 -1.20438 0
M  V30 6600 C 616.801 -0.877256 -1.45733 0
M  V30 6601 O 617.986 -1.1439 -1.56935 0
M  V30 6602 C 615.116 -2.36697 -2.54149 0
M  V30 6603 C 614.07 -3.52046 -2.43408 0
M  V30 6604 C 613.396 -3.74466 -3.81679 0
M  V30 6605 C 614.696 -4.85247 -1.93216 0
M  V30 6606 H 616.39 -2.87244 -0.844477 0
M  V30 6607 H 613.936 -1.38194 -0.40478 0
M  V30 6608 H 615.889 -2.65582 -3.27176 0
M  V30 6609 H 614.613 -1.46414 -2.91943 0
M  V30 6610 H 613.272 -3.23301 -1.72834 0
M  V30 6611 H 612.92 -2.81461 -4.1688 0
M  V30 6612 H 612.62 -4.52084 -3.75359 0
M  V30 6613 H 614.144 -4.0576 -4.5628 0
M  V30 6614 H 615.558 -5.12957 -2.56023 0
M  V30 6615 H 613.955 -5.66556 -1.97825 0
M  V30 6616 H 615.025 -4.7672 -0.88689 0
M  V30 6617 N 616.368 0.432326 -1.51554 0
M  V30 6618 C 617.315 1.52512 -1.7323 0
M  V30 6619 C 618.285 1.55863 -0.5741 0
M  V30 6620 O 619.47 1.72796 -0.809093 0
M  V30 6621 C 616.61 2.90183 -1.86783 0
M  V30 6622 C 615.723 2.96322 -3.14352 0
M  V30 6623 C 614.858 4.25147 -3.18471 0
M  V30 6624 C 613.897 4.25172 -4.40335 0
M  V30 6625 N 613.034 5.45529 -4.41975 0
M  V30 6626 H 617.874 1.33332 -2.66508 0
M  V30 6627 H 615.411 0.647613 -1.32077 0
M  V30 6628 H 617.369 3.70071 -1.92623 0
M  V30 6629 H 615.999 3.0791 -0.969087 0
M  V30 6630 H 615.051 2.09066 -3.17798 0
M  V30 6631 H 616.363 2.92203 -4.04251 0
M  V30 6632 H 615.517 5.13411 -3.23255 0
M  V30 6633 H 614.256 4.31929 -2.2647 0
M  V30 6634 H 613.261 3.353 -4.35723 0
M  V30 6635 H 614.486 4.20049 -5.33606 0
M  V30 6636 H 612.432 5.53024 -3.52847 0
M  V30 6637 H 612.349 5.43311 -5.25689 0
M  V30 6638 H 613.617 6.35812 -4.50958 0
M  V30 6639 N 617.846 1.41785 0.688094 0
M  V30 6640 C 619.076 1.44705 1.47459 0
M  V30 6641 C 619.484 0.052916 1.89126 0
M  V30 6642 O 618.827 -0.939781 1.57841 0
M  V30 6643 C 618.889 2.29935 2.76352 0
M  V30 6644 C 618.553 3.77996 2.56843 0
M  V30 6645 C 619.55 4.69976 2.22304 0
M  V30 6646 C 617.235 4.2212 2.7225 0
M  V30 6647 C 619.229 6.04068 2.03421 0
M  V30 6648 C 616.916 5.56275 2.52985 0
M  V30 6649 C 617.914 6.47065 2.18621 0
M  V30 6650 O 617.602 7.78744 1.9953 0
M  V30 6651 H 617.334 0.494703 0.460701 0
M  V30 6652 H 619.888 1.86802 0.854057 0
M  V30 6653 H 618.118 1.82664 3.40839 0
M  V30 6654 H 619.807 2.24467 3.38186 0
M  V30 6655 H 620.573 4.37175 2.10008 0
M  V30 6656 H 616.452 3.51752 2.97979 0
M  V30 6657 H 619.996 6.74897 1.76523 0
M  V30 6658 H 615.893 5.88653 2.64873 0
M  V30 6659 H 616.661 7.89966 2.14234 0
M  V30 6660 N 619.324 -0.923095 1.27737 0
M  V30 6661 C 620.254 -2.04124 1.13383 0
M  V30 6662 C 621.235 -1.70066 0.0340658 0
M  V30 6663 O 622.42 -1.93068 0.209383 0
M  V30 6664 C 619.55 -3.3831 0.785097 0
M  V30 6665 C 618.504 -3.86496 1.8386 0
M  V30 6666 C 617.83 -5.1754 1.34373 0
M  V30 6667 C 619.13 -4.09381 3.24353 0
M  V30 6668 H 620.824 -2.1639 2.06919 0
M  V30 6669 H 618.37 -1.03976 0.996243 0
M  V30 6670 H 620.323 -4.16016 0.671485 0
M  V30 6671 H 619.047 -3.2607 -0.185969 0
M  V30 6672 H 617.706 -3.10987 1.9412 0
M  V30 6673 H 617.354 -5.01696 0.361989 0
M  V30 6674 H 617.054 -5.50751 2.04811 0
M  V30 6675 H 618.578 -5.97811 1.24315 0
M  V30 6676 H 619.992 -4.77641 3.17067 0
M  V30 6677 H 618.389 -4.53906 3.92542 0
M  V30 6678 H 619.459 -3.14515 3.69064 0
M  V30 6679 N 620.802 -1.09834 -1.13024 0
M  V30 6680 C 621.732 -0.763451 -2.20666 0
M  V30 6681 C 622.713 0.260778 -1.68089 0
M  V30 6682 O 623.898 0.127915 -1.93778 0
M  V30 6683 C 621.028 -0.187744 -3.46792 0
M  V30 6684 C 619.982 -1.14196 -4.12484 0
M  V30 6685 C 619.308 -0.427755 -5.32986 0
M  V30 6686 C 620.608 -2.48607 -4.59338 0
M  V30 6687 H 622.302 -1.66347 -2.48936 0
M  V30 6688 H 619.848 -0.801261 -1.19649 0
M  V30 6689 H 621.801 0.0586375 -4.21359 0
M  V30 6690 H 620.525 0.747485 -3.17931 0
M  V30 6691 H 619.184 -1.37369 -3.3989 0
M  V30 6692 H 618.832 0.511747 -5.0039 0
M  V30 6693 H 618.532 -1.06403 -5.77886 0
M  V30 6694 H 620.056 -0.189772 -6.10305 0
M  V30 6695 H 621.47 -2.29618 -5.25308 0
M  V30 6696 H 619.867 -3.08062 -5.14993 0
M  V30 6697 H 620.937 -3.09062 -3.73642 0
M  V30 6698 N 622.28 1.30327 -0.886154 0
M  V30 6699 C 623.227 2.28099 -0.352069 0
M  V30 6700 C 624.197 1.56433 0.558397 0
M  V30 6701 O 625.382 1.84492 0.486561 0
M  V30 6702 C 622.522 3.42456 0.426346 0
M  V30 6703 C 621.635 4.28938 -0.513472 0
M  V30 6704 C 620.77 5.30458 0.280657 0
M  V30 6705 C 619.809 6.0859 -0.654556 0
M  V30 6706 N 618.946 7.02022 0.104322 0
M  V30 6707 H 623.786 2.73166 -1.19097 0
M  V30 6708 H 621.323 1.34367 -0.598662 0
M  V30 6709 H 623.281 4.07518 0.893587 0
M  V30 6710 H 621.911 2.98455 1.22981 0
M  V30 6711 H 620.963 3.64173 -1.09921 0
M  V30 6712 H 622.275 4.83399 -1.2299 0
M  V30 6713 H 621.429 6.01273 0.8097 0
M  V30 6714 H 620.168 4.76693 1.03029 0
M  V30 6715 H 619.173 5.36651 -1.19522 0
M  V30 6716 H 620.398 6.64443 -1.4033 0
M  V30 6717 H 618.344 6.50645 0.836472 0
M  V30 6718 H 618.261 7.53979 -0.552453 0
M  V30 6719 H 619.529 7.77077 0.614069 0
M  V30 6720 N 623.758 0.647228 1.43697 0
M  V30 6721 C 624.986 0.16575 2.06235 0
M  V30 6722 C 625.401 -1.1662 1.48476 0
M  V30 6723 O 624.758 -1.7187 0.613762 0
M  V30 6724 C 624.809 0.0621651 3.61447 0
M  V30 6725 O 624.53 1.34146 4.17057 0
M  V30 6726 C 626.031 -0.446102 4.4105 0
M  V30 6727 H 623.251 0.0871158 0.665321 0
M  V30 6728 H 625.795 0.886183 1.84301 0
M  V30 6729 H 623.95 -0.608794 3.82587 0
M  V30 6730 H 624.364 1.19675 5.10664 0
M  V30 6731 H 625.838 -0.46755 5.50016 0
M  V30 6732 H 626.315 -1.47627 4.13646 0
M  V30 6733 H 626.921 0.192159 4.24866 0
M  V30 6734 N 625.236 -1.5273 0.388769 0
M  V30 6735 C 626.168 -2.24081 -0.481704 0
M  V30 6736 C 627.181 -1.26307 -1.02715 0
M  V30 6737 O 628.37 -1.52386 -0.929565 0
M  V30 6738 C 625.47 -2.94315 -1.68024 0
M  V30 6739 C 624.643 -4.18791 -1.26226 0
M  V30 6740 C 623.702 -4.72028 -2.32542 0
M  V30 6741 O 622.728 -5.35129 -1.93972 0
M  V30 6742 N 623.93 -4.51838 -3.64448 0
M  V30 6743 H 626.695 -2.9942 0.129591 0
M  V30 6744 H 624.256 -1.60465 0.2151 0
M  V30 6745 H 626.248 -3.26831 -2.38671 0
M  V30 6746 H 624.818 -2.22287 -2.19789 0
M  V30 6747 H 624.038 -3.92318 -0.384703 0
M  V30 6748 H 625.326 -4.99668 -0.959647 0
M  V30 6749 H 624.724 -4.01468 -3.98547 0
M  V30 6750 H 623.281 -4.88845 -4.31131 0
M  V30 6751 N 626.714 -0.118576 -1.57153 0
M  V30 6752 C 627.624 0.845484 -2.18835 0
M  V30 6753 C 628.64 1.29299 -1.16438 0
M  V30 6754 O 629.816 1.35607 -1.48905 0
M  V30 6755 C 626.881 2.07795 -2.77529 0
M  V30 6756 C 625.942 1.6824 -3.9496 0
M  V30 6757 C 625.175 2.85612 -4.50845 0
M  V30 6758 O 625.398 4.01025 -4.05629 0
M  V30 6759 O 624.332 2.62721 -5.41536 0
M  V30 6760 H 628.158 0.350568 -3.0167 0
M  V30 6761 H 625.743 0.107013 -1.49016 0
M  V30 6762 H 627.625 2.79978 -3.14945 0
M  V30 6763 H 626.3 2.56294 -1.97725 0
M  V30 6764 H 625.207 0.931663 -3.62313 0
M  V30 6765 H 626.54 1.24484 -4.76198 0
M  V30 6766 N 628.193 1.56834 0.155195 0
M  V30 6767 C 629.141 1.98584 1.21107 0
M  V30 6768 C 630.135 0.876987 1.44932 0
M  V30 6769 O 631.341 1.06215 1.45322 0
M  V30 6770 H 627.716 0.632039 0.407469 0
M  V30 6771 H 629.687 2.86561 0.832195 0
M  V30 6772 C 628.436 2.37555 2.53895 0
M  V30 6773 H 627.759 3.22428 2.3639 0
M  V30 6774 H 629.199 2.70598 3.26424 0
M  V30 6775 C 627.658 1.22507 3.13837 0
M  V30 6776 O 628.188 0.521388 3.98302 0
M  V30 6777 N 626.394 0.991444 2.73164 0
M  V30 6778 H 625.941 1.56544 2.04577 0
M  V30 6779 H 625.899 0.223546 3.13604 0
M  V30 6780 N 629.671 -0.424282 1.51781 0
M  V30 6781 C 630.917 -1.17434 1.6534 0
M  V30 6782 C 631.25 -1.90549 0.374806 0
M  V30 6783 O 630.525 -1.84145 -0.626179 0
M  V30 6784 C 630.808 -2.18093 2.86544 0
M  V30 6785 C 630.661 -1.48975 4.24413 0
M  V30 6786 C 631.98 -3.18934 3.03264 0
M  V30 6787 H 629.099 -0.425566 0.601716 0
M  V30 6788 H 631.741 -0.461921 1.84299 0
M  V30 6789 H 629.891 -2.78849 2.7051 0
M  V30 6790 H 631.563 -0.914551 4.52143 0
M  V30 6791 H 629.806 -0.791893 4.26511 0
M  V30 6792 H 630.477 -2.22347 5.05238 0
M  V30 6793 H 632.953 -2.68243 3.18096 0
M  V30 6794 H 631.829 -3.86645 3.89611 0
M  V30 6795 H 632.09 -3.85793 2.15908 0
M  V30 6796 N 631.149 -1.42148 -0.680565 0
M  V30 6797 C 632.379 -1.45485 -1.46689 0
M  V30 6798 C 632.787 -0.0629451 -1.89095 0
M  V30 6799 O 632.13 0.931397 -1.58337 0
M  V30 6800 C 632.192 -2.31397 -2.75129 0
M  V30 6801 C 631.856 -3.79353 -2.54834 0
M  V30 6802 C 632.853 -4.71148 -2.19808 0
M  V30 6803 C 630.538 -4.23557 -2.70008 0
M  V30 6804 C 632.532 -6.05139 -2.00215 0
M  V30 6805 C 630.219 -5.57609 -2.50031 0
M  V30 6806 C 631.217 -6.48216 -2.15187 0
M  V30 6807 O 630.905 -7.79792 -1.95397 0
M  V30 6808 H 630.637 -0.497139 -0.458071 0
M  V30 6809 H 633.191 -1.87252 -0.844139 0
M  V30 6810 H 631.421 -1.84468 -3.39865 0
M  V30 6811 H 633.11 -2.26257 -3.36991 0
M  V30 6812 H 633.876 -4.38282 -2.07686 0
M  V30 6813 H 629.755 -3.53327 -2.96109 0
M  V30 6814 H 633.299 -6.75823 -1.72941 0
M  V30 6815 H 629.196 -5.9005 -2.61748 0
M  V30 6816 H 629.964 -7.91091 -2.10042 0
M  V30 6817 N 632.627 0.916307 -1.28225 0
M  V30 6818 C 633.575 2.03977 -1.11786 0
M  V30 6819 C 634.569 1.69358 -0.0378265 0
M  V30 6820 O 635.775 1.78925 -0.196405 0
M  V30 6821 H 632.15 0.66829 -0.344809 0
M  V30 6822 H 634.121 2.14985 -2.06939 0
M  V30 6823 C 632.87 3.38518 -0.7938 0
M  V30 6824 H 632.193 3.65649 -1.61682 0
M  V30 6825 H 633.633 4.17864 -0.718719 0
M  V30 6826 C 632.092 3.33134 0.502353 0
M  V30 6827 O 632.622 3.71281 1.53341 0
M  V30 6828 N 630.828 2.86229 0.502147 0
M  V30 6829 H 630.375 2.55382 -0.337338 0
M  V30 6830 H 630.333 2.83009 1.36942 0
M  V30 6831 N 634.105 1.10431 1.1244 0
M  V30 6832 C 635.354 0.841539 1.83306 0
M  V30 6833 C 635.667 -0.634961 1.85007 0
M  V30 6834 O 636.873 -1.01363 2.51869 0
M  V30 6835 C 635.329 1.45565 3.29149 0
M  V30 6836 C 634.937 2.96544 3.35806 0
M  V30 6837 C 636.681 1.27227 4.04986 0
M  V30 6838 C 634.588 3.5099 4.75983 0
M  V30 6839 H 633.518 0.311156 0.686803 0
M  V30 6840 H 636.169 1.32829 1.26604 0
M  V30 6841 H 634.551 0.896574 3.85717 0
M  V30 6842 H 635.725 3.58766 2.89177 0
M  V30 6843 H 634.04 3.14036 2.73442 0
M  V30 6844 H 636.637 1.65348 5.08492 0
M  V30 6845 H 636.98 0.213834 4.1575 0
M  V30 6846 H 637.513 1.79941 3.54776 0
M  V30 6847 H 634.252 4.56499 4.70413 0
M  V30 6848 H 633.772 2.93535 5.23065 0
M  V30 6849 H 635.451 3.48808 5.44924 0
M  V30 6850 N 635.583 -1.29855 0.893053 0
M  V30 6851 C 636.832 -1.95104 0.511597 0
M  V30 6852 C 637.145 -1.71226 -0.945567 0
M  V30 6853 O 638.351 -2.30525 -1.43424 0
M  V30 6854 C 636.807 -3.49374 0.864034 0
M  V30 6855 C 636.415 -3.82061 2.33952 0
M  V30 6856 C 638.159 -4.20894 0.552167 0
M  V30 6857 C 636.066 -5.29546 2.63316 0
M  V30 6858 H 634.996 -0.73029 0.187597 0
M  V30 6859 H 637.647 -1.47682 1.08914 0
M  V30 6860 H 636.029 -3.95413 0.215493 0
M  V30 6861 H 637.203 -3.46904 3.03305 0
M  V30 6862 H 635.518 -3.23665 2.61973 0
M  V30 6863 H 638.115 -5.29435 0.748489 0
M  V30 6864 H 638.458 -4.13178 -0.508924 0
M  V30 6865 H 638.991 -3.80564 1.15825 0
M  V30 6866 H 635.73 -5.4232 3.68197 0
M  V30 6867 H 635.25 -5.65974 1.9858 0
M  V30 6868 H 636.929 -5.97068 2.49236 0
M  V30 6869 N 637.061 -0.65484 -1.43351 0
M  V30 6870 C 637.971 0.0363603 -2.34572 0
M  V30 6871 C 638.987 0.810432 -1.53974 0
M  V30 6872 O 640.163 0.757308 -1.86619 0
M  V30 6873 C 637.228 0.989733 -3.32273 0
M  V30 6874 C 636.289 0.212414 -4.28774 0
M  V30 6875 C 635.522 1.12038 -5.21808 0
M  V30 6876 O 635.745 2.35967 -5.19303 0
M  V30 6877 O 634.679 0.59191 -5.98982 0
M  V30 6878 H 638.505 -0.714527 -2.95175 0
M  V30 6879 H 636.09 -0.415029 -1.4352 0
M  V30 6880 H 637.972 1.53759 -3.92347 0
M  V30 6881 H 636.647 1.72082 -2.74171 0
M  V30 6882 H 635.554 -0.379062 -3.72175 0
M  V30 6883 H 636.887 -0.479138 -4.89862 0
M  V30 6884 N 638.539 1.52521 -0.396863 0
M  V30 6885 C 639.449 2.30403 0.44178 0
M  V30 6886 C 640.465 1.37625 1.06468 0
M  V30 6887 O 641.641 1.70697 1.06886 0
M  V30 6888 C 638.706 3.1013 1.54986 0
M  V30 6889 C 637.767 4.18628 0.951279 0
M  V30 6890 C 637 4.94543 2.00655 0
M  V30 6891 O 637.223 4.70629 3.22281 0
M  V30 6892 O 636.157 5.797 1.61962 0
M  V30 6893 H 639.983 3.03087 -0.192892 0
M  V30 6894 H 637.568 1.48537 -0.16038 0
M  V30 6895 H 639.45 3.59816 2.19341 0
M  V30 6896 H 638.125 2.40251 2.16935 0
M  V30 6897 H 637.032 3.73119 0.270773 0
M  V30 6898 H 638.365 4.90763 0.375887 0
M  V30 6899 N 640.017 0.126909 1.57088 0
M  V30 6900 C 641.263 -0.529952 1.95753 0
M  V30 6901 C 641.596 -1.65823 1.01077 0
M  V30 6902 O 640.871 -1.94437 0.0494162 0
M  V30 6903 C 641.154 -1.05517 3.44294 0
M  V30 6904 C 641.007 0.0702253 4.49745 0
M  V30 6905 C 642.326 -1.9435 3.94862 0
M  V30 6906 H 639.445 -0.191168 0.711775 0
M  V30 6907 H 642.087 0.204071 1.88901 0
M  V30 6908 H 640.237 -1.68069 3.50264 0
M  V30 6909 H 641.909 0.705834 4.55868 0
M  V30 6910 H 640.152 0.732259 4.27575 0
M  V30 6911 H 640.823 -0.338642 5.5096 0
M  V30 6912 H 643.299 -1.41658 3.91244 0
M  V30 6913 H 642.175 -2.28015 4.993 0
M  V30 6914 H 642.436 -2.87299 3.36024 0
M  V30 6915 N 641.495 -1.56914 -0.146875 0
M  V30 6916 C 642.442 -1.98275 -1.18134 0
M  V30 6917 C 643.412 -0.850367 -1.42681 0
M  V30 6918 O 644.597 -1.11244 -1.55014 0
M  V30 6919 C 641.737 -2.36861 -2.5098 0
M  V30 6920 C 640.85 -3.63391 -2.33605 0
M  V30 6921 C 639.985 -3.91079 -3.59486 0
M  V30 6922 C 639.024 -5.10879 -3.37149 0
M  V30 6923 N 638.161 -5.34577 -4.55161 0
M  V30 6924 H 643.001 -2.8645 -0.821622 0
M  V30 6925 H 640.538 -1.41718 -0.394248 0
M  V30 6926 H 642.496 -2.57262 -3.28439 0
M  V30 6927 H 641.126 -1.51766 -2.84898 0
M  V30 6928 H 640.178 -3.50766 -1.47199 0
M  V30 6929 H 641.49 -4.51007 -2.13059 0
M  V30 6930 H 640.644 -4.11979 -4.45374 0
M  V30 6931 H 639.383 -3.01885 -3.83036 0
M  V30 6932 H 638.388 -4.89853 -2.49649 0
M  V30 6933 H 639.613 -6.01626 -3.14997 0
M  V30 6934 H 637.559 -4.48337 -4.78884 0
M  V30 6935 H 637.476 -6.16463 -4.37618 0
M  V30 6936 H 638.744 -5.59975 -5.42263 0
M  V30 6937 N 642.974 0.416227 -1.52004 0
M  V30 6938 C 643.921 1.50666 -1.74838 0
M  V30 6939 C 644.891 1.55245 -0.590599 0
M  V30 6940 O 646.076 1.71928 -0.827374 0
M  V30 6941 C 643.216 2.88185 -1.89851 0
M  V30 6942 C 642.329 2.92971 -3.17478 0
M  V30 6943 C 641.464 4.21745 -3.22962 0
M  V30 6944 C 640.503 4.20478 -4.4482 0
M  V30 6945 N 639.64 5.40811 -4.47736 0
M  V30 6946 H 644.48 1.30498 -2.67907 0
M  V30 6947 H 642.017 0.633568 -1.32757 0
M  V30 6948 H 643.975 3.68007 -1.96537 0
M  V30 6949 H 642.605 3.06865 -1.00169 0
M  V30 6950 H 641.657 2.05684 -3.19997 0
M  V30 6951 H 642.969 2.87899 -4.07328 0
M  V30 6952 H 642.123 5.09954 -3.28682 0
M  V30 6953 H 640.862 4.29503 -2.31038 0
M  V30 6954 H 639.867 3.30659 -4.39254 0
M  V30 6955 H 641.092 4.14366 -5.38031 0
M  V30 6956 H 639.038 5.4925 -3.58692 0
M  V30 6957 H 638.955 5.37705 -5.31422 0
M  V30 6958 H 640.223 6.30993 -4.57676 0
M  V30 6959 N 644.452 1.42507 0.673017 0
M  V30 6960 C 645.701 1.42364 1.42883 0
M  V30 6961 C 646.014 0.0441598 1.9555 0
M  V30 6962 O 647.22 -0.0798679 2.71382 0
M  V30 6963 C 645.676 2.5043 2.58482 0
M  V30 6964 C 645.284 3.94392 2.12506 0
M  V30 6965 C 647.028 2.59455 3.35981 0
M  V30 6966 C 644.935 4.93964 3.25198 0
M  V30 6967 H 643.865 0.52951 0.536782 0
M  V30 6968 H 646.516 1.68422 0.728448 0
M  V30 6969 H 644.898 2.1754 3.30896 0
M  V30 6970 H 646.072 4.36645 1.47233 0
M  V30 6971 H 644.387 3.89233 1.4794 0
M  V30 6972 H 646.984 3.31025 4.19912 0
M  V30 6973 H 647.327 1.63869 3.82691 0
M  V30 6974 H 647.86 2.91549 2.70637 0
M  V30 6975 H 644.599 5.91034 2.83477 0
M  V30 6976 H 644.119 4.56341 3.89247 0
M  V30 6977 H 645.798 5.15763 3.90637 0
M  V30 6978 N 645.93 -0.909495 1.28709 0
M  V30 6979 C 647.17 -1.67344 1.17368 0
M  V30 6980 C 647.534 -1.90058 -0.272419 0
M  V30 6981 O 648.735 -2.63944 -0.508617 0
M  V30 6982 C 647.006 -2.99219 1.95455 0
M  V30 6983 S 648.565 -3.90295 2.00538 0
M  V30 6984 H 645.383 -0.57466 0.418672 0
M  V30 6985 H 647.985 -1.08144 1.62865 0
M  V30 6986 H 646.689 -2.80393 2.9968 0
M  V30 6987 H 646.22 -3.63464 1.50524 0
M  V30 6988 H 648.235 -4.83511 1.11496 0
M  V30 6989 N 647.408 -1.11026 -1.11852 0
M  V30 6990 C 648.633 -0.879064 -1.87849 0
M  V30 6991 C 649.058 0.565406 -1.79401 0
M  V30 6992 O 648.416 1.39886 -1.15333 0
M  V30 6993 C 648.464 -1.33985 -3.34784 0
M  V30 6994 O 647.568 -0.508803 -4.09249 0
M  V30 6995 H 646.909 -0.316992 -0.583448 0
M  V30 6996 H 649.439 -1.47863 -1.41413 0
M  V30 6997 H 649.449 -1.33248 -3.85628 0
M  V30 6998 H 648.124 -2.39172 -3.40249 0
M  V30 6999 H 646.701 -0.581913 -3.68332 0
M  V30 7000 N 648.886 1.2938 -0.899927 0
M  V30 7001 C 650.132 1.9584 -0.526742 0
M  V30 7002 C 650.465 1.70774 0.924651 0
M  V30 7003 O 649.74 1.02084 1.65557 0
M  V30 7004 C 650.023 3.50638 -0.820062 0
M  V30 7005 C 649.876 3.85161 -2.32317 0
M  V30 7006 C 651.195 4.3903 -0.30671 0
M  V30 7007 H 648.314 0.711322 -0.192848 0
M  V30 7008 H 650.956 1.52992 -1.12665 0
M  V30 7009 H 649.106 3.87265 -0.309491 0
M  V30 7010 H 650.778 3.58477 -2.9033 0
M  V30 7011 H 649.021 3.32696 -2.78381 0
M  V30 7012 H 649.692 4.93204 -2.47898 0
M  V30 7013 H 652.168 4.09396 -0.743908 0
M  V30 7014 H 651.044 5.46226 -0.541144 0
M  V30 7015 H 651.305 4.34937 0.792588 0
M  V30 7016 N 650.364 0.662433 1.43002 0
M  V30 7017 C 651.294 -0.00979809 2.33498 0
M  V30 7018 C 652.275 -0.802329 1.49989 0
M  V30 7019 O 653.46 -0.761964 1.78627 0
M  V30 7020 C 650.59 -0.970446 3.33466 0
M  V30 7021 C 649.544 -0.287383 4.27034 0
M  V30 7022 C 648.87 -1.36012 5.17112 0
M  V30 7023 C 650.17 0.82595 5.15728 0
M  V30 7024 H 651.864 0.745959 2.89958 0
M  V30 7025 H 649.41 0.360172 1.39423 0
M  V30 7026 H 651.363 -1.44971 3.95679 0
M  V30 7027 H 650.087 -1.75748 2.75282 0
M  V30 7028 H 648.746 0.17152 3.66199 0
M  V30 7029 H 648.394 -2.13882 4.55262 0
M  V30 7030 H 648.094 -0.908276 5.80538 0
M  V30 7031 H 649.618 -1.84056 5.82199 0
M  V30 7032 H 651.032 0.42845 5.71697 0
M  V30 7033 H 649.429 1.20282 5.87922 0
M  V30 7034 H 650.499 1.68003 4.54866 0
M  V30 7035 N 651.842 -1.52309 0.404946 0
M  V30 7036 C 653.09 -2.01368 -0.17186 0
M  V30 7037 C 653.411 -1.29261 -1.46002 0
M  V30 7038 O 652.681 -0.41729 -1.91404 0
M  V30 7039 H 651.261 -0.744034 -0.0664993 0
M  V30 7040 H 653.923 -1.87263 0.540228 0
M  V30 7041 H 653.019 -3.09888 -0.370957 0
M  V30 7042 N 653.32 -0.135238 -1.57019 0
M  V30 7043 C 654.56 0.521686 -1.9763 0
M  V30 7044 C 654.924 1.62804 -1.01778 0
M  V30 7045 O 656.125 2.345 -1.31389 0
M  V30 7046 C 654.396 1.0257 -3.42365 0
M  V30 7047 S 655.955 1.68888 -4.04997 0
M  V30 7048 H 652.773 0.169064 -0.690607 0
M  V30 7049 H 655.375 -0.224168 -1.94211 0
M  V30 7050 H 654.079 0.209556 -4.09865 0
M  V30 7051 H 653.61 1.80645 -3.49472 0
M  V30 7052 H 655.625 2.97554 -3.97084 0
M  V30 7053 N 654.798 1.5699 0.138552 0
M  V30 7054 C 656.044 1.84081 0.85099 0
M  V30 7055 C 656.377 0.718107 1.80435 0
M  V30 7056 O 655.652 -0.277633 1.92508 0
M  V30 7057 C 655.935 3.21699 1.61808 0
M  V30 7058 C 655.788 4.44544 0.685633 0
M  V30 7059 C 657.107 3.5664 2.57868 0
M  V30 7060 H 654.226 0.669592 0.307922 0
M  V30 7061 H 656.868 1.89646 0.11588 0
M  V30 7062 H 655.018 3.17086 2.24474 0
M  V30 7063 H 656.69 4.61248 0.0693179 0
M  V30 7064 H 654.933 4.338 -0.00421993 0
M  V30 7065 H 655.604 5.3746 1.25858 0
M  V30 7066 H 658.08 3.61918 2.05316 0
M  V30 7067 H 656.956 4.53946 3.08584 0
M  V30 7068 H 657.217 2.83036 3.39622 0
M  V30 7069 N 656.276 -0.40816 1.52223 0
M  V30 7070 C 657.186 -1.52202 1.78526 0
M  V30 7071 C 658.202 -1.60546 0.670892 0
M  V30 7072 O 659.378 -1.77242 0.956404 0
M  V30 7073 C 656.443 -2.87928 1.93128 0
M  V30 7074 C 655.504 -2.89463 3.17033 0
M  V30 7075 C 654.737 -4.18715 3.30929 0
M  V30 7076 O 654.96 -5.12662 2.50067 0
M  V30 7077 O 653.894 -4.27125 4.24084 0
M  V30 7078 H 657.72 -1.32911 2.73072 0
M  V30 7079 H 655.305 -0.594112 1.37079 0
M  V30 7080 H 657.187 -3.68426 2.04549 0
M  V30 7081 H 655.862 -3.07285 1.01772 0
M  V30 7082 H 654.769 -2.07815 3.11069 0
M  V30 7083 H 656.102 -2.75055 4.08174 0
M  V30 7084 N 657.755 -1.42862 -0.66545 0
M  V30 7085 C 658.983 -1.47246 -1.45349 0
M  V30 7086 C 659.398 -0.0865944 -1.88601 0
M  V30 7087 O 658.755 0.900652 -1.58728 0
M  V30 7088 C 658.806 -2.40772 -2.6965 0
M  V30 7089 O 658.527 -3.73968 -2.2821 0
M  V30 7090 C 660.028 -2.54272 -3.63126 0
M  V30 7091 H 657.248 -0.500497 -0.446927 0
M  V30 7092 H 659.792 -1.87477 -0.816871 0
M  V30 7093 H 657.947 -2.0377 -3.29479 0
M  V30 7094 H 658.361 -4.24146 -3.08546 0
M  V30 7095 H 659.835 -3.23815 -4.47043 0
M  V30 7096 H 660.312 -1.58364 -4.09656 0
M  V30 7097 H 660.918 -2.92036 -3.09185 0
M  V30 7098 N 659.233 0.902656 -1.29189 0
M  V30 7099 C 660.18 2.00643 -1.14066 0
M  V30 7100 C 661.15 1.66064 -0.0347756 0
M  V30 7101 O 662.335 1.8973 -0.201752 0
M  V30 7102 C 659.475 3.35214 -0.820104 0
M  V30 7103 C 658.588 3.82594 -2.00614 0
M  V30 7104 C 657.723 5.05727 -1.62522 0
M  V30 7105 C 656.762 5.45469 -2.77724 0
M  V30 7106 N 655.899 6.59789 -2.40048 0
M  V30 7107 H 660.739 2.1291 -2.08502 0
M  V30 7108 H 658.276 1.04271 -1.03759 0
M  V30 7109 H 660.234 4.12643 -0.614949 0
M  V30 7110 H 658.864 3.22682 0.0873452 0
M  V30 7111 H 657.916 3.01226 -2.32308 0
M  V30 7112 H 659.228 4.07999 -2.86946 0
M  V30 7113 H 658.382 5.90732 -1.38277 0
M  V30 7114 H 657.121 4.82155 -0.733333 0
M  V30 7115 H 656.126 4.59 -3.02653 0
M  V30 7116 H 657.351 5.71024 -3.67572 0
M  V30 7117 H 655.297 6.37826 -1.53343 0
M  V30 7118 H 655.214 6.84975 -3.19914 0
M  V30 7119 H 656.482 7.4807 -2.19116 0
M  V30 7120 N 660.711 1.11618 1.11262 0
M  V30 7121 C 661.643 0.734015 2.17129 0
M  V30 7122 C 662.656 -0.235243 1.61091 0
M  V30 7123 O 663.845 -0.0178597 1.78491 0
M  V30 7124 C 660.945 0.0643682 3.38839 0
M  V30 7125 C 660.118 1.06092 4.24339 0
M  V30 7126 C 659.177 0.420482 5.24517 0
M  V30 7127 O 658.203 1.07495 5.58957 0
M  V30 7128 N 659.405 -0.815828 5.74739 0
M  V30 7129 H 662.17 1.64492 2.50524 0
M  V30 7130 H 659.731 1.00664 1.26801 0
M  V30 7131 H 661.723 -0.375851 4.02951 0
M  V30 7132 H 660.293 -0.749147 3.03491 0
M  V30 7133 H 659.513 1.67903 3.56654 0
M  V30 7134 H 660.801 1.73507 4.78302 0
M  V30 7135 H 660.199 -1.36668 5.48943 0
M  V30 7136 H 658.756 -1.199 6.40677 0
M  V30 7137 N 662.189 -1.289 0.906776 0
M  V30 7138 C 663.438 -1.9455 0.532262 0
M  V30 7139 C 663.751 -1.72219 -0.927353 0
M  V30 7140 O 664.957 -2.32033 -1.40971 0
M  V30 7141 C 663.413 -3.48438 0.901041 0
M  V30 7142 C 663.021 -3.79558 2.37991 0
M  V30 7143 C 664.765 -4.20284 0.596777 0
M  V30 7144 C 662.672 -5.26723 2.68918 0
M  V30 7145 H 661.602 -0.728259 0.195333 0
M  V30 7146 H 664.253 -1.46519 1.10474 0
M  V30 7147 H 662.635 -3.95162 0.257419 0
M  V30 7148 H 663.809 -3.43668 3.06967 0
M  V30 7149 H 662.124 -3.20868 2.65391 0
M  V30 7150 H 664.721 -5.28612 0.8046 0
M  V30 7151 H 665.064 -4.13694 -0.465072 0
M  V30 7152 H 665.597 -3.79315 1.19855 0
M  V30 7153 H 662.336 -5.38384 3.73928 0
M  V30 7154 H 661.856 -5.63836 2.04571 0
M  V30 7155 H 663.535 -5.94391 2.55555 0
M  V30 7156 N 663.667 -0.670007 -1.42649 0
M  V30 7157 C 664.895 -0.19854 -2.05945 0
M  V30 7158 C 665.31 1.14243 -1.50313 0
M  V30 7159 O 664.667 1.70872 -0.641027 0
M  V30 7160 C 664.718 -0.11966 -3.61302 0
M  V30 7161 O 664.439 -1.40764 -4.1487 0
M  V30 7162 C 665.94 0.375878 -4.41704 0
M  V30 7163 H 663.16 -0.0976894 -0.663851 0
M  V30 7164 H 665.704 -0.915392 -1.82868 0
M  V30 7165 H 663.859 0.547851 -3.83507 0
M  V30 7166 H 664.273 -1.27784 -5.08696 0
M  V30 7167 H 665.747 0.379988 -5.50691 0
M  V30 7168 H 666.224 1.41028 -4.15942 0
M  V30 7169 H 666.83 -0.259727 -4.24506 0
M  V30 7170 N 665.145 1.52092 -0.413018 0
M  V30 7171 C 666.422 1.94356 0.22024 0
M  V30 7172 C 666.802 1.35017 1.62277 0
M  V30 7173 O 666.15 0.527511 2.22328 0
M  V30 7174 C 666.36 3.48289 0.222638 0
M  V30 7175 C 667.708 4.22313 0.440098 0
M  V30 7176 O 668.732 3.54919 0.301826 0
M  V30 7177 O 667.591 5.41829 0.712984 0
M  V30 7178 H 664.685 0.814536 0.14304 0
M  V30 7179 H 667.231 1.63083 -0.469242 0
M  V30 7180 H 666.003 3.83872 -0.758836 0
M  V30 7181 H 665.626 3.85934 0.956057 0
M  V30 7182 N 666.623 0.143563 1.56945 0
M  V30 7183 C 667.586 -0.783295 2.154 0
M  V30 7184 C 668.586 -1.17763 1.09492 0
M  V30 7185 O 669.776 -1.09912 1.35148 0
M  V30 7186 C 666.908 -2.06248 2.7143 0
M  V30 7187 H 668.101 -0.274863 2.98638 0
M  V30 7188 H 665.654 -0.105859 1.55941 0
M  V30 7189 H 666.389 -2.61466 1.91849 0
M  V30 7190 H 666.174 -1.78897 3.4891 0
M  V30 7191 H 667.664 -2.72453 3.16479 0
M  V30 7192 N 668.101 -1.57061 -0.130224 0
M  V30 7193 C 669.347 -1.8453 -0.841216 0
M  V30 7194 C 669.68 -0.727666 -1.80052 0
M  V30 7195 O 668.955 0.267419 -1.92653 0
M  V30 7196 C 669.238 -3.22553 -1.60099 0
M  V30 7197 C 669.091 -4.44901 -0.662048 0
M  V30 7198 C 670.41 -3.58003 -2.55973 0
M  V30 7199 H 667.529 -0.671215 -0.304366 0
M  V30 7200 H 670.171 -1.89705 -0.105821 0
M  V30 7201 H 668.321 -3.18272 -2.22789 0
M  V30 7202 H 669.993 -4.61278 -0.0448559 0
M  V30 7203 H 668.236 -4.33791 0.0272253 0
M  V30 7204 H 668.907 -5.3812 -1.23006 0
M  V30 7205 H 671.383 -3.63002 -2.03393 0
M  V30 7206 H 670.259 -4.55576 -3.06172 0
M  V30 7207 H 670.52 -2.84833 -3.38116 0
M  V30 7208 N 669.579 0.400081 -1.52437 0
M  V30 7209 C 670.527 1.50851 -1.7705 0
M  V30 7210 C 671.521 1.56928 -0.637969 0
M  V30 7211 O 672.727 1.60226 -0.820212 0
M  V30 7212 H 669.102 0.50186 -0.560036 0
M  V30 7213 H 671.073 1.27281 -2.69893 0
M  V30 7214 C 669.822 2.88117 -1.94638 0
M  V30 7215 H 669.145 2.84187 -2.81208 0
M  V30 7216 H 670.585 3.64942 -2.15855 0
M  V30 7217 C 669.044 3.29206 -0.715899 0
M  V30 7218 O 669.574 4.01544 0.111944 0
M  V30 7219 N 667.78 2.85363 -0.549191 0
M  V30 7220 H 667.327 2.26664 -1.22397 0
M  V30 7221 H 667.285 3.13214 0.27278 0
M  V30 7222 N 671.057 1.43213 0.657864 0
M  V30 7223 C 671.967 1.50448 1.80007 0
M  V30 7224 C 672.983 0.39191 1.69529 0
M  V30 7225 O 674.159 0.645349 1.90781 0
M  V30 7226 C 671.224 1.42062 3.16258 0
M  V30 7227 C 670.285 2.63951 3.38568 0
M  V30 7228 C 669.518 2.55956 4.68318 0
M  V30 7229 O 669.741 1.60473 5.47361 0
M  V30 7230 O 668.675 3.46378 4.92245 0
M  V30 7231 H 672.501 2.4689 1.76858 0
M  V30 7232 H 670.086 1.25163 0.81576 0
M  V30 7233 H 671.968 1.3981 3.97531 0
M  V30 7234 H 670.643 0.487524 3.20008 0
M  V30 7235 H 669.55 2.71776 2.57077 0
M  V30 7236 H 670.883 3.56217 3.39662 0
M  V30 7237 N 672.536 -0.895792 1.29666 0
M  V30 7238 C 673.466 -2.01673 1.17688 0
M  V30 7239 C 674.447 -1.69955 0.0701317 0
M  V30 7240 O 675.632 -1.9258 0.250289 0
M  V30 7241 C 672.762 -3.36568 0.856681 0
M  V30 7242 C 671.716 -3.82509 1.92017 0
M  V30 7243 C 671.042 -5.14574 1.4532 0
M  V30 7244 C 672.342 -4.02409 3.32963 0
M  V30 7245 H 674.036 -2.11953 2.11463 0
M  V30 7246 H 671.582 -1.01839 1.01807 0
M  V30 7247 H 673.535 -4.14498 0.759577 0
M  V30 7248 H 672.259 -3.26391 -0.116763 0
M  V30 7249 H 670.918 -3.068 2.00673 0
M  V30 7250 H 670.566 -5.00815 0.468325 0
M  V30 7251 H 670.266 -5.46283 2.16447 0
M  V30 7252 H 671.79 -5.9504 1.36968 0
M  V30 7253 H 673.204 -4.70808 3.27127 0
M  V30 7254 H 671.601 -4.45478 4.02082 0
M  V30 7255 H 672.671 -3.06616 3.75652 0
M  V30 7256 N 674.014 -1.12206 -1.10668 0
M  V30 7257 C 675.239 -0.898938 -1.86906 0
M  V30 7258 C 675.664 0.546346 -1.79991 0
M  V30 7259 O 675.022 1.38655 -1.1681 0
M  V30 7260 C 675.07 -1.37529 -3.33344 0
M  V30 7261 O 674.174 -0.55218 -4.08687 0
M  V30 7262 H 673.515 -0.323163 -0.580053 0
M  V30 7263 H 676.045 -1.49355 -1.39837 0
M  V30 7264 H 676.055 -1.3733 -3.84193 0
M  V30 7265 H 674.73 -2.42767 -3.37693 0
M  V30 7266 H 673.307 -0.620947 -3.67694 0
M  V30 7267 N 675.492 1.28418 -0.913599 0
M  V30 7268 C 676.422 2.29713 -0.418847 0
M  V30 7269 C 677.403 1.62165 0.513469 0
M  V30 7270 O 678.588 1.89576 0.421235 0
M  V30 7271 C 675.718 3.45612 0.342042 0
M  V30 7272 C 674.672 4.25056 -0.501123 0
M  V30 7273 C 673.998 5.3329 0.388097 0
M  V30 7274 C 675.298 4.91814 -1.75831 0
M  V30 7275 H 676.992 2.71346 -1.26538 0
M  V30 7276 H 674.538 1.30446 -0.609903 0
M  V30 7277 H 676.491 4.15562 0.699 0
M  V30 7278 H 675.215 3.02858 1.22248 0
M  V30 7279 H 673.874 3.56833 -0.840598 0
M  V30 7280 H 673.522 4.8678 1.26707 0
M  V30 7281 H 673.222 5.87347 -0.172459 0
M  V30 7282 H 674.746 6.06088 0.74094 0
M  V30 7283 H 676.16 5.54126 -1.47026 0
M  V30 7284 H 674.557 5.55866 -2.26126 0
M  V30 7285 H 675.627 4.16313 -2.4862 0
M  V30 7286 N 676.97 0.677563 1.42291 0
M  V30 7287 C 678.219 0.198173 2.00724 0
M  V30 7288 C 678.532 -1.20325 1.54211 0
M  V30 7289 O 679.738 -1.77916 2.05081 0
M  V30 7290 C 678.194 0.303432 3.58619 0
M  V30 7291 C 677.802 1.70909 4.14119 0
M  V30 7292 C 679.546 -0.117103 4.24338 0
M  V30 7293 C 677.453 1.76696 5.64387 0
M  V30 7294 H 676.383 0.070329 0.750713 0
M  V30 7295 H 679.034 0.843147 1.62982 0
M  V30 7296 H 677.416 -0.409482 3.93877 0
M  V30 7297 H 678.59 2.44931 3.90315 0
M  V30 7298 H 676.905 2.07771 3.6086 0
M  V30 7299 H 679.502 -0.0940471 5.34617 0
M  V30 7300 H 679.845 -1.15283 4.00019 0
M  V30 7301 H 680.378 0.5449 3.9405 0
M  V30 7302 H 677.117 2.7826 5.93508 0
M  V30 7303 H 676.637 1.07034 5.90173 0
M  V30 7304 H 678.316 1.52166 6.28852 0
M  V30 7305 N 678.448 -1.51871 0.421078 0
M  V30 7306 C 679.378 -2.30231 -0.389363 0
M  V30 7307 C 680.359 -1.34946 -1.03555 0
M  V30 7308 O 681.544 -1.63859 -1.04229 0
M  V30 7309 C 678.674 -3.13247 -1.49979 0
M  V30 7310 C 677.628 -4.16677 -0.977966 0
M  V30 7311 C 676.954 -4.88112 -2.1829 0
M  V30 7312 C 678.254 -5.22295 -0.0236775 0
M  V30 7313 H 679.948 -2.98229 0.264524 0
M  V30 7314 H 677.494 -1.43424 0.12866 0
M  V30 7315 H 679.447 -3.66838 -2.07383 0
M  V30 7316 H 678.171 -2.4304 -2.18173 0
M  V30 7317 H 676.83 -3.64114 -0.426245 0
M  V30 7318 H 676.478 -4.14423 -2.85066 0
M  V30 7319 H 676.178 -5.58041 -1.84021 0
M  V30 7320 H 677.702 -5.44521 -2.76278 0
M  V30 7321 H 679.116 -5.71055 -0.506899 0
M  V30 7322 H 677.513 -5.99656 0.230782 0
M  V30 7323 H 678.583 -4.76131 0.917999 0
M  V30 7324 N 679.926 -0.151884 -1.56866 0
M  V30 7325 C 680.858 0.817008 -2.14144 0
M  V30 7326 C 681.871 1.20735 -1.0921 0
M  V30 7327 O 683.06 1.15058 -1.36469 0
M  V30 7328 C 680.16 2.10844 -2.65326 0
M  V30 7329 C 679.333 1.88471 -3.94712 0
M  V30 7330 C 678.392 3.01649 -4.31155 0
M  V30 7331 O 677.418 2.73127 -4.9939 0
M  V30 7332 N 678.62 4.28947 -3.91132 0
M  V30 7333 H 681.385 0.327448 -2.97906 0
M  V30 7334 H 678.946 0.0315313 -1.61869 0
M  V30 7335 H 680.938 2.85616 -2.86715 0
M  V30 7336 H 679.508 2.51049 -1.86262 0
M  V30 7337 H 678.728 0.977088 -3.81899 0
M  V30 7338 H 680.016 1.70866 -4.79252 0
M  V30 7339 H 679.414 4.54986 -3.36161 0
M  V30 7340 H 677.971 5.00484 -4.17563 0
M  V30 7341 N 681.404 1.57128 0.121893 0
M  V30 7342 C 682.82 1.52357 0.47534 0
M  V30 7343 C 683.02 0.864417 1.82017 0
M  V30 7344 O 682.076 0.445529 2.48538 0
M  V30 7345 C 683.389 2.97122 0.4625 0
M  V30 7346 C 684.937 3.08196 0.546255 0
M  V30 7347 C 685.412 4.54516 0.563833 0
M  V30 7348 N 686.903 4.58959 0.625353 0
M  V30 7349 C 687.638 5.69585 0.660354 0
M  V30 7350 N 687.134 6.89714 0.653175 0
M  V30 7351 N 688.927 5.57685 0.703143 0
M  V30 7352 H 681.078 1.98364 -0.75931 0
M  V30 7353 H 683.341 0.905777 -0.279772 0
M  V30 7354 H 683.047 3.48706 -0.457943 0
M  V30 7355 H 682.921 3.54406 1.29136 0
M  V30 7356 H 685.308 2.56617 1.45712 0
M  V30 7357 H 685.389 2.53912 -0.310234 0
M  V30 7358 H 685.033 5.06741 -0.342974 0
M  V30 7359 H 684.963 5.06609 1.43716 0
M  V30 7360 H 687.454 3.72489 0.637182 0
M  V30 7361 H 687.767 7.69781 0.682425 0
M  V30 7362 H 686.112 6.92223 0.620646 0
M  V30 7363 H 689.303 4.62744 0.706095 0
M  V30 7364 H 689.476 6.43909 0.726952 0
M  V30 7365 N 682.882 -0.391992 1.52647 0
M  V30 7366 C 683.829 -1.47866 1.77213 0
M  V30 7367 C 684.799 -1.54286 0.615223 0
M  V30 7368 O 685.984 -1.7059 0.854622 0
M  V30 7369 C 683.124 -2.85129 1.94411 0
M  V30 7370 C 682.237 -2.87883 3.22098 0
M  V30 7371 C 681.372 -4.16553 3.29631 0
M  V30 7372 C 680.411 -4.13348 4.51453 0
M  V30 7373 N 679.548 -5.33619 4.56284 0
M  V30 7374 H 684.388 -1.26219 2.6995 0
M  V30 7375 H 681.925 -0.612367 1.33748 0
M  V30 7376 H 683.883 -3.64833 2.02367 0
M  V30 7377 H 682.513 -3.05232 1.05038 0
M  V30 7378 H 681.565 -2.00567 3.23229 0
M  V30 7379 H 682.877 -2.81382 4.11856 0
M  V30 7380 H 682.031 -5.0466 3.36753 0
M  V30 7381 H 680.77 -4.25773 2.37842 0
M  V30 7382 H 679.775 -3.23629 4.44459 0
M  V30 7383 H 681 -4.05754 5.44555 0
M  V30 7384 H 678.946 -5.43474 3.67385 0
M  V30 7385 H 678.863 -5.29182 5.3991 0
M  V30 7386 H 680.131 -6.23632 4.67657 0
M  V30 7387 N 684.36 -1.4356 -0.65026 0
M  V30 7388 C 685.608 -1.45046 -1.40734 0
M  V30 7389 C 685.929 -0.0769822 -1.94848 0
M  V30 7390 O 685.199 0.888098 -1.74613 0
M  V30 7391 H 683.779 -0.534034 -0.522318 0
M  V30 7392 H 686.441 -1.79186 -0.766703 0
M  V30 7393 H 685.537 -2.16476 -2.24822 0
M  V30 7394 N 685.838 0.888903 -1.30139 0
M  V30 7395 C 686.748 2.02705 -1.18101 0
M  V30 7396 C 687.764 1.73702 -0.101809 0
M  V30 7397 O 688.94 1.98906 -0.315984 0
M  V30 7398 C 686.005 3.35616 -0.869651 0
M  V30 7399 C 685.066 3.78067 -2.03381 0
M  V30 7400 C 684.299 5.04635 -1.73721 0
M  V30 7401 O 684.522 5.66531 -0.663267 0
M  V30 7402 O 683.456 5.43399 -2.58845 0
M  V30 7403 H 687.282 2.15788 -2.13704 0
M  V30 7404 H 684.867 1.01426 -1.09695 0
M  V30 7405 H 686.749 4.15358 -0.711043 0
M  V30 7406 H 685.424 3.23651 0.0565002 0
M  V30 7407 H 684.331 2.99046 -2.24772 0
M  V30 7408 H 685.664 3.94631 -2.94155 0
M  V30 7409 N 687.317 1.12792 1.10072 0
M  V30 7410 C 688.265 0.794523 2.18609 0
M  V30 7411 C 689.259 -0.220271 1.67962 0
M  V30 7412 O 690.465 -0.0780938 1.79831 0
M  V30 7413 H 686.84 0.239123 0.712969 0
M  V30 7414 H 688.811 1.71823 2.43966 0
M  V30 7415 C 687.56 0.269548 3.46654 0
M  V30 7416 H 686.883 1.04171 3.8599 0
M  V30 7417 H 688.323 0.0746242 4.23934 0
M  V30 7418 C 686.782 -1.00333 3.21613 0
M  V30 7419 O 687.312 -2.08042 3.4363 0
M  V30 7420 N 685.518 -0.931763 2.75257 0
M  V30 7421 H 685.065 -0.0551197 2.57541 0
M  V30 7422 H 685.023 -1.78405 2.58881 0
M  V30 7423 N 688.795 -1.27931 0.920396 0
M  V30 7424 C 690.042 -1.94689 0.557007 0
M  V30 7425 C 690.37 -1.724 -0.900476 0
M  V30 7426 O 689.625 -1.04194 -1.65657 0
M  V30 7427 C 689.924 -3.47853 0.820558 0
M  V30 7428 C 689.59 -3.90252 2.25863 0
M  V30 7429 C 688.252 -4.01539 2.65179 0
M  V30 7430 C 690.604 -4.11853 3.19415 0
M  V30 7431 C 687.932 -4.3181 3.97187 0
M  V30 7432 C 690.284 -4.43606 4.50995 0
M  V30 7433 C 688.948 -4.53105 4.90155 0
M  V30 7434 H 688.218 -0.712416 0.203823 0
M  V30 7435 H 690.865 -1.52142 1.16298 0
M  V30 7436 H 689.17 -3.91578 0.131844 0
M  V30 7437 H 690.867 -3.97634 0.51847 0
M  V30 7438 H 687.457 -3.81999 1.94358 0
M  V30 7439 H 691.641 -4.0258 2.90246 0
M  V30 7440 H 686.897 -4.37371 4.2722 0
M  V30 7441 H 691.071 -4.59268 5.23494 0
M  V30 7442 H 688.698 -4.76315 5.92476 0
M  V30 7443 N 690.273 -0.685099 -1.4193 0
M  V30 7444 C 691.503 -0.220052 -2.05425 0
M  V30 7445 C 691.911 1.13185 -1.51611 0
M  V30 7446 O 691.254 1.71631 -0.654875 0
M  V30 7447 C 691.316 -0.0888364 -3.5939 0
M  V30 7448 C 690.98 -1.37109 -4.35947 0
M  V30 7449 C 691.977 -2.30675 -4.65924 0
M  V30 7450 C 689.662 -1.62155 -4.75406 0
M  V30 7451 C 691.656 -3.47556 -5.34306 0
M  V30 7452 C 689.343 -2.79324 -5.43527 0
M  V30 7453 C 690.341 -3.71848 -5.72903 0
M  V30 7454 O 690.029 -4.86966 -6.39624 0
M  V30 7455 H 689.761 -0.102165 -0.668235 0
M  V30 7456 H 692.315 -0.935194 -1.82875 0
M  V30 7457 H 690.545 0.681981 -3.80639 0
M  V30 7458 H 692.234 0.337669 -4.04493 0
M  V30 7459 H 693 -2.12579 -4.3593 0
M  V30 7460 H 688.879 -0.910053 -4.51928 0
M  V30 7461 H 692.423 -4.19794 -5.57153 0
M  V30 7462 H 688.32 -2.97342 -5.72938 0
M  V30 7463 H 689.088 -4.86644 -6.58118 0
M  V30 7464 N 691.751 1.51645 -0.429126 0
M  V30 7465 C 692.683 2.25279 0.422124 0
M  V30 7466 C 693.696 1.28986 0.993299 0
M  V30 7467 O 694.885 1.54797 0.888836 0
M  V30 7468 C 691.985 2.98666 1.60162 0
M  V30 7469 C 691.158 4.2199 1.15078 0
M  V30 7470 C 690.217 4.78028 2.19946 0
M  V30 7471 O 689.243 5.40084 1.79716 0
M  V30 7472 N 690.445 4.61342 3.5234 0
M  V30 7473 H 693.21 2.98971 -0.208931 0
M  V30 7474 H 690.771 1.59838 -0.257568 0
M  V30 7475 H 692.763 3.33044 2.29922 0
M  V30 7476 H 691.333 2.28036 2.13818 0
M  V30 7477 H 690.553 3.932 0.280552 0
M  V30 7478 H 691.841 5.02037 0.826831 0
M  V30 7479 H 691.239 4.11894 3.87763 0
M  V30 7480 H 689.796 5.00104 4.18019 0
M  V30 7481 N 693.229 0.160201 1.56784 0
M  V30 7482 C 694.454 -0.497373 2.01348 0
M  V30 7483 C 694.879 -1.56757 1.03966 0
M  V30 7484 O 694.237 -1.81292 0.0174455 0
M  V30 7485 C 694.285 -1.0628 3.44582 0
M  V30 7486 O 693.389 -2.17723 3.50244 0
M  V30 7487 H 692.73 -0.120295 0.653012 0
M  V30 7488 H 695.26 0.260821 2.02931 0
M  V30 7489 H 695.27 -1.38819 3.83658 0
M  V30 7490 H 693.945 -0.279166 4.14962 0
M  V30 7491 H 692.522 -1.86313 3.2302 0
M  V30 7492 N 694.707 -1.5719 -0.113559 0
M  V30 7493 C 695.932 -1.89702 -0.838336 0
M  V30 7494 C 696.357 -0.752679 -1.72384 0
M  V30 7495 O 695.715 0.296575 -1.78858 0
M  V30 7496 C 695.763 -3.20989 -1.64312 0
M  V30 7497 O 694.867 -3.07278 -2.75053 0
M  V30 7498 H 694.208 -0.622339 -0.231496 0
M  V30 7499 H 696.738 -2.04382 -0.0943228 0
M  V30 7500 H 696.748 -3.53843 -2.03123 0
M  V30 7501 H 695.423 -4.03869 -0.993119 0
M  V30 7502 H 694 -2.85901 -2.39406 0
M  V30 7503 N 696.185 0.383891 -1.52853 0
M  V30 7504 C 697.095 1.49343 -1.80925 0
M  V30 7505 C 698.111 1.59458 -0.696348 0
M  V30 7506 O 699.287 1.75698 -0.984481 0
M  V30 7507 C 696.352 2.84819 -1.97684 0
M  V30 7508 C 695.413 2.84382 -3.21598 0
M  V30 7509 C 694.646 4.13397 -3.37548 0
M  V30 7510 O 694.869 5.08619 -2.58192 0
M  V30 7511 O 693.803 4.20325 -4.30826 0
M  V30 7512 H 697.629 1.2855 -2.75152 0
M  V30 7513 H 695.214 0.572229 -1.38007 0
M  V30 7514 H 697.096 3.65125 -2.10385 0
M  V30 7515 H 695.771 3.05627 -1.06647 0
M  V30 7516 H 694.678 2.0284 -3.14336 0
M  V30 7517 H 696.011 2.68526 -4.12498 0
M  V30 7518 N 697.663 1.43903 0.642637 0
M  V30 7519 C 698.891 1.4954 1.42988 0
M  V30 7520 C 699.306 0.116588 1.8844 0
M  V30 7521 O 698.663 -0.875285 1.60141 0
M  V30 7522 C 698.714 2.45031 2.65785 0
M  V30 7523 O 698.435 3.77551 2.22232 0
M  V30 7524 C 699.936 2.60017 3.59035 0
M  V30 7525 H 697.156 0.507544 0.438907 0
M  V30 7526 H 699.7 1.88752 0.786942 0
M  V30 7527 H 697.855 2.08985 3.26196 0
M  V30 7528 H 698.269 4.29001 3.01759 0
M  V30 7529 H 699.743 3.30887 4.41835 0
M  V30 7530 H 700.22 1.64861 4.07084 0
M  V30 7531 H 700.826 2.96918 3.045 0
M  V30 7532 N 699.141 -0.881989 1.30609 0
M  V30 7533 C 700.366 -1.67236 1.22665 0
M  V30 7534 C 700.791 -1.8696 -0.206777 0
M  V30 7535 O 700.149 -1.4027 -1.14865 0
M  V30 7536 C 700.197 -3.02446 1.96363 0
M  V30 7537 O 699.301 -3.91614 1.29276 0
M  V30 7538 H 698.642 -0.510902 0.424117 0
M  V30 7539 H 701.172 -1.10055 1.72479 0
M  V30 7540 H 701.182 -3.52468 2.055 0
M  V30 7541 H 699.857 -2.8741 3.00613 0
M  V30 7542 H 698.434 -3.50055 1.28514 0
M  V30 7543 N 700.619 -1.13374 -1.09472 0
M  V30 7544 C 701.582 -0.813639 -2.14272 0
M  V30 7545 C 702.582 0.176677 -1.59826 0
M  V30 7546 O 703.772 -0.0503441 -1.74127 0
M  V30 7547 C 700.904 -0.210897 -3.40247 0
M  V30 7548 H 702.097 -1.74229 -2.44099 0
M  V30 7549 H 699.65 -0.938304 -1.25002 0
M  V30 7550 H 700.385 0.726998 -3.16046 0
M  V30 7551 H 700.17 -0.924048 -3.81056 0
M  V30 7552 H 701.66 -0.00377603 -4.176 0
M  V30 7553 N 702.098 1.27442 -0.927168 0
M  V30 7554 C 703.045 2.26863 -0.424459 0
M  V30 7555 C 704.015 1.5813 0.508346 0
M  V30 7556 O 705.2 1.85946 0.42762 0
M  V30 7557 C 702.34 3.43639 0.31718 0
M  V30 7558 C 701.453 4.27087 -0.649675 0
M  V30 7559 C 700.588 5.31082 0.111753 0
M  V30 7560 C 699.627 6.062 -0.847843 0
M  V30 7561 N 698.764 7.01999 -0.119074 0
M  V30 7562 H 703.604 2.69239 -1.27728 0
M  V30 7563 H 701.141 1.32394 -0.641106 0
M  V30 7564 H 703.099 4.10155 0.763486 0
M  V30 7565 H 701.729 3.02217 1.13424 0
M  V30 7566 H 700.781 3.60491 -1.21451 0
M  V30 7567 H 702.093 4.79242 -1.38307 0
M  V30 7568 H 701.247 6.03544 0.618 0
M  V30 7569 H 699.986 4.7973 0.878114 0
M  V30 7570 H 698.991 5.32577 -1.36534 0
M  V30 7571 H 700.216 6.59642 -1.61398 0
M  V30 7572 H 698.162 6.52977 0.629051 0
M  V30 7573 H 698.079 7.5184 -0.792046 0
M  V30 7574 H 699.347 7.78638 0.366537 0
M  V30 7575 N 703.576 0.692616 1.41565 0
M  V30 7576 C 704.824 0.221896 2.00878 0
M  V30 7577 C 705.145 -1.18164 1.5512 0
M  V30 7578 O 704.415 -1.79679 0.78054 0
M  V30 7579 H 702.995 0.0790463 0.742806 0
M  V30 7580 H 705.657 0.893115 1.73232 0
M  V30 7581 H 704.753 0.23702 3.11199 0
M  V30 7582 N 705.054 -1.51416 0.437162 0
M  V30 7583 C 705.984 -2.30631 -0.364922 0
M  V30 7584 C 706.965 -1.36037 -1.02118 0
M  V30 7585 O 708.15 -1.64956 -1.02485 0
M  V30 7586 C 705.28 -3.1482 -1.46648 0
M  V30 7587 C 704.234 -4.17691 -0.933717 0
M  V30 7588 C 703.56 -4.904 -2.13101 0
M  V30 7589 C 704.86 -5.2229 0.0317201 0
M  V30 7590 H 706.554 -2.97932 0.29614 0
M  V30 7591 H 704.1 -1.4328 0.143865 0
M  V30 7592 H 706.053 -3.69017 -2.03481 0
M  V30 7593 H 704.777 -2.4534 -2.15583 0
M  V30 7594 H 703.436 -3.64545 -0.387602 0
M  V30 7595 H 703.084 -4.17423 -2.80654 0
M  V30 7596 H 702.784 -5.59962 -1.78092 0
M  V30 7597 H 704.308 -5.4742 -2.70487 0
M  V30 7598 H 705.722 -5.7156 -0.446302 0
M  V30 7599 H 704.119 -5.99378 0.29437 0
M  V30 7600 H 705.189 -4.75131 0.968447 0
M  V30 7601 N 706.532 -0.168513 -1.56696 0
M  V30 7602 C 707.781 0.477233 -1.95973 0
M  V30 7603 C 708.094 1.64578 -1.05704 0
M  V30 7604 O 709.3 2.35758 -1.3465 0
M  V30 7605 C 707.756 0.900413 -3.48455 0
M  V30 7606 C 707.364 -0.242382 -4.47344 0
M  V30 7607 C 709.108 1.51474 -3.96555 0
M  V30 7608 C 707.015 0.200272 -5.91061 0
M  V30 7609 H 705.945 0.182061 -0.73169 0
M  V30 7610 H 708.596 -0.256297 -1.81701 0
M  V30 7611 H 706.978 1.68984 -3.58135 0
M  V30 7612 H 708.152 -1.01967 -4.49377 0
M  V30 7613 H 706.467 -0.766484 -4.09285 0
M  V30 7614 H 709.064 1.85792 -5.01384 0
M  V30 7615 H 709.407 2.41163 -3.39332 0
M  V30 7616 H 709.94 0.789802 -3.89881 0
M  V30 7617 H 706.679 -0.661775 -6.52151 0
M  V30 7618 H 706.199 0.942979 -5.92341 0
M  V30 7619 H 707.878 0.645088 -6.43776 0
M  V30 7620 N 708.01 1.57248 0.105221 0
M  V30 7621 C 708.92 2.04653 1.14693 0
M  V30 7622 C 709.936 0.969488 1.44489 0
M  V30 7623 O 711.112 1.28196 1.55331 0
M  V30 7624 C 708.177 2.45297 2.45011 0
M  V30 7625 C 707.238 3.67148 2.22489 0
M  V30 7626 C 706.471 4.05844 3.46592 0
M  V30 7627 O 706.694 3.44736 4.54437 0
M  V30 7628 O 705.628 4.98862 3.36779 0
M  V30 7629 H 709.454 2.93663 0.774336 0
M  V30 7630 H 707.039 1.45998 0.31701 0
M  V30 7631 H 708.921 2.72112 3.21766 0
M  V30 7632 H 707.596 1.59429 2.81717 0
M  V30 7633 H 706.503 3.45463 1.43547 0
M  V30 7634 H 707.836 4.53764 1.9068 0
M  V30 7635 N 709.488 -0.375779 1.53054 0
M  V30 7636 C 710.435 -1.45978 1.78771 0
M  V30 7637 C 711.405 -1.53625 0.631552 0
M  V30 7638 O 712.59 -1.69674 0.872667 0
M  V30 7639 C 709.73 -2.8305 1.97425 0
M  V30 7640 C 708.843 -2.84451 3.25134 0
M  V30 7641 C 707.978 -4.13034 3.34031 0
M  V30 7642 C 707.017 -4.08536 4.55812 0
M  V30 7643 N 706.154 -5.2875 4.61918 0
M  V30 7644 H 710.994 -1.23349 2.71273 0
M  V30 7645 H 708.531 -0.598147 1.3439 0
M  V30 7646 H 710.489 -3.62666 2.06225 0
M  V30 7647 H 709.119 -3.04101 1.0827 0
M  V30 7648 H 708.171 -1.97127 3.25338 0
M  V30 7649 H 709.483 -2.76998 4.14818 0
M  V30 7650 H 708.637 -5.0106 3.42087 0
M  V30 7651 H 707.376 -4.23226 2.42345 0
M  V30 7652 H 706.381 -3.18897 4.47867 0
M  V30 7653 H 707.606 -3.99955 5.48828 0
M  V30 7654 H 705.552 -5.39547 3.73129 0
M  V30 7655 H 705.469 -5.23426 5.45492 0
M  V30 7656 H 706.737 -6.18637 4.74245 0
M  V30 7657 N 710.966 -1.44241 -0.634997 0
M  V30 7658 C 712.212 -1.47038 -1.39669 0
M  V30 7659 C 712.545 -0.101122 -1.93937 0
M  V30 7660 O 711.82 0.880699 -1.73418 0
M  V30 7661 C 712.103 -2.52763 -2.56482 0
M  V30 7662 C 711.956 -3.99032 -2.07589 0
M  V30 7663 C 713.275 -2.55031 -3.58674 0
M  V30 7664 H 710.394 -0.53537 -0.506506 0
M  V30 7665 H 713.036 -1.75898 -0.718317 0
M  V30 7666 H 711.186 -2.28284 -3.14354 0
M  V30 7667 H 712.858 -4.3463 -1.54577 0
M  V30 7668 H 711.101 -4.10994 -1.38804 0
M  V30 7669 H 711.772 -4.68649 -2.91671 0
M  V30 7670 H 714.248 -2.76893 -3.10595 0
M  V30 7671 H 713.124 -3.30916 -4.37934 0
M  V30 7672 H 713.385 -1.59085 -4.12486 0
M  V30 7673 N 712.444 0.87505 -1.31075 0
M  V30 7674 C 713.672 1.66058 -1.23419 0
M  V30 7675 C 714.087 1.87723 0.201347 0
M  V30 7676 O 713.444 1.43178 1.13165 0
M  V30 7677 C 713.495 3.03142 -1.96945 0
M  V30 7678 O 713.216 2.82448 -3.34895 0
M  V30 7679 C 714.717 3.97583 -1.96067 0
M  V30 7680 H 711.937 0.517868 -0.426677 0
M  V30 7681 H 714.481 1.09258 -1.72867 0
M  V30 7682 H 712.636 3.56645 -1.51271 0
M  V30 7683 H 713.05 3.69483 -3.72267 0
M  V30 7684 H 714.524 4.91104 -2.52034 0
M  V30 7685 H 715.001 4.2898 -0.941961 0
M  V30 7686 H 715.607 3.50015 -2.41597 0
M  V30 7687 N 713.922 1.13953 1.08869 0
M  V30 7688 C 715.15 0.92817 1.84912 0
M  V30 7689 C 715.565 -0.523197 1.81406 0
M  V30 7690 O 714.922 -1.36237 1.21432 0
M  V30 7691 C 714.973 1.41509 3.32652 0
M  V30 7692 O 714.694 2.80959 3.36145 0
M  V30 7693 C 716.195 1.243 4.25517 0
M  V30 7694 H 713.415 0.330612 0.583898 0
M  V30 7695 H 715.959 1.51349 1.37527 0
M  V30 7696 H 714.114 0.872648 3.77444 0
M  V30 7697 H 714.528 3.02704 4.28335 0
M  V30 7698 H 716.002 1.63237 5.27312 0
M  V30 7699 H 716.479 0.18532 4.38809 0
M  V30 7700 H 717.085 1.77375 3.86546 0
M  V30 7701 N 715.4 -1.26948 0.933913 0
M  V30 7702 C 716.31 -2.30366 0.443671 0
M  V30 7703 C 717.326 -1.67284 -0.478745 0
M  V30 7704 O 718.502 -1.98156 -0.360043 0
M  V30 7705 C 715.567 -3.45485 -0.289974 0
M  V30 7706 C 714.628 -4.24069 0.668114 0
M  V30 7707 C 713.861 -5.33691 -0.0306138 0
M  V30 7708 O 714.084 -5.5656 -1.24888 0
M  V30 7709 O 713.018 -5.98441 0.644384 0
M  V30 7710 H 716.844 -2.74349 1.30254 0
M  V30 7711 H 714.429 -1.32012 0.699506 0
M  V30 7712 H 716.311 -4.15486 -0.70353 0
M  V30 7713 H 714.986 -3.03546 -1.12435 0
M  V30 7714 H 713.893 -3.56579 1.13147 0
M  V30 7715 H 715.226 -4.69739 1.46989 0
M  V30 7716 N 716.879 -0.700114 -1.41195 0
M  V30 7717 C 717.809 -0.0521132 -2.33442 0
M  V30 7718 C 718.79 0.76228 -1.52063 0
M  V30 7719 O 719.975 0.714336 -1.80585 0
M  V30 7720 C 717.105 0.881693 -3.35922 0
M  V30 7721 C 716.059 0.174062 -4.27646 0
M  V30 7722 C 715.385 1.22254 -5.20536 0
M  V30 7723 C 716.685 -0.962396 -5.13357 0
M  V30 7724 H 718.379 -0.822574 -2.87879 0
M  V30 7725 H 715.925 -0.397011 -1.38419 0
M  V30 7726 H 717.878 1.34429 -3.99383 0
M  V30 7727 H 716.602 1.68387 -2.79845 0
M  V30 7728 H 715.261 -0.268551 -3.65615 0
M  V30 7729 H 714.909 2.01736 -4.60773 0
M  V30 7730 H 714.609 0.754038 -5.82742 0
M  V30 7731 H 716.133 1.68555 -5.86874 0
M  V30 7732 H 717.547 -0.579875 -5.7036 0
M  V30 7733 H 715.944 -1.35828 -5.84526 0
M  V30 7734 H 717.014 -1.80003 -4.50252 0
M  V30 7735 N 718.357 1.51182 -0.445186 0
M  V30 7736 C 719.582 2.07056 0.119445 0
M  V30 7737 C 720.007 1.30966 1.35016 0
M  V30 7738 O 719.365 0.349827 1.77893 0
M  V30 7739 C 719.413 3.58234 0.412428 0
M  V30 7740 O 718.517 3.84249 1.49754 0
M  V30 7741 H 717.858 0.663998 -0.00157797 0
M  V30 7742 H 720.388 1.94699 -0.628779 0
M  V30 7743 H 720.398 4.02617 0.660583 0
M  V30 7744 H 719.073 4.13038 -0.487049 0
M  V30 7745 H 717.65 3.51724 1.23873 0
M  V30 7746 N 719.835 0.176821 1.56605 0
M  V30 7747 C 721.063 -0.472828 2.01425 0
M  V30 7748 C 721.478 -1.56436 1.05703 0
M  V30 7749 O 720.835 -1.82405 0.058808 0
M  V30 7750 C 720.886 -1.04607 3.46034 0
M  V30 7751 O 720.607 0.00189608 4.381 0
M  V30 7752 C 722.108 -1.7734 4.06282 0
M  V30 7753 H 719.328 -0.120503 0.660091 0
M  V30 7754 H 721.872 0.280166 2.02572 0
M  V30 7755 H 720.027 -1.74953 3.45645 0
M  V30 7756 H 720.441 -0.422118 5.22799 0
M  V30 7757 H 721.915 -2.12703 5.09374 0
M  V30 7758 H 722.392 -2.67043 3.4869 0
M  V30 7759 H 722.998 -1.11623 4.10391 0
M  V30 7760 N 721.313 -1.57302 -0.09688 0
M  V30 7761 C 722.538 -1.9058 -0.818169 0
M  V30 7762 C 722.963 -0.770921 -1.71576 0
M  V30 7763 O 722.321 0.277588 -1.79162 0
M  V30 7764 C 722.369 -3.22714 -1.60898 0
M  V30 7765 O 721.473 -3.10178 -2.71779 0
M  V30 7766 H 720.814 -0.624759 -0.224882 0
M  V30 7767 H 723.344 -2.04471 -0.07264 0
M  V30 7768 H 723.354 -3.55978 -1.99358 0
M  V30 7769 H 722.029 -4.04899 -0.950227 0
M  V30 7770 H 720.606 -2.88424 -2.3636 0
M  V30 7771 N 722.791 0.367657 -1.53252 0
M  V30 7772 C 724.04 1.10782 -1.68554 0
M  V30 7773 C 724.353 1.90523 -0.442765 0
M  V30 7774 O 725.559 2.6729 -0.47629 0
M  V30 7775 C 724.015 2.01863 -2.97959 0
M  V30 7776 C 723.623 1.27443 -4.29491 0
M  V30 7777 C 725.367 2.75883 -3.22628 0
M  V30 7778 C 723.274 2.17414 -5.49987 0
M  V30 7779 H 722.204 0.417272 -0.628013 0
M  V30 7780 H 724.855 0.368971 -1.79752 0
M  V30 7781 H 723.237 2.7947 -2.80558 0
M  V30 7782 H 724.411 0.549138 -4.57516 0
M  V30 7783 H 722.726 0.652935 -4.11249 0
M  V30 7784 H 725.323 3.43421 -4.09837 0
M  V30 7785 H 725.666 3.41138 -2.38601 0
M  V30 7786 H 726.199 2.0536 -3.40693 0
M  V30 7787 H 722.938 1.5674 -6.36485 0
M  V30 7788 H 722.458 2.87799 -5.26243 0
M  V30 7789 H 724.137 2.77019 -5.84696 0
M  V30 7790 N 724.269 1.44576 0.627338 0
M  V30 7791 C 725.499 1.50829 1.41189 0
M  V30 7792 C 725.907 0.133083 1.88731 0
M  V30 7793 O 725.25 -0.87199 1.61685 0
M  V30 7794 C 725.312 2.41449 2.66351 0
M  V30 7795 C 724.976 3.88549 2.40579 0
M  V30 7796 C 725.973 4.78981 2.0217 0
M  V30 7797 C 723.658 4.33287 2.54102 0
M  V30 7798 C 725.652 6.12153 1.77618 0
M  V30 7799 C 723.339 5.66505 2.29163 0
M  V30 7800 C 724.337 6.55756 1.9098 0
M  V30 7801 O 724.025 7.86506 1.66321 0
M  V30 7802 H 723.757 0.513797 0.439304 0
M  V30 7803 H 726.311 1.90256 0.774059 0
M  V30 7804 H 724.541 1.96955 3.32784 0
M  V30 7805 H 726.23 2.38608 3.28361 0
M  V30 7806 H 726.996 4.45689 1.91277 0
M  V30 7807 H 722.875 3.64074 2.82792 0
M  V30 7808 H 726.419 6.81776 1.47739 0
M  V30 7809 H 722.316 5.99358 2.39668 0
M  V30 7810 H 723.084 7.98341 1.80536 0
M  V30 7811 N 725.747 -0.868086 1.31537 0
M  V30 7812 C 726.679 -1.98165 1.15166 0
M  V30 7813 C 727.692 -1.6255 0.0902335 0
M  V30 7814 O 728.881 -1.75272 0.33791 0
M  V30 7815 C 725.981 -3.30772 0.737776 0
M  V30 7816 C 725.154 -3.94716 1.88462 0
M  V30 7817 C 724.213 -5.05641 1.45648 0
M  V30 7818 O 723.239 -5.2636 2.16642 0
M  V30 7819 N 724.441 -5.79474 0.34493 0
M  V30 7820 H 727.206 -2.12754 2.11083 0
M  V30 7821 H 724.767 -1.04217 1.23897 0
M  V30 7822 H 726.759 -4.02366 0.434032 0
M  V30 7823 H 725.329 -3.1233 -0.129834 0
M  V30 7824 H 724.549 -3.16079 2.35558 0
M  V30 7825 H 725.837 -4.34175 2.65273 0
M  V30 7826 H 725.235 -5.65164 -0.246259 0
M  V30 7827 H 723.792 -6.51722 0.100728 0
M  V30 7828 N 727.225 -1.14528 -1.08264 0
M  V30 7829 C 728.155 -0.856356 -2.1723 0
M  V30 7830 C 729.136 0.189251 -1.69044 0
M  V30 7831 O 730.321 0.0456119 -1.94146 0
M  V30 7832 C 727.451 -0.334662 -3.45684 0
M  V30 7833 C 726.405 -1.31588 -4.0727 0
M  V30 7834 C 725.731 -0.653428 -5.30692 0
M  V30 7835 C 727.031 -2.67866 -4.48381 0
M  V30 7836 H 728.725 -1.76755 -2.41657 0
M  V30 7837 H 726.271 -0.851287 -1.16143 0
M  V30 7838 H 728.224 -0.120128 -4.21229 0
M  V30 7839 H 726.948 0.611967 -3.20815 0
M  V30 7840 H 725.607 -1.51661 -3.33758 0
M  V30 7841 H 725.255 0.299054 -5.0211 0
M  V30 7842 H 724.955 -1.30817 -5.72853 0
M  V30 7843 H 726.479 -0.448453 -6.08951 0
M  V30 7844 H 727.893 -2.51692 -5.15096 0
M  V30 7845 H 726.29 -3.29627 -5.01464 0
M  V30 7846 H 727.36 -3.24632 -3.60198 0
M  V30 7847 N 728.703 1.26451 -0.940633 0
M  V30 7848 C 729.952 1.93071 -0.583656 0
M  V30 7849 C 730.265 1.74618 0.881366 0
M  V30 7850 O 731.471 2.35689 1.34769 0
M  V30 7851 C 729.927 3.45927 -0.993106 0
M  V30 7852 C 729.535 3.73115 -2.4797 0
M  V30 7853 C 731.279 4.18554 -0.707998 0
M  V30 7854 C 729.186 5.19408 -2.82788 0
M  V30 7855 H 728.116 0.722824 -0.214572 0
M  V30 7856 H 730.767 1.43538 -1.1432 0
M  V30 7857 H 729.149 3.94341 -0.362099 0
M  V30 7858 H 730.323 3.35408 -3.15971 0
M  V30 7859 H 728.638 3.13719 -2.73805 0
M  V30 7860 H 731.235 5.26293 -0.94447 0
M  V30 7861 H 731.578 4.14782 0.355225 0
M  V30 7862 H 732.111 3.76003 -1.2987 0
M  V30 7863 H 728.85 5.28281 -3.88071 0
M  V30 7864 H 728.37 5.58214 -2.19449 0
M  V30 7865 H 730.049 5.87407 -2.71224 0
M  V30 7866 N 730.181 0.707592 1.40822 0
M  V30 7867 C 731.129 0.0386643 2.32568 0
M  V30 7868 C 732.123 -0.755653 1.51612 0
M  V30 7869 O 733.329 -0.659921 1.67467 0
M  V30 7870 H 729.704 -0.00629912 0.751974 0
M  V30 7871 H 731.675 0.8293 2.86645 0
M  V30 7872 C 730.424 -0.87496 3.36511 0
M  V30 7873 H 729.747 -0.273157 3.98866 0
M  V30 7874 H 731.187 -1.31111 4.03219 0
M  V30 7875 C 729.646 -1.99672 2.71353 0
M  V30 7876 O 730.176 -3.08676 2.57064 0
M  V30 7877 N 728.382 -1.77799 2.29861 0
M  V30 7878 H 727.929 -0.89147 2.41683 0
M  V30 7879 H 727.887 -2.53036 1.86601 0
M  V30 7880 N 731.66 -1.50943 0.453197 0
M  V30 7881 C 732.906 -2.02512 -0.108082 0
M  V30 7882 C 733.239 -1.33574 -1.40967 0
M  V30 7883 O 732.514 -0.455671 -1.89087 0
M  V30 7884 C 732.797 -3.58759 -0.310453 0
M  V30 7885 C 732.65 -4.38293 1.0109 0
M  V30 7886 C 733.969 -4.26816 -1.07313 0
M  V30 7887 H 731.088 -0.73603 -0.0378064 0
M  V30 7888 H 733.73 -1.80433 0.595295 0
M  V30 7889 H 731.88 -3.77702 -0.909582 0
M  V30 7890 H 733.552 -4.30964 1.64523 0
M  V30 7891 H 731.795 -4.02745 1.61179 0
M  V30 7892 H 732.466 -5.45828 0.82315 0
M  V30 7893 H 734.942 -4.1224 -0.565473 0
M  V30 7894 H 733.818 -5.35989 -1.1835 0
M  V30 7895 H 734.079 -3.88757 -2.10525 0
M  V30 7896 N 733.138 -0.185124 -1.56509 0
M  V30 7897 C 734.368 0.461469 -2.0138 0
M  V30 7898 C 734.776 1.56417 -1.06445 0
M  V30 7899 O 734.119 1.83603 -0.0597515 0
M  V30 7900 C 734.181 1.08731 -3.42663 0
M  V30 7901 C 733.845 0.124581 -4.5683 0
M  V30 7902 C 734.842 -0.662295 -5.15664 0
M  V30 7903 C 732.527 0.0163947 -5.02297 0
M  V30 7904 C 734.521 -1.54442 -6.18406 0
M  V30 7905 C 732.208 -0.869301 -6.04885 0
M  V30 7906 C 733.206 -1.64828 -6.62813 0
M  V30 7907 O 732.894 -2.51915 -7.63409 0
M  V30 7908 H 732.626 0.1212 -0.665046 0
M  V30 7909 H 735.18 -0.288119 -2.03369 0
M  V30 7910 H 733.41 1.8853 -3.37629 0
M  V30 7911 H 735.099 1.63753 -3.71403 0
M  V30 7912 H 735.865 -0.588963 -4.81411 0
M  V30 7913 H 731.744 0.61253 -4.56913 0
M  V30 7914 H 735.288 -2.15289 -6.63548 0
M  V30 7915 H 731.185 -0.943786 -6.38563 0
M  V30 7916 H 731.953 -2.45584 -7.80789 0
M  V30 7917 N 734.616 1.57351 0.0885366 0
M  V30 7918 C 735.856 1.88248 0.796362 0
M  V30 7919 C 736.22 0.776915 1.75579 0
M  V30 7920 O 737.421 0.968485 2.50747 0
M  V30 7921 C 735.692 3.24385 1.50031 0
M  V30 7922 S 737.251 3.76991 2.24551 0
M  V30 7923 H 734.069 0.659697 0.265181 0
M  V30 7924 H 736.671 1.95428 0.0531843 0
M  V30 7925 H 735.375 4.02764 0.788 0
M  V30 7926 H 734.906 3.20361 2.28325 0
M  V30 7927 H 736.921 3.50933 3.508 0
M  V30 7928 N 736.094 -0.359525 1.53444 0
M  V30 7929 C 737.042 -1.46104 1.80987 0
M  V30 7930 C 738.036 -1.55181 0.679351 0
M  V30 7931 O 739.242 -1.57995 0.862405 0
M  V30 7932 H 735.617 -0.486835 0.573145 0
M  V30 7933 H 737.588 -1.2008 2.73173 0
M  V30 7934 C 736.337 -2.82855 2.02208 0
M  V30 7935 H 735.66 -2.76631 2.88644 0
M  V30 7936 H 737.1 -3.59091 2.25455 0
M  V30 7937 C 735.559 -3.27192 0.802931 0
M  V30 7938 O 736.089 -4.017 -0.00544286 0
M  V30 7939 N 734.295 -2.83807 0.624657 0
M  V30 7940 H 733.842 -2.23339 1.28364 0
M  V30 7941 H 733.8 -3.13828 -0.189641 0
M  V30 7942 N 737.572 -1.44907 -0.619662 0
M  V30 7943 C 738.797 -1.52021 -1.41083 0
M  V30 7944 C 739.222 -0.14976 -1.87503 0
M  V30 7945 O 738.58 0.863303 -1.59426 0
M  V30 7946 C 738.628 -2.49911 -2.59955 0
M  V30 7947 O 737.732 -2.00857 -3.60181 0
M  V30 7948 H 737.073 -0.512912 -0.421684 0
M  V30 7949 H 739.603 -1.90149 -0.755282 0
M  V30 7950 H 739.613 -2.68323 -3.07354 0
M  V30 7951 H 738.288 -3.4945 -2.25516 0
M  V30 7952 H 736.865 -1.92265 -3.19513 0
M  V30 7953 N 739.05 0.861098 -1.31996 0
M  V30 7954 C 740.297 1.61481 -1.22188 0
M  V30 7955 C 740.625 1.93276 0.217853 0
M  V30 7956 O 739.88 1.56942 1.16909 0
M  V30 7957 C 740.179 2.94822 -2.02027 0
M  V30 7958 C 739.845 2.82483 -3.51446 0
M  V30 7959 C 738.507 2.78825 -3.92186 0
M  V30 7960 C 740.859 2.68878 -4.46491 0
M  V30 7961 C 738.187 2.59433 -5.26224 0
M  V30 7962 C 740.539 2.51022 -5.80664 0
M  V30 7963 C 739.203 2.45753 -6.20614 0
M  V30 7964 H 738.473 0.590902 -0.447119 0
M  V30 7965 H 741.12 0.999376 -1.63355 0
M  V30 7966 H 739.425 3.6045 -1.53569 0
M  V30 7967 H 741.122 3.52149 -1.91812 0
M  V30 7968 H 737.712 2.86152 -3.19085 0
M  V30 7969 H 741.896 2.70754 -4.1594 0
M  V30 7970 H 737.152 2.53784 -5.5624 0
M  V30 7971 H 741.326 2.39473 -6.53931 0
M  V30 7972 H 738.953 2.30485 -7.24417 0
M  V30 7973 N 740.528 1.15101 1.07655 0
M  V30 7974 C 741.758 0.946357 1.83651 0
M  V30 7975 C 742.166 -0.508641 1.82235 0
M  V30 7976 O 741.509 -1.36445 1.22997 0
M  V30 7977 C 741.571 1.37945 3.31981 0
M  V30 7978 C 741.235 2.85155 3.57122 0
M  V30 7979 C 742.232 3.83234 3.51323 0
M  V30 7980 C 739.917 3.2275 3.84887 0
M  V30 7981 C 741.911 5.16914 3.72932 0
M  V30 7982 C 739.598 4.56604 4.06148 0
M  V30 7983 C 740.596 5.53495 4.00165 0
M  V30 7984 O 740.284 6.84931 4.20861 0
M  V30 7985 H 740.016 0.336368 0.586372 0
M  V30 7986 H 742.57 1.53198 1.36819 0
M  V30 7987 H 740.8 0.737205 3.79608 0
M  V30 7988 H 742.489 1.14439 3.89434 0
M  V30 7989 H 743.255 3.55535 3.29878 0
M  V30 7990 H 739.134 2.47921 3.88659 0
M  V30 7991 H 742.678 5.92529 3.68178 0
M  V30 7992 H 738.575 4.84019 4.27078 0
M  V30 7993 H 739.343 6.91304 4.38226 0
M  V30 7994 N 742.006 -1.2595 0.947325 0
M  V30 7995 C 742.969 -2.24407 0.466285 0
M  V30 7996 C 743.969 -1.55054 -0.426005 0
M  V30 7997 O 745.159 -1.7275 -0.224319 0
M  V30 7998 C 742.291 -3.39326 -0.327201 0
M  V30 7999 H 743.484 -2.68477 1.33642 0
M  V30 8000 H 741.037 -1.38211 0.729887 0
M  V30 8001 H 741.772 -3.00667 -1.21532 0
M  V30 8002 H 741.557 -3.9085 0.312839 0
M  V30 8003 H 743.047 -4.12455 -0.653477 0
M  V30 8004 N 743.484 -0.715051 -1.40445 0
M  V30 8005 C 744.761 -0.181503 -1.94756 0
M  V30 8006 C 745.141 1.31268 -1.65324 0
M  V30 8007 O 744.489 2.0686 -0.970631 0
M  V30 8008 C 744.699 -0.493663 -3.45491 0
M  V30 8009 C 746.047 -0.432032 -4.22396 0
M  V30 8010 O 747.071 -0.429692 -3.53599 0
M  V30 8011 O 745.93 -0.409091 -5.44967 0
M  V30 8012 H 743.024 -0.0263989 -0.826579 0
M  V30 8013 H 745.57 -0.792546 -1.50056 0
M  V30 8014 H 744.342 -1.52713 -3.6027 0
M  V30 8015 H 743.965 0.14737 -3.97327 0
M  V30 8016 N 744.962 1.50701 -0.461195 0
M  V30 8017 C 746.209 2.02267 0.0971971 0
M  V30 8018 C 746.537 1.34387 1.40608 0
M  V30 8019 O 745.792 0.455254 1.90331 0
M  V30 8020 C 746.091 3.55788 0.33908 0
M  V30 8021 C 745.757 4.42092 -0.886885 0
M  V30 8022 C 744.419 4.65398 -1.22304 0
M  V30 8023 C 746.771 4.92571 -1.70361 0
M  V30 8024 C 744.099 5.36429 -2.37616 0
M  V30 8025 C 746.451 5.64868 -2.84793 0
M  V30 8026 C 745.115 5.86431 -3.18834 0
M  V30 8027 H 744.385 0.740146 0.0355669 0
M  V30 8028 H 747.032 1.81415 -0.61326 0
M  V30 8029 H 745.337 3.751 1.13168 0
M  V30 8030 H 747.034 3.93243 0.784937 0
M  V30 8031 H 743.624 4.24165 -0.614981 0
M  V30 8032 H 747.808 4.74428 -1.4571 0
M  V30 8033 H 743.064 5.51333 -2.64276 0
M  V30 8034 H 747.238 6.02966 -3.48432 0
M  V30 8035 H 744.865 6.41248 -4.08296 0
M  V30 8036 N 746.441 0.193421 1.56409 0
M  V30 8037 C 747.373 -0.759944 2.16235 0
M  V30 8038 C 748.386 -1.17797 1.12373 0
M  V30 8039 O 749.575 -1.11399 1.39472 0
M  V30 8040 C 746.675 -2.03735 2.70823 0
M  V30 8041 C 745.848 -1.77939 3.9957 0
M  V30 8042 C 744.907 -2.90111 4.39001 0
M  V30 8043 O 743.933 -2.59791 5.06456 0
M  V30 8044 N 745.135 -4.18426 4.02368 0
M  V30 8045 H 747.9 -0.248348 2.98669 0
M  V30 8046 H 745.461 0.0113966 1.61896 0
M  V30 8047 H 747.453 -2.77914 2.94187 0
M  V30 8048 H 746.023 -2.46022 1.92852 0
M  V30 8049 H 745.243 -0.875491 3.84355 0
M  V30 8050 H 746.531 -1.58099 4.83614 0
M  V30 8051 H 745.929 -4.45913 3.48106 0
M  V30 8052 H 744.486 -4.89237 4.30686 0
M  V30 8053 N 747.919 -1.57396 -0.0801906 0
M  V30 8054 C 749.33 -1.75642 -0.633002 0
M  V30 8055 C 749.681 -0.817708 -1.78348 0
M  V30 8056 O 748.806 0.000233743 -2.164 0
M  V30 8057 C 749.401 -3.18502 -1.15507 0
M  V30 8058 C 747.96 -3.38121 -1.65381 0
M  V30 8059 C 747.107 -2.71386 -0.569661 0
M  V30 8060 H 750.058 -1.58027 0.145949 0
M  V30 8061 H 750.079 -3.22198 -2.02408 0
M  V30 8062 H 749.591 -3.86799 -0.317515 0
M  V30 8063 H 747.692 -2.74926 -2.51488 0
M  V30 8064 H 747.805 -4.46521 -1.73654 0
M  V30 8065 H 746.169 -2.33702 -1.0127 0
M  V30 8066 H 746.952 -3.42332 0.257561 0
M  V30 8067 N 749.397 0.351382 -1.53633 0
M  V30 8068 C 750.643 1.09411 -1.70754 0
M  V30 8069 C 750.976 1.88544 -0.465293 0
M  V30 8070 O 750.251 1.86923 0.537608 0
M  V30 8071 C 750.534 2.04173 -2.96623 0
M  V30 8072 C 750.387 1.28556 -4.31038 0
M  V30 8073 C 751.706 3.04102 -3.18136 0
M  V30 8074 H 748.825 0.396373 -0.621335 0
M  V30 8075 H 751.467 0.373464 -1.86293 0
M  V30 8076 H 749.617 2.65625 -2.83506 0
M  V30 8077 H 751.289 0.697786 -4.55992 0
M  V30 8078 H 749.532 0.587498 -4.29803 0
M  V30 8079 H 750.203 1.97989 -5.15271 0
M  V30 8080 H 752.679 2.5276 -3.30532 0
M  V30 8081 H 751.555 3.67616 -4.07615 0
M  V30 8082 H 751.816 3.75053 -2.34068 0
M  V30 8083 N 750.875 1.45233 0.611969 0
M  V30 8084 C 751.823 1.53898 1.74408 0
M  V30 8085 C 752.817 0.409254 1.64382 0
M  V30 8086 O 754.023 0.584988 1.70229 0
M  V30 8087 H 750.398 0.483303 0.576127 0
M  V30 8088 H 752.369 2.49143 1.64227 0
M  V30 8089 C 751.118 1.51865 3.12782 0
M  V30 8090 H 750.441 2.38118 3.21154 0
M  V30 8091 H 751.881 1.61986 3.91838 0
M  V30 8092 C 750.34 0.242374 3.36027 0
M  V30 8093 O 750.87 -0.679587 3.9591 0
M  V30 8094 N 749.076 0.139448 2.90265 0
M  V30 8095 H 748.623 0.890571 2.41716 0
M  V30 8096 H 748.581 -0.713686 3.06193 0
M  V30 8097 N 752.353 -0.854086 1.3245 0
M  V30 8098 C 753.599 -1.61069 1.23225 0
M  V30 8099 C 753.932 -1.93111 -0.205349 0
M  V30 8100 O 753.207 -1.57397 -1.14265 0
M  V30 8101 C 753.49 -2.93065 2.09249 0
M  V30 8102 C 753.343 -2.67801 3.6139 0
M  V30 8103 C 754.662 -3.94341 1.95406 0
M  V30 8104 H 751.781 -0.584449 0.448986 0
M  V30 8105 H 754.423 -0.986189 1.62402 0
M  V30 8106 H 752.573 -3.46364 1.75967 0
M  V30 8107 H 754.245 -2.21052 4.04887 0
M  V30 8108 H 752.488 -2.01756 3.84027 0
M  V30 8109 H 753.159 -3.6179 4.16907 0
M  V30 8110 H 755.635 -3.50301 2.24562 0
M  V30 8111 H 754.511 -4.84555 2.57872 0
M  V30 8112 H 754.772 -4.32382 0.921865 0
M  V30 8113 N 753.831 -1.1567 -1.07043 0
M  V30 8114 C 755.242 -0.942408 -1.61169 0
M  V30 8115 C 755.593 0.515537 -1.89306 0
M  V30 8116 O 754.718 1.38726 -1.66084 0
M  V30 8117 C 755.313 -1.70431 -2.92812 0
M  V30 8118 C 753.872 -1.53521 -3.43669 0
M  V30 8119 C 753.019 -1.7179 -2.17678 0
M  V30 8120 H 755.97 -1.3065 -0.9009 0
M  V30 8121 H 755.991 -1.17566 -3.61882 0
M  V30 8122 H 755.503 -2.76538 -2.72302 0
M  V30 8123 H 753.604 -0.498224 -3.69254 0
M  V30 8124 H 753.717 -2.31422 -4.19501 0
M  V30 8125 H 752.081 -1.14468 -2.27529 0
M  V30 8126 H 752.864 -2.79269 -1.99659 0
M  V30 8127 N 755.309 1.25446 -0.953992 0
M  V30 8128 C 756.725 1.4539 -0.658316 0
M  V30 8129 C 756.925 1.85607 0.784356 0
M  V30 8130 O 755.981 1.98568 1.55972 0
M  V30 8131 C 757.294 2.52643 -1.6307 0
M  V30 8132 C 758.842 2.66484 -1.64181 0
M  V30 8133 C 759.317 3.76921 -2.60182 0
M  V30 8134 N 760.808 3.84331 -2.58542 0
M  V30 8135 C 761.543 4.69271 -3.29503 0
M  V30 8136 N 761.039 5.58503 -4.09934 0
M  V30 8137 N 762.832 4.6323 -3.18393 0
M  V30 8138 H 754.983 0.976337 -1.8863 0
M  V30 8139 H 757.246 0.490343 -0.811337 0
M  V30 8140 H 756.952 2.29949 -2.66114 0
M  V30 8141 H 756.826 3.50547 -1.39271 0
M  V30 8142 H 759.213 2.88545 -0.618552 0
M  V30 8143 H 759.294 1.68982 -1.92038 0
M  V30 8144 H 758.938 3.55612 -3.62633 0
M  V30 8145 H 758.868 4.73906 -2.29609 0
M  V30 8146 H 761.359 3.20544 -2.0015 0
M  V30 8147 H 761.672 6.20241 -4.61 0
M  V30 8148 H 760.017 5.58214 -4.14032 0
M  V30 8149 H 763.208 3.92527 -2.5503 0
M  V30 8150 H 763.381 5.29204 -3.73961 0
M  V30 8151 N 756.787 0.722489 1.40064 0
M  V30 8152 C 758.027 0.269491 2.02616 0
M  V30 8153 C 758.391 -1.11835 1.56067 0
M  V30 8154 O 759.592 -1.66873 2.1073 0
M  V30 8155 C 757.863 0.354066 3.55642 0
M  V30 8156 S 759.422 -0.0209309 4.38795 0
M  V30 8157 H 756.24 0.106412 0.702992 0
M  V30 8158 H 758.842 0.946237 1.71075 0
M  V30 8159 H 757.546 1.36565 3.87012 0
M  V30 8160 H 757.077 -0.340925 3.9192 0
M  V30 8161 H 759.092 -1.24093 4.80432 0
M  V30 8162 N 758.265 -1.50454 0.469181 0
M  V30 8163 C 759.493 -2.06729 -0.0842134 0
M  V30 8164 C 759.908 -1.33326 -1.33677 0
M  V30 8165 O 759.265 -0.401977 -1.78018 0
M  V30 8166 C 759.316 -3.59557 -0.374253 0
M  V30 8167 O 759.037 -4.30192 0.828622 0
M  V30 8168 C 760.538 -4.32449 -0.974824 0
M  V30 8169 H 757.758 -0.670971 0.006231 0
M  V30 8170 H 760.302 -1.93645 0.657415 0
M  V30 8171 H 758.457 -3.7245 -1.06581 0
M  V30 8172 H 758.871 -5.21371 0.572066 0
M  V30 8173 H 760.345 -5.40361 -1.12755 0
M  V30 8174 H 760.822 -3.92819 -1.96442 0
M  V30 8175 H 761.428 -4.24082 -0.321703 0
M  V30 8176 N 759.743 -0.201713 -1.56304 0
M  V30 8177 C 760.968 0.443815 -2.02596 0
M  V30 8178 C 761.393 1.53945 -1.08086 0
M  V30 8179 O 760.751 1.81182 -0.0655056 0
M  V30 8180 C 760.799 0.971066 -3.47279 0
M  V30 8181 O 759.903 2.0836 -3.55893 0
M  V30 8182 H 759.244 0.10294 -0.655972 0
M  V30 8183 H 761.774 -0.314533 -2.02168 0
M  V30 8184 H 761.784 1.28598 -3.87204 0
M  V30 8185 H 760.459 0.169048 -4.15556 0
M  V30 8186 H 759.036 1.77683 -3.27846 0
M  V30 8187 N 761.222 1.57436 0.0718424 0
M  V30 8188 C 762.452 1.91196 0.782795 0
M  V30 8189 C 762.86 0.795927 1.71644 0
M  V30 8190 O 762.203 -0.239604 1.82131 0
M  V30 8191 C 762.265 3.20421 1.63005 0
M  V30 8192 C 761.929 4.48724 0.865782 0
M  V30 8193 C 762.926 5.19571 0.185051 0
M  V30 8194 C 760.611 4.95345 0.832971 0
M  V30 8195 C 762.605 6.3529 -0.518264 0
M  V30 8196 C 760.292 6.1097 0.125884 0
M  V30 8197 C 761.29 6.80794 -0.548533 0
M  V30 8198 O 760.978 7.94213 -1.24423 0
M  V30 8199 H 760.71 0.636486 0.227731 0
M  V30 8200 H 763.264 2.05348 0.0464187 0
M  V30 8201 H 761.494 3.02478 2.40923 0
M  V30 8202 H 763.183 3.39831 2.21968 0
M  V30 8203 H 763.949 4.8458 0.201707 0
M  V30 8204 H 759.828 4.40871 1.34737 0
M  V30 8205 H 763.372 6.89725 -1.04523 0
M  V30 8206 H 759.269 6.45411 0.107155 0
M  V30 8207 H 760.037 8.10331 -1.1535 0
M  V30 8208 N 762.7 -0.34323 1.53817 0
M  V30 8209 C 763.63 -1.42709 1.84814 0
M  V30 8210 C 764.611 -1.5488 0.703297 0
M  V30 8211 O 765.796 -1.69082 0.955237 0
M  V30 8212 C 762.926 -2.79756 2.05801 0
M  V30 8213 C 761.88 -2.82392 3.21619 0
M  V30 8214 C 761.206 -4.22326 3.2794 0
M  V30 8215 C 762.506 -2.479 4.59721 0
M  V30 8216 H 764.2 -1.17018 2.75585 0
M  V30 8217 H 761.746 -0.561485 1.32602 0
M  V30 8218 H 763.699 -3.55627 2.26069 0
M  V30 8219 H 762.423 -3.06883 1.11761 0
M  V30 8220 H 761.082 -2.08974 3.01207 0
M  V30 8221 H 760.73 -4.46564 2.31494 0
M  V30 8222 H 760.43 -4.25001 4.05768 0
M  V30 8223 H 761.954 -5.00039 3.50419 0
M  V30 8224 H 763.368 -3.13484 4.80001 0
M  V30 8225 H 761.765 -2.61857 5.39954 0
M  V30 8226 H 762.835 -1.43087 4.63308 0
M  V30 8227 N 764.178 -1.45556 -0.604258 0
M  V30 8228 C 765.126 -1.5482 -1.7359 0
M  V30 8229 C 766.12 -0.417966 -1.64163 0
M  V30 8230 O 767.326 -0.594007 -1.69916 0
M  V30 8231 H 763.701 -0.486352 -0.573556 0
M  V30 8232 H 765.672 -2.5001 -1.62903 0
M  V30 8233 C 764.421 -1.53521 -3.11972 0
M  V30 8234 H 763.744 -2.39818 -3.19886 0
M  V30 8235 H 765.184 -1.64061 -3.90973 0
M  V30 8236 C 763.643 -0.260191 -3.35894 0
M  V30 8237 O 764.173 0.658582 -3.96265 0
M  V30 8238 N 762.379 -0.154839 -2.90187 0
M  V30 8239 H 761.926 -0.903378 -2.4124 0
M  V30 8240 H 761.884 0.697437 -3.06567 0
M  V30 8241 N 765.656 0.84705 -1.32902 0
M  V30 8242 C 767.067 1.41785 -1.21466 0
M  V30 8243 C 767.418 1.95464 0.169767 0
M  V30 8244 O 766.543 1.88157 1.06892 0
M  V30 8245 C 767.138 2.57734 -2.19906 0
M  V30 8246 C 765.697 3.10791 -2.12334 0
M  V30 8247 C 764.844 1.83562 -2.07847 0
M  V30 8248 H 767.795 0.653532 -1.44619 0
M  V30 8249 H 767.816 3.35123 -1.80202 0
M  V30 8250 H 767.328 2.18635 -3.20656 0
M  V30 8251 H 765.429 3.54455 -1.14858 0
M  V30 8252 H 765.542 3.71519 -3.02506 0
M  V30 8253 H 763.906 2.03475 -1.53199 0
M  V30 8254 H 764.689 1.4667 -3.10392 0
M  V30 8255 N 767.134 1.16236 1.06428 0
M  V30 8256 C 768.382 0.941171 1.78847 0
M  V30 8257 C 768.703 -0.53248 1.87589 0
M  V30 8258 O 767.973 -1.38686 1.38358 0
M  V30 8259 H 766.553 0.345228 0.66244 0
M  V30 8260 H 769.215 1.46479 1.28569 0
M  V30 8261 H 768.311 1.35871 2.80972 0
M  V30 8262 N 768.612 -1.24939 0.960631 0
M  V30 8263 C 769.542 -2.28 0.503815 0
M  V30 8264 C 770.523 -1.63959 -0.452928 0
M  V30 8265 O 771.708 -1.91009 -0.350585 0
M  V30 8266 C 768.838 -3.46643 -0.213535 0
M  V30 8267 C 767.792 -4.22903 0.658535 0
M  V30 8268 C 767.118 -5.34363 -0.189902 0
M  V30 8269 C 768.418 -4.84949 1.93963 0
M  V30 8270 H 770.112 -2.66462 1.36521 0
M  V30 8271 H 767.658 -1.28093 0.657897 0
M  V30 8272 H 769.611 -4.1787 -0.544286 0
M  V30 8273 H 768.335 -3.07187 -1.10923 0
M  V30 8274 H 766.994 -3.53467 0.972455 0
M  V30 8275 H 766.642 -4.91147 -1.08553 0
M  V30 8276 H 766.342 -5.86302 0.390331 0
M  V30 8277 H 767.866 -6.0842 -0.515484 0
M  V30 8278 H 769.28 -5.48288 1.67491 0
M  V30 8279 H 767.677 -5.47091 2.46601 0
M  V30 8280 H 768.747 -4.06799 2.639 0
M  V30 8281 N 770.09 -0.729906 -1.39679 0
M  V30 8282 C 771.501 -0.346241 -1.83461 0
M  V30 8283 C 771.852 1.1215 -1.60987 0
M  V30 8284 O 770.977 1.86456 -1.09832 0
M  V30 8285 C 771.572 -0.621656 -3.33048 0
M  V30 8286 C 770.131 -0.291543 -3.75269 0
M  V30 8287 C 769.278 -0.886844 -2.62736 0
M  V30 8288 H 772.229 -0.927949 -1.28743 0
M  V30 8289 H 772.25 0.108301 -3.80346 0
M  V30 8290 H 771.762 -1.68996 -3.49373 0
M  V30 8291 H 769.863 0.771133 -3.64533 0
M  V30 8292 H 769.976 -0.770544 -4.72863 0
M  V30 8293 H 768.34 -0.313839 -2.52759 0
M  V30 8294 H 769.123 -1.95971 -2.81869 0
M  V30 8295 N 771.568 1.50203 -0.477153 0
M  V30 8296 C 772.793 2.07263 0.0754986 0
M  V30 8297 C 773.218 1.33801 1.32208 0
M  V30 8298 O 772.576 0.387482 1.77111 0
M  V30 8299 C 772.624 3.59028 0.336348 0
M  V30 8300 O 771.728 3.87339 1.4157 0
M  V30 8301 H 771.069 0.663815 -0.015662 0
M  V30 8302 H 773.599 1.93321 -0.669936 0
M  V30 8303 H 773.609 4.03927 0.575034 0
M  V30 8304 H 772.284 4.11912 -0.574551 0
M  V30 8305 H 770.861 3.54272 1.16385 0
M  V30 8306 N 773.046 0.209999 1.56195 0
M  V30 8307 C 773.996 -0.717978 2.164 0
M  V30 8308 C 774.98 -1.16577 1.10899 0
M  V30 8309 O 776.172 -1.12169 1.3692 0
M  V30 8310 C 773.301 -1.93091 2.8385 0
M  V30 8311 C 772.387 -1.50333 3.96561 0
M  V30 8312 N 772.778 -0.787621 4.9963 0
M  V30 8313 C 771.076 -1.79151 4.08437 0
M  V30 8314 C 771.777 -0.571204 5.78889 0
M  V30 8315 N 770.753 -1.12444 5.31843 0
M  V30 8316 H 774.555 -0.162603 2.9345 0
M  V30 8317 H 772.069 0.0107928 1.62396 0
M  V30 8318 H 774.066 -2.60635 3.25384 0
M  V30 8319 H 772.726 -2.49087 2.08293 0
M  V30 8320 H 773.737 -0.441513 5.16015 0
M  V30 8321 H 770.414 -2.36549 3.44022 0
M  V30 8322 H 771.804 -0.00237941 6.719 0
M  V30 8323 N 774.524 -1.57472 -0.0634922 0
M  V30 8324 C 775.454 -2.07297 -1.07473 0
M  V30 8325 C 776.435 -0.968162 -1.39859 0
M  V30 8326 O 777.62 -1.24139 -1.49343 0
M  V30 8327 C 774.75 -2.52381 -2.38581 0
M  V30 8328 C 773.704 -3.66813 -2.20526 0
M  V30 8329 C 773.03 -3.97982 -3.57092 0
M  V30 8330 C 774.33 -4.96553 -1.61965 0
M  V30 8331 H 776.024 -2.92033 -0.660092 0
M  V30 8332 H 773.57 -1.40488 -0.316074 0
M  V30 8333 H 775.523 -2.85852 -3.09624 0
M  V30 8334 H 774.247 -1.64684 -2.8204 0
M  V30 8335 H 772.906 -3.33639 -1.51924 0
M  V30 8336 H 772.554 -3.07403 -3.98136 0
M  V30 8337 H 772.254 -4.7504 -3.45848 0
M  V30 8338 H 773.778 -4.33956 -4.29552 0
M  V30 8339 H 775.192 -5.28201 -2.22883 0
M  V30 8340 H 773.589 -5.7799 -1.61394 0
M  V30 8341 H 774.659 -4.81396 -0.581918 0
M  V30 8342 N 776.003 0.335068 -1.53997 0
M  V30 8343 C 777.228 1.09859 -1.75914 0
M  V30 8344 C 777.653 1.81308 -0.500915 0
M  V30 8345 O 777.011 1.72854 0.54693 0
M  V30 8346 C 777.059 2.08122 -2.94478 0
M  V30 8347 O 776.163 3.15805 -2.65219 0
M  V30 8348 H 775.504 0.317313 -0.583274 0
M  V30 8349 H 778.034 0.382872 -2.00986 0
M  V30 8350 H 778.044 2.51195 -3.21504 0
M  V30 8351 H 776.719 1.55517 -3.8573 0
M  V30 8352 H 775.296 2.77489 -2.49107 0
M  V30 8353 N 777.481 1.45874 0.596531 0
M  V30 8354 C 778.728 1.50467 1.35521 0
M  V30 8355 C 779.056 0.150802 1.93915 0
M  V30 8356 O 778.311 -0.851913 1.76184 0
M  V30 8357 C 778.61 2.54034 2.51399 0
M  V30 8358 C 778.276 3.9844 2.11085 0
M  V30 8359 C 776.938 4.37758 1.99804 0
M  V30 8360 C 779.29 4.89209 1.79788 0
M  V30 8361 C 776.618 5.65727 1.55465 0
M  V30 8362 C 778.97 6.17602 1.36931 0
M  V30 8363 C 777.634 6.5584 1.24218 0
M  V30 8364 H 776.904 0.550597 0.495907 0
M  V30 8365 H 779.551 1.79279 0.673145 0
M  V30 8366 H 777.856 2.18832 3.24992 0
M  V30 8367 H 779.553 2.54822 3.09624 0
M  V30 8368 H 776.143 3.67353 2.20794 0
M  V30 8369 H 780.327 4.59562 1.87395 0
M  V30 8370 H 775.583 5.94139 1.44253 0
M  V30 8371 H 779.757 6.87373 1.11764 0
M  V30 8372 H 777.384 7.54897 0.896353 0
M  V30 8373 N 778.959 -0.83999 1.33349 0
M  V30 8374 C 780.187 -1.62728 1.27778 0
M  V30 8375 C 780.602 -1.88191 -0.151505 0
M  V30 8376 O 779.959 -1.46128 -1.09329 0
M  V30 8377 C 780.01 -2.97813 2.04913 0
M  V30 8378 O 779.731 -2.73469 3.42266 0
M  V30 8379 C 781.232 -3.92245 2.0654 0
M  V30 8380 H 778.452 -0.506374 0.440257 0
M  V30 8381 H 780.996 -1.04637 1.75703 0
M  V30 8382 H 779.151 -3.52509 1.60674 0
M  V30 8383 H 779.565 -3.59483 3.81932 0
M  V30 8384 H 781.039 -4.84249 2.64966 0
M  V30 8385 H 781.516 -4.26332 1.05537 0
M  V30 8386 H 782.122 -3.43487 2.50793 0
M  V30 8387 N 780.437 -1.16799 -1.0581 0
M  V30 8388 C 781.683 -0.953935 -1.78963 0
M  V30 8389 C 782.016 0.516638 -1.87202 0
M  V30 8390 O 781.291 1.38338 -1.36721 0
M  V30 8391 C 781.574 -1.58808 -3.23191 0
M  V30 8392 C 781.427 -3.13032 -3.23003 0
M  V30 8393 C 782.746 -1.2868 -4.20867 0
M  V30 8394 H 779.865 -0.347972 -0.64968 0
M  V30 8395 H 782.507 -1.44204 -1.23715 0
M  V30 8396 H 780.657 -1.17303 -3.70368 0
M  V30 8397 H 782.329 -3.63553 -2.83949 0
M  V30 8398 H 780.572 -3.46108 -2.61518 0
M  V30 8399 H 781.243 -3.52527 -4.24769 0
M  V30 8400 H 783.719 -1.6461 -3.82155 0
M  V30 8401 H 782.595 -1.75645 -5.20038 0
M  V30 8402 H 782.856 -0.206491 -4.41618 0
M  V30 8403 N 781.915 1.24427 -0.967243 0
M  V30 8404 C 783.145 1.96256 -0.64554 0
M  V30 8405 C 783.553 1.71959 0.789098 0
M  V30 8406 O 782.896 0.999913 1.54102 0
M  V30 8407 C 782.958 3.49553 -0.839798 0
M  V30 8408 C 782.622 3.97548 -2.25399 0
M  V30 8409 C 783.619 4.07257 -3.23168 0
M  V30 8410 C 781.304 4.30884 -2.58156 0
M  V30 8411 C 783.298 4.49635 -4.51782 0
M  V30 8412 C 780.985 4.72946 -3.86996 0
M  V30 8413 C 781.983 4.82286 -4.83621 0
M  V30 8414 O 781.671 5.23409 -6.10162 0
M  V30 8415 H 781.403 0.632002 -0.239895 0
M  V30 8416 H 783.957 1.59224 -1.29757 0
M  V30 8417 H 782.187 3.86479 -0.130603 0
M  V30 8418 H 783.876 4.02591 -0.517249 0
M  V30 8419 H 784.642 3.8172 -2.9919 0
M  V30 8420 H 780.521 4.22833 -1.83666 0
M  V30 8421 H 784.065 4.5684 -5.27203 0
M  V30 8422 H 779.962 4.9793 -4.10775 0
M  V30 8423 H 780.73 5.4156 -6.13722 0
M  V30 8424 N 783.393 0.737304 1.3929 0
M  V30 8425 C 784.356 0.10731 2.28949 0
M  V30 8426 C 785.356 -0.664716 1.46418 0
M  V30 8427 O 786.546 -0.493392 1.67067 0
M  V30 8428 C 783.678 -0.857145 3.29948 0
M  V30 8429 H 784.871 0.89725 2.86163 0
M  V30 8430 H 782.424 0.503279 1.47976 0
M  V30 8431 H 783.159 -1.67336 2.77794 0
M  V30 8432 H 782.944 -0.306167 3.90903 0
M  V30 8433 H 784.434 -1.29444 3.97031 0
M  V30 8434 N 784.871 -1.49948 0.485112 0
M  V30 8435 C 785.834 -2.27351 -0.290546 0
M  V30 8436 C 786.834 -1.32704 -0.908087 0
M  V30 8437 O 788.024 -1.56007 -0.775085 0
M  V30 8438 C 785.156 -3.10135 -1.41524 0
M  V30 8439 H 786.349 -2.97374 0.388454 0
M  V30 8440 H 783.902 -1.54453 0.239586 0
M  V30 8441 H 784.637 -2.44641 -2.12888 0
M  V30 8442 H 784.422 -3.79705 -0.978074 0
M  V30 8443 H 785.912 -3.68638 -1.96204 0
M  V30 8444 N 786.349 -0.21828 -1.56081 0
M  V30 8445 C 787.299 0.706492 -2.16778 0
M  V30 8446 C 788.283 1.15987 -1.11516 0
M  V30 8447 O 789.475 1.11441 -1.37513 0
M  V30 8448 C 786.604 1.91583 -2.8487 0
M  V30 8449 C 785.69 1.48228 -3.97353 0
M  V30 8450 N 786.081 0.761113 -5.00041 0
M  V30 8451 C 784.379 1.76982 -4.09382 0
M  V30 8452 C 785.08 0.540496 -5.79184 0
M  V30 8453 N 784.056 1.09622 -5.32432 0
M  V30 8454 H 787.858 0.147038 -2.93532 0
M  V30 8455 H 785.372 -0.0194049 -1.62388 0
M  V30 8456 H 787.369 2.58906 -3.26762 0
M  V30 8457 H 786.029 2.47979 -2.09611 0
M  V30 8458 H 787.04 0.414141 -5.16241 0
M  V30 8459 H 783.717 2.34721 -3.45271 0
M  V30 8460 H 785.107 -0.0332531 -6.71892 0
M  V30 8461 N 787.827 1.57504 0.0551401 0
M  V30 8462 C 788.775 2.05884 1.08233 0
M  V30 8463 C 789.769 0.967383 1.39061 0
M  V30 8464 O 790.975 1.15242 1.38273 0
M  V30 8465 H 787.35 0.656673 0.366449 0
M  V30 8466 H 789.321 2.91273 0.648269 0
M  V30 8467 C 788.07 2.53221 2.38273 0
M  V30 8468 H 787.393 3.36809 2.15406 0
M  V30 8469 H 788.833 2.9081 3.08554 0
M  V30 8470 C 787.292 1.42218 3.05411 0
M  V30 8471 O 787.822 0.773638 3.9418 0
M  V30 8472 N 786.028 1.16316 2.66306 0
M  V30 8473 H 785.575 1.69237 1.94207 0
M  V30 8474 H 785.533 0.422534 3.11548 0
M  V30 8475 N 789.305 -0.326896 1.54172 0
M  V30 8476 C 790.554 -1.06274 1.71431 0
M  V30 8477 C 790.867 -1.89282 0.493123 0
M  V30 8478 O 792.073 -2.65933 0.54699 0
M  V30 8479 C 790.529 -1.93892 3.03206 0
M  V30 8480 C 790.137 -1.16011 4.32719 0
M  V30 8481 C 791.881 -2.67232 3.29829 0
M  V30 8482 C 789.788 -2.02755 5.55558 0
M  V30 8483 H 788.718 -0.400475 0.638855 0
M  V30 8484 H 791.369 -0.321184 1.80667 0
M  V30 8485 H 789.751 -2.71933 2.87869 0
M  V30 8486 H 790.925 -0.427643 4.58811 0
M  V30 8487 H 789.24 -0.54367 4.12836 0
M  V30 8488 H 791.837 -3.32434 4.18798 0
M  V30 8489 H 792.18 -3.34692 2.47562 0
M  V30 8490 H 792.713 -1.96255 3.46018 0
M  V30 8491 H 789.452 -1.3981 6.40417 0
M  V30 8492 H 788.972 -2.73745 5.33689 0
M  V30 8493 H 790.651 -2.61419 5.91835 0
M  V30 8494 N 790.784 -1.46188 -0.588786 0
M  V30 8495 C 792.195 -1.45421 -1.17088 0
M  V30 8496 C 792.546 -0.191801 -1.9526 0
M  V30 8497 O 791.671 0.705497 -2.04577 0
M  V30 8498 C 792.266 -2.63467 -2.13004 0
M  V30 8499 C 790.825 -2.6576 -2.6655 0
M  V30 8500 C 789.972 -2.38002 -1.42304 0
M  V30 8501 H 792.923 -1.54156 -0.377052 0
M  V30 8502 H 792.944 -2.38638 -2.96365 0
M  V30 8503 H 792.456 -3.55331 -1.56081 0
M  V30 8504 H 790.557 -1.77952 -3.27359 0
M  V30 8505 H 790.67 -3.65545 -3.09699 0
M  V30 8506 H 789.034 -1.87936 -1.71907 0
M  V30 8507 H 789.817 -3.32035 -0.872209 0
M  V30 8508 N 792.262 0.832906 -1.33792 0
M  V30 8509 C 793.172 1.97514 -1.26592 0
M  V30 8510 C 794.188 1.73114 -0.175391 0
M  V30 8511 O 795.364 1.97387 -0.400062 0
M  V30 8512 C 792.429 3.31625 -1.01121 0
M  V30 8513 C 791.49 3.69101 -2.19233 0
M  V30 8514 C 790.723 4.96813 -1.94968 0
M  V30 8515 O 790.946 5.63208 -0.902955 0
M  V30 8516 O 789.88 5.31932 -2.8166 0
M  V30 8517 H 793.706 2.0653 -2.22664 0
M  V30 8518 H 791.291 0.966826 -1.13898 0
M  V30 8519 H 793.173 4.11968 -0.886571 0
M  V30 8520 H 791.848 3.23599 -0.080822 0
M  V30 8521 H 790.755 2.89243 -2.37253 0
M  V30 8522 H 792.088 3.818 -3.10628 0
M  V30 8523 N 793.74 1.17359 1.05189 0
M  V30 8524 C 794.968 0.986529 1.81866 0
M  V30 8525 C 795.383 -0.46522 1.82979 0
M  V30 8526 O 794.74 -1.32305 1.25705 0
M  V30 8527 C 794.791 1.52021 3.27982 0
M  V30 8528 O 794.512 2.91511 3.27037 0
M  V30 8529 C 796.013 1.37774 4.21347 0
M  V30 8530 H 793.233 0.349021 0.573084 0
M  V30 8531 H 795.777 1.55648 1.32643 0
M  V30 8532 H 793.932 0.992287 3.74476 0
M  V30 8533 H 794.346 3.16178 4.18488 0
M  V30 8534 H 795.82 1.7993 5.21852 0
M  V30 8535 H 796.297 0.32483 4.37997 0
M  V30 8536 H 796.903 1.89583 3.80708 0
M  V30 8537 N 795.218 -1.23913 0.973828 0
M  V30 8538 C 796.464 -1.92747 0.649635 0
M  V30 8539 C 796.819 -1.7465 -0.807157 0
M  V30 8540 O 796.112 -1.09271 -1.57386 0
M  V30 8541 C 796.306 -3.4406 0.967356 0
M  V30 8542 C 796.135 -3.76874 2.45348 0
M  V30 8543 C 794.905 -3.97915 3.11435 0
M  V30 8544 C 797.103 -3.82871 3.43386 0
M  V30 8545 N 795.085 -4.1788 4.49722 0
M  V30 8546 C 796.456 -4.07751 4.67053 0
M  V30 8547 C 798.511 -3.65634 3.37958 0
M  V30 8548 C 797.214 -4.17185 5.8596 0
M  V30 8549 C 799.24 -3.76317 4.56223 0
M  V30 8550 C 798.602 -4.01628 5.78683 0
M  V30 8551 H 794.701 -0.72677 0.288667 0
M  V30 8552 H 797.285 -1.4928 1.24994 0
M  V30 8553 H 795.456 -3.86378 0.395804 0
M  V30 8554 H 797.188 -4.00211 0.601108 0
M  V30 8555 H 793.943 -3.94562 2.61949 0
M  V30 8556 H 794.367 -4.31829 5.21395 0
M  V30 8557 H 799.009 -3.45067 2.44312 0
M  V30 8558 H 796.727 -4.36562 6.80029 0
M  V30 8559 H 800.313 -3.64343 4.53592 0
M  V30 8560 H 799.193 -4.09699 6.68667 0
M  V30 8561 N 796.696 -0.74468 -1.38897 0
M  V30 8562 C 797.942 -0.297324 -2.00609 0
M  V30 8563 C 798.275 1.11547 -1.58968 0
M  V30 8564 O 797.55 1.76227 -0.823057 0
M  V30 8565 C 797.833 -0.410125 -3.57757 0
M  V30 8566 C 797.686 -1.86338 -4.09387 0
M  V30 8567 C 799.005 0.20176 -4.39637 0
M  V30 8568 H 796.124 -0.109509 -0.728819 0
M  V30 8569 H 798.766 -0.942653 -1.64967 0
M  V30 8570 H 796.916 0.139287 -3.8825 0
M  V30 8571 H 798.588 -2.47042 -3.89574 0
M  V30 8572 H 796.831 -2.38146 -3.62586 0
M  V30 8573 H 797.502 -1.89352 -5.18507 0
M  V30 8574 H 799.978 -0.266703 -4.15244 0
M  V30 8575 H 798.854 0.0925415 -5.48822 0
M  V30 8576 H 799.115 1.289 -4.22891 0
M  V30 8577 N 798.174 1.49689 -0.493057 0
M  V30 8578 C 799.124 2.25901 0.308682 0
M  V30 8579 C 800.108 1.30408 0.94247 0
M  V30 8580 O 801.3 1.55179 0.851384 0
M  V30 8581 C 798.429 3.14463 1.37725 0
M  V30 8582 C 797.515 4.17414 0.7501 0
M  V30 8583 N 797.906 5.05599 -0.142597 0
M  V30 8584 C 796.204 4.34377 1.01159 0
M  V30 8585 C 796.905 5.7954 -0.500782 0
M  V30 8586 N 795.881 5.43446 0.129386 0
M  V30 8587 H 799.683 2.91451 -0.378652 0
M  V30 8588 H 797.197 1.59441 -0.308614 0
M  V30 8589 H 799.194 3.67687 1.965 0
M  V30 8590 H 797.854 2.50464 2.06635 0
M  V30 8591 H 798.865 5.15354 -0.512894 0
M  V30 8592 H 795.542 3.81588 1.69402 0
M  V30 8593 H 796.932 6.60534 -1.23063 0
M  V30 8594 N 799.652 0.226554 1.55963 0
M  V30 8595 C 801.068 -0.128733 1.5908 0
M  V30 8596 C 801.268 -1.58558 1.24345 0
M  V30 8597 O 800.324 -2.32661 0.981069 0
M  V30 8598 C 801.637 0.202076 3.0002 0
M  V30 8599 C 803.185 0.144718 3.12665 0
M  V30 8600 C 803.66 0.449272 4.55791 0
M  V30 8601 N 805.151 0.399026 4.61478 0
M  V30 8602 C 805.886 0.608106 5.70166 0
M  V30 8603 N 805.382 0.879227 6.87198 0
M  V30 8604 N 807.175 0.5402 5.59498 0
M  V30 8605 H 799.326 1.17686 1.76816 0
M  V30 8606 H 801.589 0.472072 0.822102 0
M  V30 8607 H 801.295 1.21341 3.30105 0
M  V30 8608 H 801.169 -0.480554 3.74126 0
M  V30 8609 H 803.556 -0.857261 2.82374 0
M  V30 8610 H 803.637 0.860899 2.40878 0
M  V30 8611 H 803.281 1.44871 4.86801 0
M  V30 8612 H 803.211 -0.288157 5.25811 0
M  V30 8613 H 805.702 0.197372 3.77384 0
M  V30 8614 H 806.015 1.02673 7.65949 0
M  V30 8615 H 804.36 0.916477 6.88931 0
M  V30 8616 H 807.551 0.328581 4.66945 0
M  V30 8617 H 807.724 0.706548 6.44137 0
M  V30 8618 N 801.13 -1.57531 -0.0467866 0
M  V30 8619 C 802.379 -1.87632 -0.740069 0
M  V30 8620 C 802.692 -0.822691 -1.77457 0
M  V30 8621 O 803.898 -1.01235 -2.5192 0
M  V30 8622 C 802.354 -3.32917 -1.36727 0
M  V30 8623 C 801.962 -4.46469 -0.370035 0
M  V30 8624 C 803.706 -3.72189 -2.04146 0
M  V30 8625 C 801.613 -5.82806 -1.00457 0
M  V30 8626 H 800.543 -0.70002 -0.280158 0
M  V30 8627 H 803.194 -1.83499 0.00607151 0
M  V30 8628 H 801.576 -3.31739 -2.16252 0
M  V30 8629 H 802.75 -4.59085 0.397217 0
M  V30 8630 H 801.065 -4.15914 0.201079 0
M  V30 8631 H 803.662 -4.71357 -2.52441 0
M  V30 8632 H 804.005 -3.03268 -2.85192 0
M  V30 8633 H 804.538 -3.75465 -1.3142 0
M  V30 8634 H 801.277 -6.55083 -0.233907 0
M  V30 8635 H 800.797 -5.73944 -1.74209 0
M  V30 8636 H 802.476 -6.28961 -1.51713 0
M  V30 8637 N 802.608 0.318715 -1.54344 0
M  V30 8638 C 803.556 1.41254 -1.84798 0
M  V30 8639 C 804.55 1.53325 -0.720256 0
M  V30 8640 O 805.756 1.55653 -0.903992 0
M  V30 8641 H 802.131 0.471468 -0.585851 0
M  V30 8642 H 804.102 1.12795 -2.7626 0
M  V30 8643 C 802.851 2.77395 -2.09637 0
M  V30 8644 H 802.174 2.68881 -2.95876 0
M  V30 8645 H 803.614 3.52987 -2.34896 0
M  V30 8646 C 802.073 3.24948 -0.889398 0
M  V30 8647 O 802.603 4.01573 -0.101063 0
M  V30 8648 N 800.809 2.82051 -0.699684 0
M  V30 8649 H 800.356 2.19858 -1.3424 0
M  V30 8650 H 800.314 3.1422 0.106368 0
M  V30 8651 N 804.086 1.46499 0.581025 0
M  V30 8652 C 805.333 1.51896 1.33918 0
M  V30 8653 C 805.661 0.171361 1.93744 0
M  V30 8654 O 804.916 -0.833178 1.77078 0
M  V30 8655 C 805.215 2.56686 2.48691 0
M  V30 8656 C 804.881 4.00656 2.06847 0
M  V30 8657 C 803.543 4.39852 1.9515 0
M  V30 8658 C 805.895 4.91089 1.74589 0
M  V30 8659 C 803.223 5.67345 1.49456 0
M  V30 8660 C 805.575 6.1902 1.30373 0
M  V30 8661 C 804.239 6.57121 1.17255 0
M  V30 8662 H 803.509 0.555826 0.490039 0
M  V30 8663 H 806.156 1.79983 0.654092 0
M  V30 8664 H 804.461 2.22266 3.22653 0
M  V30 8665 H 806.158 2.58091 3.06904 0
M  V30 8666 H 802.748 3.69674 2.16886 0
M  V30 8667 H 806.932 4.61523 1.8251 0
M  V30 8668 H 802.188 5.95635 1.37944 0
M  V30 8669 H 806.362 6.8852 1.04467 0
M  V30 8670 H 803.989 7.55805 0.816236 0
M  V30 8671 N 805.565 -0.825799 1.34232 0
M  V30 8672 C 806.976 -1.39835 1.23706 0
M  V30 8673 C 807.327 -1.95709 -0.138649 0
M  V30 8674 O 806.452 -1.89833 -1.03886 0
M  V30 8675 C 807.047 -2.54203 2.23978 0
M  V30 8676 C 805.606 -3.07374 2.17251 0
M  V30 8677 C 804.753 -1.80232 2.10741 0
M  V30 8678 H 807.704 -0.630442 1.4564 0
M  V30 8679 H 807.725 -3.32214 1.8551 0
M  V30 8680 H 807.237 -2.13506 3.24094 0
M  V30 8681 H 805.338 -3.52583 1.20483 0
M  V30 8682 H 805.451 -3.6666 3.08379 0
M  V30 8683 H 803.815 -2.01012 1.56417 0
M  V30 8684 H 804.598 -1.41713 3.12686 0
M  V30 8685 N 807.043 -1.17915 -1.04565 0
M  V30 8686 C 807.973 -0.925033 -2.14395 0
M  V30 8687 C 808.954 0.135375 -1.6956 0
M  V30 8688 O 810.139 -0.0161774 -1.94193 0
M  V30 8689 C 807.269 -0.444469 -3.44444 0
M  V30 8690 C 806.223 -1.44478 -4.02877 0
M  V30 8691 C 805.549 -0.821933 -5.28345 0
M  V30 8692 C 806.849 -2.81995 -4.39632 0
M  V30 8693 H 808.543 -1.84354 -2.35911 0
M  V30 8694 H 806.089 -0.887806 -1.13375 0
M  V30 8695 H 808.042 -0.254078 -4.20633 0
M  V30 8696 H 806.766 0.509592 -3.226 0
M  V30 8697 H 805.425 -1.62203 -3.28764 0
M  V30 8698 H 805.073 0.139161 -5.02807 0
M  V30 8699 H 804.773 -1.48976 -5.68401 0
M  V30 8700 H 806.297 -0.641959 -6.07216 0
M  V30 8701 H 807.711 -2.67952 -5.06828 0
M  V30 8702 H 806.108 -3.45414 -4.90723 0
M  V30 8703 H 807.178 -3.35927 -3.49687 0
M  V30 8704 N 808.521 1.23394 -0.980386 0
M  V30 8705 C 809.431 2.28561 -0.528864 0
M  V30 8706 C 810.447 1.68946 0.416329 0
M  V30 8707 O 811.623 1.99355 0.286251 0
M  V30 8708 C 808.688 3.46323 0.16155 0
M  V30 8709 C 807.749 4.21297 -0.825044 0
M  V30 8710 C 806.982 5.33437 -0.167483 0
M  V30 8711 O 807.205 5.60812 1.04146 0
M  V30 8712 O 806.139 5.95637 -0.866047 0
M  V30 8713 H 809.965 2.69326 -1.40346 0
M  V30 8714 H 807.55 1.29325 -0.748019 0
M  V30 8715 H 809.432 4.17811 0.548841 0
M  V30 8716 H 808.107 3.0751 1.01092 0
M  V30 8717 H 807.014 3.52134 -1.26303 0
M  V30 8718 H 808.347 4.6396 -1.64322 0
M  V30 8719 N 809.999 0.752036 1.385 0
M  V30 8720 C 811.248 0.304294 1.99391 0
M  V30 8721 C 811.561 -1.11982 1.60373 0
M  V30 8722 O 812.767 -1.66795 2.14223 0
M  V30 8723 C 811.223 0.493101 3.56506 0
M  V30 8724 C 810.831 1.9262 4.04477 0
M  V30 8725 C 812.575 0.107994 4.24363 0
M  V30 8726 C 810.482 2.06365 5.54227 0
M  V30 8727 H 809.412 0.110024 0.745929 0
M  V30 8728 H 812.063 0.928355 1.58284 0
M  V30 8729 H 810.445 -0.20012 3.95494 0
M  V30 8730 H 811.619 2.65276 3.76783 0
M  V30 8731 H 809.934 2.26608 3.49339 0
M  V30 8732 H 812.531 0.189474 5.34364 0
M  V30 8733 H 812.874 -0.939165 4.05568 0
M  V30 8734 H 813.407 0.753011 3.90608 0
M  V30 8735 H 810.146 3.0933 5.77923 0
M  V30 8736 H 809.666 1.38167 5.83669 0
M  V30 8737 H 811.345 1.85286 6.19902 0
M  V30 8738 N 811.477 -1.49425 0.500989 0
M  V30 8739 C 812.424 -2.29126 -0.277443 0
M  V30 8740 C 813.394 -1.35522 -0.960363 0
M  V30 8741 O 814.579 -1.64479 -0.967027 0
M  V30 8742 C 811.719 -3.18193 -1.33593 0
M  V30 8743 C 810.832 -4.26854 -0.664791 0
M  V30 8744 C 809.967 -5.03137 -1.70372 0
M  V30 8745 C 809.006 -6.03635 -1.01445 0
M  V30 8746 N 808.143 -6.73083 -1.99758 0
M  V30 8747 H 812.983 -2.95187 0.408458 0
M  V30 8748 H 810.52 -1.45546 0.213275 0
M  V30 8749 H 812.478 -3.68207 -1.96161 0
M  V30 8750 H 811.108 -2.54116 -1.9906 0
M  V30 8751 H 810.16 -3.80328 0.0741708 0
M  V30 8752 H 811.472 -4.9865 -0.122197 0
M  V30 8753 H 810.626 -5.5702 -2.40445 0
M  V30 8754 H 809.365 -4.31114 -2.28017 0
M  V30 8755 H 808.37 -5.48984 -0.299496 0
M  V30 8756 H 809.595 -6.77644 -0.444497 0
M  V30 8757 H 807.541 -6.03832 -2.56365 0
M  V30 8758 H 807.458 -7.40855 -1.50565 0
M  V30 8759 H 808.726 -7.3157 -2.69119 0
M  V30 8760 N 812.955 -0.234822 -1.55841 0
M  V30 8761 C 814.18 0.400741 -2.03492 0
M  V30 8762 C 814.605 1.51618 -1.11327 0
M  V30 8763 O 813.963 1.81002 -0.103922 0
M  V30 8764 C 814.011 0.897184 -3.49261 0
M  V30 8765 O 813.115 2.00764 -3.60233 0
M  V30 8766 H 812.456 0.0890023 -0.658008 0
M  V30 8767 H 814.986 -0.357345 -2.01455 0
M  V30 8768 H 814.996 1.20356 -3.89844 0
M  V30 8769 H 813.671 0.0808639 -4.15821 0
M  V30 8770 H 812.248 1.70689 -3.31541 0
M  V30 8771 N 814.433 1.57553 0.0384317 0
M  V30 8772 C 815.363 2.0898 1.04161 0
M  V30 8773 C 816.344 0.99029 1.38301 0
M  V30 8774 O 817.529 1.26499 1.47349 0
M  V30 8775 C 814.659 2.56145 2.34536 0
M  V30 8776 C 813.613 3.70275 2.14663 0
M  V30 8777 C 812.939 4.03612 3.50715 0
M  V30 8778 C 814.239 4.99067 1.54045 0
M  V30 8779 H 815.933 2.93046 0.613548 0
M  V30 8780 H 813.479 1.40973 0.293684 0
M  V30 8781 H 815.432 2.90741 3.05037 0
M  V30 8782 H 814.156 1.6915 2.79385 0
M  V30 8783 H 812.815 3.36013 1.46597 0
M  V30 8784 H 812.463 3.13698 3.93195 0
M  V30 8785 H 812.163 4.80482 3.38247 0
M  V30 8786 H 813.687 4.40735 4.22593 0
M  V30 8787 H 815.101 5.3168 2.14451 0
M  V30 8788 H 813.498 5.80484 1.52178 0
M  V30 8789 H 814.568 4.8226 0.505259 0
M  V30 8790 N 815.911 -0.310526 1.54511 0
M  V30 8791 C 817.322 -0.884142 1.64438 0
M  V30 8792 C 817.673 -1.88425 0.546855 0
M  V30 8793 O 816.798 -2.14049 -0.31811 0
M  V30 8794 C 817.393 -1.6104 2.9808 0
M  V30 8795 C 815.952 -2.13255 3.1016 0
M  V30 8796 C 815.099 -0.96213 2.60074 0
M  V30 8797 H 818.05 -0.0877666 1.58457 0
M  V30 8798 H 818.071 -2.47541 2.8897 0
M  V30 8799 H 817.583 -0.882255 3.77939 0
M  V30 8800 H 815.684 -2.89145 2.35002 0
M  V30 8801 H 815.797 -2.37361 4.16169 0
M  V30 8802 H 814.161 -1.34501 2.16291 0
M  V30 8803 H 814.944 -0.248098 3.42402 0
M  V30 8804 N 817.389 -1.46805 -0.573248 0
M  V30 8805 C 818.805 -1.31969 -0.897577 0
M  V30 8806 C 819.005 -0.298171 -1.99282 0
M  V30 8807 O 818.061 0.295953 -2.5076 0
M  V30 8808 C 819.374 -2.70859 -1.30598 0
M  V30 8809 C 820.922 -2.79022 -1.4183 0
M  V30 8810 C 821.397 -4.18516 -1.86033 0
M  V30 8811 N 822.888 -4.2098 -1.9321 0
M  V30 8812 C 823.623 -5.25814 -2.28707 0
M  V30 8813 N 823.119 -6.40968 -2.6293 0
M  V30 8814 N 824.912 -5.13184 -2.29343 0
M  V30 8815 H 817.063 -2.11869 0.150094 0
M  V30 8816 H 819.326 -0.947989 0.00447895 0
M  V30 8817 H 819.032 -3.46965 -0.575161 0
M  V30 8818 H 818.906 -3.01585 -2.26554 0
M  V30 8819 H 821.293 -2.03198 -2.13996 0
M  V30 8820 H 821.374 -2.51969 -0.441024 0
M  V30 8821 H 821.018 -4.94839 -1.14442 0
M  V30 8822 H 820.948 -4.42982 -2.84735 0
M  V30 8823 H 823.439 -3.37898 -1.69214 0
M  V30 8824 H 823.752 -7.16729 -2.88996 0
M  V30 8825 H 822.097 -6.44314 -2.60547 0
M  V30 8826 H 825.288 -4.22255 -2.02036 0
M  V30 8827 H 825.461 -5.94996 -2.56679 0
M  V30 8828 N 818.867 0.818669 -1.34668 0
M  V30 8829 C 819.777 1.9616 -1.2868 0
M  V30 8830 C 820.793 1.72918 -0.193742 0
M  V30 8831 O 821.969 1.96951 -0.420975 0
M  V30 8832 C 819.034 3.30534 -1.04633 0
M  V30 8833 C 818.095 3.66755 -2.23136 0
M  V30 8834 C 817.328 4.94717 -2.00227 0
M  V30 8835 O 817.551 5.62218 -0.96264 0
M  V30 8836 O 816.485 5.28915 -2.87286 0
M  V30 8837 H 820.311 2.04157 -2.24842 0
M  V30 8838 H 817.896 0.954691 -1.14917 0
M  V30 8839 H 819.778 4.11005 -0.930216 0
M  V30 8840 H 818.453 3.23495 -0.115139 0
M  V30 8841 H 817.36 2.8671 -2.40308 0
M  V30 8842 H 818.693 3.78484 -3.1466 0
M  V30 8843 N 820.346 1.18468 1.03938 0
M  V30 8844 C 821.571 1.00638 1.81347 0
M  V30 8845 C 821.996 -0.440477 1.8287 0
M  V30 8846 O 821.354 -1.31609 1.24695 0
M  V30 8847 C 821.402 1.5673 3.24759 0
M  V30 8848 O 820.506 0.789517 4.04772 0
M  V30 8849 H 819.847 0.356432 0.560225 0
M  V30 8850 H 822.377 1.57253 1.30891 0
M  V30 8851 H 822.387 1.59496 3.75533 0
M  V30 8852 H 821.062 2.62043 3.22965 0
M  V30 8853 H 819.639 0.834267 3.63448 0
M  V30 8854 N 821.824 -1.22873 0.986916 0
M  V30 8855 C 822.757 -2.23154 0.477245 0
M  V30 8856 C 823.735 -1.55981 -0.459206 0
M  V30 8857 O 824.919 -1.84503 -0.386141 0
M  V30 8858 C 822.046 -3.37289 -0.308838 0
M  V30 8859 C 821.092 -4.22637 0.572717 0
M  V30 8860 S 821.925 -4.95758 2.02446 0
M  V30 8861 C 823.081 -6.13338 1.2477 0
M  V30 8862 H 823.314 -2.6604 1.32702 0
M  V30 8863 H 820.847 -1.32455 0.793415 0
M  V30 8864 H 822.805 -4.03472 -0.756351 0
M  V30 8865 H 821.466 -2.92922 -1.13381 0
M  V30 8866 H 820.659 -5.0399 -0.0318024 0
M  V30 8867 H 820.261 -3.61555 0.956746 0
M  V30 8868 H 822.553 -6.7556 0.51231 0
M  V30 8869 H 823.496 -6.78189 2.03629 0
M  V30 8870 H 823.904 -5.59311 0.763622 0
M  V30 8871 N 823.302 -0.75937 -1.38099 0
M  V30 8872 C 824.232 -0.151077 -2.33011 0
M  V30 8873 C 825.213 0.697099 -1.5516 0
M  V30 8874 O 826.398 0.637101 -1.83452 0
M  V30 8875 C 823.528 0.738423 -3.39359 0
M  V30 8876 C 822.482 -0.0074741 -4.27999 0
M  V30 8877 C 821.808 1.00066 -5.25253 0
M  V30 8878 C 823.108 -1.17926 -5.08813 0
M  V30 8879 H 824.802 -0.943933 -2.84131 0
M  V30 8880 H 822.348 -0.455362 -1.36611 0
M  V30 8881 H 824.301 1.17369 -4.04725 0
M  V30 8882 H 823.025 1.56366 -2.86735 0
M  V30 8883 H 821.684 -0.423379 -3.64147 0
M  V30 8884 H 821.332 1.82012 -4.68914 0
M  V30 8885 H 821.032 0.506199 -5.85416 0
M  V30 8886 H 822.556 1.43512 -5.93495 0
M  V30 8887 H 823.97 -0.821262 -5.67387 0
M  V30 8888 H 822.367 -1.60497 -5.78239 0
M  V30 8889 H 823.437 -1.98938 -4.42212 0
M  V30 8890 N 824.78 1.49157 -0.508906 0
M  V30 8891 C 826.008 2.06879 0.0293734 0
M  V30 8892 C 826.423 1.36823 1.30095 0
M  V30 8893 O 825.78 0.449034 1.7689 0
M  V30 8894 C 825.831 3.60423 0.278791 0
M  V30 8895 O 825.552 4.27844 -0.942389 0
M  V30 8896 C 827.053 4.34881 0.859825 0
M  V30 8897 H 824.273 0.67057 -0.0240184 0
M  V30 8898 H 826.817 1.91834 -0.708526 0
M  V30 8899 H 824.972 3.75145 0.966689 0
M  V30 8900 H 825.386 5.19671 -0.710097 0
M  V30 8901 H 826.86 5.43161 0.983884 0
M  V30 8902 H 827.337 3.9789 1.85958 0
M  V30 8903 H 827.943 4.24785 0.209152 0
M  V30 8904 N 826.258 0.243083 1.55714 0
M  V30 8905 C 827.504 -0.383287 1.99145 0
M  V30 8906 C 827.837 -1.57868 1.13098 0
M  V30 8907 O 827.112 -1.93535 0.193509 0
M  V30 8908 C 827.395 -0.796879 3.51172 0
M  V30 8909 C 827.248 0.403642 4.47985 0
M  V30 8910 C 828.567 -1.64525 4.08191 0
M  V30 8911 H 825.686 -0.137843 0.723995 0
M  V30 8912 H 828.328 0.343631 1.86867 0
M  V30 8913 H 826.478 -1.41625 3.61766 0
M  V30 8914 H 828.15 1.04204 4.49376 0
M  V30 8915 H 826.393 1.04741 4.20965 0
M  V30 8916 H 827.064 0.0709794 5.51954 0
M  V30 8917 H 829.54 -1.12246 4.00674 0
M  V30 8918 H 828.416 -1.9035 5.14838 0
M  V30 8919 H 828.677 -2.61582 3.56409 0
M  V30 8920 N 827.736 -1.57571 -0.0300757 0
M  V30 8921 C 828.683 -2.06492 -1.03101 0
M  V30 8922 C 829.653 -0.953862 -1.3598 0
M  V30 8923 O 830.838 -1.22436 -1.46335 0
M  V30 8924 C 827.978 -2.54826 -2.32718 0
M  V30 8925 C 827.091 -3.79718 -2.06006 0
M  V30 8926 C 826.226 -4.16668 -3.29487 0
M  V30 8927 C 825.265 -5.3448 -2.98324 0
M  V30 8928 N 824.402 -5.66867 -4.14254 0
M  V30 8929 H 829.242 -2.91755 -0.606877 0
M  V30 8930 H 826.779 -1.44252 -0.288038 0
M  V30 8931 H 828.737 -2.80916 -3.08451 0
M  V30 8932 H 827.367 -1.72481 -2.72856 0
M  V30 8933 H 826.419 -3.60718 -1.20774 0
M  V30 8934 H 827.731 -4.65569 -1.79017 0
M  V30 8935 H 826.885 -4.43881 -4.13588 0
M  V30 8936 H 825.624 -3.29466 -3.59588 0
M  V30 8937 H 824.629 -5.07021 -2.12625 0
M  V30 8938 H 825.854 -6.23334 -2.69502 0
M  V30 8939 H 823.8 -4.82625 -4.44308 0
M  V30 8940 H 823.717 -6.47226 -3.90685 0
M  V30 8941 H 824.985 -5.98656 -4.99231 0
M  V30 8942 N 829.214 0.302327 -1.54673 0
M  V30 8943 C 830.144 1.37759 -1.88533 0
M  V30 8944 C 831.125 1.52961 -0.744113 0
M  V30 8945 O 832.31 1.6649 -0.999731 0
M  V30 8946 C 829.44 2.74201 -2.13146 0
M  V30 8947 C 828.394 2.73765 -3.28993 0
M  V30 8948 C 827.72 4.13483 -3.39022 0
M  V30 8949 C 829.02 2.35624 -4.66132 0
M  V30 8950 H 830.714 1.0967 -2.78591 0
M  V30 8951 H 828.26 0.52613 -1.34044 0
M  V30 8952 H 830.213 3.49508 -2.35419 0
M  V30 8953 H 828.937 3.03812 -1.19858 0
M  V30 8954 H 827.596 2.00914 -3.06642 0
M  V30 8955 H 827.244 4.40269 -2.43253 0
M  V30 8956 H 826.944 4.14093 -4.16894 0
M  V30 8957 H 828.468 4.90572 -3.63553 0
M  V30 8958 H 829.882 3.00647 -4.88143 0
M  V30 8959 H 828.279 2.47449 -5.46707 0
M  V30 8960 H 829.349 1.30753 -4.66939 0
M  V30 8961 N 830.692 1.47107 0.565454 0
M  V30 8962 C 831.939 1.53308 1.32299 0
M  V30 8963 C 832.267 0.1919 1.93551 0
M  V30 8964 O 831.522 -0.81435 1.77952 0
M  V30 8965 C 831.821 2.59309 2.45954 0
M  V30 8966 C 831.487 4.02827 2.02586 0
M  V30 8967 C 830.149 4.41897 1.90474 0
M  V30 8968 C 832.501 4.92913 1.6937 0
M  V30 8969 C 829.829 5.68898 1.4343 0
M  V30 8970 C 832.181 6.20368 1.238 0
M  V30 8971 C 830.845 6.58327 1.10278 0
M  V30 8972 H 830.115 0.560993 0.484116 0
M  V30 8973 H 832.762 1.80667 0.634965 0
M  V30 8974 H 831.067 2.25676 3.20277 0
M  V30 8975 H 832.764 2.61332 3.04149 0
M  V30 8976 H 829.354 3.71953 2.12952 0
M  V30 8977 H 833.538 4.63433 1.77605 0
M  V30 8978 H 828.794 5.97065 1.31618 0
M  V30 8979 H 832.968 6.89589 0.971586 0
M  V30 8980 H 830.595 7.56628 0.736027 0
M  V30 8981 N 832.17 -0.811516 1.35101 0
M  V30 8982 C 833.418 -1.56525 1.27845 0
M  V30 8983 C 833.739 -1.94435 -0.14829 0
M  V30 8984 O 833.009 -1.63203 -1.08359 0
M  V30 8985 H 831.589 -0.580433 0.47022 0
M  V30 8986 H 834.251 -0.968277 1.69146 0
M  V30 8987 H 833.347 -2.48291 1.89097 0
M  V30 8988 N 833.648 -1.19017 -1.03309 0
M  V30 8989 C 834.897 -0.984542 -1.76039 0
M  V30 8990 C 835.21 0.485937 -1.89468 0
M  V30 8991 O 836.416 0.810278 -2.59127 0
M  V30 8992 C 834.872 -1.71261 -3.1654 0
M  V30 8993 C 834.48 -3.22291 -3.11179 0
M  V30 8994 C 836.224 -1.59007 -3.93595 0
M  V30 8995 C 834.131 -3.87704 -4.46587 0
M  V30 8996 H 833.061 -0.364749 -0.659905 0
M  V30 8997 H 835.712 -1.4247 -1.15649 0
M  V30 8998 H 834.094 -1.20025 -3.77373 0
M  V30 8999 H 835.268 -3.80611 -2.59753 0
M  V30 9000 H 833.583 -3.34772 -2.47622 0
M  V30 9001 H 836.18 -2.05232 -4.93745 0
M  V30 9002 H 836.523 -0.543534 -4.12736 0
M  V30 9003 H 837.056 -2.07564 -3.39355 0
M  V30 9004 H 833.795 -4.92437 -4.3265 0
M  V30 9005 H 833.315 -3.34172 -4.98085 0
M  V30 9006 H 834.994 -3.91008 -5.15482 0
M  V30 9007 N 835.127 1.22348 -0.993418 0
M  V30 9008 C 836.09 2.22522 -0.549251 0
M  V30 9009 C 837.09 1.56529 0.368164 0
M  V30 9010 O 838.28 1.73463 0.16005 0
M  V30 9011 C 835.412 3.40307 0.201037 0
M  V30 9012 H 836.605 2.63332 -1.43515 0
M  V30 9013 H 834.158 1.35407 -0.78068 0
M  V30 9014 H 834.893 3.0497 1.10289 0
M  V30 9015 H 834.678 3.8942 -0.457685 0
M  V30 9016 H 836.168 4.14597 0.499946 0
M  V30 9017 N 836.605 0.766683 1.37694 0
M  V30 9018 C 837.845 0.333815 2.01656 0
M  V30 9019 C 838.209 -1.06813 1.59546 0
M  V30 9020 O 839.41 -1.60084 2.15932 0
M  V30 9021 C 837.681 0.467032 3.54335 0
M  V30 9022 S 839.24 0.118679 4.38639 0
M  V30 9023 H 836.058 0.128723 0.699251 0
M  V30 9024 H 838.66 1.00018 1.67978 0
M  V30 9025 H 837.364 1.48808 3.82471 0
M  V30 9026 H 836.895 -0.216066 3.92806 0
M  V30 9027 H 838.91 -1.08746 4.84137 0
M  V30 9028 N 838.083 -1.48885 0.516809 0
M  V30 9029 C 839.046 -2.27916 -0.242256 0
M  V30 9030 C 840.046 -1.34601 -0.879735 0
M  V30 9031 O 841.236 -1.57616 -0.74182 0
M  V30 9032 C 838.368 -3.13067 -1.34914 0
M  V30 9033 H 839.561 -2.96483 0.451444 0
M  V30 9034 H 837.114 -1.5391 0.272294 0
M  V30 9035 H 837.849 -2.49102 -2.07651 0
M  V30 9036 H 837.634 -3.81695 -0.897313 0
M  V30 9037 H 839.124 -3.72716 -1.88341 0
M  V30 9038 N 839.561 -0.251338 -1.55583 0
M  V30 9039 C 840.789 0.376187 -2.03451 0
M  V30 9040 C 841.204 1.51215 -1.13047 0
M  V30 9041 O 840.561 1.81917 -0.145769 0
M  V30 9042 C 840.612 0.879779 -3.50631 0
M  V30 9043 O 840.333 -0.210917 -4.37592 0
M  V30 9044 C 841.834 1.57754 -4.14281 0
M  V30 9045 H 839.054 0.0888722 -0.665089 0
M  V30 9046 H 841.598 -0.376497 -2.01004 0
M  V30 9047 H 839.753 1.58263 -3.53598 0
M  V30 9048 H 840.167 0.172203 -5.24217 0
M  V30 9049 H 841.641 1.88158 -5.18942 0
M  V30 9050 H 842.118 2.50103 -3.61034 0
M  V30 9051 H 842.724 0.919154 -4.15249 0
M  V30 9052 N 841.039 1.57585 0.0217189 0
M  V30 9053 C 841.987 2.08134 1.03842 0
M  V30 9054 C 842.981 0.996662 1.36978 0
M  V30 9055 O 844.187 1.18149 1.35797 0
M  V30 9056 H 840.562 0.664298 0.352438 0
M  V30 9057 H 842.533 2.92583 0.58634 0
M  V30 9058 C 841.282 2.58218 2.32849 0
M  V30 9059 H 840.605 3.41302 2.08214 0
M  V30 9060 H 842.045 2.97289 3.02316 0
M  V30 9061 C 840.504 1.48664 3.02325 0
M  V30 9062 O 841.034 0.857075 3.9245 0
M  V30 9063 N 839.24 1.21938 2.63779 0
M  V30 9064 H 838.787 1.73319 1.90574 0
M  V30 9065 H 838.745 0.488523 3.10581 0
M  V30 9066 N 842.517 -0.29412 1.54831 0
M  V30 9067 C 843.465 -1.38296 1.87021 0
M  V30 9068 C 844.459 -1.5216 0.744557 0
M  V30 9069 O 845.665 -1.54196 0.92864 0
M  V30 9070 H 842.04 -0.462088 0.593278 0
M  V30 9071 H 844.011 -1.08386 2.7802 0
M  V30 9072 C 842.76 -2.74024 2.14023 0
M  V30 9073 H 842.083 -2.6414 3.00117 0
M  V30 9074 H 843.523 -3.49205 2.40482 0
M  V30 9075 C 841.982 -3.23492 0.940982 0
M  V30 9076 O 842.512 -4.01361 0.164937 0
M  V30 9077 N 840.718 -2.80902 0.744467 0
M  V30 9078 H 840.265 -2.17694 1.37721 0
M  V30 9079 H 840.223 -3.14349 -0.0563652 0
M  V30 9080 N 843.995 -1.47404 -0.557645 0
M  V30 9081 C 844.958 -1.59411 -1.64684 0
M  V30 9082 C 845.958 -0.469244 -1.53801 0
M  V30 9083 O 847.148 -0.734298 -1.57967 0
M  V30 9084 C 844.28 -1.5382 -3.04224 0
M  V30 9085 H 845.473 -2.56504 -1.55389 0
M  V30 9086 H 843.026 -1.35588 -0.777531 0
M  V30 9087 H 843.761 -0.581 -3.19053 0
M  V30 9088 H 843.546 -2.35456 -3.13533 0
M  V30 9089 H 845.036 -1.65358 -3.83466 0
M  V30 9090 N 845.473 0.80434 -1.35529 0
M  V30 9091 C 846.421 1.93769 -1.28671 0
M  V30 9092 C 847.415 1.68428 -0.181222 0
M  V30 9093 O 848.621 1.76617 -0.347338 0
M  V30 9094 H 844.996 0.636663 -0.400206 0
M  V30 9095 H 846.967 1.96673 -2.24415 0
M  V30 9096 C 845.716 3.30572 -1.07784 0
M  V30 9097 H 845.039 3.5063 -1.9209 0
M  V30 9098 H 846.479 4.1027 -1.07027 0
M  V30 9099 C 844.938 3.36193 0.218213 0
M  V30 9100 O 845.468 3.82941 1.21323 0
M  V30 9101 N 843.674 2.89455 0.257761 0
M  V30 9102 H 843.221 2.51604 -0.552562 0
M  V30 9103 H 843.179 2.93597 1.12465 0
M  V30 9104 N 846.951 1.19563 1.02676 0
M  V30 9105 C 847.881 0.959024 2.12897 0
M  V30 9106 C 848.862 -0.108382 1.69754 0
M  V30 9107 O 850.047 0.0470698 1.94143 0
M  V30 9108 C 847.177 0.499211 3.43693 0
M  V30 9109 C 846.131 1.5087 4.00528 0
M  V30 9110 C 845.457 0.905884 5.2697 0
M  V30 9111 C 846.757 2.88954 4.3509 0
M  V30 9112 H 848.451 1.88084 2.32948 0
M  V30 9113 H 845.997 0.905731 1.11949 0
M  V30 9114 H 847.95 0.320965 4.20176 0
M  V30 9115 H 846.674 -0.458205 3.2337 0
M  V30 9116 H 845.333 1.67413 3.26142 0
M  V30 9117 H 844.981 -0.0591506 5.02965 0
M  V30 9118 H 844.681 1.58 5.65959 0
M  V30 9119 H 846.205 0.73848 6.06118 0
M  V30 9120 H 847.619 2.75981 5.02501 0
M  V30 9121 H 846.016 3.53177 4.85166 0
M  V30 9122 H 847.086 3.41447 3.44299 0
M  V30 9123 N 848.429 -1.21819 0.999893 0
M  V30 9124 C 849.359 -2.26282 0.576096 0
M  V30 9125 C 850.34 -1.65317 -0.400537 0
M  V30 9126 O 851.525 -1.92028 -0.28964 0
M  V30 9127 C 848.655 -3.47147 -0.103145 0
M  V30 9128 C 847.609 -4.20594 0.792745 0
M  V30 9129 C 846.935 -5.34696 -0.0198026 0
M  V30 9130 C 848.235 -4.78533 2.09293 0
M  V30 9131 H 849.929 -2.61984 1.4493 0
M  V30 9132 H 847.475 -1.25935 0.698316 0
M  V30 9133 H 849.428 -4.1939 -0.411068 0
M  V30 9134 H 848.152 -3.1056 -1.01094 0
M  V30 9135 H 846.811 -3.50194 1.08442 0
M  V30 9136 H 846.459 -4.94352 -0.928729 0
M  V30 9137 H 846.159 -5.84764 0.576661 0
M  V30 9138 H 847.683 -6.09752 -0.321659 0
M  V30 9139 H 849.097 -5.42682 1.8485 0
M  V30 9140 H 847.494 -5.38968 2.63881 0
M  V30 9141 H 848.564 -3.98197 2.76708 0
M  V30 9142 N 849.908 -0.773975 -1.37286 0
M  V30 9143 C 850.871 -0.167974 -2.28584 0
M  V30 9144 C 851.871 0.625662 -1.48129 0
M  V30 9145 O 853.061 0.448924 -1.68316 0
M  V30 9146 C 850.193 0.769364 -3.32105 0
M  V30 9147 H 851.386 -0.972806 -2.83684 0
M  V30 9148 H 848.939 -0.542335 -1.46589 0
M  V30 9149 H 849.674 1.59912 -2.82132 0
M  V30 9150 H 849.459 0.202419 -3.91577 0
M  V30 9151 H 850.949 1.18872 -4.00324 0
M  V30 9152 N 851.386 1.48609 -0.524698 0
M  V30 9153 C 852.632 2.034 0.00323579 0
M  V30 9154 C 852.987 1.39513 1.32491 0
M  V30 9155 O 852.28 0.529876 1.84127 0
M  V30 9156 C 852.474 3.56906 0.187873 0
M  V30 9157 C 852.303 4.35674 -1.11436 0
M  V30 9158 C 851.073 4.76809 -1.67276 0
M  V30 9159 C 853.271 4.72814 -2.02365 0
M  V30 9160 N 851.253 5.40093 -2.91843 0
M  V30 9161 C 852.624 5.36062 -3.11508 0
M  V30 9162 C 854.679 4.54747 -2.02755 0
M  V30 9163 C 853.382 5.83154 -4.21099 0
M  V30 9164 C 855.408 5.02815 -3.11337 0
M  V30 9165 C 854.77 5.66084 -4.19199 0
M  V30 9166 H 850.869 0.780967 -0.0401842 0
M  V30 9167 H 853.453 1.81495 -0.704808 0
M  V30 9168 H 851.624 3.78645 0.864996 0
M  V30 9169 H 853.356 3.98335 0.714938 0
M  V30 9170 H 850.111 4.57754 -1.21483 0
M  V30 9171 H 850.535 5.76305 -3.55249 0
M  V30 9172 H 855.177 4.05217 -1.20661 0
M  V30 9173 H 852.895 6.31692 -5.03975 0
M  V30 9174 H 856.481 4.9063 -3.12688 0
M  V30 9175 H 855.361 6.02604 -5.01834 0
M  V30 9176 N 852.864 0.259585 1.55447 0
M  V30 9177 C 854.092 -0.365392 2.03648 0
M  V30 9178 C 854.507 -1.50613 1.13847 0
M  V30 9179 O 853.864 -1.81837 0.155414 0
M  V30 9180 C 853.915 -0.861172 3.51093 0
M  V30 9181 O 853.636 0.234121 4.37474 0
M  V30 9182 C 855.137 -1.55555 4.15111 0
M  V30 9183 H 852.357 -0.0853439 0.66555 0
M  V30 9184 H 854.901 0.387151 2.00802 0
M  V30 9185 H 853.056 -1.56385 3.54433 0
M  V30 9186 H 853.47 -0.1444 5.24301 0
M  V30 9187 H 854.944 -1.85403 5.19932 0
M  V30 9188 H 855.421 -2.48185 3.62355 0
M  V30 9189 H 856.027 -0.89712 4.15731 0
M  V30 9190 N 854.342 -1.57594 -0.0133615 0
M  V30 9191 C 855.582 -1.91834 -0.705639 0
M  V30 9192 C 855.946 -0.859801 -1.71672 0
M  V30 9193 O 857.147 -1.08702 -2.4584 0
M  V30 9194 C 855.418 -3.31174 -1.34383 0
M  V30 9195 S 856.977 -3.87275 -2.06309 0
M  V30 9196 H 853.795 -0.671598 -0.233404 0
M  V30 9197 H 856.397 -1.95459 0.0401173 0
M  V30 9198 H 855.101 -4.06065 -0.594939 0
M  V30 9199 H 854.632 -3.3089 -2.12781 0
M  V30 9200 H 856.647 -3.67271 -3.33657 0
M  V30 9201 N 855.82 0.285905 -1.54985 0
M  V30 9202 C 856.75 1.35752 -1.89983 0
M  V30 9203 C 857.731 1.52163 -0.760295 0
M  V30 9204 O 858.916 1.65421 -1.01733 0
M  V30 9205 C 856.046 2.71925 -2.16042 0
M  V30 9206 C 855 2.70261 -3.31878 0
M  V30 9207 C 854.326 4.09864 -3.43388 0
M  V30 9208 C 855.626 2.30667 -4.68604 0
M  V30 9209 H 857.32 1.06709 -2.79738 0
M  V30 9210 H 854.866 0.511884 -1.34595 0
M  V30 9211 H 856.819 3.46992 -2.39113 0
M  V30 9212 H 855.543 3.02523 -1.23074 0
M  V30 9213 H 854.202 1.97651 -3.08755 0
M  V30 9214 H 853.85 4.37664 -2.47909 0
M  V30 9215 H 853.55 4.09648 -4.21262 0
M  V30 9216 H 855.074 4.86689 -3.68736 0
M  V30 9217 H 856.488 2.95453 -4.91305 0
M  V30 9218 H 854.885 2.41637 -5.49301 0
M  V30 9219 H 855.955 1.25793 -4.68299 0
M  V30 9220 N 857.298 1.47698 0.54982 0
M  V30 9221 C 858.709 1.48474 1.13191 0
M  V30 9222 C 859.06 0.243504 1.94683 0
M  V30 9223 O 858.185 -0.651009 2.06375 0
M  V30 9224 C 858.78 2.69022 2.05944 0
M  V30 9225 C 857.339 2.72733 2.5941 0
M  V30 9226 C 856.486 2.41691 1.35944 0
M  V30 9227 H 859.437 1.55101 0.336048 0
M  V30 9228 H 859.458 2.46412 2.89934 0
M  V30 9229 H 858.97 3.59345 1.46605 0
M  V30 9230 H 857.071 1.86568 3.22526 0
M  V30 9231 H 857.184 3.73628 2.99899 0
M  V30 9232 H 855.548 1.92428 1.66864 0
M  V30 9233 H 856.331 3.34231 0.783869 0
M  V30 9234 N 858.776 -0.797141 1.35954 0
M  V30 9235 C 859.706 -1.92387 1.32323 0
M  V30 9236 C 860.687 -1.68967 0.196007 0
M  V30 9237 O 861.872 -1.90193 0.39245 0
M  V30 9238 C 859.002 -3.29286 1.10398 0
M  V30 9239 C 857.956 -3.67212 2.19862 0
M  V30 9240 C 857.282 -5.02377 1.8309 0
M  V30 9241 C 858.582 -3.76602 3.61896 0
M  V30 9242 H 860.276 -1.95683 2.26602 0
M  V30 9243 H 857.822 -0.94007 1.09081 0
M  V30 9244 H 859.775 -4.07721 1.06495 0
M  V30 9245 H 858.499 -3.26358 0.125668 0
M  V30 9246 H 857.158 -2.91069 2.22878 0
M  V30 9247 H 856.806 -4.95961 0.838527 0
M  V30 9248 H 856.506 -5.28722 2.56372 0
M  V30 9249 H 858.03 -5.8324 1.80729 0
M  V30 9250 H 859.444 -4.45246 3.6115 0
M  V30 9251 H 857.841 -4.14425 4.34018 0
M  V30 9252 H 858.911 -2.77906 3.97361 0
M  V30 9253 N 860.254 -1.20106 -1.0204 0
M  V30 9254 C 861.501 -1.00889 -1.75578 0
M  V30 9255 C 861.829 0.459415 -1.88996 0
M  V30 9256 O 861.084 1.35735 -1.40977 0
M  V30 9257 C 861.383 -1.63308 -3.17908 0
M  V30 9258 C 861.049 -3.13091 -3.24476 0
M  V30 9259 C 859.711 -3.53968 -3.25976 0
M  V30 9260 C 862.063 -4.09093 -3.22944 0
M  V30 9261 C 859.391 -4.89381 -3.2361 0
M  V30 9262 C 861.743 -5.44447 -3.22119 0
M  V30 9263 C 860.407 -5.84742 -3.2192 0
M  V30 9264 H 859.677 -0.36918 -0.642485 0
M  V30 9265 H 862.324 -1.49475 -1.19706 0
M  V30 9266 H 860.629 -1.06974 -3.76914 0
M  V30 9267 H 862.326 -1.45958 -3.73493 0
M  V30 9268 H 858.916 -2.80526 -3.24042 0
M  V30 9269 H 863.1 -3.78549 -3.20958 0
M  V30 9270 H 858.356 -5.1987 -3.21785 0
M  V30 9271 H 862.53 -6.18584 -3.19885 0
M  V30 9272 H 860.157 -6.89642 -3.19841 0
M  V30 9273 N 861.732 1.21287 -1.00634 0
M  V30 9274 C 863.143 1.72136 -0.722914 0
M  V30 9275 C 863.494 1.8091 0.759338 0
M  V30 9276 O 862.619 1.46458 1.59308 0
M  V30 9277 C 863.214 3.12633 -1.30561 0
M  V30 9278 C 861.773 3.60833 -1.07127 0
M  V30 9279 C 860.92 2.38326 -1.4176 0
M  V30 9280 H 863.871 1.06445 -1.17708 0
M  V30 9281 H 863.892 3.74174 -0.690937 0
M  V30 9282 H 863.404 3.06215 -2.38441 0
M  V30 9283 H 861.505 3.72599 -0.00968671 0
M  V30 9284 H 861.618 4.46226 -1.74411 0
M  V30 9285 H 859.982 2.40575 -0.836412 0
M  V30 9286 H 860.765 2.34558 -2.50674 0
M  V30 9287 N 863.21 0.781244 1.36873 0
M  V30 9288 C 864.157 0.172146 2.30157 0
M  V30 9289 C 865.127 -0.679328 1.51573 0
M  V30 9290 O 866.312 -0.629713 1.80109 0
M  V30 9291 C 863.452 -0.693534 3.38059 0
M  V30 9292 C 862.565 0.175586 4.31643 0
M  V30 9293 C 861.7 -0.695695 5.26625 0
M  V30 9294 C 860.739 0.17538 6.11849 0
M  V30 9295 N 859.876 -0.654416 6.99043 0
M  V30 9296 H 864.716 0.973133 2.81663 0
M  V30 9297 H 862.253 0.491469 1.38647 0
M  V30 9298 H 864.211 -1.21035 3.99257 0
M  V30 9299 H 862.841 -1.46003 2.87894 0
M  V30 9300 H 861.893 0.810295 3.7167 0
M  V30 9301 H 863.205 0.847107 4.91554 0
M  V30 9302 H 862.359 -1.27863 5.93073 0
M  V30 9303 H 861.098 -1.40087 4.67148 0
M  V30 9304 H 860.103 0.77078 5.4437 0
M  V30 9305 H 861.328 0.87803 6.734 0
M  V30 9306 H 859.274 -1.34403 6.42084 0
M  V30 9307 H 859.191 -0.0403998 7.55989 0
M  V30 9308 H 860.459 -1.22144 7.69871 0
M  V30 9309 N 864.689 -1.48329 0.532571 0
M  V30 9310 C 865.599 -2.33445 -0.232546 0
M  V30 9311 C 866.615 -1.46651 -0.93645 0
M  V30 9312 O 867.791 -1.79627 -0.910834 0
M  V30 9313 C 864.856 -3.22824 -1.26434 0
M  V30 9314 C 863.917 -4.25492 -0.570511 0
M  V30 9315 C 863.15 -5.10601 -1.55315 0
M  V30 9316 O 863.373 -4.97733 -2.78599 0
M  V30 9317 O 862.307 -5.91927 -1.09112 0
M  V30 9318 H 866.133 -3.00119 0.464988 0
M  V30 9319 H 863.718 -1.46489 0.293462 0
M  V30 9320 H 865.6 -3.78103 -1.86055 0
M  V30 9321 H 864.275 -2.58807 -1.94424 0
M  V30 9322 H 863.182 -3.74041 0.0662587 0
M  V30 9323 H 864.515 -4.92154 0.0674904 0
M  V30 9324 N 866.167 -0.267825 -1.55308 0
M  V30 9325 C 867.114 0.6228 -2.22238 0
M  V30 9326 C 868.084 1.15536 -1.19334 0
M  V30 9327 O 869.269 1.206 -1.47852 0
M  V30 9328 C 866.409 1.80447 -2.94164 0
M  V30 9329 C 865.522 1.30646 -4.11771 0
M  V30 9330 C 864.657 2.44935 -4.7136 0
M  V30 9331 C 863.696 1.92099 -5.81175 0
M  V30 9332 N 862.833 2.99834 -6.34857 0
M  V30 9333 H 867.673 0.0453874 -2.97965 0
M  V30 9334 H 865.21 0.0106371 -1.47096 0
M  V30 9335 H 867.168 2.49896 -3.34078 0
M  V30 9336 H 865.798 2.35403 -2.20874 0
M  V30 9337 H 864.85 0.505314 -3.77029 0
M  V30 9338 H 866.162 0.879409 -4.90987 0
M  V30 9339 H 865.316 3.2239 -5.13955 0
M  V30 9340 H 864.055 2.90951 -3.91406 0
M  V30 9341 H 863.06 1.13122 -5.38037 0
M  V30 9342 H 864.285 1.47027 -6.62993 0
M  V30 9343 H 862.231 3.45246 -5.578 0
M  V30 9344 H 862.148 2.61524 -7.09324 0
M  V30 9345 H 863.416 3.77286 -6.82111 0
M  V30 9346 N 867.645 1.57599 0.00500368 0
M  V30 9347 C 868.87 1.95026 0.705663 0
M  V30 9348 C 869.295 0.869643 1.6679 0
M  V30 9349 O 868.653 -0.172659 1.80476 0
M  V30 9350 C 868.701 3.31545 1.4181 0
M  V30 9351 O 867.805 3.25495 2.53232 0
M  V30 9352 H 867.146 0.636808 0.188074 0
M  V30 9353 H 869.676 2.04547 -0.046696 0
M  V30 9354 H 869.686 3.66996 1.78265 0
M  V30 9355 H 868.361 4.09751 0.712543 0
M  V30 9356 H 866.938 3.01714 2.19142 0
M  V30 9357 N 869.123 -0.277682 1.55134 0
M  V30 9358 C 870.372 -1.00766 1.74726 0
M  V30 9359 C 870.685 -1.87617 0.553092 0
M  V30 9360 O 871.891 -2.64058 0.631318 0
M  V30 9361 C 870.347 -1.84147 3.09221 0
M  V30 9362 C 869.955 -1.02186 4.3619 0
M  V30 9363 C 871.699 -2.56604 3.38164 0
M  V30 9364 C 869.606 -1.84978 5.61727 0
M  V30 9365 H 868.536 -0.379948 0.651273 0
M  V30 9366 H 871.187 -0.263543 1.81598 0
M  V30 9367 H 869.569 -2.62637 2.96375 0
M  V30 9368 H 870.743 -0.281459 4.5994 0
M  V30 9369 H 869.058 -0.412054 4.14356 0
M  V30 9370 H 871.655 -3.18942 4.29162 0
M  V30 9371 H 871.998 -3.26647 2.58085 0
M  V30 9372 H 872.531 -1.85147 3.52087 0
M  V30 9373 H 869.27 -1.19365 6.4454 0
M  V30 9374 H 868.79 -2.56628 5.42128 0
M  V30 9375 H 870.469 -2.42458 5.99853 0
M  V30 9376 N 870.601 -1.47988 -0.541979 0
M  V30 9377 C 871.531 -1.64503 -1.65713 0
M  V30 9378 C 872.512 -0.494116 -1.62765 0
M  V30 9379 O 873.697 -0.725256 -1.80149 0
M  V30 9380 C 870.827 -1.67337 -3.04328 0
M  V30 9381 C 869.781 -2.81809 -3.2213 0
M  V30 9382 C 869.107 -2.69724 -4.61685 0
M  V30 9383 C 870.407 -4.23241 -3.06046 0
M  V30 9384 H 872.101 -2.5786 -1.52147 0
M  V30 9385 H 869.647 -1.24094 -0.730529 0
M  V30 9386 H 871.6 -1.77481 -3.82202 0
M  V30 9387 H 870.324 -0.705514 -3.18889 0
M  V30 9388 H 868.983 -2.71201 -2.46669 0
M  V30 9389 H 868.631 -1.70934 -4.73065 0
M  V30 9390 H 868.331 -3.4653 -4.74543 0
M  V30 9391 H 869.855 -2.81818 -5.41674 0
M  V30 9392 H 871.269 -4.34746 -3.73723 0
M  V30 9393 H 869.666 -5.00952 -3.30405 0
M  V30 9394 H 870.736 -4.40543 -2.02609 0
M  V30 9395 N 872.079 0.78992 -1.36375 0
M  V30 9396 C 873.327 1.54472 -1.30319 0
M  V30 9397 C 873.648 1.94647 0.117338 0
M  V30 9398 O 872.918 1.64906 1.05748 0
M  V30 9399 H 871.498 0.572879 -0.479394 0
M  V30 9400 H 874.16 0.941245 -1.70665 0
M  V30 9401 H 873.256 2.45252 -1.93024 0
M  V30 9402 N 873.557 1.20646 1.01402 0
M  V30 9403 C 874.782 1.04462 1.79172 0
M  V30 9404 C 875.207 -0.401588 1.83763 0
M  V30 9405 O 874.565 -1.28934 1.27459 0
M  V30 9406 C 874.613 1.63583 3.21361 0
M  V30 9407 O 873.717 0.875198 4.03006 0
M  V30 9408 H 873.058 0.368235 0.552539 0
M  V30 9409 H 875.588 1.59994 1.27526 0
M  V30 9410 H 875.598 1.67426 3.72065 0
M  V30 9411 H 874.273 2.68835 3.17334 0
M  V30 9412 H 872.85 0.911172 3.61597 0
M  V30 9413 N 875.035 -1.20752 1.01276 0
M  V30 9414 C 875.968 -2.22091 0.524472 0
M  V30 9415 C 876.946 -1.5692 -0.426017 0
M  V30 9416 O 878.13 -1.8528 -0.346919 0
M  V30 9417 C 875.257 -3.37868 -0.237224 0
M  V30 9418 C 874.303 -4.21327 0.662236 0
M  V30 9419 S 875.136 -4.91352 2.12916 0
M  V30 9420 C 876.292 -6.10553 1.37752 0
M  V30 9421 H 876.525 -2.63166 1.38315 0
M  V30 9422 H 874.058 -1.30742 0.821332 0
M  V30 9423 H 876.016 -4.04985 -0.670599 0
M  V30 9424 H 874.677 -2.95261 -1.07143 0
M  V30 9425 H 873.87 -5.03944 0.0751085 0
M  V30 9426 H 873.472 -3.59445 1.03322 0
M  V30 9427 H 875.764 -6.74322 0.655491 0
M  V30 9428 H 876.707 -6.73717 2.17969 0
M  V30 9429 H 877.115 -5.57566 0.882088 0
M  V30 9430 N 876.513 -0.788492 -1.36457 0
M  V30 9431 C 877.443 -0.200468 -2.32638 0
M  V30 9432 C 878.424 0.664031 -1.56603 0
M  V30 9433 O 879.609 0.598045 -1.84762 0
M  V30 9434 C 876.739 0.666274 -3.40849 0
M  V30 9435 C 875.693 -0.0982574 -4.27887 0
M  V30 9436 C 875.019 0.889018 -5.27258 0
M  V30 9437 C 876.319 -1.28692 -5.06197 0
M  V30 9438 H 878.013 -1.00399 -2.82065 0
M  V30 9439 H 875.559 -0.484237 -1.35614 0
M  V30 9440 H 877.512 1.08757 -4.07124 0
M  V30 9441 H 876.236 1.50249 -2.89987 0
M  V30 9442 H 874.895 -0.500525 -3.63167 0
M  V30 9443 H 874.543 1.72024 -4.7267 0
M  V30 9444 H 874.243 0.381909 -5.86358 0
M  V30 9445 H 875.767 1.30891 -5.96406 0
M  V30 9446 H 877.181 -0.941429 -5.65517 0
M  V30 9447 H 875.578 -1.72726 -5.74705 0
M  V30 9448 H 876.648 -2.08273 -4.37893 0
M  V30 9449 N 877.991 1.48044 -0.54043 0
M  V30 9450 C 879.238 2.02497 -0.0101567 0
M  V30 9451 C 879.566 1.41651 1.33286 0
M  V30 9452 O 878.821 0.555504 1.8765 0
M  V30 9453 C 879.12 3.57085 0.150008 0
M  V30 9454 C 878.786 4.36769 -1.11998 0
M  V30 9455 C 877.448 4.58261 -1.46801 0
M  V30 9456 C 879.8 4.82848 -1.96232 0
M  V30 9457 C 877.128 5.23079 -2.65717 0
M  V30 9458 C 879.48 5.48977 -3.14335 0
M  V30 9459 C 878.144 5.68705 -3.49472 0
M  V30 9460 H 877.414 0.740991 -0.00371661 0
M  V30 9461 H 880.061 1.77909 -0.708562 0
M  V30 9462 H 878.366 3.80572 0.931259 0
M  V30 9463 H 880.063 3.96851 0.575384 0
M  V30 9464 H 876.653 4.20309 -0.838957 0
M  V30 9465 H 880.837 4.66038 -1.70654 0
M  V30 9466 H 876.093 5.36549 -2.93129 0
M  V30 9467 H 880.267 5.83649 -3.79904 0
M  V30 9468 H 877.894 6.18703 -4.41713 0
M  V30 9469 N 879.47 0.276058 1.55163 0
M  V30 9470 C 880.695 -0.346648 2.04483 0
M  V30 9471 C 881.12 -1.48613 1.15308 0
M  V30 9472 O 880.478 -1.80663 0.151875 0
M  V30 9473 C 880.526 -0.804268 3.51517 0
M  V30 9474 O 879.63 -1.91143 3.65429 0
M  V30 9475 H 878.971 -0.0715251 0.660136 0
M  V30 9476 H 881.501 0.410631 2.00437 0
M  V30 9477 H 881.511 -1.09977 3.92898 0
M  V30 9478 H 880.186 0.0294123 4.1589 0
M  V30 9479 H 878.763 -1.61839 3.3595 0
M  V30 9480 N 880.948 -1.576 0.00335426 0
M  V30 9481 C 881.881 -2.04085 -1.021 0
M  V30 9482 C 882.859 -0.931382 -1.33282 0
M  V30 9483 O 884.043 -1.19976 -1.45389 0
M  V30 9484 C 881.17 -2.44128 -2.34775 0
M  V30 9485 C 880.216 -3.65841 -2.19232 0
M  V30 9486 S 881.049 -5.13616 -1.51521 0
M  V30 9487 C 882.205 -5.56931 -2.8562 0
M  V30 9488 H 882.438 -2.90652 -0.625192 0
M  V30 9489 H 879.971 -1.52998 -0.207611 0
M  V30 9490 H 881.929 -2.67866 -3.1106 0
M  V30 9491 H 880.59 -1.57954 -2.71495 0
M  V30 9492 H 879.783 -3.9162 -3.17253 0
M  V30 9493 H 879.385 -3.42122 -1.51091 0
M  V30 9494 H 881.677 -5.59596 -3.81914 0
M  V30 9495 H 882.62 -6.5683 -2.64536 0
M  V30 9496 H 883.028 -4.84504 -2.89683 0
M  V30 9497 N 882.426 0.269451 -1.5528 0
M  V30 9498 C 883.654 1.01872 -1.80082 0
M  V30 9499 C 884.069 1.79802 -0.575917 0
M  V30 9500 O 883.426 1.76735 0.455081 0
M  V30 9501 C 883.477 1.9745 -3.02813 0
M  V30 9502 O 883.198 1.22677 -4.20573 0
M  V30 9503 C 884.699 2.8416 -3.40247 0
M  V30 9504 H 881.919 0.300781 -0.59981 0
M  V30 9505 H 884.463 0.29916 -2.023 0
M  V30 9506 H 882.618 2.64864 -2.82712 0
M  V30 9507 H 883.032 1.87129 -4.89982 0
M  V30 9508 H 884.506 3.47014 -4.29284 0
M  V30 9509 H 884.983 3.54113 -2.59809 0
M  V30 9510 H 885.589 2.22232 -3.6262 0
M  V30 9511 N 883.904 1.48273 0.534124 0
M  V30 9512 C 884.834 1.6538 1.64839 0
M  V30 9513 C 885.815 0.502741 1.62501 0
M  V30 9514 O 887 0.734799 1.79762 0
M  V30 9515 C 884.13 1.68949 3.03436 0
M  V30 9516 C 883.084 2.83513 3.20631 0
M  V30 9517 C 882.41 2.72169 4.60248 0
M  V30 9518 C 883.71 4.24858 3.03797 0
M  V30 9519 H 885.404 2.58663 1.50777 0
M  V30 9520 H 882.95 1.24479 0.723937 0
M  V30 9521 H 884.903 1.79505 3.81256 0
M  V30 9522 H 883.627 0.722415 3.1851 0
M  V30 9523 H 882.286 2.72505 2.45227 0
M  V30 9524 H 881.934 1.7344 4.72152 0
M  V30 9525 H 881.634 3.49042 4.72698 0
M  V30 9526 H 883.158 2.84687 5.40172 0
M  V30 9527 H 884.572 4.36721 3.71413 0
M  V30 9528 H 882.969 5.02697 3.27743 0
M  V30 9529 H 884.039 4.41611 2.0027 0
M  V30 9530 N 885.382 -0.782676 1.36792 0
M  V30 9531 C 886.314 -1.9044 1.27536 0
M  V30 9532 C 887.327 -1.61647 0.193426 0
M  V30 9533 O 888.516 -1.72769 0.448692 0
M  V30 9534 C 885.616 -3.2541 0.946641 0
M  V30 9535 C 884.789 -3.81932 2.13183 0
M  V30 9536 C 883.848 -4.95355 1.7751 0
M  V30 9537 O 882.874 -5.11517 2.49678 0
M  V30 9538 N 884.076 -5.76108 0.712755 0
M  V30 9539 H 886.841 -1.98899 2.24186 0
M  V30 9540 H 884.402 -0.96127 1.30274 0
M  V30 9541 H 886.394 -3.98791 0.689043 0
M  V30 9542 H 884.964 -3.12524 0.0690591 0
M  V30 9543 H 884.184 -3.00459 2.55183 0
M  V30 9544 H 885.472 -4.16426 2.92347 0
M  V30 9545 H 884.87 -5.65586 0.113662 0
M  V30 9546 H 883.427 -6.49762 0.514995 0
M  V30 9547 N 886.86 -1.21182 -1.00761 0
M  V30 9548 C 888.085 -1.05411 -1.78615 0
M  V30 9549 C 888.51 0.391837 -1.83973 0
M  V30 9550 O 887.868 1.28256 -1.28141 0
M  V30 9551 C 887.916 -1.65285 -3.20489 0
M  V30 9552 O 887.02 -0.896558 -4.02536 0
M  V30 9553 H 886.361 -0.37116 -0.550578 0
M  V30 9554 H 888.891 -1.60669 -1.26676 0
M  V30 9555 H 888.901 -1.69397 -3.71172 0
M  V30 9556 H 887.576 -2.70514 -3.15904 0
M  V30 9557 H 886.153 -0.930335 -3.61108 0
M  V30 9558 N 888.338 1.20213 -1.01915 0
M  V30 9559 C 889.248 2.26763 -0.601311 0
M  V30 9560 C 890.264 1.70185 0.362369 0
M  V30 9561 O 891.44 2.00165 0.222682 0
M  V30 9562 C 888.505 3.46662 0.0512879 0
M  V30 9563 C 887.566 4.18459 -0.958659 0
M  V30 9564 C 886.799 5.32634 -0.337107 0
M  V30 9565 O 887.022 5.63841 0.86251 0
M  V30 9566 O 885.956 5.9258 -1.05511 0
M  V30 9567 H 889.782 2.64725 -1.48844 0
M  V30 9568 H 887.367 1.2688 -0.788784 0
M  V30 9569 H 889.249 4.19345 0.41564 0
M  V30 9570 H 887.924 3.1057 0.912572 0
M  V30 9571 H 886.831 3.47937 -1.37442 0
M  V30 9572 H 888.164 4.58498 -1.78999 0
M  V30 9573 N 889.816 0.795718 1.36037 0
M  V30 9574 C 891.227 0.433379 1.816 0
M  V30 9575 C 891.578 -1.04341 1.66155 0
M  V30 9576 O 890.703 -1.81004 1.18603 0
M  V30 9577 C 891.298 0.77985 3.29703 0
M  V30 9578 C 889.857 0.470256 3.73451 0
M  V30 9579 C 889.004 1.01119 2.58206 0
M  V30 9580 H 891.955 0.988317 1.24169 0
M  V30 9581 H 891.976 0.0732898 3.80429 0
M  V30 9582 H 891.488 1.85473 3.40913 0
M  V30 9583 H 889.589 -0.596332 3.67797 0
M  V30 9584 H 889.702 0.995276 4.68648 0
M  V30 9585 H 888.066 0.434077 2.50974 0
M  V30 9586 H 888.849 2.09196 2.72198 0
M  V30 9587 N 891.294 -1.47756 0.548274 0
M  V30 9588 C 892.705 -1.8636 0.112547 0
M  V30 9589 C 893.056 -1.45589 -1.31523 0
M  V30 9590 O 892.181 -0.854874 -1.98799 0
M  V30 9591 C 892.776 -3.38224 0.197473 0
M  V30 9592 C 891.335 -3.75954 -0.183163 0
M  V30 9593 C 890.482 -2.7181 0.549059 0
M  V30 9594 H 893.433 -1.394 0.758506 0
M  V30 9595 H 893.454 -3.75957 -0.586217 0
M  V30 9596 H 892.966 -3.67868 1.23673 0
M  V30 9597 H 891.067 -3.51926 -1.22387 0
M  V30 9598 H 891.18 -4.78801 0.169178 0
M  V30 9599 H 889.544 -2.54699 -0.00682862 0
M  V30 9600 H 890.327 -3.04296 1.5893 0
M  V30 9601 N 892.772 -0.284283 -1.55015 0
M  V30 9602 C 894.018 0.330352 -2.00091 0
M  V30 9603 C 894.351 1.54814 -1.17244 0
M  V30 9604 O 893.626 1.92954 -0.244753 0
M  V30 9605 C 893.909 0.703492 -3.53161 0
M  V30 9606 C 893.762 -0.522275 -4.46758 0
M  V30 9607 C 895.081 1.53645 -4.12409 0
M  V30 9608 H 892.2 0.118599 -0.727395 0
M  V30 9609 H 894.842 -0.393054 -1.8589 0
M  V30 9610 H 892.992 1.31983 -3.65394 0
M  V30 9611 H 894.664 -1.16082 -4.46456 0
M  V30 9612 H 892.907 -1.15865 -4.1804 0
M  V30 9613 H 893.578 -0.217295 -5.51572 0
M  V30 9614 H 896.054 1.01583 -4.0351 0
M  V30 9615 H 894.93 1.76633 -5.19704 0
M  V30 9616 H 895.191 2.5204 -3.63219 0
M  V30 9617 N 894.251 1.57596 -0.0117121 0
M  V30 9618 C 895.161 2.12596 0.991964 0
M  V30 9619 C 896.177 1.07399 1.36899 0
M  V30 9620 O 897.353 1.39365 1.45394 0
M  V30 9621 C 894.418 2.62796 2.2614 0
M  V30 9622 C 893.479 3.8264 1.94642 0
M  V30 9623 C 892.712 4.30435 3.15533 0
M  V30 9624 O 892.935 3.77495 4.27614 0
M  V30 9625 O 891.869 5.22469 2.98847 0
M  V30 9626 H 895.695 2.98597 0.554371 0
M  V30 9627 H 893.28 1.47947 0.207839 0
M  V30 9628 H 895.162 2.9523 3.00695 0
M  V30 9629 H 893.837 1.79886 2.69114 0
M  V30 9630 H 892.744 3.5516 1.17526 0
M  V30 9631 H 894.077 4.66658 1.56496 0
M  V30 9632 N 895.729 -0.261212 1.5542 0
M  V30 9633 C 896.662 -1.34906 1.84054 0
M  V30 9634 C 897.64 -1.47024 0.694466 0
M  V30 9635 O 898.824 -1.63463 0.938719 0
M  V30 9636 C 895.951 -2.7242 2.01259 0
M  V30 9637 C 894.997 -2.77526 3.23855 0
M  V30 9638 S 895.83 -2.35578 4.80898 0
M  V30 9639 C 896.986 -3.75045 5.01091 0
M  V30 9640 H 897.219 -1.10416 2.76035 0
M  V30 9641 H 894.752 -0.461461 1.47343 0
M  V30 9642 H 896.71 -3.51606 2.11857 0
M  V30 9643 H 895.371 -2.94155 1.10145 0
M  V30 9644 H 894.564 -3.78483 3.32816 0
M  V30 9645 H 894.166 -2.0637 3.11909 0
M  V30 9646 H 896.458 -4.7042 4.87556 0
M  V30 9647 H 897.401 -3.71027 6.03112 0
M  V30 9648 H 897.809 -3.66894 4.29009 0
M  V30 9649 N 897.207 -1.48554 -0.526253 0
M  V30 9650 C 898.456 -1.56014 -1.27837 0
M  V30 9651 C 898.769 -0.240643 -1.94114 0
M  V30 9652 O 899.975 -0.193525 -2.70809 0
M  V30 9653 C 898.431 -2.75161 -2.31979 0
M  V30 9654 C 898.039 -4.13768 -1.71755 0
M  V30 9655 C 899.783 -2.91936 -3.08178 0
M  V30 9656 C 897.69 -5.24171 -2.7386 0
M  V30 9657 H 896.62 -0.58082 -0.480795 0
M  V30 9658 H 899.271 -1.74895 -0.555335 0
M  V30 9659 H 897.653 -2.49722 -3.07335 0
M  V30 9660 H 898.827 -4.49241 -1.02563 0
M  V30 9661 H 897.142 -4.02141 -1.08036 0
M  V30 9662 H 899.739 -3.71586 -3.84484 0
M  V30 9663 H 900.082 -2.01533 -3.64267 0
M  V30 9664 H 900.615 -3.17294 -2.39937 0
M  V30 9665 H 897.354 -6.16552 -2.22586 0
M  V30 9666 H 896.874 -4.93181 -3.41368 0
M  V30 9667 H 898.553 -5.52442 -3.36774 0
M  V30 9668 N 898.685 0.775411 -1.37205 0
M  V30 9669 C 899.913 1.56446 -1.35397 0
M  V30 9670 C 900.328 1.887 0.0615437 0
M  V30 9671 O 899.685 1.51178 1.02233 0
M  V30 9672 C 899.736 2.87697 -2.18889 0
M  V30 9673 O 899.457 2.56828 -3.54924 0
M  V30 9674 C 900.958 3.81944 -2.25019 0
M  V30 9675 H 898.178 0.484792 -0.463916 0
M  V30 9676 H 900.722 0.961346 -1.80495 0
M  V30 9677 H 898.877 3.44442 -1.7731 0
M  V30 9678 H 899.291 3.40851 -3.98649 0
M  V30 9679 H 900.765 4.71055 -2.87769 0
M  V30 9680 H 901.242 4.20811 -1.25757 0
M  V30 9681 H 901.848 3.3113 -2.66895 0
M  V30 9682 N 900.163 1.21714 1.00117 0
M  V30 9683 C 901.574 1.03477 1.55401 0
M  V30 9684 C 901.925 -0.40429 1.91989 0
M  V30 9685 O 901.05 -1.28807 1.7389 0
M  V30 9686 C 901.645 1.87213 2.82377 0
M  V30 9687 C 900.204 1.73297 3.34133 0
M  V30 9688 C 899.351 1.84189 2.07291 0
M  V30 9689 H 902.302 1.3568 0.823195 0
M  V30 9690 H 902.323 1.38465 3.54412 0
M  V30 9691 H 901.835 2.91944 2.55715 0
M  V30 9692 H 899.936 0.712662 3.65721 0
M  V30 9693 H 900.049 2.55486 4.05294 0
M  V30 9694 H 898.413 1.27538 2.20468 0
M  V30 9695 H 899.196 2.90435 1.83037 0
M  V30 9696 N 901.641 -1.19671 1.02551 0
M  V30 9697 C 902.889 -1.88894 0.71858 0
M  V30 9698 C 903.21 -1.79797 -0.754856 0
M  V30 9699 O 902.48 -1.20621 -1.54362 0
M  V30 9700 H 901.06 -0.699244 0.262806 0
M  V30 9701 H 903.722 -1.45298 1.29902 0
M  V30 9702 H 902.818 -2.95309 1.00989 0
M  V30 9703 N 903.119 -0.802921 -1.35613 0
M  V30 9704 C 904.365 -0.382141 -1.99167 0
M  V30 9705 C 904.698 1.04704 -1.63556 0
M  V30 9706 O 903.973 1.72578 -0.89706 0
M  V30 9707 C 904.256 -0.561493 -3.55695 0
M  V30 9708 C 904.109 -2.03534 -4.01116 0
M  V30 9709 C 905.428 0.0151135 -4.40097 0
M  V30 9710 H 902.547 -0.140322 -0.723518 0
M  V30 9711 H 905.189 -1.01177 -1.6082 0
M  V30 9712 H 903.339 -0.0255083 -3.88492 0
M  V30 9713 H 905.011 -2.63343 -3.78746 0
M  V30 9714 H 903.254 -2.5331 -3.52159 0
M  V30 9715 H 903.925 -2.11173 -5.1001 0
M  V30 9716 H 906.401 -0.442582 -4.1374 0
M  V30 9717 H 905.277 -0.140316 -5.48721 0
M  V30 9718 H 905.538 1.10848 -4.27978 0
M  V30 9719 N 904.597 1.47463 -0.556102 0
M  V30 9720 C 905.843 2.03361 -0.039909 0
M  V30 9721 C 906.198 1.42292 1.29502 0
M  V30 9722 O 905.491 0.568813 1.82962 0
M  V30 9723 C 905.685 3.57224 0.112126 0
M  V30 9724 C 905.514 4.33213 -1.20652 0
M  V30 9725 C 904.284 4.73153 -1.77352 0
M  V30 9726 C 906.482 4.68415 -2.12348 0
M  V30 9727 N 904.464 5.33781 -3.03233 0
M  V30 9728 C 905.835 5.29334 -3.22808 0
M  V30 9729 C 907.89 4.50344 -2.12356 0
M  V30 9730 C 906.593 5.7409 -4.33374 0
M  V30 9731 C 908.619 4.96098 -3.21933 0
M  V30 9732 C 907.981 5.57065 -4.31112 0
M  V30 9733 H 904.08 0.779939 -0.0567407 0
M  V30 9734 H 906.664 1.79959 -0.743147 0
M  V30 9735 H 904.835 3.80395 0.784485 0
M  V30 9736 H 906.567 3.99762 0.630285 0
M  V30 9737 H 903.322 4.55074 -1.31165 0
M  V30 9738 H 903.746 5.6864 -3.67393 0
M  V30 9739 H 908.388 4.02566 -1.29229 0
M  V30 9740 H 906.106 6.2086 -5.17261 0
M  V30 9741 H 909.692 4.83887 -3.23024 0
M  V30 9742 H 908.572 5.91824 -5.14504 0
M  V30 9743 N 906.075 0.2925 1.54862 0
M  V30 9744 C 907.352 -0.371946 1.92031 0
M  V30 9745 C 907.732 -1.72363 1.21878 0
M  V30 9746 O 907.08 -2.25779 0.351573 0
M  V30 9747 C 907.29 -0.495027 3.45471 0
M  V30 9748 C 908.638 -0.769855 4.17562 0
M  V30 9749 O 909.662 -0.579168 3.5146 0
M  V30 9750 O 908.521 -1.13561 5.34571 0
M  V30 9751 H 905.615 -0.206463 0.800813 0
M  V30 9752 H 908.161 0.339933 1.6626 0
M  V30 9753 H 906.933 0.455528 3.88639 0
M  V30 9754 H 906.556 -1.2557 3.7725 0
M  V30 9755 N 907.553 -1.57587 0.0200696 0
M  V30 9756 C 908.799 -1.91708 -0.661503 0
M  V30 9757 C 909.132 -0.895968 -1.72296 0
M  V30 9758 O 908.407 0.082577 -1.94325 0
M  V30 9759 C 908.69 -3.36344 -1.28627 0
M  V30 9760 C 908.543 -4.49186 -0.234982 0
M  V30 9761 C 909.862 -3.80771 -2.20685 0
M  V30 9762 H 906.981 -0.69717 -0.239005 0
M  V30 9763 H 909.623 -1.8985 0.0754764 0
M  V30 9764 H 907.773 -3.38058 -1.91439 0
M  V30 9765 H 909.445 -4.59606 0.395011 0
M  V30 9766 H 907.688 -4.31557 0.440565 0
M  V30 9767 H 908.359 -5.47395 -0.711558 0
M  V30 9768 H 910.835 -3.80735 -1.67868 0
M  V30 9769 H 909.711 -4.82685 -2.61356 0
M  V30 9770 H 909.972 -3.15764 -3.09428 0
M  V30 9771 N 909.032 0.252966 -1.55557 0
M  V30 9772 C 910.257 1.0038 -1.8149 0
M  V30 9773 C 910.682 1.78397 -0.596318 0
M  V30 9774 O 910.04 1.7551 0.454535 0
M  V30 9775 C 910.088 1.9222 -3.05096 0
M  V30 9776 O 909.192 3.01302 -2.81587 0
M  V30 9777 H 908.533 0.285949 -0.599274 0
M  V30 9778 H 911.063 0.275795 -2.02733 0
M  V30 9779 H 911.073 2.338 -3.34368 0
M  V30 9780 H 909.748 1.34852 -3.93431 0
M  V30 9781 H 908.325 2.63894 -2.63466 0
M  V30 9782 N 910.51 1.48831 0.518367 0
M  V30 9783 C 911.442 1.60317 1.63802 0
M  V30 9784 C 912.455 0.486771 1.55352 0
M  V30 9785 O 913.644 0.758111 1.61601 0
M  V30 9786 C 910.744 1.52771 3.02513 0
M  V30 9787 C 909.917 2.79649 3.36326 0
M  V30 9788 C 908.976 2.65396 4.54369 0
M  V30 9789 O 908.002 3.39304 4.57013 0
M  V30 9790 N 909.204 1.75784 5.53245 0
M  V30 9791 H 911.969 2.56878 1.54383 0
M  V30 9792 H 909.53 1.45701 0.705889 0
M  V30 9793 H 911.522 1.40914 3.79375 0
M  V30 9794 H 910.092 0.641381 3.05949 0
M  V30 9795 H 909.312 3.05985 2.48529 0
M  V30 9796 H 910.6 3.63799 3.55707 0
M  V30 9797 H 909.998 1.14961 5.53896 0
M  V30 9798 H 908.555 1.69859 6.29278 0
M  V30 9799 N 911.988 -0.768124 1.37614 0
M  V30 9800 C 913.399 -1.34462 1.29525 0
M  V30 9801 C 913.75 -1.96121 -0.0555168 0
M  V30 9802 O 912.875 -1.94069 -0.957406 0
M  V30 9803 C 913.47 -2.44475 2.34558 0
M  V30 9804 C 912.029 -2.97883 2.30093 0
M  V30 9805 C 911.176 -1.71131 2.18196 0
M  V30 9806 H 914.127 -0.568103 1.48183 0
M  V30 9807 H 914.148 -3.24047 1.99434 0
M  V30 9808 H 913.66 -1.99568 3.32858 0
M  V30 9809 H 911.761 -3.47156 1.35328 0
M  V30 9810 H 911.874 -3.53251 3.23652 0
M  V30 9811 H 910.238 -1.94197 1.64802 0
M  V30 9812 H 911.021 -1.28323 3.18415 0
M  V30 9813 N 913.466 -1.22244 -0.994698 0
M  V30 9814 C 914.691 -1.07299 -1.77487 0
M  V30 9815 C 915.116 0.372302 -1.84379 0
M  V30 9816 O 914.474 1.2689 -1.29494 0
M  V30 9817 C 914.522 -1.68675 -3.18718 0
M  V30 9818 O 913.626 -0.939202 -4.01563 0
M  V30 9819 H 912.967 -0.376979 -0.546611 0
M  V30 9820 H 915.497 -1.62003 -1.24965 0
M  V30 9821 H 915.507 -1.73324 -3.69354 0
M  V30 9822 H 914.182 -2.73849 -3.13017 0
M  V30 9823 H 912.759 -0.968583 -3.60101 0
M  V30 9824 N 914.944 1.19125 -1.03184 0
M  V30 9825 C 916.355 1.70564 -0.759264 0
M  V30 9826 C 916.706 1.8248 0.720794 0
M  V30 9827 O 915.831 1.49804 1.56166 0
M  V30 9828 C 916.426 3.09793 -1.37163 0
M  V30 9829 C 914.985 3.5848 -1.14757 0
M  V30 9830 C 914.132 2.35265 -1.46784 0
M  V30 9831 H 917.083 1.03925 -1.19939 0
M  V30 9832 H 917.104 3.72624 -0.77015 0
M  V30 9833 H 916.616 3.01088 -2.44882 0
M  V30 9834 H 914.717 3.72494 -0.0887182 0
M  V30 9835 H 914.83 4.42426 -1.83836 0
M  V30 9836 H 913.194 2.38747 -0.887254 0
M  V30 9837 H 913.977 2.29188 -2.55593 0
M  V30 9838 N 916.422 0.810101 1.35185 0
M  V30 9839 C 917.668 0.392698 1.98962 0
M  V30 9840 C 918.001 -1.03835 1.64109 0
M  V30 9841 O 917.276 -1.721 0.9062 0
M  V30 9842 C 917.559 0.580349 3.55393 0
M  V30 9843 C 917.412 2.05658 4.00031 0
M  V30 9844 C 918.731 0.00822618 4.40099 0
M  V30 9845 H 915.85 0.144157 0.722764 0
M  V30 9846 H 918.492 1.02029 1.60281 0
M  V30 9847 H 916.642 0.0461106 3.88473 0
M  V30 9848 H 918.314 2.65348 3.77344 0
M  V30 9849 H 916.557 2.55174 3.50811 0
M  V30 9850 H 917.228 2.13875 5.08883 0
M  V30 9851 H 919.704 0.464517 4.13499 0
M  V30 9852 H 918.58 0.169414 5.48638 0
M  V30 9853 H 918.841 -1.08576 4.2856 0
M  V30 9854 N 917.9 -1.47166 0.563914 0
M  V30 9855 C 919.128 -2.06846 0.0474287 0
M  V30 9856 C 919.543 -1.41557 -1.24928 0
M  V30 9857 O 918.9 -0.514376 -1.75101 0
M  V30 9858 C 918.951 -3.6121 -0.144831 0
M  V30 9859 O 918.672 -4.24052 1.10053 0
M  V30 9860 C 920.173 -4.37773 -0.69783 0
M  V30 9861 H 917.393 -0.669217 0.0488896 0
M  V30 9862 H 919.937 -1.89072 0.779235 0
M  V30 9863 H 918.092 -3.78474 -0.82679 0
M  V30 9864 H 918.506 -5.16677 0.902481 0
M  V30 9865 H 919.98 -5.46438 -0.781616 0
M  V30 9866 H 920.457 -4.04517 -1.71063 0
M  V30 9867 H 921.063 -4.25269 -0.0513516 0
M  V30 9868 N 919.378 -0.300708 -1.54705 0
M  V30 9869 C 920.308 0.568675 -2.26469 0
M  V30 9870 C 921.289 1.13817 -1.26411 0
M  V30 9871 O 922.474 1.16756 -1.55183 0
M  V30 9872 C 919.604 1.74077 -3.00524 0
M  V30 9873 C 918.558 1.30165 -4.07727 0
M  V30 9874 C 917.884 2.55888 -4.69495 0
M  V30 9875 C 919.184 0.433106 -5.20501 0
M  V30 9876 H 920.878 -0.0298851 -2.99385 0
M  V30 9877 H 918.424 -0.0158135 -1.43991 0
M  V30 9878 H 920.377 2.35506 -3.49449 0
M  V30 9879 H 919.101 2.36556 -2.25186 0
M  V30 9880 H 917.76 0.710414 -3.59651 0
M  V30 9881 H 917.408 3.16681 -3.90797 0
M  V30 9882 H 917.108 2.27207 -5.41895 0
M  V30 9883 H 918.632 3.18121 -5.21183 0
M  V30 9884 H 920.046 0.95307 -5.65322 0
M  V30 9885 H 918.443 0.240085 -5.9962 0
M  V30 9886 H 919.513 -0.541866 -4.81863 0
M  V30 9887 N 920.856 1.57574 -0.0284266 0
M  V30 9888 C 921.788 2.07079 0.982391 0
M  V30 9889 C 922.801 0.994078 1.28926 0
M  V30 9890 O 923.99 1.27028 1.25404 0
M  V30 9891 C 921.09 2.47978 2.30998 0
M  V30 9892 C 920.263 3.7872 2.18838 0
M  V30 9893 C 919.322 4.06177 3.34524 0
M  V30 9894 O 918.348 4.76438 3.11441 0
M  V30 9895 N 919.55 3.56297 4.58293 0
M  V30 9896 H 922.315 2.94421 0.560011 0
M  V30 9897 H 919.876 1.61124 0.158347 0
M  V30 9898 H 921.868 2.63439 3.07216 0
M  V30 9899 H 920.438 1.66005 2.64879 0
M  V30 9900 H 919.658 3.73062 1.27351 0
M  V30 9901 H 920.946 4.6438 2.07915 0
M  V30 9902 H 920.344 2.99453 4.79942 0
M  V30 9903 H 918.901 3.77038 5.31682 0
M  V30 9904 N 922.334 -0.244713 1.55689 0
M  V30 9905 C 923.583 -0.970373 1.76824 0
M  V30 9906 C 923.896 -1.86402 0.592764 0
M  V30 9907 O 925.102 -2.62659 0.687186 0
M  V30 9908 C 923.558 -1.77547 3.13058 0
M  V30 9909 C 923.166 -0.929104 4.3826 0
M  V30 9910 C 924.91 -2.49373 3.43531 0
M  V30 9911 C 922.817 -1.73021 5.65524 0
M  V30 9912 H 921.747 -0.366048 0.659185 0
M  V30 9913 H 924.398 -0.224964 1.82116 0
M  V30 9914 H 922.78 -2.56291 3.01879 0
M  V30 9915 H 923.954 -0.183836 4.60433 0
M  V30 9916 H 922.269 -0.324071 4.15137 0
M  V30 9917 H 924.866 -3.09767 4.35831 0
M  V30 9918 H 925.209 -3.21099 2.64955 0
M  V30 9919 H 925.742 -1.77637 3.55935 0
M  V30 9920 H 922.481 -1.05666 6.46927 0
M  V30 9921 H 922.001 -2.45071 5.47449 0
M  V30 9922 H 923.68 -2.2968 6.0486 0
M  V30 9923 N 923.813 -1.49104 -0.510467 0
M  V30 9924 C 925.09 -1.48609 -1.27179 0
M  V30 9925 C 925.47 -0.208537 -2.10067 0
M  V30 9926 O 924.818 0.809335 -2.13687 0
M  V30 9927 C 925.028 -2.75953 -2.1366 0
M  V30 9928 C 926.376 -3.25067 -2.73161 0
M  V30 9929 O 927.4 -2.77005 -2.23934 0
M  V30 9930 O 926.259 -4.08747 -3.62751 0
M  V30 9931 H 923.353 -0.594374 -0.57502 0
M  V30 9932 H 925.899 -1.61358 -0.525515 0
M  V30 9933 H 924.671 -3.60434 -1.52325 0
M  V30 9934 H 924.294 -2.66019 -2.95499 0
M  V30 9935 N 925.291 0.760815 -1.38019 0
M  V30 9936 C 926.538 1.51973 -1.3383 0
M  V30 9937 C 926.866 1.9436 0.0738855 0
M  V30 9938 O 926.121 1.65181 1.04946 0
M  V30 9939 C 926.42 2.79024 -2.23339 0
M  V30 9940 C 926.086 2.55636 -3.71431 0
M  V30 9941 C 924.748 2.48966 -4.11788 0
M  V30 9942 C 927.1 2.35018 -4.65205 0
M  V30 9943 C 924.428 2.19684 -5.44018 0
M  V30 9944 C 926.78 2.07258 -5.97685 0
M  V30 9945 C 925.444 1.9904 -6.37134 0
M  V30 9946 H 924.714 0.556108 -0.489719 0
M  V30 9947 H 927.361 0.87545 -1.70318 0
M  V30 9948 H 925.666 3.48065 -1.79883 0
M  V30 9949 H 927.363 3.36951 -2.17405 0
M  V30 9950 H 923.953 2.61695 -3.39432 0
M  V30 9951 H 928.137 2.39154 -4.34878 0
M  V30 9952 H 923.393 2.11825 -5.73533 0
M  V30 9953 H 927.567 1.90307 -6.69893 0
M  V30 9954 H 925.194 1.76115 -7.39519 0
M  V30 9955 N 926.769 1.22769 0.988202 0
M  V30 9956 C 928.18 1.0512 1.54294 0
M  V30 9957 C 928.531 -0.383904 1.92407 0
M  V30 9958 O 927.656 -1.26955 1.75246 0
M  V30 9959 C 928.251 1.90198 2.80375 0
M  V30 9960 C 926.81 1.76831 3.32276 0
M  V30 9961 C 925.957 1.86377 2.05326 0
M  V30 9962 H 928.908 1.36546 0.808758 0
M  V30 9963 H 928.929 1.42216 3.52923 0
M  V30 9964 H 928.441 2.9464 2.52605 0
M  V30 9965 H 926.542 0.751412 3.64945 0
M  V30 9966 H 926.655 2.59771 4.02562 0
M  V30 9967 H 925.019 1.2987 2.19103 0
M  V30 9968 H 925.802 2.9236 1.79946 0
M  V30 9969 N 928.247 -1.18576 1.03814 0
M  V30 9970 C 929.21 -2.2033 0.63146 0
M  V30 9971 C 930.21 -1.57787 -0.309816 0
M  V30 9972 O 931.4 -1.73938 -0.0955598 0
M  V30 9973 C 928.532 -3.40818 -0.0745963 0
M  V30 9974 H 929.725 -2.57824 1.53189 0
M  V30 9975 H 927.278 -1.32416 0.830398 0
M  V30 9976 H 928.013 -3.08853 -0.988947 0
M  V30 9977 H 927.798 -3.87453 0.6019 0
M  V30 9978 H 929.288 -4.16166 -0.345727 0
M  V30 9979 N 929.725 -0.817259 -1.34754 0
M  V30 9980 C 930.953 -0.415451 -2.02686 0
M  V30 9981 C 931.368 0.97688 -1.61563 0
M  V30 9982 O 930.725 1.63125 -0.818321 0
M  V30 9983 C 930.776 -0.501486 -3.58005 0
M  V30 9984 O 930.497 -1.83893 -3.97637 0
M  V30 9985 C 931.998 -0.0938504 -4.43201 0
M  V30 9986 H 929.218 -0.16742 -0.649778 0
M  V30 9987 H 931.762 -1.10384 -1.7215 0
M  V30 9988 H 929.917 0.138766 -3.87151 0
M  V30 9989 H 930.331 -1.8092 -4.92309 0
M  V30 9990 H 931.805 -0.205145 -5.51619 0
M  V30 9991 H 932.282 0.962011 -4.28535 0
M  V30 9992 H 932.888 -0.707677 -4.19371 0
M  V30 9993 N 931.203 1.46865 -0.571711 0
M  V30 9994 C 932.451 2.0203 -0.0530022 0
M  V30 9995 C 932.772 1.44687 1.30731 0
M  V30 9996 O 932.042 0.627429 1.85581 0
M  V30 9997 H 930.622 0.746815 -0.0166035 0
M  V30 9998 H 933.284 1.80099 -0.745003 0
M  V30 9999 H 932.38 3.12091 0.0242538 0
M  V30 10000 N 932.681 0.308908 1.54543 0
M  V30 10001 C 933.927 -0.291311 2.01303 0
M  V30 10002 C 934.282 -1.50917 1.19339 0
M  V30 10003 O 933.575 -1.89776 0.263724 0
M  V30 10004 C 933.769 -0.691522 3.50646 0
M  V30 10005 C 933.598 0.486007 4.47066 0
M  V30 10006 C 932.368 0.980515 4.95695 0
M  V30 10007 C 934.566 1.33352 4.96711 0
M  V30 10008 N 932.548 2.12398 5.75986 0
M  V30 10009 C 933.919 2.32436 5.74781 0
M  V30 10010 C 935.974 1.36298 4.78881 0
M  V30 10011 C 934.677 3.34252 6.36921 0
M  V30 10012 C 936.703 2.36976 5.41845 0
M  V30 10013 C 936.065 3.34789 6.19755 0
M  V30 10014 H 932.164 -0.0708418 0.778785 0
M  V30 10015 H 934.748 0.440621 1.89649 0
M  V30 10016 H 932.919 -1.39261 3.62575 0
M  V30 10017 H 934.651 -1.27196 3.84192 0
M  V30 10018 H 931.406 0.55419 4.70346 0
M  V30 10019 H 931.83 2.70036 6.20814 0
M  V30 10020 H 936.472 0.620472 4.18222 0
M  V30 10021 H 934.19 4.09417 6.96709 0
M  V30 10022 H 937.776 2.40039 5.29974 0
M  V30 10023 H 936.656 4.11418 6.67611 0
M  V30 10024 N 934.159 -1.57557 0.0367827 0
M  V30 10025 C 935.069 -2.14148 -0.958017 0
M  V30 10026 C 936.085 -1.09564 -1.35173 0
M  V30 10027 O 937.261 -1.4166 -1.43158 0
M  V30 10028 C 934.326 -2.6636 -2.21931 0
M  V30 10029 C 933.387 -3.85688 -1.8853 0
M  V30 10030 C 932.62 -4.35401 -3.08645 0
M  V30 10031 O 932.843 -3.8425 -4.21554 0
M  V30 10032 O 931.777 -5.27158 -2.90497 0
M  V30 10033 H 935.603 -2.99442 -0.506797 0
M  V30 10034 H 933.188 -1.48259 -0.184275 0
M  V30 10035 H 935.07 -2.99976 -2.9596 0
M  V30 10036 H 933.745 -1.84145 -2.66219 0
M  V30 10037 H 932.652 -3.56985 -1.11861 0
M  V30 10038 H 933.985 -4.69089 -1.49052 0
M  V30 10039 N 935.637 0.236453 -1.55816 0
M  V30 10040 C 936.867 0.978873 -1.81939 0
M  V30 10041 C 937.275 1.79041 -0.611647 0
M  V30 10042 O 936.618 1.78616 0.429172 0
M  V30 10043 C 936.68 1.9569 -3.01572 0
M  V30 10044 C 936.344 1.33131 -4.37178 0
M  V30 10045 C 937.341 0.728585 -5.1477 0
M  V30 10046 C 935.026 1.34755 -4.83887 0
M  V30 10047 C 937.02 0.150427 -6.37222 0
M  V30 10048 C 934.707 0.765539 -6.06286 0
M  V30 10049 C 935.705 0.168017 -6.82793 0
M  V30 10050 O 935.393 -0.404976 -8.02879 0
M  V30 10051 H 935.125 0.293186 -0.609113 0
M  V30 10052 H 937.679 0.261384 -2.0373 0
M  V30 10053 H 935.909 2.71298 -2.75562 0
M  V30 10054 H 937.598 2.56362 -3.14695 0
M  V30 10055 H 938.364 0.708477 -4.79797 0
M  V30 10056 H 934.243 1.80202 -4.24321 0
M  V30 10057 H 937.787 -0.316586 -6.96881 0
M  V30 10058 H 933.684 0.78301 -6.40733 0
M  V30 10059 H 934.452 -0.29785 -8.17958 0
M  V30 10060 N 937.115 1.49373 0.502552 0
M  V30 10061 C 938.048 1.60529 1.6219 0
M  V30 10062 C 939.026 0.454431 1.56121 0
M  V30 10063 O 940.21 0.669768 1.762 0
M  V30 10064 C 937.337 1.55879 3.00698 0
M  V30 10065 C 936.383 2.76143 3.25034 0
M  V30 10066 S 937.216 4.37831 3.08325 0
M  V30 10067 C 938.372 4.35824 4.49231 0
M  V30 10068 H 938.605 2.55219 1.52482 0
M  V30 10069 H 936.138 1.38244 0.687594 0
M  V30 10070 H 938.096 1.53882 3.80566 0
M  V30 10071 H 936.757 0.624791 3.07823 0
M  V30 10072 H 935.95 2.69104 4.26144 0
M  V30 10073 H 935.552 2.75544 2.52886 0
M  V30 10074 H 937.844 4.07447 5.41288 0
M  V30 10075 H 938.787 5.37206 4.6132 0
M  V30 10076 H 939.195 3.65923 4.29838 0
M  V30 10077 N 938.594 -0.753485 1.38421 0
M  V30 10078 C 939.541 -1.86723 1.35659 0
M  V30 10079 C 940.511 -1.64648 0.219121 0
M  V30 10080 O 941.696 -1.86313 0.411366 0
M  V30 10081 C 938.836 -3.24023 1.18758 0
M  V30 10082 C 937.949 -3.57928 2.41892 0
M  V30 10083 C 937.084 -4.84532 2.17721 0
M  V30 10084 C 936.123 -5.11224 3.36626 0
M  V30 10085 N 935.26 -6.29023 3.11889 0
M  V30 10086 H 940.1 -1.88419 2.30873 0
M  V30 10087 H 937.637 -0.920934 1.14705 0
M  V30 10088 H 939.595 -4.03252 1.06974 0
M  V30 10089 H 938.225 -3.21654 0.27182 0
M  V30 10090 H 937.277 -2.73541 2.64347 0
M  V30 10091 H 938.589 -3.73581 3.30513 0
M  V30 10092 H 937.743 -5.71704 2.03074 0
M  V30 10093 H 936.482 -4.71018 1.26465 0
M  V30 10094 H 935.487 -4.2252 3.51791 0
M  V30 10095 H 936.712 -5.26635 4.28757 0
M  V30 10096 H 934.658 -6.16832 2.2328 0
M  V30 10097 H 934.575 -6.45177 3.9406 0
M  V30 10098 H 935.843 -7.19083 3.00898 0
M  V30 10099 N 940.072 -1.23292 -0.981677 0
M  V30 10100 C 941.483 -1.05936 -1.53735 0
M  V30 10101 C 941.834 0.373695 -1.92608 0
M  V30 10102 O 940.959 1.26024 -1.75917 0
M  V30 10103 C 941.554 -1.91682 -2.79363 0
M  V30 10104 C 940.113 -1.78591 -3.31334 0
M  V30 10105 C 939.26 -1.87463 -2.04335 0
M  V30 10106 H 942.211 -1.36973 -0.801505 0
M  V30 10107 H 942.232 -1.44085 -3.52164 0
M  V30 10108 H 941.744 -2.95975 -2.51039 0
M  V30 10109 H 939.845 -0.770755 -3.64541 0
M  V30 10110 H 939.958 -2.61902 -4.01179 0
M  V30 10111 H 938.322 -1.3103 -2.18411 0
M  V30 10112 H 939.105 -2.9331 -1.78394 0
M  V30 10113 N 941.55 1.18024 -1.04442 0
M  V30 10114 C 942.827 1.8398 -0.664125 0
M  V30 10115 C 943.207 1.92961 0.856116 0
M  V30 10116 O 942.555 1.45839 1.75907 0
M  V30 10117 C 942.765 3.22069 -1.34433 0
M  V30 10118 C 944.113 3.98063 -1.47754 0
M  V30 10119 O 945.137 3.31523 -1.30274 0
M  V30 10120 O 943.996 5.17291 -1.76272 0
M  V30 10121 H 941.09 0.793543 -0.23285 0
M  V30 10122 H 943.636 1.25385 -1.14354 0
M  V30 10123 H 942.408 3.10458 -2.38184 0
M  V30 10124 H 942.031 3.88325 -0.853782 0
M  V30 10125 N 943.028 0.824394 1.34319 0
M  V30 10126 C 944.253 0.425194 2.02995 0
M  V30 10127 C 944.678 -0.961476 1.6167 0
M  V30 10128 O 944.036 -1.62593 0.80207 0
M  V30 10129 C 944.084 0.537004 3.56579 0
M  V30 10130 O 943.188 -0.442576 4.10018 0
M  V30 10131 H 942.529 0.174853 0.640564 0
M  V30 10132 H 945.059 1.11522 1.71534 0
M  V30 10133 H 945.069 0.413311 4.05901 0
M  V30 10134 H 943.744 1.54836 3.86004 0
M  V30 10135 H 942.321 -0.277644 3.71865 0
M  V30 10136 N 944.506 -1.46559 0.579492 0
M  V30 10137 C 945.416 -2.34066 -0.15816 0
M  V30 10138 C 946.432 -1.49556 -0.88932 0
M  V30 10139 O 947.608 -1.82434 -0.853226 0
M  V30 10140 C 944.673 -3.26683 -1.161 0
M  V30 10141 C 943.734 -4.27092 -0.434855 0
M  V30 10142 C 942.967 -5.15283 -1.38992 0
M  V30 10143 O 943.19 -5.06345 -2.62623 0
M  V30 10144 O 942.124 -5.95099 -0.902253 0
M  V30 10145 H 945.95 -2.98488 0.560234 0
M  V30 10146 H 943.535 -1.45482 0.339918 0
M  V30 10147 H 945.417 -3.8383 -1.73932 0
M  V30 10148 H 944.092 -2.64862 -1.86091 0
M  V30 10149 H 942.999 -3.73641 0.185224 0
M  V30 10150 H 944.332 -4.9169 0.224031 0
M  V30 10151 N 945.984 -0.3171 -1.54377 0
M  V30 10152 C 946.894 0.560867 -2.27797 0
M  V30 10153 C 947.91 1.13473 -1.31908 0
M  V30 10154 O 949.086 1.15608 -1.64914 0
M  V30 10155 C 946.151 1.70886 -3.0166 0
M  V30 10156 C 945.212 1.16745 -4.13121 0
M  V30 10157 C 944.445 2.26073 -4.83453 0
M  V30 10158 O 944.668 3.46292 -4.53252 0
M  V30 10159 O 943.602 1.91856 -5.70504 0
M  V30 10160 H 947.428 -0.035193 -3.0368 0
M  V30 10161 H 945.013 -0.0830062 -1.49169 0
M  V30 10162 H 946.895 2.37736 -3.47936 0
M  V30 10163 H 945.57 2.29122 -2.28658 0
M  V30 10164 H 944.477 0.464224 -3.71209 0
M  V30 10165 H 945.81 0.630307 -4.88147 0
M  V30 10166 N 947.462 1.57535 -0.0451378 0
M  V30 10167 C 948.41 2.12351 0.949205 0
M  V30 10168 C 949.404 1.05386 1.32628 0
M  V30 10169 O 950.61 1.23802 1.30664 0
M  V30 10170 H 946.985 0.678648 0.323945 0
M  V30 10171 H 948.956 2.94806 0.461718 0
M  V30 10172 C 947.705 2.67862 2.21687 0
M  V30 10173 H 947.028 3.49826 1.93551 0
M  V30 10174 H 948.468 3.09844 2.89435 0
M  V30 10175 C 946.927 1.61353 2.95748 0
M  V30 10176 O 947.457 1.02276 3.88462 0
M  V30 10177 N 945.663 1.33017 2.5837 0
M  V30 10178 H 945.21 1.81246 1.83051 0
M  V30 10179 H 945.168 0.619812 3.0823 0
M  V30 10180 N 948.94 -0.228186 1.55939 0
M  V30 10181 C 950.356 -0.577583 1.48782 0
M  V30 10182 C 950.556 -1.87461 0.738972 0
M  V30 10183 O 949.612 -2.50988 0.275929 0
M  V30 10184 C 950.925 -0.662961 2.93301 0
M  V30 10185 C 952.473 -0.754035 3.03782 0
M  V30 10186 C 952.948 -0.870815 4.49645 0
M  V30 10187 N 954.439 -0.935208 4.53661 0
M  V30 10188 C 955.174 -1.04516 5.63794 0
M  V30 10189 N 954.67 -1.11948 6.83696 0
M  V30 10190 N 956.463 -1.07978 5.51631 0
M  V30 10191 H 948.614 0.623018 2.03057 0
M  V30 10192 H 950.877 0.217692 0.922667 0
M  V30 10193 H 950.583 0.220375 3.51009 0
M  V30 10194 H 950.457 -1.52876 3.44831 0
M  V30 10195 H 952.844 -1.62782 2.46143 0
M  V30 10196 H 952.925 0.137301 2.55431 0
M  V30 10197 H 952.569 -0.0015186 5.079 0
M  V30 10198 H 952.499 -1.77747 4.95695 0
M  V30 10199 H 954.99 -0.88836 3.6731 0
M  V30 10200 H 955.303 -1.20297 7.6338 0
M  V30 10201 H 953.648 -1.08873 6.8642 0
M  V30 10202 H 956.839 -1.01833 4.56889 0
M  V30 10203 H 957.012 -1.16202 6.37496 0
M  V30 10204 N 950.418 -1.49637 -0.494624 0
M  V30 10205 C 951.643 -1.63431 -1.27691 0
M  V30 10206 C 952.068 -0.30813 -1.85559 0
M  V30 10207 O 951.426 0.725083 -1.66169 0
M  V30 10208 C 951.474 -2.71043 -2.3784 0
M  V30 10209 O 950.578 -2.3066 -3.41862 0
M  V30 10210 H 949.919 -0.546804 -0.376698 0
M  V30 10211 H 952.449 -1.95866 -0.591413 0
M  V30 10212 H 952.459 -2.93406 -2.83508 0
M  V30 10213 H 951.134 -3.67306 -1.95088 0
M  V30 10214 H 949.711 -2.18652 -3.02069 0
M  V30 10215 N 951.896 0.746133 -1.38819 0
M  V30 10216 C 952.844 1.88137 -1.36774 0
M  V30 10217 C 953.838 1.67508 -0.252495 0
M  V30 10218 O 955.044 1.74985 -0.421935 0
M  V30 10219 H 951.419 0.619116 -0.426849 0
M  V30 10220 H 953.39 1.86978 -2.32555 0
M  V30 10221 C 952.139 3.25703 -1.21708 0
M  V30 10222 H 951.462 3.42168 -2.06788 0
M  V30 10223 H 952.902 4.05361 -1.24332 0
M  V30 10224 C 951.361 3.36816 0.0754257 0
M  V30 10225 O 951.891 3.87742 1.04972 0
M  V30 10226 N 950.097 2.90287 0.134761 0
M  V30 10227 H 949.644 2.49034 -0.658779 0
M  V30 10228 H 949.602 2.98103 0.999109 0
M  V30 10229 N 953.375 1.23811 0.975125 0
M  V30 10230 C 954.305 1.04846 2.08638 0
M  V30 10231 C 955.286 -0.0362859 1.70061 0
M  V30 10232 O 956.471 0.12937 1.93769 0
M  V30 10233 C 953.601 0.644534 3.41267 0
M  V30 10234 C 952.555 1.67722 3.93768 0
M  V30 10235 C 951.881 1.12857 5.22654 0
M  V30 10236 C 953.181 3.07147 4.22443 0
M  V30 10237 H 954.875 1.97795 2.24761 0
M  V30 10238 H 952.421 0.952397 1.08006 0
M  V30 10239 H 954.374 0.498887 4.18436 0
M  V30 10240 H 953.098 -0.320641 3.25022 0
M  V30 10241 H 951.757 1.81095 3.18748 0
M  V30 10242 H 951.405 0.154227 5.02764 0
M  V30 10243 H 951.105 1.81862 5.58749 0
M  V30 10244 H 952.629 0.994891 6.0244 0
M  V30 10245 H 954.043 2.97045 4.90344 0
M  V30 10246 H 952.44 3.73437 4.6975 0
M  V30 10247 H 953.51 3.55743 3.29507 0
M  V30 10248 N 954.853 -1.17469 1.05066 0
M  V30 10249 C 955.763 -2.25089 0.661222 0
M  V30 10250 C 956.779 -1.71086 -0.31712 0
M  V30 10251 O 957.955 -2.00685 -0.169534 0
M  V30 10252 C 955.02 -3.46676 0.0406415 0
M  V30 10253 C 954.081 -4.15771 1.06927 0
M  V30 10254 C 953.314 -5.31553 0.478208 0
M  V30 10255 O 953.537 -5.6593 -0.712714 0
M  V30 10256 O 952.471 -5.89574 1.21185 0
M  V30 10257 H 956.297 -2.60685 1.5581 0
M  V30 10258 H 953.882 -1.24744 0.822147 0
M  V30 10259 H 955.764 -4.203 -0.304312 0
M  V30 10260 H 954.439 -3.1288 -0.829909 0
M  V30 10261 H 953.346 -3.44171 1.46619 0
M  V30 10262 H 954.679 -4.53591 1.91092 0
M  V30 10263 N 956.331 -0.831506 -1.3388 0
M  V30 10264 C 957.241 -0.261688 -2.33136 0
M  V30 10265 C 958.257 0.608429 -1.63016 0
M  V30 10266 O 959.433 0.514297 -1.94723 0
M  V30 10267 C 956.498 0.559957 -3.42148 0
M  V30 10268 C 955.559 -0.333569 -4.28002 0
M  V30 10269 C 954.792 0.448956 -5.31808 0
M  V30 10270 O 955.015 1.6814 -5.45055 0
M  V30 10271 O 953.949 -0.173197 -6.01651 0
M  V30 10272 H 957.775 -1.08343 -2.83717 0
M  V30 10273 H 955.36 -0.593849 -1.3709 0
M  V30 10274 H 957.242 1.02712 -4.08691 0
M  V30 10275 H 955.917 1.35888 -2.93796 0
M  V30 10276 H 954.824 -0.848416 -3.64352 0
M  V30 10277 H 956.157 -1.09707 -4.79818 0
M  V30 10278 N 957.809 1.4625 -0.587256 0
M  V30 10279 C 959.22 1.85997 -0.161918 0
M  V30 10280 C 959.571 1.49025 1.27616 0
M  V30 10281 O 958.696 0.907282 1.96462 0
M  V30 10282 C 959.291 3.37582 -0.287077 0
M  V30 10283 C 957.85 3.76308 0.0834211 0
M  V30 10284 C 956.997 2.70259 -0.620932 0
M  V30 10285 H 959.948 1.3734 -0.795199 0
M  V30 10286 H 959.969 3.77379 0.486333 0
M  V30 10287 H 959.481 3.64459 -1.33383 0
M  V30 10288 H 957.582 3.55047 1.13013 0
M  V30 10289 H 957.695 4.78184 -0.296064 0
M  V30 10290 H 956.059 2.54628 -0.0607027 0
M  V30 10291 H 956.842 2.99975 -1.66942 0
M  V30 10292 N 959.287 0.325282 1.54207 0
M  V30 10293 C 960.217 -0.532574 2.27345 0
M  V30 10294 C 961.198 -1.11791 1.28206 0
M  V30 10295 O 962.383 -1.14272 1.57021 0
M  V30 10296 C 959.513 -1.69274 3.03255 0
M  V30 10297 C 958.467 -1.23662 4.09746 0
M  V30 10298 C 957.793 -2.48386 4.73506 0
M  V30 10299 C 959.093 -0.350244 5.21124 0
M  V30 10300 H 960.787 0.0775108 2.993 0
M  V30 10301 H 958.333 0.0387193 1.43948 0
M  V30 10302 H 960.286 -2.29917 3.53152 0
M  V30 10303 H 959.01 -2.32944 2.28921 0
M  V30 10304 H 957.669 -0.653106 3.60735 0
M  V30 10305 H 957.317 -3.10424 3.95786 0
M  V30 10306 H 957.017 -2.18558 5.45441 0
M  V30 10307 H 958.541 -3.09789 5.26178 0
M  V30 10308 H 959.955 -0.863011 5.66767 0
M  V30 10309 H 958.352 -0.14466 5.99926 0
M  V30 10310 H 959.422 0.618457 4.8094 0
M  V30 10311 N 960.765 -1.57509 0.0534917 0
M  V30 10312 C 961.712 -2.11667 -0.920101 0
M  V30 10313 C 962.682 -1.0246 -1.30733 0
M  V30 10314 O 963.867 -1.30021 -1.39639 0
M  V30 10315 C 961.007 -2.66803 -2.18883 0
M  V30 10316 C 960.12 -3.90104 -1.85588 0
M  V30 10317 C 959.255 -4.33547 -3.06937 0
M  V30 10318 C 958.294 -5.49542 -2.69573 0
M  V30 10319 N 957.431 -5.88029 -3.83623 0
M  V30 10320 H 962.271 -2.94562 -0.451371 0
M  V30 10321 H 959.808 -1.45576 -0.211168 0
M  V30 10322 H 961.766 -2.96871 -2.93127 0
M  V30 10323 H 960.396 -1.86702 -2.63329 0
M  V30 10324 H 959.448 -3.66613 -1.01484 0
M  V30 10325 H 960.76 -4.74404 -1.54087 0
M  V30 10326 H 959.914 -4.6518 -3.89477 0
M  V30 10327 H 958.653 -3.48064 -3.41618 0
M  V30 10328 H 957.658 -5.17579 -1.8545 0
M  V30 10329 H 958.883 -6.36743 -2.36082 0
M  V30 10330 H 956.829 -5.05498 -4.181 0
M  V30 10331 H 956.746 -6.67025 -3.55828 0
M  V30 10332 H 958.014 -6.24277 -4.66796 0
M  V30 10333 N 962.243 0.219913 -1.56058 0
M  V30 10334 C 963.153 1.29349 -1.95719 0
M  V30 10335 C 964.169 1.5119 -0.861248 0
M  V30 10336 O 965.345 1.64289 -1.16495 0
M  V30 10337 C 962.41 2.6229 -2.26726 0
M  V30 10338 C 961.471 2.48738 -3.49897 0
M  V30 10339 C 960.704 3.75339 -3.79416 0
M  V30 10340 O 960.927 4.78427 -3.10586 0
M  V30 10341 O 959.861 3.72352 -4.72903 0
M  V30 10342 H 963.687 0.986979 -2.87215 0
M  V30 10343 H 961.272 0.42291 -1.43289 0
M  V30 10344 H 963.154 3.408 -2.47857 0
M  V30 10345 H 961.829 2.92619 -1.38404 0
M  V30 10346 H 960.736 1.68422 -3.34043 0
M  V30 10347 H 962.069 2.23347 -4.38608 0
M  V30 10348 N 963.721 1.49897 0.486681 0
M  V30 10349 C 964.961 1.61732 1.24988 0
M  V30 10350 C 965.325 0.303724 1.89582 0
M  V30 10351 O 966.526 0.297373 2.6715 0
M  V30 10352 C 964.797 2.75429 2.27757 0
M  V30 10353 S 966.356 3.07304 3.13225 0
M  V30 10354 H 963.174 0.570316 0.424571 0
M  V30 10355 H 965.776 1.87617 0.549549 0
M  V30 10356 H 964.48 3.69376 1.78857 0
M  V30 10357 H 964.011 2.51582 3.0244 0
M  V30 10358 H 966.026 2.49928 4.28661 0
M  V30 10359 N 965.199 -0.738761 1.39212 0
M  V30 10360 C 966.448 -1.49368 1.35543 0
M  V30 10361 C 966.761 -1.95543 -0.0471091 0
M  V30 10362 O 967.967 -2.70714 -0.206376 0
M  V30 10363 C 966.423 -2.69882 2.381 0
M  V30 10364 C 966.031 -2.30672 3.8405 0
M  V30 10365 C 967.775 -3.47718 2.435 0
M  V30 10366 C 965.682 -3.47886 4.78256 0
M  V30 10367 H 964.612 -0.560898 0.503894 0
M  V30 10368 H 967.263 -0.806221 1.6484 0
M  V30 10369 H 965.645 -3.40684 2.01867 0
M  V30 10370 H 966.819 -1.67441 4.29302 0
M  V30 10371 H 965.134 -1.65936 3.81909 0
M  V30 10372 H 967.731 -4.34897 3.11077 0
M  V30 10373 H 968.074 -3.89919 1.45838 0
M  V30 10374 H 968.607 -2.83942 2.78606 0
M  V30 10375 H 965.346 -3.10739 5.77167 0
M  V30 10376 H 964.866 -4.10111 4.37686 0
M  V30 10377 H 966.545 -4.14271 4.96979 0
M  V30 10378 N 966.677 -1.24326 -0.968545 0
M  V30 10379 C 967.624 -1.0349 -2.06297 0
M  V30 10380 C 968.594 0.0515333 -1.6602 0
M  V30 10381 O 969.779 -0.102924 -1.90522 0
M  V30 10382 C 966.919 -0.64487 -3.39021 0
M  V30 10383 C 966.032 -1.80469 -3.92498 0
M  V30 10384 C 965.167 -1.36032 -5.13487 0
M  V30 10385 C 964.206 -2.49014 -5.59159 0
M  V30 10386 N 963.343 -2.05451 -6.71367 0
M  V30 10387 H 968.183 -1.97161 -2.23454 0
M  V30 10388 H 965.72 -0.982028 -1.0952 0
M  V30 10389 H 967.678 -0.399771 -4.1528 0
M  V30 10390 H 966.308 0.254845 -3.21792 0
M  V30 10391 H 965.36 -2.16348 -3.12886 0
M  V30 10392 H 966.672 -2.65365 -4.22354 0
M  V30 10393 H 965.826 -1.07405 -5.97117 0
M  V30 10394 H 964.565 -0.481887 -4.85313 0
M  V30 10395 H 963.57 -2.78402 -4.74102 0
M  V30 10396 H 964.795 -3.37413 -5.89346 0
M  V30 10397 H 962.741 -1.20004 -6.4493 0
M  V30 10398 H 962.658 -2.83901 -7.00668 0
M  V30 10399 H 963.926 -1.79962 -7.58442 0
M  V30 10400 N 968.156 1.1691 -1.05688 0
M  V30 10401 C 969.106 2.19056 -0.632339 0
M  V30 10402 C 970.09 1.574 0.333797 0
M  V30 10403 O 971.282 1.76361 0.150223 0
M  V30 10404 C 968.411 3.43297 -0.0138209 0
M  V30 10405 C 967.497 4.12042 -1.00408 0
M  V30 10406 N 967.888 4.56535 -2.17737 0
M  V30 10407 C 966.186 4.38139 -0.833663 0
M  V30 10408 C 966.887 5.09644 -2.80425 0
M  V30 10409 N 965.863 5.02153 -2.08191 0
M  V30 10410 H 969.665 2.51165 -1.52621 0
M  V30 10411 H 967.179 1.33294 -0.927707 0
M  V30 10412 H 969.176 4.1576 0.308117 0
M  V30 10413 H 967.836 3.12677 0.87538 0
M  V30 10414 H 968.847 4.50463 -2.55546 0
M  V30 10415 H 965.524 4.175 0.00406684 0
M  V30 10416 H 966.914 5.54153 -3.79952 0
M  V30 10417 N 969.634 0.838594 1.33437 0
M  V30 10418 C 970.883 0.430484 1.97053 0
M  V30 10419 C 971.196 -1.01556 1.6717 0
M  V30 10420 O 972.402 -1.52834 2.24397 0
M  V30 10421 C 970.858 0.718828 3.52648 0
M  V30 10422 C 970.466 2.17953 3.91408 0
M  V30 10423 C 972.21 0.377654 4.22817 0
M  V30 10424 C 970.117 2.41194 5.39981 0
M  V30 10425 H 969.047 0.157239 0.737422 0
M  V30 10426 H 971.698 1.02714 1.5206 0
M  V30 10427 H 970.08 0.0518042 3.95966 0
M  V30 10428 H 971.254 2.88701 3.59149 0
M  V30 10429 H 969.569 2.48366 3.34221 0
M  V30 10430 H 972.166 0.528926 5.32077 0
M  V30 10431 H 972.509 -0.679338 4.1072 0
M  V30 10432 H 973.042 0.999899 3.85028 0
M  V30 10433 H 969.781 3.45457 5.57081 0
M  V30 10434 H 969.301 1.75007 5.73701 0
M  V30 10435 H 970.98 2.24334 6.06863 0
M  V30 10436 N 971.112 -1.45937 0.595003 0
M  V30 10437 C 972.075 -2.2888 -0.121102 0
M  V30 10438 C 973.075 -1.39075 -0.807149 0
M  V30 10439 O 974.265 -1.61326 -0.657228 0
M  V30 10440 C 971.397 -3.19778 -1.1813 0
M  V30 10441 H 972.59 -2.93673 0.607968 0
M  V30 10442 H 970.143 -1.5225 0.353495 0
M  V30 10443 H 970.878 -2.59759 -1.94154 0
M  V30 10444 H 970.663 -3.85914 -0.693724 0
M  V30 10445 H 972.153 -3.82176 -1.68319 0
M  V30 10446 N 972.59 -0.333456 -1.54032 0
M  V30 10447 C 974.006 0.0188405 -1.59589 0
M  V30 10448 C 974.206 1.49615 -1.34972 0
M  V30 10449 O 973.262 2.2535 -1.13901 0
M  V30 10450 C 974.575 -0.408273 -2.97915 0
M  V30 10451 C 976.123 -0.359763 -3.10926 0
M  V30 10452 C 976.598 -0.76219 -4.51613 0
M  V30 10453 N 978.089 -0.715981 -4.57633 0
M  V30 10454 C 978.824 -0.999436 -5.64623 0
M  V30 10455 N 978.32 -1.35053 -6.79509 0
M  V30 10456 N 980.113 -0.924343 -5.54448 0
M  V30 10457 H 972.264 -1.29587 -1.68289 0
M  V30 10458 H 974.527 -0.527584 -0.787629 0
M  V30 10459 H 974.233 -1.43793 -3.20962 0
M  V30 10460 H 974.107 0.221685 -3.76548 0
M  V30 10461 H 976.494 0.660703 -2.87609 0
M  V30 10462 H 976.575 -1.02479 -2.34375 0
M  V30 10463 H 976.219 -1.78062 -4.75664 0
M  V30 10464 H 976.149 -0.0747478 -5.26547 0
M  V30 10465 H 978.64 -0.456875 -3.75128 0
M  V30 10466 H 978.953 -1.55194 -7.57057 0
M  V30 10467 H 977.298 -1.38889 -6.80981 0
M  V30 10468 H 980.489 -0.649469 -4.63573 0
M  V30 10469 H 980.662 -1.1486 -6.37739 0
M  V30 10470 N 974.068 1.57479 -0.061844 0
M  V30 10471 C 974.998 2.15181 0.9066 0
M  V30 10472 C 975.979 1.07624 1.31724 0
M  V30 10473 O 977.164 1.35614 1.39006 0
M  V30 10474 C 974.294 2.70542 2.17771 0
M  V30 10475 C 973.248 3.83178 1.9068 0
M  V30 10476 C 972.574 4.25099 3.24337 0
M  V30 10477 C 973.874 5.07853 1.21994 0
M  V30 10478 H 975.568 2.96355 0.42594 0
M  V30 10479 H 973.114 1.42556 0.203435 0
M  V30 10480 H 975.067 3.09552 2.85929 0
M  V30 10481 H 973.791 1.86575 2.68062 0
M  V30 10482 H 972.45 3.44656 1.24931 0
M  V30 10483 H 972.098 3.38069 3.72449 0
M  V30 10484 H 971.798 5.01021 3.07005 0
M  V30 10485 H 973.322 4.66718 3.93709 0
M  V30 10486 H 974.736 5.44242 1.80204 0
M  V30 10487 H 973.133 5.88987 1.14954 0
M  V30 10488 H 974.203 4.84497 0.197536 0
M  V30 10489 N 975.546 -0.211634 1.56173 0
M  V30 10490 C 976.771 -0.955324 1.84088 0
M  V30 10491 C 977.196 -1.76754 0.643407 0
M  V30 10492 O 976.554 -1.76653 -0.407842 0
M  V30 10493 C 976.602 -1.84063 3.10085 0
M  V30 10494 O 975.706 -2.9373 2.89476 0
M  V30 10495 H 975.047 -0.26996 0.606645 0
M  V30 10496 H 977.577 -0.221947 2.03393 0
M  V30 10497 H 977.587 -2.24852 3.40449 0
M  V30 10498 H 976.262 -1.24373 3.96868 0
M  V30 10499 H 974.839 -2.56816 2.7037 0
M  V30 10500 N 977.024 -1.50153 -0.478725 0
M  V30 10501 C 977.956 -1.64603 -1.59494 0
M  V30 10502 C 978.969 -0.527789 -1.54007 0
M  V30 10503 O 980.158 -0.80069 -1.59534 0
M  V30 10504 C 977.258 -1.60738 -2.98356 0
M  V30 10505 C 976.431 -2.88468 -3.28794 0
M  V30 10506 C 975.49 -2.77349 -4.47173 0
M  V30 10507 O 974.516 -3.51302 -4.47857 0
M  V30 10508 N 975.718 -1.9039 -5.4839 0
M  V30 10509 H 978.483 -2.6088 -1.47518 0
M  V30 10510 H 976.044 -1.47521 -0.667011 0
M  V30 10511 H 978.036 -1.50923 -3.75505 0
M  V30 10512 H 976.606 -0.722273 -3.04141 0
M  V30 10513 H 975.826 -3.12467 -2.40329 0
M  V30 10514 H 977.114 -3.73102 -3.45937 0
M  V30 10515 H 976.512 -1.29606 -5.50653 0
M  V30 10516 H 975.069 -1.86484 -6.24553 0
M  V30 10517 N 978.502 0.731368 -1.39602 0
M  V30 10518 C 979.449 1.84541 -1.38612 0
M  V30 10519 C 980.419 1.64279 -0.245287 0
M  V30 10520 O 981.604 1.85635 -0.440954 0
M  V30 10521 C 978.744 3.22092 -1.23897 0
M  V30 10522 C 977.857 3.54034 -2.47555 0
M  V30 10523 C 976.992 4.81007 -2.25402 0
M  V30 10524 C 976.031 5.05804 -3.44716 0
M  V30 10525 N 975.168 6.23981 -3.21857 0
M  V30 10526 H 980.008 1.84722 -2.33841 0
M  V30 10527 H 977.545 0.902569 -1.16156 0
M  V30 10528 H 979.503 4.01499 -1.13376 0
M  V30 10529 H 978.133 3.2118 -0.322958 0
M  V30 10530 H 977.185 2.69301 -2.68665 0
M  V30 10531 H 978.497 3.68275 -3.36415 0
M  V30 10532 H 977.651 5.68401 -2.12143 0
M  V30 10533 H 976.39 4.68946 -1.33943 0
M  V30 10534 H 975.395 4.1687 -3.58468 0
M  V30 10535 H 976.62 5.19747 -4.37081 0
M  V30 10536 H 974.566 6.13202 -2.33065 0
M  V30 10537 H 974.483 6.38826 -4.04274 0
M  V30 10538 H 975.751 7.14205 -3.123 0
M  V30 10539 N 979.98 1.24838 0.961938 0
M  V30 10540 C 980.912 1.00369 2.06055 0
M  V30 10541 C 981.925 -0.0288583 1.62774 0
M  V30 10542 O 983.114 0.208853 1.77274 0
M  V30 10543 C 980.214 0.493953 3.35281 0
M  V30 10544 C 979.387 1.59097 4.07439 0
M  V30 10545 C 978.446 1.08288 5.14937 0
M  V30 10546 O 977.472 1.77577 5.40791 0
M  V30 10547 N 978.674 -0.0796836 5.80445 0
M  V30 10548 H 981.439 1.94962 2.27618 0
M  V30 10549 H 979 1.15945 1.12997 0
M  V30 10550 H 980.992 0.138675 4.04462 0
M  V30 10551 H 979.562 -0.357851 3.10545 0
M  V30 10552 H 978.782 2.11817 3.32456 0
M  V30 10553 H 980.07 2.32817 4.52409 0
M  V30 10554 H 979.468 -0.658827 5.6185 0
M  V30 10555 H 978.025 -0.376057 6.50714 0
M  V30 10556 N 981.458 -1.16348 1.06306 0
M  V30 10557 C 982.686 -1.90782 0.800614 0
M  V30 10558 C 983.101 -1.77439 -0.645033 0
M  V30 10559 O 982.458 -1.11912 -1.4416 0
M  V30 10560 C 982.509 -3.41484 1.18621 0
M  V30 10561 O 982.23 -3.54428 2.57512 0
M  V30 10562 C 983.731 -4.32968 0.951525 0
M  V30 10563 H 980.951 -0.604977 0.290247 0
M  V30 10564 H 983.495 -1.47476 1.41672 0
M  V30 10565 H 981.65 -3.82493 0.614633 0
M  V30 10566 H 982.064 -4.4788 2.72954 0
M  V30 10567 H 983.538 -5.37169 1.27095 0
M  V30 10568 H 984.015 -4.39055 -0.112734 0
M  V30 10569 H 984.621 -3.97687 1.50749 0
M  V30 10570 N 982.937 -0.845659 -1.3299 0
M  V30 10571 C 984.348 -0.50048 -1.79867 0
M  V30 10572 C 984.699 0.981027 -1.69913 0
M  V30 10573 O 983.824 1.76477 -1.25239 0
M  V30 10574 C 984.419 -0.901679 -3.26581 0
M  V30 10575 C 982.978 -0.608536 -3.71448 0
M  V30 10576 C 982.125 -1.10632 -2.54275 0
M  V30 10577 H 985.076 -1.03372 -1.20416 0
M  V30 10578 H 985.097 -0.214433 -3.79895 0
M  V30 10579 H 984.609 -1.97998 -3.33794 0
M  V30 10580 H 982.71 0.459416 -3.69757 0
M  V30 10581 H 982.823 -1.16853 -4.64631 0
M  V30 10582 H 981.187 -0.526925 -2.4919 0
M  V30 10583 H 981.97 -2.19154 -2.64247 0
M  V30 10584 N 984.415 1.45619 -0.602734 0
M  V30 10585 C 985.345 2.33258 0.106342 0
M  V30 10586 C 986.326 1.46543 0.863664 0
M  V30 10587 O 987.511 1.75324 0.835175 0
M  V30 10588 C 984.641 3.29168 1.10751 0
M  V30 10589 C 983.595 4.25481 0.463717 0
M  V30 10590 C 982.921 5.11046 1.57278 0
M  V30 10591 C 984.221 5.18702 -0.61199 0
M  V30 10592 H 985.915 2.92795 -0.625423 0
M  V30 10593 H 983.461 1.40793 -0.302213 0
M  V30 10594 H 985.414 3.89346 1.61208 0
M  V30 10595 H 984.138 2.6778 1.8698 0
M  V30 10596 H 982.797 3.66595 -0.0199496 0
M  V30 10597 H 982.445 4.46029 2.32524 0
M  V30 10598 H 982.145 5.76286 1.14755 0
M  V30 10599 H 983.669 5.74091 2.07972 0
M  V30 10600 H 985.083 5.72979 -0.191686 0
M  V30 10601 H 983.48 5.92393 -0.958686 0
M  V30 10602 H 984.55 4.61424 -1.4905 0
M  V30 10603 N 985.893 0.34162 1.53853 0
M  V30 10604 C 986.823 -0.508431 2.27897 0
M  V30 10605 C 987.804 -1.10425 1.29384 0
M  V30 10606 O 988.989 -1.126 1.58224 0
M  V30 10607 C 986.119 -1.66048 3.05034 0
M  V30 10608 C 985.073 -1.19309 4.11035 0
M  V30 10609 C 984.399 -2.4335 4.76114 0
M  V30 10610 C 985.699 -0.294952 5.21467 0
M  V30 10611 H 987.393 0.109251 2.99201 0
M  V30 10612 H 984.939 0.0539847 1.43899 0
M  V30 10613 H 986.892 -2.26158 3.5557 0
M  V30 10614 H 985.616 -2.30503 2.31379 0
M  V30 10615 H 984.275 -0.614809 3.61408 0
M  V30 10616 H 983.923 -3.06208 3.99056 0
M  V30 10617 H 983.623 -2.1276 5.47729 0
M  V30 10618 H 985.147 -3.0419 5.29434 0
M  V30 10619 H 986.561 -0.80285 5.67651 0
M  V30 10620 H 984.958 -0.0810221 6.00045 0
M  V30 10621 H 986.028 0.669433 4.80257 0
M  V30 10622 N 987.371 -1.57444 0.0701946 0
M  V30 10623 C 988.301 -2.15659 -0.895176 0
M  V30 10624 C 989.282 -1.08321 -1.31151 0
M  V30 10625 O 990.467 -1.36349 -1.38284 0
M  V30 10626 C 987.597 -2.71693 -2.16334 0
M  V30 10627 C 986.551 -3.84183 -1.88645 0
M  V30 10628 C 985.877 -4.26814 -3.22078 0
M  V30 10629 C 987.177 -5.08493 -1.19299 0
M  V30 10630 H 988.871 -2.96576 -0.410217 0
M  V30 10631 H 986.417 -1.42662 -0.195872 0
M  V30 10632 H 988.37 -3.11064 -2.84284 0
M  V30 10633 H 987.094 -1.87994 -2.67069 0
M  V30 10634 H 985.753 -3.45314 -1.23101 0
M  V30 10635 H 985.401 -3.40039 -3.70651 0
M  V30 10636 H 985.101 -5.02642 -3.04344 0
M  V30 10637 H 986.625 -4.68799 -3.91228 0
M  V30 10638 H 988.039 -5.4519 -1.77316 0
M  V30 10639 H 986.436 -5.89588 -1.11828 0
M  V30 10640 H 987.506 -4.84595 -0.171839 0
M  V30 10641 N 988.849 0.203349 -1.56283 0
M  V30 10642 C 990.074 0.945548 -1.84592 0
M  V30 10643 C 990.499 1.7641 -0.652772 0
M  V30 10644 O 989.857 1.76867 0.398468 0
M  V30 10645 C 989.905 1.82416 -3.11057 0
M  V30 10646 O 989.009 2.92191 -2.9103 0
M  V30 10647 H 988.35 0.266739 -0.608068 0
M  V30 10648 H 990.88 0.211158 -2.03507 0
M  V30 10649 H 990.89 2.23044 -3.41636 0
M  V30 10650 H 989.565 1.22267 -3.97522 0
M  V30 10651 H 988.142 2.55378 -2.71728 0
M  V30 10652 N 990.327 1.50405 0.470755 0
M  V30 10653 C 991.237 1.7208 1.59454 0
M  V30 10654 C 992.253 0.603932 1.63183 0
M  V30 10655 O 993.429 0.882296 1.81046 0
M  V30 10656 C 990.494 1.81057 2.95667 0
M  V30 10657 C 989.555 3.04792 3.02324 0
M  V30 10658 C 988.788 3.13332 4.3204 0
M  V30 10659 O 989.011 2.28655 5.22564 0
M  V30 10660 O 987.945 4.0606 4.44296 0
M  V30 10661 H 991.771 2.67343 1.44089 0
M  V30 10662 H 989.356 1.34505 0.650286 0
M  V30 10663 H 991.238 1.8914 3.76569 0
M  V30 10664 H 989.913 0.889782 3.11231 0
M  V30 10665 H 988.82 3.0221 2.205 0
M  V30 10666 H 990.153 3.96451 2.91698 0
M  V30 10667 N 991.805 -0.723954 1.39988 0
M  V30 10668 C 992.715 -1.86829 1.41887 0
M  V30 10669 C 993.731 -1.71173 0.312401 0
M  V30 10670 O 994.907 -1.93583 0.555651 0
M  V30 10671 C 991.972 -3.22541 1.27154 0
M  V30 10672 C 991.033 -3.50512 2.47871 0
M  V30 10673 C 990.266 -4.79749 2.33831 0
M  V30 10674 O 990.489 -5.54251 1.34765 0
M  V30 10675 O 989.423 -5.07868 3.23039 0
M  V30 10676 H 993.249 -1.88183 2.38371 0
M  V30 10677 H 990.834 -0.873259 1.21221 0
M  V30 10678 H 992.716 -4.0362 1.21114 0
M  V30 10679 H 991.391 -3.21933 0.337715 0
M  V30 10680 H 990.298 -2.69475 2.59488 0
M  V30 10681 H 991.631 -3.55909 3.39985 0
M  V30 10682 N 993.283 -1.25346 -0.955304 0
M  V30 10683 C 994.23 -1.05672 -2.05188 0
M  V30 10684 C 995.2 0.0339217 -1.66065 0
M  V30 10685 O 996.385 -0.123126 -1.90402 0
M  V30 10686 C 993.525 -0.680791 -3.38318 0
M  V30 10687 C 992.638 -1.84622 -3.90562 0
M  V30 10688 C 991.773 -1.41471 -5.12015 0
M  V30 10689 C 990.812 -2.54931 -5.56486 0
M  V30 10690 N 989.949 -2.1256 -6.69151 0
M  V30 10691 H 994.789 -1.9952 -2.2135 0
M  V30 10692 H 992.326 -0.993588 -1.08472 0
M  V30 10693 H 994.284 -0.443794 -4.14833 0
M  V30 10694 H 992.914 0.2207 -3.22045 0
M  V30 10695 H 991.966 -2.19654 -3.10574 0
M  V30 10696 H 993.278 -2.6983 -4.19515 0
M  V30 10697 H 992.432 -1.13732 -5.95945 0
M  V30 10698 H 991.171 -0.533334 -4.84775 0
M  V30 10699 H 990.176 -2.83415 -4.71122 0
M  V30 10700 H 991.401 -3.43645 -5.85734 0
M  V30 10701 H 989.347 -1.26838 -6.43621 0
M  V30 10702 H 989.264 -2.91317 -6.97618 0
M  V30 10703 H 990.532 -1.87996 -7.5649 0
M  V30 10704 N 994.761 1.15782 -1.06922 0
M  V30 10705 C 995.708 2.2038 -0.685659 0
M  V30 10706 C 996.678 1.62972 0.320816 0
M  V30 10707 O 997.863 1.8966 0.208258 0
M  V30 10708 C 995.003 3.44995 -0.084998 0
M  V30 10709 C 994.116 4.16621 -1.14242 0
M  V30 10710 C 993.251 5.28773 -0.507226 0
M  V30 10711 C 992.29 5.92209 -1.54774 0
M  V30 10712 N 991.427 6.9584 -0.935443 0
M  V30 10713 H 996.267 2.5254 -1.58201 0
M  V30 10714 H 993.804 1.24031 -0.790864 0
M  V30 10715 H 995.762 4.16254 0.280845 0
M  V30 10716 H 994.392 3.13365 0.774725 0
M  V30 10717 H 993.444 3.43903 -1.62589 0
M  V30 10718 H 994.756 4.59884 -1.93154 0
M  V30 10719 H 993.91 6.06635 -0.0887719 0
M  V30 10720 H 992.649 4.8669 0.313704 0
M  V30 10721 H 991.654 5.13063 -1.97602 0
M  V30 10722 H 992.879 6.3637 -2.37088 0
M  V30 10723 H 990.825 6.5586 -0.135339 0
M  V30 10724 H 990.742 7.37508 -1.66186 0
M  V30 10725 H 992.01 7.77611 -0.542346 0
M  V30 10726 N 996.239 0.8527 1.3254 0
M  V30 10727 C 997.655 0.542298 1.50104 0
M  V30 10728 C 997.855 -0.927465 1.78886 0
M  V30 10729 O 996.911 -1.7106 1.85728 0
M  V30 10730 C 998.224 1.4276 2.64651 0
M  V30 10731 C 999.772 1.42782 2.78536 0
M  V30 10732 C 1000.25 2.29828 3.9616 0
M  V30 10733 N 1001.74 2.27613 4.03418 0
M  V30 10734 C 1002.47 2.91696 4.93661 0
M  V30 10735 N 1001.97 3.64883 5.88925 0
M  V30 10736 N 1003.76 2.81094 4.86768 0
M  V30 10737 H 995.913 1.80395 1.12123 0
M  V30 10738 H 998.176 0.770394 0.552446 0
M  V30 10739 H 997.882 2.47266 2.50105 0
M  V30 10740 H 997.756 1.11358 3.60388 0
M  V30 10741 H 1000.14 0.390417 2.92506 0
M  V30 10742 H 1000.22 1.78198 1.83519 0
M  V30 10743 H 999.868 3.33635 3.82949 0
M  V30 10744 H 999.798 1.91746 4.9045 0
M  V30 10745 H 1002.29 1.74402 3.3525 0
M  V30 10746 H 1002.6 4.10952 6.54476 0
M  V30 10747 H 1000.95 3.68991 5.88957 0
M  V30 10748 H 1004.14 2.23469 4.11314 0
M  V30 10749 H 1004.31 3.31318 5.56895 0
M  V30 10750 N 997.718 -1.45297 0.610449 0
M  V30 10751 C 998.948 -2.0629 0.113047 0
M  V30 10752 C 999.356 -1.45527 -1.20907 0
M  V30 10753 O 998.699 -0.564837 -1.74801 0
M  V30 10754 C 998.761 -3.59366 -0.0979692 0
M  V30 10755 C 998.425 -4.42481 1.14279 0
M  V30 10756 C 999.422 -4.77277 2.06161 0
M  V30 10757 C 997.107 -4.83187 1.37241 0
M  V30 10758 C 999.101 -5.51639 3.19333 0
M  V30 10759 C 996.788 -5.57303 2.50713 0
M  V30 10760 C 997.786 -5.91445 3.41587 0
M  V30 10761 O 997.474 -6.64056 4.53083 0
M  V30 10762 H 997.206 -0.67264 0.0673159 0
M  V30 10763 H 999.76 -1.87486 0.838937 0
M  V30 10764 H 997.99 -3.76582 -0.878783 0
M  V30 10765 H 999.679 -4.02193 -0.547327 0
M  V30 10766 H 1000.44 -4.46384 1.89647 0
M  V30 10767 H 996.324 -4.56045 0.67407 0
M  V30 10768 H 999.868 -5.78207 3.90286 0
M  V30 10769 H 995.765 -5.8761 2.67179 0
M  V30 10770 H 996.533 -6.82509 4.51801 0
M  V30 10771 N 999.196 -0.349774 -1.5367 0
M  V30 10772 C 1000.13 0.496338 -2.28164 0
M  V30 10773 C 1001.11 1.09737 -1.29968 0
M  V30 10774 O 1002.29 1.11759 -1.58819 0
M  V30 10775 C 999.422 1.64428 -3.0591 0
M  V30 10776 C 998.376 1.17127 -4.11661 0
M  V30 10777 C 997.702 2.40822 -4.77398 0
M  V30 10778 C 999.002 0.267293 -5.21616 0
M  V30 10779 H 1000.7 -0.125117 -2.99138 0
M  V30 10780 H 998.242 -0.0616152 -1.43868 0
M  V30 10781 H 1000.19 2.2427 -3.56765 0
M  V30 10782 H 998.919 2.29272 -2.32598 0
M  V30 10783 H 997.578 0.595634 -3.61729 0
M  V30 10784 H 997.226 3.04088 -4.00674 0
M  V30 10785 H 996.926 2.09852 -5.48849 0
M  V30 10786 H 998.45 3.01378 -5.3104 0
M  V30 10787 H 999.864 0.772734 -5.68068 0
M  V30 10788 H 998.261 0.0491991 -6.0008 0
M  V30 10789 H 999.331 -0.694892 -4.79895 0
M  V30 10790 N 1000.67 1.57404 -0.0785433 0
M  V30 10791 C 1001.92 1.9484 0.583853 0
M  V30 10792 C 1002.27 0.958758 1.6681 0
M  V30 10793 O 1001.57 -0.0179065 1.91592 0
M  V30 10794 C 1001.76 3.36684 1.1991 0
M  V30 10795 C 1001.59 4.49356 0.175978 0
M  V30 10796 C 1000.36 5.04721 -0.241733 0
M  V30 10797 C 1002.56 5.10911 -0.589415 0
M  V30 10798 N 1000.54 6.00938 -1.25485 0
M  V30 10799 C 1001.91 6.0269 -1.45483 0
M  V30 10800 C 1003.97 4.93708 -0.644746 0
M  V30 10801 C 1002.67 6.79111 -2.37066 0
M  V30 10802 C 1004.7 5.70778 -1.54812 0
M  V30 10803 C 1004.06 6.6221 -2.40119 0
M  V30 10804 H 1000.16 0.75993 0.184472 0
M  V30 10805 H 1002.74 1.94064 -0.157259 0
M  V30 10806 H 1000.91 3.38186 1.91011 0
M  V30 10807 H 1002.64 3.6134 1.82251 0
M  V30 10808 H 999.399 4.73385 0.142732 0
M  V30 10809 H 999.823 6.53746 -1.75912 0
M  V30 10810 H 1004.46 4.228 0.000601434 0
M  V30 10811 H 1002.18 7.49292 -3.02634 0
M  V30 10812 H 1005.77 5.59485 -1.59586 0
M  V30 10813 H 1004.65 7.20804 -3.08887 0
M  V30 10814 N 1002.15 -0.195058 1.56388 0
M  V30 10815 C 1003.4 -0.915444 1.80626 0
M  V30 10816 C 1003.73 -1.83255 0.651768 0
M  V30 10817 O 1002.98 -1.92314 -0.362464 0
M  V30 10818 C 1003.28 -1.7637 3.10851 0
M  V30 10819 C 1002.95 -0.997572 4.39726 0
M  V30 10820 C 1001.61 -0.786043 4.74737 0
M  V30 10821 C 1003.96 -0.45851 5.19179 0
M  V30 10822 C 1001.29 -0.023972 5.86695 0
M  V30 10823 C 1003.64 0.29035 6.31933 0
M  V30 10824 C 1002.3 0.512895 6.65527 0
M  V30 10825 H 1001.57 -0.334985 0.660959 0
M  V30 10826 H 1004.22 -0.181815 1.90635 0
M  V30 10827 H 1002.53 -2.566 2.9608 0
M  V30 10828 H 1004.22 -2.3237 3.26811 0
M  V30 10829 H 1000.81 -1.17245 4.12252 0
M  V30 10830 H 1005 -0.609334 4.92545 0
M  V30 10831 H 1000.25 0.158421 6.11195 0
M  V30 10832 H 1004.43 0.715429 6.92715 0
M  V30 10833 H 1002.05 1.10531 7.52122 0
M  V30 10834 N 1003.63 -1.50653 -0.462772 0
M  V30 10835 C 1004.86 -1.65586 -1.23551 0
M  V30 10836 C 1005.27 -0.342012 -1.86083 0
M  V30 10837 O 1004.61 0.686893 -1.70374 0
M  V30 10838 C 1004.67 -2.69555 -2.37867 0
M  V30 10839 C 1004.34 -4.1288 -1.95906 0
M  V30 10840 C 1005.33 -4.98483 -1.47685 0
M  V30 10841 C 1003.02 -4.58843 -2.04373 0
M  V30 10842 C 1005.01 -6.281 -1.08484 0
M  V30 10843 C 1002.7 -5.88464 -1.64783 0
M  V30 10844 C 1003.7 -6.72918 -1.16918 0
M  V30 10845 O 1003.39 -8.00119 -0.778798 0
M  V30 10846 H 1003.12 -0.559438 -0.37948 0
M  V30 10847 H 1005.67 -1.9768 -0.557816 0
M  V30 10848 H 1003.9 -2.3272 -3.08834 0
M  V30 10849 H 1005.59 -2.73624 -2.99808 0
M  V30 10850 H 1006.36 -4.64186 -1.40558 0
M  V30 10851 H 1002.24 -3.93247 -2.40577 0
M  V30 10852 H 1005.78 -6.93972 -0.710524 0
M  V30 10853 H 1001.68 -6.22281 -1.71571 0
M  V30 10854 H 1002.44 -8.1346 -0.906911 0
M  V30 10855 N 1005.11 0.71652 -1.4037 0
M  V30 10856 C 1006.52 1.02447 -1.22379 0
M  V30 10857 C 1006.72 2.0126 -0.0983394 0
M  V30 10858 O 1005.78 2.46569 0.544071 0
M  V30 10859 C 1007.09 1.56909 -2.56515 0
M  V30 10860 C 1008.64 1.68898 -2.6352 0
M  V30 10861 C 1009.12 2.26765 -3.97922 0
M  V30 10862 N 1010.61 2.34152 -3.99658 0
M  V30 10863 C 1011.34 2.79907 -5.00439 0
M  V30 10864 N 1010.84 3.25422 -6.11615 0
M  V30 10865 N 1012.63 2.79283 -4.87809 0
M  V30 10866 H 1004.78 0.0615306 -2.12311 0
M  V30 10867 H 1007.05 0.0898994 -0.943728 0
M  V30 10868 H 1006.75 0.917649 -3.39517 0
M  V30 10869 H 1006.63 2.55446 -2.77538 0
M  V30 10870 H 1009.01 2.33159 -1.8089 0
M  V30 10871 H 1009.09 0.689626 -2.46329 0
M  V30 10872 H 1008.74 1.63126 -4.80991 0
M  V30 10873 H 1008.67 3.27413 -4.12442 0
M  V30 10874 H 1011.16 2.02006 -3.19378 0
M  V30 10875 H 1011.47 3.58899 -6.84406 0
M  V30 10876 H 1009.82 3.23383 -6.15181 0
M  V30 10877 H 1013.01 2.43061 -4.00049 0
M  V30 10878 H 1013.18 3.14626 -5.66493 0
M  V30 10879 N 1006.59 1.25851 0.948643 0
M  V30 10880 C 1007.83 1.10954 1.69397 0
M  V30 10881 C 1008.16 -0.348443 1.91353 0
M  V30 10882 O 1007.42 -1.27285 1.48651 0
M  V30 10883 C 1007.72 1.81565 3.07846 0
M  V30 10884 C 1007.38 3.31477 3.0567 0
M  V30 10885 C 1006.04 3.72371 3.04784 0
M  V30 10886 C 1008.4 4.27225 2.98543 0
M  V30 10887 C 1005.72 5.07416 2.94527 0
M  V30 10888 C 1008.08 5.62301 2.89828 0
M  V30 10889 C 1006.74 6.02516 2.87281 0
M  V30 10890 H 1006.01 0.406011 0.619868 0
M  V30 10891 H 1008.66 1.562 1.10787 0
M  V30 10892 H 1006.96 1.28767 3.70035 0
M  V30 10893 H 1008.66 1.67486 3.64348 0
M  V30 10894 H 1005.25 2.98941 3.07135 0
M  V30 10895 H 1009.43 3.96618 2.98342 0
M  V30 10896 H 1004.69 5.37746 2.90928 0
M  V30 10897 H 1008.86 6.36182 2.83276 0
M  V30 10898 H 1006.49 7.07116 2.79089 0
M  V30 10899 N 1008.06 -1.15214 1.07534 0
M  V30 10900 C 1009.29 -1.89647 0.819614 0
M  V30 10901 C 1009.7 -1.78365 -0.631072 0
M  V30 10902 O 1009.05 -1.1346 -1.44474 0
M  V30 10903 C 1009.11 -3.40573 1.1511 0
M  V30 10904 C 1008.77 -3.7564 2.60276 0
M  V30 10905 C 1009.77 -3.76507 3.58523 0
M  V30 10906 C 1007.45 -4.05891 2.95901 0
M  V30 10907 C 1009.45 -4.07133 4.9043 0
M  V30 10908 C 1007.13 -4.36182 4.28005 0
M  V30 10909 C 1008.13 -4.36785 5.25079 0
M  V30 10910 O 1007.82 -4.66348 6.54809 0
M  V30 10911 H 1007.55 -0.607836 0.295822 0
M  V30 10912 H 1010.11 -1.46895 1.43565 0
M  V30 10913 H 1008.34 -3.83734 0.478033 0
M  V30 10914 H 1010.03 -3.96299 0.877615 0
M  V30 10915 H 1010.79 -3.53233 3.32342 0
M  V30 10916 H 1006.67 -4.0458 2.20989 0
M  V30 10917 H 1010.21 -4.07519 5.66193 0
M  V30 10918 H 1006.11 -4.58924 4.53937 0
M  V30 10919 H 1006.88 -4.84105 6.59988 0
M  V30 10920 N 1009.54 -0.859717 -1.32086 0
M  V30 10921 C 1010.78 -0.471939 -1.98877 0
M  V30 10922 C 1011.15 0.955689 -1.66525 0
M  V30 10923 O 1012.35 1.44829 -2.26447 0
M  V30 10924 C 1010.62 -0.710016 -3.50276 0
M  V30 10925 S 1012.18 -0.420566 -4.3678 0
M  V30 10926 H 1009 -0.176588 -0.688722 0
M  V30 10927 H 1011.6 -1.11352 -1.60689 0
M  V30 10928 H 1010.3 -1.74803 -3.71311 0
M  V30 10929 H 1009.83 -0.0550429 -3.93361 0
M  V30 10930 H 1011.85 0.751362 -4.90478 0
M  V30 10931 N 1011.02 1.44971 -0.618145 0
M  V30 10932 C 1011.97 2.32354 0.106846 0
M  V30 10933 C 1012.96 1.4659 0.848984 0
M  V30 10934 O 1014.17 1.63012 0.763354 0
M  V30 10935 H 1010.54 0.750108 0.0533109 0
M  V30 10936 H 1012.51 2.9127 -0.648426 0
M  V30 10937 C 1011.26 3.30381 1.08368 0
M  V30 10938 H 1010.59 3.96377 0.52205 0
M  V30 10939 H 1012.03 3.94231 1.56069 0
M  V30 10940 C 1010.49 2.58336 2.1625 0
M  V30 10941 O 1011.02 2.37258 3.24148 0
M  V30 10942 N 1009.22 2.18292 1.91825 0
M  V30 10943 H 1008.77 2.35635 1.04086 0
M  V30 10944 H 1008.73 1.70413 2.6421 0
M  V30 10945 N 1012.5 0.357919 1.53482 0
M  V30 10946 C 1013.45 -0.507364 2.26999 0
M  V30 10947 C 1014.44 -1.08987 1.29685 0
M  V30 10948 O 1015.65 -1.03396 1.47341 0
M  V30 10949 H 1012.02 -0.182326 0.729562 0
M  V30 10950 H 1013.99 0.134547 2.98097 0
M  V30 10951 C 1012.74 -1.63911 3.06641 0
M  V30 10952 H 1012.06 -1.20017 3.81361 0
M  V30 10953 H 1013.5 -2.21943 3.61272 0
M  V30 10954 C 1011.96 -2.57697 2.17011 0
M  V30 10955 O 1012.49 -3.60318 1.77578 0
M  V30 10956 N 1010.7 -2.2671 1.818 0
M  V30 10957 H 1010.25 -1.43296 2.14065 0
M  V30 10958 H 1010.2 -2.89716 1.22115 0
M  V30 10959 N 1013.98 -1.5736 0.0868897 0
M  V30 10960 C 1014.89 -2.17087 -0.889402 0
M  V30 10961 C 1015.9 -1.13809 -1.31619 0
M  V30 10962 O 1017.08 -1.46143 -1.38579 0
M  V30 10963 C 1014.14 -2.73286 -2.13344 0
M  V30 10964 C 1013.2 -3.91491 -1.76164 0
M  V30 10965 C 1012.44 -4.45 -2.94637 0
M  V30 10966 O 1012.66 -3.97467 -4.09116 0
M  V30 10967 O 1011.59 -5.36133 -2.73579 0
M  V30 10968 H 1015.42 -3.00902 -0.411275 0
M  V30 10969 H 1013.01 -1.4877 -0.137015 0
M  V30 10970 H 1014.89 -3.0924 -2.86266 0
M  V30 10971 H 1013.56 -1.92521 -2.60225 0
M  V30 10972 H 1012.47 -3.60363 -1.00447 0
M  V30 10973 H 1013.8 -4.73593 -1.34053 0
M  V30 10974 N 1015.45 0.186762 -1.56489 0
M  V30 10975 C 1016.4 1.25084 -1.96104 0
M  V30 10976 C 1017.4 1.4667 -0.847609 0
M  V30 10977 O 1018.6 1.47432 -1.03266 0
M  V30 10978 H 1014.98 0.420121 -0.623701 0
M  V30 10979 H 1016.95 0.889761 -2.84826 0
M  V30 10980 C 1015.7 2.5863 -2.32392 0
M  V30 10981 H 1015.02 2.42838 -3.176 0
M  V30 10982 H 1016.46 3.3181 -2.63967 0
M  V30 10983 C 1014.92 3.16241 -1.16159 0
M  V30 10984 O 1015.45 3.99272 -0.441034 0
M  V30 10985 N 1013.66 2.75106 -0.936206 0
M  V30 10986 H 1013.2 2.0769 -1.5239 0
M  V30 10987 H 1013.16 3.13991 -0.160317 0
M  V30 10988 N 1016.93 1.50896 0.454776 0
M  V30 10989 C 1018.17 1.64347 1.21529 0
M  V30 10990 C 1018.54 0.343869 1.88896 0
M  V30 10991 O 1019.74 0.353973 2.66459 0
M  V30 10992 C 1018.01 2.80199 2.21864 0
M  V30 10993 S 1019.57 3.13879 3.06636 0
M  V30 10994 H 1016.39 0.579193 0.412379 0
M  V30 10995 H 1018.99 1.88741 0.509629 0
M  V30 10996 H 1017.69 3.73086 1.70982 0
M  V30 10997 H 1017.22 2.57941 2.97036 0
M  V30 10998 H 1019.24 2.58964 4.23264 0
M  V30 10999 N 1018.41 -0.709066 1.40748 0
M  V30 11000 C 1019.64 -1.50313 1.42901 0
M  V30 11001 C 1020.06 -1.88072 0.032213 0
M  V30 11002 O 1019.42 -1.53716 -0.96131 0
M  V30 11003 C 1019.47 -2.75074 2.33166 0
M  V30 11004 O 1018.57 -3.72036 1.7794 0
M  V30 11005 H 1017.91 -0.452934 0.485538 0
M  V30 11006 H 1020.44 -0.872712 1.85054 0
M  V30 11007 H 1020.45 -3.23532 2.48578 0
M  V30 11008 H 1019.13 -2.46927 3.34664 0
M  V30 11009 H 1017.7 -3.30911 1.71908 0
M  V30 11010 N 1019.89 -1.26353 -0.941956 0
M  V30 11011 C 1020.82 -1.10341 -2.05784 0
M  V30 11012 C 1021.8 -0.00881565 -1.70098 0
M  V30 11013 O 1022.99 -0.180699 -1.93357 0
M  V30 11014 C 1020.12 -0.734788 -3.39438 0
M  V30 11015 C 1019.07 -1.78103 -3.89183 0
M  V30 11016 C 1018.4 -1.26675 -5.19478 0
M  V30 11017 C 1019.7 -3.1824 -4.14151 0
M  V30 11018 H 1021.39 -2.03684 -2.19438 0
M  V30 11019 H 1018.94 -0.980698 -1.05443 0
M  V30 11020 H 1020.89 -0.609653 -4.16967 0
M  V30 11021 H 1019.61 0.234354 -3.25758 0
M  V30 11022 H 1018.27 -1.89482 -3.13835 0
M  V30 11023 H 1017.92 -0.287472 -5.02178 0
M  V30 11024 H 1017.62 -1.96612 -5.53731 0
M  V30 11025 H 1019.14 -1.15427 -5.99591 0
M  V30 11026 H 1020.56 -3.09942 -4.82296 0
M  V30 11027 H 1018.95 -3.8576 -4.59684 0
M  V30 11028 H 1020.02 -3.64354 -3.19959 0
M  V30 11029 N 1021.37 1.14642 -1.08144 0
M  V30 11030 C 1022.78 1.6719 -0.830923 0
M  V30 11031 C 1023.13 1.85373 0.642749 0
M  V30 11032 O 1022.25 1.56293 1.49671 0
M  V30 11033 C 1022.85 3.03697 -1.50179 0
M  V30 11034 C 1021.41 3.5329 -1.29858 0
M  V30 11035 C 1020.56 2.28828 -1.5663 0
M  V30 11036 H 1023.51 0.987441 -1.24239 0
M  V30 11037 H 1023.53 3.69023 -0.9275 0
M  V30 11038 H 1023.04 2.90431 -2.57432 0
M  V30 11039 H 1021.14 3.71783 -0.246626 0
M  V30 11040 H 1021.25 4.34231 -2.02436 0
M  V30 11041 H 1019.62 2.34769 -0.987716 0
M  V30 11042 H 1020.4 2.18141 -2.65084 0
M  V30 11043 N 1022.85 0.866709 1.31628 0
M  V30 11044 C 1023.78 0.335762 2.31073 0
M  V30 11045 C 1024.76 -0.571597 1.60209 0
M  V30 11046 O 1025.94 -0.489306 1.87935 0
M  V30 11047 C 1023.07 -0.466416 3.44154 0
M  V30 11048 C 1022.03 0.347561 4.26586 0
M  V30 11049 C 1021.35 -0.5801 5.31544 0
M  V30 11050 C 1022.65 1.57986 4.97833 0
M  V30 11051 H 1024.35 1.16673 2.75731 0
M  V30 11052 H 1021.89 0.56248 1.3256 0
M  V30 11053 H 1023.84 -0.84836 4.12772 0
M  V30 11054 H 1022.57 -1.33086 2.98254 0
M  V30 11055 H 1021.23 0.71141 3.59631 0
M  V30 11056 H 1020.88 -1.44174 4.81895 0
M  V30 11057 H 1020.58 -0.0393965 5.87587 0
M  V30 11058 H 1022.1 -0.958958 6.03023 0
M  V30 11059 H 1023.51 1.26954 5.59067 0
M  V30 11060 H 1021.91 2.05939 5.63657 0
M  V30 11061 H 1022.98 2.3345 4.25005 0
M  V30 11062 N 1024.32 -1.44642 0.625825 0
M  V30 11063 C 1025.57 -2.02393 0.128391 0
M  V30 11064 C 1025.9 -1.49075 -1.2446 0
M  V30 11065 O 1025.18 -0.672684 -1.82497 0
M  V30 11066 C 1025.46 -3.59934 0.109279 0
M  V30 11067 C 1025.31 -4.23546 1.51423 0
M  V30 11068 C 1026.63 -4.36406 -0.568985 0
M  V30 11069 H 1023.75 -0.735427 0.0481299 0
M  V30 11070 H 1026.39 -1.72277 0.801286 0
M  V30 11071 H 1024.54 -3.85722 -0.463726 0
M  V30 11072 H 1026.22 -4.08882 2.13572 0
M  V30 11073 H 1024.46 -3.81245 2.06966 0
M  V30 11074 H 1025.13 -5.32535 1.45294 0
M  V30 11075 H 1027.61 -4.1602 -0.0817516 0
M  V30 11076 H 1026.48 -5.46122 -0.551527 0
M  V30 11077 H 1026.74 -4.1062 -1.6384 0
M  V30 11078 N 1025.8 -0.366053 -1.5329 0
M  V30 11079 C 1026.73 0.47211 -2.28677 0
M  V30 11080 C 1027.71 1.08353 -1.31125 0
M  V30 11081 O 1028.9 1.10069 -1.59995 0
M  V30 11082 C 1026.03 1.61174 -3.07637 0
M  V30 11083 C 1024.98 1.12755 -4.12881 0
M  V30 11084 C 1024.31 2.35745 -4.79925 0
M  V30 11085 C 1025.61 0.211954 -5.2187 0
M  V30 11086 H 1027.3 -0.156838 -2.98989 0
M  V30 11087 H 1024.85 -0.0768709 -1.43795 0
M  V30 11088 H 1026.8 2.20473 -3.59123 0
M  V30 11089 H 1025.52 2.26793 -2.35016 0
M  V30 11090 H 1024.18 0.557234 -3.6234 0
M  V30 11091 H 1023.83 2.99821 -4.03877 0
M  V30 11092 H 1023.53 2.04019 -5.51044 0
M  V30 11093 H 1025.06 2.95729 -5.34207 0
M  V30 11094 H 1026.47 0.71244 -5.68856 0
M  V30 11095 H 1024.87 -0.0144501 -6.00098 0
M  V30 11096 H 1025.94 -0.745753 -4.79131 0
M  V30 11097 N 1027.28 1.57312 -0.0952337 0
M  V30 11098 C 1028.53 1.93974 0.567319 0
M  V30 11099 C 1028.85 0.977805 1.68713 0
M  V30 11100 O 1028.12 0.0298944 1.95877 0
M  V30 11101 H 1026.7 0.71612 0.212558 0
M  V30 11102 H 1029.36 1.94254 -0.158598 0
M  V30 11103 H 1028.46 2.964 0.977423 0
M  V30 11104 N 1028.76 -0.17846 1.56586 0
M  V30 11105 C 1029.98 -0.916061 1.86073 0
M  V30 11106 C 1030.41 -1.75349 0.680754 0
M  V30 11107 O 1029.77 -1.77479 -0.37028 0
M  V30 11108 C 1029.81 -1.77445 3.1392 0
M  V30 11109 O 1028.92 -2.87524 2.95641 0
M  V30 11110 H 1028.26 -0.257031 0.612234 0
M  V30 11111 H 1030.79 -0.178755 2.03818 0
M  V30 11112 H 1030.8 -2.1758 3.45142 0
M  V30 11113 H 1029.47 -1.15927 3.99417 0
M  V30 11114 H 1028.05 -2.51023 2.75757 0
M  V30 11115 N 1030.24 -1.51135 -0.446768 0
M  V30 11116 C 1031.2 -1.71187 -1.52406 0
M  V30 11117 C 1032.2 -0.582037 -1.49897 0
M  V30 11118 O 1033.39 -0.849452 -1.52085 0
M  V30 11119 C 1030.52 -1.75962 -2.91976 0
M  V30 11120 H 1031.71 -2.67324 -1.35934 0
M  V30 11121 H 1029.27 -1.40982 -0.674813 0
M  V30 11122 H 1030 -0.816065 -3.13864 0
M  V30 11123 H 1029.79 -2.58065 -2.95203 0
M  V30 11124 H 1031.28 -1.93347 -3.70144 0
M  V30 11125 N 1031.71 0.701592 -1.41122 0
M  V30 11126 C 1033.12 1.28129 -1.35793 0
M  V30 11127 C 1033.48 1.96163 -0.0381185 0
M  V30 11128 O 1032.6 1.98416 0.863723 0
M  V30 11129 C 1033.2 2.33005 -2.45955 0
M  V30 11130 C 1031.75 2.86566 -2.44043 0
M  V30 11131 C 1030.9 1.60526 -2.26112 0
M  V30 11132 H 1033.85 0.496756 -1.50725 0
M  V30 11133 H 1033.87 3.14163 -2.14667 0
M  V30 11134 H 1033.39 1.8346 -3.42 0
M  V30 11135 H 1031.49 3.40304 -1.51737 0
M  V30 11136 H 1031.6 3.37406 -3.40138 0
M  V30 11137 H 1029.96 1.86113 -1.7388 0
M  V30 11138 H 1030.75 1.12985 -3.24175 0
M  V30 11139 N 1033.19 1.2685 0.935242 0
M  V30 11140 C 1034.44 1.12522 1.67878 0
M  V30 11141 C 1034.76 -0.330894 1.92172 0
M  V30 11142 O 1034.03 -1.23259 1.52263 0
M  V30 11143 H 1032.61 0.413418 0.622169 0
M  V30 11144 H 1035.27 1.59267 1.12339 0
M  V30 11145 H 1034.37 1.64853 2.65009 0
M  V30 11146 N 1034.67 -1.14067 1.0875 0
M  V30 11147 C 1035.92 -1.85677 0.830392 0
M  V30 11148 C 1036.27 -1.81549 -0.637016 0
M  V30 11149 O 1035.56 -1.23774 -1.46255 0
M  V30 11150 C 1035.76 -3.33273 1.29089 0
M  V30 11151 C 1035.59 -3.51774 2.80153 0
M  V30 11152 C 1034.36 -3.66419 3.47944 0
M  V30 11153 C 1036.56 -3.48399 3.78316 0
M  V30 11154 N 1034.54 -3.73112 4.87504 0
M  V30 11155 C 1035.91 -3.61378 5.03791 0
M  V30 11156 C 1037.96 -3.31758 3.7127 0
M  V30 11157 C 1036.67 -3.59435 6.23056 0
M  V30 11158 C 1038.69 -3.31119 4.90014 0
M  V30 11159 C 1038.05 -3.44643 6.1433 0
M  V30 11160 H 1034.15 -0.695948 0.356625 0
M  V30 11161 H 1036.74 -1.36687 1.38654 0
M  V30 11162 H 1034.91 -3.80846 0.762274 0
M  V30 11163 H 1036.64 -3.92659 0.979828 0
M  V30 11164 H 1033.4 -3.67799 2.98364 0
M  V30 11165 H 1033.82 -3.80167 5.6018 0
M  V30 11166 H 1038.46 -3.2021 2.76089 0
M  V30 11167 H 1036.18 -3.69758 7.18544 0
M  V30 11168 H 1039.77 -3.1945 4.86254 0
M  V30 11169 H 1038.65 -3.44101 7.04673 0
M  V30 11170 N 1036.15 -0.873678 -1.31166 0
M  V30 11171 C 1037.43 -0.40698 -1.91319 0
M  V30 11172 C 1037.81 1.1113 -1.79481 0
M  V30 11173 O 1037.15 1.94155 -1.20483 0
M  V30 11174 C 1037.36 -0.892484 -3.37396 0
M  V30 11175 C 1038.71 -0.920795 -4.14496 0
M  V30 11176 O 1039.74 -0.838386 -3.46193 0
M  V30 11177 O 1038.59 -1.04069 -5.365 0
M  V30 11178 H 1035.69 -0.122439 -0.817886 0
M  V30 11179 H 1038.23 -0.961835 -1.3981 0
M  V30 11180 H 1037.01 -1.93613 -3.40044 0
M  V30 11181 H 1036.63 -0.31615 -3.96341 0
M  V30 11182 N 1037.63 1.44308 -0.633487 0
M  V30 11183 C 1038.54 2.34492 0.0711787 0
M  V30 11184 C 1039.55 1.52754 0.8332 0
M  V30 11185 O 1040.73 1.85475 0.784929 0
M  V30 11186 C 1037.79 3.30767 1.03895 0
M  V30 11187 C 1036.85 4.28412 0.276043 0
M  V30 11188 C 1036.09 5.20087 1.19772 0
M  V30 11189 O 1036.31 5.15743 2.4365 0
M  V30 11190 O 1035.24 5.98038 0.680764 0
M  V30 11191 H 1039.07 2.96203 -0.67063 0
M  V30 11192 H 1036.66 1.4412 -0.393678 0
M  V30 11193 H 1038.54 3.90021 1.59566 0
M  V30 11194 H 1037.21 2.71586 1.76133 0
M  V30 11195 H 1036.12 3.72696 -0.32377 0
M  V30 11196 H 1037.45 4.9052 -0.406364 0
M  V30 11197 N 1039.1 0.374177 1.53094 0
M  V30 11198 C 1040.52 0.0234783 1.59583 0
M  V30 11199 C 1040.72 -1.45984 1.38892 0
M  V30 11200 O 1039.78 -2.22251 1.19836 0
M  V30 11201 C 1041.09 0.487117 2.96728 0
M  V30 11202 C 1042.64 0.442073 3.09862 0
M  V30 11203 C 1043.11 0.881659 4.49434 0
M  V30 11204 N 1044.6 0.837062 4.55574 0
M  V30 11205 C 1045.34 1.14878 5.61774 0
M  V30 11206 N 1044.83 1.53022 6.75689 0
M  V30 11207 N 1046.63 1.07102 5.51802 0
M  V30 11208 H 1038.78 1.34003 1.64794 0
M  V30 11209 H 1041.04 0.548281 0.773364 0
M  V30 11210 H 1040.75 1.52252 3.17037 0
M  V30 11211 H 1040.62 -0.121772 3.77003 0
M  V30 11212 H 1043.01 -0.584216 2.89259 0
M  V30 11213 H 1043.09 1.08657 2.31576 0
M  V30 11214 H 1042.73 1.90611 4.70776 0
M  V30 11215 H 1042.66 0.214326 5.26164 0
M  V30 11216 H 1045.15 0.556173 3.73785 0
M  V30 11217 H 1045.47 1.75211 7.52676 0
M  V30 11218 H 1043.81 1.56895 6.77059 0
M  V30 11219 H 1047 0.772149 4.61688 0
M  V30 11220 H 1047.18 1.31728 6.3447 0
M  V30 11221 N 1040.58 -1.57259 0.103575 0
M  V30 11222 C 1041.81 -1.99 -0.566275 0
M  V30 11223 C 1042.23 -0.982909 -1.61197 0
M  V30 11224 O 1041.58 0.026345 -1.82481 0
M  V30 11225 C 1041.63 -3.40778 -1.20635 0
M  V30 11226 O 1041.35 -4.37632 -0.202472 0
M  V30 11227 C 1042.86 -3.97567 -1.961 0
M  V30 11228 H 1040.08 -0.653751 -0.151164 0
M  V30 11229 H 1042.62 -2.03658 0.185365 0
M  V30 11230 H 1040.77 -3.37107 -1.90886 0
M  V30 11231 H 1041.19 -5.2026 -0.665535 0
M  V30 11232 H 1042.66 -4.98897 -2.36233 0
M  V30 11233 H 1043.14 -3.35853 -2.83018 0
M  V30 11234 H 1043.75 -4.04737 -1.30645 0
M  V30 11235 N 1042.06 0.170153 -1.56679 0
M  V30 11236 C 1043.31 0.887906 -1.8233 0
M  V30 11237 C 1043.64 1.81845 -0.681608 0
M  V30 11238 O 1042.91 1.9191 0.316362 0
M  V30 11239 C 1043.2 1.68256 -3.18374 0
M  V30 11240 C 1043.05 0.775059 -4.43072 0
M  V30 11241 C 1044.37 2.65001 -3.51372 0
M  V30 11242 H 1041.49 0.32135 -0.663252 0
M  V30 11243 H 1044.13 0.154065 -1.89374 0
M  V30 11244 H 1042.28 2.30817 -3.12499 0
M  V30 11245 H 1043.95 0.162234 -4.61015 0
M  V30 11246 H 1042.2 0.0831809 -4.3372 0
M  V30 11247 H 1042.87 1.36661 -5.34816 0
M  V30 11248 H 1045.34 2.12566 -3.57708 0
M  V30 11249 H 1044.22 3.17667 -4.47637 0
M  V30 11250 H 1044.48 3.45255 -2.76136 0
M  V30 11251 N 1043.54 1.5137 0.438746 0
M  V30 11252 C 1044.76 1.68058 1.21537 0
M  V30 11253 C 1045.19 0.376787 1.84288 0
M  V30 11254 O 1044.55 -0.662911 1.68746 0
M  V30 11255 C 1044.59 2.79684 2.27616 0
M  V30 11256 O 1043.7 2.43189 3.33066 0
M  V30 11257 H 1043.04 0.560408 0.356144 0
M  V30 11258 H 1045.57 1.97926 0.518311 0
M  V30 11259 H 1045.58 3.03726 2.72423 0
M  V30 11260 H 1044.25 3.74293 1.81321 0
M  V30 11261 H 1042.83 2.29713 2.93746 0
M  V30 11262 N 1045.02 -0.694098 1.41492 0
M  V30 11263 C 1045.93 -1.83778 1.45818 0
M  V30 11264 C 1046.94 -1.70471 0.348639 0
M  V30 11265 O 1048.12 -1.92361 0.596588 0
M  V30 11266 C 1045.18 -3.19771 1.33967 0
M  V30 11267 C 1044.24 -3.45175 2.5525 0
M  V30 11268 C 1043.48 -4.74681 2.43955 0
M  V30 11269 O 1043.7 -5.51268 1.46491 0
M  V30 11270 O 1042.63 -5.00901 3.33739 0
M  V30 11271 H 1046.46 -1.83084 2.42309 0
M  V30 11272 H 1044.05 -0.847349 1.23046 0
M  V30 11273 H 1045.93 -4.00961 1.29648 0
M  V30 11274 H 1044.6 -3.21145 0.405926 0
M  V30 11275 H 1043.51 -2.6391 2.65146 0
M  V30 11276 H 1044.84 -3.48617 3.47458 0
M  V30 11277 N 1046.49 -1.27344 -0.928501 0
M  V30 11278 C 1047.43 -1.04322 -2.02959 0
M  V30 11279 C 1048.41 0.0361118 -1.6256 0
M  V30 11280 O 1049.59 -0.108872 -1.88185 0
M  V30 11281 C 1046.72 -0.582329 -3.33656 0
M  V30 11282 C 1045.76 -1.65611 -3.93033 0
M  V30 11283 S 1046.6 -3.2484 -4.25722 0
M  V30 11284 C 1047.75 -2.8055 -5.59502 0
M  V30 11285 H 1047.98 -1.97548 -2.22176 0
M  V30 11286 H 1045.52 -1.11167 -1.07151 0
M  V30 11287 H 1047.48 -0.323095 -4.09227 0
M  V30 11288 H 1046.14 0.329858 -3.12363 0
M  V30 11289 H 1045.33 -1.28491 -4.87346 0
M  V30 11290 H 1044.93 -1.86738 -3.24045 0
M  V30 11291 H 1047.22 -2.25803 -6.38764 0
M  V30 11292 H 1048.17 -3.73603 -6.0152 0
M  V30 11293 H 1048.57 -2.19717 -5.19985 0
M  V30 11294 N 1047.97 1.13488 -1.09353 0
M  V30 11295 C 1048.92 2.16933 -0.701709 0
M  V30 11296 C 1049.91 1.58382 0.283553 0
M  V30 11297 O 1051.1 1.7675 0.0940391 0
M  V30 11298 C 1048.23 3.43079 -0.123031 0
M  V30 11299 C 1047.31 4.08639 -1.13466 0
M  V30 11300 N 1047.7 4.49377 -2.32152 0
M  V30 11301 C 1046 4.35265 -0.972632 0
M  V30 11302 C 1046.7 5.00464 -2.96497 0
M  V30 11303 N 1045.68 4.95275 -2.24061 0
M  V30 11304 H 1049.48 2.46183 -1.60534 0
M  V30 11305 H 1047 1.30275 -0.969644 0
M  V30 11306 H 1048.99 4.1653 0.17569 0
M  V30 11307 H 1047.65 3.15304 0.775461 0
M  V30 11308 H 1048.66 4.42105 -2.69748 0
M  V30 11309 H 1045.34 4.17301 -0.12876 0
M  V30 11310 H 1046.73 5.41785 -3.9739 0
M  V30 11311 N 1049.45 0.880621 1.30701 0
M  V30 11312 C 1050.68 0.511682 2.00473 0
M  V30 11313 C 1051.09 -0.898684 1.6604 0
M  V30 11314 O 1050.45 -1.59035 0.895218 0
M  V30 11315 C 1050.5 0.671723 3.55204 0
M  V30 11316 O 1050.22 2.02656 3.8841 0
M  V30 11317 C 1051.72 0.3052 4.42248 0
M  V30 11318 H 1048.94 0.198231 0.64105 0
M  V30 11319 H 1051.49 1.18472 1.66687 0
M  V30 11320 H 1049.64 0.0461066 3.87373 0
M  V30 11321 H 1050.06 2.04202 4.83117 0
M  V30 11322 H 1051.53 0.468095 5.50012 0
M  V30 11323 H 1052.01 -0.756456 4.32637 0
M  V30 11324 H 1052.61 0.906959 4.15517 0
M  V30 11325 N 1050.93 -1.4397 0.641131 0
M  V30 11326 C 1052.18 -2.01163 0.147026 0
M  V30 11327 C 1052.49 -1.51099 -1.24211 0
M  V30 11328 O 1053.7 -2.00487 -1.83078 0
M  V30 11329 C 1052.15 -3.59275 0.212068 0
M  V30 11330 C 1051.76 -4.18334 1.60314 0
M  V30 11331 C 1053.51 -4.23903 -0.225057 0
M  V30 11332 C 1051.41 -5.68701 1.62276 0
M  V30 11333 H 1050.34 -0.75226 0.051201 0
M  V30 11334 H 1052.99 -1.65075 0.801396 0
M  V30 11335 H 1051.38 -3.92708 -0.509589 0
M  V30 11336 H 1052.55 -3.96422 2.34918 0
M  V30 11337 H 1050.86 -3.66031 1.9852 0
M  V30 11338 H 1053.46 -5.34205 -0.230074 0
M  V30 11339 H 1053.8 -3.96956 -1.25426 0
M  V30 11340 H 1054.34 -3.95309 0.44444 0
M  V30 11341 H 1051.08 -6.00397 2.63066 0
M  V30 11342 H 1050.6 -5.92705 0.919797 0
M  V30 11343 H 1052.28 -6.32521 1.36112 0
M  V30 11344 N 1052.41 -0.382291 -1.52893 0
M  V30 11345 C 1053.34 0.447829 -2.29165 0
M  V30 11346 C 1054.32 1.06956 -1.32267 0
M  V30 11347 O 1055.5 1.08365 -1.61154 0
M  V30 11348 C 1052.63 1.57902 -3.09329 0
M  V30 11349 C 1051.59 1.08369 -4.14053 0
M  V30 11350 C 1050.91 2.30641 -4.82399 0
M  V30 11351 C 1052.21 0.156591 -5.22065 0
M  V30 11352 H 1053.91 -0.188541 -2.98806 0
M  V30 11353 H 1051.45 -0.0921179 -1.43705 0
M  V30 11354 H 1053.41 2.16652 -3.61442 0
M  V30 11355 H 1052.13 2.24287 -2.37409 0
M  V30 11356 H 1050.79 0.518772 -3.62911 0
M  V30 11357 H 1050.44 2.9552 -4.07034 0
M  V30 11358 H 1050.14 1.98163 -5.53177 0
M  V30 11359 H 1051.66 2.90047 -5.37313 0
M  V30 11360 H 1053.08 0.652065 -5.6958 0
M  V30 11361 H 1051.47 -0.0780978 -6.00049 0
M  V30 11362 H 1052.54 -0.796529 -4.78313 0
M  V30 11363 N 1053.89 1.57202 -0.111913 0
M  V30 11364 C 1055.3 1.57713 0.244702 0
M  V30 11365 C 1055.5 1.12419 1.67225 0
M  V30 11366 O 1054.56 0.808329 2.39212 0
M  V30 11367 C 1055.87 3.00695 0.0178289 0
M  V30 11368 C 1057.42 3.12887 0.0842781 0
M  V30 11369 C 1057.89 4.57856 -0.114812 0
M  V30 11370 N 1059.38 4.6316 -0.0605423 0
M  V30 11371 C 1060.12 5.73086 -0.189594 0
M  V30 11372 N 1059.62 6.91787 -0.37442 0
M  V30 11373 N 1061.41 5.6195 -0.12967 0
M  V30 11374 H 1053.56 1.84947 -1.04443 0
M  V30 11375 H 1055.82 0.854418 -0.4107 0
M  V30 11376 H 1055.53 3.38093 -0.968802 0
M  V30 11377 H 1055.4 3.69611 0.752815 0
M  V30 11378 H 1057.79 2.7535 1.06143 0
M  V30 11379 H 1057.87 2.46528 -0.682474 0
M  V30 11380 H 1057.51 4.9609 -1.0889 0
M  V30 11381 H 1057.44 5.22297 0.671839 0
M  V30 11382 H 1059.94 3.77817 0.0790856 0
M  V30 11383 H 1060.25 7.71406 -0.463948 0
M  V30 11384 H 1058.59 6.93788 -0.410303 0
M  V30 11385 H 1061.78 4.68098 0.0137115 0
M  V30 11386 H 1061.96 6.47578 -0.233688 0
M  V30 11387 N 1055.36 -0.161842 1.56767 0
M  V30 11388 C 1056.78 -0.51396 1.51098 0
M  V30 11389 C 1056.98 -1.84158 0.817815 0
M  V30 11390 O 1056.04 -2.49592 0.382133 0
M  V30 11391 C 1057.35 -0.537966 2.95849 0
M  V30 11392 C 1058.9 -0.624512 3.06706 0
M  V30 11393 C 1059.37 -0.679322 4.52934 0
M  V30 11394 N 1060.86 -0.741953 4.57219 0
M  V30 11395 C 1061.6 -0.805096 5.6772 0
M  V30 11396 N 1061.09 -0.828492 6.87828 0
M  V30 11397 N 1062.89 -0.844843 5.55715 0
M  V30 11398 H 1055.04 0.708581 2.00232 0
M  V30 11399 H 1057.3 0.25663 0.912603 0
M  V30 11400 H 1057.01 0.369052 3.49758 0
M  V30 11401 H 1056.88 -1.38113 3.51005 0
M  V30 11402 H 1059.27 -1.52195 2.52825 0
M  V30 11403 H 1059.35 0.245515 2.54619 0
M  V30 11404 H 1058.99 0.213901 5.07449 0
M  V30 11405 H 1058.92 -1.56563 5.02788 0
M  V30 11406 H 1061.41 -0.731772 3.70747 0
M  V30 11407 H 1061.73 -0.878109 7.67795 0
M  V30 11408 H 1060.07 -0.796612 6.9042 0
M  V30 11409 H 1063.26 -0.823632 4.60797 0
M  V30 11410 H 1063.44 -0.890588 6.41851 0
M  V30 11411 N 1056.84 -1.516 -0.430713 0
M  V30 11412 C 1058.09 -1.65801 -1.17821 0
M  V30 11413 C 1058.44 -0.372769 -1.88754 0
M  V30 11414 O 1057.74 0.631767 -1.80885 0
M  V30 11415 C 1057.93 -2.804 -2.21609 0
M  V30 11416 C 1057.76 -4.19944 -1.60863 0
M  V30 11417 C 1056.53 -4.85786 -1.39068 0
M  V30 11418 C 1058.73 -5.02806 -1.08124 0
M  V30 11419 N 1056.71 -6.09425 -0.73989 0
M  V30 11420 C 1058.08 -6.17501 -0.556114 0
M  V30 11421 C 1060.13 -4.88288 -0.973635 0
M  V30 11422 C 1058.84 -7.1927 0.0660558 0
M  V30 11423 C 1060.86 -5.9027 -0.36535 0
M  V30 11424 C 1060.23 -7.04242 0.149205 0
M  V30 11425 H 1056.32 -0.660545 -0.418574 0
M  V30 11426 H 1058.91 -1.88847 -0.473799 0
M  V30 11427 H 1057.08 -2.59006 -2.89431 0
M  V30 11428 H 1058.81 -2.83747 -2.88565 0
M  V30 11429 H 1055.57 -4.4377 -1.65425 0
M  V30 11430 H 1055.99 -6.75622 -0.431745 0
M  V30 11431 H 1060.63 -4.00421 -1.35731 0
M  V30 11432 H 1058.35 -8.06779 0.461848 0
M  V30 11433 H 1061.94 -5.81107 -0.283902 0
M  V30 11434 H 1060.82 -7.81804 0.61249 0
M  V30 11435 N 1058.32 0.686584 -1.41858 0
M  V30 11436 C 1059.55 1.47519 -1.45072 0
M  V30 11437 C 1059.96 1.88709 -0.0585868 0
M  V30 11438 O 1059.32 1.57373 0.924116 0
M  V30 11439 C 1059.37 2.73195 -2.36742 0
M  V30 11440 O 1059.09 2.33736 -3.70539 0
M  V30 11441 C 1060.59 3.66861 -2.48854 0
M  V30 11442 H 1057.81 0.454307 -0.493808 0
M  V30 11443 H 1060.36 0.844612 -1.86243 0
M  V30 11444 H 1058.51 3.32468 -1.98856 0
M  V30 11445 H 1058.93 3.14809 -4.19518 0
M  V30 11446 H 1060.4 4.51801 -3.17143 0
M  V30 11447 H 1060.88 4.11961 -1.52265 0
M  V30 11448 H 1061.48 3.13486 -2.87414 0
M  V30 11449 N 1059.8 1.27835 0.921735 0
M  V30 11450 C 1061.04 1.14523 1.67005 0
M  V30 11451 C 1061.37 -0.307776 1.92049 0
M  V30 11452 O 1060.63 -1.24103 1.51317 0
M  V30 11453 C 1060.93 1.88054 3.03925 0
M  V30 11454 C 1060.59 3.37886 2.9857 0
M  V30 11455 C 1059.25 3.78752 2.96817 0
M  V30 11456 C 1061.61 4.33462 2.89414 0
M  V30 11457 C 1058.93 5.13549 2.83698 0
M  V30 11458 C 1061.29 5.68322 2.77836 0
M  V30 11459 C 1059.95 6.08475 2.74436 0
M  V30 11460 H 1059.22 0.419068 0.611116 0
M  V30 11461 H 1061.87 1.58515 1.07449 0
M  V30 11462 H 1060.17 1.36587 3.67221 0
M  V30 11463 H 1061.87 1.75176 3.60714 0
M  V30 11464 H 1058.46 3.05389 3.00725 0
M  V30 11465 H 1062.64 4.02857 2.89862 0
M  V30 11466 H 1057.9 5.43796 2.79456 0
M  V30 11467 H 1062.07 6.42048 2.69717 0
M  V30 11468 H 1059.7 7.12877 2.64027 0
M  V30 11469 N 1061.28 -1.12907 1.09954 0
M  V30 11470 C 1062.5 -1.88679 0.861099 0
M  V30 11471 C 1062.93 -1.78853 -0.582499 0
M  V30 11472 O 1062.28 -1.13992 -1.4098 0
M  V30 11473 C 1062.33 -3.36047 1.30785 0
M  V30 11474 O 1061.44 -4.09716 0.469728 0
M  V30 11475 H 1060.78 -0.586447 0.31141 0
M  V30 11476 H 1063.31 -1.42818 1.46507 0
M  V30 11477 H 1063.32 -3.86882 1.29562 0
M  V30 11478 H 1061.99 -3.42516 2.35914 0
M  V30 11479 H 1060.57 -3.6887 0.54674 0
M  V30 11480 N 1062.75 -0.88754 -1.30232 0
M  V30 11481 C 1063.69 -0.313488 -2.27046 0
M  V30 11482 C 1064.7 0.533383 -1.53814 0
M  V30 11483 O 1065.89 0.352516 -1.74984 0
M  V30 11484 C 1062.99 0.572674 -3.34026 0
M  V30 11485 C 1062.16 -0.245712 -4.36709 0
M  V30 11486 C 1061.22 0.57135 -5.23089 0
M  V30 11487 O 1060.25 -0.00685948 -5.692 0
M  V30 11488 N 1061.45 1.87994 -5.49216 0
M  V30 11489 H 1064.21 -1.14553 -2.76943 0
M  V30 11490 H 1061.77 -0.750785 -1.43439 0
M  V30 11491 H 1063.77 1.12539 -3.88738 0
M  V30 11492 H 1062.34 1.3054 -2.84039 0
M  V30 11493 H 1061.56 -0.979869 -3.81827 0
M  V30 11494 H 1062.84 -0.806618 -5.02366 0
M  V30 11495 H 1062.24 2.3726 -5.13541 0
M  V30 11496 H 1060.8 2.38005 -6.06792 0
M  V30 11497 N 1064.23 1.43628 -0.648757 0
M  V30 11498 C 1065.64 1.85142 -0.24066 0
M  V30 11499 C 1065.99 1.54304 1.21181 0
M  V30 11500 O 1065.12 0.989792 1.92437 0
M  V30 11501 C 1065.71 3.3606 -0.429999 0
M  V30 11502 C 1064.27 3.76323 -0.0762588 0
M  V30 11503 C 1063.42 2.67382 -0.734999 0
M  V30 11504 H 1066.37 1.33844 -0.852734 0
M  V30 11505 H 1066.39 3.79102 0.325836 0
M  V30 11506 H 1065.9 3.58474 -1.48721 0
M  V30 11507 H 1064.01 3.59521 0.978529 0
M  V30 11508 H 1064.12 4.76498 -0.498612 0
M  V30 11509 H 1062.48 2.54141 -0.168644 0
M  V30 11510 H 1063.27 2.92625 -1.79515 0
M  V30 11511 N 1065.71 0.390394 1.52688 0
M  V30 11512 C 1066.64 -0.43567 2.294 0
M  V30 11513 C 1067.62 -1.06253 1.32832 0
M  V30 11514 O 1068.81 -1.07509 1.61726 0
M  V30 11515 C 1065.94 -1.56259 3.10162 0
M  V30 11516 C 1064.89 -1.06172 4.14622 0
M  V30 11517 C 1064.22 -2.2808 4.83615 0
M  V30 11518 C 1065.52 -0.128902 5.22141 0
M  V30 11519 H 1067.21 0.204384 2.98702 0
M  V30 11520 H 1064.76 0.0997377 1.43654 0
M  V30 11521 H 1066.71 -2.14732 3.62585 0
M  V30 11522 H 1065.43 -2.23025 2.38595 0
M  V30 11523 H 1064.09 -0.499518 3.63181 0
M  V30 11524 H 1063.74 -2.93358 4.08595 0
M  V30 11525 H 1063.44 -1.95227 5.5422 0
M  V30 11526 H 1064.96 -2.87193 5.38844 0
M  V30 11527 H 1066.38 -0.621849 5.69917 0
M  V30 11528 H 1064.78 0.109919 5.99999 0
M  V30 11529 H 1065.85 0.821884 4.77884 0
M  V30 11530 N 1067.19 -1.57141 0.120249 0
M  V30 11531 C 1068.1 -2.18925 -0.843155 0
M  V30 11532 C 1069.11 -1.16575 -1.29175 0
M  V30 11533 O 1070.29 -1.4905 -1.35448 0
M  V30 11534 C 1067.36 -2.7775 -2.075 0
M  V30 11535 C 1066.42 -3.95139 -1.6782 0
M  V30 11536 C 1065.65 -4.51149 -2.85132 0
M  V30 11537 O 1065.87 -4.06056 -4.00593 0
M  V30 11538 O 1064.81 -5.41815 -2.62145 0
M  V30 11539 H 1068.63 -3.01707 -0.347357 0
M  V30 11540 H 1066.22 -1.49028 -0.105427 0
M  V30 11541 H 1068.1 -3.15243 -2.79643 0
M  V30 11542 H 1066.77 -1.97998 -2.56083 0
M  V30 11543 H 1065.68 -3.62412 -0.927807 0
M  V30 11544 H 1067.01 -4.7633 -1.23977 0
M  V30 11545 N 1068.67 0.153526 -1.5685 0
M  V30 11546 C 1069.63 1.17362 -1.96873 0
M  V30 11547 C 1070.63 1.36219 -0.854456 0
M  V30 11548 O 1071.82 1.33322 -1.1212 0
M  V30 11549 C 1068.95 2.53523 -2.27901 0
M  V30 11550 H 1070.14 0.830432 -2.88173 0
M  V30 11551 H 1067.7 0.396633 -1.51184 0
M  V30 11552 H 1068.43 2.92824 -1.39371 0
M  V30 11553 H 1068.22 2.41198 -3.09137 0
M  V30 11554 H 1069.71 3.27006 -2.59725 0
M  V30 11555 N 1070.14 1.51827 0.422667 0
M  V30 11556 C 1071.07 1.77152 1.52117 0
M  V30 11557 C 1072.06 0.621895 1.58324 0
M  V30 11558 O 1073.24 0.866118 1.73816 0
M  V30 11559 C 1070.37 1.90991 2.90068 0
M  V30 11560 C 1069.32 3.06516 2.98717 0
M  V30 11561 C 1068.65 3.05559 4.38791 0
M  V30 11562 C 1069.95 4.46223 2.71445 0
M  V30 11563 H 1071.64 2.69135 1.31175 0
M  V30 11564 H 1069.19 1.29507 0.629607 0
M  V30 11565 H 1071.14 2.07291 3.6689 0
M  V30 11566 H 1069.87 0.956688 3.12274 0
M  V30 11567 H 1068.53 2.89945 2.24338 0
M  V30 11568 H 1068.17 2.07985 4.57986 0
M  V30 11569 H 1067.87 3.83144 4.45505 0
M  V30 11570 H 1069.4 3.23971 5.17566 0
M  V30 11571 H 1070.81 4.63069 3.37994 0
M  V30 11572 H 1069.21 5.25623 2.89552 0
M  V30 11573 H 1070.28 4.5525 1.6696 0
M  V30 11574 N 1071.62 -0.679052 1.4222 0
M  V30 11575 C 1072.87 -1.43627 1.42182 0
M  V30 11576 C 1073.19 -1.94964 0.0377095 0
M  V30 11577 O 1072.46 -1.72788 -0.923098 0
M  V30 11578 H 1071.04 -0.532972 0.523402 0
M  V30 11579 H 1073.7 -0.802649 1.77605 0
M  V30 11580 H 1072.8 -2.29137 2.11902 0
M  V30 11581 N 1073.1 -1.28322 -0.914942 0
M  V30 11582 C 1074.03 -1.14681 -2.03398 0
M  V30 11583 C 1075.01 -0.0448939 -1.70041 0
M  V30 11584 O 1076.2 -0.221672 -1.92931 0
M  V30 11585 C 1073.33 -0.806623 -3.37803 0
M  V30 11586 C 1072.28 -1.86318 -3.85318 0
M  V30 11587 C 1071.61 -1.37665 -5.16674 0
M  V30 11588 C 1072.91 -3.26953 -4.07307 0
M  V30 11589 H 1074.6 -2.08293 -2.15068 0
M  V30 11590 H 1072.15 -1.00284 -1.03339 0
M  V30 11591 H 1074.1 -0.69796 -4.1558 0
M  V30 11592 H 1072.82 0.165203 -3.26182 0
M  V30 11593 H 1071.48 -1.96096 -3.09745 0
M  V30 11594 H 1071.13 -0.393927 -5.01455 0
M  V30 11595 H 1070.83 -2.08313 -5.49435 0
M  V30 11596 H 1072.35 -1.28119 -5.97007 0
M  V30 11597 H 1073.77 -3.20102 -4.75613 0
M  V30 11598 H 1072.17 -3.95424 -4.51398 0
M  V30 11599 H 1073.24 -3.71059 -3.12159 0
M  V30 11600 N 1074.58 1.12322 -1.10551 0
M  V30 11601 C 1075.51 2.20176 -0.777486 0
M  V30 11602 C 1076.49 1.68252 0.250069 0
M  V30 11603 O 1077.67 1.93856 0.115574 0
M  V30 11604 C 1074.8 3.46666 -0.209822 0
M  V30 11605 C 1073.76 4.11749 -1.1682 0
M  V30 11606 C 1073.08 5.32703 -0.461684 0
M  V30 11607 C 1074.38 4.57746 -2.51527 0
M  V30 11608 H 1076.08 2.47872 -1.67928 0
M  V30 11609 H 1073.62 1.19136 -0.808863 0
M  V30 11610 H 1075.58 4.21388 0.0318068 0
M  V30 11611 H 1074.3 3.18401 0.727226 0
M  V30 11612 H 1072.96 3.39009 -1.3953 0
M  V30 11613 H 1072.61 5.00706 0.479875 0
M  V30 11614 H 1072.31 5.77197 -1.1008 0
M  V30 11615 H 1073.83 6.10172 -0.228629 0
M  V30 11616 H 1075.25 5.23835 -2.32958 0
M  V30 11617 H 1073.64 5.13021 -3.11335 0
M  V30 11618 H 1074.71 3.71667 -3.11435 0
M  V30 11619 N 1076.06 0.894434 1.2976 0
M  V30 11620 C 1077.28 0.532916 1.99919 0
M  V30 11621 C 1077.7 -0.881022 1.66983 0
M  V30 11622 O 1077.06 -1.58076 0.912035 0
M  V30 11623 C 1077.11 0.70936 3.54472 0
M  V30 11624 O 1076.83 2.06764 3.86239 0
M  V30 11625 C 1078.33 0.352089 4.419 0
M  V30 11626 H 1075.55 0.205019 0.638912 0
M  V30 11627 H 1078.09 1.20233 1.65421 0
M  V30 11628 H 1076.25 0.0871901 3.87302 0
M  V30 11629 H 1076.66 2.09315 4.80924 0
M  V30 11630 H 1078.14 0.526405 5.49484 0
M  V30 11631 H 1078.61 -0.710527 4.33415 0
M  V30 11632 H 1079.22 0.950979 4.14532 0
M  V30 11633 N 1077.53 -1.43282 0.656365 0
M  V30 11634 C 1078.76 -2.06641 0.177245 0
M  V30 11635 C 1079.18 -1.48893 -1.14946 0
M  V30 11636 O 1078.54 -0.600099 -1.7108 0
M  V30 11637 C 1078.59 -3.60453 0.10299 0
M  V30 11638 O 1077.69 -4.01687 -0.933895 0
M  V30 11639 H 1077.04 -0.656978 0.096314 0
M  V30 11640 H 1079.57 -1.83733 0.900178 0
M  V30 11641 H 1079.58 -4.07923 -0.079291 0
M  V30 11642 H 1078.25 -4.01861 1.07147 0
M  V30 11643 H 1076.83 -3.65801 -0.724148 0
M  V30 11644 N 1079.01 -0.398486 -1.52479 0
M  V30 11645 C 1080.24 0.183059 -2.06591 0
M  V30 11646 C 1080.66 1.3898 -1.26753 0
M  V30 11647 O 1080.02 1.78885 -0.294959 0
M  V30 11648 C 1080.07 0.522392 -3.56796 0
M  V30 11649 O 1079.17 1.61499 -3.79462 0
M  V30 11650 H 1078.51 0.0188411 -0.663733 0
M  V30 11651 H 1081.04 -0.56861 -1.9654 0
M  V30 11652 H 1081.05 0.784078 -4.00395 0
M  V30 11653 H 1079.73 -0.359807 -4.14341 0
M  V30 11654 H 1078.31 1.3463 -3.47749 0
M  V30 11655 N 1080.49 1.57075 -0.12858 0
M  V30 11656 C 1081.74 1.9552 0.527087 0
M  V30 11657 C 1082.07 1.01243 1.66072 0
M  V30 11658 O 1081.32 0.0381076 1.95663 0
M  V30 11659 C 1081.62 3.40329 1.09138 0
M  V30 11660 C 1081.29 4.50832 0.0781039 0
M  V30 11661 C 1079.95 4.80782 -0.200493 0
M  V30 11662 C 1082.3 5.17595 -0.61192 0
M  V30 11663 C 1079.63 5.74809 -1.17524 0
M  V30 11664 C 1081.98 6.12671 -1.57536 0
M  V30 11665 C 1080.64 6.41008 -1.86184 0
M  V30 11666 H 1079.91 0.715458 0.192875 0
M  V30 11667 H 1082.56 1.90328 -0.211515 0
M  V30 11668 H 1080.87 3.42262 1.90694 0
M  V30 11669 H 1082.56 3.67393 1.60696 0
M  V30 11670 H 1079.15 4.2751 0.30543 0
M  V30 11671 H 1083.34 4.94605 -0.40986 0
M  V30 11672 H 1078.59 5.95065 -1.40384 0
M  V30 11673 H 1082.77 6.63486 -2.11565 0
M  V30 11674 H 1080.39 7.13673 -2.61868 0
M  V30 11675 N 1081.97 -0.145205 1.5693 0
M  V30 11676 C 1083.38 -0.705089 1.72874 0
M  V30 11677 C 1083.73 -1.81577 0.743261 0
M  V30 11678 O 1082.86 -2.16214 -0.0897153 0
M  V30 11679 C 1083.45 -1.28578 3.13454 0
M  V30 11680 C 1082.01 -1.79221 3.30994 0
M  V30 11681 C 1081.16 -0.681392 2.68798 0
M  V30 11682 H 1084.11 0.0804798 1.58496 0
M  V30 11683 H 1084.13 -2.15558 3.13552 0
M  V30 11684 H 1083.64 -0.477186 3.85155 0
M  V30 11685 H 1081.74 -2.62642 2.64292 0
M  V30 11686 H 1081.86 -1.91969 4.38959 0
M  V30 11687 H 1080.22 -1.10847 2.29314 0
M  V30 11688 H 1081 0.115786 3.43105 0
M  V30 11689 N 1083.45 -1.52049 -0.414609 0
M  V30 11690 C 1084.72 -1.56397 -1.17471 0
M  V30 11691 C 1085.1 -0.34171 -2.08316 0
M  V30 11692 O 1084.45 0.6718 -2.18401 0
M  V30 11693 C 1084.66 -2.88983 -1.95678 0
M  V30 11694 C 1086.01 -3.41781 -2.51935 0
M  V30 11695 O 1087.03 -2.90686 -2.05865 0
M  V30 11696 O 1085.89 -4.30989 -3.36022 0
M  V30 11697 H 1082.99 -0.62974 -0.536056 0
M  V30 11698 H 1085.53 -1.64374 -0.421834 0
M  V30 11699 H 1084.31 -3.69392 -1.29094 0
M  V30 11700 H 1083.93 -2.84274 -2.77983 0
M  V30 11701 N 1084.93 0.6715 -1.42579 0
M  V30 11702 C 1085.86 1.79703 -1.42266 0
M  V30 11703 C 1086.87 1.59599 -0.321268 0
M  V30 11704 O 1088.06 1.68657 -0.584564 0
M  V30 11705 C 1085.16 3.16859 -1.20224 0
M  V30 11706 C 1084.33 3.63783 -2.42859 0
M  V30 11707 C 1083.39 4.79683 -2.16312 0
M  V30 11708 O 1082.42 4.90058 -2.89537 0
M  V30 11709 N 1083.62 5.68622 -1.16831 0
M  V30 11710 H 1086.38 1.80455 -2.39282 0
M  V30 11711 H 1083.95 0.854708 -1.375 0
M  V30 11712 H 1085.94 3.92054 -1.00376 0
M  V30 11713 H 1084.51 3.10987 -0.317188 0
M  V30 11714 H 1083.73 2.7923 -2.78252 0
M  V30 11715 H 1085.02 3.91877 -3.24514 0
M  V30 11716 H 1084.41 5.62894 -0.562746 0
M  V30 11717 H 1082.97 6.43615 -1.0297 0
M  V30 11718 N 1086.4 1.28806 0.908124 0
M  V30 11719 C 1087.31 1.15079 2.04436 0
M  V30 11720 C 1088.33 0.076012 1.73834 0
M  V30 11721 O 1089.51 0.286421 1.99353 0
M  V30 11722 C 1086.57 0.819733 3.3687 0
M  V30 11723 C 1085.63 1.97746 3.81045 0
M  V30 11724 C 1084.86 1.66211 5.07158 0
M  V30 11725 O 1085.09 0.579092 5.67453 0
M  V30 11726 O 1084.02 2.5075 5.47182 0
M  V30 11727 H 1087.85 2.10477 2.18937 0
M  V30 11728 H 1085.43 1.08177 1.03044 0
M  V30 11729 H 1087.31 0.649304 4.16368 0
M  V30 11730 H 1085.99 -0.10454 3.23531 0
M  V30 11731 H 1084.9 2.20308 3.02349 0
M  V30 11732 H 1086.23 2.88264 3.98955 0
M  V30 11733 N 1087.88 -1.11734 1.11145 0
M  V30 11734 C 1089.13 -1.82766 0.853194 0
M  V30 11735 C 1089.44 -1.85408 -0.623168 0
M  V30 11736 O 1090.65 -2.52509 -0.997574 0
M  V30 11737 C 1089.11 -3.28215 1.47658 0
M  V30 11738 C 1088.71 -3.33911 2.98676 0
M  V30 11739 C 1090.46 -4.04168 1.29803 0
M  V30 11740 C 1088.36 -4.73739 3.54013 0
M  V30 11741 H 1087.29 -0.684807 0.315523 0
M  V30 11742 H 1089.95 -1.25756 1.33633 0
M  V30 11743 H 1088.33 -3.85138 0.921116 0
M  V30 11744 H 1089.5 -2.86887 3.606 0
M  V30 11745 H 1087.82 -2.71437 3.15771 0
M  V30 11746 H 1090.41 -5.07429 1.68582 0
M  V30 11747 H 1090.76 -4.15606 0.240302 0
M  V30 11748 H 1091.29 -3.53623 1.82196 0
M  V30 11749 H 1088.03 -4.67497 4.59485 0
M  V30 11750 H 1087.55 -5.21186 2.9686 0
M  V30 11751 H 1089.23 -5.42691 3.52271 0
M  V30 11752 N 1089.36 -0.901303 -1.29284 0
M  V30 11753 C 1090.78 -0.597634 -1.47988 0
M  V30 11754 C 1090.98 0.860434 -1.82205 0
M  V30 11755 O 1090.03 1.64049 -1.91948 0
M  V30 11756 C 1091.34 -1.52484 -2.5917 0
M  V30 11757 C 1092.89 -1.53021 -2.73045 0
M  V30 11758 C 1093.37 -2.44373 -3.87357 0
M  V30 11759 N 1094.86 -2.42429 -3.94693 0
M  V30 11760 C 1095.59 -3.09817 -4.82495 0
M  V30 11761 N 1095.09 -3.86489 -5.74976 0
M  V30 11762 N 1096.88 -2.98966 -4.76 0
M  V30 11763 H 1089.03 -1.84432 -1.0535 0
M  V30 11764 H 1091.3 -0.790367 -0.523473 0
M  V30 11765 H 1091 -2.56378 -2.40756 0
M  V30 11766 H 1090.88 -1.24657 -3.56006 0
M  V30 11767 H 1093.26 -0.498709 -2.90855 0
M  V30 11768 H 1093.34 -1.84886 -1.76779 0
M  V30 11769 H 1092.99 -3.47618 -3.70302 0
M  V30 11770 H 1092.92 -2.09817 -4.82995 0
M  V30 11771 H 1095.41 -1.86724 -3.28546 0
M  V30 11772 H 1095.72 -4.34959 -6.38773 0
M  V30 11773 H 1094.07 -3.90596 -5.74857 0
M  V30 11774 H 1097.26 -2.38581 -4.02737 0
M  V30 11775 H 1097.43 -3.51758 -5.44215 0
M  V30 11776 N 1090.84 1.42931 -0.663954 0
M  V30 11777 C 1091.78 2.3079 0.0210764 0
M  V30 11778 C 1092.75 1.45356 0.803796 0
M  V30 11779 O 1093.94 1.74207 0.778237 0
M  V30 11780 C 1091.08 3.31069 0.974023 0
M  V30 11781 C 1090.19 4.31598 0.186273 0
M  V30 11782 C 1089.33 5.18955 1.13399 0
M  V30 11783 C 1088.37 6.1117 0.337292 0
M  V30 11784 N 1087.5 6.91114 1.23715 0
M  V30 11785 H 1092.34 2.88819 -0.733995 0
M  V30 11786 H 1089.88 1.42274 -0.373711 0
M  V30 11787 H 1091.84 3.87727 1.54024 0
M  V30 11788 H 1090.47 2.74665 1.69585 0
M  V30 11789 H 1089.52 3.77147 -0.496402 0
M  V30 11790 H 1090.83 4.96919 -0.432753 0
M  V30 11791 H 1089.99 5.80292 1.77049 0
M  V30 11792 H 1088.73 4.53785 1.78691 0
M  V30 11793 H 1087.73 5.48911 -0.312492 0
M  V30 11794 H 1088.96 6.78386 -0.31138 0
M  V30 11795 H 1086.9 6.28583 1.87668 0
M  V30 11796 H 1086.82 7.52999 0.672946 0
M  V30 11797 H 1088.09 7.56948 1.86146 0
M  V30 11798 N 1092.32 0.406567 1.52266 0
M  V30 11799 C 1093.56 -0.170305 2.02084 0
M  V30 11800 C 1093.89 -1.45008 1.29176 0
M  V30 11801 O 1093.17 -1.90399 0.39731 0
M  V30 11802 C 1093.45 -0.420627 3.57635 0
M  V30 11803 C 1093.31 0.87564 4.41194 0
M  V30 11804 C 1094.62 -1.20387 4.23314 0
M  V30 11805 H 1091.74 -0.0604219 0.734519 0
M  V30 11806 H 1094.39 0.539529 1.82179 0
M  V30 11807 H 1092.54 -1.0253 3.74726 0
M  V30 11808 H 1094.21 1.51192 4.35819 0
M  V30 11809 H 1092.45 1.48718 4.07511 0
M  V30 11810 H 1093.12 0.654916 5.48101 0
M  V30 11811 H 1095.6 -0.691972 4.10306 0
M  V30 11812 H 1094.47 -1.34776 5.32096 0
M  V30 11813 H 1094.73 -2.2238 3.82099 0
M  V30 11814 N 1093.79 -1.57004 0.136909 0
M  V30 11815 C 1094.76 -2.15066 -0.792419 0
M  V30 11816 C 1095.76 -1.08991 -1.18226 0
M  V30 11817 O 1096.95 -1.34681 -1.10484 0
M  V30 11818 C 1094.08 -2.70554 -2.07397 0
M  V30 11819 H 1095.27 -2.98519 -0.28752 0
M  V30 11820 H 1092.83 -1.55895 -0.112469 0
M  V30 11821 H 1093.56 -1.90739 -2.62277 0
M  V30 11822 H 1093.35 -3.48149 -1.80374 0
M  V30 11823 H 1094.84 -3.15322 -2.73792 0
M  V30 11824 N 1095.27 0.136881 -1.57004 0
M  V30 11825 C 1096.52 0.849031 -1.84172 0
M  V30 11826 C 1096.85 1.80359 -0.720027 0
M  V30 11827 O 1096.13 1.92538 0.275584 0
M  V30 11828 C 1096.41 1.61465 -3.21871 0
M  V30 11829 C 1096.26 0.680902 -4.44616 0
M  V30 11830 C 1097.58 2.57488 -3.56914 0
M  V30 11831 H 1094.7 0.307209 -0.669919 0
M  V30 11832 H 1097.34 0.113862 -1.89659 0
M  V30 11833 H 1095.49 2.24137 -3.17325 0
M  V30 11834 H 1097.16 0.0644094 -4.61255 0
M  V30 11835 H 1095.41 -0.00883629 -4.33799 0
M  V30 11836 H 1096.08 1.25286 -5.37594 0
M  V30 11837 H 1098.55 2.0493 -3.62136 0
M  V30 11838 H 1097.43 3.08101 -4.54274 0
M  V30 11839 H 1097.69 3.39321 -2.83397 0
M  V30 11840 N 1096.75 1.52266 0.40654 0
M  V30 11841 C 1097.68 1.72025 1.51459 0
M  V30 11842 C 1098.7 0.600667 1.51314 0
M  V30 11843 O 1099.88 0.875894 1.55532 0
M  V30 11844 C 1096.98 1.7479 2.90348 0
M  V30 11845 C 1096.16 3.03826 3.14656 0
M  V30 11846 C 1095.22 2.98369 4.33431 0
M  V30 11847 O 1094.24 3.7227 4.30586 0
M  V30 11848 N 1095.44 2.16338 5.38682 0
M  V30 11849 H 1098.21 2.67622 1.34903 0
M  V30 11850 H 1095.77 1.50536 0.595867 0
M  V30 11851 H 1097.76 1.68667 3.67877 0
M  V30 11852 H 1096.33 0.86656 3.00349 0
M  V30 11853 H 1095.55 3.23577 2.25148 0
M  V30 11854 H 1096.84 3.89182 3.27742 0
M  V30 11855 H 1096.24 1.55731 5.43842 0
M  V30 11856 H 1094.8 2.1607 6.14945 0
M  V30 11857 N 1098.23 -0.663929 1.42933 0
M  V30 11858 C 1099.16 -1.78946 1.43217 0
M  V30 11859 C 1100.17 -1.59426 0.329727 0
M  V30 11860 O 1101.36 -1.68344 0.5935 0
M  V30 11861 C 1098.46 -3.16217 1.21902 0
M  V30 11862 C 1097.64 -3.6249 2.44785 0
M  V30 11863 C 1096.69 -4.78529 2.18853 0
M  V30 11864 O 1095.72 -4.88516 2.92131 0
M  V30 11865 N 1096.92 -5.67994 1.19845 0
M  V30 11866 H 1099.69 -1.79184 2.40236 0
M  V30 11867 H 1097.25 -0.847404 1.37952 0
M  V30 11868 H 1099.24 -3.91517 1.02454 0
M  V30 11869 H 1097.81 -3.10814 0.333676 0
M  V30 11870 H 1097.03 -2.77751 2.79729 0
M  V30 11871 H 1098.32 -3.90151 3.26588 0
M  V30 11872 H 1097.72 -5.62588 0.59259 0
M  V30 11873 H 1096.27 -6.4306 1.06382 0
M  V30 11874 N 1099.71 -1.29285 -0.901281 0
M  V30 11875 C 1100.64 -1.16832 -2.0217 0
M  V30 11876 C 1101.62 -0.0629265 -1.69984 0
M  V30 11877 O 1102.8 -0.242123 -1.92685 0
M  V30 11878 C 1099.93 -0.842406 -3.36929 0
M  V30 11879 C 1098.89 -1.90394 -3.8332 0
M  V30 11880 C 1098.21 -1.43138 -5.15185 0
M  V30 11881 C 1099.51 -3.31254 -4.03817 0
M  V30 11882 H 1101.21 -2.10562 -2.12847 0
M  V30 11883 H 1098.75 -1.01375 -1.0227 0
M  V30 11884 H 1100.71 -0.741999 -4.14816 0
M  V30 11885 H 1099.43 0.130598 -3.26339 0
M  V30 11886 H 1098.09 -1.99371 -3.07647 0
M  V30 11887 H 1097.74 -0.447091 -5.01009 0
M  V30 11888 H 1097.44 -2.14129 -5.47195 0
M  V30 11889 H 1098.96 -1.34444 -5.95615 0
M  V30 11890 H 1100.37 -3.25129 -4.72191 0
M  V30 11891 H 1098.77 -4.00189 -4.47178 0
M  V30 11892 H 1099.84 -3.74349 -3.08206 0
M  V30 11893 N 1101.18 1.11143 -1.11736 0
M  V30 11894 C 1102.46 1.79384 -0.779785 0
M  V30 11895 C 1102.84 1.98015 0.731668 0
M  V30 11896 O 1102.19 1.56731 1.66276 0
M  V30 11897 C 1102.4 3.12868 -1.54643 0
M  V30 11898 C 1103.75 3.8786 -1.7277 0
M  V30 11899 O 1104.77 3.22566 -1.51094 0
M  V30 11900 O 1103.63 5.05034 -2.08813 0
M  V30 11901 H 1100.72 0.777128 -0.282845 0
M  V30 11902 H 1103.27 1.17858 -1.22096 0
M  V30 11903 H 1102.04 2.94682 -2.57446 0
M  V30 11904 H 1101.67 3.82109 -1.09901 0
M  V30 11905 N 1102.66 0.908147 1.28804 0
M  V30 11906 C 1103.61 0.382315 2.29437 0
M  V30 11907 C 1104.6 -0.523033 1.61123 0
M  V30 11908 O 1105.81 -0.404898 1.75387 0
M  V30 11909 H 1102.19 0.105022 0.74463 0
M  V30 11910 H 1104.16 1.24425 2.71221 0
M  V30 11911 C 1102.91 -0.367475 3.45753 0
M  V30 11912 H 1102.23 0.319957 3.98518 0
M  V30 11913 H 1103.67 -0.700131 4.1818 0
M  V30 11914 C 1102.13 -1.57329 2.97908 0
M  V30 11915 O 1102.66 -2.67248 2.99902 0
M  V30 11916 N 1100.86 -1.41835 2.53636 0
M  V30 11917 H 1100.41 -0.524099 2.52212 0
M  V30 11918 H 1100.37 -2.22645 2.21984 0
M  V30 11919 N 1104.14 -1.42577 0.671525 0
M  V30 11920 C 1105.07 -2.33499 0.00506984 0
M  V30 11921 C 1106.05 -1.50497 -0.792763 0
M  V30 11922 O 1107.24 -1.79109 -0.750574 0
M  V30 11923 C 1104.37 -3.34077 -0.949194 0
M  V30 11924 C 1103.32 -4.27208 -0.260187 0
M  V30 11925 C 1102.65 -5.17968 -1.32716 0
M  V30 11926 C 1103.95 -5.15192 0.858772 0
M  V30 11927 H 1105.64 -2.89477 0.764407 0
M  V30 11928 H 1103.19 -1.39191 0.369043 0
M  V30 11929 H 1105.14 -3.96594 -1.42448 0
M  V30 11930 H 1103.86 -2.76396 -1.73991 0
M  V30 11931 H 1102.52 -3.66082 0.194834 0
M  V30 11932 H 1102.17 -4.56615 -2.10979 0
M  V30 11933 H 1101.87 -5.81104 -0.871293 0
M  V30 11934 H 1103.39 -5.83359 -1.80345 0
M  V30 11935 H 1104.81 -5.71412 0.464844 0
M  V30 11936 H 1103.21 -5.87144 1.24023 0
M  V30 11937 H 1104.28 -4.53787 1.70895 0
M  V30 11938 N 1105.62 -0.414636 -1.52048 0
M  V30 11939 C 1106.55 0.399119 -2.30064 0
M  V30 11940 C 1107.53 1.04126 -1.34506 0
M  V30 11941 O 1108.71 1.04923 -1.63416 0
M  V30 11942 C 1105.84 1.51305 -3.12608 0
M  V30 11943 C 1104.8 0.995621 -4.16259 0
M  V30 11944 C 1104.12 2.20357 -4.87183 0
M  V30 11945 C 1105.42 0.0458178 -5.2228 0
M  V30 11946 H 1107.12 -0.251879 -2.98339 0
M  V30 11947 H 1104.66 -0.122579 -1.43477 0
M  V30 11948 H 1106.62 2.08936 -3.65956 0
M  V30 11949 H 1105.34 2.19201 -2.42113 0
M  V30 11950 H 1104 0.441676 -3.6393 0
M  V30 11951 H 1103.65 2.8682 -4.13211 0
M  V30 11952 H 1103.35 1.86385 -5.57256 0
M  V30 11953 H 1104.87 2.78584 -5.43345 0
M  V30 11954 H 1106.29 0.531102 -5.70835 0
M  V30 11955 H 1104.68 -0.20536 -5.99749 0
M  V30 11956 H 1105.75 -0.897807 -4.76516 0
M  V30 11957 N 1107.1 1.56929 -0.145233 0
M  V30 11958 C 1108.04 2.17958 0.812237 0
M  V30 11959 C 1109.04 1.13608 1.25657 0
M  V30 11960 O 1110.24 1.31861 1.22526 0
M  V30 11961 H 1106.62 0.697876 0.28013 0
M  V30 11962 H 1108.59 2.97146 0.273297 0
M  V30 11963 C 1107.34 2.81418 2.04203 0
M  V30 11964 H 1106.66 3.61427 1.70911 0
M  V30 11965 H 1108.1 3.27624 2.69144 0
M  V30 11966 C 1106.56 1.79835 2.84888 0
M  V30 11967 O 1107.09 1.26773 3.81171 0
M  V30 11968 N 1105.3 1.49179 2.49387 0
M  V30 11969 H 1104.84 1.9252 1.71154 0
M  V30 11970 H 1104.8 0.81458 3.03664 0
M  V30 11971 N 1108.58 -0.128553 1.57075 0
M  V30 11972 C 1109.85 -0.867766 1.75297 0
M  V30 11973 C 1110.23 -1.98508 0.718176 0
M  V30 11974 O 1109.58 -2.2702 -0.259616 0
M  V30 11975 C 1109.79 -1.39326 3.19983 0
M  V30 11976 C 1111.14 -1.84939 3.82208 0
M  V30 11977 O 1112.16 -1.49027 3.23527 0
M  V30 11978 O 1111.02 -2.51227 4.85332 0
M  V30 11979 H 1108.12 -0.411393 0.717415 0
M  V30 11980 H 1110.66 -0.113038 1.69323 0
M  V30 11981 H 1109.43 -0.591172 3.86809 0
M  V30 11982 H 1109.06 -2.21097 3.30457 0
M  V30 11983 N 1110.05 -1.5248 -0.398459 0
M  V30 11984 C 1110.96 -1.79492 -1.51062 0
M  V30 11985 C 1111.98 -0.681101 -1.60116 0
M  V30 11986 O 1113.16 -0.967671 -1.7663 0
M  V30 11987 C 1110.22 -1.94958 -2.86692 0
M  V30 11988 C 1109.28 -3.1887 -2.87438 0
M  V30 11989 C 1108.51 -3.33588 -4.16599 0
M  V30 11990 O 1108.74 -2.53327 -5.11059 0
M  V30 11991 O 1107.67 -4.26795 -4.24416 0
M  V30 11992 H 1111.5 -2.73913 -1.31169 0
M  V30 11993 H 1109.08 -1.37455 -0.585372 0
M  V30 11994 H 1110.96 -2.06891 -3.67116 0
M  V30 11995 H 1109.64 -1.03726 -3.06631 0
M  V30 11996 H 1108.55 -3.12386 -2.0583 0
M  V30 11997 H 1109.88 -4.09917 -2.7245 0
M  V30 11998 N 1111.53 0.65634 -1.43283 0
M  V30 11999 C 1112.46 1.78101 -1.51004 0
M  V30 12000 C 1113.44 1.66138 -0.36498 0
M  V30 12001 O 1114.63 1.85281 -0.581778 0
M  V30 12002 C 1111.76 3.16511 -1.42961 0
M  V30 12003 C 1110.71 3.43233 -2.55685 0
M  V30 12004 C 1110.04 4.81411 -2.32696 0
M  V30 12005 C 1111.34 3.38288 -3.97943 0
M  V30 12006 H 1113.03 1.71896 -2.45137 0
M  V30 12007 H 1110.58 0.825575 -1.17984 0
M  V30 12008 H 1112.53 3.94941 -1.46968 0
M  V30 12009 H 1111.25 3.23439 -0.45332 0
M  V30 12010 H 1109.91 2.67173 -2.51026 0
M  V30 12011 H 1109.56 4.85011 -1.33317 0
M  V30 12012 H 1109.26 5.00251 -3.08257 0
M  V30 12013 H 1110.79 5.62102 -2.38481 0
M  V30 12014 H 1112.2 4.06659 -4.04106 0
M  V30 12015 H 1110.6 3.68664 -4.73505 0
M  V30 12016 H 1111.67 2.36525 -4.23301 0
M  V30 12017 N 1113.01 1.29761 0.894412 0
M  V30 12018 C 1113.94 1.17902 2.01547 0
M  V30 12019 C 1114.92 0.0719402 1.69948 0
M  V30 12020 O 1116.11 0.252338 1.92554 0
M  V30 12021 C 1113.24 0.860262 3.36477 0
M  V30 12022 C 1112.19 1.92424 3.82305 0
M  V30 12023 C 1111.52 1.45868 5.14419 0
M  V30 12024 C 1112.82 3.33391 4.02054 0
M  V30 12025 H 1114.51 2.11688 2.11727 0
M  V30 12026 H 1112.06 1.01916 1.01731 0
M  V30 12027 H 1114.01 0.763987 4.14417 0
M  V30 12028 H 1112.73 -0.113289 3.26403 0
M  V30 12029 H 1111.39 2.00999 3.06586 0
M  V30 12030 H 1111.04 0.473654 5.00765 0
M  V30 12031 H 1110.74 2.17028 5.46052 0
M  V30 12032 H 1112.26 1.37601 5.94894 0
M  V30 12033 H 1113.68 3.27628 4.7046 0
M  V30 12034 H 1112.07 4.02555 4.4505 0
M  V30 12035 H 1113.14 3.75978 3.06216 0
M  V30 12036 N 1114.49 -1.10549 1.12324 0
M  V30 12037 C 1115.4 -2.20428 0.803032 0
M  V30 12038 C 1116.41 -1.72756 -0.207674 0
M  V30 12039 O 1117.59 -2.01357 -0.0415623 0
M  V30 12040 C 1114.65 -3.45716 0.261032 0
M  V30 12041 C 1113.72 -4.08129 1.33152 0
M  V30 12042 C 1112.95 -5.27436 0.815288 0
M  V30 12043 O 1113.17 -5.69317 -0.351361 0
M  V30 12044 O 1112.11 -5.80674 1.58434 0
M  V30 12045 H 1115.93 -2.50249 1.72073 0
M  V30 12046 H 1113.52 -1.19263 0.899815 0
M  V30 12047 H 1115.4 -4.21384 -0.0364007 0
M  V30 12048 H 1114.07 -3.17525 -0.629249 0
M  V30 12049 H 1112.98 -3.3415 1.6821 0
M  V30 12050 H 1114.31 -4.4052 2.19552 0
M  V30 12051 N 1115.97 -0.914965 -1.28321 0
M  V30 12052 C 1117.2 -0.563835 -1.98757 0
M  V30 12053 C 1117.6 0.859528 -1.68549 0
M  V30 12054 O 1116.95 1.58105 -0.935336 0
M  V30 12055 C 1117.01 -0.694539 -3.52727 0
M  V30 12056 C 1116.67 -2.08767 -4.06528 0
M  V30 12057 C 1117.67 -3.06052 -4.20272 0
M  V30 12058 C 1115.35 -2.40118 -4.4119 0
M  V30 12059 C 1117.35 -4.32803 -4.67932 0
M  V30 12060 C 1115.04 -3.67108 -4.88544 0
M  V30 12061 C 1116.03 -4.63265 -5.01871 0
M  V30 12062 O 1115.72 -5.87997 -5.48192 0
M  V30 12063 H 1115.45 -0.213557 -0.641381 0
M  V30 12064 H 1118.01 -1.23062 -1.64453 0
M  V30 12065 H 1116.24 0.0293186 -3.86689 0
M  V30 12066 H 1117.93 -0.350335 -4.04385 0
M  V30 12067 H 1118.69 -2.8315 -3.93765 0
M  V30 12068 H 1114.57 -1.66025 -4.30066 0
M  V30 12069 H 1118.12 -5.07861 -4.78249 0
M  V30 12070 H 1114.01 -3.89834 -5.14489 0
M  V30 12071 H 1114.78 -5.90804 -5.66474 0
M  V30 12072 N 1117.44 1.42219 -0.679077 0
M  V30 12073 C 1118.37 2.33493 -0.0174528 0
M  V30 12074 C 1119.35 1.50915 0.78477 0
M  V30 12075 O 1120.54 1.79504 0.741065 0
M  V30 12076 C 1117.67 3.34576 0.931463 0
M  V30 12077 C 1116.62 4.2734 0.237527 0
M  V30 12078 C 1115.95 5.18664 1.29967 0
M  V30 12079 C 1117.25 5.14729 -0.886082 0
M  V30 12080 H 1118.94 2.89068 -0.779748 0
M  V30 12081 H 1116.49 1.38993 -0.376419 0
M  V30 12082 H 1118.44 3.97343 1.40343 0
M  V30 12083 H 1117.17 2.77315 1.72523 0
M  V30 12084 H 1115.83 3.65973 -0.214245 0
M  V30 12085 H 1115.47 4.57727 2.08554 0
M  V30 12086 H 1115.17 5.81558 0.840463 0
M  V30 12087 H 1116.7 5.84308 1.77249 0
M  V30 12088 H 1118.11 5.71158 -0.495141 0
M  V30 12089 H 1116.51 5.86478 -1.27135 0
M  V30 12090 H 1117.58 4.52874 -1.733 0
M  V30 12091 N 1118.92 0.422693 1.51826 0
M  V30 12092 C 1120.33 -0.0438129 1.86649 0
M  V30 12093 C 1120.68 -1.43246 1.34071 0
M  V30 12094 O 1119.81 -2.05256 0.685501 0
M  V30 12095 C 1120.4 -0.0862802 3.3869 0
M  V30 12096 C 1118.96 -0.497157 3.73102 0
M  V30 12097 C 1118.11 0.319655 2.75451 0
M  V30 12098 H 1121.06 0.639181 1.45259 0
M  V30 12099 H 1121.08 -0.8988 3.69732 0
M  V30 12100 H 1120.59 0.924525 3.76927 0
M  V30 12101 H 1118.69 -1.51411 3.40449 0
M  V30 12102 H 1118.81 -0.232125 4.78537 0
M  V30 12103 H 1117.17 -0.219963 2.53748 0
M  V30 12104 H 1117.95 1.32906 3.16529 0
M  V30 12105 N 1120.4 -1.5685 0.153553 0
M  V30 12106 C 1121.33 -2.14231 -0.814729 0
M  V30 12107 C 1122.34 -1.09339 -1.20619 0
M  V30 12108 O 1123.53 -1.36592 -1.14913 0
M  V30 12109 C 1120.63 -2.6555 -2.10562 0
M  V30 12110 C 1119.81 -3.94912 -1.8805 0
M  V30 12111 C 1118.87 -4.31476 -3.0119 0
M  V30 12112 O 1117.89 -4.9968 -2.72596 0
M  V30 12113 N 1119.09 -3.91588 -4.28531 0
M  V30 12114 H 1121.86 -2.9794 -0.324277 0
M  V30 12115 H 1119.42 -1.61873 -0.0298087 0
M  V30 12116 H 1121.41 -2.87019 -2.85311 0
M  V30 12117 H 1119.98 -1.86529 -2.5085 0
M  V30 12118 H 1119.2 -3.82002 -0.973024 0
M  V30 12119 H 1120.49 -4.79433 -1.70356 0
M  V30 12120 H 1119.89 -3.36645 -4.54628 0
M  V30 12121 H 1118.44 -4.18095 -5.00039 0
M  V30 12122 N 1121.88 0.120221 -1.57141 0
M  V30 12123 C 1122.81 1.14876 -2.03287 0
M  V30 12124 C 1123.79 1.43259 -0.917112 0
M  V30 12125 O 1124.97 1.53721 -1.18674 0
M  V30 12126 C 1122.1 2.47525 -2.43616 0
M  V30 12127 C 1121.06 2.33607 -3.58625 0
M  V30 12128 C 1120.38 3.71207 -3.84849 0
M  V30 12129 C 1121.68 1.79761 -4.90391 0
M  V30 12130 H 1123.38 0.764943 -2.89463 0
M  V30 12131 H 1120.92 0.366516 -1.39258 0
M  V30 12132 H 1122.88 3.19728 -2.74504 0
M  V30 12133 H 1121.6 2.87794 -1.54409 0
M  V30 12134 H 1120.26 1.63853 -3.27945 0
M  V30 12135 H 1119.91 4.0896 -2.9285 0
M  V30 12136 H 1119.61 3.62749 -4.62263 0
M  V30 12137 H 1121.13 4.44917 -4.18188 0
M  V30 12138 H 1122.55 2.4178 -5.19822 0
M  V30 12139 H 1120.94 1.82126 -5.71795 0
M  V30 12140 H 1122.01 0.755087 -4.78985 0
M  V30 12141 N 1123.36 1.52689 0.390367 0
M  V30 12142 C 1124.6 1.67914 1.13722 0
M  V30 12143 C 1124.94 0.417159 1.89667 0
M  V30 12144 O 1124.21 -0.585005 1.85494 0
M  V30 12145 C 1124.49 2.91331 2.11656 0
M  V30 12146 C 1124.35 4.27626 1.39484 0
M  V30 12147 C 1125.67 3.10293 3.12099 0
M  V30 12148 H 1122.78 0.611047 0.412057 0
M  V30 12149 H 1125.43 1.85283 0.420753 0
M  V30 12150 H 1123.58 2.76654 2.72754 0
M  V30 12151 H 1125.25 4.54068 0.813607 0
M  V30 12152 H 1123.49 4.28169 0.69669 0
M  V30 12153 H 1124.16 5.10066 2.11038 0
M  V30 12154 H 1126.64 3.23992 2.6109 0
M  V30 12155 H 1125.51 3.98127 3.7787 0
M  V30 12156 H 1125.78 2.24448 3.80888 0
M  V30 12157 N 1124.83 -0.648732 1.43629 0
M  V30 12158 C 1125.77 -1.77417 1.45107 0
M  V30 12159 C 1126.78 -1.59067 0.346618 0
M  V30 12160 O 1127.97 -1.67705 0.611322 0
M  V30 12161 C 1125.07 -3.14906 1.25249 0
M  V30 12162 C 1124.24 -3.59874 2.48616 0
M  V30 12163 C 1123.3 -4.76181 2.23916 0
M  V30 12164 O 1122.33 -4.8539 2.97296 0
M  V30 12165 N 1123.53 -5.66691 1.25862 0
M  V30 12166 H 1126.29 -1.76626 2.42123 0
M  V30 12167 H 1123.85 -0.832725 1.38843 0
M  V30 12168 H 1125.85 -3.90408 1.06601 0
M  V30 12169 H 1124.42 -3.10443 0.366623 0
M  V30 12170 H 1123.64 -2.74768 2.82659 0
M  V30 12171 H 1124.92 -3.86665 3.30708 0
M  V30 12172 H 1124.32 -5.61927 0.652227 0
M  V30 12173 H 1122.88 -6.41895 1.13196 0
M  V30 12174 N 1126.31 -1.30234 -0.887518 0
M  V30 12175 C 1127.28 -1.16384 -1.97452 0
M  V30 12176 C 1128.28 -0.0957942 -1.60514 0
M  V30 12177 O 1129.47 -0.343706 -1.70776 0
M  V30 12178 C 1126.6 -0.782514 -3.31797 0
M  V30 12179 H 1127.79 -2.12952 -2.11167 0
M  V30 12180 H 1125.34 -1.13594 -1.07359 0
M  V30 12181 H 1126.08 0.18278 -3.23785 0
M  V30 12182 H 1125.86 -1.55434 -3.59976 0
M  V30 12183 H 1127.35 -0.709011 -4.11537 0
M  V30 12184 N 1127.79 1.09952 -1.12909 0
M  V30 12185 C 1129.04 1.82286 -0.888797 0
M  V30 12186 C 1129.37 1.85218 0.58379 0
M  V30 12187 O 1128.64 1.31645 1.43177 0
M  V30 12188 C 1128.93 3.28706 -1.47053 0
M  V30 12189 C 1128.78 3.34078 -3.01184 0
M  V30 12190 C 1130.1 4.25233 -1.13424 0
M  V30 12191 H 1127.22 0.661803 -0.324324 0
M  V30 12192 H 1129.86 1.28833 -1.3965 0
M  V30 12193 H 1128.01 3.74356 -1.03874 0
M  V30 12194 H 1129.68 2.96871 -3.5308 0
M  V30 12195 H 1127.93 2.73825 -3.36455 0
M  V30 12196 H 1128.6 4.37202 -3.36984 0
M  V30 12197 H 1131.07 3.87841 -1.50726 0
M  V30 12198 H 1129.95 5.26033 -1.56783 0
M  V30 12199 H 1130.21 4.42075 -0.0471496 0
M  V30 12200 N 1129.27 0.921757 1.27833 0
M  V30 12201 C 1130.22 0.414838 2.27041 0
M  V30 12202 C 1131.19 -0.515045 1.57913 0
M  V30 12203 O 1132.37 -0.435499 1.85763 0
M  V30 12204 C 1129.51 -0.331744 3.43502 0
M  V30 12205 C 1128.62 0.631565 4.27358 0
M  V30 12206 C 1127.76 -0.134265 5.3103 0
M  V30 12207 C 1126.8 0.822138 6.06554 0
M  V30 12208 N 1125.93 0.0893149 7.02043 0
M  V30 12209 H 1130.77 1.26585 2.69778 0
M  V30 12210 H 1128.31 0.635488 1.32665 0
M  V30 12211 H 1130.27 -0.780866 4.09827 0
M  V30 12212 H 1128.9 -1.14704 3.01733 0
M  V30 12213 H 1127.95 1.19922 3.61003 0
M  V30 12214 H 1129.26 1.36274 4.79824 0
M  V30 12215 H 1128.42 -0.643579 6.03277 0
M  V30 12216 H 1127.16 -0.898443 4.79353 0
M  V30 12217 H 1126.16 1.34275 5.33151 0
M  V30 12218 H 1127.39 1.586 6.6032 0
M  V30 12219 H 1125.33 -0.656725 6.52704 0
M  V30 12220 H 1125.25 0.760167 7.52169 0
M  V30 12221 H 1126.52 -0.399541 7.78475 0
M  V30 12222 N 1130.75 -1.41857 0.686609 0
M  V30 12223 C 1131.99 -2.01368 0.213801 0
M  V30 12224 C 1132.32 -1.5434 -1.18361 0
M  V30 12225 O 1131.58 -0.741447 -1.81111 0
M  V30 12226 C 1131.88 -3.56783 0.209951 0
M  V30 12227 C 1131.54 -4.23288 1.55365 0
M  V30 12228 C 1130.2 -4.41169 1.92154 0
M  V30 12229 C 1132.56 -4.6066 2.43807 0
M  V30 12230 C 1129.88 -4.93697 3.16986 0
M  V30 12231 C 1132.24 -5.14573 3.67963 0
M  V30 12232 C 1130.9 -5.30667 4.04906 0
M  V30 12233 H 1130.17 -0.736858 0.0782352 0
M  V30 12234 H 1132.82 -1.69879 0.88393 0
M  V30 12235 H 1131.12 -3.88009 -0.543712 0
M  V30 12236 H 1132.82 -4.00625 -0.173267 0
M  V30 12237 H 1129.41 -4.09738 1.2575 0
M  V30 12238 H 1133.59 -4.46507 2.16668 0
M  V30 12239 H 1128.85 -5.04342 3.45615 0
M  V30 12240 H 1133.02 -5.42473 4.36687 0
M  V30 12241 H 1130.65 -5.71133 5.01709 0
M  V30 12242 N 1132.22 -0.430739 -1.51599 0
M  V30 12243 C 1133.13 0.390347 -2.3133 0
M  V30 12244 C 1134.15 1.03376 -1.39962 0
M  V30 12245 O 1135.33 1.03057 -1.73035 0
M  V30 12246 C 1132.39 1.48039 -3.13505 0
M  V30 12247 C 1131.45 0.857792 -4.20643 0
M  V30 12248 C 1130.69 1.89589 -4.9889 0
M  V30 12249 O 1130.91 3.11717 -4.77691 0
M  V30 12250 O 1129.84 1.49009 -5.83164 0
M  V30 12251 H 1133.67 -0.260358 -3.02582 0
M  V30 12252 H 1131.25 -0.193428 -1.48143 0
M  V30 12253 H 1133.14 2.11272 -3.64612 0
M  V30 12254 H 1131.81 2.1153 -2.45024 0
M  V30 12255 H 1130.72 0.187592 -3.73629 0
M  V30 12256 H 1132.05 0.266474 -4.91478 0
M  V30 12257 N 1133.7 1.56767 -0.161869 0
M  V30 12258 C 1134.95 1.97661 0.479751 0
M  V30 12259 C 1135.3 1.04583 1.61493 0
M  V30 12260 O 1134.6 0.0836772 1.91417 0
M  V30 12261 C 1134.79 3.42567 1.01894 0
M  V30 12262 C 1134.62 4.49657 -0.0624633 0
M  V30 12263 C 1133.39 5.0273 -0.508935 0
M  V30 12264 C 1135.59 5.07069 -0.85941 0
M  V30 12265 N 1133.57 5.93442 -1.57163 0
M  V30 12266 C 1134.94 5.94131 -1.77225 0
M  V30 12267 C 1137 4.89596 -0.905543 0
M  V30 12268 C 1135.7 6.6559 -2.72731 0
M  V30 12269 C 1137.72 5.61769 -1.8485 0
M  V30 12270 C 1137.09 6.48551 -2.74884 0
M  V30 12271 H 1133.19 0.76864 0.14393 0
M  V30 12272 H 1135.77 1.92957 -0.259906 0
M  V30 12273 H 1133.94 3.47835 1.72815 0
M  V30 12274 H 1135.67 3.70493 1.62841 0
M  V30 12275 H 1132.43 4.73476 -0.1084 0
M  V30 12276 H 1132.85 6.43502 -2.10319 0
M  V30 12277 H 1137.49 4.22209 -0.223516 0
M  V30 12278 H 1135.21 7.32197 -3.41927 0
M  V30 12279 H 1138.8 5.50239 -1.89018 0
M  V30 12280 H 1137.68 7.03417 -3.46661 0
M  V30 12281 N 1135.18 -0.111886 1.57202 0
M  V30 12282 C 1136.13 -1.15585 2.01849 0
M  V30 12283 C 1137.12 -1.42458 0.916621 0
M  V30 12284 O 1138.33 -1.42337 1.10182 0
M  V30 12285 H 1134.7 -0.389885 0.643035 0
M  V30 12286 H 1136.67 -0.752854 2.88747 0
M  V30 12287 C 1135.42 -2.47247 2.44467 0
M  V30 12288 H 1134.75 -2.27409 3.28824 0
M  V30 12289 H 1136.19 -3.18837 2.79497 0
M  V30 12290 C 1134.65 -3.10339 1.31115 0
M  V30 12291 O 1135.18 -3.96713 0.631029 0
M  V30 12292 N 1133.38 -2.70326 1.0664 0
M  V30 12293 H 1132.93 -2.00182 1.62126 0
M  V30 12294 H 1132.89 -3.12869 0.309944 0
M  V30 12295 N 1136.66 -1.52894 -0.382264 0
M  V30 12296 C 1137.59 -1.81122 -1.47367 0
M  V30 12297 C 1138.57 -0.663653 -1.56619 0
M  V30 12298 O 1139.75 -0.911898 -1.71459 0
M  V30 12299 C 1136.88 -1.98615 -2.84902 0
M  V30 12300 C 1135.84 -3.14328 -2.90485 0
M  V30 12301 C 1135.16 -3.17086 -4.30535 0
M  V30 12302 C 1136.46 -4.53263 -2.59519 0
M  V30 12303 H 1138.16 -2.72518 -1.23993 0
M  V30 12304 H 1135.7 -1.3113 -0.595049 0
M  V30 12305 H 1137.66 -2.16946 -3.61265 0
M  V30 12306 H 1136.38 -1.03915 -3.09628 0
M  V30 12307 H 1135.04 -2.95791 -2.16572 0
M  V30 12308 H 1134.69 -2.20055 -4.52311 0
M  V30 12309 H 1134.39 -3.94821 -4.3519 0
M  V30 12310 H 1135.91 -3.3758 -5.08795 0
M  V30 12311 H 1137.33 -4.71867 -3.25598 0
M  V30 12312 H 1135.72 -5.33115 -2.75514 0
M  V30 12313 H 1136.79 -4.59516 -1.54831 0
M  V30 12314 N 1138.14 0.641106 -1.43971 0
M  V30 12315 C 1139.05 1.78239 -1.52538 0
M  V30 12316 C 1140.06 1.6906 -0.411668 0
M  V30 12317 O 1141.24 1.90014 -0.66757 0
M  V30 12318 C 1138.3 3.14579 -1.45743 0
M  V30 12319 C 1137.37 3.35464 -2.67885 0
M  V30 12320 C 1136.6 4.65299 -2.61404 0
M  V30 12321 O 1136.82 5.45451 -1.66851 0
M  V30 12322 O 1135.76 4.8817 -3.521 0
M  V30 12323 H 1139.58 1.73965 -2.48937 0
M  V30 12324 H 1137.17 0.801098 -1.26106 0
M  V30 12325 H 1139.05 3.95873 -1.4444 0
M  V30 12326 H 1137.72 3.19417 -0.524837 0
M  V30 12327 H 1136.63 2.53888 -2.74758 0
M  V30 12328 H 1137.96 3.35481 -3.60157 0
M  V30 12329 N 1139.62 1.30703 0.880598 0
M  V30 12330 C 1140.84 1.22843 1.67106 0
M  V30 12331 C 1141.27 -0.204788 1.86982 0
M  V30 12332 O 1140.62 -1.14716 1.40392 0
M  V30 12333 C 1140.67 1.96685 3.02237 0
M  V30 12334 O 1139.78 1.29693 3.91476 0
M  V30 12335 H 1139.12 0.424661 0.51045 0
M  V30 12336 H 1141.65 1.72596 1.09871 0
M  V30 12337 H 1141.66 2.05874 3.52249 0
M  V30 12338 H 1140.33 3.00919 2.8709 0
M  V30 12339 H 1138.91 1.28886 3.49918 0
M  V30 12340 N 1141.09 -1.09351 1.1349 0
M  V30 12341 C 1142.5 -1.63035 0.909746 0
M  V30 12342 C 1142.86 -1.88229 -0.553573 0
M  V30 12343 O 1141.98 -1.63256 -1.42044 0
M  V30 12344 C 1142.58 -2.96186 1.64497 0
M  V30 12345 C 1141.13 -3.46692 1.46566 0
M  V30 12346 C 1140.28 -2.21095 1.67369 0
M  V30 12347 H 1143.23 -0.92704 1.28809 0
M  V30 12348 H 1143.25 -3.64177 1.10251 0
M  V30 12349 H 1142.77 -2.77818 2.70996 0
M  V30 12350 H 1140.87 -3.70183 0.423728 0
M  V30 12351 H 1140.98 -4.24078 2.22923 0
M  V30 12352 H 1139.34 -2.29789 1.0986 0
M  V30 12353 H 1140.13 -2.05245 2.7519 0
M  V30 12354 N 1142.57 -0.928524 -1.27343 0
M  V30 12355 C 1143.5 -0.445627 -2.29208 0
M  V30 12356 C 1144.48 0.494508 -1.62753 0
M  V30 12357 O 1145.67 0.399082 -1.90055 0
M  V30 12358 C 1142.8 0.301684 -3.45987 0
M  V30 12359 C 1141.75 -0.550695 -4.24442 0
M  V30 12360 C 1141.08 0.325833 -5.33706 0
M  V30 12361 C 1142.38 -1.81559 -4.89728 0
M  V30 12362 H 1144.07 -1.29696 -2.69851 0
M  V30 12363 H 1141.62 -0.625085 -1.29725 0
M  V30 12364 H 1143.57 0.650455 -4.1635 0
M  V30 12365 H 1142.29 1.18705 -3.04264 0
M  V30 12366 H 1140.95 -0.882185 -3.55827 0
M  V30 12367 H 1140.6 1.21018 -4.88225 0
M  V30 12368 H 1140.3 -0.240994 -5.87106 0
M  V30 12369 H 1141.83 0.670156 -6.06911 0
M  V30 12370 H 1143.24 -1.53483 -5.52373 0
M  V30 12371 H 1141.64 -2.32598 -5.53189 0
M  V30 12372 H 1142.71 -2.53461 -4.13383 0
M  V30 12373 N 1144.05 1.41491 -0.694123 0
M  V30 12374 C 1145.3 2.0155 -0.224809 0
M  V30 12375 C 1145.63 1.54844 1.17205 0
M  V30 12376 O 1144.9 0.75899 1.7908 0
M  V30 12377 C 1145.19 3.59003 -0.280884 0
M  V30 12378 C 1145.04 4.15839 -1.71458 0
M  V30 12379 C 1146.36 4.38624 0.360122 0
M  V30 12380 H 1143.48 0.732293 -0.0831632 0
M  V30 12381 H 1146.12 1.68258 -0.882569 0
M  V30 12382 H 1144.27 3.87496 0.279164 0
M  V30 12383 H 1145.94 3.98227 -2.32837 0
M  V30 12384 H 1144.18 3.70936 -2.2492 0
M  V30 12385 H 1144.86 5.24997 -1.70536 0
M  V30 12386 H 1147.33 4.15936 -0.11683 0
M  V30 12387 H 1146.21 5.48132 0.290337 0
M  V30 12388 H 1146.47 4.1797 1.44062 0
M  V30 12389 N 1145.53 0.438773 1.51369 0
M  V30 12390 C 1146.46 -0.407771 2.25543 0
M  V30 12391 C 1147.47 -0.985065 1.29616 0
M  V30 12392 O 1148.66 -0.878961 1.55359 0
M  V30 12393 C 1145.76 -1.58257 2.9968 0
M  V30 12394 C 1144.93 -1.12389 4.22714 0
M  V30 12395 C 1143.99 -2.16897 4.79418 0
M  V30 12396 O 1143.02 -1.76273 5.41218 0
M  V30 12397 N 1144.22 -3.49396 4.63576 0
M  V30 12398 H 1146.99 0.227963 2.98832 0
M  V30 12399 H 1144.55 0.267741 1.59671 0
M  V30 12400 H 1146.54 -2.27796 3.34501 0
M  V30 12401 H 1145.11 -2.12362 2.29393 0
M  V30 12402 H 1144.33 -0.255509 3.93371 0
M  V30 12403 H 1145.62 -0.794848 5.02553 0
M  V30 12404 H 1145.02 -3.85132 4.14355 0
M  V30 12405 H 1143.57 -4.14826 5.02755 0
M  V30 12406 N 1147.01 -1.56678 0.170181 0
M  V30 12407 C 1147.94 -2.20916 -0.756213 0
M  V30 12408 C 1148.92 -1.16442 -1.23997 0
M  V30 12409 O 1150.1 -1.44867 -1.29333 0
M  V30 12410 C 1147.23 -2.84901 -1.98617 0
M  V30 12411 C 1146.19 -3.95403 -1.63831 0
M  V30 12412 C 1145.51 -4.46432 -2.94282 0
M  V30 12413 C 1146.81 -5.15051 -0.867195 0
M  V30 12414 H 1148.51 -2.98585 -0.220776 0
M  V30 12415 H 1146.05 -1.43619 -0.104748 0
M  V30 12416 H 1148 -3.28514 -2.63926 0
M  V30 12417 H 1146.73 -2.04598 -2.54572 0
M  V30 12418 H 1145.39 -3.52444 -1.00891 0
M  V30 12419 H 1145.04 -3.62923 -3.48276 0
M  V30 12420 H 1144.74 -5.20979 -2.71762 0
M  V30 12421 H 1146.26 -4.92731 -3.60622 0
M  V30 12422 H 1147.67 -5.55363 -1.42285 0
M  V30 12423 H 1146.07 -5.95507 -0.741065 0
M  V30 12424 H 1147.14 -4.84707 0.136693 0
M  V30 12425 N 1148.48 0.103547 -1.57259 0
M  V30 12426 C 1149.41 1.12714 -2.04494 0
M  V30 12427 C 1150.39 1.42278 -0.932255 0
M  V30 12428 O 1151.58 1.52453 -1.20298 0
M  V30 12429 C 1148.71 2.44927 -2.46228 0
M  V30 12430 C 1147.66 2.2979 -3.61082 0
M  V30 12431 C 1146.99 3.67105 -3.88765 0
M  V30 12432 C 1148.29 1.7455 -4.9227 0
M  V30 12433 H 1149.98 0.734198 -2.90258 0
M  V30 12434 H 1147.53 0.351725 -1.39638 0
M  V30 12435 H 1149.48 3.16798 -2.77879 0
M  V30 12436 H 1148.21 2.8614 -1.57453 0
M  V30 12437 H 1146.87 1.60366 -3.29664 0
M  V30 12438 H 1146.51 4.05831 -2.97171 0
M  V30 12439 H 1146.21 3.57825 -4.66084 0
M  V30 12440 H 1147.74 4.40456 -4.22884 0
M  V30 12441 H 1149.15 2.36253 -5.22358 0
M  V30 12442 H 1147.55 1.76051 -5.73695 0
M  V30 12443 H 1148.62 0.704242 -4.79759 0
M  V30 12444 N 1149.96 1.53094 0.37415 0
M  V30 12445 C 1150.89 1.81901 1.46404 0
M  V30 12446 C 1151.87 0.671949 1.56265 0
M  V30 12447 O 1153.06 0.920978 1.70973 0
M  V30 12448 C 1150.19 2.00123 2.83845 0
M  V30 12449 C 1149.14 3.15864 2.88814 0
M  V30 12450 C 1148.47 3.19364 4.28848 0
M  V30 12451 C 1149.77 4.54633 2.57112 0
M  V30 12452 H 1151.46 2.73172 1.22546 0
M  V30 12453 H 1149.01 1.31444 0.588087 0
M  V30 12454 H 1150.96 2.18859 3.6011 0
M  V30 12455 H 1149.68 1.05555 3.09072 0
M  V30 12456 H 1148.34 2.96935 2.15 0
M  V30 12457 H 1147.99 2.2245 4.51137 0
M  V30 12458 H 1147.69 3.97123 4.3309 0
M  V30 12459 H 1149.22 3.40273 5.06997 0
M  V30 12460 H 1150.63 4.73587 3.23091 0
M  V30 12461 H 1149.03 5.34569 2.72683 0
M  V30 12462 H 1150.1 4.60331 1.52392 0
M  V30 12463 N 1151.44 -0.633461 1.44309 0
M  V30 12464 C 1152.39 -1.73919 1.47432 0
M  V30 12465 C 1153.37 -1.57258 0.340381 0
M  V30 12466 O 1154.57 -1.67035 0.585529 0
M  V30 12467 C 1151.69 -3.12595 1.41912 0
M  V30 12468 C 1150.78 -3.34734 2.60411 0
M  V30 12469 N 1151.17 -3.2725 3.85669 0
M  V30 12470 C 1149.47 -3.65522 2.55557 0
M  V30 12471 C 1150.17 -3.50013 4.64613 0
M  V30 12472 N 1149.15 -3.72775 3.95651 0
M  V30 12473 H 1152.95 -1.66588 2.42128 0
M  V30 12474 H 1150.46 -0.835844 1.39239 0
M  V30 12475 H 1152.46 -3.91887 1.42233 0
M  V30 12476 H 1151.12 -3.21095 0.482525 0
M  V30 12477 H 1152.13 -3.06221 4.17671 0
M  V30 12478 H 1148.81 -3.81017 1.70682 0
M  V30 12479 H 1150.2 -3.49839 5.73639 0
M  V30 12480 N 1152.92 -1.31168 -0.873655 0
M  V30 12481 C 1154.33 -1.09745 -1.1588 0
M  V30 12482 C 1154.53 0.134471 -2.01051 0
M  V30 12483 O 1153.59 0.824857 -2.38647 0
M  V30 12484 C 1154.9 -2.36704 -1.85451 0
M  V30 12485 C 1156.45 -2.42278 -1.98167 0
M  V30 12486 C 1156.93 -3.69108 -2.71152 0
M  V30 12487 N 1158.42 -3.69981 -2.7869 0
M  V30 12488 C 1159.15 -4.64811 -3.35765 0
M  V30 12489 N 1158.65 -5.69995 -3.938 0
M  V30 12490 N 1160.44 -4.52337 -3.33688 0
M  V30 12491 H 1152.59 -2.10184 -0.306021 0
M  V30 12492 H 1154.86 -0.927058 -0.198159 0
M  V30 12493 H 1154.56 -3.26666 -1.30316 0
M  V30 12494 H 1154.44 -2.46219 -2.85755 0
M  V30 12495 H 1156.82 -1.52787 -2.52468 0
M  V30 12496 H 1156.9 -2.3673 -0.969164 0
M  V30 12497 H 1156.55 -4.58963 -2.1752 0
M  V30 12498 H 1156.48 -3.71922 -3.72803 0
M  V30 12499 H 1158.97 -2.93944 -2.37498 0
M  V30 12500 H 1159.28 -6.38438 -4.3545 0
M  V30 12501 H 1157.63 -5.73773 -3.92186 0
M  V30 12502 H 1160.82 -3.69341 -2.87584 0
M  V30 12503 H 1160.99 -5.2642 -3.77871 0
M  V30 12504 N 1154.4 1.08748 -1.14068 0
M  V30 12505 C 1155.62 1.85353 -0.930532 0
M  V30 12506 C 1156.05 1.80892 0.515717 0
M  V30 12507 O 1155.4 1.19146 1.36652 0
M  V30 12508 C 1155.45 3.30962 -1.43167 0
M  V30 12509 O 1154.56 4.0769 -0.621468 0
M  V30 12510 H 1153.9 0.574485 -0.332962 0
M  V30 12511 H 1156.43 1.37282 -1.51707 0
M  V30 12512 H 1156.44 3.81807 -1.43832 0
M  V30 12513 H 1155.11 3.33524 -2.48464 0
M  V30 12514 H 1153.69 3.66587 -0.683267 0
M  V30 12515 N 1155.87 0.935264 1.26849 0
M  V30 12516 C 1156.8 0.457776 2.28969 0
M  V30 12517 C 1157.79 -0.48587 1.63013 0
M  V30 12518 O 1158.97 -0.388998 1.90264 0
M  V30 12519 C 1156.1 -0.283332 3.46142 0
M  V30 12520 C 1155.05 0.573196 4.24144 0
M  V30 12521 C 1154.38 -0.297525 5.33872 0
M  V30 12522 C 1155.68 1.84153 4.88759 0
M  V30 12523 H 1157.37 1.31125 2.69159 0
M  V30 12524 H 1154.92 0.631956 1.29392 0
M  V30 12525 H 1156.87 -0.628366 4.16689 0
M  V30 12526 H 1155.6 -1.1709 3.04889 0
M  V30 12527 H 1154.26 0.901043 3.55354 0
M  V30 12528 H 1153.9 -1.18427 4.8886 0
M  V30 12529 H 1153.6 0.272126 5.8697 0
M  V30 12530 H 1155.13 -0.637961 6.07258 0
M  V30 12531 H 1156.54 1.5641 5.51551 0
M  V30 12532 H 1154.94 2.35528 5.51948 0
M  V30 12533 H 1156.01 2.5565 4.12033 0
M  V30 12534 N 1157.35 -1.41121 0.701616 0
M  V30 12535 C 1158.28 -2.292 0.000880842 0
M  V30 12536 C 1159.3 -1.45102 -0.738192 0
M  V30 12537 O 1160.49 -1.68541 -0.587891 0
M  V30 12538 C 1157.59 -3.23094 -1.02292 0
M  V30 12539 C 1156.76 -4.35979 -0.352231 0
M  V30 12540 C 1155.82 -5.10408 -1.27947 0
M  V30 12541 O 1154.84 -5.63974 -0.769561 0
M  V30 12542 N 1156.05 -5.18442 -2.61147 0
M  V30 12543 H 1158.81 -2.8998 0.757094 0
M  V30 12544 H 1156.37 -1.52339 0.548126 0
M  V30 12545 H 1158.36 -3.69755 -1.64509 0
M  V30 12546 H 1156.93 -2.6358 -1.68061 0
M  V30 12547 H 1156.15 -3.91624 0.44992 0
M  V30 12548 H 1157.44 -5.08673 0.113882 0
M  V30 12549 H 1156.84 -4.76381 -3.05087 0
M  V30 12550 H 1155.4 -5.68659 -3.18544 0
M  V30 12551 N 1158.83 -0.446794 -1.51134 0
M  V30 12552 C 1160.06 0.117242 -2.07068 0
M  V30 12553 C 1160.48 1.34877 -1.3111 0
M  V30 12554 O 1159.84 1.77856 -0.35172 0
M  V30 12555 C 1159.89 0.408616 -3.58277 0
M  V30 12556 O 1158.99 1.49345 -3.84408 0
M  V30 12557 H 1158.33 -0.00228458 -0.663996 0
M  V30 12558 H 1160.86 -0.63085 -1.94632 0
M  V30 12559 H 1160.87 0.656298 -4.02687 0
M  V30 12560 H 1159.55 -0.491444 -4.12986 0
M  V30 12561 H 1158.12 1.23499 -3.51856 0
M  V30 12562 N 1160.31 1.56586 -0.178487 0
M  V30 12563 C 1161.56 1.96273 0.464745 0
M  V30 12564 C 1161.87 1.0675 1.63902 0
M  V30 12565 O 1163.08 1.36148 2.34896 0
M  V30 12566 C 1161.53 3.49021 0.878207 0
M  V30 12567 C 1161.14 4.4718 -0.270861 0
M  V30 12568 C 1162.88 3.97512 1.48946 0
M  V30 12569 C 1160.79 5.91176 0.162632 0
M  V30 12570 H 1159.72 0.732834 0.177398 0
M  V30 12571 H 1162.37 1.81534 -0.267861 0
M  V30 12572 H 1160.75 3.59203 1.667 0
M  V30 12573 H 1161.93 4.48718 -1.04826 0
M  V30 12574 H 1160.24 4.08788 -0.792529 0
M  V30 12575 H 1162.84 5.02556 1.82595 0
M  V30 12576 H 1163.18 3.40861 2.38997 0
M  V30 12577 H 1163.72 3.90376 0.76496 0
M  V30 12578 H 1160.46 6.51716 -0.703286 0
M  V30 12579 H 1159.98 5.9293 0.905243 0
M  V30 12580 H 1161.65 6.44174 0.604084 0
M  V30 12581 N 1161.79 -0.095206 1.57312 0
M  V30 12582 C 1162.72 -1.14173 1.98739 0
M  V30 12583 C 1163.73 -1.36323 0.889934 0
M  V30 12584 O 1164.92 -1.34977 1.16805 0
M  V30 12585 C 1162.02 -2.49729 2.29104 0
M  V30 12586 C 1161.19 -2.47857 3.60396 0
M  V30 12587 C 1160.25 -3.65341 3.78699 0
M  V30 12588 O 1159.28 -3.47837 4.50553 0
M  V30 12589 N 1160.48 -4.84818 3.19268 0
M  V30 12590 H 1163.25 -0.789126 2.89124 0
M  V30 12591 H 1160.81 -0.284187 1.59386 0
M  V30 12592 H 1162.8 -3.26925 2.38541 0
M  V30 12593 H 1161.37 -2.7708 1.44726 0
M  V30 12594 H 1160.59 -1.56208 3.61929 0
M  V30 12595 H 1161.88 -2.43685 4.46649 0
M  V30 12596 H 1161.27 -5.01943 2.60902 0
M  V30 12597 H 1159.83 -5.59607 3.34191 0
M  V30 12598 N 1163.26 -1.53291 -0.366026 0
M  V30 12599 C 1164.51 -1.69702 -1.11036 0
M  V30 12600 C 1164.84 -0.44728 -1.88979 0
M  V30 12601 O 1164.12 0.55542 -1.86401 0
M  V30 12602 C 1164.4 -2.94661 -2.06995 0
M  V30 12603 C 1164.25 -4.29791 -1.32663 0
M  V30 12604 C 1165.57 -3.15219 -3.07123 0
M  V30 12605 H 1162.69 -0.617525 -0.402284 0
M  V30 12606 H 1165.33 -1.85929 -0.391223 0
M  V30 12607 H 1163.48 -2.80958 -2.68318 0
M  V30 12608 H 1165.16 -4.55305 -0.741266 0
M  V30 12609 H 1163.4 -4.29223 -0.628484 0
M  V30 12610 H 1164.07 -5.13359 -2.02896 0
M  V30 12611 H 1166.55 -3.28105 -2.55903 0
M  V30 12612 H 1165.42 -4.04088 -3.71489 0
M  V30 12613 H 1165.68 -2.30479 -3.77269 0
M  V30 12614 N 1164.74 0.6258 -1.44643 0
M  V30 12615 C 1165.71 1.71941 -1.51555 0
M  V30 12616 C 1166.71 1.55822 -0.396988 0
M  V30 12617 O 1167.9 1.61221 -0.65981 0
M  V30 12618 C 1165.03 3.11068 -1.39461 0
M  V30 12619 H 1166.22 1.67185 -2.48976 0
M  V30 12620 H 1163.77 0.839934 -1.31814 0
M  V30 12621 H 1164.51 3.21416 -0.431534 0
M  V30 12622 H 1164.29 3.24175 -2.20574 0
M  V30 12623 H 1165.78 3.90762 -1.4729 0
M  V30 12624 N 1166.22 1.31629 0.866686 0
M  V30 12625 C 1167.17 1.16149 1.96197 0
M  V30 12626 C 1168.15 0.0716068 1.60741 0
M  V30 12627 O 1169.35 0.296868 1.74493 0
M  V30 12628 C 1166.48 0.874322 3.3198 0
M  V30 12629 C 1165.56 2.00534 3.73693 0
M  V30 12630 N 1165.95 3.25272 3.87339 0
M  V30 12631 C 1164.25 1.90582 4.0323 0
M  V30 12632 C 1164.95 3.99275 4.2303 0
M  V30 12633 N 1163.93 3.27471 4.33894 0
M  V30 12634 H 1167.73 2.10732 2.04864 0
M  V30 12635 H 1165.24 1.23234 1.05769 0
M  V30 12636 H 1167.24 0.7444 4.102 0
M  V30 12637 H 1165.9 -0.0632521 3.24638 0
M  V30 12638 H 1166.91 3.60349 3.71979 0
M  V30 12639 H 1163.59 1.0431 4.0426 0
M  V30 12640 H 1164.98 5.06784 4.41157 0
M  V30 12641 N 1167.7 -1.08142 1.14644 0
M  V30 12642 C 1169.12 -1.32656 0.887388 0
M  V30 12643 C 1169.32 -1.95942 -0.470012 0
M  V30 12644 O 1168.37 -2.21417 -1.21371 0
M  V30 12645 C 1169.68 -2.22549 2.02219 0
M  V30 12646 C 1171.23 -2.36021 2.0558 0
M  V30 12647 C 1171.71 -3.29257 3.18361 0
M  V30 12648 N 1173.2 -3.36835 3.17957 0
M  V30 12649 C 1173.93 -4.09017 4.01862 0
M  V30 12650 N 1173.43 -4.83882 4.95812 0
M  V30 12651 N 1175.22 -4.04875 3.89913 0
M  V30 12652 H 1167.37 -0.654457 2.02066 0
M  V30 12653 H 1169.64 -0.350947 0.880648 0
M  V30 12654 H 1169.34 -1.83296 3.00159 0
M  V30 12655 H 1169.22 -3.23027 1.94765 0
M  V30 12656 H 1171.6 -2.74531 1.08245 0
M  V30 12657 H 1171.68 -1.35275 2.17105 0
M  V30 12658 H 1171.33 -2.91468 4.15944 0
M  V30 12659 H 1171.26 -4.29938 3.04074 0
M  V30 12660 H 1173.75 -2.83465 2.49912 0
M  V30 12661 H 1174.06 -5.3643 5.56294 0
M  V30 12662 H 1172.41 -4.82926 4.99808 0
M  V30 12663 H 1175.6 -3.45496 3.15833 0
M  V30 12664 H 1175.77 -4.60866 4.55529 0
M  V30 12665 N 1169.18 -0.941978 -1.26351 0
M  V30 12666 C 1170.11 -0.469913 -2.28723 0
M  V30 12667 C 1171.09 0.477218 -1.63269 0
M  V30 12668 O 1172.27 0.378902 -1.90468 0
M  V30 12669 C 1169.4 0.264971 -3.46288 0
M  V30 12670 C 1168.36 -0.595682 -4.23834 0
M  V30 12671 C 1167.68 0.269208 -5.34022 0
M  V30 12672 C 1168.98 -1.86743 -4.87775 0
M  V30 12673 H 1170.68 -1.32551 -2.6846 0
M  V30 12674 H 1168.22 -0.638809 -1.29055 0
M  V30 12675 H 1170.18 0.606259 -4.17016 0
M  V30 12676 H 1168.9 1.15471 -3.05506 0
M  V30 12677 H 1167.56 -0.919875 -3.54872 0
M  V30 12678 H 1167.21 1.15832 -4.89481 0
M  V30 12679 H 1166.91 -0.30325 -5.86817 0
M  V30 12680 H 1168.43 0.605748 -6.07588 0
M  V30 12681 H 1169.85 -1.59333 -5.50714 0
M  V30 12682 H 1168.24 -2.38452 -5.50691 0
M  V30 12683 H 1169.31 -2.57831 -4.10671 0
M  V30 12684 N 1170.66 1.40747 -0.709091 0
M  V30 12685 C 1171.89 2.05022 -0.254887 0
M  V30 12686 C 1172.29 1.5351 1.10595 0
M  V30 12687 O 1171.64 0.683912 1.70494 0
M  V30 12688 C 1171.7 3.59188 -0.149823 0
M  V30 12689 C 1171.36 4.33557 -1.44489 0
M  V30 12690 C 1172.36 4.61941 -2.3855 0
M  V30 12691 C 1170.04 4.72585 -1.70201 0
M  V30 12692 C 1172.04 5.2833 -3.56575 0
M  V30 12693 C 1169.73 5.38707 -2.88509 0
M  V30 12694 C 1170.72 5.66509 -3.81518 0
M  V30 12695 O 1170.41 6.31267 -4.97752 0
M  V30 12696 H 1170.14 0.666405 -0.113493 0
M  V30 12697 H 1172.7 1.81261 -0.966099 0
M  V30 12698 H 1170.93 3.81742 0.617276 0
M  V30 12699 H 1172.62 4.05008 0.268965 0
M  V30 12700 H 1173.38 4.32259 -2.19947 0
M  V30 12701 H 1169.26 4.50318 -0.986628 0
M  V30 12702 H 1172.81 5.49947 -4.2919 0
M  V30 12703 H 1168.7 5.67809 -3.07023 0
M  V30 12704 H 1169.47 6.49764 -4.97745 0
M  V30 12705 N 1172.13 0.454803 1.50895 0
M  V30 12706 C 1173.38 -0.0981148 2.03163 0
M  V30 12707 C 1173.73 -1.38855 1.3318 0
M  V30 12708 O 1173.03 -1.86399 0.443407 0
M  V30 12709 C 1173.22 -0.354159 3.55641 0
M  V30 12710 C 1173.05 0.90991 4.40398 0
M  V30 12711 C 1171.82 1.44852 4.84093 0
M  V30 12712 C 1174.02 1.80088 4.81739 0
M  V30 12713 N 1172 2.66331 5.53119 0
M  V30 12714 C 1173.37 2.86162 5.5001 0
M  V30 12715 C 1175.43 1.81321 4.6371 0
M  V30 12716 C 1174.13 3.93438 6.02162 0
M  V30 12717 C 1176.16 2.87543 5.16791 0
M  V30 12718 C 1175.52 3.92336 5.85023 0
M  V30 12719 H 1171.62 0.00370972 0.781991 0
M  V30 12720 H 1174.2 0.619376 1.84586 0
M  V30 12721 H 1172.37 -1.04069 3.74198 0
M  V30 12722 H 1174.1 -0.899976 3.94566 0
M  V30 12723 H 1170.86 0.999972 4.62923 0
M  V30 12724 H 1171.28 3.27978 5.92249 0
M  V30 12725 H 1175.92 1.01627 4.10404 0
M  V30 12726 H 1173.64 4.73959 6.54514 0
M  V30 12727 H 1177.23 2.8946 5.04682 0
M  V30 12728 H 1176.11 4.73178 6.25358 0
M  V30 12729 N 1173.61 -1.56489 0.186789 0
M  V30 12730 C 1174.54 -2.21705 -0.732739 0
M  V30 12731 C 1175.52 -1.17751 -1.22755 0
M  V30 12732 O 1176.71 -1.46231 -1.27789 0
M  V30 12733 C 1173.84 -2.86992 -1.95584 0
M  V30 12734 C 1172.79 -3.97118 -1.59628 0
M  V30 12735 C 1172.12 -4.49529 -2.89531 0
M  V30 12736 C 1173.42 -5.15941 -0.812518 0
M  V30 12737 H 1175.11 -2.98802 -0.189094 0
M  V30 12738 H 1172.66 -1.43722 -0.0895099 0
M  V30 12739 H 1174.61 -3.31295 -2.60426 0
M  V30 12740 H 1173.33 -2.07287 -2.52388 0
M  V30 12741 H 1171.99 -3.53494 -0.971475 0
M  V30 12742 H 1171.64 -3.66596 -3.44407 0
M  V30 12743 H 1171.34 -5.23832 -2.66221 0
M  V30 12744 H 1172.87 -4.96528 -3.55376 0
M  V30 12745 H 1174.28 -5.56841 -1.36386 0
M  V30 12746 H 1172.68 -5.96259 -0.677862 0
M  V30 12747 H 1173.75 -4.84535 0.188095 0
M  V30 12748 N 1175.09 0.086862 -1.5736 0
M  V30 12749 C 1176.02 1.10538 -2.05678 0
M  V30 12750 C 1177 1.41281 -0.947293 0
M  V30 12751 O 1178.19 1.51169 -1.21908 0
M  V30 12752 C 1175.32 2.42302 -2.48812 0
M  V30 12753 C 1174.27 2.25948 -3.63499 0
M  V30 12754 C 1173.6 3.62961 -3.92637 0
M  V30 12755 C 1174.9 1.69319 -4.94094 0
M  V30 12756 H 1176.59 0.703371 -2.91021 0
M  V30 12757 H 1174.14 0.336895 -1.40004 0
M  V30 12758 H 1176.09 3.13833 -2.81224 0
M  V30 12759 H 1174.81 2.84454 -1.60479 0
M  V30 12760 H 1173.47 1.5686 -3.31347 0
M  V30 12761 H 1173.12 4.02656 -3.01459 0
M  V30 12762 H 1172.82 3.52862 -4.69853 0
M  V30 12763 H 1174.34 4.35946 -4.27531 0
M  V30 12764 H 1175.76 2.30699 -5.24834 0
M  V30 12765 H 1174.15 1.69957 -5.7553 0
M  V30 12766 H 1175.22 0.653318 -4.80479 0
M  V30 12767 N 1176.57 1.53483 0.357892 0
M  V30 12768 C 1177.51 1.80463 1.43881 0
M  V30 12769 C 1178.48 0.649438 1.52877 0
M  V30 12770 O 1179.67 0.892409 1.68644 0
M  V30 12771 C 1176.81 2.00714 2.80727 0
M  V30 12772 C 1175.92 3.28431 2.80637 0
M  V30 12773 C 1175.06 3.38828 4.09107 0
M  V30 12774 C 1174.1 4.60549 4.03189 0
M  V30 12775 N 1173.23 4.68057 5.23323 0
M  V30 12776 H 1178.07 2.72694 1.20174 0
M  V30 12777 H 1175.61 1.35079 0.582422 0
M  V30 12778 H 1177.57 2.10444 3.60235 0
M  V30 12779 H 1176.2 1.11811 3.02817 0
M  V30 12780 H 1175.25 3.27617 1.93317 0
M  V30 12781 H 1176.56 4.18022 2.72138 0
M  V30 12782 H 1175.72 3.47911 4.97034 0
M  V30 12783 H 1174.46 2.47267 4.20369 0
M  V30 12784 H 1173.46 4.51558 3.13649 0
M  V30 12785 H 1174.69 5.53459 3.93523 0
M  V30 12786 H 1172.63 3.794 5.35156 0
M  V30 12787 H 1172.55 5.51563 5.17024 0
M  V30 12788 H 1173.82 4.81433 6.1306 0
M  V30 12789 N 1178.05 -0.61812 1.44973 0
M  V30 12790 C 1178.99 -1.75059 1.53157 0
M  V30 12791 C 1179.99 -1.64554 0.402282 0
M  V30 12792 O 1181.19 -1.70475 0.577767 0
M  V30 12793 H 1177.57 -0.57817 0.480856 0
M  V30 12794 H 1179.54 -1.65281 2.48445 0
M  V30 12795 C 1178.29 -3.13423 1.50538 0
M  V30 12796 H 1177.61 -3.2216 2.36755 0
M  V30 12797 H 1179.05 -3.92521 1.60323 0
M  V30 12798 C 1177.51 -3.36127 0.228127 0
M  V30 12799 O 1178.04 -3.95618 -0.696364 0
M  V30 12800 N 1176.25 -2.90322 0.127142 0
M  V30 12801 H 1175.79 -2.42091 0.880317 0
M  V30 12802 H 1175.75 -3.05887 -0.726659 0
M  V30 12803 N 1179.52 -1.32087 -0.859693 0
M  V30 12804 C 1180.49 -1.20546 -1.94939 0
M  V30 12805 C 1181.49 -0.12982 -1.60275 0
M  V30 12806 O 1182.68 -0.379853 -1.70008 0
M  V30 12807 C 1179.81 -0.852717 -3.30063 0
M  V30 12808 H 1181 -2.17384 -2.06602 0
M  V30 12809 H 1178.55 -1.15846 -1.04926 0
M  V30 12810 H 1179.29 0.114059 -3.24099 0
M  V30 12811 H 1179.07 -1.63035 -3.56598 0
M  V30 12812 H 1180.56 -0.796145 -4.09941 0
M  V30 12813 N 1181 1.07532 -1.15215 0
M  V30 12814 C 1181.91 2.18222 -0.861192 0
M  V30 12815 C 1182.93 1.73246 0.161798 0
M  V30 12816 O 1184.1 2.01397 -0.0118386 0
M  V30 12817 C 1181.17 3.44902 -0.352601 0
M  V30 12818 C 1180.23 4.04455 -1.43926 0
M  V30 12819 C 1179.46 5.25089 -0.954841 0
M  V30 12820 O 1179.69 5.70048 0.200294 0
M  V30 12821 O 1178.62 5.76269 -1.73774 0
M  V30 12822 H 1182.45 2.45599 -1.78648 0
M  V30 12823 H 1180.03 1.16835 -0.93112 0
M  V30 12824 H 1181.91 4.21333 -0.0753347 0
M  V30 12825 H 1180.59 3.19082 0.544841 0
M  V30 12826 H 1179.49 3.29573 -1.7701 0
M  V30 12827 H 1180.83 4.34544 -2.31155 0
M  V30 12828 N 1182.48 0.948665 1.2585 0
M  V30 12829 C 1183.43 0.455115 2.28104 0
M  V30 12830 C 1184.42 -0.471508 1.62706 0
M  V30 12831 O 1185.63 -0.348895 1.76586 0
M  V30 12832 H 1182 0.128659 0.740912 0
M  V30 12833 H 1183.97 1.32991 2.67125 0
M  V30 12834 C 1182.72 -0.25729 3.46747 0
M  V30 12835 H 1182.05 0.44658 3.97298 0
M  V30 12836 H 1183.49 -0.566736 4.20195 0
M  V30 12837 C 1181.95 -1.47772 3.02762 0
M  V30 12838 O 1182.48 -2.57571 3.08253 0
M  V30 12839 N 1180.68 -1.33694 2.5802 0
M  V30 12840 H 1180.23 -0.443595 2.53752 0
M  V30 12841 H 1180.19 -2.1547 2.28954 0
M  V30 12842 N 1183.96 -1.40369 0.716545 0
M  V30 12843 C 1184.87 -2.34508 0.065658 0
M  V30 12844 C 1185.88 -1.57352 -0.742723 0
M  V30 12845 O 1187.06 -1.89735 -0.675456 0
M  V30 12846 C 1184.13 -3.36262 -0.844337 0
M  V30 12847 C 1183.19 -4.29292 -0.0257971 0
M  V30 12848 C 1182.42 -5.26185 -0.892452 0
M  V30 12849 O 1182.64 -5.29071 -2.13166 0
M  V30 12850 O 1181.58 -6.0099 -0.330933 0
M  V30 12851 H 1185.4 -2.91789 0.842184 0
M  V30 12852 H 1182.99 -1.41579 0.477034 0
M  V30 12853 H 1184.87 -3.98661 -1.36555 0
M  V30 12854 H 1183.54 -2.81393 -1.59999 0
M  V30 12855 H 1182.45 -3.70175 0.540512 0
M  V30 12856 H 1183.78 -4.87316 0.69166 0
M  V30 12857 N 1185.44 -0.462799 -1.50652 0
M  V30 12858 C 1186.4 0.324264 -2.26895 0
M  V30 12859 C 1187.4 0.927687 -1.31342 0
M  V30 12860 O 1188.59 0.798159 -1.54839 0
M  V30 12861 C 1185.72 1.46113 -3.08 0
M  V30 12862 H 1186.91 -0.344266 -2.97917 0
M  V30 12863 H 1184.47 -0.216631 -1.54791 0
M  V30 12864 H 1185.2 2.16496 -2.41454 0
M  V30 12865 H 1184.99 1.03433 -3.78212 0
M  V30 12866 H 1186.48 2.01655 -3.65684 0
M  V30 12867 N 1186.91 1.56388 -0.195085 0
M  V30 12868 C 1188.14 2.0167 0.448637 0
M  V30 12869 C 1188.55 1.07439 1.55736 0
M  V30 12870 O 1187.9 0.071441 1.83561 0
M  V30 12871 C 1187.96 3.43348 1.06547 0
M  V30 12872 C 1187.62 4.569 0.0954901 0
M  V30 12873 C 1188.62 5.15232 -0.695116 0
M  V30 12874 C 1186.3 5.02298 -0.0155889 0
M  V30 12875 C 1188.3 6.1741 -1.58377 0
M  V30 12876 C 1185.98 6.0432 -0.907799 0
M  V30 12877 C 1186.98 6.6175 -1.69045 0
M  V30 12878 O 1186.67 7.6179 -2.56771 0
M  V30 12879 H 1186.4 0.665805 0.116962 0
M  V30 12880 H 1188.96 2.03182 -0.301062 0
M  V30 12881 H 1187.19 3.38823 1.86376 0
M  V30 12882 H 1188.88 3.72438 1.61385 0
M  V30 12883 H 1189.64 4.81026 -0.619604 0
M  V30 12884 H 1185.52 4.57293 0.583424 0
M  V30 12885 H 1189.06 6.62164 -2.1951 0
M  V30 12886 H 1184.96 6.37949 -0.984427 0
M  V30 12887 H 1185.73 7.79209 -2.50551 0
M  V30 12888 N 1188.39 -0.0785156 1.57404 0
M  V30 12889 C 1189.64 -0.778938 1.86919 0
M  V30 12890 C 1189.97 -1.77915 0.785906 0
M  V30 12891 O 1189.22 -1.94473 -0.218811 0
M  V30 12892 C 1189.52 -1.52826 3.23078 0
M  V30 12893 C 1189.19 -0.668645 4.45915 0
M  V30 12894 C 1187.85 -0.43173 4.79259 0
M  V30 12895 C 1190.2 -0.0721327 5.2115 0
M  V30 12896 C 1187.53 0.41129 5.85257 0
M  V30 12897 C 1189.88 0.758303 6.28039 0
M  V30 12898 C 1188.55 1.00515 6.59889 0
M  V30 12899 H 1187.82 -0.285034 0.683986 0
M  V30 12900 H 1190.46 -0.039906 1.91458 0
M  V30 12901 H 1188.77 -2.33931 3.14299 0
M  V30 12902 H 1190.46 -2.07488 3.43147 0
M  V30 12903 H 1187.05 -0.863424 4.19813 0
M  V30 12904 H 1191.24 -0.242297 4.95708 0
M  V30 12905 H 1186.49 0.611354 6.08336 0
M  V30 12906 H 1190.67 1.2273 6.855 0
M  V30 12907 H 1188.3 1.66017 7.41851 0
M  V30 12908 N 1189.87 -1.5367 -0.349747 0
M  V30 12909 C 1190.82 -1.81223 -1.42922 0
M  V30 12910 C 1191.79 -0.657536 -1.52531 0
M  V30 12911 O 1192.97 -0.90134 -1.68168 0
M  V30 12912 C 1190.11 -2.022 -2.79659 0
M  V30 12913 C 1189.23 -3.29915 -2.78891 0
M  V30 12914 C 1188.36 -3.40993 -4.07305 0
M  V30 12915 C 1187.4 -4.6268 -4.00741 0
M  V30 12916 N 1186.54 -4.70826 -5.20833 0
M  V30 12917 H 1191.38 -2.73328 -1.18727 0
M  V30 12918 H 1188.91 -1.35386 -0.57525 0
M  V30 12919 H 1190.87 -2.12351 -3.59114 0
M  V30 12920 H 1189.5 -1.13416 -3.0222 0
M  V30 12921 H 1188.55 -3.28637 -1.91577 0
M  V30 12922 H 1189.87 -4.19459 -2.69917 0
M  V30 12923 H 1189.02 -3.50542 -4.95182 0
M  V30 12924 H 1187.76 -2.49493 -4.19052 0
M  V30 12925 H 1186.76 -4.53215 -3.11249 0
M  V30 12926 H 1187.99 -5.55538 -3.90582 0
M  V30 12927 H 1185.93 -3.82233 -5.33136 0
M  V30 12928 H 1185.85 -5.54297 -5.14092 0
M  V30 12929 H 1187.12 -4.84677 -6.10499 0
M  V30 12930 N 1191.35 0.610423 -1.45298 0
M  V30 12931 C 1192.57 1.40112 -1.52917 0
M  V30 12932 C 1193 1.87404 -0.161696 0
M  V30 12933 O 1192.36 1.59973 0.853135 0
M  V30 12934 C 1192.4 2.58359 -2.51561 0
M  V30 12935 O 1191.51 3.58895 -2.03146 0
M  V30 12936 H 1190.85 0.41841 -0.515586 0
M  V30 12937 H 1193.38 0.743159 -1.90626 0
M  V30 12938 H 1193.39 3.0564 -2.70275 0
M  V30 12939 H 1192.06 2.23286 -3.50879 0
M  V30 12940 H 1190.64 3.18282 -1.94296 0
M  V30 12941 N 1192.83 1.32541 0.852676 0
M  V30 12942 C 1194.07 1.24406 1.60918 0
M  V30 12943 C 1194.43 -0.19184 1.91441 0
M  V30 12944 O 1193.72 -1.13016 1.54719 0
M  V30 12945 C 1193.91 2.039 2.9353 0
M  V30 12946 C 1193.74 3.55074 2.75957 0
M  V30 12947 C 1192.51 4.24409 2.74236 0
M  V30 12948 C 1194.71 4.49686 2.49574 0
M  V30 12949 N 1192.69 5.61624 2.47895 0
M  V30 12950 C 1194.06 5.74692 2.32658 0
M  V30 12951 C 1196.12 4.38921 2.35058 0
M  V30 12952 C 1194.82 6.90149 2.027 0
M  V30 12953 C 1196.85 5.5418 2.06491 0
M  V30 12954 C 1196.21 6.78186 1.90377 0
M  V30 12955 H 1192.31 0.510401 0.592465 0
M  V30 12956 H 1194.89 1.66929 1.00214 0
M  V30 12957 H 1193.06 1.6372 3.52208 0
M  V30 12958 H 1194.8 1.87644 3.58569 0
M  V30 12959 H 1191.55 3.76546 2.87246 0
M  V30 12960 H 1191.98 6.33918 2.37648 0
M  V30 12961 H 1196.62 3.43697 2.46236 0
M  V30 12962 H 1194.34 7.85383 1.90259 0
M  V30 12963 H 1197.92 5.47779 1.96035 0
M  V30 12964 H 1196.8 7.65864 1.68587 0
M  V30 12965 N 1194.3 -1.0692 1.15784 0
M  V30 12966 C 1195.53 -1.83045 0.958031 0
M  V30 12967 C 1195.94 -1.82555 -0.497027 0
M  V30 12968 O 1195.29 -1.23864 -1.35659 0
M  V30 12969 C 1195.35 -3.31096 1.40056 0
M  V30 12970 C 1195.01 -3.55299 2.87423 0
M  V30 12971 C 1196.01 -3.48875 3.85463 0
M  V30 12972 C 1193.69 -3.82824 3.25194 0
M  V30 12973 C 1195.69 -3.69633 5.19279 0
M  V30 12974 C 1193.37 -4.03232 4.59181 0
M  V30 12975 C 1194.37 -3.96633 5.56032 0
M  V30 12976 O 1194.06 -4.16492 6.87597 0
M  V30 12977 H 1193.79 -0.584218 0.340095 0
M  V30 12978 H 1196.35 -1.35841 1.54066 0
M  V30 12979 H 1194.58 -3.79131 0.761361 0
M  V30 12980 H 1196.27 -3.88697 1.16916 0
M  V30 12981 H 1197.03 -3.27608 3.57629 0
M  V30 12982 H 1192.91 -3.87073 2.50391 0
M  V30 12983 H 1196.45 -3.64398 5.94861 0
M  V30 12984 H 1192.35 -4.23988 4.86729 0
M  V30 12985 H 1193.12 -4.33815 6.9408 0
M  V30 12986 N 1195.78 -0.955326 -1.25345 0
M  V30 12987 C 1196.71 -0.4334 -2.25065 0
M  V30 12988 C 1197.73 0.451099 -1.56425 0
M  V30 12989 O 1198.92 0.259265 -1.76607 0
M  V30 12990 C 1196.02 0.394809 -3.36592 0
M  V30 12991 C 1195.19 -0.476856 -4.34793 0
M  V30 12992 C 1194.25 0.293269 -5.25382 0
M  V30 12993 O 1193.27 -0.30857 -5.68363 0
M  V30 12994 N 1194.48 1.58617 -5.58409 0
M  V30 12995 H 1197.24 -1.29073 -2.70482 0
M  V30 12996 H 1194.8 -0.825764 -1.39258 0
M  V30 12997 H 1196.79 0.917747 -3.94157 0
M  V30 12998 H 1195.36 1.153 -2.90559 0
M  V30 12999 H 1194.58 -1.18089 -3.76097 0
M  V30 13000 H 1195.87 -1.07178 -4.97384 0
M  V30 13001 H 1195.27 2.09705 -5.25395 0
M  V30 13002 H 1193.83 2.05506 -6.18555 0
M  V30 13003 N 1197.26 1.39987 -0.723979 0
M  V30 13004 C 1198.21 2.30672 -0.0768286 0
M  V30 13005 C 1199.18 1.48634 0.741422 0
M  V30 13006 O 1200.36 1.77351 0.703649 0
M  V30 13007 C 1197.5 3.34902 0.832729 0
M  V30 13008 C 1196.62 4.32 0.00304942 0
M  V30 13009 C 1195.75 5.23298 0.91286 0
M  V30 13010 C 1194.79 6.12051 0.0777706 0
M  V30 13011 N 1193.93 6.9574 0.942912 0
M  V30 13012 H 1198.77 2.85446 -0.855832 0
M  V30 13013 H 1196.3 1.40561 -0.433718 0
M  V30 13014 H 1198.26 3.93911 1.37441 0
M  V30 13015 H 1196.89 2.81611 1.57782 0
M  V30 13016 H 1195.94 3.74702 -0.655916 0
M  V30 13017 H 1197.26 4.94637 -0.643124 0
M  V30 13018 H 1196.41 5.87279 1.52277 0
M  V30 13019 H 1195.15 4.60956 1.59284 0
M  V30 13020 H 1194.15 5.47092 -0.545022 0
M  V30 13021 H 1195.38 6.76455 -0.598827 0
M  V30 13022 H 1193.33 6.35977 1.60838 0
M  V30 13023 H 1193.24 7.55176 0.352968 0
M  V30 13024 H 1194.51 7.64162 1.53874 0
M  V30 13025 N 1198.74 0.470782 1.50404 0
M  V30 13026 C 1199.67 -0.313458 2.31386 0
M  V30 13027 C 1200.65 -0.990623 1.38278 0
M  V30 13028 O 1201.84 -0.987854 1.67198 0
M  V30 13029 C 1198.97 -1.39599 3.18009 0
M  V30 13030 C 1197.92 -0.840443 4.19667 0
M  V30 13031 C 1197.25 -2.02124 4.95025 0
M  V30 13032 C 1198.55 0.148055 5.2209 0
M  V30 13033 H 1200.24 0.362432 2.97198 0
M  V30 13034 H 1197.79 0.175745 1.42924 0
M  V30 13035 H 1199.74 -1.9521 3.73458 0
M  V30 13036 H 1198.46 -2.10064 2.50081 0
M  V30 13037 H 1197.12 -0.306302 3.65318 0
M  V30 13038 H 1196.77 -2.71286 4.23571 0
M  V30 13039 H 1196.47 -1.65574 5.6379 0
M  V30 13040 H 1197.99 -2.58226 5.5331 0
M  V30 13041 H 1199.41 -0.318874 5.72413 0
M  V30 13042 H 1197.8 0.427811 5.98573 0
M  V30 13043 H 1198.87 1.07404 4.72855 0
M  V30 13044 N 1200.22 -1.56282 0.203376 0
M  V30 13045 C 1201.15 -2.2247 -0.709183 0
M  V30 13046 C 1202.13 -1.19046 -1.21499 0
M  V30 13047 O 1203.31 -1.47578 -1.26231 0
M  V30 13048 C 1200.44 -2.8905 -1.92529 0
M  V30 13049 C 1199.4 -3.98789 -1.55407 0
M  V30 13050 C 1198.72 -4.52574 -2.84747 0
M  V30 13051 C 1200.02 -5.16774 -0.75775 0
M  V30 13052 H 1201.72 -2.98986 -0.157392 0
M  V30 13053 H 1199.26 -1.43808 -0.0742613 0
M  V30 13054 H 1201.22 -3.34038 -2.56898 0
M  V30 13055 H 1199.94 -2.09952 -2.50175 0
M  V30 13056 H 1198.6 -3.54504 -0.933928 0
M  V30 13057 H 1198.25 -3.70229 -3.40499 0
M  V30 13058 H 1197.95 -5.26627 -2.6065 0
M  V30 13059 H 1199.47 -5.00269 -3.5009 0
M  V30 13060 H 1200.89 -5.58256 -1.30472 0
M  V30 13061 H 1199.28 -5.96945 -0.614583 0
M  V30 13062 H 1200.35 -4.84308 0.239476 0
M  V30 13063 N 1201.7 0.070167 -1.57444 0
M  V30 13064 C 1202.66 1.06761 -2.02817 0
M  V30 13065 C 1203.66 1.31498 -0.925462 0
M  V30 13066 O 1204.85 1.27192 -1.19029 0
M  V30 13067 C 1201.98 2.41086 -2.41019 0
M  V30 13068 H 1203.17 0.67651 -2.9217 0
M  V30 13069 H 1200.73 0.315936 -1.53074 0
M  V30 13070 H 1201.46 2.85025 -1.54697 0
M  V30 13071 H 1201.25 2.24472 -3.21488 0
M  V30 13072 H 1202.74 3.12778 -2.76694 0
M  V30 13073 N 1203.17 1.53854 0.341593 0
M  V30 13074 C 1204.14 1.8128 1.40251 0
M  V30 13075 C 1205.14 0.683915 1.45531 0
M  V30 13076 O 1206.33 0.952202 1.45872 0
M  V30 13077 C 1203.46 1.95658 2.79161 0
M  V30 13078 H 1204.65 2.76053 1.17195 0
M  V30 13079 H 1202.2 1.45296 0.57609 0
M  V30 13080 H 1202.94 1.03034 3.07497 0
M  V30 13081 H 1202.72 2.77788 2.76724 0
M  V30 13082 H 1204.21 2.18387 3.55945 0
M  V30 13083 N 1204.65 -0.602709 1.4562 0
M  V30 13084 C 1205.58 -1.72374 1.5751 0
M  V30 13085 C 1206.56 -1.64669 0.426389 0
M  V30 13086 O 1207.75 -1.82994 0.650143 0
M  V30 13087 C 1204.88 -3.10987 1.5461 0
M  V30 13088 C 1203.83 -3.33507 2.68248 0
M  V30 13089 C 1203.16 -4.72443 2.50403 0
M  V30 13090 C 1204.46 -3.23285 4.10224 0
M  V30 13091 H 1206.15 -1.62679 2.51348 0
M  V30 13092 H 1203.7 -0.781217 1.20967 0
M  V30 13093 H 1205.65 -3.89214 1.61525 0
M  V30 13094 H 1204.37 -3.21533 0.573049 0
M  V30 13095 H 1203.03 -2.57672 2.60769 0
M  V30 13096 H 1202.68 -4.79729 1.51226 0
M  V30 13097 H 1202.38 -4.88466 3.26611 0
M  V30 13098 H 1203.91 -5.52864 2.59179 0
M  V30 13099 H 1205.32 -3.91381 4.1892 0
M  V30 13100 H 1203.72 -3.50837 4.86861 0
M  V30 13101 H 1204.79 -2.20652 4.31788 0
M  V30 13102 N 1206.13 -1.32992 -0.845635 0
M  V30 13103 C 1207.06 -1.18513 -1.96182 0
M  V30 13104 C 1208.07 -0.11781 -1.62373 0
M  V30 13105 O 1209.26 -0.36761 -1.74674 0
M  V30 13106 C 1206.36 -0.793812 -3.29472 0
M  V30 13107 C 1205.54 -1.95134 -3.91461 0
M  V30 13108 C 1204.6 -1.54209 -5.03096 0
M  V30 13109 O 1203.62 -2.25545 -5.22607 0
M  V30 13110 N 1204.82 -0.443235 -5.78805 0
M  V30 13111 H 1207.59 -2.14663 -2.09141 0
M  V30 13112 H 1205.15 -1.25648 -1.02099 0
M  V30 13113 H 1207.14 -0.502263 -4.01571 0
M  V30 13114 H 1205.71 0.0768031 -3.12506 0
M  V30 13115 H 1204.93 -2.40889 -3.12035 0
M  V30 13116 H 1206.22 -2.72604 -4.2961 0
M  V30 13117 H 1205.62 0.150298 -5.655 0
M  V30 13118 H 1204.17 -0.211331 -6.51457 0
M  V30 13119 N 1207.61 1.06304 -1.1635 0
M  V30 13120 C 1208.85 1.79101 -0.94494 0
M  V30 13121 C 1209.18 1.87217 0.527251 0
M  V30 13122 O 1208.44 1.35992 1.40729 0
M  V30 13123 C 1208.74 3.23589 -1.51741 0
M  V30 13124 C 1208.4 3.35552 -3.0119 0
M  V30 13125 C 1207.06 3.38525 -3.41986 0
M  V30 13126 C 1209.42 3.37482 -3.97184 0
M  V30 13127 C 1206.74 3.41042 -4.77396 0
M  V30 13128 C 1209.1 3.41537 -5.3248 0
M  V30 13129 C 1207.76 3.42792 -5.72757 0
M  V30 13130 H 1207.03 0.655377 -0.345778 0
M  V30 13131 H 1209.68 1.25017 -1.45062 0
M  V30 13132 H 1207.98 3.80525 -0.933164 0
M  V30 13133 H 1209.68 3.78512 -1.32399 0
M  V30 13134 H 1206.27 3.33944 -2.68662 0
M  V30 13135 H 1210.45 3.34397 -3.66732 0
M  V30 13136 H 1205.71 3.40317 -5.07931 0
M  V30 13137 H 1209.88 3.41977 -6.0665 0
M  V30 13138 H 1207.51 3.44495 -6.77663 0
M  V30 13139 N 1209.09 0.96196 1.24836 0
M  V30 13140 C 1210.33 0.628484 1.94498 0
M  V30 13141 C 1210.69 -0.820337 1.73593 0
M  V30 13142 O 1211.89 -1.26376 2.37239 0
M  V30 13143 C 1210.16 0.986119 3.43527 0
M  V30 13144 S 1211.72 0.766324 4.32057 0
M  V30 13145 H 1208.54 0.230758 0.672511 0
M  V30 13146 H 1211.14 1.23769 1.51332 0
M  V30 13147 H 1209.84 2.03756 3.56247 0
M  V30 13148 H 1209.38 0.367454 3.9168 0
M  V30 13149 H 1211.39 -0.359227 4.94898 0
M  V30 13150 N 1210.56 -1.39601 0.731392 0
M  V30 13151 C 1211.53 -2.28992 0.0976037 0
M  V30 13152 C 1212.53 -1.46135 -0.670917 0
M  V30 13153 O 1213.72 -1.66856 -0.50047 0
M  V30 13154 C 1210.85 -3.29582 -0.871124 0
M  V30 13155 H 1212.04 -2.86541 0.885112 0
M  V30 13156 H 1209.59 -1.48188 0.497002 0
M  V30 13157 H 1210.33 -2.77082 -1.68512 0
M  V30 13158 H 1210.11 -3.9077 -0.322735 0
M  V30 13159 H 1211.6 -3.96479 -1.31126 0
M  V30 13160 N 1212.04 -0.478751 -1.50152 0
M  V30 13161 C 1213.29 0.0734397 -2.01967 0
M  V30 13162 C 1213.61 1.39523 -1.36229 0
M  V30 13163 O 1212.88 1.89141 -0.510149 0
M  V30 13164 H 1211.46 0.0301305 -0.746392 0
M  V30 13165 H 1214.12 -0.630921 -1.84406 0
M  V30 13166 H 1213.22 0.21937 -3.11328 0
M  V30 13167 N 1213.52 1.56172 -0.211661 0
M  V30 13168 C 1214.47 2.19849 0.702515 0
M  V30 13169 C 1215.44 1.15091 1.19763 0
M  V30 13170 O 1216.62 1.43408 1.25852 0
M  V30 13171 C 1213.76 2.87468 1.90935 0
M  V30 13172 C 1212.88 4.06794 1.45406 0
M  V30 13173 C 1212.01 4.62224 2.61769 0
M  V30 13174 C 1211.05 5.73872 2.12926 0
M  V30 13175 N 1210.19 6.23635 3.22526 0
M  V30 13176 H 1215.03 2.97608 0.152777 0
M  V30 13177 H 1212.56 1.46962 0.0636596 0
M  V30 13178 H 1214.52 3.24851 2.61777 0
M  V30 13179 H 1213.15 2.12244 2.43213 0
M  V30 13180 H 1212.2 3.74962 0.640907 0
M  V30 13181 H 1213.52 4.87497 1.05584 0
M  V30 13182 H 1212.67 5.01999 3.40709 0
M  V30 13183 H 1211.41 3.80662 3.04873 0
M  V30 13184 H 1210.41 5.33609 1.32445 0
M  V30 13185 H 1211.64 6.57262 1.70833 0
M  V30 13186 H 1209.58 5.44991 3.65131 0
M  V30 13187 H 1209.5 6.99435 2.86926 0
M  V30 13188 H 1210.77 6.68066 4.01631 0
M  V30 13189 N 1215 -0.0618163 1.57479 0
M  V30 13190 C 1215.96 -1.05684 2.0338 0
M  V30 13191 C 1216.96 -1.31006 0.932423 0
M  V30 13192 O 1218.15 -1.26559 1.19702 0
M  V30 13193 C 1215.28 -2.39805 2.42294 0
M  V30 13194 H 1216.48 -0.661006 2.92525 0
M  V30 13195 H 1214.03 -0.307814 1.53239 0
M  V30 13196 H 1214.76 -2.84201 1.56207 0
M  V30 13197 H 1214.55 -2.22764 3.22674 0
M  V30 13198 H 1216.04 -3.11307 2.78349 0
M  V30 13199 N 1216.48 -1.54033 -0.333429 0
M  V30 13200 C 1217.41 -1.85719 -1.4153 0
M  V30 13201 C 1218.39 -0.713144 -1.54429 0
M  V30 13202 O 1219.57 -0.965984 -1.68471 0
M  V30 13203 C 1216.7 -2.07578 -2.78439 0
M  V30 13204 C 1215.66 -3.23411 -2.80338 0
M  V30 13205 C 1214.98 -3.30622 -4.2023 0
M  V30 13206 C 1216.28 -4.6129 -2.44968 0
M  V30 13207 H 1217.98 -2.76325 -1.15261 0
M  V30 13208 H 1215.52 -1.32957 -0.55303 0
M  V30 13209 H 1217.48 -2.28329 -3.5418 0
M  V30 13210 H 1216.2 -1.13713 -3.06165 0
M  V30 13211 H 1214.86 -3.02531 -2.07052 0
M  V30 13212 H 1214.51 -2.34333 -4.45081 0
M  V30 13213 H 1214.21 -4.08466 -4.22409 0
M  V30 13214 H 1215.73 -3.53596 -4.97798 0
M  V30 13215 H 1217.14 -4.81987 -3.10421 0
M  V30 13216 H 1215.54 -5.41611 -2.58414 0
M  V30 13217 H 1216.61 -4.6421 -1.40134 0
M  V30 13218 N 1217.95 0.594978 -1.45938 0
M  V30 13219 C 1218.9 1.726 -1.55923 0
M  V30 13220 C 1219.9 1.63893 -0.428411 0
M  V30 13221 O 1221.1 1.69535 -0.604815 0
M  V30 13222 H 1217.48 0.570447 -0.489994 0
M  V30 13223 H 1219.45 1.61308 -2.51043 0
M  V30 13224 C 1218.2 3.10988 -1.55505 0
M  V30 13225 H 1217.52 3.18353 -2.4185 0
M  V30 13226 H 1218.96 3.8992 -1.66548 0
M  V30 13227 C 1217.42 3.35721 -0.281573 0
M  V30 13228 O 1217.95 3.96676 0.633336 0
M  V30 13229 N 1216.16 2.90083 -0.173314 0
M  V30 13230 H 1215.7 2.4066 -0.91872 0
M  V30 13231 H 1215.66 3.07005 0.677903 0
M  V30 13232 N 1219.43 1.33438 0.838571 0
M  V30 13233 C 1220.71 1.1551 1.5785 0
M  V30 13234 C 1221.09 -0.278405 2.09256 0
M  V30 13235 O 1220.44 -1.27748 1.89453 0
M  V30 13236 C 1220.65 2.19647 2.71212 0
M  V30 13237 C 1222 2.53818 3.40384 0
M  V30 13238 O 1223.02 2.18317 2.81454 0
M  V30 13239 O 1221.88 3.14741 4.46766 0
M  V30 13240 H 1218.97 0.446785 0.695925 0
M  V30 13241 H 1221.52 1.45021 0.8813 0
M  V30 13242 H 1220.29 3.15936 2.30869 0
M  V30 13243 H 1219.91 1.91224 3.48596 0
M  V30 13244 N 1220.91 -1.05686 1.16912 0
M  V30 13245 C 1221.82 -2.16824 0.8958 0
M  V30 13246 C 1222.84 -1.73482 -0.134215 0
M  V30 13247 O 1224.01 -2.01352 0.0438776 0
M  V30 13248 C 1221.08 -3.44298 0.407427 0
M  V30 13249 C 1220.14 -4.02114 1.50342 0
M  V30 13250 C 1219.37 -5.23503 1.03826 0
M  V30 13251 O 1219.59 -5.70295 -0.109579 0
M  V30 13252 O 1218.53 -5.73432 1.8292 0
M  V30 13253 H 1222.35 -2.42725 1.82533 0
M  V30 13254 H 1219.94 -1.15339 0.949589 0
M  V30 13255 H 1221.82 -4.21159 0.142356 0
M  V30 13256 H 1220.5 -3.19908 -0.494009 0
M  V30 13257 H 1219.4 -3.26715 1.82231 0
M  V30 13258 H 1220.74 -4.30811 2.38039 0
M  V30 13259 N 1222.39 -0.968567 -1.24324 0
M  V30 13260 C 1223.64 -0.630928 -1.9242 0
M  V30 13261 C 1223.96 0.834001 -1.75712 0
M  V30 13262 O 1223.22 1.61558 -1.10442 0
M  V30 13263 C 1223.52 -0.952762 -3.44467 0
M  V30 13264 C 1223.18 -2.40597 -3.81345 0
M  V30 13265 C 1221.85 -2.80316 -3.91122 0
M  V30 13266 C 1224.2 -3.34906 -3.99359 0
M  V30 13267 C 1221.53 -4.13383 -4.16331 0
M  V30 13268 C 1223.88 -4.67602 -4.26065 0
M  V30 13269 C 1222.54 -5.07097 -4.34061 0
M  V30 13270 H 1221.81 -0.230873 -0.704116 0
M  V30 13271 H 1224.46 -1.22022 -1.47591 0
M  V30 13272 H 1222.76 -0.281244 -3.90789 0
M  V30 13273 H 1224.46 -0.6699 -3.95365 0
M  V30 13274 H 1221.05 -2.088 -3.743 0
M  V30 13275 H 1225.23 -3.05404 -3.91206 0
M  V30 13276 H 1220.49 -4.43606 -4.20742 0
M  V30 13277 H 1224.66 -5.40646 -4.38948 0
M  V30 13278 H 1222.29 -6.10229 -4.53349 0
M  V30 13279 N 1223.87 1.39211 -0.738786 0
M  V30 13280 C 1225.09 2.05256 -0.297421 0
M  V30 13281 C 1225.52 1.55341 1.06069 0
M  V30 13282 O 1224.87 0.698823 1.67291 0
M  V30 13283 C 1224.92 3.59239 -0.312969 0
M  V30 13284 O 1224.03 4.06448 0.698112 0
M  V30 13285 H 1223.37 0.650245 -0.134454 0
M  V30 13286 H 1225.9 1.78173 -1.00577 0
M  V30 13287 H 1225.91 4.07691 -0.158675 0
M  V30 13288 H 1224.58 3.94931 -1.30394 0
M  V30 13289 H 1223.16 3.69401 0.509643 0
M  V30 13290 N 1225.34 0.486708 1.49896 0
M  V30 13291 C 1226.29 -0.299294 2.28851 0
M  V30 13292 C 1227.26 -0.973251 1.346 0
M  V30 13293 O 1228.45 -0.982678 1.63548 0
M  V30 13294 C 1225.59 -1.36624 3.16904 0
M  V30 13295 C 1224.7 -0.705492 4.262 0
M  V30 13296 C 1223.83 -1.75165 5.01488 0
M  V30 13297 C 1222.87 -1.072 6.0264 0
M  V30 13298 N 1222.01 -2.06172 6.71147 0
M  V30 13299 H 1226.85 0.380272 2.95564 0
M  V30 13300 H 1224.39 0.199377 1.45743 0
M  V30 13301 H 1226.35 -1.99666 3.66319 0
M  V30 13302 H 1224.98 -2.01476 2.52205 0
M  V30 13303 H 1224.03 0.0378757 3.80381 0
M  V30 13304 H 1225.34 -0.169774 4.98511 0
M  V30 13305 H 1224.49 -2.45749 5.547 0
M  V30 13306 H 1223.23 -2.3212 4.28919 0
M  V30 13307 H 1222.24 -0.351868 5.48673 0
M  V30 13308 H 1223.46 -0.509139 6.77189 0
M  V30 13309 H 1221.41 -2.62115 6.01358 0
M  V30 13310 H 1221.33 -1.57627 7.39385 0
M  V30 13311 H 1222.59 -2.76088 7.28969 0
M  V30 13312 N 1226.82 -1.56058 0.219941 0
M  V30 13313 C 1227.73 -2.23844 -0.70222 0
M  V30 13314 C 1228.75 -1.24554 -1.215 0
M  V30 13315 O 1229.93 -1.57362 -1.25695 0
M  V30 13316 C 1226.99 -2.90384 -1.89416 0
M  V30 13317 C 1226.05 -4.05012 -1.42351 0
M  V30 13318 C 1225.28 -4.68369 -2.55863 0
M  V30 13319 O 1225.51 -4.3071 -3.73958 0
M  V30 13320 O 1224.44 -5.5739 -2.27157 0
M  V30 13321 H 1228.27 -3.03305 -0.15478 0
M  V30 13322 H 1225.85 -1.49396 -0.010438 0
M  V30 13323 H 1227.73 -3.32389 -2.59028 0
M  V30 13324 H 1226.41 -2.13883 -2.42973 0
M  V30 13325 H 1225.32 -3.67579 -0.695448 0
M  V30 13326 H 1226.65 -4.83251 -0.934332 0
M  V30 13327 N 1228.3 0.053464 -1.57509 0
M  V30 13328 C 1229.23 1.08863 -2.01696 0
M  V30 13329 C 1230.25 1.33916 -0.925765 0
M  V30 13330 O 1231.44 1.31833 -1.20343 0
M  V30 13331 C 1228.54 2.43567 -2.35644 0
M  V30 13332 C 1227.71 2.38215 -3.66841 0
M  V30 13333 C 1226.77 3.55172 -3.88252 0
M  V30 13334 O 1225.79 3.35769 -4.59617 0
M  V30 13335 N 1227 4.76182 -3.3201 0
M  V30 13336 H 1229.76 0.712192 -2.91115 0
M  V30 13337 H 1227.32 0.241829 -1.60084 0
M  V30 13338 H 1229.31 3.20486 -2.47125 0
M  V30 13339 H 1227.88 2.73145 -1.52022 0
M  V30 13340 H 1227.1 1.46557 -3.65943 0
M  V30 13341 H 1228.39 2.31757 -4.52953 0
M  V30 13342 H 1227.79 4.94849 -2.74118 0
M  V30 13343 H 1226.35 5.5055 -3.4891 0
M  V30 13344 N 1229.78 1.54207 0.325255 0
M  V30 13345 C 1230.73 1.83474 1.40021 0
M  V30 13346 C 1231.7 0.681719 1.51466 0
M  V30 13347 O 1232.88 0.92798 1.66713 0
M  V30 13348 C 1230.02 2.06624 2.76407 0
M  V30 13349 C 1229.13 3.3431 2.73607 0
M  V30 13350 C 1228.27 3.4743 4.01828 0
M  V30 13351 C 1227.31 4.68997 3.93329 0
M  V30 13352 N 1226.45 4.79052 5.13277 0
M  V30 13353 H 1231.29 2.75182 1.14363 0
M  V30 13354 H 1228.82 1.36284 0.553639 0
M  V30 13355 H 1230.78 2.18037 3.5569 0
M  V30 13356 H 1229.41 1.18209 3.00377 0
M  V30 13357 H 1228.46 3.31643 1.86324 0
M  V30 13358 H 1229.77 4.237 2.6321 0
M  V30 13359 H 1228.93 3.58376 4.89542 0
M  V30 13360 H 1227.67 2.56128 4.1503 0
M  V30 13361 H 1226.67 4.58109 3.04 0
M  V30 13362 H 1227.9 5.61681 3.81695 0
M  V30 13363 H 1225.84 3.90666 5.26988 0
M  V30 13364 H 1225.76 5.62406 5.05208 0
M  V30 13365 H 1227.03 4.94328 6.02711 0
M  V30 13366 N 1231.26 -0.58723 1.46251 0
M  V30 13367 C 1232.19 -1.70694 1.5933 0
M  V30 13368 C 1233.17 -1.64208 0.443831 0
M  V30 13369 O 1234.35 -1.82294 0.669516 0
M  V30 13370 C 1231.48 -3.0933 1.579 0
M  V30 13371 C 1230.44 -3.30643 2.7177 0
M  V30 13372 C 1229.76 -4.69761 2.554 0
M  V30 13373 C 1231.06 -3.18916 4.1363 0
M  V30 13374 H 1232.76 -1.60004 2.53059 0
M  V30 13375 H 1230.3 -0.768343 1.21789 0
M  V30 13376 H 1232.26 -3.87479 1.65644 0
M  V30 13377 H 1230.98 -3.20907 0.60712 0
M  V30 13378 H 1229.64 -2.54892 2.63488 0
M  V30 13379 H 1229.29 -4.78098 1.56306 0
M  V30 13380 H 1228.99 -4.84974 3.31774 0
M  V30 13381 H 1230.51 -5.50084 2.65028 0
M  V30 13382 H 1231.93 -3.86915 4.23048 0
M  V30 13383 H 1230.32 -3.45653 4.90555 0
M  V30 13384 H 1231.39 -2.1606 4.34104 0
M  V30 13385 N 1232.74 -1.33881 -0.831482 0
M  V30 13386 C 1233.98 -1.251 -1.58218 0
M  V30 13387 C 1234.3 0.17963 -1.94773 0
M  V30 13388 O 1235.5 0.389516 -2.68691 0
M  V30 13389 C 1233.96 -2.19246 -2.8541 0
M  V30 13390 C 1233.57 -3.6752 -2.5619 0
M  V30 13391 C 1235.31 -2.19355 -3.63433 0
M  V30 13392 C 1233.22 -4.53559 -3.79523 0
M  V30 13393 H 1232.15 -0.46469 -0.593784 0
M  V30 13394 H 1234.8 -1.58992 -0.916169 0
M  V30 13395 H 1233.18 -1.78295 -3.53591 0
M  V30 13396 H 1234.36 -4.16956 -1.96173 0
M  V30 13397 H 1232.67 -3.69774 -1.91458 0
M  V30 13398 H 1235.27 -2.80863 -4.54995 0
M  V30 13399 H 1235.61 -1.19056 -3.98913 0
M  V30 13400 H 1236.14 -2.58706 -3.02185 0
M  V30 13401 H 1232.88 -5.54762 -3.4917 0
M  V30 13402 H 1232.4 -4.08862 -4.38853 0
M  V30 13403 H 1234.08 -4.67736 -4.47025 0
M  V30 13404 N 1234.21 1.05064 -1.1747 0
M  V30 13405 C 1235.16 2.12841 -0.89259 0
M  V30 13406 C 1236.13 1.65288 0.16402 0
M  V30 13407 O 1237.32 1.90782 0.026537 0
M  V30 13408 C 1234.46 3.42614 -0.41344 0
M  V30 13409 C 1233.57 4.03835 -1.53432 0
M  V30 13410 C 1232.7 5.21531 -1.00891 0
M  V30 13411 C 1231.74 5.74761 -2.10515 0
M  V30 13412 N 1230.88 6.83756 -1.59442 0
M  V30 13413 H 1235.72 2.36312 -1.81551 0
M  V30 13414 H 1233.26 1.15929 -0.905483 0
M  V30 13415 H 1235.21 4.17035 -0.117181 0
M  V30 13416 H 1233.84 3.19323 0.472517 0
M  V30 13417 H 1232.9 3.2684 -1.94627 0
M  V30 13418 H 1234.21 4.3938 -2.36108 0
M  V30 13419 H 1233.36 6.03027 -0.666575 0
M  V30 13420 H 1232.1 4.87464 -0.151608 0
M  V30 13421 H 1231.11 4.91893 -2.45604 0
M  V30 13422 H 1232.33 6.10875 -2.96663 0
M  V30 13423 H 1230.28 6.51584 -0.759849 0
M  V30 13424 H 1230.19 7.18311 -2.35724 0
M  V30 13425 H 1231.46 7.68901 -1.28105 0
M  V30 13426 N 1235.69 0.975146 1.23809 0
M  V30 13427 C 1236.94 0.636678 1.91388 0
M  V30 13428 C 1237.25 -0.832876 1.76982 0
M  V30 13429 O 1238.46 -1.28218 2.39316 0
M  V30 13430 C 1236.92 1.08813 3.43057 0
M  V30 13431 C 1236.52 2.58165 3.66135 0
M  V30 13432 C 1238.27 0.823154 4.16443 0
M  V30 13433 C 1236.17 2.97004 5.11412 0
M  V30 13434 H 1235.1 0.234424 0.716632 0
M  V30 13435 H 1237.76 1.18235 1.40331 0
M  V30 13436 H 1236.14 0.470709 3.93192 0
M  V30 13437 H 1237.31 3.25101 3.26567 0
M  V30 13438 H 1235.63 2.82353 3.06049 0
M  V30 13439 H 1238.22 1.08925 5.23488 0
M  V30 13440 H 1238.57 -0.240705 4.15604 0
M  V30 13441 H 1239.1 1.4019 3.72279 0
M  V30 13442 H 1235.84 4.02492 5.17378 0
M  V30 13443 H 1235.36 2.34759 5.51949 0
M  V30 13444 H 1237.04 2.8732 5.79704 0
M  V30 13445 N 1237.17 -1.38817 0.746158 0
M  V30 13446 C 1238.1 -2.33144 0.128836 0
M  V30 13447 C 1239.08 -1.54487 -0.711873 0
M  V30 13448 O 1240.27 -1.82836 -0.654577 0
M  V30 13449 C 1237.4 -3.38639 -0.770772 0
M  V30 13450 C 1236.35 -4.27987 -0.0333669 0
M  V30 13451 C 1235.68 -5.24274 -1.05073 0
M  V30 13452 C 1236.98 -5.09915 1.13066 0
M  V30 13453 H 1238.67 -2.85019 0.916778 0
M  V30 13454 H 1236.22 -1.37039 0.442306 0
M  V30 13455 H 1238.17 -4.03587 -1.21225 0
M  V30 13456 H 1236.89 -2.8523 -1.59095 0
M  V30 13457 H 1235.55 -3.64534 0.388612 0
M  V30 13458 H 1235.2 -4.67156 -1.86478 0
M  V30 13459 H 1234.9 -5.84906 -0.562037 0
M  V30 13460 H 1236.42 -5.92099 -1.49169 0
M  V30 13461 H 1237.84 -5.68145 0.767084 0
M  V30 13462 H 1236.23 -5.79744 1.54972 0
M  V30 13463 H 1237.3 -4.4409 1.94709 0
M  V30 13464 N 1238.65 -0.49465 -1.49636 0
M  V30 13465 C 1239.9 0.0520143 -2.02033 0
M  V30 13466 C 1240.22 1.38071 -1.37701 0
M  V30 13467 O 1239.49 1.88589 -0.530181 0
M  V30 13468 H 1238.07 0.0222123 -0.74667 0
M  V30 13469 H 1240.73 -0.650445 -1.83726 0
M  V30 13470 H 1239.82 0.186337 -3.11543 0
M  V30 13471 N 1240.13 1.55939 -0.228214 0
M  V30 13472 C 1241.4 1.90329 0.451033 0
M  V30 13473 C 1241.78 1.14646 1.77255 0
M  V30 13474 O 1241.13 0.257912 2.2704 0
M  V30 13475 C 1241.34 3.43129 0.637456 0
M  V30 13476 C 1242.69 4.14022 0.94186 0
M  V30 13477 O 1243.71 3.48764 0.724002 0
M  V30 13478 O 1242.57 5.29418 1.35568 0
M  V30 13479 H 1239.67 0.791591 0.2394 0
M  V30 13480 H 1242.21 1.67524 -0.270893 0
M  V30 13481 H 1240.98 3.90191 -0.294435 0
M  V30 13482 H 1240.61 3.71735 1.41062 0
M  V30 13483 N 1241.6 -0.0451101 1.57535 0
M  V30 13484 C 1242.85 -0.738072 1.87711 0
M  V30 13485 C 1243.17 -1.7737 0.824579 0
M  V30 13486 O 1244.37 -2.51812 1.01503 0
M  V30 13487 C 1242.83 -1.36373 3.33062 0
M  V30 13488 C 1242.44 -0.365283 4.46508 0
M  V30 13489 C 1244.18 -2.0375 3.72406 0
M  V30 13490 C 1242.09 -0.998371 5.82912 0
M  V30 13491 H 1241.02 -0.279413 0.700317 0
M  V30 13492 H 1243.67 0.00802425 1.83498 0
M  V30 13493 H 1242.05 -2.15899 3.31969 0
M  V30 13494 H 1243.22 0.402102 4.59042 0
M  V30 13495 H 1241.54 0.205505 4.15893 0
M  V30 13496 H 1244.14 -2.51939 4.71625 0
M  V30 13497 H 1244.48 -2.84869 3.03571 0
M  V30 13498 H 1245.01 -1.3102 3.75604 0
M  V30 13499 H 1241.75 -0.226935 6.55107 0
M  V30 13500 H 1241.27 -1.73598 5.74129 0
M  V30 13501 H 1242.95 -1.51044 6.29122 0
M  V30 13502 N 1243.08 -1.54377 -0.317073 0
M  V30 13503 C 1244.33 -1.72551 -1.05216 0
M  V30 13504 C 1244.65 -0.5055 -1.88334 0
M  V30 13505 O 1243.92 0.480439 -1.89917 0
M  V30 13506 H 1242.5 -0.636222 -0.391447 0
M  V30 13507 H 1245.16 -1.91696 -0.35194 0
M  V30 13508 H 1244.26 -2.60791 -1.71448 0
M  V30 13509 N 1244.56 0.579466 -1.4656 0
M  V30 13510 C 1245.47 1.71609 -1.59961 0
M  V30 13511 C 1246.49 1.67162 -0.483002 0
M  V30 13512 O 1247.66 1.87012 -0.747561 0
M  V30 13513 C 1244.73 3.08114 -1.58954 0
M  V30 13514 C 1243.79 3.238 -2.81872 0
M  V30 13515 C 1243.02 4.53794 -2.80904 0
M  V30 13516 O 1243.24 5.37884 -1.89835 0
M  V30 13517 O 1242.18 4.72796 -3.72488 0
M  V30 13518 H 1246 1.6325 -2.56092 0
M  V30 13519 H 1243.59 0.746891 -1.2939 0
M  V30 13520 H 1245.47 3.8939 -1.611 0
M  V30 13521 H 1244.15 3.16903 -0.65984 0
M  V30 13522 H 1243.05 2.42006 -2.85279 0
M  V30 13523 H 1244.39 3.19904 -3.74062 0
M  V30 13524 N 1246.04 1.3432 0.824371 0
M  V30 13525 C 1247.45 1.1397 1.11727 0
M  V30 13526 C 1247.65 -0.0597597 2.01411 0
M  V30 13527 O 1246.71 -0.735717 2.41544 0
M  V30 13528 C 1248.02 2.43423 1.76538 0
M  V30 13529 C 1249.57 2.49466 1.89039 0
M  V30 13530 C 1250.05 3.78917 2.57266 0
M  V30 13531 N 1251.54 3.8007 2.64767 0
M  V30 13532 C 1252.27 4.76953 3.18282 0
M  V30 13533 N 1251.77 5.84217 3.72373 0
M  V30 13534 N 1253.56 4.6441 3.1667 0
M  V30 13535 H 1245.71 2.11175 0.227802 0
M  V30 13536 H 1247.98 0.933774 0.163615 0
M  V30 13537 H 1247.68 3.31278 1.18102 0
M  V30 13538 H 1247.56 2.56655 2.7642 0
M  V30 13539 H 1249.94 1.62052 2.46623 0
M  V30 13540 H 1250.02 2.40163 0.880635 0
M  V30 13541 H 1249.67 4.6672 2.00336 0
M  V30 13542 H 1249.6 3.85502 3.58742 0
M  V30 13543 H 1252.09 3.02556 2.26425 0
M  V30 13544 H 1252.4 6.54159 4.11455 0
M  V30 13545 H 1250.75 5.87933 3.70621 0
M  V30 13546 H 1253.94 3.7976 2.73678 0
M  V30 13547 H 1254.11 5.40081 3.58073 0
M  V30 13548 N 1247.52 -1.0444 1.18026 0
M  V30 13549 C 1248.76 -1.77838 0.974756 0
M  V30 13550 C 1249.1 -1.87792 -0.494755 0
M  V30 13551 O 1248.37 -1.38327 -1.36733 0
M  V30 13552 C 1248.65 -3.21315 1.62569 0
M  V30 13553 C 1248.51 -3.19327 3.16781 0
M  V30 13554 C 1249.83 -4.19337 1.33583 0
M  V30 13555 H 1246.94 -0.645575 0.35553 0
M  V30 13556 H 1249.59 -1.22023 1.45638 0
M  V30 13557 H 1247.74 -3.68974 1.21617 0
M  V30 13558 H 1249.41 -2.79687 3.66842 0
M  V30 13559 H 1247.65 -2.57461 3.49137 0
M  V30 13560 H 1248.32 -4.20626 3.5746 0
M  V30 13561 H 1250.8 -3.80208 1.69059 0
M  V30 13562 H 1249.67 -5.17953 1.81702 0
M  V30 13563 H 1249.94 -4.41346 0.258016 0
M  V30 13564 N 1248.99 -0.981699 -1.2329 0
M  V30 13565 C 1249.94 -0.52269 -2.24803 0
M  V30 13566 C 1250.91 0.439116 -1.6019 0
M  V30 13567 O 1252.1 0.346372 -1.8763 0
M  V30 13568 C 1249.24 0.167477 -3.44693 0
M  V30 13569 C 1248.35 -0.834744 -4.23858 0
M  V30 13570 C 1247.48 -0.119249 -5.31066 0
M  V30 13571 C 1246.52 -1.1106 -6.0194 0
M  V30 13572 N 1245.66 -0.424167 -7.00818 0
M  V30 13573 H 1250.5 -1.39312 -2.63431 0
M  V30 13574 H 1248.04 -0.698061 -1.29482 0
M  V30 13575 H 1250 0.584442 -4.13086 0
M  V30 13576 H 1248.63 1.00177 -3.06862 0
M  V30 13577 H 1247.68 -1.37009 -3.5487 0
M  V30 13578 H 1248.99 -1.59012 -4.72776 0
M  V30 13579 H 1248.14 0.355015 -6.0566 0
M  V30 13580 H 1246.88 0.668714 -4.83094 0
M  V30 13581 H 1245.89 -1.5956 -5.26138 0
M  V30 13582 H 1247.11 -1.89924 -6.52001 0
M  V30 13583 H 1245.06 0.344564 -6.55094 0
M  V30 13584 H 1244.98 -1.11817 -7.47685 0
M  V30 13585 H 1246.24 0.0276655 -7.79495 0
M  V30 13586 N 1250.47 1.3842 -0.753509 0
M  V30 13587 C 1251.7 2.04929 -0.319174 0
M  V30 13588 C 1252.12 1.56457 1.04416 0
M  V30 13589 O 1251.48 0.716527 1.6654 0
M  V30 13590 C 1251.53 3.58887 -0.351054 0
M  V30 13591 O 1250.63 4.07166 0.654963 0
M  V30 13592 H 1249.97 0.648782 -0.141343 0
M  V30 13593 H 1252.5 1.77096 -1.02461 0
M  V30 13594 H 1252.51 4.075 -0.201907 0
M  V30 13595 H 1251.19 3.93525 -1.34576 0
M  V30 13596 H 1249.77 3.69921 0.470435 0
M  V30 13597 N 1251.95 0.502579 1.49372 0
M  V30 13598 C 1252.91 -0.263993 2.27675 0
M  V30 13599 C 1253.91 -0.892538 1.33755 0
M  V30 13600 O 1255.1 -0.756826 1.56901 0
M  V30 13601 C 1252.24 -1.37895 3.11765 0
M  V30 13602 H 1253.43 0.423132 2.969 0
M  V30 13603 H 1250.98 0.257595 1.54163 0
M  V30 13604 H 1251.72 -2.10018 2.47109 0
M  V30 13605 H 1251.5 -0.933694 3.80821 0
M  V30 13606 H 1252.99 -1.91889 3.70902 0
M  V30 13607 N 1253.43 -1.55816 0.23648 0
M  V30 13608 C 1254.65 -2.03534 -0.398575 0
M  V30 13609 C 1255.08 -1.11488 -1.51499 0
M  V30 13610 O 1254.44 -0.105848 -1.80991 0
M  V30 13611 C 1254.48 -3.49356 -0.893467 0
M  V30 13612 O 1253.59 -3.60446 -2.00381 0
M  V30 13613 H 1252.93 -0.658102 -0.0883021 0
M  V30 13614 H 1255.46 -2.01417 0.359488 0
M  V30 13615 H 1255.47 -3.89972 -1.19941 0
M  V30 13616 H 1254.14 -4.1583 -0.0764388 0
M  V30 13617 H 1252.72 -3.31723 -1.70336 0
M  V30 13618 N 1254.91 0.036755 -1.57557 0
M  V30 13619 C 1256.18 0.764087 -1.80059 0
M  V30 13620 C 1256.56 1.93983 -0.83269 0
M  V30 13621 O 1255.91 2.28148 0.126815 0
M  V30 13622 C 1256.12 1.20433 -3.27562 0
M  V30 13623 C 1257.47 1.6234 -3.9234 0
M  V30 13624 O 1258.49 1.29911 -3.31665 0
M  V30 13625 O 1257.35 2.22504 -4.99154 0
M  V30 13626 H 1254.45 0.368866 -0.74018 0
M  V30 13627 H 1256.99 0.0141254 -1.69694 0
M  V30 13628 H 1255.76 0.364646 -3.89597 0
M  V30 13629 H 1255.39 2.01454 -3.42786 0
M  V30 13630 N 1256.39 1.54543 0.308881 0
M  V30 13631 C 1257.34 1.81332 1.38212 0
M  V30 13632 C 1258.32 0.670056 1.46284 0
M  V30 13633 O 1259.51 0.930476 1.50569 0
M  V30 13634 C 1256.64 2.05713 2.7484 0
M  V30 13635 C 1255.73 3.26202 2.71023 0
M  V30 13636 N 1256.12 4.46933 2.36822 0
M  V30 13637 C 1254.42 3.28071 3.02135 0
M  V30 13638 C 1255.12 5.28923 2.42106 0
M  V30 13639 N 1254.09 4.66455 2.79143 0
M  V30 13640 H 1257.89 2.72246 1.10722 0
M  V30 13641 H 1255.41 1.53936 0.51743 0
M  V30 13642 H 1257.41 2.23049 3.52214 0
M  V30 13643 H 1256.07 1.16062 3.03249 0
M  V30 13644 H 1257.08 4.73674 2.09413 0
M  V30 13645 H 1253.75 2.48501 3.3549 0
M  V30 13646 H 1255.14 6.35369 2.1853 0
M  V30 13647 N 1257.86 -0.571685 1.46866 0
M  V30 13648 C 1258.8 -1.69475 1.54307 0
M  V30 13649 C 1259.81 -1.57006 0.430449 0
M  V30 13650 O 1261 -1.64229 0.69936 0
M  V30 13651 C 1258.1 -3.07824 1.41766 0
M  V30 13652 C 1257.27 -3.46189 2.67342 0
M  V30 13653 C 1256.33 -4.63642 2.48843 0
M  V30 13654 O 1255.36 -4.68949 3.22608 0
M  V30 13655 N 1256.56 -5.59223 1.55724 0
M  V30 13656 H 1259.32 -1.63543 2.51145 0
M  V30 13657 H 1256.88 -0.757957 1.43062 0
M  V30 13658 H 1258.88 -3.84208 1.27146 0
M  V30 13659 H 1257.45 -3.08063 0.530667 0
M  V30 13660 H 1256.67 -2.59399 2.96826 0
M  V30 13661 H 1257.95 -3.68591 3.50739 0
M  V30 13662 H 1257.35 -5.5768 0.949175 0
M  V30 13663 H 1255.91 -6.34993 1.47063 0
M  V30 13664 N 1259.34 -1.34755 -0.817236 0
M  V30 13665 C 1260.76 -1.14561 -1.11121 0
M  V30 13666 C 1260.96 0.0490776 -2.0144 0
M  V30 13667 O 1260.01 0.722897 -2.41931 0
M  V30 13668 C 1261.33 -2.44356 -1.75244 0
M  V30 13669 C 1262.87 -2.50465 -1.87713 0
M  V30 13670 C 1263.35 -3.80276 -2.55253 0
M  V30 13671 N 1264.84 -3.81468 -2.62747 0
M  V30 13672 C 1265.58 -4.78634 -3.15749 0
M  V30 13673 N 1265.07 -5.86184 -3.6927 0
M  V30 13674 N 1266.86 -4.66083 -3.14203 0
M  V30 13675 H 1259.02 -2.11293 -0.2166 0
M  V30 13676 H 1261.28 -0.934629 -0.158661 0
M  V30 13677 H 1260.98 -3.31899 -1.16344 0
M  V30 13678 H 1260.86 -2.58117 -2.75055 0
M  V30 13679 H 1263.25 -1.63358 -2.45761 0
M  V30 13680 H 1263.33 -2.40627 -0.867887 0
M  V30 13681 H 1262.97 -4.67776 -1.97858 0
M  V30 13682 H 1262.9 -3.87399 -3.56693 0
M  V30 13683 H 1265.39 -3.03753 -2.24817 0
M  V30 13684 H 1265.7 -6.56332 -4.0798 0
M  V30 13685 H 1264.05 -5.8989 -3.67498 0
M  V30 13686 H 1267.24 -3.81206 -2.7166 0
M  V30 13687 H 1267.41 -5.41973 -3.55203 0
M  V30 13688 N 1260.82 1.03812 -1.18578 0
M  V30 13689 C 1261.75 2.11928 -0.872871 0
M  V30 13690 C 1262.76 1.62275 0.130592 0
M  V30 13691 O 1263.95 1.78233 -0.0975869 0
M  V30 13692 C 1261.05 3.37714 -0.283321 0
M  V30 13693 C 1260.23 4.16591 -1.33307 0
M  V30 13694 C 1259.29 5.20701 -0.758746 0
M  V30 13695 O 1258.31 5.50837 -1.43412 0
M  V30 13696 N 1259.51 5.78811 0.442505 0
M  V30 13697 H 1262.28 2.39364 -1.80346 0
M  V30 13698 H 1259.84 1.20027 -1.08652 0
M  V30 13699 H 1261.83 4.04538 0.114524 0
M  V30 13700 H 1260.4 3.07699 0.551347 0
M  V30 13701 H 1259.62 3.45051 -1.90613 0
M  V30 13702 H 1260.91 4.66082 -2.04071 0
M  V30 13703 H 1260.31 5.56631 1.00889 0
M  V30 13704 H 1258.86 6.47089 0.78224 0
M  V30 13705 N 1262.3 0.988223 1.22768 0
M  V30 13706 C 1263.21 0.543407 2.2822 0
M  V30 13707 C 1264.22 -0.405563 1.69208 0
M  V30 13708 O 1265.4 -0.273551 1.99534 0
M  V30 13709 C 1262.46 -0.139495 3.46419 0
M  V30 13710 C 1261.53 0.851853 4.20764 0
M  V30 13711 C 1260.76 0.201446 5.3332 0
M  V30 13712 O 1260.98 -1.00573 5.61464 0
M  V30 13713 O 1259.92 0.903956 5.95073 0
M  V30 13714 H 1263.74 1.42059 2.68427 0
M  V30 13715 H 1261.33 0.756239 1.28846 0
M  V30 13716 H 1263.21 -0.522226 4.18152 0
M  V30 13717 H 1261.88 -0.991315 3.08147 0
M  V30 13718 H 1260.79 1.28543 3.51322 0
M  V30 13719 H 1262.12 1.67273 4.62905 0
M  V30 13720 N 1263.78 -1.38018 0.760839 0
M  V30 13721 C 1265.02 -2.00248 0.320716 0
M  V30 13722 C 1265.35 -1.60259 -1.09684 0
M  V30 13723 O 1264.63 -0.843567 -1.75255 0
M  V30 13724 C 1264.91 -3.57254 0.451849 0
M  V30 13725 C 1264.77 -4.07185 1.91103 0
M  V30 13726 C 1266.08 -4.39843 -0.150439 0
M  V30 13727 H 1263.2 -0.727491 0.118007 0
M  V30 13728 H 1265.85 -1.63855 0.961842 0
M  V30 13729 H 1264 -3.88386 -0.0939672 0
M  V30 13730 H 1265.67 -3.86665 2.51571 0
M  V30 13731 H 1263.91 -3.59782 2.42362 0
M  V30 13732 H 1264.58 -5.16262 1.9539 0
M  V30 13733 H 1267.06 -4.14905 0.315145 0
M  V30 13734 H 1265.93 -5.48893 -0.0284853 0
M  V30 13735 H 1266.19 -4.24367 -1.23956 0
M  V30 13736 N 1265.25 -0.510493 -1.49103 0
M  V30 13737 C 1266.18 0.251999 -2.32136 0
M  V30 13738 C 1267.16 0.953613 -1.40855 0
M  V30 13739 O 1268.35 0.943178 -1.69758 0
M  V30 13740 C 1265.48 1.31118 -3.21598 0
M  V30 13741 C 1264.43 0.72888 -4.21748 0
M  V30 13742 C 1263.76 1.88928 -5.0021 0
M  V30 13743 C 1265.06 -0.286425 -5.21514 0
M  V30 13744 H 1266.75 -0.441102 -2.96133 0
M  V30 13745 H 1264.3 -0.213577 -1.42407 0
M  V30 13746 H 1266.25 1.8524 -3.78503 0
M  V30 13747 H 1264.98 2.0336 -2.55563 0
M  V30 13748 H 1263.64 0.209336 -3.66002 0
M  V30 13749 H 1263.28 2.59961 -4.30615 0
M  V30 13750 H 1262.98 1.50568 -5.67981 0
M  V30 13751 H 1264.51 2.43465 -5.59962 0
M  V30 13752 H 1265.92 0.166997 -5.73057 0
M  V30 13753 H 1264.32 -0.586361 -5.97228 0
M  V30 13754 H 1265.39 -1.19904 -4.69842 0
M  V30 13755 N 1266.73 1.55688 -0.24474 0
M  V30 13756 C 1267.68 2.21289 0.655723 0
M  V30 13757 C 1268.65 1.17606 1.17295 0
M  V30 13758 O 1269.83 1.46045 1.22782 0
M  V30 13759 C 1266.97 2.91453 1.84794 0
M  V30 13760 C 1266.09 4.09787 1.36744 0
M  V30 13761 C 1265.22 4.67672 2.51905 0
M  V30 13762 C 1264.26 5.78259 2.00706 0
M  V30 13763 N 1263.4 6.30336 3.09225 0
M  V30 13764 H 1268.24 2.97865 0.0896156 0
M  V30 13765 H 1265.77 1.47064 0.0324725 0
M  V30 13766 H 1267.73 3.30331 2.54828 0
M  V30 13767 H 1266.36 2.17355 2.38656 0
M  V30 13768 H 1265.41 3.76237 0.561228 0
M  V30 13769 H 1266.73 4.89627 0.952199 0
M  V30 13770 H 1265.88 5.09113 3.29984 0
M  V30 13771 H 1264.62 3.87044 2.9673 0
M  V30 13772 H 1263.62 5.36298 1.21097 0
M  V30 13773 H 1264.85 6.60737 1.56853 0
M  V30 13774 H 1262.8 5.52614 3.53489 0
M  V30 13775 H 1262.71 7.05364 2.72025 0
M  V30 13776 H 1263.98 6.76435 3.8737 0
M  V30 13777 N 1268.21 -0.0283989 1.57574 0
M  V30 13778 C 1269.16 -1.02881 2.06601 0
M  V30 13779 C 1270.13 -1.35879 0.955308 0
M  V30 13780 O 1271.31 -1.46205 1.22592 0
M  V30 13781 C 1268.45 -2.32447 2.55073 0
M  V30 13782 C 1267.56 -2.05602 3.79937 0
M  V30 13783 C 1266.7 -3.29043 4.17018 0
M  V30 13784 C 1265.74 -2.97755 5.34797 0
M  V30 13785 N 1264.88 -4.1365 5.67308 0
M  V30 13786 H 1269.72 -0.603772 2.91819 0
M  V30 13787 H 1267.25 -0.286503 1.44283 0
M  V30 13788 H 1269.21 -3.08152 2.81244 0
M  V30 13789 H 1267.84 -2.72672 1.72771 0
M  V30 13790 H 1266.89 -1.2039 3.60847 0
M  V30 13791 H 1268.2 -1.78522 4.65759 0
M  V30 13792 H 1267.36 -4.13115 4.4432 0
M  V30 13793 H 1266.1 -3.59237 3.29849 0
M  V30 13794 H 1265.1 -2.12085 5.07247 0
M  V30 13795 H 1266.33 -2.68839 6.23621 0
M  V30 13796 H 1264.27 -4.43794 4.83097 0
M  V30 13797 H 1264.19 -3.89996 6.47641 0
M  V30 13798 H 1265.46 -4.98594 5.99186 0
M  V30 13799 N 1269.69 -1.54705 -0.300681 0
M  V30 13800 C 1270.6 -1.88736 -1.39341 0
M  V30 13801 C 1271.61 -0.78155 -1.5546 0
M  V30 13802 O 1272.79 -1.07804 -1.70118 0
M  V30 13803 C 1269.85 -2.12795 -2.73713 0
M  V30 13804 C 1268.92 -3.36504 -2.66577 0
M  V30 13805 C 1268.15 -3.59407 -3.94541 0
M  V30 13806 O 1268.37 -2.85315 -4.93914 0
M  V30 13807 O 1267.31 -4.52923 -3.96415 0
M  V30 13808 H 1271.13 -2.817 -1.13484 0
M  V30 13809 H 1268.72 -1.40899 -0.496771 0
M  V30 13810 H 1270.6 -2.29819 -3.53215 0
M  V30 13811 H 1269.27 -1.23017 -2.99414 0
M  V30 13812 H 1268.18 -3.24844 -1.85546 0
M  V30 13813 H 1269.51 -4.26414 -2.45829 0
M  V30 13814 N 1271.17 0.563888 -1.47167 0
M  V30 13815 C 1272.42 1.31766 -1.5271 0
M  V30 13816 C 1272.73 1.94664 -0.191164 0
M  V30 13817 O 1273.93 2.71214 -0.124543 0
M  V30 13818 C 1272.39 2.38907 -2.69168 0
M  V30 13819 C 1272 1.8223 -4.09263 0
M  V30 13820 C 1273.74 3.15508 -2.83999 0
M  V30 13821 C 1271.65 2.87111 -5.17031 0
M  V30 13822 H 1270.58 0.495421 -0.568396 0
M  V30 13823 H 1273.23 0.599665 -1.73425 0
M  V30 13824 H 1271.61 3.13591 -2.4182 0
M  V30 13825 H 1272.79 1.13963 -4.46485 0
M  V30 13826 H 1271.1 1.18235 -3.99261 0
M  V30 13827 H 1273.7 3.93816 -3.61681 0
M  V30 13828 H 1274.04 3.69277 -1.92197 0
M  V30 13829 H 1274.57 2.47934 -3.11085 0
M  V30 13830 H 1271.31 2.38204 -6.10687 0
M  V30 13831 H 1270.83 3.53809 -4.84334 0
M  V30 13832 H 1272.51 3.50724 -5.43692 0
M  V30 13833 N 1272.64 1.35187 0.810078 0
M  V30 13834 C 1273.89 1.28011 1.56389 0
M  V30 13835 C 1274.21 -0.14622 1.94451 0
M  V30 13836 O 1273.48 -1.08185 1.63318 0
M  V30 13837 H 1272.06 0.470837 0.579932 0
M  V30 13838 H 1274.73 1.69249 0.966476 0
M  V30 13839 H 1273.82 1.89362 2.4809 0
M  V30 13840 N 1274.12 -1.03182 1.19127 0
M  V30 13841 C 1275.54 -1.28773 0.942854 0
M  V30 13842 C 1275.74 -1.97759 -0.386483 0
M  V30 13843 O 1274.79 -2.26365 -1.1187 0
M  V30 13844 C 1276.11 -2.13771 2.11476 0
M  V30 13845 C 1277.66 -2.27089 2.15406 0
M  V30 13846 C 1278.13 -3.15458 3.32039 0
M  V30 13847 N 1279.62 -3.23046 3.31957 0
M  V30 13848 C 1280.36 -3.91604 4.18848 0
M  V30 13849 N 1279.85 -4.62418 5.15889 0
M  V30 13850 N 1281.65 -3.87974 4.06734 0
M  V30 13851 H 1273.8 -0.568165 2.0466 0
M  V30 13852 H 1276.06 -0.31328 0.89474 0
M  V30 13853 H 1275.77 -1.704 3.07663 0
M  V30 13854 H 1275.64 -3.14476 2.0829 0
M  V30 13855 H 1278.03 -2.69693 1.19791 0
M  V30 13856 H 1278.11 -1.25945 2.22647 0
M  V30 13857 H 1277.75 -2.73564 4.27931 0
M  V30 13858 H 1277.68 -4.16654 3.22035 0
M  V30 13859 H 1280.17 -2.7261 2.6171 0
M  V30 13860 H 1280.49 -5.12353 5.78545 0
M  V30 13861 H 1278.83 -4.61293 5.1984 0
M  V30 13862 H 1282.02 -3.31789 3.30202 0
M  V30 13863 H 1282.19 -4.4113 4.74666 0
M  V30 13864 N 1275.6 -0.99472 -1.22242 0
M  V30 13865 C 1276.53 -0.566499 -2.26524 0
M  V30 13866 C 1277.51 0.407541 -1.65146 0
M  V30 13867 O 1278.7 0.297777 -1.91903 0
M  V30 13868 C 1275.83 0.11786 -3.471 0
M  V30 13869 C 1274.78 -0.774908 -4.20927 0
M  V30 13870 C 1274.11 0.0424687 -5.34683 0
M  V30 13871 C 1275.41 -2.07263 -4.79416 0
M  V30 13872 H 1277.1 -1.43818 -2.62596 0
M  V30 13873 H 1274.65 -0.692971 -1.2623 0
M  V30 13874 H 1276.6 0.428842 -4.19212 0
M  V30 13875 H 1275.32 1.0241 -3.10129 0
M  V30 13876 H 1273.98 -1.06956 -3.50651 0
M  V30 13877 H 1273.63 0.949677 -4.93954 0
M  V30 13878 H 1273.33 -0.551867 -5.85003 0
M  V30 13879 H 1274.85 0.347504 -6.0961 0
M  V30 13880 H 1276.27 -1.82548 -5.4346 0
M  V30 13881 H 1274.67 -2.61594 -5.40082 0
M  V30 13882 H 1275.74 -2.75017 -3.99366 0
M  V30 13883 N 1277.08 1.37613 -0.768148 0
M  V30 13884 C 1277.99 2.34103 -0.152649 0
M  V30 13885 C 1279 1.6 0.683811 0
M  V30 13886 O 1280.18 1.92112 0.604572 0
M  V30 13887 C 1277.25 3.39164 0.718954 0
M  V30 13888 C 1276.31 4.29092 -0.13355 0
M  V30 13889 C 1275.54 5.29135 0.696547 0
M  V30 13890 O 1275.76 5.36618 1.93383 0
M  V30 13891 O 1274.7 6.01804 0.107652 0
M  V30 13892 H 1278.52 2.88462 -0.949899 0
M  V30 13893 H 1276.11 1.39711 -0.529252 0
M  V30 13894 H 1277.99 4.03454 1.21665 0
M  V30 13895 H 1276.66 2.87137 1.49445 0
M  V30 13896 H 1275.57 3.67914 -0.677528 0
M  V30 13897 H 1276.9 4.84413 -0.872048 0
M  V30 13898 N 1278.56 0.518393 1.4883 0
M  V30 13899 C 1279.47 -0.254811 2.33212 0
M  V30 13900 C 1280.48 -0.950401 1.45751 0
M  V30 13901 O 1281.66 -0.927932 1.78749 0
M  V30 13902 C 1278.72 -1.29509 3.21603 0
M  V30 13903 C 1277.78 -0.611086 4.24928 0
M  V30 13904 C 1277.02 -1.6018 5.09095 0
M  V30 13905 O 1277.24 -2.83336 4.95052 0
M  V30 13906 O 1276.17 -1.14756 5.90859 0
M  V30 13907 H 1280 0.436329 3.00549 0
M  V30 13908 H 1277.59 0.27947 1.46763 0
M  V30 13909 H 1279.47 -1.89654 3.7631 0
M  V30 13910 H 1278.14 -1.96884 2.5694 0
M  V30 13911 H 1277.05 0.0305638 3.74088 0
M  V30 13912 H 1278.38 0.0205249 4.92196 0
M  V30 13913 N 1280.03 -1.55556 0.252993 0
M  V30 13914 C 1281.28 -1.9909 -0.37005 0
M  V30 13915 C 1281.61 -1.1412 -1.57502 0
M  V30 13916 O 1280.86 -0.193471 -1.94741 0
M  V30 13917 C 1281.16 -3.47925 -0.817484 0
M  V30 13918 C 1280.83 -4.50027 0.280398 0
M  V30 13919 C 1279.49 -4.77669 0.581914 0
M  V30 13920 C 1281.84 -5.11096 1.02129 0
M  V30 13921 C 1279.17 -5.63652 1.62829 0
M  V30 13922 C 1281.52 -5.98215 2.05723 0
M  V30 13923 C 1280.19 -6.24186 2.36533 0
M  V30 13924 H 1279.46 -0.728522 -0.135411 0
M  V30 13925 H 1282.1 -1.88046 0.36209 0
M  V30 13926 H 1280.41 -3.56333 -1.62893 0
M  V30 13927 H 1282.11 -3.79001 -1.30993 0
M  V30 13928 H 1278.7 -4.28585 0.0352579 0
M  V30 13929 H 1282.88 -4.89784 0.801603 0
M  V30 13930 H 1278.14 -5.82028 1.87227 0
M  V30 13931 H 1282.31 -6.44575 2.6362 0
M  V30 13932 H 1279.94 -6.90607 3.17752 0
M  V30 13933 N 1281.51 0.0200419 -1.57587 0
M  V30 13934 C 1282.76 0.709027 -1.89681 0
M  V30 13935 C 1283.09 1.74876 -0.851396 0
M  V30 13936 O 1282.34 1.95151 0.146483 0
M  V30 13937 C 1282.64 1.40729 -3.28527 0
M  V30 13938 C 1282.31 0.502686 -4.48089 0
M  V30 13939 C 1280.97 0.253558 -4.80532 0
M  V30 13940 C 1283.32 -0.121338 -5.21059 0
M  V30 13941 C 1280.65 -0.628221 -5.83327 0
M  V30 13942 C 1283 -0.990873 -6.24792 0
M  V30 13943 C 1281.67 -1.24937 -6.55703 0
M  V30 13944 H 1280.94 0.259451 -0.694094 0
M  V30 13945 H 1283.58 -0.03118 -1.91475 0
M  V30 13946 H 1281.89 2.22105 -3.22764 0
M  V30 13947 H 1283.58 1.94609 -3.50611 0
M  V30 13948 H 1280.17 0.707018 -4.22728 0
M  V30 13949 H 1284.36 0.0581516 -4.96266 0
M  V30 13950 H 1279.61 -0.836712 -6.05648 0
M  V30 13951 H 1283.79 -1.48087 -6.80473 0
M  V30 13952 H 1281.42 -1.93436 -7.35178 0
M  V30 13953 N 1282.99 1.54862 0.292472 0
M  V30 13954 C 1283.92 1.82786 1.38282 0
M  V30 13955 C 1284.94 0.711253 1.46441 0
M  V30 13956 O 1286.12 0.988851 1.48607 0
M  V30 13957 C 1283.22 1.95845 2.76582 0
M  V30 13958 C 1282.4 3.2633 2.91252 0
M  V30 13959 C 1281.46 3.29697 4.10105 0
M  V30 13960 O 1280.48 4.03184 4.01785 0
M  V30 13961 N 1281.68 2.557 5.21151 0
M  V30 13962 H 1284.45 2.76891 1.1468 0
M  V30 13963 H 1282.01 1.54541 0.482561 0
M  V30 13964 H 1284 1.95491 3.54352 0
M  V30 13965 H 1282.57 1.08696 2.93094 0
M  V30 13966 H 1281.79 3.39387 2.00525 0
M  V30 13967 H 1283.08 4.12421 2.9797 0
M  V30 13968 H 1282.48 1.95642 5.30792 0
M  V30 13969 H 1281.04 2.61089 5.97223 0
M  V30 13970 N 1284.47 -0.556076 1.47464 0
M  V30 13971 C 1285.75 -1.31689 1.44628 0
M  V30 13972 C 1286.13 -2.10609 0.143841 0
M  V30 13973 O 1285.47 -2.11097 -0.874662 0
M  V30 13974 C 1285.68 -2.22045 2.69253 0
M  V30 13975 C 1287.03 -2.83028 3.16513 0
M  V30 13976 O 1288.06 -2.32346 2.69988 0
M  V30 13977 O 1286.91 -3.75148 3.97399 0
M  V30 13978 H 1284.01 -0.593026 0.576411 0
M  V30 13979 H 1286.55 -0.574885 1.59666 0
M  V30 13980 H 1285.33 -1.63337 3.5558 0
M  V30 13981 H 1284.95 -3.03539 2.56807 0
M  V30 13982 N 1285.95 -1.35615 -0.802897 0
M  V30 13983 C 1287.19 -1.29285 -1.56247 0
M  V30 13984 C 1287.53 0.131474 -1.93754 0
M  V30 13985 O 1286.8 1.08172 -1.61645 0
M  V30 13986 C 1287.08 -2.20285 -2.84863 0
M  V30 13987 C 1286.94 -3.71351 -2.53808 0
M  V30 13988 C 1288.26 -2.10318 -3.86593 0
M  V30 13989 H 1285.38 -0.470972 -0.566882 0
M  V30 13990 H 1288.02 -1.66048 -0.923469 0
M  V30 13991 H 1286.17 -1.89063 -3.39393 0
M  V30 13992 H 1287.84 -4.13031 -2.05433 0
M  V30 13993 H 1286.08 -3.9145 -1.86947 0
M  V30 13994 H 1286.75 -4.30416 -3.4561 0
M  V30 13995 H 1289.23 -2.37772 -3.41473 0
M  V30 13996 H 1288.11 -2.76183 -4.74357 0
M  V30 13997 H 1288.37 -1.08627 -4.28547 0
M  V30 13998 N 1287.43 1.02549 -1.19673 0
M  V30 13999 C 1288.37 2.13015 -0.934209 0
M  V30 14000 C 1289.37 1.69035 0.111208 0
M  V30 14001 O 1290.57 1.79959 -0.0383449 0
M  V30 14002 H 1286.95 0.696015 -0.284722 0
M  V30 14003 H 1288.92 2.32346 -1.87238 0
M  V30 14004 C 1287.67 3.44185 -0.493124 0
M  V30 14005 H 1286.99 3.78447 -1.28911 0
M  V30 14006 H 1288.43 4.22565 -0.348577 0
M  V30 14007 C 1286.89 3.27427 0.793277 0
M  V30 14008 O 1287.42 3.56362 1.85388 0
M  V30 14009 N 1285.63 2.80706 0.751837 0
M  V30 14010 H 1285.17 2.57359 -0.111517 0
M  V30 14011 H 1285.13 2.69874 1.61292 0
M  V30 14012 N 1288.9 1.00119 1.21713 0
M  V30 14013 C 1290.13 0.700431 1.94683 0
M  V30 14014 C 1290.55 -0.736333 1.73849 0
M  V30 14015 O 1289.9 -1.49778 1.04272 0
M  V30 14016 C 1289.95 1.00722 3.47185 0
M  V30 14017 O 1289.68 2.38754 3.67326 0
M  V30 14018 C 1291.18 0.725335 4.37326 0
M  V30 14019 H 1288.4 0.25843 0.619238 0
M  V30 14020 H 1290.94 1.3382 1.54636 0
M  V30 14021 H 1289.1 0.415117 3.85169 0
M  V30 14022 H 1289.51 2.49321 4.61454 0
M  V30 14023 H 1290.98 0.990202 5.43046 0
M  V30 14024 H 1291.46 -0.340649 4.37877 0
M  V30 14025 H 1292.07 1.29888 4.04981 0
M  V30 14026 N 1290.38 -1.37203 0.775435 0
M  V30 14027 C 1291.62 -2.01439 0.346649 0
M  V30 14028 C 1291.99 -1.60223 -1.05795 0
M  V30 14029 O 1293.19 -2.16947 -1.58706 0
M  V30 14030 C 1291.46 -3.54031 0.489584 0
M  V30 14031 S 1293.02 -4.38555 0.146606 0
M  V30 14032 H 1289.83 -0.698417 0.133173 0
M  V30 14033 H 1292.44 -1.67338 1.01086 0
M  V30 14034 H 1291.14 -3.81516 1.51241 0
M  V30 14035 H 1290.67 -3.92936 -0.19105 0
M  V30 14036 H 1292.69 -4.8482 -1.05661 0
M  V30 14037 N 1291.86 -0.526279 -1.48553 0
M  V30 14038 C 1292.81 0.258285 -2.26532 0
M  V30 14039 C 1293.79 0.913187 -1.32475 0
M  V30 14040 O 1294.99 0.816606 -1.57037 0
M  V30 14041 C 1292.11 1.30686 -3.17452 0
M  V30 14042 C 1291.2 0.656933 -4.18981 0
M  V30 14043 N 1291.59 -0.255186 -5.05156 0
M  V30 14044 C 1289.89 0.914575 -4.36522 0
M  V30 14045 C 1290.59 -0.629753 -5.78281 0
M  V30 14046 N 1289.57 0.00829904 -5.43599 0
M  V30 14047 H 1293.37 -0.44348 -2.90535 0
M  V30 14048 H 1290.88 -0.344054 -1.58714 0
M  V30 14049 H 1292.88 1.8826 -3.71973 0
M  V30 14050 H 1291.54 2.01004 -2.55005 0
M  V30 14051 H 1292.55 -0.627564 -5.14084 0
M  V30 14052 H 1289.23 1.6086 -3.85266 0
M  V30 14053 H 1290.62 -1.37746 -6.57629 0
M  V30 14054 N 1293.34 1.5542 -0.261239 0
M  V30 14055 C 1294.27 2.24949 0.626126 0
M  V30 14056 C 1295.25 1.23474 1.16997 0
M  V30 14057 O 1296.43 1.52161 1.20667 0
M  V30 14058 C 1293.56 2.95996 1.81669 0
M  V30 14059 C 1292.52 4.04282 1.40499 0
M  V30 14060 C 1291.84 4.62831 2.67753 0
M  V30 14061 C 1293.14 5.1923 0.56543 0
M  V30 14062 H 1294.84 2.99364 0.0463164 0
M  V30 14063 H 1292.38 1.43985 0.0208366 0
M  V30 14064 H 1294.34 3.43343 2.44323 0
M  V30 14065 H 1293.06 2.19093 2.42211 0
M  V30 14066 H 1291.72 3.57726 0.801712 0
M  V30 14067 H 1291.37 3.82611 3.26524 0
M  V30 14068 H 1291.07 5.35938 2.40925 0
M  V30 14069 H 1292.59 5.12918 3.31281 0
M  V30 14070 H 1294.01 5.62714 1.09663 0
M  V30 14071 H 1292.4 5.98814 0.392607 0
M  V30 14072 H 1293.47 4.83086 -0.419059 0
M  V30 14073 N 1294.82 -0.0116844 1.57596 0
M  V30 14074 C 1296.23 -0.55604 1.78228 0
M  V30 14075 C 1296.58 -1.74624 0.894474 0
M  V30 14076 O 1295.7 -2.16196 0.0938498 0
M  V30 14077 C 1296.3 -1.0155 3.23223 0
M  V30 14078 C 1294.86 -1.50525 3.44992 0
M  V30 14079 C 1294 -0.451133 2.73606 0
M  V30 14080 H 1296.95 0.214516 1.57243 0
M  V30 14081 H 1296.98 -1.88208 3.30693 0
M  V30 14082 H 1296.49 -0.149048 3.87814 0
M  V30 14083 H 1294.59 -2.39298 2.856 0
M  V30 14084 H 1294.7 -1.54076 4.53649 0
M  V30 14085 H 1293.07 -0.910135 2.37884 0
M  V30 14086 H 1293.85 0.406152 3.40889 0
M  V30 14087 N 1296.29 -1.55015 -0.284256 0
M  V30 14088 C 1297.22 -1.90128 -1.3555 0
M  V30 14089 C 1298.2 -0.761914 -1.52082 0
M  V30 14090 O 1299.39 -1.01909 -1.65312 0
M  V30 14091 C 1296.52 -2.16332 -2.71695 0
M  V30 14092 C 1295.47 -3.32166 -2.69907 0
M  V30 14093 C 1294.8 -3.43824 -4.09498 0
M  V30 14094 C 1296.1 -4.6885 -2.30168 0
M  V30 14095 H 1297.79 -2.79852 -1.06411 0
M  V30 14096 H 1295.34 -1.34649 -0.510451 0
M  V30 14097 H 1297.29 -2.39482 -3.46737 0
M  V30 14098 H 1296.02 -1.23395 -3.02392 0
M  V30 14099 H 1294.68 -3.08965 -1.97322 0
M  V30 14100 H 1294.32 -2.48375 -4.374 0
M  V30 14101 H 1294.02 -4.21698 -4.092 0
M  V30 14102 H 1295.55 -3.69254 -4.86296 0
M  V30 14103 H 1296.96 -4.91619 -2.9493 0
M  V30 14104 H 1295.36 -5.49558 -2.41052 0
M  V30 14105 H 1296.43 -4.68433 -1.25294 0
M  V30 14106 N 1297.77 0.548248 -1.47757 0
M  V30 14107 C 1298.72 1.67553 -1.61335 0
M  V30 14108 C 1299.71 1.62447 -0.480335 0
M  V30 14109 O 1300.92 1.67525 -0.658445 0
M  V30 14110 H 1297.29 0.55457 -0.507894 0
M  V30 14111 H 1299.27 1.53239 -2.56047 0
M  V30 14112 C 1298.01 3.05883 -1.6532 0
M  V30 14113 H 1297.34 3.10497 -2.51856 0
M  V30 14114 H 1298.78 3.84424 -1.78868 0
M  V30 14115 C 1297.24 3.34656 -0.388238 0
M  V30 14116 O 1297.77 3.9849 0.506816 0
M  V30 14117 N 1295.97 2.89384 -0.265514 0
M  V30 14118 H 1295.52 2.37615 -0.994819 0
M  V30 14119 H 1295.48 3.09006 0.579889 0
M  V30 14120 N 1299.25 1.36039 0.795694 0
M  V30 14121 C 1300.66 1.2679 1.37044 0
M  V30 14122 C 1301.01 -0.0950192 1.9597 0
M  V30 14123 O 1300.14 -0.996311 1.921 0
M  V30 14124 C 1300.73 2.29585 2.49151 0
M  V30 14125 C 1299.29 2.24044 3.02458 0
M  V30 14126 C 1298.44 2.14703 1.75493 0
M  V30 14127 H 1301.39 1.47009 0.597843 0
M  V30 14128 H 1301.41 1.92864 3.27999 0
M  V30 14129 H 1300.92 3.28769 2.06234 0
M  V30 14130 H 1299.02 1.28307 3.49812 0
M  V30 14131 H 1299.14 3.1647 3.597 0
M  V30 14132 H 1297.5 1.60856 1.97478 0
M  V30 14133 H 1298.28 3.15765 1.34713 0
M  V30 14134 N 1300.73 -1.01913 1.20215 0
M  V30 14135 C 1301.69 -2.08563 0.950481 0
M  V30 14136 C 1302.69 -1.60634 -0.0729659 0
M  V30 14137 O 1303.88 -1.73437 0.162826 0
M  V30 14138 C 1301.01 -3.38171 0.430453 0
M  V30 14139 H 1302.21 -2.32323 1.89647 0
M  V30 14140 H 1299.76 -1.18674 1.01716 0
M  V30 14141 H 1300.49 -3.20086 -0.521126 0
M  V30 14142 H 1300.28 -3.74284 1.1685 0
M  V30 14143 H 1301.77 -4.16702 0.273781 0
M  V30 14144 N 1302.21 -1.00763 -1.2118 0
M  V30 14145 C 1303.14 -0.590493 -2.2591 0
M  V30 14146 C 1304.12 0.390002 -1.65569 0
M  V30 14147 O 1305.3 0.277406 -1.92208 0
M  V30 14148 C 1302.43 0.0810388 -3.47205 0
M  V30 14149 C 1301.39 -0.81951 -4.20081 0
M  V30 14150 C 1300.71 -0.014244 -5.34698 0
M  V30 14151 C 1302.01 -2.12336 -4.7719 0
M  V30 14152 H 1303.71 -1.46595 -2.61056 0
M  V30 14153 H 1301.25 -0.706321 -1.25487 0
M  V30 14154 H 1303.21 0.384355 -4.19644 0
M  V30 14155 H 1301.93 0.991145 -3.11197 0
M  V30 14156 H 1300.59 -1.10669 -3.49497 0
M  V30 14157 H 1300.24 0.897233 -4.94933 0
M  V30 14158 H 1299.94 -0.613883 -5.84384 0
M  V30 14159 H 1301.46 0.282827 -6.09945 0
M  V30 14160 H 1302.87 -1.88301 -5.41494 0
M  V30 14161 H 1301.27 -2.67308 -5.37277 0
M  V30 14162 H 1302.34 -2.79238 -3.96427 0
M  V30 14163 N 1303.68 1.3679 -0.7827 0
M  V30 14164 C 1304.92 2.01252 -0.357327 0
M  V30 14165 C 1305.29 1.60782 1.04944 0
M  V30 14166 O 1306.49 2.17785 1.57553 0
M  V30 14167 C 1304.76 3.53766 -0.508352 0
M  V30 14168 S 1306.32 4.38471 -0.169862 0
M  V30 14169 H 1303.14 0.697701 -0.136875 0
M  V30 14170 H 1305.74 1.66799 -1.01972 0
M  V30 14171 H 1304.44 3.80708 -1.53262 0
M  V30 14172 H 1303.97 3.93032 0.170209 0
M  V30 14173 H 1305.99 4.85373 1.03088 0
M  V30 14174 N 1305.16 0.53415 1.48272 0
M  V30 14175 C 1306.41 -0.000450626 2.017 0
M  V30 14176 C 1306.72 -1.34926 1.41613 0
M  V30 14177 O 1307.93 -1.97246 1.86564 0
M  V30 14178 C 1306.39 -0.0511883 3.59864 0
M  V30 14179 C 1305.99 1.29298 4.28936 0
M  V30 14180 C 1307.74 -0.534397 4.21123 0
M  V30 14181 C 1305.65 1.2026 5.79044 0
M  V30 14182 H 1304.58 -0.00393844 0.75399 0
M  V30 14183 H 1307.23 0.678554 1.70493 0
M  V30 14184 H 1305.61 -0.795358 3.8793 0
M  V30 14185 H 1306.78 2.05305 4.12537 0
M  V30 14186 H 1305.1 1.71226 3.79566 0
M  V30 14187 H 1307.69 -0.620048 5.31093 0
M  V30 14188 H 1308.04 -1.54114 3.86723 0
M  V30 14189 H 1308.57 0.154215 3.97501 0
M  V30 14190 H 1305.31 2.18463 6.18025 0
M  V30 14191 H 1304.83 0.483971 5.97844 0
M  V30 14192 H 1306.51 0.895005 6.4078 0
M  V30 14193 N 1306.64 -1.55279 0.269478 0
M  V30 14194 C 1307.59 -2.22304 -0.620435 0
M  V30 14195 C 1308.56 -1.19457 -1.15409 0
M  V30 14196 O 1309.74 -1.4798 -1.20443 0
M  V30 14197 C 1306.88 -2.94356 -1.80134 0
M  V30 14198 C 1306 -4.1191 -1.30207 0
M  V30 14199 C 1305.13 -4.71621 -2.44433 0
M  V30 14200 C 1304.17 -5.81379 -1.91481 0
M  V30 14201 N 1303.31 -6.35176 -2.99158 0
M  V30 14202 H 1308.15 -2.9797 -0.0422165 0
M  V30 14203 H 1305.68 -1.47097 -0.00907173 0
M  V30 14204 H 1307.64 -3.34343 -2.4954 0
M  V30 14205 H 1306.27 -2.21124 -2.35168 0
M  V30 14206 H 1305.32 -3.77082 -0.501301 0
M  V30 14207 H 1306.64 -4.9108 -0.874183 0
M  V30 14208 H 1305.79 -5.14298 -3.21842 0
M  V30 14209 H 1304.53 -3.91715 -2.90535 0
M  V30 14210 H 1303.53 -5.38157 -1.12549 0
M  V30 14211 H 1304.76 -6.63149 -1.46322 0
M  V30 14212 H 1302.7 -5.58167 -3.44652 0
M  V30 14213 H 1302.62 -7.09602 -2.60769 0
M  V30 14214 H 1303.89 -6.82512 -3.7656 0
M  V30 14215 N 1308.12 0.00332656 -1.576 0
M  V30 14216 C 1309.37 0.687508 -1.90047 0
M  V30 14217 C 1309.69 1.74497 -0.870388 0
M  V30 14218 O 1308.96 1.95681 0.0926544 0
M  V30 14219 H 1307.54 0.256924 -0.701426 0
M  V30 14220 H 1310.2 -0.0368129 -1.94865 0
M  V30 14221 H 1309.3 1.16086 -2.89707 0
M  V30 14222 N 1309.6 1.55164 0.276031 0
M  V30 14223 C 1310.85 1.74833 1.0058 0
M  V30 14224 C 1311.16 0.555089 1.87558 0
M  V30 14225 O 1312.36 0.634127 2.63991 0
M  V30 14226 C 1310.82 3.09417 1.83818 0
M  V30 14227 C 1310.43 4.36299 1.01721 0
M  V30 14228 C 1312.17 3.38437 2.56244 0
M  V30 14229 C 1310.08 5.61923 1.8438 0
M  V30 14230 H 1309.01 0.651676 0.379254 0
M  V30 14231 H 1311.66 1.81626 0.26161 0
M  V30 14232 H 1310.04 2.96654 2.62321 0
M  V30 14233 H 1311.22 4.59969 0.276565 0
M  V30 14234 H 1309.53 4.144 0.407645 0
M  V30 14235 H 1312.13 4.29501 3.18485 0
M  V30 14236 H 1312.47 2.58432 3.26372 0
M  V30 14237 H 1313 3.52284 1.84773 0
M  V30 14238 H 1309.74 6.44667 1.18679 0
M  V30 14239 H 1309.26 5.424 2.56051 0
M  V30 14240 H 1310.94 6.0011 2.4182 0
M  V30 14241 N 1311.07 -0.540404 1.48045 0
M  V30 14242 C 1312.35 -1.30148 1.46017 0
M  V30 14243 C 1312.73 -2.10445 0.166171 0
M  V30 14244 O 1312.08 -2.12013 -0.852223 0
M  V30 14245 C 1312.29 -2.19177 2.71593 0
M  V30 14246 C 1313.64 -2.79655 3.19497 0
M  V30 14247 O 1314.66 -2.2947 2.72437 0
M  V30 14248 O 1313.52 -3.70912 4.01356 0
M  V30 14249 H 1310.61 -0.586879 0.582668 0
M  V30 14250 H 1313.16 -0.557918 1.60267 0
M  V30 14251 H 1311.93 -1.59556 3.57292 0
M  V30 14252 H 1311.56 -3.00798 2.60012 0
M  V30 14253 N 1312.55 -1.36459 -0.788468 0
M  V30 14254 C 1313.5 -1.27391 -1.89092 0
M  V30 14255 C 1314.49 -0.165201 -1.6005 0
M  V30 14256 O 1315.68 -0.398097 -1.72465 0
M  V30 14257 C 1312.81 -1.06639 -3.26317 0
M  V30 14258 C 1311.89 -2.21981 -3.61366 0
M  V30 14259 N 1312.28 -3.47302 -3.67716 0
M  V30 14260 C 1310.58 -2.13767 -3.91433 0
M  V30 14261 C 1311.28 -4.2326 -3.99031 0
M  V30 14262 N 1310.26 -3.52211 -4.14063 0
M  V30 14263 H 1314.06 -2.22318 -1.92229 0
M  V30 14264 H 1311.58 -1.29191 -0.98404 0
M  V30 14265 H 1313.57 -0.982292 -4.05162 0
M  V30 14266 H 1312.23 -0.126129 -3.24455 0
M  V30 14267 H 1313.24 -3.81424 -3.50337 0
M  V30 14268 H 1309.92 -1.27702 -3.9749 0
M  V30 14269 H 1311.31 -5.31643 -4.1086 0
M  V30 14270 N 1314.03 1.01274 -1.20754 0
M  V30 14271 C 1315.31 1.7213 -0.929008 0
M  V30 14272 C 1315.69 2.03503 0.561217 0
M  V30 14273 O 1315.04 1.70259 1.52395 0
M  V30 14274 C 1315.25 2.98636 -1.80603 0
M  V30 14275 C 1316.59 3.71823 -2.0502 0
M  V30 14276 O 1317.62 3.08601 -1.77888 0
M  V30 14277 O 1316.48 4.8552 -2.50864 0
M  V30 14278 H 1313.57 0.750361 -0.347689 0
M  V30 14279 H 1316.12 1.07086 -1.31646 0
M  V30 14280 H 1314.89 2.71803 -2.81494 0
M  V30 14281 H 1314.51 3.7142 -1.4189 0
M  V30 14282 N 1315.51 1.01404 1.20644 0
M  V30 14283 C 1316.47 0.586941 2.21557 0
M  V30 14284 C 1317.47 -0.341543 1.57131 0
M  V30 14285 O 1318.66 -0.130585 1.7371 0
M  V30 14286 C 1315.79 -0.143248 3.40599 0
M  V30 14287 H 1316.99 1.47964 2.60858 0
M  V30 14288 H 1314.54 0.803551 1.34063 0
M  V30 14289 H 1315.28 -1.05097 3.06798 0
M  V30 14290 H 1315.06 0.523716 3.88587 0
M  V30 14291 H 1316.55 -0.429504 4.15385 0
M  V30 14292 N 1316.99 -1.36373 0.789944 0
M  V30 14293 C 1318.23 -2.0106 0.367995 0
M  V30 14294 C 1318.59 -1.61336 -1.0409 0
M  V30 14295 O 1319.79 -2.18618 -1.56396 0
M  V30 14296 C 1318.06 -3.53492 0.527106 0
M  V30 14297 S 1319.62 -4.38375 0.193113 0
M  V30 14298 H 1316.44 -0.696965 0.140573 0
M  V30 14299 H 1319.04 -1.66256 1.02855 0
M  V30 14300 H 1317.75 -3.7989 1.55279 0
M  V30 14301 H 1317.28 -3.93116 -0.149364 0
M  V30 14302 H 1319.29 -4.85913 -1.00513 0
M  V30 14303 N 1318.47 -0.542005 -1.47987 0
M  V30 14304 C 1319.69 -0.0146835 -2.07395 0
M  V30 14305 C 1320.12 1.26266 -1.39422 0
M  V30 14306 O 1319.47 1.75259 -0.464118 0
M  V30 14307 C 1319.52 0.179937 -3.60151 0
M  V30 14308 O 1318.63 1.24596 -3.93128 0
M  V30 14309 H 1317.97 -0.0445076 -0.662507 0
M  V30 14310 H 1320.5 -0.753352 -1.90226 0
M  V30 14311 H 1320.51 0.398876 -4.06046 0
M  V30 14312 H 1319.18 -0.753093 -4.09025 0
M  V30 14313 H 1317.76 1.00872 -3.58997 0
M  V30 14314 N 1319.94 1.55134 -0.277709 0
M  V30 14315 C 1321.17 2.03765 0.341106 0
M  V30 14316 C 1321.58 1.15543 1.49822 0
M  V30 14317 O 1320.92 0.168642 1.82924 0
M  V30 14318 C 1320.99 3.48513 0.881974 0
M  V30 14319 C 1320.65 4.56764 -0.146837 0
M  V30 14320 C 1321.65 5.10823 -0.967252 0
M  V30 14321 C 1319.33 5.01509 -0.281824 0
M  V30 14322 C 1321.33 6.08147 -1.90882 0
M  V30 14323 C 1319.01 5.98658 -1.22686 0
M  V30 14324 C 1320.01 6.51859 -2.03886 0
M  V30 14325 O 1319.7 7.47108 -2.96791 0
M  V30 14326 H 1319.43 0.671068 0.0815052 0
M  V30 14327 H 1321.99 2.013 -0.408341 0
M  V30 14328 H 1320.22 3.48226 1.68154 0
M  V30 14329 H 1321.9 3.80469 1.41416 0
M  V30 14330 H 1322.67 4.77065 -0.873714 0
M  V30 14331 H 1318.55 4.59743 0.340203 0
M  V30 14332 H 1322.09 6.49597 -2.54301 0
M  V30 14333 H 1317.99 6.31834 -1.32121 0
M  V30 14334 H 1318.76 7.64832 -2.91502 0
M  V30 14335 N 1321.42 0.00503138 1.57599 0
M  V30 14336 C 1322.67 -0.678761 1.90785 0
M  V30 14337 C 1323 -1.73499 0.87911 0
M  V30 14338 O 1322.25 -1.95359 -0.115418 0
M  V30 14339 C 1322.55 -1.35485 3.30724 0
M  V30 14340 C 1322.22 -0.431335 4.48832 0
M  V30 14341 C 1320.88 -0.177078 4.80874 0
M  V30 14342 C 1323.23 0.204219 5.208 0
M  V30 14343 C 1320.56 0.720944 5.82254 0
M  V30 14344 C 1322.91 1.09015 6.23136 0
M  V30 14345 C 1321.57 1.35353 6.53633 0
M  V30 14346 H 1320.84 -0.248376 0.698133 0
M  V30 14347 H 1323.49 0.061638 1.91401 0
M  V30 14348 H 1321.8 -2.16942 3.26257 0
M  V30 14349 H 1323.49 -1.89007 3.53663 0
M  V30 14350 H 1320.08 -0.639676 4.238 0
M  V30 14351 H 1324.27 0.0208074 4.96296 0
M  V30 14352 H 1319.52 0.93296 6.0424 0
M  V30 14353 H 1323.7 1.58894 6.78031 0
M  V30 14354 H 1321.32 2.05107 7.32008 0
M  V30 14355 N 1322.9 -1.55308 -0.267798 0
M  V30 14356 C 1324.13 -1.80191 -1.01681 0
M  V30 14357 C 1324.54 -0.57783 -1.7974 0
M  V30 14358 O 1323.9 0.4532 -1.76783 0
M  V30 14359 C 1323.95 -3.03023 -1.97127 0
M  V30 14360 O 1323.67 -4.20704 -1.22229 0
M  V30 14361 C 1325.17 -3.40549 -2.83798 0
M  V30 14362 H 1322.39 -0.60013 -0.300142 0
M  V30 14363 H 1324.94 -2.02332 -0.297007 0
M  V30 14364 H 1323.09 -2.82993 -2.64563 0
M  V30 14365 H 1323.51 -4.90181 -1.86608 0
M  V30 14366 H 1324.98 -4.29653 -3.46557 0
M  V30 14367 H 1325.46 -2.60186 -3.53836 0
M  V30 14368 H 1326.06 -3.62856 -2.21846 0
M  V30 14369 N 1324.38 0.532545 -1.4833 0
M  V30 14370 C 1325.6 1.31809 -1.60129 0
M  V30 14371 C 1326.03 1.86283 -0.260807 0
M  V30 14372 O 1325.39 1.6427 0.767137 0
M  V30 14373 C 1325.43 2.44661 -2.64903 0
M  V30 14374 O 1324.54 3.47622 -2.21885 0
M  V30 14375 H 1323.88 0.390492 -0.53704 0
M  V30 14376 H 1326.41 0.641068 -1.94297 0
M  V30 14377 H 1326.42 2.90883 -2.86096 0
M  V30 14378 H 1325.09 2.04373 -3.62222 0
M  V30 14379 H 1323.67 3.07536 -2.10894 0
M  V30 14380 N 1325.86 1.36875 0.78122 0
M  V30 14381 C 1326.8 1.31941 1.91557 0
M  V30 14382 C 1327.8 0.209783 1.68096 0
M  V30 14383 O 1329 0.377266 1.76002 0
M  V30 14384 H 1325.38 0.410955 0.629778 0
M  V30 14385 H 1327.35 2.27721 1.92836 0
M  V30 14386 C 1326.1 1.13379 3.28695 0
M  V30 14387 H 1325.42 1.98013 3.47319 0
M  V30 14388 H 1326.86 1.13976 4.08394 0
M  V30 14389 C 1325.32 -0.161119 3.36515 0
M  V30 14390 O 1325.85 -1.14806 3.84945 0
M  V30 14391 N 1324.06 -0.208594 2.8985 0
M  V30 14392 H 1323.6 0.595187 2.5063 0
M  V30 14393 H 1323.56 -1.07465 2.95463 0
M  V30 14394 N 1327.33 -1.00632 1.21289 0
M  V30 14395 C 1328.3 -2.07543 0.972548 0
M  V30 14396 C 1329.3 -1.60703 -0.0559244 0
M  V30 14397 O 1330.49 -1.73255 0.181213 0
M  V30 14398 C 1327.62 -3.37696 0.466297 0
M  V30 14399 H 1328.81 -2.30298 1.92101 0
M  V30 14400 H 1326.36 -1.17588 1.02969 0
M  V30 14401 H 1327.1 -3.2062 -0.487148 0
M  V30 14402 H 1326.88 -3.73024 1.20813 0
M  V30 14403 H 1328.37 -4.16388 0.317962 0
M  V30 14404 N 1328.81 -1.02043 -1.20104 0
M  V30 14405 C 1329.74 -0.614421 -2.25271 0
M  V30 14406 C 1330.72 0.37242 -1.65973 0
M  V30 14407 O 1331.91 0.257005 -1.92492 0
M  V30 14408 C 1329.04 0.0442085 -3.47272 0
M  V30 14409 C 1327.99 -0.864019 -4.19188 0
M  V30 14410 C 1327.32 -0.0709551 -5.34653 0
M  V30 14411 C 1328.62 -2.17385 -4.74912 0
M  V30 14412 H 1330.31 -1.49355 -2.59487 0
M  V30 14413 H 1327.86 -0.719591 -1.24731 0
M  V30 14414 H 1329.81 0.339825 -4.20028 0
M  V30 14415 H 1328.53 0.958082 -3.12231 0
M  V30 14416 H 1327.19 -1.1437 -3.48303 0
M  V30 14417 H 1326.84 0.844688 -4.95857 0
M  V30 14418 H 1326.54 -0.67583 -5.83701 0
M  V30 14419 H 1328.07 0.218118 -6.1021 0
M  V30 14420 H 1329.48 -1.94034 -5.39466 0
M  V30 14421 H 1327.88 -2.72991 -5.34412 0
M  V30 14422 H 1328.95 -2.83427 -3.93443 0
M  V30 14423 N 1330.29 1.35952 -0.797165 0
M  V30 14424 C 1331.7 1.81554 -0.435311 0
M  V30 14425 C 1332.05 1.66266 1.04164 0
M  V30 14426 O 1331.18 1.18796 1.80877 0
M  V30 14427 C 1331.77 3.29619 -0.783358 0
M  V30 14428 C 1330.33 3.73401 -0.47423 0
M  V30 14429 C 1329.48 2.58098 -1.01394 0
M  V30 14430 H 1332.43 1.24064 -0.989638 0
M  V30 14431 H 1332.45 3.80421 -0.0773381 0
M  V30 14432 H 1331.96 3.40715 -1.85836 0
M  V30 14433 H 1330.06 3.6786 0.592418 0
M  V30 14434 H 1330.18 4.68542 -1.00026 0
M  V30 14435 H 1328.54 2.50927 -0.436747 0
M  V30 14436 H 1329.32 2.71976 -2.09485 0
M  V30 14437 N 1331.77 0.549846 1.47697 0
M  V30 14438 C 1332.7 -0.190364 2.32723 0
M  V30 14439 C 1333.68 -0.915933 1.43334 0
M  V30 14440 O 1334.86 -0.897838 1.72199 0
M  V30 14441 C 1331.99 -1.22545 3.24961 0
M  V30 14442 C 1330.95 -0.616805 4.23532 0
M  V30 14443 C 1330.27 -1.75599 5.05044 0
M  V30 14444 C 1331.57 0.424595 5.20571 0
M  V30 14445 H 1333.27 0.519461 2.94859 0
M  V30 14446 H 1330.81 0.251259 1.41791 0
M  V30 14447 H 1332.77 -1.75139 3.83281 0
M  V30 14448 H 1331.49 -1.96512 2.60865 0
M  V30 14449 H 1330.15 -0.112224 3.66428 0
M  V30 14450 H 1329.8 -2.48453 4.37356 0
M  V30 14451 H 1329.5 -1.35456 5.71774 0
M  V30 14452 H 1331.02 -2.28533 5.6622 0
M  V30 14453 H 1332.44 -0.0150025 5.73298 0
M  V30 14454 H 1330.83 0.7445 5.95464 0
M  V30 14455 H 1331.9 1.32318 4.66497 0
M  V30 14456 N 1333.25 -1.54984 0.285932 0
M  V30 14457 C 1334.19 -2.2295 -0.596822 0
M  V30 14458 C 1335.16 -1.20674 -1.14136 0
M  V30 14459 O 1336.35 -1.49249 -1.18867 0
M  V30 14460 C 1333.49 -2.9625 -1.77002 0
M  V30 14461 C 1332.6 -4.13268 -1.25831 0
M  V30 14462 C 1331.74 -4.74187 -2.39417 0
M  V30 14463 C 1330.78 -5.83377 -1.85304 0
M  V30 14464 N 1329.91 -6.38313 -2.92405 0
M  V30 14465 H 1334.75 -2.97998 -0.0106104 0
M  V30 14466 H 1332.29 -1.47099 0.00653041 0
M  V30 14467 H 1334.25 -3.36971 -2.4598 0
M  V30 14468 H 1332.88 -2.23606 -2.3281 0
M  V30 14469 H 1331.93 -3.77593 -0.461278 0
M  V30 14470 H 1333.24 -4.91979 -0.822049 0
M  V30 14471 H 1332.4 -5.17683 -3.16369 0
M  V30 14472 H 1331.13 -3.94775 -2.86364 0
M  V30 14473 H 1330.14 -5.3932 -1.06835 0
M  V30 14474 H 1331.36 -6.64664 -1.3928 0
M  V30 14475 H 1329.31 -5.61791 -3.38713 0
M  V30 14476 H 1329.23 -7.12328 -2.53228 0
M  V30 14477 H 1330.5 -6.86468 -3.69299 0
M  V30 14478 N 1334.72 -0.0133892 -1.57594 0
M  V30 14479 C 1335.97 0.667896 -1.90321 0
M  V30 14480 C 1336.29 1.74187 -0.88984 0
M  V30 14481 O 1337.49 2.47871 -1.10779 0
M  V30 14482 C 1335.95 1.23917 -3.37894 0
M  V30 14483 C 1335.56 0.199313 -4.47556 0
M  V30 14484 C 1337.3 1.89788 -3.79712 0
M  V30 14485 C 1335.21 0.781339 -5.86216 0
M  V30 14486 H 1334.14 0.253229 -0.710205 0
M  V30 14487 H 1336.79 -0.0761229 -1.83342 0
M  V30 14488 H 1335.17 2.03429 -3.39754 0
M  V30 14489 H 1336.34 -0.572196 -4.57234 0
M  V30 14490 H 1334.66 -0.359719 -4.14843 0
M  V30 14491 H 1337.26 2.34262 -4.80651 0
M  V30 14492 H 1337.6 2.73406 -3.13934 0
M  V30 14493 H 1338.13 1.16989 -3.80208 0
M  V30 14494 H 1334.87 -0.0163598 -6.55498 0
M  V30 14495 H 1334.39 1.5217 -5.80176 0
M  V30 14496 H 1336.07 1.2759 -6.34295 0
M  V30 14497 N 1336.2 1.55448 0.259558 0
M  V30 14498 C 1337.43 1.80727 1.00723 0
M  V30 14499 C 1337.85 0.587354 1.79431 0
M  V30 14500 O 1337.2 -0.443819 1.77021 0
M  V30 14501 C 1337.25 3.04064 1.95517 0
M  V30 14502 O 1336.97 4.21346 1.19996 0
M  V30 14503 C 1338.48 3.42049 2.81988 0
M  V30 14504 H 1335.7 0.601713 0.296956 0
M  V30 14505 H 1338.24 2.02486 0.286273 0
M  V30 14506 H 1336.39 2.84392 2.63058 0
M  V30 14507 H 1336.81 4.91164 1.84006 0
M  V30 14508 H 1338.28 4.31485 3.44274 0
M  V30 14509 H 1338.76 2.62059 3.52451 0
M  V30 14510 H 1339.37 3.64027 2.19918 0
M  V30 14511 N 1337.68 -0.524672 1.4861 0
M  V30 14512 C 1338.93 -1.28021 1.56898 0
M  V30 14513 C 1339.26 -1.92948 0.245203 0
M  V30 14514 O 1338.51 -1.8013 -0.764966 0
M  V30 14515 C 1338.81 -2.3871 2.65993 0
M  V30 14516 C 1338.48 -1.914 4.08261 0
M  V30 14517 C 1337.14 -1.78215 4.46982 0
M  V30 14518 C 1339.49 -1.55713 4.97396 0
M  V30 14519 C 1336.82 -1.27687 5.72637 0
M  V30 14520 C 1339.17 -1.06645 6.23546 0
M  V30 14521 C 1337.83 -0.920818 6.61118 0
M  V30 14522 H 1337.1 -0.468461 0.57413 0
M  V30 14523 H 1339.75 -0.584901 1.82349 0
M  V30 14524 H 1338.06 -3.13932 2.34422 0
M  V30 14525 H 1339.75 -2.96827 2.6962 0
M  V30 14526 H 1336.34 -2.02614 3.77684 0
M  V30 14527 H 1340.53 -1.64757 4.68155 0
M  V30 14528 H 1335.78 -1.15103 6.00468 0
M  V30 14529 H 1339.96 -0.781048 6.92006 0
M  V30 14530 H 1337.58 -0.527091 7.5837 0
M  V30 14531 N 1339.16 -1.37287 -0.77395 0
M  V30 14532 C 1340.41 -1.31698 -1.52769 0
M  V30 14533 C 1340.72 0.0968585 -1.9536 0
M  V30 14534 O 1341.93 0.275205 -2.70102 0
M  V30 14535 C 1340.38 -2.31154 -2.75854 0
M  V30 14536 C 1339.99 -3.78055 -2.40371 0
M  V30 14537 C 1341.73 -2.34572 -3.53803 0
M  V30 14538 C 1339.64 -4.69248 -3.59945 0
M  V30 14539 H 1338.57 -0.489456 -0.573541 0
M  V30 14540 H 1341.22 -1.62735 -0.84791 0
M  V30 14541 H 1339.6 -1.93132 -3.45711 0
M  V30 14542 H 1340.78 -4.24902 -1.78312 0
M  V30 14543 H 1339.09 -3.77562 -1.75602 0
M  V30 14544 H 1341.69 -2.99908 -4.42673 0
M  V30 14545 H 1342.03 -1.35868 -3.93504 0
M  V30 14546 H 1342.57 -2.7129 -2.90941 0
M  V30 14547 H 1339.31 -5.69072 -3.25327 0
M  V30 14548 H 1338.83 -4.27108 -4.21117 0
M  V30 14549 H 1340.5 -4.86275 -4.26785 0
M  V30 14550 N 1340.64 0.999871 -1.21821 0
M  V30 14551 C 1341.58 2.10985 -0.979183 0
M  V30 14552 C 1342.58 1.69232 0.0753287 0
M  V30 14553 O 1343.78 1.79837 -0.0765083 0
M  V30 14554 H 1340.16 0.689819 -0.299421 0
M  V30 14555 H 1342.13 2.28322 -1.92124 0
M  V30 14556 C 1340.88 3.43062 -0.56602 0
M  V30 14557 H 1340.2 3.75627 -1.36909 0
M  V30 14558 H 1341.64 4.2173 -0.43813 0
M  V30 14559 C 1340.1 3.29036 0.723647 0
M  V30 14560 O 1340.63 3.60214 1.77788 0
M  V30 14561 N 1338.84 2.82237 0.692126 0
M  V30 14562 H 1338.38 2.57064 -0.166082 0
M  V30 14563 H 1338.34 2.73235 1.55532 0
M  V30 14564 N 1342.11 1.02678 1.19562 0
M  V30 14565 C 1343.08 0.610407 2.20922 0
M  V30 14566 C 1344.08 -0.324858 1.57484 0
M  V30 14567 O 1345.27 -0.112153 1.73839 0
M  V30 14568 C 1342.4 -0.107115 3.40732 0
M  V30 14569 H 1343.59 1.50722 2.59274 0
M  V30 14570 H 1341.15 0.817725 1.33203 0
M  V30 14571 H 1341.88 -1.01837 3.07896 0
M  V30 14572 H 1341.67 0.564901 3.88009 0
M  V30 14573 H 1343.16 -0.385423 4.15818 0
M  V30 14574 N 1343.59 -1.35528 0.804364 0
M  V30 14575 C 1344.54 -2.31728 0.20125 0
M  V30 14576 C 1345.53 -1.56527 -0.647751 0
M  V30 14577 O 1346.74 -1.71672 -0.541163 0
M  V30 14578 H 1343.12 -0.750572 0.0463165 0
M  V30 14579 H 1345.09 -2.80142 1.02777 0
M  V30 14580 C 1343.84 -3.41807 -0.637429 0
M  V30 14581 H 1343.16 -3.99799 0.00651699 0
M  V30 14582 H 1344.6 -4.11403 -1.02585 0
M  V30 14583 C 1343.06 -2.84655 -1.80202 0
M  V30 14584 O 1343.59 -2.78026 -2.89939 0
M  V30 14585 N 1341.79 -2.41735 -1.61285 0
M  V30 14586 H 1341.34 -2.47327 -0.720231 0
M  V30 14587 H 1341.3 -2.03844 -2.39364 0
M  V30 14588 N 1345.07 -0.557671 -1.47404 0
M  V30 14589 C 1346.48 -0.124411 -1.86285 0
M  V30 14590 C 1346.83 1.30593 -1.46424 0
M  V30 14591 O 1345.96 1.9825 -0.867515 0
M  V30 14592 C 1346.55 -0.219005 -3.38091 0
M  V30 14593 C 1345.11 0.159221 -3.76063 0
M  V30 14594 C 1344.26 -0.566355 -2.71455 0
M  V30 14595 H 1347.21 -0.767367 -1.38914 0
M  V30 14596 H 1347.23 0.562267 -3.76323 0
M  V30 14597 H 1346.74 -1.26013 -3.67073 0
M  V30 14598 H 1344.84 1.20144 -3.52698 0
M  V30 14599 H 1344.96 -0.199662 -4.78684 0
M  V30 14600 H 1343.32 -0.00938921 -2.54698 0
M  V30 14601 H 1344.1 -1.60865 -3.03278 0
M  V30 14602 N 1346.55 1.54831 -0.294147 0
M  V30 14603 C 1347.48 2.19422 0.626821 0
M  V30 14604 C 1348.46 1.16136 1.13804 0
M  V30 14605 O 1349.64 1.44747 1.2075 0
M  V30 14606 C 1346.77 2.83262 1.85689 0
M  V30 14607 C 1345.82 4.00016 1.4795 0
M  V30 14608 S 1346.65 5.32757 0.541307 0
M  V30 14609 C 1347.81 6.00076 1.77932 0
M  V30 14610 H 1348.04 2.97198 0.0780539 0
M  V30 14611 H 1345.57 1.54201 -0.0783131 0
M  V30 14612 H 1347.53 3.20671 2.56282 0
M  V30 14613 H 1346.19 2.05345 2.37681 0
M  V30 14614 H 1345.38 4.43443 2.3953 0
M  V30 14615 H 1344.99 3.64129 0.853573 0
M  V30 14616 H 1347.28 6.20466 2.7208 0
M  V30 14617 H 1348.22 6.94368 1.38774 0
M  V30 14618 H 1348.63 5.29643 1.95292 0
M  V30 14619 N 1348.03 0.0217466 1.57585 0
M  V30 14620 C 1349.28 -0.657187 1.91116 0
M  V30 14621 C 1349.6 -1.7309 0.898039 0
M  V30 14622 O 1348.87 -1.95803 -0.0615116 0
M  V30 14623 H 1347.45 -0.245732 0.705425 0
M  V30 14624 H 1350.11 0.0678096 1.94782 0
M  V30 14625 H 1349.2 -1.11462 2.91518 0
M  V30 14626 N 1349.51 -1.55583 -0.251311 0
M  V30 14627 C 1350.45 -1.89946 -1.31108 0
M  V30 14628 C 1351.42 -0.753209 -1.4804 0
M  V30 14629 O 1352.61 -1.00646 -1.62095 0
M  V30 14630 C 1349.75 -2.19576 -2.66233 0
M  V30 14631 C 1348.86 -3.46983 -2.57345 0
M  V30 14632 C 1348 -3.66206 -3.84794 0
M  V30 14633 C 1347.03 -4.87229 -3.70505 0
M  V30 14634 N 1346.17 -5.02996 -4.89836 0
M  V30 14635 H 1351.01 -2.80325 -1.01104 0
M  V30 14636 H 1348.55 -1.3877 -0.487986 0
M  V30 14637 H 1350.51 -2.3476 -3.44882 0
M  V30 14638 H 1349.14 -1.32406 -2.94395 0
M  V30 14639 H 1348.19 -3.40156 -1.70289 0
M  V30 14640 H 1349.5 -4.35776 -2.42695 0
M  V30 14641 H 1348.65 -3.81324 -4.71886 0
M  V30 14642 H 1347.39 -2.75638 -4.02337 0
M  V30 14643 H 1346.4 -4.72092 -2.81797 0
M  V30 14644 H 1347.62 -5.79253 -3.54462 0
M  V30 14645 H 1345.57 -4.15364 -5.07748 0
M  V30 14646 H 1345.49 -5.8587 -4.778 0
M  V30 14647 H 1346.75 -5.22521 -5.78439 0
M  V30 14648 N 1350.98 0.516783 -1.48886 0
M  V30 14649 C 1351.93 1.64093 -1.64853 0
M  V30 14650 C 1352.93 1.61392 -0.514685 0
M  V30 14651 O 1354.13 1.6609 -0.693831 0
M  V30 14652 H 1350.51 0.543672 -0.519543 0
M  V30 14653 H 1352.48 1.47774 -2.5924 0
M  V30 14654 C 1351.23 3.02308 -1.71771 0
M  V30 14655 H 1350.55 3.05085 -2.58385 0
M  V30 14656 H 1351.99 3.80544 -1.86982 0
M  V30 14657 C 1350.45 3.33757 -0.459136 0
M  V30 14658 O 1350.98 3.99475 0.422177 0
M  V30 14659 N 1349.18 2.88756 -0.326837 0
M  V30 14660 H 1348.73 2.35452 -1.045 0
M  V30 14661 H 1348.69 3.10166 0.514213 0
M  V30 14662 N 1352.46 1.37696 0.766659 0
M  V30 14663 C 1353.71 1.32507 1.52069 0
M  V30 14664 C 1354.02 -0.0864967 1.95409 0
M  V30 14665 O 1355.23 -0.260877 2.70244 0
M  V30 14666 C 1353.69 2.32614 2.74625 0
M  V30 14667 C 1353.29 3.79325 2.38363 0
M  V30 14668 C 1355.04 2.36445 3.52554 0
M  V30 14669 C 1352.94 4.7115 3.57451 0
M  V30 14670 H 1351.87 0.492491 0.570937 0
M  V30 14671 H 1354.53 1.63183 0.839268 0
M  V30 14672 H 1352.91 1.94963 3.44682 0
M  V30 14673 H 1354.08 4.25841 1.76056 0
M  V30 14674 H 1352.4 3.78488 1.73597 0
M  V30 14675 H 1354.99 3.02252 4.41076 0
M  V30 14676 H 1355.34 1.37953 3.92778 0
M  V30 14677 H 1355.87 2.72829 2.89498 0
M  V30 14678 H 1352.61 5.70789 3.22304 0
M  V30 14679 H 1352.13 4.29335 4.18846 0
M  V30 14680 H 1353.81 4.88532 4.242 0
M  V30 14681 N 1353.94 -0.993397 1.22349 0
M  V30 14682 C 1355.16 -1.77373 1.07488 0
M  V30 14683 C 1355.59 -1.84418 -0.37034 0
M  V30 14684 O 1354.95 -1.29629 -1.26752 0
M  V30 14685 C 1355 -3.18538 1.69014 0
M  V30 14686 O 1354.1 -4.01463 0.943474 0
M  V30 14687 H 1353.44 -0.546209 0.37756 0
M  V30 14688 H 1355.97 -1.24792 1.62136 0
M  V30 14689 H 1355.98 -3.6917 1.73717 0
M  V30 14690 H 1354.66 -3.12725 2.74182 0
M  V30 14691 H 1353.23 -3.59998 0.972415 0
M  V30 14692 N 1355.42 -1.03311 -1.19015 0
M  V30 14693 C 1356.67 -0.727266 -1.88132 0
M  V30 14694 C 1356.98 0.747488 -1.80754 0
M  V30 14695 O 1358.19 1.16654 -2.45161 0
M  V30 14696 C 1356.64 -1.25056 -3.37474 0
M  V30 14697 C 1356.25 -2.7534 -3.534 0
M  V30 14698 C 1357.99 -1.02091 -4.12041 0
M  V30 14699 C 1355.9 -3.21066 -4.96659 0
M  V30 14700 H 1354.83 -0.268349 -0.704631 0
M  V30 14701 H 1357.48 -1.24795 -1.3453 0
M  V30 14702 H 1355.86 -0.65777 -3.90499 0
M  V30 14703 H 1357.04 -3.40311 -3.10684 0
M  V30 14704 H 1355.35 -2.96633 -2.92229 0
M  V30 14705 H 1357.95 -1.33777 -5.17695 0
M  V30 14706 H 1358.29 0.0421413 -4.16279 0
M  V30 14707 H 1358.83 -1.57792 -3.65166 0
M  V30 14708 H 1355.56 -4.26719 -4.97586 0
M  V30 14709 H 1355.08 -2.60826 -5.4012 0
M  V30 14710 H 1356.76 -3.14651 -5.65335 0
M  V30 14711 N 1356.9 1.35099 -0.81154 0
M  V30 14712 C 1358.14 1.9788 -0.390695 0
M  V30 14713 C 1358.46 1.6509 1.04903 0
M  V30 14714 O 1359.66 2.21273 1.57324 0
M  V30 14715 C 1358.12 3.54025 -0.647632 0
M  V30 14716 C 1357.73 3.9572 -2.10023 0
M  V30 14717 C 1359.47 4.23492 -0.29239 0
M  V30 14718 C 1357.38 5.44731 -2.30266 0
M  V30 14719 H 1356.31 0.740441 -0.14235 0
M  V30 14720 H 1358.96 1.54098 -0.996294 0
M  V30 14721 H 1357.34 3.9599 0.0279838 0
M  V30 14722 H 1358.52 3.64893 -2.81407 0
M  V30 14723 H 1356.83 3.39157 -2.41581 0
M  V30 14724 H 1359.43 5.33035 -0.421618 0
M  V30 14725 H 1359.77 4.09268 0.76195 0
M  V30 14726 H 1360.3 3.86965 -0.922122 0
M  V30 14727 H 1357.04 5.63928 -3.34163 0
M  V30 14728 H 1356.56 5.7711 -1.63413 0
M  V30 14729 H 1358.24 6.1126 -2.12062 0
M  V30 14730 N 1358.37 0.56548 1.47106 0
M  V30 14731 C 1359.62 0.0445255 2.02451 0
M  V30 14732 C 1359.95 -1.30863 1.43893 0
M  V30 14733 O 1359.2 -1.8668 0.587274 0
M  V30 14734 C 1359.5 -0.0893776 3.57288 0
M  V30 14735 C 1359.17 1.19395 4.34805 0
M  V30 14736 C 1357.83 1.54558 4.55703 0
M  V30 14737 C 1360.18 2.04399 4.79448 0
M  V30 14738 C 1357.51 2.74557 5.18494 0
M  V30 14739 C 1359.86 3.23608 5.43563 0
M  V30 14740 C 1358.53 3.59074 5.62692 0
M  V30 14741 H 1357.8 0.016293 0.740821 0
M  V30 14742 H 1360.44 0.738657 1.76681 0
M  V30 14743 H 1358.75 -0.86653 3.82097 0
M  V30 14744 H 1360.45 -0.507943 3.9777 0
M  V30 14745 H 1357.04 0.910176 4.18824 0
M  V30 14746 H 1361.22 1.78539 4.63074 0
M  V30 14747 H 1356.48 3.02194 5.31497 0
M  V30 14748 H 1360.65 3.89755 5.77117 0
M  V30 14749 H 1358.28 4.5215 6.11117 0
M  V30 14750 N 1359.85 -1.54672 0.302354 0
M  V30 14751 C 1360.8 -2.2357 -0.573141 0
M  V30 14752 C 1361.77 -1.21878 -1.12849 0
M  V30 14753 O 1362.95 -1.50502 -1.17277 0
M  V30 14754 C 1360.09 -2.98111 -1.7385 0
M  V30 14755 C 1359.21 -4.14579 -1.21441 0
M  V30 14756 C 1358.34 -4.76699 -2.34374 0
M  V30 14757 C 1357.38 -5.8531 -1.79106 0
M  V30 14758 N 1356.52 -6.41379 -2.85618 0
M  V30 14759 H 1361.36 -2.97993 0.0209969 0
M  V30 14760 H 1358.9 -1.47083 0.0221318 0
M  V30 14761 H 1360.85 -3.39561 -2.42392 0
M  V30 14762 H 1359.48 -2.26063 -2.30425 0
M  V30 14763 H 1358.54 -3.78061 -0.421204 0
M  V30 14764 H 1359.85 -4.92824 -0.769821 0
M  V30 14765 H 1359 -5.21009 -3.10861 0
M  V30 14766 H 1357.74 -3.9779 -2.8216 0
M  V30 14767 H 1356.75 -5.40423 -1.01109 0
M  V30 14768 H 1357.97 -6.66104 -1.32222 0
M  V30 14769 H 1355.92 -5.65352 -3.32735 0
M  V30 14770 H 1355.83 -7.14974 -2.45659 0
M  V30 14771 H 1357.1 -6.90346 -3.61998 0
M  V30 14772 N 1361.33 -0.0301034 -1.57571 0
M  V30 14773 C 1362.29 0.936465 -2.09196 0
M  V30 14774 C 1363.29 1.25347 -1.00722 0
M  V30 14775 O 1364.48 1.19364 -1.26877 0
M  V30 14776 C 1361.62 2.2527 -2.55864 0
M  V30 14777 H 1362.81 0.489332 -2.95881 0
M  V30 14778 H 1360.36 0.217948 -1.54773 0
M  V30 14779 H 1361.1 2.7461 -1.72511 0
M  V30 14780 H 1360.88 2.03573 -3.35113 0
M  V30 14781 H 1362.37 2.94549 -2.96025 0
M  V30 14782 N 1362.81 1.55714 0.243056 0
M  V30 14783 C 1364.06 1.77375 0.968638 0
M  V30 14784 C 1364.38 0.594781 1.85708 0
M  V30 14785 O 1363.65 -0.38928 1.91993 0
M  V30 14786 H 1362.23 0.654174 0.360646 0
M  V30 14787 H 1364.89 1.93157 0.260079 0
M  V30 14788 H 1363.99 2.68674 1.5881 0
M  V30 14789 N 1364.29 -0.50888 1.49158 0
M  V30 14790 C 1365.56 -1.27021 1.48745 0
M  V30 14791 C 1365.94 -2.10045 0.210772 0
M  V30 14792 O 1365.29 -2.13773 -0.807061 0
M  V30 14793 C 1365.5 -2.13367 2.76181 0
M  V30 14794 C 1366.85 -2.72815 3.25357 0
M  V30 14795 O 1367.87 -2.23639 2.77243 0
M  V30 14796 O 1366.73 -3.62316 4.09133 0
M  V30 14797 H 1363.83 -0.574387 0.594986 0
M  V30 14798 H 1366.37 -0.523798 1.61414 0
M  V30 14799 H 1365.14 -1.51941 3.60596 0
M  V30 14800 H 1364.77 -2.95215 2.66334 0
M  V30 14801 N 1365.76 -1.381 -0.759346 0
M  V30 14802 C 1367.04 -1.24517 -1.50847 0
M  V30 14803 C 1367.42 0.155929 -2.10523 0
M  V30 14804 O 1366.77 1.16485 -1.96579 0
M  V30 14805 C 1366.98 -2.35086 -2.57945 0
M  V30 14806 C 1368.33 -2.73232 -3.25007 0
M  V30 14807 O 1369.35 -2.34355 -2.68247 0
M  V30 14808 O 1368.21 -3.40254 -4.27656 0
M  V30 14809 H 1365.3 -0.486599 -0.668693 0
M  V30 14810 H 1367.85 -1.49913 -0.795249 0
M  V30 14811 H 1366.62 -3.28858 -2.12056 0
M  V30 14812 H 1366.25 -2.11222 -3.36854 0
M  V30 14813 N 1367.24 0.986894 -1.22875 0
M  V30 14814 C 1368.17 2.09628 -1.0285 0
M  V30 14815 C 1369.15 1.70019 0.0525118 0
M  V30 14816 O 1370.34 1.93883 -0.110874 0
M  V30 14817 C 1367.47 3.41866 -0.61194 0
M  V30 14818 C 1366.42 3.95351 -1.63956 0
M  V30 14819 C 1365.75 5.23707 -1.07865 0
M  V30 14820 C 1367.05 4.25354 -3.03102 0
M  V30 14821 H 1368.74 2.26639 -1.95641 0
M  V30 14822 H 1366.29 1.0891 -0.942048 0
M  V30 14823 H 1368.24 4.18893 -0.458936 0
M  V30 14824 H 1366.97 3.24701 0.35164 0
M  V30 14825 H 1365.62 3.20462 -1.78045 0
M  V30 14826 H 1365.27 5.02888 -0.106246 0
M  V30 14827 H 1364.97 5.60459 -1.76522 0
M  V30 14828 H 1366.5 6.03362 -0.937359 0
M  V30 14829 H 1367.91 4.93156 -2.92353 0
M  V30 14830 H 1366.31 4.73292 -3.68938 0
M  V30 14831 H 1367.38 3.32887 -3.52583 0
M  V30 14832 N 1368.72 1.0394 1.18466 0
M  V30 14833 C 1370.14 0.758404 1.40429 0
M  V30 14834 C 1370.34 -0.652603 1.90639 0
M  V30 14835 O 1369.39 -1.417 2.08991 0
M  V30 14836 C 1370.71 1.80343 2.40618 0
M  V30 14837 C 1372.25 1.82419 2.54347 0
M  V30 14838 C 1372.73 2.8591 3.57798 0
M  V30 14839 N 1374.22 2.84793 3.65304 0
M  V30 14840 C 1374.95 3.61521 4.45073 0
M  V30 14841 N 1374.45 4.47997 5.28461 0
M  V30 14842 N 1376.24 3.50016 4.39824 0
M  V30 14843 H 1368.39 1.94998 0.842 0
M  V30 14844 H 1370.66 0.843649 0.43239 0
M  V30 14845 H 1370.36 2.81547 2.10771 0
M  V30 14846 H 1370.24 1.63451 3.39947 0
M  V30 14847 H 1372.62 0.818872 2.83511 0
M  V30 14848 H 1372.71 2.03388 1.55136 0
M  V30 14849 H 1372.35 3.8662 3.29375 0
M  V30 14850 H 1372.28 2.62196 4.56684 0
M  V30 14851 H 1374.77 2.22082 3.05758 0
M  V30 14852 H 1375.08 5.03257 5.86475 0
M  V30 14853 H 1373.43 4.52065 5.27885 0
M  V30 14854 H 1376.62 2.81862 3.73726 0
M  V30 14855 H 1376.79 4.10063 5.0175 0
M  V30 14856 N 1370.2 -1.34667 0.818693 0
M  V30 14857 C 1371.13 -2.28368 0.195126 0
M  V30 14858 C 1372.14 -1.50836 -0.612562 0
M  V30 14859 O 1373.33 -1.72917 -0.442936 0
M  V30 14860 C 1370.43 -3.30601 -0.745411 0
M  V30 14861 C 1369.61 -4.37396 0.0185308 0
M  V30 14862 C 1368.66 -5.19415 -0.842298 0
M  V30 14863 O 1367.69 -5.68467 -0.288821 0
M  V30 14864 N 1368.89 -5.38709 -2.1627 0
M  V30 14865 H 1371.66 -2.8252 1.00013 0
M  V30 14866 H 1369.22 -1.47146 0.675262 0
M  V30 14867 H 1371.21 -3.82367 -1.3258 0
M  V30 14868 H 1369.78 -2.76875 -1.45118 0
M  V30 14869 H 1369 -3.86402 0.780205 0
M  V30 14870 H 1370.29 -5.05877 0.544575 0
M  V30 14871 H 1369.69 -5.00523 -2.63616 0
M  V30 14872 H 1368.24 -5.9361 -2.69204 0
M  V30 14873 N 1371.68 -0.573274 -1.46804 0
M  V30 14874 C 1372.95 0.011163 -1.95597 0
M  V30 14875 C 1373.33 1.4691 -1.51594 0
M  V30 14876 O 1372.68 2.15413 -0.76221 0
M  V30 14877 C 1372.89 -0.151045 -3.48673 0
M  V30 14878 C 1374.24 -0.0139817 -4.24598 0
M  V30 14879 O 1375.26 -0.0794008 -3.56111 0
M  V30 14880 O 1374.12 0.129547 -5.46346 0
M  V30 14881 H 1371.22 0.0551258 -0.825161 0
M  V30 14882 H 1373.76 -0.640928 -1.57131 0
M  V30 14883 H 1372.53 -1.16494 -3.73557 0
M  V30 14884 H 1372.16 0.537917 -3.93944 0
M  V30 14885 N 1373.15 1.5451 -0.310553 0
M  V30 14886 C 1374.09 2.20075 0.603513 0
M  V30 14887 C 1375.07 1.17336 1.12566 0
M  V30 14888 O 1376.25 1.4602 1.19208 0
M  V30 14889 C 1373.38 2.85216 1.82674 0
M  V30 14890 C 1372.42 4.01563 1.43699 0
M  V30 14891 S 1373.26 5.33301 0.48477 0
M  V30 14892 C 1374.41 6.01929 1.71557 0
M  V30 14893 H 1374.64 2.97264 0.0465278 0
M  V30 14894 H 1372.18 1.5411 -0.0946638 0
M  V30 14895 H 1374.14 3.23371 2.52867 0
M  V30 14896 H 1372.8 2.07855 2.3549 0
M  V30 14897 H 1371.99 4.45958 2.34813 0
M  V30 14898 H 1371.59 3.65014 0.814904 0
M  V30 14899 H 1373.88 6.23317 2.65484 0
M  V30 14900 H 1374.83 6.95801 1.31401 0
M  V30 14901 H 1375.23 5.31684 1.89663 0
M  V30 14902 N 1374.63 0.0384594 1.57553 0
M  V30 14903 C 1375.56 -0.938444 2.13812 0
M  V30 14904 C 1376.54 -1.33307 1.05657 0
M  V30 14905 O 1377.73 -1.41003 1.33535 0
M  V30 14906 C 1374.86 -2.21764 2.67279 0
M  V30 14907 C 1373.81 -1.96347 3.80305 0
M  V30 14908 C 1373.14 -3.30612 4.20238 0
M  V30 14909 C 1374.44 -1.2952 5.05986 0
M  V30 14910 H 1376.13 -0.469887 2.9569 0
M  V30 14911 H 1373.68 -0.224576 1.42238 0
M  V30 14912 H 1375.63 -2.90493 3.05273 0
M  V30 14913 H 1374.36 -2.70802 1.82576 0
M  V30 14914 H 1373.02 -1.30033 3.42764 0
M  V30 14915 H 1372.66 -3.77427 3.32502 0
M  V30 14916 H 1372.36 -3.14409 4.96408 0
M  V30 14917 H 1373.89 -4.00594 4.60822 0
M  V30 14918 H 1375.3 -1.88264 5.41507 0
M  V30 14919 H 1373.7 -1.23685 5.87216 0
M  V30 14920 H 1374.77 -0.269439 4.84151 0
M  V30 14921 N 1376.11 -1.55841 -0.234795 0
M  V30 14922 C 1377.36 -1.78502 -0.96254 0
M  V30 14923 C 1377.69 -0.605832 -1.84508 0
M  V30 14924 O 1376.97 0.395446 -1.90438 0
M  V30 14925 C 1377.25 -3.11144 -1.81277 0
M  V30 14926 C 1377.1 -4.39488 -0.957607 0
M  V30 14927 C 1378.42 -3.40114 -2.79304 0
M  V30 14928 H 1375.54 -0.649397 -0.348501 0
M  V30 14929 H 1378.18 -1.88575 -0.23224 0
M  V30 14930 H 1376.33 -3.02687 -2.43542 0
M  V30 14931 H 1378 -4.59949 -0.352726 0
M  V30 14932 H 1376.25 -4.33005 -0.262454 0
M  V30 14933 H 1376.92 -5.28707 -1.58659 0
M  V30 14934 H 1379.39 -3.48612 -2.27175 0
M  V30 14935 H 1378.27 -4.34118 -3.35906 0
M  V30 14936 H 1378.53 -2.61623 -3.56378 0
M  V30 14937 N 1377.59 0.500963 -1.49426 0
M  V30 14938 C 1378.52 1.61114 -1.69011 0
M  V30 14939 C 1379.5 1.61341 -0.538813 0
M  V30 14940 O 1380.69 1.78081 -0.77466 0
M  V30 14941 C 1377.82 2.99598 -1.75666 0
M  V30 14942 C 1376.77 3.14236 -2.90585 0
M  V30 14943 C 1376.1 4.54071 -2.82354 0
M  V30 14944 C 1377.4 2.94258 -4.3152 0
M  V30 14945 H 1379.09 1.44978 -2.61957 0
M  V30 14946 H 1376.64 0.69603 -1.26061 0
M  V30 14947 H 1378.59 3.77163 -1.87953 0
M  V30 14948 H 1377.31 3.16822 -0.793186 0
M  V30 14949 H 1375.97 2.39096 -2.779 0
M  V30 14950 H 1375.62 4.68172 -1.83914 0
M  V30 14951 H 1375.32 4.64806 -3.59485 0
M  V30 14952 H 1376.84 5.33696 -2.96649 0
M  V30 14953 H 1378.26 3.61592 -4.44886 0
M  V30 14954 H 1376.65 3.16464 -5.09873 0
M  V30 14955 H 1377.72 1.90383 -4.45962 0
M  V30 14956 N 1379.07 1.38501 0.752011 0
M  V30 14957 C 1380 1.31746 1.87551 0
M  V30 14958 C 1381.01 0.229386 1.61176 0
M  V30 14959 O 1382.2 0.487066 1.71726 0
M  V30 14960 C 1379.3 1.01889 3.23221 0
M  V30 14961 C 1378.47 2.21637 3.77088 0
M  V30 14962 C 1377.53 1.885 4.91278 0
M  V30 14963 O 1376.56 2.61011 5.05828 0
M  V30 14964 N 1377.76 0.840909 5.74377 0
M  V30 14965 H 1380.53 2.28561 1.93856 0
M  V30 14966 H 1378.09 1.32383 0.932013 0
M  V30 14967 H 1380.08 0.777704 3.97157 0
M  V30 14968 H 1378.65 0.138658 3.12292 0
M  V30 14969 H 1377.87 2.61812 2.947 0
M  V30 14970 H 1379.16 3.01551 4.0981 0
M  V30 14971 H 1378.56 0.23962 5.65192 0
M  V30 14972 H 1377.11 0.659604 6.48454 0
M  V30 14973 N 1380.55 -0.980364 1.23396 0
M  V30 14974 C 1381.48 -2.0908 1.0396 0
M  V30 14975 C 1382.46 -1.70044 -0.0434946 0
M  V30 14976 O 1383.64 -1.93822 0.121155 0
M  V30 14977 C 1380.77 -3.41537 0.630061 0
M  V30 14978 C 1379.73 -3.94476 1.66051 0
M  V30 14979 C 1379.05 -5.23128 1.10641 0
M  V30 14980 C 1380.35 -4.23741 3.05354 0
M  V30 14981 H 1382.05 -2.25598 1.9684 0
M  V30 14982 H 1379.59 -1.08409 0.94781 0
M  V30 14983 H 1381.54 -4.18644 0.481145 0
M  V30 14984 H 1380.27 -3.24883 -0.334416 0
M  V30 14985 H 1378.93 -3.19513 1.79742 0
M  V30 14986 H 1378.58 -5.02824 0.132913 0
M  V30 14987 H 1378.28 -5.59515 1.79492 0
M  V30 14988 H 1379.8 -6.02857 0.969344 0
M  V30 14989 H 1381.21 -4.91598 2.94964 0
M  V30 14990 H 1379.61 -4.71329 3.71442 0
M  V30 14991 H 1380.68 -3.31012 3.54343 0
M  V30 14992 N 1382.02 -1.04567 -1.17913 0
M  V30 14993 C 1383.27 -0.747179 -1.8735 0
M  V30 14994 C 1383.59 0.728274 -1.81537 0
M  V30 14995 O 1384.79 1.14048 -2.46385 0
M  V30 14996 C 1383.25 -1.28629 -3.36129 0
M  V30 14997 C 1382.86 -2.79073 -3.5046 0
M  V30 14998 C 1384.6 -1.06455 -4.10935 0
M  V30 14999 C 1382.51 -3.26316 -4.93226 0
M  V30 15000 H 1381.44 -0.275807 -0.701745 0
M  V30 15001 H 1384.09 -1.26215 -1.33199 0
M  V30 15002 H 1382.47 -0.699151 -3.89779 0
M  V30 15003 H 1383.64 -3.43587 -3.07057 0
M  V30 15004 H 1381.96 -2.99716 -2.89066 0
M  V30 15005 H 1384.56 -1.3926 -5.16247 0
M  V30 15006 H 1384.9 -0.00201298 -4.163 0
M  V30 15007 H 1385.43 -1.61656 -3.63472 0
M  V30 15008 H 1382.17 -4.31972 -4.93032 0
M  V30 15009 H 1381.69 -2.6654 -5.37323 0
M  V30 15010 H 1383.37 -3.2063 -5.61966 0
M  V30 15011 N 1383.5 1.34231 -0.825823 0
M  V30 15012 C 1384.43 2.28261 -0.207234 0
M  V30 15013 C 1385.45 1.51159 0.604554 0
M  V30 15014 O 1386.64 1.7315 0.43376 0
M  V30 15015 C 1383.74 3.30991 0.727868 0
M  V30 15016 C 1382.91 4.3738 -0.0417267 0
M  V30 15017 C 1381.97 5.19854 0.81474 0
M  V30 15018 O 1380.99 5.68612 0.25867 0
M  V30 15019 N 1382.2 5.39849 2.1341 0
M  V30 15020 H 1384.96 2.81986 -1.0151 0
M  V30 15021 H 1382.52 1.46785 -0.683056 0
M  V30 15022 H 1384.51 3.83065 1.3055 0
M  V30 15023 H 1383.08 2.7764 1.43647 0
M  V30 15024 H 1382.3 3.85983 -0.800686 0
M  V30 15025 H 1383.59 5.05581 -0.571395 0
M  V30 15026 H 1382.99 5.01914 2.60958 0
M  V30 15027 H 1381.55 5.95029 2.66052 0
M  V30 15028 N 1384.98 0.581051 1.46498 0
M  V30 15029 C 1386.23 0.0660934 2.02692 0
M  V30 15030 C 1386.56 -1.28985 1.45178 0
M  V30 15031 O 1385.83 -1.84479 0.616247 0
M  V30 15032 C 1386.12 -0.00145411 3.601 0
M  V30 15033 C 1385.97 1.38327 4.28002 0
M  V30 15034 C 1387.29 -0.702914 4.3445 0
M  V30 15035 H 1384.41 0.0254923 0.736559 0
M  V30 15036 H 1387.05 0.74793 1.7466 0
M  V30 15037 H 1385.2 -0.582118 3.84114 0
M  V30 15038 H 1386.87 2.00897 4.15257 0
M  V30 15039 H 1385.11 1.95144 3.87429 0
M  V30 15040 H 1385.79 1.28849 5.36751 0
M  V30 15041 H 1388.26 -0.209641 4.15572 0
M  V30 15042 H 1387.14 -0.719202 5.44168 0
M  V30 15043 H 1387.4 -1.76389 4.05388 0
M  V30 15044 N 1386.46 -1.54343 0.318742 0
M  V30 15045 C 1387.39 -2.20392 -0.591833 0
M  V30 15046 C 1388.37 -1.17931 -1.11942 0
M  V30 15047 O 1389.55 -1.4665 -1.18432 0
M  V30 15048 C 1386.68 -2.8618 -1.81159 0
M  V30 15049 C 1385.73 -4.02319 -1.41568 0
M  V30 15050 S 1386.56 -5.33551 -0.456481 0
M  V30 15051 C 1387.71 -6.02831 -1.68363 0
M  V30 15052 H 1387.95 -2.97284 -0.0307625 0
M  V30 15053 H 1385.48 -1.54057 0.102835 0
M  V30 15054 H 1387.44 -3.24707 -2.51148 0
M  V30 15055 H 1386.1 -2.091 -2.34384 0
M  V30 15056 H 1385.29 -4.47197 -2.32445 0
M  V30 15057 H 1384.89 -3.65441 -0.795535 0
M  V30 15058 H 1387.19 -6.24716 -2.62175 0
M  V30 15059 H 1388.13 -6.96488 -1.27709 0
M  V30 15060 H 1388.54 -5.32682 -1.86841 0
M  V30 15061 N 1387.94 -0.0468143 -1.5753 0
M  V30 15062 C 1389.21 0.667567 -1.83856 0
M  V30 15063 C 1389.59 1.89297 -0.934346 0
M  V30 15064 O 1388.94 2.28499 0.00570067 0
M  V30 15065 C 1389.15 1.029 -3.33485 0
M  V30 15066 C 1390.5 1.41315 -4.00394 0
M  V30 15067 O 1391.52 1.12147 -3.38085 0
M  V30 15068 O 1390.38 1.95732 -5.10246 0
M  V30 15069 H 1387.48 0.329112 -0.758692 0
M  V30 15070 H 1390.02 -0.0758456 -1.6953 0
M  V30 15071 H 1388.79 0.157617 -3.90982 0
M  V30 15072 H 1388.42 1.83 -3.52982 0
M  V30 15073 N 1389.41 1.55964 0.226527 0
M  V30 15074 C 1390.36 1.92857 1.30034 0
M  V30 15075 C 1391.36 0.810008 1.48779 0
M  V30 15076 O 1392.56 0.994801 1.50012 0
M  V30 15077 H 1388.94 0.612807 0.435857 0
M  V30 15078 H 1390.91 2.82469 0.96196 0
M  V30 15079 C 1389.66 2.25735 2.6446 0
M  V30 15080 H 1388.98 3.11317 2.50842 0
M  V30 15081 H 1390.42 2.55437 3.3842 0
M  V30 15082 C 1388.88 1.08074 3.19095 0
M  V30 15083 O 1389.41 0.339279 4.00265 0
M  V30 15084 N 1387.62 0.86589 2.774 0
M  V30 15085 H 1387.16 1.47055 2.11501 0
M  V30 15086 H 1387.12 0.0803566 3.14297 0
M  V30 15087 N 1390.89 -0.493031 1.4969 0
M  V30 15088 C 1392.14 -1.2433 1.58823 0
M  V30 15089 C 1392.45 -1.9353 0.283823 0
M  V30 15090 O 1393.66 -2.70311 0.253801 0
M  V30 15091 C 1392.12 -2.25792 2.8026 0
M  V30 15092 C 1391.72 -1.62496 4.17491 0
M  V30 15093 C 1393.47 -3.01598 2.98729 0
M  V30 15094 C 1391.38 -2.62115 5.30141 0
M  V30 15095 H 1390.31 -0.467738 0.591386 0
M  V30 15096 H 1392.96 -0.516238 1.76089 0
M  V30 15097 H 1391.34 -3.01696 2.56506 0
M  V30 15098 H 1392.51 -0.925305 4.51414 0
M  V30 15099 H 1390.83 -0.990516 4.04447 0
M  V30 15100 H 1393.42 -3.76111 3.80058 0
M  V30 15101 H 1393.77 -3.59687 2.09597 0
M  V30 15102 H 1394.3 -2.32809 3.2256 0
M  V30 15103 H 1391.04 -2.08797 6.21357 0
M  V30 15104 H 1390.56 -3.30298 5.00663 0
M  V30 15105 H 1392.24 -3.24385 5.59807 0
M  V30 15106 N 1392.37 -1.38898 -0.744656 0
M  V30 15107 C 1393.62 -1.368 -1.50523 0
M  V30 15108 C 1393.97 0.0391042 -1.9236 0
M  V30 15109 O 1393.26 1.00363 -1.63211 0
M  V30 15110 C 1393.46 -2.2658 -2.76398 0
M  V30 15111 C 1393.29 -3.7588 -2.46868 0
M  V30 15112 C 1392.06 -4.44859 -2.39643 0
M  V30 15113 C 1394.26 -4.68096 -2.1305 0
M  V30 15114 N 1392.24 -5.79547 -2.02482 0
M  V30 15115 C 1393.61 -5.91362 -1.86254 0
M  V30 15116 C 1395.66 -4.56212 -1.99436 0
M  V30 15117 C 1394.37 -7.04074 -1.47216 0
M  V30 15118 C 1396.39 -5.68836 -1.618 0
M  V30 15119 C 1395.75 -6.9117 -1.35882 0
M  V30 15120 H 1391.85 -0.555867 -0.550032 0
M  V30 15121 H 1394.44 -1.74364 -0.866324 0
M  V30 15122 H 1392.61 -1.9119 -3.38084 0
M  V30 15123 H 1394.34 -2.15545 -3.42524 0
M  V30 15124 H 1391.1 -3.98181 -2.56415 0
M  V30 15125 H 1391.52 -6.50799 -1.86522 0
M  V30 15126 H 1396.16 -3.62177 -2.18146 0
M  V30 15127 H 1393.88 -7.98019 -1.27247 0
M  V30 15128 H 1397.47 -5.61624 -1.51886 0
M  V30 15129 H 1396.35 -7.76839 -1.07195 0
M  V30 15130 N 1393.85 0.973806 -1.23914 0
M  V30 15131 C 1394.78 2.08526 -1.05068 0
M  V30 15132 C 1395.76 1.70065 0.0344761 0
M  V30 15133 O 1396.94 1.93755 -0.131432 0
M  V30 15134 C 1394.07 3.41198 -0.648165 0
M  V30 15135 C 1393.03 3.9359 -1.6814 0
M  V30 15136 C 1392.35 5.22534 -1.13414 0
M  V30 15137 C 1393.65 4.22116 -3.07597 0
M  V30 15138 H 1395.35 2.24551 -1.98034 0
M  V30 15139 H 1392.89 1.07905 -0.953546 0
M  V30 15140 H 1394.85 4.18383 -0.50334 0
M  V30 15141 H 1393.57 3.25056 0.317182 0
M  V30 15142 H 1392.23 3.18555 -1.81434 0
M  V30 15143 H 1391.88 5.02747 -0.159578 0
M  V30 15144 H 1391.58 5.58555 -1.82456 0
M  V30 15145 H 1393.1 6.02334 -1.0013 0
M  V30 15146 H 1394.52 4.90027 -2.97567 0
M  V30 15147 H 1392.91 4.69352 -3.73937 0
M  V30 15148 H 1393.98 3.29128 -3.56094 0
M  V30 15149 N 1395.33 1.05191 1.17357 0
M  V30 15150 C 1396.26 0.610878 2.20909 0
M  V30 15151 C 1397.27 -0.325369 1.59515 0
M  V30 15152 O 1398.46 -0.118104 1.78109 0
M  V30 15153 C 1395.56 -0.126086 3.38665 0
M  V30 15154 C 1394.73 0.820857 4.29629 0
M  V30 15155 C 1393.79 0.125154 5.26051 0
M  V30 15156 O 1392.82 0.759245 5.64114 0
M  V30 15157 N 1394.02 -1.13742 5.69248 0
M  V30 15158 H 1396.79 1.50158 2.5937 0
M  V30 15159 H 1394.35 0.933814 1.32256 0
M  V30 15160 H 1396.34 -0.601627 4.00203 0
M  V30 15161 H 1394.91 -0.918459 2.98803 0
M  V30 15162 H 1394.13 1.47602 3.65523 0
M  V30 15163 H 1395.42 1.46363 4.87294 0
M  V30 15164 H 1394.81 -1.67291 5.40398 0
M  V30 15165 H 1393.37 -1.55703 6.3293 0
M  V30 15166 N 1396.8 -1.33791 0.83293 0
M  V30 15167 C 1397.71 -2.33108 0.264169 0
M  V30 15168 C 1398.73 -1.6308 -0.606694 0
M  V30 15169 O 1399.91 -1.94777 -0.512225 0
M  V30 15170 C 1396.97 -3.42208 -0.556315 0
M  V30 15171 C 1396.03 -4.27966 0.338123 0
M  V30 15172 C 1395.27 -5.31856 -0.443297 0
M  V30 15173 O 1395.49 -5.45234 -1.6756 0
M  V30 15174 O 1394.42 -6.01632 0.179599 0
M  V30 15175 H 1398.25 -2.83602 1.08645 0
M  V30 15176 H 1395.83 -1.37027 0.595307 0
M  V30 15177 H 1397.72 -4.088 -1.02277 0
M  V30 15178 H 1396.39 -2.9394 -1.35575 0
M  V30 15179 H 1395.3 -3.64262 0.852293 0
M  V30 15180 H 1396.63 -4.79701 1.10217 0
M  V30 15181 N 1398.28 -0.588812 -1.46187 0
M  V30 15182 C 1399.53 -0.0765765 -2.01955 0
M  V30 15183 C 1399.85 1.29034 -1.46203 0
M  V30 15184 O 1399.12 1.84836 -0.649044 0
M  V30 15185 H 1397.7 -0.025318 -0.746571 0
M  V30 15186 H 1400.36 -0.765971 -1.79217 0
M  V30 15187 H 1399.46 -0.0121702 -3.12098 0
M  V30 15188 N 1399.76 1.54172 -0.326923 0
M  V30 15189 C 1400.69 2.27402 0.530154 0
M  V30 15190 C 1401.67 1.28325 1.11655 0
M  V30 15191 O 1402.86 1.57142 1.14105 0
M  V30 15192 C 1399.99 3.03435 1.68951 0
M  V30 15193 C 1398.94 4.09877 1.23226 0
M  V30 15194 C 1398.27 4.7377 2.47882 0
M  V30 15195 C 1399.57 5.21161 0.344698 0
M  V30 15196 H 1401.26 2.99291 -0.0806959 0
M  V30 15197 H 1398.81 1.43944 -0.0402511 0
M  V30 15198 H 1400.76 3.53396 2.29541 0
M  V30 15199 H 1399.48 2.29169 2.327 0
M  V30 15200 H 1398.14 3.60805 0.649267 0
M  V30 15201 H 1397.79 3.96116 3.10002 0
M  V30 15202 H 1397.49 5.45674 2.17977 0
M  V30 15203 H 1399.01 5.26507 3.09229 0
M  V30 15204 H 1400.43 5.66859 0.856979 0
M  V30 15205 H 1398.83 5.99941 0.138276 0
M  V30 15206 H 1399.9 4.80874 -0.623575 0
M  V30 15207 N 1401.24 0.0551678 1.57503 0
M  V30 15208 C 1402.52 -0.657808 1.84207 0
M  V30 15209 C 1402.9 -1.88798 0.944372 0
M  V30 15210 O 1402.24 -2.28499 0.00641728 0
M  V30 15211 C 1402.45 -1.0113 3.34026 0
M  V30 15212 C 1403.8 -1.39189 4.01138 0
M  V30 15213 O 1404.83 -1.10353 3.38675 0
M  V30 15214 O 1403.68 -1.93023 5.11277 0
M  V30 15215 H 1400.78 -0.325084 0.760427 0
M  V30 15216 H 1403.32 0.0848352 1.69488 0
M  V30 15217 H 1402.1 -0.13688 3.91061 0
M  V30 15218 H 1401.72 -1.81126 3.53948 0
M  V30 15219 N 1402.72 -1.56081 -0.218252 0
M  V30 15220 C 1403.65 -1.87704 -1.29779 0
M  V30 15221 C 1404.63 -0.734747 -1.45053 0
M  V30 15222 O 1405.81 -0.98344 -1.60813 0
M  V30 15223 C 1402.94 -2.08695 -2.66766 0
M  V30 15224 C 1401.98 -3.31385 -2.68489 0
M  V30 15225 S 1402.82 -4.87212 -2.22227 0
M  V30 15226 C 1403.97 -5.11243 -3.61083 0
M  V30 15227 H 1404.21 -2.78975 -1.02762 0
M  V30 15228 H 1401.74 -1.48559 -0.420653 0
M  V30 15229 H 1403.7 -2.21472 -3.4563 0
M  V30 15230 H 1402.36 -1.18215 -2.91005 0
M  V30 15231 H 1401.55 -3.43127 -3.69161 0
M  V30 15232 H 1401.15 -3.17482 -1.9769 0
M  V30 15233 H 1403.45 -5.00344 -4.56796 0
M  V30 15234 H 1404.39 -6.13115 -3.54254 0
M  V30 15235 H 1404.8 -4.38964 -3.54924 0
M  V30 15236 N 1404.2 0.485086 -1.49949 0
M  V30 15237 C 1405.13 1.60191 -1.63926 0
M  V30 15238 C 1406.14 1.5423 -0.521256 0
M  V30 15239 O 1407.33 1.59872 -0.79392 0
M  V30 15240 C 1404.43 2.99035 -1.59472 0
M  V30 15241 C 1403.6 3.30014 -2.87071 0
M  V30 15242 C 1402.66 4.48345 -2.75451 0
M  V30 15243 O 1401.69 4.49342 -3.494 0
M  V30 15244 N 1402.89 5.49192 -1.88064 0
M  V30 15245 H 1405.65 1.48622 -2.60253 0
M  V30 15246 H 1403.22 0.673258 -1.47237 0
M  V30 15247 H 1405.21 3.76142 -1.4933 0
M  V30 15248 H 1403.78 3.04445 -0.709373 0
M  V30 15249 H 1403 2.41652 -3.11445 0
M  V30 15250 H 1404.29 3.47515 -3.71632 0
M  V30 15251 H 1403.68 5.51198 -1.2727 0
M  V30 15252 H 1402.24 6.25338 -1.83835 0
M  V30 15253 N 1405.67 1.39291 0.737279 0
M  V30 15254 C 1406.61 1.32216 1.85995 0
M  V30 15255 C 1407.58 0.19623 1.61412 0
M  V30 15256 O 1408.77 0.376297 1.84706 0
M  V30 15257 C 1405.9 1.0525 3.21932 0
M  V30 15258 C 1404.94 2.20002 3.65378 0
M  V30 15259 S 1405.77 3.82265 3.75011 0
M  V30 15260 C 1406.93 3.57519 5.13742 0
M  V30 15261 H 1407.16 2.27231 1.91712 0
M  V30 15262 H 1404.7 1.25319 0.901911 0
M  V30 15263 H 1406.65 0.903753 4.00428 0
M  V30 15264 H 1405.32 0.119258 3.13874 0
M  V30 15265 H 1404.51 1.9672 4.64023 0
M  V30 15266 H 1404.11 2.31068 2.94081 0
M  V30 15267 H 1406.4 3.14643 6.00005 0
M  V30 15268 H 1407.35 4.55616 5.42051 0
M  V30 15269 H 1407.75 2.9167 4.8331 0
M  V30 15270 N 1407.15 -0.967221 1.24429 0
M  V30 15271 C 1408.4 -1.70458 1.07829 0
M  V30 15272 C 1408.71 -1.91818 -0.38278 0
M  V30 15273 O 1409.92 -2.63129 -0.668982 0
M  V30 15274 C 1408.38 -3.06817 1.88125 0
M  V30 15275 C 1407.98 -2.93298 3.38645 0
M  V30 15276 C 1409.73 -3.84422 1.80056 0
M  V30 15277 C 1407.63 -4.2497 4.11284 0
M  V30 15278 H 1406.56 -0.639217 0.399897 0
M  V30 15279 H 1409.22 -1.07776 1.48515 0
M  V30 15280 H 1407.6 -3.70331 1.40254 0
M  V30 15281 H 1408.77 -2.38793 3.94099 0
M  V30 15282 H 1407.09 -2.29159 3.47671 0
M  V30 15283 H 1409.68 -4.81925 2.31629 0
M  V30 15284 H 1410.03 -4.09194 0.765908 0
M  V30 15285 H 1410.56 -3.27636 2.2561 0
M  V30 15286 H 1407.3 -4.05391 5.1511 0
M  V30 15287 H 1406.82 -4.79288 3.60615 0
M  V30 15288 H 1408.5 -4.93586 4.18308 0
M  V30 15289 N 1408.63 -1.05812 -1.16797 0
M  V30 15290 C 1409.88 -0.767008 -1.86547 0
M  V30 15291 C 1410.19 0.708979 -1.82299 0
M  V30 15292 O 1411.4 1.11428 -2.4758 0
M  V30 15293 C 1409.85 -1.32186 -3.34746 0
M  V30 15294 C 1409.46 -2.82774 -3.4748 0
M  V30 15295 C 1411.21 -1.10808 -4.09783 0
M  V30 15296 C 1409.11 -3.31529 -4.89737 0
M  V30 15297 H 1408.04 -0.283235 -0.698781 0
M  V30 15298 H 1410.69 -1.27621 -1.31853 0
M  V30 15299 H 1409.08 -0.740453 -3.89016 0
M  V30 15300 H 1410.25 -3.46825 -3.03396 0
M  V30 15301 H 1408.56 -3.02765 -2.85871 0
M  V30 15302 H 1411.16 -1.44728 -5.14741 0
M  V30 15303 H 1411.5 -0.046167 -4.16274 0
M  V30 15304 H 1412.04 -1.65502 -3.61737 0
M  V30 15305 H 1408.78 -4.37177 -4.88422 0
M  V30 15306 H 1408.3 -2.72224 -5.34466 0
M  V30 15307 H 1409.98 -3.26572 -5.58534 0
M  V30 15308 N 1410.11 1.33347 -0.840014 0
M  V30 15309 C 1411.34 2.01659 -0.449141 0
M  V30 15310 C 1411.75 1.63353 0.954597 0
M  V30 15311 O 1411.09 0.843303 1.632 0
M  V30 15312 C 1411.15 3.56124 -0.491497 0
M  V30 15313 C 1410.81 4.17812 -1.85155 0
M  V30 15314 C 1411.81 4.37101 -2.81494 0
M  V30 15315 C 1409.5 4.54211 -2.1447 0
M  V30 15316 C 1411.49 4.91938 -4.05309 0
M  V30 15317 C 1409.18 5.08756 -3.38542 0
M  V30 15318 C 1410.18 5.27566 -4.33778 0
M  V30 15319 O 1409.86 5.8095 -5.55655 0
M  V30 15320 H 1409.6 0.652553 -0.176494 0
M  V30 15321 H 1412.15 1.71228 -1.13447 0
M  V30 15322 H 1410.38 3.85887 0.250613 0
M  V30 15323 H 1412.07 4.05728 -0.118288 0
M  V30 15324 H 1412.83 4.09328 -2.60146 0
M  V30 15325 H 1408.71 4.38864 -1.41135 0
M  V30 15326 H 1412.26 5.06536 -4.79654 0
M  V30 15327 H 1408.15 5.3596 -3.59746 0
M  V30 15328 H 1408.92 5.99363 -5.5741 0
M  V30 15329 N 1411.59 0.596556 1.45873 0
M  V30 15330 C 1413 0.259317 1.57479 0
M  V30 15331 C 1413.2 -1.23829 1.58961 0
M  V30 15332 O 1412.26 -2.02076 1.51399 0
M  V30 15333 C 1413.57 0.920755 2.86256 0
M  V30 15334 C 1415.12 0.895638 2.99912 0
M  V30 15335 C 1415.59 1.53688 4.31444 0
M  V30 15336 N 1417.08 1.50186 4.38176 0
M  V30 15337 C 1417.82 1.96727 5.38596 0
M  V30 15338 N 1417.32 2.51304 6.45615 0
M  V30 15339 N 1419.11 1.87561 5.29884 0
M  V30 15340 H 1411.26 1.56909 1.43155 0
M  V30 15341 H 1413.52 0.656664 0.683737 0
M  V30 15342 H 1413.23 1.97481 2.91023 0
M  V30 15343 H 1413.1 0.437331 3.74656 0
M  V30 15344 H 1415.49 -0.149838 2.94719 0
M  V30 15345 H 1415.57 1.41722 2.12952 0
M  V30 15346 H 1415.21 2.58163 4.37395 0
M  V30 15347 H 1415.14 0.990408 5.17203 0
M  V30 15348 H 1417.64 1.10305 3.61443 0
M  V30 15349 H 1417.95 2.84639 7.18471 0
M  V30 15350 H 1416.29 2.55337 6.46396 0
M  V30 15351 H 1419.48 1.4467 4.45183 0
M  V30 15352 H 1419.66 2.24146 6.07999 0
M  V30 15353 N 1413.06 -1.53996 0.335095 0
M  V30 15354 C 1414.3 -2.02682 -0.264447 0
M  V30 15355 C 1414.67 -1.21779 -1.48438 0
M  V30 15356 O 1415.87 -1.60322 -2.15755 0
M  V30 15357 C 1414.14 -3.52678 -0.579072 0
M  V30 15358 S 1415.7 -4.23282 -1.15663 0
M  V30 15359 H 1412.52 -0.706566 -0.0792826 0
M  V30 15360 H 1415.12 -1.89744 0.470895 0
M  V30 15361 H 1413.82 -4.09176 0.316756 0
M  V30 15362 H 1413.35 -3.69719 -1.34431 0
M  V30 15363 H 1415.37 -4.31903 -2.44284 0
M  V30 15364 N 1414.54 -0.0635198 -1.57472 0
M  V30 15365 C 1415.47 0.90431 -2.15278 0
M  V30 15366 C 1416.45 1.31609 -1.07764 0
M  V30 15367 O 1417.64 1.38861 -1.35762 0
M  V30 15368 C 1414.77 2.17483 -2.70774 0
M  V30 15369 C 1413.72 1.90272 -3.8338 0
M  V30 15370 C 1413.05 3.23885 -4.25444 0
M  V30 15371 C 1414.35 1.21454 -5.07983 0
M  V30 15372 H 1416.04 0.422786 -2.964 0
M  V30 15373 H 1413.59 0.201918 -1.42577 0
M  V30 15374 H 1415.54 2.856 -3.09856 0
M  V30 15375 H 1414.26 2.67863 -1.86861 0
M  V30 15376 H 1412.92 1.24564 -3.44789 0
M  V30 15377 H 1412.57 3.72089 -3.38465 0
M  V30 15378 H 1412.27 3.06472 -5.01347 0
M  V30 15379 H 1413.8 3.93212 -4.67137 0
M  V30 15380 H 1415.21 1.79625 -5.44433 0
M  V30 15381 H 1413.61 1.14327 -5.89109 0
M  V30 15382 H 1414.68 0.19238 -4.84518 0
M  V30 15383 N 1416.02 1.56195 0.209972 0
M  V30 15384 C 1417.24 1.84189 0.953364 0
M  V30 15385 C 1417.67 0.645288 1.76685 0
M  V30 15386 O 1417.03 -0.405962 1.76696 0
M  V30 15387 C 1417.08 3.10281 1.83733 0
M  V30 15388 O 1416.18 2.89788 2.93422 0
M  V30 15389 H 1415.52 0.606931 0.269314 0
M  V30 15390 H 1418.05 2.03416 0.219783 0
M  V30 15391 H 1418.06 3.40688 2.2449 0
M  V30 15392 H 1416.74 3.97 1.23951 0
M  V30 15393 H 1415.31 2.70643 2.56528 0
M  V30 15394 N 1417.5 -0.477127 1.50204 0
M  V30 15395 C 1418.73 -1.25307 1.64638 0
M  V30 15396 C 1419.14 -1.85942 0.327274 0
M  V30 15397 O 1418.5 -1.6895 -0.690088 0
M  V30 15398 C 1418.55 -2.36616 2.73304 0
M  V30 15399 O 1418.27 -1.78469 4.00101 0
M  V30 15400 C 1419.77 -3.27595 2.98658 0
M  V30 15401 H 1416.99 -0.379192 0.553583 0
M  V30 15402 H 1419.53 -0.5702 1.9639 0
M  V30 15403 H 1417.69 -3.00689 2.44264 0
M  V30 15404 H 1418.1 -2.51722 4.60148 0
M  V30 15405 H 1419.58 -4.01921 3.7837 0
M  V30 15406 H 1420.05 -3.86017 2.09493 0
M  V30 15407 H 1420.66 -2.69264 3.29206 0
M  V30 15408 N 1418.98 -1.3968 -0.729882 0
M  V30 15409 C 1420.22 -1.36911 -1.4866 0
M  V30 15410 C 1420.55 0.0326011 -1.94973 0
M  V30 15411 O 1419.82 0.984789 -1.69348 0
M  V30 15412 H 1418.4 -0.503848 -0.551495 0
M  V30 15413 H 1421.06 -1.74596 -0.866155 0
M  V30 15414 H 1420.15 -2.03504 -2.36628 0
M  V30 15415 N 1420.45 0.960609 -1.2494 0
M  V30 15416 C 1421.4 2.05634 -1.04801 0
M  V30 15417 C 1422.37 1.66049 0.0409611 0
M  V30 15418 O 1423.56 1.90453 -0.115053 0
M  V30 15419 C 1420.7 3.38604 -0.666444 0
M  V30 15420 C 1419.81 3.91341 -1.82964 0
M  V30 15421 C 1418.94 5.1261 -1.39299 0
M  V30 15422 C 1417.98 5.57562 -2.52569 0
M  V30 15423 N 1417.12 6.70046 -2.09722 0
M  V30 15424 H 1421.96 2.22194 -1.9858 0
M  V30 15425 H 1419.5 1.08892 -0.988981 0
M  V30 15426 H 1421.46 4.15017 -0.426205 0
M  V30 15427 H 1420.09 3.21948 0.23435 0
M  V30 15428 H 1419.14 3.11502 -2.18335 0
M  V30 15429 H 1420.45 4.20656 -2.68049 0
M  V30 15430 H 1419.6 5.96421 -1.11205 0
M  V30 15431 H 1418.34 4.84997 -0.512779 0
M  V30 15432 H 1417.35 4.72319 -2.81415 0
M  V30 15433 H 1418.57 5.87186 -3.41159 0
M  V30 15434 H 1416.52 6.44153 -1.24109 0
M  V30 15435 H 1416.44 6.98846 -2.88357 0
M  V30 15436 H 1417.7 7.57281 -1.84787 0
M  V30 15437 N 1421.93 1.0643 1.16234 0
M  V30 15438 C 1423.21 0.695256 1.82827 0
M  V30 15439 C 1423.59 -0.823242 1.94386 0
M  V30 15440 O 1422.94 -1.73406 1.48804 0
M  V30 15441 C 1423.15 1.3988 3.19741 0
M  V30 15442 C 1424.5 1.54489 3.95498 0
M  V30 15443 O 1425.52 1.35882 3.29264 0
M  V30 15444 O 1424.38 1.85027 5.14225 0
M  V30 15445 H 1421.47 0.246285 0.789476 0
M  V30 15446 H 1424.02 1.16466 1.23426 0
M  V30 15447 H 1422.79 2.43419 3.06371 0
M  V30 15448 H 1422.41 0.91957 3.8682 0
M  V30 15449 N 1423.41 -1.329 0.847073 0
M  V30 15450 C 1424.34 -2.27903 0.243522 0
M  V30 15451 C 1425.36 -1.52101 -0.58043 0
M  V30 15452 O 1426.54 -1.73818 -0.406158 0
M  V30 15453 C 1423.64 -3.32107 -0.675118 0
M  V30 15454 C 1422.82 -4.37258 0.111305 0
M  V30 15455 C 1421.88 -5.21085 -0.731933 0
M  V30 15456 O 1420.9 -5.68951 -0.168176 0
M  V30 15457 N 1422.1 -5.43175 -2.04794 0
M  V30 15458 H 1424.87 -2.80335 1.05983 0
M  V30 15459 H 1422.43 -1.4568 0.706322 0
M  V30 15460 H 1424.42 -3.85093 -1.2444 0
M  V30 15461 H 1422.99 -2.79891 -1.39212 0
M  V30 15462 H 1422.21 -3.8466 0.861991 0
M  V30 15463 H 1423.5 -5.04608 0.651756 0
M  V30 15464 H 1422.9 -5.06002 -2.5294 0
M  V30 15465 H 1421.46 -5.99186 -2.56552 0
M  V30 15466 N 1424.89 -0.604284 -1.45555 0
M  V30 15467 C 1426.14 -0.0979922 -2.01862 0
M  V30 15468 C 1426.46 1.27476 -1.47563 0
M  V30 15469 O 1425.73 1.84137 -0.668612 0
M  V30 15470 H 1424.31 -0.033235 -0.74626 0
M  V30 15471 H 1426.97 -0.784936 -1.78395 0
M  V30 15472 H 1426.07 -0.0452716 -3.12067 0
M  V30 15473 N 1426.37 1.53816 -0.343257 0
M  V30 15474 C 1427.3 2.27951 0.506005 0
M  V30 15475 C 1428.28 1.29502 1.10287 0
M  V30 15476 O 1429.46 1.58344 1.12432 0
M  V30 15477 C 1426.59 3.0521 1.65723 0
M  V30 15478 C 1425.55 4.11161 1.18871 0
M  V30 15479 C 1424.87 4.76373 2.42843 0
M  V30 15480 C 1426.17 5.21498 0.289403 0
M  V30 15481 H 1427.87 2.99189 -0.112435 0
M  V30 15482 H 1425.41 1.43893 -0.055516 0
M  V30 15483 H 1427.37 3.55811 2.2578 0
M  V30 15484 H 1426.09 2.31624 2.30256 0
M  V30 15485 H 1424.75 3.61473 0.610962 0
M  V30 15486 H 1424.4 3.99381 3.05784 0
M  V30 15487 H 1424.1 5.47955 2.12177 0
M  V30 15488 H 1425.62 5.29758 3.03627 0
M  V30 15489 H 1427.03 5.67736 0.796808 0
M  V30 15490 H 1425.43 6.00054 0.0746366 0
M  V30 15491 H 1426.5 4.80185 -0.674543 0
M  V30 15492 N 1427.84 0.0718701 1.57436 0
M  V30 15493 C 1429.09 -0.598116 1.93779 0
M  V30 15494 C 1429.42 -1.69258 0.952131 0
M  V30 15495 O 1428.7 -1.94491 -0.0186426 0
M  V30 15496 C 1428.98 -1.17499 3.40391 0
M  V30 15497 C 1428.83 -0.0871719 4.49716 0
M  V30 15498 C 1430.15 -2.08047 3.8782 0
M  V30 15499 H 1427.27 -0.215954 0.704651 0
M  V30 15500 H 1429.91 0.137854 1.89499 0
M  V30 15501 H 1428.06 -1.80221 3.44169 0
M  V30 15502 H 1429.74 0.545906 4.58058 0
M  V30 15503 H 1427.98 0.582213 4.29875 0
M  V30 15504 H 1428.65 -0.531202 5.49438 0
M  V30 15505 H 1431.13 -1.5526 3.86049 0
M  V30 15506 H 1430 -2.45345 4.91016 0
M  V30 15507 H 1430.26 -2.98879 3.25766 0
M  V30 15508 N 1429.32 -1.56304 -0.201686 0
M  V30 15509 C 1430.25 -1.90538 -1.27389 0
M  V30 15510 C 1431.27 -0.795422 -1.42045 0
M  V30 15511 O 1432.46 -1.07381 -1.42589 0
M  V30 15512 C 1429.56 -2.11638 -2.64694 0
M  V30 15513 C 1428.73 -3.42755 -2.71731 0
M  V30 15514 C 1427.79 -3.53047 -3.90185 0
M  V30 15515 O 1426.81 -4.25923 -3.77595 0
M  V30 15516 N 1428.02 -2.85649 -5.05356 0
M  V30 15517 H 1430.78 -2.83106 -0.983411 0
M  V30 15518 H 1428.34 -1.57092 -0.391638 0
M  V30 15519 H 1430.33 -2.15818 -3.42352 0
M  V30 15520 H 1428.9 -1.256 -2.86258 0
M  V30 15521 H 1428.12 -3.50501 -1.80397 0
M  V30 15522 H 1429.41 -4.29092 -2.73418 0
M  V30 15523 H 1428.81 -2.26256 -5.18483 0
M  V30 15524 H 1427.37 -2.95465 -5.80985 0
M  V30 15525 N 1430.8 0.469154 -1.50455 0
M  V30 15526 C 1431.73 1.58574 -1.64102 0
M  V30 15527 C 1432.71 1.5507 -0.489095 0
M  V30 15528 O 1433.9 1.74664 -0.708851 0
M  V30 15529 C 1431.02 2.97151 -1.62538 0
M  V30 15530 C 1430.07 3.18803 -2.83315 0
M  V30 15531 S 1430.9 2.98496 -4.4459 0
M  V30 15532 C 1432.06 4.39412 -4.45722 0
M  V30 15533 H 1432.29 1.46759 -2.58552 0
M  V30 15534 H 1429.82 0.656629 -1.39742 0
M  V30 15535 H 1431.78 3.77044 -1.62321 0
M  V30 15536 H 1430.44 3.06355 -0.693205 0
M  V30 15537 H 1429.64 4.20044 -2.7853 0
M  V30 15538 H 1429.24 2.46685 -2.81109 0
M  V30 15539 H 1431.53 5.32078 -4.19404 0
M  V30 15540 H 1432.47 4.49239 -5.47348 0
M  V30 15541 H 1432.88 4.2158 -3.75407 0
M  V30 15542 N 1432.28 1.40065 0.722464 0
M  V30 15543 C 1433.52 1.38175 1.48444 0
M  V30 15544 C 1433.86 -0.0182857 1.94191 0
M  V30 15545 O 1433.13 -0.985638 1.67677 0
M  V30 15546 C 1433.42 2.36518 2.71535 0
M  V30 15547 C 1433.27 3.85517 2.31726 0
M  V30 15548 C 1434.59 2.325 3.73673 0
M  V30 15549 H 1431.71 0.503221 0.538458 0
M  V30 15550 H 1434.35 1.7115 0.825087 0
M  V30 15551 H 1432.5 2.08529 3.27793 0
M  V30 15552 H 1434.17 4.24306 1.81003 0
M  V30 15553 H 1432.41 4.01684 1.63807 0
M  V30 15554 H 1433.08 4.49834 3.19928 0
M  V30 15555 H 1435.56 2.57277 3.27029 0
M  V30 15556 H 1434.44 3.03369 4.57447 0
M  V30 15557 H 1434.7 1.33427 4.21485 0
M  V30 15558 N 1433.76 -0.95397 1.25448 0
M  V30 15559 C 1435.17 -1.51337 1.09335 0
M  V30 15560 C 1435.52 -1.93393 -0.330698 0
M  V30 15561 O 1434.64 -1.78681 -1.22074 0
M  V30 15562 C 1435.24 -2.75024 1.97857 0
M  V30 15563 C 1433.8 -3.27274 1.85927 0
M  V30 15564 C 1432.95 -2.00108 1.91969 0
M  V30 15565 H 1435.9 -0.770795 1.38724 0
M  V30 15566 H 1435.92 -3.48867 1.51894 0
M  V30 15567 H 1435.43 -2.44383 3.01494 0
M  V30 15568 H 1433.53 -3.62734 0.851767 0
M  V30 15569 H 1433.64 -3.95245 2.70773 0
M  V30 15570 H 1432.01 -2.15438 1.35862 0
M  V30 15571 H 1432.79 -1.71816 2.97211 0
M  V30 15572 N 1435.24 -1.07045 -1.15668 0
M  V30 15573 C 1436.51 -0.704942 -1.82455 0
M  V30 15574 C 1436.89 0.812921 -1.9482 0
M  V30 15575 O 1436.24 1.72615 -1.49721 0
M  V30 15576 C 1436.45 -1.41574 -3.18995 0
M  V30 15577 C 1437.8 -1.56584 -3.94673 0
M  V30 15578 O 1438.82 -1.37626 -3.28538 0
M  V30 15579 O 1437.68 -1.87751 -5.13237 0
M  V30 15580 H 1434.78 -0.250469 -0.788159 0
M  V30 15581 H 1437.32 -1.17118 -1.22806 0
M  V30 15582 H 1436.09 -2.4504 -3.05075 0
M  V30 15583 H 1435.72 -0.940071 -3.86327 0
M  V30 15584 N 1436.71 1.32449 -0.85411 0
M  V30 15585 C 1437.68 2.27183 -0.303377 0
M  V30 15586 C 1438.68 1.51582 0.536622 0
M  V30 15587 O 1439.87 1.70684 0.348211 0
M  V30 15588 C 1437 3.36086 0.570852 0
M  V30 15589 H 1438.19 2.77408 -1.1395 0
M  V30 15590 H 1435.74 1.43111 -0.628402 0
M  V30 15591 H 1436.48 2.91128 1.42881 0
M  V30 15592 H 1436.26 3.92088 -0.030399 0
M  V30 15593 H 1437.75 4.06675 0.948972 0
M  V30 15594 N 1438.19 0.611994 1.45232 0
M  V30 15595 C 1439.44 0.109073 2.02506 0
M  V30 15596 C 1439.77 -1.25876 1.47881 0
M  V30 15597 O 1439.05 -1.83131 0.65524 0
M  V30 15598 C 1439.33 0.0749288 3.60022 0
M  V30 15599 C 1439.18 1.47374 4.24972 0
M  V30 15600 C 1440.5 -0.610602 4.35844 0
M  V30 15601 H 1437.62 0.0411101 0.735853 0
M  V30 15602 H 1440.26 0.78481 1.73034 0
M  V30 15603 H 1438.41 -0.500511 3.85262 0
M  V30 15604 H 1440.08 2.0966 4.10902 0
M  V30 15605 H 1438.33 2.03319 3.83202 0
M  V30 15606 H 1439 1.40206 5.33897 0
M  V30 15607 H 1441.47 -0.121445 4.15923 0
M  V30 15608 H 1440.35 -0.603614 5.45571 0
M  V30 15609 H 1440.61 -1.6775 4.09038 0
M  V30 15610 N 1439.67 -1.53632 0.351409 0
M  V30 15611 C 1440.9 -2.05458 -0.243852 0
M  V30 15612 C 1441.31 -1.22588 -1.43589 0
M  V30 15613 O 1440.67 -0.263088 -1.80594 0
M  V30 15614 C 1440.72 -3.55586 -0.651226 0
M  V30 15615 O 1440.44 -4.35313 0.493415 0
M  V30 15616 C 1441.94 -4.23614 -1.30637 0
M  V30 15617 H 1439.16 -0.669443 -0.0456828 0
M  V30 15618 H 1441.71 -1.98149 0.505675 0
M  V30 15619 H 1439.86 -3.63091 -1.35068 0
M  V30 15620 H 1440.28 -5.24234 0.167107 0
M  V30 15621 H 1441.75 -5.30022 -1.5421 0
M  V30 15622 H 1442.23 -3.76449 -2.26236 0
M  V30 15623 H 1442.83 -4.20323 -0.648738 0
M  V30 15624 N 1441.15 -0.0802183 -1.57396 0
M  V30 15625 C 1442.08 0.881426 -2.16225 0
M  V30 15626 C 1443.06 1.30459 -1.09154 0
M  V30 15627 O 1444.24 1.37413 -1.37227 0
M  V30 15628 C 1441.37 2.14599 -2.73065 0
M  V30 15629 C 1440.33 1.86195 -3.85377 0
M  V30 15630 C 1439.65 3.19354 -4.28856 0
M  V30 15631 C 1440.95 1.16059 -5.09242 0
M  V30 15632 H 1442.65 0.391325 -2.96832 0
M  V30 15633 H 1440.19 0.186785 -1.42783 0
M  V30 15634 H 1442.15 2.82297 -3.12868 0
M  V30 15635 H 1440.87 2.65866 -1.89691 0
M  V30 15636 H 1439.53 1.209 -3.46091 0
M  V30 15637 H 1439.18 3.68479 -3.42392 0
M  V30 15638 H 1438.88 3.01137 -5.04569 0
M  V30 15639 H 1440.4 3.88235 -4.71281 0
M  V30 15640 H 1441.82 1.7384 -5.46308 0
M  V30 15641 H 1440.21 1.08072 -5.90288 0
M  V30 15642 H 1441.28 0.14098 -4.84695 0
M  V30 15643 N 1442.63 1.56409 0.193394 0
M  V30 15644 C 1443.59 1.93822 1.22334 0
M  V30 15645 C 1444.59 0.819513 1.3835 0
M  V30 15646 O 1445.78 1.0869 1.36132 0
M  V30 15647 C 1442.91 2.21375 2.59241 0
M  V30 15648 H 1444.1 2.85967 0.903502 0
M  V30 15649 H 1441.66 1.50125 0.43498 0
M  V30 15650 H 1442.39 1.31874 2.96277 0
M  V30 15651 H 1442.18 3.02899 2.48988 0
M  V30 15652 H 1443.67 2.51319 3.33509 0
M  V30 15653 N 1444.1 -0.461169 1.50702 0
M  V30 15654 C 1445.05 -1.5579 1.70288 0
M  V30 15655 C 1446.02 -1.5693 0.544251 0
M  V30 15656 O 1447.21 -1.74308 0.77597 0
M  V30 15657 C 1444.35 -2.93694 1.81212 0
M  V30 15658 C 1443.46 -3.02267 3.0864 0
M  V30 15659 C 1442.59 -4.31147 3.103 0
M  V30 15660 C 1441.63 -4.33498 4.32141 0
M  V30 15661 N 1440.77 -5.53864 4.31484 0
M  V30 15662 H 1445.61 -1.38393 2.63915 0
M  V30 15663 H 1443.15 -0.6727 1.30817 0
M  V30 15664 H 1445.1 -3.73679 1.85526 0
M  V30 15665 H 1443.73 -3.09703 0.91015 0
M  V30 15666 H 1442.79 -2.15093 3.1375 0
M  V30 15667 H 1444.1 -2.99864 3.98601 0
M  V30 15668 H 1443.25 -5.19487 3.13398 0
M  V30 15669 H 1441.99 -4.36172 2.18186 0
M  V30 15670 H 1441 -3.43554 4.29245 0
M  V30 15671 H 1442.22 -4.30156 5.25493 0
M  V30 15672 H 1440.17 -5.59657 3.42229 0
M  V30 15673 H 1440.08 -5.53244 5.15225 0
M  V30 15674 H 1441.35 -6.44302 4.38742 0
M  V30 15675 N 1445.58 -1.40446 -0.715026 0
M  V30 15676 C 1446.83 -1.38059 -1.47046 0
M  V30 15677 C 1447.14 0.0139125 -1.95595 0
M  V30 15678 O 1448.35 0.160398 -2.71026 0
M  V30 15679 C 1446.81 -2.42646 -2.65802 0
M  V30 15680 C 1446.41 -3.8791 -2.2412 0
M  V30 15681 C 1448.16 -2.49367 -3.43535 0
M  V30 15682 C 1446.06 -4.84092 -3.39719 0
M  V30 15683 H 1444.99 -0.513341 -0.552265 0
M  V30 15684 H 1447.65 -1.66185 -0.778126 0
M  V30 15685 H 1446.03 -2.07621 -3.37208 0
M  V30 15686 H 1447.2 -4.32082 -1.6013 0
M  V30 15687 H 1445.52 -3.8467 -1.5943 0
M  V30 15688 H 1448.11 -3.18414 -4.29554 0
M  V30 15689 H 1448.46 -1.52436 -3.87388 0
M  V30 15690 H 1448.99 -2.83386 -2.79173 0
M  V30 15691 H 1445.73 -5.82358 -3.00898 0
M  V30 15692 H 1445.25 -4.44584 -4.02623 0
M  V30 15693 H 1446.93 -5.03939 -4.05776 0
M  V30 15694 N 1447.06 0.947303 -1.25952 0
M  V30 15695 C 1448.01 2.03076 -1.03653 0
M  V30 15696 C 1448.99 1.60874 0.0290512 0
M  V30 15697 O 1450.19 1.76008 -0.187169 0
M  V30 15698 C 1447.31 3.36797 -0.66501 0
M  V30 15699 C 1446.4 3.85502 -1.76773 0
M  V30 15700 N 1446.79 4.06922 -3.00413 0
M  V30 15701 C 1445.09 4.14359 -1.64993 0
M  V30 15702 C 1445.79 4.4717 -3.7204 0
M  V30 15703 N 1444.77 4.53523 -2.99697 0
M  V30 15704 H 1448.57 2.17641 -1.97509 0
M  V30 15705 H 1446.08 1.13268 -1.16379 0
M  V30 15706 H 1448.08 4.14053 -0.486427 0
M  V30 15707 H 1446.74 3.23607 0.266138 0
M  V30 15708 H 1447.75 3.93786 -3.36383 0
M  V30 15709 H 1444.43 4.09991 -0.788254 0
M  V30 15710 H 1445.82 4.71985 -4.78205 0
M  V30 15711 N 1448.54 1.07657 1.15099 0
M  V30 15712 C 1449.95 0.802696 1.37945 0
M  V30 15713 C 1450.15 -0.591622 1.92619 0
M  V30 15714 O 1449.21 -1.34979 2.13394 0
M  V30 15715 C 1450.52 1.87907 2.34759 0
M  V30 15716 C 1452.07 1.90418 2.48415 0
M  V30 15717 C 1452.55 2.97148 3.48521 0
M  V30 15718 N 1454.04 2.96271 3.56059 0
M  V30 15719 C 1454.77 3.75498 4.33346 0
M  V30 15720 N 1454.27 4.64583 5.1394 0
M  V30 15721 N 1456.06 3.63831 4.28466 0
M  V30 15722 H 1448.21 1.97578 0.779537 0
M  V30 15723 H 1450.48 0.856978 0.405331 0
M  V30 15724 H 1450.18 2.8811 2.01707 0
M  V30 15725 H 1450.06 1.74183 3.34575 0
M  V30 15726 H 1452.44 0.908655 2.80762 0
M  V30 15727 H 1452.52 2.0822 1.48586 0
M  V30 15728 H 1452.17 3.96903 3.16908 0
M  V30 15729 H 1452.1 2.76593 4.48112 0
M  V30 15730 H 1454.59 2.31697 2.98538 0
M  V30 15731 H 1454.9 5.2166 5.70167 0
M  V30 15732 H 1453.25 4.6863 5.13236 0
M  V30 15733 H 1456.44 2.93609 3.6457 0
M  V30 15734 H 1456.61 4.25818 4.8845 0
M  V30 15735 N 1450.02 -1.31994 0.861122 0
M  V30 15736 C 1450.97 -2.26248 0.282123 0
M  V30 15737 C 1451.95 -1.50246 -0.57575 0
M  V30 15738 O 1453.14 -1.71845 -0.424075 0
M  V30 15739 C 1450.27 -3.39293 -0.523011 0
M  V30 15740 C 1449.36 -4.22673 0.34761 0
M  V30 15741 N 1449.75 -4.8496 1.43692 0
M  V30 15742 C 1448.05 -4.45785 0.138488 0
M  V30 15743 C 1448.75 -5.47215 1.97307 0
M  V30 15744 N 1447.72 -5.28525 1.27132 0
M  V30 15745 H 1451.53 -2.71936 1.11481 0
M  V30 15746 H 1449.04 -1.46158 0.707928 0
M  V30 15747 H 1451.04 -4.05832 -0.954269 0
M  V30 15748 H 1449.7 -2.95149 -1.35341 0
M  V30 15749 H 1450.71 -4.84873 1.81985 0
M  V30 15750 H 1447.38 -4.12303 -0.656677 0
M  V30 15751 H 1448.77 -6.06737 2.88652 0
M  V30 15752 N 1451.49 -0.619688 -1.44906 0
M  V30 15753 C 1452.72 -0.124598 -2.07025 0
M  V30 15754 C 1453.14 1.18698 -1.45919 0
M  V30 15755 O 1452.5 1.72552 -0.556366 0
M  V30 15756 C 1452.55 -0.0112238 -3.60598 0
M  V30 15757 O 1451.65 1.03582 -3.9918 0
M  V30 15758 H 1451 -0.0795631 -0.659216 0
M  V30 15759 H 1453.53 -0.853127 -1.85965 0
M  V30 15760 H 1453.54 0.183079 -4.07589 0
M  V30 15761 H 1452.21 -0.968849 -4.04458 0
M  V30 15762 H 1450.79 0.817008 -3.6384 0
M  V30 15763 N 1452.97 1.53444 -0.359552 0
M  V30 15764 C 1454.22 2.00769 0.231564 0
M  V30 15765 C 1454.54 1.2487 1.49775 0
M  V30 15766 O 1453.81 0.360284 1.92558 0
M  V30 15767 H 1452.39 0.741732 0.0885581 0
M  V30 15768 H 1455.05 1.88785 -0.484397 0
M  V30 15769 H 1454.15 3.0865 0.462789 0
M  V30 15770 N 1454.45 0.0885642 1.57351 0
M  V30 15771 C 1455.38 -0.869946 2.16689 0
M  V30 15772 C 1456.36 -1.29878 1.09844 0
M  V30 15773 O 1457.55 -1.36684 1.37954 0
M  V30 15774 C 1454.68 -2.13148 2.74199 0
M  V30 15775 C 1453.63 -1.84149 3.86359 0
M  V30 15776 C 1452.96 -3.17075 4.30543 0
M  V30 15777 C 1454.26 -1.13357 5.09851 0
M  V30 15778 H 1455.95 -0.375578 2.97035 0
M  V30 15779 H 1453.5 -0.17921 1.42881 0
M  V30 15780 H 1455.45 -2.80634 3.14361 0
M  V30 15781 H 1454.17 -2.64856 1.91098 0
M  V30 15782 H 1452.83 -1.19063 3.46727 0
M  V30 15783 H 1452.48 -3.66658 3.44342 0
M  V30 15784 H 1452.18 -2.98457 5.06159 0
M  V30 15785 H 1453.7 -3.85731 4.73333 0
M  V30 15786 H 1455.12 -1.70941 5.47222 0
M  V30 15787 H 1453.52 -1.0494 5.90853 0
M  V30 15788 H 1454.59 -0.115273 4.84763 0
M  V30 15789 N 1455.93 -1.56509 -0.185096 0
M  V30 15790 C 1457.18 -1.804 -0.902158 0
M  V30 15791 C 1457.49 -0.663496 -1.84003 0
M  V30 15792 O 1458.7 -0.786963 -2.59844 0
M  V30 15793 C 1457.15 -3.19608 -1.65466 0
M  V30 15794 C 1456.76 -4.41487 -0.761109 0
M  V30 15795 C 1458.5 -3.52801 -2.36076 0
M  V30 15796 C 1456.41 -5.71717 -1.51305 0
M  V30 15797 H 1455.34 -0.67268 -0.340614 0
M  V30 15798 H 1457.99 -1.82842 -0.155273 0
M  V30 15799 H 1456.37 -3.11443 -2.44579 0
M  V30 15800 H 1457.55 -4.60799 -0.00791878 0
M  V30 15801 H 1455.86 -4.16072 -0.165344 0
M  V30 15802 H 1458.46 -4.47339 -2.92902 0
M  V30 15803 H 1458.8 -2.77021 -3.10749 0
M  V30 15804 H 1459.34 -3.62457 -1.63919 0
M  V30 15805 H 1456.08 -6.5049 -0.808907 0
M  V30 15806 H 1455.6 -5.56406 -2.23992 0
M  V30 15807 H 1457.27 -6.13188 -2.0642 0
M  V30 15808 N 1457.41 0.45317 -1.50944 0
M  V30 15809 C 1458.65 1.20151 -1.62506 0
M  V30 15810 C 1458.98 1.92085 -0.335927 0
M  V30 15811 O 1458.25 1.84889 0.64751 0
M  V30 15812 H 1456.83 0.446502 -0.59887 0
M  V30 15813 H 1459.49 0.521103 -1.87804 0
M  V30 15814 H 1458.58 1.93972 -2.44502 0
M  V30 15815 N 1458.88 1.40823 0.707568 0
M  V30 15816 C 1460.3 1.35249 1.28704 0
M  V30 15817 C 1460.65 0.0298026 1.96177 0
M  V30 15818 O 1459.77 -0.872126 1.98048 0
M  V30 15819 C 1460.37 2.44965 2.34046 0
M  V30 15820 C 1458.93 2.42826 2.87598 0
M  V30 15821 C 1458.07 2.25429 1.61483 0
M  V30 15822 H 1461.02 1.50513 0.503141 0
M  V30 15823 H 1461.04 2.13334 3.1507 0
M  V30 15824 H 1460.56 3.41219 1.84908 0
M  V30 15825 H 1458.66 1.50294 3.40944 0
M  V30 15826 H 1458.77 3.38704 3.38845 0
M  V30 15827 H 1457.13 1.73089 1.86848 0
M  V30 15828 H 1457.92 3.23693 1.14359 0
M  V30 15829 N 1460.36 -0.94061 1.26453 0
M  V30 15830 C 1461.29 -2.05667 1.10559 0
M  V30 15831 C 1462.27 -1.70097 0.0106258 0
M  V30 15832 O 1463.46 -1.93338 0.182756 0
M  V30 15833 C 1460.59 -3.3936 0.7384 0
M  V30 15834 C 1459.54 -3.88993 1.78517 0
M  V30 15835 C 1458.87 -5.19343 1.27228 0
M  V30 15836 C 1460.17 -4.13812 3.1868 0
M  V30 15837 H 1461.86 -2.19221 2.03918 0
M  V30 15838 H 1459.41 -1.05339 0.98182 0
M  V30 15839 H 1461.36 -4.16902 0.61409 0
M  V30 15840 H 1460.09 -3.25783 -0.230887 0
M  V30 15841 H 1458.74 -3.13633 1.89816 0
M  V30 15842 H 1458.39 -5.02147 0.292816 0
M  V30 15843 H 1458.09 -5.53521 1.97201 0
M  V30 15844 H 1459.62 -5.99468 1.16065 0
M  V30 15845 H 1461.03 -4.81966 3.10455 0
M  V30 15846 H 1459.43 -4.59273 3.86249 0
M  V30 15847 H 1460.5 -3.19571 3.64695 0
M  V30 15848 N 1461.84 -1.08266 -1.14527 0
M  V30 15849 C 1462.79 -0.711332 -2.19565 0
M  V30 15850 C 1463.76 0.301774 -1.63336 0
M  V30 15851 O 1464.94 0.186109 -1.8989 0
M  V30 15852 C 1462.08 -0.125255 -3.44873 0
M  V30 15853 C 1461.2 -1.19096 -4.15259 0
M  V30 15854 C 1460.33 -0.568901 -5.28145 0
M  V30 15855 C 1459.37 -1.61675 -5.90362 0
M  V30 15856 N 1458.51 -1.01659 -6.94701 0
M  V30 15857 H 1463.35 -1.61137 -2.50677 0
M  V30 15858 H 1460.88 -0.805286 -1.231 0
M  V30 15859 H 1462.84 0.232247 -4.16553 0
M  V30 15860 H 1461.47 0.738101 -3.14248 0
M  V30 15861 H 1460.52 -1.66591 -3.41982 0
M  V30 15862 H 1461.84 -1.98508 -4.57598 0
M  V30 15863 H 1460.99 -0.159563 -6.0649 0
M  V30 15864 H 1459.73 0.256884 -4.87023 0
M  V30 15865 H 1458.73 -2.03576 -5.10722 0
M  V30 15866 H 1459.96 -2.44498 -6.33559 0
M  V30 15867 H 1457.9 -0.211872 -6.55658 0
M  V30 15868 H 1457.82 -1.74781 -7.35518 0
M  V30 15869 H 1459.09 -0.63306 -7.76925 0
M  V30 15870 N 1463.32 1.31536 -0.86811 0
M  V30 15871 C 1464.23 2.32326 -0.32588 0
M  V30 15872 C 1465.25 1.64632 0.563243 0
M  V30 15873 O 1466.42 1.96067 0.460403 0
M  V30 15874 C 1463.49 3.43562 0.46539 0
M  V30 15875 C 1462.55 4.26919 -0.451472 0
M  V30 15876 C 1461.78 5.32844 0.302129 0
M  V30 15877 O 1462 5.49485 1.53045 0
M  V30 15878 O 1460.94 6.00944 -0.339048 0
M  V30 15879 H 1464.76 2.80622 -1.16126 0
M  V30 15880 H 1462.35 1.35401 -0.631428 0
M  V30 15881 H 1464.23 4.11368 0.914028 0
M  V30 15882 H 1462.91 2.97432 1.27734 0
M  V30 15883 H 1461.81 3.61874 -0.948571 0
M  V30 15884 H 1463.15 4.7661 -1.22897 0
M  V30 15885 N 1464.8 0.627364 1.44575 0
M  V30 15886 C 1465.75 -0.0920488 2.32418 0
M  V30 15887 C 1466.74 -0.839633 1.47128 0
M  V30 15888 O 1467.95 -0.752958 1.63495 0
M  V30 15889 H 1464.32 -0.0485336 0.750432 0
M  V30 15890 H 1466.29 0.666959 2.90851 0
M  V30 15891 C 1465.04 -1.06262 3.31064 0
M  V30 15892 H 1464.36 -0.4968 3.96701 0
M  V30 15893 H 1465.8 -1.53556 3.95217 0
M  V30 15894 C 1464.26 -2.14601 2.59707 0
M  V30 15895 O 1464.79 -3.2263 2.39317 0
M  V30 15896 N 1463 -1.90431 2.19509 0
M  V30 15897 H 1462.55 -1.02584 2.36293 0
M  V30 15898 H 1462.5 -2.6312 1.72091 0
M  V30 15899 N 1466.28 -1.53251 0.367684 0
M  V30 15900 C 1467.5 -2.05705 -0.222047 0
M  V30 15901 C 1467.92 -1.24104 -1.4228 0
M  V30 15902 O 1467.28 -0.282228 -1.80305 0
M  V30 15903 C 1467.33 -3.56257 -0.613475 0
M  V30 15904 O 1467.05 -4.34765 0.539558 0
M  V30 15905 C 1468.55 -4.24976 -1.26137 0
M  V30 15906 H 1465.77 -0.66989 -0.0385799 0
M  V30 15907 H 1468.31 -1.97602 0.526663 0
M  V30 15908 H 1466.47 -3.64503 -1.3121 0
M  V30 15909 H 1466.88 -5.24027 0.222699 0
M  V30 15910 H 1468.36 -5.31628 -1.4858 0
M  V30 15911 H 1468.83 -3.78828 -2.2223 0
M  V30 15912 H 1469.44 -4.20987 -0.604121 0
M  V30 15913 N 1467.75 -0.0969077 -1.57302 0
M  V30 15914 C 1469 0.566072 -1.93594 0
M  V30 15915 C 1469.32 1.69226 -0.980922 0
M  V30 15916 O 1470.52 2.41651 -1.23763 0
M  V30 15917 C 1468.98 1.05832 -3.43988 0
M  V30 15918 C 1468.59 -0.038207 -4.47984 0
M  V30 15919 C 1470.33 1.69393 -3.89238 0
M  V30 15920 C 1468.24 0.4695 -5.89533 0
M  V30 15921 H 1467.17 0.215226 -0.72263 0
M  V30 15922 H 1469.82 -0.173202 -1.82681 0
M  V30 15923 H 1468.2 1.85134 -3.50059 0
M  V30 15924 H 1469.37 -0.813761 -4.53558 0
M  V30 15925 H 1467.69 -0.579113 -4.12353 0
M  V30 15926 H 1470.29 2.08454 -4.92393 0
M  V30 15927 H 1470.63 2.56381 -3.27986 0
M  V30 15928 H 1471.16 0.966709 -3.85875 0
M  V30 15929 H 1467.9 -0.363802 -6.5449 0
M  V30 15930 H 1467.42 1.21202 -5.87427 0
M  V30 15931 H 1469.1 0.937885 -6.40166 0
M  V30 15932 N 1469.23 1.56605 0.176793 0
M  V30 15933 C 1470.18 1.95985 1.21896 0
M  V30 15934 C 1471.15 0.822983 1.44278 0
M  V30 15935 O 1472.33 1.08266 1.57109 0
M  V30 15936 C 1469.47 2.32029 2.55454 0
M  V30 15937 C 1468.59 3.58867 2.40497 0
M  V30 15938 C 1467.72 3.84148 3.66884 0
M  V30 15939 C 1466.76 5.04352 3.46837 0
M  V30 15940 N 1465.9 5.25794 4.6528 0
M  V30 15941 H 1470.74 2.84829 0.876137 0
M  V30 15942 H 1468.27 1.4094 0.421221 0
M  V30 15943 H 1470.23 2.50947 3.33289 0
M  V30 15944 H 1468.86 1.46301 2.87743 0
M  V30 15945 H 1467.91 3.47893 1.53866 0
M  V30 15946 H 1469.23 4.46859 2.21627 0
M  V30 15947 H 1468.38 4.03404 4.53155 0
M  V30 15948 H 1467.12 2.9452 3.88727 0
M  V30 15949 H 1466.12 4.84999 2.58952 0
M  V30 15950 H 1467.35 5.95505 3.26421 0
M  V30 15951 H 1465.3 4.39117 4.87352 0
M  V30 15952 H 1465.21 6.07999 4.49303 0
M  V30 15953 H 1466.48 5.49524 5.5285 0
M  V30 15954 N 1470.71 -0.445159 1.51182 0
M  V30 15955 C 1471.66 -1.53975 1.71931 0
M  V30 15956 C 1472.63 -1.56344 0.560865 0
M  V30 15957 O 1473.81 -1.73475 0.794414 0
M  V30 15958 C 1470.95 -2.91756 1.84316 0
M  V30 15959 C 1470.06 -2.98976 3.11829 0
M  V30 15960 C 1469.2 -4.27831 3.14855 0
M  V30 15961 C 1468.24 -4.2889 4.36715 0
M  V30 15962 N 1467.38 -5.49257 4.37334 0
M  V30 15963 H 1472.22 -1.35586 2.65368 0
M  V30 15964 H 1469.75 -0.658787 1.31523 0
M  V30 15965 H 1471.71 -3.7169 1.89479 0
M  V30 15966 H 1470.34 -3.08721 0.942947 0
M  V30 15967 H 1469.39 -2.11753 3.16014 0
M  V30 15968 H 1470.7 -2.95619 4.01759 0
M  V30 15969 H 1469.86 -5.16134 3.1889 0
M  V30 15970 H 1468.6 -4.33833 2.228 0
M  V30 15971 H 1467.6 -3.38982 4.32864 0
M  V30 15972 H 1468.83 -4.24558 5.30026 0
M  V30 15973 H 1466.77 -5.55995 3.48145 0
M  V30 15974 H 1466.69 -5.47748 5.21064 0
M  V30 15975 H 1467.96 -6.39613 4.45551 0
M  V30 15976 N 1472.19 -1.41197 -0.700089 0
M  V30 15977 C 1473.43 -1.4152 -1.46095 0
M  V30 15978 C 1473.79 -0.0221135 -1.92387 0
M  V30 15979 O 1473.08 0.951201 -1.66321 0
M  V30 15980 C 1473.28 -2.35259 -2.6905 0
M  V30 15981 C 1473.1 -3.83544 -2.34785 0
M  V30 15982 C 1471.87 -4.52258 -2.25369 0
M  V30 15983 C 1474.07 -4.74637 -1.9805 0
M  V30 15984 N 1472.05 -5.85695 -1.83942 0
M  V30 15985 C 1473.43 -5.96989 -1.67346 0
M  V30 15986 C 1475.48 -4.62326 -1.84821 0
M  V30 15987 C 1474.18 -7.08401 -1.24742 0
M  V30 15988 C 1476.21 -5.73696 -1.43621 0
M  V30 15989 C 1475.57 -6.95143 -1.13825 0
M  V30 15990 H 1471.67 -0.573085 -0.53207 0
M  V30 15991 H 1474.25 -1.77032 -0.810413 0
M  V30 15992 H 1472.43 -2.01849 -3.3183 0
M  V30 15993 H 1474.16 -2.26333 -3.35493 0
M  V30 15994 H 1470.91 -4.06137 -2.43618 0
M  V30 15995 H 1471.34 -6.56403 -1.65722 0
M  V30 15996 H 1475.98 -3.68934 -2.06513 0
M  V30 15997 H 1473.7 -8.01663 -1.01794 0
M  V30 15998 H 1477.28 -5.66172 -1.33941 0
M  V30 15999 H 1476.16 -7.79856 -0.824257 0
M  V30 16000 N 1473.67 0.933891 -1.2695 0
M  V30 16001 C 1474.91 1.68091 -1.12924 0
M  V30 16002 C 1475.24 1.91747 0.326088 0
M  V30 16003 O 1474.5 1.50126 1.25541 0
M  V30 16004 C 1474.79 3.05706 -1.85145 0
M  V30 16005 C 1474.46 3.01781 -3.35021 0
M  V30 16006 C 1473.12 3.00417 -3.75903 0
M  V30 16007 C 1475.47 2.93537 -4.3068 0
M  V30 16008 C 1472.8 2.88585 -5.10818 0
M  V30 16009 C 1475.15 2.83246 -5.65645 0
M  V30 16010 C 1473.82 2.80229 -6.05828 0
M  V30 16011 H 1473.09 0.615087 -0.413217 0
M  V30 16012 H 1475.74 1.08957 -1.57482 0
M  V30 16013 H 1474.04 3.68508 -1.33077 0
M  V30 16014 H 1475.74 3.62369 -1.71726 0
M  V30 16015 H 1472.33 3.03626 -3.02505 0
M  V30 16016 H 1476.51 2.93693 -4.00073 0
M  V30 16017 H 1471.77 2.84632 -5.41105 0
M  V30 16018 H 1475.94 2.75832 -6.39445 0
M  V30 16019 H 1473.57 2.70818 -7.10325 0
M  V30 16020 N 1475.14 1.08871 1.13951 0
M  V30 16021 C 1476.37 0.843055 1.89492 0
M  V30 16022 C 1476.79 -0.599539 1.78289 0
M  V30 16023 O 1476.15 -1.42062 1.12642 0
M  V30 16024 C 1476.2 1.27572 3.3728 0
M  V30 16025 O 1475.3 0.430611 4.10146 0
M  V30 16026 H 1474.64 0.3058 0.589391 0
M  V30 16027 H 1477.17 1.45137 1.44209 0
M  V30 16028 H 1477.18 1.25864 3.88101 0
M  V30 16029 H 1475.86 2.32635 3.44751 0
M  V30 16030 H 1474.44 0.511516 3.69375 0
M  V30 16031 N 1476.62 -1.31073 0.875073 0
M  V30 16032 C 1477.55 -2.27335 0.291809 0
M  V30 16033 C 1478.57 -1.53298 -0.548036 0
M  V30 16034 O 1479.76 -1.7464 -0.369198 0
M  V30 16035 C 1476.86 -3.33465 -0.604521 0
M  V30 16036 C 1476.03 -4.36924 0.204029 0
M  V30 16037 C 1475.09 -5.2252 -0.621238 0
M  V30 16038 O 1474.11 -5.6918 -0.0474551 0
M  V30 16039 N 1475.32 -5.47397 -1.93227 0
M  V30 16040 H 1478.08 -2.78024 1.11906 0
M  V30 16041 H 1475.64 -1.44149 0.737064 0
M  V30 16042 H 1477.63 -3.87646 -1.16243 0
M  V30 16043 H 1476.2 -2.8278 -1.33244 0
M  V30 16044 H 1475.42 -3.82745 0.943389 0
M  V30 16045 H 1476.71 -5.03112 0.758644 0
M  V30 16046 H 1476.11 -5.11253 -2.4215 0
M  V30 16047 H 1474.67 -6.04493 -2.43785 0
M  V30 16048 N 1478.1 -0.635022 -1.4424 0
M  V30 16049 C 1479.05 0.0895375 -2.27824 0
M  V30 16050 C 1480.03 0.812405 -1.38884 0
M  V30 16051 O 1481.23 0.69787 -1.62662 0
M  V30 16052 C 1478.36 1.06778 -3.26272 0
M  V30 16053 C 1477.44 0.344333 -4.227 0
M  V30 16054 N 1477.83 -0.629195 -5.01871 0
M  V30 16055 C 1476.13 0.588254 -4.42104 0
M  V30 16056 C 1476.83 -1.05697 -5.72017 0
M  V30 16057 N 1475.81 -0.394953 -5.42163 0
M  V30 16058 H 1479.61 -0.65777 -2.86445 0
M  V30 16059 H 1477.12 -0.460836 -1.55724 0
M  V30 16060 H 1479.12 1.6015 -3.84913 0
M  V30 16061 H 1477.78 1.81535 -2.69212 0
M  V30 16062 H 1478.79 -1.00717 -5.08012 0
M  V30 16063 H 1475.47 1.31839 -3.96137 0
M  V30 16064 H 1476.86 -1.86148 -6.45599 0
M  V30 16065 N 1479.58 1.53054 -0.375806 0
M  V30 16066 C 1480.53 2.27576 0.480838 0
M  V30 16067 C 1481.52 1.30948 1.07466 0
M  V30 16068 O 1482.73 1.48538 1.01669 0
M  V30 16069 H 1479.1 0.731641 0.173799 0
M  V30 16070 H 1481.07 2.97919 -0.169327 0
M  V30 16071 C 1479.82 3.08533 1.60321 0
M  V30 16072 H 1479.14 3.82735 1.15558 0
M  V30 16073 H 1480.58 3.63837 2.17712 0
M  V30 16074 C 1479.04 2.20004 2.55147 0
M  V30 16075 O 1479.57 1.81771 3.58221 0
M  V30 16076 N 1477.78 1.84433 2.24573 0
M  V30 16077 H 1477.33 2.15723 1.40788 0
M  V30 16078 H 1477.28 1.25488 2.88271 0
M  V30 16079 N 1481.06 0.105248 1.57248 0
M  V30 16080 C 1482.01 -0.860855 2.11124 0
M  V30 16081 C 1482.99 -1.23721 1.02868 0
M  V30 16082 O 1484.18 -1.2106 1.29126 0
M  V30 16083 C 1481.31 -2.11612 2.70325 0
M  V30 16084 C 1480.4 -1.76474 3.85639 0
M  V30 16085 N 1480.79 -1.11944 4.93257 0
M  V30 16086 C 1479.09 -2.0602 3.95565 0
M  V30 16087 C 1479.79 -0.956421 5.73783 0
M  V30 16088 N 1478.76 -1.47701 5.23149 0
M  V30 16089 H 1482.57 -0.35816 2.91709 0
M  V30 16090 H 1480.08 -0.0976543 1.62106 0
M  V30 16091 H 1482.08 -2.81778 3.07257 0
M  V30 16092 H 1480.74 -2.62438 1.91198 0
M  V30 16093 H 1481.75 -0.785042 5.11916 0
M  V30 16094 H 1478.42 -2.58989 3.27461 0
M  V30 16095 H 1479.81 -0.450964 6.70385 0
M  V30 16096 N 1482.53 -1.56697 -0.168486 0
M  V30 16097 C 1483.46 -1.99659 -1.21073 0
M  V30 16098 C 1484.45 -0.872625 -1.46011 0
M  V30 16099 O 1485.63 -1.13891 -1.57297 0
M  V30 16100 C 1482.76 -2.35889 -2.54899 0
M  V30 16101 C 1481.71 -3.51272 -2.44524 0
M  V30 16102 C 1481.04 -3.73253 -3.82866 0
M  V30 16103 C 1482.34 -4.84631 -1.94756 0
M  V30 16104 H 1484.03 -2.86974 -0.853593 0
M  V30 16105 H 1481.58 -1.38065 -0.409165 0
M  V30 16106 H 1483.53 -2.64542 -3.28017 0
M  V30 16107 H 1482.26 -1.45486 -2.92406 0
M  V30 16108 H 1480.92 -3.22751 -1.7386 0
M  V30 16109 H 1480.56 -2.80136 -4.17772 0
M  V30 16110 H 1480.26 -4.5089 -3.76792 0
M  V30 16111 H 1481.79 -4.04309 -4.57566 0
M  V30 16112 H 1483.2 -5.12142 -2.5765 0
M  V30 16113 H 1481.6 -5.65925 -1.99623 0
M  V30 16114 H 1482.67 -4.76436 -0.902021 0
M  V30 16115 N 1484.01 0.437135 -1.51416 0
M  V30 16116 C 1484.96 1.53061 -1.72745 0
M  V30 16117 C 1485.93 1.56045 -0.569149 0
M  V30 16118 O 1487.11 1.73052 -0.803602 0
M  V30 16119 C 1484.25 2.90774 -1.85861 0
M  V30 16120 C 1483.37 2.97318 -3.1341 0
M  V30 16121 C 1482.5 4.26156 -3.1712 0
M  V30 16122 C 1481.54 4.26568 -4.38983 0
M  V30 16123 N 1480.68 5.4693 -4.40241 0
M  V30 16124 H 1485.52 1.34177 -2.66084 0
M  V30 16125 H 1483.06 0.651803 -1.31871 0
M  V30 16126 H 1485.01 3.7068 -1.91447 0
M  V30 16127 H 1483.64 3.08216 -0.959306 0
M  V30 16128 H 1482.7 2.10074 -3.17132 0
M  V30 16129 H 1484.01 2.93485 -4.03321 0
M  V30 16130 H 1483.16 5.14435 -3.21623 0
M  V30 16131 H 1481.9 4.32646 -2.25098 0
M  V30 16132 H 1480.91 3.36681 -4.34656 0
M  V30 16133 H 1482.13 4.21741 -5.3227 0
M  V30 16134 H 1480.08 5.54141 -3.51089 0
M  V30 16135 H 1479.99 5.44977 -5.23962 0
M  V30 16136 H 1481.26 6.37241 -4.48937 0
M  V30 16137 N 1485.49 1.41566 0.692592 0
M  V30 16138 C 1486.45 1.43369 1.78824 0
M  V30 16139 C 1487.45 0.323867 1.57505 0
M  V30 16140 O 1488.64 0.583885 1.64123 0
M  V30 16141 C 1485.78 1.24798 3.17235 0
M  V30 16142 H 1486.97 2.40906 1.78617 0
M  V30 16143 H 1484.52 1.27752 0.900508 0
M  V30 16144 H 1485.26 0.281129 3.23079 0
M  V30 16145 H 1485.04 2.05212 3.34111 0
M  V30 16146 H 1486.53 1.28902 3.97208 0
M  V30 16147 N 1486.97 -0.927146 1.27443 0
M  V30 16148 C 1488.25 -1.65322 1.04538 0
M  V30 16149 C 1488.63 -2.06886 -0.419694 0
M  V30 16150 O 1487.97 -1.80352 -1.40304 0
M  V30 16151 C 1488.18 -2.85486 2.00746 0
M  V30 16152 C 1489.53 -3.56816 2.30147 0
M  V30 16153 O 1490.56 -2.95613 1.98724 0
M  V30 16154 O 1489.41 -4.67085 2.83714 0
M  V30 16155 H 1486.51 -0.724627 0.398554 0
M  V30 16156 H 1489.05 -0.977633 1.3871 0
M  V30 16157 H 1487.83 -2.51766 2.99549 0
M  V30 16158 H 1487.45 -3.60763 1.67139 0
M  V30 16159 N 1488.45 -1.09474 -1.13372 0
M  V30 16160 C 1489.68 -0.851685 -1.88228 0
M  V30 16161 C 1490.08 0.600707 -1.79411 0
M  V30 16162 O 1489.43 1.42527 -1.15895 0
M  V30 16163 C 1489.49 -1.20874 -3.3857 0
M  V30 16164 C 1489.15 -2.66614 -3.71168 0
M  V30 16165 C 1490.15 -3.64862 -3.70367 0
M  V30 16166 C 1487.84 -3.02748 -4.0081 0
M  V30 16167 C 1489.83 -4.97269 -3.98751 0
M  V30 16168 C 1487.52 -4.35347 -4.28855 0
M  V30 16169 C 1488.51 -5.32417 -4.2781 0
M  V30 16170 O 1488.2 -6.6263 -4.55167 0
M  V30 16171 H 1487.93 -0.306097 -0.602728 0
M  V30 16172 H 1490.49 -1.46038 -1.44437 0
M  V30 16173 H 1488.72 -0.543096 -3.82867 0
M  V30 16174 H 1490.41 -0.944753 -3.94752 0
M  V30 16175 H 1491.17 -3.3829 -3.47541 0
M  V30 16176 H 1487.05 -2.27824 -4.00771 0
M  V30 16177 H 1490.6 -5.73028 -3.9785 0
M  V30 16178 H 1486.49 -4.61661 -4.51153 0
M  V30 16179 H 1487.26 -6.6811 -4.72833 0
M  V30 16180 N 1489.92 1.30607 -0.882012 0
M  V30 16181 C 1490.83 2.31967 -0.350503 0
M  V30 16182 C 1491.85 1.6522 0.54575 0
M  V30 16183 O 1493.03 1.96544 0.439581 0
M  V30 16184 C 1490.09 3.44037 0.428924 0
M  V30 16185 C 1489.15 4.26417 -0.496727 0
M  V30 16186 C 1488.39 5.33135 0.245597 0
M  V30 16187 O 1488.61 5.51077 1.47209 0
M  V30 16188 O 1487.54 6.00551 -0.402767 0
M  V30 16189 H 1491.37 2.79374 -1.19095 0
M  V30 16190 H 1488.95 1.34723 -0.645754 0
M  V30 16191 H 1490.84 4.12314 0.870346 0
M  V30 16192 H 1489.51 2.9877 1.24573 0
M  V30 16193 H 1488.42 3.60848 -0.986899 0
M  V30 16194 H 1489.75 4.7528 -1.27945 0
M  V30 16195 N 1491.4 0.642663 1.43901 0
M  V30 16196 C 1492.35 -0.0553351 2.30734 0
M  V30 16197 C 1493.32 -0.825286 1.44147 0
M  V30 16198 O 1494.5 -0.804012 1.73033 0
M  V30 16199 C 1491.64 -1.02306 3.29587 0
M  V30 16200 C 1490.76 -0.250323 4.31274 0
M  V30 16201 C 1489.89 -1.2109 5.17214 0
M  V30 16202 C 1488.93 -0.427984 6.10602 0
M  V30 16203 N 1488.07 -1.33961 6.89202 0
M  V30 16204 H 1492.91 0.691038 2.89877 0
M  V30 16205 H 1490.45 0.352549 1.42813 0
M  V30 16206 H 1492.4 -1.59763 3.85398 0
M  V30 16207 H 1491.03 -1.73643 2.72117 0
M  V30 16208 H 1490.09 0.440359 3.77843 0
M  V30 16209 H 1491.4 0.358937 4.97507 0
M  V30 16210 H 1490.55 -1.85644 5.776 0
M  V30 16211 H 1489.29 -1.85408 4.51082 0
M  V30 16212 H 1488.3 0.230971 5.49315 0
M  V30 16213 H 1489.52 0.210639 6.78773 0
M  V30 16214 H 1487.47 -1.96978 6.25728 0
M  V30 16215 H 1487.38 -0.784655 7.51917 0
M  V30 16216 H 1488.65 -1.97363 7.54101 0
M  V30 16217 N 1492.88 -1.52852 0.383918 0
M  V30 16218 C 1493.84 -2.24904 -0.441687 0
M  V30 16219 C 1494.84 -1.26345 -0.99466 0
M  V30 16220 O 1496.03 -1.50484 -0.877513 0
M  V30 16221 C 1493.17 -2.99994 -1.61915 0
M  V30 16222 H 1494.36 -2.99304 0.189047 0
M  V30 16223 H 1491.91 -1.55708 0.135932 0
M  V30 16224 H 1492.65 -2.29882 -2.28746 0
M  V30 16225 H 1492.43 -3.72328 -1.2294 0
M  V30 16226 H 1493.92 -3.54716 -2.20378 0
M  V30 16227 N 1494.36 -0.113586 -1.5719 0
M  V30 16228 C 1495.29 0.835363 -2.18046 0
M  V30 16229 C 1496.27 1.28114 -1.11897 0
M  V30 16230 O 1497.46 1.34472 -1.40111 0
M  V30 16231 C 1494.59 2.08759 -2.77556 0
M  V30 16232 C 1493.54 1.77979 -3.8924 0
M  V30 16233 C 1492.87 3.10185 -4.35533 0
M  V30 16234 C 1494.17 1.05231 -5.11589 0
M  V30 16235 H 1495.86 0.328275 -2.97595 0
M  V30 16236 H 1493.41 0.156456 -1.43148 0
M  V30 16237 H 1495.36 2.75597 -3.18785 0
M  V30 16238 H 1494.08 2.61783 -1.95288 0
M  V30 16239 H 1492.74 1.13532 -3.48577 0
M  V30 16240 H 1492.39 3.61133 -3.50131 0
M  V30 16241 H 1492.09 2.90367 -5.10843 0
M  V30 16242 H 1493.61 3.78151 -4.7941 0
M  V30 16243 H 1495.03 1.62213 -5.49872 0
M  V30 16244 H 1493.42 0.955269 -5.92448 0
M  V30 16245 H 1494.49 0.038137 -4.84885 0
M  V30 16246 N 1495.84 1.56784 0.160173 0
M  V30 16247 C 1497.25 1.51153 0.512352 0
M  V30 16248 C 1497.45 0.819774 1.84071 0
M  V30 16249 O 1496.51 0.384789 2.49551 0
M  V30 16250 C 1497.82 2.95906 0.534817 0
M  V30 16251 C 1499.37 3.06773 0.621248 0
M  V30 16252 C 1499.85 4.53006 0.674501 0
M  V30 16253 N 1501.34 4.57298 0.737087 0
M  V30 16254 C 1502.07 5.67805 0.799054 0
M  V30 16255 N 1501.57 6.87916 0.821171 0
M  V30 16256 N 1503.36 5.55804 0.838928 0
M  V30 16257 H 1495.51 2.00157 -0.710712 0
M  V30 16258 H 1497.77 0.91233 -0.257601 0
M  V30 16259 H 1497.48 3.49719 -0.372773 0
M  V30 16260 H 1497.35 3.51152 1.3774 0
M  V30 16261 H 1499.74 2.52987 1.51926 0
M  V30 16262 H 1499.82 2.54593 -0.248224 0
M  V30 16263 H 1499.47 5.07426 -0.219301 0
M  V30 16264 H 1499.4 5.02954 1.56028 0
M  V30 16265 H 1501.89 3.70825 0.727827 0
M  V30 16266 H 1502.2 7.67888 0.869938 0
M  V30 16267 H 1500.55 6.90504 0.789264 0
M  V30 16268 H 1503.74 4.60884 0.818728 0
M  V30 16269 H 1503.91 6.41945 0.883757 0
M  V30 16270 N 1497.32 -0.429099 1.51646 0
M  V30 16271 C 1498.26 -1.54202 1.74139 0
M  V30 16272 C 1499.26 -1.58117 0.607905 0
M  V30 16273 O 1500.46 -1.61763 0.789486 0
M  V30 16274 H 1496.84 -0.512456 0.550357 0
M  V30 16275 H 1498.81 -1.32408 2.67415 0
M  V30 16276 C 1497.56 -2.91779 1.89104 0
M  V30 16277 H 1496.88 -2.89502 2.75733 0
M  V30 16278 H 1498.32 -3.68995 2.08851 0
M  V30 16279 C 1496.78 -3.30512 0.652945 0
M  V30 16280 O 1497.31 -4.01257 -0.188553 0
M  V30 16281 N 1495.52 -2.86359 0.494634 0
M  V30 16282 H 1495.06 -2.28959 1.18049 0
M  V30 16283 H 1495.02 -3.12637 -0.332503 0
M  V30 16284 N 1498.79 -1.41931 -0.685074 0
M  V30 16285 C 1500.04 -1.41852 -1.44514 0
M  V30 16286 C 1500.37 -0.0313137 -1.94475 0
M  V30 16287 O 1499.62 0.958606 -1.70614 0
M  V30 16288 C 1499.92 -2.38099 -2.6654 0
M  V30 16289 C 1499.59 -3.8471 -2.35178 0
M  V30 16290 C 1498.25 -4.24647 -2.26336 0
M  V30 16291 C 1500.6 -4.77232 -2.0952 0
M  V30 16292 C 1497.93 -5.55101 -1.89947 0
M  V30 16293 C 1500.28 -6.08017 -1.74638 0
M  V30 16294 C 1498.95 -6.46964 -1.64299 0
M  V30 16295 H 1498.22 -0.519072 -0.528815 0
M  V30 16296 H 1500.86 -1.74802 -0.782078 0
M  V30 16297 H 1499.17 -1.9844 -3.3783 0
M  V30 16298 H 1500.87 -2.35306 -3.24703 0
M  V30 16299 H 1497.46 -3.53085 -2.42959 0
M  V30 16300 H 1501.64 -4.47173 -2.1529 0
M  V30 16301 H 1496.9 -5.84148 -1.80503 0
M  V30 16302 H 1501.07 -6.79203 -1.53807 0
M  V30 16303 H 1498.7 -7.47959 -1.35871 0
M  V30 16304 N 1500.27 0.920374 -1.27933 0
M  V30 16305 C 1501.52 1.66883 -1.147 0
M  V30 16306 C 1501.85 1.92082 0.305732 0
M  V30 16307 O 1501.1 1.51449 1.23942 0
M  V30 16308 C 1501.4 3.03725 -1.88377 0
M  V30 16309 C 1501.07 2.9821 -3.38203 0
M  V30 16310 C 1499.73 2.96413 -3.79068 0
M  V30 16311 C 1502.08 2.88952 -4.3377 0
M  V30 16312 C 1499.41 2.83151 -5.13851 0
M  V30 16313 C 1501.76 2.77231 -5.68618 0
M  V30 16314 C 1500.42 2.73788 -6.08766 0
M  V30 16315 H 1499.69 0.61067 -0.419718 0
M  V30 16316 H 1502.34 1.0728 -1.58629 0
M  V30 16317 H 1500.65 3.67075 -1.36978 0
M  V30 16318 H 1502.34 3.60527 -1.7556 0
M  V30 16319 H 1498.93 3.004 -3.05709 0
M  V30 16320 H 1503.12 2.89433 -4.03165 0
M  V30 16321 H 1498.37 2.78877 -5.44093 0
M  V30 16322 H 1502.55 2.69034 -6.42335 0
M  V30 16323 H 1500.17 2.63268 -7.13158 0
M  V30 16324 N 1501.75 1.10074 1.1279 0
M  V30 16325 C 1502.98 0.861655 1.87774 0
M  V30 16326 C 1503.39 -0.591184 1.79727 0
M  V30 16327 O 1502.73 -1.4191 1.1665 0
M  V30 16328 C 1502.79 1.22668 3.37924 0
M  V30 16329 C 1502.46 2.68579 3.69749 0
M  V30 16330 C 1503.45 3.66821 3.68427 0
M  V30 16331 C 1501.14 3.04869 3.99199 0
M  V30 16332 C 1503.13 4.99377 3.96108 0
M  V30 16333 C 1500.82 4.37615 4.2654 0
M  V30 16334 C 1501.82 5.34678 4.24981 0
M  V30 16335 O 1501.51 6.65034 4.51647 0
M  V30 16336 H 1501.24 0.309289 0.601096 0
M  V30 16337 H 1503.79 1.46802 1.43661 0
M  V30 16338 H 1502.02 0.563393 3.82574 0
M  V30 16339 H 1503.71 0.965675 3.94246 0
M  V30 16340 H 1504.48 3.40128 3.45742 0
M  V30 16341 H 1500.36 2.29947 3.99557 0
M  V30 16342 H 1503.9 5.7513 3.94806 0
M  V30 16343 H 1499.8 4.64047 4.48698 0
M  V30 16344 H 1500.56 6.70608 4.69283 0
M  V30 16345 N 1503.23 -1.30138 0.888926 0
M  V30 16346 C 1504.45 -2.00679 0.523697 0
M  V30 16347 C 1504.88 -1.66167 -0.881479 0
M  V30 16348 O 1504.24 -0.880418 -1.58488 0
M  V30 16349 C 1504.28 -3.53535 0.710284 0
M  V30 16350 O 1503.39 -4.11689 -0.242066 0
M  V30 16351 H 1502.73 -0.631273 0.205888 0
M  V30 16352 H 1505.26 -1.65891 1.19756 0
M  V30 16353 H 1505.27 -4.03402 0.610794 0
M  V30 16354 H 1503.94 -3.77992 1.73478 0
M  V30 16355 H 1502.52 -3.72777 -0.0959393 0
M  V30 16356 N 1504.71 -0.650285 -1.43559 0
M  V30 16357 C 1505.95 -0.166046 -2.03724 0
M  V30 16358 C 1506.31 1.19631 -1.50174 0
M  V30 16359 O 1507.51 1.77379 -2.01966 0
M  V30 16360 C 1505.78 -0.172648 -3.56983 0
M  V30 16361 S 1507.34 0.244173 -4.3812 0
M  V30 16362 H 1504.16 -0.0705044 -0.707496 0
M  V30 16363 H 1506.76 -0.857964 -1.75668 0
M  V30 16364 H 1505.46 -1.16696 -3.93459 0
M  V30 16365 H 1505 0.539902 -3.89678 0
M  V30 16366 H 1507.01 1.48378 -4.73496 0
M  V30 16367 N 1506.18 1.52647 -0.392018 0
M  V30 16368 C 1507.15 2.25135 0.429754 0
M  V30 16369 C 1508.15 1.26871 0.987946 0
M  V30 16370 O 1509.34 1.50947 0.86952 0
M  V30 16371 C 1506.47 3.00849 1.60321 0
M  V30 16372 H 1507.66 2.99199 -0.204918 0
M  V30 16373 H 1505.21 1.55634 -0.144188 0
M  V30 16374 H 1505.95 2.31092 2.27524 0
M  V30 16375 H 1505.73 3.72975 1.20964 0
M  V30 16376 H 1507.22 3.55879 2.18494 0
M  V30 16377 N 1507.66 0.121921 1.57128 0
M  V30 16378 C 1508.91 -0.534313 1.94909 0
M  V30 16379 C 1509.23 -1.67029 1.0063 0
M  V30 16380 O 1508.5 -1.95798 0.0631366 0
M  V30 16381 H 1507.08 -0.200372 0.719625 0
M  V30 16382 H 1509.74 0.191546 1.93956 0
M  V30 16383 H 1508.84 -0.926974 2.98016 0
M  V30 16384 N 1509.14 -1.56867 -0.151857 0
M  V30 16385 C 1510.39 -1.84242 -0.861767 0
M  V30 16386 C 1510.74 -0.705229 -1.79009 0
M  V30 16387 O 1510.03 0.297135 -1.89282 0
M  V30 16388 C 1510.23 -3.15597 -1.6773 0
M  V30 16389 C 1510.06 -4.41985 -0.829442 0
M  V30 16390 C 1508.83 -5.0285 -0.496943 0
M  V30 16391 C 1511.03 -5.14045 -0.162006 0
M  V30 16392 N 1509.01 -6.12814 0.365022 0
M  V30 16393 C 1510.38 -6.17463 0.560301 0
M  V30 16394 C 1512.43 -4.97832 -0.0821767 0
M  V30 16395 C 1511.14 -7.06424 1.35489 0
M  V30 16396 C 1513.16 -5.87253 0.699138 0
M  V30 16397 C 1512.52 -6.90149 1.40974 0
M  V30 16398 H 1508.62 -0.724902 -0.293329 0
M  V30 16399 H 1511.21 -1.94282 -0.127448 0
M  V30 16400 H 1509.38 -3.06713 -2.3829 0
M  V30 16401 H 1511.11 -3.30897 -2.33001 0
M  V30 16402 H 1507.87 -4.66242 -0.831596 0
M  V30 16403 H 1508.29 -6.72411 0.786886 0
M  V30 16404 H 1512.93 -4.18271 -0.617211 0
M  V30 16405 H 1510.65 -7.85417 1.9012 0
M  V30 16406 H 1514.24 -5.76777 0.762833 0
M  V30 16407 H 1513.12 -7.58146 2.00461 0
M  V30 16408 N 1510.62 0.421051 -1.51871 0
M  V30 16409 C 1511.86 1.17838 -1.67013 0
M  V30 16410 C 1512.22 1.88083 -0.385861 0
M  V30 16411 O 1513.42 2.65605 -0.41324 0
M  V30 16412 C 1511.69 2.15567 -2.85071 0
M  V30 16413 S 1513.25 2.99568 -3.20631 0
M  V30 16414 H 1510.07 0.399375 -0.588235 0
M  V30 16415 H 1512.67 0.46746 -1.89829 0
M  V30 16416 H 1511.38 1.62629 -3.76802 0
M  V30 16417 H 1510.91 2.91216 -2.64493 0
M  V30 16418 H 1512.92 4.1739 -2.68328 0
M  V30 16419 N 1512.1 1.42293 0.677538 0
M  V30 16420 C 1513.34 1.42827 1.43973 0
M  V30 16421 C 1513.68 0.0435041 1.94151 0
M  V30 16422 O 1512.95 -0.931794 1.70727 0
M  V30 16423 C 1513.23 2.45037 2.63873 0
M  V30 16424 C 1513.09 3.92694 2.19344 0
M  V30 16425 C 1514.41 2.4427 3.66087 0
M  V30 16426 H 1511.52 0.520097 0.522176 0
M  V30 16427 H 1514.17 1.73688 0.770219 0
M  V30 16428 H 1512.32 2.18851 3.20993 0
M  V30 16429 H 1513.99 4.2985 1.67412 0
M  V30 16430 H 1512.23 4.06692 1.50944 0
M  V30 16431 H 1512.9 4.59784 3.05455 0
M  V30 16432 H 1515.38 2.67551 3.18678 0
M  V30 16433 H 1514.25 3.17769 4.47564 0
M  V30 16434 H 1514.52 1.46769 4.17027 0
M  V30 16435 N 1513.57 -0.913576 1.28419 0
M  V30 16436 C 1514.82 -1.66519 1.15755 0
M  V30 16437 C 1515.15 -1.91974 -0.293166 0
M  V30 16438 O 1514.43 -1.52025 -1.21321 0
M  V30 16439 C 1514.71 -3.02299 1.95672 0
M  V30 16440 C 1514.56 -2.83996 3.48807 0
M  V30 16441 C 1515.88 -4.02838 1.77226 0
M  V30 16442 H 1513 -0.604309 0.421877 0
M  V30 16443 H 1515.64 -1.05919 1.57737 0
M  V30 16444 H 1513.79 -3.54025 1.59995 0
M  V30 16445 H 1515.47 -2.39279 3.9439 0
M  V30 16446 H 1513.71 -2.19052 3.74431 0
M  V30 16447 H 1514.38 -3.80419 3.99982 0
M  V30 16448 H 1516.86 -3.60174 2.0836 0
M  V30 16449 H 1515.73 -4.95806 2.35515 0
M  V30 16450 H 1515.99 -4.36135 0.723804 0
M  V30 16451 N 1515.05 -1.1067 -1.12204 0
M  V30 16452 C 1516.28 -0.872867 -1.87586 0
M  V30 16453 C 1516.7 0.57682 -1.79773 0
M  V30 16454 O 1516.05 1.39782 -1.17334 0
M  V30 16455 C 1516.1 -1.31572 -3.36706 0
M  V30 16456 O 1515.82 -2.70856 -3.44338 0
M  V30 16457 C 1517.33 -1.11613 -4.29019 0
M  V30 16458 H 1514.55 -0.313132 -0.593455 0
M  V30 16459 H 1517.09 -1.47199 -1.4196 0
M  V30 16460 H 1515.24 -0.760212 -3.79868 0
M  V30 16461 H 1515.66 -2.89854 -4.37132 0
M  V30 16462 H 1517.13 -1.4751 -5.31925 0
M  V30 16463 H 1517.61 -0.0549698 -4.39166 0
M  V30 16464 H 1518.22 -1.65822 -3.91642 0
M  V30 16465 N 1516.53 1.29665 -0.895815 0
M  V30 16466 C 1517.78 1.95716 -0.519752 0
M  V30 16467 C 1518.11 1.7065 0.933212 0
M  V30 16468 O 1517.36 1.01014 1.67615 0
M  V30 16469 C 1517.66 3.49355 -0.754025 0
M  V30 16470 C 1517.33 3.94491 -2.18375 0
M  V30 16471 C 1515.99 4.06526 -2.57468 0
M  V30 16472 C 1518.34 4.17874 -3.11498 0
M  V30 16473 C 1515.67 4.39311 -3.88874 0
M  V30 16474 C 1518.02 4.52132 -4.42447 0
M  V30 16475 C 1516.68 4.62376 -4.81419 0
M  V30 16476 H 1515.95 0.716176 -0.190191 0
M  V30 16477 H 1518.6 1.54333 -1.13373 0
M  V30 16478 H 1516.91 3.91758 -0.0570932 0
M  V30 16479 H 1518.6 3.98551 -0.442493 0
M  V30 16480 H 1515.19 3.85638 -1.87033 0
M  V30 16481 H 1519.38 4.08046 -2.8251 0
M  V30 16482 H 1514.63 4.45444 -4.18795 0
M  V30 16483 H 1518.81 4.69175 -5.14634 0
M  V30 16484 H 1516.43 4.87535 -5.83278 0
M  V30 16485 N 1518.01 0.657889 1.43212 0
M  V30 16486 C 1519.26 0.170493 2.00978 0
M  V30 16487 C 1519.57 -1.22439 1.52539 0
M  V30 16488 O 1520.78 -1.80725 2.02609 0
M  V30 16489 C 1519.23 0.253982 3.59003 0
M  V30 16490 C 1518.84 1.65185 4.16435 0
M  V30 16491 C 1520.58 -0.17557 4.24137 0
M  V30 16492 C 1518.49 1.68902 5.66768 0
M  V30 16493 H 1517.42 0.0599767 0.751611 0
M  V30 16494 H 1520.07 0.820606 1.64129 0
M  V30 16495 H 1518.45 -0.463723 3.93275 0
M  V30 16496 H 1519.63 2.39529 3.93653 0
M  V30 16497 H 1517.94 2.02779 3.63689 0
M  V30 16498 H 1520.54 -0.167714 5.34437 0
M  V30 16499 H 1520.88 -1.20784 3.98393 0
M  V30 16500 H 1521.42 0.490544 3.94764 0
M  V30 16501 H 1518.16 2.70055 5.97286 0
M  V30 16502 H 1517.68 0.988906 5.91592 0
M  V30 16503 H 1519.35 1.43485 6.30889 0
M  V30 16504 N 1519.49 -1.52437 0.400108 0
M  V30 16505 C 1520.42 -2.29672 -0.421054 0
M  V30 16506 C 1521.4 -1.33506 -1.05405 0
M  V30 16507 O 1522.58 -1.62408 -1.06477 0
M  V30 16508 C 1519.71 -3.1115 -1.54281 0
M  V30 16509 C 1518.67 -4.1529 -1.0353 0
M  V30 16510 C 1517.99 -4.85058 -2.24996 0
M  V30 16511 C 1519.29 -5.22212 -0.0956529 0
M  V30 16512 H 1520.99 -2.98565 0.2234 0
M  V30 16513 H 1518.53 -1.43588 0.108883 0
M  V30 16514 H 1520.49 -3.63945 -2.12419 0
M  V30 16515 H 1519.21 -2.4001 -2.21501 0
M  V30 16516 H 1517.87 -3.63492 -0.476383 0
M  V30 16517 H 1517.52 -4.10455 -2.9075 0
M  V30 16518 H 1517.22 -5.55452 -1.91694 0
M  V30 16519 H 1518.74 -5.40661 -2.83756 0
M  V30 16520 H 1520.15 -5.70302 -0.585548 0
M  V30 16521 H 1518.55 -5.99917 0.148121 0
M  V30 16522 H 1519.62 -4.77351 0.852296 0
M  V30 16523 N 1520.96 -0.130252 -1.57061 0
M  V30 16524 C 1522.21 0.523969 -1.9519 0
M  V30 16525 C 1522.53 1.66493 -1.01514 0
M  V30 16526 O 1521.8 1.95762 -0.0735194 0
M  V30 16527 H 1520.38 0.196553 -0.720677 0
M  V30 16528 H 1523.05 -0.20183 -1.93852 0
M  V30 16529 H 1522.14 0.911156 -2.98504 0
M  V30 16530 N 1522.44 1.56945 0.143535 0
M  V30 16531 C 1523.69 1.8381 0.856831 0
M  V30 16532 C 1524.02 0.712375 1.80662 0
M  V30 16533 O 1523.3 -0.283743 1.92419 0
M  V30 16534 C 1523.58 3.21184 1.62828 0
M  V30 16535 C 1523.43 4.44324 0.699744 0
M  V30 16536 C 1524.75 3.5582 2.58999 0
M  V30 16537 H 1521.87 0.668611 0.310046 0
M  V30 16538 H 1524.51 1.89609 0.1219 0
M  V30 16539 H 1522.66 3.16372 2.2548 0
M  V30 16540 H 1524.34 4.61224 0.0839619 0
M  V30 16541 H 1522.58 4.33799 0.0095529 0
M  V30 16542 H 1523.25 5.37058 1.27564 0
M  V30 16543 H 1525.73 3.61264 2.06464 0
M  V30 16544 H 1524.6 4.52964 3.10024 0
M  V30 16545 H 1524.86 2.81956 3.40519 0
M  V30 16546 N 1523.92 -0.412991 1.52093 0
M  V30 16547 C 1525.16 -1.16951 1.67636 0
M  V30 16548 C 1525.53 -1.87875 0.39583 0
M  V30 16549 O 1526.73 -2.65382 0.42732 0
M  V30 16550 C 1525 -2.14052 2.8621 0
M  V30 16551 S 1526.56 -2.97863 3.22215 0
M  V30 16552 H 1523.37 -0.396249 0.590345 0
M  V30 16553 H 1525.98 -0.457386 1.90074 0
M  V30 16554 H 1524.68 -1.60628 3.7766 0
M  V30 16555 H 1524.21 -2.89809 2.66034 0
M  V30 16556 H 1526.23 -4.15961 2.70538 0
M  V30 16557 N 1525.4 -1.4265 -0.669982 0
M  V30 16558 C 1526.68 -1.33858 -1.42623 0
M  V30 16559 C 1527.06 0.0217285 -2.11089 0
M  V30 16560 O 1526.4 1.03748 -2.03589 0
M  V30 16561 C 1526.61 -2.51015 -2.42472 0
M  V30 16562 C 1527.96 -2.93348 -3.06972 0
M  V30 16563 O 1528.99 -2.5094 -2.52799 0
M  V30 16564 O 1527.85 -3.66762 -4.05151 0
M  V30 16565 H 1524.94 -0.528141 -0.636393 0
M  V30 16566 H 1527.49 -1.54667 -0.6983 0
M  V30 16567 H 1526.26 -3.41679 -1.90713 0
M  V30 16568 H 1525.88 -2.32218 -3.2274 0
M  V30 16569 N 1526.88 0.906753 -1.28902 0
M  V30 16570 C 1528.29 1.18635 -1.06761 0
M  V30 16571 C 1528.49 2.00643 0.185594 0
M  V30 16572 O 1527.55 2.3647 0.885324 0
M  V30 16573 C 1528.86 1.91414 -2.31907 0
M  V30 16574 C 1530.41 2.04269 -2.37156 0
M  V30 16575 C 1530.89 2.80458 -3.62088 0
M  V30 16576 N 1532.38 2.88016 -3.62769 0
M  V30 16577 C 1533.11 3.47485 -4.56116 0
M  V30 16578 N 1532.61 4.08178 -5.59788 0
M  V30 16579 N 1534.4 3.45092 -4.43698 0
M  V30 16580 H 1526.55 0.359413 -2.09337 0
M  V30 16581 H 1528.81 0.221688 -0.921715 0
M  V30 16582 H 1528.52 1.38587 -3.23244 0
M  V30 16583 H 1528.39 2.91929 -2.38867 0
M  V30 16584 H 1530.78 2.56275 -1.46312 0
M  V30 16585 H 1530.86 1.0291 -2.34186 0
M  V30 16586 H 1530.51 2.2913 -4.53279 0
M  V30 16587 H 1530.44 3.82147 -3.62314 0
M  V30 16588 H 1532.93 2.44902 -2.87805 0
M  V30 16589 H 1533.24 4.51557 -6.27149 0
M  V30 16590 H 1531.59 4.06661 -5.63606 0
M  V30 16591 H 1534.78 2.96891 -3.61903 0
M  V30 16592 H 1534.95 3.91145 -5.16633 0
M  V30 16593 N 1528.36 1.11264 1.11616 0
M  V30 16594 C 1529.31 0.738429 2.15711 0
M  V30 16595 C 1530.29 -0.25663 1.5884 0
M  V30 16596 O 1531.48 -0.0640255 1.76884 0
M  V30 16597 C 1528.61 0.181245 3.42821 0
M  V30 16598 C 1527.7 1.20386 4.06655 0
M  V30 16599 N 1528.09 2.39745 4.45372 0
M  V30 16600 C 1526.39 1.04637 4.33552 0
M  V30 16601 C 1527.09 3.04949 4.95359 0
M  V30 16602 N 1526.06 2.32435 4.91401 0
M  V30 16603 H 1529.86 1.6469 2.43423 0
M  V30 16604 H 1527.38 0.991616 1.28611 0
M  V30 16605 H 1529.38 -0.104966 4.16768 0
M  V30 16606 H 1528.04 -0.721832 3.16575 0
M  V30 16607 H 1529.05 2.77213 4.37462 0
M  V30 16608 H 1525.72 0.19957 4.17023 0
M  V30 16609 H 1527.11 4.06528 5.34962 0
M  V30 16610 N 1529.83 -1.29188 0.902679 0
M  V30 16611 C 1530.78 -2.29597 0.372585 0
M  V30 16612 C 1531.78 -1.609 -0.529858 0
M  V30 16613 O 1532.98 -1.75214 -0.41233 0
M  V30 16614 H 1529.36 -0.745069 0.101864 0
M  V30 16615 H 1531.33 -2.71746 1.23275 0
M  V30 16616 C 1530.08 -3.45594 -0.382128 0
M  V30 16617 H 1529.4 -3.9865 0.303061 0
M  V30 16618 H 1530.84 -4.17879 -0.717852 0
M  V30 16619 C 1529.3 -2.97238 -1.58591 0
M  V30 16620 O 1529.83 -2.98767 -2.68517 0
M  V30 16621 N 1528.03 -2.53032 -1.42909 0
M  V30 16622 H 1527.58 -2.51988 -0.534786 0
M  V30 16623 H 1527.54 -2.21038 -2.23584 0
M  V30 16624 N 1531.31 -0.665475 -1.42861 0
M  V30 16625 C 1532.59 -0.113252 -1.95272 0
M  V30 16626 C 1532.97 1.36972 -1.6063 0
M  V30 16627 O 1532.32 2.10129 -0.897662 0
M  V30 16628 C 1532.53 -0.372482 -3.47007 0
M  V30 16629 C 1533.87 -0.283982 -4.23649 0
M  V30 16630 O 1534.9 -0.305714 -3.54886 0
M  V30 16631 O 1533.76 -0.218171 -5.46064 0
M  V30 16632 H 1530.85 0.00253712 -0.826996 0
M  V30 16633 H 1533.4 -0.739561 -1.52737 0
M  V30 16634 H 1532.17 -1.40015 -3.65392 0
M  V30 16635 H 1531.79 0.286294 -3.96568 0
M  V30 16636 N 1532.79 1.52222 -0.408187 0
M  V30 16637 C 1533.74 2.28544 0.432458 0
M  V30 16638 C 1534.73 1.33198 1.04665 0
M  V30 16639 O 1535.94 1.50661 0.984954 0
M  V30 16640 H 1532.31 0.735162 0.158241 0
M  V30 16641 H 1534.28 2.97493 -0.232482 0
M  V30 16642 C 1533.03 3.11864 1.53741 0
M  V30 16643 H 1532.36 3.851 1.07414 0
M  V30 16644 H 1533.8 3.68374 2.09945 0
M  V30 16645 C 1532.25 2.25367 2.50423 0
M  V30 16646 O 1532.78 1.89329 3.54285 0
M  V30 16647 N 1530.99 1.89155 2.2061 0
M  V30 16648 H 1530.54 2.18661 1.36181 0
M  V30 16649 H 1530.5 1.31574 2.85544 0
M  V30 16650 N 1534.27 0.138579 1.5699 0
M  V30 16651 C 1535.52 -0.514545 1.95026 0
M  V30 16652 C 1535.83 -1.66565 1.02544 0
M  V30 16653 O 1537.04 -2.38284 1.30126 0
M  V30 16654 C 1535.49 -0.966746 3.46673 0
M  V30 16655 C 1535.1 0.156969 4.47725 0
M  V30 16656 C 1536.84 -1.59014 3.93592 0
M  V30 16657 C 1534.75 -0.313031 5.90571 0
M  V30 16658 H 1533.68 -0.195991 0.728082 0
M  V30 16659 H 1536.33 0.221575 1.82157 0
M  V30 16660 H 1534.71 -1.75788 3.54845 0
M  V30 16661 H 1535.89 0.933728 4.51241 0
M  V30 16662 H 1534.2 0.688238 4.10673 0
M  V30 16663 H 1536.8 -1.95326 4.97747 0
M  V30 16664 H 1537.14 -2.47595 3.34668 0
M  V30 16665 H 1537.68 -0.864061 3.88302 0
M  V30 16666 H 1534.41 0.5372 6.53295 0
M  V30 16667 H 1533.93 -1.05585 5.90434 0
M  V30 16668 H 1535.61 -0.767826 6.42428 0
M  V30 16669 N 1535.75 -1.57019 -0.13521 0
M  V30 16670 C 1536.68 -1.94319 -1.19646 0
M  V30 16671 C 1537.66 -0.810603 -1.40954 0
M  V30 16672 O 1538.84 -1.0673 -1.55374 0
M  V30 16673 C 1535.97 -2.22542 -2.55328 0
M  V30 16674 C 1535.01 -3.45151 -2.50546 0
M  V30 16675 S 1535.85 -4.98307 -1.96089 0
M  V30 16676 C 1537 -5.29665 -3.33476 0
M  V30 16677 H 1537.24 -2.8403 -0.878294 0
M  V30 16678 H 1534.77 -1.5058 -0.341313 0
M  V30 16679 H 1536.73 -2.39482 -3.33405 0
M  V30 16680 H 1535.39 -1.33474 -2.8433 0
M  V30 16681 H 1534.58 -3.62213 -3.50454 0
M  V30 16682 H 1534.18 -3.27514 -1.80583 0
M  V30 16683 H 1536.47 -5.23854 -4.29631 0
M  V30 16684 H 1537.42 -6.31031 -3.21256 0
M  V30 16685 H 1537.83 -4.57161 -3.31156 0
M  V30 16686 N 1537.22 0.404919 -1.52309 0
M  V30 16687 C 1538.15 1.50039 -1.78915 0
M  V30 16688 C 1539.14 1.57587 -0.640329 0
M  V30 16689 O 1540.32 1.72793 -0.886344 0
M  V30 16690 C 1537.45 2.87819 -1.94364 0
M  V30 16691 C 1536.4 2.9512 -3.09981 0
M  V30 16692 C 1535.73 4.35195 -3.10659 0
M  V30 16693 C 1537.03 2.66219 -4.4936 0
M  V30 16694 H 1538.72 1.28025 -2.70647 0
M  V30 16695 H 1536.27 0.61445 -1.30233 0
M  V30 16696 H 1538.22 3.64446 -2.11559 0
M  V30 16697 H 1536.95 3.11136 -0.993067 0
M  V30 16698 H 1535.61 2.20939 -2.92543 0
M  V30 16699 H 1535.25 4.55528 -2.13316 0
M  V30 16700 H 1534.95 4.41003 -3.88317 0
M  V30 16701 H 1536.48 5.1375 -3.29989 0
M  V30 16702 H 1537.89 3.32567 -4.66982 0
M  V30 16703 H 1536.29 2.83398 -5.28967 0
M  V30 16704 H 1537.36 1.61636 -4.57167 0
M  V30 16705 N 1538.7 1.43003 0.662408 0
M  V30 16706 C 1539.93 1.47555 1.45035 0
M  V30 16707 C 1540.35 0.0906083 1.88582 0
M  V30 16708 O 1539.7 -0.897271 1.58919 0
M  V30 16709 C 1539.75 2.41345 2.69137 0
M  V30 16710 O 1539.47 3.74453 2.27413 0
M  V30 16711 C 1540.98 2.55045 3.62584 0
M  V30 16712 H 1538.2 0.501448 0.44586 0
M  V30 16713 H 1540.74 1.8765 0.812879 0
M  V30 16714 H 1538.89 2.0447 3.29045 0
M  V30 16715 H 1539.31 4.24801 3.07643 0
M  V30 16716 H 1540.78 3.24766 4.46353 0
M  V30 16717 H 1541.26 1.59235 4.09318 0
M  V30 16718 H 1541.87 2.92693 3.08563 0
M  V30 16719 N 1540.18 -0.899904 1.29381 0
M  V30 16720 C 1541.13 -2.004 1.14493 0
M  V30 16721 C 1542.1 -1.66056 0.0383099 0
M  V30 16722 O 1543.28 -1.89687 0.20579 0
M  V30 16723 C 1540.42 -3.35039 0.827237 0
M  V30 16724 C 1539.54 -3.82166 2.01427 0
M  V30 16725 C 1538.67 -5.0538 1.63598 0
M  V30 16726 C 1537.71 -5.44876 2.78884 0
M  V30 16727 N 1536.85 -6.59276 2.41452 0
M  V30 16728 H 1541.69 -2.12466 2.08955 0
M  V30 16729 H 1539.22 -1.0405 1.03981 0
M  V30 16730 H 1541.18 -4.12511 0.62373 0
M  V30 16731 H 1539.81 -3.227 -0.0804772 0
M  V30 16732 H 1538.86 -3.00731 2.32949 0
M  V30 16733 H 1540.18 -4.07387 2.87814 0
M  V30 16734 H 1539.33 -5.90436 1.39534 0
M  V30 16735 H 1538.07 -4.81998 0.743593 0
M  V30 16736 H 1537.07 -4.58355 3.0363 0
M  V30 16737 H 1538.3 -5.7024 3.68786 0
M  V30 16738 H 1536.24 -6.37498 1.54701 0
M  V30 16739 H 1536.16 -6.84293 3.21372 0
M  V30 16740 H 1537.43 -7.47602 2.20708 0
M  V30 16741 N 1541.66 -1.11854 -1.11024 0
M  V30 16742 C 1542.88 -0.892999 -1.8719 0
M  V30 16743 C 1543.31 0.552058 -1.79816 0
M  V30 16744 O 1542.67 1.39025 -1.16369 0
M  V30 16745 C 1542.71 -1.3647 -3.33779 0
M  V30 16746 O 1541.82 -0.539202 -4.0886 0
M  V30 16747 H 1541.16 -0.321319 -0.581076 0
M  V30 16748 H 1543.69 -1.4891 -1.4031 0
M  V30 16749 H 1543.7 -1.3611 -3.84627 0
M  V30 16750 H 1542.37 -2.41694 -3.38462 0
M  V30 16751 H 1540.95 -0.60927 -3.67889 0
M  V30 16752 N 1543.14 1.28707 -0.909517 0
M  V30 16753 C 1544.38 1.94768 -0.539413 0
M  V30 16754 C 1544.71 1.7198 0.919133 0
M  V30 16755 O 1543.98 1.0571 1.64931 0
M  V30 16756 H 1542.56 0.720693 -0.196496 0
M  V30 16757 H 1545.22 1.56772 -1.15795 0
M  V30 16758 H 1544.31 3.03436 -0.730281 0
M  V30 16759 N 1544.61 0.673042 1.42506 0
M  V30 16760 C 1545.56 -0.0291025 2.27981 0
M  V30 16761 C 1546.55 -0.775296 1.40989 0
M  V30 16762 O 1547.74 -0.654498 1.64455 0
M  V30 16763 C 1544.87 -0.9809 3.28988 0
M  V30 16764 C 1543.96 -0.232141 4.23464 0
M  V30 16765 N 1544.35 0.762036 5.00027 0
M  V30 16766 C 1542.64 -0.470831 4.43508 0
M  V30 16767 C 1543.35 1.20826 5.69013 0
M  V30 16768 N 1542.32 0.538559 5.40926 0
M  V30 16769 H 1546.12 0.733484 2.846 0
M  V30 16770 H 1543.64 0.501961 1.54448 0
M  V30 16771 H 1545.63 -1.49888 3.89023 0
M  V30 16772 H 1544.29 -1.74333 2.73931 0
M  V30 16773 H 1545.31 1.14151 5.05163 0
M  V30 16774 H 1541.98 -1.2129 3.99493 0
M  V30 16775 H 1543.37 2.03199 6.40437 0
M  V30 16776 N 1546.09 -1.52004 0.416254 0
M  V30 16777 C 1547.03 -2.2371 -0.450474 0
M  V30 16778 C 1548 -1.24812 -1.04215 0
M  V30 16779 O 1549.19 -1.53885 -1.08866 0
M  V30 16780 C 1546.31 -2.97122 -1.62592 0
M  V30 16781 C 1545.36 -4.10508 -1.15695 0
M  V30 16782 S 1546.19 -5.35374 -0.116239 0
M  V30 16783 C 1547.35 -6.12318 -1.29684 0
M  V30 16784 H 1547.58 -2.96878 0.158361 0
M  V30 16785 H 1545.12 -1.53091 0.200602 0
M  V30 16786 H 1547.07 -3.40022 -2.2999 0
M  V30 16787 H 1545.73 -2.23583 -2.20611 0
M  V30 16788 H 1544.93 -4.61075 -2.03534 0
M  V30 16789 H 1544.53 -3.69761 -0.561518 0
M  V30 16790 H 1546.82 -6.40125 -2.21914 0
M  V30 16791 H 1547.76 -7.032 -0.831569 0
M  V30 16792 H 1548.17 -5.43487 -1.52586 0
M  V30 16793 N 1547.57 -0.146903 -1.56914 0
M  V30 16794 C 1548.82 0.504234 -1.96122 0
M  V30 16795 C 1549.15 1.64879 -1.03175 0
M  V30 16796 O 1548.4 1.95605 -0.0609397 0
M  V30 16797 C 1548.7 1.05159 -3.41579 0
M  V30 16798 C 1548.37 0.0254845 -4.50893 0
M  V30 16799 C 1547.03 -0.256589 -4.80515 0
M  V30 16800 C 1549.38 -0.672284 -5.16846 0
M  V30 16801 C 1546.71 -1.24224 -5.73398 0
M  V30 16802 C 1549.06 -1.64675 -6.1079 0
M  V30 16803 C 1547.72 -1.93652 -6.38792 0
M  V30 16804 H 1546.99 0.184512 -0.71766 0
M  V30 16805 H 1549.64 -0.233712 -1.90069 0
M  V30 16806 H 1547.95 1.86687 -3.44464 0
M  V30 16807 H 1549.64 1.56398 -3.69244 0
M  V30 16808 H 1546.23 0.255517 -4.27838 0
M  V30 16809 H 1550.42 -0.467555 -4.94093 0
M  V30 16810 H 1545.67 -1.47319 -5.93386 0
M  V30 16811 H 1549.85 -2.19294 -6.60971 0
M  V30 16812 H 1547.47 -2.70179 -7.10568 0
M  V30 16813 N 1549.05 1.57088 0.126881 0
M  V30 16814 C 1550 1.96188 1.16164 0
M  V30 16815 C 1550.98 0.835786 1.3749 0
M  V30 16816 O 1552.17 1.09942 1.38714 0
M  V30 16817 C 1549.3 2.36308 2.49025 0
M  V30 16818 C 1548.39 3.55533 2.31208 0
M  V30 16819 N 1548.78 4.71462 1.83186 0
M  V30 16820 C 1547.08 3.61011 2.61891 0
M  V30 16821 C 1547.78 5.5351 1.7889 0
M  V30 16822 N 1546.76 4.95778 2.22946 0
M  V30 16823 H 1550.56 2.83284 0.782778 0
M  V30 16824 H 1548.07 1.58913 0.334719 0
M  V30 16825 H 1550.07 2.62533 3.23855 0
M  V30 16826 H 1548.73 1.50573 2.87677 0
M  V30 16827 H 1549.74 4.94831 1.5285 0
M  V30 16828 H 1546.42 2.85865 3.04282 0
M  V30 16829 H 1547.81 6.56488 1.43083 0
M  V30 16830 N 1550.53 -0.396836 1.52522 0
M  V30 16831 C 1551.78 -1.13978 1.66409 0
M  V30 16832 C 1552.09 -1.91333 0.406326 0
M  V30 16833 O 1553.29 -2.6815 0.425195 0
M  V30 16834 C 1551.75 -2.07512 2.94052 0
M  V30 16835 C 1551.36 -1.35616 4.2698 0
M  V30 16836 C 1553.1 -2.8199 3.17304 0
M  V30 16837 C 1551.01 -2.2787 5.45737 0
M  V30 16838 H 1549.94 -0.429181 0.619935 0
M  V30 16839 H 1552.59 -0.403207 1.79015 0
M  V30 16840 H 1550.97 -2.84773 2.75174 0
M  V30 16841 H 1552.15 -0.636349 4.56385 0
M  V30 16842 H 1550.46 -0.731297 4.09928 0
M  V30 16843 H 1553.06 -3.5118 4.03208 0
M  V30 16844 H 1553.4 -3.45629 2.32048 0
M  V30 16845 H 1553.93 -2.11824 3.36712 0
M  V30 16846 H 1550.67 -1.68858 6.33378 0
M  V30 16847 H 1550.19 -2.97789 5.20655 0
M  V30 16848 H 1551.87 -2.88126 5.79303 0
M  V30 16849 N 1552.01 -1.43353 -0.654814 0
M  V30 16850 C 1553.28 -1.35363 -1.41195 0
M  V30 16851 C 1553.66 -0.000661523 -2.111 0
M  V30 16852 O 1553.01 1.01583 -2.04678 0
M  V30 16853 C 1553.22 -2.53572 -2.39796 0
M  V30 16854 C 1554.57 -2.96587 -3.03844 0
M  V30 16855 O 1555.59 -2.53607 -2.50124 0
M  V30 16856 O 1554.45 -3.71039 -4.01239 0
M  V30 16857 H 1551.55 -0.534861 -0.630756 0
M  V30 16858 H 1554.09 -1.55399 -0.681857 0
M  V30 16859 H 1552.86 -3.43682 -1.87078 0
M  V30 16860 H 1552.49 -2.35628 -3.20258 0
M  V30 16861 N 1553.48 0.89303 -1.29857 0
M  V30 16862 C 1554.73 1.64413 -1.18214 0
M  V30 16863 C 1555.06 1.92687 0.26492 0
M  V30 16864 O 1554.31 1.54044 1.20702 0
M  V30 16865 C 1554.61 2.99661 -1.94777 0
M  V30 16866 C 1554.28 2.90969 -3.44453 0
M  V30 16867 C 1552.94 2.88306 -3.8527 0
M  V30 16868 C 1555.29 2.79686 -4.39801 0
M  V30 16869 C 1552.62 2.72188 -5.19741 0
M  V30 16870 C 1554.97 2.65107 -5.7437 0
M  V30 16871 C 1553.64 2.60814 -6.14437 0
M  V30 16872 H 1552.91 0.60163 -0.432577 0
M  V30 16873 H 1555.55 1.03891 -1.60869 0
M  V30 16874 H 1553.86 3.64087 -1.44733 0
M  V30 16875 H 1555.56 3.56722 -1.83168 0
M  V30 16876 H 1552.15 2.93848 -3.12012 0
M  V30 16877 H 1556.33 2.80816 -4.09214 0
M  V30 16878 H 1551.59 2.67273 -5.49886 0
M  V30 16879 H 1555.76 2.55349 -6.47897 0
M  V30 16880 H 1553.39 2.48082 -7.18582 0
M  V30 16881 N 1554.96 1.12442 1.10429 0
M  V30 16882 C 1556.21 0.878021 1.82031 0
M  V30 16883 C 1556.53 -0.597787 1.85611 0
M  V30 16884 O 1555.8 -1.43442 1.33422 0
M  V30 16885 H 1554.38 0.321839 0.674113 0
M  V30 16886 H 1557.04 1.41891 1.33615 0
M  V30 16887 H 1556.14 1.25957 2.85554 0
M  V30 16888 N 1556.44 -1.28223 0.91633 0
M  V30 16889 C 1557.39 -2.27215 0.40521 0
M  V30 16890 C 1558.36 -1.57693 -0.521734 0
M  V30 16891 O 1559.54 -1.85577 -0.443369 0
M  V30 16892 C 1556.68 -3.43358 -0.346303 0
M  V30 16893 C 1555.79 -4.27622 0.613443 0
M  V30 16894 C 1554.93 -5.30969 -0.156775 0
M  V30 16895 C 1553.97 -6.06897 0.796418 0
M  V30 16896 N 1553.11 -7.02075 0.0595539 0
M  V30 16897 H 1557.95 -2.70312 1.2544 0
M  V30 16898 H 1555.48 -1.32933 0.629859 0
M  V30 16899 H 1557.44 -4.09492 -0.798231 0
M  V30 16900 H 1556.07 -3.01244 -1.15982 0
M  V30 16901 H 1555.12 -3.61508 1.1839 0
M  V30 16902 H 1556.43 -4.80397 1.34239 0
M  V30 16903 H 1555.59 -6.02999 -0.669146 0
M  V30 16904 H 1554.33 -4.78968 -0.918755 0
M  V30 16905 H 1553.33 -5.33716 1.32014 0
M  V30 16906 H 1554.56 -6.60987 1.558 0
M  V30 16907 H 1552.5 -6.5242 -0.684388 0
M  V30 16908 H 1552.42 -7.52484 0.728275 0
M  V30 16909 H 1553.69 -7.78299 -0.432538 0
M  V30 16910 N 1557.92 -0.68059 -1.42147 0
M  V30 16911 C 1559.16 -0.205263 -2.01457 0
M  V30 16912 C 1559.49 1.19015 -1.53837 0
M  V30 16913 O 1558.75 1.81423 -0.733763 0
M  V30 16914 C 1559.05 -0.194825 -3.56869 0
M  V30 16915 C 1558.71 -1.5357 -4.23942 0
M  V30 16916 C 1557.37 -1.90282 -4.4198 0
M  V30 16917 C 1559.73 -2.41852 -4.61689 0
M  V30 16918 C 1557.05 -3.14891 -4.95036 0
M  V30 16919 C 1559.41 -3.65779 -5.16129 0
M  V30 16920 C 1558.07 -4.02653 -5.32379 0
M  V30 16921 H 1557.34 -0.0751109 -0.737183 0
M  V30 16922 H 1559.99 -0.87672 -1.70252 0
M  V30 16923 H 1558.29 0.560155 -3.87775 0
M  V30 16924 H 1559.99 0.190248 -4.00548 0
M  V30 16925 H 1556.58 -1.24012 -4.10267 0
M  V30 16926 H 1560.76 -2.14773 -4.47422 0
M  V30 16927 H 1556.02 -3.43474 -5.05802 0
M  V30 16928 H 1560.19 -4.34384 -5.4432 0
M  V30 16929 H 1557.82 -4.99283 -5.73254 0
M  V30 16930 N 1559.4 1.51781 -0.424309 0
M  V30 16931 C 1560.33 2.30313 0.384462 0
M  V30 16932 C 1561.31 1.35166 1.03268 0
M  V30 16933 O 1562.49 1.64081 1.0388 0
M  V30 16934 C 1559.62 3.13566 1.49311 0
M  V30 16935 C 1558.58 4.16884 0.969096 0
M  V30 16936 C 1557.9 4.88576 2.17251 0
M  V30 16937 C 1559.2 5.22298 0.0125613 0
M  V30 16938 H 1560.9 2.98172 -0.270871 0
M  V30 16939 H 1558.44 1.43396 -0.131712 0
M  V30 16940 H 1560.39 3.67279 2.06602 0
M  V30 16941 H 1559.12 2.43504 2.17655 0
M  V30 16942 H 1557.78 3.64203 0.418494 0
M  V30 16943 H 1557.43 4.15029 2.84183 0
M  V30 16944 H 1557.13 5.58432 1.82833 0
M  V30 16945 H 1558.65 5.45107 2.75119 0
M  V30 16946 H 1560.06 5.71161 0.494744 0
M  V30 16947 H 1558.46 5.99606 -0.243544 0
M  V30 16948 H 1559.53 4.75935 -0.92813 0
M  V30 16949 N 1560.87 0.155222 1.56834 0
M  V30 16950 C 1562.12 -0.49285 1.95998 0
M  V30 16951 C 1562.44 -1.64857 1.0415 0
M  V30 16952 O 1561.71 -1.9562 0.104654 0
M  V30 16953 H 1560.29 -0.185063 0.723713 0
M  V30 16954 H 1562.95 0.232644 1.93507 0
M  V30 16955 H 1562.05 -0.863552 2.99915 0
M  V30 16956 N 1562.35 -1.57153 -0.118549 0
M  V30 16957 C 1563.3 -1.96802 -1.15122 0
M  V30 16958 C 1564.29 -0.843066 -1.37045 0
M  V30 16959 O 1565.48 -1.10676 -1.38129 0
M  V30 16960 C 1562.61 -2.37625 -2.47768 0
M  V30 16961 C 1561.69 -3.56754 -2.29319 0
M  V30 16962 N 1562.08 -4.72427 -1.80683 0
M  V30 16963 C 1560.38 -3.62395 -2.59973 0
M  V30 16964 C 1561.08 -5.54451 -1.75952 0
M  V30 16965 N 1560.06 -4.96954 -2.20314 0
M  V30 16966 H 1563.86 -2.83695 -0.767744 0
M  V30 16967 H 1561.37 -1.59088 -0.326287 0
M  V30 16968 H 1563.37 -2.64247 -3.22458 0
M  V30 16969 H 1562.03 -1.52097 -2.86874 0
M  V30 16970 H 1563.04 -4.95634 -1.50223 0
M  V30 16971 H 1559.72 -2.87475 -3.02762 0
M  V30 16972 H 1561.11 -6.57238 -1.39599 0
M  V30 16973 N 1563.83 0.388742 -1.5273 0
M  V30 16974 C 1564.79 1.45759 -1.76881 0
M  V30 16975 C 1565.79 1.47565 -0.63884 0
M  V30 16976 O 1566.98 1.48731 -0.906895 0
M  V30 16977 C 1564.11 2.85045 -1.86981 0
M  V30 16978 H 1565.31 1.25629 -2.72319 0
M  V30 16979 H 1562.86 0.620497 -1.43456 0
M  V30 16980 H 1563.6 3.1052 -0.935296 0
M  V30 16981 H 1563.38 2.85136 -2.69147 0
M  V30 16982 H 1564.87 3.62492 -2.07338 0
M  V30 16983 N 1565.31 1.43698 0.647203 0
M  V30 16984 C 1566.24 1.45295 1.77262 0
M  V30 16985 C 1567.25 0.34831 1.5903 0
M  V30 16986 O 1568.44 0.613106 1.6764 0
M  V30 16987 C 1565.54 1.25584 3.14773 0
M  V30 16988 C 1564.71 2.48998 3.59609 0
M  V30 16989 C 1563.77 2.24423 4.75942 0
M  V30 16990 O 1562.8 2.97813 4.85073 0
M  V30 16991 N 1564 1.26465 5.66557 0
M  V30 16992 H 1566.77 2.42311 1.76368 0
M  V30 16993 H 1564.33 1.38931 0.831247 0
M  V30 16994 H 1566.32 1.07016 3.90294 0
M  V30 16995 H 1564.89 0.369927 3.10403 0
M  V30 16996 H 1564.11 2.82951 2.74467 0
M  V30 16997 H 1565.4 3.31119 3.86313 0
M  V30 16998 H 1564.8 0.658206 5.61858 0
M  V30 16999 H 1563.35 1.13879 6.41775 0
M  V30 17000 N 1566.79 -0.886131 1.30328 0
M  V30 17001 C 1568.01 -1.67099 1.22007 0
M  V30 17002 C 1568.43 -1.87546 -0.217255 0
M  V30 17003 O 1567.79 -1.42213 -1.14375 0
M  V30 17004 C 1567.84 -3.048 1.94368 0
M  V30 17005 O 1567.56 -2.85277 3.32489 0
M  V30 17006 C 1569.06 -3.99231 1.9269 0
M  V30 17007 H 1566.28 -0.521467 0.422271 0
M  V30 17008 H 1568.82 -1.1072 1.71934 0
M  V30 17009 H 1566.98 -3.57915 1.48242 0
M  V30 17010 H 1567.39 -3.72626 3.69121 0
M  V30 17011 H 1568.87 -4.93223 2.47861 0
M  V30 17012 H 1569.34 -4.29763 0.905558 0
M  V30 17013 H 1569.95 -3.52051 2.38621 0
M  V30 17014 N 1568.26 -1.13026 -1.09832 0
M  V30 17015 C 1569.51 -0.889419 -1.81922 0
M  V30 17016 C 1569.84 0.584572 -1.85507 0
M  V30 17017 O 1569.09 1.44844 -1.316 0
M  V30 17018 C 1569.39 -1.41718 -3.28102 0
M  V30 17019 C 1569.06 -2.90729 -3.44655 0
M  V30 17020 C 1567.72 -3.31415 -3.48881 0
M  V30 17021 C 1570.07 -3.86619 -3.49536 0
M  V30 17022 C 1567.4 -4.66683 -3.55561 0
M  V30 17023 C 1569.75 -5.21726 -3.5775 0
M  V30 17024 C 1568.42 -5.61945 -3.60242 0
M  V30 17025 H 1567.69 -0.325461 -0.6657 0
M  V30 17026 H 1570.33 -1.4115 -1.29418 0
M  V30 17027 H 1568.64 -0.815709 -3.83215 0
M  V30 17028 H 1570.34 -1.20696 -3.82405 0
M  V30 17029 H 1566.93 -2.58266 -3.42048 0
M  V30 17030 H 1571.11 -3.56276 -3.45516 0
M  V30 17031 H 1566.37 -4.97226 -3.55776 0
M  V30 17032 H 1570.54 -5.95847 -3.60471 0
M  V30 17033 H 1568.17 -6.66749 -3.65171 0
M  V30 17034 N 1569.74 1.27735 -0.923117 0
M  V30 17035 C 1570.99 1.94185 -0.56004 0
M  V30 17036 C 1571.31 1.72945 0.90084 0
M  V30 17037 O 1570.58 1.07453 1.63801 0
M  V30 17038 H 1569.16 0.718568 -0.204129 0
M  V30 17039 H 1571.82 1.55535 -1.17451 0
M  V30 17040 H 1570.92 3.02644 -0.762424 0
M  V30 17041 N 1571.22 0.688118 1.41784 0
M  V30 17042 C 1572.47 0.215517 2.00948 0
M  V30 17043 C 1572.79 -1.18656 1.54744 0
M  V30 17044 O 1572.06 -1.79925 0.774831 0
M  V30 17045 H 1570.64 0.0766876 0.743053 0
M  V30 17046 H 1573.3 0.88761 1.73515 0
M  V30 17047 H 1572.4 0.227139 3.11272 0
M  V30 17048 N 1572.7 -1.51554 0.432352 0
M  V30 17049 C 1573.95 -2.01232 -0.137255 0
M  V30 17050 C 1574.26 -1.32135 -1.44221 0
M  V30 17051 O 1575.47 -1.72756 -2.09446 0
M  V30 17052 C 1573.92 -3.58688 -0.295152 0
M  V30 17053 C 1573.53 -4.36718 0.999072 0
M  V30 17054 C 1575.27 -4.16528 -0.818798 0
M  V30 17055 C 1573.18 -5.85867 0.80709 0
M  V30 17056 H 1572.11 -0.751986 -0.0550696 0
M  V30 17057 H 1574.76 -1.74703 0.561352 0
M  V30 17058 H 1573.14 -3.81643 -1.05664 0
M  V30 17059 H 1574.32 -4.25512 1.76851 0
M  V30 17060 H 1572.63 -3.90306 1.45087 0
M  V30 17061 H 1575.23 -5.25664 -0.978841 0
M  V30 17062 H 1575.57 -3.75379 -1.79989 0
M  V30 17063 H 1576.11 -3.97632 -0.11575 0
M  V30 17064 H 1572.85 -6.31419 1.76041 0
M  V30 17065 H 1572.37 -5.9975 0.0773617 0
M  V30 17066 H 1574.04 -6.45375 0.458328 0
M  V30 17067 N 1574.18 -0.163538 -1.56749 0
M  V30 17068 C 1575.12 0.769787 -2.17584 0
M  V30 17069 C 1576.09 1.23246 -1.11354 0
M  V30 17070 O 1577.28 1.30203 -1.3947 0
M  V30 17071 C 1574.42 1.99685 -2.81461 0
M  V30 17072 C 1573.53 1.57846 -4.0213 0
M  V30 17073 C 1572.67 2.75858 -4.53955 0
M  V30 17074 C 1571.71 2.30473 -5.67053 0
M  V30 17075 N 1570.84 3.41551 -6.13423 0
M  V30 17076 H 1575.68 0.244221 -2.96998 0
M  V30 17077 H 1573.22 0.108821 -1.46697 0
M  V30 17078 H 1575.18 2.71643 -3.16648 0
M  V30 17079 H 1573.81 2.49624 -2.04664 0
M  V30 17080 H 1572.86 0.755907 -3.72814 0
M  V30 17081 H 1574.17 1.20525 -4.8402 0
M  V30 17082 H 1573.33 3.55984 -4.91284 0
M  V30 17083 H 1572.06 3.16434 -3.71107 0
M  V30 17084 H 1571.07 1.48791 -5.29284 0
M  V30 17085 H 1572.29 1.90964 -6.51698 0
M  V30 17086 H 1570.24 3.81717 -5.33506 0
M  V30 17087 H 1570.16 3.08298 -6.90281 0
M  V30 17088 H 1571.43 4.21985 -6.554 0
M  V30 17089 N 1575.65 1.57214 0.110213 0
M  V30 17090 C 1577.07 1.52706 0.464004 0
M  V30 17091 C 1577.27 0.87792 1.81369 0
M  V30 17092 O 1576.33 0.463987 2.482 0
M  V30 17093 C 1577.64 2.97457 0.440406 0
M  V30 17094 C 1579.19 3.08594 0.523336 0
M  V30 17095 C 1579.66 4.54923 0.53004 0
M  V30 17096 N 1581.15 4.59411 0.591228 0
M  V30 17097 C 1581.89 5.7006 0.618007 0
M  V30 17098 N 1581.38 6.9018 0.601901 0
M  V30 17099 N 1583.18 5.58192 0.661679 0
M  V30 17100 H 1575.33 1.97794 -0.77403 0
M  V30 17101 H 1577.59 0.903673 -0.286496 0
M  V30 17102 H 1577.3 3.48356 -0.483845 0
M  V30 17103 H 1577.17 3.55356 1.26498 0
M  V30 17104 H 1579.56 2.57692 1.43801 0
M  V30 17105 H 1579.64 2.53674 -0.329095 0
M  V30 17106 H 1579.28 5.06472 -0.380623 0
M  V30 17107 H 1579.21 5.07663 1.39948 0
M  V30 17108 H 1581.7 3.72953 0.609483 0
M  V30 17109 H 1582.02 7.70267 0.6252 0
M  V30 17110 H 1580.36 6.92665 0.569186 0
M  V30 17111 H 1583.55 4.63256 0.671686 0
M  V30 17112 H 1583.73 6.44432 0.67908 0
M  V30 17113 N 1577.13 -0.380637 1.52934 0
M  V30 17114 C 1578.41 -1.13958 1.58975 0
M  V30 17115 C 1578.79 -2.07503 0.388028 0
M  V30 17116 O 1578.14 -2.19844 -0.622984 0
M  V30 17117 C 1578.35 -1.89192 2.9327 0
M  V30 17118 C 1579.7 -2.44259 3.47308 0
M  V30 17119 O 1580.72 -1.99338 2.95199 0
M  V30 17120 O 1579.58 -3.26338 4.38367 0
M  V30 17121 H 1576.67 -0.521896 0.641525 0
M  V30 17122 H 1579.22 -0.385114 1.65272 0
M  V30 17123 H 1577.99 -1.20834 3.72176 0
M  V30 17124 H 1577.61 -2.71581 2.90395 0
M  V30 17125 N 1578.61 -1.44039 -0.639573 0
M  V30 17126 C 1580.03 -1.2774 -0.956802 0
M  V30 17127 C 1580.23 -0.207018 -2.00434 0
M  V30 17128 O 1579.28 0.409954 -2.4915 0
M  V30 17129 C 1580.6 -2.64624 -1.42809 0
M  V30 17130 C 1582.14 -2.72266 -1.54402 0
M  V30 17131 C 1582.62 -4.09601 -2.04918 0
M  V30 17132 N 1584.11 -4.11735 -2.122 0
M  V30 17133 C 1584.84 -5.14842 -2.52439 0
M  V30 17134 N 1584.34 -6.28316 -2.91875 0
M  V30 17135 N 1586.13 -5.02196 -2.52499 0
M  V30 17136 H 1578.28 -2.12333 0.0533569 0
M  V30 17137 H 1580.55 -0.947208 -0.0387401 0
M  V30 17138 H 1580.25 -3.43983 -0.732728 0
M  V30 17139 H 1580.13 -2.90944 -2.40066 0
M  V30 17140 H 1582.51 -1.93232 -2.23037 0
M  V30 17141 H 1582.6 -2.49697 -0.555426 0
M  V30 17142 H 1582.24 -4.89108 -1.3688 0
M  V30 17143 H 1582.17 -4.29542 -3.04633 0
M  V30 17144 H 1584.66 -3.29833 -1.84441 0
M  V30 17145 H 1584.97 -7.0281 -3.21368 0
M  V30 17146 H 1583.32 -6.31767 -2.89647 0
M  V30 17147 H 1586.51 -4.12606 -2.21075 0
M  V30 17148 H 1586.68 -5.82677 -2.83535 0
M  V30 17149 N 1580.09 0.879207 -1.30796 0
M  V30 17150 C 1581.05 1.96707 -1.17639 0
M  V30 17151 C 1582.05 1.6045 -0.106013 0
M  V30 17152 O 1583.24 1.70553 -0.354573 0
M  V30 17153 C 1580.37 3.31292 -0.803625 0
M  V30 17154 H 1581.57 2.09806 -2.14293 0
M  V30 17155 H 1579.12 1.06634 -1.14276 0
M  V30 17156 H 1579.85 3.23894 0.162159 0
M  V30 17157 H 1579.64 3.58979 -1.57723 0
M  V30 17158 H 1581.13 4.11077 -0.735201 0
M  V30 17159 N 1581.57 1.13606 1.09231 0
M  V30 17160 C 1582.98 0.91148 1.62938 0
M  V30 17161 C 1583.33 -0.55157 1.88287 0
M  V30 17162 O 1582.45 -1.4187 1.63407 0
M  V30 17163 C 1583.05 1.64812 2.96011 0
M  V30 17164 C 1581.61 1.46935 3.46536 0
M  V30 17165 C 1580.76 1.67605 2.20916 0
M  V30 17166 H 1583.71 1.28907 0.925669 0
M  V30 17167 H 1583.73 1.10638 3.6406 0
M  V30 17168 H 1583.24 2.71291 2.77529 0
M  V30 17169 H 1581.34 0.427667 3.70138 0
M  V30 17170 H 1581.45 2.23374 4.2384 0
M  V30 17171 H 1579.82 1.10105 2.29672 0
M  V30 17172 H 1580.6 2.75408 2.04952 0
M  V30 17173 N 1583.05 -1.27244 0.929878 0
M  V30 17174 C 1584.29 -1.94269 0.57146 0
M  V30 17175 C 1584.62 -1.73064 -0.887639 0
M  V30 17176 O 1583.88 -1.05422 -1.64878 0
M  V30 17177 C 1584.17 -3.47233 0.846386 0
M  V30 17178 C 1583.84 -3.88563 2.28757 0
M  V30 17179 C 1582.5 -3.99557 2.68156 0
M  V30 17180 C 1584.85 -4.09468 3.22467 0
M  V30 17181 C 1582.18 -4.28846 4.00385 0
M  V30 17182 C 1584.53 -4.40242 4.54279 0
M  V30 17183 C 1583.2 -4.4945 4.93509 0
M  V30 17184 H 1582.47 -0.710882 0.209112 0
M  V30 17185 H 1585.12 -1.51273 1.17425 0
M  V30 17186 H 1583.42 -3.91469 0.160941 0
M  V30 17187 H 1585.12 -3.97238 0.548006 0
M  V30 17188 H 1581.71 -3.80544 1.97192 0
M  V30 17189 H 1585.89 -4.00412 2.9323 0
M  V30 17190 H 1581.15 -4.34184 4.30458 0
M  V30 17191 H 1585.32 -4.55365 5.26892 0
M  V30 17192 H 1582.95 -4.71899 5.95999 0
M  V30 17193 N 1584.52 -0.695628 -1.41417 0
M  V30 17194 C 1585.77 -0.223719 -2.00455 0
M  V30 17195 C 1586.09 1.18352 -1.55731 0
M  V30 17196 O 1587.29 1.7529 -2.0733 0
M  V30 17197 C 1585.75 -0.349076 -3.58203 0
M  V30 17198 C 1585.36 -1.76168 -4.11909 0
M  V30 17199 C 1587.1 0.0630563 -4.24453 0
M  V30 17200 C 1585.01 -1.83869 -5.62091 0
M  V30 17201 H 1583.94 -0.0798833 -0.749756 0
M  V30 17202 H 1586.59 -0.863834 -1.61896 0
M  V30 17203 H 1584.97 0.35929 -3.94367 0
M  V30 17204 H 1586.14 -2.49881 -3.87164 0
M  V30 17205 H 1584.46 -2.1235 -3.58185 0
M  V30 17206 H 1587.06 0.0259584 -5.34694 0
M  V30 17207 H 1587.4 1.10179 -4.01455 0
M  V30 17208 H 1587.93 -0.595036 -3.93324 0
M  V30 17209 H 1584.67 -2.85796 -5.89916 0
M  V30 17210 H 1584.19 -1.14541 -5.88762 0
M  V30 17211 H 1585.87 -1.60161 -6.26863 0
M  V30 17212 N 1586 1.51322 -0.440383 0
M  V30 17213 C 1587.25 2.02113 0.125062 0
M  V30 17214 C 1587.58 1.32436 1.42446 0
M  V30 17215 O 1586.83 0.428981 1.9094 0
M  V30 17216 C 1587.13 3.55287 0.388079 0
M  V30 17217 C 1586.8 4.43272 -0.825876 0
M  V30 17218 C 1585.46 4.67039 -1.15878 0
M  V30 17219 C 1587.81 4.94872 -1.63557 0
M  V30 17220 C 1585.14 5.39652 -2.30201 0
M  V30 17221 C 1587.49 5.68739 -2.76981 0
M  V30 17222 C 1586.15 5.90769 -3.10722 0
M  V30 17223 H 1585.42 0.739585 0.0457635 0
M  V30 17224 H 1588.07 1.82243 -0.588201 0
M  V30 17225 H 1586.38 3.73505 1.18327 0
M  V30 17226 H 1588.07 3.92124 0.839055 0
M  V30 17227 H 1584.66 4.24972 -0.556468 0
M  V30 17228 H 1588.85 4.76391 -1.39158 0
M  V30 17229 H 1584.1 5.54923 -2.56653 0
M  V30 17230 H 1588.28 6.07711 -3.40089 0
M  V30 17231 H 1585.9 6.46814 -3.9942 0
M  V30 17232 N 1587.48 0.171848 1.5666 0
M  V30 17233 C 1588.71 -0.479221 2.01274 0
M  V30 17234 C 1589.12 -1.56771 1.05206 0
M  V30 17235 O 1588.48 -1.82423 0.0530164 0
M  V30 17236 C 1588.53 -1.05705 3.457 0
M  V30 17237 O 1588.25 -0.0120133 4.38098 0
M  V30 17238 C 1589.75 -1.78629 4.05717 0
M  V30 17239 H 1586.97 -0.122598 0.659705 0
M  V30 17240 H 1589.52 0.273733 2.0266 0
M  V30 17241 H 1587.67 -1.7605 3.45087 0
M  V30 17242 H 1588.09 -0.438714 5.22662 0
M  V30 17243 H 1589.56 -2.14319 5.08696 0
M  V30 17244 H 1590.04 -2.68149 3.4784 0
M  V30 17245 H 1590.64 -1.12925 4.10034 0
M  V30 17246 N 1588.96 -1.5727 -0.101874 0
M  V30 17247 C 1590.18 -1.90319 -0.824215 0
M  V30 17248 C 1590.61 -0.765469 -1.7182 0
M  V30 17249 O 1589.97 0.283275 -1.79073 0
M  V30 17250 C 1590.01 -3.22201 -1.61922 0
M  V30 17251 O 1589.12 -3.09313 -2.72762 0
M  V30 17252 H 1588.46 -0.624042 -0.226864 0
M  V30 17253 H 1590.99 -2.04447 -0.0791314 0
M  V30 17254 H 1591 -3.55343 -2.00487 0
M  V30 17255 H 1589.67 -4.04596 -0.963078 0
M  V30 17256 H 1588.25 -2.87672 -2.37274 0
M  V30 17257 N 1590.44 0.372521 -1.53134 0
M  V30 17258 C 1591.35 1.47994 -1.8203 0
M  V30 17259 C 1592.36 1.58937 -0.708179 0
M  V30 17260 O 1593.54 1.74962 -0.997511 0
M  V30 17261 C 1590.6 2.83342 -1.99796 0
M  V30 17262 C 1589.66 2.81984 -3.23702 0
M  V30 17263 C 1588.9 4.10877 -3.40611 0
M  V30 17264 O 1589.12 5.06686 -2.61964 0
M  V30 17265 O 1588.05 4.17111 -4.33938 0
M  V30 17266 H 1591.88 1.26501 -2.761 0
M  V30 17267 H 1589.46 0.561957 -1.38428 0
M  V30 17268 H 1591.35 3.63551 -2.13092 0
M  V30 17269 H 1590.02 3.04826 -1.08916 0
M  V30 17270 H 1588.93 2.00498 -3.15834 0
M  V30 17271 H 1590.26 2.65453 -4.14482 0
M  V30 17272 N 1591.91 1.44376 0.631925 0
M  V30 17273 C 1592.85 1.45649 1.75675 0
M  V30 17274 C 1593.82 0.31542 1.59511 0
M  V30 17275 O 1595.01 0.512271 1.81406 0
M  V30 17276 C 1592.14 1.2884 3.13238 0
M  V30 17277 C 1591.18 2.46499 3.48053 0
M  V30 17278 S 1592.01 4.0903 3.45622 0
M  V30 17279 C 1593.17 3.94643 4.85807 0
M  V30 17280 H 1593.4 2.40825 1.74328 0
M  V30 17281 H 1590.94 1.31664 0.806467 0
M  V30 17282 H 1592.89 1.19829 3.92621 0
M  V30 17283 H 1591.56 0.351754 3.12124 0
M  V30 17284 H 1590.75 2.30599 4.48152 0
M  V30 17285 H 1590.35 2.52245 2.76131 0
M  V30 17286 H 1592.64 3.58283 5.75012 0
M  V30 17287 H 1593.59 4.94569 5.06761 0
M  V30 17288 H 1593.99 3.26717 4.60343 0
M  V30 17289 N 1593.39 -0.872258 1.31261 0
M  V30 17290 C 1594.3 -2.01185 1.20673 0
M  V30 17291 C 1595.32 -1.73558 0.123921 0
M  V30 17292 O 1596.49 -1.98487 0.341288 0
M  V30 17293 C 1593.56 -3.34481 0.91232 0
M  V30 17294 C 1592.62 -3.75446 2.08179 0
M  V30 17295 C 1591.85 -5.02382 1.80134 0
M  V30 17296 O 1592.08 -5.6564 0.735358 0
M  V30 17297 O 1591.01 -5.40059 2.65744 0
M  V30 17298 H 1594.84 -2.13049 2.16434 0
M  V30 17299 H 1592.42 -1.00021 1.10978 0
M  V30 17300 H 1594.3 -4.14419 0.763879 0
M  V30 17301 H 1592.98 -3.23696 -0.0152802 0
M  V30 17302 H 1591.88 -2.96159 2.28562 0
M  V30 17303 H 1593.22 -3.90853 2.99156 0
M  V30 17304 N 1594.87 -1.14184 -1.08627 0
M  V30 17305 C 1596.1 -0.930752 -1.84447 0
M  V30 17306 C 1596.51 0.524072 -1.81797 0
M  V30 17307 O 1595.85 1.37483 -1.21836 0
M  V30 17308 C 1595.91 -1.35125 -3.33139 0
M  V30 17309 C 1595.58 -2.82117 -3.59526 0
M  V30 17310 C 1596.57 -3.80242 -3.54559 0
M  V30 17311 C 1594.26 -3.19475 -3.87609 0
M  V30 17312 C 1596.25 -5.13734 -3.77301 0
M  V30 17313 C 1593.94 -4.53144 -4.10005 0
M  V30 17314 C 1594.94 -5.50082 -4.04844 0
M  V30 17315 O 1594.63 -6.81339 -4.26653 0
M  V30 17316 H 1594.36 -0.331385 -0.589203 0
M  V30 17317 H 1596.91 -1.52033 -1.38113 0
M  V30 17318 H 1595.14 -0.704995 -3.80219 0
M  V30 17319 H 1596.83 -1.11133 -3.9039 0
M  V30 17320 H 1597.6 -3.52726 -3.32881 0
M  V30 17321 H 1593.48 -2.44617 -3.90747 0
M  V30 17322 H 1597.02 -5.89386 -3.73188 0
M  V30 17323 H 1592.92 -4.80381 -4.31166 0
M  V30 17324 H 1593.68 -6.87563 -4.44071 0
M  V30 17325 N 1596.35 1.26749 -0.936613 0
M  V30 17326 C 1597.6 1.93964 -0.581754 0
M  V30 17327 C 1597.92 1.73532 0.878449 0
M  V30 17328 O 1597.18 1.06295 1.64316 0
M  V30 17329 C 1597.48 3.4678 -0.864789 0
M  V30 17330 C 1597.14 3.87344 -2.30815 0
M  V30 17331 C 1595.81 3.98129 -2.70271 0
M  V30 17332 C 1598.16 4.07752 -3.24634 0
M  V30 17333 C 1595.49 4.26717 -4.02653 0
M  V30 17334 C 1597.84 4.37827 -4.56607 0
M  V30 17335 C 1596.5 4.46826 -4.95886 0
M  V30 17336 H 1595.77 0.709763 -0.212879 0
M  V30 17337 H 1598.42 1.50648 -1.18226 0
M  V30 17338 H 1596.72 3.91378 -0.181699 0
M  V30 17339 H 1598.42 3.96942 -0.569065 0
M  V30 17340 H 1595.01 3.79492 -1.99207 0
M  V30 17341 H 1599.19 3.98852 -2.95349 0
M  V30 17342 H 1594.45 4.31895 -4.32755 0
M  V30 17343 H 1598.62 4.52565 -5.293 0
M  V30 17344 H 1596.25 4.68732 -5.98494 0
M  V30 17345 N 1597.83 0.703118 1.41046 0
M  V30 17346 C 1599.08 0.234346 2.00334 0
M  V30 17347 C 1599.39 -1.17524 1.56357 0
M  V30 17348 O 1600.59 -1.74188 2.08257 0
M  V30 17349 C 1599.05 0.368067 3.58013 0
M  V30 17350 C 1598.66 1.7835 4.10969 0
M  V30 17351 C 1600.4 -0.0405456 4.24481 0
M  V30 17352 C 1598.31 1.86848 5.61108 0
M  V30 17353 H 1597.24 0.0838583 0.749322 0
M  V30 17354 H 1599.89 0.872407 1.61435 0
M  V30 17355 H 1598.27 -0.338371 3.94552 0
M  V30 17356 H 1599.45 2.51931 3.85833 0
M  V30 17357 H 1597.76 2.14246 3.57054 0
M  V30 17358 H 1600.36 0.00239803 5.347 0
M  V30 17359 H 1600.7 -1.08049 4.02034 0
M  V30 17360 H 1601.23 0.615887 3.93003 0
M  V30 17361 H 1597.97 2.8892 5.88392 0
M  V30 17362 H 1597.49 1.17662 5.88146 0
M  V30 17363 H 1599.17 1.63484 6.26005 0
M  V30 17364 N 1599.3 -1.51086 0.448402 0
M  V30 17365 C 1600.53 -2.06593 -0.112695 0
M  V30 17366 C 1600.95 -1.31471 -1.35502 0
M  V30 17367 O 1600.3 -0.377406 -1.78555 0
M  V30 17368 C 1600.36 -3.59008 -0.423769 0
M  V30 17369 O 1600.08 -4.31293 0.769259 0
M  V30 17370 C 1601.58 -4.31064 -1.03433 0
M  V30 17371 H 1598.8 -0.670993 -0.00301626 0
M  V30 17372 H 1601.34 -1.94532 0.630667 0
M  V30 17373 H 1599.5 -3.70946 -1.11704 0
M  V30 17374 H 1599.91 -5.2211 0.500162 0
M  V30 17375 H 1601.38 -5.38756 -1.20191 0
M  V30 17376 H 1601.86 -3.90075 -2.01837 0
M  V30 17377 H 1602.47 -4.23598 -0.380115 0
M  V30 17378 N 1600.78 -0.180154 -1.56567 0
M  V30 17379 C 1601.69 0.758959 -2.21984 0
M  V30 17380 C 1602.71 1.24631 -1.21422 0
M  V30 17381 O 1603.88 1.29659 -1.54112 0
M  V30 17382 C 1600.95 1.96744 -2.85469 0
M  V30 17383 C 1600.01 1.52612 -4.01258 0
M  V30 17384 C 1599.24 2.677 -4.61706 0
M  V30 17385 O 1599.47 3.84799 -4.21054 0
M  V30 17386 O 1598.4 2.41269 -5.51428 0
M  V30 17387 H 1602.23 0.231919 -3.02813 0
M  V30 17388 H 1599.81 0.0484552 -1.49321 0
M  V30 17389 H 1601.69 2.67404 -3.25689 0
M  V30 17390 H 1600.37 2.48337 -2.0763 0
M  V30 17391 H 1599.28 0.78877 -3.6569 0
M  V30 17392 H 1600.61 1.05701 -4.80716 0
M  V30 17393 N 1602.26 1.57322 0.0935319 0
M  V30 17394 C 1603.51 1.858 0.795165 0
M  V30 17395 C 1603.83 0.769078 1.79193 0
M  V30 17396 O 1603.1 -0.204511 1.9483 0
M  V30 17397 H 1601.68 0.68557 0.296653 0
M  V30 17398 H 1604.34 1.94756 0.0747892 0
M  V30 17399 H 1603.44 2.82588 1.32479 0
M  V30 17400 N 1603.74 -0.364395 1.53329 0
M  V30 17401 C 1604.99 -1.10473 1.69234 0
M  V30 17402 C 1605.31 -1.89799 0.447347 0
M  V30 17403 O 1604.58 -1.8835 -0.538612 0
M  V30 17404 H 1603.16 -0.410826 0.623884 0
M  V30 17405 H 1605.82 -0.410721 1.90523 0
M  V30 17406 H 1604.92 -1.79387 2.55396 0
M  V30 17407 N 1605.22 -1.44709 -0.62426 0
M  V30 17408 C 1606.16 -1.52104 -1.73589 0
M  V30 17409 C 1607.13 -0.368193 -1.61968 0
M  V30 17410 O 1608.32 -0.579374 -1.81791 0
M  V30 17411 C 1605.46 -1.4778 -3.11857 0
M  V30 17412 C 1604.57 -2.73491 -3.34405 0
M  V30 17413 C 1603.71 -2.60953 -4.62685 0
M  V30 17414 C 1602.75 -3.81795 -4.78434 0
M  V30 17415 N 1601.88 -3.67892 -5.97997 0
M  V30 17416 H 1606.72 -2.47077 -1.66604 0
M  V30 17417 H 1604.26 -1.22617 -0.812616 0
M  V30 17418 H 1606.22 -1.43263 -3.91831 0
M  V30 17419 H 1604.85 -0.563694 -3.1784 0
M  V30 17420 H 1603.9 -2.88166 -2.48324 0
M  V30 17421 H 1605.21 -3.6317 -3.4192 0
M  V30 17422 H 1604.37 -2.54308 -5.50829 0
M  V30 17423 H 1603.1 -1.68846 -4.57539 0
M  V30 17424 H 1602.11 -3.88817 -3.88717 0
M  V30 17425 H 1603.33 -4.74947 -4.85388 0
M  V30 17426 H 1601.28 -2.78541 -5.93928 0
M  V30 17427 H 1601.2 -4.51193 -6.06598 0
M  V30 17428 H 1602.47 -3.6515 -6.88684 0
M  V30 17429 N 1606.69 0.865285 -1.31722 0
M  V30 17430 C 1607.64 1.99433 -1.19704 0
M  V30 17431 C 1608.64 1.69079 -0.104255 0
M  V30 17432 O 1609.84 1.78017 -0.266466 0
M  V30 17433 H 1606.22 0.654244 -0.370768 0
M  V30 17434 H 1608.19 2.06699 -2.15216 0
M  V30 17435 C 1606.94 3.35142 -0.926027 0
M  V30 17436 H 1606.26 3.59022 -1.75906 0
M  V30 17437 H 1607.7 4.14722 -0.88214 0
M  V30 17438 C 1606.16 3.34848 0.37124 0
M  V30 17439 O 1606.69 3.77012 1.38654 0
M  V30 17440 N 1604.9 2.87979 0.389441 0
M  V30 17441 H 1604.44 2.53861 -0.437293 0
M  V30 17442 H 1604.4 2.88165 1.25731 0
M  V30 17443 N 1608.17 1.14759 1.0802 0
M  V30 17444 C 1609.58 0.928711 1.61963 0
M  V30 17445 C 1609.93 -0.531568 1.88862 0
M  V30 17446 O 1609.06 -1.40129 1.64902 0
M  V30 17447 C 1609.65 1.67943 2.94246 0
M  V30 17448 C 1608.21 1.50602 3.44958 0
M  V30 17449 C 1607.36 1.69938 2.19126 0
M  V30 17450 H 1610.31 1.29882 0.911945 0
M  V30 17451 H 1610.33 1.14493 3.62866 0
M  V30 17452 H 1609.84 2.7422 2.74636 0
M  V30 17453 H 1607.95 0.466901 3.69663 0
M  V30 17454 H 1608.06 2.27857 4.21447 0
M  V30 17455 H 1606.42 1.12534 2.28491 0
M  V30 17456 H 1607.21 2.77566 2.0202 0
M  V30 17457 N 1609.65 -1.26251 0.943322 0
M  V30 17458 C 1610.58 -2.25468 0.411904 0
M  V30 17459 C 1611.6 -1.55988 -0.466005 0
M  V30 17460 O 1612.78 -1.76352 -0.276106 0
M  V30 17461 C 1609.88 -3.362 -0.426909 0
M  V30 17462 C 1609.06 -4.35228 0.435346 0
M  V30 17463 C 1608.12 -5.25078 -0.343388 0
M  V30 17464 O 1607.14 -5.68632 0.254322 0
M  V30 17465 N 1608.34 -5.5687 -1.63939 0
M  V30 17466 H 1611.11 -2.71701 1.26486 0
M  V30 17467 H 1608.67 -1.40039 0.812438 0
M  V30 17468 H 1610.66 -3.93263 -0.955316 0
M  V30 17469 H 1609.23 -2.89446 -1.18067 0
M  V30 17470 H 1608.45 -3.77206 1.14495 0
M  V30 17471 H 1609.74 -4.98384 1.02427 0
M  V30 17472 H 1609.14 -5.2337 -2.14709 0
M  V30 17473 H 1607.7 -6.16566 -2.11399 0
M  V30 17474 N 1611.13 -0.710588 -1.40671 0
M  V30 17475 C 1612.08 -0.031353 -2.27978 0
M  V30 17476 C 1613.06 0.737643 -1.42995 0
M  V30 17477 O 1614.26 0.610666 -1.66132 0
M  V30 17478 C 1611.38 0.893329 -3.31473 0
M  V30 17479 C 1610.47 0.119785 -4.23931 0
M  V30 17480 N 1610.86 -0.894341 -4.9783 0
M  V30 17481 C 1609.16 0.353077 -4.446 0
M  V30 17482 C 1609.86 -1.3587 -5.6561 0
M  V30 17483 N 1608.84 -0.681786 -5.39308 0
M  V30 17484 H 1612.64 -0.808683 -2.82555 0
M  V30 17485 H 1610.15 -0.542734 -1.53063 0
M  V30 17486 H 1612.15 1.39521 -3.92861 0
M  V30 17487 H 1610.81 1.67009 -2.78457 0
M  V30 17488 H 1611.82 -1.27504 -5.01959 0
M  V30 17489 H 1608.5 1.10655 -4.02569 0
M  V30 17490 H 1609.89 -2.20108 -6.34825 0
M  V30 17491 N 1612.61 1.50847 -0.456408 0
M  V30 17492 C 1613.85 2.02235 0.103618 0
M  V30 17493 C 1614.18 1.33939 1.41034 0
M  V30 17494 O 1613.44 0.449209 1.90475 0
M  V30 17495 C 1613.74 3.55678 0.350374 0
M  V30 17496 C 1613.4 4.42371 -0.872844 0
M  V30 17497 C 1612.06 4.65784 -1.20825 0
M  V30 17498 C 1614.42 4.9311 -1.68797 0
M  V30 17499 C 1611.74 5.3718 -2.35911 0
M  V30 17500 C 1614.1 5.65769 -2.82998 0
M  V30 17501 C 1612.76 5.8744 -3.16971 0
M  V30 17502 H 1612.03 0.740029 0.0379167 0
M  V30 17503 H 1614.68 1.81609 -0.607497 0
M  V30 17504 H 1612.98 3.74739 1.14359 0
M  V30 17505 H 1614.68 3.92991 0.797418 0
M  V30 17506 H 1611.27 4.24358 -0.601511 0
M  V30 17507 H 1615.45 4.74889 -1.44203 0
M  V30 17508 H 1610.71 5.52169 -2.62524 0
M  V30 17509 H 1614.88 6.04069 -3.46516 0
M  V30 17510 H 1612.51 6.42541 -4.06258 0
M  V30 17511 N 1614.09 0.188454 1.56469 0
M  V30 17512 C 1615.02 -0.766806 2.15992 0
M  V30 17513 C 1616.03 -1.18153 1.11998 0
M  V30 17514 O 1617.22 -1.11842 1.39118 0
M  V30 17515 C 1614.32 -2.04594 2.70175 0
M  V30 17516 C 1613.49 -1.79207 3.99003 0
M  V30 17517 C 1612.55 -2.91504 4.38078 0
M  V30 17518 O 1611.58 -2.61397 5.05628 0
M  V30 17519 N 1612.78 -4.19702 4.01037 0
M  V30 17520 H 1615.54 -0.257829 2.98589 0
M  V30 17521 H 1613.11 0.00625645 1.61899 0
M  V30 17522 H 1615.1 -2.78846 2.93303 0
M  V30 17523 H 1613.67 -2.46633 1.9207 0
M  V30 17524 H 1612.89 -0.88769 3.84075 0
M  V30 17525 H 1614.18 -1.59634 4.83109 0
M  V30 17526 H 1613.57 -4.47016 3.46689 0
M  V30 17527 H 1612.13 -4.90602 4.2913 0
M  V30 17528 N 1615.56 -1.5737 -0.0851874 0
M  V30 17529 C 1616.84 -1.77624 -0.819094 0
M  V30 17530 C 1617.22 -0.772645 -1.96452 0
M  V30 17531 O 1616.57 0.196912 -2.2765 0
M  V30 17532 C 1616.78 -3.23704 -1.30449 0
M  V30 17533 C 1618.13 -3.87163 -1.74328 0
M  V30 17534 O 1619.15 -3.27513 -1.40048 0
M  V30 17535 O 1618.01 -4.92075 -2.37748 0
M  V30 17536 H 1615.1 -0.728487 -0.391453 0
M  V30 17537 H 1617.65 -1.6957 -0.0663006 0
M  V30 17538 H 1616.42 -3.88292 -0.484277 0
M  V30 17539 H 1616.04 -3.36429 -2.119 0
M  V30 17540 N 1617.04 0.356258 -1.53521 0
M  V30 17541 C 1618.29 1.0979 -1.70154 0
M  V30 17542 C 1618.62 1.89028 -0.458124 0
M  V30 17543 O 1617.87 1.87516 0.560033 0
M  V30 17544 C 1618.17 2.07669 -2.90875 0
M  V30 17545 C 1617.84 1.4484 -4.27004 0
M  V30 17546 C 1616.5 1.27434 -4.64019 0
M  V30 17547 C 1618.85 0.994684 -5.1162 0
M  V30 17548 C 1616.18 0.632539 -5.8328 0
M  V30 17549 C 1618.53 0.366847 -6.31535 0
M  V30 17550 C 1617.19 0.180356 -6.67256 0
M  V30 17551 H 1616.46 0.401751 -0.622637 0
M  V30 17552 H 1619.11 0.378618 -1.8772 0
M  V30 17553 H 1617.42 2.85934 -2.6786 0
M  V30 17554 H 1619.11 2.65023 -3.00939 0
M  V30 17555 H 1615.7 1.59384 -3.97863 0
M  V30 17556 H 1619.89 1.11706 -4.83565 0
M  V30 17557 H 1615.14 0.476548 -6.0954 0
M  V30 17558 H 1619.32 0.00712378 -6.964 0
M  V30 17559 H 1616.94 -0.319016 -7.5953 0
M  V30 17560 N 1618.52 1.45038 0.616577 0
M  V30 17561 C 1619.77 1.48805 1.37786 0
M  V30 17562 C 1620.1 0.125811 1.93792 0
M  V30 17563 O 1619.37 -0.858544 1.74526 0
M  V30 17564 C 1619.66 2.56008 2.53242 0
M  V30 17565 C 1619.51 4.01643 2.02491 0
M  V30 17566 C 1620.83 2.59578 3.55398 0
M  V30 17567 H 1617.95 0.541776 0.499647 0
M  V30 17568 H 1620.59 1.76799 0.695859 0
M  V30 17569 H 1618.74 2.32269 3.11422 0
M  V30 17570 H 1620.41 4.36564 1.4903 0
M  V30 17571 H 1618.65 4.12728 1.33559 0
M  V30 17572 H 1619.33 4.72326 2.85679 0
M  V30 17573 H 1621.8 2.80826 3.07044 0
M  V30 17574 H 1620.68 3.36466 4.33684 0
M  V30 17575 H 1620.94 1.64325 4.10426 0
M  V30 17576 N 1620 -0.858287 1.32179 0
M  V30 17577 C 1620.91 -1.99894 1.228 0
M  V30 17578 C 1621.92 -1.73417 0.142323 0
M  V30 17579 O 1623.1 -1.98114 0.362321 0
M  V30 17580 C 1620.16 -3.33495 0.947745 0
M  V30 17581 C 1619.23 -3.73217 2.12149 0
M  V30 17582 C 1618.46 -5.00443 1.85452 0
M  V30 17583 O 1618.68 -5.64828 0.79531 0
M  V30 17584 O 1617.62 -5.3721 2.71457 0
M  V30 17585 H 1621.44 -2.10742 2.18682 0
M  V30 17586 H 1619.03 -0.988385 1.12033 0
M  V30 17587 H 1620.91 -4.13585 0.807791 0
M  V30 17588 H 1619.58 -3.23694 0.019053 0
M  V30 17589 H 1618.49 -2.93718 2.3169 0
M  V30 17590 H 1619.82 -3.87659 3.03285 0
M  V30 17591 N 1621.48 -1.1533 -1.07409 0
M  V30 17592 C 1622.41 -0.872476 -2.16587 0
M  V30 17593 C 1623.39 0.176683 -1.6918 0
M  V30 17594 O 1624.57 0.0311826 -1.94175 0
M  V30 17595 C 1621.7 -0.360342 -3.45426 0
M  V30 17596 C 1620.66 -1.34611 -4.06281 0
M  V30 17597 C 1619.98 -0.692848 -5.30192 0
M  V30 17598 C 1621.28 -2.71191 -4.46378 0
M  V30 17599 H 1622.98 -1.78546 -2.40336 0
M  V30 17600 H 1620.52 -0.859895 -1.15507 0
M  V30 17601 H 1622.47 -0.151429 -4.21128 0
M  V30 17602 H 1621.2 0.588109 -3.21261 0
M  V30 17603 H 1619.86 -1.54137 -3.32622 0
M  V30 17604 H 1619.51 0.261732 -5.02319 0
M  V30 17605 H 1619.21 -1.35071 -5.71865 0
M  V30 17606 H 1620.73 -0.493695 -6.08601 0
M  V30 17607 H 1622.14 -2.55513 -5.13212 0
M  V30 17608 H 1620.54 -3.33345 -4.99 0
M  V30 17609 H 1621.61 -3.273 -3.57775 0
M  V30 17610 N 1622.95 1.25748 -0.950004 0
M  V30 17611 C 1624.19 1.95089 -0.609896 0
M  V30 17612 C 1624.56 1.72802 0.836865 0
M  V30 17613 O 1625.76 2.36023 1.28634 0
M  V30 17614 C 1624.03 3.44452 -0.953294 0
M  V30 17615 S 1625.59 4.32768 -0.725062 0
M  V30 17616 H 1622.41 0.674683 -0.224331 0
M  V30 17617 H 1625.01 1.52506 -1.2232 0
M  V30 17618 H 1623.71 3.58175 -2.00347 0
M  V30 17619 H 1623.24 3.92013 -0.330062 0
M  V30 17620 H 1625.26 4.94533 0.406435 0
M  V30 17621 N 1624.43 0.718038 1.40292 0
M  V30 17622 C 1625.67 0.263057 2.027 0
M  V30 17623 C 1626.04 -1.1233 1.55711 0
M  V30 17624 O 1627.24 -1.67541 2.10199 0
M  V30 17625 C 1625.51 0.342773 3.55752 0
M  V30 17626 S 1627.07 -0.0348622 4.38786 0
M  V30 17627 H 1623.88 0.10418 0.703326 0
M  V30 17628 H 1626.49 0.940801 1.71374 0
M  V30 17629 H 1625.19 1.35336 3.87443 0
M  V30 17630 H 1624.72 -0.353367 3.9181 0
M  V30 17631 H 1626.74 -1.25618 4.80036 0
M  V30 17632 N 1625.91 -1.50602 0.464402 0
M  V30 17633 C 1627.33 -1.59162 0.118173 0
M  V30 17634 C 1627.53 -1.47313 -1.37481 0
M  V30 17635 O 1626.58 -1.32819 -2.14745 0
M  V30 17636 C 1627.9 -2.93313 0.662411 0
M  V30 17637 C 1629.44 -3.06692 0.625244 0
M  V30 17638 C 1629.92 -4.43407 1.14691 0
M  V30 17639 N 1631.41 -4.49801 1.10604 0
M  V30 17640 C 1632.14 -5.53964 1.48026 0
M  V30 17641 N 1631.64 -6.65413 1.92865 0
M  V30 17642 N 1633.43 -5.44471 1.39671 0
M  V30 17643 H 1625.58 -1.56548 1.4355 0
M  V30 17644 H 1627.85 -0.739451 0.593225 0
M  V30 17645 H 1627.55 -3.07439 1.70805 0
M  V30 17646 H 1627.43 -3.77061 0.102251 0
M  V30 17647 H 1629.81 -2.92217 -0.411466 0
M  V30 17648 H 1629.9 -2.24717 1.22213 0
M  V30 17649 H 1629.54 -4.5863 2.18222 0
M  V30 17650 H 1629.47 -5.23963 0.526306 0
M  V30 17651 H 1631.96 -3.69824 0.77709 0
M  V30 17652 H 1632.27 -7.40947 2.19585 0
M  V30 17653 H 1630.62 -6.66551 1.96812 0
M  V30 17654 H 1633.81 -4.56289 1.04487 0
M  V30 17655 H 1633.98 -6.25531 1.69161 0
M  V30 17656 N 1627.39 -0.19675 -1.56367 0
M  V30 17657 C 1628.35 0.709734 -2.17934 0
M  V30 17658 C 1629.35 1.13979 -1.13426 0
M  V30 17659 O 1630.54 1.05261 -1.38801 0
M  V30 17660 C 1627.67 1.96917 -2.78274 0
M  V30 17661 H 1628.87 0.173342 -2.99399 0
M  V30 17662 H 1626.42 0.0528698 -1.56211 0
M  V30 17663 H 1627.15 2.54804 -2.00613 0
M  V30 17664 H 1626.94 1.66951 -3.54781 0
M  V30 17665 H 1628.43 2.61554 -3.25545 0
M  V30 17666 N 1628.87 1.57413 0.0768405 0
M  V30 17667 C 1630.1 1.90946 0.788862 0
M  V30 17668 C 1630.5 0.790474 1.71896 0
M  V30 17669 O 1629.85 -0.245385 1.82054 0
M  V30 17670 C 1629.91 3.19902 1.64022 0
M  V30 17671 C 1629.57 4.48447 0.880025 0
M  V30 17672 C 1630.57 5.19509 0.201546 0
M  V30 17673 C 1628.26 4.95078 0.848694 0
M  V30 17674 C 1630.25 6.35451 -0.498091 0
M  V30 17675 C 1627.94 6.10927 0.145281 0
M  V30 17676 C 1628.93 6.80964 -0.526916 0
M  V30 17677 O 1628.62 7.94604 -1.21901 0
M  V30 17678 H 1628.35 0.63576 0.22975 0
M  V30 17679 H 1630.91 2.05332 0.052938 0
M  V30 17680 H 1629.14 3.01712 2.41882 0
M  V30 17681 H 1630.83 3.39125 2.23046 0
M  V30 17682 H 1631.59 4.84514 0.217091 0
M  V30 17683 H 1627.47 4.40441 1.36136 0
M  V30 17684 H 1631.02 6.90053 -1.02333 0
M  V30 17685 H 1626.91 6.45374 0.127646 0
M  V30 17686 H 1627.68 8.10693 -1.12776 0
M  V30 17687 N 1630.34 -0.348112 1.53707 0
M  V30 17688 C 1631.29 -1.44755 1.82068 0
M  V30 17689 C 1632.29 -1.54672 0.690865 0
M  V30 17690 O 1633.49 -1.5735 0.874123 0
M  V30 17691 H 1629.87 -0.482562 0.576747 0
M  V30 17692 H 1631.84 -1.18047 2.74058 0
M  V30 17693 C 1630.59 -2.81345 2.04305 0
M  V30 17694 H 1629.91 -2.74479 2.90691 0
M  V30 17695 H 1631.35 -3.57405 2.28117 0
M  V30 17696 C 1629.81 -3.26586 0.827224 0
M  V30 17697 O 1630.34 -4.01693 0.0244098 0
M  V30 17698 N 1628.55 -2.83335 0.645731 0
M  V30 17699 H 1628.09 -2.22379 1.3002 0
M  V30 17700 H 1628.05 -3.1396 -0.166313 0
M  V30 17701 N 1631.82 -1.45363 -0.608876 0
M  V30 17702 C 1633.07 -1.48586 -1.364 0
M  V30 17703 C 1633.38 -0.131213 -1.95159 0
M  V30 17704 O 1634.59 -0.0410845 -2.71469 0
M  V30 17705 C 1633.05 -2.61694 -2.47071 0
M  V30 17706 C 1632.65 -4.03466 -1.94729 0
M  V30 17707 C 1634.4 -2.74162 -3.24091 0
M  V30 17708 C 1632.31 -5.07958 -3.02874 0
M  V30 17709 H 1631.24 -0.552893 -0.512665 0
M  V30 17710 H 1633.89 -1.71499 -0.65271 0
M  V30 17711 H 1632.27 -2.32062 -3.20879 0
M  V30 17712 H 1633.44 -4.4277 -1.27638 0
M  V30 17713 H 1631.76 -3.95436 -1.30457 0
M  V30 17714 H 1634.35 -3.494 -4.04752 0
M  V30 17715 H 1634.7 -1.80751 -3.75013 0
M  V30 17716 H 1635.23 -3.03313 -2.57383 0
M  V30 17717 H 1631.97 -6.03073 -2.56871 0
M  V30 17718 H 1631.49 -4.73225 -3.68535 0
M  V30 17719 H 1633.17 -5.3265 -3.67277 0
M  V30 17720 N 1633.3 0.851265 -1.32632 0
M  V30 17721 C 1634.55 1.60057 -1.22738 0
M  V30 17722 C 1634.86 1.94485 0.208525 0
M  V30 17723 O 1636.07 2.68083 0.429361 0
M  V30 17724 C 1634.52 2.88634 -2.14985 0
M  V30 17725 C 1634.13 2.61617 -3.63676 0
M  V30 17726 C 1635.88 3.6665 -2.13935 0
M  V30 17727 C 1633.78 3.86215 -4.47875 0
M  V30 17728 H 1632.71 0.600617 -0.455824 0
M  V30 17729 H 1635.36 0.939671 -1.57615 0
M  V30 17730 H 1633.75 3.56199 -1.73027 0
M  V30 17731 H 1634.92 2.02342 -4.13998 0
M  V30 17732 H 1633.24 1.96926 -3.66891 0
M  V30 17733 H 1635.83 4.59114 -2.74078 0
M  V30 17734 H 1636.18 4.00636 -1.13121 0
M  V30 17735 H 1636.71 3.05993 -2.54192 0
M  V30 17736 H 1633.45 3.57367 -5.49517 0
M  V30 17737 H 1632.97 4.44874 -4.02302 0
M  V30 17738 H 1634.65 4.5392 -4.61049 0
M  V30 17739 N 1634.78 1.15898 1.06796 0
M  V30 17740 C 1636.19 0.902809 1.31611 0
M  V30 17741 C 1636.39 -0.447112 1.96477 0
M  V30 17742 O 1635.45 -1.18778 2.22818 0
M  V30 17743 C 1636.76 2.04803 2.20173 0
M  V30 17744 C 1638.31 2.08321 2.33605 0
M  V30 17745 C 1638.79 3.22182 3.25519 0
M  V30 17746 N 1640.28 3.21866 3.33101 0
M  V30 17747 C 1641.01 4.06608 4.04299 0
M  V30 17748 N 1640.51 5.01426 4.78063 0
M  V30 17749 N 1642.3 3.94612 4.00297 0
M  V30 17750 H 1634.45 2.02816 0.630831 0
M  V30 17751 H 1636.72 0.884683 0.340646 0
M  V30 17752 H 1636.42 3.02278 1.7978 0
M  V30 17753 H 1636.3 1.98521 3.20732 0
M  V30 17754 H 1638.68 1.11441 2.73249 0
M  V30 17755 H 1638.76 2.18668 1.32732 0
M  V30 17756 H 1638.41 4.19317 2.86594 0
M  V30 17757 H 1638.34 3.0907 4.2636 0
M  V30 17758 H 1640.83 2.53203 2.80529 0
M  V30 17759 H 1641.14 5.62517 5.29901 0
M  V30 17760 H 1639.49 5.0541 4.7706 0
M  V30 17761 H 1642.68 3.19843 3.41786 0
M  V30 17762 H 1642.85 4.60877 4.55518 0
M  V30 17763 N 1636.26 -1.25243 0.956659 0
M  V30 17764 C 1637.2 -2.25811 0.477292 0
M  V30 17765 C 1638.17 -1.59273 -0.471301 0
M  V30 17766 O 1639.36 -1.86894 -0.384105 0
M  V30 17767 C 1636.5 -3.44286 -0.236891 0
M  V30 17768 C 1635.61 -4.25454 0.749177 0
M  V30 17769 C 1634.75 -5.31199 0.012228 0
M  V30 17770 C 1633.79 -6.04056 0.989094 0
M  V30 17771 N 1632.92 -7.0153 0.282883 0
M  V30 17772 H 1637.76 -2.66185 1.33977 0
M  V30 17773 H 1635.3 -1.30862 0.671832 0
M  V30 17774 H 1637.26 -4.11825 -0.66755 0
M  V30 17775 H 1635.89 -3.04781 -1.06339 0
M  V30 17776 H 1634.94 -3.57558 1.29831 0
M  V30 17777 H 1636.25 -4.75883 1.49454 0
M  V30 17778 H 1635.41 -6.04822 -0.476968 0
M  V30 17779 H 1634.14 -4.81648 -0.76591 0
M  V30 17780 H 1633.15 -5.29245 1.48927 0
M  V30 17781 H 1634.37 -6.55695 1.76749 0
M  V30 17782 H 1632.32 -6.54267 -0.476479 0
M  V30 17783 H 1632.24 -7.49786 0.967304 0
M  V30 17784 H 1633.51 -7.79281 -0.184709 0
M  V30 17785 N 1637.73 -0.725468 -1.3991 0
M  V30 17786 C 1638.68 -0.0555314 -2.27932 0
M  V30 17787 C 1639.67 0.722435 -1.4377 0
M  V30 17788 O 1640.86 0.593011 -1.6677 0
M  V30 17789 C 1637.99 0.858122 -3.32402 0
M  V30 17790 C 1637.08 0.0748146 -4.24034 0
M  V30 17791 N 1637.47 -0.947093 -4.96854 0
M  V30 17792 C 1635.76 0.305902 -4.4495 0
M  V30 17793 C 1636.47 -1.41861 -5.64137 0
M  V30 17794 N 1635.44 -0.738949 -5.38554 0
M  V30 17795 H 1639.24 -0.838606 -2.81682 0
M  V30 17796 H 1636.76 -0.558938 -1.52478 0
M  V30 17797 H 1638.75 1.35347 -3.94318 0
M  V30 17798 H 1637.41 1.64046 -2.80212 0
M  V30 17799 H 1638.43 -1.32821 -5.00579 0
M  V30 17800 H 1635.1 1.06379 -4.0372 0
M  V30 17801 H 1636.49 -2.26829 -6.32454 0
M  V30 17802 N 1639.21 1.50354 -0.472382 0
M  V30 17803 C 1640.44 2.07238 0.0820787 0
M  V30 17804 C 1640.86 1.3338 1.32632 0
M  V30 17805 O 1640.22 0.381857 1.77233 0
M  V30 17806 C 1640.27 3.58919 0.347746 0
M  V30 17807 O 1639.37 3.86888 1.42799 0
M  V30 17808 H 1638.71 0.663862 -0.0135544 0
M  V30 17809 H 1641.24 1.93533 -0.663795 0
M  V30 17810 H 1641.25 4.03743 0.587855 0
M  V30 17811 H 1639.93 4.12093 -0.56147 0
M  V30 17812 H 1638.51 3.53901 1.17509 0
M  V30 17813 N 1640.69 0.205039 1.56261 0
M  V30 17814 C 1641.62 -0.743854 2.16794 0
M  V30 17815 C 1642.64 -1.16959 1.13245 0
M  V30 17816 O 1643.83 -1.1036 1.40296 0
M  V30 17817 C 1640.93 -2.01717 2.7233 0
M  V30 17818 C 1640.1 -1.74965 4.00882 0
M  V30 17819 C 1639.16 -2.86841 4.41145 0
M  V30 17820 O 1638.18 -2.5602 5.08372 0
M  V30 17821 N 1639.39 -4.15425 4.05466 0
M  V30 17822 H 1642.15 -0.226145 2.98846 0
M  V30 17823 H 1639.71 0.0234276 1.61883 0
M  V30 17824 H 1641.7 -2.7572 2.96244 0
M  V30 17825 H 1640.27 -2.44582 1.94675 0
M  V30 17826 H 1639.49 -0.846903 3.84995 0
M  V30 17827 H 1640.78 -1.54501 4.84775 0
M  V30 17828 H 1640.18 -4.43314 3.5141 0
M  V30 17829 H 1638.74 -4.86023 4.3431 0
M  V30 17830 N 1642.17 -1.57451 -0.0684915 0
M  V30 17831 C 1643.1 -2.06954 -1.0813 0
M  V30 17832 C 1644.08 -0.963716 -1.40166 0
M  V30 17833 O 1645.27 -1.23664 -1.49736 0
M  V30 17834 C 1642.4 -2.51622 -2.39381 0
M  V30 17835 C 1641.35 -3.66111 -2.2169 0
M  V30 17836 C 1640.68 -3.96846 -3.58354 0
M  V30 17837 C 1641.98 -4.96036 -1.63541 0
M  V30 17838 H 1643.67 -2.91822 -0.66936 0
M  V30 17839 H 1641.22 -1.40387 -0.320533 0
M  V30 17840 H 1643.17 -2.84867 -3.1053 0
M  V30 17841 H 1641.89 -1.63788 -2.82562 0
M  V30 17842 H 1640.55 -3.33155 -1.52982 0
M  V30 17843 H 1640.2 -3.06137 -3.9911 0
M  V30 17844 H 1639.9 -4.73939 -3.47354 0
M  V30 17845 H 1641.42 -4.3259 -4.30927 0
M  V30 17846 H 1642.84 -5.27491 -2.24559 0
M  V30 17847 H 1641.23 -5.77474 -1.63228 0
M  V30 17848 H 1642.3 -4.81208 -0.597199 0
M  V30 17849 N 1643.65 0.339955 -1.5389 0
M  V30 17850 C 1644.58 1.42316 -1.85117 0
M  V30 17851 C 1645.56 1.5473 -0.706591 0
M  V30 17852 O 1646.74 1.68879 -0.958834 0
M  V30 17853 C 1643.87 2.79317 -2.06396 0
M  V30 17854 C 1642.83 2.81707 -3.22219 0
M  V30 17855 C 1642.15 4.21627 -3.28838 0
M  V30 17856 C 1643.45 2.46921 -4.60247 0
M  V30 17857 H 1645.15 1.16431 -2.75834 0
M  V30 17858 H 1642.69 0.558661 -1.32721 0
M  V30 17859 H 1644.65 3.55145 -2.26826 0
M  V30 17860 H 1643.37 3.06644 -1.12414 0
M  V30 17861 H 1642.03 2.08332 -3.01651 0
M  V30 17862 H 1641.68 4.4607 -2.32444 0
M  V30 17863 H 1641.38 4.24137 -4.06672 0
M  V30 17864 H 1642.9 4.99292 -3.51482 0
M  V30 17865 H 1644.32 3.12462 -4.80667 0
M  V30 17866 H 1642.71 2.60707 -5.40511 0
M  V30 17867 H 1643.78 1.421 -4.63611 0
M  V30 17868 N 1645.13 1.45684 0.601159 0
M  V30 17869 C 1646.06 1.57694 1.72206 0
M  V30 17870 C 1647.04 0.428141 1.64624 0
M  V30 17871 O 1648.22 0.65209 1.82925 0
M  V30 17872 C 1645.35 1.54941 3.10822 0
M  V30 17873 C 1644.31 2.68603 3.33222 0
M  V30 17874 C 1643.63 2.50906 4.72176 0
M  V30 17875 C 1644.93 4.10568 3.22849 0
M  V30 17876 H 1646.63 2.51521 1.62412 0
M  V30 17877 H 1644.17 1.2105 0.779929 0
M  V30 17878 H 1646.12 1.61939 3.89042 0
M  V30 17879 H 1644.85 0.576471 3.21472 0
M  V30 17880 H 1643.51 2.61043 2.57394 0
M  V30 17881 H 1643.16 1.51736 4.79568 0
M  V30 17882 H 1642.86 3.27131 4.88118 0
M  V30 17883 H 1644.38 2.59767 5.52588 0
M  V30 17884 H 1645.79 4.19336 3.90935 0
M  V30 17885 H 1644.19 4.87234 3.50318 0
M  V30 17886 H 1645.26 4.32022 2.20192 0
M  V30 17887 N 1646.6 -0.84422 1.33082 0
M  V30 17888 C 1647.55 -1.97504 1.22862 0
M  V30 17889 C 1648.55 -1.68892 0.131141 0
M  V30 17890 O 1649.75 -1.7757 0.294753 0
M  V30 17891 H 1646.13 -0.648263 0.381129 0
M  V30 17892 H 1648.1 -2.03249 2.18478 0
M  V30 17893 C 1646.85 -3.33626 0.979228 0
M  V30 17894 H 1646.17 -3.56178 1.81596 0
M  V30 17895 H 1647.61 -4.13266 0.948007 0
M  V30 17896 C 1646.07 -3.35397 -0.317922 0
M  V30 17897 O 1646.6 -3.7917 -1.32638 0
M  V30 17898 N 1644.8 -2.88562 -0.343577 0
M  V30 17899 H 1644.35 -2.53133 0.477625 0
M  V30 17900 H 1644.31 -2.90129 -1.21131 0
M  V30 17901 N 1648.08 -1.16463 -1.0618 0
M  V30 17902 C 1649.01 -0.895399 -2.1565 0
M  V30 17903 C 1649.99 0.158729 -1.69358 0
M  V30 17904 O 1651.18 0.010586 -1.94197 0
M  V30 17905 C 1648.31 -0.396959 -3.45024 0
M  V30 17906 C 1647.26 -1.38913 -4.0483 0
M  V30 17907 C 1646.59 -0.749043 -5.29427 0
M  V30 17908 C 1647.89 -2.7591 -4.43476 0
M  V30 17909 H 1649.58 -1.81085 -2.38429 0
M  V30 17910 H 1647.13 -0.872098 -1.14588 0
M  V30 17911 H 1649.08 -0.196086 -4.20944 0
M  V30 17912 H 1647.8 0.554002 -3.21867 0
M  V30 17913 H 1646.46 -1.57657 -3.30968 0
M  V30 17914 H 1646.11 0.208439 -5.02568 0
M  V30 17915 H 1645.81 -1.41128 -5.704 0
M  V30 17916 H 1647.34 -0.558217 -6.08043 0
M  V30 17917 H 1648.75 -2.60942 -5.10473 0
M  V30 17918 H 1647.15 -3.38618 -4.95437 0
M  V30 17919 H 1648.22 -3.31076 -3.54284 0
M  V30 17920 N 1649.56 1.24734 -0.963288 0
M  V30 17921 C 1650.49 2.27892 -0.508667 0
M  V30 17922 C 1651.47 1.64055 0.449438 0
M  V30 17923 O 1652.66 1.91083 0.346519 0
M  V30 17924 C 1649.79 3.46688 0.206157 0
M  V30 17925 C 1648.74 4.22762 -0.667534 0
M  V30 17926 C 1648.07 5.34402 0.178529 0
M  V30 17927 C 1649.37 4.84535 -1.94995 0
M  V30 17928 H 1651.06 2.66171 -1.37088 0
M  V30 17929 H 1648.61 1.27952 -0.660622 0
M  V30 17930 H 1650.56 4.17985 0.535391 0
M  V30 17931 H 1649.28 3.07422 1.10269 0
M  V30 17932 H 1647.94 3.53259 -0.979976 0
M  V30 17933 H 1647.59 4.91377 1.07508 0
M  V30 17934 H 1647.29 5.86218 -0.402808 0
M  V30 17935 H 1648.81 6.08529 0.502533 0
M  V30 17936 H 1650.23 5.4793 -1.68658 0
M  V30 17937 H 1648.62 5.46564 -2.47765 0
M  V30 17938 H 1649.69 4.06236 -2.64765 0
M  V30 17939 N 1651.04 0.732878 1.39523 0
M  V30 17940 C 1651.95 0.0930216 2.34416 0
M  V30 17941 C 1652.96 -0.724309 1.58208 0
M  V30 17942 O 1654.14 -0.653267 1.90511 0
M  V30 17943 C 1651.2 -0.805036 3.37224 0
M  V30 17944 C 1650.27 0.0243049 4.29293 0
M  V30 17945 C 1649.5 -0.830984 5.27191 0
M  V30 17946 O 1649.72 -2.06977 5.31523 0
M  V30 17947 O 1648.66 -0.260772 6.01335 0
M  V30 17948 H 1652.48 0.876179 2.90786 0
M  V30 17949 H 1650.07 0.493525 1.41013 0
M  V30 17950 H 1651.95 -1.31894 4.00228 0
M  V30 17951 H 1650.62 -1.56704 2.83241 0
M  V30 17952 H 1649.53 0.583677 3.69519 0
M  V30 17953 H 1650.86 0.748485 4.86476 0
M  V30 17954 N 1652.52 -1.50101 0.480349 0
M  V30 17955 C 1653.45 -2.25419 -0.355186 0
M  V30 17956 C 1654.43 -1.2912 -0.988276 0
M  V30 17957 O 1655.61 -1.58364 -1.02241 0
M  V30 17958 C 1652.74 -3.03751 -1.49844 0
M  V30 17959 C 1651.78 -4.15046 -0.981799 0
M  V30 17960 S 1652.62 -5.35385 0.110936 0
M  V30 17961 C 1653.77 -6.17267 -1.03597 0
M  V30 17962 H 1654.01 -2.95939 0.284135 0
M  V30 17963 H 1651.54 -1.52103 0.265352 0
M  V30 17964 H 1653.5 -3.49471 -2.15361 0
M  V30 17965 H 1652.16 -2.32739 -2.1093 0
M  V30 17966 H 1651.35 -4.69292 -1.83795 0
M  V30 17967 H 1650.95 -3.7181 -0.404184 0
M  V30 17968 H 1653.24 -6.48961 -1.94565 0
M  V30 17969 H 1654.19 -7.06094 -0.532569 0
M  V30 17970 H 1654.6 -5.49469 -1.29398 0
M  V30 17971 N 1653.99 -0.213323 -1.5615 0
M  V30 17972 C 1654.93 0.739954 -2.1587 0
M  V30 17973 C 1655.9 1.19683 -1.10067 0
M  V30 17974 O 1657.09 1.28106 -1.38279 0
M  V30 17975 C 1654.22 2.00152 -2.73234 0
M  V30 17976 C 1653.26 1.68529 -3.91791 0
M  V30 17977 S 1654.09 0.817317 -5.29226 0
M  V30 17978 C 1655.25 2.08863 -5.90023 0
M  V30 17979 H 1655.48 0.232328 -2.96391 0
M  V30 17980 H 1653.02 0.00189263 -1.544 0
M  V30 17981 H 1654.97 2.72594 -3.06925 0
M  V30 17982 H 1653.64 2.48027 -1.92722 0
M  V30 17983 H 1652.83 2.62241 -4.30402 0
M  V30 17984 H 1652.43 1.04157 -3.59204 0
M  V30 17985 H 1654.72 3.03943 -6.05495 0
M  V30 17986 H 1655.67 1.74656 -6.86222 0
M  V30 17987 H 1656.07 2.22541 -5.18783 0
M  V30 17988 N 1655.47 1.57485 0.0601405 0
M  V30 17989 C 1656.4 2.07525 1.07031 0
M  V30 17990 C 1657.38 0.971136 1.39653 0
M  V30 17991 O 1658.57 1.24456 1.49078 0
M  V30 17992 C 1655.7 2.52888 2.38044 0
M  V30 17993 C 1654.65 3.67282 2.19745 0
M  V30 17994 C 1653.98 3.98741 3.56244 0
M  V30 17995 C 1655.28 4.96896 1.60908 0
M  V30 17996 H 1656.97 2.92173 0.653875 0
M  V30 17997 H 1654.52 1.40555 0.313083 0
M  V30 17998 H 1656.47 2.8651 3.09014 0
M  V30 17999 H 1655.2 1.65284 2.81689 0
M  V30 18000 H 1653.85 3.33961 1.51213 0
M  V30 18001 H 1653.5 3.08249 3.97481 0
M  V30 18002 H 1653.2 4.75775 3.44836 0
M  V30 18003 H 1654.73 4.34869 4.28627 0
M  V30 18004 H 1656.14 5.28674 2.21758 0
M  V30 18005 H 1654.54 5.78332 1.60164 0
M  V30 18006 H 1655.61 4.81518 0.571671 0
M  V30 18007 N 1656.95 -0.331789 1.54068 0
M  V30 18008 C 1658.18 -1.08886 1.75577 0
M  V30 18009 C 1658.59 -1.82462 0.50043 0
M  V30 18010 O 1657.93 -1.7564 -0.53816 0
M  V30 18011 C 1657.99 -2.13858 2.88972 0
M  V30 18012 C 1657.66 -1.59754 4.28168 0
M  V30 18013 C 1658.65 -1.04365 5.09317 0
M  V30 18014 C 1656.34 -1.64245 4.74688 0
M  V30 18015 C 1658.33 -0.541856 6.35093 0
M  V30 18016 C 1656.02 -1.13679 6.00433 0
M  V30 18017 C 1657.02 -0.587426 6.80469 0
M  V30 18018 O 1656.71 -0.0893367 8.0385 0
M  V30 18019 H 1656.44 -0.330075 0.589938 0
M  V30 18020 H 1658.99 -0.386127 2.01738 0
M  V30 18021 H 1657.22 -2.87724 2.58363 0
M  V30 18022 H 1658.91 -2.75223 2.98341 0
M  V30 18023 H 1659.68 -1.00208 4.74535 0
M  V30 18024 H 1655.56 -2.05945 4.12441 0
M  V30 18025 H 1659.1 -0.1124 6.97509 0
M  V30 18026 H 1655 -1.1754 6.34708 0
M  V30 18027 H 1655.77 -0.205529 8.18242 0
M  V30 18028 N 1658.43 -1.46001 -0.593424 0
M  V30 18029 C 1659.39 -1.55347 -1.68523 0
M  V30 18030 C 1660.39 -0.431599 -1.549 0
M  V30 18031 O 1661.58 -0.695559 -1.59711 0
M  V30 18032 C 1658.71 -1.46355 -3.07885 0
M  V30 18033 H 1659.91 -2.52639 -1.61597 0
M  V30 18034 H 1657.46 -1.33652 -0.810363 0
M  V30 18035 H 1658.19 -0.503024 -3.20375 0
M  V30 18036 H 1657.98 -2.27741 -3.19181 0
M  V30 18037 H 1659.47 -1.55958 -3.87385 0
M  V30 18038 N 1659.91 0.83715 -1.33527 0
M  V30 18039 C 1661.15 1.58937 -1.24834 0
M  V30 18040 C 1661.48 1.94117 0.185368 0
M  V30 18041 O 1660.75 1.61105 1.11453 0
M  V30 18042 H 1659.33 0.589301 -0.459057 0
M  V30 18043 H 1661.99 1.00038 -1.67267 0
M  V30 18044 H 1661.08 2.51855 -1.84325 0
M  V30 18045 N 1661.38 1.17024 1.05561 0
M  V30 18046 C 1662.31 0.906823 2.15172 0
M  V30 18047 C 1663.3 -0.149745 1.6944 0
M  V30 18048 O 1664.48 -0.000287092 1.942 0
M  V30 18049 C 1661.61 0.415251 3.44809 0
M  V30 18050 C 1660.56 1.41058 4.04088 0
M  V30 18051 C 1659.89 0.777109 5.29023 0
M  V30 18052 C 1661.19 2.78258 4.42007 0
M  V30 18053 H 1662.88 1.82347 2.37466 0
M  V30 18054 H 1660.43 0.878162 1.14124 0
M  V30 18055 H 1662.38 0.218407 4.20834 0
M  V30 18056 H 1661.11 -0.536924 3.22156 0
M  V30 18057 H 1659.77 1.5941 3.30127 0
M  V30 18058 H 1659.41 -0.181784 5.02671 0
M  V30 18059 H 1659.11 1.44151 5.69644 0
M  V30 18060 H 1660.64 0.590455 6.07738 0
M  V30 18061 H 1662.05 2.63645 5.09082 0
M  V30 18062 H 1660.45 3.41241 4.93634 0
M  V30 18063 H 1661.52 3.3295 3.52523 0
M  V30 18064 N 1662.86 -1.24221 0.969889 0
M  V30 18065 C 1664.27 -1.74206 0.671494 0
M  V30 18066 C 1664.62 -1.78576 -0.81271 0
M  V30 18067 O 1663.75 -1.41664 -1.63586 0
M  V30 18068 C 1664.34 -3.16371 1.21222 0
M  V30 18069 C 1662.9 -3.63855 0.96368 0
M  V30 18070 C 1662.05 -2.42429 1.34623 0
M  V30 18071 H 1665 -1.09893 1.14496 0
M  V30 18072 H 1665.02 -3.7606 0.579552 0
M  V30 18073 H 1664.53 -3.13159 2.29245 0
M  V30 18074 H 1662.64 -3.72463 -0.100931 0
M  V30 18075 H 1662.75 -4.51207 1.61087 0
M  V30 18076 H 1661.11 -2.42952 0.764624 0
M  V30 18077 H 1661.9 -2.41896 2.436 0
M  V30 18078 N 1664.34 -0.740267 -1.39132 0
M  V30 18079 C 1665.25 -0.105452 -2.34363 0
M  V30 18080 C 1666.27 0.715908 -1.5859 0
M  V30 18081 O 1667.44 0.643155 -1.90855 0
M  V30 18082 C 1664.51 0.787141 -3.37646 0
M  V30 18083 C 1663.57 -0.047071 -4.29274 0
M  V30 18084 C 1662.8 0.803014 -5.27624 0
M  V30 18085 O 1663.02 2.04155 -5.32613 0
M  V30 18086 O 1661.96 0.228879 -6.01465 0
M  V30 18087 H 1665.78 -0.891588 -2.90318 0
M  V30 18088 H 1663.37 -0.500996 -1.40749 0
M  V30 18089 H 1665.25 1.29769 -4.00921 0
M  V30 18090 H 1663.93 1.552 -2.84068 0
M  V30 18091 H 1662.83 -0.603265 -3.69204 0
M  V30 18092 H 1664.17 -0.774273 -4.86072 0
M  V30 18093 N 1665.82 1.49844 -0.488302 0
M  V30 18094 C 1666.75 2.31737 0.286432 0
M  V30 18095 C 1667.73 1.39424 0.974418 0
M  V30 18096 O 1668.91 1.68339 0.968274 0
M  V30 18097 C 1666.04 3.19616 1.35878 0
M  V30 18098 C 1665 4.20619 0.791409 0
M  V30 18099 C 1664.32 4.9735 1.96333 0
M  V30 18100 C 1665.62 5.21882 -0.208975 0
M  V30 18101 H 1667.32 2.96755 -0.397092 0
M  V30 18102 H 1664.86 1.42709 -0.192413 0
M  V30 18103 H 1666.82 3.75711 1.90838 0
M  V30 18104 H 1665.54 2.52516 2.07131 0
M  V30 18105 H 1664.2 3.65651 0.263647 0
M  V30 18106 H 1663.85 4.26708 2.66325 0
M  V30 18107 H 1663.55 5.65684 1.58983 0
M  V30 18108 H 1665.07 5.56286 2.51751 0
M  V30 18109 H 1666.49 5.72746 0.252049 0
M  V30 18110 H 1664.88 5.98033 -0.497638 0
M  V30 18111 H 1665.95 4.7157 -1.12916 0
M  V30 18112 N 1667.3 0.221601 1.56034 0
M  V30 18113 C 1668.52 -0.417979 2.03145 0
M  V30 18114 C 1668.95 -1.52556 1.10038 0
M  V30 18115 O 1668.3 -1.81084 0.0885729 0
M  V30 18116 C 1668.35 -0.926762 3.48487 0
M  V30 18117 O 1667.46 -2.03811 3.58518 0
M  V30 18118 H 1666.8 -0.0945778 0.65723 0
M  V30 18119 H 1669.33 0.340252 2.01751 0
M  V30 18120 H 1669.34 -1.23656 3.8881 0
M  V30 18121 H 1668.01 -0.116115 4.15738 0
M  V30 18122 H 1666.59 -1.73494 3.30082 0
M  V30 18123 N 1668.77 -1.57515 -0.0517878 0
M  V30 18124 C 1670.02 -1.87843 -0.745624 0
M  V30 18125 C 1670.34 -0.816318 -1.77091 0
M  V30 18126 O 1669.61 0.152784 -1.95303 0
M  V30 18127 H 1668.19 -0.693194 -0.278372 0
M  V30 18128 H 1670.86 -1.94886 -0.0231267 0
M  V30 18129 H 1669.95 -2.86001 -1.2494 0
M  V30 18130 N 1670.25 0.323614 -1.54242 0
M  V30 18131 C 1671.5 1.05909 -1.71657 0
M  V30 18132 C 1671.82 1.89177 -0.497151 0
M  V30 18133 O 1673.02 2.65816 -0.552649 0
M  V30 18134 C 1671.48 1.93246 -3.03618 0
M  V30 18135 C 1671.09 1.1509 -4.32965 0
M  V30 18136 C 1672.83 2.6653 -3.30397 0
M  V30 18137 C 1670.74 2.01573 -5.55988 0
M  V30 18138 H 1669.67 0.399114 -0.639706 0
M  V30 18139 H 1672.32 0.317338 -1.80735 0
M  V30 18140 H 1670.7 2.71319 -2.88447 0
M  V30 18141 H 1671.87 0.417877 -4.58901 0
M  V30 18142 H 1670.19 0.534882 -4.1295 0
M  V30 18143 H 1672.79 3.31542 -4.19504 0
M  V30 18144 H 1673.13 3.34164 -2.48274 0
M  V30 18145 H 1673.66 1.95518 -3.46435 0
M  V30 18146 H 1670.4 1.38446 -6.40713 0
M  V30 18147 H 1669.92 2.72609 -5.3427 0
M  V30 18148 H 1671.6 2.60159 -5.9239 0
M  V30 18149 N 1671.73 1.46313 0.585673 0
M  V30 18150 C 1672.66 1.52683 1.7094 0
M  V30 18151 C 1673.68 0.415447 1.5741 0
M  V30 18152 O 1674.87 0.683657 1.64889 0
M  V30 18153 C 1671.97 1.38822 3.09163 0
M  V30 18154 C 1671.14 2.64027 3.48724 0
M  V30 18155 C 1670.2 2.44407 4.65995 0
M  V30 18156 O 1669.22 3.18118 4.72006 0
M  V30 18157 N 1670.43 1.50381 5.60683 0
M  V30 18158 H 1673.19 2.49573 1.65932 0
M  V30 18159 H 1670.75 1.42332 0.771573 0
M  V30 18160 H 1672.74 1.23474 3.85404 0
M  V30 18161 H 1671.31 0.501247 3.08555 0
M  V30 18162 H 1670.53 2.94338 2.62219 0
M  V30 18163 H 1671.82 3.47206 3.71921 0
M  V30 18164 H 1671.22 0.895917 5.5856 0
M  V30 18165 H 1669.78 1.40997 6.36367 0
M  V30 18166 N 1673.21 -0.830057 1.33969 0
M  V30 18167 C 1674.49 -1.57112 1.16513 0
M  V30 18168 C 1674.87 -2.09429 -0.265075 0
M  V30 18169 O 1674.21 -1.90263 -1.26539 0
M  V30 18170 C 1674.42 -2.69808 2.2137 0
M  V30 18171 C 1675.77 -3.38761 2.55981 0
M  V30 18172 O 1676.8 -2.80058 2.20104 0
M  V30 18173 O 1675.66 -4.44753 3.1758 0
M  V30 18174 H 1672.75 -0.693066 0.451207 0
M  V30 18175 H 1675.3 -0.872048 1.4558 0
M  V30 18176 H 1674.07 -2.28852 3.17399 0
M  V30 18177 H 1673.69 -3.47372 1.93439 0
M  V30 18178 N 1674.69 -1.17582 -1.04939 0
M  V30 18179 C 1675.62 -0.918221 -2.14688 0
M  V30 18180 C 1676.6 0.140757 -1.69517 0
M  V30 18181 O 1677.78 -0.0100118 -1.94197 0
M  V30 18182 C 1674.91 -0.433531 -3.44584 0
M  V30 18183 C 1673.87 -1.43199 -4.03334 0
M  V30 18184 C 1673.19 -0.805154 -5.28603 0
M  V30 18185 C 1674.49 -2.80598 -4.40525 0
M  V30 18186 H 1676.19 -1.83604 -2.36495 0
M  V30 18187 H 1673.73 -0.884202 -1.13657 0
M  V30 18188 H 1675.69 -0.240722 -4.20712 0
M  V30 18189 H 1674.41 0.519832 -3.22437 0
M  V30 18190 H 1673.07 -1.61158 -3.29277 0
M  V30 18191 H 1672.72 0.155124 -5.02761 0
M  V30 18192 H 1672.42 -1.4717 -5.68871 0
M  V30 18193 H 1673.94 -0.622677 -6.07417 0
M  V30 18194 H 1675.36 -2.66341 -5.07676 0
M  V30 18195 H 1673.75 -3.43854 -4.91817 0
M  V30 18196 H 1674.82 -3.34815 -3.50752 0
M  V30 18197 N 1676.17 1.23705 -0.976463 0
M  V30 18198 C 1677.11 2.25023 -0.513156 0
M  V30 18199 C 1678.08 1.60003 0.445903 0
M  V30 18200 O 1679.27 1.87481 0.354323 0
M  V30 18201 C 1676.41 3.44619 0.182088 0
M  V30 18202 C 1675.52 4.24209 -0.816769 0
M  V30 18203 C 1674.66 5.31112 -0.0967355 0
M  V30 18204 C 1673.69 6.02406 -1.08507 0
M  V30 18205 N 1672.83 7.00991 -0.394455 0
M  V30 18206 H 1677.67 2.64019 -1.38194 0
M  V30 18207 H 1675.21 1.29777 -0.692566 0
M  V30 18208 H 1677.17 4.12835 0.601948 0
M  V30 18209 H 1675.8 3.06435 1.01477 0
M  V30 18210 H 1674.85 3.55448 -1.35503 0
M  V30 18211 H 1676.16 4.73445 -1.57006 0
M  V30 18212 H 1675.31 6.05504 0.380686 0
M  V30 18213 H 1674.05 4.82806 0.689187 0
M  V30 18214 H 1673.06 5.26809 -1.57328 0
M  V30 18215 H 1674.28 6.528 -1.87159 0
M  V30 18216 H 1672.23 6.54943 0.372331 0
M  V30 18217 H 1672.15 7.48152 -1.08647 0
M  V30 18218 H 1673.41 7.79476 0.0607087 0
M  V30 18219 N 1677.64 0.747635 1.38738 0
M  V30 18220 C 1678.87 0.311329 2.04241 0
M  V30 18221 C 1679.28 -1.06319 1.56502 0
M  V30 18222 O 1678.62 -1.68544 0.730669 0
M  V30 18223 C 1678.69 0.24882 3.58638 0
M  V30 18224 C 1678.35 1.5639 4.29408 0
M  V30 18225 C 1679.35 2.51198 4.55187 0
M  V30 18226 C 1677.03 1.83169 4.67712 0
M  V30 18227 C 1679.03 3.71009 5.18296 0
M  V30 18228 C 1676.71 3.03255 5.30546 0
M  V30 18229 C 1677.71 3.96996 5.55773 0
M  V30 18230 O 1677.4 5.14971 6.173 0
M  V30 18231 H 1677.13 0.131827 0.663022 0
M  V30 18232 H 1679.69 1.01572 1.78528 0
M  V30 18233 H 1677.92 -0.511769 3.83299 0
M  V30 18234 H 1679.6 -0.157174 4.05596 0
M  V30 18235 H 1680.37 2.31784 4.2603 0
M  V30 18236 H 1676.25 1.11044 4.47426 0
M  V30 18237 H 1679.79 4.44193 5.37902 0
M  V30 18238 H 1675.69 3.22565 5.59126 0
M  V30 18239 H 1676.46 5.15474 6.3579 0
M  V30 18240 N 1679.12 -1.49583 0.496242 0
M  V30 18241 C 1680.37 -2.02738 -0.050037 0
M  V30 18242 C 1680.7 -1.37556 -1.37083 0
M  V30 18243 O 1679.98 -0.50964 -1.87704 0
M  V30 18244 C 1680.26 -3.59501 -0.207575 0
M  V30 18245 C 1680.11 -4.35218 1.13601 0
M  V30 18246 C 1681.43 -4.29715 -0.950443 0
M  V30 18247 H 1678.55 -0.736811 -0.0167105 0
M  V30 18248 H 1681.19 -1.78654 0.646728 0
M  V30 18249 H 1679.34 -3.80152 -0.801033 0
M  V30 18250 H 1681.01 -4.26075 1.76798 0
M  V30 18251 H 1679.26 -3.97964 1.72648 0
M  V30 18252 H 1679.93 -5.43247 0.979142 0
M  V30 18253 H 1682.4 -4.1369 -0.447173 0
M  V30 18254 H 1681.28 -5.39159 -1.02951 0
M  V30 18255 H 1681.54 -3.94627 -1.99304 0
M  V30 18256 N 1680.6 -0.229873 -1.55915 0
M  V30 18257 C 1681.83 0.403603 -2.02619 0
M  V30 18258 C 1682.24 1.53304 -1.10881 0
M  V30 18259 O 1681.58 1.83356 -0.112312 0
M  V30 18260 C 1681.64 0.988727 -3.45636 0
M  V30 18261 C 1681.31 -0.00630999 -4.57 0
M  V30 18262 C 1682.3 -0.809714 -5.13556 0
M  V30 18263 C 1679.99 -0.127474 -5.02138 0
M  V30 18264 C 1681.98 -1.7209 -6.13729 0
M  V30 18265 C 1679.67 -1.04219 -6.02148 0
M  V30 18266 C 1680.67 -1.83744 -6.5782 0
M  V30 18267 O 1680.36 -2.73677 -7.55881 0
M  V30 18268 H 1680.09 0.102102 -0.668245 0
M  V30 18269 H 1682.64 -0.346247 -2.02461 0
M  V30 18270 H 1680.87 1.78782 -3.4289 0
M  V30 18271 H 1682.56 1.53048 -3.7594 0
M  V30 18272 H 1683.33 -0.726601 -4.79526 0
M  V30 18273 H 1679.21 0.481415 -4.58479 0
M  V30 18274 H 1682.75 -2.34206 -6.5711 0
M  V30 18275 H 1678.65 -1.12629 -6.35598 0
M  V30 18276 H 1679.41 -2.67846 -7.73435 0
M  V30 18277 N 1682.08 1.5754 0.0434337 0
M  V30 18278 C 1683.03 2.06683 1.067 0
M  V30 18279 C 1684.02 0.977691 1.38339 0
M  V30 18280 O 1685.23 1.16266 1.37412 0
M  V30 18281 H 1681.6 0.659378 0.361559 0
M  V30 18282 H 1683.57 2.91747 0.626605 0
M  V30 18283 C 1682.32 2.54985 2.36385 0
M  V30 18284 H 1681.64 3.384 2.12897 0
M  V30 18285 H 1683.08 2.93095 3.06384 0
M  V30 18286 C 1681.54 1.44484 3.04345 0
M  V30 18287 O 1682.07 0.80291 3.93594 0
M  V30 18288 N 1680.28 1.18292 2.65434 0
M  V30 18289 H 1679.83 1.70676 1.92944 0
M  V30 18290 H 1679.78 0.445676 3.11225 0
M  V30 18291 N 1683.56 -0.31543 1.54411 0
M  V30 18292 C 1684.5 -1.4086 1.85098 0
M  V30 18293 C 1685.5 -1.53172 0.723518 0
M  V30 18294 O 1686.7 -1.55461 0.907303 0
M  V30 18295 H 1683.08 -0.47022 0.586853 0
M  V30 18296 H 1685.05 -1.12207 2.765 0
M  V30 18297 C 1683.8 -2.76948 2.10227 0
M  V30 18298 H 1683.12 -2.68251 2.96448 0
M  V30 18299 H 1684.56 -3.52486 2.35647 0
M  V30 18300 C 1683.02 -3.24758 0.896312 0
M  V30 18301 O 1683.55 -4.0155 0.109609 0
M  V30 18302 N 1681.76 -2.81901 0.705685 0
M  V30 18303 H 1681.3 -2.19571 1.34708 0
M  V30 18304 H 1681.26 -3.14242 -0.0996804 0
M  V30 18305 N 1685.03 -1.46622 -0.577906 0
M  V30 18306 C 1685.96 -1.60413 -1.69676 0
M  V30 18307 C 1686.95 -0.454277 -1.63922 0
M  V30 18308 O 1688.13 -0.68111 -1.81864 0
M  V30 18309 C 1685.26 -1.59866 -3.08318 0
M  V30 18310 C 1684.21 -2.7387 -3.28906 0
M  V30 18311 C 1683.54 -2.58386 -4.68125 0
M  V30 18312 C 1684.84 -4.15652 -3.16276 0
M  V30 18313 H 1686.53 -2.54073 -1.5839 0
M  V30 18314 H 1684.08 -1.22275 -0.760572 0
M  V30 18315 H 1686.03 -1.68108 -3.86417 0
M  V30 18316 H 1684.76 -0.627541 -3.20514 0
M  V30 18317 H 1683.42 -2.65105 -2.53209 0
M  V30 18318 H 1683.06 -1.59347 -4.77093 0
M  V30 18319 H 1682.76 -3.34855 -4.82852 0
M  V30 18320 H 1684.29 -2.68525 -5.48385 0
M  V30 18321 H 1685.7 -4.25503 -3.84214 0
M  V30 18322 H 1684.1 -4.92746 -3.42523 0
M  V30 18323 H 1685.17 -4.35471 -2.13291 0
M  V30 18324 N 1686.51 0.822941 -1.34408 0
M  V30 18325 C 1687.93 1.11606 -1.14089 0
M  V30 18326 C 1688.13 2.01418 0.0576164 0
M  V30 18327 O 1687.18 2.41622 0.733146 0
M  V30 18328 C 1688.5 1.76279 -2.43611 0
M  V30 18329 C 1690.05 1.88773 -2.49667 0
M  V30 18330 C 1690.52 2.56862 -3.79191 0
M  V30 18331 N 1692.01 2.64362 -3.80351 0
M  V30 18332 C 1692.75 3.17775 -4.77291 0
M  V30 18333 N 1692.24 3.71751 -5.84613 0
M  V30 18334 N 1694.04 3.16175 -4.64747 0
M  V30 18335 H 1686.19 0.225555 -2.11199 0
M  V30 18336 H 1688.45 0.162621 -0.933948 0
M  V30 18337 H 1688.16 1.17749 -3.31403 0
M  V30 18338 H 1688.03 2.76147 -2.56949 0
M  V30 18339 H 1690.42 2.46451 -1.62314 0
M  V30 18340 H 1690.5 0.878079 -2.40257 0
M  V30 18341 H 1690.14 1.99839 -4.66933 0
M  V30 18342 H 1690.07 3.58332 -3.85883 0
M  V30 18343 H 1692.56 2.26102 -3.02797 0
M  V30 18344 H 1692.88 4.10759 -6.54597 0
M  V30 18345 H 1691.22 3.69995 -5.88327 0
M  V30 18346 H 1694.41 2.73274 -3.80051 0
M  V30 18347 H 1694.58 3.57498 -5.40462 0
M  V30 18348 N 1687.99 1.18137 1.04314 0
M  V30 18349 C 1689.4 0.979768 1.58926 0
M  V30 18350 C 1689.75 -0.471214 1.90457 0
M  V30 18351 O 1688.88 -1.34812 1.69277 0
M  V30 18352 C 1689.47 1.77219 2.88754 0
M  V30 18353 C 1688.03 1.61501 3.39992 0
M  V30 18354 C 1687.18 1.76824 2.13609 0
M  V30 18355 H 1690.13 1.32717 0.870162 0
M  V30 18356 H 1690.15 1.2598 3.59039 0
M  V30 18357 H 1689.66 2.82818 2.65773 0
M  V30 18358 H 1687.76 0.58427 3.67991 0
M  V30 18359 H 1687.88 2.4115 4.13985 0
M  V30 18360 H 1686.24 1.19747 2.24795 0
M  V30 18361 H 1687.02 2.83853 1.93087 0
M  V30 18362 N 1689.47 -1.23186 0.98301 0
M  V30 18363 C 1690.4 -2.24044 0.483426 0
M  V30 18364 C 1691.41 -1.57392 -0.416143 0
M  V30 18365 O 1692.6 -1.77141 -0.219861 0
M  V30 18366 C 1689.7 -3.37388 -0.319733 0
M  V30 18367 C 1688.88 -4.33623 0.57359 0
M  V30 18368 C 1687.93 -5.25905 -0.176165 0
M  V30 18369 O 1686.96 -5.67535 0.435099 0
M  V30 18370 N 1688.16 -5.61804 -1.46139 0
M  V30 18371 H 1690.93 -2.67539 1.35066 0
M  V30 18372 H 1688.49 -1.37384 0.856579 0
M  V30 18373 H 1690.48 -3.96103 -0.829719 0
M  V30 18374 H 1689.05 -2.93056 -1.08799 0
M  V30 18375 H 1688.27 -3.73373 1.26437 0
M  V30 18376 H 1689.56 -4.94873 1.18231 0
M  V30 18377 H 1688.96 -5.29936 -1.97949 0
M  V30 18378 H 1687.51 -6.22979 -1.91676 0
M  V30 18379 N 1690.95 -0.754982 -1.38339 0
M  V30 18380 C 1692.22 -0.237208 -1.94156 0
M  V30 18381 C 1692.6 1.26479 -1.69016 0
M  V30 18382 O 1691.95 2.03995 -1.02948 0
M  V30 18383 C 1692.16 -0.592412 -3.43935 0
M  V30 18384 C 1693.51 -0.552832 -4.20986 0
M  V30 18385 O 1694.53 -0.530789 -3.52223 0
M  V30 18386 O 1693.39 -0.565006 -5.43571 0
M  V30 18387 H 1690.49 -0.0500619 -0.825483 0
M  V30 18388 H 1693.03 -0.835199 -1.47724 0
M  V30 18389 H 1691.8 -1.62969 -3.55748 0
M  V30 18390 H 1691.43 0.0335119 -3.97586 0
M  V30 18391 N 1692.42 1.49318 -0.504168 0
M  V30 18392 C 1693.65 2.06869 0.0359415 0
M  V30 18393 C 1694.07 1.3641 1.30529 0
M  V30 18394 O 1693.42 0.443416 1.77031 0
M  V30 18395 C 1693.48 3.60333 0.290233 0
M  V30 18396 O 1693.2 4.28141 -0.928801 0
M  V30 18397 C 1694.7 4.34606 0.873628 0
M  V30 18398 H 1691.92 0.670643 -0.0218893 0
M  V30 18399 H 1694.46 1.92058 -0.702432 0
M  V30 18400 H 1692.62 3.74836 0.978594 0
M  V30 18401 H 1693.03 5.19894 -0.693595 0
M  V30 18402 H 1694.5 5.42846 1.00112 0
M  V30 18403 H 1694.98 3.97297 1.87221 0
M  V30 18404 H 1695.59 4.24717 0.222638 0
M  V30 18405 N 1693.9 0.238138 1.5579 0
M  V30 18406 C 1695.18 -0.438905 1.90612 0
M  V30 18407 C 1695.56 -1.76522 1.15773 0
M  V30 18408 O 1694.91 -2.26871 0.272363 0
M  V30 18409 C 1695.12 -0.615595 3.43528 0
M  V30 18410 C 1696.47 -0.915478 4.14613 0
M  V30 18411 O 1697.49 -0.70178 3.49218 0
M  V30 18412 O 1696.35 -1.32194 5.30271 0
M  V30 18413 H 1693.44 -0.234355 0.7931 0
M  V30 18414 H 1695.99 0.281555 1.67348 0
M  V30 18415 H 1694.76 0.319274 3.89995 0
M  V30 18416 H 1694.38 -1.38692 3.72626 0
M  V30 18417 N 1695.38 -1.57561 -0.0350783 0
M  V30 18418 C 1696.31 -2.09201 -1.03716 0
M  V30 18419 C 1697.29 -0.993231 -1.3809 0
M  V30 18420 O 1698.48 -1.26812 -1.47079 0
M  V30 18421 C 1695.61 -2.56643 -2.3399 0
M  V30 18422 C 1694.56 -3.70731 -2.13874 0
M  V30 18423 C 1693.89 -4.04358 -3.49855 0
M  V30 18424 C 1695.19 -4.99393 -1.52982 0
M  V30 18425 H 1696.88 -2.93176 -0.60731 0
M  V30 18426 H 1694.43 -1.41036 -0.290683 0
M  V30 18427 H 1696.38 -2.9139 -3.04417 0
M  V30 18428 H 1695.1 -1.69744 -2.79024 0
M  V30 18429 H 1693.76 -3.36325 -1.45881 0
M  V30 18430 H 1693.41 -3.14534 -3.92527 0
M  V30 18431 H 1693.11 -4.81201 -3.37223 0
M  V30 18432 H 1694.63 -4.41633 -4.21654 0
M  V30 18433 H 1696.05 -5.32135 -2.13319 0
M  V30 18434 H 1694.45 -5.80807 -1.50943 0
M  V30 18435 H 1695.52 -4.82367 -0.494993 0
M  V30 18436 N 1696.86 0.307236 -1.54576 0
M  V30 18437 C 1697.77 1.4014 -1.88143 0
M  V30 18438 C 1698.78 1.5579 -0.774952 0
M  V30 18439 O 1699.96 1.70574 -1.07082 0
M  V30 18440 C 1697.03 2.74613 -2.11633 0
M  V30 18441 C 1696.09 2.68001 -3.35371 0
M  V30 18442 C 1695.32 3.96061 -3.57731 0
M  V30 18443 O 1695.54 4.95119 -2.83219 0
M  V30 18444 O 1694.48 3.98331 -4.51238 0
M  V30 18445 H 1698.3 1.14677 -2.81217 0
M  V30 18446 H 1695.89 0.502739 -1.40687 0
M  V30 18447 H 1697.77 3.54186 -2.2832 0
M  V30 18448 H 1696.44 2.99933 -1.21746 0
M  V30 18449 H 1695.35 1.86922 -3.24054 0
M  V30 18450 H 1696.68 2.47635 -4.25368 0
M  V30 18451 N 1698.34 1.46926 0.570122 0
M  V30 18452 C 1699.3 1.58009 1.6603 0
M  V30 18453 C 1700.3 0.456188 1.54193 0
M  V30 18454 O 1701.49 0.720879 1.58584 0
M  V30 18455 C 1698.62 1.51235 3.05517 0
M  V30 18456 H 1699.81 2.55178 1.57558 0
M  V30 18457 H 1697.37 1.34924 0.788998 0
M  V30 18458 H 1698.1 0.553929 3.19534 0
M  V30 18459 H 1697.89 2.3279 3.15518 0
M  V30 18460 H 1699.38 1.62101 3.84854 0
M  V30 18461 N 1699.82 -0.815801 1.34842 0
M  V30 18462 C 1701.04 -1.60397 1.30693 0
M  V30 18463 C 1701.46 -1.88434 -0.117536 0
M  V30 18464 O 1700.82 -1.48076 -1.06676 0
M  V30 18465 C 1700.87 -2.94069 2.10252 0
M  V30 18466 O 1700.59 -2.67251 3.47143 0
M  V30 18467 C 1702.09 -3.88456 2.13581 0
M  V30 18468 H 1699.31 -0.49835 0.449319 0
M  V30 18469 H 1701.85 -1.01451 1.77561 0
M  V30 18470 H 1700.01 -3.49554 1.67006 0
M  V30 18471 H 1700.42 -3.52536 3.88354 0
M  V30 18472 H 1701.9 -4.79391 2.73658 0
M  V30 18473 H 1702.37 -4.24359 1.13209 0
M  V30 18474 H 1702.98 -3.38907 2.56947 0
M  V30 18475 N 1701.29 -1.18689 -1.03686 0
M  V30 18476 C 1702.52 -1.01024 -1.81132 0
M  V30 18477 C 1702.94 0.436584 -1.82963 0
M  V30 18478 O 1702.3 1.31343 -1.24975 0
M  V30 18479 C 1702.35 -1.5742 -3.24424 0
M  V30 18480 O 1701.45 -0.79813 -4.04603 0
M  V30 18481 H 1700.79 -0.357623 -0.559465 0
M  V30 18482 H 1703.32 -1.57532 -1.30556 0
M  V30 18483 H 1703.33 -1.60295 -3.75193 0
M  V30 18484 H 1702.01 -2.6273 -3.22406 0
M  V30 18485 H 1700.59 -0.842 -3.6327 0
M  V30 18486 N 1702.77 1.22662 -0.989529 0
M  V30 18487 C 1703.72 2.22262 -0.508279 0
M  V30 18488 C 1704.71 1.55276 0.421694 0
M  V30 18489 O 1705.9 1.75239 0.249062 0
M  V30 18490 C 1703.03 3.42833 0.179058 0
M  V30 18491 C 1702.11 4.17032 -0.771021 0
M  V30 18492 N 1702.5 4.68046 -1.91746 0
M  V30 18493 C 1700.8 4.42131 -0.586208 0
M  V30 18494 C 1701.5 5.24592 -2.51352 0
M  V30 18495 N 1700.48 5.13056 -1.79652 0
M  V30 18496 H 1704.28 2.59343 -1.3827 0
M  V30 18497 H 1701.79 1.38295 -0.85136 0
M  V30 18498 H 1703.79 4.13372 0.541196 0
M  V30 18499 H 1702.45 3.07266 1.04965 0
M  V30 18500 H 1703.46 4.64107 -2.29836 0
M  V30 18501 H 1700.14 4.16818 0.238604 0
M  V30 18502 H 1701.53 5.74623 -3.48221 0
M  V30 18503 N 1704.25 0.762308 1.37937 0
M  V30 18504 C 1705.5 0.322369 1.99918 0
M  V30 18505 C 1705.82 -1.09843 1.60514 0
M  V30 18506 O 1705.08 -1.76837 0.83829 0
M  V30 18507 C 1705.38 0.402558 3.55126 0
M  V30 18508 C 1705.04 1.78025 4.14268 0
M  V30 18509 C 1703.71 2.15727 4.30134 0
M  V30 18510 C 1706.06 2.68359 4.46803 0
M  V30 18511 C 1703.39 3.43217 4.75835 0
M  V30 18512 C 1705.74 3.95248 4.93925 0
M  V30 18513 C 1704.4 4.33007 5.07997 0
M  V30 18514 H 1703.67 0.117963 0.73155 0
M  V30 18515 H 1706.32 0.974491 1.64851 0
M  V30 18516 H 1704.62 -0.333119 3.90381 0
M  V30 18517 H 1706.32 0.0436064 4.00976 0
M  V30 18518 H 1702.91 1.4772 4.02339 0
M  V30 18519 H 1707.1 2.40493 4.34139 0
M  V30 18520 H 1702.35 3.72379 4.84916 0
M  V30 18521 H 1706.53 4.6538 5.18068 0
M  V30 18522 H 1704.15 5.31856 5.4317 0
M  V30 18523 N 1705.73 -1.49049 0.51208 0
M  V30 18524 C 1706.96 -2.06885 -0.0249703 0
M  V30 18525 C 1707.37 -1.371 -1.29804 0
M  V30 18526 O 1706.73 -0.452798 -1.76794 0
M  V30 18527 C 1706.78 -3.60482 -0.27112 0
M  V30 18528 O 1706.5 -4.27643 0.951493 0
M  V30 18529 C 1708 -4.35063 -0.850568 0
M  V30 18530 H 1705.22 -0.670517 0.0254456 0
M  V30 18531 H 1707.76 -1.91682 0.712607 0
M  V30 18532 H 1705.92 -3.7535 -0.958702 0
M  V30 18533 H 1706.33 -5.19519 0.721156 0
M  V30 18534 H 1707.81 -5.43369 -0.972322 0
M  V30 18535 H 1708.28 -3.98285 -1.85111 0
M  V30 18536 H 1708.89 -4.24829 -0.200111 0
M  V30 18537 N 1707.21 -0.246397 -1.55662 0
M  V30 18538 C 1708.15 0.653368 -2.21359 0
M  V30 18539 C 1709.12 1.1717 -1.1773 0
M  V30 18540 O 1710.31 1.22626 -1.46176 0
M  V30 18541 C 1707.45 1.84484 -2.9165 0
M  V30 18542 C 1706.56 1.36308 -4.09932 0
M  V30 18543 C 1705.7 2.51407 -4.6794 0
M  V30 18544 C 1704.73 2.0009 -5.78472 0
M  V30 18545 N 1703.87 3.08555 -6.30665 0
M  V30 18546 H 1708.71 0.0864458 -2.97875 0
M  V30 18547 H 1706.25 0.0309074 -1.47068 0
M  V30 18548 H 1708.21 2.54476 -3.30602 0
M  V30 18549 H 1706.84 2.38425 -2.17609 0
M  V30 18550 H 1705.89 0.557224 -3.76297 0
M  V30 18551 H 1707.2 0.946988 -4.89728 0
M  V30 18552 H 1706.35 3.29442 -5.09463 0
M  V30 18553 H 1705.09 2.96318 -3.87359 0
M  V30 18554 H 1704.1 1.20526 -5.36427 0
M  V30 18555 H 1705.32 1.5615 -6.60904 0
M  V30 18556 H 1703.27 3.529 -5.52989 0
M  V30 18557 H 1703.19 2.71274 -7.05653 0
M  V30 18558 H 1704.45 3.8665 -6.76847 0
M  V30 18559 N 1708.68 1.57577 0.026722 0
M  V30 18560 C 1709.63 2.06711 1.02661 0
M  V30 18561 C 1710.6 0.956754 1.35777 0
M  V30 18562 O 1711.79 1.22747 1.46074 0
M  V30 18563 C 1708.93 2.55321 2.32175 0
M  V30 18564 C 1708.04 3.80155 2.05197 0
M  V30 18565 C 1707.17 4.17368 3.28599 0
M  V30 18566 C 1706.21 5.35114 2.97186 0
M  V30 18567 N 1705.35 5.67747 4.13046 0
M  V30 18568 H 1710.19 2.91884 0.600666 0
M  V30 18569 H 1707.73 1.44313 0.284968 0
M  V30 18570 H 1709.68 2.81572 3.07853 0
M  V30 18571 H 1708.31 1.73061 2.72488 0
M  V30 18572 H 1707.37 3.60975 1.20006 0
M  V30 18573 H 1708.68 4.65949 1.78026 0
M  V30 18574 H 1707.83 4.4476 4.12642 0
M  V30 18575 H 1706.57 3.30231 3.58886 0
M  V30 18576 H 1705.58 5.07473 2.11545 0
M  V30 18577 H 1706.8 6.23906 2.68175 0
M  V30 18578 H 1704.75 4.83569 4.4328 0
M  V30 18579 H 1704.66 6.48056 3.89307 0
M  V30 18580 H 1705.93 5.99717 4.97956 0
M  V30 18581 N 1710.16 -0.299034 1.54737 0
M  V30 18582 C 1711.41 -1.03164 1.7332 0
M  V30 18583 C 1711.72 -1.88362 0.527184 0
M  V30 18584 O 1712.93 -2.64903 0.594868 0
M  V30 18585 C 1711.39 -1.88391 3.06654 0
M  V30 18586 C 1710.99 -1.08187 4.34741 0
M  V30 18587 C 1712.74 -2.6124 3.34595 0
M  V30 18588 C 1710.64 -1.92702 5.59124 0
M  V30 18589 H 1709.57 -0.388887 0.645975 0
M  V30 18590 H 1712.23 -0.288544 1.81217 0
M  V30 18591 H 1710.61 -2.66696 2.92727 0
M  V30 18592 H 1711.78 -0.344817 4.59508 0
M  V30 18593 H 1710.1 -0.469118 4.13749 0
M  V30 18594 H 1712.69 -3.24826 4.24726 0
M  V30 18595 H 1713.04 -3.30172 2.53559 0
M  V30 18596 H 1713.57 -1.89982 3.49502 0
M  V30 18597 H 1710.31 -1.28236 6.42834 0
M  V30 18598 H 1709.83 -2.64074 5.38539 0
M  V30 18599 H 1711.51 -2.50702 5.96454 0
M  V30 18600 N 1711.64 -1.47227 -0.562322 0
M  V30 18601 C 1712.59 -1.59329 -1.66981 0
M  V30 18602 C 1713.56 -0.436558 -1.6026 0
M  V30 18603 O 1714.74 -0.655956 -1.7917 0
M  V30 18604 C 1711.88 -1.60874 -3.05309 0
M  V30 18605 C 1710.99 -2.87428 -3.22505 0
M  V30 18606 C 1710.13 -2.80342 -4.512 0
M  V30 18607 C 1709.17 -4.01744 -4.6181 0
M  V30 18608 N 1708.31 -3.92924 -5.81855 0
M  V30 18609 H 1713.15 -2.53921 -1.55975 0
M  V30 18610 H 1710.68 -1.25953 -0.759879 0
M  V30 18611 H 1712.64 -1.59753 -3.85402 0
M  V30 18612 H 1711.27 -0.697994 -3.15163 0
M  V30 18613 H 1710.32 -2.98439 -2.35878 0
M  V30 18614 H 1711.63 -3.77345 -3.26209 0
M  V30 18615 H 1710.79 -2.77442 -5.39547 0
M  V30 18616 H 1709.53 -1.881 -4.49966 0
M  V30 18617 H 1708.53 -4.04954 -3.71877 0
M  V30 18618 H 1709.76 -4.95107 -4.64807 0
M  V30 18619 H 1707.7 -3.03481 -5.8158 0
M  V30 18620 H 1707.62 -4.76514 -5.86916 0
M  V30 18621 H 1708.89 -3.94031 -6.72577 0
M  V30 18622 N 1713.12 0.808639 -1.35273 0
M  V30 18623 C 1714.03 1.95198 -1.30134 0
M  V30 18624 C 1715.04 1.72769 -0.206587 0
M  V30 18625 O 1716.22 1.96633 -0.4356 0
M  V30 18626 C 1713.28 3.29747 -1.07087 0
M  V30 18627 C 1712.35 3.65086 -2.25855 0
M  V30 18628 C 1711.58 4.93215 -2.03898 0
M  V30 18629 O 1711.8 5.61487 -1.00439 0
M  V30 18630 O 1710.74 5.26765 -2.91208 0
M  V30 18631 H 1714.56 2.0248 -2.26353 0
M  V30 18632 H 1712.15 0.946124 -1.15624 0
M  V30 18633 H 1714.03 4.10302 -0.960734 0
M  V30 18634 H 1712.7 3.23401 -0.139177 0
M  V30 18635 H 1711.61 2.84917 -2.42432 0
M  V30 18636 H 1712.94 3.76135 -3.17464 0
M  V30 18637 N 1714.6 1.19237 1.03055 0
M  V30 18638 C 1715.82 1.01983 1.80594 0
M  V30 18639 C 1716.25 -0.426875 1.83192 0
M  V30 18640 O 1715.6 -1.30678 1.2567 0
M  V30 18641 C 1715.65 1.59139 3.23585 0
M  V30 18642 O 1714.76 0.819576 4.04174 0
M  V30 18643 H 1714.1 0.360585 0.557561 0
M  V30 18644 H 1716.63 1.58222 1.29719 0
M  V30 18645 H 1716.64 1.62283 3.74337 0
M  V30 18646 H 1715.31 2.64436 3.21009 0
M  V30 18647 H 1713.89 0.861253 3.62818 0
M  V30 18648 N 1716.07 -1.22136 0.99602 0
M  V30 18649 C 1717 -2.26463 0.568909 0
M  V30 18650 C 1717.99 -1.65189 -0.405783 0
M  V30 18651 O 1719.17 -1.91935 -0.295735 0
M  V30 18652 C 1716.3 -3.47112 -0.114166 0
M  V30 18653 C 1715.25 -4.20844 0.779387 0
M  V30 18654 C 1714.58 -5.34687 -0.0367787 0
M  V30 18655 C 1715.88 -4.79195 2.07773 0
M  V30 18656 H 1717.57 -2.62443 1.44097 0
M  V30 18657 H 1715.12 -1.26156 0.694314 0
M  V30 18658 H 1717.07 -4.19258 -0.424381 0
M  V30 18659 H 1715.8 -3.10238 -1.02079 0
M  V30 18660 H 1714.46 -3.50537 1.07329 0
M  V30 18661 H 1714.1 -4.94054 -0.94442 0
M  V30 18662 H 1713.8 -5.84944 0.558092 0
M  V30 18663 H 1715.33 -6.09647 -0.341016 0
M  V30 18664 H 1716.74 -5.43266 1.83126 0
M  V30 18665 H 1715.14 -5.39803 2.62169 0
M  V30 18666 H 1716.21 -3.99073 2.75442 0
M  V30 18667 N 1717.55 -0.769612 -1.37531 0
M  V30 18668 C 1718.46 -0.15514 -2.34086 0
M  V30 18669 C 1719.48 0.682108 -1.60073 0
M  V30 18670 O 1720.65 0.602527 -1.92176 0
M  V30 18671 C 1717.72 0.715344 -3.3924 0
M  V30 18672 C 1716.78 -0.138116 -4.29078 0
M  V30 18673 C 1716.01 0.690916 -5.29209 0
M  V30 18674 O 1716.24 1.92812 -5.36824 0
M  V30 18675 O 1715.17 0.101247 -6.01815 0
M  V30 18676 H 1719 -0.952968 -2.88361 0
M  V30 18677 H 1716.58 -0.530738 -1.39655 0
M  V30 18678 H 1718.46 1.21236 -4.03584 0
M  V30 18679 H 1717.14 1.4914 -2.87296 0
M  V30 18680 H 1716.05 -0.681443 -3.67841 0
M  V30 18681 H 1717.38 -0.877202 -4.8432 0
M  V30 18682 N 1719.03 1.48775 -0.519977 0
M  V30 18683 C 1720.27 2.04394 0.0158731 0
M  V30 18684 C 1720.63 1.38935 1.32518 0
M  V30 18685 O 1721.84 1.85383 1.94645 0
M  V30 18686 C 1720.11 3.57103 0.145657 0
M  V30 18687 S 1721.67 4.3421 0.633016 0
M  V30 18688 H 1718.48 0.710963 -0.0072764 0
M  V30 18689 H 1721.09 1.82605 -0.698264 0
M  V30 18690 H 1719.79 4.02282 -0.812259 0
M  V30 18691 H 1719.32 3.83328 0.884471 0
M  V30 18692 H 1721.34 4.58416 1.89918 0
M  V30 18693 N 1720.51 0.254649 1.55529 0
M  V30 18694 C 1721.76 -0.367932 1.99129 0
M  V30 18695 C 1722.08 -1.5738 1.14288 0
M  V30 18696 O 1721.34 -1.94721 0.195543 0
M  V30 18697 C 1721.64 -0.813781 3.48012 0
M  V30 18698 C 1721.3 0.285187 4.49997 0
M  V30 18699 C 1719.97 0.586996 4.77606 0
M  V30 18700 C 1722.32 1.02673 5.10987 0
M  V30 18701 C 1719.65 1.63429 5.63478 0
M  V30 18702 C 1722 2.0636 5.97995 0
M  V30 18703 C 1720.66 2.37197 6.23934 0
M  V30 18704 H 1719.93 -0.134636 0.728666 0
M  V30 18705 H 1722.58 0.364091 1.88007 0
M  V30 18706 H 1720.88 -1.62514 3.56506 0
M  V30 18707 H 1722.58 -1.3059 3.7914 0
M  V30 18708 H 1719.17 0.0398187 4.28582 0
M  V30 18709 H 1723.35 0.806814 4.89698 0
M  V30 18710 H 1718.61 1.87846 5.81828 0
M  V30 18711 H 1722.78 2.64306 6.44294 0
M  V30 18712 H 1720.41 3.18487 6.90268 0
M  V30 18713 N 1721.99 -1.57589 -0.0183649 0
M  V30 18714 C 1723.4 -1.7799 -0.563591 0
M  V30 18715 C 1723.75 -0.887064 -1.75002 0
M  V30 18716 O 1722.87 -0.0846843 -2.16234 0
M  V30 18717 C 1723.47 -3.2279 -1.02919 0
M  V30 18718 C 1722.03 -3.44351 -1.51986 0
M  V30 18719 C 1721.17 -2.73412 -0.462727 0
M  V30 18720 H 1724.13 -1.57333 0.207849 0
M  V30 18721 H 1724.15 -3.29892 -1.89609 0
M  V30 18722 H 1723.66 -3.87747 -0.165487 0
M  V30 18723 H 1721.76 -2.84583 -2.40506 0
M  V30 18724 H 1721.87 -4.52992 -1.55998 0
M  V30 18725 H 1720.24 -2.37496 -0.920211 0
M  V30 18726 H 1721.02 -3.41058 0.391698 0
M  V30 18727 N 1723.46 0.290824 -1.54893 0
M  V30 18728 C 1724.71 1.02627 -1.74916 0
M  V30 18729 C 1725.04 1.86572 -0.538921 0
M  V30 18730 O 1724.32 1.88888 0.463844 0
M  V30 18731 C 1724.6 1.92376 -3.04407 0
M  V30 18732 C 1724.45 1.11542 -4.3575 0
M  V30 18733 C 1725.77 2.91383 -3.29824 0
M  V30 18734 H 1722.89 0.371685 -0.636411 0
M  V30 18735 H 1725.53 0.300072 -1.87615 0
M  V30 18736 H 1723.68 2.54295 -2.93711 0
M  V30 18737 H 1725.36 0.518312 -4.58379 0
M  V30 18738 H 1723.6 0.418386 -4.31778 0
M  V30 18739 H 1724.27 1.77616 -5.22644 0
M  V30 18740 H 1726.75 2.39595 -3.40196 0
M  V30 18741 H 1725.62 3.51338 -4.21726 0
M  V30 18742 H 1725.88 3.65579 -2.48606 0
M  V30 18743 N 1724.94 1.47523 0.554506 0
M  V30 18744 C 1725.89 1.60213 1.66134 0
M  V30 18745 C 1726.86 0.445051 1.60027 0
M  V30 18746 O 1728.04 0.665449 1.7882 0
M  V30 18747 C 1725.18 1.62491 3.04452 0
M  V30 18748 C 1724.3 2.89134 3.20976 0
M  V30 18749 C 1723.43 2.82731 4.49707 0
M  V30 18750 C 1722.47 4.04187 4.59673 0
M  V30 18751 N 1721.61 3.96004 5.79763 0
M  V30 18752 H 1726.45 2.54744 1.54626 0
M  V30 18753 H 1723.99 1.26355 0.753189 0
M  V30 18754 H 1725.94 1.61795 3.84549 0
M  V30 18755 H 1724.57 0.714698 3.14789 0
M  V30 18756 H 1723.63 2.99685 2.34292 0
M  V30 18757 H 1724.94 3.79069 3.24203 0
M  V30 18758 H 1724.09 2.80299 5.38068 0
M  V30 18759 H 1722.83 1.90483 4.48963 0
M  V30 18760 H 1721.84 4.06921 3.69724 0
M  V30 18761 H 1723.06 4.97565 4.62175 0
M  V30 18762 H 1721.01 3.06561 5.79962 0
M  V30 18763 H 1720.92 4.7962 5.8438 0
M  V30 18764 H 1722.19 3.97593 6.70478 0
M  V30 18765 N 1726.42 -0.801453 1.357 0
M  V30 18766 C 1727.35 -1.92807 1.31711 0
M  V30 18767 C 1728.33 -1.69028 0.190642 0
M  V30 18768 O 1729.52 -1.90317 0.38641 0
M  V30 18769 C 1726.65 -3.29635 1.09352 0
M  V30 18770 C 1725.6 -3.67908 2.18695 0
M  V30 18771 C 1724.93 -5.02955 1.81494 0
M  V30 18772 C 1726.23 -3.77749 3.60698 0
M  V30 18773 H 1727.92 -1.96401 2.2598 0
M  V30 18774 H 1725.47 -0.943528 1.08782 0
M  V30 18775 H 1727.42 -4.08058 1.052 0
M  V30 18776 H 1726.14 -3.26396 0.115306 0
M  V30 18777 H 1724.8 -2.91775 2.21952 0
M  V30 18778 H 1724.45 -4.96225 0.822776 0
M  V30 18779 H 1724.15 -5.29533 2.54692 0
M  V30 18780 H 1725.67 -5.83811 1.78876 0
M  V30 18781 H 1727.09 -4.4639 3.59734 0
M  V30 18782 H 1725.49 -4.15801 4.327 0
M  V30 18783 H 1726.56 -2.79167 3.96477 0
M  V30 18784 N 1727.9 -1.19782 -1.02421 0
M  V30 18785 C 1728.85 -0.936475 -2.12915 0
M  V30 18786 C 1729.84 0.10941 -1.69046 0
M  V30 18787 O 1731.05 -0.04026 -1.79955 0
M  V30 18788 H 1727.42 -0.285462 -0.695712 0
M  V30 18789 H 1729.39 -1.87485 -2.32146 0
M  V30 18790 C 1728.14 -0.496786 -3.44133 0
M  V30 18791 H 1727.46 -1.29314 -3.78309 0
M  V30 18792 H 1728.9 -0.353073 -4.22527 0
M  V30 18793 C 1727.36 0.789792 -3.27512 0
M  V30 18794 O 1727.89 1.85009 -3.56559 0
M  V30 18795 N 1726.1 0.748849 -2.80786 0
M  V30 18796 H 1725.65 -0.114256 -2.57346 0
M  V30 18797 H 1725.6 1.61005 -2.70046 0
M  V30 18798 N 1729.38 1.21606 -1.00248 0
M  V30 18799 C 1730.33 2.2591 -0.553856 0
M  V30 18800 C 1731.32 1.64602 0.400323 0
M  V30 18801 O 1732.53 1.77936 0.271792 0
M  V30 18802 H 1728.9 0.734618 -0.160749 0
M  V30 18803 H 1730.87 2.61091 -1.44479 0
M  V30 18804 C 1729.62 3.47537 0.106293 0
M  V30 18805 H 1728.94 3.94981 -0.61889 0
M  V30 18806 H 1730.38 4.22262 0.383514 0
M  V30 18807 C 1728.84 3.08901 1.34469 0
M  V30 18808 O 1729.37 3.1916 2.43926 0
M  V30 18809 N 1727.58 2.63588 1.2235 0
M  V30 18810 H 1727.13 2.55441 0.332852 0
M  V30 18811 H 1727.08 2.38106 2.05312 0
M  V30 18812 N 1730.86 0.776895 1.37121 0
M  V30 18813 C 1731.79 0.180738 2.32799 0
M  V30 18814 C 1732.77 -0.677284 1.56035 0
M  V30 18815 O 1733.95 -0.613687 1.84249 0
M  V30 18816 C 1731.08 -0.695148 3.40272 0
M  V30 18817 C 1730.04 0.0619772 4.27955 0
M  V30 18818 C 1729.36 -0.933688 5.26485 0
M  V30 18819 C 1730.66 1.24396 5.0727 0
M  V30 18820 H 1732.36 0.980039 2.82906 0
M  V30 18821 H 1729.9 0.472722 1.3602 0
M  V30 18822 H 1731.85 -1.12205 4.06187 0
M  V30 18823 H 1730.58 -1.52702 2.88703 0
M  V30 18824 H 1729.24 0.469717 3.63578 0
M  V30 18825 H 1728.89 -1.76025 4.71194 0
M  V30 18826 H 1728.59 -0.431608 5.86013 0
M  V30 18827 H 1730.11 -1.35942 5.95275 0
M  V30 18828 H 1731.52 0.89345 5.66295 0
M  V30 18829 H 1729.92 1.67848 5.76149 0
M  V30 18830 H 1730.99 2.04553 4.39643 0
M  V30 18831 N 1732.33 -1.48497 0.527859 0
M  V30 18832 C 1733.58 -2.01698 -0.00900086 0
M  V30 18833 C 1733.9 -1.4104 -1.35525 0
M  V30 18834 O 1735.1 -1.85726 -1.98035 0
M  V30 18835 C 1733.56 -3.59839 -0.0664428 0
M  V30 18836 C 1733.17 -4.2948 1.27479 0
M  V30 18837 C 1734.91 -4.20893 -0.552244 0
M  V30 18838 C 1732.82 -5.79548 1.17805 0
M  V30 18839 H 1731.75 -0.753966 -0.00713463 0
M  V30 18840 H 1734.4 -1.70779 0.67132 0
M  V30 18841 H 1732.78 -3.8759 -0.811795 0
M  V30 18842 H 1733.95 -4.13403 2.03554 0
M  V30 18843 H 1732.27 -3.80289 1.69616 0
M  V30 18844 H 1734.87 -5.30825 -0.642556 0
M  V30 18845 H 1735.21 -3.86066 -1.55752 0
M  V30 18846 H 1735.74 -3.97563 0.137363 0
M  V30 18847 H 1732.48 -6.18945 2.15841 0
M  V30 18848 H 1732 -5.98044 0.458624 0
M  V30 18849 H 1733.68 -6.41153 0.867834 0
M  V30 18850 N 1733.81 -0.262893 -1.55392 0
M  V30 18851 C 1734.76 0.644115 -2.18712 0
M  V30 18852 C 1735.75 1.12746 -1.14792 0
M  V30 18853 O 1736.94 1.07457 -1.40649 0
M  V30 18854 C 1734.07 1.83346 -2.9024 0
M  V30 18855 C 1733.15 1.36787 -4.01435 0
M  V30 18856 N 1733.54 0.617586 -5.02015 0
M  V30 18857 C 1731.84 1.65185 -4.14283 0
M  V30 18858 C 1732.54 0.374392 -5.80494 0
M  V30 18859 N 1731.52 0.943273 -5.35353 0
M  V30 18860 H 1735.32 0.062908 -2.93833 0
M  V30 18861 H 1732.83 -0.0659062 -1.62266 0
M  V30 18862 H 1734.83 2.49441 -3.34043 0
M  V30 18863 H 1733.49 2.41874 -2.16627 0
M  V30 18864 H 1734.5 0.266115 -5.17216 0
M  V30 18865 H 1731.18 2.24736 -3.51852 0
M  V30 18866 H 1732.57 -0.225674 -6.71521 0
M  V30 18867 N 1735.29 1.57597 0.0100073 0
M  V30 18868 C 1736.52 1.94402 0.708192 0
M  V30 18869 C 1736.93 0.864205 1.6786 0
M  V30 18870 O 1736.29 -0.157763 1.81817 0
M  V30 18871 C 1736.34 3.312 1.44876 0
M  V30 18872 O 1736.06 4.35035 0.517281 0
M  V30 18873 C 1737.56 3.82404 2.24237 0
M  V30 18874 H 1734.78 0.64116 0.197877 0
M  V30 18875 H 1737.33 2.04464 -0.0381373 0
M  V30 18876 H 1735.48 3.22476 2.1468 0
M  V30 18877 H 1735.9 5.14113 1.03868 0
M  V30 18878 H 1737.37 4.80578 2.71567 0
M  V30 18879 H 1737.85 3.14587 3.06483 0
M  V30 18880 H 1738.45 3.94271 1.59469 0
M  V30 18881 N 1736.77 -0.282606 1.55045 0
M  V30 18882 C 1737.7 -1.35347 1.90272 0
M  V30 18883 C 1738.68 -1.52001 0.763532 0
M  V30 18884 O 1739.86 -1.65204 1.02085 0
M  V30 18885 C 1736.99 -2.71464 2.16621 0
M  V30 18886 C 1735.95 -2.69554 3.32453 0
M  V30 18887 C 1735.27 -4.09132 3.4426 0
M  V30 18888 C 1736.57 -2.29669 4.69094 0
M  V30 18889 H 1738.27 -1.06113 2.79965 0
M  V30 18890 H 1735.81 -0.509018 1.34703 0
M  V30 18891 H 1737.77 -3.46482 2.39851 0
M  V30 18892 H 1736.49 -3.02261 1.23717 0
M  V30 18893 H 1735.15 -1.96993 3.09175 0
M  V30 18894 H 1734.8 -4.37136 2.4884 0
M  V30 18895 H 1734.5 -4.08751 4.22133 0
M  V30 18896 H 1736.02 -4.85903 3.69771 0
M  V30 18897 H 1737.44 -2.94407 4.91932 0
M  V30 18898 H 1735.83 -2.40467 5.49814 0
M  V30 18899 H 1736.9 -1.24796 4.68566 0
M  V30 18900 N 1738.25 -1.47815 -0.546675 0
M  V30 18901 C 1739.21 -1.6063 -1.63495 0
M  V30 18902 C 1740.21 -0.480661 -1.53448 0
M  V30 18903 O 1741.4 -0.746017 -1.57417 0
M  V30 18904 C 1738.53 -1.56076 -3.03073 0
M  V30 18905 H 1739.72 -2.57652 -1.53478 0
M  V30 18906 H 1737.28 -1.36162 -0.767433 0
M  V30 18907 H 1738.01 -0.604694 -3.18613 0
M  V30 18908 H 1737.8 -2.3778 -3.11774 0
M  V30 18909 H 1739.29 -1.68204 -3.82227 0
M  V30 18910 N 1739.72 0.794246 -1.36123 0
M  V30 18911 C 1740.66 1.91514 -1.25917 0
M  V30 18912 C 1741.67 1.61805 -0.179715 0
M  V30 18913 O 1742.86 1.73143 -0.434029 0
M  V30 18914 C 1739.96 3.26201 -0.919018 0
M  V30 18915 C 1739.13 3.83725 -2.09937 0
M  V30 18916 C 1738.19 4.96842 -1.73304 0
M  V30 18917 O 1737.22 5.13615 -2.45333 0
M  V30 18918 N 1738.42 5.76691 -0.663887 0
M  V30 18919 H 1741.18 2.00793 -2.22491 0
M  V30 18920 H 1738.74 0.97228 -1.29454 0
M  V30 18921 H 1740.74 3.99361 -0.655208 0
M  V30 18922 H 1739.31 3.12571 -0.0425606 0
M  V30 18923 H 1738.53 3.02611 -2.52626 0
M  V30 18924 H 1739.81 4.18889 -2.88806 0
M  V30 18925 H 1739.21 5.65662 -0.0657071 0
M  V30 18926 H 1737.77 6.50176 -0.459889 0
M  V30 18927 N 1741.2 1.20323 1.01785 0
M  V30 18928 C 1742.13 0.894265 2.09948 0
M  V30 18929 C 1743.11 -0.15315 1.61877 0
M  V30 18930 O 1744.3 -0.0270078 1.88481 0
M  V30 18931 C 1741.42 0.3404 3.36985 0
M  V30 18932 C 1740.47 1.36861 4.03945 0
M  V30 18933 S 1741.3 2.9332 4.48022 0
M  V30 18934 C 1742.46 2.39506 5.78263 0
M  V30 18935 H 1742.69 1.81026 2.35833 0
M  V30 18936 H 1740.22 1.03157 1.14883 0
M  V30 18937 H 1742.18 0.0273874 4.10491 0
M  V30 18938 H 1740.84 -0.554073 3.09174 0
M  V30 18939 H 1740.04 0.930418 4.95337 0
M  V30 18940 H 1739.64 1.62903 3.36658 0
M  V30 18941 H 1741.93 1.7919 6.53374 0
M  V30 18942 H 1742.87 3.2929 6.26876 0
M  V30 18943 H 1743.28 1.81678 5.34465 0
M  V30 18944 N 1742.68 -1.21073 1.00892 0
M  V30 18945 C 1743.9 -1.94774 0.712588 0
M  V30 18946 C 1744.33 -1.73812 -0.719085 0
M  V30 18947 O 1743.69 -1.02747 -1.49374 0
M  V30 18948 C 1743.74 -3.45156 1.04402 0
M  V30 18949 O 1742.84 -4.12122 0.151433 0
M  V30 18950 H 1742.18 -0.608775 0.26512 0
M  V30 18951 H 1744.71 -1.53721 1.35022 0
M  V30 18952 H 1744.72 -3.95744 0.992511 0
M  V30 18953 H 1743.4 -3.59736 2.08716 0
M  V30 18954 H 1741.97 -3.71994 0.259805 0
M  V30 18955 N 1744.16 -0.784156 -1.36707 0
M  V30 18956 C 1745.12 -0.184957 -2.28453 0
M  V30 18957 C 1746.12 0.614637 -1.4859 0
M  V30 18958 O 1747.31 0.436403 -1.68645 0
M  V30 18959 C 1744.44 0.744662 -3.32667 0
M  V30 18960 H 1745.64 -0.993861 -2.82953 0
M  V30 18961 H 1743.19 -0.553214 -1.46182 0
M  V30 18962 H 1743.92 1.57811 -2.83313 0
M  V30 18963 H 1743.71 0.173313 -3.91717 0
M  V30 18964 H 1745.2 1.15894 -4.01196 0
M  V30 18965 N 1745.64 1.48215 -0.535727 0
M  V30 18966 C 1746.89 2.017 -0.0016958 0
M  V30 18967 C 1747.2 1.41756 1.34776 0
M  V30 18968 O 1748.4 1.86774 1.97048 0
M  V30 18969 C 1746.86 3.59869 0.0473588 0
M  V30 18970 C 1746.47 4.28798 -1.29754 0
M  V30 18971 C 1748.21 4.21179 0.529915 0
M  V30 18972 C 1746.12 5.78915 -1.20876 0
M  V30 18973 H 1745.05 0.753993 0.00313606 0
M  V30 18974 H 1747.7 1.70421 -0.680368 0
M  V30 18975 H 1746.08 3.88015 0.791229 0
M  V30 18976 H 1747.26 4.12318 -2.05743 0
M  V30 18977 H 1745.57 3.79384 -1.7163 0
M  V30 18978 H 1748.17 5.31158 0.614396 0
M  V30 18979 H 1748.51 3.86887 1.53702 0
M  V30 18980 H 1749.04 3.97484 -0.158445 0
M  V30 18981 H 1745.78 6.17792 -2.1912 0
M  V30 18982 H 1745.3 5.97792 -0.490333 0
M  V30 18983 H 1746.98 6.40684 -0.901824 0
M  V30 18984 N 1747.11 0.27113 1.5525 0
M  V30 18985 C 1748.34 -0.353138 2.04371 0
M  V30 18986 C 1748.76 -1.48978 1.14835 0
M  V30 18987 O 1748.12 -1.8071 0.146138 0
M  V30 18988 C 1748.17 -0.815425 3.51259 0
M  V30 18989 O 1747.27 -1.92302 3.6482 0
M  V30 18990 H 1746.62 -0.0736207 0.659906 0
M  V30 18991 H 1749.15 0.404266 2.00566 0
M  V30 18992 H 1749.16 -1.11224 3.92547 0
M  V30 18993 H 1747.83 0.0162079 4.15897 0
M  V30 18994 H 1746.41 -1.62904 3.35435 0
M  V30 18995 N 1748.59 -1.576 -0.00164943 0
M  V30 18996 C 1750 -1.78578 -0.544681 0
M  V30 18997 C 1750.35 -0.905575 -1.74051 0
M  V30 18998 O 1749.48 -0.107614 -2.16132 0
M  V30 18999 C 1750.07 -3.23863 -0.994898 0
M  V30 19000 C 1748.63 -3.45943 -1.48325 0
M  V30 19001 C 1747.78 -2.73887 -0.433702 0
M  V30 19002 H 1750.73 -1.57104 0.224524 0
M  V30 19003 H 1750.75 -3.31885 -1.86099 0
M  V30 19004 H 1750.26 -3.87901 -0.124352 0
M  V30 19005 H 1748.37 -2.87118 -2.37474 0
M  V30 19006 H 1748.48 -4.54621 -1.51185 0
M  V30 19007 H 1746.84 -2.38458 -0.894969 0
M  V30 19008 H 1747.63 -3.40623 0.42785 0
M  V30 19009 N 1750.07 0.274379 -1.55193 0
M  V30 19010 C 1751.03 1.32237 -1.87206 0
M  V30 19011 C 1752.03 1.4242 -0.74654 0
M  V30 19012 O 1753.22 1.41595 -1.01472 0
M  V30 19013 C 1750.36 2.7039 -2.0761 0
M  V30 19014 H 1751.55 1.05083 -2.80887 0
M  V30 19015 H 1749.1 0.512375 -1.47663 0
M  V30 19016 H 1749.84 3.02727 -1.16306 0
M  V30 19017 H 1749.62 2.64385 -2.89556 0
M  V30 19018 H 1751.11 3.46114 -2.33655 0
M  V30 19019 N 1751.55 1.48103 0.538828 0
M  V30 19020 C 1752.5 1.61966 1.64425 0
M  V30 19021 C 1753.47 0.461999 1.59546 0
M  V30 19022 O 1754.65 0.684377 1.78104 0
M  V30 19023 C 1751.79 1.65711 3.02711 0
M  V30 19024 C 1750.9 2.92522 3.17891 0
M  V30 19025 C 1750.04 2.87485 4.46683 0
M  V30 19026 C 1749.08 4.0904 4.5536 0
M  V30 19027 N 1748.21 4.02131 5.7553 0
M  V30 19028 H 1753.05 2.5637 1.51916 0
M  V30 19029 H 1750.59 1.27146 0.739745 0
M  V30 19030 H 1752.55 1.65864 3.82812 0
M  V30 19031 H 1751.18 0.748045 3.14013 0
M  V30 19032 H 1750.23 3.02154 2.311 0
M  V30 19033 H 1751.54 3.82487 3.20165 0
M  V30 19034 H 1750.7 2.8599 5.35065 0
M  V30 19035 H 1749.44 1.95234 4.46917 0
M  V30 19036 H 1748.44 4.10819 3.65387 0
M  V30 19037 H 1749.67 5.02439 4.56872 0
M  V30 19038 H 1747.61 3.12695 5.76678 0
M  V30 19039 H 1747.53 4.85791 5.7926 0
M  V30 19040 H 1748.8 4.04682 6.66223 0
M  V30 19041 N 1753.03 -0.787016 1.36542 0
M  V30 19042 C 1754.25 -1.58103 1.34231 0
M  V30 19043 C 1754.68 -1.87956 -0.0734932 0
M  V30 19044 O 1754.03 -1.48073 -1.04615 0
M  V30 19045 C 1754.08 -2.87739 2.17345 0
M  V30 19046 O 1753.19 -3.81445 1.56759 0
M  V30 19047 H 1752.53 -0.479495 0.459326 0
M  V30 19048 H 1755.06 -0.975294 1.79859 0
M  V30 19049 H 1755.07 -3.36986 2.3001 0
M  V30 19050 H 1753.74 -2.65338 3.20264 0
M  V30 19051 H 1752.32 -3.40046 1.53047 0
M  V30 19052 N 1754.5 -1.20861 -1.01145 0
M  V30 19053 C 1755.73 -1.04769 -1.78413 0
M  V30 19054 C 1756.15 0.402846 -1.84452 0
M  V30 19055 O 1755.5 1.27962 -1.30123 0
M  V30 19056 C 1755.56 -1.63065 -3.22633 0
M  V30 19057 O 1755.28 -3.02443 -3.16954 0
M  V30 19058 C 1756.78 -1.51996 -4.16428 0
M  V30 19059 H 1754 -0.368271 -0.560908 0
M  V30 19060 H 1756.54 -1.6006 -1.27283 0
M  V30 19061 H 1754.7 -1.11882 -3.70892 0
M  V30 19062 H 1755.11 -3.30199 -4.07515 0
M  V30 19063 H 1756.58 -1.97539 -5.15444 0
M  V30 19064 H 1757.06 -0.473305 -4.36642 0
M  V30 19065 H 1757.67 -2.02396 -3.74054 0
M  V30 19066 N 1755.98 1.20536 -1.01532 0
M  V30 19067 C 1757.21 1.94393 -0.722908 0
M  V30 19068 C 1757.63 1.74191 0.709857 0
M  V30 19069 O 1756.99 1.03538 1.48827 0
M  V30 19070 C 1757.04 3.44597 -1.06231 0
M  V30 19071 O 1756.14 4.12036 -0.173286 0
M  V30 19072 H 1755.48 0.607361 -0.268345 0
M  V30 19073 H 1758.01 1.53003 -1.35835 0
M  V30 19074 H 1758.02 3.95212 -1.01348 0
M  V30 19075 H 1756.7 3.58624 -2.10621 0
M  V30 19076 H 1755.28 3.71851 -0.27953 0
M  V30 19077 N 1757.46 0.791395 1.36289 0
M  V30 19078 C 1758.39 0.149076 2.28715 0
M  V30 19079 C 1759.41 -0.642827 1.49571 0
M  V30 19080 O 1760.59 -0.477685 1.7199 0
M  V30 19081 C 1757.69 -0.811868 3.29032 0
M  V30 19082 C 1756.87 -0.0695975 4.37345 0
M  V30 19083 C 1755.93 -0.946776 5.17612 0
M  V30 19084 O 1754.95 -0.403295 5.67769 0
M  V30 19085 N 1756.15 -2.27079 5.34243 0
M  V30 19086 H 1758.92 0.943005 2.84478 0
M  V30 19087 H 1756.48 0.645479 1.48476 0
M  V30 19088 H 1758.47 -1.40257 3.79618 0
M  V30 19089 H 1757.04 -1.50667 2.73895 0
M  V30 19090 H 1756.26 0.702196 3.87895 0
M  V30 19091 H 1757.55 0.442542 5.06872 0
M  V30 19092 H 1756.95 -2.73646 4.9511 0
M  V30 19093 H 1755.51 -2.81109 5.88065 0
M  V30 19094 N 1758.94 -1.47929 0.54358 0
M  V30 19095 C 1760.17 -2.06891 0.0189187 0
M  V30 19096 C 1760.58 -1.39822 -1.26867 0
M  V30 19097 O 1759.94 -0.490197 -1.75793 0
M  V30 19098 C 1759.99 -3.60976 -0.194595 0
M  V30 19099 O 1759.71 -4.25528 1.04199 0
M  V30 19100 C 1761.21 -4.3677 -0.758093 0
M  V30 19101 H 1758.43 -0.669827 0.0396625 0
M  V30 19102 H 1760.98 -1.90128 0.753105 0
M  V30 19103 H 1759.13 -3.77299 -0.878869 0
M  V30 19104 H 1759.55 -5.17872 0.831191 0
M  V30 19105 H 1761.02 -5.45309 -0.856846 0
M  V30 19106 H 1761.5 -4.02121 -1.76621 0
M  V30 19107 H 1762.1 -4.25158 -0.109953 0
M  V30 19108 N 1760.42 -0.27936 -1.55104 0
M  V30 19109 C 1761.66 0.336205 -1.9969 0
M  V30 19110 C 1761.99 1.55542 -1.16777 0
M  V30 19111 O 1761.25 1.94385 -0.226497 0
M  V30 19112 C 1761.55 0.758312 -3.49263 0
M  V30 19113 C 1761.21 -0.356741 -4.49487 0
M  V30 19114 C 1759.87 -0.662905 -4.76612 0
M  V30 19115 C 1762.23 -1.10789 -5.09289 0
M  V30 19116 C 1759.55 -1.72373 -5.60807 0
M  V30 19117 C 1761.91 -2.15847 -5.94637 0
M  V30 19118 C 1760.57 -2.47094 -6.20081 0
M  V30 19119 H 1759.84 0.123026 -0.730716 0
M  V30 19120 H 1762.49 -0.393956 -1.87404 0
M  V30 19121 H 1760.79 1.56822 -3.59046 0
M  V30 19122 H 1762.49 1.24541 -3.8117 0
M  V30 19123 H 1759.08 -0.107997 -4.28464 0
M  V30 19124 H 1763.26 -0.884619 -4.88353 0
M  V30 19125 H 1758.52 -1.97079 -5.78766 0
M  V30 19126 H 1762.69 -2.74523 -6.40008 0
M  V30 19127 H 1760.32 -3.29428 -6.85114 0
M  V30 19128 N 1761.9 1.57599 -0.0067085 0
M  V30 19129 C 1763.31 1.78864 0.535202 0
M  V30 19130 C 1763.66 0.914793 1.73568 0
M  V30 19131 O 1762.78 0.119075 2.16072 0
M  V30 19132 C 1763.38 3.24386 0.977709 0
M  V30 19133 C 1761.94 3.46725 1.46488 0
M  V30 19134 C 1761.08 2.74114 0.419171 0
M  V30 19135 H 1764.03 1.56982 -0.232853 0
M  V30 19136 H 1764.06 3.32867 1.84336 0
M  V30 19137 H 1763.57 3.87961 0.103778 0
M  V30 19138 H 1761.67 2.88373 2.35948 0
M  V30 19139 H 1761.78 4.55416 1.48772 0
M  V30 19140 H 1760.15 2.3893 0.882311 0
M  V30 19141 H 1760.93 3.40392 -0.445908 0
M  V30 19142 N 1763.37 -0.266145 1.55336 0
M  V30 19143 C 1764.31 -1.35159 1.85107 0
M  V30 19144 C 1765.32 -1.45213 0.736006 0
M  V30 19145 O 1766.51 -1.46907 1.01393 0
M  V30 19146 C 1763.61 -2.73218 2.00512 0
M  V30 19147 C 1762.78 -2.85671 3.31226 0
M  V30 19148 C 1761.84 -4.0445 3.36611 0
M  V30 19149 O 1760.87 -3.94884 4.09945 0
M  V30 19150 N 1762.07 -5.16735 2.64508 0
M  V30 19151 H 1764.83 -1.09963 2.78798 0
M  V30 19152 H 1762.39 -0.456261 1.55338 0
M  V30 19153 H 1764.39 -3.50983 2.01477 0
M  V30 19154 H 1762.96 -2.91206 1.13655 0
M  V30 19155 H 1762.18 -1.94736 3.42741 0
M  V30 19156 H 1763.46 -2.90927 4.17419 0
M  V30 19157 H 1762.86 -5.27395 2.04624 0
M  V30 19158 H 1761.42 -5.92706 2.71189 0
M  V30 19159 N 1764.85 -1.48386 -0.530967 0
M  V30 19160 C 1765.76 -1.65516 -1.66257 0
M  V30 19161 C 1766.78 -0.5377 -1.65483 0
M  V30 19162 O 1767.95 -0.808642 -1.84453 0
M  V30 19163 C 1765.02 -1.68999 -3.02722 0
M  V30 19164 C 1764.08 -2.92365 -3.14358 0
M  V30 19165 C 1763.31 -2.95672 -4.44313 0
M  V30 19166 O 1763.54 -2.07417 -5.31352 0
M  V30 19167 O 1762.47 -3.87831 -4.60294 0
M  V30 19168 H 1766.3 -2.61321 -1.54742 0
M  V30 19169 H 1763.88 -1.31776 -0.703946 0
M  V30 19170 H 1765.76 -1.73816 -3.83883 0
M  V30 19171 H 1764.44 -0.763675 -3.14563 0
M  V30 19172 H 1763.34 -2.93081 -2.32496 0
M  V30 19173 H 1764.68 -3.84378 -3.07433 0
M  V30 19174 N 1766.33 0.779763 -1.36958 0
M  V30 19175 C 1767.55 1.57389 -1.35068 0
M  V30 19176 C 1767.98 1.87993 0.0635244 0
M  V30 19177 O 1767.34 1.48625 1.03828 0
M  V30 19178 C 1767.39 2.86582 -2.18868 0
M  V30 19179 O 1766.49 3.80609 -1.58779 0
M  V30 19180 H 1765.83 0.477052 -0.461863 0
M  V30 19181 H 1768.36 0.965741 -1.80373 0
M  V30 19182 H 1768.37 3.35761 -2.31794 0
M  V30 19183 H 1767.05 2.63635 -3.21666 0
M  V30 19184 H 1765.62 3.39229 -1.54848 0
M  V30 19185 N 1767.81 1.21396 1.00503 0
M  V30 19186 C 1769.05 1.0426 1.7581 0
M  V30 19187 C 1769.41 -0.416605 1.87426 0
M  V30 19188 O 1770.61 -0.708477 2.59295 0
M  V30 19189 C 1768.88 1.72061 3.13257 0
M  V30 19190 S 1770.44 1.70181 4.04455 0
M  V30 19191 H 1767.26 0.373616 0.604923 0
M  V30 19192 H 1769.86 1.54141 1.20253 0
M  V30 19193 H 1768.57 2.77418 3.02436 0
M  V30 19194 H 1768.1 1.2236 3.73887 0
M  V30 19195 H 1770.11 0.742877 4.90608 0
M  V30 19196 N 1769.29 -1.19996 1.0217 0
M  V30 19197 C 1770.22 -2.25206 0.616818 0
M  V30 19198 C 1771.2 -1.66013 -0.370653 0
M  V30 19199 O 1772.38 -1.92519 -0.254956 0
M  V30 19200 C 1769.51 -3.47276 -0.0405129 0
M  V30 19201 C 1768.47 -4.19096 0.868479 0
M  V30 19202 C 1767.79 -5.34645 0.0766447 0
M  V30 19203 C 1769.09 -4.7468 2.1789 0
M  V30 19204 H 1770.79 -2.59328 1.49632 0
M  V30 19205 H 1768.33 -1.24655 0.720917 0
M  V30 19206 H 1770.28 -4.20063 -0.335355 0
M  V30 19207 H 1769.01 -3.12333 -0.954759 0
M  V30 19208 H 1767.67 -3.48181 1.1474 0
M  V30 19209 H 1767.32 -4.95946 -0.839411 0
M  V30 19210 H 1767.02 -5.83628 0.682041 0
M  V30 19211 H 1768.54 -6.10233 -0.211624 0
M  V30 19212 H 1769.95 -5.39259 1.94608 0
M  V30 19213 H 1768.35 -5.34121 2.7356 0
M  V30 19214 H 1769.42 -3.93141 2.83845 0
M  V30 19215 N 1770.76 -0.798611 -1.35867 0
M  V30 19216 C 1771.69 -0.217751 -2.32482 0
M  V30 19217 C 1772.67 0.652374 -1.57093 0
M  V30 19218 O 1773.86 0.584297 -1.85202 0
M  V30 19219 C 1770.99 0.640925 -3.41335 0
M  V30 19220 C 1769.94 -0.130053 -4.27802 0
M  V30 19221 C 1769.27 0.849811 -5.27904 0
M  V30 19222 C 1770.57 -1.32451 -5.05227 0
M  V30 19223 H 1772.26 -1.02492 -2.81311 0
M  V30 19224 H 1769.81 -0.494302 -1.3525 0
M  V30 19225 H 1771.76 1.05729 -4.07921 0
M  V30 19226 H 1770.49 1.4809 -2.91096 0
M  V30 19227 H 1769.15 -0.5275 -3.62785 0
M  V30 19228 H 1768.79 1.68507 -4.73935 0
M  V30 19229 H 1768.49 0.338323 -5.86625 0
M  V30 19230 H 1770.02 1.26455 -5.97362 0
M  V30 19231 H 1771.43 -0.983429 -5.64802 0
M  V30 19232 H 1769.83 -1.76992 -5.73405 0
M  V30 19233 H 1770.9 -2.11522 -4.36333 0
M  V30 19234 N 1772.24 1.47639 -0.551417 0
M  V30 19235 C 1773.47 2.07381 -0.0278888 0
M  V30 19236 C 1773.89 1.40223 1.25375 0
M  V30 19237 O 1773.25 0.475268 1.7496 0
M  V30 19238 C 1773.3 3.60258 0.157001 0
M  V30 19239 O 1772.4 3.93913 1.2209 0
M  V30 19240 H 1771.74 0.66221 -0.0487252 0
M  V30 19241 H 1774.27 1.89742 -0.765449 0
M  V30 19242 H 1774.28 4.06291 0.373013 0
M  V30 19243 H 1772.96 4.08537 -0.779122 0
M  V30 19244 H 1771.53 3.59633 0.985843 0
M  V30 19245 N 1773.72 0.287581 1.54954 0
M  V30 19246 C 1774.95 -0.328601 2.04274 0
M  V30 19247 C 1775.36 -1.48535 1.16545 0
M  V30 19248 O 1774.72 -1.81527 0.188187 0
M  V30 19249 C 1774.77 -0.797705 3.52589 0
M  V30 19250 O 1774.49 0.31299 4.36981 0
M  V30 19251 C 1775.99 -1.48042 4.1785 0
M  V30 19252 H 1773.21 -0.0733253 0.666982 0
M  V30 19253 H 1775.76 0.423307 2.00071 0
M  V30 19254 H 1773.91 -1.49967 3.57196 0
M  V30 19255 H 1774.33 -0.0498078 5.24476 0
M  V30 19256 H 1775.8 -1.75995 5.23192 0
M  V30 19257 H 1776.28 -2.41608 3.66772 0
M  V30 19258 H 1776.88 -0.821988 4.17281 0
M  V30 19259 N 1775.2 -1.57593 0.0150662 0
M  V30 19260 C 1776.43 -1.95504 -0.677174 0
M  V30 19261 C 1776.84 -0.8908 -1.66464 0
M  V30 19262 O 1776.2 0.128818 -1.82045 0
M  V30 19263 C 1776.25 -3.33463 -1.39589 0
M  V30 19264 O 1775.97 -4.35803 -0.448005 0
M  V30 19265 C 1777.47 -3.85923 -2.18125 0
M  V30 19266 H 1774.69 -0.644226 -0.187652 0
M  V30 19267 H 1777.24 -2.04378 0.070661 0
M  V30 19268 H 1775.39 -3.25851 -2.09523 0
M  V30 19269 H 1775.8 -5.157 -0.956756 0
M  V30 19270 H 1777.28 -4.84838 -2.63887 0
M  V30 19271 H 1777.76 -3.19423 -3.01439 0
M  V30 19272 H 1778.36 -3.96758 -1.53176 0
M  V30 19273 N 1776.68 0.257904 -1.55475 0
M  V30 19274 C 1778.09 0.605871 -1.47653 0
M  V30 19275 C 1778.29 1.88837 -0.703063 0
M  V30 19276 O 1777.35 2.51469 -0.227981 0
M  V30 19277 C 1778.66 0.718813 -2.91982 0
M  V30 19278 C 1780.21 0.81187 -3.02287 0
M  V30 19279 C 1780.68 0.956465 -4.47901 0
M  V30 19280 N 1782.18 1.02161 -4.51793 0
M  V30 19281 C 1782.91 1.15256 -5.61697 0
M  V30 19282 N 1782.41 1.24975 -6.81435 0
M  V30 19283 N 1784.2 1.18485 -5.4947 0
M  V30 19284 H 1776.35 -0.584154 -2.04209 0
M  V30 19285 H 1778.61 -0.200045 -0.926653 0
M  V30 19286 H 1778.32 -0.15335 -3.51366 0
M  V30 19287 H 1778.19 1.59429 -3.41851 0
M  V30 19288 H 1780.58 1.67449 -2.42991 0
M  V30 19289 H 1780.66 -0.0885307 -2.55647 0
M  V30 19290 H 1780.31 0.0984438 -5.07805 0
M  V30 19291 H 1780.24 1.87174 -4.92213 0
M  V30 19292 H 1782.73 0.958295 -3.65548 0
M  V30 19293 H 1783.04 1.34843 -7.60945 0
M  V30 19294 H 1781.38 1.21952 -6.84217 0
M  V30 19295 H 1784.58 1.10534 -4.54863 0
M  V30 19296 H 1784.75 1.28346 -6.35162 0
M  V30 19297 N 1778.15 1.48666 0.52309 0
M  V30 19298 C 1779.38 1.60965 1.30787 0
M  V30 19299 C 1779.8 0.272663 1.86113 0
M  V30 19300 O 1779.16 -0.756662 1.64755 0
M  V30 19301 C 1779.21 2.66455 2.42969 0
M  V30 19302 O 1778.31 2.24094 3.46202 0
M  V30 19303 H 1777.66 0.539516 0.387064 0
M  V30 19304 H 1780.19 1.94702 0.628683 0
M  V30 19305 H 1780.2 2.87942 2.89056 0
M  V30 19306 H 1778.87 3.63516 2.02062 0
M  V30 19307 H 1777.45 2.12848 3.06186 0
M  V30 19308 N 1779.63 -0.772489 1.37369 0
M  V30 19309 C 1780.88 -1.52629 1.31861 0
M  V30 19310 C 1781.19 -1.9537 -0.0947795 0
M  V30 19311 O 1782.4 -2.70131 -0.27233 0
M  V30 19312 C 1780.86 -2.75608 2.31448 0
M  V30 19313 C 1780.46 -2.39969 3.78311 0
M  V30 19314 C 1782.21 -3.53553 2.34948 0
M  V30 19315 C 1780.12 -3.59445 4.69631 0
M  V30 19316 H 1779.05 -0.573019 0.490066 0
M  V30 19317 H 1781.7 -0.846178 1.62825 0
M  V30 19318 H 1780.08 -3.45505 1.935 0
M  V30 19319 H 1781.25 -1.7786 4.25091 0
M  V30 19320 H 1779.57 -1.752 3.77748 0
M  V30 19321 H 1782.16 -4.42353 3.00379 0
M  V30 19322 H 1782.51 -3.93359 1.36287 0
M  V30 19323 H 1783.04 -2.90652 2.716 0
M  V30 19324 H 1779.78 -3.24721 5.69418 0
M  V30 19325 H 1779.3 -4.20662 4.27555 0
M  V30 19326 H 1780.98 -4.26267 4.86729 0
M  V30 19327 N 1781.11 -1.21927 -0.998575 0
M  V30 19328 C 1782.02 -1.00049 -2.12197 0
M  V30 19329 C 1783.04 0.0494414 -1.7393 0
M  V30 19330 O 1784.21 -0.142033 -2.00899 0
M  V30 19331 C 1781.28 -0.574871 -3.41901 0
M  V30 19332 C 1780.34 -1.69776 -3.94303 0
M  V30 19333 C 1779.57 -1.29236 -5.17816 0
M  V30 19334 O 1779.79 -0.168709 -5.7015 0
M  V30 19335 O 1778.73 -2.10671 -5.63827 0
M  V30 19336 H 1782.55 -1.94154 -2.33534 0
M  V30 19337 H 1780.14 -1.00472 -1.10571 0
M  V30 19338 H 1782.02 -0.347603 -4.19964 0
M  V30 19339 H 1780.7 0.337389 -3.21937 0
M  V30 19340 H 1779.6 -1.9795 -3.17438 0
M  V30 19341 H 1780.94 -2.58768 -4.18688 0
M  V30 19342 N 1782.59 1.19452 -1.02805 0
M  V30 19343 C 1784 1.41147 -0.744969 0
M  V30 19344 C 1784.2 1.90008 0.670765 0
M  V30 19345 O 1783.26 2.0763 1.43688 0
M  V30 19346 C 1784.57 2.42328 -1.78039 0
M  V30 19347 C 1786.12 2.56076 -1.79984 0
M  V30 19348 C 1786.6 3.6051 -2.82483 0
M  V30 19349 N 1788.09 3.68005 -2.81294 0
M  V30 19350 C 1788.82 4.48502 -3.57258 0
M  V30 19351 N 1788.32 5.32711 -4.42934 0
M  V30 19352 N 1790.11 4.43144 -3.45803 0
M  V30 19353 H 1782.26 0.860569 -1.94185 0
M  V30 19354 H 1784.53 0.44042 -0.839484 0
M  V30 19355 H 1784.23 2.13448 -2.79523 0
M  V30 19356 H 1784.11 3.41491 -1.60199 0
M  V30 19357 H 1786.49 2.84279 -0.791782 0
M  V30 19358 H 1786.57 1.57069 -2.01898 0
M  V30 19359 H 1786.22 3.33049 -3.83459 0
M  V30 19360 H 1786.15 4.59166 -2.57827 0
M  V30 19361 H 1788.64 3.07863 -2.19154 0
M  V30 19362 H 1788.95 5.9125 -4.97637 0
M  V30 19363 H 1787.3 5.32175 -4.47007 0
M  V30 19364 H 1790.49 3.76399 -2.78283 0
M  V30 19365 H 1790.66 5.0564 -4.05256 0
M  V30 19366 N 1784.07 0.805805 1.35442 0
M  V30 19367 C 1785.03 0.221278 2.28129 0
M  V30 19368 C 1786.03 -0.590919 1.49549 0
M  V30 19369 O 1787.22 -0.409518 1.69318 0
M  V30 19370 C 1784.35 -0.691643 3.3381 0
M  V30 19371 H 1785.54 1.03875 2.81336 0
M  V30 19372 H 1783.1 0.5764 1.45284 0
M  V30 19373 H 1783.83 -1.53283 2.85788 0
M  V30 19374 H 1783.62 -0.110972 3.91943 0
M  V30 19375 H 1785.11 -1.09497 4.02989 0
M  V30 19376 N 1785.54 -1.47344 0.559239 0
M  V30 19377 C 1786.77 -2.0686 0.0408612 0
M  V30 19378 C 1787.19 -1.4116 -1.25376 0
M  V30 19379 O 1786.54 -0.508814 -1.75264 0
M  V30 19380 C 1786.6 -3.61162 -0.156298 0
M  V30 19381 O 1786.32 -4.24399 1.08706 0
M  V30 19382 C 1787.82 -4.37549 -0.711725 0
M  V30 19383 H 1785.04 -0.669368 0.0467647 0
M  V30 19384 H 1787.58 -1.89318 0.773229 0
M  V30 19385 H 1785.74 -3.7821 -0.838802 0
M  V30 19386 H 1786.15 -5.16961 0.886072 0
M  V30 19387 H 1787.62 -5.46187 -0.798961 0
M  V30 19388 H 1788.1 -4.03972 -1.72346 0
M  V30 19389 H 1788.71 -4.25251 -0.0648534 0
M  V30 19390 N 1787.02 -0.295795 -1.54799 0
M  V30 19391 C 1788.27 0.315754 -1.99213 0
M  V30 19392 C 1788.58 1.55405 -1.18779 0
M  V30 19393 O 1789.79 2.23986 -1.53436 0
M  V30 19394 C 1788.25 0.613119 -3.54639 0
M  V30 19395 C 1787.85 -0.606546 -4.43875 0
M  V30 19396 C 1789.6 1.18615 -4.07591 0
M  V30 19397 C 1787.51 -0.282622 -5.90724 0
M  V30 19398 H 1786.44 0.121758 -0.744104 0
M  V30 19399 H 1789.09 -0.403686 -1.79005 0
M  V30 19400 H 1787.47 1.39202 -3.70728 0
M  V30 19401 H 1788.64 -1.3829 -4.39559 0
M  V30 19402 H 1786.96 -1.09785 -4.01667 0
M  V30 19403 H 1789.55 1.44266 -5.1487 0
M  V30 19404 H 1789.9 2.12674 -3.57876 0
M  V30 19405 H 1790.43 0.469078 -3.95025 0
M  V30 19406 H 1787.17 -1.19164 -6.44578 0
M  V30 19407 H 1786.69 0.456564 -5.9806 0
M  V30 19408 H 1788.37 0.117703 -6.46893 0
M  V30 19409 N 1788.5 1.57583 -0.0234236 0
M  V30 19410 C 1789.43 2.12907 0.958804 0
M  V30 19411 C 1790.41 1.0438 1.34309 0
M  V30 19412 O 1791.6 1.32184 1.42271 0
M  V30 19413 C 1788.73 2.65151 2.24304 0
M  V30 19414 C 1787.68 3.78414 1.99967 0
M  V30 19415 C 1787.01 4.17064 3.34607 0
M  V30 19416 C 1788.31 5.04727 1.34342 0
M  V30 19417 H 1790 2.95228 0.498081 0
M  V30 19418 H 1787.55 1.42017 0.238138 0
M  V30 19419 H 1789.5 3.02487 2.93393 0
M  V30 19420 H 1788.22 1.79983 2.72532 0
M  V30 19421 H 1786.88 3.41507 1.33298 0
M  V30 19422 H 1786.53 3.28886 3.80583 0
M  V30 19423 H 1786.23 4.93385 3.19132 0
M  V30 19424 H 1787.76 4.56978 4.04973 0
M  V30 19425 H 1789.17 5.39686 1.93422 0
M  V30 19426 H 1787.57 5.86009 1.29282 0
M  V30 19427 H 1788.64 4.83872 0.315625 0
M  V30 19428 N 1789.98 -0.249655 1.5561 0
M  V30 19429 C 1791.23 -0.976148 1.76963 0
M  V30 19430 C 1791.55 -1.85958 0.586903 0
M  V30 19431 O 1790.82 -1.91827 -0.397415 0
M  V30 19432 H 1789.4 -0.363416 0.652639 0
M  V30 19433 H 1792.06 -0.268264 1.93045 0
M  V30 19434 H 1791.16 -1.59948 2.67998 0
M  V30 19435 N 1791.46 -1.48941 -0.515198 0
M  V30 19436 C 1792.7 -1.5771 -1.27019 0
M  V30 19437 C 1793.03 -0.257484 -1.92788 0
M  V30 19438 O 1792.29 0.753481 -1.80613 0
M  V30 19439 C 1792.59 -2.67508 -2.37011 0
M  V30 19440 C 1792.25 -4.09471 -1.88796 0
M  V30 19441 C 1790.91 -4.48108 -1.75365 0
M  V30 19442 C 1793.27 -4.98378 -1.52543 0
M  V30 19443 C 1790.59 -5.73438 -1.24038 0
M  V30 19444 C 1792.95 -6.24212 -1.02673 0
M  V30 19445 C 1791.61 -6.61691 -0.878703 0
M  V30 19446 H 1790.88 -0.577101 -0.464796 0
M  V30 19447 H 1793.53 -1.82718 -0.573279 0
M  V30 19448 H 1791.83 -2.36417 -3.12433 0
M  V30 19449 H 1793.53 -2.71505 -2.95104 0
M  V30 19450 H 1790.12 -3.78967 -2.00205 0
M  V30 19451 H 1794.3 -4.69194 -1.61773 0
M  V30 19452 H 1789.56 -6.01188 -1.11277 0
M  V30 19453 H 1793.73 -6.9249 -0.73697 0
M  V30 19454 H 1791.36 -7.58691 -0.478792 0
M  V30 19455 N 1792.94 0.765193 -1.37777 0
M  V30 19456 C 1794.16 1.55948 -1.3673 0
M  V30 19457 C 1794.59 1.8805 0.0435817 0
M  V30 19458 O 1793.94 1.49718 1.02246 0
M  V30 19459 C 1793.99 2.84245 -2.21895 0
M  V30 19460 O 1793.1 3.78903 -1.62807 0
M  V30 19461 H 1792.44 0.472127 -0.466897 0
M  V30 19462 H 1794.97 0.946556 -1.81388 0
M  V30 19463 H 1794.98 3.33284 -2.35342 0
M  V30 19464 H 1793.65 2.60209 -3.24444 0
M  V30 19465 H 1792.23 3.37568 -1.58437 0
M  V30 19466 N 1794.41 1.22455 0.992094 0
M  V30 19467 C 1795.36 0.99534 2.08235 0
M  V30 19468 C 1796.33 -0.0832064 1.65891 0
M  V30 19469 O 1797.52 0.0665468 1.90684 0
M  V30 19470 C 1794.66 0.580055 3.4019 0
M  V30 19471 C 1793.77 1.72946 3.95871 0
M  V30 19472 C 1792.9 1.26208 5.15989 0
M  V30 19473 C 1791.94 2.38298 5.63809 0
M  V30 19474 N 1791.08 1.92602 6.75166 0
M  V30 19475 H 1795.92 1.92861 2.27175 0
M  V30 19476 H 1793.46 0.960948 1.11374 0
M  V30 19477 H 1795.41 0.320448 4.15968 0
M  V30 19478 H 1794.04 -0.316208 3.21248 0
M  V30 19479 H 1793.1 2.10337 3.16958 0
M  V30 19480 H 1794.41 2.57257 4.27341 0
M  V30 19481 H 1793.56 0.959904 5.99058 0
M  V30 19482 H 1792.3 0.389184 4.86145 0
M  V30 19483 H 1791.31 2.69304 4.79328 0
M  V30 19484 H 1792.53 3.26105 5.95678 0
M  V30 19485 H 1790.48 1.07675 6.47103 0
M  V30 19486 H 1790.39 2.70478 7.05959 0
M  V30 19487 H 1791.66 1.65455 7.61738 0
M  V30 19488 N 1795.89 -1.18905 1.03437 0
M  V30 19489 C 1796.84 -2.22318 0.619933 0
M  V30 19490 C 1797.81 -1.61948 -0.369056 0
M  V30 19491 O 1798.99 -1.88958 -0.26447 0
M  V30 19492 C 1796.13 -3.45096 -0.0174579 0
M  V30 19493 C 1795.25 -4.19829 1.01823 0
M  V30 19494 C 1794.38 -5.30046 0.350026 0
M  V30 19495 C 1793.42 -5.96543 1.37125 0
M  V30 19496 N 1792.56 -6.98311 0.728458 0
M  V30 19497 H 1797.4 -2.57125 1.50634 0
M  V30 19498 H 1794.93 -1.26324 0.753695 0
M  V30 19499 H 1796.89 -4.15236 -0.404294 0
M  V30 19500 H 1795.52 -3.10927 -0.867412 0
M  V30 19501 H 1794.57 -3.48578 1.52308 0
M  V30 19502 H 1795.89 -4.65415 1.79416 0
M  V30 19503 H 1795.04 -6.06631 -0.0913585 0
M  V30 19504 H 1793.78 -4.85544 -0.458049 0
M  V30 19505 H 1792.78 -5.18703 1.82284 0
M  V30 19506 H 1794.01 -6.43127 2.18091 0
M  V30 19507 H 1791.96 -6.55973 -0.0594251 0
M  V30 19508 H 1791.87 -7.42117 1.44218 0
M  V30 19509 H 1793.14 -7.78878 0.311259 0
M  V30 19510 N 1797.37 -0.812977 -1.35013 0
M  V30 19511 C 1798.59 -0.407969 -2.03348 0
M  V30 19512 C 1799.02 0.975148 -1.60849 0
M  V30 19513 O 1798.38 1.63267 -0.788256 0
M  V30 19514 C 1798.43 -0.506754 -3.57022 0
M  V30 19515 O 1797.53 0.477322 -4.09628 0
M  V30 19516 H 1796.87 -0.169416 -0.642023 0
M  V30 19517 H 1799.4 -1.10064 -1.72474 0
M  V30 19518 H 1799.41 -0.378883 -4.06237 0
M  V30 19519 H 1798.09 -1.51557 -3.87302 0
M  V30 19520 H 1796.66 0.309161 -3.71616 0
M  V30 19521 N 1798.85 1.47045 -0.567045 0
M  V30 19522 C 1800.07 2.0734 -0.0498828 0
M  V30 19523 C 1800.5 1.41545 1.23881 0
M  V30 19524 O 1799.86 0.493798 1.74446 0
M  V30 19525 C 1799.9 3.60404 0.118782 0
M  V30 19526 O 1799.01 3.95186 1.17905 0
M  V30 19527 H 1798.35 0.661656 -0.055746 0
M  V30 19528 H 1800.88 1.8892 -0.78553 0
M  V30 19529 H 1800.89 4.06664 0.3299 0
M  V30 19530 H 1799.56 4.07688 -0.822409 0
M  V30 19531 H 1798.14 3.60658 0.947644 0
M  V30 19532 N 1800.33 0.304 1.5464 0
M  V30 19533 C 1801.27 -0.586475 2.25085 0
M  V30 19534 C 1802.27 -1.13458 1.25792 0
M  V30 19535 O 1803.47 -1.08487 1.43633 0
M  V30 19536 H 1799.85 -0.20774 0.722737 0
M  V30 19537 H 1801.82 0.0301682 2.98385 0
M  V30 19538 C 1800.57 -1.74539 3.00718 0
M  V30 19539 H 1799.89 -1.33287 3.76928 0
M  V30 19540 H 1801.33 -2.34447 3.53285 0
M  V30 19541 C 1799.79 -2.65132 2.07862 0
M  V30 19542 O 1800.32 -3.6631 1.64863 0
M  V30 19543 N 1798.53 -2.32932 1.73756 0
M  V30 19544 H 1798.07 -1.50698 2.08921 0
M  V30 19545 H 1798.03 -2.93811 1.11904 0
M  V30 19546 N 1801.8 -1.57568 0.0317802 0
M  V30 19547 C 1802.73 -2.13412 -0.947499 0
M  V30 19548 C 1803.71 -1.05091 -1.33753 0
M  V30 19549 O 1804.9 -1.32936 -1.41568 0
M  V30 19550 C 1802.03 -2.66337 -2.22895 0
M  V30 19551 C 1800.98 -3.79469 -1.97958 0
M  V30 19552 C 1800.31 -4.18833 -3.3239 0
M  V30 19553 C 1801.61 -5.05432 -1.31664 0
M  V30 19554 H 1803.3 -2.95488 -0.482417 0
M  V30 19555 H 1800.85 -1.42142 -0.230603 0
M  V30 19556 H 1802.8 -3.04039 -2.91784 0
M  V30 19557 H 1801.53 -1.81426 -2.71574 0
M  V30 19558 H 1800.19 -3.42209 -1.31485 0
M  V30 19559 H 1799.83 -3.30899 -3.78833 0
M  V30 19560 H 1799.53 -4.95071 -3.16511 0
M  V30 19561 H 1801.06 -4.5912 -4.02544 0
M  V30 19562 H 1802.47 -5.40704 -1.90558 0
M  V30 19563 H 1800.87 -5.86686 -1.26173 0
M  V30 19564 H 1801.94 -4.84032 -0.28996 0
M  V30 19565 N 1803.28 0.241399 -1.5574 0
M  V30 19566 C 1804.51 0.984645 -1.81627 0
M  V30 19567 C 1804.92 1.79234 -0.605959 0
M  V30 19568 O 1804.26 1.78479 0.434841 0
M  V30 19569 C 1804.33 1.96647 -3.00949 0
M  V30 19570 C 1803.99 1.34519 -4.36754 0
M  V30 19571 C 1804.99 0.744925 -5.14536 0
M  V30 19572 C 1802.67 1.3629 -4.83457 0
M  V30 19573 C 1804.67 0.170657 -6.37171 0
M  V30 19574 C 1802.35 0.784784 -6.0604 0
M  V30 19575 C 1803.35 0.189694 -6.82737 0
M  V30 19576 O 1803.04 -0.379483 -8.03004 0
M  V30 19577 H 1802.77 0.295118 -0.608179 0
M  V30 19578 H 1805.32 0.267851 -2.03646 0
M  V30 19579 H 1803.55 2.72172 -2.74699 0
M  V30 19580 H 1805.24 2.5736 -3.1388 0
M  V30 19581 H 1806.01 0.723706 -4.7957 0
M  V30 19582 H 1801.89 1.81548 -4.23747 0
M  V30 19583 H 1805.43 -0.294459 -6.96978 0
M  V30 19584 H 1801.33 0.803348 -6.40482 0
M  V30 19585 H 1802.1 -0.271879 -8.18048 0
M  V30 19586 N 1804.76 1.49212 0.507292 0
M  V30 19587 C 1805.69 1.68326 1.61829 0
M  V30 19588 C 1806.67 0.531969 1.61568 0
M  V30 19589 O 1807.86 0.767104 1.78407 0
M  V30 19590 C 1804.99 1.74394 3.0034 0
M  V30 19591 C 1803.94 2.89251 3.15465 0
M  V30 19592 C 1803.27 2.80426 4.55264 0
M  V30 19593 C 1804.57 4.30269 2.96085 0
M  V30 19594 H 1806.26 2.6134 1.46087 0
M  V30 19595 H 1803.81 1.25765 0.701367 0
M  V30 19596 H 1805.76 1.86353 3.77956 0
M  V30 19597 H 1804.48 0.779748 3.17155 0
M  V30 19598 H 1803.14 2.76884 2.40272 0
M  V30 19599 H 1802.79 1.81928 4.68947 0
M  V30 19600 H 1802.49 3.57511 4.66326 0
M  V30 19601 H 1804.01 2.94384 5.34949 0
M  V30 19602 H 1805.43 4.4335 3.63475 0
M  V30 19603 H 1803.83 5.08527 3.18623 0
M  V30 19604 H 1804.9 4.45151 1.92272 0
M  V30 19605 N 1806.24 -0.757876 1.38181 0
M  V30 19606 C 1807.49 -1.51222 1.33472 0
M  V30 19607 C 1807.8 -1.9546 -0.0740525 0
M  V30 19608 O 1809.01 -2.70404 -0.243664 0
M  V30 19609 C 1807.46 -2.73138 2.34358 0
M  V30 19610 C 1807.07 -2.35943 3.80835 0
M  V30 19611 C 1808.81 -3.51041 2.38685 0
M  V30 19612 C 1806.72 -3.54444 4.73417 0
M  V30 19613 H 1805.65 -0.567789 0.496116 0
M  V30 19614 H 1808.3 -0.828861 1.63714 0
M  V30 19615 H 1806.68 -3.43433 1.97153 0
M  V30 19616 H 1807.86 -1.73341 4.26954 0
M  V30 19617 H 1806.17 -1.71184 3.79585 0
M  V30 19618 H 1808.77 -4.39143 3.05054 0
M  V30 19619 H 1809.11 -3.91892 1.40451 0
M  V30 19620 H 1809.65 -2.87755 2.74667 0
M  V30 19621 H 1806.39 -3.18663 5.7283 0
M  V30 19622 H 1805.91 -4.16103 4.31993 0
M  V30 19623 H 1807.58 -4.21081 4.91223 0
M  V30 19624 N 1807.72 -1.22979 -0.985586 0
M  V30 19625 C 1808.65 -0.964185 -2.07933 0
M  V30 19626 C 1809.66 0.0599162 -1.6269 0
M  V30 19627 O 1810.85 -0.174984 -1.7764 0
M  V30 19628 C 1807.95 -0.429879 -3.36163 0
M  V30 19629 C 1807.12 -1.51293 -4.10401 0
M  V30 19630 C 1806.18 -0.984411 -5.1691 0
M  V30 19631 O 1805.21 -1.67225 -5.44081 0
M  V30 19632 N 1806.41 0.190439 -5.80188 0
M  V30 19633 H 1809.18 -1.90582 -2.31297 0
M  V30 19634 H 1806.74 -1.13767 -1.15189 0
M  V30 19635 H 1808.73 -0.0614639 -4.04653 0
M  V30 19636 H 1807.3 0.417049 -3.09806 0
M  V30 19637 H 1806.52 -2.05434 -3.36438 0
M  V30 19638 H 1807.81 -2.24141 -4.56769 0
M  V30 19639 H 1807.2 0.765928 -5.60491 0
M  V30 19640 H 1805.76 0.500168 -6.49878 0
M  V30 19641 N 1809.19 1.18355 -1.04066 0
M  V30 19642 C 1810.44 1.88614 -0.745148 0
M  V30 19643 C 1810.77 1.80147 0.725294 0
M  V30 19644 O 1810.05 1.20177 1.5293 0
M  V30 19645 C 1810.33 3.39095 -1.2119 0
M  V30 19646 C 1810.18 3.56372 -2.74444 0
M  V30 19647 C 1811.5 4.32732 -0.801953 0
M  V30 19648 H 1808.62 0.684905 -0.272166 0
M  V30 19649 H 1811.26 1.39248 -1.29267 0
M  V30 19650 H 1809.41 3.81269 -0.746091 0
M  V30 19651 H 1811.09 3.2329 -3.29061 0
M  V30 19652 H 1809.33 2.99028 -3.14269 0
M  V30 19653 H 1810 4.61956 -3.0216 0
M  V30 19654 H 1812.48 3.98337 -1.20278 0
M  V30 19655 H 1811.35 5.36583 -1.15628 0
M  V30 19656 H 1811.61 4.41115 0.294907 0
M  V30 19657 N 1810.67 0.820125 1.3458 0
M  V30 19658 C 1811.9 0.419764 2.02597 0
M  V30 19659 C 1812.32 -0.973439 1.6177 0
M  V30 19660 O 1811.67 -1.6295 0.821791 0
M  V30 19661 C 1811.72 0.509104 3.57897 0
M  V30 19662 O 1811.44 1.84739 3.97244 0
M  V30 19663 C 1812.95 0.103283 4.4318 0
M  V30 19664 H 1810.17 0.168803 0.64942 0
M  V30 19665 H 1812.71 1.10751 1.71914 0
M  V30 19666 H 1810.86 -0.130526 3.8718 0
M  V30 19667 H 1811.28 1.81967 4.91923 0
M  V30 19668 H 1812.75 0.216884 5.51574 0
M  V30 19669 H 1813.23 -0.952888 4.28738 0
M  V30 19670 H 1813.84 0.716601 4.19219 0
M  V30 19671 N 1812.15 -1.46743 0.574835 0
M  V30 19672 C 1813.1 -2.27259 -0.183667 0
M  V30 19673 C 1814.08 -1.35406 -0.869139 0
M  V30 19674 O 1815.28 -1.59637 -0.764534 0
M  V30 19675 C 1812.41 -3.21578 -1.20178 0
M  V30 19676 C 1811.49 -4.20914 -0.518826 0
M  V30 19677 N 1811.88 -5.04044 0.421132 0
M  V30 19678 C 1810.18 -4.39293 -0.770561 0
M  V30 19679 C 1810.88 -5.75898 0.819539 0
M  V30 19680 N 1809.86 -5.43333 0.170429 0
M  V30 19681 H 1813.66 -2.8892 0.538761 0
M  V30 19682 H 1811.17 -1.57497 0.396049 0
M  V30 19683 H 1813.17 -3.77961 -1.75929 0
M  V30 19684 H 1811.83 -2.61476 -1.92511 0
M  V30 19685 H 1812.84 -5.11742 0.796245 0
M  V30 19686 H 1809.52 -3.90347 -1.48107 0
M  V30 19687 H 1810.91 -6.52745 1.59293 0
M  V30 19688 N 1813.63 -0.312197 -1.54477 0
M  V30 19689 C 1814.85 0.298829 -2.05236 0
M  V30 19690 C 1815.28 1.45881 -1.18745 0
M  V30 19691 O 1814.64 1.80259 -0.193999 0
M  V30 19692 C 1814.68 0.722008 -3.53298 0
M  V30 19693 O 1813.79 1.82562 -3.6979 0
M  V30 19694 H 1813.13 0.0560985 -0.661626 0
M  V30 19695 H 1815.66 -0.4573 -1.99424 0
M  V30 19696 H 1815.67 1.00777 -3.95358 0
M  V30 19697 H 1814.34 -0.12647 -4.15708 0
M  V30 19698 H 1812.92 1.53954 -3.39636 0
M  V30 19699 N 1815.11 1.57549 -0.040136 0
M  V30 19700 C 1816.05 2.12048 0.955943 0
M  V30 19701 C 1817.05 1.04965 1.32962 0
M  V30 19702 O 1818.25 1.23387 1.31056 0
M  V30 19703 H 1814.63 0.677616 0.326099 0
M  V30 19704 H 1816.6 2.94658 0.471075 0
M  V30 19705 C 1815.35 2.67157 2.22537 0
M  V30 19706 H 1814.67 3.4921 1.9466 0
M  V30 19707 H 1816.11 3.08924 2.90417 0
M  V30 19708 C 1814.57 1.60413 2.96259 0
M  V30 19709 O 1815.1 1.01042 3.88785 0
M  V30 19710 N 1813.31 1.32196 2.58791 0
M  V30 19711 H 1812.85 1.80663 1.83626 0
M  V30 19712 H 1812.81 0.610023 3.08425 0
M  V30 19713 N 1816.58 -0.233136 1.55866 0
M  V30 19714 C 1817.53 -1.3085 1.92304 0
M  V30 19715 C 1818.53 -1.49121 0.803693 0
M  V30 19716 O 1819.73 -1.50433 0.988433 0
M  V30 19717 H 1816.11 -0.438451 0.610954 0
M  V30 19718 H 1818.08 -0.973925 2.82059 0
M  V30 19719 C 1816.83 -2.65415 2.24611 0
M  V30 19720 H 1816.15 -2.5216 3.10251 0
M  V30 19721 H 1817.59 -3.395 2.54 0
M  V30 19722 C 1816.05 -3.1955 1.0672 0
M  V30 19723 O 1816.58 -4.00405 0.322308 0
M  V30 19724 N 1814.79 -2.77764 0.854123 0
M  V30 19725 H 1814.33 -2.12122 1.46157 0
M  V30 19726 H 1814.29 -3.14329 0.0670326 0
M  V30 19727 N 1818.06 -1.49479 -0.499372 0
M  V30 19728 C 1818.97 -1.69006 -1.62709 0
M  V30 19729 C 1819.99 -0.572681 -1.64306 0
M  V30 19730 O 1821.17 -0.847586 -1.82696 0
M  V30 19731 C 1818.23 -1.75382 -2.99069 0
M  V30 19732 C 1817.29 -2.98968 -3.08086 0
M  V30 19733 C 1816.52 -3.0503 -4.37941 0
M  V30 19734 O 1816.75 -2.18641 -5.26832 0
M  V30 19735 O 1815.68 -3.97507 -4.51964 0
M  V30 19736 H 1819.51 -2.64544 -1.49164 0
M  V30 19737 H 1817.09 -1.3324 -0.675836 0
M  V30 19738 H 1818.97 -1.81919 -3.8011 0
M  V30 19739 H 1817.65 -0.830226 -3.12872 0
M  V30 19740 H 1816.56 -2.97947 -2.26227 0
M  V30 19741 H 1817.89 -3.90812 -2.9921 0
M  V30 19742 N 1819.54 0.750537 -1.38581 0
M  V30 19743 C 1820.77 1.53978 -1.38196 0
M  V30 19744 C 1821.18 1.8878 0.0274976 0
M  V30 19745 O 1820.54 1.52997 0.994894 0
M  V30 19746 C 1820.59 2.83702 -2.24043 0
M  V30 19747 O 1820.31 2.50384 -3.59499 0
M  V30 19748 C 1821.81 3.77823 -2.31872 0
M  V30 19749 H 1819.03 0.476345 -0.472585 0
M  V30 19750 H 1821.58 0.928634 -1.82199 0
M  V30 19751 H 1819.73 3.41187 -1.83494 0
M  V30 19752 H 1820.15 3.33605 -4.04732 0
M  V30 19753 H 1821.62 4.65788 -2.96218 0
M  V30 19754 H 1822.1 4.18474 -1.33327 0
M  V30 19755 H 1822.7 3.26262 -2.72824 0
M  V30 19756 N 1821.02 1.235 0.979051 0
M  V30 19757 C 1822.24 1.09551 1.76106 0
M  V30 19758 C 1822.67 -0.348792 1.84838 0
M  V30 19759 O 1822.03 -1.25231 1.31099 0
M  V30 19760 C 1822.08 1.7272 3.16544 0
M  V30 19761 O 1821.18 0.990263 4.00334 0
M  V30 19762 H 1820.52 0.383909 0.541766 0
M  V30 19763 H 1823.05 1.63581 1.22892 0
M  V30 19764 H 1823.06 1.78014 3.67117 0
M  V30 19765 H 1821.74 2.77813 3.09504 0
M  V30 19766 H 1820.31 1.01436 3.58839 0
M  V30 19767 N 1822.5 -1.17802 1.04693 0
M  V30 19768 C 1823.43 -2.23847 0.664448 0
M  V30 19769 C 1824.41 -1.66761 -0.335356 0
M  V30 19770 O 1825.59 -1.93017 -0.214062 0
M  V30 19771 C 1822.72 -3.47284 0.0331587 0
M  V30 19772 C 1821.68 -4.1716 0.95718 0
M  V30 19773 C 1821 -5.34362 0.190034 0
M  V30 19774 C 1822.3 -4.69951 2.2791 0
M  V30 19775 H 1824 -2.56095 1.55099 0
M  V30 19776 H 1821.54 -1.23097 0.747196 0
M  V30 19777 H 1823.5 -4.2068 -0.246178 0
M  V30 19778 H 1822.22 -3.14288 -0.888294 0
M  V30 19779 H 1820.88 -3.45669 1.221 0
M  V30 19780 H 1820.53 -4.97615 -0.734025 0
M  V30 19781 H 1820.23 -5.8205 0.805684 0
M  V30 19782 H 1821.75 -6.10545 -0.0821372 0
M  V30 19783 H 1823.17 -5.3501 2.06003 0
M  V30 19784 H 1821.56 -5.28198 2.84828 0
M  V30 19785 H 1822.63 -3.87032 2.9212 0
M  V30 19786 N 1823.98 -0.827251 -1.34143 0
M  V30 19787 C 1825.2 -0.430502 -2.02372 0
M  V30 19788 C 1825.62 0.964846 -1.62284 0
M  V30 19789 O 1824.98 1.62512 -0.830421 0
M  V30 19790 C 1825.03 -0.528077 -3.57622 0
M  V30 19791 O 1824.75 -1.86843 -3.96259 0
M  V30 19792 C 1826.25 -0.126784 -4.43119 0
M  V30 19793 H 1823.47 -0.172244 -0.648516 0
M  V30 19794 H 1826.01 -1.11661 -1.71325 0
M  V30 19795 H 1824.17 0.109991 -3.87244 0
M  V30 19796 H 1824.58 -1.84573 -4.90951 0
M  V30 19797 H 1826.06 -0.246133 -5.51451 0
M  V30 19798 H 1826.53 0.930138 -4.29238 0
M  V30 19799 H 1827.14 -0.738824 -4.18833 0
M  V30 19800 N 1825.45 1.46436 -0.582609 0
M  V30 19801 C 1826.36 2.34099 0.153178 0
M  V30 19802 C 1827.38 1.49745 0.886135 0
M  V30 19803 O 1828.56 1.82615 0.849341 0
M  V30 19804 C 1825.62 3.26929 1.15404 0
M  V30 19805 C 1824.68 4.27183 0.425764 0
M  V30 19806 C 1823.91 5.15578 1.37895 0
M  V30 19807 O 1824.14 5.06903 2.61545 0
M  V30 19808 O 1823.07 5.9529 0.889585 0
M  V30 19809 H 1826.9 2.98368 -0.566585 0
M  V30 19810 H 1824.48 1.45409 -0.343013 0
M  V30 19811 H 1826.36 3.842 1.73114 0
M  V30 19812 H 1825.04 2.65257 1.85527 0
M  V30 19813 H 1823.95 3.73601 -0.193175 0
M  V30 19814 H 1825.28 4.91641 -0.234496 0
M  V30 19815 N 1826.93 0.320385 1.54309 0
M  V30 19816 C 1827.88 -0.547011 2.24224 0
M  V30 19817 C 1828.85 -1.11419 1.23187 0
M  V30 19818 O 1830.03 -1.15513 1.5186 0
M  V30 19819 C 1827.17 -1.70359 3.0012 0
M  V30 19820 C 1826.29 -1.16594 4.15968 0
M  V30 19821 C 1825.42 -2.28795 4.79402 0
M  V30 19822 C 1824.46 -1.72263 5.8736 0
M  V30 19823 N 1823.6 -2.78113 6.44668 0
M  V30 19824 H 1828.44 0.0557725 2.97948 0
M  V30 19825 H 1825.97 0.0392956 1.47048 0
M  V30 19826 H 1827.93 -2.38413 3.42367 0
M  V30 19827 H 1826.56 -2.27771 2.28736 0
M  V30 19828 H 1825.61 -0.377054 3.78527 0
M  V30 19829 H 1826.93 -0.712254 4.93689 0
M  V30 19830 H 1826.08 -3.04759 5.24601 0
M  V30 19831 H 1824.82 -2.77499 4.01056 0
M  V30 19832 H 1823.82 -0.947951 5.41566 0
M  V30 19833 H 1825.05 -1.2444 6.67601 0
M  V30 19834 H 1823 -3.26115 5.69197 0
M  V30 19835 H 1822.91 -2.37298 7.17792 0
M  V30 19836 H 1824.18 -3.53916 6.94524 0
M  V30 19837 N 1828.41 -1.57525 0.0484906 0
M  V30 19838 C 1829.63 -1.97309 -0.639062 0
M  V30 19839 C 1830.06 -0.925753 -1.63742 0
M  V30 19840 O 1829.42 0.111304 -1.80958 0
M  V30 19841 C 1829.47 -3.36168 -1.30475 0
M  V30 19842 O 1828.57 -3.33903 -2.42038 0
M  V30 19843 H 1827.91 -0.642824 -0.166351 0
M  V30 19844 H 1830.44 -2.0427 0.116095 0
M  V30 19845 H 1830.45 -3.72835 -1.65705 0
M  V30 19846 H 1829.13 -4.11933 -0.573057 0
M  V30 19847 H 1827.7 -3.08978 -2.08775 0
M  V30 19848 N 1829.89 0.224867 -1.55988 0
M  V30 19849 C 1831.13 0.949747 -1.78846 0
M  V30 19850 C 1831.46 1.84465 -0.616678 0
M  V30 19851 O 1830.72 1.91587 0.399098 0
M  V30 19852 C 1831.02 1.8227 -3.07429 0
M  V30 19853 C 1830.68 1.08131 -4.37743 0
M  V30 19854 C 1829.34 0.876497 -4.7315 0
M  V30 19855 C 1831.7 0.557505 -5.1821 0
M  V30 19856 C 1829.02 0.13593 -5.86543 0
M  V30 19857 C 1831.38 -0.169702 -6.32372 0
M  V30 19858 C 1830.04 -0.385796 -6.66384 0
M  V30 19859 H 1829.31 0.347537 -0.654446 0
M  V30 19860 H 1831.96 0.218162 -1.90253 0
M  V30 19861 H 1830.26 2.62204 -2.91129 0
M  V30 19862 H 1831.96 2.38564 -3.22317 0
M  V30 19863 H 1828.55 1.25091 -4.09939 0
M  V30 19864 H 1832.73 0.703218 -4.91293 0
M  V30 19865 H 1827.99 -0.0417543 -6.11386 0
M  V30 19866 H 1832.16 -0.583104 -6.93955 0
M  V30 19867 H 1829.79 -0.961574 -7.54094 0
M  V30 19868 N 1831.37 1.49742 0.491438 0
M  V30 19869 C 1832.28 1.69866 1.6181 0
M  V30 19870 C 1833.29 0.581386 1.64 0
M  V30 19871 O 1834.47 0.857263 1.82244 0
M  V30 19872 C 1831.53 1.76965 2.98135 0
M  V30 19873 C 1830.59 3.00597 3.06496 0
M  V30 19874 C 1829.83 3.07348 4.36317 0
M  V30 19875 O 1830.05 2.21432 5.25665 0
M  V30 19876 O 1828.98 3.99898 4.4985 0
M  V30 19877 H 1832.81 2.65332 1.47759 0
M  V30 19878 H 1830.39 1.33596 0.668761 0
M  V30 19879 H 1832.28 1.83932 3.7914 0
M  V30 19880 H 1830.95 0.846807 3.12427 0
M  V30 19881 H 1829.86 2.99142 2.24643 0
M  V30 19882 H 1831.19 3.92393 2.97133 0
M  V30 19883 N 1832.84 -0.743177 1.38977 0
M  V30 19884 C 1833.78 -1.86709 1.32938 0
M  V30 19885 C 1834.79 -1.61027 0.239644 0
M  V30 19886 O 1835.98 -1.71413 0.497991 0
M  V30 19887 C 1833.08 -3.22566 1.03945 0
M  V30 19888 C 1832.25 -3.75669 2.24034 0
M  V30 19889 C 1831.31 -4.90068 1.91625 0
M  V30 19890 O 1830.34 -5.04156 2.64226 0
M  V30 19891 N 1831.54 -5.7383 0.877465 0
M  V30 19892 H 1834.3 -1.92397 2.2979 0
M  V30 19893 H 1831.86 -0.923564 1.32973 0
M  V30 19894 H 1833.86 -3.96654 0.802977 0
M  V30 19895 H 1832.43 -3.12198 0.15854 0
M  V30 19896 H 1831.65 -2.93027 2.63683 0
M  V30 19897 H 1832.93 -4.07882 3.04154 0
M  V30 19898 H 1832.33 -5.65028 0.275604 0
M  V30 19899 H 1830.89 -6.48021 0.700881 0
M  V30 19900 N 1834.32 -1.24018 -0.972487 0
M  V30 19901 C 1835.57 -1.07702 -1.71484 0
M  V30 19902 C 1835.9 0.384897 -1.90654 0
M  V30 19903 O 1835.15 1.30098 -1.46195 0
M  V30 19904 C 1835.45 -1.75657 -3.11255 0
M  V30 19905 C 1835.12 -3.25583 -3.1194 0
M  V30 19906 C 1833.78 -3.66487 -3.11834 0
M  V30 19907 C 1836.13 -4.2145 -3.06642 0
M  V30 19908 C 1833.46 -5.01703 -3.04157 0
M  V30 19909 C 1835.81 -5.56668 -3.00506 0
M  V30 19910 C 1834.48 -5.96924 -2.98726 0
M  V30 19911 H 1833.75 -0.394108 -0.627503 0
M  V30 19912 H 1836.39 -1.54057 -1.13748 0
M  V30 19913 H 1834.7 -1.21682 -3.72425 0
M  V30 19914 H 1836.39 -1.60502 -3.67478 0
M  V30 19915 H 1832.98 -2.93026 -3.12784 0
M  V30 19916 H 1837.17 -3.90852 -3.05856 0
M  V30 19917 H 1832.42 -5.32096 -3.01137 0
M  V30 19918 H 1836.6 -6.30661 -2.95365 0
M  V30 19919 H 1834.23 -7.01661 -2.92532 0
M  V30 19920 N 1835.8 1.17245 -1.05316 0
M  V30 19921 C 1837.03 1.91995 -0.784387 0
M  V30 19922 C 1837.45 1.76362 0.65408 0
M  V30 19923 O 1836.81 1.0822 1.45458 0
M  V30 19924 C 1836.86 3.41043 -1.1714 0
M  V30 19925 O 1835.96 4.11276 -0.304285 0
M  V30 19926 H 1835.3 0.598516 -0.287532 0
M  V30 19927 H 1837.83 1.48604 -1.40634 0
M  V30 19928 H 1837.84 3.91788 -1.13871 0
M  V30 19929 H 1836.52 3.51742 -2.21924 0
M  V30 19930 H 1835.09 3.70773 -0.39769 0
M  V30 19931 N 1837.28 0.834353 1.33702 0
M  V30 19932 C 1838.23 0.26233 2.29304 0
M  V30 19933 C 1839.2 -0.619326 1.54122 0
M  V30 19934 O 1840.38 -0.558551 1.82441 0
M  V30 19935 C 1837.52 -0.560341 3.4052 0
M  V30 19936 C 1836.63 0.344832 4.30622 0
M  V30 19937 C 1835.77 -0.488505 5.28949 0
M  V30 19938 C 1834.81 0.415341 6.10689 0
M  V30 19939 N 1833.94 -0.3796 7.01073 0
M  V30 19940 H 1838.78 1.08291 2.77628 0
M  V30 19941 H 1836.32 0.545497 1.36612 0
M  V30 19942 H 1838.28 -1.05274 4.03699 0
M  V30 19943 H 1836.91 -1.34593 2.93402 0
M  V30 19944 H 1835.96 0.955519 3.68204 0
M  V30 19945 H 1837.27 1.03935 4.87851 0
M  V30 19946 H 1836.43 -1.04492 5.97634 0
M  V30 19947 H 1835.17 -1.21648 4.72285 0
M  V30 19948 H 1834.17 0.983803 5.40926 0
M  V30 19949 H 1835.4 1.1416 6.69436 0
M  V30 19950 H 1833.34 -1.09103 6.46864 0
M  V30 19951 H 1833.26 0.25629 7.55565 0
M  V30 19952 H 1834.53 -0.918394 7.74071 0
M  V30 19953 N 1838.76 -1.46125 0.590367 0
M  V30 19954 C 1839.69 -2.33159 -0.126114 0
M  V30 19955 C 1840.67 -1.45806 -0.876057 0
M  V30 19956 O 1841.85 -1.7461 -0.850009 0
M  V30 19957 C 1838.98 -3.28217 -1.13537 0
M  V30 19958 C 1837.94 -4.25072 -0.499773 0
M  V30 19959 C 1837.26 -5.09694 -1.61605 0
M  V30 19960 C 1838.56 -5.19202 0.567992 0
M  V30 19961 H 1840.26 -2.93315 0.600577 0
M  V30 19962 H 1837.8 -1.41044 0.290265 0
M  V30 19963 H 1839.76 -3.87965 -1.64503 0
M  V30 19964 H 1838.48 -2.66185 -1.89244 0
M  V30 19965 H 1837.14 -3.66598 -0.0111313 0
M  V30 19966 H 1836.79 -4.44041 -2.36297 0
M  V30 19967 H 1836.49 -5.75292 -1.19637 0
M  V30 19968 H 1838.01 -5.72307 -2.12832 0
M  V30 19969 H 1839.42 -5.73121 0.143102 0
M  V30 19970 H 1837.82 -5.93184 0.908428 0
M  V30 19971 H 1838.89 -4.62671 1.45133 0
M  V30 19972 N 1840.23 -0.328564 -1.54137 0
M  V30 19973 C 1841.18 0.550772 -2.21248 0
M  V30 19974 C 1842.17 1.07776 -1.19471 0
M  V30 19975 O 1843.36 1.01395 -1.4508 0
M  V30 19976 C 1840.49 1.70871 -2.97755 0
M  V30 19977 C 1839.58 1.19638 -4.06875 0
M  V30 19978 N 1839.97 0.404108 -5.04183 0
M  V30 19979 C 1838.26 1.47465 -4.20916 0
M  V30 19980 C 1838.97 0.127848 -5.81559 0
M  V30 19981 N 1837.94 0.715362 -5.38872 0
M  V30 19982 H 1841.74 -0.0617731 -2.93835 0
M  V30 19983 H 1839.26 -0.13467 -1.61841 0
M  V30 19984 H 1841.25 2.35048 -3.44322 0
M  V30 19985 H 1839.91 2.32468 -2.26691 0
M  V30 19986 H 1840.93 0.046507 -5.17879 0
M  V30 19987 H 1837.6 2.0961 -3.61067 0
M  V30 19988 H 1838.99 -0.510286 -6.69959 0
M  V30 19989 N 1841.71 1.57497 -0.0568439 0
M  V30 19990 C 1842.94 1.97645 0.628589 0
M  V30 19991 C 1843.36 0.934424 1.63249 0
M  V30 19992 O 1842.72 -0.101706 1.81015 0
M  V30 19993 C 1842.77 3.36855 1.2869 0
M  V30 19994 O 1841.87 3.35182 2.40264 0
M  V30 19995 H 1841.21 0.643698 0.16294 0
M  V30 19996 H 1843.74 2.04206 -0.126927 0
M  V30 19997 H 1843.75 3.73708 1.63726 0
M  V30 19998 H 1842.43 4.12231 0.551203 0
M  V30 19999 H 1841.01 3.10081 2.07133 0
M  V30 20000 N 1843.19 -0.216591 1.56105 0
M  V30 20001 C 1844.12 -1.29202 1.89313 0
M  V30 20002 C 1845.14 -1.42798 0.781832 0
M  V30 20003 O 1846.32 -1.43607 1.06016 0
M  V30 20004 C 1843.42 -2.66701 2.09102 0
M  V30 20005 C 1842.6 -2.74989 3.40147 0
M  V30 20006 C 1841.66 -3.93536 3.49308 0
M  V30 20007 O 1840.68 -3.81642 4.22301 0
M  V30 20008 N 1841.88 -5.08059 2.80814 0
M  V30 20009 H 1844.65 -1.01038 2.82155 0
M  V30 20010 H 1842.21 -0.406611 1.56711 0
M  V30 20011 H 1844.2 -3.44396 2.12541 0
M  V30 20012 H 1842.77 -2.87443 1.22862 0
M  V30 20013 H 1841.99 -1.83733 3.48763 0
M  V30 20014 H 1843.28 -2.775 4.26464 0
M  V30 20015 H 1842.68 -5.20618 2.21299 0
M  V30 20016 H 1841.24 -5.83778 2.89908 0
M  V30 20017 N 1844.67 -1.5 -0.48349 0
M  V30 20018 C 1845.6 -1.70879 -1.5913 0
M  V30 20019 C 1846.58 -0.557606 -1.60701 0
M  V30 20020 O 1847.76 -0.79539 -1.77164 0
M  V30 20021 C 1844.89 -1.7915 -2.97527 0
M  V30 20022 C 1843.85 -2.94233 -3.10823 0
M  V30 20023 C 1843.17 -2.87634 -4.50745 0
M  V30 20024 C 1844.47 -4.34925 -2.89202 0
M  V30 20025 H 1846.17 -2.63632 -1.41911 0
M  V30 20026 H 1843.71 -1.26865 -0.68127 0
M  V30 20027 H 1845.67 -1.92342 -3.74943 0
M  V30 20028 H 1844.39 -0.830106 -3.15875 0
M  V30 20029 H 1843.05 -2.80672 -2.35837 0
M  V30 20030 H 1842.7 -1.89365 -4.65993 0
M  V30 20031 H 1842.4 -3.64885 -4.60579 0
M  V30 20032 H 1843.92 -3.02857 -5.30198 0
M  V30 20033 H 1845.34 -4.49076 -3.56376 0
M  V30 20034 H 1843.73 -5.13531 -3.10492 0
M  V30 20035 H 1844.8 -4.48154 -1.85165 0
M  V30 20036 N 1846.15 0.735796 -1.39369 0
M  V30 20037 C 1847.08 1.86001 -1.33926 0
M  V30 20038 C 1848.09 1.60897 -0.24818 0
M  V30 20039 O 1849.28 1.71146 -0.507074 0
M  V30 20040 C 1846.38 3.2201 -1.05654 0
M  V30 20041 C 1845.55 3.74476 -2.26023 0
M  V30 20042 C 1844.61 4.89045 -1.94221 0
M  V30 20043 O 1843.64 5.02748 -2.66896 0
M  V30 20044 N 1844.84 5.73357 -0.907884 0
M  V30 20045 H 1847.61 1.91175 -2.30807 0
M  V30 20046 H 1845.17 0.916499 -1.33461 0
M  V30 20047 H 1847.16 3.96223 -0.824001 0
M  V30 20048 H 1845.73 3.12109 -0.175094 0
M  V30 20049 H 1844.95 2.91624 -2.65234 0
M  V30 20050 H 1846.24 4.06263 -3.06313 0
M  V30 20051 H 1845.63 5.64874 -0.305564 0
M  V30 20052 H 1844.19 6.4764 -0.735237 0
M  V30 20053 N 1847.63 1.24532 0.965897 0
M  V30 20054 C 1848.57 1.03929 2.06076 0
M  V30 20055 C 1849.54 -0.0479997 1.66031 0
M  V30 20056 O 1850.73 0.106979 1.905 0
M  V30 20057 C 1847.87 0.652084 3.38883 0
M  V30 20058 C 1846.98 1.81304 3.92113 0
M  V30 20059 C 1846.12 1.37125 5.13196 0
M  V30 20060 C 1845.15 2.50204 5.58627 0
M  V30 20061 N 1844.29 2.0688 6.70929 0
M  V30 20062 H 1849.13 1.97636 2.23033 0
M  V30 20063 H 1846.67 0.984356 1.09311 0
M  V30 20064 H 1848.63 0.408608 4.15194 0
M  V30 20065 H 1847.26 -0.247995 3.21846 0
M  V30 20066 H 1846.31 2.17013 3.12425 0
M  V30 20067 H 1847.62 2.66264 4.21788 0
M  V30 20068 H 1846.77 1.08676 5.96887 0
M  V30 20069 H 1845.51 0.492215 4.8521 0
M  V30 20070 H 1844.52 2.7941 4.73508 0
M  V30 20071 H 1845.74 3.38667 5.88627 0
M  V30 20072 H 1843.69 1.21377 6.44673 0
M  V30 20073 H 1843.61 2.85392 7.00062 0
M  V30 20074 H 1844.87 1.81575 7.58057 0
M  V30 20075 N 1849.1 -1.16685 1.05936 0
M  V30 20076 C 1850.04 -2.20516 0.624931 0
M  V30 20077 C 1851.05 -1.59719 -0.315206 0
M  V30 20078 O 1852.24 -1.7818 -0.106761 0
M  V30 20079 C 1849.34 -3.38739 -0.10452 0
M  V30 20080 C 1848.51 -4.29097 0.848197 0
M  V30 20081 C 1847.57 -5.25961 0.158648 0
M  V30 20082 O 1846.6 -5.63619 0.795149 0
M  V30 20083 N 1847.8 -5.69961 -1.10115 0
M  V30 20084 H 1850.56 -2.58408 1.51807 0
M  V30 20085 H 1848.12 -1.31658 0.942216 0
M  V30 20086 H 1850.12 -4.00578 -0.576133 0
M  V30 20087 H 1848.69 -2.99382 -0.899414 0
M  V30 20088 H 1847.91 -3.64576 1.49927 0
M  V30 20089 H 1849.19 -4.86352 1.49463 0
M  V30 20090 H 1848.59 -5.41452 -1.63847 0
M  V30 20091 H 1847.15 -6.33908 -1.51669 0
M  V30 20092 N 1850.58 -0.841432 -1.33258 0
M  V30 20093 C 1851.83 -0.438378 -1.97698 0
M  V30 20094 C 1852.16 1.00298 -1.66645 0
M  V30 20095 O 1851.41 1.71648 -0.939965 0
M  V30 20096 C 1851.71 -0.608921 -3.52175 0
M  V30 20097 C 1851.38 -2.01876 -4.03184 0
M  V30 20098 C 1850.04 -2.40438 -4.16825 0
M  V30 20099 C 1852.39 -2.93952 -4.30397 0
M  V30 20100 C 1849.72 -3.70376 -4.55015 0
M  V30 20101 C 1852.07 -4.23373 -4.7004 0
M  V30 20102 C 1850.73 -4.61888 -4.81888 0
M  V30 20103 H 1850 -0.160414 -0.723428 0
M  V30 20104 H 1852.65 -1.06895 -1.58889 0
M  V30 20105 H 1850.96 0.104948 -3.91659 0
M  V30 20106 H 1852.65 -0.277313 -4.0004 0
M  V30 20107 H 1849.24 -1.70927 -3.93042 0
M  V30 20108 H 1853.43 -2.65396 -4.19379 0
M  V30 20109 H 1848.68 -4.00018 -4.62381 0
M  V30 20110 H 1852.86 -4.94793 -4.90054 0
M  V30 20111 H 1850.48 -5.6262 -5.11237 0
M  V30 20112 N 1852.06 1.4581 -0.598108 0
M  V30 20113 C 1853.02 2.28905 0.11623 0
M  V30 20114 C 1854.02 1.39246 0.804187 0
M  V30 20115 O 1855.21 1.61466 0.653793 0
M  V30 20116 C 1852.34 3.20029 1.17449 0
M  V30 20117 H 1853.54 2.93543 -0.614217 0
M  V30 20118 H 1851.09 1.52175 -0.356735 0
M  V30 20119 H 1851.83 2.60171 1.93601 0
M  V30 20120 H 1851.61 3.86061 0.685508 0
M  V30 20121 H 1853.1 3.82533 1.67505 0
M  V30 20122 N 1853.54 0.336733 1.53961 0
M  V30 20123 C 1854.76 -0.26614 2.05685 0
M  V30 20124 C 1855.19 -1.43973 1.21051 0
M  V30 20125 O 1854.55 -1.79928 0.222652 0
M  V30 20126 C 1854.59 -0.66571 3.54402 0
M  V30 20127 O 1853.7 -1.76656 3.72648 0
M  V30 20128 H 1853.04 -0.0455655 0.662435 0
M  V30 20129 H 1855.57 0.488969 1.98671 0
M  V30 20130 H 1855.58 -0.944748 3.96911 0
M  V30 20131 H 1854.25 0.192589 4.15454 0
M  V30 20132 H 1852.83 -1.48531 3.42042 0
M  V30 20133 N 1855.02 -1.57465 0.0651956 0
M  V30 20134 C 1855.95 -2.15374 -0.902018 0
M  V30 20135 C 1856.93 -1.07904 -1.31494 0
M  V30 20136 O 1858.11 -1.35909 -1.38717 0
M  V30 20137 C 1855.24 -2.71005 -2.17195 0
M  V30 20138 C 1854.2 -3.83583 -1.89864 0
M  V30 20139 C 1853.52 -4.25789 -3.23432 0
M  V30 20140 C 1854.82 -5.08112 -1.20913 0
M  V30 20141 H 1856.52 -2.96445 -0.419631 0
M  V30 20142 H 1854.06 -1.42599 -0.200401 0
M  V30 20143 H 1856.01 -3.1016 -2.8527 0
M  V30 20144 H 1854.74 -1.87146 -2.67664 0
M  V30 20145 H 1853.4 -3.44921 -1.24197 0
M  V30 20146 H 1853.05 -3.38861 -3.71729 0
M  V30 20147 H 1852.75 -5.01673 -3.05938 0
M  V30 20148 H 1854.27 -4.67555 -3.92715 0
M  V30 20149 H 1855.68 -5.44624 -1.79046 0
M  V30 20150 H 1854.08 -5.8923 -1.137 0
M  V30 20151 H 1855.15 -4.84538 -0.187224 0
M  V30 20152 N 1856.49 0.20831 -1.56217 0
M  V30 20153 C 1857.72 0.947271 -1.83941 0
M  V30 20154 C 1858.14 1.77403 -0.646029 0
M  V30 20155 O 1857.49 1.78385 0.385378 0
M  V30 20156 C 1857.54 1.85415 -3.10328 0
M  V30 20157 O 1857.27 1.06079 -4.25063 0
M  V30 20158 C 1858.77 2.7059 -3.51135 0
M  V30 20159 H 1855.99 0.277012 -0.611151 0
M  V30 20160 H 1858.53 0.219545 -2.03318 0
M  V30 20161 H 1856.69 2.53566 -2.92888 0
M  V30 20162 H 1857.1 1.67758 -4.96948 0
M  V30 20163 H 1858.57 3.29902 -4.42571 0
M  V30 20164 H 1859.05 3.43645 -2.73505 0
M  V30 20165 H 1859.66 2.07831 -3.71061 0
M  V30 20166 N 1857.97 1.50255 0.475528 0
M  V30 20167 C 1858.9 1.71721 1.58222 0
M  V30 20168 C 1859.88 0.56612 1.60403 0
M  V30 20169 O 1861.07 0.804774 1.7674 0
M  V30 20170 C 1858.2 1.80726 2.96573 0
M  V30 20171 C 1857.15 2.95877 3.09258 0
M  V30 20172 C 1856.48 2.9002 4.49213 0
M  V30 20173 C 1857.78 4.36452 2.86891 0
M  V30 20174 H 1859.47 2.6438 1.40511 0
M  V30 20175 H 1857.02 1.27224 0.674533 0
M  V30 20176 H 1858.97 1.94328 3.73918 0
M  V30 20177 H 1857.69 0.846846 3.1543 0
M  V30 20178 H 1856.35 2.81918 2.34345 0
M  V30 20179 H 1856 1.91834 4.64982 0
M  V30 20180 H 1855.7 3.67322 4.58637 0
M  V30 20181 H 1857.23 3.05665 5.28584 0
M  V30 20182 H 1858.64 4.5096 3.53989 0
M  V30 20183 H 1857.04 5.15171 3.07765 0
M  V30 20184 H 1858.11 4.49129 1.82786 0
M  V30 20185 N 1859.45 -0.728395 1.39758 0
M  V30 20186 C 1860.86 -1.30697 1.33323 0
M  V30 20187 C 1861.21 -1.962 0.000676614 0
M  V30 20188 O 1860.34 -1.96731 -0.90143 0
M  V30 20189 C 1860.93 -2.37656 2.41464 0
M  V30 20190 C 1859.49 -2.91171 2.3853 0
M  V30 20191 C 1858.64 -1.64812 2.23007 0
M  V30 20192 H 1861.59 -0.525429 1.4975 0
M  V30 20193 H 1861.61 -3.18202 2.08633 0
M  V30 20194 H 1861.12 -1.89953 3.38437 0
M  V30 20195 H 1859.22 -3.43137 1.45216 0
M  V30 20196 H 1859.34 -3.43836 3.33637 0
M  V30 20197 H 1857.7 -1.89397 1.70296 0
M  V30 20198 H 1858.48 -1.19151 3.21959 0
M  V30 20199 N 1860.93 -1.25042 -0.959279 0
M  V30 20200 C 1861.84 -1.06749 -2.08906 0
M  V30 20201 C 1862.85 -0.00591805 -1.73999 0
M  V30 20202 O 1864.03 -0.205876 -2.00345 0
M  V30 20203 C 1861.09 -0.683353 -3.39899 0
M  V30 20204 C 1860.16 -1.82235 -3.88702 0
M  V30 20205 C 1859.39 -1.45644 -5.13443 0
M  V30 20206 O 1859.61 -0.350012 -5.69325 0
M  V30 20207 O 1858.55 -2.28502 -5.5684 0
M  V30 20208 H 1862.37 -2.01485 -2.27238 0
M  V30 20209 H 1859.96 -1.03938 -1.07318 0
M  V30 20210 H 1861.84 -0.481036 -4.18645 0
M  V30 20211 H 1860.51 0.234796 -3.22847 0
M  V30 20212 H 1859.42 -2.07948 -3.10979 0
M  V30 20213 H 1860.75 -2.71957 -4.10244 0
M  V30 20214 N 1862.41 1.16121 -1.06553 0
M  V30 20215 C 1863.65 1.86715 -0.783827 0
M  V30 20216 C 1863.98 1.81857 0.689799 0
M  V30 20217 O 1863.24 1.23093 1.5214 0
M  V30 20218 C 1863.54 3.35676 -1.22705 0
M  V30 20219 C 1863.2 3.60732 -2.70524 0
M  V30 20220 C 1861.86 3.67279 -3.10901 0
M  V30 20221 C 1864.22 3.71093 -3.65977 0
M  V30 20222 C 1861.54 3.81691 -4.45566 0
M  V30 20223 C 1863.9 3.87027 -5.00393 0
M  V30 20224 C 1862.56 3.91817 -5.40403 0
M  V30 20225 H 1861.83 0.683238 -0.286823 0
M  V30 20226 H 1864.48 1.37285 -1.3351 0
M  V30 20227 H 1862.78 3.87255 -0.595017 0
M  V30 20228 H 1864.48 3.88686 -0.986096 0
M  V30 20229 H 1861.07 3.5627 -2.38263 0
M  V30 20230 H 1865.25 3.65343 -3.35914 0
M  V30 20231 H 1860.51 3.83654 -4.76046 0
M  V30 20232 H 1864.68 3.93986 -5.74237 0
M  V30 20233 H 1862.31 4.02737 -6.44753 0
M  V30 20234 N 1863.88 0.848487 1.3281 0
M  V30 20235 C 1865.3 0.504307 1.7976 0
M  V30 20236 C 1865.65 -0.977408 1.70121 0
M  V30 20237 O 1864.77 -1.7621 1.25614 0
M  V30 20238 C 1865.37 0.908628 3.26388 0
M  V30 20239 C 1863.93 0.616441 3.71318 0
M  V30 20240 C 1863.07 1.11173 2.54039 0
M  V30 20241 H 1866.02 1.03628 1.20195 0
M  V30 20242 H 1866.04 0.222518 3.79849 0
M  V30 20243 H 1865.56 1.98708 3.33372 0
M  V30 20244 H 1863.66 -0.451545 3.69854 0
M  V30 20245 H 1863.77 1.17841 4.64382 0
M  V30 20246 H 1862.13 0.532227 2.49077 0
M  V30 20247 H 1862.92 2.19716 2.6378 0
M  V30 20248 N 1865.36 -1.4549 0.605832 0
M  V30 20249 C 1866.31 -2.27597 -0.13542 0
M  V30 20250 C 1867.3 -1.37219 -0.840222 0
M  V30 20251 O 1868.49 -1.61222 -0.730501 0
M  V30 20252 C 1865.62 -3.24054 -1.1333 0
M  V30 20253 C 1864.7 -4.2192 -0.429427 0
M  V30 20254 N 1865.09 -5.03037 0.527952 0
M  V30 20255 C 1863.39 -4.40829 -0.677207 0
M  V30 20256 C 1864.09 -5.7403 0.941511 0
M  V30 20257 N 1863.07 -5.42849 0.28564 0
M  V30 20258 H 1866.87 -2.87712 0.599924 0
M  V30 20259 H 1864.39 -1.56621 0.429367 0
M  V30 20260 H 1866.38 -3.81608 -1.67872 0
M  V30 20261 H 1865.04 -2.655 -1.86922 0
M  V30 20262 H 1866.05 -5.09938 0.904614 0
M  V30 20263 H 1862.73 -3.93401 -1.39794 0
M  V30 20264 H 1864.12 -6.49219 1.73103 0
M  V30 20265 N 1866.84 -0.344893 -1.5378 0
M  V30 20266 C 1868.09 0.244249 -2.01928 0
M  V30 20267 C 1868.44 1.48091 -1.22829 0
M  V30 20268 O 1867.73 1.89109 -0.307945 0
M  V30 20269 C 1867.93 0.609495 -3.52165 0
M  V30 20270 C 1867.76 -0.590217 -4.4581 0
M  V30 20271 C 1866.53 -1.09594 -4.93272 0
M  V30 20272 C 1868.73 -1.44908 -4.93463 0
M  V30 20273 N 1866.71 -2.25784 -5.70872 0
M  V30 20274 C 1868.08 -2.45787 -5.692 0
M  V30 20275 C 1870.13 -1.47437 -4.7557 0
M  V30 20276 C 1868.84 -3.49026 -6.28946 0
M  V30 20277 C 1870.86 -2.49558 -5.36167 0
M  V30 20278 C 1870.22 -3.49162 -6.11772 0
M  V30 20279 H 1866.32 0.0526462 -0.780226 0
M  V30 20280 H 1868.91 -0.484763 -1.88569 0
M  V30 20281 H 1867.08 1.30761 -3.65727 0
M  V30 20282 H 1868.81 1.18194 -3.87056 0
M  V30 20283 H 1865.57 -0.663814 -4.68925 0
M  V30 20284 H 1865.99 -2.84451 -6.14342 0
M  V30 20285 H 1870.63 -0.717913 -4.1666 0
M  V30 20286 H 1868.35 -4.25566 -6.86964 0
M  V30 20287 H 1871.94 -2.52343 -5.24227 0
M  V30 20288 H 1870.82 -4.26887 -6.57827 0
M  V30 20289 N 1868.32 1.57428 -0.0735454 0
M  V30 20290 C 1869.56 1.94654 0.590036 0
M  V30 20291 C 1869.92 0.953457 1.67114 0
M  V30 20292 O 1869.21 -0.0239893 1.91585 0
M  V30 20293 C 1869.41 3.36302 1.20978 0
M  V30 20294 C 1869.24 4.49297 0.190244 0
M  V30 20295 C 1868.01 5.04796 -0.225707 0
M  V30 20296 C 1870.2 5.11096 -0.573191 0
M  V30 20297 N 1868.19 6.01334 -1.23577 0
M  V30 20298 C 1869.56 6.03149 -1.43568 0
M  V30 20299 C 1871.61 4.9391 -0.629068 0
M  V30 20300 C 1870.31 6.7986 -2.34909 0
M  V30 20301 C 1872.34 5.71266 -1.52999 0
M  V30 20302 C 1871.7 6.62969 -2.38015 0
M  V30 20303 H 1867.8 0.759341 0.186884 0
M  V30 20304 H 1870.39 1.94113 -0.151096 0
M  V30 20305 H 1868.56 3.37578 1.92083 0
M  V30 20306 H 1870.29 3.6076 1.83398 0
M  V30 20307 H 1867.04 4.73337 0.157761 0
M  V30 20308 H 1867.47 6.54301 -1.73836 0
M  V30 20309 H 1872.11 4.22798 0.014025 0
M  V30 20310 H 1869.83 7.50249 -3.00253 0
M  V30 20311 H 1873.41 5.59989 -1.57808 0
M  V30 20312 H 1872.29 7.21781 -3.06597 0
M  V30 20313 N 1869.8 -0.200022 1.56326 0
M  V30 20314 C 1870.75 -1.2519 1.90556 0
M  V30 20315 C 1871.73 -1.41239 0.77074 0
M  V30 20316 O 1872.92 -1.43692 1.03352 0
M  V30 20317 C 1870.05 -2.59777 2.24434 0
M  V30 20318 C 1869.14 -2.47541 3.4436 0
M  V30 20319 N 1869.53 -2.04979 4.62404 0
M  V30 20320 C 1867.83 -2.78447 3.48401 0
M  V30 20321 C 1868.53 -2.04515 5.44562 0
M  V30 20322 N 1867.5 -2.45831 4.84838 0
M  V30 20323 H 1871.31 -0.914073 2.79324 0
M  V30 20324 H 1868.82 -0.408485 1.57179 0
M  V30 20325 H 1870.82 -3.35749 2.4714 0
M  V30 20326 H 1869.48 -2.94387 1.3699 0
M  V30 20327 H 1870.49 -1.75766 4.87162 0
M  V30 20328 H 1867.16 -3.17286 2.71359 0
M  V30 20329 H 1868.55 -1.73551 6.49099 0
M  V30 20330 N 1871.27 -1.50505 -0.467553 0
M  V30 20331 C 1872.2 -1.72558 -1.57309 0
M  V30 20332 C 1873.19 -0.574619 -1.601 0
M  V30 20333 O 1874.37 -0.814135 -1.76311 0
M  V30 20334 C 1871.5 -1.82296 -2.9561 0
M  V30 20335 C 1870.45 -2.97513 -3.07685 0
M  V30 20336 C 1869.78 -2.92398 -4.47669 0
M  V30 20337 C 1871.08 -4.37968 -2.84573 0
M  V30 20338 H 1872.77 -2.65122 -1.39107 0
M  V30 20339 H 1870.32 -1.2758 -0.667776 0
M  V30 20340 H 1872.27 -1.96308 -3.72882 0
M  V30 20341 H 1871 -0.863562 -3.14976 0
M  V30 20342 H 1869.66 -2.83157 -2.32847 0
M  V30 20343 H 1869.3 -1.94297 -4.63959 0
M  V30 20344 H 1869 -3.69749 -4.56683 0
M  V30 20345 H 1870.53 -3.08464 -5.26956 0
M  V30 20346 H 1871.94 -4.52831 -3.51593 0
M  V30 20347 H 1870.34 -5.16796 -3.05028 0
M  V30 20348 H 1871.41 -4.50093 -1.80402 0
M  V30 20349 N 1872.75 0.720973 -1.40142 0
M  V30 20350 C 1874.16 1.29988 -1.34015 0
M  V30 20351 C 1874.51 1.96197 -0.0110816 0
M  V30 20352 O 1873.64 1.97207 0.890984 0
M  V30 20353 C 1874.23 2.36373 -2.42721 0
M  V30 20354 C 1872.79 2.89902 -2.40071 0
M  V30 20355 C 1871.94 1.63627 -2.23878 0
M  V30 20356 H 1874.89 0.51748 -1.50026 0
M  V30 20357 H 1874.91 3.17091 -2.10317 0
M  V30 20358 H 1874.42 1.88156 -3.39439 0
M  V30 20359 H 1872.53 3.42362 -1.47033 0
M  V30 20360 H 1872.64 3.42062 -3.35456 0
M  V30 20361 H 1871 1.88491 -1.71298 0
M  V30 20362 H 1871.79 1.17442 -3.22587 0
M  V30 20363 N 1874.23 1.25549 0.952634 0
M  V30 20364 C 1875.48 1.10416 1.69748 0
M  V30 20365 C 1875.81 -0.354517 1.91242 0
M  V30 20366 O 1875.06 -1.27756 1.48246 0
M  V30 20367 C 1875.36 1.80586 3.08421 0
M  V30 20368 C 1875.03 3.30504 3.06721 0
M  V30 20369 C 1873.69 3.71402 3.05965 0
M  V30 20370 C 1876.04 4.26275 2.99898 0
M  V30 20371 C 1873.37 5.06478 2.96137 0
M  V30 20372 C 1875.72 5.61378 2.91612 0
M  V30 20373 C 1874.38 6.01601 2.89192 0
M  V30 20374 H 1873.65 0.404041 0.621154 0
M  V30 20375 H 1876.3 1.55848 1.11283 0
M  V30 20376 H 1874.61 1.27592 3.70442 0
M  V30 20377 H 1876.3 1.66328 3.64878 0
M  V30 20378 H 1872.89 2.97965 3.08083 0
M  V30 20379 H 1877.08 3.95669 2.996 0
M  V30 20380 H 1872.33 5.3682 2.92633 0
M  V30 20381 H 1876.51 6.3528 2.85294 0
M  V30 20382 H 1874.13 7.06227 2.81333 0
M  V30 20383 N 1875.71 -1.15554 1.07168 0
M  V30 20384 C 1876.94 -1.90182 0.81477 0
M  V30 20385 C 1877.35 -1.77914 -0.631829 0
M  V30 20386 O 1876.71 -1.1298 -1.43324 0
M  V30 20387 C 1876.76 -3.40593 1.21155 0
M  V30 20388 O 1876.48 -3.52504 2.60139 0
M  V30 20389 C 1877.98 -4.32248 0.983675 0
M  V30 20390 H 1875.2 -0.602804 0.294735 0
M  V30 20391 H 1877.75 -1.46419 1.42764 0
M  V30 20392 H 1875.9 -3.82026 0.643041 0
M  V30 20393 H 1876.31 -4.45839 2.76275 0
M  V30 20394 H 1877.79 -5.3621 1.31084 0
M  V30 20395 H 1878.27 -4.39127 -0.0801022 0
M  V30 20396 H 1878.87 -3.96556 1.537 0
M  V30 20397 N 1877.19 -0.855519 -1.32358 0
M  V30 20398 C 1878.14 -0.289571 -2.3079 0
M  V30 20399 C 1879.13 0.58752 -1.58885 0
M  V30 20400 O 1880.34 0.475228 -1.73613 0
M  V30 20401 H 1876.71 -0.0749379 -0.748257 0
M  V30 20402 H 1878.68 -1.13398 -2.76014 0
M  V30 20403 C 1877.43 0.50647 -3.43992 0
M  V30 20404 H 1876.75 -0.159147 -3.99483 0
M  V30 20405 H 1878.19 0.868035 -4.15019 0
M  V30 20406 C 1876.65 1.69203 -2.91328 0
M  V30 20407 O 1877.18 2.79113 -2.88892 0
M  V30 20408 N 1875.39 1.51938 -2.47716 0
M  V30 20409 H 1874.94 0.625282 -2.49896 0
M  V30 20410 H 1874.89 2.31407 -2.12834 0
M  V30 20411 N 1878.67 1.45167 -0.61354 0
M  V30 20412 C 1879.89 2.07076 -0.115821 0
M  V30 20413 C 1880.32 1.45415 1.19315 0
M  V30 20414 O 1879.67 0.549046 1.72786 0
M  V30 20415 C 1879.72 3.606 0.00406239 0
M  V30 20416 O 1878.83 3.98737 1.05273 0
M  V30 20417 H 1878.17 0.659547 -0.0767679 0
M  V30 20418 H 1880.7 1.86325 -0.845236 0
M  V30 20419 H 1880.71 4.07508 0.200356 0
M  V30 20420 H 1879.38 4.04865 -0.951695 0
M  V30 20421 H 1877.96 3.6349 0.832424 0
M  V30 20422 N 1880.14 0.353044 1.53595 0
M  V30 20423 C 1881.42 -0.296304 1.93343 0
M  V30 20424 C 1881.8 -1.67448 1.28548 0
M  V30 20425 O 1881.15 -2.24226 0.4399 0
M  V30 20426 C 1881.36 -0.359079 3.47148 0
M  V30 20427 C 1882.71 -0.605406 4.20262 0
M  V30 20428 O 1883.73 -0.440805 3.53462 0
M  V30 20429 O 1882.59 -0.92496 5.38616 0
M  V30 20430 H 1879.68 -0.174879 0.808298 0
M  V30 20431 H 1882.23 0.404914 1.64798 0
M  V30 20432 H 1881 0.607684 3.86553 0
M  V30 20433 H 1880.62 -1.1067 3.81887 0
M  V30 20434 N 1881.62 -1.57387 0.0818932 0
M  V30 20435 C 1882.57 -2.09823 -0.892101 0
M  V30 20436 C 1883.56 -1.0102 -1.25235 0
M  V30 20437 O 1884.75 -1.27315 -1.22963 0
M  V30 20438 C 1881.88 -2.67153 -2.15601 0
M  V30 20439 C 1880.96 -3.82977 -1.8218 0
M  V30 20440 N 1881.35 -4.91541 -1.19254 0
M  V30 20441 C 1879.65 -3.92463 -2.1187 0
M  V30 20442 C 1880.35 -5.723 -1.04149 0
M  V30 20443 N 1879.33 -5.20899 -1.55451 0
M  V30 20444 H 1883.13 -2.91146 -0.401425 0
M  V30 20445 H 1880.64 -1.61943 -0.121708 0
M  V30 20446 H 1882.64 -3.0304 -2.86308 0
M  V30 20447 H 1881.3 -1.87281 -2.65247 0
M  V30 20448 H 1882.31 -5.10694 -0.860949 0
M  V30 20449 H 1878.99 -3.2358 -2.63822 0
M  V30 20450 H 1880.38 -6.69642 -0.550434 0
M  V30 20451 N 1883.1 0.191729 -1.56429 0
M  V30 20452 C 1884.52 0.542701 -1.5009 0
M  V30 20453 C 1884.72 1.85685 -0.782522 0
M  V30 20454 O 1883.77 2.50275 -0.334432 0
M  V30 20455 C 1885.08 0.594326 -2.94768 0
M  V30 20456 C 1886.63 0.682929 -3.05459 0
M  V30 20457 C 1887.11 0.765634 -4.51555 0
M  V30 20458 N 1888.6 0.829072 -4.5572 0
M  V30 20459 C 1889.33 0.91329 -5.6608 0
M  V30 20460 N 1888.83 0.959603 -6.86122 0
M  V30 20461 N 1890.62 0.950739 -5.54001 0
M  V30 20462 H 1882.77 -0.670241 -2.01548 0
M  V30 20463 H 1885.04 -0.239168 -0.917335 0
M  V30 20464 H 1884.74 -0.302238 -3.50399 0
M  V30 20465 H 1884.62 1.44787 -3.48305 0
M  V30 20466 H 1887 1.56992 -2.49875 0
M  V30 20467 H 1887.08 -0.19688 -2.55041 0
M  V30 20468 H 1886.73 -0.117022 -5.07765 0
M  V30 20469 H 1886.66 1.66129 -4.99709 0
M  V30 20470 H 1889.15 0.802391 -3.69283 0
M  V30 20471 H 1889.46 1.02447 -7.65979 0
M  V30 20472 H 1887.81 0.928223 -6.88774 0
M  V30 20473 H 1891 0.911418 -4.59141 0
M  V30 20474 H 1891.17 1.01291 -6.40034 0
M  V30 20475 N 1884.58 1.50751 0.459565 0
M  V30 20476 C 1885.99 1.38432 0.794269 0
M  V30 20477 C 1886.19 0.449353 1.96426 0
M  V30 20478 O 1885.25 -0.103761 2.52287 0
M  V30 20479 C 1886.56 2.80034 1.09551 0
M  V30 20480 C 1888.11 2.8903 1.20127 0
M  V30 20481 C 1888.59 4.3149 1.53558 0
M  V30 20482 N 1890.08 4.34494 1.60527 0
M  V30 20483 C 1890.81 5.41732 1.87921 0
M  V30 20484 N 1890.31 6.59161 2.13258 0
M  V30 20485 N 1892.1 5.29187 1.89519 0
M  V30 20486 H 1884.25 2.10106 -0.311312 0
M  V30 20487 H 1886.51 0.944884 -0.0767974 0
M  V30 20488 H 1886.22 3.50342 0.308751 0
M  V30 20489 H 1886.09 3.17992 2.02882 0
M  V30 20490 H 1888.48 2.18934 1.97869 0
M  V30 20491 H 1888.56 2.546 0.247486 0
M  V30 20492 H 1888.21 5.02128 0.763522 0
M  V30 20493 H 1888.14 4.63416 2.50106 0
M  V30 20494 H 1890.63 3.49824 1.42939 0
M  V30 20495 H 1890.94 7.3669 2.33468 0
M  V30 20496 H 1889.29 6.62315 2.10626 0
M  V30 20497 H 1892.48 4.36439 1.69229 0
M  V30 20498 H 1892.65 6.12846 2.10532 0
M  V30 20499 N 1886.06 -0.713531 1.40522 0
M  V30 20500 C 1887.3 -1.47343 1.38911 0
M  V30 20501 C 1887.63 -1.94498 -0.00787452 0
M  V30 20502 O 1886.89 -1.68648 -0.992786 0
M  V30 20503 C 1887.18 -2.71283 2.32681 0
M  V30 20504 C 1886.85 -2.42881 3.79894 0
M  V30 20505 C 1885.51 -2.34846 4.20001 0
M  V30 20506 C 1887.86 -2.19093 4.72914 0
M  V30 20507 C 1885.19 -2.01093 5.51161 0
M  V30 20508 C 1887.54 -1.86852 6.04375 0
M  V30 20509 C 1886.21 -1.773 6.43522 0
M  V30 20510 H 1885.48 -0.539166 0.508312 0
M  V30 20511 H 1888.13 -0.817138 1.73191 0
M  V30 20512 H 1886.43 -3.41759 1.91593 0
M  V30 20513 H 1888.13 -3.29378 2.28717 0
M  V30 20514 H 1884.72 -2.50023 3.48118 0
M  V30 20515 H 1888.9 -2.24256 4.42745 0
M  V30 20516 H 1884.16 -1.92236 5.80392 0
M  V30 20517 H 1888.33 -1.6746 6.75966 0
M  V30 20518 H 1885.96 -1.50913 7.4507 0
M  V30 20519 N 1887.53 -1.26053 -0.945962 0
M  V30 20520 C 1888.95 -1.03062 -1.21862 0
M  V30 20521 C 1889.15 0.247205 -1.99978 0
M  V30 20522 O 1888.21 0.957622 -2.33636 0
M  V30 20523 C 1889.52 -2.25912 -1.98455 0
M  V30 20524 C 1891.07 -2.30763 -2.11465 0
M  V30 20525 C 1891.54 -3.53292 -2.91459 0
M  V30 20526 N 1893.03 -3.53741 -2.99035 0
M  V30 20527 C 1893.77 -4.45215 -3.61347 0
M  V30 20528 N 1893.26 -5.46971 -4.25199 0
M  V30 20529 N 1895.06 -4.32877 -3.58572 0
M  V30 20530 H 1887.21 -2.08133 -0.423615 0
M  V30 20531 H 1889.47 -0.914462 -0.249926 0
M  V30 20532 H 1889.18 -3.18829 -1.48462 0
M  V30 20533 H 1889.05 -2.29777 -2.99136 0
M  V30 20534 H 1891.44 -1.38363 -2.60653 0
M  V30 20535 H 1891.52 -2.30911 -1.10062 0
M  V30 20536 H 1891.16 -4.46019 -2.4296 0
M  V30 20537 H 1891.09 -3.50391 -3.93108 0
M  V30 20538 H 1893.58 -2.80138 -2.53636 0
M  V30 20539 H 1893.9 -6.12967 -4.70629 0
M  V30 20540 H 1892.24 -5.50834 -4.238 0
M  V30 20541 H 1895.43 -3.52602 -3.07879 0
M  V30 20542 H 1895.61 -5.0436 -4.06847 0
M  V30 20543 N 1889.01 1.14984 -1.07779 0
M  V30 20544 C 1890.29 1.82003 -0.716546 0
M  V30 20545 C 1890.67 1.95334 0.8005 0
M  V30 20546 O 1890.02 1.50817 1.71658 0
M  V30 20547 C 1890.23 3.18087 -1.43602 0
M  V30 20548 C 1891.57 3.93668 -1.59094 0
M  V30 20549 O 1892.6 3.27655 -1.39715 0
M  V30 20550 O 1891.46 5.12031 -1.91015 0
M  V30 20551 H 1888.55 0.786548 -0.255482 0
M  V30 20552 H 1891.1 1.22058 -1.17898 0
M  V30 20553 H 1889.87 3.03509 -2.46978 0
M  V30 20554 H 1889.49 3.8572 -0.964651 0
M  V30 20555 N 1890.49 0.862526 1.31902 0
M  V30 20556 C 1891.42 0.328423 2.31179 0
M  V30 20557 C 1892.4 -0.57668 1.60026 0
M  V30 20558 O 1893.59 -0.49527 1.87778 0
M  V30 20559 C 1890.72 -0.47734 3.44004 0
M  V30 20560 C 1889.67 0.334015 4.26695 0
M  V30 20561 C 1889 -0.596973 5.31357 0
M  V30 20562 C 1890.3 1.56405 4.98332 0
M  V30 20563 H 1891.99 1.15797 2.761 0
M  V30 20564 H 1889.54 0.558268 1.32738 0
M  V30 20565 H 1891.49 -0.861461 4.12501 0
M  V30 20566 H 1890.21 -1.34033 2.9783 0
M  V30 20567 H 1888.87 0.699989 3.59855 0
M  V30 20568 H 1888.52 -1.45703 4.81435 0
M  V30 20569 H 1888.22 -0.0580517 5.87571 0
M  V30 20570 H 1889.74 -0.978099 6.02715 0
M  V30 20571 H 1891.16 1.25178 5.59467 0
M  V30 20572 H 1889.55 2.04149 5.64308 0
M  V30 20573 H 1890.62 2.32099 4.25744 0
M  V30 20574 N 1891.97 -1.4484 0.62123 0
M  V30 20575 C 1892.92 -2.32377 -0.1019 0
M  V30 20576 C 1893.91 -1.4677 -0.845862 0
M  V30 20577 O 1895.12 -1.63174 -0.759882 0
M  V30 20578 H 1891.49 -0.75022 -0.0517143 0
M  V30 20579 H 1893.46 -2.91131 0.654623 0
M  V30 20580 C 1892.21 -3.30611 -1.07665 0
M  V30 20581 H 1891.53 -3.96487 -0.513612 0
M  V30 20582 H 1892.97 -3.94563 -1.5523 0
M  V30 20583 C 1891.43 -2.58795 -2.157 0
M  V30 20584 O 1891.96 -2.37947 -3.23642 0
M  V30 20585 N 1890.17 -2.187 -1.9136 0
M  V30 20586 H 1889.72 -2.35856 -1.03584 0
M  V30 20587 H 1889.67 -1.70975 -2.63847 0
M  V30 20588 N 1893.45 -0.361184 -1.53405 0
M  V30 20589 C 1894.4 0.503718 -2.22366 0
M  V30 20590 C 1895.38 1.05217 -1.2173 0
M  V30 20591 O 1896.57 0.982945 -1.47198 0
M  V30 20592 C 1893.7 1.64517 -3.01312 0
M  V30 20593 C 1892.79 1.1098 -4.09322 0
M  V30 20594 N 1893.18 0.297072 -5.04927 0
M  V30 20595 C 1891.48 1.38503 -4.23949 0
M  V30 20596 C 1892.18 0.00446147 -5.817 0
M  V30 20597 N 1891.15 0.600899 -5.40269 0
M  V30 20598 H 1894.96 -0.124086 -2.93638 0
M  V30 20599 H 1892.47 -0.168968 -1.61519 0
M  V30 20600 H 1894.47 2.27692 -3.49231 0
M  V30 20601 H 1893.13 2.27607 -2.31571 0
M  V30 20602 H 1894.14 -0.0633533 -5.17861 0
M  V30 20603 H 1890.81 2.01904 -3.65432 0
M  V30 20604 H 1892.2 -0.65228 -6.68726 0
M  V30 20605 N 1894.92 1.57341 -0.0902386 0
M  V30 20606 C 1896.15 1.98225 0.58228 0
M  V30 20607 C 1896.56 0.968012 1.62561 0
M  V30 20608 O 1895.91 -0.0512719 1.83628 0
M  V30 20609 C 1895.97 3.35468 1.29233 0
M  V30 20610 C 1895.63 4.55243 0.400324 0
M  V30 20611 C 1896.63 5.18723 -0.349573 0
M  V30 20612 C 1894.31 5.01281 0.319802 0
M  V30 20613 C 1896.31 6.26607 -1.16802 0
M  V30 20614 C 1893.99 6.09032 -0.502303 0
M  V30 20615 C 1894.99 6.71559 -1.24487 0
M  V30 20616 O 1894.68 7.77233 -2.05338 0
M  V30 20617 H 1894.41 0.65651 0.161154 0
M  V30 20618 H 1896.97 2.04738 -0.164737 0
M  V30 20619 H 1895.2 3.25623 2.08582 0
M  V30 20620 H 1896.89 3.60832 1.8589 0
M  V30 20621 H 1897.65 4.84089 -0.297067 0
M  V30 20622 H 1893.53 4.52378 0.887432 0
M  V30 20623 H 1897.07 6.75342 -1.74811 0
M  V30 20624 H 1892.97 6.43098 -0.556307 0
M  V30 20625 H 1893.74 7.94198 -1.97968 0
M  V30 20626 N 1896.4 -0.183431 1.56529 0
M  V30 20627 C 1897.34 -1.25565 1.90548 0
M  V30 20628 C 1898.31 -1.4338 0.766876 0
M  V30 20629 O 1899.5 -1.58582 1.01902 0
M  V30 20630 C 1896.62 -2.62051 2.14586 0
M  V30 20631 C 1895.67 -2.61041 3.37283 0
M  V30 20632 S 1896.5 -2.11319 4.92041 0
M  V30 20633 C 1897.66 -3.49606 5.1916 0
M  V30 20634 H 1897.89 -0.96522 2.81195 0
M  V30 20635 H 1895.43 -0.387456 1.49459 0
M  V30 20636 H 1897.38 -3.40611 2.29116 0
M  V30 20637 H 1896.04 -2.883 1.24668 0
M  V30 20638 H 1895.24 -3.61426 3.51265 0
M  V30 20639 H 1894.84 -1.90569 3.21806 0
M  V30 20640 H 1897.13 -4.45537 5.10395 0
M  V30 20641 H 1898.07 -3.40509 6.20854 0
M  V30 20642 H 1898.48 -3.45057 4.46761 0
M  V30 20643 N 1897.88 -1.50992 -0.451564 0
M  V30 20644 C 1898.79 -1.74097 -1.5725 0
M  V30 20645 C 1899.81 -0.624663 -1.62401 0
M  V30 20646 O 1900.98 -0.90528 -1.79907 0
M  V30 20647 C 1898.05 -1.84808 -2.93338 0
M  V30 20648 C 1897.11 -3.08618 -2.98418 0
M  V30 20649 C 1896.34 -3.18808 -4.28015 0
M  V30 20650 O 1896.56 -2.35291 -5.1961 0
M  V30 20651 O 1895.5 -4.11685 -4.39089 0
M  V30 20652 H 1899.32 -2.69156 -1.40673 0
M  V30 20653 H 1896.91 -1.35322 -0.633105 0
M  V30 20654 H 1898.79 -1.9392 -3.7413 0
M  V30 20655 H 1897.47 -0.929344 -3.10072 0
M  V30 20656 H 1896.37 -3.04993 -2.16633 0
M  V30 20657 H 1897.71 -4.00133 -2.86625 0
M  V30 20658 N 1899.36 0.706069 -1.40899 0
M  V30 20659 C 1900.29 1.83119 -1.37841 0
M  V30 20660 C 1901.3 1.60335 -0.282253 0
M  V30 20661 O 1902.49 1.70032 -0.543263 0
M  V30 20662 C 1899.59 3.19696 -1.12461 0
M  V30 20663 C 1898.77 3.69598 -2.33915 0
M  V30 20664 C 1897.82 4.84815 -2.04551 0
M  V30 20665 O 1896.85 4.96973 -2.775 0
M  V30 20666 N 1898.05 5.71302 -1.0293 0
M  V30 20667 H 1900.82 1.86237 -2.34811 0
M  V30 20668 H 1898.38 0.887984 -1.35375 0
M  V30 20669 H 1900.37 3.94386 -0.90786 0
M  V30 20670 H 1898.94 3.11668 -0.241258 0
M  V30 20671 H 1898.16 2.85933 -2.7136 0
M  V30 20672 H 1899.45 3.99674 -3.14862 0
M  V30 20673 H 1898.85 5.64099 -0.425314 0
M  V30 20674 H 1897.4 6.45935 -0.872446 0
M  V30 20675 N 1900.84 1.26553 0.939264 0
M  V30 20676 C 1902.09 1.11599 1.68014 0
M  V30 20677 C 1902.4 -0.339956 1.92623 0
M  V30 20678 O 1903.6 -0.610203 2.64554 0
M  V30 20679 C 1902.06 1.94913 3.02551 0
M  V30 20680 C 1901.67 3.45094 2.85682 0
M  V30 20681 C 1903.41 1.88574 3.80316 0
M  V30 20682 C 1901.32 4.20648 4.15703 0
M  V30 20683 H 1900.25 0.414037 0.630151 0
M  V30 20684 H 1902.9 1.50878 1.04441 0
M  V30 20685 H 1901.28 1.48469 3.67115 0
M  V30 20686 H 1902.46 3.99321 2.29956 0
M  V30 20687 H 1900.77 3.5269 2.21357 0
M  V30 20688 H 1903.37 2.42307 4.76646 0
M  V30 20689 H 1903.71 0.856867 4.07386 0
M  V30 20690 H 1904.24 2.32852 3.22529 0
M  V30 20691 H 1900.98 5.24013 3.93816 0
M  V30 20692 H 1900.5 3.71202 4.71136 0
M  V30 20693 H 1902.18 4.29199 4.84146 0
M  V30 20694 N 1902.31 -1.14411 1.08387 0
M  V30 20695 C 1903.24 -2.21619 0.735327 0
M  V30 20696 C 1904.23 -1.67744 -0.282132 0
M  V30 20697 O 1905.41 -1.936 -0.152547 0
M  V30 20698 C 1902.54 -3.47003 0.143628 0
M  V30 20699 C 1901.49 -4.13903 1.08941 0
M  V30 20700 C 1900.82 -5.33487 0.359941 0
M  V30 20701 C 1902.12 -4.62463 2.42746 0
M  V30 20702 H 1903.81 -2.51031 1.63168 0
M  V30 20703 H 1901.36 -1.20658 0.785981 0
M  V30 20704 H 1903.31 -4.21251 -0.112217 0
M  V30 20705 H 1902.04 -3.16955 -0.787856 0
M  V30 20706 H 1900.7 -3.4161 1.33035 0
M  V30 20707 H 1900.34 -4.99699 -0.57534 0
M  V30 20708 H 1900.04 -5.79192 0.990451 0
M  V30 20709 H 1901.57 -6.10497 0.112145 0
M  V30 20710 H 1902.98 -5.28185 2.22919 0
M  V30 20711 H 1901.38 -5.18869 3.01488 0
M  V30 20712 H 1902.45 -3.77542 3.04286 0
M  V30 20713 N 1903.79 -0.869509 -1.31443 0
M  V30 20714 C 1904.74 -0.314033 -2.3047 0
M  V30 20715 C 1905.73 0.570635 -1.595 0
M  V30 20716 O 1906.94 0.456787 -1.74108 0
M  V30 20717 H 1903.32 -0.0828699 -0.74742 0
M  V30 20718 H 1905.29 -1.16319 -2.74795 0
M  V30 20719 C 1904.04 0.469956 -3.44509 0
M  V30 20720 H 1903.36 -0.201508 -3.99292 0
M  V30 20721 H 1904.8 0.823967 -4.15917 0
M  V30 20722 C 1903.26 1.66104 -2.93106 0
M  V30 20723 O 1903.79 2.76033 -2.91836 0
M  V30 20724 N 1901.99 1.49302 -2.49313 0
M  V30 20725 H 1901.54 0.598742 -2.50545 0
M  V30 20726 H 1901.5 2.29137 -2.15276 0
M  V30 20727 N 1905.27 1.44508 -0.628902 0
M  V30 20728 C 1906.52 2.02365 -0.132699 0
M  V30 20729 C 1906.85 1.4934 1.24142 0
M  V30 20730 O 1906.12 0.676567 1.82354 0
M  V30 20731 C 1906.41 3.5991 -0.11694 0
M  V30 20732 C 1906.26 4.23223 -1.52324 0
M  V30 20733 C 1907.58 4.36527 0.559696 0
M  V30 20734 H 1904.7 0.735323 -0.049695 0
M  V30 20735 H 1907.34 1.72106 -0.80495 0
M  V30 20736 H 1905.49 3.8582 0.455515 0
M  V30 20737 H 1907.16 4.08427 -2.14441 0
M  V30 20738 H 1905.41 3.80803 -2.07777 0
M  V30 20739 H 1906.08 5.32225 -1.46427 0
M  V30 20740 H 1908.55 4.16036 0.0728971 0
M  V30 20741 H 1907.43 5.46238 0.539902 0
M  V30 20742 H 1907.69 4.10968 1.62965 0
M  V30 20743 N 1906.75 0.369315 1.53212 0
M  V30 20744 C 1907.97 -0.222451 2.06204 0
M  V30 20745 C 1908.4 -1.41373 1.24077 0
M  V30 20746 O 1907.76 -1.79415 0.260767 0
M  V30 20747 C 1907.81 -0.590386 3.55734 0
M  V30 20748 O 1906.91 -1.68711 3.76311 0
M  V30 20749 H 1906.25 -0.0315041 0.663252 0
M  V30 20750 H 1908.78 0.531 1.97589 0
M  V30 20751 H 1908.79 -0.860345 3.98826 0
M  V30 20752 H 1907.47 0.28067 4.14952 0
M  V30 20753 H 1906.04 -1.41242 3.45116 0
M  V30 20754 N 1908.23 -1.57291 0.0985816 0
M  V30 20755 C 1909.18 -2.10757 -0.869797 0
M  V30 20756 C 1910.16 -1.02343 -1.24156 0
M  V30 20757 O 1911.35 -1.28612 -1.21606 0
M  V30 20758 C 1908.48 -2.69425 -2.12756 0
M  V30 20759 C 1907.57 -3.84888 -1.78107 0
M  V30 20760 N 1907.96 -4.92778 -1.14034 0
M  V30 20761 C 1906.26 -3.94688 -2.07695 0
M  V30 20762 C 1906.96 -5.73373 -0.980736 0
M  V30 20763 N 1905.93 -5.22519 -1.49917 0
M  V30 20764 H 1909.74 -2.91555 -0.370523 0
M  V30 20765 H 1907.25 -1.62063 -0.104525 0
M  V30 20766 H 1909.25 -3.0606 -2.83077 0
M  V30 20767 H 1907.91 -1.90083 -2.63246 0
M  V30 20768 H 1908.92 -5.11578 -0.806735 0
M  V30 20769 H 1905.6 -3.2636 -2.60375 0
M  V30 20770 H 1906.99 -6.70188 -0.479379 0
M  V30 20771 N 1909.71 0.175127 -1.56624 0
M  V30 20772 C 1910.62 1.23691 -1.99343 0
M  V30 20773 C 1911.63 1.48662 -0.904197 0
M  V30 20774 O 1912.81 1.60885 -1.21153 0
M  V30 20775 C 1909.87 2.55689 -2.34145 0
M  V30 20776 C 1908.93 2.38614 -3.56878 0
M  V30 20777 C 1908.17 3.64318 -3.9001 0
M  V30 20778 O 1908.39 4.69335 -3.24162 0
M  V30 20779 O 1907.32 3.58655 -4.83373 0
M  V30 20780 H 1911.15 0.904314 -2.89924 0
M  V30 20781 H 1908.73 0.381697 -1.44442 0
M  V30 20782 H 1910.62 3.33562 -2.57516 0
M  V30 20783 H 1909.29 2.88535 -1.46728 0
M  V30 20784 H 1908.2 1.58786 -3.3873 0
M  V30 20785 H 1909.53 2.10694 -4.44825 0
M  V30 20786 N 1911.18 1.5123 0.44355 0
M  V30 20787 C 1912.43 1.63833 1.19527 0
M  V30 20788 C 1912.76 0.350544 1.9101 0
M  V30 20789 O 1912.04 -0.649546 1.83333 0
M  V30 20790 C 1912.32 2.83747 2.21719 0
M  V30 20791 C 1912.17 4.22484 1.5436 0
M  V30 20792 C 1913.49 2.99184 3.22765 0
M  V30 20793 H 1910.61 0.596256 0.433184 0
M  V30 20794 H 1913.25 1.83697 0.485321 0
M  V30 20795 H 1911.4 2.66942 2.82267 0
M  V30 20796 H 1913.08 4.50944 0.971976 0
M  V30 20797 H 1911.32 4.25469 0.846069 0
M  V30 20798 H 1911.99 5.0237 2.28754 0
M  V30 20799 H 1914.47 3.14659 2.72266 0
M  V30 20800 H 1913.34 3.84663 3.91569 0
M  V30 20801 H 1913.6 2.10984 3.88508 0
M  V30 20802 N 1912.66 -0.698586 1.41271 0
M  V30 20803 C 1913.89 -1.48743 1.43816 0
M  V30 20804 C 1914.3 -1.88752 0.0425858 0
M  V30 20805 O 1913.66 -1.56584 -0.937425 0
M  V30 20806 C 1913.71 -2.75192 2.34418 0
M  V30 20807 O 1913.43 -2.36869 3.68544 0
M  V30 20808 C 1914.93 -3.68957 2.45735 0
M  V30 20809 H 1912.15 -0.458477 0.489938 0
M  V30 20810 H 1914.7 -0.860372 1.85521 0
M  V30 20811 H 1912.85 -3.34142 1.9603 0
M  V30 20812 H 1913.27 -3.18354 4.16834 0
M  V30 20813 H 1914.74 -4.54473 3.13302 0
M  V30 20814 H 1915.22 -4.13237 1.48767 0
M  V30 20815 H 1915.82 -3.15912 2.84745 0
M  V30 20816 N 1914.14 -1.27049 -0.93254 0
M  V30 20817 C 1915.09 -1.09183 -2.05382 0
M  V30 20818 C 1916.08 -0.0162863 -1.69392 0
M  V30 20819 O 1917.29 -0.173635 -1.79161 0
M  V30 20820 H 1913.66 -0.336282 -0.67262 0
M  V30 20821 H 1915.63 -2.04189 -2.17599 0
M  V30 20822 C 1914.38 -0.750687 -3.395 0
M  V30 20823 H 1913.71 -1.57019 -3.67675 0
M  V30 20824 H 1915.15 -0.665521 -4.18744 0
M  V30 20825 C 1913.6 0.544676 -3.32468 0
M  V30 20826 O 1914.13 1.58051 -3.69301 0
M  V30 20827 N 1912.34 0.538506 -2.85567 0
M  V30 20828 H 1911.89 -0.304834 -2.5579 0
M  V30 20829 H 1911.85 1.4053 -2.81245 0
M  V30 20830 N 1915.62 1.13835 -1.08993 0
M  V30 20831 C 1916.84 1.89402 -0.845071 0
M  V30 20832 C 1917.27 1.78353 0.597641 0
M  V30 20833 O 1916.63 1.12793 1.41942 0
M  V30 20834 C 1916.67 3.37144 -1.27931 0
M  V30 20835 O 1915.78 4.101 -0.434975 0
M  V30 20836 H 1915.12 0.589066 -0.306427 0
M  V30 20837 H 1917.65 1.44055 -1.45291 0
M  V30 20838 H 1917.66 3.87967 -1.26277 0
M  V30 20839 H 1916.33 3.44504 -2.33002 0
M  V30 20840 H 1914.91 3.6932 -0.515447 0
M  V30 20841 N 1917.1 0.876467 1.3098 0
M  V30 20842 C 1918.37 0.411051 1.91232 0
M  V30 20843 C 1918.75 -1.10748 1.79717 0
M  V30 20844 O 1918.1 -1.93898 1.20896 0
M  V30 20845 C 1918.31 0.899663 3.37205 0
M  V30 20846 C 1919.66 0.929615 4.14299 0
M  V30 20847 O 1920.68 0.845752 3.46014 0
M  V30 20848 O 1919.54 1.05211 5.36277 0
M  V30 20849 H 1916.64 0.12418 0.817624 0
M  V30 20850 H 1919.18 0.964808 1.39605 0
M  V30 20851 H 1917.95 1.94336 3.39631 0
M  V30 20852 H 1917.58 0.324585 3.96273 0
M  V30 20853 N 1918.57 -1.44173 0.636557 0
M  V30 20854 C 1919.81 -2.03874 0.146599 0
M  V30 20855 C 1920.18 -1.49026 -1.21059 0
M  V30 20856 O 1921.38 -2.00264 -1.79298 0
M  V30 20857 C 1919.65 -3.57131 0.138577 0
M  V30 20858 S 1921.21 -4.37867 -0.285968 0
M  V30 20859 H 1918.03 -0.708136 0.0637502 0
M  V30 20860 H 1920.63 -1.76479 0.841163 0
M  V30 20861 H 1919.33 -3.94555 1.12936 0
M  V30 20862 H 1918.86 -3.89145 -0.577061 0
M  V30 20863 H 1920.88 -4.72059 -1.52889 0
M  V30 20864 N 1920.05 -0.377435 -1.53014 0
M  V30 20865 C 1921.3 0.208838 -2.01722 0
M  V30 20866 C 1921.63 1.47446 -1.26385 0
M  V30 20867 O 1920.91 1.91122 -0.360903 0
M  V30 20868 C 1921.19 0.4888 -3.56767 0
M  V30 20869 C 1921.04 -0.791285 -4.42785 0
M  V30 20870 C 1922.36 1.28443 -4.2094 0
M  V30 20871 H 1919.48 0.0744281 -0.733232 0
M  V30 20872 H 1922.12 -0.504664 -1.83175 0
M  V30 20873 H 1920.27 1.09662 -3.72702 0
M  V30 20874 H 1921.94 -1.42848 -4.38625 0
M  V30 20875 H 1920.19 -1.40914 -4.10275 0
M  V30 20876 H 1920.86 -0.550199 -5.49251 0
M  V30 20877 H 1923.33 0.770147 -4.08911 0
M  V30 20878 H 1922.21 1.44906 -5.29427 0
M  V30 20879 H 1922.47 2.29631 -3.77786 0
M  V30 20880 N 1921.53 1.57237 -0.106922 0
M  V30 20881 C 1922.46 2.1769 0.844599 0
M  V30 20882 C 1923.44 1.11352 1.28587 0
M  V30 20883 O 1924.63 1.39539 1.35065 0
M  V30 20884 C 1921.76 2.76668 2.09933 0
M  V30 20885 C 1920.71 3.88482 1.79627 0
M  V30 20886 C 1920.04 4.34214 3.12029 0
M  V30 20887 C 1921.34 5.11139 1.07399 0
M  V30 20888 H 1923.03 2.97453 0.340887 0
M  V30 20889 H 1920.58 1.4308 0.162523 0
M  V30 20890 H 1922.53 3.17614 2.76946 0
M  V30 20891 H 1921.25 1.94176 2.62608 0
M  V30 20892 H 1919.91 3.48093 1.15008 0
M  V30 20893 H 1919.56 3.48597 3.62614 0
M  V30 20894 H 1919.26 5.09608 2.9253 0
M  V30 20895 H 1920.78 4.77803 3.8018 0
M  V30 20896 H 1922.2 5.4918 1.64543 0
M  V30 20897 H 1920.6 5.92038 0.980375 0
M  V30 20898 H 1921.67 4.84864 0.0586914 0
M  V30 20899 N 1923.01 -0.166818 1.56715 0
M  V30 20900 C 1924.23 -0.902208 1.86748 0
M  V30 20901 C 1924.66 -1.74838 0.693767 0
M  V30 20902 O 1924.02 -1.77749 -0.35708 0
M  V30 20903 C 1924.06 -1.75107 3.1523 0
M  V30 20904 O 1923.17 -2.85319 2.9777 0
M  V30 20905 H 1922.51 -0.252474 0.614128 0
M  V30 20906 H 1925.04 -0.163603 2.03945 0
M  V30 20907 H 1925.05 -2.15009 3.46749 0
M  V30 20908 H 1923.72 -1.12955 4.00267 0
M  V30 20909 H 1922.3 -2.48967 2.77615 0
M  V30 20910 N 1924.49 -1.51463 -0.435524 0
M  V30 20911 C 1925.73 -1.64221 -1.18481 0
M  V30 20912 C 1926.06 -0.359315 -1.91152 0
M  V30 20913 O 1925.32 0.656683 -1.84353 0
M  V30 20914 C 1925.62 -2.79695 -2.22498 0
M  V30 20915 C 1925.28 -4.18903 -1.66826 0
M  V30 20916 C 1923.94 -4.56773 -1.51366 0
M  V30 20917 C 1926.3 -5.05763 -1.2591 0
M  V30 20918 C 1923.62 -5.79207 -0.93467 0
M  V30 20919 C 1925.98 -6.28777 -0.694404 0
M  V30 20920 C 1924.64 -6.65419 -0.52672 0
M  V30 20921 H 1923.91 -0.600927 -0.433552 0
M  V30 20922 H 1926.56 -1.855 -0.475618 0
M  V30 20923 H 1924.86 -2.52646 -2.99462 0
M  V30 20924 H 1926.56 -2.86766 -2.80297 0
M  V30 20925 H 1923.15 -3.89046 -1.79835 0
M  V30 20926 H 1927.33 -4.7711 -1.36674 0
M  V30 20927 H 1922.59 -6.06242 -0.792531 0
M  V30 20928 H 1926.76 -6.95422 -0.36886 0
M  V30 20929 H 1924.39 -7.60162 -0.0759538 0
M  V30 20930 N 1925.96 0.691085 -1.4164 0
M  V30 20931 C 1927.21 1.45114 -1.41238 0
M  V30 20932 C 1927.54 1.94486 -0.0230695 0
M  V30 20933 O 1926.79 1.70206 0.96583 0
M  V30 20934 C 1927.09 2.67547 -2.36967 0
M  V30 20935 C 1926.76 2.36807 -3.8371 0
M  V30 20936 C 1925.42 2.28134 -4.23684 0
M  V30 20937 C 1927.77 2.11542 -4.7634 0
M  V30 20938 C 1925.1 1.92299 -5.54291 0
M  V30 20939 C 1927.45 1.77214 -6.07271 0
M  V30 20940 C 1926.12 1.6704 -6.46262 0
M  V30 20941 H 1925.39 0.531011 -0.516825 0
M  V30 20942 H 1928.03 0.789481 -1.74469 0
M  V30 20943 H 1926.34 3.38668 -1.97006 0
M  V30 20944 H 1928.04 3.25697 -2.33928 0
M  V30 20945 H 1924.63 2.44453 -3.52052 0
M  V30 20946 H 1928.81 2.17184 -4.46256 0
M  V30 20947 H 1924.07 1.82978 -5.83377 0
M  V30 20948 H 1928.24 1.56685 -6.78545 0
M  V30 20949 H 1925.87 1.3904 -7.47377 0
M  V30 20950 N 1927.44 1.27542 0.925789 0
M  V30 20951 C 1928.37 1.12952 2.04363 0
M  V30 20952 C 1929.35 0.0304761 1.70073 0
M  V30 20953 O 1930.54 0.205307 1.93112 0
M  V30 20954 C 1927.67 0.777954 3.38475 0
M  V30 20955 C 1926.62 1.83044 3.86883 0
M  V30 20956 C 1925.95 1.3328 5.17823 0
M  V30 20957 C 1927.25 3.23488 4.10065 0
M  V30 20958 H 1928.94 2.06462 2.16827 0
M  V30 20959 H 1926.49 0.994046 1.04186 0
M  V30 20960 H 1928.44 0.662702 4.16156 0
M  V30 20961 H 1927.17 -0.192851 3.2603 0
M  V30 20962 H 1925.82 1.93463 3.11396 0
M  V30 20963 H 1925.47 0.351399 5.01771 0
M  V30 20964 H 1925.17 2.03648 5.51182 0
M  V30 20965 H 1926.7 1.23053 5.98072 0
M  V30 20966 H 1928.11 3.16058 4.7831 0
M  V30 20967 H 1926.51 3.91583 4.54734 0
M  V30 20968 H 1927.58 3.68399 3.15293 0
M  V30 20969 N 1928.92 -1.13255 1.09595 0
M  V30 20970 C 1930.15 -1.88952 0.855104 0
M  V30 20971 C 1930.57 -1.78668 -0.588174 0
M  V30 20972 O 1929.93 -1.13544 -1.41341 0
M  V30 20973 C 1929.98 -3.36461 1.29717 0
M  V30 20974 O 1929.08 -4.09863 0.456717 0
M  V30 20975 H 1928.42 -0.587432 0.309547 0
M  V30 20976 H 1930.95 -1.43282 1.46053 0
M  V30 20977 H 1930.96 -3.87291 1.28333 0
M  V30 20978 H 1929.64 -3.43263 2.34826 0
M  V30 20979 H 1928.21 -3.69042 0.535026 0
M  V30 20980 N 1930.4 -0.883401 -1.30514 0
M  V30 20981 C 1931.31 -0.352971 -2.31929 0
M  V30 20982 C 1932.32 0.543992 -1.65278 0
M  V30 20983 O 1933.5 0.437489 -1.96591 0
M  V30 20984 C 1930.57 0.425263 -3.44082 0
M  V30 20985 C 1929.63 -0.501265 -4.26363 0
M  V30 20986 C 1928.86 0.239923 -5.3316 0
M  V30 20987 O 1929.08 1.46622 -5.51233 0
M  V30 20988 O 1928.02 -0.409158 -6.00508 0
M  V30 20989 H 1931.84 -1.19393 -2.79247 0
M  V30 20990 H 1929.43 -0.647187 -1.34655 0
M  V30 20991 H 1931.31 0.865957 -4.12407 0
M  V30 20992 H 1929.98 1.24255 -2.98902 0
M  V30 20993 H 1928.89 -0.990738 -3.60743 0
M  V30 20994 H 1930.22 -1.28451 -4.75143 0
M  V30 20995 N 1931.88 1.43833 -0.644194 0
M  V30 20996 C 1932.84 2.29159 0.0433471 0
M  V30 20997 C 1933.84 1.41734 0.75948 0
M  V30 20998 O 1935.03 1.63464 0.602093 0
M  V30 20999 C 1932.16 3.23604 1.07208 0
M  V30 21000 H 1933.35 2.9144 -0.707295 0
M  V30 21001 H 1930.91 1.50963 -0.404968 0
M  V30 21002 H 1931.64 2.66199 1.85226 0
M  V30 21003 H 1931.43 3.88047 0.562339 0
M  V30 21004 H 1932.92 3.87669 1.55251 0
M  V30 21005 N 1933.35 0.385544 1.52811 0
M  V30 21006 C 1934.6 -0.198138 2.0183 0
M  V30 21007 C 1934.93 -1.46774 1.27165 0
M  V30 21008 O 1934.21 -1.90928 0.371034 0
M  V30 21009 C 1934.49 -0.469873 3.57021 0
M  V30 21010 C 1934.34 0.814756 4.42359 0
M  V30 21011 C 1935.66 -1.26209 4.21615 0
M  V30 21012 H 1932.78 -0.0705386 0.733617 0
M  V30 21013 H 1935.42 0.514372 1.82905 0
M  V30 21014 H 1933.57 -1.07684 3.73278 0
M  V30 21015 H 1935.25 1.45172 4.37862 0
M  V30 21016 H 1933.49 1.43088 4.09522 0
M  V30 21017 H 1934.16 0.57932 5.48952 0
M  V30 21018 H 1936.64 -0.748451 4.09313 0
M  V30 21019 H 1935.51 -1.42096 5.30188 0
M  V30 21020 H 1935.77 -2.27624 3.78998 0
M  V30 21021 N 1934.83 -1.57178 0.115259 0
M  V30 21022 C 1935.76 -2.1218 -0.866728 0
M  V30 21023 C 1936.78 -1.06365 -1.23249 0
M  V30 21024 O 1937.97 -1.33749 -1.18209 0
M  V30 21025 C 1935.07 -2.60337 -2.16975 0
M  V30 21026 C 1934.24 -3.90209 -1.97625 0
M  V30 21027 C 1933.3 -4.24003 -3.11622 0
M  V30 21028 O 1932.32 -4.92884 -2.847 0
M  V30 21029 N 1933.53 -3.81022 -4.37953 0
M  V30 21030 H 1936.29 -2.97061 -0.396835 0
M  V30 21031 H 1933.85 -1.61752 -0.0692734 0
M  V30 21032 H 1935.84 -2.79976 -2.92225 0
M  V30 21033 H 1934.41 -1.80356 -2.55324 0
M  V30 21034 H 1933.63 -3.79516 -1.06589 0
M  V30 21035 H 1934.92 -4.75137 -1.81996 0
M  V30 21036 H 1934.32 -3.25459 -4.62702 0
M  V30 21037 H 1932.88 -4.05777 -5.10086 0
M  V30 21038 N 1936.31 0.158505 -1.56801 0
M  V30 21039 C 1937.24 1.22086 -1.93978 0
M  V30 21040 C 1938.26 1.39798 -0.834291 0
M  V30 21041 O 1939.45 1.39573 -1.11272 0
M  V30 21042 C 1936.55 2.58757 -2.18857 0
M  V30 21043 C 1935.72 2.62175 -3.50118 0
M  V30 21044 C 1934.78 3.80301 -3.63673 0
M  V30 21045 O 1933.8 3.65706 -4.36174 0
M  V30 21046 N 1935.01 4.97286 -2.99477 0
M  V30 21047 H 1937.77 0.904964 -2.8571 0
M  V30 21048 H 1935.33 0.348168 -1.58112 0
M  V30 21049 H 1937.32 3.3627 -2.25177 0
M  V30 21050 H 1935.89 2.82685 -1.33446 0
M  V30 21051 H 1935.11 1.70662 -3.55342 0
M  V30 21052 H 1936.4 2.61481 -4.36469 0
M  V30 21053 H 1935.8 5.12046 -2.40469 0
M  V30 21054 H 1934.36 5.72616 -3.11375 0
M  V30 21055 N 1937.79 1.51692 0.427485 0
M  V30 21056 C 1939.02 1.68669 1.19827 0
M  V30 21057 C 1939.43 0.388231 1.84765 0
M  V30 21058 O 1938.79 -0.634167 1.71127 0
M  V30 21059 C 1938.84 2.80936 2.27502 0
M  V30 21060 O 1938.56 4.05752 1.65218 0
M  V30 21061 C 1940.06 3.09267 3.17599 0
M  V30 21062 H 1937.28 0.565751 0.360786 0
M  V30 21063 H 1939.83 1.98158 0.505323 0
M  V30 21064 H 1937.98 2.54018 2.92496 0
M  V30 21065 H 1938.4 4.68175 2.36457 0
M  V30 21066 H 1939.87 3.91379 3.89264 0
M  V30 21067 H 1940.35 2.22071 3.78921 0
M  V30 21068 H 1940.95 3.37881 2.58295 0
M  V30 21069 N 1939.27 -0.683564 1.42004 0
M  V30 21070 C 1940.51 -1.44577 1.42216 0
M  V30 21071 C 1940.85 -1.94168 0.0352735 0
M  V30 21072 O 1940.12 -1.70331 -0.939023 0
M  V30 21073 C 1940.4 -2.64909 2.43916 0
M  V30 21074 C 1940.26 -2.21006 3.9176 0
M  V30 21075 C 1941.58 -3.6712 2.42716 0
M  V30 21076 H 1938.7 -0.524376 0.517879 0
M  V30 21077 H 1941.34 -0.777575 1.7336 0
M  V30 21078 H 1939.49 -3.21918 2.17489 0
M  V30 21079 H 1941.16 -1.69233 4.29136 0
M  V30 21080 H 1939.4 -1.52667 4.06048 0
M  V30 21081 H 1940.07 -3.07401 4.58485 0
M  V30 21082 H 1942.55 -3.1981 2.66197 0
M  V30 21083 H 1941.43 -4.48907 3.15869 0
M  V30 21084 H 1941.69 -4.17645 1.45 0
M  V30 21085 N 1940.75 -1.28031 -0.919012 0
M  V30 21086 C 1941.66 -1.13341 -2.05404 0
M  V30 21087 C 1942.67 -0.0612715 -1.73892 0
M  V30 21088 O 1943.85 -0.26951 -1.99589 0
M  V30 21089 C 1940.91 -0.791143 -3.37553 0
M  V30 21090 C 1939.97 -1.94509 -3.82707 0
M  V30 21091 C 1939.21 -1.61905 -5.08549 0
M  V30 21092 O 1939.43 -0.530962 -5.67923 0
M  V30 21093 O 1938.36 -2.46102 -5.49288 0
M  V30 21094 H 1942.19 -2.08613 -2.20713 0
M  V30 21095 H 1939.77 -1.073 -1.03957 0
M  V30 21096 H 1941.66 -0.613981 -4.16903 0
M  V30 21097 H 1940.33 0.131966 -3.23431 0
M  V30 21098 H 1939.24 -2.17737 -3.04206 0
M  V30 21099 H 1940.57 -2.84871 -4.01384 0
M  V30 21100 N 1942.22 1.12672 -1.10194 0
M  V30 21101 C 1943.13 2.2192 -0.76082 0
M  V30 21102 C 1944.15 1.72328 0.240604 0
M  V30 21103 O 1945.33 2.01241 0.0799808 0
M  V30 21104 C 1942.39 3.46151 -0.19501 0
M  V30 21105 C 1941.45 4.10595 -1.25339 0
M  V30 21106 C 1940.68 5.28896 -0.714485 0
M  V30 21107 O 1940.91 5.68543 0.459943 0
M  V30 21108 O 1939.84 5.83592 -1.47324 0
M  V30 21109 H 1943.67 2.53487 -1.67266 0
M  V30 21110 H 1941.25 1.20959 -0.876892 0
M  V30 21111 H 1943.13 4.21238 0.116809 0
M  V30 21112 H 1941.81 3.16266 0.689729 0
M  V30 21113 H 1940.72 3.37299 -1.61803 0
M  V30 21114 H 1942.05 4.44629 -2.11106 0
M  V30 21115 N 1943.7 0.89031 1.30043 0
M  V30 21116 C 1944.93 0.525833 2.00623 0
M  V30 21117 C 1945.35 -0.87971 1.66261 0
M  V30 21118 O 1944.71 -1.58394 0.882105 0
M  V30 21119 C 1944.76 0.714046 3.5346 0
M  V30 21120 O 1943.86 -0.237685 4.11714 0
M  V30 21121 H 1943.2 0.20656 0.631054 0
M  V30 21122 H 1945.73 1.19932 1.65763 0
M  V30 21123 H 1945.74 0.615086 4.03337 0
M  V30 21124 H 1944.42 1.73881 3.77807 0
M  V30 21125 H 1942.99 -0.0919722 3.72787 0
M  V30 21126 N 1945.18 -1.43489 0.651812 0
M  V30 21127 C 1946.4 -2.06696 0.170683 0
M  V30 21128 C 1946.83 -1.48527 -1.15418 0
M  V30 21129 O 1946.19 -0.594665 -1.7127 0
M  V30 21130 C 1946.24 -3.60484 0.0915457 0
M  V30 21131 O 1945.34 -4.01388 -0.946644 0
M  V30 21132 H 1944.68 -0.65728 0.0942276 0
M  V30 21133 H 1947.21 -1.84018 0.89434 0
M  V30 21134 H 1947.22 -4.07896 -0.0922419 0
M  V30 21135 H 1945.9 -4.02199 1.0587 0
M  V30 21136 H 1944.47 -3.65569 -0.735758 0
M  V30 21137 N 1946.66 -0.393643 -1.52605 0
M  V30 21138 C 1948.07 0.0794242 -1.86531 0
M  V30 21139 C 1948.42 1.45778 -1.31313 0
M  V30 21140 O 1947.54 2.06526 -0.646206 0
M  V30 21141 C 1948.14 0.150899 -3.38464 0
M  V30 21142 C 1946.7 0.568268 -3.72086 0
M  V30 21143 C 1945.85 -0.267031 -2.76011 0
M  V30 21144 H 1948.8 -0.611344 -1.46452 0
M  V30 21145 H 1948.82 0.969194 -3.6795 0
M  V30 21146 H 1948.33 -0.852425 -3.78623 0
M  V30 21147 H 1946.43 1.5788 -3.37498 0
M  V30 21148 H 1946.54 0.323405 -4.78007 0
M  V30 21149 H 1944.91 0.268347 -2.53282 0
M  V30 21150 H 1945.69 -1.26841 -3.19008 0
M  V30 21151 N 1948.14 1.57115 -0.123593 0
M  V30 21152 C 1949.38 1.95641 0.534082 0
M  V30 21153 C 1949.71 1.00726 1.66036 0
M  V30 21154 O 1948.99 0.045312 1.94447 0
M  V30 21155 C 1949.27 3.4407 1.06244 0
M  V30 21156 C 1949.13 4.49759 -0.0607321 0
M  V30 21157 C 1950.44 3.94451 1.95183 0
M  V30 21158 H 1947.56 0.71137 0.19267 0
M  V30 21159 H 1950.21 1.88944 -0.200083 0
M  V30 21160 H 1948.36 3.49909 1.68808 0
M  V30 21161 H 1950.03 4.56016 -0.69621 0
M  V30 21162 H 1948.27 4.27729 -0.723232 0
M  V30 21163 H 1948.94 5.50888 0.350271 0
M  V30 21164 H 1951.42 3.90945 1.42483 0
M  V30 21165 H 1950.29 4.98817 2.29069 0
M  V30 21166 H 1950.55 3.35417 2.88007 0
M  V30 21167 N 1949.61 -0.150187 1.56883 0
M  V30 21168 C 1950.84 -0.877076 1.87059 0
M  V30 21169 C 1951.25 -1.75396 0.709427 0
M  V30 21170 O 1950.59 -1.80711 -0.330043 0
M  V30 21171 C 1950.66 -1.78766 3.11902 0
M  V30 21172 C 1950.32 -1.08826 4.43853 0
M  V30 21173 C 1951.32 -0.443669 5.18003 0
M  V30 21174 C 1949 -1.07872 4.9058 0
M  V30 21175 C 1951 0.201122 6.37083 0
M  V30 21176 C 1948.68 -0.430111 6.09584 0
M  V30 21177 C 1949.68 0.208684 6.82681 0
M  V30 21178 O 1949.37 0.847012 7.99425 0
M  V30 21179 H 1949.1 -0.259157 0.62435 0
M  V30 21180 H 1951.66 -0.148664 2.04861 0
M  V30 21181 H 1949.89 -2.55693 2.901 0
M  V30 21182 H 1951.57 -2.38622 3.28351 0
M  V30 21183 H 1952.34 -0.442872 4.82974 0
M  V30 21184 H 1948.22 -1.56534 4.33611 0
M  V30 21185 H 1951.76 0.700316 6.94076 0
M  V30 21186 H 1947.66 -0.428563 6.44076 0
M  V30 21187 H 1948.43 0.748362 8.15072 0
M  V30 21188 N 1951.09 -1.51916 -0.419434 0
M  V30 21189 C 1952.02 -1.77475 -1.5174 0
M  V30 21190 C 1953 -0.625263 -1.58191 0
M  V30 21191 O 1954.19 -0.869815 -1.73631 0
M  V30 21192 C 1951.32 -1.91608 -2.89661 0
M  V30 21193 C 1950.27 -3.07151 -2.98064 0
M  V30 21194 C 1949.6 -3.06493 -4.3814 0
M  V30 21195 C 1950.9 -4.46799 -2.70495 0
M  V30 21196 H 1952.59 -2.69413 -1.30602 0
M  V30 21197 H 1950.14 -1.2964 -0.626849 0
M  V30 21198 H 1952.09 -2.08072 -3.66448 0
M  V30 21199 H 1950.82 -0.963332 -3.1207 0
M  V30 21200 H 1949.47 -2.90422 -2.2372 0
M  V30 21201 H 1949.12 -2.08959 -4.57542 0
M  V30 21202 H 1948.82 -3.84091 -4.44689 0
M  V30 21203 H 1950.35 -3.25072 -5.16876 0
M  V30 21204 H 1951.76 -4.63787 -3.37008 0
M  V30 21205 H 1950.16 -5.26238 -2.88432 0
M  V30 21206 H 1951.23 -4.55604 -1.65991 0
M  V30 21207 N 1952.57 0.676023 -1.42365 0
M  V30 21208 C 1953.82 1.43324 -1.42487 0
M  V30 21209 C 1954.14 1.94955 -0.0418589 0
M  V30 21210 O 1953.41 1.72984 0.919418 0
M  V30 21211 H 1951.99 0.531857 -0.524535 0
M  V30 21212 H 1954.65 0.798867 -1.77775 0
M  V30 21213 H 1953.75 2.28686 -2.12389 0
M  V30 21214 N 1954.05 1.28517 0.912209 0
M  V30 21215 C 1954.96 1.14429 2.048 0
M  V30 21216 C 1955.97 0.0704926 1.73857 0
M  V30 21217 O 1957.15 0.280091 1.99443 0
M  V30 21218 C 1954.22 0.809034 3.37128 0
M  V30 21219 C 1953.28 1.96535 3.8167 0
M  V30 21220 C 1952.51 1.646 5.07684 0
M  V30 21221 O 1952.73 0.561072 5.67634 0
M  V30 21222 O 1951.67 2.49011 5.47975 0
M  V30 21223 H 1955.49 2.0978 2.19604 0
M  V30 21224 H 1953.08 1.0785 1.03387 0
M  V30 21225 H 1954.96 0.636082 4.16572 0
M  V30 21226 H 1953.63 -0.114812 3.23496 0
M  V30 21227 H 1952.54 2.19347 3.03047 0
M  V30 21228 H 1953.87 2.86996 3.99868 0
M  V30 21229 N 1955.53 -1.12086 1.1079 0
M  V30 21230 C 1956.47 -2.17926 0.760064 0
M  V30 21231 C 1957.44 -1.63967 -0.265316 0
M  V30 21232 O 1958.63 -1.90258 -0.143764 0
M  V30 21233 C 1955.77 -3.44508 0.202045 0
M  V30 21234 C 1954.88 -4.12503 1.28317 0
M  V30 21235 C 1954.02 -5.26747 0.686406 0
M  V30 21236 C 1953.06 -5.86614 1.74785 0
M  V30 21237 N 1952.19 -6.92264 1.17108 0
M  V30 21238 H 1957.03 -2.47025 1.66681 0
M  V30 21239 H 1954.57 -1.21275 0.832507 0
M  V30 21240 H 1956.53 -4.16967 -0.139401 0
M  V30 21241 H 1955.16 -3.15814 -0.667918 0
M  V30 21242 H 1954.21 -3.38186 1.74168 0
M  V30 21243 H 1955.52 -4.53063 2.08651 0
M  V30 21244 H 1954.68 -6.05984 0.294621 0
M  V30 21245 H 1953.41 -4.87474 -0.148334 0
M  V30 21246 H 1952.42 -5.0606 2.14902 0
M  V30 21247 H 1953.64 -6.27956 2.5855 0
M  V30 21248 H 1951.59 -6.55023 0.35787 0
M  V30 21249 H 1951.51 -7.31443 1.91122 0
M  V30 21250 H 1952.78 -7.75322 0.805966 0
M  V30 21251 N 1957 -0.897194 -1.29569 0
M  V30 21252 C 1958.25 -0.521834 -1.95661 0
M  V30 21253 C 1958.58 0.931396 -1.70749 0
M  V30 21254 O 1957.83 1.67507 -1.01192 0
M  V30 21255 C 1958.13 -0.757743 -3.49275 0
M  V30 21256 C 1957.8 -2.18794 -3.94259 0
M  V30 21257 C 1956.46 -2.57901 -4.06252 0
M  V30 21258 C 1958.81 -3.11942 -4.17542 0
M  V30 21259 C 1956.14 -3.89341 -4.38897 0
M  V30 21260 C 1958.49 -4.42928 -4.51661 0
M  V30 21261 C 1957.16 -4.81911 -4.61864 0
M  V30 21262 H 1956.43 -0.190953 -0.715974 0
M  V30 21263 H 1959.07 -1.13537 -1.54212 0
M  V30 21264 H 1957.38 -0.0612622 -3.91752 0
M  V30 21265 H 1959.08 -0.446734 -3.98504 0
M  V30 21266 H 1955.67 -1.87443 -3.85439 0
M  V30 21267 H 1959.85 -2.82944 -4.07745 0
M  V30 21268 H 1955.11 -4.19269 -4.44998 0
M  V30 21269 H 1959.28 -5.15133 -4.68627 0
M  V30 21270 H 1956.91 -5.83797 -4.86914 0
M  V30 21271 N 1958.48 1.43142 -0.659413 0
M  V30 21272 C 1959.89 1.84958 -0.254412 0
M  V30 21273 C 1960.24 1.552 1.20031 0
M  V30 21274 O 1959.37 1.00407 1.91696 0
M  V30 21275 C 1959.96 3.35731 -0.454961 0
M  V30 21276 C 1958.52 3.76256 -0.104223 0
M  V30 21277 C 1957.67 2.66828 -0.754849 0
M  V30 21278 H 1960.62 1.33206 -0.862657 0
M  V30 21279 H 1960.64 3.79334 0.297654 0
M  V30 21280 H 1960.15 3.57359 -1.51381 0
M  V30 21281 H 1958.26 3.60239 0.951785 0
M  V30 21282 H 1958.37 4.76115 -0.534009 0
M  V30 21283 H 1956.73 2.54009 -0.187526 0
M  V30 21284 H 1957.52 2.91283 -1.81685 0
M  V30 21285 N 1959.96 0.40173 1.52394 0
M  V30 21286 C 1961.24 -0.234644 1.94187 0
M  V30 21287 C 1961.62 -1.63273 1.3381 0
M  V30 21288 O 1960.97 -2.22713 0.511013 0
M  V30 21289 C 1961.18 -0.248454 3.48114 0
M  V30 21290 C 1962.52 -0.471396 4.21975 0
M  V30 21291 O 1963.55 -0.328131 3.54685 0
M  V30 21292 O 1962.41 -0.753135 5.41286 0
M  V30 21293 H 1959.5 -0.149075 0.813453 0
M  V30 21294 H 1962.05 0.457138 1.63427 0
M  V30 21295 H 1960.82 0.730355 3.84424 0
M  V30 21296 H 1960.44 -0.984644 3.85215 0
M  V30 21297 N 1961.44 -1.57047 0.131923 0
M  V30 21298 C 1962.39 -2.15989 -0.813469 0
M  V30 21299 C 1963.36 -1.08848 -1.25464 0
M  V30 21300 O 1964.54 -1.36819 -1.32986 0
M  V30 21301 C 1961.68 -2.7738 -2.05315 0
M  V30 21302 C 1960.79 -3.98868 -1.65916 0
M  V30 21303 C 1959.93 -4.48305 -2.84948 0
M  V30 21304 C 1958.97 -5.62294 -2.41851 0
M  V30 21305 N 1958.1 -6.06417 -3.53841 0
M  V30 21306 H 1962.94 -2.96445 -0.304009 0
M  V30 21307 H 1960.48 -1.46448 -0.138355 0
M  V30 21308 H 1962.44 -3.11111 -2.77967 0
M  V30 21309 H 1961.07 -1.99593 -2.53697 0
M  V30 21310 H 1960.12 -3.71215 -0.830867 0
M  V30 21311 H 1961.43 -4.81493 -1.30252 0
M  V30 21312 H 1960.59 -4.84012 -3.6581 0
M  V30 21313 H 1959.33 -3.64657 -3.23847 0
M  V30 21314 H 1958.33 -5.26178 -1.59425 0
M  V30 21315 H 1959.56 -6.47718 -2.04055 0
M  V30 21316 H 1957.5 -5.25707 -3.92388 0
M  V30 21317 H 1957.42 -6.8393 -3.22143 0
M  V30 21318 H 1958.69 -6.46765 -4.35104 0
M  V30 21319 N 1962.92 0.141865 -1.5696 0
M  V30 21320 C 1963.86 1.175 -1.98651 0
M  V30 21321 C 1964.83 1.42409 -0.854918 0
M  V30 21322 O 1966.02 1.54658 -1.11738 0
M  V30 21323 C 1963.16 2.50222 -2.37661 0
M  V30 21324 C 1962.27 2.32443 -3.64135 0
M  V30 21325 C 1961.41 3.58236 -3.92225 0
M  V30 21326 C 1960.45 3.35516 -5.11952 0
M  V30 21327 N 1959.58 4.53452 -5.36027 0
M  V30 21328 H 1964.42 0.812473 -2.8671 0
M  V30 21329 H 1961.96 0.389721 -1.41844 0
M  V30 21330 H 1963.92 3.27616 -2.58309 0
M  V30 21331 H 1962.55 2.84412 -1.52675 0
M  V30 21332 H 1961.6 1.46078 -3.51234 0
M  V30 21333 H 1962.91 2.11618 -4.51685 0
M  V30 21334 H 1962.07 4.44057 -4.13399 0
M  V30 21335 H 1960.8 3.8207 -3.03106 0
M  V30 21336 H 1959.81 2.48084 -4.90647 0
M  V30 21337 H 1961.03 3.13075 -6.02628 0
M  V30 21338 H 1958.98 4.7745 -4.49864 0
M  V30 21339 H 1958.9 4.35648 -6.17856 0
M  V30 21340 H 1960.17 5.40472 -5.61703 0
M  V30 21341 N 1964.39 1.52136 0.411372 0
M  V30 21342 C 1965.81 1.58274 0.990272 0
M  V30 21343 C 1966.16 0.421874 1.91611 0
M  V30 21344 O 1965.28 -0.458058 2.11497 0
M  V30 21345 C 1965.88 2.86855 1.80276 0
M  V30 21346 C 1964.44 2.95478 2.33173 0
M  V30 21347 C 1963.58 2.5319 1.13093 0
M  V30 21348 H 1966.53 1.57538 0.191687 0
M  V30 21349 H 1966.55 2.72082 2.65992 0
M  V30 21350 H 1966.07 3.71326 1.12866 0
M  V30 21351 H 1964.17 2.15496 3.03961 0
M  V30 21352 H 1964.28 3.99674 2.64192 0
M  V30 21353 H 1962.64 2.06986 1.48421 0
M  V30 21354 H 1963.43 3.40032 0.472529 0
M  V30 21355 N 1965.87 -0.668464 1.42721 0
M  V30 21356 C 1966.82 -1.78184 1.46694 0
M  V30 21357 C 1967.79 -1.63023 0.318213 0
M  V30 21358 O 1968.98 -1.83486 0.523198 0
M  V30 21359 C 1966.12 -3.16254 1.3812 0
M  V30 21360 C 1965.23 -3.42657 2.63078 0
M  V30 21361 C 1964.36 -4.7049 2.46602 0
M  V30 21362 C 1963.4 -4.89948 3.66902 0
M  V30 21363 N 1962.54 -6.09027 3.49329 0
M  V30 21364 H 1967.38 -1.74123 2.41837 0
M  V30 21365 H 1964.92 -0.849937 1.2006 0
M  V30 21366 H 1966.87 -3.96051 1.31146 0
M  V30 21367 H 1965.5 -3.19423 0.46569 0
M  V30 21368 H 1964.56 -2.57068 2.80393 0
M  V30 21369 H 1965.87 -3.52926 3.52484 0
M  V30 21370 H 1965.02 -5.58388 2.37249 0
M  V30 21371 H 1963.76 -4.62515 1.54696 0
M  V30 21372 H 1962.77 -4.0049 3.7668 0
M  V30 21373 H 1963.99 -4.99764 4.59797 0
M  V30 21374 H 1961.94 -6.02213 2.60146 0
M  V30 21375 H 1961.85 -6.20186 4.32326 0
M  V30 21376 H 1963.12 -6.99587 3.438 0
M  V30 21377 N 1967.35 -1.28999 -0.905381 0
M  V30 21378 C 1968.6 -1.16813 -1.65779 0
M  V30 21379 C 1968.93 0.280936 -1.92157 0
M  V30 21380 O 1968.21 1.2035 -1.52794 0
M  V30 21381 C 1968.49 -1.97593 -3.01047 0
M  V30 21382 C 1968.34 -3.50608 -2.8177 0
M  V30 21383 C 1969.66 -1.79788 -4.01702 0
M  V30 21384 H 1966.78 -0.425716 -0.60161 0
M  V30 21385 H 1969.42 -1.58409 -1.04913 0
M  V30 21386 H 1967.57 -1.62246 -3.52999 0
M  V30 21387 H 1969.24 -3.95905 -2.36763 0
M  V30 21388 H 1967.49 -3.75818 -2.16663 0
M  V30 21389 H 1968.16 -4.02396 -3.77865 0
M  V30 21390 H 1970.63 -2.10649 -3.5884 0
M  V30 21391 H 1969.51 -2.38667 -4.94297 0
M  V30 21392 H 1969.77 -0.75156 -4.35665 0
M  V30 21393 N 1968.83 1.11497 -1.11383 0
M  V30 21394 C 1969.76 2.17283 -0.729431 0
M  V30 21395 C 1970.77 1.61041 0.238642 0
M  V30 21396 O 1971.96 1.78487 0.0216271 0
M  V30 21397 C 1969.06 3.38852 -0.057216 0
M  V30 21398 C 1968.24 4.24562 -1.05196 0
M  V30 21399 C 1967.3 5.24605 -0.40941 0
M  V30 21400 O 1966.32 5.59183 -1.06315 0
M  V30 21401 N 1967.52 5.74565 0.827957 0
M  V30 21402 H 1970.29 2.50871 -1.63963 0
M  V30 21403 H 1967.85 1.27013 -1.00396 0
M  V30 21404 H 1969.84 4.02871 0.384356 0
M  V30 21405 H 1968.41 3.03332 0.755551 0
M  V30 21406 H 1967.63 3.57008 -1.6715 0
M  V30 21407 H 1968.92 4.78667 -1.72498 0
M  V30 21408 H 1968.32 5.48653 1.37827 0
M  V30 21409 H 1966.87 6.40423 1.21252 0
M  V30 21410 N 1970.31 0.904053 1.29092 0
M  V30 21411 C 1971.24 0.401805 2.30017 0
M  V30 21412 C 1972.22 -0.525477 1.6178 0
M  V30 21413 O 1973.4 -0.435279 1.89259 0
M  V30 21414 C 1970.53 -0.367656 3.45348 0
M  V30 21415 C 1969.49 0.469596 4.25416 0
M  V30 21416 C 1968.81 -0.427624 5.32987 0
M  V30 21417 C 1970.11 1.7218 4.93104 0
M  V30 21418 H 1971.81 1.24523 2.72276 0
M  V30 21419 H 1969.35 0.600215 1.30895 0
M  V30 21420 H 1971.31 -0.729791 4.15033 0
M  V30 21421 H 1970.03 -1.2449 3.01944 0
M  V30 21422 H 1968.69 0.814119 3.57446 0
M  V30 21423 H 1968.34 -1.30313 4.85827 0
M  V30 21424 H 1968.04 0.128909 5.87459 0
M  V30 21425 H 1969.56 -0.785855 6.05522 0
M  V30 21426 H 1970.98 1.42914 5.55201 0
M  V30 21427 H 1969.37 2.21999 5.57527 0
M  V30 21428 H 1970.44 2.45526 4.18145 0
M  V30 21429 N 1971.79 -1.4279 0.666995 0
M  V30 21430 C 1973.03 -2.01942 0.186305 0
M  V30 21431 C 1973.36 -1.52579 -1.20139 0
M  V30 21432 O 1972.64 -0.724677 -1.80496 0
M  V30 21433 C 1972.92 -3.59474 0.212322 0
M  V30 21434 C 1972.78 -4.19035 1.63491 0
M  V30 21435 C 1974.09 -4.37857 -0.443762 0
M  V30 21436 H 1971.21 -0.733747 0.0691733 0
M  V30 21437 H 1973.86 -1.69912 0.850298 0
M  V30 21438 H 1972.01 -3.86892 -0.353062 0
M  V30 21439 H 1973.68 -4.02598 2.25195 0
M  V30 21440 H 1971.92 -3.75161 2.178 0
M  V30 21441 H 1972.59 -5.28155 1.60486 0
M  V30 21442 H 1975.07 -4.16083 0.0374331 0
M  V30 21443 H 1973.94 -5.47478 -0.394887 0
M  V30 21444 H 1974.2 -4.15144 -1.52012 0
M  V30 21445 N 1973.26 -0.409806 -1.52179 0
M  V30 21446 C 1974.51 0.167113 -2.01007 0
M  V30 21447 C 1974.83 1.46166 -1.2998 0
M  V30 21448 O 1976.03 2.11988 -1.69628 0
M  V30 21449 C 1974.49 0.348367 -3.5821 0
M  V30 21450 C 1974.1 -0.934131 -4.38153 0
M  V30 21451 C 1975.84 0.880542 -4.15267 0
M  V30 21452 C 1973.75 -0.720028 -5.87 0
M  V30 21453 H 1972.68 0.0662269 -0.751086 0
M  V30 21454 H 1975.33 -0.535355 -1.75517 0
M  V30 21455 H 1973.71 1.11318 -3.80032 0
M  V30 21456 H 1974.88 -1.70515 -4.2809 0
M  V30 21457 H 1973.2 -1.39277 -3.92417 0
M  V30 21458 H 1975.8 1.05677 -5.24153 0
M  V30 21459 H 1976.14 1.85542 -3.72666 0
M  V30 21460 H 1976.67 0.174766 -3.97416 0
M  V30 21461 H 1973.41 -1.66649 -6.33963 0
M  V30 21462 H 1972.93 0.0116803 -5.99799 0
M  V30 21463 H 1974.61 -0.362471 -6.45984 0
M  V30 21464 N 1974.74 1.56975 -0.14025 0
M  V30 21465 C 1975.97 2.00699 0.522938 0
M  V30 21466 C 1976.39 1.01964 1.58066 0
M  V30 21467 O 1975.75 -0.0056107 1.81299 0
M  V30 21468 C 1975.8 3.43203 1.10653 0
M  V30 21469 O 1974.9 3.47447 2.22159 0
M  V30 21470 H 1974.24 0.65143 0.12859 0
M  V30 21471 H 1976.77 2.03246 -0.234993 0
M  V30 21472 H 1976.78 3.81862 1.43686 0
M  V30 21473 H 1975.46 4.14573 0.331913 0
M  V30 21474 H 1974.03 3.20625 1.90405 0
M  V30 21475 N 1976.22 -0.133539 1.57033 0
M  V30 21476 C 1977.45 -0.857187 1.87978 0
M  V30 21477 C 1977.86 -1.74634 0.72799 0
M  V30 21478 O 1977.2 -1.81051 -0.310857 0
M  V30 21479 C 1977.26 -1.75448 3.13781 0
M  V30 21480 C 1976.93 -1.04112 4.44983 0
M  V30 21481 C 1977.92 -0.388703 5.18445 0
M  V30 21482 C 1975.61 -1.02662 4.91697 0
M  V30 21483 C 1977.6 0.268682 6.36833 0
M  V30 21484 C 1975.29 -0.365432 6.10006 0
M  V30 21485 C 1976.29 0.28108 6.82421 0
M  V30 21486 O 1975.98 0.931754 7.98482 0
M  V30 21487 H 1975.71 -0.252521 0.627064 0
M  V30 21488 H 1978.26 -0.126928 2.05007 0
M  V30 21489 H 1976.49 -2.52602 2.92796 0
M  V30 21490 H 1978.18 -2.35126 3.30863 0
M  V30 21491 H 1978.95 -0.391622 4.83416 0
M  V30 21492 H 1974.83 -1.51926 4.35246 0
M  V30 21493 H 1978.37 0.773893 6.93294 0
M  V30 21494 H 1974.27 -0.360226 6.44494 0
M  V30 21495 H 1975.03 0.834769 8.14232 0
M  V30 21496 N 1977.7 -1.52352 -0.403298 0
M  V30 21497 C 1978.61 -1.79011 -1.51631 0
M  V30 21498 C 1979.62 -0.676014 -1.60331 0
M  V30 21499 O 1980.8 -0.962058 -1.76936 0
M  V30 21500 C 1977.86 -1.94046 -2.8731 0
M  V30 21501 C 1976.93 -3.17955 -2.88449 0
M  V30 21502 C 1976.16 -3.32264 -4.17656 0
M  V30 21503 O 1976.38 -2.51703 -5.11861 0
M  V30 21504 O 1975.32 -4.25446 -4.25769 0
M  V30 21505 H 1979.14 -2.73495 -1.32038 0
M  V30 21506 H 1976.73 -1.37268 -0.589733 0
M  V30 21507 H 1978.61 -2.05724 -3.67771 0
M  V30 21508 H 1977.28 -1.02752 -3.06959 0
M  V30 21509 H 1976.19 -3.11731 -2.0682 0
M  V30 21510 H 1977.52 -4.0905 -2.7375 0
M  V30 21511 N 1979.18 0.660885 -1.43074 0
M  V30 21512 C 1980.45 1.41768 -1.34764 0
M  V30 21513 C 1980.83 2.11098 0.00828719 0
M  V30 21514 O 1980.18 2.04246 1.02449 0
M  V30 21515 C 1980.39 2.40869 -2.52553 0
M  V30 21516 C 1981.74 3.05098 -2.95297 0
M  V30 21517 O 1982.76 2.51196 -2.52545 0
M  V30 21518 O 1981.62 4.02808 -3.69335 0
M  V30 21519 H 1978.72 0.633017 -0.532182 0
M  V30 21520 H 1981.26 0.688438 -1.55108 0
M  V30 21521 H 1980.03 1.88533 -3.42886 0
M  V30 21522 H 1979.66 3.21254 -2.34268 0
M  V30 21523 N 1980.65 1.29477 0.898527 0
M  V30 21524 C 1981.9 1.1769 1.65157 0
M  V30 21525 C 1982.23 -0.270742 1.92303 0
M  V30 21526 O 1981.51 -1.19538 1.5343 0
M  V30 21527 C 1981.79 1.99186 2.99995 0
M  V30 21528 C 1981.64 3.52097 2.79906 0
M  V30 21529 C 1982.96 1.81916 4.00743 0
M  V30 21530 H 1980.08 0.428901 0.599344 0
M  V30 21531 H 1982.72 1.58963 1.04071 0
M  V30 21532 H 1980.87 1.64116 3.52134 0
M  V30 21533 H 1982.55 3.97155 2.3466 0
M  V30 21534 H 1980.79 3.76962 2.14667 0
M  V30 21535 H 1981.46 4.04394 3.75725 0
M  V30 21536 H 1983.94 2.12549 3.57718 0
M  V30 21537 H 1982.81 2.41285 4.93024 0
M  V30 21538 H 1983.07 0.774654 4.3526 0
M  V30 21539 N 1982.13 -1.10905 1.11972 0
M  V30 21540 C 1983.08 -2.17107 0.783135 0
M  V30 21541 C 1984.05 -1.6424 -0.24791 0
M  V30 21542 O 1985.23 -1.90399 -0.123577 0
M  V30 21543 C 1982.37 -3.44274 0.238574 0
M  V30 21544 C 1981.49 -4.11119 1.32685 0
M  V30 21545 C 1980.62 -5.25989 0.742236 0
M  V30 21546 C 1979.66 -5.84728 1.80997 0
M  V30 21547 N 1978.8 -6.90983 1.24444 0
M  V30 21548 H 1983.64 -2.45243 1.69292 0
M  V30 21549 H 1981.18 -1.20386 0.845323 0
M  V30 21550 H 1983.13 -4.17091 -0.0951679 0
M  V30 21551 H 1981.76 -3.16505 -0.634384 0
M  V30 21552 H 1980.82 -3.3632 1.77745 0
M  V30 21553 H 1982.13 -4.50824 2.13445 0
M  V30 21554 H 1981.28 -6.05638 0.358877 0
M  V30 21555 H 1980.02 -4.87604 -0.096622 0
M  V30 21556 H 1979.03 -5.03753 2.20258 0
M  V30 21557 H 1980.25 -6.25178 2.65196 0
M  V30 21558 H 1978.2 -6.54607 0.427323 0
M  V30 21559 H 1978.11 -7.29374 1.98869 0
M  V30 21560 H 1979.38 -7.74424 0.888154 0
M  V30 21561 N 1983.61 -0.910886 -1.2861 0
M  V30 21562 C 1984.54 -0.413998 -2.29801 0
M  V30 21563 C 1985.52 0.51689 -1.62056 0
M  V30 21564 O 1986.71 0.425236 -1.89487 0
M  V30 21565 C 1983.84 0.349336 -3.45539 0
M  V30 21566 C 1982.79 -0.49215 -4.25161 0
M  V30 21567 C 1982.12 0.399352 -5.33207 0
M  V30 21568 C 1983.42 -1.74792 -4.92184 0
M  V30 21569 H 1985.11 -1.25965 -2.71612 0
M  V30 21570 H 1982.66 -0.607149 -1.30575 0
M  V30 21571 H 1984.61 0.70777 -4.15414 0
M  V30 21572 H 1983.33 1.22887 -3.02599 0
M  V30 21573 H 1981.99 -0.833064 -3.57009 0
M  V30 21574 H 1981.64 1.27734 -4.86511 0
M  V30 21575 H 1981.34 -0.160062 -5.87382 0
M  V30 21576 H 1982.86 0.753731 -6.0593 0
M  V30 21577 H 1984.28 -1.45856 -5.54436 0
M  V30 21578 H 1982.68 -2.24952 -5.56342 0
M  V30 21579 H 1983.75 -2.4774 -4.16837 0
M  V30 21580 N 1985.09 1.42434 -0.674558 0
M  V30 21581 C 1986.32 2.05881 -0.205113 0
M  V30 21582 C 1986.73 1.50677 1.13763 0
M  V30 21583 O 1986.09 0.646479 1.70666 0
M  V30 21584 C 1986.14 3.61262 -0.131194 0
M  V30 21585 O 1985.86 4.14419 -1.42087 0
M  V30 21586 C 1987.36 4.41821 0.361775 0
M  V30 21587 H 1984.58 0.663535 -0.0998083 0
M  V30 21588 H 1987.13 1.82575 -0.921226 0
M  V30 21589 H 1985.28 3.8368 0.535604 0
M  V30 21590 H 1985.69 5.08285 -1.29407 0
M  V30 21591 H 1987.17 5.50809 0.362405 0
M  V30 21592 H 1987.65 4.1639 1.39699 0
M  V30 21593 H 1988.25 4.24421 -0.273278 0
M  V30 21594 N 1986.57 0.417871 1.51959 0
M  V30 21595 C 1987.82 -0.156451 2.01092 0
M  V30 21596 C 1988.13 -1.45475 1.30753 0
M  V30 21597 O 1989.33 -2.11085 1.70749 0
M  V30 21598 C 1987.79 -0.329366 3.5839 0
M  V30 21599 C 1987.4 0.957354 4.37651 0
M  V30 21600 C 1989.14 -0.858507 4.15728 0
M  V30 21601 C 1987.05 0.751148 5.8661 0
M  V30 21602 H 1985.98 -0.0622427 0.751427 0
M  V30 21603 H 1988.63 0.544656 1.75231 0
M  V30 21604 H 1987.01 -1.09301 3.80617 0
M  V30 21605 H 1988.19 1.72783 4.2718 0
M  V30 21606 H 1986.5 1.41356 3.91673 0
M  V30 21607 H 1989.1 -1.02896 5.24706 0
M  V30 21608 H 1989.44 -1.83563 3.73645 0
M  V30 21609 H 1989.97 -0.153688 3.97503 0
M  V30 21610 H 1986.71 1.70008 6.3307 0
M  V30 21611 H 1986.23 0.0201287 5.99797 0
M  V30 21612 H 1987.91 0.396724 6.45783 0
M  V30 21613 N 1988.04 -1.56898 0.148573 0
M  V30 21614 C 1988.97 -2.19852 -0.786585 0
M  V30 21615 C 1989.96 -1.14723 -1.2559 0
M  V30 21616 O 1991.14 -1.43071 -1.31317 0
M  V30 21617 C 1988.27 -2.82137 -2.02524 0
M  V30 21618 C 1987.22 -3.93108 -1.69264 0
M  V30 21619 C 1986.55 -4.42335 -3.00407 0
M  V30 21620 C 1987.85 -5.13807 -0.938092 0
M  V30 21621 H 1989.54 -2.98252 -0.261903 0
M  V30 21622 H 1987.09 -1.43461 -0.124531 0
M  V30 21623 H 1989.04 -3.24845 -2.68428 0
M  V30 21624 H 1987.77 -2.01071 -2.57368 0
M  V30 21625 H 1986.43 -3.5102 -1.05739 0
M  V30 21626 H 1986.07 -3.58089 -3.53244 0
M  V30 21627 H 1985.77 -5.17185 -2.78915 0
M  V30 21628 H 1987.3 -4.87714 -3.67378 0
M  V30 21629 H 1988.71 -5.53349 -1.49924 0
M  V30 21630 H 1987.11 -5.94429 -0.823062 0
M  V30 21631 H 1988.18 -4.8485 0.0698825 0
M  V30 21632 N 1989.52 0.125209 -1.57102 0
M  V30 21633 C 1990.77 0.835321 -1.84798 0
M  V30 21634 C 1991.1 1.79819 -0.73341 0
M  V30 21635 O 1990.38 1.92737 0.261268 0
M  V30 21636 C 1990.66 1.59069 -3.23062 0
M  V30 21637 C 1990.51 0.647841 -4.4511 0
M  V30 21638 C 1991.83 2.54829 -3.58818 0
M  V30 21639 H 1988.95 0.302222 -0.672184 0
M  V30 21640 H 1991.59 0.0997638 -1.89738 0
M  V30 21641 H 1989.74 2.21772 -3.18982 0
M  V30 21642 H 1991.41 0.0301293 -4.6129 0
M  V30 21643 H 1989.66 -0.041074 -4.33781 0
M  V30 21644 H 1990.33 1.21288 -5.3851 0
M  V30 21645 H 1992.8 2.02233 -3.63649 0
M  V30 21646 H 1991.68 3.04716 -4.56551 0
M  V30 21647 H 1991.94 3.37205 -2.85911 0
M  V30 21648 N 1991 1.52564 0.395213 0
M  V30 21649 C 1991.95 1.769 1.48239 0
M  V30 21650 C 1992.92 0.611965 1.54416 0
M  V30 21651 O 1994.1 0.851019 1.7077 0
M  V30 21652 C 1991.24 1.93809 2.85538 0
M  V30 21653 C 1990.36 3.2149 2.88562 0
M  V30 21654 C 1989.49 3.28751 4.17248 0
M  V30 21655 C 1988.53 4.5058 4.143 0
M  V30 21656 N 1987.67 4.55156 5.34581 0
M  V30 21657 H 1992.51 2.69683 1.26788 0
M  V30 21658 H 1990.04 1.33618 0.615189 0
M  V30 21659 H 1992 2.01597 3.6526 0
M  V30 21660 H 1990.63 1.04394 3.05453 0
M  V30 21661 H 1989.68 3.22805 2.01249 0
M  V30 21662 H 1991 4.11262 2.82251 0
M  V30 21663 H 1990.15 3.35687 5.0537 0
M  V30 21664 H 1988.89 2.36943 4.26274 0
M  V30 21665 H 1987.89 4.43775 3.24567 0
M  V30 21666 H 1989.12 5.43698 4.06902 0
M  V30 21667 H 1987.06 3.66237 5.44248 0
M  V30 21668 H 1986.98 5.38791 5.30321 0
M  V30 21669 H 1988.25 4.6634 6.24618 0
M  V30 21670 N 1992.48 -0.653289 1.43422 0
M  V30 21671 C 1993.43 -1.75934 1.45021 0
M  V30 21672 C 1994.41 -1.57713 0.318677 0
M  V30 21673 O 1995.6 -1.67826 0.562454 0
M  V30 21674 C 1992.73 -3.14521 1.37591 0
M  V30 21675 C 1991.82 -3.38291 2.55773 0
M  V30 21676 N 1992.21 -3.32534 3.81123 0
M  V30 21677 C 1990.51 -3.6901 2.50495 0
M  V30 21678 C 1991.21 -3.56383 4.59746 0
M  V30 21679 N 1990.19 -3.78192 3.90476 0
M  V30 21680 H 1993.99 -1.69909 2.39809 0
M  V30 21681 H 1991.5 -0.854954 1.38074 0
M  V30 21682 H 1993.5 -3.9381 1.36819 0
M  V30 21683 H 1992.16 -3.21729 0.438229 0
M  V30 21684 H 1993.17 -3.11948 4.13412 0
M  V30 21685 H 1989.85 -3.83333 1.65415 0
M  V30 21686 H 1991.24 -3.57711 5.68764 0
M  V30 21687 N 1993.96 -1.29952 -0.891648 0
M  V30 21688 C 1994.89 -1.10092 -1.99887 0
M  V30 21689 C 1995.87 -0.0104614 -1.62597 0
M  V30 21690 O 1997.05 -0.162725 -1.87796 0
M  V30 21691 C 1994.18 -0.677652 -3.31852 0
M  V30 21692 C 1993.22 -1.768 -3.88129 0
M  V30 21693 S 1994.06 -3.36899 -4.16244 0
M  V30 21694 C 1995.21 -2.96459 -5.51237 0
M  V30 21695 H 1995.45 -2.0383 -2.16427 0
M  V30 21696 H 1992.98 -1.1419 -1.03923 0
M  V30 21697 H 1994.94 -0.440168 -4.08133 0
M  V30 21698 H 1993.6 0.240259 -3.1318 0
M  V30 21699 H 1992.79 -1.42397 -4.83466 0
M  V30 21700 H 1992.39 -1.95942 -3.18564 0
M  V30 21701 H 1994.69 -2.44005 -6.32035 0
M  V30 21702 H 1995.63 -3.90678 -5.90573 0
M  V30 21703 H 1996.04 -2.3452 -5.13479 0
M  V30 21704 N 1995.44 1.1031 -1.12559 0
M  V30 21705 C 1996.38 2.16689 -0.794638 0
M  V30 21706 C 1997.35 1.64369 0.239196 0
M  V30 21707 O 1998.54 1.90462 0.113478 0
M  V30 21708 C 1995.68 3.44143 -0.256828 0
M  V30 21709 C 1994.79 4.10409 -1.34863 0
M  V30 21710 C 1993.93 5.25588 -0.77012 0
M  V30 21711 C 1992.96 5.8376 -1.84096 0
M  V30 21712 N 1992.1 6.90314 -1.28107 0
M  V30 21713 H 1996.94 2.44342 -1.7059 0
M  V30 21714 H 1994.48 1.19936 -0.851695 0
M  V30 21715 H 1996.44 4.17136 0.0730472 0
M  V30 21716 H 1995.07 3.16837 0.61759 0
M  V30 21717 H 1994.12 3.35372 -1.79526 0
M  V30 21718 H 1995.43 4.49686 -2.15833 0
M  V30 21719 H 1994.58 6.05439 -0.390991 0
M  V30 21720 H 1993.32 4.87649 0.0707618 0
M  V30 21721 H 1992.33 5.02577 -2.22926 0
M  V30 21722 H 1993.55 6.23763 -2.68508 0
M  V30 21723 H 1991.5 6.54371 -0.462033 0
M  V30 21724 H 1991.42 7.28309 -2.02735 0
M  V30 21725 H 1992.68 7.73942 -0.929211 0
M  V30 21726 N 1996.91 0.917694 1.28125 0
M  V30 21727 C 1997.86 0.399355 2.29146 0
M  V30 21728 C 1998.86 -0.511045 1.61508 0
M  V30 21729 O 2000.06 -0.391853 1.75683 0
M  V30 21730 H 1996.44 0.110553 0.743829 0
M  V30 21731 H 1998.41 1.26438 2.70289 0
M  V30 21732 C 1997.16 -0.34177 3.46016 0
M  V30 21733 H 1996.48 0.349564 3.98269 0
M  V30 21734 H 1997.92 -0.669035 4.18688 0
M  V30 21735 C 1996.38 -1.55111 2.99069 0
M  V30 21736 O 1996.91 -2.65012 3.0188 0
M  V30 21737 N 1995.11 -1.39946 2.54683 0
M  V30 21738 H 1994.66 -0.505341 2.52595 0
M  V30 21739 H 1994.62 -2.20989 2.23632 0
M  V30 21740 N 1998.39 -1.42074 0.682102 0
M  V30 21741 C 1999.64 -2.0066 0.204581 0
M  V30 21742 C 1999.95 -1.54595 -1.19832 0
M  V30 21743 O 2001.16 -2.05648 -1.7726 0
M  V30 21744 C 1999.62 -3.5852 0.31488 0
M  V30 21745 C 1999.22 -4.13571 1.7223 0
M  V30 21746 C 2000.97 -4.24374 -0.103556 0
M  V30 21747 C 1998.87 -5.6382 1.78497 0
M  V30 21748 H 1997.8 -0.750485 0.0727253 0
M  V30 21749 H 2000.46 -1.62712 0.848346 0
M  V30 21750 H 1998.84 -3.94006 -0.396905 0
M  V30 21751 H 2000.01 -3.89531 2.46176 0
M  V30 21752 H 1998.33 -3.60195 2.08922 0
M  V30 21753 H 2000.92 -5.34645 -0.0769789 0
M  V30 21754 H 2001.27 -4.00385 -1.14005 0
M  V30 21755 H 2001.8 -3.93874 0.557477 0
M  V30 21756 H 1998.54 -5.92616 2.80154 0
M  V30 21757 H 1998.06 -5.89828 1.08918 0
M  V30 21758 H 1999.74 -6.28363 1.54172 0
M  V30 21759 N 1999.87 -0.425924 -1.51735 0
M  V30 21760 C 2000.82 0.408952 -2.24302 0
M  V30 21761 C 2001.8 0.999596 -1.26083 0
M  V30 21762 O 2003 0.919629 -1.51234 0
M  V30 21763 C 2000.12 1.51589 -3.08019 0
M  V30 21764 C 1999.21 0.935197 -4.1366 0
M  V30 21765 N 1999.6 0.0826482 -5.05732 0
M  V30 21766 C 1997.9 1.20398 -4.29442 0
M  V30 21767 C 1998.6 -0.242261 -5.81195 0
M  V30 21768 N 1997.58 0.371212 -5.42331 0
M  V30 21769 H 2001.38 -0.248516 -2.92847 0
M  V30 21770 H 1998.89 -0.237322 -1.60657 0
M  V30 21771 H 2000.89 2.12675 -3.58574 0
M  V30 21772 H 1999.55 2.17581 -2.41016 0
M  V30 21773 H 2000.56 -0.282939 -5.17127 0
M  V30 21774 H 1997.24 1.86224 -3.73667 0
M  V30 21775 H 1998.63 -0.935323 -6.65358 0
M  V30 21776 N 2001.35 1.56817 -0.156891 0
M  V30 21777 C 2002.28 2.20266 0.774915 0
M  V30 21778 C 2003.26 1.15387 1.24979 0
M  V30 21779 O 2004.44 1.43766 1.30557 0
M  V30 21780 C 2001.57 2.83207 2.01025 0
M  V30 21781 C 2000.53 3.94 1.67177 0
M  V30 21782 C 1999.85 4.43921 2.98057 0
M  V30 21783 C 2001.15 5.14297 0.91083 0
M  V30 21784 H 2002.85 2.98387 0.246082 0
M  V30 21785 H 2000.39 1.43525 0.116921 0
M  V30 21786 H 2002.35 3.26264 2.66701 0
M  V30 21787 H 2001.07 2.02433 2.56298 0
M  V30 21788 H 1999.73 3.51576 1.03876 0
M  V30 21789 H 1999.38 3.59957 3.5134 0
M  V30 21790 H 1999.08 5.18657 2.76169 0
M  V30 21791 H 2000.6 4.89656 3.64787 0
M  V30 21792 H 2002.02 5.54137 1.46988 0
M  V30 21793 H 2000.41 5.94857 0.791526 0
M  V30 21794 H 2001.48 4.84806 -0.0955943 0
M  V30 21795 N 2002.83 -0.116876 1.57166 0
M  V30 21796 C 2004.24 -0.673792 1.74118 0
M  V30 21797 C 2004.59 -1.80206 0.775892 0
M  V30 21798 O 2003.71 -2.16341 -0.0507019 0
M  V30 21799 C 2004.31 -1.22903 3.15722 0
M  V30 21800 C 2002.87 -1.73222 3.34172 0
M  V30 21801 C 2002.01 -0.632798 2.69983 0
M  V30 21802 H 2004.96 0.109055 1.58325 0
M  V30 21803 H 2004.99 -2.09867 3.1739 0
M  V30 21804 H 2004.5 -0.407637 3.85953 0
M  V30 21805 H 2002.6 -2.57832 2.68986 0
M  V30 21806 H 2002.71 -1.8402 4.4235 0
M  V30 21807 H 2001.08 -1.06693 2.31276 0
M  V30 21808 H 2001.86 0.177653 3.4284 0
M  V30 21809 N 2004.3 -1.52772 -0.387116 0
M  V30 21810 C 2005.58 -1.5849 -1.14631 0
M  V30 21811 C 2005.96 -0.379228 -2.07666 0
M  V30 21812 O 2005.31 0.632297 -2.19577 0
M  V30 21813 C 2005.52 -2.92465 -1.90434 0
M  V30 21814 C 2006.87 -3.46269 -2.45729 0
M  V30 21815 O 2007.89 -2.94352 -2.00588 0
M  V30 21816 O 2006.75 -4.3698 -3.28193 0
M  V30 21817 H 2003.84 -0.639307 -0.52461 0
M  V30 21818 H 2006.39 -1.65108 -0.392117 0
M  V30 21819 H 2005.16 -3.7166 -1.22411 0
M  V30 21820 H 2004.78 -2.89241 -2.7281 0
M  V30 21821 N 2005.78 0.645673 -1.43767 0
M  V30 21822 C 2007.03 1.4027 -1.45495 0
M  V30 21823 C 2007.35 1.94822 -0.0832023 0
M  V30 21824 O 2006.62 1.74895 0.882519 0
M  V30 21825 H 2005.2 0.520611 -0.535699 0
M  V30 21826 H 2007.86 0.760978 -1.7943 0
M  V30 21827 H 2006.96 2.24129 -2.17192 0
M  V30 21828 N 2007.26 1.30423 0.884744 0
M  V30 21829 C 2008.48 1.22312 1.67495 0
M  V30 21830 C 2008.91 -0.210723 1.86916 0
M  V30 21831 O 2008.27 -1.15161 1.40027 0
M  V30 21832 C 2008.32 1.95725 3.0286 0
M  V30 21833 O 2007.42 1.28449 3.91886 0
M  V30 21834 H 2006.76 0.423038 0.511796 0
M  V30 21835 H 2009.29 1.72246 1.10419 0
M  V30 21836 H 2009.3 2.04755 3.52901 0
M  V30 21837 H 2007.98 3.00006 2.88044 0
M  V30 21838 H 2006.55 1.27775 3.50326 0
M  V30 21839 N 2008.74 -1.09711 1.13142 0
M  V30 21840 C 2009.7 -2.14443 0.809114 0
M  V30 21841 C 2010.7 -1.59789 -0.18005 0
M  V30 21842 O 2011.89 -1.74137 0.0466686 0
M  V30 21843 C 2009.02 -3.40291 0.203714 0
M  V30 21844 H 2010.22 -2.44466 1.73713 0
M  V30 21845 H 2007.77 -1.252 0.935663 0
M  V30 21846 H 2008.5 -3.15892 -0.733667 0
M  V30 21847 H 2008.29 -3.8125 0.916003 0
M  V30 21848 H 2009.78 -4.176 -0.00503851 0
M  V30 21849 N 2010.22 -0.924476 -1.27637 0
M  V30 21850 C 2011.63 -0.608255 -1.76514 0
M  V30 21851 C 2011.98 0.87656 -1.7553 0
M  V30 21852 O 2011.1 1.68587 -1.35674 0
M  V30 21853 C 2011.7 -1.09738 -3.20536 0
M  V30 21854 C 2010.26 -0.831881 -3.67092 0
M  V30 21855 C 2009.4 -1.25795 -2.47125 0
M  V30 21856 H 2012.36 -1.1046 -1.13949 0
M  V30 21857 H 2012.38 -0.443602 -3.77905 0
M  V30 21858 H 2011.89 -2.17806 -3.21219 0
M  V30 21859 H 2009.99 0.235141 -3.71857 0
M  V30 21860 H 2010.1 -1.44716 -4.56721 0
M  V30 21861 H 2008.47 -0.676541 -2.4555 0
M  V30 21862 H 2009.25 -2.34721 -2.50521 0
M  V30 21863 N 2011.69 1.41711 -0.689627 0
M  V30 21864 C 2012.92 2.06171 -0.225425 0
M  V30 21865 C 2013.34 1.51535 1.11439 0
M  V30 21866 O 2012.7 0.639865 1.69633 0
M  V30 21867 C 2012.75 3.60114 -0.187089 0
M  V30 21868 O 2011.85 4.03757 0.83989 0
M  V30 21869 H 2011.2 0.654551 -0.111621 0
M  V30 21870 H 2013.73 1.81582 -0.942814 0
M  V30 21871 H 2013.74 4.07997 -0.0159369 0
M  V30 21872 H 2012.41 3.99251 -1.16497 0
M  V30 21873 H 2010.99 3.67392 0.638575 0
M  V30 21874 N 2013.17 0.433965 1.51507 0
M  V30 21875 C 2014.14 -0.367505 2.26234 0
M  V30 21876 C 2015.14 -0.952583 1.29547 0
M  V30 21877 O 2016.33 -0.827563 1.53287 0
M  V30 21878 C 2013.46 -1.51964 3.05155 0
M  V30 21879 H 2014.65 0.28735 2.9852 0
M  V30 21880 H 2012.2 0.187052 1.55177 0
M  V30 21881 H 2012.94 -2.21064 2.37278 0
M  V30 21882 H 2012.72 -1.10632 3.76169 0
M  V30 21883 H 2014.21 -2.08597 3.61769 0
M  V30 21884 N 2014.65 -1.56732 0.165206 0
M  V30 21885 C 2015.6 -2.14257 -0.779625 0
M  V30 21886 C 2016.58 -1.07517 -1.19704 0
M  V30 21887 O 2017.78 -1.33654 -1.16042 0
M  V30 21888 C 2014.91 -2.78206 -2.01137 0
M  V30 21889 C 2013.99 -3.92096 -1.61623 0
M  V30 21890 N 2014.38 -4.97171 -0.930308 0
M  V30 21891 C 2012.68 -4.03142 -1.90768 0
M  V30 21892 C 2013.38 -5.77017 -0.736666 0
M  V30 21893 N 2012.36 -5.28407 -1.27621 0
M  V30 21894 H 2016.16 -2.92864 -0.246531 0
M  V30 21895 H 2013.67 -1.62361 -0.0356946 0
M  V30 21896 H 2015.67 -3.17791 -2.69842 0
M  V30 21897 H 2014.33 -2.01078 -2.54947 0
M  V30 21898 H 2015.34 -5.14539 -0.589031 0
M  V30 21899 H 2012.02 -3.3711 -2.46299 0
M  V30 21900 H 2013.41 -6.71618 -0.194698 0
M  V30 21901 N 2016.13 0.10854 -1.57226 0
M  V30 21902 C 2017.37 0.815673 -1.85673 0
M  V30 21903 C 2017.71 1.79031 -0.752441 0
M  V30 21904 O 2016.98 1.93004 0.240811 0
M  V30 21905 C 2017.27 1.55633 -3.24731 0
M  V30 21906 C 2017.12 0.600595 -4.45772 0
M  V30 21907 C 2018.44 2.51009 -3.61501 0
M  V30 21908 H 2015.56 0.295076 -0.675351 0
M  V30 21909 H 2018.2 0.079634 -1.89833 0
M  V30 21910 H 2016.35 2.18377 -3.21316 0
M  V30 21911 H 2018.02 -0.0187984 -4.61296 0
M  V30 21912 H 2016.26 -0.0870799 -4.33713 0
M  V30 21913 H 2016.93 1.15569 -5.39766 0
M  V30 21914 H 2019.41 1.98365 -3.65774 0
M  V30 21915 H 2018.29 2.99857 -4.59758 0
M  V30 21916 H 2018.55 3.34154 -2.89472 0
M  V30 21917 N 2017.61 1.52975 0.379009 0
M  V30 21918 C 2018.52 1.81401 1.48764 0
M  V30 21919 C 2019.53 0.701435 1.59235 0
M  V30 21920 O 2020.71 0.990085 1.75383 0
M  V30 21921 C 2017.77 1.98593 2.84186 0
M  V30 21922 C 2016.83 3.22504 2.83354 0
M  V30 21923 C 2016.07 3.38866 4.12317 0
M  V30 21924 O 2016.29 2.59814 5.07792 0
M  V30 21925 O 2015.22 4.32165 4.18947 0
M  V30 21926 H 2019.05 2.75561 1.27671 0
M  V30 21927 H 2016.64 1.38189 0.56782 0
M  V30 21928 H 2018.52 2.11549 3.64451 0
M  V30 21929 H 2017.19 1.07622 3.05285 0
M  V30 21930 H 2016.1 3.14982 2.01835 0
M  V30 21931 H 2017.43 4.13353 2.67208 0
M  V30 21932 N 2019.08 -0.63804 1.44107 0
M  V30 21933 C 2020.33 -1.39772 1.46526 0
M  V30 21934 C 2020.66 -1.94267 0.0952359 0
M  V30 21935 O 2019.91 -1.73674 -0.901993 0
M  V30 21936 C 2020.21 -2.58567 2.46734 0
M  V30 21937 C 2019.88 -2.22403 3.92234 0
M  V30 21938 C 2018.54 -2.12252 4.31859 0
M  V30 21939 C 2020.89 -1.93717 4.83863 0
M  V30 21940 C 2018.22 -1.71594 5.61046 0
M  V30 21941 C 2020.57 -1.54553 6.1343 0
M  V30 21942 C 2019.24 -1.42939 6.52016 0
M  V30 21943 H 2018.51 -0.511463 0.536177 0
M  V30 21944 H 2021.15 -0.724184 1.77279 0
M  V30 21945 H 2019.46 -3.31123 2.0944 0
M  V30 21946 H 2021.16 -3.16791 2.45855 0
M  V30 21947 H 2017.75 -2.31219 3.60882 0
M  V30 21948 H 2021.93 -2.00472 4.5401 0
M  V30 21949 H 2017.19 -1.612 5.89766 0
M  V30 21950 H 2021.36 -1.31393 6.83892 0
M  V30 21951 H 2018.99 -1.11206 7.52022 0
M  V30 21952 N 2020.56 -1.3089 -0.877815 0
M  V30 21953 C 2021.79 -1.2289 -1.66077 0
M  V30 21954 C 2022.2 0.209505 -1.88036 0
M  V30 21955 O 2021.54 1.14931 -1.43306 0
M  V30 21956 C 2021.61 -1.89448 -3.05532 0
M  V30 21957 C 2021.27 -3.38785 -3.06715 0
M  V30 21958 C 2022.27 -4.34661 -2.85246 0
M  V30 21959 C 2019.95 -3.8035 -3.28084 0
M  V30 21960 C 2021.95 -5.70077 -2.85116 0
M  V30 21961 C 2019.63 -5.15881 -3.27583 0
M  V30 21962 C 2020.63 -6.10555 -3.06124 0
M  V30 21963 O 2020.32 -7.43609 -3.05452 0
M  V30 21964 H 2020.05 -0.426136 -0.524771 0
M  V30 21965 H 2022.6 -1.73175 -1.10452 0
M  V30 21966 H 2020.83 -1.33702 -3.62851 0
M  V30 21967 H 2022.52 -1.7547 -3.66012 0
M  V30 21968 H 2023.29 -4.03879 -2.68526 0
M  V30 21969 H 2019.17 -3.07097 -3.4382 0
M  V30 21970 H 2022.71 -6.43948 -2.68285 0
M  V30 21971 H 2018.61 -5.463 -3.4384 0
M  V30 21972 H 2019.38 -7.52686 -3.21568 0
M  V30 21973 N 2022.04 1.0911 -1.13723 0
M  V30 21974 C 2022.97 2.17859 -0.840227 0
M  V30 21975 C 2023.95 1.68899 0.201778 0
M  V30 21976 O 2025.14 1.94107 0.0600046 0
M  V30 21977 C 2022.27 3.45922 -0.309024 0
M  V30 21978 C 2021.22 4.08234 -1.28565 0
M  V30 21979 C 2020.55 5.31162 -0.614064 0
M  V30 21980 C 2021.85 4.50354 -2.64534 0
M  V30 21981 H 2023.54 2.4296 -1.74959 0
M  V30 21982 H 2021.09 1.16771 -0.842653 0
M  V30 21983 H 2023.04 4.21306 -0.088895 0
M  V30 21984 H 2021.76 3.20353 0.635735 0
M  V30 21985 H 2020.42 3.34873 -1.49183 0
M  V30 21986 H 2020.07 5.01875 0.336272 0
M  V30 21987 H 2019.77 5.73807 -1.26566 0
M  V30 21988 H 2021.29 6.09267 -0.403293 0
M  V30 21989 H 2022.71 5.16948 -2.47866 0
M  V30 21990 H 2021.11 5.03894 -3.259 0
M  V30 21991 H 2022.18 3.62594 -3.21952 0
M  V30 21992 N 2023.52 0.931232 1.27145 0
M  V30 21993 C 2024.45 0.450505 2.29113 0
M  V30 21994 C 2025.43 -0.491043 1.62858 0
M  V30 21995 O 2026.61 -0.395036 1.9014 0
M  V30 21996 C 2023.74 -0.29432 3.46051 0
M  V30 21997 C 2022.7 0.559727 4.24324 0
M  V30 21998 C 2022.02 -0.314473 5.33774 0
M  V30 21999 C 2023.32 1.826 4.89341 0
M  V30 22000 H 2025.02 1.3027 2.69574 0
M  V30 22001 H 2022.56 0.627845 1.29592 0
M  V30 22002 H 2024.52 -0.641592 4.16487 0
M  V30 22003 H 2023.24 -1.18057 3.04516 0
M  V30 22004 H 2021.9 0.889756 3.55639 0
M  V30 22005 H 2021.55 -1.19978 4.88482 0
M  V30 22006 H 2021.25 0.253489 5.87053 0
M  V30 22007 H 2022.77 -0.657238 6.07053 0
M  V30 22008 H 2024.19 1.54659 5.52045 0
M  V30 22009 H 2022.58 2.33775 5.52693 0
M  V30 22010 H 2023.65 2.5434 4.12842 0
M  V30 22011 N 2025 -1.41343 0.697132 0
M  V30 22012 C 2026.41 -1.84219 0.303361 0
M  V30 22013 C 2026.76 -1.58328 -1.15874 0
M  V30 22014 O 2025.88 -1.05454 -1.88967 0
M  V30 22015 C 2026.48 -3.34407 0.543815 0
M  V30 22016 C 2025.04 -3.75847 0.203944 0
M  V30 22017 C 2024.19 -2.64733 0.825329 0
M  V30 22018 H 2027.14 -1.30872 0.897671 0
M  V30 22019 H 2027.16 -3.7999 -0.196975 0
M  V30 22020 H 2026.67 -3.5322 1.60802 0
M  V30 22021 H 2024.77 -3.62635 -0.855939 0
M  V30 22022 H 2024.88 -4.74531 0.660055 0
M  V30 22023 H 2023.25 -2.53422 0.254806 0
M  V30 22024 H 2024.03 -2.86363 1.89344 0
M  V30 22025 N 2026.48 -0.441993 -1.51275 0
M  V30 22026 C 2027.71 0.121275 -2.06244 0
M  V30 22027 C 2028.11 1.36608 -1.309 0
M  V30 22028 O 2027.46 1.80072 -0.363267 0
M  V30 22029 C 2027.52 0.504271 -3.55946 0
M  V30 22030 C 2027.18 -0.634389 -4.52575 0
M  V30 22031 C 2028.18 -1.5079 -4.97552 0
M  V30 22032 C 2025.86 -0.816445 -4.9562 0
M  V30 22033 C 2027.86 -2.54813 -5.84251 0
M  V30 22034 C 2025.55 -1.85994 -5.82108 0
M  V30 22035 C 2026.54 -2.72417 -6.26321 0
M  V30 22036 O 2026.23 -3.74974 -7.11091 0
M  V30 22037 H 2025.96 0.00928409 -0.675936 0
M  V30 22038 H 2028.52 -0.62124 -1.9578 0
M  V30 22039 H 2026.75 1.29956 -3.64209 0
M  V30 22040 H 2028.44 0.999234 -3.93408 0
M  V30 22041 H 2029.2 -1.37881 -4.64988 0
M  V30 22042 H 2025.08 -0.153327 -4.60745 0
M  V30 22043 H 2028.63 -3.22302 -6.18682 0
M  V30 22044 H 2024.52 -1.98922 -6.14085 0
M  V30 22045 H 2025.29 -3.71611 -7.29279 0
M  V30 22046 N 2027.95 1.56642 -0.173515 0
M  V30 22047 C 2029.36 1.83525 0.342837 0
M  V30 22048 C 2029.72 1.0934 1.62908 0
M  V30 22049 O 2028.84 0.347154 2.13597 0
M  V30 22050 C 2029.44 3.32914 0.628798 0
M  V30 22051 C 2027.99 3.60285 1.08958 0
M  V30 22052 C 2027.14 2.77011 0.126621 0
M  V30 22053 H 2030.09 1.53635 -0.397736 0
M  V30 22054 H 2030.11 3.50511 1.48061 0
M  V30 22055 H 2029.63 3.8688 -0.307526 0
M  V30 22056 H 2027.73 3.11732 2.04093 0
M  V30 22057 H 2027.84 4.68607 0.997222 0
M  V30 22058 H 2026.2 2.46928 0.624406 0
M  V30 22059 H 2026.99 3.33758 -0.803763 0
M  V30 22060 N 2029.43 -0.1002 1.57281 0
M  V30 22061 C 2030.66 -0.82219 1.90407 0
M  V30 22062 C 2031.08 -1.71739 0.767297 0
M  V30 22063 O 2030.44 -1.79103 -0.281369 0
M  V30 22064 C 2030.49 -1.61579 3.22373 0
M  V30 22065 O 2029.59 -2.72433 3.09603 0
M  V30 22066 H 2028.93 -0.2262 0.624283 0
M  V30 22067 H 2031.46 -0.0769557 2.04455 0
M  V30 22068 H 2031.47 -2.00109 3.55556 0
M  V30 22069 H 2030.15 -0.958772 4.04698 0
M  V30 22070 H 2028.72 -2.36968 2.87925 0
M  V30 22071 N 2030.91 -1.53174 -0.370891 0
M  V30 22072 C 2031.82 -1.82187 -1.478 0
M  V30 22073 C 2032.84 -0.70987 -1.58861 0
M  V30 22074 O 2034.01 -0.999372 -1.74856 0
M  V30 22075 C 2031.08 -2.00097 -2.83129 0
M  V30 22076 C 2030.14 -3.24002 -2.8164 0
M  V30 22077 C 2029.37 -3.41048 -4.10514 0
M  V30 22078 O 2029.59 -2.62503 -5.06407 0
M  V30 22079 O 2028.53 -4.34381 -4.16649 0
M  V30 22080 H 2032.35 -2.76234 -1.26207 0
M  V30 22081 H 2029.94 -1.38488 -0.560483 0
M  V30 22082 H 2031.82 -2.13479 -3.63324 0
M  V30 22083 H 2030.5 -1.0924 -3.0471 0
M  V30 22084 H 2029.4 -3.16048 -2.00162 0
M  V30 22085 H 2030.74 -4.14764 -2.65012 0
M  V30 22086 N 2032.39 0.630389 -1.44443 0
M  V30 22087 C 2033.63 1.39199 -1.47484 0
M  V30 22088 C 2033.97 1.93903 -0.107313 0
M  V30 22089 O 2033.24 1.73699 0.875158 0
M  V30 22090 C 2033.52 2.55674 -2.5358 0
M  V30 22091 C 2033.38 2.06314 -3.99693 0
M  V30 22092 C 2034.7 3.57858 -2.56174 0
M  V30 22093 H 2031.82 0.504794 -0.536984 0
M  V30 22094 H 2034.46 0.712698 -1.76127 0
M  V30 22095 H 2032.61 3.13624 -2.29287 0
M  V30 22096 H 2034.28 1.53189 -4.35122 0
M  V30 22097 H 2032.52 1.37492 -4.11435 0
M  V30 22098 H 2033.19 2.90173 -4.69578 0
M  V30 22099 H 2035.67 3.0971 -2.77883 0
M  V30 22100 H 2034.55 4.36875 -3.32312 0
M  V30 22101 H 2034.81 4.11976 -1.60401 0
M  V30 22102 N 2033.87 1.31354 0.870861 0
M  V30 22103 C 2035.28 1.09992 1.15646 0
M  V30 22104 C 2035.48 -0.130192 2.01079 0
M  V30 22105 O 2034.54 -0.819776 2.38822 0
M  V30 22106 C 2035.85 2.37098 1.84946 0
M  V30 22107 C 2037.4 2.42699 1.97651 0
M  V30 22108 C 2037.87 3.69684 2.70366 0
M  V30 22109 N 2039.36 3.70573 2.77902 0
M  V30 22110 C 2040.1 4.65525 3.34775 0
M  V30 22111 N 2039.6 5.70831 3.92586 0
M  V30 22112 N 2041.39 4.53046 3.32724 0
M  V30 22113 H 2033.54 2.10249 0.301547 0
M  V30 22114 H 2035.8 0.927478 0.196185 0
M  V30 22115 H 2035.51 3.26943 1.2962 0
M  V30 22116 H 2035.38 2.46827 2.8523 0
M  V30 22117 H 2037.77 1.53324 2.52142 0
M  V30 22118 H 2037.85 2.36935 0.964123 0
M  V30 22119 H 2037.49 4.59425 2.16543 0
M  V30 22120 H 2037.42 3.72714 3.7201 0
M  V30 22121 H 2039.92 2.94449 2.36872 0
M  V30 22122 H 2040.23 6.39363 4.3409 0
M  V30 22123 H 2038.57 5.74606 3.90964 0
M  V30 22124 H 2041.76 3.69952 2.86798 0
M  V30 22125 H 2041.94 5.27223 3.76749 0
M  V30 22126 N 2035.34 -1.08505 1.143 0
M  V30 22127 C 2036.76 -1.32937 0.883172 0
M  V30 22128 C 2036.96 -1.95791 -0.47623 0
M  V30 22129 O 2036.02 -2.2103 -1.22073 0
M  V30 22130 C 2037.33 -2.23189 2.01512 0
M  V30 22131 C 2038.88 -2.36672 2.0483 0
M  V30 22132 C 2039.35 -3.30266 3.17314 0
M  V30 22133 N 2040.84 -3.37843 3.16886 0
M  V30 22134 C 2041.58 -4.1029 4.00561 0
M  V30 22135 N 2041.07 -4.85454 4.94274 0
M  V30 22136 N 2042.87 -4.06111 3.88626 0
M  V30 22137 H 2035.02 -0.660869 2.01857 0
M  V30 22138 H 2037.28 -0.353741 0.879529 0
M  V30 22139 H 2036.99 -1.84248 2.99576 0
M  V30 22140 H 2036.86 -3.23644 1.93738 0
M  V30 22141 H 2039.25 -2.74873 1.07373 0
M  V30 22142 H 2039.33 -1.35963 2.16674 0
M  V30 22143 H 2038.97 -2.92787 4.15016 0
M  V30 22144 H 2038.9 -4.30901 3.02707 0
M  V30 22145 H 2041.39 -2.84257 2.49011 0
M  V30 22146 H 2041.71 -5.38193 5.54588 0
M  V30 22147 H 2040.05 -4.8451 4.98272 0
M  V30 22148 H 2043.24 -3.46497 3.14734 0
M  V30 22149 H 2043.42 -4.6231 4.54064 0
M  V30 22150 N 2036.82 -0.937962 -1.26649 0
M  V30 22151 C 2038.24 -0.639774 -1.46216 0
M  V30 22152 C 2038.44 0.807896 -1.84595 0
M  V30 22153 O 2037.49 1.58484 -1.96568 0
M  V30 22154 C 2038.81 -1.59844 -2.54697 0
M  V30 22155 C 2040.35 -1.60779 -2.6855 0
M  V30 22156 C 2040.83 -2.55367 -3.80199 0
M  V30 22157 N 2042.32 -2.53634 -3.87587 0
M  V30 22158 C 2043.06 -3.23509 -4.73423 0
M  V30 22159 N 2042.55 -4.02798 -5.63671 0
M  V30 22160 N 2044.34 -3.12477 -4.67242 0
M  V30 22161 H 2036.5 -1.87374 -1.00025 0
M  V30 22162 H 2038.76 -0.805036 -0.500621 0
M  V30 22163 H 2038.46 -2.63168 -2.33314 0
M  V30 22164 H 2038.34 -1.34802 -3.5229 0
M  V30 22165 H 2040.73 -0.581808 -2.89308 0
M  V30 22166 H 2040.81 -1.89873 -1.71411 0
M  V30 22167 H 2040.45 -3.58081 -3.60195 0
M  V30 22168 H 2040.38 -2.23564 -4.76788 0
M  V30 22169 H 2042.87 -1.96058 -3.23063 0
M  V30 22170 H 2043.18 -4.53075 -6.26053 0
M  V30 22171 H 2041.53 -4.069 -5.63434 0
M  V30 22172 H 2044.72 -2.50018 -3.95738 0
M  V30 22173 H 2044.89 -3.67201 -5.33917 0
M  V30 22174 N 2038.3 1.40971 -0.704618 0
M  V30 22175 C 2039.25 2.30756 -0.0450323 0
M  V30 22176 C 2040.22 1.47598 0.761835 0
M  V30 22177 O 2041.4 1.76365 0.728023 0
M  V30 22178 C 2038.54 3.33723 0.878802 0
M  V30 22179 C 2037.65 4.31955 0.0625832 0
M  V30 22180 C 2036.79 5.2199 0.984889 0
M  V30 22181 C 2035.83 6.11885 0.16211 0
M  V30 22182 N 2034.97 6.94374 1.0387 0
M  V30 22183 H 2039.81 2.86598 -0.816414 0
M  V30 22184 H 2037.34 1.41145 -0.414306 0
M  V30 22185 H 2039.3 3.9198 1.42856 0
M  V30 22186 H 2037.93 2.79409 1.61648 0
M  V30 22187 H 2036.98 3.75571 -0.604216 0
M  V30 22188 H 2038.29 4.95476 -0.574897 0
M  V30 22189 H 2037.45 5.85125 1.60356 0
M  V30 22190 H 2036.19 4.58717 1.65621 0
M  V30 22191 H 2035.19 5.47791 -0.469576 0
M  V30 22192 H 2036.42 6.77216 -0.505547 0
M  V30 22193 H 2034.36 6.337 1.69588 0
M  V30 22194 H 2034.28 7.54617 0.457006 0
M  V30 22195 H 2035.55 7.61969 1.6439 0
M  V30 22196 N 2039.78 0.45001 1.51039 0
M  V30 22197 C 2041.01 -0.110496 2.06605 0
M  V30 22198 C 2041.42 -1.35362 1.31615 0
M  V30 22199 O 2040.78 -1.78515 0.379306 0
M  V30 22200 C 2040.83 -0.419948 3.59052 0
M  V30 22201 O 2040.55 0.773848 4.31211 0
M  V30 22202 C 2042.05 -1.02974 4.31174 0
M  V30 22203 H 2039.27 -0.00230221 0.670996 0
M  V30 22204 H 2041.82 0.632737 1.94465 0
M  V30 22205 H 2039.97 -1.11309 3.71065 0
M  V30 22206 H 2040.38 0.505717 5.22056 0
M  V30 22207 H 2041.86 -1.19617 5.38884 0
M  V30 22208 H 2042.34 -2.01422 3.9029 0
M  V30 22209 H 2042.94 -0.375607 4.23638 0
M  V30 22210 N 2041.26 -1.56548 0.18182 0
M  V30 22211 C 2042.2 -2.18468 -0.744342 0
M  V30 22212 C 2043.17 -1.12785 -1.21938 0
M  V30 22213 O 2044.36 -1.4098 -1.28566 0
M  V30 22214 C 2041.5 -2.83772 -1.96386 0
M  V30 22215 C 2040.61 -4.03945 -1.53142 0
M  V30 22216 C 2039.75 -4.57144 -2.70542 0
M  V30 22217 C 2038.79 -5.69704 -2.23839 0
M  V30 22218 N 2037.92 -6.17367 -3.34369 0
M  V30 22219 H 2042.76 -2.97262 -0.209544 0
M  V30 22220 H 2040.3 -1.46814 -0.0916937 0
M  V30 22221 H 2042.26 -3.19797 -2.67929 0
M  V30 22222 H 2040.89 -2.07564 -2.47219 0
M  V30 22223 H 2039.94 -3.73671 -0.712347 0
M  V30 22224 H 2041.25 -4.85393 -1.14868 0
M  V30 22225 H 2040.41 -4.95405 -3.50226 0
M  V30 22226 H 2039.14 -3.74775 -3.12082 0
M  V30 22227 H 2038.15 -5.30984 -1.42604 0
M  V30 22228 H 2039.37 -6.53882 -1.83345 0
M  V30 22229 H 2037.32 -5.37924 -3.75465 0
M  V30 22230 H 2037.24 -6.93832 -3.00221 0
M  V30 22231 H 2038.51 -6.6028 -4.14307 0
M  V30 22232 N 2042.73 0.0918577 -1.57332 0
M  V30 22233 C 2043.96 0.81208 -1.9084 0
M  V30 22234 C 2044.38 1.71329 -0.776394 0
M  V30 22235 O 2043.74 1.7925 0.271867 0
M  V30 22236 C 2043.79 1.59867 -3.23226 0
M  V30 22237 O 2042.89 2.70787 -3.11044 0
M  V30 22238 H 2042.24 0.222886 -0.625474 0
M  V30 22239 H 2044.77 0.0661119 -2.04493 0
M  V30 22240 H 2044.78 1.98221 -3.56613 0
M  V30 22241 H 2043.45 0.937296 -4.05201 0
M  V30 22242 H 2042.03 2.35438 -2.89177 0
M  V30 22243 N 2044.21 1.53368 0.362763 0
M  V30 22244 C 2045.46 1.69938 1.10674 0
M  V30 22245 C 2045.79 0.451301 1.88883 0
M  V30 22246 O 2045.07 -0.551452 1.86519 0
M  V30 22247 C 2045.35 2.95101 2.06367 0
M  V30 22248 C 2045.2 4.30073 1.31748 0
M  V30 22249 C 2046.52 3.15872 3.06452 0
M  V30 22250 H 2043.64 0.61838 0.400968 0
M  V30 22251 H 2046.28 1.86011 0.387265 0
M  V30 22252 H 2044.43 2.81529 2.6772 0
M  V30 22253 H 2046.1 4.55462 0.731574 0
M  V30 22254 H 2044.35 4.29356 0.619347 0
M  V30 22255 H 2045.02 5.13789 2.01803 0
M  V30 22256 H 2047.49 3.28649 2.55204 0
M  V30 22257 H 2046.37 4.04878 3.70628 0
M  V30 22258 H 2046.63 2.31281 3.76778 0
M  V30 22259 N 2045.69 -0.62272 1.44776 0
M  V30 22260 C 2047.1 -1.20448 1.42651 0
M  V30 22261 C 2047.45 -1.95654 0.146211 0
M  V30 22262 O 2046.58 -2.02876 -0.753016 0
M  V30 22263 C 2047.17 -2.19091 2.58428 0
M  V30 22264 C 2045.73 -2.72675 2.59471 0
M  V30 22265 C 2044.88 -1.47816 2.34618 0
M  V30 22266 H 2047.83 -0.412901 1.53235 0
M  V30 22267 H 2047.85 -3.0185 2.31662 0
M  V30 22268 H 2047.36 -1.64325 3.51595 0
M  V30 22269 H 2045.46 -3.3142 1.70269 0
M  V30 22270 H 2045.58 -3.1814 3.58223 0
M  V30 22271 H 2043.94 -1.76243 1.83876 0
M  V30 22272 H 2044.72 -0.949408 3.29911 0
M  V30 22273 N 2047.17 -1.31814 -0.863883 0
M  V30 22274 C 2048.12 -1.19976 -1.97166 0
M  V30 22275 C 2049.09 -0.0840886 -1.65887 0
M  V30 22276 O 2050.27 -0.258021 -1.89047 0
M  V30 22277 C 2047.41 -0.919316 -3.3263 0
M  V30 22278 C 2046.52 -2.1189 -3.76466 0
M  V30 22279 C 2045.66 -1.77472 -5.00677 0
M  V30 22280 C 2044.7 -2.93804 -5.36978 0
M  V30 22281 N 2043.83 -2.59541 -6.52367 0
M  V30 22282 H 2048.67 -2.14735 -2.06623 0
M  V30 22283 H 2046.21 -1.06811 -1.01143 0
M  V30 22284 H 2048.17 -0.737251 -4.10634 0
M  V30 22285 H 2046.8 -0.0085443 -3.22799 0
M  V30 22286 H 2045.85 -2.41154 -2.94192 0
M  V30 22287 H 2047.16 -2.98939 -3.99295 0
M  V30 22288 H 2046.32 -1.55764 -5.86364 0
M  V30 22289 H 2045.06 -0.876231 -4.79764 0
M  V30 22290 H 2044.06 -3.16154 -4.49807 0
M  V30 22291 H 2045.29 -3.84371 -5.59853 0
M  V30 22292 H 2043.23 -1.72222 -6.32989 0
M  V30 22293 H 2043.15 -3.4012 -6.7517 0
M  V30 22294 H 2044.42 -2.4124 -7.41231 0
M  V30 22295 N 2048.65 1.07897 -1.14873 0
M  V30 22296 C 2049.89 1.81986 -0.930623 0
M  V30 22297 C 2050.25 1.84454 0.532995 0
M  V30 22298 O 2051.45 2.54357 0.869239 0
M  V30 22299 C 2049.72 3.23403 -1.52135 0
M  V30 22300 S 2051.28 4.14306 -1.44555 0
M  V30 22301 H 2048.1 0.627103 -0.335056 0
M  V30 22302 H 2050.7 1.29657 -1.4632 0
M  V30 22303 H 2049.41 3.19192 -2.57962 0
M  V30 22304 H 2048.94 3.80807 -0.987396 0
M  V30 22305 H 2050.95 4.94293 -0.434626 0
M  V30 22306 N 2050.12 0.944665 1.2615 0
M  V30 22307 C 2051.35 0.610956 1.97674 0
M  V30 22308 C 2051.77 -0.814818 1.70312 0
M  V30 22309 O 2051.12 -1.54376 0.973364 0
M  V30 22310 C 2051.18 0.847912 3.51415 0
M  V30 22311 O 2050.9 2.21761 3.77827 0
M  V30 22312 C 2052.4 0.525225 4.40178 0
M  V30 22313 H 2049.62 0.229933 0.630374 0
M  V30 22314 H 2052.16 1.26632 1.60576 0
M  V30 22315 H 2050.32 0.239105 3.86661 0
M  V30 22316 H 2050.73 2.28026 4.72339 0
M  V30 22317 H 2052.2 0.741624 5.46995 0
M  V30 22318 H 2052.68 -0.539903 4.35869 0
M  V30 22319 H 2053.29 1.11291 4.10481 0
M  V30 22320 N 2051.6 -1.40596 0.712085 0
M  V30 22321 C 2052.88 -1.94794 0.177392 0
M  V30 22322 C 2053.26 -1.65047 -1.31616 0
M  V30 22323 O 2052.61 -0.966262 -2.07064 0
M  V30 22324 C 2052.82 -3.45594 0.486369 0
M  V30 22325 C 2054.17 -4.22487 0.423115 0
M  V30 22326 O 2055.19 -3.53689 0.422227 0
M  V30 22327 O 2054.05 -5.45052 0.397587 0
M  V30 22328 H 2051.14 -0.826632 0.0246541 0
M  V30 22329 H 2053.69 -1.50223 0.789377 0
M  V30 22330 H 2052.46 -3.60591 1.51953 0
M  V30 22331 H 2052.08 -3.97295 -0.155756 0
M  V30 22332 N 2053.08 -0.458013 -1.50798 0
M  V30 22333 C 2054.49 0.00023852 -1.867 0
M  V30 22334 C 2054.84 1.40078 -1.37378 0
M  V30 22335 O 2053.97 2.036 -0.733219 0
M  V30 22336 C 2054.56 0.00720883 -3.38799 0
M  V30 22337 C 2053.12 0.409942 -3.74161 0
M  V30 22338 C 2052.27 -0.383856 -2.7463 0
M  V30 22339 H 2055.22 -0.672909 -1.43728 0
M  V30 22340 H 2055.24 0.812262 -3.71729 0
M  V30 22341 H 2054.75 -1.01225 -3.74667 0
M  V30 22342 H 2052.85 1.43423 -3.4389 0
M  V30 22343 H 2052.97 0.120374 -4.78949 0
M  V30 22344 H 2051.33 0.16068 -2.54193 0
M  V30 22345 H 2052.11 -1.40258 -3.13341 0
M  V30 22346 N 2054.56 1.56449 -0.190119 0
M  V30 22347 C 2055.79 2.01819 0.455699 0
M  V30 22348 C 2056.2 1.07029 1.55532 0
M  V30 22349 O 2055.56 0.0743024 1.82349 0
M  V30 22350 C 2055.61 3.4691 1.01663 0
M  V30 22351 O 2055.33 4.38083 -0.0391156 0
M  V30 22352 C 2056.83 4.07774 1.73882 0
M  V30 22353 H 2054.05 0.661091 0.114891 0
M  V30 22354 H 2056.6 2.02326 -0.297366 0
M  V30 22355 H 2054.75 3.47118 1.7201 0
M  V30 22356 H 2055.17 5.23138 0.377687 0
M  V30 22357 H 2056.64 5.11162 2.08368 0
M  V30 22358 H 2057.12 3.50946 2.64071 0
M  V30 22359 H 2057.72 4.11324 1.08132 0
M  V30 22360 N 2056.04 -0.0835127 1.57379 0
M  V30 22361 C 2057.27 -0.796949 1.9061 0
M  V30 22362 C 2057.68 -1.72229 0.78318 0
M  V30 22363 O 2057.02 -1.81948 -0.2531 0
M  V30 22364 C 2057.08 -1.65376 3.19204 0
M  V30 22365 C 2056.74 -0.899027 4.4807 0
M  V30 22366 C 2057.74 -0.223567 5.19419 0
M  V30 22367 C 2055.43 -0.869673 4.94714 0
M  V30 22368 C 2057.42 0.47115 6.35656 0
M  V30 22369 C 2055.11 -0.171178 6.1086 0
M  V30 22370 C 2056.11 0.498044 6.81182 0
M  V30 22371 O 2055.79 1.18531 7.95114 0
M  V30 22372 H 2055.53 -0.232443 0.63478 0
M  V30 22373 H 2058.08 -0.0616418 2.05307 0
M  V30 22374 H 2056.31 -2.43159 3.00684 0
M  V30 22375 H 2058 -2.24481 3.38176 0
M  V30 22376 H 2058.76 -0.237628 4.84418 0
M  V30 22377 H 2054.64 -1.38002 4.3986 0
M  V30 22378 H 2058.19 0.994067 6.90481 0
M  V30 22379 H 2054.08 -0.155003 6.45314 0
M  V30 22380 H 2054.85 1.09339 8.11164 0
M  V30 22381 N 2057.52 -1.53558 -0.354624 0
M  V30 22382 C 2058.46 -1.81453 -1.45525 0
M  V30 22383 C 2059.46 -0.684302 -1.54963 0
M  V30 22384 O 2060.66 -0.867445 -1.57719 0
M  V30 22385 H 2057.04 -0.574697 -0.485003 0
M  V30 22386 H 2059.01 -2.73555 -1.19207 0
M  V30 22387 C 2057.76 -2.0311 -2.82208 0
M  V30 22388 H 2057.08 -2.89525 -2.75709 0
M  V30 22389 H 2058.52 -2.266 -3.58369 0
M  V30 22390 C 2056.98 -0.813372 -3.26934 0
M  V30 22391 O 2057.51 -0.00738144 -4.01699 0
M  V30 22392 N 2055.72 -0.633715 -2.83606 0
M  V30 22393 H 2055.26 -1.29076 -2.22928 0
M  V30 22394 H 2055.22 0.179621 -3.13886 0
M  V30 22395 N 2058.99 0.615033 -1.45104 0
M  V30 22396 C 2059.9 1.75459 -1.55728 0
M  V30 22397 C 2060.92 1.6829 -0.442095 0
M  V30 22398 O 2062.1 1.88779 -0.701735 0
M  V30 22399 C 2059.16 3.11899 -1.51394 0
M  V30 22400 C 2058.22 3.30578 -2.73892 0
M  V30 22401 C 2057.45 4.60509 -2.69754 0
M  V30 22402 O 2057.68 5.42353 -1.76662 0
M  V30 22403 O 2056.61 4.81739 -3.60848 0
M  V30 22404 H 2060.44 1.69447 -2.52035 0
M  V30 22405 H 2058.02 0.778221 -1.27531 0
M  V30 22406 H 2059.9 3.93203 -1.51557 0
M  V30 22407 H 2058.58 3.18418 -0.582365 0
M  V30 22408 H 2057.49 2.48891 -2.79292 0
M  V30 22409 H 2058.82 3.2893 -3.6615 0
M  V30 22410 N 2060.47 1.3227 0.85688 0
M  V30 22411 C 2061.72 1.22058 1.60576 0
M  V30 22412 C 2062.03 -0.216767 1.94395 0
M  V30 22413 O 2063.24 -0.440721 2.67899 0
M  V30 22414 C 2061.7 2.1376 2.89542 0
M  V30 22415 C 2061.3 3.62564 2.63157 0
M  V30 22416 C 2063.05 2.12379 3.67553 0
M  V30 22417 C 2060.95 4.46234 3.8811 0
M  V30 22418 H 2059.88 0.453274 0.602544 0
M  V30 22419 H 2062.54 1.57215 0.946344 0
M  V30 22420 H 2060.92 1.71515 3.56929 0
M  V30 22421 H 2062.09 4.13137 2.04095 0
M  V30 22422 H 2060.41 3.66053 1.98479 0
M  V30 22423 H 2063 2.72129 4.60272 0
M  V30 22424 H 2063.35 1.11421 4.01112 0
M  V30 22425 H 2063.88 2.52892 3.07067 0
M  V30 22426 H 2060.62 5.47997 3.59693 0
M  V30 22427 H 2060.14 4.00413 4.46575 0
M  V30 22428 H 2061.82 4.5912 4.5587 0
M  V30 22429 N 2061.95 -1.07287 1.15444 0
M  V30 22430 C 2063.2 -1.80162 0.931099 0
M  V30 22431 C 2063.53 -1.8653 -0.540402 0
M  V30 22432 O 2062.8 -1.34951 -1.40066 0
M  V30 22433 C 2063.09 -3.25184 1.54685 0
M  V30 22434 C 2062.94 -3.26957 3.089 0
M  V30 22435 C 2064.26 -4.2247 1.23318 0
M  V30 22436 H 2061.38 -0.654053 0.339682 0
M  V30 22437 H 2064.02 -1.25539 1.42619 0
M  V30 22438 H 2062.17 -3.7183 1.12583 0
M  V30 22439 H 2063.84 -2.88549 3.59912 0
M  V30 22440 H 2062.08 -2.65898 3.42755 0
M  V30 22441 H 2062.76 -4.29218 3.47097 0
M  V30 22442 H 2065.23 -3.84218 1.59737 0
M  V30 22443 H 2064.11 -5.2223 1.69018 0
M  V30 22444 H 2064.37 -4.41844 0.150314 0
M  V30 22445 N 2063.43 -0.951342 -1.25647 0
M  V30 22446 C 2064.67 -0.605246 -1.93558 0
M  V30 22447 C 2065.01 0.85507 -1.74362 0
M  V30 22448 O 2064.28 1.61308 -1.08674 0
M  V30 22449 C 2064.56 -0.960718 -3.47048 0
M  V30 22450 C 2064.42 -2.47652 -3.75484 0
M  V30 22451 C 2065.74 -0.483409 -4.37437 0
M  V30 22452 H 2062.86 -0.22136 -0.702971 0
M  V30 22453 H 2065.5 -1.1874 -1.48327 0
M  V30 22454 H 2063.65 -0.465324 -3.85703 0
M  V30 22455 H 2065.32 -3.04543 -3.46484 0
M  V30 22456 H 2063.56 -2.91564 -3.21205 0
M  V30 22457 H 2064.23 -2.67575 -4.82812 0
M  V30 22458 H 2066.71 -0.908309 -4.06065 0
M  V30 22459 H 2065.59 -0.760858 -5.43601 0
M  V30 22460 H 2065.85 0.616645 -4.37778 0
M  V30 22461 N 2064.91 1.40216 -0.719531 0
M  V30 22462 C 2066.14 2.04827 -0.270117 0
M  V30 22463 C 2066.54 1.54328 1.09451 0
M  V30 22464 O 2065.89 0.696563 1.69981 0
M  V30 22465 C 2065.95 3.59066 -0.176512 0
M  V30 22466 C 2065.61 4.32472 -1.47707 0
M  V30 22467 C 2066.61 4.60156 -2.41977 0
M  V30 22468 C 2064.29 4.71307 -1.73709 0
M  V30 22469 C 2066.29 5.25666 -3.60492 0
M  V30 22470 C 2063.98 5.36549 -2.92504 0
M  V30 22471 C 2064.97 5.63658 -3.85718 0
M  V30 22472 O 2064.66 6.2755 -5.0243 0
M  V30 22473 H 2064.39 0.665543 -0.118442 0
M  V30 22474 H 2066.95 1.80538 -0.979543 0
M  V30 22475 H 2065.18 3.8219 0.58889 0
M  V30 22476 H 2066.87 4.05197 0.238859 0
M  V30 22477 H 2067.63 4.30613 -2.23153 0
M  V30 22478 H 2063.51 4.49573 -1.02007 0
M  V30 22479 H 2067.06 5.46742 -4.33265 0
M  V30 22480 H 2062.95 5.65511 -3.11235 0
M  V30 22481 H 2063.72 6.46047 -5.0256 0
M  V30 22482 N 2066.38 0.466004 1.50553 0
M  V30 22483 C 2067.66 -0.152071 1.95008 0
M  V30 22484 C 2068.04 -1.57451 1.40614 0
M  V30 22485 O 2067.39 -2.20345 0.605014 0
M  V30 22486 C 2067.6 -0.100584 3.48855 0
M  V30 22487 C 2068.95 -0.291998 4.23595 0
M  V30 22488 O 2069.97 -0.177401 3.55758 0
M  V30 22489 O 2068.83 -0.52288 5.43993 0
M  V30 22490 H 2065.92 -0.114439 0.819044 0
M  V30 22491 H 2068.47 0.526042 1.61341 0
M  V30 22492 H 2067.24 0.892745 3.8098 0
M  V30 22493 H 2066.86 -0.820375 3.89044 0
M  V30 22494 N 2067.86 -1.56346 0.198413 0
M  V30 22495 C 2068.77 -2.22855 -0.733001 0
M  V30 22496 C 2069.79 -1.22868 -1.23205 0
M  V30 22497 O 2070.96 -1.55615 -1.27852 0
M  V30 22498 C 2068.03 -2.87746 -1.93399 0
M  V30 22499 C 2067.09 -4.03012 -1.47919 0
M  V30 22500 C 2066.32 -4.64799 -2.62293 0
M  V30 22501 O 2066.55 -4.25516 -3.79859 0
M  V30 22502 O 2065.48 -5.54206 -2.34817 0
M  V30 22503 H 2069.31 -3.03063 -0.196563 0
M  V30 22504 H 2066.89 -1.49368 -0.0310254 0
M  V30 22505 H 2068.77 -3.28788 -2.63584 0
M  V30 22506 H 2067.45 -2.10514 -2.45897 0
M  V30 22507 H 2066.35 -3.66586 -0.746038 0
M  V30 22508 H 2067.69 -4.81917 -1.00084 0
M  V30 22509 N 2069.34 0.0751653 -1.57421 0
M  V30 22510 C 2070.59 0.776106 -1.87362 0
M  V30 22511 C 2070.92 1.77394 -0.790247 0
M  V30 22512 O 2070.19 1.93471 0.199817 0
M  V30 22513 C 2070.48 1.4871 -3.27959 0
M  V30 22514 C 2070.33 0.505905 -4.46946 0
M  V30 22515 C 2071.65 2.43284 -3.66744 0
M  V30 22516 H 2068.77 0.280684 -0.681458 0
M  V30 22517 H 2071.41 0.0393497 -1.89959 0
M  V30 22518 H 2069.56 2.11512 -3.25876 0
M  V30 22519 H 2071.23 -0.116642 -4.61153 0
M  V30 22520 H 2069.48 -0.179057 -4.3343 0
M  V30 22521 H 2070.15 1.04094 -5.42096 0
M  V30 22522 H 2072.62 1.90562 -3.69899 0
M  V30 22523 H 2071.5 2.90037 -4.66015 0
M  V30 22524 H 2071.76 3.27938 -2.96494 0
M  V30 22525 N 2070.82 1.53744 0.346476 0
M  V30 22526 C 2072.05 1.74784 1.10717 0
M  V30 22527 C 2072.46 0.485625 1.82448 0
M  V30 22528 O 2071.82 -0.542565 1.74248 0
M  V30 22529 C 2071.87 2.926 2.1229 0
M  V30 22530 O 2071.59 4.13939 1.43477 0
M  V30 22531 C 2073.09 3.25667 3.00758 0
M  V30 22532 H 2070.31 0.58408 0.33029 0
M  V30 22533 H 2072.86 2.00558 0.399573 0
M  V30 22534 H 2071.01 2.69165 2.7862 0
M  V30 22535 H 2071.42 4.80051 2.11308 0
M  V30 22536 H 2072.9 4.11463 3.6797 0
M  V30 22537 H 2073.38 2.41845 3.66617 0
M  V30 22538 H 2073.98 3.51098 2.40022 0
M  V30 22539 N 2072.3 -0.607329 1.45428 0
M  V30 22540 C 2073.21 -1.7463 1.56657 0
M  V30 22541 C 2074.22 -1.68053 0.451014 0
M  V30 22542 O 2075.4 -1.88405 0.711736 0
M  V30 22543 C 2072.46 -3.11092 1.53045 0
M  V30 22544 C 2071.52 -3.29121 2.75641 0
M  V30 22545 C 2070.76 -4.59072 2.72193 0
M  V30 22546 O 2070.98 -5.41408 1.79536 0
M  V30 22547 O 2069.91 -4.79819 3.63397 0
M  V30 22548 H 2073.74 -1.68108 2.5293 0
M  V30 22549 H 2071.33 -0.771447 1.27942 0
M  V30 22550 H 2073.21 -3.92394 1.5364 0
M  V30 22551 H 2071.88 -3.18105 0.599244 0
M  V30 22552 H 2070.79 -2.47406 2.80608 0
M  V30 22553 H 2072.12 -3.26984 3.67889 0
M  V30 22554 N 2073.77 -1.32722 -0.849853 0
M  V30 22555 C 2074.7 -1.24675 -1.97429 0
M  V30 22556 C 2075.69 -0.129581 -1.69606 0
M  V30 22557 O 2076.87 -0.317548 -1.91586 0
M  V30 22558 C 2074 -0.973971 -3.33363 0
M  V30 22559 C 2072.95 -2.05289 -3.75553 0
M  V30 22560 C 2072.28 -1.63244 -5.09171 0
M  V30 22561 C 2073.58 -3.46845 -3.90507 0
M  V30 22562 H 2075.27 -2.18753 -2.0442 0
M  V30 22563 H 2072.82 -1.0531 -0.982132 0
M  V30 22564 H 2074.77 -0.904206 -4.11585 0
M  V30 22565 H 2073.5 0.00243816 -3.266 0
M  V30 22566 H 2072.16 -2.11289 -2.99587 0
M  V30 22567 H 2071.8 -0.643348 -4.98869 0
M  V30 22568 H 2071.5 -2.35437 -5.38371 0
M  V30 22569 H 2073.03 -1.57713 -5.8988 0
M  V30 22570 H 2074.44 -3.43408 -4.59069 0
M  V30 22571 H 2072.84 -4.17429 -4.3113 0
M  V30 22572 H 2073.91 -3.86155 -2.93278 0
M  V30 22573 N 2075.25 1.06673 -1.16011 0
M  V30 22574 C 2076.18 2.13994 -0.820931 0
M  V30 22575 C 2077.2 1.61909 0.170124 0
M  V30 22576 O 2078.39 1.78418 -0.0540947 0
M  V30 22577 C 2075.49 3.38304 -0.200883 0
M  V30 22578 C 2074.66 4.19718 -1.23108 0
M  V30 22579 C 2073.72 5.22396 -0.631544 0
M  V30 22580 O 2072.74 5.54171 -1.29936 0
M  V30 22581 N 2073.95 5.7756 0.583519 0
M  V30 22582 H 2076.71 2.43691 -1.74456 0
M  V30 22583 H 2074.27 1.2264 -1.05693 0
M  V30 22584 H 2076.26 4.04138 0.213139 0
M  V30 22585 H 2074.83 3.06263 0.626218 0
M  V30 22586 H 2074.05 3.49597 -1.82142 0
M  V30 22587 H 2075.34 4.7092 -1.92644 0
M  V30 22588 H 2074.74 5.54005 1.14432 0
M  V30 22589 H 2073.3 6.44989 0.939804 0
M  V30 22590 N 2076.73 0.957992 1.25141 0
M  V30 22591 C 2077.98 0.613378 1.92567 0
M  V30 22592 C 2078.3 -0.852805 1.75363 0
M  V30 22593 O 2077.57 -1.60775 1.11929 0
M  V30 22594 H 2076.15 0.223867 0.712666 0
M  V30 22595 H 2078.81 1.21696 1.52237 0
M  V30 22596 H 2077.91 0.845594 3.00427 0
M  V30 22597 N 2078.21 -1.39832 0.726957 0
M  V30 22598 C 2079.16 -2.27926 0.057957 0
M  V30 22599 C 2080.14 -1.43846 -0.720905 0
M  V30 22600 O 2081.33 -1.66833 -0.591236 0
M  V30 22601 C 2078.46 -3.32493 -0.854584 0
M  V30 22602 C 2077.55 -4.24042 -0.0703022 0
M  V30 22603 N 2077.94 -4.96753 0.952379 0
M  V30 22604 C 2076.24 -4.44982 -0.301167 0
M  V30 22605 C 2076.94 -5.63985 1.42462 0
M  V30 22606 N 2075.92 -5.38475 0.744679 0
M  V30 22607 H 2079.72 -2.81592 0.841603 0
M  V30 22608 H 2077.23 -1.52419 0.56056 0
M  V30 22609 H 2079.23 -3.94462 -1.34927 0
M  V30 22610 H 2077.89 -2.80387 -1.63748 0
M  V30 22611 H 2078.9 -5.00437 1.33353 0
M  V30 22612 H 2075.58 -4.03833 -1.0595 0
M  V30 22613 H 2076.97 -6.32213 2.27501 0
M  V30 22614 N 2079.69 -0.473982 -1.50304 0
M  V30 22615 C 2080.93 0.0801282 -2.02642 0
M  V30 22616 C 2081.27 1.3911 -1.35506 0
M  V30 22617 O 2080.54 1.8844 -0.481719 0
M  V30 22618 C 2080.82 0.26092 -3.59153 0
M  V30 22619 C 2080.68 -1.07128 -4.36857 0
M  V30 22620 C 2082 1.01413 -4.28256 0
M  V30 22621 H 2079.11 0.0276467 -0.736481 0
M  V30 22622 H 2081.76 -0.620135 -1.79595 0
M  V30 22623 H 2079.91 0.857378 -3.78921 0
M  V30 22624 H 2081.58 -1.70454 -4.28653 0
M  V30 22625 H 2079.82 -1.66721 -4.00483 0
M  V30 22626 H 2080.49 -0.898389 -5.4464 0
M  V30 22627 H 2082.97 0.508536 -4.12981 0
M  V30 22628 H 2081.84 1.10943 -5.37571 0
M  V30 22629 H 2082.11 2.05141 -3.91624 0
M  V30 22630 N 2081.16 1.56239 -0.206702 0
M  V30 22631 C 2082.09 2.2262 0.704446 0
M  V30 22632 C 2083.08 1.19305 1.21245 0
M  V30 22633 O 2084.26 1.47846 1.25917 0
M  V30 22634 C 2081.39 2.89459 1.91913 0
M  V30 22635 C 2080.34 3.99119 1.54558 0
M  V30 22636 C 2079.67 4.53179 2.83783 0
M  V30 22637 C 2080.97 5.16934 0.746749 0
M  V30 22638 H 2082.66 2.99019 0.151028 0
M  V30 22639 H 2080.21 1.43824 0.0712004 0
M  V30 22640 H 2082.16 3.34584 2.56186 0
M  V30 22641 H 2080.89 2.10484 2.49728 0
M  V30 22642 H 2079.55 3.54702 0.926381 0
M  V30 22643 H 2079.19 3.70952 3.39711 0
M  V30 22644 H 2078.89 5.2718 2.59528 0
M  V30 22645 H 2080.42 5.01013 3.49024 0
M  V30 22646 H 2081.83 5.58532 1.29284 0
M  V30 22647 H 2080.23 5.97074 0.601876 0
M  V30 22648 H 2081.3 4.84256 -0.249783 0
M  V30 22649 N 2082.64 -0.0668159 1.57458 0
M  V30 22650 C 2083.58 -1.11085 1.99337 0
M  V30 22651 C 2084.55 -1.37296 0.871119 0
M  V30 22652 O 2085.74 -1.50586 1.13384 0
M  V30 22653 C 2082.86 -2.45411 2.33433 0
M  V30 22654 C 2081.91 -2.35303 3.55717 0
M  V30 22655 S 2082.74 -1.74238 5.06361 0
M  V30 22656 C 2083.9 -3.10132 5.43662 0
M  V30 22657 H 2084.13 -0.753977 2.8758 0
M  V30 22658 H 2081.67 -0.275523 1.51922 0
M  V30 22659 H 2083.62 -3.22678 2.53751 0
M  V30 22660 H 2082.28 -2.78258 1.4571 0
M  V30 22661 H 2081.48 -3.34374 3.77107 0
M  V30 22662 H 2081.08 -1.66173 3.35056 0
M  V30 22663 H 2083.37 -4.0645 5.42038 0
M  V30 22664 H 2084.31 -2.93517 6.44401 0
M  V30 22665 H 2084.72 -3.10967 4.71126 0
M  V30 22666 N 2084.12 -1.53926 -0.338317 0
M  V30 22667 C 2085.05 -1.85269 -1.42119 0
M  V30 22668 C 2086.03 -0.708238 -1.54654 0
M  V30 22669 O 2087.22 -0.960631 -1.68777 0
M  V30 22670 C 2084.35 -2.06693 -2.79097 0
M  V30 22671 C 2083.3 -3.22519 -2.81364 0
M  V30 22672 C 2082.63 -3.29286 -4.21277 0
M  V30 22673 C 2083.93 -4.6051 -2.46431 0
M  V30 22674 H 2085.62 -2.75957 -1.16137 0
M  V30 22675 H 2083.17 -1.32781 -0.557249 0
M  V30 22676 H 2085.12 -2.27204 -3.54903 0
M  V30 22677 H 2083.84 -1.1274 -3.06524 0
M  V30 22678 H 2082.5 -3.01872 -2.08011 0
M  V30 22679 H 2082.15 -2.32919 -4.45823 0
M  V30 22680 H 2081.85 -4.07123 -4.23704 0
M  V30 22681 H 2083.38 -3.52014 -4.98918 0
M  V30 22682 H 2084.79 -4.80999 -3.1195 0
M  V30 22683 H 2083.19 -5.40788 -2.60132 0
M  V30 22684 H 2084.26 -4.63762 -1.41607 0
M  V30 22685 N 2085.6 0.599608 -1.45748 0
M  V30 22686 C 2086.85 1.35451 -1.49452 0
M  V30 22687 C 2087.16 1.95072 -0.143637 0
M  V30 22688 O 2088.37 2.71437 -0.0583691 0
M  V30 22689 C 2086.82 2.454 -2.63262 0
M  V30 22690 C 2086.43 1.92156 -4.04698 0
M  V30 22691 C 2088.18 3.22339 -2.7622 0
M  V30 22692 C 2086.08 2.99633 -5.09876 0
M  V30 22693 H 2085.01 0.509134 -0.556146 0
M  V30 22694 H 2087.66 0.641777 -1.71911 0
M  V30 22695 H 2086.05 3.19395 -2.34101 0
M  V30 22696 H 2087.22 1.24817 -4.43574 0
M  V30 22697 H 2085.53 1.27937 -3.96259 0
M  V30 22698 H 2088.13 4.02519 -3.5197 0
M  V30 22699 H 2088.47 3.73854 -1.83135 0
M  V30 22700 H 2089.01 2.55446 -3.04946 0
M  V30 22701 H 2085.75 2.53026 -6.04697 0
M  V30 22702 H 2085.27 3.65514 -4.75562 0
M  V30 22703 H 2086.95 3.63878 -5.34978 0
M  V30 22704 N 2087.08 1.33171 0.842803 0
M  V30 22705 C 2088.32 1.24589 1.60017 0
M  V30 22706 C 2088.66 -0.188935 1.93279 0
M  V30 22707 O 2087.93 -1.12923 1.58362 0
M  V30 22708 C 2088.21 2.11731 2.91277 0
M  V30 22709 C 2088.07 3.63652 2.64721 0
M  V30 22710 C 2089.39 1.98749 3.92666 0
M  V30 22711 H 2086.51 0.453935 0.580613 0
M  V30 22712 H 2089.15 1.63234 0.972356 0
M  V30 22713 H 2087.3 1.78904 3.44856 0
M  V30 22714 H 2088.97 4.06751 2.17604 0
M  V30 22715 H 2087.21 3.85728 1.98486 0
M  V30 22716 H 2087.88 4.19966 3.58236 0
M  V30 22717 H 2090.36 2.2753 3.48381 0
M  V30 22718 H 2089.24 2.61979 4.82347 0
M  V30 22719 H 2089.5 0.958565 4.31583 0
M  V30 22720 N 2088.56 -1.06056 1.16576 0
M  V30 22721 C 2089.5 -2.13591 0.874513 0
M  V30 22722 C 2090.47 -1.65143 -0.178027 0
M  V30 22723 O 2091.66 -1.90752 -0.0427107 0
M  V30 22724 C 2088.8 -3.42953 0.384377 0
M  V30 22725 C 2087.91 -4.05121 1.50002 0
M  V30 22726 C 2087.05 -5.22367 0.964658 0
M  V30 22727 C 2086.08 -5.76525 2.05635 0
M  V30 22728 N 2085.22 -6.85084 1.53639 0
M  V30 22729 H 2090.06 -2.37842 1.79541 0
M  V30 22730 H 2087.6 -1.16692 0.895622 0
M  V30 22731 H 2089.56 -4.1712 0.0818205 0
M  V30 22732 H 2088.19 -3.18911 -0.499573 0
M  V30 22733 H 2087.24 -3.28478 1.91849 0
M  V30 22734 H 2088.55 -4.41366 2.32374 0
M  V30 22735 H 2087.7 -6.03571 0.615426 0
M  V30 22736 H 2086.44 -4.87575 0.110275 0
M  V30 22737 H 2085.45 -4.93957 2.41425 0
M  V30 22738 H 2086.67 -6.13368 2.91474 0
M  V30 22739 H 2084.62 -6.52205 0.70458 0
M  V30 22740 H 2084.54 -7.20283 2.29626 0
M  V30 22741 H 2085.8 -7.6996 1.21581 0
M  V30 22742 N 2090.03 -0.964615 -1.24631 0
M  V30 22743 C 2091.26 -0.641907 -1.97216 0
M  V30 22744 C 2091.68 0.781279 -1.71107 0
M  V30 22745 O 2091.04 1.52981 -0.972952 0
M  V30 22746 C 2091.09 -0.918908 -3.48695 0
M  V30 22747 O 2090.19 -0.00276058 -4.124 0
M  V30 22748 H 2089.53 -0.243001 -0.617937 0
M  V30 22749 H 2092.06 -1.29393 -1.58489 0
M  V30 22750 H 2092.07 -0.849197 -3.99065 0
M  V30 22751 H 2090.75 -1.95612 -3.67027 0
M  V30 22752 H 2089.33 -0.125529 -3.72689 0
M  V30 22753 N 2091.51 1.39445 -0.734362 0
M  V30 22754 C 2092.46 2.30609 -0.093969 0
M  V30 22755 C 2093.43 1.49181 0.730356 0
M  V30 22756 O 2094.61 1.77869 0.69045 0
M  V30 22757 C 2091.75 3.35512 0.807817 0
M  V30 22758 C 2090.87 4.3199 -0.0290549 0
M  V30 22759 C 2090 5.23961 0.873946 0
M  V30 22760 C 2089.04 6.12091 0.0322837 0
M  V30 22761 N 2088.18 6.96421 0.891182 0
M  V30 22762 H 2093.02 2.84802 -0.877022 0
M  V30 22763 H 2090.55 1.40234 -0.444152 0
M  V30 22764 H 2092.51 3.94922 1.34509 0
M  V30 22765 H 2091.14 2.82775 1.55685 0
M  V30 22766 H 2090.19 3.74205 -0.683744 0
M  V30 22767 H 2091.51 4.94145 -0.679865 0
M  V30 22768 H 2090.66 5.88394 1.47909 0
M  V30 22769 H 2089.4 4.62127 1.55854 0
M  V30 22770 H 2088.4 5.46672 -0.585665 0
M  V30 22771 H 2089.63 6.75991 -0.649081 0
M  V30 22772 H 2087.58 6.37155 1.56108 0
M  V30 22773 H 2087.49 7.55417 0.296837 0
M  V30 22774 H 2088.76 7.65284 1.48191 0
M  V30 22775 N 2092.99 0.481946 1.5005 0
M  V30 22776 C 2094.22 -0.0666474 2.06793 0
M  V30 22777 C 2094.63 -1.3254 1.34457 0
M  V30 22778 O 2093.99 -1.7767 0.417087 0
M  V30 22779 C 2094.04 -0.343693 3.59862 0
M  V30 22780 O 2093.76 0.86514 4.29473 0
M  V30 22781 C 2095.26 -0.93805 4.33261 0
M  V30 22782 H 2092.48 0.0119311 0.670894 0
M  V30 22783 H 2095.03 0.673843 1.93079 0
M  V30 22784 H 2093.18 -1.03413 3.73342 0
M  V30 22785 H 2093.6 0.616339 5.20866 0
M  V30 22786 H 2095.07 -1.0816 5.413 0
M  V30 22787 H 2095.55 -1.93098 3.94474 0
M  V30 22788 H 2096.15 -0.285663 4.2434 0
M  V30 22789 N 2094.47 -1.56127 0.214985 0
M  V30 22790 C 2095.71 -1.98422 -0.41911 0
M  V30 22791 C 2096.05 -1.10235 -1.59881 0
M  V30 22792 O 2095.32 -0.158603 -1.93852 0
M  V30 22793 C 2095.6 -3.49679 -0.86003 0
M  V30 22794 C 2095.46 -4.4864 0.322851 0
M  V30 22795 C 2096.78 -4.0516 -1.71854 0
M  V30 22796 H 2093.9 -0.721393 -0.150867 0
M  V30 22797 H 2096.54 -1.87456 0.309902 0
M  V30 22798 H 2094.69 -3.59155 -1.48121 0
M  V30 22799 H 2096.36 -4.51181 0.960896 0
M  V30 22800 H 2094.6 -4.22784 0.97138 0
M  V30 22801 H 2095.27 -5.51993 -0.028492 0
M  V30 22802 H 2097.75 -3.98587 -1.19448 0
M  V30 22803 H 2096.63 -5.11324 -1.99596 0
M  V30 22804 H 2096.89 -3.51638 -2.67962 0
M  V30 22805 N 2095.95 0.0584645 -1.57492 0
M  V30 22806 C 2097.19 0.755071 -1.87896 0
M  V30 22807 C 2097.52 1.769 -0.808499 0
M  V30 22808 O 2096.78 1.94736 0.194028 0
M  V30 22809 C 2097.07 1.48699 -3.24998 0
M  V30 22810 C 2096.74 0.611806 -4.4673 0
M  V30 22811 C 2095.4 0.370663 -4.7977 0
M  V30 22812 C 2097.75 0.00576081 -5.212 0
M  V30 22813 C 2095.08 -0.485786 -5.84685 0
M  V30 22814 C 2097.43 -0.838219 -6.27022 0
M  V30 22815 C 2096.1 -1.08911 -6.58555 0
M  V30 22816 H 2095.37 0.2763 -0.68756 0
M  V30 22817 H 2098.02 0.0155215 -1.91494 0
M  V30 22818 H 2096.32 2.2991 -3.17252 0
M  V30 22819 H 2098.02 2.03101 -3.45761 0
M  V30 22820 H 2094.61 0.809892 -4.20878 0
M  V30 22821 H 2098.79 0.179152 -4.95977 0
M  V30 22822 H 2094.05 -0.688773 -6.07508 0
M  V30 22823 H 2098.22 -1.31449 -6.83882 0
M  V30 22824 H 2095.85 -1.7545 -7.39676 0
M  V30 22825 N 2097.42 1.54103 0.330149 0
M  V30 22826 C 2098.67 1.72248 1.07045 0
M  V30 22827 C 2099 0.491265 1.87884 0
M  V30 22828 O 2098.28 -0.511764 1.87647 0
M  V30 22829 C 2098.56 2.99412 2.00061 0
M  V30 22830 C 2098.41 4.3277 1.22596 0
M  V30 22831 C 2099.73 3.22301 2.99683 0
M  V30 22832 H 2096.85 0.626746 0.387761 0
M  V30 22833 H 2099.49 1.86791 0.347722 0
M  V30 22834 H 2097.64 2.87144 2.61688 0
M  V30 22835 H 2099.32 4.56911 0.634799 0
M  V30 22836 H 2097.56 4.30573 0.528135 0
M  V30 22837 H 2098.23 5.17954 1.9086 0
M  V30 22838 H 2100.71 3.33988 2.48176 0
M  V30 22839 H 2099.58 4.12648 3.61956 0
M  V30 22840 H 2099.84 2.39221 3.71787 0
M  V30 22841 N 2098.9 -0.59187 1.46064 0
M  V30 22842 C 2100.15 -1.34773 1.50601 0
M  V30 22843 C 2100.47 -1.94379 0.155452 0
M  V30 22844 O 2099.74 -1.7805 -0.816999 0
M  V30 22845 H 2098.32 -0.50037 0.554652 0
M  V30 22846 H 2100.98 -0.69386 1.82131 0
M  V30 22847 H 2100.08 -2.15914 2.25361 0
M  V30 22848 N 2100.38 -1.33616 -0.835729 0
M  V30 22849 C 2101.34 -1.24042 -1.92733 0
M  V30 22850 C 2102.34 -0.158708 -1.60015 0
M  V30 22851 O 2103.53 -0.410456 -1.69295 0
M  V30 22852 C 2100.67 -0.912113 -3.28471 0
M  V30 22853 H 2101.86 -2.21075 -2.02647 0
M  V30 22854 H 2099.41 -1.1772 -1.02819 0
M  V30 22855 H 2100.15 0.0555823 -3.24252 0
M  V30 22856 H 2099.93 -1.69441 -3.53599 0
M  V30 22857 H 2101.42 -0.869957 -4.08438 0
M  V30 22858 N 2101.86 1.05436 -1.17136 0
M  V30 22859 C 2103.11 1.77784 -0.952661 0
M  V30 22860 C 2103.42 1.88561 0.519999 0
M  V30 22861 O 2104.63 2.57625 0.856841 0
M  V30 22862 C 2103.08 3.19575 -1.65529 0
M  V30 22863 C 2102.69 3.16936 -3.16631 0
M  V30 22864 C 2104.43 3.96397 -1.51888 0
M  V30 22865 C 2102.34 4.535 -3.79594 0
M  V30 22866 H 2101.27 0.66637 -0.352799 0
M  V30 22867 H 2103.92 1.18197 -1.40363 0
M  V30 22868 H 2102.3 3.79474 -1.13205 0
M  V30 22869 H 2103.48 2.6657 -3.75869 0
M  V30 22870 H 2101.79 2.53614 -3.30256 0
M  V30 22871 H 2104.39 4.97363 -1.96302 0
M  V30 22872 H 2104.73 4.13649 -0.469072 0
M  V30 22873 H 2105.27 3.4304 -2.01416 0
M  V30 22874 H 2102.01 4.41453 -4.84561 0
M  V30 22875 H 2101.53 5.04026 -3.25143 0
M  V30 22876 H 2103.2 5.22444 -3.81656 0
M  V30 22877 N 2103.34 0.971211 1.24118 0
M  V30 22878 C 2104.28 0.496184 2.27246 0
M  V30 22879 C 2105.28 -0.442084 1.6353 0
M  V30 22880 O 2106.48 -0.316987 1.77187 0
M  V30 22881 H 2102.86 0.142002 0.738471 0
M  V30 22882 H 2104.83 1.37788 2.64683 0
M  V30 22883 C 2103.58 -0.194705 3.47154 0
M  V30 22884 H 2102.9 0.518169 3.96428 0
M  V30 22885 H 2104.34 -0.490853 4.21149 0
M  V30 22886 C 2102.8 -1.42287 3.05379 0
M  V30 22887 O 2103.33 -2.5197 3.12849 0
M  V30 22888 N 2101.54 -1.29018 2.60389 0
M  V30 22889 H 2101.08 -0.397753 2.54511 0
M  V30 22890 H 2101.04 -2.11305 2.32804 0
M  V30 22891 N 2104.81 -1.39054 0.741747 0
M  V30 22892 C 2106.06 -1.99612 0.289503 0
M  V30 22893 C 2106.38 -1.59538 -1.13168 0
M  V30 22894 O 2107.58 -2.12981 -1.68379 0
M  V30 22895 C 2106.04 -3.56862 0.466657 0
M  V30 22896 C 2105.65 -4.05894 1.89616 0
M  V30 22897 C 2107.39 -4.24431 0.0765289 0
M  V30 22898 C 2105.3 -5.55742 2.0225 0
M  V30 22899 H 2104.23 -0.746725 0.10449 0
M  V30 22900 H 2106.88 -1.58968 0.916594 0
M  V30 22901 H 2105.26 -3.95335 -0.229437 0
M  V30 22902 H 2106.43 -3.78739 2.62475 0
M  V30 22903 H 2104.75 -3.5101 2.24011 0
M  V30 22904 H 2107.35 -5.3449 0.149851 0
M  V30 22905 H 2107.69 -4.04861 -0.969208 0
M  V30 22906 H 2108.22 -3.91156 0.724031 0
M  V30 22907 H 2104.96 -5.80201 3.05036 0
M  V30 22908 H 2104.48 -5.84678 1.33836 0
M  V30 22909 H 2106.16 -6.21258 1.80685 0
M  V30 22910 N 2106.29 -0.489897 -1.49792 0
M  V30 22911 C 2107.71 -0.145171 -1.58938 0
M  V30 22912 C 2107.91 1.34961 -1.49625 0
M  V30 22913 O 2106.96 2.1246 -1.36444 0
M  V30 22914 C 2108.28 -0.7121 -2.92147 0
M  V30 22915 C 2109.83 -0.677209 -3.05586 0
M  V30 22916 C 2110.3 -1.22201 -4.41397 0
M  V30 22917 N 2111.79 -1.18222 -4.47859 0
M  V30 22918 C 2112.53 -1.57407 -5.51372 0
M  V30 22919 N 2112.02 -2.04131 -6.62044 0
M  V30 22920 N 2113.82 -1.48892 -5.42022 0
M  V30 22921 H 2105.97 -1.46186 -1.54089 0
M  V30 22922 H 2108.23 -0.60569 -0.729276 0
M  V30 22923 H 2107.94 -1.75998 -3.04496 0
M  V30 22924 H 2107.81 -0.166236 -3.76834 0
M  V30 22925 H 2110.2 0.361809 -2.92874 0
M  V30 22926 H 2110.28 -1.26009 -2.2261 0
M  V30 22927 H 2109.92 -2.25975 -4.5486 0
M  V30 22928 H 2109.85 -0.615163 -5.22995 0
M  V30 22929 H 2112.34 -0.839749 -3.68452 0
M  V30 22930 H 2112.66 -2.32129 -7.37113 0
M  V30 22931 H 2111 -2.08097 -6.63114 0
M  V30 22932 H 2114.19 -1.12217 -4.5445 0
M  V30 22933 H 2114.36 -1.79754 -6.22569 0
M  V30 22934 N 2107.77 1.56011 -0.223262 0
M  V30 22935 C 2108.7 2.23355 0.680795 0
M  V30 22936 C 2109.68 1.20584 1.19973 0
M  V30 22937 O 2110.87 1.49174 1.24342 0
M  V30 22938 C 2108 2.91478 1.88833 0
M  V30 22939 C 2106.95 4.00736 1.50316 0
M  V30 22940 C 2106.28 4.56164 2.7896 0
M  V30 22941 C 2107.58 5.17697 0.69188 0
M  V30 22942 H 2109.27 2.99162 0.119304 0
M  V30 22943 H 2106.82 1.43891 0.055942 0
M  V30 22944 H 2108.77 3.37282 2.52623 0
M  V30 22945 H 2107.49 2.13121 2.47481 0
M  V30 22946 H 2106.15 3.55665 0.888708 0
M  V30 22947 H 2105.8 3.74535 3.35757 0
M  V30 22948 H 2105.5 5.29903 2.53922 0
M  V30 22949 H 2107.02 5.04687 3.43691 0
M  V30 22950 H 2108.44 5.59872 1.23353 0
M  V30 22951 H 2106.84 5.97679 0.538515 0
M  V30 22952 H 2107.91 4.83964 -0.301131 0
M  V30 22953 N 2109.25 -0.0501116 1.5752 0
M  V30 22954 C 2110.49 -0.750186 1.90136 0
M  V30 22955 C 2110.85 -1.73631 0.819531 0
M  V30 22956 O 2112.05 -2.48308 1.02939 0
M  V30 22957 C 2110.32 -1.4207 3.27949 0
M  V30 22958 S 2111.88 -2.15284 3.82359 0
M  V30 22959 H 2108.7 -0.249004 0.665972 0
M  V30 22960 H 2111.3 -0.00547796 1.95499 0
M  V30 22961 H 2110.01 -0.689478 4.04567 0
M  V30 22962 H 2109.54 -2.2044 3.25837 0
M  V30 22963 H 2111.55 -3.42131 3.59389 0
M  V30 22964 N 2110.73 -1.54276 -0.321972 0
M  V30 22965 C 2111.95 -1.76841 -1.0836 0
M  V30 22966 C 2112.38 -0.5163 -1.80876 0
M  V30 22967 O 2111.73 0.532225 -1.73312 0
M  V30 22968 C 2111.78 -2.96236 -2.05613 0
M  V30 22969 O 2110.89 -2.67893 -3.1354 0
M  V30 22970 H 2110.23 -0.585948 -0.312347 0
M  V30 22971 H 2112.76 -2.01304 -0.365783 0
M  V30 22972 H 2112.77 -3.23627 -2.48455 0
M  V30 22973 H 2111.44 -3.87037 -1.52234 0
M  V30 22974 H 2110.02 -2.51456 -2.75362 0
M  V30 22975 N 2112.2 0.584116 -1.46376 0
M  V30 22976 C 2113.45 1.34437 -1.51837 0
M  V30 22977 C 2113.78 1.93464 -0.168948 0
M  V30 22978 O 2113.06 1.76395 0.819455 0
M  V30 22979 C 2113.34 2.47477 -2.61586 0
M  V30 22980 C 2113.19 1.93494 -4.06054 0
M  V30 22981 C 2114.51 3.49527 -2.6743 0
M  V30 22982 H 2111.63 0.487455 -0.552772 0
M  V30 22983 H 2114.27 0.656303 -1.78305 0
M  V30 22984 H 2112.42 3.0617 -2.39148 0
M  V30 22985 H 2114.1 1.39268 -4.39775 0
M  V30 22986 H 2112.34 1.24333 -4.15601 0
M  V30 22987 H 2113.01 2.75087 -4.78572 0
M  V30 22988 H 2115.49 3.00712 -2.87596 0
M  V30 22989 H 2114.36 4.26082 -3.46043 0
M  V30 22990 H 2114.62 4.06664 -1.73426 0
M  V30 22991 N 2113.68 1.34058 0.828631 0
M  V30 22992 C 2115.09 1.2341 1.40095 0
M  V30 22993 C 2115.45 -0.142779 1.9568 0
M  V30 22994 O 2114.57 -1.04286 1.89614 0
M  V30 22995 C 2115.17 2.23441 2.54675 0
M  V30 22996 C 2113.72 2.16602 3.07832 0
M  V30 22997 C 2112.87 2.1036 1.80676 0
M  V30 22998 H 2115.82 1.45507 0.633514 0
M  V30 22999 H 2115.84 1.84809 3.32605 0
M  V30 23000 H 2115.36 3.23642 2.1419 0
M  V30 23001 H 2113.46 1.19738 3.52836 0
M  V30 23002 H 2113.57 3.07604 3.6731 0
M  V30 23003 H 2111.93 1.55992 2.01342 0
M  V30 23004 H 2112.72 3.12386 1.42373 0
M  V30 23005 N 2115.16 -1.04814 1.17694 0
M  V30 23006 C 2116.09 -2.1459 0.920505 0
M  V30 23007 C 2117.07 -1.69531 -0.138953 0
M  V30 23008 O 2118.26 -1.94196 0.0120784 0
M  V30 23009 C 2115.39 -3.44537 0.437198 0
M  V30 23010 C 2114.34 -4.03181 1.43628 0
M  V30 23011 C 2113.67 -5.28517 0.810779 0
M  V30 23012 C 2114.97 -4.40226 2.81066 0
M  V30 23013 H 2116.66 -2.363 1.83856 0
M  V30 23014 H 2114.21 -1.13563 0.885411 0
M  V30 23015 H 2116.16 -4.20686 0.245199 0
M  V30 23016 H 2114.88 -3.22492 -0.516401 0
M  V30 23017 H 2113.54 -3.29106 1.61508 0
M  V30 23018 H 2113.19 -5.02777 -0.149773 0
M  V30 23019 H 2112.89 -5.68714 1.47776 0
M  V30 23020 H 2114.42 -6.0735 0.62914 0
M  V30 23021 H 2115.83 -5.07393 2.66881 0
M  V30 23022 H 2114.23 -4.91451 3.44377 0
M  V30 23023 H 2115.3 -3.50396 3.35188 0
M  V30 23024 N 2116.64 -0.977779 -1.23601 0
M  V30 23025 C 2117.92 -0.561714 -1.87361 0
M  V30 23026 C 2118.3 0.961166 -1.87949 0
M  V30 23027 O 2117.64 1.83678 -1.35922 0
M  V30 23028 C 2117.85 -1.16478 -3.28989 0
M  V30 23029 C 2119.2 -1.2559 -4.05601 0
M  V30 23030 O 2120.23 -1.11804 -3.38199 0
M  V30 23031 O 2119.09 -1.47493 -5.2622 0
M  V30 23032 H 2116.18 -0.18876 -0.80517 0
M  V30 23033 H 2118.73 -1.07269 -1.31497 0
M  V30 23034 H 2117.5 -2.20711 -3.23114 0
M  V30 23035 H 2117.12 -0.638457 -3.9244 0
M  V30 23036 N 2118.12 1.38658 -0.749111 0
M  V30 23037 C 2119.06 2.30496 -0.118423 0
M  V30 23038 C 2120.03 1.49947 0.714492 0
M  V30 23039 O 2121.22 1.78591 0.671546 0
M  V30 23040 C 2118.36 3.3635 0.772186 0
M  V30 23041 C 2117.47 4.31935 -0.0748716 0
M  V30 23042 C 2116.61 5.24859 0.818323 0
M  V30 23043 C 2115.65 6.12091 -0.0326386 0
M  V30 23044 N 2114.78 6.97327 0.817267 0
M  V30 23045 H 2119.62 2.83856 -0.90718 0
M  V30 23046 H 2117.16 1.39755 -0.459001 0
M  V30 23047 H 2119.12 3.96326 1.30313 0
M  V30 23048 H 2117.75 2.84411 1.52677 0
M  V30 23049 H 2116.8 3.73458 -0.723395 0
M  V30 23050 H 2118.11 4.93396 -0.732237 0
M  V30 23051 H 2117.27 5.8993 1.4166 0
M  V30 23052 H 2116.01 4.63754 1.50943 0
M  V30 23053 H 2115.01 5.4602 -0.643614 0
M  V30 23054 H 2116.24 6.75264 -0.720742 0
M  V30 23055 H 2114.18 6.38775 1.49341 0
M  V30 23056 H 2114.1 7.55689 0.216698 0
M  V30 23057 H 2115.37 7.66813 1.40066 0
M  V30 23058 N 2119.6 0.497834 1.49531 0
M  V30 23059 C 2120.51 -0.286926 2.32839 0
M  V30 23060 C 2121.52 -0.970397 1.44427 0
M  V30 23061 O 2122.7 -0.952478 1.77454 0
M  V30 23062 C 2119.76 -1.33928 3.19788 0
M  V30 23063 C 2118.82 -0.669588 4.24046 0
M  V30 23064 C 2118.06 -1.67181 5.0684 0
M  V30 23065 O 2118.28 -2.90132 4.91101 0
M  V30 23066 O 2117.21 -1.22887 5.89222 0
M  V30 23067 H 2121.04 0.394869 3.01122 0
M  V30 23068 H 2118.62 0.259218 1.47134 0
M  V30 23069 H 2120.51 -1.94822 3.73661 0
M  V30 23070 H 2119.18 -2.00407 2.54202 0
M  V30 23071 H 2118.09 -0.0209922 3.74094 0
M  V30 23072 H 2119.42 -0.0473067 4.92177 0
M  V30 23073 N 2121.07 -1.5589 0.231532 0
M  V30 23074 C 2122.02 -2.20725 -0.674461 0
M  V30 23075 C 2122.99 -1.16607 -1.18288 0
M  V30 23076 O 2124.18 -1.44999 -1.24016 0
M  V30 23077 C 2121.32 -2.89876 -1.87259 0
M  V30 23078 C 2120.43 -4.08613 -1.40213 0
M  V30 23079 C 2119.56 -4.6552 -2.55861 0
M  V30 23080 C 2118.6 -5.76537 -2.05601 0
M  V30 23081 N 2117.74 -6.27692 -3.14558 0
M  V30 23082 H 2122.58 -2.97779 -0.114866 0
M  V30 23083 H 2120.12 -1.47031 -0.0449395 0
M  V30 23084 H 2122.07 -3.28159 -2.57619 0
M  V30 23085 H 2120.7 -2.15324 -2.4049 0
M  V30 23086 H 2119.76 -3.75748 -0.593106 0
M  V30 23087 H 2121.07 -4.88802 -0.993676 0
M  V30 23088 H 2120.22 -5.06297 -3.34288 0
M  V30 23089 H 2118.96 -3.84514 -3.00001 0
M  V30 23090 H 2117.97 -5.35252 -1.25639 0
M  V30 23091 H 2119.19 -6.59384 -1.62449 0
M  V30 23092 H 2117.14 -5.49597 -3.58161 0
M  V30 23093 H 2117.05 -7.03032 -2.77996 0
M  V30 23094 H 2118.32 -6.73127 -3.93091 0
M  V30 23095 N 2122.55 0.0417572 -1.57545 0
M  V30 23096 C 2123.8 0.73078 -1.89819 0
M  V30 23097 C 2124.15 1.73638 -0.828718 0
M  V30 23098 O 2123.45 1.90897 0.164005 0
M  V30 23099 C 2123.64 1.45244 -3.26556 0
M  V30 23100 C 2123.47 0.518244 -4.46704 0
M  V30 23101 C 2122.24 0.143985 -5.05095 0
M  V30 23102 C 2124.44 -0.197963 -5.13919 0
M  V30 23103 N 2122.42 -0.792788 -6.08759 0
M  V30 23104 C 2123.79 -0.990841 -6.12031 0
M  V30 23105 C 2125.84 -0.266256 -4.97188 0
M  V30 23106 C 2124.55 -1.84571 -6.95216 0
M  V30 23107 C 2126.57 -1.10821 -5.80924 0
M  V30 23108 C 2125.94 -1.88905 -6.78597 0
M  V30 23109 H 2122.03 0.241904 -0.743644 0
M  V30 23110 H 2124.62 -0.00876388 -1.94698 0
M  V30 23111 H 2122.79 2.16252 -3.2263 0
M  V30 23112 H 2124.52 2.09284 -3.46385 0
M  V30 23113 H 2121.28 0.503425 -4.70917 0
M  V30 23114 H 2121.7 -1.25531 -6.6526 0
M  V30 23115 H 2126.34 0.323121 -4.21563 0
M  V30 23116 H 2124.06 -2.44594 -7.70194 0
M  V30 23117 H 2127.65 -1.16442 -5.70029 0
M  V30 23118 H 2126.53 -2.53002 -7.42266 0
M  V30 23119 N 2124.03 1.54445 0.313786 0
M  V30 23120 C 2125.26 1.76836 1.0683 0
M  V30 23121 C 2125.67 0.52169 1.81865 0
M  V30 23122 O 2125.01 -0.517625 1.76256 0
M  V30 23123 C 2125.07 2.91448 2.10471 0
M  V30 23124 C 2124.74 4.30003 1.54746 0
M  V30 23125 C 2125.73 5.10501 0.984136 0
M  V30 23126 C 2123.42 4.76573 1.58694 0
M  V30 23127 C 2125.41 6.35682 0.467701 0
M  V30 23128 C 2123.1 6.01719 1.06664 0
M  V30 23129 C 2124.1 6.81108 0.507972 0
M  V30 23130 O 2123.79 8.039 -0.00448226 0
M  V30 23131 H 2123.52 0.59375 0.323167 0
M  V30 23132 H 2126.07 2.02175 0.362557 0
M  V30 23133 H 2124.3 2.61703 2.8469 0
M  V30 23134 H 2125.99 3.01533 2.71722 0
M  V30 23135 H 2126.76 4.75672 0.94663 0
M  V30 23136 H 2122.64 4.14816 2.01118 0
M  V30 23137 H 2126.18 6.97593 0.0309903 0
M  V30 23138 H 2122.08 6.36037 1.10125 0
M  V30 23139 H 2122.84 8.18426 0.110023 0
M  V30 23140 N 2125.51 -0.576345 1.46683 0
M  V30 23141 C 2126.92 -1.15848 1.46411 0
M  V30 23142 C 2127.27 -1.9509 0.208383 0
M  V30 23143 O 2126.39 -2.05169 -0.688092 0
M  V30 23144 C 2126.99 -2.10758 2.65267 0
M  V30 23145 C 2125.55 -2.64282 2.68015 0
M  V30 23146 C 2124.7 -1.40277 2.39202 0
M  V30 23147 H 2127.65 -0.363942 1.54471 0
M  V30 23148 H 2127.67 -2.94327 2.41147 0
M  V30 23149 H 2127.18 -1.53056 3.56645 0
M  V30 23150 H 2125.28 -3.25835 1.80726 0
M  V30 23151 H 2125.39 -3.06583 3.68163 0
M  V30 23152 H 2123.76 -1.70304 1.8939 0
M  V30 23153 H 2124.54 -0.843968 3.32764 0
M  V30 23154 N 2126.99 -1.34495 -0.82151 0
M  V30 23155 C 2127.92 -1.28835 -1.94741 0
M  V30 23156 C 2128.9 -0.165528 -1.69293 0
M  V30 23157 O 2130.08 -0.358115 -1.9087 0
M  V30 23158 C 2127.21 -1.04446 -3.31222 0
M  V30 23159 C 2126.17 -2.13209 -3.71114 0
M  V30 23160 C 2125.49 -1.74007 -5.05594 0
M  V30 23161 C 2126.79 -3.55051 -3.83062 0
M  V30 23162 H 2128.49 -2.23039 -1.99734 0
M  V30 23163 H 2126.03 -1.07369 -0.959573 0
M  V30 23164 H 2127.98 -0.991306 -4.09574 0
M  V30 23165 H 2126.71 -0.0668391 -3.26532 0
M  V30 23166 H 2125.37 -2.17597 -2.95038 0
M  V30 23167 H 2125.02 -0.749021 -4.97392 0
M  V30 23168 H 2124.72 -2.46803 -5.33256 0
M  V30 23169 H 2126.24 -1.7019 -5.86402 0
M  V30 23170 H 2127.65 -3.53068 -4.51681 0
M  V30 23171 H 2126.05 -4.2648 -4.22179 0
M  V30 23172 H 2127.12 -3.92289 -2.85021 0
M  V30 23173 N 2128.46 1.04188 -1.18248 0
M  V30 23174 C 2129.71 1.77017 -0.975161 0
M  V30 23175 C 2130.03 1.88572 0.496551 0
M  V30 23176 O 2129.3 1.40982 1.36018 0
M  V30 23177 H 2127.88 0.655725 -0.357818 0
M  V30 23178 H 2130.55 1.25748 -1.48908 0
M  V30 23179 H 2129.64 2.78326 -1.41213 0
M  V30 23180 N 2129.94 0.98432 1.23081 0
M  V30 23181 C 2130.89 0.520259 2.26707 0
M  V30 23182 C 2131.88 -0.424715 1.63989 0
M  V30 23183 O 2133.09 -0.298177 1.77513 0
M  V30 23184 H 2129.47 0.149826 0.736923 0
M  V30 23185 H 2131.44 1.40587 2.63207 0
M  V30 23186 C 2130.19 -0.157874 3.47341 0
M  V30 23187 H 2129.51 0.560186 3.95856 0
M  V30 23188 H 2130.95 -0.446157 4.21646 0
M  V30 23189 C 2129.41 -1.3904 3.0687 0
M  V30 23190 O 2129.94 -2.48637 3.15503 0
M  V30 23191 N 2128.14 -1.26249 2.61743 0
M  V30 23192 H 2127.69 -0.370736 2.54918 0
M  V30 23193 H 2127.65 -2.08824 2.35032 0
M  V30 23194 N 2131.42 -1.38259 0.756453 0
M  V30 23195 C 2132.65 -2.04861 0.323535 0
M  V30 23196 C 2133.07 -1.56679 -1.04083 0
M  V30 23197 O 2132.43 -0.72007 -1.66387 0
M  V30 23198 C 2132.48 -3.58812 0.358692 0
M  V30 23199 O 2131.58 -4.07304 -0.646296 0
M  V30 23200 H 2130.92 -0.64848 0.142723 0
M  V30 23201 H 2133.45 -1.76877 1.02838 0
M  V30 23202 H 2133.46 -4.07456 0.210579 0
M  V30 23203 H 2132.14 -3.93238 1.35413 0
M  V30 23204 H 2130.71 -3.7002 -0.462561 0
M  V30 23205 N 2132.9 -0.505757 -1.49264 0
M  V30 23206 C 2134.15 0.0389421 -2.01662 0
M  V30 23207 C 2134.46 1.37604 -1.39012 0
M  V30 23208 O 2135.67 2.00771 -1.82766 0
M  V30 23209 C 2134.12 0.119854 -3.597 0
M  V30 23210 C 2133.73 -1.21089 -4.31325 0
M  V30 23211 C 2135.47 0.614665 -4.20026 0
M  V30 23212 C 2133.38 -1.09188 -5.81233 0
M  V30 23213 H 2132.31 0.0183265 -0.753777 0
M  V30 23214 H 2134.96 -0.645894 -1.71757 0
M  V30 23215 H 2133.34 0.869244 -3.86342 0
M  V30 23216 H 2134.52 -1.97394 -4.1638 0
M  V30 23217 H 2132.83 -1.63951 -3.82765 0
M  V30 23218 H 2135.43 0.721287 -5.29813 0
M  V30 23219 H 2135.77 1.61466 -3.83711 0
M  V30 23220 H 2136.31 -0.0783291 -3.97723 0
M  V30 23221 H 2133.05 -2.06629 -6.22081 0
M  V30 23222 H 2132.57 -0.369793 -5.98659 0
M  V30 23223 H 2134.24 -0.772559 -6.42371 0
M  V30 23224 N 2134.38 1.55765 -0.239796 0
M  V30 23225 C 2135.63 1.97945 0.387367 0
M  V30 23226 C 2135.94 1.131 1.59586 0
M  V30 23227 O 2137.14 1.45261 2.29372 0
M  V30 23228 C 2135.6 3.52198 0.740571 0
M  V30 23229 C 2135.21 4.45773 -0.446131 0
M  V30 23230 C 2136.95 4.0305 1.33232 0
M  V30 23231 C 2134.86 5.91359 -0.0694771 0
M  V30 23232 H 2133.79 0.739231 0.148505 0
M  V30 23233 H 2136.44 1.80343 -0.338891 0
M  V30 23234 H 2134.82 3.65468 1.52476 0
M  V30 23235 H 2136 4.44259 -1.22354 0
M  V30 23236 H 2134.31 4.05364 -0.952332 0
M  V30 23237 H 2136.91 5.09335 1.62734 0
M  V30 23238 H 2137.25 3.49977 2.25437 0
M  V30 23239 H 2137.78 3.93077 0.611183 0
M  V30 23240 H 2134.52 6.48455 -0.958485 0
M  V30 23241 H 2134.04 5.96025 0.671873 0
M  V30 23242 H 2135.72 6.46048 0.350837 0
M  V30 23243 O 2135.89 0.104167 1.61164 0
M  V30 23244 H 2136.58 -0.496946 1.87217 0
M  V30 END ATOM
M  V30 BEGIN BOND
M  V30 END BOND
M  V30 END CTAB
M  END
$$$$
