drugbank_target|O75716 Serine/threonine-protein kinase 16 (DB12010)
 OpenBabel12092121193D

  0  0  0     0  0            999 V3000
M  V30 BEGIN CTAB
M  V30 COUNTS 4850 4906 0 0 0
M  V30 BEGIN ATOM
M  V30 1 H -0.908 1.98254 -0.117106 0
M  V30 2 N 0 1.576 0 0
M  V30 3 C 0.933 2.03868 1.02534 0
M  V30 4 C 1.911 0.928543 1.3348 0
M  V30 5 O 3.095 1.19667 1.45644 0
M  V30 6 C 0.222 2.43627 2.35294 0
M  V30 7 C -0.732 3.65373 2.2001 0
M  V30 8 S 0.101 5.13292 1.52614 0
M  V30 9 C 1.257 5.56322 2.86805 0
M  V30 10 H 1.49 2.90518 0.631377 0
M  V30 11 H -0.977 1.52953 0.210867 0
M  V30 12 H 0.981 2.67203 3.11629 0
M  V30 13 H -0.358 1.57376 2.7183 0
M  V30 14 H -1.165 3.90944 3.18086 0
M  V30 15 H -1.563 3.418 1.51819 0
M  V30 16 H 0.729 5.58782 3.83104 0
M  V30 17 H 1.672 6.56266 2.65933 0
M  V30 18 H 2.08 4.83886 2.90714 0
M  V30 19 N 1.4781 -0.272755 1.55222 0
M  V30 20 C 2.7261 -1.00234 1.75492 0
M  V30 21 C 3.0471 -1.8681 0.5592 0
M  V30 22 O 2.3171 -1.91215 -0.425882 0
M  V30 23 H 0.8971 -0.373076 0.647166 0
M  V30 24 H 3.5591 -0.296926 1.92625 0
M  V30 25 H 2.6551 -1.63913 2.65592 0
M  V30 26 N 2.9562 -1.48159 -0.537278 0
M  V30 27 C 3.9062 -1.5854 -1.63857 0
M  V30 28 C 4.8902 -0.442969 -1.54682 0
M  V30 29 O 6.0822 -0.69401 -1.62827 0
M  V30 30 C 3.2112 -1.62144 -3.02596 0
M  V30 31 C 2.2972 -2.81841 -3.16901 0
M  V30 32 N 2.6882 -4.06337 -3.01204 0
M  V30 33 C 0.9862 -2.79021 -3.47942 0
M  V30 34 C 1.6872 -4.86606 -3.18731 0
M  V30 35 N 0.6632 -4.19288 -3.45974 0
M  V30 36 H 4.4652 -2.5255 -1.50319 0
M  V30 37 H 1.9792 -1.4443 -0.742555 0
M  V30 38 H 3.9762 -1.67674 -3.81695 0
M  V30 39 H 2.6362 -0.69245 -3.17231 0
M  V30 40 H 3.6472 -4.36888 -2.78117 0
M  V30 41 H 0.3242 -1.95347 -3.6898 0
M  V30 42 H 1.7142 -5.95385 -3.11394 0
M  V30 43 N 4.4343 0.785586 -1.36625 0
M  V30 44 C 5.3973 1.87999 -1.31107 0
M  V30 45 C 6.3973 1.59316 -0.217959 0
M  V30 46 O 7.5873 1.67656 -0.472977 0
M  V30 47 C 4.7193 3.24861 -1.03334 0
M  V30 48 H 5.9123 1.94307 -2.2844 0
M  V30 49 H 3.4653 0.983813 -1.21453 0
M  V30 50 H 4.2003 3.24235 -0.0647432 0
M  V30 51 H 3.9853 3.4707 -1.82441 0
M  V30 52 H 5.4753 4.04929 -1.02088 0
M  V30 53 N 5.9124 1.20967 1.01018 0
M  V30 54 C 6.8424 0.988272 2.11555 0
M  V30 55 C 7.8234 -0.0849778 1.69888 0
M  V30 56 O 9.0084 0.0738202 1.9406 0
M  V30 57 C 6.1384 0.546528 3.42973 0
M  V30 58 C 5.0924 1.56375 3.9841 0
M  V30 59 C 4.4184 0.97842 5.25672 0
M  V30 60 C 5.7184 2.94922 4.31066 0
M  V30 61 H 7.4124 1.91276 2.30334 0
M  V30 62 H 4.9584 0.921073 1.1069 0
M  V30 63 H 6.9114 0.378839 4.19694 0
M  V30 64 H 5.6354 -0.413598 3.23971 0
M  V30 65 H 4.2944 1.71891 3.23804 0
M  V30 66 H 3.9424 0.0101688 5.02999 0
M  V30 67 H 3.6424 1.65784 5.63728 0
M  V30 68 H 5.1664 0.821939 6.05043 0
M  V30 69 H 6.5804 2.8288 4.9865 0
M  V30 70 H 4.9774 3.5983 4.80253 0
M  V30 71 H 6.0474 3.4616 3.39561 0
M  V30 72 N 7.3905 -1.2043 1.01659 0
M  V30 73 C 8.6305 -1.91507 0.714456 0
M  V30 74 C 8.9945 -1.77073 -0.742237 0
M  V30 75 O 10.1955 -2.42631 -1.15688 0
M  V30 76 C 8.4665 -3.38795 1.13809 0
M  V30 77 S 10.0255 -4.28216 0.957925 0
M  V30 78 H 6.8435 -0.661571 0.260471 0
M  V30 79 H 9.4455 -1.45671 1.30384 0
M  V30 80 H 8.1495 -3.46822 2.19415 0
M  V30 81 H 7.6805 -3.89656 0.541474 0
M  V30 82 H 9.6955 -4.96007 -0.138531 0
M  V30 83 N 8.8686 -0.792821 -1.36206 0
M  V30 84 C 10.1146 -0.36733 -1.99446 0
M  V30 85 C 10.4476 1.05917 -1.62774 0
M  V30 86 O 9.7226 1.7324 -0.88421 0
M  V30 87 C 10.0056 -0.535044 -3.56103 0
M  V30 88 C 9.8586 -2.00548 -4.02617 0
M  V30 89 C 11.1776 0.0478191 -4.40074 0
M  V30 90 H 8.2966 -0.134941 -0.724541 0
M  V30 91 H 10.9386 -0.999794 -1.61568 0
M  V30 92 H 9.0886 0.00336329 -3.885 0
M  V30 93 H 10.7606 -2.60521 -3.80692 0
M  V30 94 H 9.0036 -2.50686 -3.54032 0
M  V30 95 H 9.6746 -2.07377 -5.11565 0
M  V30 96 H 12.1506 -0.411822 -4.14057 0
M  V30 97 H 11.0266 -0.0995336 -5.4881 0
M  V30 98 H 11.2876 1.14025 -4.27142 0
M  V30 99 N 10.3467 1.47872 -0.545128 0
M  V30 100 C 11.5867 2.04391 -0.0187854 0
M  V30 101 C 11.9507 1.41162 1.30144 0
M  V30 102 O 13.1517 1.88656 1.91474 0
M  V30 103 C 11.4227 3.57299 0.0850867 0
M  V30 104 S 12.9817 4.35221 0.559302 0
M  V30 105 H 9.7997 0.710737 -0.0193301 0
M  V30 106 H 12.4017 1.81395 -0.729125 0
M  V30 107 H 11.1057 4.00847 -0.880351 0
M  V30 108 H 10.6367 3.84773 0.819348 0
M  V30 109 H 12.6517 4.61571 1.82118 0
M  V30 110 N 11.8248 0.280983 1.55075 0
M  V30 111 C 13.0498 -0.340154 2.04592 0
M  V30 112 C 13.4748 -1.48246 1.15779 0
M  V30 113 O 12.8328 -1.80614 0.15761 0
M  V30 114 C 12.8808 -0.793104 3.5177 0
M  V30 115 O 11.9848 -1.89981 3.66034 0
M  V30 116 H 11.3258 -0.0694289 0.66036 0
M  V30 117 H 13.8558 0.416993 2.00306 0
M  V30 118 H 13.8658 -1.08729 3.93245 0
M  V30 119 H 12.5408 0.0426163 4.15878 0
M  V30 120 H 11.1178 -1.60771 3.36463 0
M  V30 121 N 13.3029 -1.57598 0.00835791 0
M  V30 122 C 14.7189 -1.55764 -0.347822 0
M  V30 123 C 14.9189 -1.01186 -1.74252 0
M  V30 124 O 13.9749 -0.649371 -2.44007 0
M  V30 125 C 15.2879 -2.99927 -0.215407 0
M  V30 126 C 16.8359 -3.11656 -0.289725 0
M  V30 127 C 17.3109 -4.57621 -0.18634 0
M  V30 128 N 18.8019 -4.62557 -0.243978 0
M  V30 129 C 19.5369 -5.73094 -0.18745 0
M  V30 130 N 19.0329 -6.92753 -0.0810331 0
M  V30 131 N 20.8259 -5.61588 -0.239925 0
M  V30 132 H 12.9769 -1.91411 0.92062 0
M  V30 133 H 15.2399 -0.879562 0.353659 0
M  V30 134 H 14.9459 -3.43729 0.744512 0
M  V30 135 H 14.8199 -3.63865 -0.994097 0
M  V30 136 H 17.2069 -2.67779 -1.24009 0
M  V30 137 H 17.2879 -2.5048 0.51898 0
M  V30 138 H 16.9319 -5.02174 0.760519 0
M  V30 139 H 16.8619 -5.16752 -1.01364 0
M  V30 140 H 19.3529 -3.76481 -0.327217 0
M  V30 141 H 19.6659 -7.72787 -0.0440241 0
M  V30 142 H 18.0109 -6.94984 -0.0465419 0
M  V30 143 H 21.2019 -4.66996 -0.321317 0
M  V30 144 H 21.3749 -6.47714 -0.192407 0
M  V30 145 N 14.781 0.264519 -1.55364 0
M  V30 146 C 16.029 0.993021 -1.76021 0
M  V30 147 C 16.35 1.86511 -0.569099 0
M  V30 148 O 15.62 1.91438 0.415735 0
M  V30 149 H 14.2 0.369639 -0.649135 0
M  V30 150 H 16.862 0.286707 -1.9278 0
M  V30 151 H 15.958 1.62502 -2.66457 0
M  V30 152 N 16.2591 1.48442 0.529413 0
M  V30 153 C 17.4871 1.60151 1.30994 0
M  V30 154 C 17.9021 0.261985 1.86973 0
M  V30 155 O 17.2591 -0.748805 1.66431 0
M  V30 156 C 17.3101 2.64854 2.46038 0
M  V30 157 O 17.0311 3.93608 1.92365 0
M  V30 158 C 18.5321 2.87007 3.37849 0
M  V30 159 H 15.7521 0.539971 0.398338 0
M  V30 160 H 18.2961 1.94273 0.638597 0
M  V30 161 H 16.4511 2.33589 3.09055 0
M  V30 162 H 16.8651 4.51055 2.67675 0
M  V30 163 H 18.3391 3.64068 4.14919 0
M  V30 164 H 18.8161 1.95852 3.93114 0
M  V30 165 H 19.4221 3.19579 2.80623 0
M  V30 166 N 17.7372 -0.778329 1.37039 0
M  V30 167 C 18.9832 -1.53892 1.32079 0
M  V30 168 C 19.3162 -1.9396 -0.0965386 0
M  V30 169 O 18.5912 -1.63568 -1.05242 0
M  V30 170 C 18.8742 -2.80847 2.25382 0
M  V30 171 C 18.7272 -2.47076 3.75864 0
M  V30 172 C 20.0462 -3.82741 2.1725 0
M  V30 173 H 17.1652 -0.558303 0.48111 0
M  V30 174 H 19.8072 -0.893397 1.67685 0
M  V30 175 H 17.9572 -3.35931 1.95148 0
M  V30 176 H 19.6292 -1.97957 4.16666 0
M  V30 177 H 17.8722 -1.79863 3.94755 0
M  V30 178 H 18.5432 -3.37798 4.36574 0
M  V30 179 H 21.0192 -3.37133 2.43887 0
M  V30 180 H 19.8952 -4.69303 2.84686 0
M  V30 181 H 20.1562 -4.2652 1.16331 0
M  V30 182 N 19.2153 -1.21501 -1.00376 0
M  V30 183 C 20.4643 -1.02718 -1.73586 0
M  V30 184 C 20.7773 0.439589 -1.90596 0
M  V30 185 O 21.9833 0.746848 -2.61026 0
M  V30 186 C 20.4393 -1.78929 -3.1227 0
M  V30 187 C 20.0473 -3.29783 -3.03228 0
M  V30 188 C 21.7913 -1.68557 -3.89601 0
M  V30 189 C 19.6983 -3.98479 -4.36999 0
M  V30 190 H 18.6283 -0.380733 -0.650814 0
M  V30 191 H 21.2793 -1.45248 -1.1214 0
M  V30 192 H 19.6613 -1.29192 -3.74333 0
M  V30 193 H 20.8353 -3.86832 -2.50395 0
M  V30 194 H 19.1503 -3.40711 -2.39385 0
M  V30 195 H 21.7473 -2.17211 -4.88593 0
M  V30 196 H 22.0903 -0.644021 -4.11288 0
M  V30 197 H 22.6233 -2.15778 -3.34193 0
M  V30 198 H 19.3623 -5.02841 -4.20513 0
M  V30 199 H 18.8823 -3.46219 -4.89788 0
M  V30 200 H 20.5613 -4.03462 -5.05794 0
M  V30 201 N 20.6934 1.19889 -1.02296 0
M  V30 202 C 21.9424 1.88743 -0.711257 0
M  V30 203 C 22.2554 1.80112 0.762817 0
M  V30 204 O 23.4614 2.44161 1.18733 0
M  V30 205 C 21.9174 3.38525 -1.22185 0
M  V30 206 C 21.5254 3.55727 -2.72328 0
M  V30 207 C 23.2694 4.12893 -0.985864 0
M  V30 208 C 21.1764 4.99369 -3.16835 0
M  V30 209 H 20.1064 0.706885 -0.262353 0
M  V30 210 H 22.7574 1.35586 -1.23648 0
M  V30 211 H 21.1394 3.91044 -0.624571 0
M  V30 212 H 22.3134 3.13564 -3.3766 0
M  V30 213 H 20.6284 2.94739 -2.9414 0
M  V30 214 H 23.2254 5.18813 -1.29374 0
M  V30 215 H 23.5684 4.16228 0.0775055 0
M  V30 216 H 24.1014 3.66494 -1.54684 0
M  V30 217 H 20.8404 5.01193 -4.22476 0
M  V30 218 H 20.3604 5.42317 -2.56228 0
M  V30 219 H 22.0394 5.67988 -3.09837 0
M  V30 220 N 22.1715 0.800033 1.35784 0
M  V30 221 C 23.4485 0.30088 1.93272 0
M  V30 222 C 23.8285 -1.20857 1.73081 0
M  V30 223 O 23.1765 -2.00502 1.09596 0
M  V30 224 C 23.3865 0.70511 3.41803 0
M  V30 225 C 24.7345 0.690871 4.18942 0
M  V30 226 O 25.7585 0.646244 3.50289 0
M  V30 227 O 24.6175 0.74332 5.41421 0
M  V30 228 H 21.7115 0.0771605 0.823393 0
M  V30 229 H 24.2575 0.88329 1.449 0
M  V30 230 H 23.0295 1.74571 3.50201 0
M  V30 231 H 22.6525 0.0971541 3.97481 0
M  V30 232 N 23.6496 -1.47581 0.552962 0
M  V30 233 C 24.5976 -2.31648 -0.21023 0
M  V30 234 C 25.5916 -1.42663 -0.913432 0
M  V30 235 O 26.7976 -1.5945 -0.835201 0
M  V30 236 H 23.1726 -0.746989 -0.0866676 0
M  V30 237 H 25.1436 -2.93869 0.518051 0
M  V30 238 C 23.8926 -3.25226 -1.22976 0
M  V30 239 H 23.2156 -3.93658 -0.698077 0
M  V30 240 H 24.6556 -3.86889 -1.73473 0
M  V30 241 C 23.1146 -2.48448 -2.27542 0
M  V30 242 O 23.6446 -2.22585 -3.34393 0
M  V30 243 N 21.8506 -2.09532 -2.01357 0
M  V30 244 H 21.3976 -2.30765 -1.14478 0
M  V30 245 H 21.3556 -1.58476 -2.71538 0
M  V30 246 N 25.1277 -0.289203 -1.54924 0
M  V30 247 C 26.0747 0.592115 -2.23075 0
M  V30 248 C 27.0447 1.13881 -1.20915 0
M  V30 249 O 28.2297 1.18551 -1.495 0
M  V30 250 C 25.3697 1.76376 -2.96623 0
M  V30 251 C 24.4827 1.24959 -4.13533 0
M  V30 252 C 23.6177 2.38416 -4.74691 0
M  V30 253 C 22.6567 1.84072 -5.83767 0
M  V30 254 N 21.7937 2.91057 -6.38929 0
M  V30 255 H 26.6337 0.00432038 -2.98 0
M  V30 256 H 24.1707 -0.00963529 -1.47097 0
M  V30 257 H 26.1287 2.45268 -3.3749 0
M  V30 258 H 24.7587 2.32337 -2.24097 0
M  V30 259 H 23.8107 0.453307 -3.77689 0
M  V30 260 H 25.1227 0.811662 -4.92152 0
M  V30 261 H 24.2767 3.15276 -5.18349 0
M  V30 262 H 23.0157 2.8553 -3.95378 0
M  V30 263 H 22.0207 1.05697 -5.39545 0
M  V30 264 H 23.2457 1.37877 -6.64956 0
M  V30 265 H 21.1917 3.37526 -5.62505 0
M  V30 266 H 21.1087 2.51724 -7.12861 0
M  V30 267 H 22.3767 3.6785 -6.87246 0
M  V30 268 N 26.6058 1.57591 -0.0167156 0
M  V30 269 C 28.0218 1.55946 0.339557 0
M  V30 270 C 28.2218 1.02109 1.73713 0
M  V30 271 O 27.2778 0.662303 2.43659 0
M  V30 272 C 28.5908 3.00037 0.199499 0
M  V30 273 C 30.1388 3.11805 0.273193 0
M  V30 274 C 30.6138 4.57713 0.162068 0
M  V30 275 N 32.1048 4.6268 0.219444 0
M  V30 276 C 32.8398 5.73185 0.157054 0
M  V30 277 N 32.3358 6.92786 0.0442936 0
M  V30 278 N 34.1288 5.61707 0.21014 0
M  V30 279 H 26.2798 1.90921 -0.930758 0
M  V30 280 H 28.5428 0.877674 -0.358319 0
M  V30 281 H 28.2488 3.4333 -0.76273 0
M  V30 282 H 28.1228 3.64387 0.974786 0
M  V30 283 H 30.5098 2.68433 1.22587 0
M  V30 284 H 30.5908 2.50201 -0.532256 0
M  V30 285 H 30.2348 5.01763 -0.78714 0
M  V30 286 H 30.1648 5.17283 0.986222 0
M  V30 287 H 32.6558 3.76649 0.307246 0
M  V30 288 H 32.9688 7.728 0.00304069 0
M  V30 289 H 31.3138 6.94999 0.00968457 0
M  V30 290 H 34.5048 4.6716 0.296546 0
M  V30 291 H 34.6778 6.47807 0.158054 0
M  V30 292 N 28.0839 -0.256276 1.55502 0
M  V30 293 C 29.3139 -1.00196 1.80677 0
M  V30 294 C 29.7219 -1.79805 0.588797 0
M  V30 295 O 29.0649 -1.78055 -0.451883 0
M  V30 296 C 29.1269 -1.99515 2.99055 0
M  V30 297 C 28.7909 -1.38688 4.35448 0
M  V30 298 C 29.7879 -0.794079 5.138 0
M  V30 299 C 27.4729 -1.40906 4.82132 0
M  V30 300 C 29.4669 -0.231562 6.36979 0
M  V30 301 C 27.1539 -0.842684 6.05262 0
M  V30 302 C 28.1519 -0.254953 6.82524 0
M  V30 303 O 27.8399 0.3027 8.0333 0
M  V30 304 H 27.5719 -0.300919 0.60533 0
M  V30 305 H 30.1259 -0.287307 2.03381 0
M  V30 306 H 28.3559 -2.74785 2.72084 0
M  V30 307 H 30.0449 -2.60349 3.11405 0
M  V30 308 H 30.8109 -0.769519 4.78856 0
M  V30 309 H 26.6899 -1.85591 4.21992 0
M  V30 310 H 30.2339 0.227816 6.97228 0
M  V30 311 H 26.1309 -0.86454 6.39684 0
M  V30 312 H 26.8989 0.193662 8.18271 0
M  V30 313 N 29.562 -1.4872 -0.521534 0
M  V30 314 C 30.492 -1.66771 -1.63431 0
M  V30 315 C 31.473 -0.516499 -1.62069 0
M  V30 316 O 32.658 -0.750013 -1.79132 0
M  V30 317 C 29.788 -1.71515 -3.01993 0
M  V30 318 C 28.742 -2.86222 -3.18216 0
M  V30 319 C 28.068 -2.76061 -4.57924 0
M  V30 320 C 29.368 -4.27419 -3.00184 0
M  V30 321 H 31.062 -2.59932 -1.48579 0
M  V30 322 H 28.608 -1.25089 -0.713358 0
M  V30 323 H 30.561 -1.82731 -3.7972 0
M  V30 324 H 29.285 -0.749393 -3.17886 0
M  V30 325 H 27.944 -2.74575 -2.42908 0
M  V30 326 H 27.592 -1.77437 -4.70665 0
M  V30 327 H 27.292 -3.53037 -4.69722 0
M  V30 328 H 28.816 -2.89256 -5.37739 0
M  V30 329 H 30.23 -4.39855 -3.67697 0
M  V30 330 H 28.627 -5.05458 -3.2347 0
M  V30 331 H 29.697 -4.43293 -1.96518 0
M  V30 332 N 31.0401 0.771051 -1.3745 0
M  V30 333 C 32.2871 1.52963 -1.32697 0
M  V30 334 C 32.6151 1.94299 0.0883274 0
M  V30 335 O 31.8701 1.64397 1.0617 0
M  V30 336 C 32.1691 2.80676 -2.2126 0
M  V30 337 C 31.8351 2.58389 -3.69521 0
M  V30 338 C 30.4971 2.52019 -4.09927 0
M  V30 339 C 32.8491 2.38469 -4.63446 0
M  V30 340 C 30.1771 2.23721 -5.42371 0
M  V30 341 C 32.5291 2.11694 -5.96128 0
M  V30 342 C 31.1931 2.03769 -6.35637 0
M  V30 343 H 30.4631 0.559732 -0.485573 0
M  V30 344 H 33.1101 0.888083 -1.69662 0
M  V30 345 H 31.4151 3.49392 -1.77291 0
M  V30 346 H 33.1121 3.38557 -2.14895 0
M  V30 347 H 29.7021 2.6421 -3.37478 0
M  V30 348 H 33.8861 2.4238 -4.33089 0
M  V30 349 H 29.1421 2.16081 -5.71943 0
M  V30 350 H 33.3161 1.9528 -6.6846 0
M  V30 351 H 30.9431 1.81606 -7.38189 0
M  V30 352 N 32.5182 1.22032 0.997298 0
M  V30 353 C 33.7672 1.03637 1.73038 0
M  V30 354 C 34.0802 -0.429475 1.90827 0
M  V30 355 O 35.2862 -0.732995 2.61418 0
M  V30 356 C 33.7422 1.80582 3.11317 0
M  V30 357 C 33.3502 3.31387 3.01474 0
M  V30 358 C 35.0942 1.70621 3.88701 0
M  V30 359 C 33.0012 4.00791 4.3488 0
M  V30 360 H 31.9312 0.384179 0.648785 0
M  V30 361 H 34.5822 1.4584 1.11368 0
M  V30 362 H 32.9642 1.31175 3.73643 0
M  V30 363 H 34.1382 3.88155 2.4834 0
M  V30 364 H 32.4532 3.41976 2.37575 0
M  V30 365 H 35.0502 2.19799 4.87434 0
M  V30 366 H 35.3932 0.665823 4.10941 0
M  V30 367 H 35.9262 2.17547 3.33044 0
M  V30 368 H 32.6652 5.05064 4.1784 0
M  V30 369 H 32.1852 3.48811 4.87945 0
M  V30 370 H 33.8642 4.06139 5.03647 0
M  V30 371 N 33.9963 -1.19345 1.0293 0
M  V30 372 C 34.9283 -2.22036 0.56857 0
M  V30 373 C 35.9413 -1.58865 -0.355779 0
M  V30 374 O 37.1303 -1.77851 -0.152103 0
M  V30 375 C 34.2303 -3.38363 -0.190752 0
M  V30 376 C 33.4033 -4.31118 0.738643 0
M  V30 377 C 32.4623 -5.26194 0.0246497 0
M  V30 378 O 31.4883 -5.65461 0.651354 0
M  V30 379 N 32.6903 -5.66971 -1.24594 0
M  V30 380 H 35.4553 -2.6219 1.45177 0
M  V30 381 H 33.0163 -1.34015 0.908381 0
M  V30 382 H 35.0083 -3.98981 -0.677961 0
M  V30 383 H 33.5783 -2.96994 -0.975366 0
M  V30 384 H 32.7983 -3.68276 1.40593 0
M  V30 385 H 34.0863 -4.90001 1.37029 0
M  V30 386 H 33.4843 -5.37104 -1.77583 0
M  V30 387 H 32.0413 -6.2984 -1.67764 0
M  V30 388 N 35.4744 -0.807222 -1.35358 0
M  V30 389 C 36.4214 -0.216037 -2.29787 0
M  V30 390 C 37.3914 0.650278 -1.52842 0
M  V30 391 O 38.5764 0.595227 -1.81278 0
M  V30 392 C 35.7164 0.628893 -3.39321 0
M  V30 393 C 34.8294 -0.257927 -4.31229 0
M  V30 394 C 33.9644 0.595069 -5.27856 0
M  V30 395 C 33.0034 -0.292111 -6.11403 0
M  V30 396 N 32.1404 0.520895 -7.00165 0
M  V30 397 H 36.9804 -1.02671 -2.79755 0
M  V30 398 H 34.5174 -0.517839 -1.37684 0
M  V30 399 H 36.4754 1.13393 -4.01494 0
M  V30 400 H 35.1054 1.40482 -2.90628 0
M  V30 401 H 34.1574 -0.881076 -3.70056 0
M  V30 402 H 35.4694 -0.940759 -4.89848 0
M  V30 403 H 34.6234 1.16522 -5.95405 0
M  V30 404 H 33.3624 1.31146 -4.69736 0
M  V30 405 H 32.3674 -0.874525 -5.428 0
M  V30 406 H 33.5924 -1.00638 -6.71602 0
M  V30 407 H 31.5384 1.22125 -6.44532 0
M  V30 408 H 31.4554 -0.103877 -7.55929 0
M  V30 409 H 32.7234 1.0743 -7.72062 0
M  V30 410 N 36.9525 1.47285 -0.560781 0
M  V30 411 C 37.8825 2.32857 0.173105 0
M  V30 412 C 38.8635 1.44009 0.905281 0
M  V30 413 O 40.0485 1.7286 0.885046 0
M  V30 414 C 37.1785 3.25861 1.20133 0
M  V30 415 C 36.1325 4.23978 0.585388 0
M  V30 416 C 35.4585 5.06332 1.7185 0
M  V30 417 C 36.7585 5.20242 -0.463178 0
M  V30 418 H 38.4525 2.94466 -0.541307 0
M  V30 419 H 35.9985 1.41601 -0.261764 0
M  V30 420 H 37.9515 3.84569 1.72293 0
M  V30 421 H 36.6755 2.62315 1.94573 0
M  V30 422 H 35.3345 3.66501 0.085054 0
M  V30 423 H 34.9825 4.39186 2.45203 0
M  V30 424 H 34.6825 5.72762 1.31213 0
M  V30 425 H 36.2065 5.67899 2.24329 0
M  V30 426 H 37.6205 5.73293 -0.027502 0
M  V30 427 H 36.0175 5.94896 -0.788627 0
M  V30 428 H 37.0875 4.65504 -1.35773 0
M  V30 429 N 38.4306 0.297415 1.54768 0
M  V30 430 C 39.6786 -0.312295 1.99673 0
M  V30 431 C 39.9996 -1.54686 1.18732 0
M  V30 432 O 39.2696 -1.93854 0.282382 0
M  V30 433 H 37.8496 -0.118381 0.73756 0
M  V30 434 H 40.5116 0.407915 1.90583 0
M  V30 435 H 39.6076 -0.586813 3.06534 0
M  V30 436 N 39.9087 -1.5758 0.0250728 0
M  V30 437 C 40.8187 -2.1343 -0.973905 0
M  V30 438 C 41.8347 -1.08556 -1.35984 0
M  V30 439 O 43.0107 -1.40592 -1.44207 0
M  V30 440 C 40.0757 -2.64703 -2.23904 0
M  V30 441 C 39.1367 -3.84276 -1.91391 0
M  V30 442 C 38.3697 -4.33095 -3.11873 0
M  V30 443 O 38.5927 -3.81107 -4.24398 0
M  V30 444 O 37.5267 -5.24984 -2.94406 0
M  V30 445 H 41.3527 -2.99057 -0.529036 0
M  V30 446 H 38.9377 -1.48118 -0.195288 0
M  V30 447 H 40.8197 -2.97769 -2.98181 0
M  V30 448 H 39.4947 -1.82161 -2.6758 0
M  V30 449 H 38.4017 -3.56143 -1.14511 0
M  V30 450 H 39.7347 -4.67968 -1.52534 0
M  V30 451 N 41.3868 0.248026 -1.55636 0
M  V30 452 C 42.6348 0.974295 -1.77065 0
M  V30 453 C 42.9558 1.85897 -0.588849 0
M  V30 454 O 42.2258 1.91868 0.395407 0
M  V30 455 H 40.8058 0.362733 -0.653019 0
M  V30 456 H 43.4678 0.266244 -1.93073 0
M  V30 457 H 42.5638 1.59667 -2.68166 0
M  V30 458 N 42.8649 1.48995 0.513639 0
M  V30 459 C 44.1129 1.57531 1.26604 0
M  V30 460 C 44.4339 0.258236 1.93283 0
M  V30 461 O 43.7039 -0.721502 1.8213 0
M  V30 462 H 42.2839 0.580387 0.470276 0
M  V30 463 H 44.9459 1.85552 0.596373 0
M  V30 464 H 44.0419 2.36486 2.03669 0
M  V30 465 N 44.343 -0.763751 1.37857 0
M  V30 466 C 45.59 -1.52257 1.33506 0
M  V30 467 C 45.918 -1.94343 -0.078022 0
M  V30 468 O 45.173 -1.64958 -1.05297 0
M  V30 469 C 45.472 -2.79499 2.22745 0
M  V30 470 C 45.138 -2.56426 3.70886 0
M  V30 471 C 43.8 -2.49842 4.11257 0
M  V30 472 C 46.152 -2.36008 4.64704 0
M  V30 473 C 43.48 -2.20841 5.43549 0
M  V30 474 C 45.832 -2.0853 5.97242 0
M  V30 475 C 44.496 -2.00396 6.36709 0
M  V30 476 H 43.766 -0.557149 0.488534 0
M  V30 477 H 46.413 -0.879073 1.70131 0
M  V30 478 H 44.718 -3.48447 1.79142 0
M  V30 479 H 46.415 -3.37413 2.16688 0
M  V30 480 H 43.005 -2.62416 3.38874 0
M  V30 481 H 47.189 -2.40079 4.34368 0
M  V30 482 H 42.445 -2.13045 5.73081 0
M  V30 483 H 46.619 -1.91732 6.69486 0
M  V30 484 H 44.246 -1.77688 7.39142 0
M  V30 485 N 45.8211 -1.22559 -0.990812 0
M  V30 486 C 47.0461 -1.07862 -1.77145 0
M  V30 487 C 47.4711 0.366447 -1.84496 0
M  V30 488 O 46.8291 1.26478 -1.29896 0
M  V30 489 C 46.8771 -1.69686 -3.18181 0
M  V30 490 O 45.9811 -0.951946 -4.01263 0
M  V30 491 H 45.3221 -0.378712 -0.545411 0
M  V30 492 H 47.8521 -1.62399 -1.2445 0
M  V30 493 H 47.8621 -1.74496 -3.68802 0
M  V30 494 H 46.5371 -2.74841 -3.12146 0
M  V30 495 H 45.1141 -0.980011 -3.59792 0
M  V30 496 N 47.2992 1.18797 -1.03562 0
M  V30 497 C 48.5292 1.92319 -0.754773 0
M  V30 498 C 48.9372 1.7612 0.691248 0
M  V30 499 O 48.2802 1.08491 1.48241 0
M  V30 500 C 48.3422 3.44284 -1.03484 0
M  V30 501 C 48.0062 3.84258 -2.47376 0
M  V30 502 C 49.0032 3.88459 -3.45537 0
M  V30 503 C 46.6882 4.15701 -2.81954 0
M  V30 504 C 48.6822 4.23545 -4.76328 0
M  V30 505 C 46.3692 4.50458 -4.12954 0
M  V30 506 C 47.3672 4.54356 -5.09951 0
M  V30 507 O 47.0552 4.88305 -6.38603 0
M  V30 508 H 46.7872 0.617527 -0.275021 0
M  V30 509 H 49.3412 1.51683 -1.38497 0
M  V30 510 H 47.5712 3.85135 -0.347513 0
M  V30 511 H 49.2602 3.99049 -0.7426 0
M  V30 512 H 50.0262 3.6431 -3.20162 0
M  V30 513 H 45.9052 4.11847 -2.0713 0
M  V30 514 H 49.4492 4.26502 -5.52035 0
M  V30 515 H 45.3462 4.74067 -4.38099 0
M  V30 516 H 46.1142 5.06227 -6.43177 0
M  V30 517 N 48.7773 0.814389 1.34928 0
M  V30 518 C 50.0233 0.399013 1.98836 0
M  V30 519 C 50.3563 -1.03314 1.64438 0
M  V30 520 O 49.6313 -1.71811 0.911659 0
M  V30 521 C 49.9143 0.591629 3.55207 0
M  V30 522 C 49.7673 2.06928 3.99376 0
M  V30 523 C 51.0863 0.022199 4.40094 0
M  V30 524 H 48.2053 0.146451 0.722303 0
M  V30 525 H 50.8473 1.02537 1.59957 0
M  V30 526 H 48.9973 0.0584441 3.88456 0
M  V30 527 H 50.6693 2.66544 3.76499 0
M  V30 528 H 48.9123 2.56287 3.49999 0
M  V30 529 H 49.5833 2.1549 5.08201 0
M  V30 530 H 52.0593 0.477643 4.13349 0
M  V30 531 H 50.9353 0.186832 5.48582 0
M  V30 532 H 51.1963 -1.07215 4.28902 0
M  V30 533 N 50.2554 -1.46986 0.568584 0
M  V30 534 C 51.5324 -1.95592 -0.0174074 0
M  V30 535 C 51.9124 -1.51124 -1.47393 0
M  V30 536 O 51.2604 -0.755329 -2.15655 0
M  V30 537 C 51.4704 -3.48719 0.139913 0
M  V30 538 C 52.8184 -4.246 0.000426376 0
M  V30 539 O 53.8424 -3.56135 0.0680316 0
M  V30 540 O 52.7014 -5.46302 -0.146988 0
M  V30 541 H 49.7954 -0.82498 -0.0577599 0
M  V30 542 H 52.3414 -1.57335 0.635909 0
M  V30 543 H 51.1134 -3.73927 1.15301 0
M  V30 544 H 50.7364 -3.93771 -0.550491 0
M  V30 545 N 51.7335 -0.305618 -1.54608 0
M  V30 546 C 52.6635 0.561482 -2.26649 0
M  V30 547 C 53.6445 1.13415 -1.26772 0
M  V30 548 O 54.8295 1.16262 -1.55553 0
M  V30 549 C 51.9595 1.73122 -3.01075 0
M  V30 550 C 50.9135 1.2887 -4.08138 0
M  V30 551 C 50.2395 2.54396 -4.70305 0
M  V30 552 C 51.5395 0.416578 -5.20636 0
M  V30 553 H 53.2335 -0.0393902 -2.99374 0
M  V30 554 H 50.7795 -0.020385 -1.43986 0
M  V30 555 H 52.7325 2.34396 -3.50195 0
M  V30 556 H 51.4565 2.3584 -2.25936 0
M  V30 557 H 50.1155 0.698991 -3.59875 0
M  V30 558 H 49.7635 3.15439 -3.918 0
M  V30 559 H 49.4635 2.25486 -5.42614 0
M  V30 560 H 50.9875 3.16464 -5.2219 0
M  V30 561 H 52.4015 0.935116 -5.65622 0
M  V30 562 H 50.7985 0.221046 -5.99693 0
M  V30 563 H 51.8685 -0.557162 -4.81688 0
M  V30 564 N 53.2116 1.57565 -0.0334293 0
M  V30 565 C 54.4576 1.92262 0.645226 0
M  V30 566 C 54.7906 0.910543 1.71531 0
M  V30 567 O 54.0656 -0.066099 1.94388 0
M  V30 568 C 54.3486 3.37422 1.2577 0
M  V30 569 C 54.2016 4.49369 0.196891 0
M  V30 570 C 55.5206 3.82628 2.17449 0
M  V30 571 H 52.6396 0.699171 0.233085 0
M  V30 572 H 55.2816 1.89779 -0.0915694 0
M  V30 573 H 53.4316 3.39669 1.88566 0
M  V30 574 H 55.1036 4.59254 -0.433962 0
M  V30 575 H 53.3466 4.31168 -0.477137 0
M  V30 576 H 54.0176 5.47978 0.665124 0
M  V30 577 H 56.4936 3.82145 1.64634 0
M  V30 578 H 55.3696 4.84883 2.57254 0
M  V30 579 H 55.6306 3.18376 3.0674 0
M  V30 580 N 54.6897 -0.239769 1.55765 0
M  V30 581 C 55.5997 -1.31831 1.94056 0
M  V30 582 C 56.6157 -1.52275 0.841925 0
M  V30 583 O 57.7917 -1.65759 1.14394 0
M  V30 584 C 54.8567 -2.65156 2.23368 0
M  V30 585 C 53.9177 -2.53173 3.46701 0
M  V30 586 C 53.1507 -3.8014 3.74606 0
M  V30 587 O 53.3737 -4.82343 3.04469 0
M  V30 588 O 52.3077 -3.78344 4.68123 0
M  V30 589 H 56.1337 -1.02347 2.85935 0
M  V30 590 H 53.7187 -0.441123 1.42739 0
M  V30 591 H 55.6007 -3.43929 2.43497 0
M  V30 592 H 54.2757 -2.94358 1.34666 0
M  V30 593 H 53.1827 -1.72662 3.31871 0
M  V30 594 H 54.5157 -2.28915 4.35728 0
M  V30 595 N 56.1678 -1.49265 -0.50573 0
M  V30 596 C 57.4158 -1.582 -1.25766 0
M  V30 597 C 57.7368 -0.268482 -1.93143 0
M  V30 598 O 57.0068 0.711833 -1.8251 0
M  V30 599 H 55.5868 -0.582873 -0.467191 0
M  V30 600 H 58.2488 -1.85865 -0.586525 0
M  V30 601 H 57.3448 -2.37563 -2.02412 0
M  V30 602 N 57.6459 0.756429 -1.3826 0
M  V30 603 C 58.5759 1.88374 -1.37976 0
M  V30 604 C 59.5569 1.68311 -0.246082 0
M  V30 605 O 60.7419 1.88944 -0.44874 0
M  V30 606 C 57.8719 3.25864 -1.20125 0
M  V30 607 C 56.8259 3.60523 -2.30666 0
M  V30 608 C 56.1519 4.9672 -1.97923 0
M  V30 609 C 57.4519 3.65692 -3.72916 0
M  V30 610 H 59.1459 1.88869 -2.32312 0
M  V30 611 H 56.6919 0.907272 -1.11824 0
M  V30 612 H 58.6449 4.0438 -1.18552 0
M  V30 613 H 57.3689 3.25841 -0.222498 0
M  V30 614 H 56.0279 2.84324 -2.3142 0
M  V30 615 H 55.6759 4.93253 -0.985393 0
M  V30 616 H 55.3759 5.20878 -2.71955 0
M  V30 617 H 56.8999 5.77618 -1.97964 0
M  V30 618 H 58.3139 4.34328 -3.74208 0
M  V30 619 H 56.7109 4.01358 -4.4613 0
M  V30 620 H 57.7809 2.65987 -4.05436 0
M  V30 621 N 59.124 1.23083 0.984299 0
M  V30 622 C 60.074 0.975749 2.06066 0
M  V30 623 C 61.058 -0.0768251 1.60716 0
M  V30 624 O 62.25 0.134805 1.76486 0
M  V30 625 C 59.379 0.564673 3.38624 0
M  V30 626 C 58.465 1.65244 3.90583 0
M  V30 627 N 58.856 2.88193 4.15666 0
M  V30 628 C 57.154 1.52612 4.19077 0
M  V30 629 C 57.855 3.58593 4.58024 0
M  V30 630 N 56.831 2.86093 4.62225 0
M  V30 631 H 60.633 1.90957 2.23411 0
M  V30 632 H 58.147 1.12963 1.16675 0
M  V30 633 H 60.144 0.36322 4.15315 0
M  V30 634 H 58.804 -0.362147 3.22674 0
M  V30 635 H 59.815 3.24537 4.03604 0
M  V30 636 H 56.492 0.666121 4.12152 0
M  V30 637 H 57.882 4.63974 4.85982 0
M  V30 638 N 60.6021 -1.18246 1.0419 0
M  V30 639 C 61.8791 -1.84121 0.660208 0
M  V30 640 C 62.2591 -1.92778 -0.860221 0
M  V30 641 O 61.6071 -1.45464 -1.76217 0
M  V30 642 C 61.8171 -3.22355 1.33747 0
M  V30 643 C 63.1651 -3.98376 1.46906 0
M  V30 644 O 64.1891 -3.31799 1.29568 0
M  V30 645 O 63.0481 -5.17665 1.75171 0
M  V30 646 H 60.1421 -0.794036 0.231161 0
M  V30 647 H 62.6881 -1.25628 1.14087 0
M  V30 648 H 61.4601 -3.10964 2.37522 0
M  V30 649 H 61.0831 -3.88506 0.845515 0
M  V30 650 N 62.0802 -0.821533 -1.34494 0
M  V30 651 C 63.3282 -0.408139 -1.97936 0
M  V30 652 C 63.6492 1.03193 -1.65457 0
M  V30 653 O 62.9192 1.71622 -0.944595 0
M  V30 654 H 61.4992 -0.147928 -0.732206 0
M  V30 655 H 64.1612 -1.05067 -1.64155 0
M  V30 656 H 63.2572 -0.52601 -3.07635 0
M  V30 657 N 63.5583 1.46682 -0.576371 0
M  V30 658 C 64.5083 2.27278 0.181288 0
M  V30 659 C 65.4923 1.35497 0.867721 0
M  V30 660 O 66.6843 1.59717 0.762863 0
M  V30 661 C 63.8133 3.21703 1.19841 0
M  V30 662 C 62.8993 4.20969 0.51442 0
M  V30 663 N 63.2903 5.03999 -0.426407 0
M  V30 664 C 61.5883 4.39373 0.765963 0
M  V30 665 C 62.2893 5.75812 -0.825565 0
M  V30 666 N 61.2653 5.43315 -0.176116 0
M  V30 667 H 65.0673 2.88863 -0.541785 0
M  V30 668 H 62.5813 1.57455 -0.397697 0
M  V30 669 H 64.5783 3.78145 1.75533 0
M  V30 670 H 63.2383 2.61677 1.92238 0
M  V30 671 H 64.2493 5.11659 -0.8016 0
M  V30 672 H 60.9263 3.90502 1.47698 0
M  V30 673 H 62.3163 6.52577 -1.59976 0
M  V30 674 N 65.0364 0.313813 1.54444 0
M  V30 675 C 66.2834 -0.291675 2.00388 0
M  V30 676 C 66.6114 -1.52904 1.2021 0
M  V30 677 O 65.8664 -1.93833 0.269707 0
M  V30 678 C 66.1654 -0.680386 3.50864 0
M  V30 679 C 65.8314 0.456699 4.48581 0
M  V30 680 C 64.4934 0.768824 4.75018 0
M  V30 681 C 66.8454 1.22098 5.06697 0
M  V30 682 C 64.1734 1.84812 5.56831 0
M  V30 683 C 66.5254 2.29029 5.89685 0
M  V30 684 C 65.1894 2.60834 6.14428 0
M  V30 685 H 64.4594 -0.106732 0.733273 0
M  V30 686 H 67.1064 0.43557 1.86481 0
M  V30 687 H 65.4114 -1.48791 3.62448 0
M  V30 688 H 67.1084 -1.16026 3.83847 0
M  V30 689 H 63.6984 0.203337 4.28117 0
M  V30 690 H 67.8824 0.993096 4.86263 0
M  V30 691 H 63.1384 2.09912 5.74236 0
M  V30 692 H 67.3124 2.887 6.33739 0
M  V30 693 H 64.9394 3.44596 6.77612 0
M  V30 694 N 66.5145 -1.57545 0.0417849 0
M  V30 695 C 67.7445 -1.96339 -0.642995 0
M  V30 696 C 68.1525 -0.917536 -1.65463 0
M  V30 697 O 67.4955 0.107747 -1.83384 0
M  V30 698 C 67.5575 -3.31333 -1.39494 0
M  V30 699 C 67.2215 -4.53796 -0.540204 0
M  V30 700 C 68.2185 -5.19553 0.189806 0
M  V30 701 C 65.9035 -5.0006 -0.473886 0
M  V30 702 C 67.8975 -6.29904 0.974674 0
M  V30 703 C 65.5845 -6.10289 0.314677 0
M  V30 704 C 66.5825 -6.75072 1.03765 0
M  V30 705 O 66.2705 -7.83183 1.81327 0
M  V30 706 H 66.0025 -0.651241 -0.181277 0
M  V30 707 H 68.5565 -2.05148 0.101665 0
M  V30 708 H 66.7865 -3.19052 -2.18502 0
M  V30 709 H 68.4755 -3.54942 -1.96904 0
M  V30 710 H 69.2415 -4.84774 0.147981 0
M  V30 711 H 65.1205 -4.49433 -1.0262 0
M  V30 712 H 68.6645 -6.80401 1.5395 0
M  V30 713 H 64.5615 -6.44506 0.358174 0
M  V30 714 H 65.3295 -7.99913 1.73438 0
M  V30 715 N 67.9926 0.231505 -1.5589 0
M  V30 716 C 68.9556 1.27028 -1.90779 0
M  V30 717 C 69.9556 1.40308 -0.785507 0
M  V30 718 O 71.1456 1.38744 -1.05336 0
M  V30 719 C 68.2776 2.64566 -2.14983 0
M  V30 720 H 69.4706 0.973017 -2.83677 0
M  V30 721 H 67.0236 0.471486 -1.49019 0
M  V30 722 H 67.7586 2.99406 -1.24604 0
M  V30 723 H 67.5436 2.56305 -2.96732 0
M  V30 724 H 69.0336 3.39543 -2.43105 0
M  V30 725 N 69.4707 1.49531 0.497807 0
M  V30 726 C 70.4007 1.6935 1.60757 0
M  V30 727 C 71.3817 0.542218 1.61227 0
M  V30 728 O 72.5667 0.778417 1.77917 0
M  V30 729 C 69.6967 1.76298 2.99226 0
M  V30 730 C 68.6507 2.91248 3.13622 0
M  V30 731 C 67.9767 2.83312 4.53474 0
M  V30 732 C 69.2767 4.3214 2.93346 0
M  V30 733 H 70.9707 2.62263 1.44425 0
M  V30 734 H 68.5167 1.26208 0.693367 0
M  V30 735 H 70.4697 1.88749 3.76765 0
M  V30 736 H 69.1937 0.799871 3.16654 0
M  V30 737 H 67.8527 2.78404 2.38509 0
M  V30 738 H 67.5007 1.84902 4.67782 0
M  V30 739 H 67.2007 3.60465 4.64046 0
M  V30 740 H 68.7247 2.97775 5.33069 0
M  V30 741 H 70.1387 4.45649 3.60652 0
M  V30 742 H 68.5357 5.1054 3.15387 0
M  V30 743 H 69.6057 4.46363 1.89441 0
M  V30 744 N 70.9488 -0.749086 1.3866 0
M  V30 745 C 71.8958 -1.86291 1.36251 0
M  V30 746 C 72.8658 -1.64578 0.224347 0
M  V30 747 O 74.0508 -1.86181 0.417279 0
M  V30 748 C 71.1908 -3.23644 1.19786 0
M  V30 749 C 70.3038 -3.57158 2.43027 0
M  V30 750 C 69.4388 -4.83838 2.19258 0
M  V30 751 C 68.4778 -5.10152 3.38247 0
M  V30 752 N 67.6148 -6.28029 3.13884 0
M  V30 753 H 72.4548 -1.87685 2.3147 0
M  V30 754 H 69.9918 -0.917287 1.14997 0
M  V30 755 H 71.9498 -4.0291 1.08254 0
M  V30 756 H 70.5798 -3.21566 0.282031 0
M  V30 757 H 69.6318 -2.72701 2.65214 0
M  V30 758 H 70.9438 -3.7253 3.31697 0
M  V30 759 H 70.0978 -5.71057 2.04888 0
M  V30 760 H 68.8368 -4.70614 1.2796 0
M  V30 761 H 67.8418 -4.21401 3.53131 0
M  V30 762 H 69.0668 -5.25271 4.30427 0
M  V30 763 H 67.0128 -6.1612 2.25238 0
M  V30 764 H 66.9298 -6.43922 3.96106 0
M  V30 765 H 68.1978 -7.18124 3.03179 0
M  V30 766 N 72.4269 -1.23603 -0.977757 0
M  V30 767 C 73.8429 -0.999251 -1.24447 0
M  V30 768 C 74.0429 0.298053 -1.99283 0
M  V30 769 O 73.0989 1.01681 -2.31122 0
M  V30 770 C 74.4119 -2.20784 -2.04144 0
M  V30 771 C 75.9599 -2.25303 -2.17273 0
M  V30 772 C 76.4349 -3.45755 -3.00362 0
M  V30 773 N 77.9259 -3.4601 -3.07947 0
M  V30 774 C 78.6609 -4.35868 -3.72568 0
M  V30 775 N 78.1569 -5.35966 -4.38991 0
M  V30 776 N 79.9499 -4.23605 -3.6948 0
M  V30 777 H 72.1009 -2.06986 -0.476483 0
M  V30 778 H 74.3639 -0.907801 -0.273134 0
M  V30 779 H 74.0699 -3.14945 -1.56533 0
M  V30 780 H 73.9439 -2.22085 -3.04891 0
M  V30 781 H 76.3309 -1.3168 -2.64092 0
M  V30 782 H 76.4119 -2.28033 -1.15907 0
M  V30 783 H 76.0559 -4.39687 -2.5424 0
M  V30 784 H 75.9859 -3.40266 -4.01904 0
M  V30 785 H 78.4769 -2.73588 -2.60688 0
M  V30 786 H 78.7899 -6.00783 -4.86086 0
M  V30 787 H 77.1349 -5.39863 -4.37691 0
M  V30 788 H 80.3259 -3.44647 -3.16759 0
M  V30 789 H 80.4989 -4.93836 -4.1956 0
M  V30 790 N 73.905 1.17692 -1.04816 0
M  V30 791 C 75.154 1.87192 -0.751132 0
M  V30 792 C 75.467 1.8169 0.724441 0
M  V30 793 O 76.673 2.46625 1.13527 0
M  V30 794 C 75.129 3.35857 -1.29338 0
M  V30 795 C 74.737 3.4987 -2.79812 0
M  V30 796 C 76.481 4.10709 -1.07322 0
M  V30 797 C 74.388 4.92536 -3.27356 0
M  V30 798 H 73.318 0.701162 -0.277288 0
M  V30 799 H 75.969 1.32932 -1.26496 0
M  V30 800 H 74.351 3.89631 -0.707376 0
M  V30 801 H 75.525 3.06332 -3.44235 0
M  V30 802 H 73.84 2.88433 -3.00325 0
M  V30 803 H 76.437 5.15952 -1.4035 0
M  V30 804 H 76.78 4.16299 -0.0108001 0
M  V30 805 H 77.313 3.6313 -1.62423 0
M  V30 806 H 74.052 4.92119 -4.33012 0
M  V30 807 H 73.572 5.3676 -2.67673 0
M  V30 808 H 75.251 5.61288 -3.21815 0
M  V30 809 N 75.3831 0.828654 1.34056 0
M  V30 810 C 76.3131 0.269443 2.3194 0
M  V30 811 C 77.2941 -0.617247 1.58506 0
M  V30 812 O 78.4791 -0.542931 1.86456 0
M  V30 813 C 75.6091 -0.564793 3.42677 0
M  V30 814 C 74.5631 0.225241 4.27407 0
M  V30 815 C 73.8891 -0.7321 5.29664 0
M  V30 816 C 75.1891 1.43663 5.02154 0
M  V30 817 H 76.8831 1.08728 2.7896 0
M  V30 818 H 74.4291 0.524283 1.34117 0
M  V30 819 H 76.3821 -0.966233 4.10173 0
M  V30 820 H 75.1061 -1.41574 2.9432 0
M  V30 821 H 73.7651 0.608117 3.61521 0
M  V30 822 H 73.4131 -1.57916 4.77568 0
M  V30 823 H 73.1131 -0.20767 5.87233 0
M  V30 824 H 74.6371 -1.13128 6.00029 0
M  V30 825 H 76.0511 1.1089 5.62473 0
M  V30 826 H 74.4481 1.89711 5.69324 0
M  V30 827 H 75.5181 2.21181 4.31517 0
M  V30 828 N 76.8612 -1.46375 0.584142 0
M  V30 829 C 78.1012 -2.0427 0.0729695 0
M  V30 830 C 78.4652 -1.44563 -1.26355 0
M  V30 831 O 79.6662 -1.93667 -1.86405 0
M  V30 832 C 77.9372 -3.57399 0.00967464 0
M  V30 833 S 79.4962 -4.36551 -0.443714 0
M  V30 834 H 76.3142 -0.709975 0.0381673 0
M  V30 835 H 78.9162 -1.79398 0.776962 0
M  V30 836 H 77.6202 -3.98372 0.986319 0
M  V30 837 H 77.1512 -3.8681 -0.717044 0
M  V30 838 H 79.1662 -4.66237 -1.69816 0
M  V30 839 N 78.3393 -0.321999 -1.54275 0
M  V30 840 C 79.2893 0.560185 -2.21011 0
M  V30 841 C 80.2733 1.08283 -1.19011 0
M  V30 842 O 81.4653 1.02011 -1.44647 0
M  V30 843 C 78.5943 1.72137 -2.97025 0
M  V30 844 C 77.6803 1.21369 -4.06363 0
M  V30 845 N 78.0713 0.425566 -5.04007 0
M  V30 846 C 76.3693 1.49255 -4.20284 0
M  V30 847 C 77.0703 0.152601 -5.815 0
M  V30 848 N 76.0463 0.738294 -5.38563 0
M  V30 849 H 79.8483 -0.049265 -2.93859 0
M  V30 850 H 77.3623 -0.127779 -1.61897 0
M  V30 851 H 79.3593 2.36512 -3.43319 0
M  V30 852 H 78.0193 2.33431 -2.25699 0
M  V30 853 H 79.0303 0.068551 -5.17855 0
M  V30 854 H 75.7073 2.11145 -3.60172 0
M  V30 855 H 77.0973 -0.481764 -6.70171 0
M  V30 856 N 79.8174 1.5752 -0.0501392 0
M  V30 857 C 80.7274 2.14952 0.939827 0
M  V30 858 C 81.7434 1.10706 1.34239 0
M  V30 859 O 82.9194 1.42869 1.41952 0
M  V30 860 C 79.9844 2.68232 2.19665 0
M  V30 861 C 79.0454 3.87272 1.85253 0
M  V30 862 C 78.2784 4.38002 3.04943 0
M  V30 863 O 78.5014 3.87811 4.18281 0
M  V30 864 O 77.4354 5.29602 2.86017 0
M  V30 865 H 81.2614 2.9986 0.481392 0
M  V30 866 H 78.8464 1.4841 0.171699 0
M  V30 867 H 80.7284 3.02475 2.93406 0
M  V30 868 H 79.4034 1.86395 2.64648 0
M  V30 869 H 78.3104 3.5792 1.0883 0
M  V30 870 H 79.6434 4.70336 1.4507 0
M  V30 871 N 81.2955 -0.223234 1.56011 0
M  V30 872 C 82.2275 -1.30006 1.88762 0
M  V30 873 C 83.2405 -1.43129 0.775746 0
M  V30 874 O 84.4295 -1.44057 1.05403 0
M  V30 875 C 81.5295 -2.67589 2.07965 0
M  V30 876 C 80.7025 -2.76434 3.38973 0
M  V30 877 C 79.7615 -3.95019 3.47629 0
M  V30 878 O 78.7875 -3.83436 4.20672 0
M  V30 879 N 79.9895 -5.09249 2.78649 0
M  V30 880 H 82.7545 -1.02238 2.81722 0
M  V30 881 H 80.3155 -0.413278 1.56536 0
M  V30 882 H 82.3075 -3.45297 2.11073 0
M  V30 883 H 80.8775 -2.87964 1.21638 0
M  V30 884 H 80.0975 -1.85216 3.47978 0
M  V30 885 H 81.3855 -2.79313 4.25278 0
M  V30 886 H 80.7835 -5.21556 2.19081 0
M  V30 887 H 79.3405 -5.85007 2.8742 0
M  V30 888 N 82.7736 -1.49793 -0.48987 0
M  V30 889 C 83.7056 -1.63413 -1.60713 0
M  V30 890 C 84.7186 -0.516329 -1.54395 0
M  V30 891 O 85.9076 -0.788812 -1.60125 0
M  V30 892 C 83.0076 -1.58516 -2.99543 0
M  V30 893 C 82.1806 -2.86016 -3.30928 0
M  V30 894 C 81.2396 -2.74018 -4.49222 0
M  V30 895 O 80.2656 -3.47964 -4.50455 0
M  V30 896 N 81.4676 -1.86309 -5.4979 0
M  V30 897 H 84.2326 -2.59777 -1.49452 0
M  V30 898 H 81.7936 -1.47022 -0.677955 0
M  V30 899 H 83.7856 -1.48128 -3.76617 0
M  V30 900 H 82.3556 -0.69965 -3.0467 0
M  V30 901 H 81.5756 -3.10672 -2.42645 0
M  V30 902 H 82.8636 -3.70521 -3.487 0
M  V30 903 H 82.2616 -1.2551 -5.51601 0
M  V30 904 H 80.8186 -1.81837 -6.25922 0
M  V30 905 N 84.2517 0.741722 -1.39055 0
M  V30 906 C 85.5287 1.49252 -1.26425 0
M  V30 907 C 85.9087 2.10705 0.129144 0
M  V30 908 O 85.2567 1.98045 1.13976 0
M  V30 909 C 85.4667 2.54934 -2.38347 0
M  V30 910 C 86.8147 3.21506 -2.77343 0
M  V30 911 O 87.8387 2.65245 -2.37747 0
M  V30 912 O 86.6977 4.23294 -3.45665 0
M  V30 913 H 83.7917 0.662451 -0.495064 0
M  V30 914 H 86.3377 0.776121 -1.50912 0
M  V30 915 H 85.1097 2.07857 -3.31529 0
M  V30 916 H 84.7327 3.34141 -2.15489 0
M  V30 917 N 85.7298 1.2412 0.971189 0
M  V30 918 C 87.1458 1.00584 1.23916 0
M  V30 919 C 87.3458 -0.287481 1.99439 0
M  V30 920 O 86.4018 -1.00454 2.31658 0
M  V30 921 C 87.7148 2.21864 2.0297 0
M  V30 922 C 89.2628 2.26452 2.16076 0
M  V30 923 C 89.7378 3.47343 2.98524 0
M  V30 924 N 91.2288 3.47639 3.06107 0
M  V30 925 C 91.9638 4.37837 3.70251 0
M  V30 926 N 91.4598 5.38286 4.36142 0
M  V30 927 N 93.2528 4.25558 3.67228 0
M  V30 928 H 85.4038 2.07236 0.465499 0
M  V30 929 H 87.6668 0.909236 0.268315 0
M  V30 930 H 87.3728 3.15771 1.54861 0
M  V30 931 H 87.2468 2.23698 3.03709 0
M  V30 932 H 89.6338 1.33078 2.6339 0
M  V30 933 H 89.7148 2.28645 1.14696 0
M  V30 934 H 89.3588 4.41029 2.51905 0
M  V30 935 H 89.2888 3.42393 4.00093 0
M  V30 936 H 91.7798 2.74966 2.59233 0
M  V30 937 H 92.0928 6.03352 4.82894 0
M  V30 938 H 90.4378 5.42176 4.34822 0
M  V30 939 H 93.6288 3.46322 3.14927 0
M  V30 940 H 93.8018 4.96054 4.16935 0
M  V30 941 N 87.2079 -1.17134 1.05439 0
M  V30 942 C 88.1179 -2.24878 0.668365 0
M  V30 943 C 89.1339 -1.71186 -0.311687 0
M  V30 944 O 90.3099 -2.00738 -0.163161 0
M  V30 945 C 87.3749 -3.46662 0.051648 0
M  V30 946 C 86.4359 -4.15429 1.08246 0
M  V30 947 C 85.6689 -5.31399 0.495082 0
M  V30 948 O 85.8919 -5.66153 -0.694743 0
M  V30 949 O 84.8259 -5.89187 1.23056 0
M  V30 950 H 88.6519 -2.60189 1.56637 0
M  V30 951 H 86.2369 -1.24482 0.826104 0
M  V30 952 H 88.1189 -4.20394 -0.290966 0
M  V30 953 H 86.7939 -3.13142 -0.819971 0
M  V30 954 H 85.7009 -3.43704 1.47711 0
M  V30 955 H 87.0339 -4.52982 1.92532 0
M  V30 956 N 88.686 -0.835752 -1.33615 0
M  V30 957 C 89.596 -0.269088 -2.33052 0
M  V30 958 C 90.612 0.603251 -1.63208 0
M  V30 959 O 91.788 0.508112 -1.94885 0
M  V30 960 C 88.853 0.549091 -3.42324 0
M  V30 961 C 87.914 -0.347156 -4.27894 0
M  V30 962 C 87.147 0.43207 -5.31948 0
M  V30 963 O 87.37 1.66409 -5.45586 0
M  V30 964 O 86.304 -0.192298 -6.01593 0
M  V30 965 H 90.13 -1.09243 -2.83372 0
M  V30 966 H 87.715 -0.598198 -1.36901 0
M  V30 967 H 89.597 1.01414 -4.09015 0
M  V30 968 H 88.272 1.34955 -2.94226 0
M  V30 969 H 87.179 -0.859979 -3.64081 0
M  V30 970 H 88.512 -1.1123 -4.79467 0
M  V30 971 N 90.1641 1.46063 -0.591896 0
M  V30 972 C 91.1271 2.28854 0.125973 0
M  V30 973 C 92.1271 1.38903 0.810107 0
M  V30 974 O 93.3171 1.61186 0.66066 0
M  V30 975 C 90.4491 3.19526 1.1881 0
M  V30 976 H 91.6421 2.93802 -0.601717 0
M  V30 977 H 89.1951 1.52325 -0.350254 0
M  V30 978 H 89.9301 2.59345 1.94707 0
M  V30 979 H 89.7151 3.85766 0.701936 0
M  V30 980 H 91.2051 3.81817 1.69132 0
M  V30 981 N 91.6422 0.330177 1.54103 0
M  V30 982 C 92.5742 -0.566902 2.22079 0
M  V30 983 C 93.5872 -1.07462 1.22294 0
M  V30 984 O 94.7762 -0.987065 1.48726 0
M  V30 985 C 91.8762 -1.79138 2.87685 0
M  V30 986 C 91.0492 -1.42123 4.13666 0
M  V30 987 C 90.1082 -2.50394 4.62806 0
M  V30 988 O 89.1342 -2.14261 5.27334 0
M  V30 989 N 90.3362 -3.81433 4.37595 0
M  V30 990 H 93.1012 0.0151844 2.99696 0
M  V30 991 H 90.6622 0.153681 1.61169 0
M  V30 992 H 92.6542 -2.50975 3.1748 0
M  V30 993 H 91.2242 -2.28115 2.13734 0
M  V30 994 H 90.4442 -0.534201 3.90564 0
M  V30 995 H 91.7322 -1.14971 4.9564 0
M  V30 996 H 91.1302 -4.13584 3.8596 0
M  V30 997 H 89.6872 -4.4948 4.72029 0
M  V30 998 N 93.1203 -1.57491 0.0584922 0
M  V30 999 C 94.5363 -1.56792 -0.298091 0
M  V30 1000 C 94.7363 -1.06679 -1.70944 0
M  V30 1001 O 93.7923 -0.726672 -2.41818 0
M  V30 1002 C 95.1053 -3.00461 -0.119879 0
M  V30 1003 C 96.6533 -3.1242 -0.190428 0
M  V30 1004 C 97.1283 -4.57982 -0.0406567 0
M  V30 1005 N 98.6193 -4.63099 -0.0966958 0
M  V30 1006 C 99.3543 -5.734 -0.00502943 0
M  V30 1007 N 98.8503 -6.9266 0.139402 0
M  V30 1008 N 100.643 -5.62067 -0.0611391 0
M  V30 1009 H 92.7943 -1.88386 0.98105 0
M  V30 1010 H 95.0573 -0.867865 0.381463 0
M  V30 1011 H 94.7633 -3.41187 0.85349 0
M  V30 1012 H 94.6373 -3.66843 -0.877833 0
M  V30 1013 H 97.0243 -2.71589 -1.15427 0
M  V30 1014 H 97.1053 -2.48702 0.598405 0
M  V30 1015 H 96.7493 -4.995 0.919897 0
M  V30 1016 H 96.6793 -5.19715 -0.848727 0
M  V30 1017 H 99.1703 -3.77331 -0.207277 0
M  V30 1018 H 99.4833 -7.72536 0.201855 0
M  V30 1019 H 97.8283 -6.94781 0.174586 0
M  V30 1020 H 101.019 -4.67782 -0.172583 0
M  V30 1021 H 101.192 -6.47999 0.0137562 0
M  V30 1022 N 94.5984 0.214957 -1.56127 0
M  V30 1023 C 95.5084 1.28727 -1.96129 0
M  V30 1024 C 96.5244 1.50916 -0.866044 0
M  V30 1025 O 97.7004 1.63918 -1.17016 0
M  V30 1026 C 94.7654 2.61569 -2.27558 0
M  V30 1027 C 93.8264 2.47625 -3.50685 0
M  V30 1028 C 93.0594 3.74132 -3.80606 0
M  V30 1029 O 93.2824 4.77438 -3.12104 0
M  V30 1030 O 92.2164 3.70849 -4.74083 0
M  V30 1031 H 96.0424 0.977855 -2.87527 0
M  V30 1032 H 93.6274 0.418358 -1.43423 0
M  V30 1033 H 95.5094 3.40012 -2.48938 0
M  V30 1034 H 94.1844 2.92178 -1.39332 0
M  V30 1035 H 93.0914 1.67361 -3.34576 0
M  V30 1036 H 94.4244 2.21954 -4.39315 0
M  V30 1037 N 96.0765 1.50051 0.48192 0
M  V30 1038 C 97.0395 1.67584 1.5636 0
M  V30 1039 C 98.0395 0.546894 1.51214 0
M  V30 1040 O 99.2295 0.813725 1.54026 0
M  V30 1041 C 96.3615 1.691 2.96003 0
M  V30 1042 H 97.5545 2.64078 1.42136 0
M  V30 1043 H 95.1075 1.39369 0.707533 0
M  V30 1044 H 95.8425 0.742589 3.15684 0
M  V30 1045 H 95.6275 2.51105 3.01146 0
M  V30 1046 H 97.1175 1.84656 3.74556 0
M  V30 1047 N 97.5546 -0.734337 1.39446 0
M  V30 1048 C 98.8316 -1.48579 1.27215 0
M  V30 1049 C 99.2116 -2.1077 -0.117968 0
M  V30 1050 O 98.5596 -1.98646 -1.12924 0
M  V30 1051 C 98.7696 -2.53667 2.39696 0
M  V30 1052 C 100.118 -3.20031 2.79044 0
M  V30 1053 O 101.142 -2.6398 2.39151 0
M  V30 1054 O 100.001 -4.21455 3.47905 0
M  V30 1055 H 97.0946 -0.659816 0.49857 0
M  V30 1056 H 99.6406 -0.768106 1.51322 0
M  V30 1057 H 98.4126 -2.06096 3.32626 0
M  V30 1058 H 98.0356 -3.32994 2.17258 0
M  V30 1059 N 99.0327 -1.24633 -0.964593 0
M  V30 1060 C 99.9657 -0.984662 -2.05863 0
M  V30 1061 C 100.944 0.0826554 -1.6239 0
M  V30 1062 O 102.128 -0.0549296 -1.8842 0
M  V30 1063 C 99.2547 -0.486529 -3.35187 0
M  V30 1064 C 98.3007 -1.54286 -3.97615 0
M  V30 1065 S 99.1337 -3.12513 -4.34851 0
M  V30 1066 C 100.29 -2.6441 -5.67308 0
M  V30 1067 H 100.523 -1.91104 -2.27743 0
M  V30 1068 H 98.0557 -1.08052 -1.10291 0
M  V30 1069 H 100.014 -0.205757 -4.09984 0
M  V30 1070 H 98.6747 0.419186 -3.1129 0
M  V30 1071 H 97.8677 -1.14481 -4.90826 0
M  V30 1072 H 97.4697 -1.7738 -3.2926 0
M  V30 1073 H 99.7617 -2.07416 -6.44969 0
M  V30 1074 H 100.705 -3.56222 -6.11973 0
M  V30 1075 H 101.113 -2.04734 -5.26065 0
M  V30 1076 N 100.511 1.16574 -1.06058 0
M  V30 1077 C 101.461 2.18854 -0.63929 0
M  V30 1078 C 102.445 1.57505 0.328798 0
M  V30 1079 O 103.637 1.76408 0.144623 0
M  V30 1080 C 100.766 3.43291 -0.0247203 0
M  V30 1081 C 99.8518 4.11722 -1.01716 0
M  V30 1082 N 100.243 4.55841 -2.19186 0
M  V30 1083 C 98.5408 4.37872 -0.847569 0
M  V30 1084 C 99.2418 5.08751 -2.82042 0
M  V30 1085 N 98.2178 5.01489 -2.09784 0
M  V30 1086 H 102.02 2.5068 -1.53417 0
M  V30 1087 H 99.5338 1.32999 -0.931935 0
M  V30 1088 H 101.531 4.15856 0.294915 0
M  V30 1089 H 100.191 3.12954 0.865448 0
M  V30 1090 H 101.202 4.49649 -2.56975 0
M  V30 1091 H 97.8788 4.17499 -0.00918848 0
M  V30 1092 H 99.2688 5.52944 -3.81709 0
M  V30 1093 N 101.989 0.842826 1.3317 0
M  V30 1094 C 103.405 0.531128 1.50503 0
M  V30 1095 C 103.605 -0.940734 1.78192 0
M  V30 1096 O 102.661 -1.72436 1.84451 0
M  V30 1097 C 103.974 1.40789 2.65705 0
M  V30 1098 C 105.522 1.40708 2.79589 0
M  V30 1099 C 105.997 2.26878 3.97857 0
M  V30 1100 N 107.488 2.24609 4.05099 0
M  V30 1101 C 108.223 2.88019 4.95815 0
M  V30 1102 N 107.719 3.60496 5.9162 0
M  V30 1103 N 109.512 2.77469 4.88843 0
M  V30 1104 H 101.663 1.79557 1.1346 0
M  V30 1105 H 103.926 0.766267 0.558156 0
M  V30 1106 H 103.632 2.454 2.51936 0
M  V30 1107 H 103.506 1.08677 3.61205 0
M  V30 1108 H 105.893 0.368668 2.92788 0
M  V30 1109 H 105.974 1.76829 1.84838 0
M  V30 1110 H 105.618 3.3078 3.85418 0
M  V30 1111 H 105.548 1.88096 4.91861 0
M  V30 1112 H 108.039 1.71906 3.36536 0
M  V30 1113 H 108.352 4.06076 6.57512 0
M  V30 1114 H 106.697 3.64604 5.91683 0
M  V30 1115 H 109.888 2.20406 4.12963 0
M  V30 1116 H 110.061 3.2717 5.59342 0
M  V30 1117 N 103.467 -1.45747 0.599634 0
M  V30 1118 C 104.397 -2.33235 -0.111306 0
M  V30 1119 C 105.378 -1.46359 -0.866781 0
M  V30 1120 O 106.563 -1.75146 -0.838904 0
M  V30 1121 C 103.693 -3.28932 -1.11451 0
M  V30 1122 C 102.647 -4.25381 -0.472772 0
M  V30 1123 C 101.973 -5.1071 -1.58365 0
M  V30 1124 C 103.273 -5.18831 0.600948 0
M  V30 1125 H 104.967 -2.92927 0.61919 0
M  V30 1126 H 102.513 -1.40857 0.299215 0
M  V30 1127 H 104.466 -3.89002 -1.62036 0
M  V30 1128 H 103.19 -2.67381 -1.8755 0
M  V30 1129 H 101.849 -3.66598 0.0121472 0
M  V30 1130 H 101.497 -4.45533 -2.33473 0
M  V30 1131 H 101.197 -5.7604 -1.15982 0
M  V30 1132 H 102.721 -5.73647 -2.09194 0
M  V30 1133 H 104.135 -5.73019 0.179491 0
M  V30 1134 H 102.532 -5.92595 0.946076 0
M  V30 1135 H 103.602 -4.6174 1.48068 0
M  V30 1136 N 104.945 -0.338344 -1.53925 0
M  V30 1137 C 106.192 0.259758 -2.00827 0
M  V30 1138 C 106.52 1.50973 -1.22628 0
M  V30 1139 O 105.775 1.93379 -0.300509 0
M  V30 1140 C 106.074 0.62448 -3.51902 0
M  V30 1141 C 105.74 -0.528006 -4.47798 0
M  V30 1142 C 104.402 -0.844298 -4.73735 0
M  V30 1143 C 106.754 -1.30143 -5.0469 0
M  V30 1144 C 104.082 -1.93648 -5.53821 0
M  V30 1145 C 106.434 -2.38382 -5.85967 0
M  V30 1146 C 105.098 -2.70576 -6.10201 0
M  V30 1147 H 104.368 0.0950523 -0.734878 0
M  V30 1148 H 107.015 -0.465182 -1.85764 0
M  V30 1149 H 105.32 1.43006 -3.64769 0
M  V30 1150 H 107.017 1.09905 -3.85645 0
M  V30 1151 H 103.607 -0.271421 -4.2774 0
M  V30 1152 H 107.791 -1.07033 -4.84621 0
M  V30 1153 H 103.047 -2.19021 -5.70824 0
M  V30 1154 H 107.221 -2.98746 -6.29066 0
M  V30 1155 H 104.848 -3.55333 -6.72044 0
M  V30 1156 N 106.423 1.57458 -0.0668435 0
M  V30 1157 C 107.371 2.13639 0.919851 0
M  V30 1158 C 108.365 1.07204 1.31163 0
M  V30 1159 O 109.571 1.25591 1.28945 0
M  V30 1160 H 105.946 0.683048 0.314562 0
M  V30 1161 H 107.917 2.95415 0.421047 0
M  V30 1162 C 106.666 2.70892 2.17975 0
M  V30 1163 H 105.989 3.5246 1.88711 0
M  V30 1164 H 107.429 3.13803 2.85138 0
M  V30 1165 C 105.888 1.65414 2.93496 0
M  V30 1166 O 106.418 1.07619 3.87015 0
M  V30 1167 N 104.624 1.36564 2.56512 0
M  V30 1168 H 104.171 1.83751 1.80536 0
M  V30 1169 H 104.129 0.66223 3.07347 0
M  V30 1170 N 107.901 -0.206675 1.56239 0
M  V30 1171 C 108.851 -1.26 1.90021 0
M  V30 1172 C 109.835 -1.41566 0.764721 0
M  V30 1173 O 111.027 -1.44131 1.02739 0
M  V30 1174 C 108.156 -2.6073 2.23326 0
M  V30 1175 C 107.242 -2.49005 3.43304 0
M  V30 1176 N 107.633 -2.06946 4.61527 0
M  V30 1177 C 105.931 -2.79927 3.47213 0
M  V30 1178 C 106.632 -2.06832 5.43687 0
M  V30 1179 N 105.608 -2.47892 4.83788 0
M  V30 1180 H 109.41 -0.925955 2.78932 0
M  V30 1181 H 106.924 -0.415172 1.57003 0
M  V30 1182 H 108.921 -3.36798 2.45708 0
M  V30 1183 H 107.581 -2.94968 1.35735 0
M  V30 1184 H 108.592 -1.77839 4.86409 0
M  V30 1185 H 105.269 -3.18438 2.70006 0
M  V30 1186 H 106.659 -1.76312 6.48354 0
M  V30 1187 N 109.379 -1.50304 -0.473955 0
M  V30 1188 C 110.79 -1.54042 -1.0549 0
M  V30 1189 C 111.141 -0.342248 -1.93192 0
M  V30 1190 O 110.266 0.545157 -2.09421 0
M  V30 1191 C 110.861 -2.79152 -1.91989 0
M  V30 1192 C 109.42 -2.8558 -2.45196 0
M  V30 1193 C 108.567 -2.48295 -1.2347 0
M  V30 1194 H 111.518 -1.5661 -0.256693 0
M  V30 1195 H 111.539 -2.60845 -2.7702 0
M  V30 1196 H 111.051 -3.66339 -1.28131 0
M  V30 1197 H 109.152 -2.02738 -3.12615 0
M  V30 1198 H 109.265 -3.88403 -2.80499 0
M  V30 1199 H 107.629 -2.00669 -1.56856 0
M  V30 1200 H 108.412 -3.37787 -0.612789 0
M  V30 1201 N 110.857 0.726932 -1.39834 0
M  V30 1202 C 111.805 1.86235 -1.39353 0
M  V30 1203 C 112.799 1.67144 -0.275555 0
M  V30 1204 O 114.005 1.74387 -0.44601 0
M  V30 1205 H 110.38 0.613174 -0.43534 0
M  V30 1206 H 112.351 1.83756 -2.35109 0
M  V30 1207 C 111.1 3.23995 -1.26185 0
M  V30 1208 H 110.423 3.39285 -2.11484 0
M  V30 1209 H 111.863 4.03609 -1.29907 0
M  V30 1210 C 110.322 3.36888 0.0290018 0
M  V30 1211 O 110.852 3.89152 0.99619 0
M  V30 1212 N 109.058 2.90446 0.0947437 0
M  V30 1213 H 108.605 2.48102 -0.693035 0
M  V30 1214 H 108.563 2.99451 0.957932 0
M  V30 1215 N 112.336 1.25143 0.95797 0
M  V30 1216 C 113.585 1.0909 1.69654 0
M  V30 1217 C 113.898 -0.368548 1.92097 0
M  V30 1218 O 115.104 -0.649455 2.63618 0
M  V30 1219 C 113.56 1.90395 3.05414 0
M  V30 1220 C 113.168 3.4081 2.90779 0
M  V30 1221 C 114.912 1.82901 3.83076 0
M  V30 1222 C 112.819 4.14423 4.21909 0
M  V30 1223 H 111.749 0.404625 0.636235 0
M  V30 1224 H 114.4 1.4931 1.06672 0
M  V30 1225 H 112.782 1.42996 3.69281 0
M  V30 1226 H 113.956 3.95859 2.35865 0
M  V30 1227 H 112.271 3.49361 2.26575 0
M  V30 1228 H 114.868 2.35196 4.80195 0
M  V30 1229 H 115.211 0.796224 4.08615 0
M  V30 1230 H 115.744 2.28033 3.25954 0
M  V30 1231 H 112.483 5.18102 4.01561 0
M  V30 1232 H 112.003 3.64159 4.76601 0
M  V30 1233 H 113.682 4.21956 4.90471 0
M  V30 1234 N 113.814 -1.1601 1.06675 0
M  V30 1235 C 114.744 -2.22688 0.702307 0
M  V30 1236 C 115.725 -1.67306 -0.307032 0
M  V30 1237 O 116.91 -1.93352 -0.181305 0
M  V30 1238 C 114.04 -3.47178 0.092038 0
M  V30 1239 C 112.994 -4.15477 1.02777 0
M  V30 1240 C 112.32 -5.33963 0.28061 0
M  V30 1241 C 113.62 -4.66019 2.35846 0
M  V30 1242 H 115.314 -2.53429 1.59419 0
M  V30 1243 H 112.86 -1.21813 0.767961 0
M  V30 1244 H 114.813 -4.21037 -0.174814 0
M  V30 1245 H 113.537 -3.15749 -0.834877 0
M  V30 1246 H 112.196 -3.43549 1.27944 0
M  V30 1247 H 111.844 -4.98788 -0.649545 0
M  V30 1248 H 111.544 -5.806 0.904258 0
M  V30 1249 H 113.068 -6.10596 0.021396 0
M  V30 1250 H 114.482 -5.3144 2.15045 0
M  V30 1251 H 112.879 -5.23293 2.93743 0
M  V30 1252 H 113.949 -3.82023 2.98641 0
M  V30 1253 N 115.292 -0.849877 -1.32721 0
M  V30 1254 C 116.708 -0.539102 -1.50219 0
M  V30 1255 C 116.908 0.931271 -1.78689 0
M  V30 1256 O 115.964 1.71455 -1.85363 0
M  V30 1257 C 117.277 -1.42196 -2.64954 0
M  V30 1258 C 118.825 -1.42189 -2.78839 0
M  V30 1259 C 119.3 -2.28985 -3.96648 0
M  V30 1260 N 120.791 -2.26754 -4.03902 0
M  V30 1261 C 121.526 -2.90644 -4.94281 0
M  V30 1262 N 121.022 -3.63629 -5.897 0
M  V30 1263 N 122.815 -2.80057 -4.87365 0
M  V30 1264 H 114.966 -1.80156 -1.12506 0
M  V30 1265 H 117.229 -0.769217 -0.554085 0
M  V30 1266 H 116.935 -2.46733 -2.50631 0
M  V30 1267 H 116.809 -1.10591 -3.60624 0
M  V30 1268 H 119.196 -0.38419 -2.92588 0
M  V30 1269 H 119.277 -1.77807 -1.83898 0
M  V30 1270 H 118.921 -3.32819 -3.83658 0
M  V30 1271 H 118.851 -1.90702 -4.90857 0
M  V30 1272 H 121.342 -1.73688 -3.3562 0
M  V30 1273 H 121.655 -4.09558 -6.55349 0
M  V30 1274 H 120 -3.67737 -5.89741 0
M  V30 1275 H 123.191 -2.22593 -4.11789 0
M  V30 1276 H 123.364 -3.30132 -5.57599 0
M  V30 1277 N 116.77 1.45427 -0.607355 0
M  V30 1278 C 117.7 2.3329 0.0989352 0
M  V30 1279 C 118.681 1.46816 0.859007 0
M  V30 1280 O 119.866 1.75588 0.829604 0
M  V30 1281 C 116.996 3.29518 1.09705 0
M  V30 1282 C 115.95 4.25626 0.450206 0
M  V30 1283 C 115.276 5.11542 1.55655 0
M  V30 1284 C 116.576 5.18505 -0.628455 0
M  V30 1285 H 118.27 2.92595 -0.634716 0
M  V30 1286 H 115.816 1.40696 -0.306681 0
M  V30 1287 H 117.769 3.89855 1.59971 0
M  V30 1288 H 116.493 2.68372 1.86129 0
M  V30 1289 H 115.152 3.66586 -0.0315886 0
M  V30 1290 H 114.8 4.46765 2.31107 0
M  V30 1291 H 114.5 5.76647 1.12925 0
M  V30 1292 H 116.024 5.74748 2.06148 0
M  V30 1293 H 117.438 5.72916 -0.209877 0
M  V30 1294 H 115.835 5.92085 -0.977489 0
M  V30 1295 H 116.905 4.60948 -1.50514 0
M  V30 1296 N 118.248 0.346503 1.53744 0
M  V30 1297 C 119.494 -0.249473 2.0126 0
M  V30 1298 C 119.827 -1.49965 1.23386 0
M  V30 1299 O 119.102 -1.91811 0.32229 0
M  V30 1300 C 119.385 -0.560643 3.55709 0
M  V30 1301 C 119.238 0.701836 4.44291 0
M  V30 1302 C 120.557 -1.36905 4.18264 0
M  V30 1303 H 117.676 -0.0891987 0.731582 0
M  V30 1304 H 120.318 0.467624 1.84156 0
M  V30 1305 H 118.468 -1.17156 3.70414 0
M  V30 1306 H 120.14 1.33974 4.41417 0
M  V30 1307 H 118.383 1.32612 4.13033 0
M  V30 1308 H 119.054 0.43933 5.50249 0
M  V30 1309 H 121.53 -0.852448 4.07275 0
M  V30 1310 H 120.406 -1.55553 5.26398 0
M  V30 1311 H 120.667 -2.37203 3.73078 0
M  V30 1312 N 119.726 -1.57421 0.075193 0
M  V30 1313 C 120.689 -2.11791 -0.876203 0
M  V30 1314 C 121.689 -1.04268 -1.22412 0
M  V30 1315 O 122.879 -1.30242 -1.15684 0
M  V30 1316 C 120.011 -2.62207 -2.17854 0
M  V30 1317 H 121.204 -2.9716 -0.40444 0
M  V30 1318 H 118.757 -1.55333 -0.173557 0
M  V30 1319 H 119.492 -1.803 -2.6956 0
M  V30 1320 H 119.277 -3.40802 -1.93897 0
M  V30 1321 H 120.767 -3.04335 -2.85955 0
M  V30 1322 N 121.204 0.198386 -1.56346 0
M  V30 1323 C 122.434 0.934215 -1.84271 0
M  V30 1324 C 122.842 1.77496 -0.655125 0
M  V30 1325 O 122.185 1.7961 0.385488 0
M  V30 1326 C 122.247 1.88278 -3.06254 0
M  V30 1327 C 121.911 1.22431 -4.40295 0
M  V30 1328 C 122.908 0.602839 -5.16393 0
M  V30 1329 C 120.593 1.22915 -4.87029 0
M  V30 1330 C 122.587 -0.0050083 -6.374 0
M  V30 1331 C 120.274 0.617465 -6.07973 0
M  V30 1332 C 121.272 0.00146341 -6.83 0
M  V30 1333 O 120.96 -0.600642 -8.01653 0
M  V30 1334 H 120.692 0.278245 -0.616081 0
M  V30 1335 H 123.246 0.211626 -2.04307 0
M  V30 1336 H 121.476 2.64498 -2.82095 0
M  V30 1337 H 123.165 2.48612 -3.20853 0
M  V30 1338 H 123.931 0.591265 -4.81382 0
M  V30 1339 H 119.81 1.69801 -4.28589 0
M  V30 1340 H 123.354 -0.48643 -6.95902 0
M  V30 1341 H 119.251 0.62653 -6.42452 0
M  V30 1342 H 120.019 -0.497225 -8.16988 0
M  V30 1343 N 122.682 1.50554 0.465978 0
M  V30 1344 C 123.922 1.63439 1.22747 0
M  V30 1345 C 124.286 0.329822 1.89146 0
M  V30 1346 O 125.487 0.334161 2.66715 0
M  V30 1347 C 123.758 2.78542 2.2394 0
M  V30 1348 S 125.317 3.11591 3.0896 0
M  V30 1349 H 122.135 0.576113 0.416672 0
M  V30 1350 H 124.737 1.88357 0.523641 0
M  V30 1351 H 123.441 3.71805 1.7375 0
M  V30 1352 H 122.972 2.55726 2.98944 0
M  V30 1353 H 124.987 2.55811 4.25176 0
M  V30 1354 N 124.16 -0.719506 1.40217 0
M  V30 1355 C 125.09 -1.8465 1.42922 0
M  V30 1356 C 126.071 -1.67599 0.29062 0
M  V30 1357 O 127.256 -1.87688 0.498677 0
M  V30 1358 C 124.386 -3.22565 1.28722 0
M  V30 1359 C 123.34 -3.54281 2.40144 0
M  V30 1360 C 122.666 -4.91298 2.11023 0
M  V30 1361 C 123.966 -3.55676 3.82481 0
M  V30 1362 H 125.66 -1.82644 2.37237 0
M  V30 1363 H 123.206 -0.877305 1.1419 0
M  V30 1364 H 125.159 -4.01095 1.29232 0
M  V30 1365 H 123.883 -3.25137 0.308811 0
M  V30 1366 H 122.542 -2.78088 2.38877 0
M  V30 1367 H 122.19 -4.90468 1.11582 0
M  V30 1368 H 121.89 -5.13485 2.8567 0
M  V30 1369 H 123.414 -5.72166 2.13209 0
M  V30 1370 H 124.828 -4.24254 3.85592 0
M  V30 1371 H 123.225 -3.89388 4.56614 0
M  V30 1372 H 124.295 -2.55144 4.12346 0
M  V30 1373 N 125.638 -1.25649 -0.95132 0
M  V30 1374 C 127.054 -1.02542 -1.223 0
M  V30 1375 C 127.254 0.255715 -1.99871 0
M  V30 1376 O 126.31 0.967558 -2.33226 0
M  V30 1377 C 127.623 -2.25065 -1.99415 0
M  V30 1378 C 129.171 -2.29861 -2.12446 0
M  V30 1379 C 129.646 -3.52048 -2.92961 0
M  V30 1380 N 131.137 -3.52465 -3.00538 0
M  V30 1381 C 131.872 -4.43672 -3.63239 0
M  V30 1382 N 131.368 -5.45157 -4.27523 0
M  V30 1383 N 133.161 -4.31346 -3.60412 0
M  V30 1384 H 125.312 -2.07951 -0.432471 0
M  V30 1385 H 127.575 -0.91339 -0.253816 0
M  V30 1386 H 127.281 -3.18194 -1.49817 0
M  V30 1387 H 127.155 -2.28502 -3.00111 0
M  V30 1388 H 129.542 -1.37252 -2.61239 0
M  V30 1389 H 129.623 -2.3044 -1.11044 0
M  V30 1390 H 129.267 -4.44981 -2.44856 0
M  V30 1391 H 129.197 -3.48715 -3.94596 0
M  V30 1392 H 131.688 -2.79056 -2.54826 0
M  V30 1393 H 132.001 -6.10958 -4.73234 0
M  V30 1394 H 130.346 -5.49025 -4.26141 0
M  V30 1395 H 133.537 -3.51288 -3.09377 0
M  V30 1396 H 133.71 -5.02624 -4.0899 0
M  V30 1397 N 127.117 1.15442 -1.07289 0
M  V30 1398 C 128.027 2.23786 -0.704057 0
M  V30 1399 C 129.043 1.7166 0.284413 0
M  V30 1400 O 130.219 2.00972 0.131205 0
M  V30 1401 C 127.284 3.46535 -0.106792 0
M  V30 1402 C 126.345 4.13654 -1.14842 0
M  V30 1403 C 125.578 5.30544 -0.57956 0
M  V30 1404 O 125.801 5.67187 0.604585 0
M  V30 1405 O 124.735 5.87154 -1.32414 0
M  V30 1406 H 128.561 2.57664 -1.60757 0
M  V30 1407 H 126.146 1.23152 -0.845803 0
M  V30 1408 H 128.028 4.20804 0.224048 0
M  V30 1409 H 126.703 3.14407 0.770049 0
M  V30 1410 H 125.61 3.4131 -1.5316 0
M  V30 1411 H 126.943 4.49861 -1.99714 0
M  V30 1412 N 128.595 0.856903 1.32268 0
M  V30 1413 C 130.011 0.547061 1.49931 0
M  V30 1414 C 130.211 -0.921781 1.7918 0
M  V30 1415 O 129.267 -1.70469 1.8627 0
M  V30 1416 C 130.58 1.43599 2.64196 0
M  V30 1417 C 132.128 1.43665 2.78081 0
M  V30 1418 C 132.603 2.31085 3.95428 0
M  V30 1419 N 134.094 2.28893 4.02694 0
M  V30 1420 C 134.829 2.93262 4.92732 0
M  V30 1421 N 134.325 3.66751 5.87763 0
M  V30 1422 N 136.118 2.82638 4.85873 0
M  V30 1423 H 128.269 1.8075 1.11549 0
M  V30 1424 H 130.532 0.772144 0.549997 0
M  V30 1425 H 130.238 2.48058 2.49319 0
M  V30 1426 H 130.112 1.12502 3.60032 0
M  V30 1427 H 132.499 0.399701 2.92381 0
M  V30 1428 H 132.58 1.7878 1.82952 0
M  V30 1429 H 132.224 3.34849 3.81888 0
M  V30 1430 H 132.154 1.93302 4.89839 0
M  V30 1431 H 134.645 1.75466 3.34694 0
M  V30 1432 H 134.958 4.13027 6.53168 0
M  V30 1433 H 133.303 3.70859 5.87783 0
M  V30 1434 H 136.494 2.24774 4.10602 0
M  V30 1435 H 136.667 3.33084 5.55841 0
M  V30 1436 N 130.073 -1.45103 0.615059 0
M  V30 1437 C 131.321 -2.01784 0.112955 0
M  V30 1438 C 131.642 -1.48504 -1.26378 0
M  V30 1439 O 130.912 -0.682245 -1.83636 0
M  V30 1440 H 129.492 -0.745993 0.0387668 0
M  V30 1441 H 132.154 -1.77808 0.798141 0
M  V30 1442 H 131.25 -3.12025 0.0684069 0
M  V30 1443 N 131.551 -0.354651 -1.53558 0
M  V30 1444 C 132.514 0.484566 -2.24019 0
M  V30 1445 C 133.514 1.01861 -1.24422 0
M  V30 1446 O 134.704 0.906097 -1.4878 0
M  V30 1447 C 131.836 1.67615 -2.96847 0
M  V30 1448 H 133.029 -0.131843 -2.9961 0
M  V30 1449 H 130.582 -0.106165 -1.55939 0
M  V30 1450 H 131.317 2.33095 -2.25471 0
M  V30 1451 H 131.102 1.30029 -3.69912 0
M  V30 1452 H 132.592 2.27114 -3.50441 0
M  V30 1453 N 133.029 1.57378 -0.0835403 0
M  V30 1454 C 133.976 2.13384 0.879539 0
M  V30 1455 C 134.946 1.04936 1.28754 0
M  V30 1456 O 136.131 1.32662 1.37133 0
M  V30 1457 C 133.271 2.70932 2.13752 0
M  V30 1458 C 132.384 3.93575 1.7811 0
M  V30 1459 C 131.519 4.39326 2.98607 0
M  V30 1460 C 130.558 5.54587 2.59037 0
M  V30 1461 N 129.695 5.95243 3.72331 0
M  V30 1462 H 134.535 2.9537 0.395076 0
M  V30 1463 H 132.072 1.45953 0.183349 0
M  V30 1464 H 134.03 3.02411 2.87408 0
M  V30 1465 H 132.66 1.91693 2.59718 0
M  V30 1466 H 131.712 3.68483 0.94469 0
M  V30 1467 H 133.024 4.77258 1.45005 0
M  V30 1468 H 132.178 4.72528 3.80529 0
M  V30 1469 H 130.917 3.5452 3.34913 0
M  V30 1470 H 129.922 5.21024 1.75539 0
M  V30 1471 H 131.147 6.41133 2.23887 0
M  V30 1472 H 129.093 5.13385 4.08378 0
M  V30 1473 H 129.01 6.73694 3.43034 0
M  V30 1474 H 130.278 6.33072 4.54797 0
M  V30 1475 N 134.507 -0.190092 1.56449 0
M  V30 1476 C 135.457 -1.23977 1.91347 0
M  V30 1477 C 136.441 -1.40747 0.779693 0
M  V30 1478 O 137.633 -1.43033 1.04262 0
M  V30 1479 C 134.762 -2.58347 2.26079 0
M  V30 1480 C 133.848 -2.4535 3.45925 0
M  V30 1481 N 134.239 -2.02039 4.63696 0
M  V30 1482 C 132.537 -2.76229 3.50162 0
M  V30 1483 C 133.238 -2.01053 5.4585 0
M  V30 1484 N 132.214 -2.42747 4.8639 0
M  V30 1485 H 136.016 -0.896318 2.79899 0
M  V30 1486 H 133.53 -0.398496 1.57435 0
M  V30 1487 H 135.527 -3.34173 2.49267 0
M  V30 1488 H 134.187 -2.93512 1.38856 0
M  V30 1489 H 135.198 -1.7267 4.88268 0
M  V30 1490 H 131.875 -3.15556 2.73369 0
M  V30 1491 H 133.265 -1.69426 6.50188 0
M  V30 1492 N 135.985 -1.50799 -0.457987 0
M  V30 1493 C 136.895 -1.73426 -1.57989 0
M  V30 1494 C 137.911 -0.617745 -1.62665 0
M  V30 1495 O 139.087 -0.897614 -1.80291 0
M  V30 1496 C 136.152 -1.83557 -2.94122 0
M  V30 1497 C 135.213 -3.07345 -2.99729 0
M  V30 1498 C 134.446 -3.16983 -4.29368 0
M  V30 1499 O 134.669 -2.33077 -5.20607 0
M  V30 1500 O 133.603 -4.09812 -4.40837 0
M  V30 1501 H 137.429 -2.68555 -1.41817 0
M  V30 1502 H 135.014 -1.35052 -0.638859 0
M  V30 1503 H 136.896 -1.92326 -3.74952 0
M  V30 1504 H 135.571 -0.916137 -3.10465 0
M  V30 1505 H 134.478 -3.04068 -2.1793 0
M  V30 1506 H 135.811 -3.9891 -2.88326 0
M  V30 1507 N 137.463 0.71206 -1.40597 0
M  V30 1508 C 138.426 1.80785 -1.40888 0
M  V30 1509 C 139.426 1.57937 -0.302103 0
M  V30 1510 O 140.616 1.64913 -0.561182 0
M  V30 1511 C 137.748 3.18927 -1.20409 0
M  V30 1512 H 138.941 1.81924 -2.38419 0
M  V30 1513 H 136.494 0.91805 -1.26497 0
M  V30 1514 H 137.229 3.23436 -0.236522 0
M  V30 1515 H 137.014 3.36911 -2.00582 0
M  V30 1516 H 138.504 3.98949 -1.23408 0
M  V30 1517 N 138.941 1.26152 0.944643 0
M  V30 1518 C 140.187 1.12665 1.69346 0
M  V30 1519 C 140.542 -0.3273 1.89596 0
M  V30 1520 O 139.835 -1.23717 1.46303 0
M  V30 1521 C 140.029 1.82541 3.07268 0
M  V30 1522 C 139.858 3.34582 3.00475 0
M  V30 1523 C 138.628 4.03863 3.03681 0
M  V30 1524 C 140.826 4.30828 2.80877 0
M  V30 1525 N 138.808 5.42603 2.87151 0
M  V30 1526 C 140.179 5.5672 2.7288 0
M  V30 1527 C 142.234 4.21122 2.65633 0
M  V30 1528 C 140.937 6.74013 2.51196 0
M  V30 1529 C 142.963 5.38118 2.45323 0
M  V30 1530 C 142.325 6.62955 2.38055 0
M  V30 1531 H 138.424 0.467041 0.627214 0
M  V30 1532 H 141.008 1.59391 1.11815 0
M  V30 1533 H 139.179 1.38296 3.62945 0
M  V30 1534 H 140.911 1.61708 3.70989 0
M  V30 1535 H 137.666 3.55198 3.1326 0
M  V30 1536 H 138.09 6.15443 2.82063 0
M  V30 1537 H 142.732 3.25344 2.70021 0
M  V30 1538 H 140.45 7.6989 2.4555 0
M  V30 1539 H 144.036 5.32475 2.34439 0
M  V30 1540 H 142.916 7.51959 2.22546 0
M  V30 1541 N 140.419 -1.14872 1.07899 0
M  V30 1542 C 141.349 -2.2193 0.725887 0
M  V30 1543 C 142.33 -1.67622 -0.28927 0
M  V30 1544 O 143.515 -1.93533 -0.160787 0
M  V30 1545 C 140.645 -3.47061 0.128856 0
M  V30 1546 C 139.599 -4.14363 1.07178 0
M  V30 1547 C 138.925 -5.33636 0.337229 0
M  V30 1548 C 140.225 -4.63492 2.40775 0
M  V30 1549 H 141.919 -2.51724 1.62097 0
M  V30 1550 H 139.465 -1.20991 0.780838 0
M  V30 1551 H 141.418 -4.21199 -0.130147 0
M  V30 1552 H 140.142 -3.16617 -0.80134 0
M  V30 1553 H 138.801 -3.42173 1.3158 0
M  V30 1554 H 138.449 -4.99449 -0.596606 0
M  V30 1555 H 138.149 -5.79609 0.965788 0
M  V30 1556 H 139.673 -6.10539 0.0861567 0
M  V30 1557 H 141.087 -5.2913 2.20669 0
M  V30 1558 H 139.484 -5.20148 2.99276 0
M  V30 1559 H 140.554 -3.78834 3.02676 0
M  V30 1560 N 141.898 -0.863906 -1.31812 0
M  V30 1561 C 142.828 -0.330843 -2.31144 0
M  V30 1562 C 143.809 0.575005 -1.60087 0
M  V30 1563 O 144.994 0.493304 -1.8783 0
M  V30 1564 C 142.124 0.47374 -3.44054 0
M  V30 1565 C 141.078 -0.338481 -4.26659 0
M  V30 1566 C 140.404 0.591412 -5.31419 0
M  V30 1567 C 141.704 -1.56926 -4.98168 0
M  V30 1568 H 143.398 -1.16086 -2.75979 0
M  V30 1569 H 140.944 -0.559657 -1.32679 0
M  V30 1570 H 142.897 0.857143 -4.12591 0
M  V30 1571 H 141.621 1.33721 -2.9797 0
M  V30 1572 H 140.28 -0.703754 -3.59782 0
M  V30 1573 H 139.928 1.45199 -4.81587 0
M  V30 1574 H 139.628 0.0519022 -5.87577 0
M  V30 1575 H 141.152 0.97179 -6.02817 0
M  V30 1576 H 142.566 -1.25764 -5.59336 0
M  V30 1577 H 140.963 -2.04739 -5.64094 0
M  V30 1578 H 142.033 -2.32544 -4.25501 0
M  V30 1579 N 143.376 1.44774 -0.622745 0
M  V30 1580 C 144.306 2.33382 0.0741861 0
M  V30 1581 C 145.287 1.47719 0.843387 0
M  V30 1582 O 146.472 1.76458 0.810934 0
M  V30 1583 C 143.602 3.30663 1.06204 0
M  V30 1584 C 142.556 4.26079 0.405037 0
M  V30 1585 C 141.882 5.13165 1.5022 0
M  V30 1586 C 143.182 5.1781 -0.683414 0
M  V30 1587 H 144.876 2.91905 -0.665713 0
M  V30 1588 H 142.422 1.40363 -0.321587 0
M  V30 1589 H 144.375 3.9153 1.55827 0
M  V30 1590 H 143.099 2.70331 1.83272 0
M  V30 1591 H 141.758 3.66532 -0.0704683 0
M  V30 1592 H 141.406 4.49191 2.26355 0
M  V30 1593 H 141.106 5.77812 1.06803 0
M  V30 1594 H 142.63 5.76902 2.00041 0
M  V30 1595 H 144.044 5.72661 -0.270631 0
M  V30 1596 H 142.441 5.91015 -1.04023 0
M  V30 1597 H 143.511 4.59326 -1.55395 0
M  V30 1598 N 144.854 0.36279 1.53368 0
M  V30 1599 C 146.265 -0.117022 1.86333 0
M  V30 1600 C 146.616 -1.48397 1.28347 0
M  V30 1601 O 145.741 -2.07787 0.604428 0
M  V30 1602 C 146.336 -0.21912 3.38091 0
M  V30 1603 C 144.895 -0.643184 3.70864 0
M  V30 1604 C 144.042 0.211318 2.76494 0
M  V30 1605 H 146.993 0.581687 1.47655 0
M  V30 1606 H 147.014 -1.04319 3.6592 0
M  V30 1607 H 146.526 0.775902 3.80265 0
M  V30 1608 H 144.627 -1.64654 3.34245 0
M  V30 1609 H 144.74 -0.41973 4.77258 0
M  V30 1610 H 143.104 -0.319367 2.5269 0
M  V30 1611 H 143.887 1.20383 3.21501 0
M  V30 1612 N 146.332 -1.57332 0.0918853 0
M  V30 1613 C 147.579 -1.94236 -0.572577 0
M  V30 1614 C 147.907 -0.973398 -1.6839 0
M  V30 1615 O 147.162 0.00756912 -1.95699 0
M  V30 1616 C 147.461 -3.37689 -1.17051 0
M  V30 1617 C 147.127 -4.50527 -0.183304 0
M  V30 1618 C 145.789 -4.81119 0.0882276 0
M  V30 1619 C 148.141 -5.18883 0.49095 0
M  V30 1620 C 145.469 -5.77395 1.04076 0
M  V30 1621 C 147.821 -6.1618 1.43193 0
M  V30 1622 C 146.485 -6.45179 1.71173 0
M  V30 1623 H 145.755 -0.710762 -0.209521 0
M  V30 1624 H 148.402 -1.9077 0.167036 0
M  V30 1625 H 146.707 -3.37718 -1.9863 0
M  V30 1626 H 148.404 -3.63543 -1.69227 0
M  V30 1627 H 144.994 -4.26681 -0.405124 0
M  V30 1628 H 149.178 -4.95427 0.294312 0
M  V30 1629 H 144.434 -5.98179 1.26457 0
M  V30 1630 H 148.608 -6.68243 1.96023 0
M  V30 1631 H 146.235 -7.1959 2.4514 0
M  V30 1632 N 147.81 0.181792 -1.56548 0
M  V30 1633 C 149.057 0.900097 -1.81396 0
M  V30 1634 C 149.385 1.82695 -0.667281 0
M  V30 1635 O 148.64 1.92614 0.346146 0
M  V30 1636 C 148.939 1.73728 -3.12335 0
M  V30 1637 C 148.605 0.960255 -4.40556 0
M  V30 1638 C 147.267 0.745766 -4.75386 0
M  V30 1639 C 149.619 0.414477 -5.19549 0
M  V30 1640 C 146.947 -0.0257694 -5.86694 0
M  V30 1641 C 149.299 -0.343916 -6.31664 0
M  V30 1642 C 147.963 -0.569301 -6.65068 0
M  V30 1643 H 147.233 0.329369 -0.663775 0
M  V30 1644 H 149.88 0.165647 -1.90782 0
M  V30 1645 H 148.185 2.54081 -2.98245 0
M  V30 1646 H 149.882 2.29591 -3.28769 0
M  V30 1647 H 146.472 1.13746 -4.13231 0
M  V30 1648 H 150.656 0.567554 -4.93044 0
M  V30 1649 H 145.912 -0.210233 -6.11038 0
M  V30 1650 H 150.086 -0.774133 -6.92084 0
M  V30 1651 H 147.713 -1.16903 -7.51158 0
M  V30 1652 N 149.288 1.51039 0.449983 0
M  V30 1653 C 150.235 1.71439 1.54523 0
M  V30 1654 C 151.205 0.555871 1.56522 0
M  V30 1655 O 152.39 0.788871 1.73728 0
M  V30 1656 C 149.53 1.83384 2.92343 0
M  V30 1657 C 148.643 3.10873 2.9997 0
M  V30 1658 C 147.778 3.13488 4.28834 0
M  V30 1659 C 146.817 4.35343 4.30282 0
M  V30 1660 N 145.954 4.35579 5.5065 0
M  V30 1661 H 150.794 2.64934 1.36433 0
M  V30 1662 H 148.331 1.31312 0.662982 0
M  V30 1663 H 150.289 1.88291 3.72293 0
M  V30 1664 H 148.919 0.933086 3.0902 0
M  V30 1665 H 147.971 3.15336 2.12761 0
M  V30 1666 H 149.283 4.00814 2.96901 0
M  V30 1667 H 148.437 3.17241 5.17149 0
M  V30 1668 H 147.176 2.21414 4.34543 0
M  V30 1669 H 146.181 4.3178 3.40362 0
M  V30 1670 H 147.406 5.28668 4.26248 0
M  V30 1671 H 145.352 3.46369 5.57104 0
M  V30 1672 H 145.269 5.19313 5.49409 0
M  V30 1673 H 146.537 4.43507 6.41032 0
M  V30 1674 N 150.766 -0.704594 1.40972 0
M  V30 1675 C 152.182 -1.01406 1.23244 0
M  V30 1676 C 152.382 -2.01169 0.115399 0
M  V30 1677 O 151.438 -2.47021 -0.523147 0
M  V30 1678 C 152.751 -1.54728 2.57836 0
M  V30 1679 C 154.299 -1.66658 2.64942 0
M  V30 1680 C 154.774 -2.23383 3.9983 0
M  V30 1681 N 156.265 -2.30756 4.01629 0
M  V30 1682 C 157 -2.75655 5.02794 0
M  V30 1683 N 156.496 -3.20225 6.14352 0
M  V30 1684 N 158.289 -2.75138 4.90159 0
M  V30 1685 H 150.44 -0.0435285 2.12355 0
M  V30 1686 H 152.703 -0.0818951 0.944456 0
M  V30 1687 H 152.409 -0.888832 3.40283 0
M  V30 1688 H 152.283 -2.53084 2.79693 0
M  V30 1689 H 154.67 -2.31617 1.8286 0
M  V30 1690 H 154.751 -0.668717 2.46904 0
M  V30 1691 H 154.395 -1.59043 4.82357 0
M  V30 1692 H 154.325 -3.23904 4.15203 0
M  V30 1693 H 156.816 -1.99291 3.21079 0
M  V30 1694 H 157.129 -3.53084 6.87424 0
M  V30 1695 H 155.474 -3.18156 6.17901 0
M  V30 1696 H 158.665 -2.39661 4.02095 0
M  V30 1697 H 158.838 -3.09812 5.6914 0
M  V30 1698 N 152.244 -1.26651 -0.937939 0
M  V30 1699 C 153.492 -1.12165 -1.68118 0
M  V30 1700 C 153.813 0.334983 -1.92101 0
M  V30 1701 O 153.083 1.23583 -1.52 0
M  V30 1702 H 151.663 -0.412093 -0.623048 0
M  V30 1703 H 154.325 -1.59027 -1.12678 0
M  V30 1704 H 153.421 -1.64289 -2.6536 0
M  V30 1705 N 153.722 1.14298 -1.08507 0
M  V30 1706 C 154.95 1.89219 -0.836876 0
M  V30 1707 C 155.365 1.78638 0.611054 0
M  V30 1708 O 154.722 1.14643 1.41998 0
M  V30 1709 C 154.773 3.39158 -1.25116 0
M  V30 1710 O 154.494 3.49449 -2.64229 0
M  V30 1711 C 155.995 4.31073 -1.03398 0
M  V30 1712 H 153.215 0.599328 -0.301739 0
M  V30 1713 H 155.759 1.44746 -1.44461 0
M  V30 1714 H 153.914 3.81251 -0.687514 0
M  V30 1715 H 154.328 4.42589 -2.81452 0
M  V30 1716 H 155.802 5.34646 -1.37323 0
M  V30 1717 H 156.279 4.3919 0.0289259 0
M  V30 1718 H 156.885 3.94738 -1.58311 0
M  V30 1719 N 155.201 0.870884 1.31352 0
M  V30 1720 C 156.131 0.343096 2.30966 0
M  V30 1721 C 157.112 -0.566507 1.60389 0
M  V30 1722 O 158.297 -0.483336 1.88089 0
M  V30 1723 C 155.427 -0.455487 3.443 0
M  V30 1724 C 154.381 0.361103 4.26474 0
M  V30 1725 C 153.707 -0.563221 5.31725 0
M  V30 1726 C 155.007 1.59566 4.97329 0
M  V30 1727 H 156.701 1.17548 2.75359 0
M  V30 1728 H 154.247 0.566686 1.32381 0
M  V30 1729 H 156.2 -0.83525 4.13039 0
M  V30 1730 H 154.924 -1.32139 2.98675 0
M  V30 1731 H 153.583 0.722825 3.59403 0
M  V30 1732 H 153.231 -1.42643 4.82351 0
M  V30 1733 H 152.931 -0.0207409 5.87596 0
M  V30 1734 H 154.455 -0.939808 6.03324 0
M  V30 1735 H 155.869 1.28728 5.58661 0
M  V30 1736 H 154.266 2.07728 5.63 0
M  V30 1737 H 155.336 2.34798 4.24262 0
M  V30 1738 N 156.679 -1.44442 0.630414 0
M  V30 1739 C 157.925 -2.02894 0.143332 0
M  V30 1740 C 158.28 -1.48697 -1.22094 0
M  V30 1741 O 157.573 -0.661171 -1.79831 0
M  V30 1742 C 157.767 -3.57332 0.0697835 0
M  V30 1743 C 157.596 -4.26512 1.42539 0
M  V30 1744 C 156.366 -4.63516 2.01198 0
M  V30 1745 C 158.564 -4.57004 2.35907 0
M  V30 1746 N 156.546 -5.17661 3.30001 0
M  V30 1747 C 157.917 -5.12223 3.49324 0
M  V30 1748 C 159.972 -4.38955 2.34995 0
M  V30 1749 C 158.675 -5.51295 4.62024 0
M  V30 1750 C 160.701 -4.79075 3.46758 0
M  V30 1751 C 160.063 -5.34407 4.58899 0
M  V30 1752 H 156.162 -0.776041 0.0963523 0
M  V30 1753 H 158.746 -1.75945 0.833752 0
M  V30 1754 H 156.917 -3.83894 -0.589915 0
M  V30 1755 H 158.649 -4.02451 -0.42606 0
M  V30 1756 H 155.404 -4.47811 1.54151 0
M  V30 1757 H 155.828 -5.4921 3.95851 0
M  V30 1758 H 160.47 -3.95469 1.49545 0
M  V30 1759 H 158.188 -5.93736 5.48182 0
M  V30 1760 H 161.774 -4.66824 3.47227 0
M  V30 1761 H 160.654 -5.64878 5.4395 0
M  V30 1762 N 158.157 -0.370918 -1.53173 0
M  V30 1763 C 159.105 0.488101 -2.27421 0
M  V30 1764 C 160.099 1.07884 -1.30604 0
M  V30 1765 O 161.305 1.02143 -1.48212 0
M  V30 1766 H 157.68 0.176134 -0.731082 0
M  V30 1767 H 159.651 -0.159815 -2.97972 0
M  V30 1768 C 158.4 1.61306 -3.08019 0
M  V30 1769 H 157.723 1.1678 -3.82364 0
M  V30 1770 H 159.163 2.18872 -3.63141 0
M  V30 1771 C 157.622 2.55848 -2.19188 0
M  V30 1772 O 158.152 3.58799 -1.80626 0
M  V30 1773 N 156.358 2.2516 -1.83715 0
M  V30 1774 H 155.905 1.41476 -2.15273 0
M  V30 1775 H 155.863 2.8867 -1.24567 0
M  V30 1776 N 159.635 1.57281 -0.100228 0
M  V30 1777 C 160.545 2.17833 0.870965 0
M  V30 1778 C 161.561 1.14921 1.30649 0
M  V30 1779 O 162.737 1.47313 1.37335 0
M  V30 1780 C 159.802 2.75085 2.1102 0
M  V30 1781 C 158.863 3.9297 1.72838 0
M  V30 1782 C 158.096 4.47482 2.90854 0
M  V30 1783 O 158.319 4.00922 4.05731 0
M  V30 1784 O 157.253 5.38433 2.69023 0
M  V30 1785 H 161.079 3.0124 0.38575 0
M  V30 1786 H 158.664 1.48881 0.124397 0
M  V30 1787 H 160.546 3.11656 2.83634 0
M  V30 1788 H 159.221 1.94721 2.58584 0
M  V30 1789 H 158.128 3.61201 0.973883 0
M  V30 1790 H 159.461 4.74713 1.30033 0
M  V30 1791 N 161.113 -0.173488 1.56642 0
M  V30 1792 C 162.362 -0.888758 1.81063 0
M  V30 1793 C 162.675 -1.83506 0.67712 0
M  V30 1794 O 163.881 -2.59254 0.806206 0
M  V30 1795 C 162.337 -1.63091 3.20826 0
M  V30 1796 C 161.945 -0.728357 4.4204 0
M  V30 1797 C 163.689 -2.33454 3.54541 0
M  V30 1798 C 161.596 -1.47062 5.72823 0
M  V30 1799 H 160.526 -0.335618 0.675186 0
M  V30 1800 H 163.177 -0.141712 1.82952 0
M  V30 1801 H 161.559 -2.42263 3.13248 0
M  V30 1802 H 162.733 0.0262449 4.60793 0
M  V30 1803 H 161.048 -0.134492 4.16183 0
M  V30 1804 H 163.645 -2.89578 4.49498 0
M  V30 1805 H 163.988 -3.08687 2.79317 0
M  V30 1806 H 164.521 -1.61227 3.63663 0
M  V30 1807 H 161.26 -0.760658 6.51072 0
M  V30 1808 H 160.78 -2.1986 5.58052 0
M  V30 1809 H 162.459 -2.01868 6.14702 0
M  V30 1810 N 162.591 -1.51276 -0.441967 0
M  V30 1811 C 163.501 -1.75092 -1.56141 0
M  V30 1812 C 164.517 -0.634963 -1.62001 0
M  V30 1813 O 165.693 -0.916686 -1.79329 0
M  V30 1814 C 162.758 -1.86666 -2.92158 0
M  V30 1815 C 161.819 -3.10506 -2.96453 0
M  V30 1816 C 161.052 -3.21519 -4.25982 0
M  V30 1817 O 161.275 -2.38586 -5.18105 0
M  V30 1818 O 160.209 -4.14465 -4.36466 0
M  V30 1819 H 164.035 -2.70044 -1.38961 0
M  V30 1820 H 161.62 -1.35722 -0.624499 0
M  V30 1821 H 163.502 -1.96292 -3.72891 0
M  V30 1822 H 162.177 -0.949014 -3.09476 0
M  V30 1823 H 161.084 -3.06363 -2.14692 0
M  V30 1824 H 162.417 -4.01945 -2.84079 0
M  V30 1825 N 164.069 0.697108 -1.41344 0
M  V30 1826 C 165.485 1.00751 -1.2378 0
M  V30 1827 C 165.685 2.01105 -0.126066 0
M  V30 1828 O 164.741 2.47295 0.51004 0
M  V30 1829 C 166.054 1.53359 -2.58653 0
M  V30 1830 C 167.602 1.6525 -2.65822 0
M  V30 1831 C 168.077 2.2126 -4.01009 0
M  V30 1832 N 169.568 2.28622 -4.02847 0
M  V30 1833 C 170.303 2.72984 -5.04249 0
M  V30 1834 N 169.799 3.16962 -6.16041 0
M  V30 1835 N 171.592 2.72534 -4.91611 0
M  V30 1836 H 163.743 0.0322662 -2.12375 0
M  V30 1837 H 166.006 0.0768853 -0.944877 0
M  V30 1838 H 165.712 0.870773 -3.4075 0
M  V30 1839 H 165.586 2.51597 -2.81032 0
M  V30 1840 H 167.973 2.30644 -1.84086 0
M  V30 1841 H 168.054 0.655614 -2.47256 0
M  V30 1842 H 167.698 1.56482 -4.83193 0
M  V30 1843 H 167.628 3.21698 -4.16915 0
M  V30 1844 H 170.119 1.97585 -3.22131 0
M  V30 1845 H 170.432 3.49434 -6.89287 0
M  V30 1846 H 168.777 3.14875 -6.1958 0
M  V30 1847 H 171.968 2.37525 -4.0336 0
M  V30 1848 H 172.141 3.06789 -5.70775 0
M  V30 1849 N 165.547 1.27147 0.931209 0
M  V30 1850 C 166.477 1.12081 2.04842 0
M  V30 1851 C 167.458 0.0232364 1.70084 0
M  V30 1852 O 168.643 0.197085 1.93197 0
M  V30 1853 C 165.773 0.76354 3.38803 0
M  V30 1854 C 164.727 1.81396 3.87659 0
M  V30 1855 C 164.053 1.31075 5.18385 0
M  V30 1856 C 165.353 3.21739 4.11438 0
M  V30 1857 H 167.047 2.05537 2.17703 0
M  V30 1858 H 164.593 0.989603 1.04608 0
M  V30 1859 H 166.546 0.644982 4.16435 0
M  V30 1860 H 165.27 -0.206727 3.25945 0
M  V30 1861 H 163.929 1.92136 3.12217 0
M  V30 1862 H 163.577 0.330037 5.01916 0
M  V30 1863 H 163.277 2.013 5.52044 0
M  V30 1864 H 164.801 1.20506 5.98591 0
M  V30 1865 H 166.215 3.14019 4.79651 0
M  V30 1866 H 164.612 3.89644 4.56397 0
M  V30 1867 H 165.682 3.67054 3.16859 0
M  V30 1868 N 167.025 -1.13721 1.09112 0
M  V30 1869 C 167.972 -2.19031 0.727591 0
M  V30 1870 C 168.942 -1.63555 -0.289656 0
M  V30 1871 O 170.127 -1.90023 -0.172026 0
M  V30 1872 C 167.267 -3.4477 0.15082 0
M  V30 1873 C 166.38 -4.14365 1.22172 0
M  V30 1874 C 165.515 -5.27709 0.608042 0
M  V30 1875 C 164.554 -5.89147 1.66047 0
M  V30 1876 N 163.691 -6.93929 1.06806 0
M  V30 1877 H 168.531 -2.49475 1.62991 0
M  V30 1878 H 166.068 -1.22499 0.81439 0
M  V30 1879 H 168.026 -4.16714 -0.201358 0
M  V30 1880 H 166.656 -3.14787 -0.714783 0
M  V30 1881 H 165.708 -3.40737 1.69122 0
M  V30 1882 H 167.02 -4.56114 2.01895 0
M  V30 1883 H 166.174 -6.06355 0.204523 0
M  V30 1884 H 164.913 -4.872 -0.220769 0
M  V30 1885 H 163.918 -5.09198 2.07357 0
M  V30 1886 H 165.143 -6.31729 2.49189 0
M  V30 1887 H 163.089 -6.55483 0.260476 0
M  V30 1888 H 163.006 -7.34202 1.8023 0
M  V30 1889 H 164.274 -7.76434 0.690644 0
M  V30 1890 N 168.503 -0.877838 -1.30888 0
M  V30 1891 C 169.78 -0.413052 -1.91189 0
M  V30 1892 C 170.16 1.1056 -1.79832 0
M  V30 1893 O 169.508 1.93771 -1.21099 0
M  V30 1894 C 169.718 -0.903191 -3.3711 0
M  V30 1895 C 171.066 -0.93395 -4.14201 0
M  V30 1896 O 172.09 -0.849373 -3.45925 0
M  V30 1897 O 170.949 -1.05772 -5.36167 0
M  V30 1898 H 168.043 -0.125035 -0.817493 0
M  V30 1899 H 170.589 -0.966269 -1.39504 0
M  V30 1900 H 169.361 -1.94692 -3.39427 0
M  V30 1901 H 168.984 -0.328732 -3.96239 0
M  V30 1902 N 169.982 1.44106 -0.638065 0
M  V30 1903 C 170.929 2.30715 0.062701 0
M  V30 1904 C 171.899 1.43882 0.829883 0
M  V30 1905 O 173.084 1.72775 0.809532 0
M  V30 1906 C 170.224 3.29258 1.03358 0
M  V30 1907 C 169.337 4.31192 0.26409 0
M  V30 1908 C 168.472 5.16825 1.22741 0
M  V30 1909 C 167.511 6.10462 0.447475 0
M  V30 1910 N 166.648 6.8877 1.36161 0
M  V30 1911 H 171.488 2.90096 -0.681781 0
M  V30 1912 H 169.025 1.42925 -0.347988 0
M  V30 1913 H 170.983 3.84886 1.60992 0
M  V30 1914 H 169.613 2.71562 1.74511 0
M  V30 1915 H 168.665 3.77981 -0.428295 0
M  V30 1916 H 169.977 4.97619 -0.343052 0
M  V30 1917 H 169.131 5.77004 1.87487 0
M  V30 1918 H 167.87 4.50488 1.86847 0
M  V30 1919 H 166.875 5.49386 -0.213433 0
M  V30 1920 H 168.1 6.78837 -0.188968 0
M  V30 1921 H 166.046 6.25096 1.98975 0
M  V30 1922 H 165.963 7.51663 0.808656 0
M  V30 1923 H 167.231 7.53467 1.99769 0
M  V30 1924 N 171.46 0.379036 1.52974 0
M  V30 1925 C 172.708 -0.206014 2.01047 0
M  V30 1926 C 173.029 -1.48175 1.26765 0
M  V30 1927 O 172.299 -1.92085 0.384743 0
M  V30 1928 H 170.879 -0.0791184 0.742798 0
M  V30 1929 H 173.541 0.508366 1.88153 0
M  V30 1930 H 172.637 -0.423501 3.09213 0
M  V30 1931 N 172.938 -1.57226 0.108567 0
M  V30 1932 C 173.886 -2.16002 -0.862885 0
M  V30 1933 C 174.88 -1.10644 -1.28274 0
M  V30 1934 O 176.086 -1.28966 -1.2557 0
M  V30 1935 H 172.461 -0.691148 -0.296342 0
M  V30 1936 H 174.432 -2.96427 -0.342575 0
M  V30 1937 C 173.181 -2.76576 -2.10716 0
M  V30 1938 H 172.504 -3.5734 -1.793 0
M  V30 1939 H 173.944 -3.21253 -2.76717 0
M  V30 1940 C 172.403 -1.73137 -2.89007 0
M  V30 1941 O 172.933 -1.17842 -3.84026 0
M  V30 1942 N 171.139 -1.43317 -2.52801 0
M  V30 1943 H 170.686 -1.88473 -1.75601 0
M  V30 1944 H 170.644 -0.743485 -3.05483 0
M  V30 1945 N 174.416 0.165178 -1.56732 0
M  V30 1946 C 175.663 0.880807 -1.8234 0
M  V30 1947 C 175.991 1.81977 -0.686621 0
M  V30 1948 O 175.246 1.92971 0.325697 0
M  V30 1949 C 175.545 1.70405 -3.1416 0
M  V30 1950 C 175.211 0.913475 -4.4155 0
M  V30 1951 C 173.873 0.695303 -4.7615 0
M  V30 1952 C 176.225 0.359349 -5.1996 0
M  V30 1953 C 173.553 -0.0879947 -5.86634 0
M  V30 1954 C 175.905 -0.410893 -6.31264 0
M  V30 1955 C 174.569 -0.639808 -6.64427 0
M  V30 1956 H 173.839 0.32231 -0.667231 0
M  V30 1957 H 176.486 0.145402 -1.90947 0
M  V30 1958 H 174.791 2.50903 -3.00923 0
M  V30 1959 H 176.488 2.26091 -3.31186 0
M  V30 1960 H 173.078 1.09357 -4.14414 0
M  V30 1961 H 177.262 0.515228 -4.93618 0
M  V30 1962 H 172.518 -0.27503 -6.10781 0
M  V30 1963 H 176.692 -0.847494 -6.91224 0
M  V30 1964 H 174.319 -1.24864 -7.49875 0
M  V30 1965 N 175.894 1.51508 0.433938 0
M  V30 1966 C 176.824 1.76016 1.53429 0
M  V30 1967 C 177.805 0.610112 1.58782 0
M  V30 1968 O 178.99 0.853177 1.74455 0
M  V30 1969 C 176.12 1.88831 2.9148 0
M  V30 1970 C 175.074 3.04288 3.00987 0
M  V30 1971 C 174.4 3.0229 4.4105 0
M  V30 1972 C 175.7 4.44193 2.74754 0
M  V30 1973 H 177.394 2.68152 1.33171 0
M  V30 1974 H 174.94 1.29035 0.639214 0
M  V30 1975 H 176.893 2.04559 3.6842 0
M  V30 1976 H 175.617 0.933455 3.12976 0
M  V30 1977 H 174.276 2.8827 2.26486 0
M  V30 1978 H 173.924 2.04576 4.59519 0
M  V30 1979 H 173.624 3.79822 4.4834 0
M  V30 1980 H 175.148 3.20116 5.1996 0
M  V30 1981 H 176.562 4.60544 3.41426 0
M  V30 1982 H 174.959 5.23457 2.9345 0
M  V30 1983 H 176.029 4.53996 1.70339 0
M  V30 1984 N 177.372 -0.689602 1.41712 0
M  V30 1985 C 178.6 -1.47827 1.44758 0
M  V30 1986 C 179.015 -1.88721 0.0545703 0
M  V30 1987 O 178.372 -1.57176 -0.927463 0
M  V30 1988 C 178.423 -2.73698 2.3616 0
M  V30 1989 O 178.144 -2.34524 3.7004 0
M  V30 1990 C 179.645 -3.67389 2.48072 0
M  V30 1991 H 176.865 -0.455357 0.49284 0
M  V30 1992 H 179.409 -0.848574 1.86063 0
M  V30 1993 H 177.564 -3.32891 1.98148 0
M  V30 1994 H 177.978 -3.15701 4.18847 0
M  V30 1995 H 179.452 -4.52475 3.16181 0
M  V30 1996 H 179.929 -4.12284 1.51388 0
M  V30 1997 H 180.535 -3.14097 2.86746 0
M  V30 1998 N 178.85 -1.27639 -0.924453 0
M  V30 1999 C 179.76 -1.12466 -2.05885 0
M  V30 2000 C 180.776 -0.053869 -1.73917 0
M  V30 2001 O 181.952 -0.261012 -1.99702 0
M  V30 2002 C 179.017 -0.776768 -3.37886 0
M  V30 2003 C 178.078 -1.92878 -3.83532 0
M  V30 2004 C 177.311 -1.59739 -5.09234 0
M  V30 2005 O 177.534 -0.506782 -5.68144 0
M  V30 2006 O 176.468 -2.43761 -5.50331 0
M  V30 2007 H 180.294 -2.07671 -2.21599 0
M  V30 2008 H 177.879 -1.06857 -1.04413 0
M  V30 2009 H 179.761 -0.596229 -4.17161 0
M  V30 2010 H 178.436 0.145732 -3.23372 0
M  V30 2011 H 177.343 -2.1644 -3.0513 0
M  V30 2012 H 178.676 -2.8316 -4.02593 0
M  V30 2013 N 180.328 1.1314 -1.09713 0
M  V30 2014 C 181.605 1.80762 -0.747302 0
M  V30 2015 C 181.985 1.96663 0.767265 0
M  V30 2016 O 181.333 1.53706 1.69076 0
M  V30 2017 C 181.543 3.15606 -1.48975 0
M  V30 2018 C 182.891 3.90914 -1.65746 0
M  V30 2019 O 183.915 3.25239 -1.45251 0
M  V30 2020 O 182.774 5.08718 -1.9967 0
M  V30 2021 H 179.868 0.782103 -0.268782 0
M  V30 2022 H 182.414 1.20041 -1.19951 0
M  V30 2023 H 181.186 2.99278 -2.52088 0
M  V30 2024 H 180.809 3.84029 -1.02991 0
M  V30 2025 N 181.806 0.884767 1.30421 0
M  V30 2026 C 182.738 0.308655 2.27112 0
M  V30 2027 C 183.751 -0.536655 1.53701 0
M  V30 2028 O 184.94 -0.35624 1.74909 0
M  V30 2029 C 182.04 -0.579782 3.33904 0
M  V30 2030 C 181.213 0.236417 4.36761 0
M  V30 2031 C 180.272 -0.582482 5.22966 0
M  V30 2032 O 179.298 -0.00525502 5.692 0
M  V30 2033 N 180.5 -1.89163 5.48815 0
M  V30 2034 H 183.265 1.13964 2.77186 0
M  V30 2035 H 180.826 0.747731 1.43599 0
M  V30 2036 H 182.818 -1.13366 3.88497 0
M  V30 2037 H 181.388 -1.31144 2.83761 0
M  V30 2038 H 180.608 0.97174 3.82035 0
M  V30 2039 H 181.896 0.795924 5.02536 0
M  V30 2040 H 181.294 -2.38352 5.13035 0
M  V30 2041 H 179.851 -2.39296 6.06284 0
M  V30 2042 N 183.284 -1.43765 0.645699 0
M  V30 2043 C 184.533 -2.01116 0.153412 0
M  V30 2044 C 184.846 -1.51493 -1.23731 0
M  V30 2045 O 186.052 -2.01067 -1.8244 0
M  V30 2046 C 184.508 -3.59206 0.223473 0
M  V30 2047 C 184.116 -4.17823 1.61642 0
M  V30 2048 C 185.86 -4.23972 -0.211597 0
M  V30 2049 C 183.767 -5.68183 1.64081 0
M  V30 2050 H 182.697 -0.752093 0.0535891 0
M  V30 2051 H 185.348 -1.6482 0.806633 0
M  V30 2052 H 183.73 -3.92867 -0.497118 0
M  V30 2053 H 184.904 -3.95674 2.36176 0
M  V30 2054 H 183.219 -3.65399 1.99681 0
M  V30 2055 H 185.816 -5.34275 -0.213112 0
M  V30 2056 H 186.159 -3.97352 -1.24165 0
M  V30 2057 H 186.692 -3.95166 0.456988 0
M  V30 2058 H 183.431 -5.99559 2.64971 0
M  V30 2059 H 182.951 -5.9241 0.938611 0
M  V30 2060 H 184.63 -6.32085 1.3812 0
M  V30 2061 N 184.763 -0.387143 -1.52771 0
M  V30 2062 C 185.693 0.440551 -2.29306 0
M  V30 2063 C 186.674 1.06535 -1.32606 0
M  V30 2064 O 187.859 1.07853 -1.61497 0
M  V30 2065 C 184.989 1.56919 -3.09829 0
M  V30 2066 C 183.943 1.07054 -4.14395 0
M  V30 2067 C 183.269 2.29109 -4.83129 0
M  V30 2068 C 184.569 0.140015 -5.22112 0
M  V30 2069 H 186.263 -0.198026 -2.98744 0
M  V30 2070 H 183.809 -0.09668 -1.43675 0
M  V30 2071 H 185.762 2.15503 -3.62128 0
M  V30 2072 H 184.486 2.23532 -2.3812 0
M  V30 2073 H 183.145 0.507247 -3.63074 0
M  V30 2074 H 182.793 2.94227 -4.0797 0
M  V30 2075 H 182.493 1.96406 -5.53804 0
M  V30 2076 H 184.017 2.88339 -5.38231 0
M  V30 2077 H 185.431 0.633978 -5.69784 0
M  V30 2078 H 183.828 -0.0971485 -6.00021 0
M  V30 2079 H 184.898 -0.811711 -4.78058 0
M  V30 2080 N 186.241 1.57166 -0.116904 0
M  V30 2081 C 187.487 1.96206 0.536166 0
M  V30 2082 C 187.842 0.99915 1.64422 0
M  V30 2083 O 187.135 0.0288195 1.91578 0
M  V30 2084 C 187.329 3.39508 1.11664 0
M  V30 2085 C 187.158 4.49651 0.0663474 0
M  V30 2086 C 185.928 5.03982 -0.36474 0
M  V30 2087 C 188.126 5.09322 -0.713829 0
M  V30 2088 N 186.108 5.97699 -1.40102 0
M  V30 2089 C 187.479 5.98963 -1.60136 0
M  V30 2090 C 189.534 4.91989 -0.764948 0
M  V30 2091 C 188.237 6.73128 -2.53556 0
M  V30 2092 C 190.263 5.66833 -1.68685 0
M  V30 2093 C 189.625 6.56158 -2.56196 0
M  V30 2094 H 185.724 0.764203 0.165886 0
M  V30 2095 H 188.308 1.93623 -0.204535 0
M  V30 2096 H 186.479 3.42743 1.82707 0
M  V30 2097 H 188.211 3.65677 1.73386 0
M  V30 2098 H 184.966 4.73592 0.027252 0
M  V30 2099 H 185.39 6.49262 -1.91802 0
M  V30 2100 H 190.032 4.22676 -0.102501 0
M  V30 2101 H 187.75 7.41689 -3.20816 0
M  V30 2102 H 191.336 5.55427 -1.73181 0
M  V30 2103 H 190.216 7.13057 -3.26372 0
M  V30 2104 N 187.719 -0.156864 1.56817 0
M  V30 2105 C 188.649 -1.19589 2.00551 0
M  V30 2106 C 189.63 -1.4536 0.883426 0
M  V30 2107 O 190.815 -1.56449 1.15054 0
M  V30 2108 C 187.945 -2.53143 2.37773 0
M  V30 2109 C 186.899 -2.41913 3.53075 0
M  V30 2110 C 186.225 -3.80088 3.76081 0
M  V30 2111 C 187.525 -1.91157 4.86062 0
M  V30 2112 H 189.219 -0.832293 2.87599 0
M  V30 2113 H 186.765 -0.398918 1.38364 0
M  V30 2114 H 188.718 -3.26047 2.66967 0
M  V30 2115 H 187.442 -2.91319 1.4765 0
M  V30 2116 H 186.101 -1.71462 3.24031 0
M  V30 2117 H 185.749 -4.15683 2.83225 0
M  V30 2118 H 185.449 -3.73439 4.53671 0
M  V30 2119 H 186.973 -4.54556 4.0769 0
M  V30 2120 H 188.387 -2.53846 5.14038 0
M  V30 2121 H 186.784 -1.95422 5.67389 0
M  V30 2122 H 187.854 -0.866673 4.77092 0
M  V30 2123 N 189.197 -1.51736 -0.425897 0
M  V30 2124 C 190.127 -1.76827 -1.52494 0
M  V30 2125 C 191.108 -0.618524 -1.58456 0
M  V30 2126 O 192.293 -0.862416 -1.74 0
M  V30 2127 C 189.423 -1.90374 -2.90474 0
M  V30 2128 C 188.377 -3.0588 -2.99369 0
M  V30 2129 C 187.703 -3.04625 -4.3944 0
M  V30 2130 C 189.003 -4.45644 -2.72394 0
M  V30 2131 H 190.697 -2.68855 -1.31748 0
M  V30 2132 H 188.243 -1.29372 -0.632362 0
M  V30 2133 H 190.196 -2.0651 -3.6733 0
M  V30 2134 H 188.92 -0.95004 -3.12477 0
M  V30 2135 H 187.579 -2.89467 -2.24954 0
M  V30 2136 H 187.227 -2.0701 -4.58428 0
M  V30 2137 H 186.927 -3.82195 -4.46319 0
M  V30 2138 H 188.451 -3.22869 -5.18255 0
M  V30 2139 H 189.865 -4.62348 -3.38979 0
M  V30 2140 H 188.262 -5.25006 -2.9067 0
M  V30 2141 H 189.332 -4.54893 -1.67929 0
M  V30 2142 N 190.675 0.682077 -1.42076 0
M  V30 2143 C 191.605 1.80796 -1.47767 0
M  V30 2144 C 192.586 1.6677 -0.334954 0
M  V30 2145 O 193.771 1.863 -0.548264 0
M  V30 2146 C 190.901 3.19038 -1.37229 0
M  V30 2147 C 189.855 3.47789 -2.49453 0
M  V30 2148 C 189.181 4.8553 -2.23975 0
M  V30 2149 C 190.481 3.45411 -3.91776 0
M  V30 2150 H 192.175 1.7629 -2.41997 0
M  V30 2151 H 189.721 0.846721 -1.16476 0
M  V30 2152 H 191.674 3.97528 -1.39821 0
M  V30 2153 H 190.398 3.24204 -0.394907 0
M  V30 2154 H 189.057 2.71657 -2.46166 0
M  V30 2155 H 188.705 4.87337 -1.24547 0
M  V30 2156 H 188.405 5.0573 -2.99184 0
M  V30 2157 H 189.929 5.66312 -2.28304 0
M  V30 2158 H 191.343 4.13882 -3.96705 0
M  V30 2159 H 189.74 3.77145 -4.66778 0
M  V30 2160 H 190.81 2.44122 -4.18966 0
M  V30 2161 N 192.153 1.28127 0.917671 0
M  V30 2162 C 193.401 1.14825 1.66312 0
M  V30 2163 C 193.722 -0.304379 1.9261 0
M  V30 2164 O 192.992 -1.21149 1.53947 0
M  V30 2165 H 191.572 0.421953 0.616413 0
M  V30 2166 H 194.234 1.608 1.10134 0
M  V30 2167 H 193.33 1.68489 2.62712 0
M  V30 2168 N 193.631 -1.12557 1.10312 0
M  V30 2169 C 194.88 -1.83395 0.839588 0
M  V30 2170 C 195.193 -1.84939 -0.636929 0
M  V30 2171 O 196.399 -2.51761 -1.01631 0
M  V30 2172 C 194.855 -3.29303 1.45215 0
M  V30 2173 C 194.463 -3.36122 2.96186 0
M  V30 2174 C 196.207 -4.05121 1.26796 0
M  V30 2175 C 194.114 -4.76357 3.50483 0
M  V30 2176 H 193.044 -0.687133 0.310425 0
M  V30 2177 H 195.695 -1.26746 1.32694 0
M  V30 2178 H 194.077 -3.85812 0.892469 0
M  V30 2179 H 195.251 -2.89559 3.58458 0
M  V30 2180 H 193.566 -2.73776 3.13745 0
M  V30 2181 H 196.163 -5.08668 1.64806 0
M  V30 2182 H 196.506 -4.15773 0.209409 0
M  V30 2183 H 197.039 -3.54967 1.79563 0
M  V30 2184 H 193.778 -4.70899 4.55998 0
M  V30 2185 H 193.298 -5.23377 2.92978 0
M  V30 2186 H 194.977 -5.45294 3.48228 0
M  V30 2187 N 195.109 -0.891671 -1.2995 0
M  V30 2188 C 196.349 -0.520296 -1.97667 0
M  V30 2189 C 196.713 0.914797 -1.68806 0
M  V30 2190 O 197.914 1.39263 -2.29911 0
M  V30 2191 C 196.185 -0.795222 -3.48441 0
M  V30 2192 S 197.744 -0.526953 -4.35624 0
M  V30 2193 H 194.562 -0.19333 -0.684211 0
M  V30 2194 H 197.164 -1.15238 -1.57926 0
M  V30 2195 H 195.868 -1.83805 -3.66938 0
M  V30 2196 H 195.399 -0.15095 -3.9311 0
M  V30 2197 H 197.414 0.631533 -4.92165 0
M  V30 2198 N 196.587 1.43421 -0.653314 0
M  V30 2199 C 198.003 1.56341 -0.320886 0
M  V30 2200 C 198.203 1.63696 1.17499 0
M  V30 2201 O 197.259 1.59208 1.95982 0
M  V30 2202 C 198.572 2.82424 -1.03233 0
M  V30 2203 C 200.12 2.96168 -1.01259 0
M  V30 2204 C 200.595 4.25084 -1.70492 0
M  V30 2205 N 202.086 4.31948 -1.67257 0
M  V30 2206 C 202.821 5.30466 -2.17701 0
M  V30 2207 N 202.317 6.35261 -2.76434 0
M  V30 2208 N 204.11 5.2212 -2.082 0
M  V30 2209 H 196.261 1.3689 -1.62403 0
M  V30 2210 H 198.524 0.657455 -0.682977 0
M  V30 2211 H 198.23 2.83053 -2.08744 0
M  V30 2212 H 198.104 3.72653 -0.583948 0
M  V30 2213 H 200.491 2.9508 0.0341235 0
M  V30 2214 H 200.572 2.07229 -1.49966 0
M  V30 2215 H 200.216 4.26932 -2.7512 0
M  V30 2216 H 200.146 5.1292 -1.19251 0
M  V30 2217 H 202.637 3.56838 -1.24398 0
M  V30 2218 H 202.95 7.06754 -3.12601 0
M  V30 2219 H 201.295 6.35884 -2.80495 0
M  V30 2220 H 204.486 4.39166 -1.62021 0
M  V30 2221 H 204.659 5.98739 -2.47822 0
M  V30 2222 N 198.065 0.39524 1.52563 0
M  V30 2223 C 199.313 -0.184678 2.01254 0
M  V30 2224 C 199.634 -1.46822 1.28329 0
M  V30 2225 O 198.904 -1.91666 0.405094 0
M  V30 2226 H 197.484 -0.0712355 0.743596 0
M  V30 2227 H 200.146 0.528293 1.87603 0
M  V30 2228 H 199.242 -0.390681 3.09645 0
M  V30 2229 N 199.544 -1.57102 0.125237 0
M  V30 2230 C 200.474 -2.18659 -0.819174 0
M  V30 2231 C 201.455 -1.12843 -1.27281 0
M  V30 2232 O 202.64 -1.41104 -1.33429 0
M  V30 2233 C 199.77 -2.79096 -2.06695 0
M  V30 2234 C 198.724 -3.90548 -1.75088 0
M  V30 2235 C 198.05 -4.37821 -3.06948 0
M  V30 2236 C 199.35 -5.12356 -1.01435 0
M  V30 2237 H 201.044 -2.9783 -0.306202 0
M  V30 2238 H 198.59 -1.4326 -0.145839 0
M  V30 2239 H 200.543 -3.2082 -2.73226 0
M  V30 2240 H 199.267 -1.97223 -2.60328 0
M  V30 2241 H 197.926 -3.49409 -1.10944 0
M  V30 2242 H 197.574 -3.52799 -3.58527 0
M  V30 2243 H 197.274 -5.12982 -2.86571 0
M  V30 2244 H 198.798 -4.822 -3.74587 0
M  V30 2245 H 200.212 -5.5106 -1.58132 0
M  V30 2246 H 198.609 -5.9314 -0.911319 0
M  V30 2247 H 199.679 -4.849 -0.00218681 0
M  V30 2248 N 201.022 0.148545 -1.56898 0
M  V30 2249 C 201.932 1.20293 -2.01412 0
M  V30 2250 C 202.948 1.47107 -0.929273 0
M  V30 2251 O 204.124 1.58807 -1.23863 0
M  V30 2252 C 201.189 2.51682 -2.38447 0
M  V30 2253 C 200.25 2.32529 -3.60872 0
M  V30 2254 C 199.483 3.57653 -3.96132 0
M  V30 2255 O 199.706 4.63771 -3.32073 0
M  V30 2256 O 198.64 3.50408 -4.89385 0
M  V30 2257 H 202.466 0.855025 -2.91416 0
M  V30 2258 H 200.051 0.357151 -1.45068 0
M  V30 2259 H 201.933 3.29147 -2.63135 0
M  V30 2260 H 200.608 2.86006 -1.51599 0
M  V30 2261 H 199.515 1.53019 -3.41373 0
M  V30 2262 H 200.848 2.03121 -4.48333 0
M  V30 2263 N 202.5 1.5196 0.417844 0
M  V30 2264 C 203.463 1.74065 1.49111 0
M  V30 2265 C 204.463 0.610537 1.48758 0
M  V30 2266 O 205.653 0.87832 1.50437 0
M  V30 2267 C 202.785 1.81502 2.88565 0
M  V30 2268 H 203.978 2.69869 1.30807 0
M  V30 2269 H 201.531 1.42244 0.647785 0
M  V30 2270 H 202.266 0.875813 3.1225 0
M  V30 2271 H 202.051 2.63651 2.90225 0
M  V30 2272 H 203.541 2.00376 3.66387 0
M  V30 2273 N 203.978 -0.674533 1.42435 0
M  V30 2274 C 205.227 -1.43034 1.42212 0
M  V30 2275 C 205.54 -1.95555 0.0420788 0
M  V30 2276 O 206.746 -2.71374 -0.0827558 0
M  V30 2277 C 205.202 -2.58748 2.50155 0
M  V30 2278 C 204.81 -2.12925 3.94166 0
M  V30 2279 C 206.554 -3.36257 2.59098 0
M  V30 2280 C 204.461 -3.25723 4.93618 0
M  V30 2281 H 203.391 -0.537345 0.528939 0
M  V30 2282 H 206.042 -0.73024 1.68344 0
M  V30 2283 H 204.424 -3.31128 2.17188 0
M  V30 2284 H 205.598 -1.47697 4.36488 0
M  V30 2285 H 203.913 -1.48354 3.89076 0
M  V30 2286 H 206.51 -4.20264 3.30578 0
M  V30 2287 H 206.853 -3.82866 1.63461 0
M  V30 2288 H 207.386 -2.70947 2.9126 0
M  V30 2289 H 204.125 -2.84105 5.90732 0
M  V30 2290 H 203.645 -3.89732 4.55926 0
M  V30 2291 H 205.324 -3.91186 5.15347 0
M  V30 2292 N 205.456 -1.28612 -0.910864 0
M  V30 2293 C 206.406 -1.09423 -2.00026 0
M  V30 2294 C 207.39 -0.0170079 -1.60891 0
M  V30 2295 O 208.582 -0.237472 -1.754 0
M  V30 2296 C 205.711 -0.76114 -3.34756 0
M  V30 2297 C 204.797 -1.87735 -3.80285 0
M  V30 2298 N 205.188 -3.11938 -3.98156 0
M  V30 2299 C 203.486 -1.76786 -4.09467 0
M  V30 2300 C 204.187 -3.84687 -4.36338 0
M  V30 2301 N 203.163 -3.12555 -4.44759 0
M  V30 2302 H 206.965 -2.03658 -2.11898 0
M  V30 2303 H 204.479 -1.19573 -1.09891 0
M  V30 2304 H 206.476 -0.604743 -4.12491 0
M  V30 2305 H 205.136 0.173403 -3.24237 0
M  V30 2306 H 206.147 -3.47516 -3.83996 0
M  V30 2307 H 202.824 -0.905284 -4.07567 0
M  V30 2308 H 204.214 -4.91518 -4.58104 0
M  V30 2309 N 206.934 1.1197 -1.10907 0
M  V30 2310 C 207.897 2.16031 -0.765707 0
M  V30 2311 C 208.897 1.59393 0.212235 0
M  V30 2312 O 210.087 1.74196 -0.0115441 0
M  V30 2313 C 207.219 3.40632 -0.135053 0
M  V30 2314 H 208.412 2.47919 -1.68748 0
M  V30 2315 H 205.965 1.27061 -0.910226 0
M  V30 2316 H 206.7 3.14348 0.797218 0
M  V30 2317 H 206.485 3.8302 -0.838937 0
M  V30 2318 H 207.975 4.17505 0.0892469 0
M  V30 2319 N 208.412 0.89855 1.29475 0
M  V30 2320 C 209.359 0.373819 2.27753 0
M  V30 2321 C 210.329 -0.543444 1.56958 0
M  V30 2322 O 211.514 -0.468934 1.84948 0
M  V30 2323 C 208.654 -0.393648 3.42848 0
M  V30 2324 C 207.767 0.554379 4.28428 0
M  V30 2325 C 206.902 -0.230026 5.30702 0
M  V30 2326 C 205.941 0.712599 6.07938 0
M  V30 2327 N 205.078 -0.0373283 7.0209 0
M  V30 2328 H 209.918 1.21699 2.72017 0
M  V30 2329 H 207.455 0.611456 1.33789 0
M  V30 2330 H 209.413 -0.85466 4.08352 0
M  V30 2331 H 208.043 -1.20128 2.99615 0
M  V30 2332 H 207.095 1.13391 3.63107 0
M  V30 2333 H 208.407 1.27597 4.82204 0
M  V30 2334 H 207.561 -0.752288 6.02018 0
M  V30 2335 H 206.3 -0.984758 4.77654 0
M  V30 2336 H 205.305 1.24637 5.35486 0
M  V30 2337 H 206.53 1.46664 6.63074 0
M  V30 2338 H 204.476 -0.774348 6.51414 0
M  V30 2339 H 204.393 0.624374 7.53417 0
M  V30 2340 H 205.661 -0.539891 7.77628 0
M  V30 2341 N 209.89 -1.43072 0.660911 0
M  V30 2342 C 211.138 -2.01323 0.177094 0
M  V30 2343 C 211.459 -1.5245 -1.2159 0
M  V30 2344 O 210.729 -0.740322 -1.81373 0
M  V30 2345 H 209.309 -0.744382 0.0624804 0
M  V30 2346 H 211.971 -1.75179 0.854305 0
M  V30 2347 H 211.067 -3.11649 0.167641 0
M  V30 2348 N 211.368 -0.403325 -1.52352 0
M  V30 2349 C 212.598 0.17376 -2.05868 0
M  V30 2350 C 213.006 1.39898 -1.27378 0
M  V30 2351 O 212.349 1.80939 -0.31729 0
M  V30 2352 C 212.411 0.594756 -3.54546 0
M  V30 2353 C 212.075 -0.518926 -4.54044 0
M  V30 2354 C 213.072 -1.3807 -5.01231 0
M  V30 2355 C 210.757 -0.689961 -4.97539 0
M  V30 2356 C 212.751 -2.39852 -5.90551 0
M  V30 2357 C 210.438 -1.71109 -5.86656 0
M  V30 2358 C 211.436 -2.56378 -6.33056 0
M  V30 2359 O 211.124 -3.56743 -7.20409 0
M  V30 2360 H 210.856 0.0264951 -0.675481 0
M  V30 2361 H 213.41 -0.571179 -1.97299 0
M  V30 2362 H 211.64 1.39189 -3.60782 0
M  V30 2363 H 213.329 1.0991 -3.90736 0
M  V30 2364 H 214.095 -1.25994 -4.68349 0
M  V30 2365 H 209.974 -0.035939 -4.60986 0
M  V30 2366 H 213.518 -3.06441 -6.26689 0
M  V30 2367 H 209.415 -1.83218 -6.18952 0
M  V30 2368 H 210.183 -3.52918 -7.38506 0
M  V30 2369 N 212.846 1.57033 -0.133567 0
M  V30 2370 C 213.809 2.14897 0.796995 0
M  V30 2371 C 214.809 1.0874 1.18458 0
M  V30 2372 O 215.999 1.34446 1.1077 0
M  V30 2373 C 213.131 2.70112 2.07973 0
M  V30 2374 H 214.324 2.98457 0.293873 0
M  V30 2375 H 211.877 1.55871 0.115787 0
M  V30 2376 H 212.612 1.9018 2.62682 0
M  V30 2377 H 212.397 3.47764 1.81115 0
M  V30 2378 H 213.887 3.14738 2.74462 0
M  V30 2379 N 214.325 -0.140222 1.56975 0
M  V30 2380 C 215.275 -1.17827 1.95194 0
M  V30 2381 C 216.259 -1.38195 0.824075 0
M  V30 2382 O 217.451 -1.39643 1.0876 0
M  V30 2383 C 214.58 -2.51024 2.34184 0
M  V30 2384 C 213.666 -2.3422 3.53556 0
M  V30 2385 N 214.057 -1.87185 4.69889 0
M  V30 2386 C 212.355 -2.64949 3.58773 0
M  V30 2387 C 213.056 -1.83586 5.5197 0
M  V30 2388 N 212.032 -2.2715 4.93866 0
M  V30 2389 H 215.834 -0.806817 2.82609 0
M  V30 2390 H 213.348 -0.348208 1.58623 0
M  V30 2391 H 215.345 -3.26074 2.59772 0
M  V30 2392 H 214.005 -2.88945 1.48124 0
M  V30 2393 H 215.016 -1.57048 4.93514 0
M  V30 2394 H 211.693 -3.067 2.8327 0
M  V30 2395 H 213.083 -1.48655 6.55249 0
M  V30 2396 N 215.803 -1.52179 -0.40978 0
M  V30 2397 C 217.219 -1.40968 -0.74835 0
M  V30 2398 C 217.419 -0.513657 -1.94843 0
M  V30 2399 O 216.475 0.0208026 -2.52491 0
M  V30 2400 C 217.788 -2.83483 -1.0029 0
M  V30 2401 C 219.336 -2.92821 -1.10565 0
M  V30 2402 C 219.811 -4.36303 -1.39296 0
M  V30 2403 N 221.302 -4.39535 -1.46162 0
M  V30 2404 C 222.037 -5.47614 -1.70018 0
M  V30 2405 N 221.533 -6.65812 -1.91483 0
M  V30 2406 N 223.326 -5.35129 -1.72027 0
M  V30 2407 H 215.477 -2.0897 0.380186 0
M  V30 2408 H 217.74 -0.94185 0.107805 0
M  V30 2409 H 217.446 -3.51168 -0.193461 0
M  V30 2410 H 217.32 -3.24487 -1.92323 0
M  V30 2411 H 219.707 -2.25318 -1.90568 0
M  V30 2412 H 219.788 -2.55276 -0.16369 0
M  V30 2413 H 219.432 -5.04366 -0.598109 0
M  V30 2414 H 219.362 -4.71385 -2.34743 0
M  V30 2415 H 221.853 -3.54332 -1.31367 0
M  V30 2416 H 222.166 -7.43964 -2.09134 0
M  V30 2417 H 220.511 -6.68879 -1.88749 0
M  V30 2418 H 223.702 -4.41764 -1.54796 0
M  V30 2419 H 223.875 -6.19433 -1.9028 0
M  V30 2420 N 217.281 0.66697 -1.42791 0
M  V30 2421 C 218.558 1.4234 -1.34159 0
M  V30 2422 C 218.938 2.11093 0.0172729 0
M  V30 2423 O 218.286 2.03808 1.03318 0
M  V30 2424 C 218.496 2.41942 -2.51526 0
M  V30 2425 C 219.844 3.06353 -2.93995 0
M  V30 2426 O 220.868 2.52269 -2.51473 0
M  V30 2427 O 219.727 4.04376 -3.67617 0
M  V30 2428 H 216.821 0.635277 -0.529483 0
M  V30 2429 H 219.367 0.695034 -1.54814 0
M  V30 2430 H 218.139 1.89991 -3.42081 0
M  V30 2431 H 217.762 3.22249 -2.32898 0
M  V30 2432 N 218.759 1.29093 0.90403 0
M  V30 2433 C 219.689 1.16401 2.02418 0
M  V30 2434 C 220.67 0.0593085 1.69997 0
M  V30 2435 O 221.855 0.238021 1.92736 0
M  V30 2436 C 218.985 0.835233 3.37107 0
M  V30 2437 C 217.939 1.89578 3.83724 0
M  V30 2438 C 217.265 1.42041 5.15489 0
M  V30 2439 C 218.565 3.30394 4.04521 0
M  V30 2440 H 220.259 2.10109 2.13295 0
M  V30 2441 H 217.805 1.01157 1.02486 0
M  V30 2442 H 219.758 0.733169 4.14973 0
M  V30 2443 H 218.482 -0.137543 3.2631 0
M  V30 2444 H 217.141 1.98715 3.08071 0
M  V30 2445 H 216.789 0.436426 5.01103 0
M  V30 2446 H 216.489 2.12964 5.4765 0
M  V30 2447 H 218.013 1.33176 5.959 0
M  V30 2448 H 219.427 3.24123 4.72882 0
M  V30 2449 H 217.824 3.99237 4.48029 0
M  V30 2450 H 218.894 3.73692 3.09002 0
M  V30 2451 N 220.237 -1.11381 1.11499 0
M  V30 2452 C 221.184 -2.17439 0.773887 0
M  V30 2453 C 222.154 -1.64132 -0.254899 0
M  V30 2454 O 223.339 -1.90345 -0.13168 0
M  V30 2455 C 220.479 -3.44373 0.223917 0
M  V30 2456 C 219.592 -4.1168 1.30934 0
M  V30 2457 C 218.727 -5.263 0.71984 0
M  V30 2458 C 217.766 -5.85493 1.78507 0
M  V30 2459 N 216.903 -6.91507 1.21502 0
M  V30 2460 H 221.743 -2.45962 1.68246 0
M  V30 2461 H 219.28 -1.20744 0.840191 0
M  V30 2462 H 221.238 -4.17047 -0.112921 0
M  V30 2463 H 219.868 -3.16232 -0.647851 0
M  V30 2464 H 218.92 -3.37073 1.76312 0
M  V30 2465 H 220.232 -4.51729 2.11524 0
M  V30 2466 H 219.386 -6.05785 0.333094 0
M  V30 2467 H 218.125 -4.87559 -0.117377 0
M  V30 2468 H 217.13 -5.04686 2.18111 0
M  V30 2469 H 218.355 -6.26301 2.62533 0
M  V30 2470 H 216.301 -6.54783 0.399455 0
M  V30 2471 H 216.218 -7.30214 1.95763 0
M  V30 2472 H 217.486 -7.74795 0.855181 0
M  V30 2473 N 221.715 -0.905404 -1.28997 0
M  V30 2474 C 223.126 -0.581953 -1.77398 0
M  V30 2475 C 223.477 0.902552 -1.74208 0
M  V30 2476 O 222.602 1.70584 -1.33154 0
M  V30 2477 C 223.197 -1.04961 -3.22131 0
M  V30 2478 C 221.756 -0.777229 -3.68288 0
M  V30 2479 C 220.903 -1.22109 -2.48967 0
M  V30 2480 H 223.854 -1.08754 -1.15578 0
M  V30 2481 H 223.875 -0.387387 -3.78523 0
M  V30 2482 H 223.387 -2.13008 -3.24421 0
M  V30 2483 H 221.488 0.290383 -3.71467 0
M  V30 2484 H 221.601 -1.37911 -4.58822 0
M  V30 2485 H 219.965 -0.639971 -2.46529 0
M  V30 2486 H 220.748 -2.30972 -2.53982 0
M  V30 2487 N 223.193 1.4272 -0.668489 0
M  V30 2488 C 224.421 2.05966 -0.196348 0
M  V30 2489 C 224.836 1.50191 1.14403 0
M  V30 2490 O 224.193 0.639208 1.7094 0
M  V30 2491 C 224.244 3.61314 -0.115815 0
M  V30 2492 O 223.965 4.1502 -1.40322 0
M  V30 2493 C 225.466 4.41663 0.380579 0
M  V30 2494 H 222.686 0.663954 -0.0969829 0
M  V30 2495 H 225.23 1.82966 -0.913446 0
M  V30 2496 H 223.385 3.83448 0.551931 0
M  V30 2497 H 223.799 5.08832 -1.27243 0
M  V30 2498 H 225.273 5.5065 0.385848 0
M  V30 2499 H 225.75 4.15792 1.41471 0
M  V30 2500 H 226.356 4.24534 -0.255209 0
M  V30 2501 N 224.671 0.411399 1.52136 0
M  V30 2502 C 225.619 -0.427633 2.28635 0
M  V30 2503 C 226.613 -1.04383 1.33419 0
M  V30 2504 O 227.819 -0.981772 1.50868 0
M  V30 2505 H 224.194 -0.156689 0.735495 0
M  V30 2506 H 226.165 0.238761 2.97443 0
M  V30 2507 C 224.914 -1.53082 3.12188 0
M  V30 2508 H 224.237 -1.06601 3.85326 0
M  V30 2509 H 225.677 -2.09167 3.68816 0
M  V30 2510 C 224.136 -2.49946 2.25895 0
M  V30 2511 O 224.666 -3.53884 1.90076 0
M  V30 2512 N 222.872 -2.2021 1.8962 0
M  V30 2513 H 222.419 -1.35719 2.18948 0
M  V30 2514 H 222.377 -2.85266 1.32176 0
M  V30 2515 N 226.149 -1.5696 0.141893 0
M  V30 2516 C 227.398 -1.95135 -0.510427 0
M  V30 2517 C 227.711 -1.02896 -1.66348 0
M  V30 2518 O 228.917 -1.30629 -2.38009 0
M  V30 2519 C 227.373 -3.46876 -0.959427 0
M  V30 2520 C 226.981 -4.47691 0.166419 0
M  V30 2521 C 228.725 -3.93927 -1.58183 0
M  V30 2522 C 226.632 -5.90636 -0.300565 0
M  V30 2523 H 225.562 -0.728494 -0.194454 0
M  V30 2524 H 228.213 -1.8211 0.22542 0
M  V30 2525 H 226.595 -3.55215 -1.75038 0
M  V30 2526 H 227.769 -4.51043 0.94325 0
M  V30 2527 H 226.084 -4.10527 0.696905 0
M  V30 2528 H 228.681 -4.98158 -1.94275 0
M  V30 2529 H 229.024 -3.3519 -2.46888 0
M  V30 2530 H 229.557 -3.88484 -0.855863 0
M  V30 2531 H 226.296 -6.5318 0.550989 0
M  V30 2532 H 225.816 -5.90655 -1.04338 0
M  V30 2533 H 227.495 -6.42588 -0.754265 0
M  V30 2534 N 227.627 0.131896 -1.57047 0
M  V30 2535 C 228.557 1.16384 -2.02428 0
M  V30 2536 C 229.538 1.43936 -0.90644 0
M  V30 2537 O 230.723 1.54599 -1.17528 0
M  V30 2538 C 227.853 2.49328 -2.4177 0
M  V30 2539 C 226.807 2.36266 -3.56879 0
M  V30 2540 C 226.133 3.74057 -3.8208 0
M  V30 2541 C 227.433 1.834 -4.89042 0
M  V30 2542 H 229.127 0.786433 -2.88887 0
M  V30 2543 H 226.673 0.376855 -1.38981 0
M  V30 2544 H 228.626 3.21759 -2.7212 0
M  V30 2545 H 227.35 2.88934 -1.52266 0
M  V30 2546 H 226.009 1.66286 -3.26718 0
M  V30 2547 H 225.657 4.11125 -2.89803 0
M  V30 2548 H 225.357 3.66174 -4.59554 0
M  V30 2549 H 226.881 4.48012 -4.1487 0
M  V30 2550 H 228.295 2.45636 -5.18011 0
M  V30 2551 H 226.692 1.8637 -5.70426 0
M  V30 2552 H 227.762 0.790662 -4.7841 0
M  V30 2553 N 229.106 1.52395 0.401703 0
M  V30 2554 C 230.036 1.79231 1.49661 0
M  V30 2555 C 231.017 0.643654 1.57452 0
M  V30 2556 O 232.202 0.889989 1.72606 0
M  V30 2557 C 229.332 1.94971 2.87409 0
M  V30 2558 C 228.286 3.10604 2.94465 0
M  V30 2559 C 227.612 3.11577 4.34538 0
M  V30 2560 C 228.912 4.49921 2.6527 0
M  V30 2561 H 230.606 2.70917 1.27454 0
M  V30 2562 H 228.152 1.30362 0.6117 0
M  V30 2563 H 230.105 2.12328 3.63999 0
M  V30 2564 H 228.829 0.999632 3.10926 0
M  V30 2565 H 227.488 2.93009 2.20321 0
M  V30 2566 H 227.136 2.14277 4.55076 0
M  V30 2567 H 226.836 3.89247 4.40183 0
M  V30 2568 H 228.36 3.31073 5.13053 0
M  V30 2569 H 229.774 4.67683 3.31581 0
M  V30 2570 H 228.171 5.29564 2.82281 0
M  V30 2571 H 229.241 4.57507 1.60671 0
M  V30 2572 N 230.584 -0.659388 1.43143 0
M  V30 2573 C 231.832 -1.41654 1.44147 0
M  V30 2574 C 232.153 -1.94893 0.0645739 0
M  V30 2575 O 231.423 -1.74044 -0.899198 0
M  V30 2576 H 230.003 -0.525708 0.530697 0
M  V30 2577 H 232.665 -0.778097 1.78694 0
M  V30 2578 H 231.761 -2.26195 2.1504 0
M  V30 2579 N 232.062 -1.29571 -0.897171 0
M  V30 2580 C 233.339 -1.08365 -1.62839 0
M  V30 2581 C 233.719 0.371331 -2.07808 0
M  V30 2582 O 233.067 1.3606 -1.83576 0
M  V30 2583 C 233.277 -2.0735 -2.80726 0
M  V30 2584 C 234.625 -2.38406 -3.51351 0
M  V30 2585 O 235.649 -2.05564 -2.90898 0
M  V30 2586 O 234.508 -2.9453 -4.60341 0
M  V30 2587 H 231.602 -0.415345 -0.715134 0
M  V30 2588 H 234.148 -1.40952 -0.945018 0
M  V30 2589 H 232.92 -3.05339 -2.44711 0
M  V30 2590 H 232.543 -1.75507 -3.56767 0
M  V30 2591 N 233.54 1.10788 -1.12088 0
M  V30 2592 C 234.45 2.20599 -0.798338 0
M  V30 2593 C 235.466 1.72712 0.21135 0
M  V30 2594 O 236.642 2.01348 0.0458477 0
M  V30 2595 C 233.707 3.45771 -0.253674 0
M  V30 2596 C 232.768 4.08411 -1.32283 0
M  V30 2597 C 232.001 5.27608 -0.80406 0
M  V30 2598 O 232.224 5.69241 0.363478 0
M  V30 2599 O 231.158 5.8101 -1.57198 0
M  V30 2600 H 234.984 2.50614 -1.7154 0
M  V30 2601 H 232.569 1.19454 -0.897275 0
M  V30 2602 H 234.451 4.21376 0.0453691 0
M  V30 2603 H 233.126 3.1739 0.636005 0
M  V30 2604 H 232.033 3.34507 -1.67499 0
M  V30 2605 H 233.366 4.40986 -2.18614 0
M  V30 2606 N 235.018 0.912232 1.28515 0
M  V30 2607 C 236.266 0.543523 1.94654 0
M  V30 2608 C 236.587 -0.9155 1.72173 0
M  V30 2609 O 235.857 -1.64708 1.06058 0
M  V30 2610 H 234.437 0.198017 0.720277 0
M  V30 2611 H 237.099 1.16126 1.56527 0
M  V30 2612 H 236.195 0.736684 3.03281 0
M  V30 2613 N 236.496 -1.42363 0.676048 0
M  V30 2614 C 237.428 -2.29164 -0.0404605 0
M  V30 2615 C 238.441 -1.43747 -0.764245 0
M  V30 2616 O 239.63 -1.67453 -0.618195 0
M  V30 2617 C 236.73 -3.21196 -1.08103 0
M  V30 2618 C 235.903 -4.35273 -0.430812 0
M  V30 2619 C 234.962 -5.08017 -1.37133 0
M  V30 2620 O 233.988 -5.62494 -0.87116 0
M  V30 2621 N 235.19 -5.13647 -2.70456 0
M  V30 2622 H 237.955 -2.91298 0.704667 0
M  V30 2623 H 235.516 -1.53303 0.520559 0
M  V30 2624 H 237.508 -3.66728 -1.71152 0
M  V30 2625 H 236.078 -2.60505 -1.72788 0
M  V30 2626 H 235.298 -3.92372 0.379209 0
M  V30 2627 H 236.586 -5.08795 0.0221132 0
M  V30 2628 H 235.984 -4.708 -3.1363 0
M  V30 2629 H 234.541 -5.62821 -3.28749 0
M  V30 2630 N 237.974 -0.419461 -1.51915 0
M  V30 2631 C 239.385 0.0477853 -1.86639 0
M  V30 2632 C 239.736 1.43531 -1.33766 0
M  V30 2633 O 238.861 2.05401 -0.68113 0
M  V30 2634 C 239.456 0.0934885 -3.38671 0
M  V30 2635 C 238.015 0.505097 -3.72996 0
M  V30 2636 C 237.162 -0.313792 -2.75519 0
M  V30 2637 H 240.113 -0.636088 -1.45395 0
M  V30 2638 H 240.134 0.906667 -3.6954 0
M  V30 2639 H 239.646 -0.916501 -3.77123 0
M  V30 2640 H 237.747 1.52135 -3.40126 0
M  V30 2641 H 237.86 0.242309 -4.78487 0
M  V30 2642 H 236.224 0.225363 -2.53701 0
M  V30 2643 H 237.007 -1.32232 -3.16812 0
M  V30 2644 N 239.452 1.56882 -0.150215 0
M  V30 2645 C 240.698 1.96518 0.500834 0
M  V30 2646 C 241.031 1.03527 1.64304 0
M  V30 2647 O 240.306 0.0782751 1.94342 0
M  V30 2648 C 240.589 3.45822 1.00395 0
M  V30 2649 C 240.442 4.49591 -0.136983 0
M  V30 2650 C 241.761 3.97704 1.88467 0
M  V30 2651 H 238.88 0.714535 0.18058 0
M  V30 2652 H 241.522 1.88577 -0.232091 0
M  V30 2653 H 239.672 3.5272 1.62851 0
M  V30 2654 H 241.344 4.5477 -0.77343 0
M  V30 2655 H 239.587 4.26441 -0.795652 0
M  V30 2656 H 240.258 5.51402 0.256815 0
M  V30 2657 H 242.734 3.93304 1.35834 0
M  V30 2658 H 241.61 5.0263 2.20578 0
M  V30 2659 H 241.871 3.40252 2.82279 0
M  V30 2660 N 240.93 -0.123565 1.57115 0
M  V30 2661 C 241.86 -1.15309 2.03042 0
M  V30 2662 C 242.841 -1.43454 0.914061 0
M  V30 2663 O 244.026 -1.53973 1.18347 0
M  V30 2664 C 241.156 -2.48043 2.43089 0
M  V30 2665 C 240.11 -2.3437 3.58127 0
M  V30 2666 C 239.436 -3.72026 3.84059 0
M  V30 2667 C 240.736 -1.80804 4.90007 0
M  V30 2668 H 242.43 -0.771102 2.893 0
M  V30 2669 H 239.976 -0.369479 1.39179 0
M  V30 2670 H 241.929 -3.20311 2.73823 0
M  V30 2671 H 240.653 -2.88122 1.53796 0
M  V30 2672 H 239.312 -1.64551 3.27595 0
M  V30 2673 H 238.96 -4.09582 2.91979 0
M  V30 2674 H 238.66 -3.63732 4.6149 0
M  V30 2675 H 240.184 -4.45806 4.1724 0
M  V30 2676 H 241.598 -2.42886 5.19307 0
M  V30 2677 H 239.995 -1.83343 5.71407 0
M  V30 2678 H 241.065 -0.76528 4.78823 0
M  V30 2679 N 242.408 -1.52605 -0.393616 0
M  V30 2680 C 243.341 -1.71798 -1.50202 0
M  V30 2681 C 244.319 -0.565743 -1.52441 0
M  V30 2682 O 245.503 -0.794987 -1.70916 0
M  V30 2683 C 242.63 -1.7714 -2.88685 0
M  V30 2684 C 241.676 -2.98845 -3.04292 0
M  V30 2685 S 242.509 -4.58909 -2.75976 0
M  V30 2686 C 243.665 -4.6706 -4.1666 0
M  V30 2687 H 243.898 -2.65542 -1.33696 0
M  V30 2688 H 241.431 -1.42839 -0.586195 0
M  V30 2689 H 243.389 -1.80903 -3.68489 0
M  V30 2690 H 242.05 -0.844969 -3.02521 0
M  V30 2691 H 241.243 -2.99111 -4.05646 0
M  V30 2692 H 240.845 -2.9305 -2.32374 0
M  V30 2693 H 243.137 -4.45391 -5.10523 0
M  V30 2694 H 244.08 -5.6905 -4.21412 0
M  V30 2695 H 244.488 -3.95944 -4.02354 0
M  V30 2696 N 243.887 0.651787 -1.4349 0
M  V30 2697 C 245.164 1.40909 -1.35661 0
M  V30 2698 C 245.544 2.11099 -0.00511733 0
M  V30 2699 O 244.892 2.04892 1.0115 0
M  V30 2700 C 245.102 2.3926 -2.54078 0
M  V30 2701 C 246.45 3.03217 -2.97228 0
M  V30 2702 O 247.474 2.49588 -2.54135 0
M  V30 2703 O 246.333 4.00455 -3.71885 0
M  V30 2704 H 243.427 0.629625 -0.536191 0
M  V30 2705 H 245.973 0.678575 -1.55542 0
M  V30 2706 H 244.745 1.86352 -3.44076 0
M  V30 2707 H 244.368 3.1976 -2.36303 0
M  V30 2708 N 245.365 1.30045 0.890287 0
M  V30 2709 C 246.295 1.18541 2.01172 0
M  V30 2710 C 247.276 0.0773356 1.69924 0
M  V30 2711 O 248.461 0.25845 1.92473 0
M  V30 2712 C 245.591 0.870941 3.36202 0
M  V30 2713 C 244.545 1.93637 3.81692 0
M  V30 2714 C 243.871 1.475 5.13953 0
M  V30 2715 C 245.171 3.34666 4.00994 0
M  V30 2716 H 246.865 2.12359 2.11054 0
M  V30 2717 H 244.411 1.02238 1.01407 0
M  V30 2718 H 246.364 0.777141 4.14172 0
M  V30 2719 H 245.088 -0.102926 3.26438 0
M  V30 2720 H 243.747 2.01972 3.05946 0
M  V30 2721 H 243.395 0.489551 5.00612 0
M  V30 2722 H 243.095 2.1876 5.4536 0
M  V30 2723 H 244.619 1.39489 5.94454 0
M  V30 2724 H 246.033 3.2912 4.69417 0
M  V30 2725 H 244.43 4.03966 4.43769 0
M  V30 2726 H 245.5 3.76949 3.05021 0
M  V30 2727 N 246.843 -1.10192 1.12674 0
M  V30 2728 C 248.091 -1.81845 0.881861 0
M  V30 2729 C 248.412 -1.85737 -0.593867 0
M  V30 2730 O 247.682 -1.33724 -1.4316 0
M  V30 2731 H 246.262 -0.673432 0.323261 0
M  V30 2732 H 248.924 -1.33316 1.42172 0
M  V30 2733 H 248.02 -2.85288 1.2656 0
M  V30 2734 N 248.321 -0.919034 -1.28029 0
M  V30 2735 C 249.546 -0.570357 -1.99403 0
M  V30 2736 C 249.971 0.842486 -1.68178 0
M  V30 2737 O 249.329 1.56391 -0.917141 0
M  V30 2738 C 249.377 -0.792541 -3.51783 0
M  V30 2739 O 248.481 0.145988 -4.12142 0
M  V30 2740 H 247.822 -0.220555 -0.6263 0
M  V30 2741 H 250.352 -1.23592 -1.63053 0
M  V30 2742 H 250.362 -0.704708 -4.01868 0
M  V30 2743 H 249.037 -1.82247 -3.73844 0
M  V30 2744 H 247.614 0.00897528 -3.72899 0
M  V30 2745 N 249.799 1.42003 -0.683588 0
M  V30 2746 C 250.732 2.28166 0.039592 0
M  V30 2747 C 251.71 1.41562 0.799942 0
M  V30 2748 O 252.894 1.70997 0.793248 0
M  V30 2749 C 250.021 3.21575 1.06335 0
M  V30 2750 C 249.067 4.24643 0.397562 0
M  V30 2751 S 249.9 5.2869 -0.851296 0
M  V30 2752 C 251.056 6.25666 0.171166 0
M  V30 2753 H 251.289 2.89153 -0.691229 0
M  V30 2754 H 248.822 1.46962 -0.473435 0
M  V30 2755 H 250.78 3.75928 1.6489 0
M  V30 2756 H 249.441 2.59707 1.76667 0
M  V30 2757 H 248.634 4.90223 1.17035 0
M  V30 2758 H 248.236 3.73824 -0.114611 0
M  V30 2759 H 250.528 6.69653 1.02819 0
M  V30 2760 H 251.471 7.06666 -0.450397 0
M  V30 2761 H 251.879 5.62095 0.520578 0
M  V30 2762 N 251.277 0.427512 1.51691 0
M  V30 2763 C 252.225 -0.403359 2.29076 0
M  V30 2764 C 253.219 -1.02962 1.34518 0
M  V30 2765 O 254.425 -0.965715 1.51901 0
M  V30 2766 H 250.8 -0.148879 0.737115 0
M  V30 2767 H 252.771 0.270295 2.97173 0
M  V30 2768 C 251.52 -1.49763 3.13794 0
M  V30 2769 H 250.843 -1.02508 3.86435 0
M  V30 2770 H 252.283 -2.05244 3.71014 0
M  V30 2771 C 250.742 -2.47536 2.28533 0
M  V30 2772 O 251.272 -3.51848 1.93819 0
M  V30 2773 N 249.478 -2.18187 1.91945 0
M  V30 2774 H 249.025 -1.33389 2.20375 0
M  V30 2775 H 248.983 -2.83848 1.35195 0
M  V30 2776 N 252.755 -1.56801 0.158532 0
M  V30 2777 C 253.687 -2.14488 -0.807923 0
M  V30 2778 C 254.7 -1.09721 -1.20271 0
M  V30 2779 O 255.889 -1.36956 -1.14478 0
M  V30 2780 C 252.989 -2.66217 -2.09718 0
M  V30 2781 C 252.162 -3.95507 -1.86796 0
M  V30 2782 C 251.221 -4.3243 -2.99818 0
M  V30 2783 O 250.247 -5.00543 -2.71008 0
M  V30 2784 N 251.449 -3.92947 -4.27285 0
M  V30 2785 H 254.214 -2.98042 -0.314816 0
M  V30 2786 H 251.775 -1.61881 -0.0246692 0
M  V30 2787 H 253.767 -2.87924 -2.84398 0
M  V30 2788 H 252.337 -1.87324 -2.50257 0
M  V30 2789 H 251.557 -3.82309 -0.96089 0
M  V30 2790 H 252.845 -4.79972 -1.68833 0
M  V30 2791 H 252.243 -3.38087 -4.53557 0
M  V30 2792 H 250.8 -4.19681 -4.9871 0
M  V30 2793 N 254.233 0.115231 -1.57178 0
M  V30 2794 C 255.196 1.12526 -1.99676 0
M  V30 2795 C 256.196 1.34095 -0.88742 0
M  V30 2796 O 257.386 1.30548 -1.15337 0
M  V30 2797 C 254.518 2.4789 -2.34015 0
M  V30 2798 H 255.711 0.759912 -2.90113 0
M  V30 2799 H 253.264 0.359648 -1.52106 0
M  V30 2800 H 253.999 2.89339 -1.4647 0
M  V30 2801 H 253.784 2.33588 -3.14927 0
M  V30 2802 H 255.274 3.20575 -2.67622 0
M  V30 2803 N 255.711 1.52812 0.385517 0
M  V30 2804 C 256.951 1.69716 1.13911 0
M  V30 2805 C 257.315 0.42962 1.87132 0
M  V30 2806 O 258.516 0.475071 2.64569 0
M  V30 2807 C 256.787 2.90021 2.0886 0
M  V30 2808 S 258.346 3.27531 2.92009 0
M  V30 2809 H 255.164 0.59739 0.385547 0
M  V30 2810 H 257.766 1.90868 0.423061 0
M  V30 2811 H 256.47 3.80493 1.53797 0
M  V30 2812 H 256.001 2.71213 2.84969 0
M  V30 2813 H 258.016 2.77989 4.11019 0
M  V30 2814 N 257.189 -0.644168 1.43834 0
M  V30 2815 C 258.438 -1.39985 1.45214 0
M  V30 2816 C 258.751 -1.95421 0.0835494 0
M  V30 2817 O 259.957 -2.71488 -0.0251748 0
M  V30 2818 C 258.413 -2.53384 2.55587 0
M  V30 2819 C 258.021 -2.04517 3.98594 0
M  V30 2820 C 259.765 -3.30685 2.66172 0
M  V30 2821 C 257.672 -3.1518 5.00416 0
M  V30 2822 H 256.602 -0.526005 0.540218 0
M  V30 2823 H 259.253 -0.694367 1.69855 0
M  V30 2824 H 257.635 -3.26446 2.24163 0
M  V30 2825 H 258.809 -1.38405 4.39523 0
M  V30 2826 H 257.124 -1.40068 3.92135 0
M  V30 2827 H 259.721 -4.13158 3.39418 0
M  V30 2828 H 260.064 -3.79312 1.71546 0
M  V30 2829 H 260.597 -2.64708 2.96942 0
M  V30 2830 H 257.336 -2.71511 5.96625 0
M  V30 2831 H 256.856 -3.79974 4.64091 0
M  V30 2832 H 258.535 -3.80166 5.23529 0
M  V30 2833 N 258.668 -1.30515 -0.883378 0
M  V30 2834 C 259.618 -1.13641 -1.9766 0
M  V30 2835 C 260.602 -0.0511314 -1.60819 0
M  V30 2836 O 261.794 -0.274623 -1.74857 0
M  V30 2837 C 258.923 -0.831976 -3.33066 0
M  V30 2838 C 258.009 -1.95759 -3.76217 0
M  V30 2839 N 258.4 -3.20313 -3.9145 0
M  V30 2840 C 256.698 -1.85431 -4.05625 0
M  V30 2841 C 257.399 -3.93856 -4.2808 0
M  V30 2842 N 256.375 -3.21919 -4.38029 0
M  V30 2843 H 260.177 -2.08106 -2.07531 0
M  V30 2844 H 257.691 -1.21877 -1.0733 0
M  V30 2845 H 259.688 -0.692102 -4.11115 0
M  V30 2846 H 258.348 0.104588 -3.24532 0
M  V30 2847 H 259.359 -3.55583 -3.76538 0
M  V30 2848 H 256.036 -0.991531 -4.05555 0
M  V30 2849 H 257.426 -5.01125 -4.47575 0
M  V30 2850 N 260.146 1.09593 -1.13257 0
M  V30 2851 C 261.392 1.82003 -0.89458 0
M  V30 2852 C 261.725 1.85402 0.577906 0
M  V30 2853 O 261 1.32099 1.42759 0
M  V30 2854 C 261.283 3.28237 -1.48096 0
M  V30 2855 C 261.136 3.3312 -3.02244 0
M  V30 2856 C 262.455 4.24871 -1.14774 0
M  V30 2857 H 259.574 0.66077 -0.326424 0
M  V30 2858 H 262.216 1.28389 -1.40058 0
M  V30 2859 H 260.366 3.74024 -1.05062 0
M  V30 2860 H 262.038 2.95748 -3.54021 0
M  V30 2861 H 260.281 2.72756 -3.37323 0
M  V30 2862 H 260.952 4.3613 -3.38371 0
M  V30 2863 H 263.428 3.87361 -1.51957 0
M  V30 2864 H 262.304 5.25532 -1.58452 0
M  V30 2865 H 262.565 4.42058 -0.0611849 0
M  V30 2866 N 261.624 0.925811 1.2754 0
M  V30 2867 C 262.534 0.428993 2.30644 0
M  V30 2868 C 263.55 -0.489387 1.66976 0
M  V30 2869 O 264.726 -0.372653 1.97922 0
M  V30 2870 C 261.791 -0.311967 3.45294 0
M  V30 2871 C 260.852 0.641098 4.24486 0
M  V30 2872 C 260.085 -0.0645955 5.33661 0
M  V30 2873 O 260.308 -1.28429 5.55754 0
M  V30 2874 O 259.242 0.606265 5.98839 0
M  V30 2875 H 263.068 1.28504 2.75173 0
M  V30 2876 H 260.653 0.691086 1.32455 0
M  V30 2877 H 262.535 -0.729972 4.15029 0
M  V30 2878 H 261.21 -1.14365 3.02824 0
M  V30 2879 H 260.117 1.10874 3.57292 0
M  V30 2880 H 261.45 1.43995 4.70666 0
M  V30 2881 N 263.102 -1.41638 0.69111 0
M  V30 2882 C 264.35 -2.00902 0.219758 0
M  V30 2883 C 264.671 -1.54994 -1.18329 0
M  V30 2884 O 263.941 -0.778628 -1.79762 0
M  V30 2885 H 262.521 -0.74289 0.0782558 0
M  V30 2886 H 265.183 -1.73327 0.891271 0
M  V30 2887 H 264.279 -3.11224 0.233708 0
M  V30 2888 N 264.58 -0.43555 -1.51462 0
M  V30 2889 C 265.805 0.132627 -2.06976 0
M  V30 2890 C 266.23 1.35848 -1.30104 0
M  V30 2891 O 265.588 1.78112 -0.338493 0
M  V30 2892 C 265.636 0.43523 -3.57964 0
M  V30 2893 O 264.74 1.52198 -3.83288 0
M  V30 2894 H 264.081 0.00265 -0.663995 0
M  V30 2895 H 266.611 -0.616369 -1.95095 0
M  V30 2896 H 266.621 0.686206 -4.02188 0
M  V30 2897 H 265.296 -0.460739 -4.1334 0
M  V30 2898 H 263.873 1.2611 -3.50928 0
M  V30 2899 N 266.058 1.56714 -0.166846 0
M  V30 2900 C 267.474 1.58473 0.189372 0
M  V30 2901 C 267.674 1.18201 1.63189 0
M  V30 2902 O 266.73 0.891528 2.36237 0
M  V30 2903 C 268.043 3.00573 -0.0873872 0
M  V30 2904 C 269.591 3.1299 -0.0252443 0
M  V30 2905 C 270.066 4.57174 -0.274934 0
M  V30 2906 N 271.557 4.62665 -0.222553 0
M  V30 2907 C 272.292 5.72072 -0.389985 0
M  V30 2908 N 271.788 6.90054 -0.616229 0
M  V30 2909 N 273.581 5.61153 -0.326202 0
M  V30 2910 H 265.732 1.8118 -1.10849 0
M  V30 2911 H 267.995 0.839525 -0.440342 0
M  V30 2912 H 267.701 3.34497 -1.0865 0
M  V30 2913 H 267.575 3.72019 0.623037 0
M  V30 2914 H 269.962 2.78895 0.96444 0
M  V30 2915 H 270.043 2.43989 -0.768309 0
M  V30 2916 H 269.687 4.91976 -1.26181 0
M  V30 2917 H 269.617 5.24328 0.48869 0
M  V30 2918 H 272.108 3.77863 -0.0531512 0
M  V30 2919 H 272.421 7.69311 -0.733559 0
M  V30 2920 H 270.766 6.91927 -0.652791 0
M  V30 2921 H 273.957 4.67859 -0.150072 0
M  V30 2922 H 274.13 6.46364 -0.460116 0
M  V30 2923 N 267.536 -0.106894 1.57237 0
M  V30 2924 C 268.468 -1.15646 1.97885 0
M  V30 2925 C 269.481 -1.36981 0.879779 0
M  V30 2926 O 270.67 -1.35841 1.15799 0
M  V30 2927 C 267.77 -2.51425 2.27241 0
M  V30 2928 C 266.943 -2.50529 3.58545 0
M  V30 2929 C 266.002 -3.68145 3.75973 0
M  V30 2930 O 265.028 -3.51176 4.47956 0
M  V30 2931 N 266.23 -4.87177 3.15656 0
M  V30 2932 H 268.995 -0.81059 2.8853 0
M  V30 2933 H 266.556 -0.296024 1.59171 0
M  V30 2934 H 268.548 -3.28689 2.36105 0
M  V30 2935 H 267.118 -2.78147 1.42663 0
M  V30 2936 H 266.338 -1.58894 3.60758 0
M  V30 2937 H 267.626 -2.46997 4.44826 0
M  V30 2938 H 267.024 -5.03868 2.57165 0
M  V30 2939 H 265.581 -5.62075 3.30023 0
M  V30 2940 N 269.014 -1.53014 -0.377408 0
M  V30 2941 C 269.977 -1.77957 -1.44444 0
M  V30 2942 C 270.977 -0.649763 -1.47087 0
M  V30 2943 O 272.167 -0.917897 -1.48055 0
M  V30 2944 C 269.299 -1.89089 -2.83651 0
M  V30 2945 H 270.492 -2.73243 -1.23606 0
M  V30 2946 H 268.045 -1.43912 -0.609844 0
M  V30 2947 H 268.78 -0.958293 -3.09818 0
M  V30 2948 H 268.565 -2.71254 -2.83132 0
M  V30 2949 H 270.055 -2.1002 -3.60945 0
M  V30 2950 N 270.492 0.636531 -1.44174 0
M  V30 2951 C 271.422 1.76003 -1.53444 0
M  V30 2952 C 272.403 1.65619 -0.387841 0
M  V30 2953 O 273.588 1.84461 -0.607257 0
M  V30 2954 C 270.718 3.14511 -1.4731 0
M  V30 2955 C 269.672 3.39677 -2.60391 0
M  V30 2956 C 268.998 4.78159 -2.39308 0
M  V30 2957 C 270.298 3.32772 -4.02567 0
M  V30 2958 H 271.992 1.68501 -2.47483 0
M  V30 2959 H 269.538 0.809237 -1.19111 0
M  V30 2960 H 271.491 3.92878 -1.52397 0
M  V30 2961 H 270.215 3.22783 -0.49785 0
M  V30 2962 H 268.874 2.63688 -2.54684 0
M  V30 2963 H 268.522 4.83128 -1.39988 0
M  V30 2964 H 268.222 4.95956 -3.15122 0
M  V30 2965 H 269.746 5.58762 -2.46205 0
M  V30 2966 H 271.16 4.01051 -4.09672 0
M  V30 2967 H 269.557 3.62104 -4.7854 0
M  V30 2968 H 270.627 2.30669 -4.2652 0
M  V30 2969 N 271.97 1.30982 0.876444 0
M  V30 2970 C 273.198 1.23242 1.6619 0
M  V30 2971 C 273.613 -0.203345 1.87702 0
M  V30 2972 O 272.97 -1.13317 1.43057 0
M  V30 2973 C 273.021 1.96623 3.03351 0
M  V30 2974 O 272.742 3.34594 2.82804 0
M  V30 2975 C 274.243 1.95644 3.97792 0
M  V30 2976 H 271.463 0.426126 0.518322 0
M  V30 2977 H 274.007 1.7275 1.09442 0
M  V30 2978 H 272.162 1.50892 3.56806 0
M  V30 2979 H 272.576 3.71873 3.69879 0
M  V30 2980 H 274.05 2.51511 4.91372 0
M  V30 2981 H 274.527 0.937395 4.2908 0
M  V30 2982 H 275.133 2.41225 3.50272 0
M  V30 2983 N 273.449 -1.08991 1.13837 0
M  V30 2984 C 274.379 -2.17771 0.842507 0
M  V30 2985 C 275.36 -1.6892 -0.20001 0
M  V30 2986 O 276.545 -1.94113 -0.0579731 0
M  V30 2987 C 273.675 -3.4589 0.312644 0
M  V30 2988 C 272.629 -4.08099 1.28992 0
M  V30 2989 C 271.955 -5.31098 0.619623 0
M  V30 2990 C 273.255 -4.50077 2.65005 0
M  V30 2991 H 274.949 -2.42777 1.75213 0
M  V30 2992 H 272.495 -1.16682 0.843875 0
M  V30 2993 H 274.448 -4.21297 0.0933043 0
M  V30 2994 H 273.172 -3.20419 -0.632382 0
M  V30 2995 H 271.831 -3.34717 1.49533 0
M  V30 2996 H 271.479 -5.0191 -0.33102 0
M  V30 2997 H 271.179 -5.73674 1.27167 0
M  V30 2998 H 272.703 -6.09224 0.409669 0
M  V30 2999 H 274.117 -5.16688 2.48407 0
M  V30 3000 H 272.514 -5.03553 3.26427 0
M  V30 3001 H 273.584 -3.62257 3.22332 0
M  V30 3002 N 274.927 -0.932562 -1.27047 0
M  V30 3003 C 275.859 -0.392734 -2.2581 0
M  V30 3004 C 276.872 0.479241 -1.55586 0
M  V30 3005 O 278.061 0.291078 -1.76111 0
M  V30 3006 C 275.161 0.455456 -3.35826 0
M  V30 3007 C 274.334 -0.398355 -4.35582 0
M  V30 3008 C 273.393 0.387985 -5.24768 0
M  V30 3009 O 272.419 -0.206003 -5.68827 0
M  V30 3010 N 273.621 1.68664 -5.55457 0
M  V30 3011 H 276.386 -1.24173 -2.72766 0
M  V30 3012 H 273.947 -0.800511 -1.40725 0
M  V30 3013 H 275.939 0.988692 -3.92437 0
M  V30 3014 H 274.509 1.20522 -2.88432 0
M  V30 3015 H 273.729 -1.11286 -3.78165 0
M  V30 3016 H 275.017 -0.981889 -4.99236 0
M  V30 3017 H 274.415 2.19147 -5.21528 0
M  V30 3018 H 272.972 2.1663 -6.14748 0
M  V30 3019 N 276.405 1.4127 -0.698611 0
M  V30 3020 C 277.682 1.94955 -0.158762 0
M  V30 3021 C 278.062 1.63781 1.33188 0
M  V30 3022 O 277.41 0.946423 2.07979 0
M  V30 3023 C 277.62 3.46044 -0.453309 0
M  V30 3024 C 278.968 4.22872 -0.382707 0
M  V30 3025 O 279.992 3.54076 -0.388396 0
M  V30 3026 O 278.851 5.45407 -0.345463 0
M  V30 3027 H 275.945 0.82683 -0.0167505 0
M  V30 3028 H 278.491 1.50971 -0.77498 0
M  V30 3029 H 277.263 3.62028 -1.48498 0
M  V30 3030 H 276.886 3.97128 0.19373 0
M  V30 3031 N 277.883 0.443576 1.51229 0
M  V30 3032 C 279.129 -0.11321 2.03085 0
M  V30 3033 C 279.484 -1.39841 1.32145 0
M  V30 3034 O 278.777 -1.86723 0.429542 0
M  V30 3035 C 278.971 -0.380579 3.55368 0
M  V30 3036 C 278.8 0.877157 4.41062 0
M  V30 3037 C 277.57 1.4125 4.85156 0
M  V30 3038 C 279.768 1.76503 4.83064 0
M  V30 3039 N 277.75 2.62213 5.55083 0
M  V30 3040 C 279.121 2.82067 5.52122 0
M  V30 3041 C 281.176 1.7787 4.65045 0
M  V30 3042 C 279.879 3.88952 6.05069 0
M  V30 3043 C 281.905 2.83694 5.18914 0
M  V30 3044 C 281.267 3.87978 5.87922 0
M  V30 3045 H 277.366 -0.00210178 0.781997 0
M  V30 3046 H 279.95 0.605641 1.85041 0
M  V30 3047 H 278.121 -1.06847 3.73414 0
M  V30 3048 H 279.853 -0.929274 3.93887 0
M  V30 3049 H 276.608 0.965542 4.63653 0
M  V30 3050 H 277.032 3.23568 5.9467 0
M  V30 3051 H 281.674 0.985744 4.11148 0
M  V30 3052 H 279.392 4.69082 6.58018 0
M  V30 3053 H 282.978 2.85702 5.06819 0
M  V30 3054 H 281.858 4.68517 6.28857 0
M  V30 3055 N 279.361 -1.56624 0.175154 0
M  V30 3056 C 280.324 -2.16934 -0.739738 0
M  V30 3057 C 281.324 -1.11842 -1.15533 0
M  V30 3058 O 282.514 -1.37335 -1.07167 0
M  V30 3059 C 279.646 -2.75531 -2.00738 0
M  V30 3060 H 280.839 -2.99131 -0.214639 0
M  V30 3061 H 278.392 -1.56123 -0.0744197 0
M  V30 3062 H 279.127 -1.97078 -2.57548 0
M  V30 3063 H 278.912 -3.52444 -1.71831 0
M  V30 3064 H 280.402 -3.21904 -2.66021 0
M  V30 3065 N 280.839 0.0985539 -1.57292 0
M  V30 3066 C 281.802 1.10402 -2.00858 0
M  V30 3067 C 282.802 1.33146 -0.901593 0
M  V30 3068 O 283.992 1.29318 -1.16716 0
M  V30 3069 C 281.124 2.45394 -2.36632 0
M  V30 3070 H 282.317 0.729099 -2.90902 0
M  V30 3071 H 279.87 0.343495 -1.52479 0
M  V30 3072 H 280.605 2.87769 -1.49531 0
M  V30 3073 H 280.39 2.30235 -3.17387 0
M  V30 3074 H 281.88 3.17718 -2.71007 0
M  V30 3075 N 282.317 1.53212 0.369288 0
M  V30 3076 C 283.249 1.75668 1.47219 0
M  V30 3077 C 284.262 0.637387 1.49804 0
M  V30 3078 O 285.451 0.913561 1.5335 0
M  V30 3079 C 282.551 1.81818 2.85999 0
M  V30 3080 C 281.724 3.11409 3.07153 0
M  V30 3081 C 280.783 3.08849 4.26026 0
M  V30 3082 O 279.809 3.82659 4.2138 0
M  V30 3083 N 281.011 2.29409 5.33246 0
M  V30 3084 H 283.776 2.70832 1.28337 0
M  V30 3085 H 281.337 1.51944 0.55898 0
M  V30 3086 H 283.329 1.77588 3.63655 0
M  V30 3087 H 281.899 0.939544 2.98146 0
M  V30 3088 H 281.119 3.28971 2.1719 0
M  V30 3089 H 282.407 3.97059 3.18154 0
M  V30 3090 H 281.805 1.68946 5.39883 0
M  V30 3091 H 280.362 2.31001 6.09493 0
M  V30 3092 N 283.795 -0.628877 1.44509 0
M  V30 3093 C 285.211 -0.947305 1.28446 0
M  V30 3094 C 285.411 -2.00275 0.221872 0
M  V30 3095 O 284.467 -2.49447 -0.391471 0
M  V30 3096 C 285.78 -1.40843 2.65676 0
M  V30 3097 C 287.328 -1.52379 2.73404 0
M  V30 3098 C 287.803 -2.01875 4.11109 0
M  V30 3099 N 289.294 -2.09142 4.13296 0
M  V30 3100 C 290.029 -2.48615 5.16699 0
M  V30 3101 N 289.525 -2.87209 6.30462 0
M  V30 3102 N 291.318 -2.48768 5.04054 0
M  V30 3103 H 283.469 0.0690977 2.12288 0
M  V30 3104 H 285.732 -0.0317164 0.947469 0
M  V30 3105 H 285.438 -0.707206 3.44516 0
M  V30 3106 H 285.312 -2.37902 2.92716 0
M  V30 3107 H 287.699 -2.21598 1.9488 0
M  V30 3108 H 287.78 -0.536898 2.50102 0
M  V30 3109 H 287.424 -1.3325 4.90109 0
M  V30 3110 H 287.354 -3.0144 4.31789 0
M  V30 3111 H 289.845 -1.81991 3.31191 0
M  V30 3112 H 290.158 -3.16149 7.05174 0
M  V30 3113 H 288.503 -2.84955 6.33897 0
M  V30 3114 H 291.694 -2.18009 4.14234 0
M  V30 3115 H 291.867 -2.79207 5.84763 0
M  V30 3116 N 285.273 -1.31445 -0.869486 0
M  V30 3117 C 286.513 -1.22458 -1.63656 0
M  V30 3118 C 286.877 0.213846 -1.90805 0
M  V30 3119 O 288.078 0.427212 -2.65383 0
M  V30 3120 C 286.349 -2.04564 -2.93067 0
M  V30 3121 S 287.908 -2.12445 -3.83944 0
M  V30 3122 H 284.726 -0.436145 -0.561514 0
M  V30 3123 H 287.328 -1.66114 -1.03085 0
M  V30 3124 H 286.032 -3.0816 -2.71045 0
M  V30 3125 H 285.563 -1.6163 -3.58663 0
M  V30 3126 H 287.578 -1.26312 -4.79854 0
M  V30 3127 N 286.751 1.08385 -1.14413 0
M  V30 3128 C 287.979 1.84517 -0.936001 0
M  V30 3129 C 288.394 1.81626 0.515503 0
M  V30 3130 O 287.751 1.22008 1.35721 0
M  V30 3131 C 287.802 3.32049 -1.42918 0
M  V30 3132 O 287.523 3.34951 -2.82381 0
M  V30 3133 C 289.024 4.24986 -1.26103 0
M  V30 3134 H 286.244 0.582491 -0.333084 0
M  V30 3135 H 288.788 1.36885 -1.5193 0
M  V30 3136 H 286.943 3.7707 -0.888641 0
M  V30 3137 H 287.357 4.27048 -3.04517 0
M  V30 3138 H 288.831 5.26615 -1.6547 0
M  V30 3139 H 289.308 4.38726 -0.20392 0
M  V30 3140 H 289.914 3.85791 -1.79012 0
M  V30 3141 N 288.23 0.939286 1.26551 0
M  V30 3142 C 289.479 0.581601 1.93133 0
M  V30 3143 C 289.792 -0.883224 1.74524 0
M  V30 3144 O 290.998 -1.3502 2.35546 0
M  V30 3145 C 289.454 0.989425 3.46032 0
M  V30 3146 C 289.062 2.47573 3.73379 0
M  V30 3147 C 290.806 0.703544 4.18629 0
M  V30 3148 C 288.713 2.82235 5.19709 0
M  V30 3149 H 287.643 0.213803 0.723052 0
M  V30 3150 H 290.294 1.14167 1.4366 0
M  V30 3151 H 288.676 0.357902 3.94379 0
M  V30 3152 H 289.85 3.15614 3.35744 0
M  V30 3153 H 288.165 2.73471 3.1401 0
M  V30 3154 H 290.762 0.938869 5.26393 0
M  V30 3155 H 291.105 -0.359639 4.14744 0
M  V30 3156 H 291.638 1.2947 3.76141 0
M  V30 3157 H 288.377 3.87509 5.28694 0
M  V30 3158 H 287.897 2.18854 5.58447 0
M  V30 3159 H 289.576 2.70599 5.87695 0
M  V30 3160 N 289.708 -1.40897 0.706093 0
M  V30 3161 C 290.933 -2.05895 0.249435 0
M  V30 3162 C 291.358 -1.52823 -1.09666 0
M  V30 3163 O 290.716 -0.659589 -1.68876 0
M  V30 3164 C 290.764 -3.59872 0.22904 0
M  V30 3165 O 289.868 -4.04708 -0.792784 0
M  V30 3166 H 289.209 -0.653206 0.119241 0
M  V30 3167 H 291.739 -1.80471 0.96391 0
M  V30 3168 H 291.749 -4.07951 0.0634791 0
M  V30 3169 H 290.424 -3.97866 1.21141 0
M  V30 3170 H 289.001 -3.68111 -0.59572 0
M  V30 3171 N 291.186 -0.45159 -1.50991 0
M  V30 3172 C 292.416 0.108177 -2.06317 0
M  V30 3173 C 292.824 1.35774 -1.31765 0
M  V30 3174 O 292.167 1.79838 -0.374694 0
M  V30 3175 C 292.229 0.481659 -3.56259 0
M  V30 3176 C 291.893 -0.663114 -4.52163 0
M  V30 3177 C 292.89 -1.53947 -4.96585 0
M  V30 3178 C 290.575 -0.8479 -4.95092 0
M  V30 3179 C 292.569 -2.58518 -5.82621 0
M  V30 3180 C 290.256 -1.89686 -5.80915 0
M  V30 3181 C 291.254 -2.76388 -6.24579 0
M  V30 3182 O 290.942 -3.79482 -7.08695 0
M  V30 3183 H 290.674 0.00499183 -0.675982 0
M  V30 3184 H 293.228 -0.633659 -1.95381 0
M  V30 3185 H 291.458 1.27641 -3.65027 0
M  V30 3186 H 293.147 0.974233 -3.94035 0
M  V30 3187 H 293.913 -1.4083 -4.64103 0
M  V30 3188 H 289.792 -0.18258 -4.60638 0
M  V30 3189 H 293.336 -3.26224 -6.16623 0
M  V30 3190 H 289.233 -2.02817 -6.12809 0
M  V30 3191 H 290.001 -3.76234 -7.26905 0
M  V30 3192 N 292.664 1.56529 -0.183458 0
M  V30 3193 C 294.08 1.58664 0.172554 0
M  V30 3194 C 294.28 1.19925 1.61926 0
M  V30 3195 O 293.336 0.916534 2.35278 0
M  V30 3196 C 294.649 3.00463 -0.119262 0
M  V30 3197 C 296.197 3.12945 -0.0584396 0
M  V30 3198 C 296.672 4.56857 -0.323408 0
M  V30 3199 N 298.163 4.62403 -0.271612 0
M  V30 3200 C 298.898 5.71626 -0.450639 0
M  V30 3201 N 298.394 6.89362 -0.689384 0
M  V30 3202 N 300.187 5.60775 -0.385701 0
M  V30 3203 H 292.338 1.79994 -1.12765 0
M  V30 3204 H 294.601 0.834808 -0.449222 0
M  V30 3205 H 294.307 3.33326 -1.12192 0
M  V30 3206 H 294.181 3.72659 0.583544 0
M  V30 3207 H 296.568 2.79902 0.934805 0
M  V30 3208 H 296.649 2.4316 -0.794144 0
M  V30 3209 H 296.293 4.9061 -1.31392 0
M  V30 3210 H 296.223 5.24816 0.43305 0
M  V30 3211 H 298.714 3.77785 -0.0932256 0
M  V30 3212 H 299.027 7.68489 -0.815113 0
M  V30 3213 H 297.372 6.91196 -0.726142 0
M  V30 3214 H 300.563 4.67674 -0.199687 0
M  V30 3215 H 300.736 6.4584 -0.528646 0
M  V30 3216 N 294.142 -0.090211 1.57342 0
M  V30 3217 C 295.105 -1.09335 2.01441 0
M  V30 3218 C 296.105 -1.32666 0.908641 0
M  V30 3219 O 297.295 -1.28697 1.174 0
M  V30 3220 C 294.427 -2.44136 2.3793 0
M  V30 3221 H 295.62 -0.713662 2.91285 0
M  V30 3222 H 293.173 -0.335404 1.52659 0
M  V30 3223 H 293.908 -2.86972 1.51055 0
M  V30 3224 H 293.693 -2.28548 3.18603 0
M  V30 3225 H 295.183 -3.16277 2.72688 0
M  V30 3226 N 295.62 -1.53406 -0.361157 0
M  V30 3227 C 297.031 -1.61442 -0.937728 0
M  V30 3228 C 297.382 -0.48461 -1.90121 0
M  V30 3229 O 296.507 0.388312 -2.12888 0
M  V30 3230 C 297.102 -2.92624 -1.70753 0
M  V30 3231 C 295.661 -3.02981 -2.23337 0
M  V30 3232 C 294.808 -2.5677 -1.04712 0
M  V30 3233 H 297.759 -1.58083 -0.139816 0
M  V30 3234 H 297.78 -2.80675 -2.56908 0
M  V30 3235 H 297.292 -3.74834 -1.00604 0
M  V30 3236 H 295.393 -2.25368 -2.96715 0
M  V30 3237 H 295.506 -4.0814 -2.50916 0
M  V30 3238 H 293.87 -2.11752 -1.41539 0
M  V30 3239 H 294.653 -3.41402 -0.360539 0
M  V30 3240 N 297.098 0.621204 -1.44841 0
M  V30 3241 C 298.008 1.7612 -1.5498 0
M  V30 3242 C 299.024 1.68477 -0.434927 0
M  V30 3243 O 300.2 1.89076 -0.693693 0
M  V30 3244 C 297.265 3.1254 -1.50065 0
M  V30 3245 C 296.326 3.31741 -2.72482 0
M  V30 3246 C 295.559 4.61653 -2.67792 0
M  V30 3247 O 295.782 5.431 -1.74352 0
M  V30 3248 O 294.716 4.83271 -3.58794 0
M  V30 3249 H 298.542 1.70518 -2.51311 0
M  V30 3250 H 296.127 0.783643 -1.27198 0
M  V30 3251 H 298.009 3.93844 -1.49882 0
M  V30 3252 H 296.684 3.18663 -0.568806 0
M  V30 3253 H 295.591 2.50077 -2.7823 0
M  V30 3254 H 296.924 3.30486 -3.64746 0
M  V30 3255 N 298.576 1.31904 0.862503 0
M  V30 3256 C 299.506 1.22782 1.98612 0
M  V30 3257 C 300.487 0.113362 1.69722 0
M  V30 3258 O 301.672 0.299218 1.91881 0
M  V30 3259 C 298.802 0.942058 3.34279 0
M  V30 3260 C 297.756 2.0169 3.77499 0
M  V30 3261 C 297.082 1.58369 5.10709 0
M  V30 3262 C 298.382 3.43096 3.93805 0
M  V30 3263 H 300.076 2.16788 2.06502 0
M  V30 3264 H 297.622 1.04366 0.992154 0
M  V30 3265 H 299.575 0.864818 4.1243 0
M  V30 3266 H 298.299 -0.0336603 3.26583 0
M  V30 3267 H 296.958 2.08416 3.01593 0
M  V30 3268 H 296.606 0.595628 4.99461 0
M  V30 3269 H 296.306 2.30279 5.40597 0
M  V30 3270 H 297.83 1.52067 5.91361 0
M  V30 3271 H 299.244 3.39003 4.62331 0
M  V30 3272 H 297.641 4.13288 4.35101 0
M  V30 3273 H 298.711 3.83334 2.96957 0
M  V30 3274 N 300.054 -1.07777 1.14986 0
M  V30 3275 C 301.301 -1.8029 0.922056 0
M  V30 3276 C 301.629 -1.86531 -0.55105 0
M  V30 3277 O 300.884 -1.34189 -1.42449 0
M  V30 3278 C 301.183 -3.25495 1.47608 0
M  V30 3279 C 300.849 -3.39361 2.96893 0
M  V30 3280 C 299.511 -3.42852 3.37647 0
M  V30 3281 C 301.863 -3.42512 3.92854 0
M  V30 3282 C 299.191 -3.47094 4.73015 0
M  V30 3283 C 301.543 -3.4829 5.28088 0
M  V30 3284 C 300.207 -3.50058 5.68345 0
M  V30 3285 H 299.477 -0.659727 0.337404 0
M  V30 3286 H 302.124 -1.26854 1.43459 0
M  V30 3287 H 300.429 -3.81683 0.88463 0
M  V30 3288 H 302.126 -3.80168 1.27568 0
M  V30 3289 H 298.716 -3.37339 2.64387 0
M  V30 3290 H 302.9 -3.3904 3.62444 0
M  V30 3291 H 298.156 -3.46758 5.03556 0
M  V30 3292 H 302.33 -3.49675 6.02246 0
M  V30 3293 H 299.957 -3.53097 6.73221 0
M  V30 3294 N 301.532 -0.945985 -1.26051 0
M  V30 3295 C 302.757 -0.612525 -1.98149 0
M  V30 3296 C 303.182 0.806623 -1.69927 0
M  V30 3297 O 302.54 1.54411 -0.950108 0
M  V30 3298 C 302.588 -0.866981 -3.50023 0
M  V30 3299 O 301.692 0.0585333 -4.12358 0
M  V30 3300 H 301.033 -0.23379 -0.621481 0
M  V30 3301 H 303.563 -1.27023 -1.60395 0
M  V30 3302 H 303.573 -0.789792 -4.00283 0
M  V30 3303 H 302.248 -1.90135 -3.69894 0
M  V30 3304 H 300.825 -0.0701241 -3.72834 0
M  V30 3305 N 303.011 1.40521 -0.713556 0
M  V30 3306 C 304.257 2.01221 -0.252564 0
M  V30 3307 C 304.59 1.56444 1.1506 0
M  V30 3308 O 303.865 0.783597 1.78017 0
M  V30 3309 C 304.148 3.58582 -0.330332 0
M  V30 3310 C 304.001 4.13437 -1.77173 0
M  V30 3311 C 305.32 4.39079 0.299641 0
M  V30 3312 H 302.439 0.731077 -0.0932471 0
M  V30 3313 H 305.081 1.67026 -0.905673 0
M  V30 3314 H 303.231 3.87844 0.225737 0
M  V30 3315 H 304.903 3.9498 -2.38303 0
M  V30 3316 H 303.146 3.67801 -2.3001 0
M  V30 3317 H 303.817 5.22597 -1.77755 0
M  V30 3318 H 306.293 4.15735 -0.174139 0
M  V30 3319 H 305.169 5.4848 0.214771 0
M  V30 3320 H 305.43 4.19915 1.38288 0
M  V30 3321 N 304.489 0.459591 1.5075 0
M  V30 3322 C 305.421 -0.37665 2.26084 0
M  V30 3323 C 306.434 -0.967109 1.30961 0
M  V30 3324 O 307.623 -0.857468 1.56556 0
M  V30 3325 C 304.723 -1.54112 3.01832 0
M  V30 3326 C 303.896 -1.06553 4.24223 0
M  V30 3327 C 302.955 -2.1027 4.82362 0
M  V30 3328 O 301.981 -1.68798 5.43595 0
M  V30 3329 N 303.183 -3.42974 4.68347 0
M  V30 3330 H 305.948 0.269124 2.98489 0
M  V30 3331 H 303.509 0.28972 1.59287 0
M  V30 3332 H 305.501 -2.23165 3.37608 0
M  V30 3333 H 304.071 -2.0918 2.32298 0
M  V30 3334 H 303.291 -0.201274 3.93686 0
M  V30 3335 H 304.579 -0.725516 5.03601 0
M  V30 3336 H 303.977 -3.79385 4.19623 0
M  V30 3337 H 302.534 -4.07858 5.08424 0
M  V30 3338 N 305.967 -1.56429 0.191757 0
M  V30 3339 C 307.192 -2.02309 -0.456706 0
M  V30 3340 C 307.617 -1.07103 -1.5463 0
M  V30 3341 O 306.975 -0.0539677 -1.8122 0
M  V30 3342 C 307.023 -3.46654 -0.993159 0
M  V30 3343 O 306.127 -3.54559 -2.10622 0
M  V30 3344 H 305.468 -0.655303 -0.107114 0
M  V30 3345 H 307.998 -2.02364 0.301653 0
M  V30 3346 H 308.008 -3.86377 -1.31061 0
M  V30 3347 H 306.683 -4.1544 -0.195504 0
M  V30 3348 H 305.26 -3.26708 -1.79767 0
M  V30 3349 N 307.445 0.0818655 -1.57387 0
M  V30 3350 C 308.395 1.10501 -1.99433 0
M  V30 3351 C 309.379 1.35041 -0.874798 0
M  V30 3352 O 310.571 1.35511 -1.13868 0
M  V30 3353 C 307.7 2.42159 -2.43339 0
M  V30 3354 C 306.786 2.20937 -3.62005 0
M  V30 3355 N 307.177 1.69616 -4.76512 0
M  V30 3356 C 305.475 2.51451 -3.68359 0
M  V30 3357 C 306.176 1.62973 -5.58404 0
M  V30 3358 N 305.152 2.08664 -5.01956 0
M  V30 3359 H 308.954 0.701373 -2.85408 0
M  V30 3360 H 306.468 0.289096 -1.59806 0
M  V30 3361 H 308.465 3.16208 -2.71695 0
M  V30 3362 H 307.125 2.83249 -1.58746 0
M  V30 3363 H 308.136 1.38624 -4.99003 0
M  V30 3364 H 304.813 2.95975 -2.94457 0
M  V30 3365 H 306.203 1.24233 -6.60315 0
M  V30 3366 N 308.923 1.53595 0.353017 0
M  V30 3367 C 310.163 1.72094 1.10286 0
M  V30 3368 C 310.527 0.469217 1.86178 0
M  V30 3369 O 311.728 0.531083 2.63501 0
M  V30 3370 C 309.999 2.94386 2.02661 0
M  V30 3371 S 311.558 3.33651 2.84996 0
M  V30 3372 H 308.376 0.605433 0.372789 0
M  V30 3373 H 310.978 1.91722 0.38248 0
M  V30 3374 H 309.682 3.83669 1.45691 0
M  V30 3375 H 309.213 2.77197 2.79152 0
M  V30 3376 H 311.228 2.86645 4.0503 0
M  V30 3377 N 310.401 -0.613514 1.45168 0
M  V30 3378 C 311.647 -1.37471 1.49096 0
M  V30 3379 C 311.98 -1.93765 0.129901 0
M  V30 3380 O 311.255 -1.74707 -0.854858 0
M  V30 3381 C 311.538 -2.52701 2.56542 0
M  V30 3382 C 311.391 -2.01643 4.0207 0
M  V30 3383 C 312.71 -3.54849 2.60327 0
M  V30 3384 H 309.829 -0.498502 0.54283 0
M  V30 3385 H 312.471 -0.692125 1.76945 0
M  V30 3386 H 310.621 -3.10931 2.32926 0
M  V30 3387 H 312.293 -1.48108 4.36877 0
M  V30 3388 H 310.536 -1.32688 4.13009 0
M  V30 3389 H 311.207 -2.84681 4.72928 0
M  V30 3390 H 313.683 -3.0645 2.81474 0
M  V30 3391 H 312.559 -4.32973 3.37381 0
M  V30 3392 H 312.82 -4.10079 1.6519 0
M  V30 3393 N 311.879 -1.3236 -0.855495 0
M  V30 3394 C 313.128 -1.22226 -1.60448 0
M  V30 3395 C 313.441 0.214733 -1.94418 0
M  V30 3396 O 314.647 0.437917 -2.67945 0
M  V30 3397 C 313.103 -2.14063 -2.89318 0
M  V30 3398 C 312.711 -3.62839 -2.62777 0
M  V30 3399 C 314.455 -2.12764 -3.67331 0
M  V30 3400 C 312.362 -4.4664 -3.87643 0
M  V30 3401 H 311.292 -0.453904 -0.602069 0
M  V30 3402 H 313.943 -1.57314 -0.944698 0
M  V30 3403 H 312.325 -1.71889 -3.5675 0
M  V30 3404 H 313.499 -4.1335 -2.03662 0
M  V30 3405 H 311.814 -3.66261 -1.98096 0
M  V30 3406 H 314.411 -2.72611 -4.59987 0
M  V30 3407 H 314.754 -1.11841 -4.00995 0
M  V30 3408 H 315.287 -2.53214 -3.06802 0
M  V30 3409 H 312.026 -5.48373 -3.5912 0
M  V30 3410 H 311.546 -4.0088 -4.46156 0
M  V30 3411 H 313.225 -4.59597 -4.55389 0
M  V30 3412 N 313.357 1.07166 -1.15556 0
M  V30 3413 C 314.634 1.76546 -0.842069 0
M  V30 3414 C 315.014 2.00453 0.661939 0
M  V30 3415 O 314.362 1.62452 1.60691 0
M  V30 3416 C 314.572 3.07266 -1.65495 0
M  V30 3417 C 315.92 3.81578 -1.86234 0
M  V30 3418 O 316.944 3.17083 -1.62287 0
M  V30 3419 O 315.803 4.97419 -2.26355 0
M  V30 3420 H 312.897 0.766756 -0.309862 0
M  V30 3421 H 315.443 1.13514 -1.26145 0
M  V30 3422 H 314.215 2.85494 -2.67598 0
M  V30 3423 H 313.838 3.7803 -1.23203 0
M  V30 3424 N 314.835 0.952656 1.25548 0
M  V30 3425 C 315.745 0.47782 2.29682 0
M  V30 3426 C 316.761 -0.453859 1.67977 0
M  V30 3427 O 317.937 -0.330587 1.98668 0
M  V30 3428 C 315.002 -0.238655 3.45878 0
M  V30 3429 C 314.063 0.730994 4.23031 0
M  V30 3430 C 313.296 0.0486165 5.33678 0
M  V30 3431 O 313.519 -1.16612 5.58353 0
M  V30 3432 O 312.453 0.733152 5.97418 0
M  V30 3433 H 316.279 1.34312 2.72386 0
M  V30 3434 H 313.864 0.719026 1.30959 0
M  V30 3435 H 315.746 -0.641774 4.16484 0
M  V30 3436 H 314.421 -1.07916 3.05181 0
M  V30 3437 H 313.328 1.18428 3.5486 0
M  V30 3438 H 314.661 1.53946 4.67506 0
M  V30 3439 N 316.313 -1.40141 0.720998 0
M  V30 3440 C 317.729 -1.54632 0.395113 0
M  V30 3441 C 317.929 -1.69115 -1.09555 0
M  V30 3442 O 316.985 -1.68377 -1.88163 0
M  V30 3443 C 318.298 -2.77177 1.1659 0
M  V30 3444 C 319.846 -2.91 1.15274 0
M  V30 3445 C 320.321 -4.16465 1.90579 0
M  V30 3446 N 321.812 -4.23476 1.87675 0
M  V30 3447 C 322.547 -5.19475 2.42762 0
M  V30 3448 N 322.043 -6.21348 3.06428 0
M  V30 3449 N 323.836 -5.11592 2.32874 0
M  V30 3450 H 315.987 -1.28986 1.68749 0
M  V30 3451 H 318.25 -0.62412 0.713567 0
M  V30 3452 H 317.956 -2.72771 2.22011 0
M  V30 3453 H 317.83 -3.69442 0.76108 0
M  V30 3454 H 320.217 -2.94907 0.106702 0
M  V30 3455 H 320.298 -1.99838 1.59682 0
M  V30 3456 H 319.942 -4.1332 2.95176 0
M  V30 3457 H 319.872 -5.06646 1.43587 0
M  V30 3458 H 322.363 -3.50497 1.41281 0
M  V30 3459 H 322.676 -6.91034 3.45965 0
M  V30 3460 H 321.021 -6.21777 3.10514 0
M  V30 3461 H 324.212 -4.30936 1.82789 0
M  V30 3462 H 324.385 -5.86233 2.76106 0
M  V30 3463 N 317.792 -0.46758 -1.50504 0
M  V30 3464 C 319.02 0.0864133 -2.06719 0
M  V30 3465 C 319.435 1.33819 -1.33184 0
M  V30 3466 O 318.792 1.78061 -0.400083 0
M  V30 3467 C 318.843 0.378079 -3.59517 0
M  V30 3468 O 318.564 -0.824044 -4.3028 0
M  V30 3469 C 320.065 0.979426 -4.32345 0
M  V30 3470 H 317.285 -0.00551697 -0.670977 0
M  V30 3471 H 319.829 -0.655354 -1.93715 0
M  V30 3472 H 317.984 1.06977 -3.72337 0
M  V30 3473 H 318.398 -0.566518 -5.21432 0
M  V30 3474 H 319.872 1.1333 -5.40241 0
M  V30 3475 H 320.349 1.9686 -3.9261 0
M  V30 3476 H 320.955 0.326216 -4.24047 0
M  V30 3477 N 319.27 1.56325 -0.20005 0
M  V30 3478 C 320.547 1.89484 0.48529 0
M  V30 3479 C 320.927 1.1143 1.79294 0
M  V30 3480 O 320.275 0.216919 2.27468 0
M  V30 3481 C 320.485 3.41923 0.699243 0
M  V30 3482 C 321.833 4.12256 1.01638 0
M  V30 3483 O 322.857 3.47402 0.786792 0
M  V30 3484 O 321.716 5.26887 1.45095 0
M  V30 3485 H 318.81 0.787144 0.253639 0
M  V30 3486 H 321.356 1.67985 -0.240633 0
M  V30 3487 H 320.128 3.90658 -0.224008 0
M  V30 3488 H 319.751 3.69131 1.47744 0
M  V30 3489 N 320.748 -0.0735177 1.57428 0
M  V30 3490 C 321.994 -0.774145 1.87443 0
M  V30 3491 C 322.327 -1.77311 0.792103 0
M  V30 3492 O 321.602 -1.93492 -0.197793 0
M  V30 3493 C 321.885 -1.48367 3.28115 0
M  V30 3494 C 321.738 -0.501227 4.46999 0
M  V30 3495 C 323.057 -2.429 3.66998 0
M  V30 3496 H 320.176 -0.279971 0.681752 0
M  V30 3497 H 322.818 -0.0373616 1.89963 0
M  V30 3498 H 320.968 -2.11171 3.26097 0
M  V30 3499 H 322.64 0.121468 4.6114 0
M  V30 3500 H 320.883 0.183593 4.33411 0
M  V30 3501 H 321.554 -1.03526 5.42205 0
M  V30 3502 H 324.03 -1.90175 3.70098 0
M  V30 3503 H 322.906 -2.89549 4.66318 0
M  V30 3504 H 323.167 -3.27628 2.96837 0
M  V30 3505 N 322.226 -1.5378 -0.344866 0
M  V30 3506 C 323.472 -1.72158 -1.0832 0
M  V30 3507 C 323.827 -0.478218 -1.86362 0
M  V30 3508 O 323.12 0.529152 -1.84148 0
M  V30 3509 C 323.314 -2.92407 -2.05506 0
M  V30 3510 C 323.143 -4.28318 -1.37017 0
M  V30 3511 C 321.913 -4.92832 -1.11558 0
M  V30 3512 C 324.111 -5.08086 -0.797071 0
M  V30 3513 N 322.093 -6.12619 -0.396358 0
M  V30 3514 C 323.464 -6.1965 -0.208336 0
M  V30 3515 C 325.519 -4.92986 -0.697787 0
M  V30 3516 C 324.222 -7.17763 0.470023 0
M  V30 3517 C 326.248 -5.91391 -0.033171 0
M  V30 3518 C 325.61 -7.02292 0.544599 0
M  V30 3519 H 321.709 -0.683017 -0.380805 0
M  V30 3520 H 324.293 -1.91211 -0.366961 0
M  V30 3521 H 322.464 -2.74857 -2.74423 0
M  V30 3522 H 324.196 -2.9951 -2.72169 0
M  V30 3523 H 320.951 -4.52362 -1.40234 0
M  V30 3524 H 321.375 -6.7698 -0.0515119 0
M  V30 3525 H 326.017 -4.07414 -1.13022 0
M  V30 3526 H 323.735 -8.0291 0.914351 0
M  V30 3527 H 327.321 -5.81784 0.0430009 0
M  V30 3528 H 326.201 -7.77129 1.05073 0
M  V30 3529 N 323.704 0.605807 -1.45491 0
M  V30 3530 C 324.929 1.39625 -1.53361 0
M  V30 3531 C 325.354 1.87351 -0.167645 0
M  V30 3532 O 324.712 1.60243 0.848051 0
M  V30 3533 C 324.76 2.57559 -2.5238 0
M  V30 3534 O 323.864 3.58248 -2.04285 0
M  V30 3535 H 323.205 0.416771 -0.516912 0
M  V30 3536 H 325.735 0.737103 -1.90861 0
M  V30 3537 H 325.745 3.0478 -2.71244 0
M  V30 3538 H 324.42 2.22171 -3.51586 0
M  V30 3539 H 322.997 3.17664 -1.95305 0
M  V30 3540 N 325.182 1.32811 0.848464 0
M  V30 3541 C 326.112 1.24882 1.97299 0
M  V30 3542 C 327.093 0.131357 1.69592 0
M  V30 3543 O 328.278 0.319553 1.91553 0
M  V30 3544 C 325.408 0.97746 3.33261 0
M  V30 3545 C 324.362 2.05682 3.75338 0
M  V30 3546 C 323.688 1.63777 5.09 0
M  V30 3547 C 324.988 3.47254 3.90144 0
M  V30 3548 H 326.682 2.18966 2.04191 0
M  V30 3549 H 324.228 1.05413 0.981029 0
M  V30 3550 H 326.181 0.908513 4.1149 0
M  V30 3551 H 324.905 0.000980011 3.266 0
M  V30 3552 H 323.564 2.11603 2.99366 0
M  V30 3553 H 323.212 0.648569 4.98801 0
M  V30 3554 H 322.912 2.36 5.38124 0
M  V30 3555 H 324.436 1.5833 5.89715 0
M  V30 3556 H 325.85 3.43888 4.58709 0
M  V30 3557 H 324.247 4.1788 4.30693 0
M  V30 3558 H 325.317 3.86462 2.92874 0
M  V30 3559 N 326.66 -1.06551 1.16123 0
M  V30 3560 C 327.908 -1.78947 0.939267 0
M  V30 3561 C 328.229 -1.87532 -0.534476 0
M  V30 3562 O 327.499 -1.38211 -1.38833 0
M  V30 3563 H 326.079 -0.662807 0.344523 0
M  V30 3564 H 328.741 -1.28725 1.46342 0
M  V30 3565 H 327.837 -2.81117 1.35572 0
M  V30 3566 N 328.138 -0.959301 -1.25041 0
M  V30 3567 C 329.378 -0.624343 -1.94631 0
M  V30 3568 C 329.742 0.82403 -1.73418 0
M  V30 3569 O 330.943 1.26881 -2.3697 0
M  V30 3570 C 329.214 -0.978805 -3.43736 0
M  V30 3571 S 330.773 -0.757127 -4.32219 0
M  V30 3572 H 327.591 -0.229327 -0.673001 0
M  V30 3573 H 330.193 -1.23447 -1.51595 0
M  V30 3574 H 328.897 -2.02997 -3.56679 0
M  V30 3575 H 328.428 -0.359117 -3.91757 0
M  V30 3576 H 330.443 0.369759 -4.9482 0
M  V30 3577 N 329.616 1.39756 -0.72842 0
M  V30 3578 C 330.862 2.00942 -0.273892 0
M  V30 3579 C 331.195 1.57656 1.13394 0
M  V30 3580 O 330.47 0.802434 1.77176 0
M  V30 3581 C 330.753 3.58211 -0.368346 0
M  V30 3582 C 330.606 4.11534 -1.81548 0
M  V30 3583 C 331.925 4.39372 0.253054 0
M  V30 3584 H 329.044 0.730047 -0.100996 0
M  V30 3585 H 331.686 1.66056 -0.923337 0
M  V30 3586 H 329.836 3.88061 0.184588 0
M  V30 3587 H 331.508 3.92431 -2.42478 0
M  V30 3588 H 329.751 3.65341 -2.33898 0
M  V30 3589 H 330.422 5.20682 -1.83288 0
M  V30 3590 H 332.898 4.15527 -0.218224 0
M  V30 3591 H 331.774 5.48677 0.156585 0
M  V30 3592 H 332.035 4.21358 1.33826 0
M  V30 3593 N 331.094 0.475555 1.50254 0
M  V30 3594 C 332.024 -0.30611 2.31485 0
M  V30 3595 C 333.005 -0.986228 1.38591 0
M  V30 3596 O 334.19 -0.982541 1.67511 0
M  V30 3597 C 331.32 -1.38588 3.1845 0
M  V30 3598 C 330.274 -0.827115 4.19932 0
M  V30 3599 C 329.6 -2.00551 4.95665 0
M  V30 3600 C 330.9 0.16463 5.2204 0
M  V30 3601 H 332.594 0.371866 2.97082 0
M  V30 3602 H 330.14 0.180282 1.42867 0
M  V30 3603 H 332.093 -1.94023 3.74076 0
M  V30 3604 H 330.817 -2.09269 2.50747 0
M  V30 3605 H 329.476 -0.294702 3.65414 0
M  V30 3606 H 329.124 -2.6994 4.2443 0
M  V30 3607 H 328.824 -1.63784 5.64313 0
M  V30 3608 H 330.348 -2.56468 5.54127 0
M  V30 3609 H 331.762 -0.300699 5.72511 0
M  V30 3610 H 330.159 0.446813 5.98434 0
M  V30 3611 H 331.229 1.08905 4.72512 0
M  V30 3612 N 332.573 -1.56217 0.208337 0
M  V30 3613 C 333.803 -2.02043 -0.431523 0
M  V30 3614 C 334.211 -1.08755 -1.54819 0
M  V30 3615 O 333.554 -0.0870009 -1.83494 0
M  V30 3616 C 333.616 -3.44239 -1.03633 0
M  V30 3617 C 333.28 -4.56965 -0.0567502 0
M  V30 3618 C 334.277 -5.14624 0.738773 0
M  V30 3619 C 331.962 -5.02266 0.0581736 0
M  V30 3620 C 333.956 -6.16045 1.63605 0
M  V30 3621 C 331.643 -6.03528 0.959001 0
M  V30 3622 C 332.641 -6.60293 1.7465 0
M  V30 3623 O 332.329 -7.59586 2.6322 0
M  V30 3624 H 332.061 -0.666772 -0.111313 0
M  V30 3625 H 334.615 -2.02919 0.318277 0
M  V30 3626 H 332.845 -3.40391 -1.83497 0
M  V30 3627 H 334.534 -3.73793 -1.58221 0
M  V30 3628 H 335.3 -4.80483 0.660364 0
M  V30 3629 H 331.179 -4.57771 -0.544633 0
M  V30 3630 H 334.723 -6.60279 2.25116 0
M  V30 3631 H 330.62 -6.37092 1.03848 0
M  V30 3632 H 331.388 -7.77057 2.57148 0
M  V30 3633 N 334.051 0.0651679 -1.57465 0
M  V30 3634 C 335.014 1.06117 -2.03155 0
M  V30 3635 C 336.014 1.31204 -0.929632 0
M  V30 3636 O 337.204 1.26813 -1.19432 0
M  V30 3637 C 334.336 2.4032 -2.41783 0
M  V30 3638 H 335.529 0.667231 -2.92383 0
M  V30 3639 H 333.082 0.311075 -1.53173 0
M  V30 3640 H 333.817 2.84532 -1.55601 0
M  V30 3641 H 333.602 2.23451 -3.22199 0
M  V30 3642 H 335.092 3.11898 -2.77685 0
M  V30 3643 N 335.529 1.53961 0.336706 0
M  V30 3644 C 336.462 1.77255 1.43722 0
M  V30 3645 C 337.44 0.62193 1.50236 0
M  V30 3646 O 338.624 0.857874 1.67847 0
M  V30 3647 C 335.751 1.87733 2.81912 0
M  V30 3648 C 334.797 3.09933 2.92991 0
M  V30 3649 S 335.63 4.68836 2.58753 0
M  V30 3650 C 336.786 4.82202 3.99039 0
M  V30 3651 H 337.019 2.70322 1.23748 0
M  V30 3652 H 334.552 1.44917 0.532777 0
M  V30 3653 H 336.51 1.94455 3.61521 0
M  V30 3654 H 335.171 0.956666 2.99177 0
M  V30 3655 H 334.364 3.1396 3.94265 0
M  V30 3656 H 333.966 3.01472 2.21338 0
M  V30 3657 H 336.258 4.64032 4.9364 0
M  V30 3658 H 337.201 5.84298 4.00002 0
M  V30 3659 H 337.609 4.10604 3.87382 0
M  V30 3660 N 337.007 -0.598083 1.45811 0
M  V30 3661 C 337.94 -1.7223 1.49706 0
M  V30 3662 C 338.918 -1.58732 0.352535 0
M  V30 3663 O 340.102 -1.80162 0.554438 0
M  V30 3664 C 337.229 -3.10148 1.3611 0
M  V30 3665 C 336.275 -3.42209 2.54549 0
M  V30 3666 S 337.108 -3.35989 4.16979 0
M  V30 3667 C 338.264 -4.76471 4.05865 0
M  V30 3668 H 338.497 -1.68665 2.44826 0
M  V30 3669 H 336.03 -0.775541 1.33509 0
M  V30 3670 H 337.988 -3.8972 1.28953 0
M  V30 3671 H 336.649 -3.11219 0.424451 0
M  V30 3672 H 335.842 -4.42652 2.40988 0
M  V30 3673 H 335.444 -2.70173 2.58617 0
M  V30 3674 H 337.736 -5.665 3.71596 0
M  V30 3675 H 338.679 -4.95089 5.06253 0
M  V30 3676 H 339.087 -4.52599 3.37364 0
M  V30 3677 N 338.485 -1.33259 -0.841409 0
M  V30 3678 C 339.732 -1.24572 -1.5965 0
M  V30 3679 C 340.06 0.189137 -1.93578 0
M  V30 3680 O 339.315 1.14566 -1.5866 0
M  V30 3681 C 339.614 -2.06381 -2.9179 0
M  V30 3682 C 339.28 -3.556 -2.77235 0
M  V30 3683 C 337.942 -3.96282 -2.72973 0
M  V30 3684 C 340.294 -4.50433 -2.62221 0
M  V30 3685 C 337.622 -5.30017 -2.51592 0
M  V30 3686 C 339.974 -5.84327 -2.42374 0
M  V30 3687 C 338.638 -6.24194 -2.36512 0
M  V30 3688 H 337.908 -0.455842 -0.5842 0
M  V30 3689 H 340.555 -1.6482 -0.975016 0
M  V30 3690 H 338.86 -1.58903 -3.5813 0
M  V30 3691 H 340.557 -1.97019 -3.49263 0
M  V30 3692 H 337.147 -3.23298 -2.81384 0
M  V30 3693 H 341.331 -4.19914 -2.64549 0
M  V30 3694 H 336.587 -5.59947 -2.45499 0
M  V30 3695 H 340.761 -6.57414 -2.29739 0
M  V30 3696 H 338.388 -7.27759 -2.19706 0
M  V30 3697 N 339.963 1.05934 -1.16686 0
M  V30 3698 C 341.211 1.78447 -0.948744 0
M  V30 3699 C 341.532 1.87813 0.524523 0
M  V30 3700 O 340.802 1.38945 1.38098 0
M  V30 3701 H 339.382 0.660971 -0.348033 0
M  V30 3702 H 342.044 1.27947 -1.47022 0
M  V30 3703 H 341.14 2.80394 -1.37061 0
M  V30 3704 N 341.441 0.965919 1.2453 0
M  V30 3705 C 342.351 0.502154 2.29163 0
M  V30 3706 C 343.367 -0.436017 1.68448 0
M  V30 3707 O 344.543 -0.309497 1.99008 0
M  V30 3708 C 341.608 -0.201956 3.46111 0
M  V30 3709 C 340.669 0.775821 4.22232 0
M  V30 3710 C 339.902 0.105217 5.33596 0
M  V30 3711 O 340.125 -1.10683 5.59558 0
M  V30 3712 O 339.059 0.796475 5.96607 0
M  V30 3713 H 342.885 1.37194 2.70946 0
M  V30 3714 H 340.47 0.732875 1.30189 0
M  V30 3715 H 342.352 -0.597564 4.17142 0
M  V30 3716 H 341.027 -1.04673 3.06309 0
M  V30 3717 H 339.934 1.22185 3.53584 0
M  V30 3718 H 341.267 1.58896 4.65846 0
M  V30 3719 N 342.919 -1.39368 0.735821 0
M  V30 3720 C 344.167 -2.00101 0.283562 0
M  V30 3721 C 344.488 -1.5868 -1.13338 0
M  V30 3722 O 343.758 -0.835423 -1.77193 0
M  V30 3723 H 342.338 -0.740024 0.101851 0
M  V30 3724 H 345 -1.70404 0.945962 0
M  V30 3725 H 344.096 -3.10323 0.332604 0
M  V30 3726 N 344.397 -0.483516 -1.5 0
M  V30 3727 C 345.808 -0.0314176 -1.86674 0
M  V30 3728 C 346.159 1.37728 -1.39733 0
M  V30 3729 O 345.284 2.02327 -0.767635 0
M  V30 3730 C 345.879 -0.0502376 -3.38763 0
M  V30 3731 C 344.438 0.346442 -3.74802 0
M  V30 3732 C 343.585 -0.430366 -2.7394 0
M  V30 3733 H 346.536 -0.697182 -1.42566 0
M  V30 3734 H 346.557 0.749116 -3.73053 0
M  V30 3735 H 346.069 -1.07563 -3.72897 0
M  V30 3736 H 344.17 1.37572 -3.46273 0
M  V30 3737 H 344.283 0.0391486 -4.79084 0
M  V30 3738 H 342.647 0.117557 -2.54429 0
M  V30 3739 H 343.43 -1.4555 -3.10918 0
M  V30 3740 N 345.875 1.56104 -0.216619 0
M  V30 3741 C 347.105 2.02269 0.420802 0
M  V30 3742 C 347.513 1.09575 1.5424 0
M  V30 3743 O 346.856 0.0967308 1.83445 0
M  V30 3744 C 346.918 3.44784 1.01806 0
M  V30 3745 C 346.582 4.56988 0.0325154 0
M  V30 3746 C 347.579 5.14225 -0.766055 0
M  V30 3747 C 345.264 5.02228 -0.0848092 0
M  V30 3748 C 347.258 6.15169 -1.6687 0
M  V30 3749 C 344.945 6.03011 -0.990994 0
M  V30 3750 C 345.943 6.59357 -1.78149 0
M  V30 3751 O 345.631 7.58179 -2.67245 0
M  V30 3752 H 345.363 0.667353 0.107776 0
M  V30 3753 H 347.917 2.02747 -0.329034 0
M  V30 3754 H 346.147 3.41359 1.81689 0
M  V30 3755 H 347.836 3.74626 1.56237 0
M  V30 3756 H 348.602 4.80126 -0.685836 0
M  V30 3757 H 344.481 4.58054 0.520349 0
M  V30 3758 H 348.025 6.59076 -2.28615 0
M  V30 3759 H 343.922 6.36532 -1.07225 0
M  V30 3760 H 344.69 7.75682 -2.61265 0
M  V30 3761 N 347.353 -0.0568162 1.57498 0
M  V30 3762 C 348.63 -0.786954 1.79071 0
M  V30 3763 C 349.01 -1.95028 0.80792 0
M  V30 3764 O 348.358 -2.27968 -0.155858 0
M  V30 3765 C 348.568 -1.24594 3.26002 0
M  V30 3766 C 349.916 -1.67323 3.90241 0
M  V30 3767 O 350.94 -1.34124 3.29984 0
M  V30 3768 O 349.799 -2.28842 4.9628 0
M  V30 3769 H 346.893 -0.378262 0.735423 0
M  V30 3770 H 349.439 -0.035734 1.69662 0
M  V30 3771 H 348.211 -0.41423 3.89101 0
M  V30 3772 H 347.834 -2.05803 3.40192 0
M  V30 3773 N 348.832 -1.54138 -0.328536 0
M  V30 3774 C 349.765 -1.78014 -1.4278 0
M  V30 3775 C 350.743 -0.629889 -1.49904 0
M  V30 3776 O 351.927 -0.866763 -1.6739 0
M  V30 3777 C 349.054 -1.89225 -2.80912 0
M  V30 3778 C 348.1 -3.11483 -2.91343 0
M  V30 3779 S 348.933 -4.70201 -2.56263 0
M  V30 3780 C 350.089 -4.84312 -3.96476 0
M  V30 3781 H 350.322 -2.70974 -1.22313 0
M  V30 3782 H 347.855 -1.45197 -0.525084 0
M  V30 3783 H 349.813 -1.9637 -3.60485 0
M  V30 3784 H 348.474 -0.972518 -2.98665 0
M  V30 3785 H 347.667 -3.16046 -3.92595 0
M  V30 3786 H 347.269 -3.02642 -2.19736 0
M  V30 3787 H 349.561 -4.66643 -4.91173 0
M  V30 3788 H 350.504 -5.86411 -3.96898 0
M  V30 3789 H 350.912 -4.12652 -3.85199 0
M  V30 3790 N 350.31 0.590341 -1.46126 0
M  V30 3791 C 351.556 1.35082 -1.51264 0
M  V30 3792 C 351.889 1.93534 -0.160711 0
M  V30 3793 O 351.164 1.76045 0.826956 0
M  V30 3794 C 351.447 2.48588 -2.6053 0
M  V30 3795 C 351.3 1.95221 -4.05227 0
M  V30 3796 C 352.619 3.50662 -2.6594 0
M  V30 3797 H 349.738 0.489803 -0.550692 0
M  V30 3798 H 352.38 0.663887 -1.78024 0
M  V30 3799 H 350.53 3.07186 -2.37843 0
M  V30 3800 H 352.202 1.41139 -4.39178 0
M  V30 3801 H 350.445 1.26101 -4.15068 0
M  V30 3802 H 351.116 2.77121 -4.77397 0
M  V30 3803 H 353.592 3.01934 -2.86313 0
M  V30 3804 H 352.468 4.27551 -3.44226 0
M  V30 3805 H 352.729 4.07399 -1.71694 0
M  V30 3806 N 351.788 1.33704 0.83433 0
M  V30 3807 C 353.035 1.25417 1.58987 0
M  V30 3808 C 353.363 -0.178869 1.93676 0
M  V30 3809 O 352.618 -1.13723 1.59265 0
M  V30 3810 C 352.917 2.07926 2.90692 0
M  V30 3811 C 352.583 3.57066 2.75345 0
M  V30 3812 C 351.245 3.97724 2.70867 0
M  V30 3813 C 353.597 4.51817 2.59828 0
M  V30 3814 C 350.925 5.31344 2.48778 0
M  V30 3815 C 353.277 5.85604 2.39272 0
M  V30 3816 C 351.941 6.25439 2.33199 0
M  V30 3817 H 351.211 0.458934 0.581774 0
M  V30 3818 H 353.858 1.65335 0.966261 0
M  V30 3819 H 352.163 1.608 3.57282 0
M  V30 3820 H 353.86 1.98868 3.48213 0
M  V30 3821 H 350.45 3.24785 2.79665 0
M  V30 3822 H 354.634 4.21311 2.62319 0
M  V30 3823 H 349.89 5.61241 2.42526 0
M  V30 3824 H 354.064 6.58623 2.2625 0
M  V30 3825 H 351.691 7.28914 2.15843 0
M  V30 3826 N 353.266 -1.05314 1.17247 0
M  V30 3827 C 354.198 -2.13023 0.845812 0
M  V30 3828 C 355.211 -1.62096 -0.151246 0
M  V30 3829 O 356.4 -1.78343 0.0748818 0
M  V30 3830 C 353.5 -3.38047 0.240292 0
M  V30 3831 C 352.673 -4.18255 1.27991 0
M  V30 3832 C 351.732 -5.21625 0.692375 0
M  V30 3833 O 350.758 -5.52619 1.36385 0
M  V30 3834 N 351.96 -5.78201 -0.516178 0
M  V30 3835 H 354.725 -2.41642 1.77283 0
M  V30 3836 H 352.286 -1.21401 1.07115 0
M  V30 3837 H 354.278 -4.04359 -0.16603 0
M  V30 3838 H 352.848 -3.06972 -0.590487 0
M  V30 3839 H 352.068 -3.47451 1.86203 0
M  V30 3840 H 353.356 -4.68643 1.98119 0
M  V30 3841 H 352.754 -5.55301 -1.07969 0
M  V30 3842 H 351.311 -6.4604 -0.86458 0
M  V30 3843 N 354.744 -0.972509 -1.24016 0
M  V30 3844 C 355.691 -0.505969 -2.25186 0
M  V30 3845 C 356.661 0.451009 -1.5986 0
M  V30 3846 O 357.846 0.360307 -1.87367 0
M  V30 3847 C 354.986 0.193089 -3.44559 0
M  V30 3848 C 354.099 -0.803222 -4.24467 0
M  V30 3849 C 353.234 -0.0797793 -5.3114 0
M  V30 3850 C 352.273 -1.06583 -6.02749 0
M  V30 3851 N 351.41 -0.372074 -7.01113 0
M  V30 3852 H 356.25 -1.37351 -2.64459 0
M  V30 3853 H 353.787 -0.688419 -1.29997 0
M  V30 3854 H 355.745 0.615125 -4.1264 0
M  V30 3855 H 354.375 1.02455 -3.06109 0
M  V30 3856 H 353.427 -1.34368 -3.55878 0
M  V30 3857 H 354.739 -1.55494 -4.73944 0
M  V30 3858 H 353.893 0.400015 -6.0538 0
M  V30 3859 H 352.632 0.704597 -4.82583 0
M  V30 3860 H 351.637 -1.55645 -5.27309 0
M  V30 3861 H 352.862 -1.85074 -6.53395 0
M  V30 3862 H 350.808 0.393238 -6.5482 0
M  V30 3863 H 350.725 -1.06258 -7.48495 0
M  V30 3864 H 351.993 0.0855932 -7.79453 0
M  V30 3865 N 356.222 1.38976 -0.743202 0
M  V30 3866 C 357.47 1.99948 -0.29417 0
M  V30 3867 C 357.791 1.59279 1.12495 0
M  V30 3868 O 357.061 0.844808 1.76748 0
M  V30 3869 H 355.641 0.739473 -0.105774 0
M  V30 3870 H 358.303 1.699 -0.954986 0
M  V30 3871 H 357.399 3.10142 -0.349056 0
M  V30 3872 N 357.7 0.491464 1.49741 0
M  V30 3873 C 358.977 -0.118984 1.95238 0
M  V30 3874 C 359.357 -1.55044 1.43264 0
M  V30 3875 O 358.705 -2.19287 0.642287 0
M  V30 3876 C 358.915 -0.0414187 3.48975 0
M  V30 3877 C 360.263 -0.220133 4.24029 0
M  V30 3878 O 361.287 -0.117055 3.56008 0
M  V30 3879 O 360.146 -0.430567 5.44801 0
M  V30 3880 H 357.24 -0.100536 0.820866 0
M  V30 3881 H 359.786 0.553322 1.60426 0
M  V30 3882 H 358.558 0.957214 3.79412 0
M  V30 3883 H 358.181 -0.754292 3.9038 0
M  V30 3884 N 359.178 -1.55987 0.224894 0
M  V30 3885 C 360.403 -2.03232 -0.41369 0
M  V30 3886 C 360.828 -1.10359 -1.52323 0
M  V30 3887 O 360.186 -0.092395 -1.81064 0
M  V30 3888 C 360.234 -3.48682 -0.919405 0
M  V30 3889 O 359.338 -3.58947 -2.03054 0
M  V30 3890 H 358.679 -0.657428 -0.0931903 0
M  V30 3891 H 361.209 -2.01679 0.34451 0
M  V30 3892 H 361.219 -3.8907 -1.22835 0
M  V30 3893 H 359.894 -4.15761 -0.107339 0
M  V30 3894 H 358.471 -3.30448 -1.72796 0
M  V30 3895 N 360.656 0.0484629 -1.57525 0
M  V30 3896 C 361.902 0.744226 -1.88651 0
M  V30 3897 C 362.235 1.76029 -0.820212 0
M  V30 3898 O 361.51 1.93782 0.166985 0
M  V30 3899 C 361.793 1.43128 -3.30434 0
M  V30 3900 C 361.646 0.43005 -4.47739 0
M  V30 3901 C 362.965 2.37031 -3.70816 0
M  V30 3902 H 360.084 0.269089 -0.68612 0
M  V30 3903 H 362.726 0.00713532 -1.89999 0
M  V30 3904 H 360.876 2.05956 -3.29415 0
M  V30 3905 H 362.548 -0.194816 -4.60888 0
M  V30 3906 H 360.791 -0.252522 -4.33064 0
M  V30 3907 H 361.462 0.948874 -5.43783 0
M  V30 3908 H 363.938 1.84263 -3.73077 0
M  V30 3909 H 362.814 2.82094 -4.70865 0
M  V30 3910 H 363.075 3.22864 -3.02012 0
M  V30 3911 N 362.134 1.5431 0.320358 0
M  V30 3912 C 363.097 1.83195 1.3774 0
M  V30 3913 C 364.097 0.703906 1.44575 0
M  V30 3914 O 365.287 0.972214 1.44546 0
M  V30 3915 C 362.419 1.99487 2.76438 0
M  V30 3916 H 363.612 2.77642 1.1338 0
M  V30 3917 H 361.165 1.46076 0.556012 0
M  V30 3918 H 361.9 1.07262 3.06048 0
M  V30 3919 H 361.685 2.81575 2.7287 0
M  V30 3920 H 363.175 2.23271 3.52902 0
M  V30 3921 N 363.613 -0.582584 1.46437 0
M  V30 3922 C 364.543 -1.70187 1.59871 0
M  V30 3923 C 365.524 -1.64066 0.449042 0
M  V30 3924 O 366.709 -1.82081 0.6753 0
M  V30 3925 C 363.839 -3.08827 1.58881 0
M  V30 3926 C 362.793 -3.29779 2.72819 0
M  V30 3927 C 362.119 -4.68947 2.5689 0
M  V30 3928 C 363.419 -3.17601 4.1464 0
M  V30 3929 H 365.113 -1.592 2.53566 0
M  V30 3930 H 362.659 -0.764472 1.22032 0
M  V30 3931 H 364.612 -3.86951 1.66873 0
M  V30 3932 H 363.336 -3.20713 0.617306 0
M  V30 3933 H 361.995 -2.54054 2.64296 0
M  V30 3934 H 361.643 -4.77599 1.57823 0
M  V30 3935 H 361.343 -4.83919 3.33312 0
M  V30 3936 H 362.867 -5.4924 2.66773 0
M  V30 3937 H 364.281 -3.8557 4.24274 0
M  V30 3938 H 362.678 -3.44094 4.9165 0
M  V30 3939 H 363.748 -2.14681 4.34788 0
M  V30 3940 N 365.091 -1.34144 -0.827227 0
M  V30 3941 C 366.054 -1.25264 -1.91942 0
M  V30 3942 C 367.054 -0.168866 -1.59911 0
M  V30 3943 O 368.244 -0.421198 -1.69031 0
M  V30 3944 C 365.376 -0.932952 -3.27885 0
M  V30 3945 H 366.569 -2.22357 -2.0124 0
M  V30 3946 H 364.122 -1.1837 -1.0207 0
M  V30 3947 H 364.857 0.0349917 -3.24281 0
M  V30 3948 H 364.642 -1.71682 -3.52516 0
M  V30 3949 H 366.132 -0.895874 -4.07877 0
M  V30 3950 N 366.569 1.04691 -1.17803 0
M  V30 3951 C 367.815 1.78045 -0.970969 0
M  V30 3952 C 368.148 1.87686 0.498751 0
M  V30 3953 O 367.423 1.38035 1.37027 0
M  V30 3954 C 367.706 3.2166 -1.61884 0
M  V30 3955 C 367.559 3.20001 -3.161 0
M  V30 3956 C 368.878 4.1962 -1.3269 0
M  V30 3957 H 365.997 0.64633 -0.354155 0
M  V30 3958 H 368.639 1.22333 -1.45378 0
M  V30 3959 H 366.789 3.69232 -1.20831 0
M  V30 3960 H 368.461 2.80467 -3.66246 0
M  V30 3961 H 366.704 2.58203 -3.48588 0
M  V30 3962 H 367.375 4.21386 -3.56564 0
M  V30 3963 H 369.851 3.80567 -1.68249 0
M  V30 3964 H 368.727 5.18339 -1.80599 0
M  V30 3965 H 368.988 4.414 -0.248622 0
M  V30 3966 N 368.047 0.979072 1.23499 0
M  V30 3967 C 368.979 0.476271 2.24197 0
M  V30 3968 C 369.992 -0.421166 1.57258 0
M  V30 3969 O 371.181 -0.225515 1.7707 0
M  V30 3970 C 368.281 -0.330503 3.37285 0
M  V30 3971 C 367.454 0.559744 4.33804 0
M  V30 3972 C 366.513 -0.192954 5.25846 0
M  V30 3973 O 365.539 0.416978 5.67671 0
M  V30 3974 N 366.741 -1.47932 5.61334 0
M  V30 3975 H 369.506 1.34211 2.67969 0
M  V30 3976 H 367.067 0.852189 1.37657 0
M  V30 3977 H 369.059 -0.842361 3.95836 0
M  V30 3978 H 367.629 -1.09734 2.92707 0
M  V30 3979 H 366.849 1.25245 3.73775 0
M  V30 3980 H 368.137 1.1665 4.95248 0
M  V30 3981 H 367.535 -1.9964 5.29302 0
M  V30 3982 H 366.092 -1.93664 6.22364 0
M  V30 3983 N 369.525 -1.3858 0.750561 0
M  V30 3984 C 370.473 -2.32339 0.110162 0
M  V30 3985 C 371.467 -1.53864 -0.708674 0
M  V30 3986 O 372.673 -1.69417 -0.608112 0
M  V30 3987 H 369.048 -0.751812 0.0168275 0
M  V30 3988 H 371.019 -2.83959 0.917053 0
M  V30 3989 C 369.768 -3.39043 -0.771067 0
M  V30 3990 H 369.091 -3.99517 -0.150374 0
M  V30 3991 H 370.531 -4.07061 -1.1865 0
M  V30 3992 C 368.99 -2.77365 -1.91234 0
M  V30 3993 O 369.52 -2.66434 -3.00626 0
M  V30 3994 N 367.726 -2.35219 -1.70646 0
M  V30 3995 H 367.273 -2.4431 -0.81673 0
M  V30 3996 H 367.231 -1.94294 -2.47178 0
M  V30 3997 N 371.003 -0.499398 -1.49478 0
M  V30 3998 C 371.935 0.316575 -2.27003 0
M  V30 3999 C 372.948 0.932047 -1.33479 0
M  V30 4000 O 374.137 0.815658 -1.58774 0
M  V30 4001 C 371.237 1.46055 -3.05812 0
M  V30 4002 C 370.41 0.952679 -4.26899 0
M  V30 4003 C 369.469 1.97407 -4.87767 0
M  V30 4004 O 368.495 1.54326 -5.4788 0
M  V30 4005 N 369.697 3.30436 -4.77276 0
M  V30 4006 H 372.462 -0.348168 -2.97671 0
M  V30 4007 H 370.023 -0.33185 -1.58463 0
M  V30 4008 H 372.015 2.14135 -3.43407 0
M  V30 4009 H 370.585 2.02948 -2.37762 0
M  V30 4010 H 369.805 0.0968248 -3.94081 0
M  V30 4011 H 371.093 0.59174 -5.05347 0
M  V30 4012 H 370.491 3.68126 -4.29534 0
M  V30 4013 H 369.048 3.94235 -5.19059 0
M  V30 4014 N 372.481 1.55866 -0.233164 0
M  V30 4015 C 373.411 2.23783 0.666599 0
M  V30 4016 C 374.392 1.21343 1.19205 0
M  V30 4017 O 375.577 1.4996 1.23392 0
M  V30 4018 C 372.707 2.92671 1.86978 0
M  V30 4019 C 371.661 4.01682 1.47768 0
M  V30 4020 C 370.987 4.57926 2.76058 0
M  V30 4021 C 372.287 5.18126 0.658993 0
M  V30 4022 H 373.981 2.99232 0.100306 0
M  V30 4023 H 371.527 1.43924 0.046804 0
M  V30 4024 H 373.48 3.3888 2.50476 0
M  V30 4025 H 372.204 2.14688 2.46123 0
M  V30 4026 H 370.863 3.56222 0.866106 0
M  V30 4027 H 370.511 3.76659 3.33372 0
M  V30 4028 H 370.211 5.31505 2.50552 0
M  V30 4029 H 371.735 5.06859 3.40479 0
M  V30 4030 H 373.149 5.60644 1.19795 0
M  V30 4031 H 371.546 5.98009 0.500552 0
M  V30 4032 H 372.616 4.83763 -0.331856 0
M  V30 4033 N 373.959 -0.0401083 1.57549 0
M  V30 4034 C 375.184 -0.748931 1.93406 0
M  V30 4035 C 375.609 -1.68686 0.832274 0
M  V30 4036 O 374.967 -1.80047 -0.212818 0
M  V30 4037 C 375.015 -1.4916 3.28304 0
M  V30 4038 O 374.119 -2.6042 3.19774 0
M  V30 4039 H 373.46 -0.202212 0.63246 0
M  V30 4040 H 375.99 0.00112086 2.046 0
M  V30 4041 H 376 -1.86395 3.62934 0
M  V30 4042 H 374.675 -0.80364 4.08062 0
M  V30 4043 H 373.252 -2.25808 2.96758 0
M  V30 4044 N 375.437 -1.54477 -0.31217 0
M  V30 4045 C 376.686 -1.72438 -1.04633 0
M  V30 4046 C 376.999 -0.511163 -1.88803 0
M  V30 4047 O 378.205 -0.572341 -2.65399 0
M  V30 4048 C 376.661 -3.05043 -1.9099 0
M  V30 4049 C 376.269 -4.33806 -1.11877 0
M  V30 4050 C 378.013 -3.32364 -2.64073 0
M  V30 4051 C 375.92 -5.57467 -1.97445 0
M  V30 4052 H 374.85 -0.642647 -0.394361 0
M  V30 4053 H 377.501 -1.80966 -0.303929 0
M  V30 4054 H 375.883 -2.90451 -2.69173 0
M  V30 4055 H 377.057 -4.59199 -0.383843 0
M  V30 4056 H 375.372 -4.13336 -0.504252 0
M  V30 4057 H 377.969 -4.21951 -3.28423 0
M  V30 4058 H 378.312 -2.50745 -3.32314 0
M  V30 4059 H 378.845 -3.47875 -1.92944 0
M  V30 4060 H 375.584 -6.41722 -1.33692 0
M  V30 4061 H 375.104 -5.36277 -2.6864 0
M  V30 4062 H 376.783 -5.94303 -2.5576 0
M  V30 4063 N 376.915 0.57481 -1.46744 0
M  V30 4064 C 378.326 1.15695 -1.46532 0
M  V30 4065 C 378.677 1.95068 -0.210425 0
M  V30 4066 O 377.802 2.05241 0.685944 0
M  V30 4067 C 378.397 2.1048 -2.65487 0
M  V30 4068 C 376.956 2.64002 -2.68291 0
M  V30 4069 C 376.103 1.40026 -2.39349 0
M  V30 4070 H 379.054 0.362325 -1.54509 0
M  V30 4071 H 379.075 2.94074 -2.41455 0
M  V30 4072 H 378.587 1.52683 -3.56805 0
M  V30 4073 H 376.688 3.25646 -1.81067 0
M  V30 4074 H 376.801 3.06197 -3.68483 0
M  V30 4075 H 375.165 1.70106 -1.89568 0
M  V30 4076 H 375.948 0.840485 -3.32852 0
M  V30 4077 N 378.394 1.34581 0.820102 0
M  V30 4078 C 379.326 1.22236 1.93884 0
M  V30 4079 C 380.339 0.148776 1.62119 0
M  V30 4080 O 381.528 0.400877 1.7394 0
M  V30 4081 C 378.628 0.856542 3.27897 0
M  V30 4082 C 377.801 2.02569 3.87666 0
M  V30 4083 C 376.86 1.63782 5.00062 0
M  V30 4084 O 375.886 2.35477 5.18208 0
M  V30 4085 N 377.088 0.553611 5.77854 0
M  V30 4086 H 379.853 2.18615 2.05006 0
M  V30 4087 H 377.414 1.27573 0.99683 0
M  V30 4088 H 379.406 0.578806 4.0054 0
M  V30 4089 H 377.976 -0.0171518 3.12595 0
M  V30 4090 H 377.196 2.468 3.07382 0
M  V30 4091 H 378.484 2.80752 4.24329 0
M  V30 4092 H 377.882 -0.0423528 5.65684 0
M  V30 4093 H 376.439 0.335614 6.50935 0
M  V30 4094 N 379.872 -1.04064 1.18357 0
M  V30 4095 C 381.097 -1.81454 1.00445 0
M  V30 4096 C 381.522 -1.82823 -0.442423 0
M  V30 4097 O 380.88 -1.24555 -1.31741 0
M  V30 4098 C 380.928 -3.24925 1.56384 0
M  V30 4099 O 380.032 -4.04856 0.785209 0
M  V30 4100 H 379.373 -0.560604 0.355835 0
M  V30 4101 H 381.903 -1.31059 1.57114 0
M  V30 4102 H 381.913 -3.75702 1.59097 0
M  V30 4103 H 380.588 -3.23244 2.61699 0
M  V30 4104 H 379.165 -3.63537 0.830399 0
M  V30 4105 N 381.35 -0.985608 -1.22978 0
M  V30 4106 C 382.761 -0.693593 -1.73338 0
M  V30 4107 C 383.112 0.789935 -1.79595 0
M  V30 4108 O 382.237 1.61771 -1.43733 0
M  V30 4109 C 382.832 -1.25235 -3.14804 0
M  V30 4110 C 381.391 -1.00987 -3.626 0
M  V30 4111 C 380.538 -1.37695 -2.40698 0
M  V30 4112 H 383.489 -1.15884 -1.08428 0
M  V30 4113 H 383.51 -0.627329 -3.75293 0
M  V30 4114 H 383.022 -2.33209 -3.10218 0
M  V30 4115 H 381.123 0.0535565 -3.72562 0
M  V30 4116 H 381.236 -1.66812 -4.49122 0
M  V30 4117 H 379.6 -0.795459 -2.4196 0
M  V30 4118 H 380.383 -2.46657 -2.38779 0
M  V30 4119 N 382.828 1.3818 -0.7579 0
M  V30 4120 C 384.244 1.5353 -0.435972 0
M  V30 4121 C 384.444 1.71961 1.05032 0
M  V30 4122 O 383.5 1.73307 1.83633 0
M  V30 4123 C 384.813 2.73989 -1.23898 0
M  V30 4124 C 386.361 2.87841 -1.22949 0
M  V30 4125 C 386.836 4.11266 -2.01554 0
M  V30 4126 N 388.327 4.18352 -1.98837 0
M  V30 4127 C 389.062 5.12856 -2.5645 0
M  V30 4128 N 388.558 6.13005 -3.22794 0
M  V30 4129 N 390.351 5.05238 -2.46356 0
M  V30 4130 H 382.502 1.24467 -1.7211 0
M  V30 4131 H 384.765 0.604982 -0.729864 0
M  V30 4132 H 384.471 2.66789 -2.29165 0
M  V30 4133 H 384.345 3.67294 -0.858764 0
M  V30 4134 H 386.732 2.9452 -0.184854 0
M  V30 4135 H 386.813 1.95534 -1.64924 0
M  V30 4136 H 386.457 4.05349 -3.06031 0
M  V30 4137 H 386.387 5.02661 -1.5697 0
M  V30 4138 H 388.878 3.46628 -1.50524 0
M  V30 4139 H 389.191 6.81619 -3.64165 0
M  V30 4140 H 387.536 6.13325 -3.2689 0
M  V30 4141 H 390.727 4.25938 -1.9415 0
M  V30 4142 H 390.9 5.78707 -2.91552 0
M  V30 4143 N 384.306 0.507319 1.49211 0
M  V30 4144 C 385.256 -0.287112 2.26185 0
M  V30 4145 C 386.24 -0.929983 1.31302 0
M  V30 4146 O 387.432 -0.836538 1.55984 0
M  V30 4147 C 384.561 -1.34718 3.15763 0
M  V30 4148 C 383.647 -0.710235 4.18111 0
M  V30 4149 N 384.038 0.190836 5.0544 0
M  V30 4150 C 382.336 -0.97009 4.35322 0
M  V30 4151 C 383.037 0.55606 5.79036 0
M  V30 4152 N 382.013 -0.0775232 5.43545 0
M  V30 4153 H 385.815 0.406445 2.91076 0
M  V30 4154 H 383.329 0.323814 1.59139 0
M  V30 4155 H 385.326 -1.92982 3.69545 0
M  V30 4156 H 383.986 -2.04235 2.52424 0
M  V30 4157 H 384.997 0.562047 5.14841 0
M  V30 4158 H 381.674 -1.65753 3.83187 0
M  V30 4159 H 383.064 1.2936 6.5933 0
M  V30 4160 N 385.784 -1.5574 0.241426 0
M  V30 4161 C 387.009 -2.0366 -0.392111 0
M  V30 4162 C 387.434 -1.11969 -1.51144 0
M  V30 4163 O 386.792 -0.111594 -1.80956 0
M  V30 4164 C 386.84 -3.49638 -0.882371 0
M  V30 4165 O 385.944 -3.6108 -1.99235 0
M  V30 4166 H 385.285 -0.658379 -0.0862122 0
M  V30 4167 H 387.815 -2.01302 0.365881 0
M  V30 4168 H 387.825 -3.90351 -1.18702 0
M  V30 4169 H 386.5 -4.15852 -0.0632361 0
M  V30 4170 H 385.077 -3.32262 -1.69282 0
M  V30 4171 N 387.262 0.0317525 -1.57568 0
M  V30 4172 C 388.487 0.738664 -1.938 0
M  V30 4173 C 388.912 1.68242 -0.841208 0
M  V30 4174 O 388.27 1.80157 0.203267 0
M  V30 4175 C 388.318 1.47417 -3.29091 0
M  V30 4176 O 387.422 2.5872 -3.2115 0
M  V30 4177 H 386.763 0.198856 -0.633524 0
M  V30 4178 H 389.293 -0.0119713 -2.04596 0
M  V30 4179 H 389.303 1.84468 -3.63917 0
M  V30 4180 H 387.978 0.781988 -4.08482 0
M  V30 4181 H 386.555 2.24231 -2.97951 0
M  V30 4182 N 388.74 1.54641 0.303973 0
M  V30 4183 C 389.703 1.84646 1.35789 0
M  V30 4184 C 390.703 0.7192 1.4382 0
M  V30 4185 O 391.893 0.987491 1.43507 0
M  V30 4186 C 389.025 2.02407 2.74307 0
M  V30 4187 H 390.218 2.78829 1.10429 0
M  V30 4188 H 387.771 1.46658 0.540487 0
M  V30 4189 H 388.506 1.10502 3.04893 0
M  V30 4190 H 388.291 2.84453 2.69868 0
M  V30 4191 H 389.781 2.27002 3.50514 0
M  V30 4192 N 390.218 -0.567019 1.47046 0
M  V30 4193 C 391.148 -1.68482 1.61667 0
M  V30 4194 C 392.129 -1.6358 0.466418 0
M  V30 4195 O 393.314 -1.81354 0.694574 0
M  V30 4196 C 390.444 -3.07124 1.62148 0
M  V30 4197 C 389.398 -3.26867 2.76301 0
M  V30 4198 C 388.724 -4.66196 2.61849 0
M  V30 4199 C 390.024 -3.13186 4.17986 0
M  V30 4200 H 391.718 -1.56502 2.5524 0
M  V30 4201 H 389.264 -0.751486 1.22836 0
M  V30 4202 H 391.217 -3.8516 1.70968 0
M  V30 4203 H 389.941 -3.2004 0.651287 0
M  V30 4204 H 388.6 -2.51237 2.66975 0
M  V30 4205 H 388.248 -4.75898 1.62879 0
M  V30 4206 H 387.948 -4.80356 3.38425 0
M  V30 4207 H 389.472 -5.46379 2.72584 0
M  V30 4208 H 390.886 -3.81049 4.2834 0
M  V30 4209 H 389.283 -3.3886 4.95272 0
M  V30 4210 H 390.353 -2.10057 4.3704 0
M  V30 4211 N 391.696 -1.35014 -0.812953 0
M  V30 4212 C 393.112 -1.14914 -1.10757 0
M  V30 4213 C 393.312 0.0426818 -2.01455 0
M  V30 4214 O 392.368 0.715212 -2.42159 0
M  V30 4215 C 393.681 -2.44911 -1.74468 0
M  V30 4216 C 395.229 -2.5106 -1.86917 0
M  V30 4217 C 395.704 -3.81085 -2.54044 0
M  V30 4218 N 397.195 -3.82301 -2.61535 0
M  V30 4219 C 397.93 -4.79634 -3.14227 0
M  V30 4220 N 397.426 -5.87353 -3.67407 0
M  V30 4221 N 399.219 -4.67078 -3.12721 0
M  V30 4222 H 391.37 -2.1136 -0.20989 0
M  V30 4223 H 393.633 -0.935128 -0.155692 0
M  V30 4224 H 393.339 -3.32267 -1.15289 0
M  V30 4225 H 393.213 -2.58989 -2.74234 0
M  V30 4226 H 395.6 -1.64137 -2.45241 0
M  V30 4227 H 395.681 -2.40901 -0.860242 0
M  V30 4228 H 395.325 -4.68402 -1.96372 0
M  V30 4229 H 395.255 -3.88529 -3.55461 0
M  V30 4230 H 397.746 -3.04465 -2.23851 0
M  V30 4231 H 398.059 -6.57624 -4.05894 0
M  V30 4232 H 396.404 -5.91054 -3.65623 0
M  V30 4233 H 399.595 -3.82067 -2.70449 0
M  V30 4234 H 399.768 -5.43098 -3.53481 0
M  V30 4235 N 393.175 1.03435 -1.18907 0
M  V30 4236 C 394.107 2.1165 -0.879595 0
M  V30 4237 C 395.12 1.62316 0.125439 0
M  V30 4238 O 396.309 1.78201 -0.103245 0
M  V30 4239 C 393.409 3.37622 -0.294042 0
M  V30 4240 C 392.582 4.16166 -1.34629 0
M  V30 4241 C 391.641 5.20457 -0.775274 0
M  V30 4242 O 390.667 5.50379 -1.4516 0
M  V30 4243 N 391.869 5.78949 0.424126 0
M  V30 4244 H 394.634 2.38791 -1.81105 0
M  V30 4245 H 392.195 1.19681 -1.09032 0
M  V30 4246 H 394.187 4.04572 0.101679 0
M  V30 4247 H 392.757 3.07873 0.541575 0
M  V30 4248 H 391.977 3.44444 -1.91707 0
M  V30 4249 H 393.265 4.65432 -2.05549 0
M  V30 4250 H 392.663 5.56948 0.991209 0
M  V30 4251 H 391.22 6.47334 0.761691 0
M  V30 4252 N 394.653 0.992116 1.22453 0
M  V30 4253 C 395.583 0.561677 2.26644 0
M  V30 4254 C 396.564 -0.411055 1.65059 0
M  V30 4255 O 397.749 -0.301861 1.9184 0
M  V30 4256 C 394.879 -0.125247 3.47074 0
M  V30 4257 C 393.833 0.765948 4.21091 0
M  V30 4258 C 393.159 -0.0538484 5.34673 0
M  V30 4259 C 394.459 2.06242 4.79856 0
M  V30 4260 H 396.153 1.43259 2.62902 0
M  V30 4261 H 393.699 0.690283 1.26377 0
M  V30 4262 H 395.652 -0.437764 4.1912 0
M  V30 4263 H 394.376 -1.03069 3.0991 0
M  V30 4264 H 393.035 1.0621 3.50878 0
M  V30 4265 H 392.683 -0.960188 4.9375 0
M  V30 4266 H 392.383 0.539415 5.85119 0
M  V30 4267 H 393.907 -0.360477 6.09535 0
M  V30 4268 H 395.321 1.8139 5.43848 0
M  V30 4269 H 393.718 2.60444 5.40638 0
M  V30 4270 H 394.788 2.74167 3.99951 0
M  V30 4271 N 396.131 -1.37776 0.765217 0
M  V30 4272 C 397.061 -2.32945 0.160953 0
M  V30 4273 C 398.042 -1.55454 -0.690516 0
M  V30 4274 O 399.227 -1.83721 -0.629318 0
M  V30 4275 C 396.357 -3.39669 -0.724031 0
M  V30 4276 C 395.311 -4.27992 0.0256173 0
M  V30 4277 C 394.637 -5.25673 -0.978383 0
M  V30 4278 C 395.937 -5.08309 1.20082 0
M  V30 4279 H 397.631 -2.83728 0.955969 0
M  V30 4280 H 395.177 -1.36416 0.461149 0
M  V30 4281 H 397.13 -4.05219 -1.15652 0
M  V30 4282 H 395.854 -2.87396 -1.5515 0
M  V30 4283 H 394.513 -3.63964 0.438812 0
M  V30 4284 H 394.161 -4.69682 -1.80022 0
M  V30 4285 H 393.861 -5.85625 -0.481378 0
M  V30 4286 H 395.385 -5.94098 -1.40995 0
M  V30 4287 H 396.799 -5.67034 0.845307 0
M  V30 4288 H 395.196 -5.77554 1.62947 0
M  V30 4289 H 396.266 -4.41365 2.00811 0
M  V30 4290 N 397.609 -0.515225 -1.4894 0
M  V30 4291 C 398.557 0.269115 -2.31038 0
M  V30 4292 C 399.551 0.949443 -1.40292 0
M  V30 4293 O 400.757 0.87551 -1.57273 0
M  V30 4294 H 397.132 0.10565 -0.744542 0
M  V30 4295 H 399.103 -0.443096 -2.95092 0
M  V30 4296 C 397.852 1.31213 -3.21991 0
M  V30 4297 H 397.175 0.798034 -3.91754 0
M  V30 4298 H 398.615 1.83263 -3.82349 0
M  V30 4299 C 397.074 2.33791 -2.42576 0
M  V30 4300 O 397.604 3.3995 -2.14003 0
M  V30 4301 N 395.81 2.06625 -2.0434 0
M  V30 4302 H 395.357 1.20314 -2.27777 0
M  V30 4303 H 395.315 2.75483 -1.51514 0
M  V30 4304 N 399.087 1.5561 -0.249682 0
M  V30 4305 C 400.312 2.03865 0.381305 0
M  V30 4306 C 400.737 1.12769 1.50548 0
M  V30 4307 O 400.095 0.121189 1.80895 0
M  V30 4308 C 400.143 3.50101 0.863816 0
M  V30 4309 O 399.247 3.62132 1.97318 0
M  V30 4310 H 398.588 0.658827 0.0827194 0
M  V30 4311 H 401.118 2.01105 -0.376552 0
M  V30 4312 H 401.128 3.90975 1.1663 0
M  V30 4313 H 399.803 4.1588 0.0411816 0
M  V30 4314 H 398.38 3.33155 1.67517 0
M  V30 4315 N 400.565 -0.0233959 1.57583 0
M  V30 4316 C 401.498 -1.05549 2.02323 0
M  V30 4317 C 402.476 -1.34843 0.908626 0
M  V30 4318 O 403.66 -1.47404 1.17491 0
M  V30 4319 C 400.787 -2.38885 2.40108 0
M  V30 4320 C 399.833 -2.2541 3.62067 0
M  V30 4321 S 400.666 -1.60217 5.1097 0
M  V30 4322 C 401.822 -2.95032 5.52003 0
M  V30 4323 H 402.055 -0.674435 2.89549 0
M  V30 4324 H 399.588 -0.23355 1.52623 0
M  V30 4325 H 401.546 -3.15562 2.62547 0
M  V30 4326 H 400.207 -2.74137 1.53323 0
M  V30 4327 H 399.4 -3.23854 3.86179 0
M  V30 4328 H 399.002 -1.56876 3.39508 0
M  V30 4329 H 401.294 -3.91357 5.53033 0
M  V30 4330 H 402.237 -2.75646 6.52246 0
M  V30 4331 H 402.645 -2.97865 4.79517 0
M  V30 4332 N 402.043 -1.548 -0.295768 0
M  V30 4333 C 402.976 -1.81003 -1.38972 0
M  V30 4334 C 403.954 -0.661544 -1.48534 0
M  V30 4335 O 405.138 -0.902074 -1.65514 0
M  V30 4336 C 402.265 -1.95141 -2.76835 0
M  V30 4337 C 401.311 -3.17592 -2.84671 0
M  V30 4338 S 402.144 -4.75531 -2.46232 0
M  V30 4339 C 403.3 -4.92613 -3.86114 0
M  V30 4340 H 403.533 -2.73507 -1.16537 0
M  V30 4341 H 401.066 -1.46278 -0.494168 0
M  V30 4342 H 403.024 -2.03972 -3.56238 0
M  V30 4343 H 401.685 -1.03565 -2.96535 0
M  V30 4344 H 400.878 -3.24303 -3.85803 0
M  V30 4345 H 400.48 -3.07235 -2.13267 0
M  V30 4346 H 402.772 -4.76957 -4.81164 0
M  V30 4347 H 403.715 -5.94698 -3.8437 0
M  V30 4348 H 404.123 -4.2073 -3.76359 0
M  V30 4349 N 403.521 0.559213 -1.47345 0
M  V30 4350 C 404.749 1.34194 -1.57479 0
M  V30 4351 C 405.164 1.87463 -0.224261 0
M  V30 4352 O 404.521 1.64888 0.782185 0
M  V30 4353 C 404.572 2.51324 -2.59843 0
M  V30 4354 O 404.293 2.00256 -3.89653 0
M  V30 4355 C 405.794 3.43563 -2.80142 0
M  V30 4356 H 403.014 0.409136 -0.531835 0
M  V30 4357 H 405.558 0.677609 -1.92947 0
M  V30 4358 H 403.713 3.13699 -2.27314 0
M  V30 4359 H 404.127 2.76708 -4.4557 0
M  V30 4360 H 405.601 4.2217 -3.55635 0
M  V30 4361 H 406.078 3.9698 -1.87892 0
M  V30 4362 H 406.684 2.87005 -3.1386 0
M  V30 4363 N 404.999 1.35443 0.805782 0
M  V30 4364 C 406.245 1.28952 1.56522 0
M  V30 4365 C 406.578 -0.135597 1.93726 0
M  V30 4366 O 405.853 -1.08516 1.61414 0
M  V30 4367 C 406.136 2.19678 2.85331 0
M  V30 4368 C 405.989 3.7081 2.54598 0
M  V30 4369 C 407.308 2.09495 3.8704 0
M  V30 4370 H 404.427 0.469764 0.567883 0
M  V30 4371 H 407.069 1.65851 0.927001 0
M  V30 4372 H 405.219 1.8834 3.39795 0
M  V30 4373 H 406.891 4.12593 2.06312 0
M  V30 4374 H 405.134 3.91051 1.8778 0
M  V30 4375 H 405.805 4.29679 3.46525 0
M  V30 4376 H 408.281 2.37045 3.41978 0
M  V30 4377 H 407.157 2.75173 4.74943 0
M  V30 4378 H 407.418 1.07714 4.28777 0
M  V30 4379 N 406.477 -1.02803 1.19454 0
M  V30 4380 C 407.754 -1.73299 0.907013 0
M  V30 4381 C 408.134 -2.02772 -0.587086 0
M  V30 4382 O 407.482 -1.68304 -1.54551 0
M  V30 4383 C 407.692 -3.00912 1.76785 0
M  V30 4384 C 409.04 -3.74403 2.00268 0
M  V30 4385 O 410.064 -3.10841 1.73943 0
M  V30 4386 O 408.923 -4.88675 2.4466 0
M  V30 4387 H 406.017 -0.754727 0.338106 0
M  V30 4388 H 408.563 -1.08754 1.30271 0
M  V30 4389 H 407.335 -2.75366 2.7801 0
M  V30 4390 H 406.958 -3.73197 1.37149 0
M  V30 4391 N 407.956 -0.998596 -1.21925 0
M  V30 4392 C 409.367 -0.711939 -1.72593 0
M  V30 4393 C 409.718 0.770842 -1.80423 0
M  V30 4394 O 408.843 1.60237 -1.4544 0
M  V30 4395 C 409.438 -1.28567 -3.13458 0
M  V30 4396 C 407.997 -1.04828 -3.61508 0
M  V30 4397 C 407.144 -1.4024 -2.39224 0
M  V30 4398 H 410.095 -1.17027 -1.07193 0
M  V30 4399 H 410.116 -0.667098 -3.74607 0
M  V30 4400 H 409.628 -2.36486 -3.07727 0
M  V30 4401 H 407.729 0.0140383 -3.72597 0
M  V30 4402 H 407.842 -1.71566 -4.47328 0
M  V30 4403 H 406.206 -0.821077 -2.41103 0
M  V30 4404 H 406.989 -2.49176 -2.36149 0
M  V30 4405 N 409.434 1.37368 -0.772513 0
M  V30 4406 C 410.384 2.27613 -0.132823 0
M  V30 4407 C 411.368 1.46138 0.673247 0
M  V30 4408 O 412.56 1.68686 0.536095 0
M  V30 4409 C 409.689 3.35122 0.744864 0
M  V30 4410 C 408.775 4.24044 -0.0690771 0
M  V30 4411 N 409.166 4.93355 -1.1151 0
M  V30 4412 C 407.464 4.45731 0.154782 0
M  V30 4413 C 408.165 5.59 -1.60917 0
M  V30 4414 N 407.141 5.35737 -0.921222 0
M  V30 4415 H 410.943 2.78675 -0.933681 0
M  V30 4416 H 408.457 1.50494 -0.610342 0
M  V30 4417 H 410.454 3.98683 1.21892 0
M  V30 4418 H 409.114 2.85616 1.54446 0
M  V30 4419 H 410.125 4.95785 -1.49726 0
M  V30 4420 H 406.802 4.07096 0.926224 0
M  V30 4421 H 408.192 6.24395 -2.48153 0
M  V30 4422 N 410.912 0.523116 1.48665 0
M  V30 4423 C 411.844 -0.280421 2.27478 0
M  V30 4424 C 412.857 -0.910694 1.34945 0
M  V30 4425 O 414.046 -0.790295 1.60052 0
M  V30 4426 C 411.146 -1.41171 3.08097 0
M  V30 4427 C 410.319 -0.884642 4.28361 0
M  V30 4428 C 409.378 -1.89622 4.90846 0
M  V30 4429 O 408.404 -1.4559 5.50265 0
M  V30 4430 N 409.606 -3.22801 4.82472 0
M  V30 4431 H 412.371 0.395481 2.97079 0
M  V30 4432 H 409.932 0.357018 1.57915 0
M  V30 4433 H 411.924 -2.08645 3.4677 0
M  V30 4434 H 410.494 -1.99139 2.40961 0
M  V30 4435 H 409.714 -0.0341177 3.94185 0
M  V30 4436 H 411.002 -0.511268 5.06225 0
M  V30 4437 H 410.4 -3.61246 4.35336 0
M  V30 4438 H 408.957 -3.85927 5.25265 0
M  V30 4439 N 412.39 -1.55475 0.257931 0
M  V30 4440 C 413.806 -1.59307 -0.0966563 0
M  V30 4441 C 414.006 -1.27514 -1.5602 0
M  V30 4442 O 413.062 -1.02774 -2.30637 0
M  V30 4443 C 414.375 -2.99552 0.262481 0
M  V30 4444 C 415.923 -3.1231 0.207683 0
M  V30 4445 C 416.398 -4.54793 0.541012 0
M  V30 4446 N 417.889 -4.6058 0.491921 0
M  V30 4447 C 418.624 -5.68825 0.722857 0
M  V30 4448 N 418.12 -6.85287 1.0175 0
M  V30 4449 N 419.913 -5.58296 0.652815 0
M  V30 4450 H 412.064 -1.74409 1.21224 0
M  V30 4451 H 414.327 -0.812424 0.48854 0
M  V30 4452 H 414.033 -3.27593 1.27967 0
M  V30 4453 H 413.907 -3.75019 -0.40508 0
M  V30 4454 H 416.294 -2.84044 -0.800195 0
M  V30 4455 H 416.375 -2.39095 0.909255 0
M  V30 4456 H 416.019 -4.83783 1.5465 0
M  V30 4457 H 415.949 -5.26285 -0.18216 0
M  V30 4458 H 418.44 -3.7691 0.273366 0
M  V30 4459 H 418.753 -7.63725 1.18084 0
M  V30 4460 H 417.098 -6.86945 1.05509 0
M  V30 4461 H 420.289 -4.66189 0.422592 0
M  V30 4462 H 420.462 -6.42582 0.836182 0
M  V30 4463 N 413.868 0.0150385 -1.57593 0
M  V30 4464 C 415.279 0.559832 -1.78109 0
M  V30 4465 C 415.63 1.74814 -0.890756 0
M  V30 4466 O 414.755 2.16216 -0.0892482 0
M  V30 4467 C 415.35 1.02238 -3.23006 0
M  V30 4468 C 413.909 1.51258 -3.44671 0
M  V30 4469 C 413.056 0.456955 -2.73509 0
M  V30 4470 H 416.007 -0.211169 -1.57289 0
M  V30 4471 H 416.028 1.88912 -3.30292 0
M  V30 4472 H 415.54 0.157302 -3.87781 0
M  V30 4473 H 413.641 2.39905 -2.8509 0
M  V30 4474 H 413.754 1.55042 -4.5332 0
M  V30 4475 H 412.118 0.915196 -2.37689 0
M  V30 4476 H 412.901 -0.398896 -3.40975 0
M  V30 4477 N 415.346 1.54954 0.287554 0
M  V30 4478 C 416.296 1.8322 1.357 0
M  V30 4479 C 417.28 0.690152 1.45347 0
M  V30 4480 O 418.472 0.951137 1.49273 0
M  V30 4481 C 415.601 2.09481 2.71979 0
M  V30 4482 C 414.687 3.29906 2.66502 0
M  V30 4483 N 415.078 4.50154 2.30641 0
M  V30 4484 C 413.376 3.32203 2.97585 0
M  V30 4485 C 414.077 5.32209 2.34794 0
M  V30 4486 N 413.053 4.70258 2.72688 0
M  V30 4487 H 416.855 2.73746 1.0696 0
M  V30 4488 H 414.369 1.54635 0.496167 0
M  V30 4489 H 416.366 2.27882 3.49107 0
M  V30 4490 H 415.026 1.2023 3.0162 0
M  V30 4491 H 416.037 4.76515 2.02865 0
M  V30 4492 H 412.714 2.53101 3.32034 0
M  V30 4493 H 414.104 6.38321 2.09753 0
M  V30 4494 N 416.824 -0.551391 1.4764 0
M  V30 4495 C 418.073 -1.30467 1.53822 0
M  V30 4496 C 418.386 -1.94495 0.207661 0
M  V30 4497 O 419.592 -2.71099 0.147533 0
M  V30 4498 C 418.048 -2.36616 2.71184 0
M  V30 4499 C 417.656 -1.78754 4.10793 0
M  V30 4500 C 419.4 -3.13088 2.86663 0
M  V30 4501 C 417.307 -2.82717 5.19447 0
M  V30 4502 H 416.237 -0.490584 0.572576 0
M  V30 4503 H 418.888 -0.58494 1.73927 0
M  V30 4504 H 417.27 -3.11529 2.4447 0
M  V30 4505 H 418.444 -1.10173 4.47435 0
M  V30 4506 H 416.759 -1.14846 4.00249 0
M  V30 4507 H 419.356 -3.90736 3.65007 0
M  V30 4508 H 419.699 -3.67635 1.95321 0
M  V30 4509 H 420.232 -2.45288 3.13175 0
M  V30 4510 H 416.971 -2.33018 6.12685 0
M  V30 4511 H 416.491 -3.4969 4.87316 0
M  V30 4512 H 418.17 -3.46102 5.46646 0
M  V30 4513 N 418.302 -1.35869 -0.798587 0
M  V30 4514 C 419.713 -1.26498 -1.37314 0
M  V30 4515 C 420.064 0.0991899 -1.95949 0
M  V30 4516 O 419.189 1.0004 -1.91888 0
M  V30 4517 C 419.784 -2.29054 -2.49639 0
M  V30 4518 C 418.343 -2.234 -3.02935 0
M  V30 4519 C 417.49 -2.14329 -1.75949 0
M  V30 4520 H 420.441 -1.46881 -0.600971 0
M  V30 4521 H 420.462 -1.92166 -3.28409 0
M  V30 4522 H 419.974 -3.2833 -2.06933 0
M  V30 4523 H 418.075 -1.27562 -3.50084 0
M  V30 4524 H 418.188 -3.15703 -3.60372 0
M  V30 4525 H 416.552 -1.60435 -1.9782 0
M  V30 4526 H 417.335 -3.15477 -1.35384 0
M  V30 4527 N 419.78 1.02168 -1.19998 0
M  V30 4528 C 420.71 2.12488 -0.96804 0
M  V30 4529 C 421.691 1.69799 0.101185 0
M  V30 4530 O 422.876 1.94121 -0.0552993 0
M  V30 4531 C 420.006 3.43479 -0.513776 0
M  V30 4532 C 418.96 3.99884 -1.52566 0
M  V30 4533 C 418.286 5.26582 -0.928214 0
M  V30 4534 C 419.586 4.33861 -2.90795 0
M  V30 4535 H 421.28 2.32149 -1.89069 0
M  V30 4536 H 418.826 1.11564 -0.910468 0
M  V30 4537 H 420.779 4.20036 -0.338774 0
M  V30 4538 H 419.503 3.23561 0.444493 0
M  V30 4539 H 418.162 3.25429 -1.68794 0
M  V30 4540 H 417.81 5.02986 0.0378289 0
M  V30 4541 H 417.51 5.65284 -1.60397 0
M  V30 4542 H 419.034 6.05799 -0.764167 0
M  V30 4543 H 420.448 5.01327 -2.78109 0
M  V30 4544 H 418.845 4.83664 -3.55231 0
M  V30 4545 H 419.915 3.42848 -3.42904 0
M  V30 4546 N 421.258 1.00505 1.21394 0
M  V30 4547 C 422.188 0.585684 2.26035 0
M  V30 4548 C 423.169 -0.393525 1.65485 0
M  V30 4549 O 424.354 -0.281497 1.92149 0
M  V30 4550 C 421.484 -0.0884283 3.47187 0
M  V30 4551 C 420.438 0.810567 4.20254 0
M  V30 4552 C 419.764 0.00286382 5.347 0
M  V30 4553 C 421.064 2.1132 4.77641 0
M  V30 4554 H 422.758 1.46039 2.61368 0
M  V30 4555 H 420.304 0.703648 1.25638 0
M  V30 4556 H 422.257 -0.393286 4.19561 0
M  V30 4557 H 420.981 -0.997766 3.10986 0
M  V30 4558 H 419.64 1.09925 3.49731 0
M  V30 4559 H 419.288 -0.907765 4.94741 0
M  V30 4560 H 418.988 0.601444 5.84514 0
M  V30 4561 H 420.512 -0.295808 6.09883 0
M  V30 4562 H 421.926 1.87148 5.41893 0
M  V30 4563 H 420.323 2.66164 5.37845 0
M  V30 4564 H 421.393 2.78393 3.9702 0
M  V30 4565 N 422.737 -1.36956 0.779787 0
M  V30 4566 C 423.667 -2.32761 0.185651 0
M  V30 4567 C 424.648 -1.56177 -0.673989 0
M  V30 4568 O 425.833 -1.84378 -0.609797 0
M  V30 4569 C 422.963 -3.40418 -0.687964 0
M  V30 4570 C 421.917 -4.27941 0.0710102 0
M  V30 4571 C 421.243 -5.26681 -0.922573 0
M  V30 4572 C 422.543 -5.07006 1.25467 0
M  V30 4573 H 424.237 -2.82698 0.986008 0
M  V30 4574 H 421.783 -1.3592 0.475592 0
M  V30 4575 H 423.736 -4.06423 -1.11348 0
M  V30 4576 H 422.46 -2.89025 -1.52093 0
M  V30 4577 H 421.119 -3.63478 0.47739 0
M  V30 4578 H 420.767 -4.71565 -1.7503 0
M  V30 4579 H 420.467 -5.86103 -0.419237 0
M  V30 4580 H 421.991 -5.9556 -1.34686 0
M  V30 4581 H 423.405 -5.66105 0.905401 0
M  V30 4582 H 421.802 -5.75793 1.69063 0
M  V30 4583 H 422.872 -4.3921 2.05481 0
M  V30 4584 N 424.215 -0.530993 -1.48385 0
M  V30 4585 C 425.44 0.000729535 -2.074 0
M  V30 4586 C 425.865 1.27298 -1.3848 0
M  V30 4587 O 425.223 1.75599 -0.451081 0
M  V30 4588 C 425.271 0.206697 -3.60007 0
M  V30 4589 O 424.375 1.27514 -3.92191 0
M  V30 4590 H 423.716 -0.039583 -0.662819 0
M  V30 4591 H 426.246 -0.739194 -1.9078 0
M  V30 4592 H 426.256 0.42904 -4.05738 0
M  V30 4593 H 424.931 -0.722675 -4.09573 0
M  V30 4594 H 423.508 1.03537 -3.58238 0
M  V30 4595 N 425.693 1.55336 -0.266172 0
M  V30 4596 C 426.625 2.19544 0.658247 0
M  V30 4597 C 427.638 1.17746 1.12427 0
M  V30 4598 O 428.827 1.44517 1.04772 0
M  V30 4599 C 425.927 2.80032 1.9088 0
M  V30 4600 C 425.1 4.07436 1.59106 0
M  V30 4601 C 424.159 4.52056 2.69317 0
M  V30 4602 O 423.185 5.18023 2.35883 0
M  V30 4603 N 424.387 4.21448 3.99201 0
M  V30 4604 H 427.152 2.99503 0.108754 0
M  V30 4605 H 424.713 1.61667 -0.0869059 0
M  V30 4606 H 426.705 3.06831 2.63888 0
M  V30 4607 H 425.275 2.04119 2.36758 0
M  V30 4608 H 424.495 3.88021 0.695243 0
M  V30 4609 H 425.783 4.90462 1.35367 0
M  V30 4610 H 425.181 3.68528 4.29189 0
M  V30 4611 H 423.738 4.53039 4.68614 0
M  V30 4612 N 427.171 -0.0066808 1.57599 0
M  V30 4613 C 428.101 -0.999296 2.11036 0
M  V30 4614 C 429.082 -1.36278 1.01795 0
M  V30 4615 O 430.267 -1.4477 1.29442 0
M  V30 4616 C 427.397 -2.29328 2.60818 0
M  V30 4617 C 426.351 -2.07159 3.74525 0
M  V30 4618 C 425.677 -3.42512 4.10596 0
M  V30 4619 C 426.977 -1.43959 5.02069 0
M  V30 4620 H 428.671 -0.554382 2.94223 0
M  V30 4621 H 426.217 -0.265221 1.41536 0
M  V30 4622 H 428.17 -2.99117 2.96828 0
M  V30 4623 H 426.894 -2.7592 1.74745 0
M  V30 4624 H 425.553 -1.39797 3.38899 0
M  V30 4625 H 425.201 -3.86795 3.21556 0
M  V30 4626 H 424.901 -3.28498 4.87199 0
M  V30 4627 H 426.425 -4.13628 4.4916 0
M  V30 4628 H 427.839 -2.03696 5.35893 0
M  V30 4629 H 426.236 -1.40452 5.83432 0
M  V30 4630 H 427.306 -0.407992 4.83181 0
M  V30 4631 N 428.649 -1.55105 -0.279332 0
M  V30 4632 C 429.559 -1.90638 -1.36727 0
M  V30 4633 C 430.575 -0.802899 -1.54368 0
M  V30 4634 O 431.751 -1.10138 -1.68616 0
M  V30 4635 C 428.816 -2.16547 -2.70755 0
M  V30 4636 C 427.877 -3.40146 -2.61915 0
M  V30 4637 C 427.11 -3.6481 -3.8955 0
M  V30 4638 O 427.333 -2.92095 -4.89935 0
M  V30 4639 O 426.267 -4.58343 -3.90135 0
M  V30 4640 H 430.093 -2.83237 -1.09591 0
M  V30 4641 H 427.678 -1.4157 -0.477306 0
M  V30 4642 H 429.56 -2.34665 -3.50014 0
M  V30 4643 H 428.235 -1.27131 -2.9769 0
M  V30 4644 H 427.142 -3.2737 -1.81052 0
M  V30 4645 H 428.475 -4.29761 -2.3993 0
M  V30 4646 N 430.127 0.543554 -1.4793 0
M  V30 4647 C 431.09 1.63156 -1.60975 0
M  V30 4648 C 432.09 1.53346 -0.483899 0
M  V30 4649 O 433.28 1.5726 -0.749339 0
M  V30 4650 C 430.412 3.02743 -1.56716 0
M  V30 4651 H 431.605 1.52934 -2.57975 0
M  V30 4652 H 429.158 0.764557 -1.36324 0
M  V30 4653 H 429.893 3.18484 -0.611418 0
M  V30 4654 H 429.678 3.11272 -2.38438 0
M  V30 4655 H 431.168 3.81871 -1.6901 0
M  V30 4656 N 431.605 1.3629 0.791371 0
M  V30 4657 C 432.535 1.33137 1.91825 0
M  V30 4658 C 433.516 0.203168 1.68882 0
M  V30 4659 O 434.701 0.400509 1.90025 0
M  V30 4660 C 431.831 1.11793 3.28816 0
M  V30 4661 C 430.785 2.21417 3.66277 0
M  V30 4662 C 430.111 1.85218 5.01596 0
M  V30 4663 C 431.411 3.63489 3.75064 0
M  V30 4664 H 433.105 2.2743 1.9472 0
M  V30 4665 H 430.651 1.09479 0.935437 0
M  V30 4666 H 432.604 1.08222 4.07266 0
M  V30 4667 H 431.328 0.139501 3.26302 0
M  V30 4668 H 429.987 2.2411 2.90121 0
M  V30 4669 H 429.635 0.859544 4.95602 0
M  V30 4670 H 429.335 2.58611 5.27631 0
M  V30 4671 H 430.859 1.832 5.82469 0
M  V30 4672 H 432.273 3.63034 4.43711 0
M  V30 4673 H 430.67 4.35771 4.12582 0
M  V30 4674 H 431.74 3.98536 2.76219 0
M  V30 4675 N 433.083 -1.0153 1.20538 0
M  V30 4676 C 434.015 -2.10224 0.913155 0
M  V30 4677 C 435.028 -1.62495 -0.0995998 0
M  V30 4678 O 436.217 -1.78014 0.131582 0
M  V30 4679 C 433.317 -3.37111 0.347717 0
M  V30 4680 C 432.49 -4.13971 1.41233 0
M  V30 4681 C 431.549 -5.19158 0.857976 0
M  V30 4682 O 430.575 -5.48 1.53897 0
M  V30 4683 N 431.777 -5.7955 -0.331966 0
M  V30 4684 H 434.542 -2.35879 1.84881 0
M  V30 4685 H 432.103 -1.17931 1.10923 0
M  V30 4686 H 434.095 -4.04683 -0.0373026 0
M  V30 4687 H 432.665 -3.08696 -0.492527 0
M  V30 4688 H 431.885 -3.41351 1.97163 0
M  V30 4689 H 433.173 -4.62103 2.12928 0
M  V30 4690 H 432.571 -5.58455 -0.902478 0
M  V30 4691 H 431.128 -6.48464 -0.65861 0
M  V30 4692 N 434.561 -1.01147 -1.20859 0
M  V30 4693 C 435.972 -0.730205 -1.71828 0
M  V30 4694 C 436.323 0.751662 -1.8123 0
M  V30 4695 O 435.448 1.58686 -1.47132 0
M  V30 4696 C 436.043 -1.31885 -3.12077 0
M  V30 4697 C 434.602 -1.08656 -3.60376 0
M  V30 4698 C 433.749 -1.42769 -2.37723 0
M  V30 4699 H 436.7 -1.18158 -1.05945 0
M  V30 4700 H 436.721 -0.706793 -3.73878 0
M  V30 4701 H 436.233 -2.39737 -3.05201 0
M  V30 4702 H 434.334 -0.0254814 -3.72591 0
M  V30 4703 H 434.447 -1.76301 -4.45483 0
M  V30 4704 H 432.811 -0.846603 -2.40218 0
M  V30 4705 H 433.594 -2.51666 -2.33493 0
M  V30 4706 N 436.039 1.36541 -0.78704 0
M  V30 4707 C 437.45 1.81873 -0.421807 0
M  V30 4708 C 437.801 1.65487 1.05397 0
M  V30 4709 O 436.926 1.17448 1.81755 0
M  V30 4710 C 437.521 3.30192 -0.758841 0
M  V30 4711 C 436.08 3.73743 -0.446468 0
M  V30 4712 C 435.227 2.58844 -0.994728 0
M  V30 4713 H 438.178 1.24796 -0.98039 0
M  V30 4714 H 438.199 3.80468 -0.0490648 0
M  V30 4715 H 437.711 3.42087 -1.83299 0
M  V30 4716 H 435.812 3.6741 0.619739 0
M  V30 4717 H 435.925 4.69272 -0.965415 0
M  V30 4718 H 434.289 2.51245 -0.418087 0
M  V30 4719 H 435.072 2.73525 -2.07458 0
M  V30 4720 N 437.518 0.538854 1.48102 0
M  V30 4721 C 438.481 -0.208395 2.28251 0
M  V30 4722 C 439.481 -0.859656 1.35892 0
M  V30 4723 O 440.671 -0.71834 1.58699 0
M  V30 4724 C 437.803 -1.30252 3.15035 0
M  V30 4725 H 438.996 0.495407 2.9578 0
M  V30 4726 H 436.549 0.295112 1.53489 0
M  V30 4727 H 437.284 -2.0393 2.52157 0
M  V30 4728 H 437.069 -0.840551 3.82985 0
M  V30 4729 H 438.559 -1.82787 3.75471 0
M  V30 4730 N 438.996 -1.55193 0.274407 0
M  V30 4731 C 440.407 -1.85358 -0.223488 0
M  V30 4732 C 440.758 -1.19642 -1.555 0
M  V30 4733 O 439.883 -0.484498 -2.10907 0
M  V30 4734 C 440.478 -3.36282 -0.412285 0
M  V30 4735 C 439.037 -3.66574 -0.854413 0
M  V30 4736 C 438.184 -2.7725 0.0527056 0
M  V30 4737 H 441.135 -1.50743 0.496215 0
M  V30 4738 H 441.156 -3.59349 -1.25094 0
M  V30 4739 H 440.668 -3.84083 0.556965 0
M  V30 4740 H 438.769 -3.24273 -1.83516 0
M  V30 4741 H 438.882 -4.74073 -0.692226 0
M  V30 4742 H 437.246 -2.50447 -0.463484 0
M  V30 4743 H 438.029 -3.27865 1.01783 0
M  V30 4744 N 440.474 -0.00167713 -1.576 0
M  V30 4745 C 441.722 0.681471 -1.90264 0
M  V30 4746 C 442.043 1.7422 -0.875924 0
M  V30 4747 O 441.313 1.95709 0.0864412 0
M  V30 4748 H 439.893 0.254696 -0.702239 0
M  V30 4749 H 442.555 -0.0429996 -1.94853 0
M  V30 4750 H 441.651 1.15166 -2.90075 0
M  V30 4751 N 441.952 1.55251 0.271103 0
M  V30 4752 C 442.884 1.84675 1.35749 0
M  V30 4753 C 443.897 0.731366 1.45447 0
M  V30 4754 O 445.086 1.00924 1.4723 0
M  V30 4755 C 442.186 1.99638 2.73857 0
M  V30 4756 C 441.359 3.30312 2.86727 0
M  V30 4757 C 440.418 3.35318 4.05522 0
M  V30 4758 O 439.444 4.08682 3.96191 0
M  V30 4759 N 440.646 2.62857 5.17577 0
M  V30 4760 H 443.411 2.78445 1.10853 0
M  V30 4761 H 440.972 1.55191 0.461218 0
M  V30 4762 H 442.964 2.00355 3.51625 0
M  V30 4763 H 441.534 1.12725 2.91568 0
M  V30 4764 H 440.754 3.42118 1.95829 0
M  V30 4765 H 442.042 4.16488 2.92258 0
M  V30 4766 H 441.44 2.02939 5.28046 0
M  V30 4767 H 439.997 2.69295 5.93568 0
M  V30 4768 N 443.43 -0.535701 1.48216 0
M  V30 4769 C 444.38 -1.63688 1.58714 0
M  V30 4770 C 445.364 -1.54635 0.444615 0
M  V30 4771 O 446.556 -1.62753 0.695742 0
M  V30 4772 C 443.685 -3.02423 1.62466 0
M  V30 4773 C 442.771 -3.16601 2.82178 0
M  V30 4774 N 443.162 -3.00771 4.06658 0
M  V30 4775 C 441.46 -3.47645 2.79391 0
M  V30 4776 C 442.161 -3.18213 4.86945 0
M  V30 4777 N 441.137 -3.45528 4.19656 0
M  V30 4778 H 444.939 -1.5005 2.5271 0
M  V30 4779 H 442.453 -0.741018 1.44508 0
M  V30 4780 H 444.45 -3.81517 1.6808 0
M  V30 4781 H 443.11 -3.17157 0.695826 0
M  V30 4782 H 444.121 -2.77652 4.37184 0
M  V30 4783 H 440.798 -3.68771 1.95739 0
M  V30 4784 H 442.188 -3.1076 5.95716 0
M  V30 4785 N 444.908 -1.36708 -0.784132 0
M  V30 4786 C 446.136 -1.34398 -1.57305 0
M  V30 4787 C 446.551 0.0735577 -1.88657 0
M  V30 4788 O 445.908 1.03193 -1.50524 0
M  V30 4789 C 445.959 -2.17053 -2.89085 0
M  V30 4790 O 445.68 -3.53281 -2.59083 0
M  V30 4791 C 447.181 -2.22583 -3.83369 0
M  V30 4792 H 444.401 -0.460819 -0.487736 0
M  V30 4793 H 446.945 -1.79879 -0.972819 0
M  V30 4794 H 445.1 -1.75113 -3.45564 0
M  V30 4795 H 445.514 -3.9647 -3.43383 0
M  V30 4796 H 446.988 -2.84763 -4.72878 0
M  V30 4797 H 447.465 -1.23075 -4.21603 0
M  V30 4798 H 448.071 -2.64781 -3.32823 0
M  V30 4799 N 446.386 1.0089 -1.21074 0
M  V30 4800 C 447.614 1.78191 -1.05145 0
M  V30 4801 C 448.029 1.84537 0.398952 0
M  V30 4802 O 447.386 1.30393 1.27687 0
M  V30 4803 C 447.437 3.22288 -1.63746 0
M  V30 4804 O 447.158 3.16315 -3.03111 0
M  V30 4805 C 448.659 4.16106 -1.52875 0
M  V30 4806 H 445.879 0.560129 -0.369454 0
M  V30 4807 H 448.423 1.26945 -1.60328 0
M  V30 4808 H 446.578 3.70655 -1.12664 0
M  V30 4809 H 446.992 4.06817 -3.31059 0
M  V30 4810 H 448.466 5.15026 -1.98626 0
M  V30 4811 H 448.943 4.36541 -0.482521 0
M  V30 4812 H 449.549 3.73625 -2.03185 0
M  V30 4813 N 447.864 1.01787 1.20321 0
M  V30 4814 C 448.796 0.547357 2.22568 0
M  V30 4815 C 449.809 -0.370922 1.58518 0
M  V30 4816 O 450.998 -0.169067 1.77698 0
M  V30 4817 C 448.098 -0.223031 3.38165 0
M  V30 4818 C 447.271 0.697472 4.31803 0
M  V30 4819 C 446.33 -0.025562 5.26194 0
M  V30 4820 O 445.356 0.597367 5.66057 0
M  V30 4821 N 446.558 -1.29999 5.65757 0
M  V30 4822 H 449.323 1.42668 2.63564 0
M  V30 4823 H 446.884 0.895552 1.34876 0
M  V30 4824 H 448.876 -0.716002 3.98316 0
M  V30 4825 H 447.446 -1.00366 2.9605 0
M  V30 4826 H 446.666 1.37073 3.69601 0
M  V30 4827 H 447.954 1.32347 4.91286 0
M  V30 4828 H 447.352 -1.827 5.35385 0
M  V30 4829 H 445.909 -1.73766 6.28211 0
M  V30 4830 N 449.342 -1.36122 0.79427 0
M  V30 4831 C 450.591 -1.98361 0.365464 0
M  V30 4832 C 450.904 -1.6374 -1.06997 0
M  V30 4833 O 452.11 -2.19251 -1.60129 0
M  V30 4834 C 450.566 -3.54821 0.602496 0
M  V30 4835 C 450.174 -3.98362 2.04967 0
M  V30 4836 C 451.918 -4.2383 0.238437 0
M  V30 4837 C 449.825 -5.47619 2.2331 0
M  V30 4838 H 448.755 -0.742193 0.13291 0
M  V30 4839 H 451.406 -1.55354 0.976589 0
M  V30 4840 H 449.788 -3.95922 -0.078409 0
M  V30 4841 H 450.962 -3.68447 2.76737 0
M  V30 4842 H 449.277 -3.42206 2.37243 0
M  V30 4843 H 451.874 -5.33529 0.353705 0
M  V30 4844 H 452.217 -4.08264 -0.814006 0
M  V30 4845 H 452.75 -3.88108 0.872769 0
M  V30 4846 H 449.489 -5.68138 3.26955 0
M  V30 4847 H 449.009 -5.79145 1.5605 0
M  V30 4848 H 450.688 -6.13911 2.0426 0
M  V30 4849 O 450.859 -0.687885 -1.46118 0
M  V30 4850 H 451.55 -0.224178 -1.92398 0
M  V30 END ATOM
M  V30 BEGIN BOND
M  V30 END BOND
M  V30 END CTAB
M  END
$$$$
