drugbank_target|O75899 Gamma-aminobutyric acid type B receptor subunit 2 (DB00181; DB02530; DB05010; DB08891; DB08892)
 OpenBabel12092120093D

  0  0  0     0  0            999 V3000
M  V30 BEGIN CTAB
M  V30 COUNTS 14975 15151 0 0 0
M  V30 BEGIN ATOM
M  V30 1 H -0.908 1.98254 -0.117106 0
M  V30 2 N 0 1.576 0 0
M  V30 3 C 0.933 2.03868 1.02534 0
M  V30 4 C 1.911 0.928543 1.3348 0
M  V30 5 O 3.095 1.19667 1.45644 0
M  V30 6 C 0.222 2.43627 2.35294 0
M  V30 7 C -0.732 3.65373 2.2001 0
M  V30 8 S 0.101 5.13292 1.52614 0
M  V30 9 C 1.257 5.56322 2.86805 0
M  V30 10 H 1.49 2.90518 0.631377 0
M  V30 11 H -0.977 1.52953 0.210867 0
M  V30 12 H 0.981 2.67203 3.11629 0
M  V30 13 H -0.358 1.57376 2.7183 0
M  V30 14 H -1.165 3.90944 3.18086 0
M  V30 15 H -1.563 3.418 1.51819 0
M  V30 16 H 0.729 5.58782 3.83104 0
M  V30 17 H 1.672 6.56266 2.65933 0
M  V30 18 H 2.08 4.83886 2.90714 0
M  V30 19 N 1.4781 -0.272755 1.55222 0
M  V30 20 C 2.4411 -1.32041 1.87344 0
M  V30 21 C 3.4411 -1.42342 0.74803 0
M  V30 22 O 4.6311 -1.41488 1.0162 0
M  V30 23 C 1.7631 -2.70173 2.07893 0
M  V30 24 H 2.9561 -1.04789 2.80997 0
M  V30 25 H 0.5091 -0.51083 1.47717 0
M  V30 26 H 1.2441 -3.02605 1.16622 0
M  V30 27 H 1.0291 -2.64082 2.89833 0
M  V30 28 H 2.5191 -3.45869 2.34017 0
M  V30 29 N 2.9562 -1.48159 -0.537278 0
M  V30 30 C 4.1812 -1.59707 -1.32319 0
M  V30 31 C 4.6062 -0.254859 -1.86365 0
M  V30 32 O 3.9642 0.772378 -1.64024 0
M  V30 33 C 4.0122 -2.6412 -2.45505 0
M  V30 34 O 3.1162 -2.20774 -3.48328 0
M  V30 35 H 2.4572 -0.535791 -0.392204 0
M  V30 36 H 4.9872 -1.94092 -0.647268 0
M  V30 37 H 4.9972 -2.85166 -2.91795 0
M  V30 38 H 3.6722 -3.61567 -2.05528 0
M  V30 39 H 2.2492 -2.09911 -3.08207 0
M  V30 40 N 4.4343 0.785586 -1.36625 0
M  V30 41 C 5.8453 1.36101 -1.27803 0
M  V30 42 C 6.1963 1.96035 0.0804875 0
M  V30 43 O 5.3213 1.92834 0.982042 0
M  V30 44 C 5.9163 2.47442 -2.31426 0
M  V30 45 C 4.4753 3.00789 -2.26281 0
M  V30 46 C 3.6223 1.73896 -2.15999 0
M  V30 47 H 6.5733 0.586928 -1.47448 0
M  V30 48 H 6.5943 3.2656 -1.95291 0
M  V30 49 H 6.1063 2.03791 -3.30289 0
M  V30 50 H 4.2073 3.48851 -1.30896 0
M  V30 51 H 4.3203 3.57343 -3.19128 0
M  V30 52 H 2.6843 1.9628 -1.62316 0
M  V30 53 H 3.4673 1.32368 -3.16755 0
M  V30 54 N 5.9124 1.20967 1.01018 0
M  V30 55 C 7.3284 0.965905 1.27053 0
M  V30 56 C 7.5284 -0.350785 1.98423 0
M  V30 57 O 6.5844 -1.07773 2.28344 0
M  V30 58 C 7.8974 2.15294 2.09926 0
M  V30 59 C 9.4454 2.19463 2.23171 0
M  V30 60 C 9.9204 3.3767 3.09424 0
M  V30 61 N 11.4114 3.37724 3.17012 0
M  V30 62 C 12.1464 4.25837 3.83993 0
M  V30 63 N 11.6424 5.24138 4.53047 0
M  V30 64 N 13.4354 4.1366 3.80581 0
M  V30 65 H 5.5864 2.0565 0.531194 0
M  V30 66 H 7.8494 0.90024 0.297106 0
M  V30 67 H 7.5554 3.10684 1.64828 0
M  V30 68 H 7.4294 2.13923 3.10672 0
M  V30 69 H 9.8164 1.24632 2.6749 0
M  V30 70 H 9.8974 2.2488 1.21912 0
M  V30 71 H 9.5414 4.32791 2.65808 0
M  V30 72 H 9.4714 3.29491 4.10784 0
M  V30 73 H 11.9624 2.6658 2.6785 0
M  V30 74 H 12.2754 5.87684 5.01844 0
M  V30 75 H 10.6204 5.28068 4.5185 0
M  V30 76 H 13.8114 3.36127 3.25785 0
M  V30 77 H 13.9844 4.82538 4.32505 0
M  V30 78 N 7.3905 -1.2043 1.01659 0
M  V30 79 C 8.6155 -1.94318 0.724942 0
M  V30 80 C 9.0405 -1.74266 -0.708034 0
M  V30 81 O 8.3985 -1.03694 -1.48719 0
M  V30 82 C 8.4465 -3.44486 1.06591 0
M  V30 83 O 7.5505 -4.12017 0.177599 0
M  V30 84 H 6.8915 -0.60708 0.26898 0
M  V30 85 H 9.4215 -1.52861 1.35995 0
M  V30 86 H 9.4315 -3.95106 1.01762 0
M  V30 87 H 8.1065 -3.58404 2.10997 0
M  V30 88 H 6.6835 -3.71821 0.283421 0
M  V30 89 N 8.8686 -0.792821 -1.36206 0
M  V30 90 C 10.0936 -0.377701 -2.03932 0
M  V30 91 C 10.5186 0.998947 -1.59382 0
M  V30 92 O 9.8766 1.64421 -0.763903 0
M  V30 93 C 9.9246 -0.453635 -3.57735 0
M  V30 94 O 9.0286 0.538151 -4.08874 0
M  V30 95 H 8.3696 -0.159855 -0.644471 0
M  V30 96 H 10.8996 -1.07488 -1.7409 0
M  V30 97 H 10.9096 -0.318464 -4.06755 0
M  V30 98 H 9.5846 -1.45784 -3.89512 0
M  V30 99 H 8.1616 0.364359 -3.71116 0
M  V30 100 N 10.3467 1.47872 -0.545128 0
M  V30 101 C 11.5947 2.02093 -0.016553 0
M  V30 102 C 11.9157 1.42305 1.3332 0
M  V30 103 O 11.1857 0.593853 1.86682 0
M  V30 104 H 9.7657 0.746993 -0.00313038 0
M  V30 105 H 12.4277 1.81414 -0.712397 0
M  V30 106 H 11.5237 3.11996 0.0805422 0
M  V30 107 N 11.8248 0.280983 1.55075 0
M  V30 108 C 12.7568 -0.637268 2.20163 0
M  V30 109 C 13.7698 -1.11298 1.18813 0
M  V30 110 O 14.9588 -1.03388 1.4551 0
M  V30 111 C 12.0588 -1.88199 2.81841 0
M  V30 112 C 11.2318 -1.55211 4.08936 0
M  V30 113 C 10.2908 -2.64991 4.54606 0
M  V30 114 O 9.3168 -2.30929 5.2025 0
M  V30 115 N 10.5188 -3.95161 4.25238 0
M  V30 116 H 13.2838 -0.0801694 2.99593 0
M  V30 117 H 10.8448 0.102329 1.61576 0
M  V30 118 H 12.8368 -2.60948 3.09335 0
M  V30 119 H 11.4068 -2.34799 2.06369 0
M  V30 120 H 10.6268 -0.658185 3.88666 0
M  V30 121 H 11.9148 -1.30681 4.91732 0
M  V30 122 H 11.3128 -4.25653 3.72607 0
M  V30 123 H 9.8698 -4.6427 4.5749 0
M  V30 124 N 13.3029 -1.57598 0.00835791 0
M  V30 125 C 14.7139 -1.7892 -0.53333 0
M  V30 126 C 15.0649 -0.916609 -1.73473 0
M  V30 127 O 14.1899 -0.121336 -2.1606 0
M  V30 128 C 14.7849 -3.24488 -0.974313 0
M  V30 129 C 13.3439 -3.46878 -1.46125 0
M  V30 130 C 12.4909 -2.74157 -0.416302 0
M  V30 131 H 15.4419 -1.56958 0.234495 0
M  V30 132 H 15.4629 -3.3306 -1.83988 0
M  V30 133 H 14.9749 -3.87972 -0.099718 0
M  V30 134 H 13.0759 -2.8862 -2.35646 0
M  V30 135 H 13.1889 -4.55572 -1.48295 0
M  V30 136 H 11.5529 -2.39022 -0.87981 0
M  V30 137 H 12.3359 -3.40345 0.44947 0
M  V30 138 N 14.781 0.264519 -1.55364 0
M  V30 139 C 16.029 0.993021 -1.76021 0
M  V30 140 C 16.35 1.86511 -0.569099 0
M  V30 141 O 15.62 1.91438 0.415735 0
M  V30 142 H 14.2 0.369639 -0.649135 0
M  V30 143 H 16.862 0.286707 -1.9278 0
M  V30 144 H 15.958 1.62502 -2.66457 0
M  V30 145 N 16.2591 1.48442 0.529413 0
M  V30 146 C 17.6701 1.5002 1.11134 0
M  V30 147 C 18.0211 0.27031 1.94329 0
M  V30 148 O 17.1461 -0.622507 2.07253 0
M  V30 149 C 17.7411 2.71834 2.02217 0
M  V30 150 C 16.3001 2.76283 2.55627 0
M  V30 151 C 15.4471 2.43542 1.326 0
M  V30 152 H 18.3981 1.5555 0.314641 0
M  V30 153 H 18.4191 2.50384 2.8651 0
M  V30 154 H 17.9311 3.61331 1.41639 0
M  V30 155 H 16.0321 1.90995 3.19924 0
M  V30 156 H 16.1451 3.77725 2.94721 0
M  V30 157 H 14.5091 1.94709 1.64196 0
M  V30 158 H 15.2921 3.3528 0.737734 0
M  V30 159 N 17.7372 -0.778329 1.37039 0
M  V30 160 C 19.1482 -1.35421 1.28523 0
M  V30 161 C 19.4992 -1.96075 -0.0700901 0
M  V30 162 O 18.6242 -1.93352 -0.971801 0
M  V30 163 C 19.2192 -2.46211 2.32735 0
M  V30 164 C 17.7782 -2.99585 2.27873 0
M  V30 165 C 16.9252 -1.72748 2.16918 0
M  V30 166 H 19.8762 -0.5791 1.47757 0
M  V30 167 H 19.8972 -3.2552 1.9702 0
M  V30 168 H 19.4092 -2.02036 3.31365 0
M  V30 169 H 17.5102 -3.48152 1.32745 0
M  V30 170 H 17.6232 -3.55646 3.21018 0
M  V30 171 H 15.9872 -1.95416 1.63354 0
M  V30 172 H 16.7702 -1.30686 3.17452 0
M  V30 173 N 19.2153 -1.21501 -1.00376 0
M  V30 174 C 20.6263 -1.03146 -1.55621 0
M  V30 175 C 20.9773 0.408375 -1.91903 0
M  V30 176 O 20.1023 1.29177 -1.73616 0
M  V30 177 C 20.6973 -1.86612 -2.82775 0
M  V30 178 C 19.2563 -1.72586 -3.34501 0
M  V30 179 C 18.4033 -1.83747 -2.07683 0
M  V30 180 H 21.3543 -1.35505 -0.826081 0
M  V30 181 H 21.3753 -1.3771 -3.54706 0
M  V30 182 H 20.8873 -2.91399 -2.56336 0
M  V30 183 H 18.9883 -0.704877 -3.65872 0
M  V30 184 H 19.1013 -2.54623 -4.05837 0
M  V30 185 H 17.4653 -1.27069 -2.20739 0
M  V30 186 H 18.2483 -2.90044 -1.83655 0
M  V30 187 N 20.6934 1.19889 -1.02296 0
M  V30 188 C 22.1044 1.71124 -0.746568 0
M  V30 189 C 22.4554 1.81939 0.734335 0
M  V30 190 O 21.5804 1.48639 1.57275 0
M  V30 191 C 22.1754 3.10804 -1.34857 0
M  V30 192 C 20.7344 3.59323 -1.1209 0
M  V30 193 C 19.8814 2.3635 -1.45031 0
M  V30 194 H 22.8324 1.04813 -1.19163 0
M  V30 195 H 22.8534 3.73186 -0.742437 0
M  V30 196 H 22.3654 3.029 -2.42638 0
M  V30 197 H 20.4664 3.7255 -0.0610337 0
M  V30 198 H 20.5794 4.4378 -1.80544 0
M  V30 199 H 18.9434 2.39399 -0.869487 0
M  V30 200 H 19.7264 2.31081 -2.53883 0
M  V30 201 N 22.1715 0.800033 1.35784 0
M  V30 202 C 23.5825 0.439142 1.81462 0
M  V30 203 C 23.9335 -1.03813 1.66485 0
M  V30 204 O 23.0585 -1.80626 1.19177 0
M  V30 205 C 23.6535 0.790314 3.29453 0
M  V30 206 C 22.2125 0.482111 3.733 0
M  V30 207 C 21.3595 1.01938 2.57883 0
M  V30 208 H 24.3105 0.992254 1.23855 0
M  V30 209 H 24.3315 0.0853677 3.80404 0
M  V30 210 H 23.8435 1.86554 3.40322 0
M  V30 211 H 21.9445 -0.584652 3.67984 0
M  V30 212 H 22.0575 1.01015 4.6833 0
M  V30 213 H 20.4215 0.442043 2.50835 0
M  V30 214 H 21.2045 2.10059 2.71533 0
M  V30 215 N 23.6496 -1.47581 0.552962 0
M  V30 216 C 25.0606 -1.86324 0.118463 0
M  V30 217 C 25.4116 -1.46006 -1.3106 0
M  V30 218 O 24.5366 -0.861182 -1.98526 0
M  V30 219 C 25.1316 -3.3816 0.20821 0
M  V30 220 C 23.6906 -3.7601 -0.171226 0
M  V30 221 C 22.8376 -2.71634 0.557686 0
M  V30 222 H 25.7886 -1.39159 0.762928 0
M  V30 223 H 25.8096 -3.76141 -0.574278 0
M  V30 224 H 25.3216 -3.67473 1.24841 0
M  V30 225 H 23.4226 -3.52313 -1.21269 0
M  V30 226 H 23.5356 -4.78745 0.184379 0
M  V30 227 H 21.8996 -2.547 0.00125792 0
M  V30 228 H 22.6826 -3.0379 1.59896 0
M  V30 229 N 25.1277 -0.289203 -1.54924 0
M  V30 230 C 26.5387 0.205791 -1.85562 0
M  V30 231 C 26.8897 1.54351 -1.2112 0
M  V30 232 O 26.0147 2.10435 -0.504601 0
M  V30 233 C 26.6097 0.380177 -3.3666 0
M  V30 234 C 25.1687 0.819395 -3.67373 0
M  V30 235 C 24.3157 -0.079159 -2.77187 0
M  V30 236 H 27.2667 -0.510577 -1.50262 0
M  V30 237 H 27.2877 1.21659 -3.60526 0
M  V30 238 H 26.7997 -0.593589 -3.83534 0
M  V30 239 H 24.9007 1.80413 -3.26009 0
M  V30 240 H 25.0137 0.646957 -4.74712 0
M  V30 241 H 23.3777 0.439565 -2.50878 0
M  V30 242 H 24.1607 -1.04906 -3.26878 0
M  V30 243 N 26.6058 1.57591 -0.0167156 0
M  V30 244 C 28.0168 1.79201 0.523834 0
M  V30 245 C 28.3678 0.925796 1.72984 0
M  V30 246 O 27.4928 0.132792 2.15992 0
M  V30 247 C 28.0878 3.25 0.957091 0
M  V30 248 C 26.6468 3.47648 1.44283 0
M  V30 249 C 25.7938 2.74374 0.401757 0
M  V30 250 H 28.7448 1.56831 -0.242816 0
M  V30 251 H 28.7658 3.34031 1.82219 0
M  V30 252 H 28.2778 3.88019 0.0791415 0
M  V30 253 H 26.3788 2.89866 2.34113 0
M  V30 254 H 26.4918 4.56352 1.45877 0
M  V30 255 H 24.8558 2.39485 0.867121 0
M  V30 256 H 25.6388 3.40102 -0.467513 0
M  V30 257 N 28.0839 -0.256276 1.55502 0
M  V30 258 C 29.4949 -0.826068 1.67431 0
M  V30 259 C 29.8459 -1.86396 0.612446 0
M  V30 260 O 28.9709 -2.15031 -0.243025 0
M  V30 261 C 29.5659 -1.50512 3.03532 0
M  V30 262 C 28.1249 -2.02273 3.17431 0
M  V30 263 C 27.2719 -0.870548 2.63281 0
M  V30 264 H 30.2229 -0.0322728 1.58667 0
M  V30 265 H 30.2439 -2.37279 2.97454 0
M  V30 266 H 29.7559 -0.749484 3.80794 0
M  V30 267 H 27.8569 -2.80746 2.44974 0
M  V30 268 H 27.9699 -2.22655 4.24219 0
M  V30 269 H 26.3339 -1.26851 2.20864 0
M  V30 270 H 27.1169 -0.128149 3.43061 0
M  V30 271 N 29.562 -1.4872 -0.521534 0
M  V30 272 C 30.525 -1.63379 -1.60748 0
M  V30 273 C 31.525 -0.50661 -1.52611 0
M  V30 274 O 32.715 -0.772601 -1.5613 0
M  V30 275 C 29.847 -1.61192 -3.00383 0
M  V30 276 H 31.04 -2.60217 -1.49087 0
M  V30 277 H 28.593 -1.37444 -0.744235 0
M  V30 278 H 29.328 -0.65863 -3.17541 0
M  V30 279 H 29.113 -2.43032 -3.07698 0
M  V30 280 H 30.603 -1.7466 -3.7932 0
M  V30 281 N 31.0401 0.771051 -1.3745 0
M  V30 282 C 32.4561 1.07171 -1.18265 0
M  V30 283 C 32.6561 2.01491 -0.019287 0
M  V30 284 O 31.7121 2.44244 0.640408 0
M  V30 285 C 33.0251 1.66854 -2.50161 0
M  V30 286 C 34.5731 1.79109 -2.56689 0
M  V30 287 C 35.0481 2.42205 -3.88717 0
M  V30 288 N 36.5391 2.49655 -3.90162 0
M  V30 289 C 37.2741 2.9933 -4.8907 0
M  V30 290 N 36.7701 3.49172 -5.98374 0
M  V30 291 N 38.5631 2.9821 -4.76474 0
M  V30 292 H 30.7141 0.144796 -2.11906 0
M  V30 293 H 32.9771 0.126863 -0.939473 0
M  V30 294 H 32.6831 1.05017 -3.35655 0
M  V30 295 H 32.5571 2.6614 -2.673 0
M  V30 296 H 34.9441 2.40077 -1.71601 0
M  V30 297 H 35.0251 0.785757 -2.43433 0
M  V30 298 H 34.6691 1.81875 -4.74219 0
M  V30 299 H 34.5991 3.43345 -3.99276 0
M  V30 300 H 37.0901 2.14383 -3.11205 0
M  V30 301 H 37.4031 3.8548 -6.69795 0
M  V30 302 H 35.7481 3.47275 -6.02018 0
M  V30 303 H 38.9391 2.58572 -3.90203 0
M  V30 304 H 39.1121 3.36613 -5.53711 0
M  V30 305 N 32.5182 1.22032 0.997298 0
M  V30 306 C 33.4482 1.01065 2.10495 0
M  V30 307 C 34.4292 -0.0669542 1.69968 0
M  V30 308 O 35.6142 0.0943987 1.9397 0
M  V30 309 C 32.7442 0.582874 3.42374 0
M  V30 310 C 31.6982 1.60592 3.96729 0
M  V30 311 C 31.0242 1.03412 5.24605 0
M  V30 312 C 32.3242 2.99478 4.27914 0
M  V30 313 H 34.0182 1.93708 2.28292 0
M  V30 314 H 31.5642 0.932761 1.09707 0
M  V30 315 H 33.5172 0.423332 4.19268 0
M  V30 316 H 32.2412 -0.379213 3.24391 0
M  V30 317 H 30.9002 1.75316 3.21963 0
M  V30 318 H 30.5482 0.063518 5.0296 0
M  V30 319 H 30.2482 1.71754 5.61938 0
M  V30 320 H 31.7722 0.886066 6.04137 0
M  V30 321 H 33.1862 2.88153 4.95622 0
M  V30 322 H 31.5832 3.64903 4.76409 0
M  V30 323 H 32.6532 3.49742 3.3587 0
M  V30 324 N 33.9963 -1.19345 1.0293 0
M  V30 325 C 34.9263 -2.2481 0.631105 0
M  V30 326 C 35.9073 -1.66245 -0.360104 0
M  V30 327 O 37.0923 -1.92677 -0.242726 0
M  V30 328 C 34.2223 -3.47295 -0.0184607 0
M  V30 329 C 33.1763 -4.18536 0.895073 0
M  V30 330 C 32.5023 -5.34586 0.110592 0
M  V30 331 C 33.8023 -4.73287 2.209 0
M  V30 332 H 35.4963 -2.58372 1.51275 0
M  V30 333 H 33.0423 -1.24194 0.728818 0
M  V30 334 H 34.9953 -4.20268 -0.308675 0
M  V30 335 H 33.7193 -3.12933 -0.934907 0
M  V30 336 H 32.3783 -3.47446 1.16949 0
M  V30 337 H 32.0263 -4.96469 -0.807902 0
M  V30 338 H 31.7263 -5.83183 0.719087 0
M  V30 339 H 33.2503 -6.10355 -0.172871 0
M  V30 340 H 34.6643 -5.38013 1.98028 0
M  V30 341 H 33.0613 -5.32373 2.76946 0
M  V30 342 H 34.1313 -3.91331 2.86336 0
M  V30 343 N 35.4744 -0.807222 -1.35358 0
M  V30 344 C 36.4044 -0.232509 -2.3234 0
M  V30 345 C 37.3854 0.642386 -1.57504 0
M  V30 346 O 38.5704 0.572526 -1.85569 0
M  V30 347 C 35.7004 0.619238 -3.41735 0
M  V30 348 C 34.6544 -0.157215 -4.27711 0
M  V30 349 C 33.9804 0.816273 -5.28433 0
M  V30 350 C 35.2804 -1.35656 -5.04376 0
M  V30 351 H 36.9744 -1.04276 -2.80654 0
M  V30 352 H 34.5204 -0.50288 -1.34934 0
M  V30 353 H 36.4734 1.03137 -4.08584 0
M  V30 354 H 35.1974 1.46239 -2.92031 0
M  V30 355 H 33.8564 -0.550525 -3.62443 0
M  V30 356 H 33.5044 1.65494 -4.74996 0
M  V30 357 H 33.2044 0.301067 -5.86828 0
M  V30 358 H 34.7284 1.22659 -5.98153 0
M  V30 359 H 36.1424 -1.01927 -5.64166 0
M  V30 360 H 34.5394 -1.8063 -5.7227 0
M  V30 361 H 35.6094 -2.14288 -4.34981 0
M  V30 362 N 36.9525 1.47285 -0.560781 0
M  V30 363 C 37.8825 2.32857 0.173105 0
M  V30 364 C 38.8635 1.44009 0.905281 0
M  V30 365 O 40.0485 1.7286 0.885046 0
M  V30 366 C 37.1785 3.25861 1.20133 0
M  V30 367 C 36.1325 4.23978 0.585388 0
M  V30 368 C 35.4585 5.06332 1.7185 0
M  V30 369 C 36.7585 5.20242 -0.463178 0
M  V30 370 H 38.4525 2.94466 -0.541307 0
M  V30 371 H 35.9985 1.41601 -0.261764 0
M  V30 372 H 37.9515 3.84569 1.72293 0
M  V30 373 H 36.6755 2.62315 1.94573 0
M  V30 374 H 35.3345 3.66501 0.085054 0
M  V30 375 H 34.9825 4.39186 2.45203 0
M  V30 376 H 34.6825 5.72762 1.31213 0
M  V30 377 H 36.2065 5.67899 2.24329 0
M  V30 378 H 37.6205 5.73293 -0.027502 0
M  V30 379 H 36.0175 5.94896 -0.788627 0
M  V30 380 H 37.0875 4.65504 -1.35773 0
M  V30 381 N 38.4306 0.297415 1.54768 0
M  V30 382 C 39.3606 -0.573494 2.26348 0
M  V30 383 C 40.3416 -1.14085 1.26169 0
M  V30 384 O 41.5266 -1.17086 1.54934 0
M  V30 385 C 38.6566 -1.74716 3.00153 0
M  V30 386 C 37.6106 -1.31032 4.07449 0
M  V30 387 C 36.9366 -2.56887 4.68949 0
M  V30 388 C 38.2366 -0.444183 5.20408 0
M  V30 389 H 39.9306 0.0235131 2.99391 0
M  V30 390 H 37.4766 0.0127488 1.43994 0
M  V30 391 H 39.4296 -2.3625 3.48947 0
M  V30 392 H 38.1536 -2.37035 2.24682 0
M  V30 393 H 36.8126 -0.718066 3.59499 0
M  V30 394 H 36.4606 -3.17512 3.90122 0
M  V30 395 H 36.1606 -2.2836 5.41411 0
M  V30 396 H 37.6846 -3.19229 5.20505 0
M  V30 397 H 39.0986 -0.9651 5.65118 0
M  V30 398 H 37.4956 -0.252846 5.99567 0
M  V30 399 H 38.5656 0.531609 4.81977 0
M  V30 400 N 39.9087 -1.5758 0.0250728 0
M  V30 401 C 40.8387 -2.13007 -0.956575 0
M  V30 402 C 41.8197 -1.0452 -1.342 0
M  V30 403 O 43.0047 -1.32332 -1.42133 0
M  V30 404 C 40.1347 -2.65386 -2.24026 0
M  V30 405 C 39.0887 -3.78623 -1.99571 0
M  V30 406 C 38.4147 -4.17414 -3.3417 0
M  V30 407 C 39.7147 -5.04867 -1.33814 0
M  V30 408 H 41.4087 -2.9528 -0.494991 0
M  V30 409 H 38.9547 -1.42042 -0.236651 0
M  V30 410 H 40.9077 -3.02794 -2.93076 0
M  V30 411 H 39.6317 -1.80268 -2.72343 0
M  V30 412 H 38.2907 -3.41646 -1.32941 0
M  V30 413 H 37.9387 -3.29284 -3.80238 0
M  V30 414 H 37.6387 -4.93719 -3.18615 0
M  V30 415 H 39.1627 -4.57402 -4.04495 0
M  V30 416 H 40.5767 -5.39888 -1.92857 0
M  V30 417 H 38.9737 -5.86144 -1.28669 0
M  V30 418 H 40.0437 -4.83904 -0.310561 0
M  V30 419 N 41.3868 0.248026 -1.55636 0
M  V30 420 C 42.3168 1.31079 -1.93237 0
M  V30 421 C 43.2978 1.50264 -0.797174 0
M  V30 422 O 44.4828 1.62891 -1.05737 0
M  V30 423 C 41.6128 2.66575 -2.22609 0
M  V30 424 C 40.5668 2.62087 -3.3837 0
M  V30 425 C 39.8928 4.01369 -3.53281 0
M  V30 426 C 41.1928 2.19171 -4.7409 0
M  V30 427 H 42.8868 0.998556 -2.82257 0
M  V30 428 H 40.4328 0.47891 -1.35803 0
M  V30 429 H 42.3858 3.41057 -2.47503 0
M  V30 430 H 41.1098 2.99432 -1.30414 0
M  V30 431 H 39.7688 1.90063 -3.13483 0
M  V30 432 H 39.4168 4.31489 -2.58508 0
M  V30 433 H 39.1168 3.99254 -4.31127 0
M  V30 434 H 40.6408 4.77552 -3.80495 0
M  V30 435 H 42.0548 2.83384 -4.98363 0
M  V30 436 H 40.4518 2.2817 -5.5503 0
M  V30 437 H 41.5218 1.14336 -4.71227 0
M  V30 438 N 42.8649 1.48995 0.513639 0
M  V30 439 C 44.2759 1.5119 1.09537 0
M  V30 440 C 44.6269 0.290906 1.94031 0
M  V30 441 O 43.7519 -0.60049 2.07902 0
M  V30 442 C 44.3469 2.73964 1.99322 0
M  V30 443 C 42.9059 2.78978 2.52682 0
M  V30 444 C 42.0529 2.44934 1.30009 0
M  V30 445 H 45.0039 1.55875 0.298125 0
M  V30 446 H 45.0249 2.53409 2.83838 0
M  V30 447 H 44.5369 3.62813 1.37799 0
M  V30 448 H 42.6379 1.94378 3.1788 0
M  V30 449 H 42.7509 3.8083 2.90698 0
M  V30 450 H 41.1149 1.9644 1.62122 0
M  V30 451 H 41.8979 3.36043 0.702131 0
M  V30 452 N 44.343 -0.763751 1.37857 0
M  V30 453 C 45.273 -1.89103 1.36975 0
M  V30 454 C 46.254 -1.68439 0.237152 0
M  V30 455 O 47.439 -1.8918 0.438713 0
M  V30 456 C 44.569 -3.26496 1.18395 0
M  V30 457 C 43.523 -3.61741 2.28751 0
M  V30 458 C 42.849 -4.97762 1.95286 0
M  V30 459 C 44.149 -3.67665 3.70972 0
M  V30 460 H 45.843 -1.90099 2.31307 0
M  V30 461 H 43.389 -0.91319 1.11341 0
M  V30 462 H 45.342 -4.05003 1.16406 0
M  V30 463 H 44.066 -3.25955 0.205215 0
M  V30 464 H 42.725 -2.85547 2.29909 0
M  V30 465 H 42.373 -4.93769 0.959221 0
M  V30 466 H 42.073 -5.22313 2.69189 0
M  V30 467 H 43.597 -5.7866 1.94898 0
M  V30 468 H 45.011 -4.36307 3.719 0
M  V30 469 H 43.408 -4.03718 4.43995 0
M  V30 470 H 44.478 -2.68134 4.0402 0
M  V30 471 N 45.8211 -1.22559 -0.990812 0
M  V30 472 C 46.7511 -1.0218 -2.09956 0
M  V30 473 C 47.7321 0.0579394 -1.70001 0
M  V30 474 O 48.9171 -0.104684 -1.93918 0
M  V30 475 C 46.0471 -0.601023 -3.4206 0
M  V30 476 C 45.0011 -1.62694 -3.95872 0
M  V30 477 C 44.3271 -1.06193 -5.24049 0
M  V30 478 C 45.6271 -3.01743 -4.2632 0
M  V30 479 H 47.3211 -1.94916 -2.27262 0
M  V30 480 H 44.8671 -0.938566 -1.09211 0
M  V30 481 H 46.8201 -0.445561 -4.19038 0
M  V30 482 H 45.5441 0.362005 -3.24588 0
M  V30 483 H 44.2031 -1.77021 -3.21028 0
M  V30 484 H 43.8511 -0.0901903 -5.02919 0
M  V30 485 H 43.5511 -1.74732 -5.61019 0
M  V30 486 H 45.0751 -0.918092 -6.03658 0
M  V30 487 H 46.4891 -2.90777 -4.94087 0
M  V30 488 H 44.8861 -3.67425 -4.74467 0
M  V30 489 H 45.9561 -3.51518 -3.34011 0
M  V30 490 N 47.2992 1.18797 -1.03562 0
M  V30 491 C 48.2292 2.24472 -0.643019 0
M  V30 492 C 49.2102 1.66433 0.351283 0
M  V30 493 O 50.3952 1.92803 0.232505 0
M  V30 494 C 47.5252 3.473 4.24935e-05 0
M  V30 495 C 46.4792 4.18055 -0.917257 0
M  V30 496 C 45.8052 5.34519 -0.138941 0
M  V30 497 C 47.1052 4.72109 -2.23407 0
M  V30 498 H 48.7992 2.57566 -1.52643 0
M  V30 499 H 46.3452 1.23806 -0.735394 0
M  V30 500 H 48.2982 4.20426 0.286383 0
M  V30 501 H 47.0222 3.13424 0.918299 0
M  V30 502 H 45.6812 3.46821 -1.1879 0
M  V30 503 H 45.3292 4.96891 0.781562 0
M  V30 504 H 45.0292 5.82794 -0.750005 0
M  V30 505 H 46.5532 6.10438 0.1405 0
M  V30 506 H 47.9672 5.36955 -2.00879 0
M  V30 507 H 46.3642 5.30897 -2.79765 0
M  V30 508 H 47.4342 3.89807 -2.88407 0
M  V30 509 N 48.7773 0.814389 1.34928 0
M  V30 510 C 50.1883 0.458364 1.80986 0
M  V30 511 C 50.5393 -1.02042 1.67577 0
M  V30 512 O 49.6643 -1.79352 1.21086 0
M  V30 513 C 50.2593 0.825212 3.28597 0
M  V30 514 C 48.8183 0.521677 3.72767 0
M  V30 515 C 47.9653 1.04668 2.56788 0
M  V30 516 H 50.9163 1.00533 1.22795 0
M  V30 517 H 50.9373 0.12571 3.80292 0
M  V30 518 H 50.4493 1.90154 3.38324 0
M  V30 519 H 48.5503 -0.545589 3.68584 0
M  V30 520 H 48.6633 1.05977 4.67232 0
M  V30 521 H 47.0273 0.468622 2.50352 0
M  V30 522 H 47.8103 2.12927 2.6929 0
M  V30 523 N 50.2554 -1.46986 0.568584 0
M  V30 524 C 51.1854 -2.32946 -0.160753 0
M  V30 525 C 52.1664 -1.44487 -0.897631 0
M  V30 526 O 53.3514 -1.73327 -0.875867 0
M  V30 527 C 50.4814 -3.26494 -1.18403 0
M  V30 528 C 49.4354 -4.24282 -0.562895 0
M  V30 529 C 48.7614 -5.07236 -1.69163 0
M  V30 530 C 50.0614 -5.19989 0.490761 0
M  V30 531 H 51.7554 -2.94175 0.556916 0
M  V30 532 H 49.3014 -1.4146 0.26927 0
M  V30 533 H 51.2544 -3.85477 -1.70251 0
M  V30 534 H 49.9784 -2.63343 -1.93179 0
M  V30 535 H 48.6374 -3.66541 -0.0656164 0
M  V30 536 H 48.2854 -4.4048 -2.42871 0
M  V30 537 H 47.9854 -5.7345 -1.28174 0
M  V30 538 H 49.5094 -5.6908 -2.21314 0
M  V30 539 H 50.9234 -5.73271 0.0579047 0
M  V30 540 H 49.3204 -5.94469 0.820165 0
M  V30 541 H 50.3904 -4.64777 1.3824 0
M  V30 542 N 51.7335 -0.305618 -1.54608 0
M  V30 543 C 52.6965 0.555591 -2.22364 0
M  V30 544 C 53.6965 1.05768 -1.21119 0
M  V30 545 O 54.8865 0.952972 -1.45822 0
M  V30 546 C 52.0185 1.76974 -2.91364 0
M  V30 547 H 53.2115 -0.0364572 -2.99878 0
M  V30 548 H 50.7645 -0.0565007 -1.56198 0
M  V30 549 H 51.4995 2.40151 -2.17941 0
M  V30 550 H 51.2845 1.41732 -3.65588 0
M  V30 551 H 52.7745 2.38148 -3.43038 0
M  V30 552 N 53.2116 1.57565 -0.0334293 0
M  V30 553 C 54.6226 1.79746 0.504798 0
M  V30 554 C 54.9736 0.944091 1.71992 0
M  V30 555 O 54.0986 0.155694 2.15839 0
M  V30 556 C 54.6936 3.25997 0.922567 0
M  V30 557 C 53.2526 3.49159 1.40588 0
M  V30 558 C 52.3996 2.74785 0.372633 0
M  V30 559 H 55.3506 1.56565 -0.259436 0
M  V30 560 H 55.3716 3.35945 1.78666 0
M  V30 561 H 54.8836 3.88081 0.0379825 0
M  V30 562 H 52.9846 2.92332 2.31025 0
M  V30 563 H 53.0976 4.57873 1.41028 0
M  V30 564 H 51.4616 2.40391 0.841672 0
M  V30 565 H 52.2446 3.39587 -0.503559 0
M  V30 566 N 54.6897 -0.239769 1.55765 0
M  V30 567 C 55.9377 -0.964892 1.77579 0
M  V30 568 C 56.2587 -1.85582 0.598699 0
M  V30 569 O 55.5287 -1.92075 -0.385226 0
M  V30 570 H 54.1087 -0.359265 0.654933 0
M  V30 571 H 56.7707 -0.256001 1.93211 0
M  V30 572 H 55.8667 -1.58243 2.69009 0
M  V30 573 N 56.1678 -1.49265 -0.50573 0
M  V30 574 C 57.1308 -1.65075 -1.59006 0
M  V30 575 C 58.1308 -0.522768 -1.52065 0
M  V30 576 O 59.3208 -0.789117 -1.55302 0
M  V30 577 C 56.4528 -1.64369 -2.98656 0
M  V30 578 H 57.6458 -2.61784 -1.46319 0
M  V30 579 H 55.1988 -1.38226 -0.729616 0
M  V30 580 H 55.9338 -0.692272 -3.16825 0
M  V30 581 H 55.7188 -2.46282 -3.05103 0
M  V30 582 H 57.2088 -1.78674 -3.77446 0
M  V30 583 N 57.6459 0.756429 -1.3826 0
M  V30 584 C 58.8919 1.5168 -1.35517 0
M  V30 585 C 59.2469 1.9232 0.0554451 0
M  V30 586 O 58.5399 1.62352 1.01746 0
M  V30 587 C 58.7339 2.78313 -2.24224 0
M  V30 588 C 58.5629 2.50053 -3.7377 0
M  V30 589 C 57.3329 2.43414 -4.42807 0
M  V30 590 C 59.5309 2.1702 -4.66269 0
M  V30 591 N 57.5129 2.07398 -5.77805 0
M  V30 592 C 58.8839 1.91271 -5.89759 0
M  V30 593 C 60.9389 2.03305 -4.54501 0
M  V30 594 C 59.6419 1.53192 -7.02798 0
M  V30 595 C 61.6679 1.66627 -5.67441 0
M  V30 596 C 61.0299 1.4175 -6.8999 0
M  V30 597 H 57.1289 0.554735 -0.551174 0
M  V30 598 H 59.7129 0.881106 -1.73622 0
M  V30 599 H 57.8839 3.39696 -1.88311 0
M  V30 600 H 59.6159 3.44343 -2.12627 0
M  V30 601 H 56.3709 2.59789 -3.95988 0
M  V30 602 H 56.7949 1.92044 -6.4919 0
M  V30 603 H 61.4369 2.21215 -3.60311 0
M  V30 604 H 59.1549 1.34022 -7.96909 0
M  V30 605 H 62.7409 1.56652 -5.60314 0
M  V30 606 H 61.6209 1.1379 -7.759 0
M  V30 607 N 59.124 1.23083 0.984299 0
M  V30 608 C 60.372 1.05848 1.72165 0
M  V30 609 C 60.693 -0.406049 1.90726 0
M  V30 610 O 59.963 -1.29139 1.47309 0
M  V30 611 H 58.543 0.388685 0.637913 0
M  V30 612 H 61.205 1.54736 1.18503 0
M  V30 613 H 60.301 1.54327 2.71274 0
M  V30 614 N 60.6021 -1.18246 1.0419 0
M  V30 615 C 61.8481 -1.88793 0.75689 0
M  V30 616 C 62.2031 -1.78909 -0.707767 0
M  V30 617 O 61.4961 -1.1794 -1.50999 0
M  V30 618 C 61.6901 -3.38082 1.15911 0
M  V30 619 C 61.5191 -3.62496 2.66133 0
M  V30 620 C 60.2891 -3.7979 3.33298 0
M  V30 621 C 62.4871 -3.62976 3.64353 0
M  V30 622 N 60.4691 -3.91955 4.72487 0
M  V30 623 C 61.8401 -3.80869 4.89222 0
M  V30 624 C 63.8951 -3.46071 3.57965 0
M  V30 625 C 62.5981 -3.83608 6.08471 0
M  V30 626 C 64.6241 -3.50093 4.76643 0
M  V30 627 C 63.9861 -3.68484 6.00332 0
M  V30 628 H 60.0851 -0.709406 0.32904 0
M  V30 629 H 62.6691 -1.42022 1.33183 0
M  V30 630 H 60.8401 -3.83544 0.612238 0
M  V30 631 H 62.5721 -3.96202 0.824989 0
M  V30 632 H 59.3271 -3.79224 2.83701 0
M  V30 633 H 59.7511 -4.01857 5.44831 0
M  V30 634 H 64.3931 -3.30797 2.63311 0
M  V30 635 H 62.1111 -3.97669 7.0348 0
M  V30 636 H 65.6971 -3.38285 4.73344 0
M  V30 637 H 64.5771 -3.71488 6.90627 0
M  V30 638 N 62.0802 -0.821533 -1.34494 0
M  V30 639 C 63.0432 -0.247847 -2.27856 0
M  V30 640 C 64.0432 0.573453 -1.50227 0
M  V30 641 O 65.2332 0.389759 -1.69784 0
M  V30 642 C 62.3652 0.652698 -3.34593 0
M  V30 643 H 63.5582 -1.07146 -2.80107 0
M  V30 644 H 61.1112 -0.593291 -1.44602 0
M  V30 645 H 61.8462 1.49943 -2.87555 0
M  V30 646 H 61.6312 0.065292 -3.92046 0
M  V30 647 H 63.1212 1.04793 -4.04238 0
M  V30 648 N 63.5583 1.46682 -0.576371 0
M  V30 649 C 64.9743 1.57822 -0.237562 0
M  V30 650 C 65.1743 1.57237 1.26011 0
M  V30 651 O 64.2303 1.48596 2.04146 0
M  V30 652 C 65.5433 2.87499 -0.881168 0
M  V30 653 C 67.0913 3.01119 -0.85417 0
M  V30 654 C 67.5663 4.33524 -1.4772 0
M  V30 655 N 69.0573 4.40207 -1.44125 0
M  V30 656 C 69.7923 5.4126 -1.89276 0
M  V30 657 N 69.2883 6.49021 -2.42371 0
M  V30 658 N 71.0813 5.32422 -1.80231 0
M  V30 659 H 63.2323 1.45306 -1.54919 0
M  V30 660 H 65.4953 0.692733 -0.647167 0
M  V30 661 H 65.2013 2.9372 -1.93447 0
M  V30 662 H 65.0753 3.75224 -0.385592 0
M  V30 663 H 67.4623 2.94485 0.190491 0
M  V30 664 H 67.5433 2.14887 -1.3877 0
M  V30 665 H 67.1873 4.40916 -2.52103 0
M  V30 666 H 67.1173 5.1852 -0.918947 0
M  V30 667 H 69.6083 3.62931 -1.05307 0
M  V30 668 H 69.9213 7.2233 -2.74698 0
M  V30 669 H 68.2663 6.49858 -2.46393 0
M  V30 670 H 71.4573 4.47137 -1.38514 0
M  V30 671 H 71.6303 6.11034 -2.15735 0
M  V30 672 N 65.0364 0.313813 1.54444 0
M  V30 673 C 66.2844 -0.291099 1.99993 0
M  V30 674 C 66.6054 -1.53418 1.20366 0
M  V30 675 O 65.8754 -1.93544 0.302927 0
M  V30 676 H 64.4554 -0.110552 0.738774 0
M  V30 677 H 67.1174 0.428106 1.9014 0
M  V30 678 H 66.2134 -0.554268 3.07139 0
M  V30 679 N 66.5145 -1.57545 0.0417849 0
M  V30 680 C 67.4775 -2.09885 -0.92093 0
M  V30 681 C 68.4775 -1.01648 -1.24596 0
M  V30 682 O 69.6675 -1.27759 -1.1842 0
M  V30 683 C 66.7995 -2.57527 -2.23367 0
M  V30 684 H 67.9925 -2.96236 -0.467382 0
M  V30 685 H 65.5455 -1.5493 -0.206467 0
M  V30 686 H 66.2805 -1.74542 -2.73323 0
M  V30 687 H 66.0655 -3.36613 -2.01083 0
M  V30 688 H 67.5555 -2.98201 -2.92346 0
M  V30 689 N 67.9926 0.231505 -1.5589 0
M  V30 690 C 69.4036 0.799327 -1.68724 0
M  V30 691 C 69.7546 1.85398 -0.642022 0
M  V30 692 O 68.8796 2.1539 0.208784 0
M  V30 693 C 69.4746 1.45664 -3.05888 0
M  V30 694 C 68.0336 1.97197 -3.20609 0
M  V30 695 C 67.1806 0.828552 -2.64632 0
M  V30 696 H 70.1316 0.00702616 -1.58698 0
M  V30 697 H 70.1526 2.32517 -3.01191 0
M  V30 698 H 69.6646 0.688808 -3.81939 0
M  V30 699 H 67.7656 2.76813 -2.4941 0
M  V30 700 H 67.8786 2.15878 -4.27707 0
M  V30 701 H 66.2426 1.23321 -2.22854 0
M  V30 702 H 67.0256 0.0735544 -3.43221 0
M  V30 703 N 69.4707 1.49531 0.497807 0
M  V30 704 C 70.8867 1.36365 0.829266 0
M  V30 705 C 71.0867 0.399184 1.97506 0
M  V30 706 O 70.1427 -0.167977 2.51941 0
M  V30 707 C 71.4557 2.77153 1.16647 0
M  V30 708 C 73.0037 2.85877 1.27449 0
M  V30 709 C 73.4787 4.2744 1.64497 0
M  V30 710 N 74.9697 4.30265 1.7154 0
M  V30 711 C 75.7047 5.3677 2.01656 0
M  V30 712 N 75.2007 6.53516 2.29976 0
M  V30 713 N 76.9937 5.24189 2.02934 0
M  V30 714 H 69.1447 2.10831 -0.257703 0
M  V30 715 H 71.4077 0.946534 -0.0527091 0
M  V30 716 H 71.1137 3.49442 0.397872 0
M  V30 717 H 70.9877 3.12722 2.10915 0
M  V30 718 H 73.3747 2.13824 2.0338 0
M  V30 719 H 73.4557 2.53887 0.312244 0
M  V30 720 H 73.0997 5.00021 0.891151 0
M  V30 721 H 73.0297 4.56896 2.61827 0
M  V30 722 H 75.5207 3.4607 1.51802 0
M  V30 723 H 75.8337 7.30506 2.52153 0
M  V30 724 H 74.1787 6.56737 2.27425 0
M  V30 725 H 77.3697 4.31988 1.80289 0
M  V30 726 H 77.5427 6.07286 2.26071 0
M  V30 727 N 70.9488 -0.749086 1.3866 0
M  V30 728 C 72.3598 -1.32664 1.31366 0
M  V30 729 C 72.7108 -1.96179 -0.028484 0
M  V30 730 O 71.8358 -1.9537 -0.93057 0
M  V30 731 C 72.4308 -2.41219 2.37905 0
M  V30 732 C 70.9898 -2.94684 2.34176 0
M  V30 733 C 70.1368 -1.68108 2.20533 0
M  V30 734 H 73.0878 -0.547628 1.48952 0
M  V30 735 H 73.1088 -3.21268 2.0388 0
M  V30 736 H 72.6208 -1.94962 3.35576 0
M  V30 737 H 70.7218 -3.45258 1.401 0
M  V30 738 H 70.8348 -3.48757 3.2849 0
M  V30 739 H 69.1988 -1.91907 1.67463 0
M  V30 740 H 69.9818 -1.23923 3.20153 0
M  V30 741 N 72.4269 -1.23603 -0.977757 0
M  V30 742 C 73.8379 -1.06424 -1.53398 0
M  V30 743 C 74.1889 0.367578 -1.92726 0
M  V30 744 O 73.3139 1.25465 -1.76316 0
M  V30 745 C 73.9089 -1.92568 -2.78753 0
M  V30 746 C 72.4679 -1.79642 -3.30765 0
M  V30 747 C 71.6149 -1.88111 -2.03739 0
M  V30 748 H 74.5659 -1.37227 -0.797152 0
M  V30 749 H 74.5869 -1.45203 -3.51705 0
M  V30 750 H 74.0989 -2.96771 -2.50098 0
M  V30 751 H 72.1999 -0.782325 -3.64294 0
M  V30 752 H 72.3129 -2.63174 -4.00345 0
M  V30 753 H 70.6769 -1.31723 -2.17994 0
M  V30 754 H 71.4599 -2.93875 -1.77461 0
M  V30 755 N 73.905 1.17692 -1.04816 0
M  V30 756 C 75.316 1.69501 -0.782698 0
M  V30 757 C 75.667 1.83456 0.695577 0
M  V30 758 O 74.792 1.51942 1.54086 0
M  V30 759 C 75.387 3.07874 -1.41419 0
M  V30 760 C 73.946 3.56864 -1.19686 0
M  V30 761 C 73.093 2.3322 -1.50012 0
M  V30 762 H 76.044 1.02262 -1.2136 0
M  V30 763 H 76.065 3.71528 -0.821428 0
M  V30 764 H 75.577 2.97685 -2.49009 0
M  V30 765 H 73.678 3.72337 -0.140043 0
M  V30 766 H 73.791 4.39851 -1.89916 0
M  V30 767 H 72.155 2.37501 -0.920071 0
M  V30 768 H 72.938 2.25644 -2.58727 0
M  V30 769 N 75.3831 0.828654 1.34056 0
M  V30 770 C 76.6081 0.431637 2.02859 0
M  V30 771 C 77.0331 -0.956339 1.61975 0
M  V30 772 O 76.3911 -1.62338 0.807228 0
M  V30 773 C 76.4391 0.548323 3.56407 0
M  V30 774 O 75.5431 -0.429556 4.10157 0
M  V30 775 H 74.8841 0.176886 0.640006 0
M  V30 776 H 77.4141 1.12066 1.71179 0
M  V30 777 H 77.4241 0.426196 4.05768 0
M  V30 778 H 76.0991 1.5606 3.8551 0
M  V30 779 H 74.6761 -0.265836 3.71951 0
M  V30 780 N 76.8612 -1.46375 0.584142 0
M  V30 781 C 78.0862 -2.07268 0.0740405 0
M  V30 782 C 78.5112 -1.42979 -1.22223 0
M  V30 783 O 77.8692 -0.514092 -1.73859 0
M  V30 784 C 77.9172 -3.60518 -0.0767769 0
M  V30 785 O 77.0212 -3.96533 -1.13292 0
M  V30 786 H 76.3622 -0.660961 0.0634524 0
M  V30 787 H 78.8922 -1.87991 0.807492 0
M  V30 788 H 78.9022 -4.07021 -0.282489 0
M  V30 789 H 77.5772 -4.06702 0.86986 0
M  V30 790 H 76.1542 -3.61738 -0.905553 0
M  V30 791 N 78.3393 -0.321999 -1.54275 0
M  V30 792 C 79.7503 0.166384 -1.85957 0
M  V30 793 C 80.1013 1.51747 -1.24367 0
M  V30 794 O 79.2263 2.09317 -0.549124 0
M  V30 795 C 79.8213 0.308681 -3.37391 0
M  V30 796 C 78.3803 0.741286 -3.69028 0
M  V30 797 C 77.5273 -0.137937 -2.76957 0
M  V30 798 H 80.4783 -0.542335 -1.49146 0
M  V30 799 H 80.4993 1.13984 -3.63026 0
M  V30 800 H 80.0113 -0.674809 -3.82188 0
M  V30 801 H 78.1123 1.73458 -3.29762 0
M  V30 802 H 78.2253 0.546118 -4.75977 0
M  V30 803 H 76.5893 0.386251 -2.51754 0
M  V30 804 H 77.3723 -1.11816 -3.2458 0
M  V30 805 N 79.8174 1.5752 -0.0501392 0
M  V30 806 C 81.2284 1.80271 0.485705 0
M  V30 807 C 81.5794 0.96228 1.70981 0
M  V30 808 O 80.7044 0.178578 2.15662 0
M  V30 809 C 81.2994 3.26957 0.887938 0
M  V30 810 C 79.8584 3.5063 1.36877 0
M  V30 811 C 79.0054 2.75165 0.343468 0
M  V30 812 H 81.9564 1.56281 -0.276028 0
M  V30 813 H 81.9774 3.37821 1.75093 0
M  V30 814 H 81.4894 3.881 -0.0031809 0
M  V30 815 H 79.5904 2.94766 2.27911 0
M  V30 816 H 79.7034 4.59343 1.36164 0
M  V30 817 H 78.0674 2.4127 0.816128 0
M  V30 818 H 78.8504 3.39034 -0.539548 0
M  V30 819 N 81.2955 -0.223234 1.56011 0
M  V30 820 C 82.2255 -1.27988 1.95298 0
M  V30 821 C 83.2065 -1.48976 0.820979 0
M  V30 822 O 84.3915 -1.61188 1.08315 0
M  V30 823 C 81.5215 -2.63 2.26822 0
M  V30 824 C 80.4755 -2.56671 3.42497 0
M  V30 825 C 79.8015 -3.95697 3.59622 0
M  V30 826 C 81.1015 -2.11601 4.77517 0
M  V30 827 H 82.7955 -0.953525 2.8381 0
M  V30 828 H 80.3415 -0.457244 1.36548 0
M  V30 829 H 82.2945 -3.37077 2.52898 0
M  V30 830 H 81.0185 -2.9732 1.35161 0
M  V30 831 H 79.6775 -1.85051 3.16467 0
M  V30 832 H 79.3255 -4.27322 2.6534 0
M  V30 833 H 79.0255 -3.92345 4.37424 0
M  V30 834 H 80.5495 -4.71438 3.88044 0
M  V30 835 H 81.9635 -2.7542 5.02809 0
M  V30 836 H 80.3605 -2.19311 5.5859 0
M  V30 837 H 81.4305 -1.06824 4.72987 0
M  V30 838 N 82.7736 -1.49793 -0.48987 0
M  V30 839 C 83.9986 -1.63836 -1.27172 0
M  V30 840 C 84.4236 -0.31402 -1.8546 0
M  V30 841 O 83.7816 0.719803 -1.66399 0
M  V30 842 C 83.8296 -2.71797 -2.36978 0
M  V30 843 O 82.9336 -2.31744 -3.41128 0
M  V30 844 H 82.2746 -0.547997 -0.37496 0
M  V30 845 H 84.8046 -1.96053 -0.585191 0
M  V30 846 H 84.8146 -2.94305 -2.82575 0
M  V30 847 H 83.4896 -3.67923 -1.93921 0
M  V30 848 H 82.0666 -2.1961 -3.01373 0
M  V30 849 N 84.2517 0.741722 -1.39055 0
M  V30 850 C 85.5007 1.49656 -1.35225 0
M  V30 851 C 85.8137 1.95533 0.0512708 0
M  V30 852 O 87.0197 2.7067 0.212138 0
M  V30 853 C 85.4757 2.70389 -2.37525 0
M  V30 854 C 85.0837 2.31489 -3.83558 0
M  V30 855 C 86.8277 3.48236 -2.42759 0
M  V30 856 C 84.7347 3.48903 -4.77515 0
M  V30 857 H 83.6647 0.56197 -0.502699 0
M  V30 858 H 86.3157 0.809727 -1.64668 0
M  V30 859 H 84.6977 3.41113 -2.01142 0
M  V30 860 H 85.8717 1.68354 -4.28945 0
M  V30 861 H 84.1867 1.66749 -3.81554 0
M  V30 862 H 86.7837 4.35558 -3.1015 0
M  V30 863 H 87.1267 3.90229 -1.45008 0
M  V30 864 H 87.6597 2.84535 -2.78002 0
M  V30 865 H 84.3987 3.11966 -5.76504 0
M  V30 866 H 83.9187 4.11041 -4.36813 0
M  V30 867 H 85.5977 4.15328 -4.96096 0
M  V30 868 N 85.7298 1.2412 0.971189 0
M  V30 869 C 86.6628 0.97373 2.06382 0
M  V30 870 C 87.6408 -0.0912662 1.62344 0
M  V30 871 O 88.8248 0.0449365 1.88446 0
M  V30 872 C 85.9518 0.468746 3.35441 0
M  V30 873 C 84.9978 1.52176 3.98428 0
M  V30 874 S 85.8308 3.10203 4.36503 0
M  V30 875 C 86.9868 2.61398 5.68702 0
M  V30 876 H 87.2198 1.89893 2.28753 0
M  V30 877 H 84.7528 1.07466 1.10862 0
M  V30 878 H 86.7108 0.184012 4.10087 0
M  V30 879 H 85.3718 -0.435688 3.11064 0
M  V30 880 H 84.5648 1.11876 4.91426 0
M  V30 881 H 84.1668 1.75632 3.30196 0
M  V30 882 H 86.4588 2.03992 6.4606 0
M  V30 883 H 87.4018 3.52972 6.13854 0
M  V30 884 H 87.8098 2.01941 5.27143 0
M  V30 885 N 87.2079 -1.17134 1.05439 0
M  V30 886 C 88.4559 -1.87085 0.764429 0
M  V30 887 C 88.7769 -1.81584 -0.710787 0
M  V30 888 O 88.0469 -1.24349 -1.51374 0
M  V30 889 H 86.6269 -0.692627 0.279779 0
M  V30 890 H 89.2889 -1.42087 1.33406 0
M  V30 891 H 88.3849 -2.92759 1.0816 0
M  V30 892 N 88.686 -0.835752 -1.33615 0
M  V30 893 C 89.616 -0.281739 -2.31794 0
M  V30 894 C 90.597 0.608833 -1.58831 0
M  V30 895 O 91.782 0.533035 -1.86741 0
M  V30 896 C 88.912 0.546612 -3.42971 0
M  V30 897 C 87.866 -0.247904 -4.27281 0
M  V30 898 C 87.192 0.704001 -5.30045 0
M  V30 899 C 88.492 -1.46324 -5.01385 0
M  V30 900 H 90.186 -1.10206 -2.78379 0
M  V30 901 H 87.732 -0.531388 -1.33837 0
M  V30 902 H 89.685 0.944467 -4.1068 0
M  V30 903 H 88.409 1.40011 -2.95067 0
M  V30 904 H 87.068 -0.627281 -3.61194 0
M  V30 905 H 86.716 1.55381 -4.78399 0
M  V30 906 H 86.416 0.176524 -5.87335 0
M  V30 907 H 87.94 1.09944 -6.0062 0
M  V30 908 H 89.354 -1.13871 -5.61877 0
M  V30 909 H 87.751 -1.92728 -5.6831 0
M  V30 910 H 88.821 -2.23467 -4.30338 0
M  V30 911 N 90.1641 1.46063 -0.591896 0
M  V30 912 C 91.0971 2.27452 0.184617 0
M  V30 913 C 92.0751 1.36188 0.888351 0
M  V30 914 O 93.2591 1.65606 0.90039 0
M  V30 915 C 90.3861 3.14162 1.26571 0
M  V30 916 C 89.4321 4.21255 0.666814 0
M  V30 917 S 90.2651 5.33034 -0.513345 0
M  V30 918 C 91.4211 6.23311 0.56872 0
M  V30 919 H 91.6541 2.92963 -0.505939 0
M  V30 920 H 89.1871 1.49676 -0.379014 0
M  V30 921 H 91.1451 3.6468 1.88463 0
M  V30 922 H 89.8061 2.47946 1.92826 0
M  V30 923 H 88.9991 4.81788 1.47974 0
M  V30 924 H 88.6011 3.73797 0.123359 0
M  V30 925 H 90.8931 6.61758 1.45198 0
M  V30 926 H 91.8361 7.081 -7.23824e-05 0
M  V30 927 H 92.2441 5.57646 0.876996 0
M  V30 928 N 91.6422 0.330177 1.54103 0
M  V30 929 C 93.0532 -0.15652 1.86043 0
M  V30 930 C 93.4042 -1.51086 1.2517 0
M  V30 931 O 92.5292 -2.09023 0.560217 0
M  V30 932 C 93.1242 -0.290784 3.3755 0
M  V30 933 C 91.6832 -0.721705 3.69416 0
M  V30 934 C 90.8302 0.152622 2.7688 0
M  V30 935 H 93.7812 0.550237 1.48856 0
M  V30 936 H 93.8022 -1.12058 3.63625 0
M  V30 937 H 93.3142 0.695068 3.81825 0
M  V30 938 H 91.4152 -1.71706 3.30678 0
M  V30 939 H 91.5282 -0.520869 4.7626 0
M  V30 940 H 89.8922 -0.372894 2.51956 0
M  V30 941 H 90.6752 1.13536 3.23982 0
M  V30 942 N 93.1203 -1.57491 0.0584922 0
M  V30 943 C 94.0503 -2.14988 -0.911178 0
M  V30 944 C 95.0313 -1.07343 -1.31952 0
M  V30 945 O 96.2163 -1.35318 -1.39294 0
M  V30 946 C 93.3463 -2.70078 -2.18347 0
M  V30 947 C 92.3003 -3.82771 -1.91495 0
M  V30 948 C 91.6263 -4.24408 -3.25241 0
M  V30 949 C 92.9263 -5.07592 -1.23075 0
M  V30 950 H 94.6203 -2.96263 -0.432246 0
M  V30 951 H 92.1663 -1.42512 -0.206469 0
M  V30 952 H 94.1193 -3.08943 -2.86587 0
M  V30 953 H 92.8433 -1.86005 -2.68458 0
M  V30 954 H 91.5023 -3.44389 -1.25664 0
M  V30 955 H 91.1503 -3.37275 -3.73168 0
M  V30 956 H 90.8503 -5.00366 -3.08071 0
M  V30 957 H 92.3743 -4.65879 -3.94701 0
M  V30 958 H 93.7883 -5.43857 -1.81362 0
M  V30 959 H 92.1853 -5.88741 -1.16207 0
M  V30 960 H 93.2553 -4.84454 -0.207847 0
M  V30 961 N 94.5984 0.214957 -1.56127 0
M  V30 962 C 95.8264 0.955092 -1.83536 0
M  V30 963 C 96.2414 1.77677 -0.638472 0
M  V30 964 O 95.5984 1.78219 0.392968 0
M  V30 965 C 95.6494 1.86734 -3.09536 0
M  V30 966 O 95.3704 1.07887 -4.24608 0
M  V30 967 C 96.8714 2.72082 -3.4998 0
M  V30 968 H 94.0914 0.279611 -0.609966 0
M  V30 969 H 96.6354 0.228197 -2.03223 0
M  V30 970 H 94.7904 2.5481 -2.91806 0
M  V30 971 H 95.2044 1.69872 -4.9623 0
M  V30 972 H 96.6784 3.31782 -4.41163 0
M  V30 973 H 97.1554 3.44806 -2.7204 0
M  V30 974 H 97.7614 2.09409 -3.70173 0
M  V30 975 N 96.0765 1.50051 0.48192 0
M  V30 976 C 97.0235 1.68122 1.58125 0
M  V30 977 C 97.9935 0.522545 1.57666 0
M  V30 978 O 99.1785 0.751844 1.75362 0
M  V30 979 C 96.3185 1.77142 2.96167 0
M  V30 980 C 95.4315 3.0444 3.06497 0
M  V30 981 C 94.5665 3.04321 4.35387 0
M  V30 982 C 93.6055 4.26118 4.3942 0
M  V30 983 N 92.7425 4.238 5.59766 0
M  V30 984 H 97.5825 2.6198 1.42022 0
M  V30 985 H 95.1195 1.29877 0.690687 0
M  V30 986 H 97.0775 1.80352 3.76203 0
M  V30 987 H 95.7075 0.867329 3.1093 0
M  V30 988 H 94.7595 3.10752 2.19402 0
M  V30 989 H 96.0715 3.94426 3.05336 0
M  V30 990 H 95.2255 3.062 5.23762 0
M  V30 991 H 93.9645 2.12147 4.39141 0
M  V30 992 H 92.9695 4.24463 3.49444 0
M  V30 993 H 94.1945 5.19507 4.37366 0
M  V30 994 H 92.1405 3.34474 5.64326 0
M  V30 995 H 92.0575 5.07542 5.60301 0
M  V30 996 H 93.3255 4.2981 6.50295 0
M  V30 997 N 97.5546 -0.734337 1.39446 0
M  V30 998 C 98.4646 -1.87879 1.40495 0
M  V30 999 C 99.4806 -1.714 0.299672 0
M  V30 1000 O 100.657 -1.93991 0.541249 0
M  V30 1001 C 97.7216 -3.23477 1.24754 0
M  V30 1002 C 96.7826 -3.52344 2.45259 0
M  V30 1003 C 96.0156 -4.81473 2.30259 0
M  V30 1004 O 96.2386 -5.55237 1.30643 0
M  V30 1005 O 95.1726 -5.10254 3.19256 0
M  V30 1006 H 98.9986 -1.89949 2.36966 0
M  V30 1007 H 96.5836 -0.882243 1.20569 0
M  V30 1008 H 98.4656 -4.04509 1.18111 0
M  V30 1009 H 97.1406 -3.22176 0.313781 0
M  V30 1010 H 96.0476 -2.71396 2.57478 0
M  V30 1011 H 97.3806 -3.58426 3.37331 0
M  V30 1012 N 99.0327 -1.24633 -0.964593 0
M  V30 1013 C 100.279 -1.08949 -1.71049 0
M  V30 1014 C 100.612 0.370302 -1.90637 0
M  V30 1015 O 99.8867 1.27349 -1.47011 0
M  V30 1016 C 100.17 -1.83329 -3.0994 0
M  V30 1017 C 100.023 -3.37077 -2.97824 0
M  V30 1018 C 101.342 -1.60846 -4.09654 0
M  V30 1019 H 98.4607 -0.397178 -0.620821 0
M  V30 1020 H 101.103 -1.5334 -1.12191 0
M  V30 1021 H 99.2527 -1.45597 -3.60186 0
M  V30 1022 H 100.925 -3.84425 -2.5498 0
M  V30 1023 H 99.1677 -3.65298 -2.33965 0
M  V30 1024 H 99.8387 -3.84324 -3.96231 0
M  V30 1025 H 102.315 -1.93674 -3.68279 0
M  V30 1026 H 101.191 -2.1534 -5.04896 0
M  V30 1027 H 101.452 -0.547434 -4.38698 0
M  V30 1028 N 100.511 1.16574 -1.06058 0
M  V30 1029 C 101.474 2.19085 -0.673392 0
M  V30 1030 C 102.474 1.5835 0.279648 0
M  V30 1031 O 103.664 1.74088 0.0623488 0
M  V30 1032 C 100.796 3.40899 0.00954234 0
M  V30 1033 H 101.989 2.54853 -1.58081 0
M  V30 1034 H 99.5418 1.30808 -0.855516 0
M  V30 1035 H 100.277 3.10684 0.929826 0
M  V30 1036 H 100.062 3.86233 -0.67573 0
M  V30 1037 H 101.552 4.1675 0.266245 0
M  V30 1038 N 101.989 0.842826 1.3317 0
M  V30 1039 C 102.936 0.276885 2.29133 0
M  V30 1040 C 103.906 -0.609527 1.54512 0
M  V30 1041 O 105.091 -0.546955 1.82792 0
M  V30 1042 C 102.231 -0.538707 3.40869 0
M  V30 1043 C 101.344 0.372169 4.30394 0
M  V30 1044 C 100.479 -0.454908 5.29249 0
M  V30 1045 C 99.5179 0.45411 6.10413 0
M  V30 1046 N 98.6549 -0.335075 7.013 0
M  V30 1047 H 103.495 1.10052 2.76934 0
M  V30 1048 H 101.032 0.554161 1.36262 0
M  V30 1049 H 102.99 -1.02709 4.0436 0
M  V30 1050 H 101.62 -1.32727 2.9425 0
M  V30 1051 H 100.672 0.97888 3.6759 0
M  V30 1052 H 101.984 1.0703 4.87182 0
M  V30 1053 H 101.138 -1.00695 5.98285 0
M  V30 1054 H 99.8769 -1.18646 4.73048 0
M  V30 1055 H 98.8819 1.01813 5.40291 0
M  V30 1056 H 100.107 1.18409 6.68697 0
M  V30 1057 H 98.0529 -1.04994 6.47543 0
M  V30 1058 H 97.9699 0.304262 7.55387 0
M  V30 1059 H 99.2379 -0.869224 7.74638 0
M  V30 1060 N 103.467 -1.45747 0.599634 0
M  V30 1061 C 104.715 -2.01893 0.0915472 0
M  V30 1062 C 105.036 -1.47155 -1.27946 0
M  V30 1063 O 104.306 -0.66273 -1.84349 0
M  V30 1064 H 102.886 -0.746363 0.0308524 0
M  V30 1065 H 105.548 -1.78645 0.779237 0
M  V30 1066 H 104.644 -3.1208 0.0353086 0
M  V30 1067 N 104.945 -0.338344 -1.53925 0
M  V30 1068 C 106.17 0.263987 -2.05713 0
M  V30 1069 C 106.595 1.43847 -1.21201 0
M  V30 1070 O 105.953 1.79904 -0.224535 0
M  V30 1071 C 106.001 0.662 -3.54471 0
M  V30 1072 O 105.105 1.76265 -3.72833 0
M  V30 1073 H 104.446 0.0448722 -0.662482 0
M  V30 1074 H 106.976 -0.491048 -1.9862 0
M  V30 1075 H 106.986 0.940594 -3.9701 0
M  V30 1076 H 105.661 -0.196937 -4.15433 0
M  V30 1077 H 104.238 1.48173 -3.42198 0
M  V30 1078 N 106.423 1.57458 -0.0668435 0
M  V30 1079 C 107.672 1.92477 0.602947 0
M  V30 1080 C 107.985 0.948419 1.71068 0
M  V30 1081 O 109.191 1.19124 2.43971 0
M  V30 1082 C 107.647 3.41903 1.12383 0
M  V30 1083 C 107.255 4.47975 0.04737 0
M  V30 1084 C 108.999 3.85931 1.76797 0
M  V30 1085 C 106.906 5.88529 0.582022 0
M  V30 1086 H 105.836 0.718387 0.22899 0
M  V30 1087 H 108.487 1.82978 -0.138276 0
M  V30 1088 H 106.869 3.46459 1.91787 0
M  V30 1089 H 108.043 4.55029 -0.726978 0
M  V30 1090 H 106.358 4.13384 -0.500243 0
M  V30 1091 H 108.955 4.88322 2.17821 0
M  V30 1092 H 109.298 3.23029 2.62599 0
M  V30 1093 H 109.831 3.83958 1.04024 0
M  V30 1094 H 106.57 6.55065 -0.238721 0
M  V30 1095 H 106.09 5.85004 1.324 0
M  V30 1096 H 107.769 6.38258 1.05999 0
M  V30 1097 N 107.901 -0.206675 1.56239 0
M  V30 1098 C 109.149 -0.927007 1.79586 0
M  V30 1099 C 109.47 -1.8427 0.637929 0
M  V30 1100 O 108.74 -1.92849 -0.344398 0
M  V30 1101 H 107.32 -0.345292 0.662407 0
M  V30 1102 H 109.982 -0.21496 1.93711 0
M  V30 1103 H 109.078 -1.52501 2.72305 0
M  V30 1104 N 109.379 -1.50304 -0.473955 0
M  V30 1105 C 110.795 -1.37667 -0.807466 0
M  V30 1106 C 110.995 -0.430555 -1.96846 0
M  V30 1107 O 110.051 0.127874 -2.52176 0
M  V30 1108 C 111.364 -2.78974 -1.12223 0
M  V30 1109 C 112.912 -2.87868 -1.22885 0
M  V30 1110 C 113.387 -4.30003 -1.57676 0
M  V30 1111 N 114.878 -4.3294 -1.64673 0
M  V30 1112 C 115.613 -5.3991 -1.93091 0
M  V30 1113 N 115.109 -6.57092 -2.1955 0
M  V30 1114 N 116.902 -5.27351 -1.94569 0
M  V30 1115 H 109.053 -2.10394 0.291212 0
M  V30 1116 H 111.316 -0.945575 0.0677609 0
M  V30 1117 H 111.022 -3.50031 -0.342229 0
M  V30 1118 H 110.896 -3.16038 -2.05913 0
M  V30 1119 H 113.283 -2.17032 -1.99953 0
M  V30 1120 H 113.364 -2.54352 -0.271814 0
M  V30 1121 H 113.008 -5.01375 -0.81149 0
M  V30 1122 H 112.938 -4.61004 -2.54525 0
M  V30 1123 H 115.429 -3.48441 -1.46277 0
M  V30 1124 H 115.742 -7.34425 -2.405 0
M  V30 1125 H 114.087 -6.60272 -2.16948 0
M  V30 1126 H 117.278 -4.34801 -1.73394 0
M  V30 1127 H 117.451 -6.10805 -2.16381 0
M  V30 1128 N 110.857 0.726932 -1.39834 0
M  V30 1129 C 112.105 1.4837 -1.37225 0
M  V30 1130 C 112.426 1.94979 0.0284857 0
M  V30 1131 O 111.696 1.69555 0.981213 0
M  V30 1132 H 110.276 0.55043 -0.505011 0
M  V30 1133 H 112.938 0.862468 -1.74778 0
M  V30 1134 H 112.034 2.36198 -2.04003 0
M  V30 1135 N 112.336 1.25143 0.95797 0
M  V30 1136 C 113.582 1.09855 1.70469 0
M  V30 1137 C 113.915 -0.360187 1.90831 0
M  V30 1138 O 113.19 -1.26568 1.47685 0
M  V30 1139 C 113.473 1.8497 3.08963 0
M  V30 1140 C 113.326 3.38652 2.96032 0
M  V30 1141 C 114.645 1.63016 4.08795 0
M  V30 1142 H 111.764 0.400465 0.618706 0
M  V30 1143 H 114.406 1.53933 1.11376 0
M  V30 1144 H 112.556 1.47505 3.59409 0
M  V30 1145 H 114.228 3.85772 2.52938 0
M  V30 1146 H 112.471 3.66534 2.32025 0
M  V30 1147 H 113.142 3.8642 3.94187 0
M  V30 1148 H 115.618 1.95625 3.67247 0
M  V30 1149 H 114.494 2.18015 5.03747 0
M  V30 1150 H 114.755 0.570692 4.38401 0
M  V30 1151 N 113.814 -1.1601 1.06675 0
M  V30 1152 C 114.744 -2.22688 0.702307 0
M  V30 1153 C 115.725 -1.67306 -0.307032 0
M  V30 1154 O 116.91 -1.93352 -0.181305 0
M  V30 1155 C 114.04 -3.47178 0.092038 0
M  V30 1156 C 112.994 -4.15477 1.02777 0
M  V30 1157 C 112.32 -5.33963 0.28061 0
M  V30 1158 C 113.62 -4.66019 2.35846 0
M  V30 1159 H 115.314 -2.53429 1.59419 0
M  V30 1160 H 112.86 -1.21813 0.767961 0
M  V30 1161 H 114.813 -4.21037 -0.174814 0
M  V30 1162 H 113.537 -3.15749 -0.834877 0
M  V30 1163 H 112.196 -3.43549 1.27944 0
M  V30 1164 H 111.844 -4.98788 -0.649545 0
M  V30 1165 H 111.544 -5.806 0.904258 0
M  V30 1166 H 113.068 -6.10596 0.021396 0
M  V30 1167 H 114.482 -5.3144 2.15045 0
M  V30 1168 H 112.879 -5.23293 2.93743 0
M  V30 1169 H 113.949 -3.82023 2.98641 0
M  V30 1170 N 115.292 -0.849877 -1.32721 0
M  V30 1171 C 116.703 -0.506188 -1.79707 0
M  V30 1172 C 117.054 0.975627 -1.70223 0
M  V30 1173 O 116.179 1.76078 -1.25799 0
M  V30 1174 C 116.774 -0.912044 -3.26293 0
M  V30 1175 C 115.333 -0.620326 -3.71253 0
M  V30 1176 C 114.48 -1.11439 -2.53922 0
M  V30 1177 H 117.431 -1.03754 -1.20087 0
M  V30 1178 H 117.452 -0.226493 -3.79825 0
M  V30 1179 H 116.964 -1.99057 -3.33164 0
M  V30 1180 H 115.065 0.447674 -3.69901 0
M  V30 1181 H 115.178 -1.18327 -4.64258 0
M  V30 1182 H 113.542 -0.534834 -2.49021 0
M  V30 1183 H 114.325 -2.19992 -2.6355 0
M  V30 1184 N 116.77 1.45427 -0.607355 0
M  V30 1185 C 117.733 2.28974 0.101693 0
M  V30 1186 C 118.733 1.39754 0.795329 0
M  V30 1187 O 119.923 1.61878 0.643527 0
M  V30 1188 C 117.055 3.20768 1.15414 0
M  V30 1189 H 118.248 2.93147 -0.632844 0
M  V30 1190 H 115.801 1.51945 -0.366391 0
M  V30 1191 H 116.536 2.61395 1.91945 0
M  V30 1192 H 116.321 3.86489 0.66098 0
M  V30 1193 H 117.811 3.83589 1.65073 0
M  V30 1194 N 118.248 0.346503 1.53744 0
M  V30 1195 C 119.494 -0.249473 2.0126 0
M  V30 1196 C 119.827 -1.49965 1.23386 0
M  V30 1197 O 119.102 -1.91811 0.32229 0
M  V30 1198 C 119.385 -0.560643 3.55709 0
M  V30 1199 C 119.238 0.701836 4.44291 0
M  V30 1200 C 120.557 -1.36905 4.18264 0
M  V30 1201 H 117.676 -0.0891987 0.731582 0
M  V30 1202 H 120.318 0.467624 1.84156 0
M  V30 1203 H 118.468 -1.17156 3.70414 0
M  V30 1204 H 120.14 1.33974 4.41417 0
M  V30 1205 H 118.383 1.32612 4.13033 0
M  V30 1206 H 119.054 0.43933 5.50249 0
M  V30 1207 H 121.53 -0.852448 4.07275 0
M  V30 1208 H 120.406 -1.55553 5.26398 0
M  V30 1209 H 120.667 -2.37203 3.73078 0
M  V30 1210 N 119.726 -1.57421 0.075193 0
M  V30 1211 C 120.636 -2.1642 -0.905511 0
M  V30 1212 C 121.652 -1.12828 -1.32461 0
M  V30 1213 O 122.828 -1.45109 -1.39661 0
M  V30 1214 C 119.893 -2.71693 -2.15369 0
M  V30 1215 C 118.954 -3.90171 -1.79068 0
M  V30 1216 C 118.187 -4.42798 -2.97936 0
M  V30 1217 O 118.41 -3.94416 -4.12058 0
M  V30 1218 O 117.344 -5.34085 -2.77555 0
M  V30 1219 H 121.17 -3.00588 -0.433626 0
M  V30 1220 H 118.755 -1.48664 -0.148067 0
M  V30 1221 H 120.637 -3.07104 -2.88557 0
M  V30 1222 H 119.312 -1.90582 -2.61649 0
M  V30 1223 H 118.219 -3.59606 -1.03122 0
M  V30 1224 H 119.552 -4.72584 -1.37569 0
M  V30 1225 N 121.204 0.198386 -1.56346 0
M  V30 1226 C 122.134 1.24865 -1.9731 0
M  V30 1227 C 123.115 1.47651 -0.844576 0
M  V30 1228 O 124.3 1.59444 -1.10866 0
M  V30 1229 C 121.43 2.59358 -2.30977 0
M  V30 1230 C 120.384 2.5119 -3.46537 0
M  V30 1231 C 119.71 3.89926 -3.65871 0
M  V30 1232 C 121.01 2.03977 -4.80823 0
M  V30 1233 H 122.704 0.908252 -2.85291 0
M  V30 1234 H 120.25 0.435462 -1.37258 0
M  V30 1235 H 122.203 3.33011 -2.58228 0
M  V30 1236 H 120.927 2.95132 -1.39874 0
M  V30 1237 H 119.586 1.79993 -3.19371 0
M  V30 1238 H 119.234 4.23046 -2.72105 0
M  V30 1239 H 118.934 3.85336 -4.4361 0
M  V30 1240 H 120.458 4.65205 -3.95495 0
M  V30 1241 H 121.872 2.67386 -5.07127 0
M  V30 1242 H 120.269 2.10397 -5.62008 0
M  V30 1243 H 121.339 0.992861 -4.74626 0
M  V30 1244 N 122.682 1.50554 0.465978 0
M  V30 1245 C 123.645 1.69233 1.54574 0
M  V30 1246 C 124.645 0.562901 1.50626 0
M  V30 1247 O 125.835 0.830016 1.53155 0
M  V30 1248 C 122.967 1.7223 2.94193 0
M  V30 1249 H 124.16 2.65571 1.39327 0
M  V30 1250 H 121.713 1.40111 0.692711 0
M  V30 1251 H 122.448 0.77603 3.14878 0
M  V30 1252 H 122.233 2.54285 2.98466 0
M  V30 1253 H 123.723 1.88618 3.72576 0
M  V30 1254 N 124.16 -0.719506 1.40217 0
M  V30 1255 C 125.409 -1.47486 1.37589 0
M  V30 1256 C 125.722 -1.9559 -0.0201568 0
M  V30 1257 O 126.928 -2.70973 -0.169049 0
M  V30 1258 C 125.384 -2.66575 2.41796 0
M  V30 1259 C 124.992 -2.25358 3.87192 0
M  V30 1260 C 126.736 -3.4433 2.48269 0
M  V30 1261 C 124.643 -3.41262 4.83005 0
M  V30 1262 H 123.573 -0.553901 0.511576 0
M  V30 1263 H 126.224 -0.783427 1.65936 0
M  V30 1264 H 124.606 -3.3787 2.06543 0
M  V30 1265 H 125.78 -1.61509 4.31569 0
M  V30 1266 H 124.095 -1.60657 3.84159 0
M  V30 1267 H 126.692 -4.30569 3.17041 0
M  V30 1268 H 127.035 -3.87872 1.51198 0
M  V30 1269 H 127.568 -2.80076 2.82493 0
M  V30 1270 H 124.307 -3.02755 5.81394 0
M  V30 1271 H 123.827 -4.0404 4.43297 0
M  V30 1272 H 125.506 -4.07383 5.02641 0
M  V30 1273 N 125.638 -1.25649 -0.95132 0
M  V30 1274 C 126.548 -1.08073 -2.08224 0
M  V30 1275 C 127.564 -0.0169666 -1.73992 0
M  V30 1276 O 128.74 -0.218593 -2.0021 0
M  V30 1277 C 125.805 -0.704922 -3.39458 0
M  V30 1278 C 124.866 -1.84699 -3.87537 0
M  V30 1279 C 124.099 -1.48902 -5.12508 0
M  V30 1280 O 124.322 -0.386156 -5.69091 0
M  V30 1281 O 123.256 -2.32033 -5.55378 0
M  V30 1282 H 127.082 -2.02924 -2.25954 0
M  V30 1283 H 124.667 -1.04618 -1.06656 0
M  V30 1284 H 126.549 -0.507609 -4.18332 0
M  V30 1285 H 125.224 0.214291 -3.2299 0
M  V30 1286 H 124.131 -2.09919 -3.09653 0
M  V30 1287 H 125.464 -2.74557 -4.08509 0
M  V30 1288 N 127.117 1.15442 -1.07289 0
M  V30 1289 C 128.049 2.19773 -0.650585 0
M  V30 1290 C 129.062 1.60076 0.296572 0
M  V30 1291 O 130.251 1.78293 0.0859905 0
M  V30 1292 C 127.351 3.38838 0.0650398 0
M  V30 1293 C 126.524 4.2808 -0.898141 0
M  V30 1294 C 125.583 5.2574 -0.219926 0
M  V30 1295 O 124.609 5.62654 -0.860773 0
M  V30 1296 N 125.811 5.71205 1.03466 0
M  V30 1297 H 128.576 2.56622 -1.54808 0
M  V30 1298 H 126.137 1.30551 -0.957494 0
M  V30 1299 H 128.129 4.01222 0.529415 0
M  V30 1300 H 126.699 3.00409 0.864466 0
M  V30 1301 H 125.919 3.62804 -1.54165 0
M  V30 1302 H 127.207 4.84577 -1.5512 0
M  V30 1303 H 126.605 5.43325 1.57526 0
M  V30 1304 H 125.162 6.35633 1.44272 0
M  V30 1305 N 128.595 0.856903 1.32268 0
M  V30 1306 C 129.844 0.457599 1.96441 0
M  V30 1307 C 130.157 -0.992426 1.68553 0
M  V30 1308 O 131.363 -1.49727 2.26482 0
M  V30 1309 C 129.819 0.767358 3.51624 0
M  V30 1310 C 129.427 2.23326 3.88367 0
M  V30 1311 C 131.171 0.435887 4.22256 0
M  V30 1312 C 129.078 2.48613 5.36606 0
M  V30 1313 H 128.008 0.167387 0.735185 0
M  V30 1314 H 130.659 1.048 1.5063 0
M  V30 1315 H 129.041 0.106367 3.95857 0
M  V30 1316 H 130.215 2.93623 3.55137 0
M  V30 1317 H 128.53 2.52948 3.30766 0
M  V30 1318 H 131.127 0.602202 5.31298 0
M  V30 1319 H 131.47 -0.622672 4.11617 0
M  V30 1320 H 132.003 1.05286 3.83614 0
M  V30 1321 H 128.742 3.53101 5.52268 0
M  V30 1322 H 128.262 1.82896 5.71235 0
M  V30 1323 H 129.941 2.32676 6.03714 0
M  V30 1324 N 130.073 -1.45103 0.615059 0
M  V30 1325 C 131.489 -1.57137 0.279322 0
M  V30 1326 C 131.689 -1.60523 -1.21797 0
M  V30 1327 O 130.745 -1.53956 -2.00134 0
M  V30 1328 C 132.058 -2.85062 0.957083 0
M  V30 1329 C 133.606 -2.98749 0.933706 0
M  V30 1330 C 134.081 -4.29455 1.59162 0
M  V30 1331 N 135.572 -4.36231 1.55746 0
M  V30 1332 C 136.307 -5.36051 2.0356 0
M  V30 1333 N 135.803 -6.42367 2.59494 0
M  V30 1334 N 137.596 -5.27456 1.94284 0
M  V30 1335 H 129.747 -1.41148 1.58717 0
M  V30 1336 H 132.01 -0.675331 0.665306 0
M  V30 1337 H 131.716 -2.88488 2.01166 0
M  V30 1338 H 131.59 -3.7407 0.48494 0
M  V30 1339 H 133.977 -2.94886 -0.112347 0
M  V30 1340 H 134.058 -2.11132 1.44419 0
M  V30 1341 H 133.702 -4.34077 2.63704 0
M  V30 1342 H 133.632 -5.15901 1.0561 0
M  V30 1343 H 136.123 -3.60011 1.14893 0
M  V30 1344 H 136.436 -7.14793 2.93752 0
M  V30 1345 H 134.781 -6.43097 2.63537 0
M  V30 1346 H 137.972 -4.43308 1.5032 0
M  V30 1347 H 138.145 -6.05099 2.3186 0
M  V30 1348 N 131.551 -0.354651 -1.53558 0
M  V30 1349 C 132.499 0.512195 -2.26891 0
M  V30 1350 C 133.493 1.09263 -1.29452 0
M  V30 1351 O 134.699 1.03709 -1.47121 0
M  V30 1352 H 131.074 0.183878 -0.729173 0
M  V30 1353 H 133.045 -0.128202 -2.98124 0
M  V30 1354 C 131.794 1.64563 -3.06291 0
M  V30 1355 H 131.117 1.20829 -3.81104 0
M  V30 1356 H 132.557 2.22711 -3.60799 0
M  V30 1357 C 131.016 2.58158 -2.16462 0
M  V30 1358 O 131.546 3.60695 -1.76811 0
M  V30 1359 N 129.752 2.27096 -1.81317 0
M  V30 1360 H 129.299 1.43751 -2.1376 0
M  V30 1361 H 129.257 2.89975 -1.21498 0
M  V30 1362 N 133.029 1.57378 -0.0835403 0
M  V30 1363 C 133.939 2.16897 0.894021 0
M  V30 1364 C 134.955 1.13528 1.31861 0
M  V30 1365 O 136.131 1.45848 1.3889 0
M  V30 1366 C 133.196 2.72831 2.13925 0
M  V30 1367 C 132.257 3.91115 1.76997 0
M  V30 1368 C 131.49 4.44371 2.95584 0
M  V30 1369 O 131.713 3.96596 4.09961 0
M  V30 1370 O 130.647 5.35549 2.74719 0
M  V30 1371 H 134.473 3.00814 0.417679 0
M  V30 1372 H 132.058 1.48741 0.140181 0
M  V30 1373 H 133.94 3.0863 2.86924 0
M  V30 1374 H 132.615 1.91967 2.60635 0
M  V30 1375 H 131.522 3.60148 1.01214 0
M  V30 1376 H 132.855 4.73307 1.3506 0
M  V30 1377 N 134.507 -0.190092 1.56449 0
M  V30 1378 C 135.732 -0.929864 1.85387 0
M  V30 1379 C 136.157 -1.7585 0.667704 0
M  V30 1380 O 135.515 -1.77198 -0.383459 0
M  V30 1381 C 135.563 -1.79773 3.12593 0
M  V30 1382 O 134.667 -2.89713 2.93496 0
M  V30 1383 H 134.008 -0.261574 0.610307 0
M  V30 1384 H 136.538 -0.193896 2.03679 0
M  V30 1385 H 136.548 -2.20139 3.43515 0
M  V30 1386 H 135.223 -1.18892 3.98544 0
M  V30 1387 H 133.8 -2.53065 2.73884 0
M  V30 1388 N 135.985 -1.50799 -0.457987 0
M  V30 1389 C 136.915 -1.73553 -1.5621 0
M  V30 1390 C 137.896 -0.584774 -1.59732 0
M  V30 1391 O 139.081 -0.825314 -1.7579 0
M  V30 1392 C 136.211 -1.84169 -2.94447 0
M  V30 1393 C 135.165 -2.99461 -3.0579 0
M  V30 1394 C 134.491 -2.95235 -4.45803 0
M  V30 1395 C 135.791 -4.39766 -2.81786 0
M  V30 1396 H 137.485 -2.66 -1.37421 0
M  V30 1397 H 135.031 -1.28002 -0.659662 0
M  V30 1398 H 136.984 -1.98672 -3.71628 0
M  V30 1399 H 135.708 -0.883545 -3.14422 0
M  V30 1400 H 134.367 -2.8463 -2.31044 0
M  V30 1401 H 134.015 -1.97239 -4.62715 0
M  V30 1402 H 133.715 -3.72642 -4.54326 0
M  V30 1403 H 135.239 -3.11803 -5.24987 0
M  V30 1404 H 136.653 -4.55054 -3.4871 0
M  V30 1405 H 135.05 -5.18722 -3.0174 0
M  V30 1406 H 136.12 -4.51229 -1.7754 0
M  V30 1407 N 137.463 0.71206 -1.40597 0
M  V30 1408 C 138.393 1.83889 -1.43899 0
M  V30 1409 C 139.374 1.67442 -0.299504 0
M  V30 1410 O 140.559 1.87421 -0.508624 0
M  V30 1411 C 137.689 3.21877 -1.30431 0
M  V30 1412 C 136.643 3.53002 -2.42019 0
M  V30 1413 C 135.969 4.90172 -2.13626 0
M  V30 1414 C 137.269 3.53643 -3.84362 0
M  V30 1415 H 138.963 1.81383 -2.38203 0
M  V30 1416 H 136.509 0.871237 -1.14654 0
M  V30 1417 H 138.462 4.00404 -1.31357 0
M  V30 1418 H 137.186 3.24968 -0.326049 0
M  V30 1419 H 135.845 2.76818 -2.40349 0
M  V30 1420 H 135.493 4.89869 -1.14182 0
M  V30 1421 H 135.193 5.11962 -2.88389 0
M  V30 1422 H 136.717 5.71028 -2.1624 0
M  V30 1423 H 138.131 4.22203 -3.87837 0
M  V30 1424 H 136.528 3.86961 -4.58673 0
M  V30 1425 H 137.598 2.52954 -4.13693 0
M  V30 1426 N 138.941 1.26152 0.944643 0
M  V30 1427 C 140.357 1.03189 1.21754 0
M  V30 1428 C 140.557 -0.245112 2.00004 0
M  V30 1429 O 139.613 -0.955176 2.33736 0
M  V30 1430 C 140.926 2.26119 1.98219 0
M  V30 1431 C 142.474 2.30984 2.11224 0
M  V30 1432 C 142.949 3.53597 2.91089 0
M  V30 1433 N 144.44 3.54053 2.98664 0
M  V30 1434 C 145.175 4.45593 3.60881 0
M  V30 1435 N 144.671 5.47416 4.24626 0
M  V30 1436 N 146.464 4.33252 3.58119 0
M  V30 1437 H 138.615 2.08177 0.421437 0
M  V30 1438 H 140.878 0.914723 0.248969 0
M  V30 1439 H 140.584 3.18984 1.48128 0
M  V30 1440 H 140.458 2.3009 2.98895 0
M  V30 1441 H 142.845 1.38635 2.60508 0
M  V30 1442 H 142.926 2.31026 1.09821 0
M  V30 1443 H 142.57 4.46273 2.42493 0
M  V30 1444 H 142.5 3.50802 3.92741 0
M  V30 1445 H 144.991 2.80403 2.53343 0
M  V30 1446 H 145.304 6.13459 4.69987 0
M  V30 1447 H 143.649 5.51278 4.23223 0
M  V30 1448 H 146.84 3.52924 3.0751 0
M  V30 1449 H 147.013 5.04786 4.06319 0
M  V30 1450 N 140.419 -1.14872 1.07899 0
M  V30 1451 C 141.83 -1.67367 0.827363 0
M  V30 1452 C 142.181 -1.85236 -0.646693 0
M  V30 1453 O 141.306 -1.55974 -1.50004 0
M  V30 1454 C 141.901 -3.04016 1.49532 0
M  V30 1455 C 140.46 -3.53566 1.29106 0
M  V30 1456 C 139.607 -2.29161 1.56143 0
M  V30 1457 H 142.558 -0.990083 1.24028 0
M  V30 1458 H 142.579 -3.69219 0.919643 0
M  V30 1459 H 142.091 -2.90978 2.56814 0
M  V30 1460 H 140.192 -3.71835 0.238713 0
M  V30 1461 H 140.305 -4.34661 2.01511 0
M  V30 1462 H 138.669 -2.34978 0.982717 0
M  V30 1463 H 139.452 -2.18705 2.64619 0
M  V30 1464 N 141.898 -0.863906 -1.31812 0
M  V30 1465 C 143.128 -0.485406 -2.00817 0
M  V30 1466 C 143.536 0.925007 -1.65046 0
M  V30 1467 O 142.879 1.61653 -0.872574 0
M  V30 1468 C 142.941 -0.555589 -3.55181 0
M  V30 1469 C 142.605 -1.92654 -4.14407 0
M  V30 1470 C 143.602 -2.89324 -4.31958 0
M  V30 1471 C 141.287 -2.2262 -4.50273 0
M  V30 1472 C 143.281 -4.14108 -4.84555 0
M  V30 1473 C 140.968 -3.47654 -5.02573 0
M  V30 1474 C 141.966 -4.43214 -5.19664 0
M  V30 1475 O 141.654 -5.66033 -5.70843 0
M  V30 1476 H 141.386 -0.188224 -0.649267 0
M  V30 1477 H 143.94 -1.16514 -1.69156 0
M  V30 1478 H 142.17 0.181037 -3.86276 0
M  V30 1479 H 143.859 -0.19138 -4.05449 0
M  V30 1480 H 144.625 -2.6748 -4.04573 0
M  V30 1481 H 140.504 -1.4902 -4.3625 0
M  V30 1482 H 144.048 -4.88703 -4.9781 0
M  V30 1483 H 139.945 -3.69345 -5.29391 0
M  V30 1484 H 140.713 -5.6812 -5.89222 0
M  V30 1485 N 143.376 1.44774 -0.622745 0
M  V30 1486 C 144.623 2.02121 -0.1239 0
M  V30 1487 C 144.951 1.48915 1.25118 0
M  V30 1488 O 144.206 0.660045 1.84233 0
M  V30 1489 C 144.505 3.57364 -0.0508323 0
M  V30 1490 C 144.171 4.29787 -1.36358 0
M  V30 1491 C 142.833 4.4929 -1.72314 0
M  V30 1492 C 145.185 4.71062 -2.23048 0
M  V30 1493 C 142.513 5.07325 -2.94682 0
M  V30 1494 C 144.865 5.30452 -3.44679 0
M  V30 1495 C 143.529 5.48175 -3.80868 0
M  V30 1496 H 142.799 0.739612 -0.0453381 0
M  V30 1497 H 145.446 1.73648 -0.807389 0
M  V30 1498 H 143.751 3.85202 0.715991 0
M  V30 1499 H 145.448 3.99456 0.351533 0
M  V30 1500 H 142.038 4.14932 -1.07375 0
M  V30 1501 H 146.222 4.55715 -1.96565 0
M  V30 1502 H 141.478 5.19235 -3.22809 0
M  V30 1503 H 145.652 5.61385 -4.12092 0
M  V30 1504 H 143.279 5.92912 -4.75773 0
M  V30 1505 N 144.854 0.36279 1.53368 0
M  V30 1506 C 145.784 -0.476976 2.28576 0
M  V30 1507 C 146.765 -1.08631 1.30894 0
M  V30 1508 O 147.95 -1.10409 1.59761 0
M  V30 1509 C 145.08 -1.61828 3.07293 0
M  V30 1510 C 144.034 -1.13633 4.1264 0
M  V30 1511 C 143.36 -2.36766 4.79423 0
M  V30 1512 C 144.66 -0.223061 5.21823 0
M  V30 1513 H 146.354 0.150474 2.99022 0
M  V30 1514 H 143.9 0.0738103 1.43811 0
M  V30 1515 H 145.853 -2.21237 3.58653 0
M  V30 1516 H 144.577 -2.27292 2.34533 0
M  V30 1517 H 143.236 -0.564945 3.62221 0
M  V30 1518 H 142.884 -3.0068 4.03238 0
M  V30 1519 H 142.584 -2.05192 5.50609 0
M  V30 1520 H 144.108 -2.96865 5.33576 0
M  V30 1521 H 145.522 -0.724545 5.68703 0
M  V30 1522 H 143.919 0.001678 6.001 0
M  V30 1523 H 144.989 0.735553 4.79289 0
M  V30 1524 N 146.332 -1.57332 0.0918853 0
M  V30 1525 C 147.609 -1.85691 -0.614668 0
M  V30 1526 C 147.989 -0.988146 -1.86545 0
M  V30 1527 O 147.337 -0.0597055 -2.28422 0
M  V30 1528 C 147.547 -3.36294 -0.933126 0
M  V30 1529 C 148.895 -4.04275 -1.29796 0
M  V30 1530 O 149.919 -3.41157 -1.02424 0
M  V30 1531 O 148.778 -5.1564 -1.81047 0
M  V30 1532 H 145.872 -0.767802 -0.307261 0
M  V30 1533 H 148.418 -1.69244 0.12434 0
M  V30 1534 H 147.19 -3.91273 -0.0456404 0
M  V30 1535 H 146.813 -3.58076 -1.72822 0
M  V30 1536 N 147.81 0.181792 -1.56548 0
M  V30 1537 C 148.74 1.22765 -1.98623 0
M  V30 1538 C 149.721 1.46747 -0.860189 0
M  V30 1539 O 150.906 1.58259 -1.12551 0
M  V30 1540 C 148.036 2.56894 -2.33715 0
M  V30 1541 C 146.99 2.475 -3.49182 0
M  V30 1542 C 146.316 3.86023 -3.69986 0
M  V30 1543 C 147.616 1.98866 -4.82959 0
M  V30 1544 H 149.31 0.877942 -2.86239 0
M  V30 1545 H 146.856 0.42088 -1.37712 0
M  V30 1546 H 148.809 3.30253 -2.61746 0
M  V30 1547 H 147.533 2.93632 -1.42997 0
M  V30 1548 H 146.192 1.76596 -3.21262 0
M  V30 1549 H 145.84 4.20136 -2.76576 0
M  V30 1550 H 145.54 3.80609 -4.47672 0
M  V30 1551 H 147.064 4.60984 -4.00407 0
M  V30 1552 H 148.478 2.61992 -5.09934 0
M  V30 1553 H 146.875 2.04424 -5.64208 0
M  V30 1554 H 147.945 0.942465 -4.75653 0
M  V30 1555 N 149.288 1.51039 0.449983 0
M  V30 1556 C 150.704 1.38934 0.785462 0
M  V30 1557 C 150.904 0.461817 1.96136 0
M  V30 1558 O 149.96 -0.0877389 2.52348 0
M  V30 1559 C 151.273 2.80724 1.0777 0
M  V30 1560 C 152.821 2.89787 1.1829 0
M  V30 1561 C 153.296 4.32457 1.50815 0
M  V30 1562 N 154.787 4.35505 1.57764 0
M  V30 1563 C 155.522 5.42914 1.84477 0
M  V30 1564 N 155.018 6.60502 2.09068 0
M  V30 1565 N 156.811 5.3038 1.86155 0
M  V30 1566 H 148.962 2.09904 -0.324647 0
M  V30 1567 H 151.225 0.944378 -0.0827957 0
M  V30 1568 H 150.931 3.50531 0.286498 0
M  V30 1569 H 150.805 3.19273 2.00859 0
M  V30 1570 H 153.192 2.20186 1.96474 0
M  V30 1571 H 153.273 2.54752 0.231314 0
M  V30 1572 H 152.917 5.02603 0.731622 0
M  V30 1573 H 152.847 4.64995 2.47158 0
M  V30 1574 H 155.338 3.50724 1.40715 0
M  V30 1575 H 155.651 7.38158 2.28785 0
M  V30 1576 H 153.996 6.63639 2.06416 0
M  V30 1577 H 157.187 4.37505 1.66454 0
M  V30 1578 H 157.36 6.1417 2.06637 0
M  V30 1579 N 150.766 -0.704594 1.40972 0
M  V30 1580 C 151.696 -1.83124 1.44872 0
M  V30 1581 C 152.677 -1.67281 0.30838 0
M  V30 1582 O 153.862 -1.87149 0.518556 0
M  V30 1583 C 150.992 -3.21181 1.32136 0
M  V30 1584 C 149.946 -3.51714 2.43888 0
M  V30 1585 C 149.272 -4.89032 2.16222 0
M  V30 1586 C 150.572 -3.516 3.86232 0
M  V30 1587 H 152.266 -1.80117 2.39161 0
M  V30 1588 H 149.812 -0.865145 1.15114 0
M  V30 1589 H 151.765 -3.99702 1.33479 0
M  V30 1590 H 150.489 -3.24791 0.343279 0
M  V30 1591 H 149.148 -2.75539 2.41813 0
M  V30 1592 H 148.796 -4.89256 1.16778 0
M  V30 1593 H 148.496 -5.10426 2.911 0
M  V30 1594 H 150.02 -5.69873 2.19265 0
M  V30 1595 H 151.434 -4.2014 3.9007 0
M  V30 1596 H 149.831 -3.84523 4.60719 0
M  V30 1597 H 150.901 -2.50757 4.15029 0
M  V30 1598 N 152.244 -1.26651 -0.937939 0
M  V30 1599 C 153.474 -1.15006 -1.71631 0
M  V30 1600 C 153.882 0.297026 -1.86854 0
M  V30 1601 O 153.225 1.21493 -1.37786 0
M  V30 1602 C 153.287 -1.74984 -3.14039 0
M  V30 1603 C 152.951 -3.24103 -3.2219 0
M  V30 1604 C 153.948 -4.20877 -3.05219 0
M  V30 1605 C 151.633 -3.64625 -3.45476 0
M  V30 1606 C 153.627 -5.56151 -3.11408 0
M  V30 1607 C 151.314 -5.00032 -3.513 0
M  V30 1608 C 152.312 -5.95604 -3.34282 0
M  V30 1609 O 152 -7.28545 -3.3982 0
M  V30 1610 H 151.732 -0.401183 -0.544085 0
M  V30 1611 H 154.286 -1.67832 -1.18413 0
M  V30 1612 H 152.516 -1.16624 -3.68695 0
M  V30 1613 H 154.205 -1.58199 -3.73802 0
M  V30 1614 H 154.971 -3.90908 -2.87081 0
M  V30 1615 H 150.85 -2.90718 -3.57777 0
M  V30 1616 H 154.394 -6.30727 -2.98043 0
M  V30 1617 H 150.291 -5.29659 -3.68959 0
M  V30 1618 H 151.059 -7.3686 -3.56343 0
M  V30 1619 N 153.722 1.14298 -1.08507 0
M  V30 1620 C 154.999 1.81544 -0.728088 0
M  V30 1621 C 155.379 1.95838 0.78808 0
M  V30 1622 O 154.727 1.51904 1.70697 0
M  V30 1623 C 154.937 3.17169 -1.45619 0
M  V30 1624 C 156.285 3.9265 -1.61591 0
M  V30 1625 O 157.309 3.26762 -1.41793 0
M  V30 1626 O 156.168 5.10807 -1.94263 0
M  V30 1627 H 153.262 0.78491 -0.260471 0
M  V30 1628 H 155.808 1.21307 -1.18671 0
M  V30 1629 H 154.58 3.01934 -2.489 0
M  V30 1630 H 154.203 3.851 -0.989124 0
M  V30 1631 N 155.201 0.870884 1.31352 0
M  V30 1632 C 156.429 0.49677 2.00848 0
M  V30 1633 C 156.844 -0.910998 1.65367 0
M  V30 1634 O 156.201 -1.59696 0.883374 0
M  V30 1635 C 156.252 0.645308 3.55694 0
M  V30 1636 O 155.973 1.99764 3.89905 0
M  V30 1637 C 157.474 0.272326 4.42463 0
M  V30 1638 H 154.694 0.193462 0.642506 0
M  V30 1639 H 157.238 1.1723 1.67563 0
M  V30 1640 H 155.393 0.0173176 3.87396 0
M  V30 1641 H 155.807 2.00607 4.84621 0
M  V30 1642 H 157.281 0.427208 5.50344 0
M  V30 1643 H 157.758 -0.788587 4.32062 0
M  V30 1644 H 158.364 0.876054 4.1618 0
M  V30 1645 N 156.679 -1.44442 0.630414 0
M  V30 1646 C 157.589 -2.34476 -0.0761693 0
M  V30 1647 C 158.605 -1.52576 -0.836449 0
M  V30 1648 O 159.781 -1.85307 -0.788874 0
M  V30 1649 C 156.846 -3.30545 -1.04599 0
M  V30 1650 C 155.907 -4.28352 -0.28516 0
M  V30 1651 C 155.14 -5.19831 -1.20878 0
M  V30 1652 O 155.363 -5.15223 -2.44747 0
M  V30 1653 O 154.297 -5.97892 -0.693491 0
M  V30 1654 H 158.123 -2.96345 0.664324 0
M  V30 1655 H 155.708 -1.44203 0.39061 0
M  V30 1656 H 157.59 -3.89681 -1.60396 0
M  V30 1657 H 156.265 -2.7121 -1.76711 0
M  V30 1658 H 155.172 -3.72764 0.315837 0
M  V30 1659 H 156.505 -4.90605 0.395924 0
M  V30 1660 N 158.157 -0.370918 -1.53173 0
M  V30 1661 C 159.397 0.217106 -2.03244 0
M  V30 1662 C 159.761 1.45558 -1.25207 0
M  V30 1663 O 160.962 2.11957 -1.65311 0
M  V30 1664 C 159.233 0.496664 -3.53932 0
M  V30 1665 S 160.792 1.0576 -4.25864 0
M  V30 1666 H 157.61 0.0627827 -0.708223 0
M  V30 1667 H 160.212 -0.515019 -1.88594 0
M  V30 1668 H 158.916 -0.412096 -4.08326 0
M  V30 1669 H 158.447 1.25772 -3.72753 0
M  V30 1670 H 160.462 2.34145 -4.37482 0
M  V30 1671 N 159.635 1.57281 -0.100228 0
M  V30 1672 C 160.912 1.86014 0.604812 0
M  V30 1673 C 161.292 0.998025 1.86018 0
M  V30 1674 O 160.64 0.0718184 2.28387 0
M  V30 1675 C 160.85 3.36784 0.915278 0
M  V30 1676 C 162.198 4.04957 1.27651 0
M  V30 1677 O 163.222 3.41695 1.00613 0
M  V30 1678 O 162.081 5.16593 1.7831 0
M  V30 1679 H 159.175 0.76942 0.303185 0
M  V30 1680 H 161.721 1.69176 -0.133313 0
M  V30 1681 H 160.493 3.91292 0.0248896 0
M  V30 1682 H 160.116 3.58987 1.70921 0
M  V30 1683 N 161.113 -0.173488 1.56642 0
M  V30 1684 C 162.061 -1.23417 1.97157 0
M  V30 1685 C 163.055 -1.45946 0.860013 0
M  V30 1686 O 164.261 -1.46551 1.04512 0
M  V30 1687 H 160.636 -0.414818 0.62724 0
M  V30 1688 H 162.607 -0.865582 2.8557 0
M  V30 1689 C 161.356 -2.5665 2.34576 0
M  V30 1690 H 160.679 -2.40137 3.19647 0
M  V30 1691 H 162.119 -3.2956 2.6677 0
M  V30 1692 C 160.578 -3.15245 1.18836 0
M  V30 1693 O 161.108 -3.98883 0.474869 0
M  V30 1694 N 159.314 -2.74303 0.959497 0
M  V30 1695 H 158.861 -2.0639 1.54146 0
M  V30 1696 H 158.819 -3.13844 0.186932 0
M  V30 1697 N 162.591 -1.51276 -0.441967 0
M  V30 1698 C 163.554 -1.7167 -1.51862 0
M  V30 1699 C 164.554 -0.586793 -1.49711 0
M  V30 1700 O 165.744 -0.854276 -1.51815 0
M  V30 1701 C 162.876 -1.76889 -2.91416 0
M  V30 1702 H 164.069 -2.67754 -1.35084 0
M  V30 1703 H 161.622 -1.41196 -0.670333 0
M  V30 1704 H 162.357 -0.826026 -3.13604 0
M  V30 1705 H 162.142 -2.59001 -2.94382 0
M  V30 1706 H 163.632 -1.94522 -3.69528 0
M  V30 1707 N 164.069 0.697108 -1.41344 0
M  V30 1708 C 165.016 1.81106 -1.43071 0
M  V30 1709 C 165.986 1.63632 -0.285275 0
M  V30 1710 O 167.171 1.84504 -0.486091 0
M  V30 1711 C 164.311 3.18975 -1.31715 0
M  V30 1712 C 163.424 3.47892 -2.56115 0
M  V30 1713 C 162.559 4.75367 -2.37064 0
M  V30 1714 C 161.598 4.97247 -3.56948 0
M  V30 1715 N 160.735 6.15947 -3.36977 0
M  V30 1716 H 165.575 1.78965 -2.38276 0
M  V30 1717 H 163.112 0.873975 -1.18322 0
M  V30 1718 H 165.07 3.98615 -1.23133 0
M  V30 1719 H 163.7 3.20297 -0.401183 0
M  V30 1720 H 162.752 2.62669 -2.75153 0
M  V30 1721 H 164.064 3.59962 -3.45295 0
M  V30 1722 H 163.218 5.63059 -2.25941 0
M  V30 1723 H 161.957 4.65541 -1.45338 0
M  V30 1724 H 160.962 4.08004 -3.68527 0
M  V30 1725 H 162.187 5.08934 -4.49626 0
M  V30 1726 H 160.133 6.07336 -2.47949 0
M  V30 1727 H 160.05 6.28777 -4.19732 0
M  V30 1728 H 161.318 7.06377 -3.29623 0
M  V30 1729 N 165.547 1.27147 0.931209 0
M  V30 1730 C 166.795 1.13055 1.6752 0
M  V30 1731 C 167.116 -0.324791 1.92276 0
M  V30 1732 O 166.386 -1.22775 1.52654 0
M  V30 1733 H 164.966 0.415391 0.620854 0
M  V30 1734 H 167.628 1.59623 1.11833 0
M  V30 1735 H 166.724 1.65694 2.64485 0
M  V30 1736 N 167.025 -1.13721 1.09112 0
M  V30 1737 C 167.955 -2.21148 0.749385 0
M  V30 1738 C 168.936 -1.6792 -0.271475 0
M  V30 1739 O 170.121 -1.93693 -0.140251 0
M  V30 1740 C 167.251 -3.46905 0.165659 0
M  V30 1741 C 166.205 -4.13203 1.11567 0
M  V30 1742 C 165.531 -5.33248 0.393809 0
M  V30 1743 C 166.831 -4.60912 2.45678 0
M  V30 1744 H 168.525 -2.4999 1.64758 0
M  V30 1745 H 166.071 -1.20156 0.793626 0
M  V30 1746 H 168.024 -4.21313 -0.085466 0
M  V30 1747 H 166.748 -3.17449 -0.767714 0
M  V30 1748 H 165.407 -3.40758 1.35202 0
M  V30 1749 H 165.055 -5.00054 -0.543599 0
M  V30 1750 H 164.755 -5.78552 1.02721 0
M  V30 1751 H 166.279 -6.10413 0.150908 0
M  V30 1752 H 167.693 -5.26759 2.26269 0
M  V30 1753 H 166.09 -5.16944 3.04776 0
M  V30 1754 H 167.16 -3.75603 3.06677 0
M  V30 1755 N 168.503 -0.877838 -1.30888 0
M  V30 1756 C 169.45 -0.337538 -2.28318 0
M  V30 1757 C 170.42 0.568346 -1.56074 0
M  V30 1758 O 171.605 0.498298 -1.84178 0
M  V30 1759 C 168.745 0.448142 -3.42178 0
M  V30 1760 C 167.858 -0.48615 -4.29256 0
M  V30 1761 C 166.993 0.314427 -5.30269 0
M  V30 1762 C 166.032 -0.615791 -6.08995 0
M  V30 1763 N 165.169 0.14902 -7.01942 0
M  V30 1764 H 170.009 -1.17356 -2.73919 0
M  V30 1765 H 167.546 -0.590094 -1.34745 0
M  V30 1766 H 169.504 0.919517 -4.06941 0
M  V30 1767 H 168.134 1.24879 -2.97666 0
M  V30 1768 H 167.186 -1.076 -3.64865 0
M  V30 1769 H 168.498 -1.19909 -4.84173 0
M  V30 1770 H 167.652 0.847969 -6.00745 0
M  V30 1771 H 166.391 1.06062 -4.76027 0
M  V30 1772 H 165.396 -1.16102 -5.37401 0
M  V30 1773 H 166.621 -1.36097 -6.65323 0
M  V30 1774 H 164.567 0.877884 -6.50099 0
M  V30 1775 H 164.484 -0.504433 -7.54315 0
M  V30 1776 H 165.752 0.663537 -7.76671 0
M  V30 1777 N 169.982 1.44106 -0.638065 0
M  V30 1778 C 170.945 2.29138 0.0531013 0
M  V30 1779 C 171.945 1.41409 0.765506 0
M  V30 1780 O 173.135 1.63206 0.609046 0
M  V30 1781 C 170.267 3.23144 1.08584 0
M  V30 1782 H 171.46 2.91739 -0.694883 0
M  V30 1783 H 169.013 1.51134 -0.398538 0
M  V30 1784 H 169.748 2.65408 1.86357 0
M  V30 1785 H 169.533 3.87804 0.578852 0
M  V30 1786 H 171.023 3.87004 1.56899 0
M  V30 1787 N 171.46 0.379036 1.52974 0
M  V30 1788 C 172.707 -0.206421 2.01445 0
M  V30 1789 C 173.035 -1.47668 1.26587 0
M  V30 1790 O 172.29 -1.92514 0.351675 0
M  V30 1791 C 172.589 -0.53096 3.53434 0
M  V30 1792 C 172.255 0.646546 4.46241 0
M  V30 1793 C 170.917 0.969604 4.7133 0
M  V30 1794 C 173.269 1.43479 5.01062 0
M  V30 1795 C 170.597 2.08263 5.48492 0
M  V30 1796 C 172.949 2.53834 5.7944 0
M  V30 1797 C 171.613 2.86659 6.02812 0
M  V30 1798 H 170.883 -0.0755349 0.73714 0
M  V30 1799 H 173.53 0.514271 1.84465 0
M  V30 1800 H 171.835 -1.33285 3.68432 0
M  V30 1801 H 173.532 -0.996417 3.88423 0
M  V30 1802 H 170.122 0.384734 4.2687 0
M  V30 1803 H 174.306 1.19844 4.81613 0
M  V30 1804 H 169.562 2.34078 5.64816 0
M  V30 1805 H 173.736 3.15319 6.20924 0
M  V30 1806 H 171.363 3.73026 6.62387 0
M  V30 1807 N 172.938 -1.57226 0.108567 0
M  V30 1808 C 174.168 -1.9889 -0.559142 0
M  V30 1809 C 174.576 -0.986889 -1.61422 0
M  V30 1810 O 173.919 0.0298705 -1.83676 0
M  V30 1811 C 173.981 -3.36952 -1.25315 0
M  V30 1812 C 173.645 -4.55679 -0.347248 0
M  V30 1813 C 174.642 -5.18281 0.409996 0
M  V30 1814 C 172.327 -5.0162 -0.261367 0
M  V30 1815 C 174.321 -6.25203 1.24096 0
M  V30 1816 C 172.008 -6.08405 0.573238 0
M  V30 1817 C 173.006 -6.70063 1.32304 0
M  V30 1818 O 172.694 -7.74788 2.14381 0
M  V30 1819 H 172.426 -0.658343 -0.153492 0
M  V30 1820 H 174.98 -2.04532 0.188584 0
M  V30 1821 H 173.21 -3.28032 -2.04773 0
M  V30 1822 H 174.899 -3.62974 -1.81673 0
M  V30 1823 H 175.665 -4.8371 0.353457 0
M  V30 1824 H 171.544 -4.53381 -0.834656 0
M  V30 1825 H 175.088 -6.73259 1.82669 0
M  V30 1826 H 170.985 -6.42406 0.631208 0
M  V30 1827 H 171.753 -7.91837 2.07209 0
M  V30 1828 N 174.416 0.165178 -1.56732 0
M  V30 1829 C 175.693 0.908443 -1.73224 0
M  V30 1830 C 176.073 2.0013 -0.67165 0
M  V30 1831 O 175.421 2.26353 0.31253 0
M  V30 1832 C 175.631 1.46756 -3.16644 0
M  V30 1833 C 176.979 1.93809 -3.77787 0
M  V30 1834 O 178.003 1.56537 -3.1996 0
M  V30 1835 O 176.862 2.62486 -4.79336 0
M  V30 1836 H 173.956 0.428025 -0.707618 0
M  V30 1837 H 176.502 0.152526 -1.69013 0
M  V30 1838 H 175.274 0.68129 -3.85323 0
M  V30 1839 H 174.897 2.28749 -3.25207 0
M  V30 1840 N 175.894 1.51508 0.433938 0
M  V30 1841 C 176.857 1.72473 1.50949 0
M  V30 1842 C 177.857 0.594725 1.49398 0
M  V30 1843 O 179.047 0.862315 1.5136 0
M  V30 1844 C 176.179 1.78431 2.90474 0
M  V30 1845 H 177.372 2.68467 1.33662 0
M  V30 1846 H 174.925 1.41549 0.662836 0
M  V30 1847 H 175.66 0.842645 3.13161 0
M  V30 1848 H 175.445 2.60558 2.93005 0
M  V30 1849 H 176.935 1.96479 3.68491 0
M  V30 1850 N 177.372 -0.689602 1.41712 0
M  V30 1851 C 178.621 -1.44534 1.40686 0
M  V30 1852 C 178.934 -1.95588 0.0213352 0
M  V30 1853 O 180.14 -2.71271 -0.111534 0
M  V30 1854 C 178.596 -2.61387 2.47396 0
M  V30 1855 C 178.204 -2.17094 3.91885 0
M  V30 1856 C 179.948 -3.38986 2.55517 0
M  V30 1857 C 177.855 -3.3094 4.90135 0
M  V30 1858 H 176.785 -0.542925 0.52321 0
M  V30 1859 H 179.436 -0.748054 1.6756 0
M  V30 1860 H 177.818 -3.33412 2.13664 0
M  V30 1861 H 178.992 -1.52318 4.34897 0
M  V30 1862 H 177.307 -1.52473 3.8748 0
M  V30 1863 H 179.904 -4.23747 3.26102 0
M  V30 1864 H 180.247 -3.84578 1.59391 0
M  V30 1865 H 180.78 -2.74021 2.8837 0
M  V30 1866 H 177.519 -2.90355 5.87685 0
M  V30 1867 H 177.039 -3.94546 4.51767 0
M  V30 1868 H 178.718 -3.9663 5.11169 0
M  V30 1869 N 178.85 -1.27639 -0.924453 0
M  V30 1870 C 179.797 -1.10644 -2.0255 0
M  V30 1871 C 180.767 -0.00658438 -1.66099 0
M  V30 1872 O 181.952 -0.16952 -1.90045 0
M  V30 1873 C 179.092 -0.76309 -3.36557 0
M  V30 1874 C 178.205 -1.94091 -3.85944 0
M  V30 1875 C 177.34 -1.53914 -5.08413 0
M  V30 1876 C 176.379 -2.68425 -5.50104 0
M  V30 1877 N 175.516 -2.28815 -6.63768 0
M  V30 1878 H 180.356 -2.04858 -2.16419 0
M  V30 1879 H 177.893 -1.01974 -1.06017 0
M  V30 1880 H 179.851 -0.544822 -4.13627 0
M  V30 1881 H 178.481 0.142102 -3.22487 0
M  V30 1882 H 177.533 -2.27162 -3.05125 0
M  V30 1883 H 178.845 -2.7998 -4.12811 0
M  V30 1884 H 177.999 -1.28231 -5.92994 0
M  V30 1885 H 176.738 -0.651391 -4.8333 0
M  V30 1886 H 175.743 -2.94819 -4.64071 0
M  V30 1887 H 176.968 -3.57826 -5.7718 0
M  V30 1888 H 174.914 -1.42495 -6.40337 0
M  V30 1889 H 174.831 -3.08242 -6.90306 0
M  V30 1890 H 176.099 -2.06387 -7.51681 0
M  V30 1891 N 180.328 1.1314 -1.09713 0
M  V30 1892 C 181.558 1.88048 -0.855656 0
M  V30 1893 C 181.966 1.79537 0.596919 0
M  V30 1894 O 181.309 1.16196 1.42282 0
M  V30 1895 C 181.371 3.38314 -1.21589 0
M  V30 1896 C 181.035 3.70605 -2.67397 0
M  V30 1897 C 182.032 3.69596 -3.65643 0
M  V30 1898 C 179.717 4.0017 -3.03593 0
M  V30 1899 C 181.711 3.977 -4.9811 0
M  V30 1900 C 179.398 4.27935 -4.36251 0
M  V30 1901 C 180.396 4.26685 -5.33318 0
M  V30 1902 O 180.084 4.53767 -6.63589 0
M  V30 1903 H 179.816 0.60208 -0.307368 0
M  V30 1904 H 182.37 1.44128 -1.46343 0
M  V30 1905 H 180.6 3.82752 -0.551177 0
M  V30 1906 H 182.289 3.94552 -0.953083 0
M  V30 1907 H 183.055 3.46826 -3.39023 0
M  V30 1908 H 178.934 4.00289 -2.2867 0
M  V30 1909 H 182.478 3.9664 -5.73866 0
M  V30 1910 H 178.375 4.50178 -4.62613 0
M  V30 1911 H 179.143 4.71422 -6.69107 0
M  V30 1912 N 181.806 0.884767 1.30421 0
M  V30 1913 C 183.054 0.502112 1.95763 0
M  V30 1914 C 183.375 -0.951815 1.70192 0
M  V30 1915 O 182.645 -1.6692 1.0254 0
M  V30 1916 H 181.225 0.182694 0.724315 0
M  V30 1917 H 183.887 1.1278 1.58955 0
M  V30 1918 H 182.983 0.672188 3.04775 0
M  V30 1919 N 183.284 -1.43765 0.645699 0
M  V30 1920 C 184.695 -1.85193 0.236719 0
M  V30 1921 C 185.046 -1.54045 -1.21509 0
M  V30 1922 O 184.171 -0.985694 -1.92647 0
M  V30 1923 C 184.766 -3.36151 0.422845 0
M  V30 1924 C 183.325 -3.76338 0.0682492 0
M  V30 1925 C 182.472 -2.67538 0.729306 0
M  V30 1926 H 185.423 -1.34025 0.849883 0
M  V30 1927 H 185.444 -3.79032 -0.333904 0
M  V30 1928 H 184.956 -3.5879 1.47958 0
M  V30 1929 H 183.057 -3.59312 -0.986179 0
M  V30 1930 H 183.17 -4.76603 0.488469 0
M  V30 1931 H 181.534 -2.54176 0.163235 0
M  V30 1932 H 182.317 -2.93006 1.78892 0
M  V30 1933 N 184.763 -0.387143 -1.52771 0
M  V30 1934 C 185.711 0.463953 -2.27926 0
M  V30 1935 C 186.705 1.06493 -1.31741 0
M  V30 1936 O 187.911 1.00565 -1.49287 0
M  V30 1937 H 184.286 0.16837 -0.732909 0
M  V30 1938 H 186.257 -0.19141 -2.97785 0
M  V30 1939 C 185.006 1.5803 -3.09713 0
M  V30 1940 H 184.329 1.12718 -3.83581 0
M  V30 1941 H 185.769 2.15008 -3.65442 0
M  V30 1942 C 184.228 2.53509 -2.2189 0
M  V30 1943 O 184.758 3.56863 -1.84422 0
M  V30 1944 N 182.964 2.23199 -1.86093 0
M  V30 1945 H 182.511 1.39185 -2.16761 0
M  V30 1946 H 182.469 2.87333 -1.27621 0
M  V30 1947 N 186.241 1.57166 -0.116904 0
M  V30 1948 C 187.191 2.11756 0.845178 0
M  V30 1949 C 188.175 1.03783 1.22955 0
M  V30 1950 O 189.367 1.3002 1.20099 0
M  V30 1951 C 186.496 2.71886 2.09602 0
M  V30 1952 C 185.582 3.86937 1.7361 0
M  V30 1953 N 185.973 4.94073 1.08284 0
M  V30 1954 C 184.271 3.97082 2.03082 0
M  V30 1955 C 184.972 5.74477 0.913855 0
M  V30 1956 N 183.948 5.2423 1.43818 0
M  V30 1957 H 187.75 2.91967 0.336523 0
M  V30 1958 H 185.264 1.62174 0.0856332 0
M  V30 1959 H 187.261 3.09338 2.79492 0
M  V30 1960 H 185.921 1.93138 2.61013 0
M  V30 1961 H 186.932 5.12483 0.747067 0
M  V30 1962 H 183.609 3.29372 2.56554 0
M  V30 1963 H 184.999 6.70701 0.40125 0
M  V30 1964 N 187.719 -0.156864 1.56817 0
M  V30 1965 C 188.649 -1.19589 2.00551 0
M  V30 1966 C 189.63 -1.4536 0.883426 0
M  V30 1967 O 190.815 -1.56449 1.15054 0
M  V30 1968 C 187.945 -2.53143 2.37773 0
M  V30 1969 C 186.899 -2.41913 3.53075 0
M  V30 1970 C 186.225 -3.80088 3.76081 0
M  V30 1971 C 187.525 -1.91157 4.86062 0
M  V30 1972 H 189.219 -0.832293 2.87599 0
M  V30 1973 H 186.765 -0.398918 1.38364 0
M  V30 1974 H 188.718 -3.26047 2.66967 0
M  V30 1975 H 187.442 -2.91319 1.4765 0
M  V30 1976 H 186.101 -1.71462 3.24031 0
M  V30 1977 H 185.749 -4.15683 2.83225 0
M  V30 1978 H 185.449 -3.73439 4.53671 0
M  V30 1979 H 186.973 -4.54556 4.0769 0
M  V30 1980 H 188.387 -2.53846 5.14038 0
M  V30 1981 H 186.784 -1.95422 5.67389 0
M  V30 1982 H 187.854 -0.866673 4.77092 0
M  V30 1983 N 189.197 -1.51736 -0.425897 0
M  V30 1984 C 190.13 -1.68574 -1.53812 0
M  V30 1985 C 191.108 -0.53328 -1.53606 0
M  V30 1986 O 192.292 -0.758555 -1.72564 0
M  V30 1987 C 189.419 -1.70977 -2.92377 0
M  V30 1988 C 188.465 -2.92324 -3.10563 0
M  V30 1989 S 189.298 -4.52952 -2.85648 0
M  V30 1990 C 190.454 -4.58117 -4.26474 0
M  V30 1991 H 190.687 -2.62647 -1.39298 0
M  V30 1992 H 188.22 -1.41564 -0.616361 0
M  V30 1993 H 190.178 -1.73047 -3.72243 0
M  V30 1994 H 188.839 -0.78061 -3.04245 0
M  V30 1995 H 188.032 -2.90439 -4.11899 0
M  V30 1996 H 187.634 -2.88055 -2.38538 0
M  V30 1997 H 189.926 -4.34462 -5.19855 0
M  V30 1998 H 190.869 -5.59983 -4.33388 0
M  V30 1999 H 191.277 -3.8732 -4.10662 0
M  V30 2000 N 190.675 0.682077 -1.42076 0
M  V30 2001 C 191.921 1.44428 -1.42367 0
M  V30 2002 C 192.254 1.94164 -0.0373056 0
M  V30 2003 O 191.529 1.70429 0.937239 0
M  V30 2004 C 191.812 2.64654 -2.44194 0
M  V30 2005 C 191.665 2.20596 -3.91991 0
M  V30 2006 C 192.984 3.66865 -2.431 0
M  V30 2007 H 190.103 0.523834 -0.518428 0
M  V30 2008 H 192.745 0.77576 -1.73442 0
M  V30 2009 H 190.895 3.2169 -2.17826 0
M  V30 2010 H 192.567 1.68783 -4.29313 0
M  V30 2011 H 190.81 1.52242 -4.06208 0
M  V30 2012 H 191.481 3.06921 -4.58807 0
M  V30 2013 H 193.957 3.19531 -2.66532 0
M  V30 2014 H 192.833 4.48577 -3.16339 0
M  V30 2015 H 193.094 4.17493 -1.45437 0
M  V30 2016 N 192.153 1.28127 0.917671 0
M  V30 2017 C 193.4 1.15052 1.66641 0
M  V30 2018 C 193.728 -0.301677 1.92146 0
M  V30 2019 O 192.983 -1.23622 1.51711 0
M  V30 2020 C 193.282 1.89018 3.03327 0
M  V30 2021 C 192.948 3.38832 2.97496 0
M  V30 2022 C 191.61 3.79693 2.95613 0
M  V30 2023 C 193.962 4.34378 2.88036 0
M  V30 2024 C 191.29 5.14447 2.82066 0
M  V30 2025 C 193.642 5.69201 2.7603 0
M  V30 2026 C 192.306 6.09343 2.72502 0
M  V30 2027 H 191.576 0.421006 0.609783 0
M  V30 2028 H 194.223 1.58855 1.06945 0
M  V30 2029 H 192.528 1.37752 3.66785 0
M  V30 2030 H 194.225 1.76321 3.60156 0
M  V30 2031 H 190.815 3.06342 2.99754 0
M  V30 2032 H 194.999 4.03775 2.88581 0
M  V30 2033 H 190.255 5.44681 2.77728 0
M  V30 2034 H 194.429 6.42901 2.67678 0
M  V30 2035 H 192.056 7.13712 2.61762 0
M  V30 2036 N 193.631 -1.12557 1.10312 0
M  V30 2037 C 194.879 -1.83675 0.843091 0
M  V30 2038 C 195.2 -1.84435 -0.633131 0
M  V30 2039 O 194.47 -1.30657 -1.45964 0
M  V30 2040 H 193.05 -0.680138 0.308904 0
M  V30 2041 H 195.712 -1.36301 1.39313 0
M  V30 2042 H 194.808 -2.87908 1.2048 0
M  V30 2043 N 195.109 -0.891671 -1.2995 0
M  V30 2044 C 196.357 -0.512486 -1.95494 0
M  V30 2045 C 196.678 0.942776 -1.70695 0
M  V30 2046 O 195.948 1.66374 -1.03424 0
M  V30 2047 H 194.528 -0.186533 -0.723336 0
M  V30 2048 H 197.19 -1.13621 -1.58355 0
M  V30 2049 H 196.286 -0.688342 -3.04415 0
M  V30 2050 N 196.587 1.43421 -0.653314 0
M  V30 2051 C 197.833 2.02111 -0.166992 0
M  V30 2052 C 198.166 1.51423 1.21592 0
M  V30 2053 O 197.441 0.707389 1.8118 0
M  V30 2054 C 197.724 3.5966 -0.177948 0
M  V30 2055 C 197.577 4.20579 -1.59478 0
M  V30 2056 C 198.896 4.37413 0.4856 0
M  V30 2057 H 196.015 0.734374 -0.0621557 0
M  V30 2058 H 198.657 1.70717 -0.834016 0
M  V30 2059 H 196.807 3.86537 0.390032 0
M  V30 2060 H 198.479 4.04732 -2.21336 0
M  V30 2061 H 196.722 3.77226 -2.14204 0
M  V30 2062 H 197.393 5.29665 -1.5543 0
M  V30 2063 H 199.869 4.161 0.00234528 0
M  V30 2064 H 198.745 5.47075 0.447207 0
M  V30 2065 H 199.006 4.13672 1.55974 0
M  V30 2066 N 198.065 0.39524 1.52563 0
M  V30 2067 C 199.305 -0.184744 2.03563 0
M  V30 2068 C 199.669 -1.43548 1.27507 0
M  V30 2069 O 200.87 -2.093 1.68662 0
M  V30 2070 C 199.141 -0.440294 3.54678 0
M  V30 2071 S 200.7 -0.989712 4.27493 0
M  V30 2072 H 197.518 -0.0515075 0.709132 0
M  V30 2073 H 200.12 0.544957 1.87751 0
M  V30 2074 H 198.824 0.477005 4.07618 0
M  V30 2075 H 198.355 -1.19825 3.74707 0
M  V30 2076 H 200.37 -2.27155 4.41152 0
M  V30 2077 N 199.544 -1.57102 0.125237 0
M  V30 2078 C 200.955 -1.82384 -0.399142 0
M  V30 2079 C 201.306 -1.04276 -1.66195 0
M  V30 2080 O 200.431 -0.281269 -2.14564 0
M  V30 2081 C 201.026 -3.30821 -0.730932 0
M  V30 2082 C 199.585 -3.56762 -1.19992 0
M  V30 2083 C 198.732 -2.7649 -0.211792 0
M  V30 2084 H 201.683 -1.54786 0.350277 0
M  V30 2085 H 201.704 -3.4579 -1.58775 0
M  V30 2086 H 201.216 -3.87643 0.188345 0
M  V30 2087 H 199.317 -3.05305 -2.13588 0
M  V30 2088 H 199.43 -4.65317 -1.14093 0
M  V30 2089 H 197.794 -2.4489 -0.700085 0
M  V30 2090 H 198.577 -3.36073 0.700691 0
M  V30 2091 N 201.022 0.148545 -1.56898 0
M  V30 2092 C 202.247 0.880385 -1.87787 0
M  V30 2093 C 202.672 1.74018 -0.714093 0
M  V30 2094 O 202.03 1.78153 0.336343 0
M  V30 2095 C 202.078 1.71422 -3.17249 0
M  V30 2096 O 201.182 2.8183 -3.01074 0
M  V30 2097 H 200.523 0.245301 -0.617028 0
M  V30 2098 H 203.053 0.139826 -2.04122 0
M  V30 2099 H 203.063 2.10954 -3.49231 0
M  V30 2100 H 201.738 1.08284 -4.01556 0
M  V30 2101 H 200.315 2.45715 -2.80497 0
M  V30 2102 N 202.5 1.5196 0.417844 0
M  V30 2103 C 203.746 1.65836 1.16732 0
M  V30 2104 C 204.079 0.382881 1.90388 0
M  V30 2105 O 203.354 -0.618368 1.84408 0
M  V30 2106 C 203.637 2.87466 2.16876 0
M  V30 2107 C 203.49 4.25041 1.47174 0
M  V30 2108 C 204.809 3.04613 3.17646 0
M  V30 2109 H 201.928 0.603515 0.423011 0
M  V30 2110 H 204.57 1.84494 0.454105 0
M  V30 2111 H 202.72 2.71689 2.777 0
M  V30 2112 H 204.392 4.52527 0.895376 0
M  V30 2113 H 202.635 4.26843 0.773806 0
M  V30 2114 H 203.306 5.06176 2.20204 0
M  V30 2115 H 205.782 3.1923 2.66892 0
M  V30 2116 H 204.658 3.91247 3.8499 0
M  V30 2117 H 204.919 2.17541 3.84874 0
M  V30 2118 N 203.978 -0.674533 1.42435 0
M  V30 2119 C 205.206 -1.46283 1.46317 0
M  V30 2120 C 205.621 -1.88653 0.0745836 0
M  V30 2121 O 204.978 -1.58151 -0.91074 0
M  V30 2122 C 205.029 -2.71178 2.3905 0
M  V30 2123 O 204.75 -2.30586 3.72507 0
M  V30 2124 C 206.251 -3.64738 2.51955 0
M  V30 2125 H 203.471 -0.450104 0.497642 0
M  V30 2126 H 206.015 -0.828792 1.86953 0
M  V30 2127 H 204.17 -3.3077 2.01667 0
M  V30 2128 H 204.584 -3.11241 4.22172 0
M  V30 2129 H 206.058 -4.49096 3.20962 0
M  V30 2130 H 206.535 -4.10656 1.55752 0
M  V30 2131 H 207.141 -3.11038 2.90061 0
M  V30 2132 N 205.456 -1.28612 -0.910864 0
M  V30 2133 C 206.681 -1.1891 -1.69927 0
M  V30 2134 C 207.106 0.248372 -1.86453 0
M  V30 2135 O 206.464 1.17961 -1.37676 0
M  V30 2136 C 206.512 -1.89578 -3.06745 0
M  V30 2137 O 205.616 -1.20521 -3.94396 0
M  V30 2138 H 204.957 -0.412632 -0.520222 0
M  V30 2139 H 207.487 -1.69985 -1.1387 0
M  V30 2140 H 207.497 -1.97597 -3.56958 0
M  V30 2141 H 206.172 -2.94136 -2.94035 0
M  V30 2142 H 204.749 -1.20684 -3.52831 0
M  V30 2143 N 206.934 1.1197 -1.10907 0
M  V30 2144 C 208.183 1.82947 -0.849302 0
M  V30 2145 C 208.496 1.85275 0.627112 0
M  V30 2146 O 209.702 2.52296 1.00295 0
M  V30 2147 C 208.158 3.28529 -1.46959 0
M  V30 2148 C 207.766 3.34546 -2.97965 0
M  V30 2149 C 209.51 4.04443 -1.28942 0
M  V30 2150 C 207.417 4.74491 -3.53004 0
M  V30 2151 H 206.347 0.685477 -0.314065 0
M  V30 2152 H 208.998 1.2604 -1.33365 0
M  V30 2153 H 207.38 3.85333 -0.912917 0
M  V30 2154 H 208.554 2.87654 -3.59989 0
M  V30 2155 H 206.869 2.72108 -3.15192 0
M  V30 2156 H 209.466 5.07787 -1.67502 0
M  V30 2157 H 209.809 4.15656 -0.231456 0
M  V30 2158 H 210.342 3.5401 -1.81443 0
M  V30 2159 H 207.081 4.68474 -4.58489 0
M  V30 2160 H 206.601 5.21816 -2.9575 0
M  V30 2161 H 208.28 5.4344 -3.51115 0
M  V30 2162 N 208.412 0.89855 1.29475 0
M  V30 2163 C 209.661 0.519863 1.94885 0
M  V30 2164 C 209.974 -0.9383 1.71625 0
M  V30 2165 O 211.18 -1.42445 2.31131 0
M  V30 2166 C 209.636 0.878836 3.49005 0
M  V30 2167 C 209.244 2.35569 3.81066 0
M  V30 2168 C 210.988 0.570004 4.20656 0
M  V30 2169 C 208.895 2.65558 5.28425 0
M  V30 2170 H 207.825 0.190692 0.729488 0
M  V30 2171 H 210.476 1.09539 1.47219 0
M  V30 2172 H 208.858 0.232253 3.95318 0
M  V30 2173 H 210.032 3.04773 3.45616 0
M  V30 2174 H 208.347 2.63343 3.22552 0
M  V30 2175 H 210.944 0.770925 5.29113 0
M  V30 2176 H 211.287 -0.491404 4.1339 0
M  V30 2177 H 211.82 1.17438 3.8007 0
M  V30 2178 H 208.559 3.70493 5.40754 0
M  V30 2179 H 208.079 2.00977 5.65127 0
M  V30 2180 H 209.758 2.51765 5.96006 0
M  V30 2181 N 209.89 -1.43072 0.660911 0
M  V30 2182 C 210.853 -2.29194 -0.0166406 0
M  V30 2183 C 211.853 -1.42609 -0.742912 0
M  V30 2184 O 213.043 -1.64155 -0.583004 0
M  V30 2185 C 210.175 -3.24831 -1.0343 0
M  V30 2186 H 211.368 -2.90596 0.741208 0
M  V30 2187 H 208.921 -1.5048 0.422532 0
M  V30 2188 H 209.656 -2.68339 -1.82111 0
M  V30 2189 H 209.441 -3.88676 -0.517082 0
M  V30 2190 H 210.931 -3.89451 -1.50723 0
M  V30 2191 N 211.368 -0.403325 -1.52352 0
M  V30 2192 C 212.278 0.432009 -2.30588 0
M  V30 2193 C 213.294 1.05884 -1.38075 0
M  V30 2194 O 214.47 1.06161 -1.71148 0
M  V30 2195 C 211.535 1.53669 -3.10784 0
M  V30 2196 C 210.596 0.933525 -4.19027 0
M  V30 2197 C 209.829 1.98557 -4.9539 0
M  V30 2198 O 210.052 3.20283 -4.71991 0
M  V30 2199 O 208.986 1.59504 -5.80381 0
M  V30 2200 H 212.812 -0.205739 -3.03002 0
M  V30 2201 H 210.397 -0.166675 -1.48467 0
M  V30 2202 H 212.279 2.17814 -3.60742 0
M  V30 2203 H 210.954 2.15915 -2.41169 0
M  V30 2204 H 209.861 0.254954 -3.7323 0
M  V30 2205 H 211.194 0.35508 -4.90918 0
M  V30 2206 N 212.846 1.57033 -0.133567 0
M  V30 2207 C 214.071 2.00475 0.531477 0
M  V30 2208 C 214.496 1.01291 1.58499 0
M  V30 2209 O 213.854 -0.0133279 1.81295 0
M  V30 2210 C 213.902 3.42729 1.12113 0
M  V30 2211 O 213.006 3.46498 2.23636 0
M  V30 2212 H 212.347 0.650876 0.131362 0
M  V30 2213 H 214.877 2.03344 -0.22634 0
M  V30 2214 H 214.887 3.81246 1.4531 0
M  V30 2215 H 213.562 4.14428 0.349557 0
M  V30 2216 H 212.139 3.19811 1.91769 0
M  V30 2217 N 214.325 -0.140222 1.56975 0
M  V30 2218 C 215.255 -1.17456 2.01808 0
M  V30 2219 C 216.236 -1.44415 0.898794 0
M  V30 2220 O 217.421 -1.5522 1.16707 0
M  V30 2221 C 214.551 -2.50607 2.40444 0
M  V30 2222 C 213.505 -2.38155 3.55621 0
M  V30 2223 C 212.831 -3.76078 3.80091 0
M  V30 2224 C 214.131 -1.85991 4.88062 0
M  V30 2225 H 215.825 -0.801743 2.88466 0
M  V30 2226 H 213.371 -0.38422 1.38779 0
M  V30 2227 H 215.324 -3.23197 2.7041 0
M  V30 2228 H 214.048 -2.89737 1.50732 0
M  V30 2229 H 212.707 -1.68016 3.25832 0
M  V30 2230 H 212.355 -4.12656 2.87618 0
M  V30 2231 H 212.055 -3.68606 4.57606 0
M  V30 2232 H 213.579 -4.50206 4.12488 0
M  V30 2233 H 214.993 -2.4838 5.16701 0
M  V30 2234 H 213.39 -1.89393 5.6943 0
M  V30 2235 H 214.46 -0.816023 4.77984 0
M  V30 2236 N 215.803 -1.52179 -0.40978 0
M  V30 2237 C 216.735 -1.71703 -1.51825 0
M  V30 2238 C 217.748 -0.597445 -1.51441 0
M  V30 2239 O 218.937 -0.872582 -1.55719 0
M  V30 2240 C 216.037 -1.74171 -2.90719 0
M  V30 2241 C 215.21 -3.03156 -3.15302 0
M  V30 2242 C 214.269 -2.97445 -4.34065 0
M  V30 2243 O 213.295 -3.71352 -4.31377 0
M  V30 2244 N 214.497 -2.15191 -5.39141 0
M  V30 2245 H 217.262 -2.67334 -1.35472 0
M  V30 2246 H 214.823 -1.50409 -0.599069 0
M  V30 2247 H 216.815 -1.67884 -3.68235 0
M  V30 2248 H 215.385 -0.860166 -3.00533 0
M  V30 2249 H 214.605 -3.23097 -2.25836 0
M  V30 2250 H 215.893 -3.88484 -3.28569 0
M  V30 2251 H 215.291 -1.54573 -5.44173 0
M  V30 2252 H 213.848 -2.1476 -6.15403 0
M  V30 2253 N 217.281 0.66697 -1.42791 0
M  V30 2254 C 218.529 1.42417 -1.43394 0
M  V30 2255 C 218.85 1.94925 -0.0542373 0
M  V30 2256 O 218.12 1.73564 0.908415 0
M  V30 2257 H 216.7 0.528515 -0.527902 0
M  V30 2258 H 219.362 0.787562 -1.78279 0
M  V30 2259 H 218.458 2.27333 -2.13837 0
M  V30 2260 N 218.759 1.29093 0.90403 0
M  V30 2261 C 220.005 1.17996 1.65676 0
M  V30 2262 C 220.36 -0.266816 1.90541 0
M  V30 2263 O 219.653 -1.19 1.50165 0
M  V30 2264 C 219.847 1.92224 3.01305 0
M  V30 2265 C 219.676 3.43972 2.89678 0
M  V30 2266 C 218.446 4.1332 2.90679 0
M  V30 2267 C 220.644 4.39546 2.67028 0
M  V30 2268 N 218.626 5.51463 2.69743 0
M  V30 2269 C 219.997 5.65119 2.5503 0
M  V30 2270 C 222.052 4.29359 2.52101 0
M  V30 2271 C 220.755 6.81663 2.29626 0
M  V30 2272 C 222.781 5.4565 2.28079 0
M  V30 2273 C 222.143 6.70193 2.16843 0
M  V30 2274 H 218.242 0.486759 0.612037 0
M  V30 2275 H 220.826 1.62868 1.06688 0
M  V30 2276 H 218.997 1.49773 3.58361 0
M  V30 2277 H 220.729 1.73429 3.65656 0
M  V30 2278 H 217.484 3.64984 3.01801 0
M  V30 2279 H 217.908 6.24105 2.6234 0
M  V30 2280 H 222.55 3.33769 2.59534 0
M  V30 2281 H 220.268 7.77313 2.20932 0
M  V30 2282 H 223.854 5.39664 2.1738 0
M  V30 2283 H 222.734 7.58659 1.98511 0
M  V30 2284 N 220.237 -1.11381 1.11499 0
M  V30 2285 C 221.185 -2.19522 0.768956 0
M  V30 2286 C 222.179 -1.67693 -0.239857 0
M  V30 2287 O 223.385 -1.79727 -0.0990755 0
M  V30 2288 H 219.76 -0.715711 0.230786 0
M  V30 2289 H 221.731 -2.45954 1.68964 0
M  V30 2290 C 220.48 -3.46945 0.229073 0
M  V30 2291 H 219.803 -3.8718 0.996596 0
M  V30 2292 H 221.243 -4.23993 0.0251441 0
M  V30 2293 C 219.702 -3.2042 -1.04079 0
M  V30 2294 O 220.232 -3.41178 -2.12038 0
M  V30 2295 N 218.438 -2.74151 -0.963823 0
M  V30 2296 H 217.985 -2.57459 -0.0851722 0
M  V30 2297 H 217.943 -2.56781 -1.81414 0
M  V30 2298 N 221.715 -0.905404 -1.28997 0
M  V30 2299 C 222.645 -0.404212 -2.29975 0
M  V30 2300 C 223.626 0.523784 -1.61835 0
M  V30 2301 O 224.811 0.433298 -1.89304 0
M  V30 2302 C 221.941 0.364042 -3.45387 0
M  V30 2303 C 220.895 -0.474048 -4.25367 0
M  V30 2304 C 220.221 0.422045 -5.33032 0
M  V30 2305 C 221.521 -1.72696 -4.92923 0
M  V30 2306 H 223.215 -1.24807 -2.72146 0
M  V30 2307 H 220.761 -0.601585 -1.30832 0
M  V30 2308 H 222.714 0.725447 -4.15109 0
M  V30 2309 H 221.438 1.24174 -3.02074 0
M  V30 2310 H 220.097 -0.81786 -3.57361 0
M  V30 2311 H 219.745 1.29804 -4.85963 0
M  V30 2312 H 219.445 -0.135057 -5.87445 0
M  V30 2313 H 220.969 0.779517 -6.05604 0
M  V30 2314 H 222.383 -1.43495 -5.55051 0
M  V30 2315 H 220.78 -2.22582 -5.57295 0
M  V30 2316 H 221.85 -2.45964 -4.17887 0
M  V30 2317 N 223.193 1.4272 -0.668489 0
M  V30 2318 C 224.439 2.01923 -0.188419 0
M  V30 2319 C 224.772 1.52704 1.19979 0
M  V30 2320 O 224.047 0.726566 1.8042 0
M  V30 2321 C 224.33 3.59451 -0.216085 0
M  V30 2322 C 224.183 4.18864 -1.6393 0
M  V30 2323 C 225.502 4.37903 0.439179 0
M  V30 2324 H 222.621 0.733674 -0.0699412 0
M  V30 2325 H 225.263 1.69822 -0.852076 0
M  V30 2326 H 223.413 3.86929 0.349012 0
M  V30 2327 H 225.085 4.02362 -2.25616 0
M  V30 2328 H 223.328 3.74933 -2.18193 0
M  V30 2329 H 223.999 5.27987 -1.61039 0
M  V30 2330 H 226.475 4.16079 -0.0417878 0
M  V30 2331 H 225.351 5.47519 0.389157 0
M  V30 2332 H 225.612 4.15303 1.51577 0
M  V30 2333 N 224.671 0.411399 1.52136 0
M  V30 2334 C 225.603 -0.448386 2.24771 0
M  V30 2335 C 226.616 -1.00828 1.27818 0
M  V30 2336 O 227.805 -0.906841 1.53749 0
M  V30 2337 C 224.905 -1.63636 2.96777 0
M  V30 2338 C 224.078 -1.19995 4.20618 0
M  V30 2339 C 223.137 -2.25509 4.75428 0
M  V30 2340 O 222.163 -1.86007 5.3795 0
M  V30 2341 N 223.365 -3.577 4.57199 0
M  V30 2342 H 226.13 0.174025 2.99194 0
M  V30 2343 H 223.691 0.238897 1.60128 0
M  V30 2344 H 225.683 -2.33793 3.30338 0
M  V30 2345 H 224.253 -2.16465 2.25526 0
M  V30 2346 H 223.473 -0.326421 3.92846 0
M  V30 2347 H 224.761 -0.885365 5.01038 0
M  V30 2348 H 224.159 -3.92543 4.07341 0
M  V30 2349 H 222.716 -4.23827 4.95191 0
M  V30 2350 N 226.149 -1.5696 0.141893 0
M  V30 2351 C 227.079 -2.19516 -0.795936 0
M  V30 2352 C 228.06 -1.14187 -1.26077 0
M  V30 2353 O 229.245 -1.42511 -1.31925 0
M  V30 2354 C 226.375 -2.81272 -2.03723 0
M  V30 2355 C 225.329 -3.92384 -1.70936 0
M  V30 2356 C 224.655 -4.41052 -3.02287 0
M  V30 2357 C 225.955 -5.13403 -0.959954 0
M  V30 2358 H 227.649 -2.98138 -0.274596 0
M  V30 2359 H 225.195 -1.43406 -0.130636 0
M  V30 2360 H 227.148 -3.237 -2.69808 0
M  V30 2361 H 225.872 -1.99973 -2.58221 0
M  V30 2362 H 224.531 -3.50566 -1.07232 0
M  V30 2363 H 224.179 -3.56582 -3.54765 0
M  V30 2364 H 223.879 -5.15993 -2.81114 0
M  V30 2365 H 225.403 -4.86146 -3.69451 0
M  V30 2366 H 226.817 -5.52706 -1.52279 0
M  V30 2367 H 225.214 -5.94073 -0.848357 0
M  V30 2368 H 226.284 -4.84875 0.0492434 0
M  V30 2369 N 227.627 0.131896 -1.57047 0
M  V30 2370 C 228.852 0.860418 -1.8871 0
M  V30 2371 C 229.277 1.73251 -0.73251 0
M  V30 2372 O 228.635 1.785 0.317429 0
M  V30 2373 C 228.683 1.68047 -3.19049 0
M  V30 2374 O 227.787 2.7862 -3.04047 0
M  V30 2375 H 227.128 0.238743 -0.619595 0
M  V30 2376 H 229.658 0.118169 -2.04258 0
M  V30 2377 H 229.668 2.07238 -3.51449 0
M  V30 2378 H 228.343 1.04018 -4.02682 0
M  V30 2379 H 226.92 2.42726 -2.83088 0
M  V30 2380 N 229.106 1.52395 0.401703 0
M  V30 2381 C 230.353 1.66817 1.14796 0
M  V30 2382 C 230.681 0.401772 1.90305 0
M  V30 2383 O 229.936 -0.615487 1.85769 0
M  V30 2384 C 230.235 2.84578 2.16217 0
M  V30 2385 C 229.901 4.22513 1.5746 0
M  V30 2386 C 228.563 4.60029 1.41161 0
M  V30 2387 C 230.915 5.0844 1.14622 0
M  V30 2388 C 228.243 5.81144 0.80552 0
M  V30 2389 C 230.595 6.30167 0.55428 0
M  V30 2390 C 229.259 6.66426 0.378482 0
M  V30 2391 H 228.529 0.610428 0.420069 0
M  V30 2392 H 231.176 1.86512 0.434212 0
M  V30 2393 H 229.481 2.59248 2.93764 0
M  V30 2394 H 231.178 2.92933 2.73845 0
M  V30 2395 H 227.768 3.92953 1.71132 0
M  V30 2396 H 231.952 4.80034 1.26021 0
M  V30 2397 H 227.208 6.07855 0.657399 0
M  V30 2398 H 231.382 6.96071 0.213983 0
M  V30 2399 H 229.009 7.60143 -0.0932606 0
M  V30 2400 N 230.584 -0.659388 1.43143 0
M  V30 2401 C 231.547 -1.75432 1.47501 0
M  V30 2402 C 232.547 -1.56707 0.360512 0
M  V30 2403 O 233.737 -1.62717 0.622002 0
M  V30 2404 C 230.869 -3.14239 1.32162 0
M  V30 2405 H 232.062 -1.7295 2.45006 0
M  V30 2406 H 229.615 -0.870469 1.29817 0
M  V30 2407 H 230.35 -3.22336 0.356401 0
M  V30 2408 H 230.135 -3.29235 2.12948 0
M  V30 2409 H 231.625 -3.94094 1.3813 0
M  V30 2410 N 232.062 -1.29571 -0.897171 0
M  V30 2411 C 233.025 -1.14913 -1.98312 0
M  V30 2412 C 234.025 -0.0838629 -1.60581 0
M  V30 2413 O 235.215 -0.331006 -1.71026 0
M  V30 2414 C 232.347 -0.757835 -3.3237 0
M  V30 2415 H 233.54 -2.11377 -2.12743 0
M  V30 2416 H 231.093 -1.12793 -1.08201 0
M  V30 2417 H 231.828 0.206837 -3.2364 0
M  V30 2418 H 231.613 -1.52755 -3.61121 0
M  V30 2419 H 233.103 -0.678408 -4.12053 0
M  V30 2420 N 233.54 1.10788 -1.12088 0
M  V30 2421 C 234.768 1.86461 -0.896651 0
M  V30 2422 C 235.183 1.80492 0.553912 0
M  V30 2423 O 234.54 1.19102 1.38278 0
M  V30 2424 C 234.591 3.35006 -1.35843 0
M  V30 2425 O 234.312 3.40866 -2.75213 0
M  V30 2426 C 235.813 4.27565 -1.1706 0
M  V30 2427 H 233.033 0.589425 -0.320654 0
M  V30 2428 H 235.577 1.40076 -1.48993 0
M  V30 2429 H 233.732 3.7887 -0.808458 0
M  V30 2430 H 234.146 4.33411 -2.9539 0
M  V30 2431 H 235.62 5.30007 -1.54263 0
M  V30 2432 H 236.097 4.3906 -0.110814 0
M  V30 2433 H 236.703 3.89501 -1.70789 0
M  V30 2434 N 235.018 0.912232 1.28515 0
M  V30 2435 C 236.246 0.560416 1.99166 0
M  V30 2436 C 236.661 -0.857927 1.68182 0
M  V30 2437 O 236.018 -1.56805 0.933733 0
M  V30 2438 C 236.069 0.758142 3.53461 0
M  V30 2439 O 235.79 2.12067 3.83352 0
M  V30 2440 C 237.291 0.412954 4.41372 0
M  V30 2441 H 234.511 0.213805 0.636026 0
M  V30 2442 H 237.055 1.22502 1.63749 0
M  V30 2443 H 235.21 0.140556 3.87145 0
M  V30 2444 H 235.624 2.15923 4.77993 0
M  V30 2445 H 237.098 0.60208 5.48707 0
M  V30 2446 H 237.575 -0.65073 4.34353 0
M  V30 2447 H 238.181 1.00802 4.13182 0
M  V30 2448 N 236.496 -1.42363 0.676048 0
M  V30 2449 C 237.907 -1.84649 0.275948 0
M  V30 2450 C 238.258 -1.56588 -1.18214 0
M  V30 2451 O 237.383 -1.02634 -1.90513 0
M  V30 2452 C 237.978 -3.35178 0.494053 0
M  V30 2453 C 236.537 -3.76109 0.148061 0
M  V30 2454 C 235.684 -2.65931 0.785891 0
M  V30 2455 H 238.635 -1.32192 0.878121 0
M  V30 2456 H 238.656 -3.79655 -0.25343 0
M  V30 2457 H 238.168 -3.55571 1.55535 0
M  V30 2458 H 236.269 -3.61323 -0.909742 0
M  V30 2459 H 236.382 -4.7546 0.589454 0
M  V30 2460 H 234.746 -2.53773 0.217113 0
M  V30 2461 H 235.529 -2.89146 1.85067 0
M  V30 2462 N 237.974 -0.419461 -1.51915 0
M  V30 2463 C 239.22 0.153166 -2.02221 0
M  V30 2464 C 239.553 1.43907 -1.30401 0
M  V30 2465 O 238.828 1.90055 -0.413438 0
M  V30 2466 C 239.111 0.390291 -3.57979 0
M  V30 2467 C 238.964 -0.913014 -4.40436 0
M  V30 2468 C 240.283 1.16794 -4.2432 0
M  V30 2469 H 237.402 0.0541924 -0.735005 0
M  V30 2470 H 240.044 -0.554955 -1.81715 0
M  V30 2471 H 238.194 0.993491 -3.75582 0
M  V30 2472 H 239.866 -1.54882 -4.34522 0
M  V30 2473 H 238.109 -1.52168 -4.06236 0
M  V30 2474 H 238.78 -0.701361 -5.47526 0
M  V30 2475 H 241.256 0.657161 -4.10878 0
M  V30 2476 H 240.132 1.3026 -5.3322 0
M  V30 2477 H 240.393 2.19132 -3.83971 0
M  V30 2478 N 239.452 1.56882 -0.150215 0
M  V30 2479 C 240.382 2.19935 0.784284 0
M  V30 2480 C 241.363 1.14854 1.25469 0
M  V30 2481 O 242.548 1.43209 1.31168 0
M  V30 2482 C 239.678 2.82349 2.02229 0
M  V30 2483 C 238.632 3.93285 1.68853 0
M  V30 2484 C 237.958 4.42649 2.99944 0
M  V30 2485 C 239.258 5.13904 0.932714 0
M  V30 2486 H 240.952 2.9828 0.258781 0
M  V30 2487 H 238.498 1.43473 0.123029 0
M  V30 2488 H 240.451 3.25126 2.68088 0
M  V30 2489 H 239.175 2.0134 2.57157 0
M  V30 2490 H 237.834 3.5113 1.05371 0
M  V30 2491 H 237.482 3.58458 3.52869 0
M  V30 2492 H 237.182 5.17476 2.78374 0
M  V30 2493 H 238.706 4.88099 3.66868 0
M  V30 2494 H 240.12 5.53506 1.49345 0
M  V30 2495 H 238.517 5.94515 0.81684 0
M  V30 2496 H 239.587 4.84842 -0.0749568 0
M  V30 2497 N 240.93 -0.123565 1.57115 0
M  V30 2498 C 241.893 -1.13583 1.99076 0
M  V30 2499 C 242.893 -1.34564 0.880296 0
M  V30 2500 O 244.083 -1.31158 1.14644 0
M  V30 2501 C 241.215 -2.49128 2.32698 0
M  V30 2502 H 242.408 -0.775287 2.89706 0
M  V30 2503 H 239.961 -0.36771 1.51913 0
M  V30 2504 H 240.696 -2.90111 1.44934 0
M  V30 2505 H 240.481 -2.35255 3.13684 0
M  V30 2506 H 241.971 -3.2199 2.65918 0
M  V30 2507 N 242.408 -1.52605 -0.393616 0
M  V30 2508 C 243.685 -1.58001 -1.15304 0
M  V30 2509 C 244.065 -0.370385 -2.07825 0
M  V30 2510 O 243.413 0.641638 -2.19306 0
M  V30 2511 C 243.623 -2.91652 -1.91677 0
M  V30 2512 C 244.971 -3.4522 -2.47201 0
M  V30 2513 O 245.995 -2.93495 -2.01839 0
M  V30 2514 O 244.854 -4.35579 -3.3005 0
M  V30 2515 H 241.948 -0.637068 -0.527327 0
M  V30 2516 H 244.494 -1.64939 -0.399141 0
M  V30 2517 H 243.266 -3.71136 -1.23992 0
M  V30 2518 H 242.889 -2.88077 -2.74039 0
M  V30 2519 N 243.887 0.651787 -1.4349 0
M  V30 2520 C 244.834 1.76462 -1.4876 0
M  V30 2521 C 245.804 1.62641 -0.337189 0
M  V30 2522 O 246.989 1.82864 -0.544544 0
M  V30 2523 C 244.129 3.14623 -1.41796 0
M  V30 2524 C 243.242 3.39568 -2.67053 0
M  V30 2525 C 242.377 4.67585 -2.52068 0
M  V30 2526 C 241.416 4.85639 -3.72587 0
M  V30 2527 N 240.553 6.04915 -3.56402 0
M  V30 2528 H 245.393 1.71293 -2.43849 0
M  V30 2529 H 242.93 0.835889 -1.21043 0
M  V30 2530 H 244.888 3.94496 -1.35753 0
M  V30 2531 H 243.518 3.18859 -0.50288 0
M  V30 2532 H 242.57 2.53783 -2.8337 0
M  V30 2533 H 243.882 3.48795 -3.56572 0
M  V30 2534 H 243.036 5.55586 -2.4374 0
M  V30 2535 H 241.775 4.60681 -1.60075 0
M  V30 2536 H 240.78 3.96073 -3.81321 0
M  V30 2537 H 242.005 4.94372 -4.65589 0
M  V30 2538 H 239.951 5.9914 -2.67146 0
M  V30 2539 H 239.868 6.15106 -4.39524 0
M  V30 2540 H 241.136 6.95533 -3.51929 0
M  V30 2541 N 245.365 1.30045 0.890287 0
M  V30 2542 C 246.312 1.15976 1.99545 0
M  V30 2543 C 247.282 0.0506202 1.66023 0
M  V30 2544 O 248.467 0.219847 1.89529 0
M  V30 2545 C 245.607 0.852054 3.34416 0
M  V30 2546 C 244.72 2.04255 3.80662 0
M  V30 2547 C 243.855 1.6734 5.04154 0
M  V30 2548 C 242.894 2.82916 5.42794 0
M  V30 2549 N 242.031 2.46333 6.57468 0
M  V30 2550 H 246.871 2.10524 2.10911 0
M  V30 2551 H 244.408 1.04749 1.03276 0
M  V30 2552 H 246.366 0.654296 4.12037 0
M  V30 2553 H 244.996 -0.0565502 3.2275 0
M  V30 2554 H 244.048 2.35172 2.98995 0
M  V30 2555 H 245.36 2.90826 4.05242 0
M  V30 2556 H 244.514 1.43908 5.89386 0
M  V30 2557 H 243.253 0.779308 4.81433 0
M  V30 2558 H 242.258 3.0702 4.56091 0
M  V30 2559 H 243.483 3.73004 5.6749 0
M  V30 2560 H 241.429 1.59423 6.36334 0
M  V30 2561 H 241.346 3.26436 6.81891 0
M  V30 2562 H 242.614 2.26244 7.45945 0
M  V30 2563 N 246.843 -1.10192 1.12674 0
M  V30 2564 C 247.79 -2.16606 0.796906 0
M  V30 2565 C 248.76 -1.64394 -0.237476 0
M  V30 2566 O 249.945 -1.90474 -0.111484 0
M  V30 2567 C 247.085 -3.44116 0.26043 0
M  V30 2568 C 246.198 -4.10268 1.35293 0
M  V30 2569 C 245.333 -5.25507 0.775621 0
M  V30 2570 C 244.372 -5.83567 1.84706 0
M  V30 2571 N 243.509 -6.90179 1.28829 0
M  V30 2572 H 248.349 -2.44163 1.70846 0
M  V30 2573 H 245.886 -1.19846 0.85295 0
M  V30 2574 H 247.844 -4.17143 -0.0686814 0
M  V30 2575 H 246.474 -3.16901 -0.614274 0
M  V30 2576 H 245.526 -3.35184 1.79877 0
M  V30 2577 H 246.838 -4.4946 2.16303 0
M  V30 2578 H 245.992 -6.05398 0.397327 0
M  V30 2579 H 244.731 -4.87656 -0.0656581 0
M  V30 2580 H 243.736 -5.02344 2.23452 0
M  V30 2581 H 244.961 -6.23482 2.69161 0
M  V30 2582 H 242.907 -6.54322 0.468881 0
M  V30 2583 H 242.824 -7.28097 2.03497 0
M  V30 2584 H 244.092 -7.73844 0.937311 0
M  V30 2585 N 248.321 -0.919034 -1.28029 0
M  V30 2586 C 249.551 -0.570143 -1.98577 0
M  V30 2587 C 249.959 0.854172 -1.68821 0
M  V30 2588 O 249.302 1.57807 -0.940351 0
M  V30 2589 C 249.364 -0.705734 -3.52505 0
M  V30 2590 C 249.028 -2.10057 -4.05863 0
M  V30 2591 C 250.025 -3.07385 -4.19298 0
M  V30 2592 C 247.71 -2.41517 -4.40426 0
M  V30 2593 C 249.704 -4.34287 -4.66555 0
M  V30 2594 C 247.391 -3.68657 -4.87376 0
M  V30 2595 C 248.389 -4.64856 -5.00398 0
M  V30 2596 O 248.077 -5.89735 -5.46322 0
M  V30 2597 H 247.809 -0.215592 -0.6407 0
M  V30 2598 H 250.363 -1.23583 -1.64062 0
M  V30 2599 H 248.593 0.0170414 -3.86696 0
M  V30 2600 H 250.282 -0.363172 -4.04272 0
M  V30 2601 H 251.048 -2.84398 -3.92865 0
M  V30 2602 H 246.927 -1.67389 -4.29537 0
M  V30 2603 H 250.471 -5.09377 -4.76635 0
M  V30 2604 H 246.368 -3.91466 -5.13249 0
M  V30 2605 H 247.136 -5.92599 -5.64596 0
M  V30 2606 N 249.799 1.42003 -0.683588 0
M  V30 2607 C 251.21 1.84501 -0.285736 0
M  V30 2608 C 251.561 1.57213 1.17382 0
M  V30 2609 O 250.686 1.03642 1.89966 0
M  V30 2610 C 251.281 3.34912 -0.511821 0
M  V30 2611 C 249.84 3.76025 -0.168005 0
M  V30 2612 C 248.987 2.6551 -0.799983 0
M  V30 2613 H 251.938 1.31724 -0.885119 0
M  V30 2614 H 251.959 3.79784 0.233292 0
M  V30 2615 H 251.471 3.54741 -1.57418 0
M  V30 2616 H 249.572 3.61801 0.890567 0
M  V30 2617 H 249.685 4.75141 -0.614661 0
M  V30 2618 H 248.049 2.53654 -0.230568 0
M  V30 2619 H 248.832 2.8816 -1.86597 0
M  V30 2620 N 251.277 0.427512 1.51691 0
M  V30 2621 C 252.507 -0.140986 2.06118 0
M  V30 2622 C 252.915 -1.37854 1.29588 0
M  V30 2623 O 252.258 -1.80411 0.346036 0
M  V30 2624 C 252.32 -0.538276 3.55447 0
M  V30 2625 C 251.984 0.591095 4.53161 0
M  V30 2626 C 252.981 1.46027 4.98971 0
M  V30 2627 C 250.666 0.769028 4.96378 0
M  V30 2628 C 252.66 2.49216 5.8666 0
M  V30 2629 C 250.347 1.80421 5.83859 0
M  V30 2630 C 251.345 2.66417 6.28897 0
M  V30 2631 O 251.033 3.68159 7.14643 0
M  V30 2632 H 250.765 -0.0157455 0.675817 0
M  V30 2633 H 253.319 0.602495 1.96365 0
M  V30 2634 H 251.549 -1.33432 3.6295 0
M  V30 2635 H 253.238 -1.0368 3.92435 0
M  V30 2636 H 254.004 1.33429 4.66285 0
M  V30 2637 H 249.883 0.109273 4.6087 0
M  V30 2638 H 253.427 3.16372 6.21735 0
M  V30 2639 H 249.324 1.93042 6.15959 0
M  V30 2640 H 250.092 3.64622 7.32798 0
M  V30 2641 N 252.755 -1.56801 0.158532 0
M  V30 2642 C 254.002 -1.9649 -0.489679 0
M  V30 2643 C 254.33 -1.04394 -1.6411 0
M  V30 2644 O 253.585 -0.0754401 -1.95555 0
M  V30 2645 C 253.884 -3.4235 -1.02623 0
M  V30 2646 C 253.55 -4.50899 0.00794526 0
M  V30 2647 C 252.212 -4.80312 0.292207 0
M  V30 2648 C 254.564 -5.16333 0.710584 0
M  V30 2649 C 251.892 -5.72461 1.28472 0
M  V30 2650 C 254.244 -6.09553 1.69199 0
M  V30 2651 C 252.908 -6.37339 1.98383 0
M  V30 2652 H 252.178 -0.719009 -0.179186 0
M  V30 2653 H 254.825 -1.8989 0.247798 0
M  V30 2654 H 253.13 -3.45838 -1.84128 0
M  V30 2655 H 254.827 -3.70393 -1.53656 0
M  V30 2656 H 251.417 -4.28015 -0.22379 0
M  V30 2657 H 255.601 -4.93732 0.504174 0
M  V30 2658 H 250.857 -5.92278 1.51714 0
M  V30 2659 H 255.031 -6.59327 2.24189 0
M  V30 2660 H 252.658 -7.08546 2.7544 0
M  V30 2661 N 254.233 0.115231 -1.57178 0
M  V30 2662 C 255.48 0.822351 -1.8505 0
M  V30 2663 C 255.808 1.79701 -0.744168 0
M  V30 2664 O 255.063 1.93909 0.26414 0
M  V30 2665 C 255.362 1.60324 -3.19423 0
M  V30 2666 C 255.028 0.772536 -4.44233 0
M  V30 2667 C 253.69 0.543468 -4.78121 0
M  V30 2668 C 256.042 0.193746 -5.2084 0
M  V30 2669 C 253.37 -0.274583 -5.86057 0
M  V30 2670 C 255.722 -0.611517 -6.29637 0
M  V30 2671 C 254.386 -0.850867 -6.62055 0
M  V30 2672 H 253.656 0.30092 -0.677147 0
M  V30 2673 H 256.303 0.0845802 -1.91313 0
M  V30 2674 H 254.608 2.41203 -3.08753 0
M  V30 2675 H 256.305 2.1544 -3.38211 0
M  V30 2676 H 252.895 0.96117 -4.17683 0
M  V30 2677 H 257.079 0.357926 -4.95008 0
M  V30 2678 H 252.335 -0.469206 -6.09597 0
M  V30 2679 H 256.509 -1.06697 -6.88178 0
M  V30 2680 H 254.136 -1.48657 -7.45523 0
M  V30 2681 N 255.711 1.52812 0.385517 0
M  V30 2682 C 257.127 1.4214 0.725829 0
M  V30 2683 C 257.327 0.544589 1.94001 0
M  V30 2684 O 256.383 0.0193693 2.52493 0
M  V30 2685 C 257.696 2.85042 0.957668 0
M  V30 2686 C 259.244 2.94543 1.05892 0
M  V30 2687 C 259.719 4.38464 1.32337 0
M  V30 2688 N 261.21 4.41804 1.39151 0
M  V30 2689 C 261.945 5.5025 1.61285 0
M  V30 2690 N 261.441 6.68775 1.80866 0
M  V30 2691 N 263.234 5.37798 1.63492 0
M  V30 2692 H 255.385 2.08338 -0.413383 0
M  V30 2693 H 257.648 0.940016 -0.122775 0
M  V30 2694 H 257.354 3.51431 0.137568 0
M  V30 2695 H 257.228 3.27505 1.87137 0
M  V30 2696 H 259.615 2.28321 1.86959 0
M  V30 2697 H 259.696 2.55504 0.123057 0
M  V30 2698 H 259.34 5.05254 0.517793 0
M  V30 2699 H 259.27 4.75059 2.27214 0
M  V30 2700 H 261.761 3.56377 1.25713 0
M  V30 2701 H 262.074 7.47197 1.97271 0
M  V30 2702 H 260.419 6.71797 1.78083 0
M  V30 2703 H 263.61 4.44171 1.47749 0
M  V30 2704 H 263.783 6.22382 1.80402 0
M  V30 2705 N 257.189 -0.644168 1.43834 0
M  V30 2706 C 258.417 -1.43147 1.49387 0
M  V30 2707 C 258.832 -1.88452 0.114583 0
M  V30 2708 O 258.189 -1.60047 -0.876989 0
M  V30 2709 C 258.24 -2.66046 2.44748 0
M  V30 2710 O 257.961 -2.22633 3.77314 0
M  V30 2711 C 259.462 -3.59311 2.59635 0
M  V30 2712 H 256.682 -0.439447 0.507077 0
M  V30 2713 H 259.226 -0.78895 1.88669 0
M  V30 2714 H 257.381 -3.26418 2.08638 0
M  V30 2715 H 257.795 -3.02216 4.28679 0
M  V30 2716 H 259.269 -4.42187 3.30416 0
M  V30 2717 H 259.746 -4.07259 1.64427 0
M  V30 2718 H 260.352 -3.04816 2.96593 0
M  V30 2719 N 258.668 -1.30515 -0.883378 0
M  V30 2720 C 259.914 -1.19607 -1.63774 0
M  V30 2721 C 260.247 0.248314 -1.92606 0
M  V30 2722 O 259.522 1.17742 -1.54813 0
M  V30 2723 C 259.805 -2.02669 -2.97653 0
M  V30 2724 C 259.658 -3.55335 -2.75784 0
M  V30 2725 C 260.977 -1.86573 -3.98596 0
M  V30 2726 H 258.096 -0.435856 -0.594305 0
M  V30 2727 H 260.738 -1.60165 -1.02212 0
M  V30 2728 H 258.888 -1.68208 -3.50197 0
M  V30 2729 H 260.56 -3.99863 -2.30016 0
M  V30 2730 H 258.803 -3.79438 -2.1026 0
M  V30 2731 H 259.474 -4.08745 -3.70988 0
M  V30 2732 H 261.95 -2.16703 -3.55217 0
M  V30 2733 H 260.826 -2.47014 -4.90179 0
M  V30 2734 H 261.087 -0.825321 -4.34328 0
M  V30 2735 N 260.146 1.09593 -1.13257 0
M  V30 2736 C 261.557 1.63229 -0.906274 0
M  V30 2737 C 261.908 1.8811 0.557578 0
M  V30 2738 O 261.033 1.62953 1.42391 0
M  V30 2739 C 261.628 2.96535 -1.63867 0
M  V30 2740 C 260.187 3.47003 -1.45828 0
M  V30 2741 C 259.334 2.2145 -1.66898 0
M  V30 2742 H 262.285 0.92978 -1.28611 0
M  V30 2743 H 262.306 3.64411 -1.09476 0
M  V30 2744 H 261.818 2.78394 -2.70404 0
M  V30 2745 H 259.919 3.70272 -0.415848 0
M  V30 2746 H 260.032 4.24551 -2.2202 0
M  V30 2747 H 258.396 2.30022 -1.09371 0
M  V30 2748 H 259.179 2.0583 -2.74752 0
M  V30 2749 N 261.624 0.925811 1.2754 0
M  V30 2750 C 262.849 0.580924 1.99098 0
M  V30 2751 C 263.274 -0.833555 1.68622 0
M  V30 2752 O 262.632 -1.55903 0.925422 0
M  V30 2753 C 262.68 0.811186 3.51358 0
M  V30 2754 O 261.784 -0.124129 4.12213 0
M  V30 2755 H 261.125 0.223873 0.625122 0
M  V30 2756 H 263.655 1.24455 1.62395 0
M  V30 2757 H 263.665 0.72601 4.01489 0
M  V30 2758 H 262.34 1.84227 3.72872 0
M  V30 2759 H 260.917 0.0108006 3.72898 0
M  V30 2760 N 263.102 -1.41638 0.69111 0
M  V30 2761 C 264.379 -1.95036 0.148421 0
M  V30 2762 C 264.759 -1.63072 -1.34055 0
M  V30 2763 O 264.107 -0.93538 -2.08478 0
M  V30 2764 C 264.317 -3.46279 0.434951 0
M  V30 2765 C 265.665 -4.23069 0.360275 0
M  V30 2766 O 266.689 -3.54277 0.369613 0
M  V30 2767 O 265.548 -5.45583 0.316534 0
M  V30 2768 H 262.642 -0.826908 0.0123654 0
M  V30 2769 H 265.188 -1.5138 0.766963 0
M  V30 2770 H 263.96 -3.6281 1.46576 0
M  V30 2771 H 263.583 -3.97019 -0.214787 0
M  V30 2772 N 264.58 -0.43555 -1.51462 0
M  V30 2773 C 265.528 0.391205 -2.29287 0
M  V30 2774 C 266.522 1.02247 -1.35062 0
M  V30 2775 O 267.728 0.957646 -1.52411 0
M  V30 2776 H 264.103 0.144968 -0.737895 0
M  V30 2777 H 266.074 -0.286051 -2.97026 0
M  V30 2778 C 264.823 1.48096 -3.14583 0
M  V30 2779 H 264.146 1.00457 -3.86973 0
M  V30 2780 H 265.586 2.03273 -3.72097 0
M  V30 2781 C 264.045 2.46321 -2.29843 0
M  V30 2782 O 264.575 3.50815 -1.95682 0
M  V30 2783 N 262.781 2.17166 -1.931 0
M  V30 2784 H 262.328 1.32218 -2.21079 0
M  V30 2785 H 262.286 2.83127 -1.36698 0
M  V30 2786 N 266.058 1.56714 -0.166846 0
M  V30 2787 C 267.021 2.16539 0.751232 0
M  V30 2788 C 268.021 1.11228 1.16125 0
M  V30 2789 O 269.211 1.36765 1.07894 0
M  V30 2790 C 266.343 2.74462 2.02196 0
M  V30 2791 H 267.536 2.99013 0.230499 0
M  V30 2792 H 265.089 1.56081 0.0826982 0
M  V30 2793 H 265.824 1.95709 2.58589 0
M  V30 2794 H 265.609 3.51527 1.73698 0
M  V30 2795 H 267.099 3.20489 2.67725 0
M  V30 2796 N 267.536 -0.106894 1.57237 0
M  V30 2797 C 268.782 -0.81373 1.85759 0
M  V30 2798 C 269.115 -1.78952 0.754315 0
M  V30 2799 O 268.39 -1.93029 -0.23879 0
M  V30 2800 C 268.673 -1.55293 3.24894 0
M  V30 2801 C 268.526 -0.595929 4.45835 0
M  V30 2802 C 269.845 -2.5063 3.61763 0
M  V30 2803 H 266.964 -0.294369 0.67566 0
M  V30 2804 H 269.606 -0.0776472 1.89841 0
M  V30 2805 H 267.756 -2.1804 3.21544 0
M  V30 2806 H 269.428 0.0236262 4.61294 0
M  V30 2807 H 267.671 0.0916191 4.33703 0
M  V30 2808 H 268.342 -1.15004 5.39887 0
M  V30 2809 H 270.818 -1.97982 3.65981 0
M  V30 2810 H 269.694 -2.99376 4.60071 0
M  V30 2811 H 269.955 -3.3385 2.89821 0
M  V30 2812 N 269.014 -1.53014 -0.377408 0
M  V30 2813 C 269.962 -1.7927 -1.48206 0
M  V30 2814 C 270.956 -0.661195 -1.55963 0
M  V30 2815 O 272.162 -0.843908 -1.58991 0
M  V30 2816 H 268.537 -0.567425 -0.493491 0
M  V30 2817 H 270.508 -2.71753 -1.2326 0
M  V30 2818 C 269.257 -1.98894 -2.85196 0
M  V30 2819 H 268.58 -2.85395 -2.79981 0
M  V30 2820 H 270.02 -2.21249 -3.61698 0
M  V30 2821 C 268.479 -0.764691 -3.28107 0
M  V30 2822 O 269.009 0.0523226 -4.01666 0
M  V30 2823 N 267.215 -0.591493 -2.84517 0
M  V30 2824 H 266.762 -1.25749 -2.24822 0
M  V30 2825 H 266.72 0.226253 -3.13585 0
M  V30 2826 N 270.492 0.636531 -1.44174 0
M  V30 2827 C 271.903 1.21806 -1.41493 0
M  V30 2828 C 272.254 1.95785 -0.1275 0
M  V30 2829 O 271.379 2.02147 0.772376 0
M  V30 2830 C 271.974 2.21551 -2.56321 0
M  V30 2831 C 270.533 2.75143 -2.56853 0
M  V30 2832 C 269.68 1.50052 -2.33195 0
M  V30 2833 H 272.631 0.427531 -1.52833 0
M  V30 2834 H 272.652 3.0405 -2.28765 0
M  V30 2835 H 272.164 1.67679 -3.50008 0
M  V30 2836 H 270.265 3.33033 -1.67093 0
M  V30 2837 H 270.378 3.2155 -3.55165 0
M  V30 2838 H 268.742 1.77993 -1.82183 0
M  V30 2839 H 269.525 0.980903 -3.28988 0
M  V30 2840 N 271.97 1.30982 0.876444 0
M  V30 2841 C 272.933 1.18054 1.96459 0
M  V30 2842 C 273.933 0.109399 1.60427 0
M  V30 2843 O 275.123 0.358173 1.70478 0
M  V30 2844 C 272.255 0.810616 3.31122 0
M  V30 2845 H 273.448 2.14735 2.09354 0
M  V30 2846 H 271.001 1.145 1.06392 0
M  V30 2847 H 271.736 -0.155322 3.23928 0
M  V30 2848 H 271.521 1.58481 3.58645 0
M  V30 2849 H 273.011 0.743876 4.10921 0
M  V30 2850 N 273.449 -1.08991 1.13837 0
M  V30 2851 C 274.698 -1.80631 0.897509 0
M  V30 2852 C 275.011 -1.86872 -0.57777 0
M  V30 2853 O 276.217 -2.54866 -0.935701 0
M  V30 2854 C 274.673 -3.24517 1.55618 0
M  V30 2855 C 274.281 -3.26529 3.0673 0
M  V30 2856 C 276.025 -4.00882 1.3962 0
M  V30 2857 C 273.932 -4.64965 3.65461 0
M  V30 2858 H 272.862 -0.67691 0.332129 0
M  V30 2859 H 275.513 -1.2246 1.3666 0
M  V30 2860 H 273.895 -3.82778 1.01476 0
M  V30 2861 H 275.069 -2.78008 3.67489 0
M  V30 2862 H 273.384 -2.63656 3.22296 0
M  V30 2863 H 275.981 -5.03167 1.80906 0
M  V30 2864 H 276.324 -4.14896 0.341578 0
M  V30 2865 H 276.857 -3.49075 1.90766 0
M  V30 2866 H 273.596 -4.56153 4.70749 0
M  V30 2867 H 273.116 -5.13792 3.09481 0
M  V30 2868 H 274.795 -5.3394 3.654 0
M  V30 2869 N 274.927 -0.932562 -1.27047 0
M  V30 2870 C 275.857 -0.452902 -2.29066 0
M  V30 2871 C 276.838 0.489338 -1.62909 0
M  V30 2872 O 278.023 0.393046 -1.90181 0
M  V30 2873 C 275.153 0.290698 -3.46081 0
M  V30 2874 C 274.107 -0.564168 -4.24265 0
M  V30 2875 C 273.433 0.308886 -5.33807 0
M  V30 2876 C 274.733 -1.83112 -4.89149 0
M  V30 2877 H 276.427 -1.30552 -2.69437 0
M  V30 2878 H 273.973 -0.629201 -1.29526 0
M  V30 2879 H 275.926 0.637233 -4.16554 0
M  V30 2880 H 274.65 1.17738 -3.0464 0
M  V30 2881 H 273.309 -0.893477 -3.55545 0
M  V30 2882 H 272.957 1.19467 -4.88607 0
M  V30 2883 H 272.657 -0.259633 -5.87026 0
M  V30 2884 H 274.181 0.650884 -6.07121 0
M  V30 2885 H 275.595 -1.55236 -5.51883 0
M  V30 2886 H 273.992 -2.34353 -5.52448 0
M  V30 2887 H 275.062 -2.54772 -4.12576 0
M  V30 2888 N 276.405 1.4127 -0.698611 0
M  V30 2889 C 277.352 2.30773 -0.0352094 0
M  V30 2890 C 278.322 1.47273 0.768111 0
M  V30 2891 O 279.507 1.76053 0.735524 0
M  V30 2892 C 276.647 3.33346 0.893 0
M  V30 2893 C 275.76 4.31924 0.0809695 0
M  V30 2894 C 274.895 5.21566 1.0071 0
M  V30 2895 C 273.934 6.11811 0.188155 0
M  V30 2896 N 273.071 6.93926 1.06825 0
M  V30 2897 H 277.911 2.86943 -0.804207 0
M  V30 2898 H 275.448 1.4132 -0.408294 0
M  V30 2899 H 277.406 3.91368 1.44523 0
M  V30 2900 H 276.036 2.78719 1.62836 0
M  V30 2901 H 275.088 3.75825 -0.588224 0
M  V30 2902 H 276.4 4.95716 -0.553801 0
M  V30 2903 H 275.554 5.84437 1.62845 0
M  V30 2904 H 274.293 4.58008 1.67572 0
M  V30 2905 H 273.298 5.47986 -0.446254 0
M  V30 2906 H 274.523 6.77425 -0.476716 0
M  V30 2907 H 272.469 6.32973 1.72283 0
M  V30 2908 H 272.386 7.54416 0.489123 0
M  V30 2909 H 273.654 7.61262 1.67632 0
M  V30 2910 N 277.883 0.443576 1.51229 0
M  V30 2911 C 278.813 -0.355142 2.30783 0
M  V30 2912 C 279.794 -1.0154 1.36468 0
M  V30 2913 O 280.979 -1.01785 1.65389 0
M  V30 2914 C 278.109 -1.45312 3.15439 0
M  V30 2915 C 277.063 -0.916002 4.18083 0
M  V30 2916 C 276.389 -2.1102 4.91299 0
M  V30 2917 C 277.689 0.0538602 5.22272 0
M  V30 2918 H 279.383 0.308767 2.97804 0
M  V30 2919 H 276.929 0.149937 1.43217 0
M  V30 2920 H 278.882 -2.01914 3.69876 0
M  V30 2921 H 277.606 -2.14541 2.46252 0
M  V30 2922 H 276.265 -0.372145 3.64706 0
M  V30 2923 H 275.913 -2.78882 4.18609 0
M  V30 2924 H 275.613 -1.75717 5.60712 0
M  V30 2925 H 277.137 -2.68164 5.48562 0
M  V30 2926 H 278.551 -0.422069 5.71744 0
M  V30 2927 H 276.948 0.319776 5.99247 0
M  V30 2928 H 278.018 0.98858 4.74716 0
M  V30 2929 N 279.361 -1.56624 0.175154 0
M  V30 2930 C 280.291 -2.21155 -0.749195 0
M  V30 2931 C 281.272 -1.16836 -1.23626 0
M  V30 2932 O 282.457 -1.45277 -1.28873 0
M  V30 2933 C 279.587 -2.8553 -1.97711 0
M  V30 2934 C 278.541 -3.95921 -1.62575 0
M  V30 2935 C 277.867 -4.47365 -2.92864 0
M  V30 2936 C 279.167 -5.15323 -0.850838 0
M  V30 2937 H 280.861 -2.98653 -0.211295 0
M  V30 2938 H 278.407 -1.43651 -0.100188 0
M  V30 2939 H 280.36 -3.2935 -2.62881 0
M  V30 2940 H 279.084 -2.05406 -2.53921 0
M  V30 2941 H 277.743 -3.52762 -0.997719 0
M  V30 2942 H 277.391 -3.64027 -3.47122 0
M  V30 2943 H 277.091 -5.21839 -2.70106 0
M  V30 2944 H 278.615 -4.93873 -3.59056 0
M  V30 2945 H 280.029 -5.55812 -1.40521 0
M  V30 2946 H 278.426 -5.95739 -0.722154 0
M  V30 2947 H 279.496 -4.84661 0.152082 0
M  V30 2948 N 280.839 0.0985539 -1.57292 0
M  V30 2949 C 281.786 1.11981 -2.01814 0
M  V30 2950 C 282.756 1.39999 -0.89384 0
M  V30 2951 O 283.941 1.5152 -1.15958 0
M  V30 2952 C 281.081 2.43577 -2.44467 0
M  V30 2953 C 280.194 2.2232 -3.70402 0
M  V30 2954 C 279.329 3.4729 -4.01949 0
M  V30 2955 C 278.368 3.2128 -5.21005 0
M  V30 2956 N 277.505 4.38507 -5.48321 0
M  V30 2957 H 282.345 0.733149 -2.88841 0
M  V30 2958 H 279.882 0.350482 -1.42864 0
M  V30 2959 H 281.84 3.20373 -2.6724 0
M  V30 2960 H 280.47 2.80097 -1.60455 0
M  V30 2961 H 279.522 1.36343 -3.55126 0
M  V30 2962 H 280.834 1.99089 -4.57345 0
M  V30 2963 H 279.988 4.32495 -4.25479 0
M  V30 2964 H 278.727 3.73572 -3.13521 0
M  V30 2965 H 277.732 2.34468 -4.97298 0
M  V30 2966 H 278.957 2.96348 -6.11028 0
M  V30 2967 H 276.903 4.64871 -4.62851 0
M  V30 2968 H 276.82 4.18455 -6.29628 0
M  V30 2969 H 278.088 5.24787 -5.76385 0
M  V30 2970 N 282.317 1.53212 0.369288 0
M  V30 2971 C 283.267 1.75769 1.45222 0
M  V30 2972 C 284.251 0.612136 1.48801 0
M  V30 2973 O 285.443 0.870674 1.54105 0
M  V30 2974 C 282.572 1.94769 2.82701 0
M  V30 2975 C 281.658 3.15315 2.83615 0
M  V30 2976 N 282.049 4.37295 2.54178 0
M  V30 2977 C 280.347 3.15962 3.14776 0
M  V30 2978 C 281.048 5.19015 2.62675 0
M  V30 2979 N 280.024 4.55142 2.97232 0
M  V30 2980 H 283.826 2.67691 1.2132 0
M  V30 2981 H 281.34 1.51787 0.577438 0
M  V30 2982 H 283.337 2.09056 3.60696 0
M  V30 2983 H 281.997 1.04073 3.07569 0
M  V30 2984 H 283.008 4.65091 2.27839 0
M  V30 2985 H 279.685 2.35144 3.44983 0
M  V30 2986 H 281.075 6.26305 2.43294 0
M  V30 2987 N 283.795 -0.628877 1.44509 0
M  V30 2988 C 285.025 -1.41349 1.50678 0
M  V30 2989 C 285.433 -1.88745 0.131075 0
M  V30 2990 O 284.776 -1.61592 -0.87371 0
M  V30 2991 C 284.838 -2.66608 2.41165 0
M  V30 2992 C 284.502 -2.40993 3.88293 0
M  V30 2993 C 285.499 -2.0268 4.78766 0
M  V30 2994 C 283.184 -2.54563 4.33016 0
M  V30 2995 C 285.178 -1.78269 6.11963 0
M  V30 2996 C 282.865 -2.29766 5.6626 0
M  V30 2997 C 283.863 -1.91678 6.55552 0
M  V30 2998 O 283.551 -1.67158 7.86329 0
M  V30 2999 H 283.283 -0.439851 0.51333 0
M  V30 3000 H 285.837 -0.776084 1.90174 0
M  V30 3001 H 284.067 -3.32994 1.96601 0
M  V30 3002 H 285.756 -3.28615 2.38259 0
M  V30 3003 H 286.522 -1.91751 4.45485 0
M  V30 3004 H 282.401 -2.83179 3.63773 0
M  V30 3005 H 285.945 -1.48465 6.81619 0
M  V30 3006 H 281.842 -2.40306 5.99102 0
M  V30 3007 H 282.61 -1.81386 7.98149 0
M  V30 3008 N 285.273 -1.31445 -0.869486 0
M  V30 3009 C 286.205 -1.14955 -1.98287 0
M  V30 3010 C 287.218 -0.0885037 -1.62559 0
M  V30 3011 O 288.407 -0.336044 -1.75308 0
M  V30 3012 C 285.507 -0.734255 -3.3085 0
M  V30 3013 C 284.68 -1.88042 -3.94917 0
M  V30 3014 C 283.739 -1.4511 -5.05796 0
M  V30 3015 O 282.765 -2.16082 -5.2659 0
M  V30 3016 N 283.967 -0.338763 -5.79511 0
M  V30 3017 H 286.732 -2.10856 -2.12979 0
M  V30 3018 H 284.293 -1.23786 -1.04349 0
M  V30 3019 H 286.285 -0.42975 -4.02412 0
M  V30 3020 H 284.855 0.133158 -3.12316 0
M  V30 3021 H 284.075 -2.35222 -3.1633 0
M  V30 3022 H 285.363 -2.6481 -4.34457 0
M  V30 3023 H 284.761 0.252274 -5.65137 0
M  V30 3024 H 283.318 -0.0937925 -6.51733 0
M  V30 3025 N 286.751 1.08385 -1.14413 0
M  V30 3026 C 287.997 1.81212 -0.923793 0
M  V30 3027 C 288.352 1.84555 0.543814 0
M  V30 3028 O 287.645 1.31056 1.39767 0
M  V30 3029 C 287.839 3.26273 -1.45879 0
M  V30 3030 C 287.668 3.37063 -2.97689 0
M  V30 3031 C 286.438 3.4824 -3.66138 0
M  V30 3032 C 288.636 3.28698 -3.95553 0
M  V30 3033 N 286.618 3.47824 -5.05858 0
M  V30 3034 C 287.989 3.35276 -5.21527 0
M  V30 3035 C 290.044 3.12437 -3.8767 0
M  V30 3036 C 288.747 3.27267 -6.40538 0
M  V30 3037 C 290.773 3.05757 -5.06228 0
M  V30 3038 C 290.135 3.12938 -6.3107 0
M  V30 3039 H 286.234 0.6769 -0.391574 0
M  V30 3040 H 288.818 1.29455 -1.45429 0
M  V30 3041 H 286.989 3.76474 -0.95507 0
M  V30 3042 H 288.721 3.87165 -1.17835 0
M  V30 3043 H 285.476 3.52141 -3.16692 0
M  V30 3044 H 285.9 3.51171 -5.78798 0
M  V30 3045 H 290.542 3.05747 -2.92025 0
M  V30 3046 H 288.26 3.32718 -7.36427 0
M  V30 3047 H 291.846 2.94295 -5.01878 0
M  V30 3048 H 290.726 3.078 -7.21269 0
M  V30 3049 N 288.23 0.939286 1.26551 0
M  V30 3050 C 289.177 0.446088 2.26448 0
M  V30 3051 C 290.147 -0.493234 1.58608 0
M  V30 3052 O 291.332 -0.409857 1.86346 0
M  V30 3053 C 288.472 -0.284375 3.43926 0
M  V30 3054 C 287.585 0.690399 4.26448 0
M  V30 3055 C 286.72 -0.0610712 5.31165 0
M  V30 3056 C 285.759 0.905649 6.05363 0
M  V30 3057 N 284.896 0.186055 7.01853 0
M  V30 3058 H 289.736 1.30291 2.68008 0
M  V30 3059 H 287.273 0.65371 1.31776 0
M  V30 3060 H 289.231 -0.724313 4.10864 0
M  V30 3061 H 287.861 -1.10535 3.03285 0
M  V30 3062 H 286.913 1.24885 3.59316 0
M  V30 3063 H 288.225 1.42873 4.779 0
M  V30 3064 H 287.379 -0.56038 6.04106 0
M  V30 3065 H 286.118 -0.832297 4.80546 0
M  V30 3066 H 285.123 1.4161 5.3125 0
M  V30 3067 H 286.348 1.67685 6.58072 0
M  V30 3068 H 284.294 -0.566714 6.53548 0
M  V30 3069 H 284.211 0.863752 7.51049 0
M  V30 3070 H 285.479 -0.292221 7.78952 0
M  V30 3071 N 289.708 -1.40897 0.706093 0
M  V30 3072 C 291.124 -1.55042 0.37869 0
M  V30 3073 C 291.324 -1.67944 -1.11342 0
M  V30 3074 O 290.38 -1.66372 -1.89938 0
M  V30 3075 C 291.693 -2.78398 1.13643 0
M  V30 3076 C 293.241 -2.92206 1.12181 0
M  V30 3077 C 293.716 -4.18463 1.86152 0
M  V30 3078 N 295.207 -4.25443 1.83173 0
M  V30 3079 C 295.942 -5.2202 2.37239 0
M  V30 3080 N 295.438 -6.24563 2.99821 0
M  V30 3081 N 297.231 -5.14033 2.27435 0
M  V30 3082 H 289.382 -1.30769 1.67372 0
M  V30 3083 H 291.645 -0.631653 0.706907 0
M  V30 3084 H 291.351 -2.7511 2.19106 0
M  V30 3085 H 291.225 -3.70228 0.721853 0
M  V30 3086 H 293.612 -2.95004 0.0754171 0
M  V30 3087 H 293.693 -2.01521 1.57554 0
M  V30 3088 H 293.337 -4.16427 2.90776 0
M  V30 3089 H 293.267 -5.08141 1.38206 0
M  V30 3090 H 295.758 -3.51976 1.37556 0
M  V30 3091 H 296.071 -6.94665 3.38616 0
M  V30 3092 H 294.416 -6.25035 3.03902 0
M  V30 3093 H 297.607 -4.3285 1.78208 0
M  V30 3094 H 297.78 -5.89129 2.69873 0
M  V30 3095 N 291.186 -0.45159 -1.50991 0
M  V30 3096 C 292.432 0.110237 -2.025 0
M  V30 3097 C 292.765 1.41109 -1.33424 0
M  V30 3098 O 292.04 1.89135 -0.453659 0
M  V30 3099 C 292.323 0.314271 -3.58726 0
M  V30 3100 C 292.176 -1.00623 -4.38401 0
M  V30 3101 C 293.495 1.07767 -4.26702 0
M  V30 3102 H 290.614 0.0385897 -0.735989 0
M  V30 3103 H 293.256 -0.593374 -1.80497 0
M  V30 3104 H 291.406 0.913601 -3.77605 0
M  V30 3105 H 293.078 -1.64064 -4.31139 0
M  V30 3106 H 291.321 -1.6075 -4.02917 0
M  V30 3107 H 291.992 -0.817341 -5.45915 0
M  V30 3108 H 294.468 0.56986 -4.12179 0
M  V30 3109 H 293.344 1.18921 -5.35863 0
M  V30 3110 H 293.605 2.10939 -3.88532 0
M  V30 3111 N 292.664 1.56529 -0.183458 0
M  V30 3112 C 293.912 1.96855 0.457452 0
M  V30 3113 C 294.233 1.07104 1.62953 0
M  V30 3114 O 293.503 0.139887 1.954 0
M  V30 3115 H 292.083 0.72693 0.171992 0
M  V30 3116 H 294.745 1.93056 -0.267476 0
M  V30 3117 H 293.841 3.01423 0.809368 0
M  V30 3118 N 294.142 -0.090211 1.57342 0
M  V30 3119 C 295.37 -0.806224 1.90546 0
M  V30 3120 C 295.785 -1.72041 0.777644 0
M  V30 3121 O 295.142 -1.80778 -0.250103 0
M  V30 3122 C 295.193 -1.61546 3.23396 0
M  V30 3123 O 294.914 -0.738043 4.31839 0
M  V30 3124 C 296.415 -2.4341 3.70495 0
M  V30 3125 H 293.635 -0.230256 0.630257 0
M  V30 3126 H 296.179 -0.0659843 2.04394 0
M  V30 3127 H 294.334 -2.30816 3.11131 0
M  V30 3128 H 294.748 -1.29901 5.08159 0
M  V30 3129 H 296.222 -2.95676 4.66133 0
M  V30 3130 H 296.699 -3.22098 2.98579 0
M  V30 3131 H 297.305 -1.79331 3.85643 0
M  V30 3132 N 295.62 -1.53406 -0.361157 0
M  V30 3133 C 296.55 -1.83136 -1.44857 0
M  V30 3134 C 297.531 -0.685174 -1.5569 0
M  V30 3135 O 298.716 -0.93544 -1.70186 0
M  V30 3136 C 295.846 -2.02522 -2.82138 0
M  V30 3137 C 294.8 -3.18302 -2.86126 0
M  V30 3138 C 294.126 -3.22989 -4.26125 0
M  V30 3139 C 295.426 -4.56796 -2.53248 0
M  V30 3140 H 297.12 -2.74201 -1.20226 0
M  V30 3141 H 294.666 -1.31938 -0.576922 0
M  V30 3142 H 296.619 -2.21904 -3.58241 0
M  V30 3143 H 295.343 -1.08172 -3.08166 0
M  V30 3144 H 294.002 -2.98747 -2.12475 0
M  V30 3145 H 293.65 -2.26267 -4.49235 0
M  V30 3146 H 293.35 -4.00781 -4.29708 0
M  V30 3147 H 294.874 -3.44559 -5.04094 0
M  V30 3148 H 296.288 -4.7631 -3.19064 0
M  V30 3149 H 294.685 -5.36862 -2.68141 0
M  V30 3150 H 295.755 -4.61606 -1.48484 0
M  V30 3151 N 297.098 0.621204 -1.44841 0
M  V30 3152 C 298.326 1.40752 -1.51646 0
M  V30 3153 C 298.741 1.88246 -0.144549 0
M  V30 3154 O 298.098 1.61422 0.851416 0
M  V30 3155 C 298.149 2.62119 -2.4895 0
M  V30 3156 O 297.87 2.16602 -3.80808 0
M  V30 3157 C 299.371 3.55135 -2.65319 0
M  V30 3158 H 296.591 0.431325 -0.514004 0
M  V30 3159 H 299.135 0.758835 -1.899 0
M  V30 3160 H 297.29 3.23058 -2.13805 0
M  V30 3161 H 297.704 2.95358 -4.33433 0
M  V30 3162 H 299.178 4.36874 -3.37409 0
M  V30 3163 H 299.655 4.04592 -1.70886 0
M  V30 3164 H 300.261 3.00058 -3.01405 0
M  V30 3165 N 298.576 1.31904 0.862503 0
M  V30 3166 C 299.508 1.16005 1.97675 0
M  V30 3167 C 300.521 0.0971234 1.6251 0
M  V30 3168 O 301.71 0.345337 1.75128 0
M  V30 3169 C 298.81 0.751791 3.30456 0
M  V30 3170 C 297.983 1.90133 3.93914 0
M  V30 3171 C 297.042 1.4779 5.05019 0
M  V30 3172 O 296.068 2.18872 5.25437 0
M  V30 3173 N 297.27 0.369491 5.79323 0
M  V30 3174 H 300.035 2.11982 2.11857 0
M  V30 3175 H 297.596 1.24337 1.03691 0
M  V30 3176 H 299.588 0.451084 4.02178 0
M  V30 3177 H 298.158 -0.116593 3.12382 0
M  V30 3178 H 297.378 2.36896 3.15078 0
M  V30 3179 H 298.666 2.67111 4.33047 0
M  V30 3180 H 298.064 -0.222299 5.65263 0
M  V30 3181 H 296.621 0.128354 6.51674 0
M  V30 3182 N 300.054 -1.07777 1.14986 0
M  V30 3183 C 301.331 -1.7699 0.832695 0
M  V30 3184 C 301.711 -2.001 -0.672561 0
M  V30 3185 O 301.059 -1.61598 -1.6155 0
M  V30 3186 C 301.269 -3.08139 1.63863 0
M  V30 3187 C 302.617 -3.8256 1.84208 0
M  V30 3188 O 303.641 -3.17939 1.60603 0
M  V30 3189 O 302.5 -4.98612 2.23714 0
M  V30 3190 H 299.594 -0.768389 0.305791 0
M  V30 3191 H 302.14 -1.14182 1.25541 0
M  V30 3192 H 300.912 -2.86909 2.6608 0
M  V30 3193 H 300.535 -3.78678 1.21197 0
M  V30 3194 N 301.532 -0.945985 -1.26051 0
M  V30 3195 C 302.778 -0.597002 -1.93814 0
M  V30 3196 C 303.111 0.862484 -1.73997 0
M  V30 3197 O 302.386 1.61769 -1.07986 0
M  V30 3198 C 302.669 -0.945937 -3.47454 0
M  V30 3199 C 302.522 -2.46052 -3.76535 0
M  V30 3200 C 303.841 -0.464785 -4.37639 0
M  V30 3201 H 300.96 -0.218366 -0.703907 0
M  V30 3202 H 303.602 -1.18107 -1.48831 0
M  V30 3203 H 301.752 -0.448902 -3.85898 0
M  V30 3204 H 303.424 -3.03065 -3.47778 0
M  V30 3205 H 301.667 -2.90194 -3.22444 0
M  V30 3206 H 302.338 -2.65517 -4.83947 0
M  V30 3207 H 304.814 -0.891016 -4.06448 0
M  V30 3208 H 303.69 -0.737712 -5.4392 0
M  V30 3209 H 303.951 0.635274 -4.37512 0
M  V30 3210 N 303.011 1.40521 -0.713556 0
M  V30 3211 C 303.943 2.29191 -0.0203126 0
M  V30 3212 C 304.956 1.45723 0.725864 0
M  V30 3213 O 306.145 1.69033 0.573581 0
M  V30 3214 C 303.245 3.2395 0.995486 0
M  V30 3215 C 302.418 4.36262 0.315256 0
M  V30 3216 C 301.477 5.11474 1.23616 0
M  V30 3217 O 300.503 5.64606 0.721719 0
M  V30 3218 N 301.705 5.20638 2.56743 0
M  V30 3219 H 304.47 2.89327 -0.781652 0
M  V30 3220 H 302.031 1.51869 -0.561022 0
M  V30 3221 H 304.023 3.71137 1.61368 0
M  V30 3222 H 302.593 2.64995 1.6582 0
M  V30 3223 H 301.813 3.91228 -0.483106 0
M  V30 3224 H 303.101 5.08558 -0.157004 0
M  V30 3225 H 302.499 4.7895 3.01037 0
M  V30 3226 H 301.056 5.71339 3.13712 0
M  V30 3227 N 304.489 0.459591 1.5075 0
M  V30 3228 C 305.905 0.113092 1.59199 0
M  V30 3229 C 306.105 -1.37951 1.46874 0
M  V30 3230 O 305.161 -2.15168 1.32132 0
M  V30 3231 C 306.474 0.653043 2.93523 0
M  V30 3232 C 308.022 0.615449 3.0689 0
M  V30 3233 C 308.497 1.13275 4.43771 0
M  V30 3234 N 309.988 1.09167 4.50152 0
M  V30 3235 C 310.723 1.46256 5.54434 0
M  V30 3236 N 310.219 1.90739 6.66026 0
M  V30 3237 N 312.012 1.37932 5.44914 0
M  V30 3238 H 304.163 1.43049 1.57005 0
M  V30 3239 H 306.426 0.590861 0.741341 0
M  V30 3240 H 306.132 1.69822 3.07983 0
M  V30 3241 H 306.006 0.0902132 3.77092 0
M  V30 3242 H 308.393 -0.420793 2.92084 0
M  V30 3243 H 308.474 1.21495 2.25106 0
M  V30 3244 H 308.118 2.16757 4.59324 0
M  V30 3245 H 308.048 0.509576 5.24129 0
M  V30 3246 H 310.539 0.76528 3.7007 0
M  V30 3247 H 310.852 2.17218 7.41644 0
M  V30 3248 H 309.197 1.94683 6.67176 0
M  V30 3249 H 312.388 1.0303 4.56621 0
M  V30 3250 H 312.561 1.67164 6.26067 0
M  V30 3251 N 305.967 -1.56429 0.191757 0
M  V30 3252 C 307.214 -1.97485 -0.447891 0
M  V30 3253 C 307.542 -1.07852 -1.61859 0
M  V30 3254 O 306.797 -0.116903 -1.95351 0
M  V30 3255 C 307.096 -3.44449 -0.953384 0
M  V30 3256 C 306.762 -4.50781 0.103586 0
M  V30 3257 C 305.424 -4.79584 0.394023 0
M  V30 3258 C 307.776 -5.1471 0.819946 0
M  V30 3259 C 305.104 -5.69607 1.40585 0
M  V30 3260 C 307.456 -6.05827 1.8209 0
M  V30 3261 C 306.12 -6.32987 2.11857 0
M  V30 3262 H 305.39 -0.722648 -0.163895 0
M  V30 3263 H 308.037 -1.89322 0.28802 0
M  V30 3264 H 306.342 -3.49666 -1.76751 0
M  V30 3265 H 308.039 -3.73569 -1.45765 0
M  V30 3266 H 304.629 -4.28394 -0.132951 0
M  V30 3267 H 308.813 -4.92552 0.608789 0
M  V30 3268 H 304.069 -5.88926 1.64243 0
M  V30 3269 H 308.243 -6.54424 2.38123 0
M  V30 3270 H 305.87 -7.02544 2.90407 0
M  V30 3271 N 307.445 0.0818655 -1.57387 0
M  V30 3272 C 308.67 0.799946 -1.91352 0
M  V30 3273 C 309.095 1.70833 -0.787258 0
M  V30 3274 O 308.453 1.79419 0.26048 0
M  V30 3275 C 308.501 1.57812 -3.24234 0
M  V30 3276 O 307.605 2.68806 -3.12757 0
M  V30 3277 H 306.946 0.21891 -0.626877 0
M  V30 3278 H 309.476 0.0531256 -2.04531 0
M  V30 3279 H 309.486 1.95952 -3.57864 0
M  V30 3280 H 308.161 0.911548 -4.05788 0
M  V30 3281 H 306.738 2.33597 -2.90666 0
M  V30 3282 N 308.923 1.53595 0.353017 0
M  V30 3283 C 309.833 1.83897 1.45667 0
M  V30 3284 C 310.849 0.728334 1.58023 0
M  V30 3285 O 312.025 1.01968 1.73679 0
M  V30 3286 C 309.09 2.03383 2.80778 0
M  V30 3287 C 308.151 3.27262 2.77845 0
M  V30 3288 C 307.384 3.45809 4.06512 0
M  V30 3289 O 307.607 2.68387 5.03314 0
M  V30 3290 O 306.541 4.39207 4.11559 0
M  V30 3291 H 310.367 2.77686 1.2298 0
M  V30 3292 H 307.952 1.39132 0.544308 0
M  V30 3293 H 309.834 2.17698 3.60812 0
M  V30 3294 H 308.509 1.12783 3.03417 0
M  V30 3295 H 307.416 3.18359 1.96465 0
M  V30 3296 H 308.749 4.17824 2.60161 0
M  V30 3297 N 310.401 -0.613514 1.45168 0
M  V30 3298 C 311.647 -1.37471 1.49096 0
M  V30 3299 C 311.98 -1.93765 0.129901 0
M  V30 3300 O 311.255 -1.74707 -0.854858 0
M  V30 3301 C 311.538 -2.52701 2.56542 0
M  V30 3302 C 311.391 -2.01643 4.0207 0
M  V30 3303 C 312.71 -3.54849 2.60327 0
M  V30 3304 H 309.829 -0.498502 0.54283 0
M  V30 3305 H 312.471 -0.692125 1.76945 0
M  V30 3306 H 310.621 -3.10931 2.32926 0
M  V30 3307 H 312.293 -1.48108 4.36877 0
M  V30 3308 H 310.536 -1.32688 4.13009 0
M  V30 3309 H 311.207 -2.84681 4.72928 0
M  V30 3310 H 313.683 -3.0645 2.81474 0
M  V30 3311 H 312.559 -4.32973 3.37381 0
M  V30 3312 H 312.82 -4.10079 1.6519 0
M  V30 3313 N 311.879 -1.3236 -0.855495 0
M  V30 3314 C 313.295 -1.11332 -1.14356 0
M  V30 3315 C 313.495 0.106751 -2.01217 0
M  V30 3316 O 312.551 0.791891 -2.39761 0
M  V30 3317 C 313.864 -2.39237 -1.82171 0
M  V30 3318 C 315.412 -2.44986 -1.9481 0
M  V30 3319 C 315.887 -3.7281 -2.66039 0
M  V30 3320 N 317.378 -3.73787 -2.73565 0
M  V30 3321 C 318.113 -4.69394 -3.29327 0
M  V30 3322 N 317.609 -5.75367 -3.85907 0
M  V30 3323 N 319.402 -4.56893 -3.27423 0
M  V30 3324 H 311.553 -2.10586 -0.277027 0
M  V30 3325 H 313.816 -0.929701 -0.185364 0
M  V30 3326 H 313.522 -3.28431 -1.25802 0
M  V30 3327 H 313.396 -2.50134 -2.82335 0
M  V30 3328 H 315.783 -1.56252 -2.50338 0
M  V30 3329 H 315.864 -2.38043 -0.936448 0
M  V30 3330 H 315.508 -4.61918 -2.11174 0
M  V30 3331 H 315.438 -3.77024 -3.67642 0
M  V30 3332 H 317.929 -2.97189 -2.33424 0
M  V30 3333 H 318.242 -6.44378 -4.26611 0
M  V30 3334 H 316.587 -5.79123 -3.84242 0
M  V30 3335 H 319.778 -3.73269 -2.82467 0
M  V30 3336 H 319.951 -5.31577 -3.7058 0
M  V30 3337 N 313.357 1.07166 -1.15556 0
M  V30 3338 C 314.305 2.16517 -0.8499 0
M  V30 3339 C 315.299 1.68468 0.177454 0
M  V30 3340 O 316.505 1.79971 0.0323026 0
M  V30 3341 H 312.88 0.706652 -0.25719 0
M  V30 3342 H 314.851 2.39514 -1.77976 0
M  V30 3343 C 313.6 3.45855 -0.357682 0
M  V30 3344 H 312.923 3.83214 -1.13961 0
M  V30 3345 H 314.363 4.23607 -0.182489 0
M  V30 3346 C 312.822 3.24062 0.921152 0
M  V30 3347 O 313.352 3.48813 1.9923 0
M  V30 3348 N 311.558 2.77539 0.86141 0
M  V30 3349 H 311.105 2.57598 -0.0104408 0
M  V30 3350 H 311.063 2.63337 1.71758 0
M  V30 3351 N 314.835 0.952656 1.25548 0
M  V30 3352 C 316.112 0.523818 1.88456 0
M  V30 3353 C 316.492 -0.998871 1.85973 0
M  V30 3354 O 315.84 -1.86381 1.3219 0
M  V30 3355 C 316.05 1.0982 3.31271 0
M  V30 3356 C 317.398 1.17385 4.08051 0
M  V30 3357 O 318.422 1.04961 3.40384 0
M  V30 3358 O 317.281 1.36852 5.29088 0
M  V30 3359 H 314.375 0.172485 0.808813 0
M  V30 3360 H 316.921 1.04596 1.33633 0
M  V30 3361 H 315.693 2.1415 3.27499 0
M  V30 3362 H 315.316 0.559191 3.93648 0
M  V30 3363 N 316.313 -1.40141 0.720998 0
M  V30 3364 C 317.243 -2.33339 0.0867621 0
M  V30 3365 C 318.224 -1.53178 -0.739622 0
M  V30 3366 O 319.409 -1.81625 -0.687449 0
M  V30 3367 C 316.539 -3.37194 -0.831728 0
M  V30 3368 C 315.493 -4.27857 -0.110558 0
M  V30 3369 C 314.819 -5.22294 -1.14513 0
M  V30 3370 C 316.119 -5.11872 1.0385 0
M  V30 3371 H 317.813 -2.86626 0.865219 0
M  V30 3372 H 315.359 -1.37814 0.417516 0
M  V30 3373 H 317.312 -4.01335 -1.28485 0
M  V30 3374 H 316.036 -2.82314 -1.64214 0
M  V30 3375 H 314.695 -3.65176 0.322797 0
M  V30 3376 H 314.343 -4.63717 -1.94874 0
M  V30 3377 H 314.043 -5.83797 -0.667446 0
M  V30 3378 H 315.567 -5.89312 -1.59824 0
M  V30 3379 H 316.981 -5.69436 0.664482 0
M  V30 3380 H 315.378 -5.82445 1.4449 0
M  V30 3381 H 316.448 -4.4753 1.86668 0
M  V30 3382 N 317.792 -0.46758 -1.50504 0
M  V30 3383 C 319.02 0.0864133 -2.06719 0
M  V30 3384 C 319.435 1.33819 -1.33184 0
M  V30 3385 O 318.792 1.78061 -0.400083 0
M  V30 3386 C 318.843 0.378079 -3.59517 0
M  V30 3387 O 318.564 -0.824044 -4.3028 0
M  V30 3388 C 320.065 0.979426 -4.32345 0
M  V30 3389 H 317.285 -0.00551697 -0.670977 0
M  V30 3390 H 319.829 -0.655354 -1.93715 0
M  V30 3391 H 317.984 1.06977 -3.72337 0
M  V30 3392 H 318.398 -0.566518 -5.21432 0
M  V30 3393 H 319.872 1.1333 -5.40241 0
M  V30 3394 H 320.349 1.9686 -3.9261 0
M  V30 3395 H 320.955 0.326216 -4.24047 0
M  V30 3396 N 319.27 1.56325 -0.20005 0
M  V30 3397 C 320.518 1.97329 0.436547 0
M  V30 3398 C 320.839 1.08826 1.61808 0
M  V30 3399 O 320.109 0.160604 1.95241 0
M  V30 3400 H 318.689 0.728714 0.164272 0
M  V30 3401 H 321.351 1.92761 -0.287937 0
M  V30 3402 H 320.447 3.02264 0.777353 0
M  V30 3403 N 320.748 -0.0735177 1.57428 0
M  V30 3404 C 321.994 -0.774145 1.87443 0
M  V30 3405 C 322.327 -1.77311 0.792103 0
M  V30 3406 O 321.602 -1.93492 -0.197793 0
M  V30 3407 C 321.885 -1.48367 3.28115 0
M  V30 3408 C 321.738 -0.501227 4.46999 0
M  V30 3409 C 323.057 -2.429 3.66998 0
M  V30 3410 H 320.176 -0.279971 0.681752 0
M  V30 3411 H 322.818 -0.0373616 1.89963 0
M  V30 3412 H 320.968 -2.11171 3.26097 0
M  V30 3413 H 322.64 0.121468 4.6114 0
M  V30 3414 H 320.883 0.183593 4.33411 0
M  V30 3415 H 321.554 -1.03526 5.42205 0
M  V30 3416 H 324.03 -1.90175 3.70098 0
M  V30 3417 H 322.906 -2.89549 4.66318 0
M  V30 3418 H 323.167 -3.27628 2.96837 0
M  V30 3419 N 322.226 -1.5378 -0.344866 0
M  V30 3420 C 323.156 -1.84662 -1.42906 0
M  V30 3421 C 324.137 -0.701648 -1.54955 0
M  V30 3422 O 325.322 -0.953438 -1.69184 0
M  V30 3423 C 322.452 -2.05503 -2.79974 0
M  V30 3424 C 321.406 -3.21318 -2.82734 0
M  V30 3425 C 320.732 -3.2749 -4.22675 0
M  V30 3426 C 322.032 -4.59456 -2.48389 0
M  V30 3427 H 323.726 -2.75461 -1.17311 0
M  V30 3428 H 321.272 -1.32542 -0.562896 0
M  V30 3429 H 323.225 -2.25691 -3.55867 0
M  V30 3430 H 321.949 -1.11434 -3.07002 0
M  V30 3431 H 320.608 -3.00984 -2.09294 0
M  V30 3432 H 320.256 -2.31019 -4.4681 0
M  V30 3433 H 319.956 -4.05316 -4.25433 0
M  V30 3434 H 321.48 -3.49887 -5.00412 0
M  V30 3435 H 322.894 -4.79667 -3.13995 0
M  V30 3436 H 321.291 -5.39675 -2.62432 0
M  V30 3437 H 322.361 -4.63155 -1.4358 0
M  V30 3438 N 323.704 0.605807 -1.45491 0
M  V30 3439 C 324.934 1.38934 -1.52908 0
M  V30 3440 C 325.342 1.88513 -0.161086 0
M  V30 3441 O 324.685 1.62962 0.847891 0
M  V30 3442 C 324.747 2.62737 -2.45376 0
M  V30 3443 C 324.411 2.34785 -3.92078 0
M  V30 3444 C 325.408 1.95038 -4.8193 0
M  V30 3445 C 323.093 2.47642 -4.37011 0
M  V30 3446 C 325.087 1.68511 -6.14722 0
M  V30 3447 C 322.774 2.20728 -5.69844 0
M  V30 3448 C 323.772 1.81225 -6.58519 0
M  V30 3449 O 323.46 1.54627 -7.88889 0
M  V30 3450 H 323.192 0.431629 -0.520262 0
M  V30 3451 H 325.746 0.74573 -1.91384 0
M  V30 3452 H 323.976 3.29824 -2.01874 0
M  V30 3453 H 325.665 3.24783 -2.43456 0
M  V30 3454 H 326.431 1.84639 -4.48479 0
M  V30 3455 H 322.31 2.77356 -3.68232 0
M  V30 3456 H 325.854 1.37602 -6.83894 0
M  V30 3457 H 321.751 2.30744 -6.02849 0
M  V30 3458 H 322.519 1.68665 -8.00933 0
M  V30 3459 N 325.182 1.32811 0.848464 0
M  V30 3460 C 326.43 1.23479 1.59991 0
M  V30 3461 C 326.751 -0.201853 1.93952 0
M  V30 3462 O 326.021 -1.12818 1.60153 0
M  V30 3463 H 324.601 0.454034 0.593179 0
M  V30 3464 H 327.263 1.66412 1.01455 0
M  V30 3465 H 326.359 1.82178 2.53412 0
M  V30 3466 N 326.66 -1.06551 1.16123 0
M  V30 3467 C 327.57 -2.17484 0.879662 0
M  V30 3468 C 328.586 -1.73377 -0.147104 0
M  V30 3469 O 329.762 -2.01379 0.0289128 0
M  V30 3470 C 326.827 -3.44591 0.381829 0
M  V30 3471 C 325.888 -4.0322 1.4735 0
M  V30 3472 C 325.121 -5.24261 0.999324 0
M  V30 3473 O 325.344 -5.70198 -0.151957 0
M  V30 3474 O 324.278 -5.74775 1.78653 0
M  V30 3475 H 328.104 -2.44075 1.80724 0
M  V30 3476 H 325.689 -1.16042 0.940992 0
M  V30 3477 H 327.571 -4.21254 0.111053 0
M  V30 3478 H 326.246 -3.19532 -0.51777 0
M  V30 3479 H 325.153 -3.2806 1.79798 0
M  V30 3480 H 326.486 -4.32568 2.34831 0
M  V30 3481 N 328.138 -0.959301 -1.25041 0
M  V30 3482 C 329.415 -0.533805 -1.88175 0
M  V30 3483 C 329.795 0.988994 -1.865 0
M  V30 3484 O 329.143 1.85677 -1.33177 0
M  V30 3485 C 329.353 -1.11575 -3.30684 0
M  V30 3486 C 330.701 -1.19548 -4.07423 0
M  V30 3487 O 331.725 -1.06765 -3.39823 0
M  V30 3488 O 330.584 -1.39656 -5.28354 0
M  V30 3489 H 327.678 -0.176772 -0.807887 0
M  V30 3490 H 330.224 -1.05303 -1.33076 0
M  V30 3491 H 328.996 -2.15884 -3.26358 0
M  V30 3492 H 328.619 -0.580059 -3.93346 0
M  V30 3493 N 329.616 1.39756 -0.72842 0
M  V30 3494 C 330.865 1.99879 -0.270407 0
M  V30 3495 C 331.178 1.58449 1.14688 0
M  V30 3496 O 332.384 2.11362 1.70407 0
M  V30 3497 C 330.84 3.57292 -0.43252 0
M  V30 3498 C 330.448 4.07688 -1.85727 0
M  V30 3499 C 332.192 4.24485 -0.0359507 0
M  V30 3500 C 330.099 5.5765 -1.96928 0
M  V30 3501 H 329.029 0.747689 -0.0973472 0
M  V30 3502 H 331.68 1.59837 -0.901355 0
M  V30 3503 H 330.062 3.95097 0.267219 0
M  V30 3504 H 331.236 3.81231 -2.58843 0
M  V30 3505 H 329.551 3.53135 -2.20646 0
M  V30 3506 H 332.148 5.34609 -0.0987484 0
M  V30 3507 H 332.491 4.03915 1.00787 0
M  V30 3508 H 333.024 3.9183 -0.686604 0
M  V30 3509 H 329.763 5.8309 -2.99476 0
M  V30 3510 H 329.283 5.8593 -1.28241 0
M  V30 3511 H 330.962 6.22957 -1.74737 0
M  V30 3512 N 331.094 0.475555 1.50254 0
M  V30 3513 C 332.004 -0.321501 2.32387 0
M  V30 3514 C 333.02 -0.991755 1.42969 0
M  V30 3515 O 334.196 -0.978747 1.76018 0
M  V30 3516 C 331.261 -1.38667 3.17762 0
M  V30 3517 C 330.322 -0.732538 4.23004 0
M  V30 3518 C 329.555 -1.74695 5.04299 0
M  V30 3519 O 329.778 -2.97399 4.86734 0
M  V30 3520 O 328.712 -1.31631 5.8733 0
M  V30 3521 H 332.538 0.350071 3.01676 0
M  V30 3522 H 330.123 0.237321 1.47503 0
M  V30 3523 H 332.005 -2.00354 3.70724 0
M  V30 3524 H 330.68 -2.04163 2.51196 0
M  V30 3525 H 329.587 -0.0765902 3.74022 0
M  V30 3526 H 330.92 -0.120452 4.92053 0
M  V30 3527 N 332.573 -1.56217 0.208337 0
M  V30 3528 C 333.822 -1.97124 -0.427204 0
M  V30 3529 C 334.135 -1.09859 -1.61835 0
M  V30 3530 O 335.341 -1.40606 -2.32255 0
M  V30 3531 C 333.797 -3.50633 -0.811442 0
M  V30 3532 C 333.405 -4.46582 0.35615 0
M  V30 3533 C 335.149 -4.00282 -1.41332 0
M  V30 3534 C 333.056 -5.91379 -0.0497852 0
M  V30 3535 H 331.986 -0.736086 -0.163381 0
M  V30 3536 H 334.637 -1.8099 0.302456 0
M  V30 3537 H 333.019 -3.62319 -1.59815 0
M  V30 3538 H 334.193 -4.46636 1.1337 0
M  V30 3539 H 332.508 -4.07202 0.870396 0
M  V30 3540 H 335.105 -5.0595 -1.72972 0
M  V30 3541 H 335.448 -3.45359 -2.32449 0
M  V30 3542 H 335.981 -3.91764 -0.690323 0
M  V30 3543 H 332.72 -6.50255 0.827529 0
M  V30 3544 H 332.24 -5.94549 -0.791926 0
M  V30 3545 H 333.919 -6.45209 -0.481042 0
M  V30 3546 N 334.051 0.0651679 -1.57465 0
M  V30 3547 C 335.276 0.779605 -1.9219 0
M  V30 3548 C 335.701 1.69988 -0.805333 0
M  V30 3549 O 335.059 1.79685 0.241435 0
M  V30 3550 C 335.107 1.54364 -3.2589 0
M  V30 3551 O 334.211 2.65474 -3.1559 0
M  V30 3552 H 333.552 0.212249 -0.629163 0
M  V30 3553 H 336.082 0.0314294 -2.04576 0
M  V30 3554 H 336.092 1.92146 -3.59922 0
M  V30 3555 H 334.767 0.868457 -4.06732 0
M  V30 3556 H 333.344 2.30501 -2.93128 0
M  V30 3557 N 335.529 1.53961 0.336706 0
M  V30 3558 C 336.806 1.62171 1.09361 0
M  V30 3559 C 337.186 0.447263 2.06307 0
M  V30 3560 O 336.534 -0.559802 2.21537 0
M  V30 3561 C 336.744 2.98565 1.80721 0
M  V30 3562 C 338.092 3.54157 2.34218 0
M  V30 3563 O 339.116 3.00784 1.90807 0
M  V30 3564 O 337.975 4.47528 3.13657 0
M  V30 3565 H 335.069 0.6562 0.503319 0
M  V30 3566 H 337.615 1.66307 0.33765 0
M  V30 3567 H 336.387 3.75482 1.10132 0
M  V30 3568 H 336.01 2.9805 2.63158 0
M  V30 3569 N 337.007 -0.598083 1.45811 0
M  V30 3570 C 338.235 -1.38322 1.53866 0
M  V30 3571 C 338.65 -1.87992 0.174479 0
M  V30 3572 O 338.007 -1.62756 -0.825627 0
M  V30 3573 C 338.058 -2.58125 2.53089 0
M  V30 3574 O 337.779 -2.10516 3.84206 0
M  V30 3575 C 339.28 -3.50869 2.70935 0
M  V30 3576 H 336.5 -0.423093 0.520801 0
M  V30 3577 H 339.044 -0.728527 1.91083 0
M  V30 3578 H 337.199 -3.19615 2.18917 0
M  V30 3579 H 337.613 -2.88425 4.38077 0
M  V30 3580 H 339.087 -4.31451 3.44317 0
M  V30 3581 H 339.564 -4.01822 1.77301 0
M  V30 3582 H 340.17 -2.95225 3.06141 0
M  V30 3583 N 338.485 -1.33259 -0.841409 0
M  V30 3584 C 339.395 -1.25332 -1.98316 0
M  V30 3585 C 340.411 -0.164364 -1.73222 0
M  V30 3586 O 341.587 -0.387486 -1.97637 0
M  V30 3587 C 338.652 -0.990078 -3.32262 0
M  V30 3588 C 337.713 -2.16879 -3.70489 0
M  V30 3589 C 336.946 -1.91801 -4.98044 0
M  V30 3590 O 337.169 -0.867075 -5.63771 0
M  V30 3591 O 336.103 -2.78267 -5.33714 0
M  V30 3592 H 339.929 -2.21344 -2.07944 0
M  V30 3593 H 337.514 -1.1328 -0.974058 0
M  V30 3594 H 339.396 -0.860321 -4.12524 0
M  V30 3595 H 338.071 -0.0602155 -3.23644 0
M  V30 3596 H 336.978 -2.35407 -2.90748 0
M  V30 3597 H 338.311 -3.0819 -3.8377 0
M  V30 3598 N 339.963 1.05934 -1.16686 0
M  V30 3599 C 341.188 1.83029 -0.975455 0
M  V30 3600 C 341.613 1.82096 0.471452 0
M  V30 3601 O 340.971 1.22443 1.33706 0
M  V30 3602 C 341.019 3.27372 -1.51195 0
M  V30 3603 O 340.123 4.06054 -0.720701 0
M  V30 3604 H 339.464 0.566194 -0.346872 0
M  V30 3605 H 341.994 1.33541 -1.55009 0
M  V30 3606 H 342.004 3.78186 -1.53099 0
M  V30 3607 H 340.679 3.27366 -2.56523 0
M  V30 3608 H 339.256 3.64812 -0.772458 0
M  V30 3609 N 341.441 0.965919 1.2453 0
M  V30 3610 C 342.688 0.626831 1.92554 0
M  V30 3611 C 343.016 -0.837739 1.75534 0
M  V30 3612 O 342.271 -1.61793 1.10098 0
M  V30 3613 C 342.57 0.945428 3.44669 0
M  V30 3614 C 342.236 2.39785 3.81856 0
M  V30 3615 C 340.898 2.79483 3.91718 0
M  V30 3616 C 343.25 3.34055 4.00071 0
M  V30 3617 C 340.578 4.12496 4.1721 0
M  V30 3618 C 342.93 4.66694 4.27059 0
M  V30 3619 C 341.594 5.06172 4.3514 0
M  V30 3620 H 340.864 0.229374 0.704605 0
M  V30 3621 H 343.511 1.21707 1.4785 0
M  V30 3622 H 341.816 0.272926 3.90848 0
M  V30 3623 H 343.513 0.661484 3.95507 0
M  V30 3624 H 340.103 2.08003 3.74743 0
M  V30 3625 H 344.287 3.04571 3.91855 0
M  V30 3626 H 339.543 4.42709 4.21685 0
M  V30 3627 H 343.717 5.3971 4.40097 0
M  V30 3628 H 341.344 6.09262 4.54646 0
M  V30 3629 N 342.919 -1.39368 0.735821 0
M  V30 3630 C 344.144 -2.05319 0.293052 0
M  V30 3631 C 344.569 -1.55115 -1.064 0
M  V30 3632 O 343.927 -0.695261 -1.67439 0
M  V30 3633 C 343.975 -3.59305 0.305323 0
M  V30 3634 O 343.079 -4.06299 -0.706761 0
M  V30 3635 H 342.42 -0.650529 0.13307 0
M  V30 3636 H 344.95 -1.78386 1.00197 0
M  V30 3637 H 344.96 -4.07724 0.149997 0
M  V30 3638 H 343.635 -3.95207 1.29553 0
M  V30 3639 H 342.212 -3.69292 -0.517504 0
M  V30 3640 N 344.397 -0.483516 -1.5 0
M  V30 3641 C 345.345 0.318061 -2.30415 0
M  V30 3642 C 346.339 0.978988 -1.38247 0
M  V30 3643 O 347.545 0.908673 -1.55381 0
M  V30 3644 H 343.92 0.121419 -0.742133 0
M  V30 3645 H 345.891 -0.380403 -2.95965 0
M  V30 3646 C 344.64 1.38013 -3.19136 0
M  V30 3647 H 343.963 0.880952 -3.89973 0
M  V30 3648 H 345.403 1.91332 -3.78375 0
M  V30 3649 C 343.862 2.38884 -2.37563 0
M  V30 3650 O 344.392 3.44412 -2.06744 0
M  V30 3651 N 342.598 2.10912 -1.99911 0
M  V30 3652 H 342.145 1.25118 -2.25174 0
M  V30 3653 H 342.103 2.78635 -1.45636 0
M  V30 3654 N 345.875 1.56104 -0.216619 0
M  V30 3655 C 347.152 1.89988 0.465165 0
M  V30 3656 C 347.532 1.13326 1.78102 0
M  V30 3657 O 346.88 0.241033 2.27225 0
M  V30 3658 C 347.09 3.42646 0.662939 0
M  V30 3659 C 348.438 4.13311 0.972602 0
M  V30 3660 O 349.462 3.48217 0.749901 0
M  V30 3661 O 348.321 5.28396 1.39499 0
M  V30 3662 H 345.415 0.78979 0.245276 0
M  V30 3663 H 347.961 1.67721 -0.258436 0
M  V30 3664 H 346.733 3.90399 -0.26543 0
M  V30 3665 H 346.356 3.70677 1.43821 0
M  V30 3666 N 347.353 -0.0568162 1.57498 0
M  V30 3667 C 348.764 -0.606858 1.76562 0
M  V30 3668 C 349.115 -1.77114 0.844094 0
M  V30 3669 O 348.24 -2.16376 0.0318911 0
M  V30 3670 C 348.835 -1.10766 3.20182 0
M  V30 3671 C 347.394 -1.60344 3.40539 0
M  V30 3672 C 346.541 -0.529311 2.72201 0
M  V30 3673 H 349.492 0.169393 1.57793 0
M  V30 3674 H 349.513 -1.97602 3.25167 0
M  V30 3675 H 349.025 -0.26006 3.87228 0
M  V30 3676 H 347.126 -2.47379 2.78629 0
M  V30 3677 H 347.239 -1.67006 4.4905 0
M  V30 3678 H 345.603 -0.977893 2.35179 0
M  V30 3679 H 346.386 0.308352 3.41912 0
M  V30 3680 N 348.832 -1.54138 -0.328536 0
M  V30 3681 C 350.072 -1.73827 -1.07534 0
M  V30 3682 C 350.436 -0.498777 -1.85408 0
M  V30 3683 O 351.637 -0.572937 -2.62623 0
M  V30 3684 C 349.908 -2.97573 -1.97952 0
M  V30 3685 S 351.467 -3.38143 -2.79652 0
M  V30 3686 H 348.285 -0.611287 -0.36311 0
M  V30 3687 H 350.887 -1.92306 -0.351931 0
M  V30 3688 H 349.591 -3.85939 -1.39569 0
M  V30 3689 H 349.122 -2.81603 -2.74706 0
M  V30 3690 H 351.137 -2.93052 -4.00418 0
M  V30 3691 N 350.31 0.590341 -1.46126 0
M  V30 3692 C 351.538 1.37504 -1.54597 0
M  V30 3693 C 351.953 1.87897 -0.184447 0
M  V30 3694 O 351.31 1.63192 0.816984 0
M  V30 3695 C 351.361 2.56779 -2.54454 0
M  V30 3696 O 351.082 2.08476 -3.85317 0
M  V30 3697 C 352.583 3.49427 -2.72792 0
M  V30 3698 H 349.803 0.420325 -0.523037 0
M  V30 3699 H 352.347 0.718383 -1.91467 0
M  V30 3700 H 350.502 3.1845 -2.20609 0
M  V30 3701 H 350.916 2.86097 -4.396 0
M  V30 3702 H 352.39 4.29619 -3.466 0
M  V30 3703 H 352.867 4.00876 -1.79429 0
M  V30 3704 H 353.473 2.93598 -3.07702 0
M  V30 3705 N 351.788 1.33704 0.83433 0
M  V30 3706 C 353.013 1.28615 1.62705 0
M  V30 3707 C 353.438 -0.139242 1.87584 0
M  V30 3708 O 352.796 -1.09734 1.4432 0
M  V30 3709 C 352.844 2.07139 2.95171 0
M  V30 3710 O 351.948 1.4331 3.86699 0
M  V30 3711 H 351.289 0.44226 0.49528 0
M  V30 3712 H 353.819 1.76335 1.03766 0
M  V30 3713 H 353.829 2.18073 3.44831 0
M  V30 3714 H 352.504 3.10779 2.76386 0
M  V30 3715 H 351.081 1.4105 3.45195 0
M  V30 3716 N 353.266 -1.05314 1.17247 0
M  V30 3717 C 354.512 -1.78557 0.961513 0
M  V30 3718 C 354.845 -1.87419 -0.508697 0
M  V30 3719 O 354.12 -1.37307 -1.37757 0
M  V30 3720 C 354.403 -3.22514 1.60176 0
M  V30 3721 C 354.256 -3.21673 3.14399 0
M  V30 3722 C 355.575 -4.20318 1.30463 0
M  V30 3723 H 352.694 -0.6482 0.350723 0
M  V30 3724 H 355.336 -1.23102 1.44727 0
M  V30 3725 H 353.486 -3.69867 1.18871 0
M  V30 3726 H 355.158 -2.82405 3.64753 0
M  V30 3727 H 353.401 -2.60048 3.47214 0
M  V30 3728 H 354.072 -4.23271 3.54324 0
M  V30 3729 H 356.548 -3.81454 1.66229 0
M  V30 3730 H 355.424 -5.19289 1.77848 0
M  V30 3731 H 355.685 -4.41526 0.22521 0
M  V30 3732 N 354.744 -0.972509 -1.24016 0
M  V30 3733 C 355.691 -0.505969 -2.25186 0
M  V30 3734 C 356.661 0.451009 -1.5986 0
M  V30 3735 O 357.846 0.360307 -1.87367 0
M  V30 3736 C 354.986 0.193089 -3.44559 0
M  V30 3737 C 354.099 -0.803222 -4.24467 0
M  V30 3738 C 353.234 -0.0797793 -5.3114 0
M  V30 3739 C 352.273 -1.06583 -6.02749 0
M  V30 3740 N 351.41 -0.372074 -7.01113 0
M  V30 3741 H 356.25 -1.37351 -2.64459 0
M  V30 3742 H 353.787 -0.688419 -1.29997 0
M  V30 3743 H 355.745 0.615125 -4.1264 0
M  V30 3744 H 354.375 1.02455 -3.06109 0
M  V30 3745 H 353.427 -1.34368 -3.55878 0
M  V30 3746 H 354.739 -1.55494 -4.73944 0
M  V30 3747 H 353.893 0.400015 -6.0538 0
M  V30 3748 H 352.632 0.704597 -4.82583 0
M  V30 3749 H 351.637 -1.55645 -5.27309 0
M  V30 3750 H 352.862 -1.85074 -6.53395 0
M  V30 3751 H 350.808 0.393238 -6.5482 0
M  V30 3752 H 350.725 -1.06258 -7.48495 0
M  V30 3753 H 351.993 0.0855932 -7.79453 0
M  V30 3754 N 356.222 1.38976 -0.743202 0
M  V30 3755 C 357.169 2.30544 -0.10861 0
M  V30 3756 C 358.139 1.49642 0.720869 0
M  V30 3757 O 359.324 1.78304 0.679142 0
M  V30 3758 C 356.464 3.36018 0.786496 0
M  V30 3759 C 355.577 4.31963 -0.0564849 0
M  V30 3760 C 354.712 5.24506 0.840657 0
M  V30 3761 C 353.751 6.121 -0.00658363 0
M  V30 3762 N 352.888 6.96973 0.846943 0
M  V30 3763 H 357.728 2.8424 -0.895088 0
M  V30 3764 H 355.265 1.3995 -0.453048 0
M  V30 3765 H 357.223 3.95768 1.31999 0
M  V30 3766 H 355.853 2.83758 1.53887 0
M  V30 3767 H 354.905 3.73763 -0.707492 0
M  V30 3768 H 356.217 4.93703 -0.711229 0
M  V30 3769 H 355.371 5.89322 1.4417 0
M  V30 3770 H 354.11 4.63107 1.52916 0
M  V30 3771 H 353.115 5.46289 -0.620366 0
M  V30 3772 H 354.34 6.75565 -0.691992 0
M  V30 3773 H 352.286 6.38133 1.52059 0
M  V30 3774 H 352.203 7.5559 0.248864 0
M  V30 3775 H 353.471 7.6621 1.43328 0
M  V30 3776 N 357.7 0.491464 1.49741 0
M  V30 3777 C 358.63 -0.28154 2.31796 0
M  V30 3778 C 359.611 -0.971473 1.3963 0
M  V30 3779 O 360.796 -0.964719 1.68543 0
M  V30 3780 C 357.926 -1.35203 3.19902 0
M  V30 3781 C 356.88 -0.782529 4.20786 0
M  V30 3782 C 356.206 -1.95283 4.97764 0
M  V30 3783 C 357.506 0.21999 5.21837 0
M  V30 3784 H 359.2 0.403355 2.96671 0
M  V30 3785 H 356.746 0.195425 1.42668 0
M  V30 3786 H 358.699 -1.90045 3.76113 0
M  V30 3787 H 357.423 -2.06598 2.52953 0
M  V30 3788 H 356.082 -0.255928 3.65706 0
M  V30 3789 H 355.73 -2.65423 4.2727 0
M  V30 3790 H 355.43 -1.57789 5.66018 0
M  V30 3791 H 356.954 -2.50577 5.56816 0
M  V30 3792 H 358.368 -0.23996 5.72798 0
M  V30 3793 H 356.765 0.51026 5.97927 0
M  V30 3794 H 357.835 1.13911 4.7133 0
M  V30 3795 N 359.178 -1.55987 0.224894 0
M  V30 3796 C 360.125 -2.20436 -0.68385 0
M  V30 3797 C 361.095 -1.16102 -1.18783 0
M  V30 3798 O 362.28 -1.4447 -1.24632 0
M  V30 3799 C 359.42 -2.89076 -1.88491 0
M  V30 3800 C 358.533 -4.08012 -1.41951 0
M  V30 3801 C 357.668 -4.64426 -2.5784 0
M  V30 3802 C 356.707 -5.75656 -2.08053 0
M  V30 3803 N 355.844 -6.26347 -3.17227 0
M  V30 3804 H 360.684 -2.97727 -0.12754 0
M  V30 3805 H 358.221 -1.47011 -0.0511978 0
M  V30 3806 H 360.179 -3.27059 -2.59014 0
M  V30 3807 H 358.809 -2.14298 -2.41405 0
M  V30 3808 H 357.861 -3.75492 -0.609095 0
M  V30 3809 H 359.173 -4.88375 -1.01447 0
M  V30 3810 H 358.327 -5.04869 -3.3644 0
M  V30 3811 H 357.066 -3.83233 -3.01635 0
M  V30 3812 H 356.071 -5.34712 -1.27916 0
M  V30 3813 H 357.296 -6.58686 -1.65255 0
M  V30 3814 H 355.242 -5.48067 -3.60497 0
M  V30 3815 H 355.159 -7.01843 -2.80986 0
M  V30 3816 H 356.427 -6.71447 -3.95953 0
M  V30 3817 N 360.656 0.0484629 -1.57525 0
M  V30 3818 C 361.904 0.741657 -1.88 0
M  V30 3819 C 362.225 1.76918 -0.820054 0
M  V30 3820 O 361.495 1.95335 0.148661 0
M  V30 3821 H 360.075 0.276908 -0.69378 0
M  V30 3822 H 362.737 0.019013 -1.94891 0
M  V30 3823 H 361.833 1.24336 -2.86264 0
M  V30 3824 N 362.134 1.5431 0.320358 0
M  V30 3825 C 363.082 1.84647 1.4145 0
M  V30 3826 C 364.076 0.718624 1.53402 0
M  V30 3827 O 365.282 0.902335 1.5575 0
M  V30 3828 H 361.657 0.585349 0.472091 0
M  V30 3829 H 363.628 2.7614 1.13089 0
M  V30 3830 C 362.377 2.09341 2.77617 0
M  V30 3831 H 361.7 2.9559 2.69196 0
M  V30 3832 H 363.14 2.3452 3.53237 0
M  V30 3833 C 361.599 0.885939 3.25043 0
M  V30 3834 O 362.129 0.0967891 4.01583 0
M  V30 3835 N 360.335 0.696682 2.82125 0
M  V30 3836 H 359.882 1.34006 2.2 0
M  V30 3837 H 359.84 -0.109712 3.14209 0
M  V30 3838 N 363.613 -0.582584 1.46437 0
M  V30 3839 C 364.89 -1.34276 1.4223 0
M  V30 3840 C 365.27 -2.10835 0.10583 0
M  V30 3841 O 364.618 -2.09485 -0.912596 0
M  V30 3842 C 364.828 -2.26865 2.65204 0
M  V30 3843 C 366.176 -2.88691 3.11356 0
M  V30 3844 O 367.2 -2.37178 2.65753 0
M  V30 3845 O 366.059 -3.82255 3.90568 0
M  V30 3846 H 363.153 -0.603326 0.565621 0
M  V30 3847 H 365.699 -0.603591 1.58603 0
M  V30 3848 H 364.471 -1.69724 3.52576 0
M  V30 3849 H 364.094 -3.08122 2.5129 0
M  V30 3850 N 365.091 -1.34144 -0.827227 0
M  V30 3851 C 366.337 -1.26446 -1.58554 0
M  V30 3852 C 366.67 0.1664 -1.93486 0
M  V30 3853 O 365.945 1.1107 -1.59667 0
M  V30 3854 C 366.228 -2.15111 -2.8879 0
M  V30 3855 C 366.081 -3.66712 -2.60465 0
M  V30 3856 C 367.4 -2.03311 -3.90324 0
M  V30 3857 H 364.519 -0.46067 -0.575284 0
M  V30 3858 H 367.161 -1.64356 -0.953269 0
M  V30 3859 H 365.311 -1.8291 -3.42748 0
M  V30 3860 H 366.983 -4.09259 -2.1285 0
M  V30 3861 H 365.226 -3.88014 -1.93978 0
M  V30 3862 H 365.897 -4.24112 -3.53317 0
M  V30 3863 H 368.373 -2.31574 -3.45706 0
M  V30 3864 H 367.249 -2.67582 -4.79261 0
M  V30 3865 H 367.51 -1.00879 -4.30437 0
M  V30 3866 N 366.569 1.04691 -1.17803 0
M  V30 3867 C 367.985 1.29963 -0.926379 0
M  V30 3868 C 368.185 1.97251 0.411635 0
M  V30 3869 O 367.241 2.24922 1.14744 0
M  V30 3870 C 368.554 2.16447 -2.08737 0
M  V30 3871 C 370.102 2.29814 -2.12496 0
M  V30 3872 C 370.577 3.19661 -3.27995 0
M  V30 3873 N 372.068 3.27247 -3.27816 0
M  V30 3874 C 372.803 3.96906 -4.13827 0
M  V30 3875 N 372.299 4.6895 -5.09959 0
M  V30 3876 N 374.092 3.93122 -4.01761 0
M  V30 3877 H 366.243 0.594182 -2.0392 0
M  V30 3878 H 368.506 0.324649 -0.890678 0
M  V30 3879 H 368.212 1.74304 -3.05469 0
M  V30 3880 H 368.086 3.17103 -2.04268 0
M  V30 3881 H 370.473 2.71196 -1.16347 0
M  V30 3882 H 370.554 1.2877 -2.21025 0
M  V30 3883 H 370.198 2.78991 -4.24413 0
M  V30 3884 H 370.128 4.20722 -3.16703 0
M  V30 3885 H 372.619 2.75921 -2.58217 0
M  V30 3886 H 372.932 5.19679 -5.71974 0
M  V30 3887 H 371.277 4.67875 -5.13924 0
M  V30 3888 H 374.468 3.35967 -3.2595 0
M  V30 3889 H 374.641 4.47139 -4.6901 0
M  V30 3890 N 368.047 0.979072 1.23499 0
M  V30 3891 C 369.296 0.642751 1.91185 0
M  V30 3892 C 369.609 -0.827253 1.77245 0
M  V30 3893 O 370.815 -1.27458 2.39722 0
M  V30 3894 C 369.271 1.09901 3.42709 0
M  V30 3895 C 368.879 2.59327 3.65313 0
M  V30 3896 C 370.623 0.836371 4.16179 0
M  V30 3897 C 368.53 2.98627 5.10467 0
M  V30 3898 H 367.46 0.236698 0.715884 0
M  V30 3899 H 370.111 1.1868 1.39955 0
M  V30 3900 H 368.493 0.48319 3.93041 0
M  V30 3901 H 369.667 3.26136 3.25533 0
M  V30 3902 H 367.982 2.83323 3.05151 0
M  V30 3903 H 370.579 1.10586 5.23139 0
M  V30 3904 H 370.922 -0.227509 4.15678 0
M  V30 3905 H 371.455 1.41371 3.71832 0
M  V30 3906 H 368.194 4.04133 5.16098 0
M  V30 3907 H 367.714 2.3651 5.51201 0
M  V30 3908 H 369.393 2.89159 5.78788 0
M  V30 3909 N 369.525 -1.3858 0.750561 0
M  V30 3910 C 370.774 -1.99424 0.302172 0
M  V30 3911 C 371.087 -1.60254 -1.12152 0
M  V30 3912 O 372.293 -2.14046 -1.67023 0
M  V30 3913 C 370.749 -3.56558 0.489307 0
M  V30 3914 C 370.357 -4.04682 1.92189 0
M  V30 3915 C 372.101 -4.24374 0.103478 0
M  V30 3916 C 370.008 -5.54446 2.05775 0
M  V30 3917 H 368.938 -0.746046 0.10923 0
M  V30 3918 H 371.589 -1.58383 0.92667 0
M  V30 3919 H 369.971 -3.95472 -0.204329 0
M  V30 3920 H 371.145 -3.77065 2.64875 0
M  V30 3921 H 369.46 -3.4958 2.26236 0
M  V30 3922 H 372.057 -5.34384 0.183787 0
M  V30 3923 H 372.4 -4.05468 -0.943481 0
M  V30 3924 H 372.933 -3.90688 0.748854 0
M  V30 3925 H 369.672 -5.78252 3.08714 0
M  V30 3926 H 369.192 -5.83816 1.37546 0
M  V30 3927 H 370.871 -6.20099 1.84626 0
M  V30 3928 N 371.003 -0.499398 -1.49478 0
M  V30 3929 C 371.933 0.269244 -2.31943 0
M  V30 3930 C 372.914 0.964054 -1.40143 0
M  V30 3931 O 374.099 0.955767 -1.69052 0
M  V30 3932 C 371.229 1.33504 -3.20615 0
M  V30 3933 C 370.183 0.760202 -4.21195 0
M  V30 3934 C 369.509 1.9264 -4.98792 0
M  V30 3935 C 370.809 -0.247661 -5.21712 0
M  V30 3936 H 372.503 -0.419082 -2.96452 0
M  V30 3937 H 370.049 -0.202988 -1.42562 0
M  V30 3938 H 372.002 1.88048 -3.77115 0
M  V30 3939 H 370.726 2.05253 -2.54045 0
M  V30 3940 H 369.385 0.23653 -3.65836 0
M  V30 3941 H 369.033 2.63154 -4.28671 0
M  V30 3942 H 368.733 1.54785 -5.66847 0
M  V30 3943 H 370.257 2.4762 -5.58137 0
M  V30 3944 H 371.671 0.209579 -5.72917 0
M  V30 3945 H 370.068 -0.541962 -5.97648 0
M  V30 3946 H 371.138 -1.16409 -4.7072 0
M  V30 3947 N 372.481 1.55866 -0.233164 0
M  V30 3948 C 373.729 1.9821 0.394593 0
M  V30 3949 C 374.05 1.12234 1.59463 0
M  V30 3950 O 373.32 0.201981 1.94856 0
M  V30 3951 H 371.9 0.732034 0.148778 0
M  V30 3952 H 374.562 1.92107 -0.32876 0
M  V30 3953 H 373.658 3.03845 0.713063 0
M  V30 3954 N 373.959 -0.0401083 1.57549 0
M  V30 3955 C 374.891 -1.07149 2.02612 0
M  V30 3956 C 375.904 -1.33126 0.937085 0
M  V30 3957 O 377.093 -1.30808 1.21456 0
M  V30 3958 C 374.193 -2.41561 2.37701 0
M  V30 3959 C 373.366 -2.35096 3.68848 0
M  V30 3960 C 372.425 -3.51867 3.91249 0
M  V30 3961 O 371.451 -3.3186 4.62447 0
M  V30 3962 N 372.653 -4.73351 3.36035 0
M  V30 3963 H 375.418 -0.687485 2.91708 0
M  V30 3964 H 372.979 -0.228248 1.60283 0
M  V30 3965 H 374.971 -3.18379 2.49833 0
M  V30 3966 H 373.541 -2.71846 1.54332 0
M  V30 3967 H 372.761 -1.4345 3.67173 0
M  V30 3968 H 374.049 -2.27908 4.54901 0
M  V30 3969 H 373.447 -4.92507 2.78304 0
M  V30 3970 H 372.004 -5.47572 3.53565 0
M  V30 3971 N 375.437 -1.54477 -0.31217 0
M  V30 3972 C 376.684 -1.73227 -1.04875 0
M  V30 3973 C 377.012 -0.512042 -1.87639 0
M  V30 3974 O 376.267 0.506131 -1.89042 0
M  V30 3975 C 376.566 -2.967 -1.99258 0
M  V30 3976 C 376.232 -4.30974 -1.32559 0
M  V30 3977 C 374.894 -4.67477 -1.141 0
M  V30 3978 C 377.246 -5.14258 -0.847835 0
M  V30 3979 C 374.574 -5.84852 -0.465326 0
M  V30 3980 C 376.926 -6.32327 -0.185931 0
M  V30 3981 C 375.59 -6.67499 0.0107077 0
M  V30 3982 H 374.86 -0.633881 -0.383765 0
M  V30 3983 H 377.507 -1.88727 -0.324731 0
M  V30 3984 H 375.812 -2.75935 -2.7815 0
M  V30 3985 H 377.509 -3.08401 -2.563 0
M  V30 3986 H 374.099 -4.02262 -1.4793 0
M  V30 3987 H 378.283 -4.86565 -0.978192 0
M  V30 3988 H 373.539 -6.10654 -0.301883 0
M  V30 3989 H 377.713 -6.96135 0.192211 0
M  V30 3990 H 375.34 -7.58306 0.536287 0
M  V30 3991 N 376.915 0.57481 -1.46744 0
M  V30 3992 C 378.192 1.3352 -1.4294 0
M  V30 3993 C 378.572 2.10775 -0.117009 0
M  V30 3994 O 377.92 2.09966 0.901474 0
M  V30 3995 C 378.13 2.25456 -2.66403 0
M  V30 3996 C 379.478 2.87035 -3.12883 0
M  V30 3997 O 380.502 2.35766 -2.67007 0
M  V30 3998 O 379.361 3.80179 -3.92589 0
M  V30 3999 H 376.455 0.600318 -0.568812 0
M  V30 4000 H 379.001 0.595171 -1.58921 0
M  V30 4001 H 377.773 1.67851 -3.53471 0
M  V30 4002 H 377.396 3.06785 -2.52921 0
M  V30 4003 N 378.394 1.34581 0.820102 0
M  V30 4004 C 379.326 1.22236 1.93884 0
M  V30 4005 C 380.339 0.148776 1.62119 0
M  V30 4006 O 381.528 0.400877 1.7394 0
M  V30 4007 C 378.628 0.856542 3.27897 0
M  V30 4008 C 377.801 2.02569 3.87666 0
M  V30 4009 C 376.86 1.63782 5.00062 0
M  V30 4010 O 375.886 2.35477 5.18208 0
M  V30 4011 N 377.088 0.553611 5.77854 0
M  V30 4012 H 379.853 2.18615 2.05006 0
M  V30 4013 H 377.414 1.27573 0.99683 0
M  V30 4014 H 379.406 0.578806 4.0054 0
M  V30 4015 H 377.976 -0.0171518 3.12595 0
M  V30 4016 H 377.196 2.468 3.07382 0
M  V30 4017 H 378.484 2.80752 4.24329 0
M  V30 4018 H 377.882 -0.0423528 5.65684 0
M  V30 4019 H 376.439 0.335614 6.50935 0
M  V30 4020 N 379.872 -1.04064 1.18357 0
M  V30 4021 C 380.82 -2.14187 0.907007 0
M  V30 4022 C 381.814 -1.68879 -0.132725 0
M  V30 4023 O 383.02 -1.79993 0.0154248 0
M  V30 4024 H 379.395 -0.699585 0.275835 0
M  V30 4025 H 381.366 -2.34711 1.84264 0
M  V30 4026 C 380.115 -3.44785 0.449254 0
M  V30 4027 H 379.438 -3.80058 1.24081 0
M  V30 4028 H 380.878 -4.22974 0.294737 0
M  V30 4029 C 379.337 -3.26391 -0.834909 0
M  V30 4030 O 379.867 -3.53973 -1.89911 0
M  V30 4031 N 378.073 -2.79726 -0.787523 0
M  V30 4032 H 377.62 -2.5748 0.0787347 0
M  V30 4033 H 377.578 -2.67798 -1.64716 0
M  V30 4034 N 381.35 -0.985608 -1.22978 0
M  V30 4035 C 382.283 -0.47487 -2.23204 0
M  V30 4036 C 383.261 0.460865 -1.55932 0
M  V30 4037 O 384.445 0.388105 -1.84461 0
M  V30 4038 C 381.572 0.312427 -3.37256 0
M  V30 4039 C 380.618 -0.568219 -4.22698 0
M  V30 4040 S 381.451 -2.01919 -4.95973 0
M  V30 4041 C 382.607 -1.24118 -6.1347 0
M  V30 4042 H 382.84 -1.32419 -2.66181 0
M  V30 4043 H 380.373 -0.792005 -1.32539 0
M  V30 4044 H 382.331 0.760645 -4.03391 0
M  V30 4045 H 380.992 1.13693 -2.92801 0
M  V30 4046 H 380.185 0.0371657 -5.03986 0
M  V30 4047 H 379.787 -0.952897 -3.61657 0
M  V30 4048 H 382.079 -0.505121 -6.75614 0
M  V30 4049 H 383.022 -2.02907 -6.78406 0
M  V30 4050 H 383.43 -0.757669 -5.59392 0
M  V30 4051 N 382.828 1.3818 -0.7579 0
M  V30 4052 C 383.791 2.28764 -0.141286 0
M  V30 4053 C 384.791 1.47388 0.642907 0
M  V30 4054 O 385.981 1.67781 0.468536 0
M  V30 4055 C 383.113 3.31184 0.808069 0
M  V30 4056 H 384.306 2.848 -0.939633 0
M  V30 4057 H 381.859 1.47212 -0.525191 0
M  V30 4058 H 382.594 2.80247 1.63193 0
M  V30 4059 H 382.379 3.91314 0.248104 0
M  V30 4060 H 383.869 3.98909 1.23536 0
M  V30 4061 N 384.306 0.507319 1.49211 0
M  V30 4062 C 385.269 -0.256763 2.27757 0
M  V30 4063 C 386.269 -0.888287 1.34038 0
M  V30 4064 O 387.459 -0.751841 1.5714 0
M  V30 4065 C 384.591 -1.36905 3.12202 0
M  V30 4066 H 385.784 0.432557 2.96764 0
M  V30 4067 H 383.337 0.262488 1.5408 0
M  V30 4068 H 384.072 -2.09233 2.47775 0
M  V30 4069 H 383.857 -0.921599 3.81115 0
M  V30 4070 H 385.347 -1.9071 3.7151 0
M  V30 4071 N 385.784 -1.5574 0.241426 0
M  V30 4072 C 386.731 -2.21149 -0.660432 0
M  V30 4073 C 387.701 -1.17356 -1.17545 0
M  V30 4074 O 388.886 -1.45784 -1.23093 0
M  V30 4075 C 386.026 -2.91059 -1.85414 0
M  V30 4076 C 385.139 -4.09495 -1.37616 0
M  V30 4077 C 384.274 -4.67135 -2.529 0
M  V30 4078 C 383.313 -5.77831 -2.01936 0
M  V30 4079 N 382.45 -6.29677 -3.10566 0
M  V30 4080 H 387.29 -2.97845 -0.095955 0
M  V30 4081 H 384.827 -1.47057 -0.0356024 0
M  V30 4082 H 386.785 -3.29788 -2.5553 0
M  V30 4083 H 385.415 -2.16846 -2.39118 0
M  V30 4084 H 384.467 -3.76117 -0.569235 0
M  V30 4085 H 385.779 -4.89423 -0.962618 0
M  V30 4086 H 384.933 -5.08409 -3.31067 0
M  V30 4087 H 383.672 -3.86411 -2.97553 0
M  V30 4088 H 382.677 -5.36039 -1.22238 0
M  V30 4089 H 383.902 -6.60402 -1.58259 0
M  V30 4090 H 381.848 -5.5186 -3.54664 0
M  V30 4091 H 381.765 -7.04783 -2.73526 0
M  V30 4092 H 383.033 -6.75609 -3.88809 0
M  V30 4093 N 387.262 0.0317525 -1.57568 0
M  V30 4094 C 388.508 0.724175 -1.8943 0
M  V30 4095 C 388.841 1.75149 -0.838836 0
M  V30 4096 O 388.116 1.93948 0.146422 0
M  V30 4097 C 388.399 1.39615 -3.31933 0
M  V30 4098 C 388.252 0.382537 -4.4817 0
M  V30 4099 C 389.571 2.33084 -3.73309 0
M  V30 4100 H 386.69 0.261797 -0.688935 0
M  V30 4101 H 389.332 -0.013017 -1.89996 0
M  V30 4102 H 387.482 2.02451 -3.31581 0
M  V30 4103 H 389.154 -0.243689 -4.60656 0
M  V30 4104 H 387.397 -0.29844 -4.32772 0
M  V30 4105 H 388.068 0.891145 -5.44759 0
M  V30 4106 H 390.544 1.80295 -3.7501 0
M  V30 4107 H 389.42 2.77084 -4.73831 0
M  V30 4108 H 389.681 3.19643 -3.05419 0
M  V30 4109 N 388.74 1.54641 0.303973 0
M  V30 4110 C 389.987 1.7378 1.03955 0
M  V30 4111 C 390.315 0.521986 1.87365 0
M  V30 4112 O 389.57 -0.496099 1.89308 0
M  V30 4113 C 389.869 2.97753 1.97681 0
M  V30 4114 C 389.535 4.31671 1.30271 0
M  V30 4115 C 388.197 4.68075 1.11619 0
M  V30 4116 C 390.549 5.147 0.82055 0
M  V30 4117 C 387.877 5.8509 0.434304 0
M  V30 4118 C 390.229 6.32416 0.152395 0
M  V30 4119 C 388.893 6.67484 -0.0461067 0
M  V30 4120 H 388.163 0.635908 0.380398 0
M  V30 4121 H 390.81 1.88896 0.314718 0
M  V30 4122 H 389.115 2.77406 2.76682 0
M  V30 4123 H 390.812 3.09756 2.54661 0
M  V30 4124 H 387.402 4.03041 1.45795 0
M  V30 4125 H 391.586 4.87077 0.952374 0
M  V30 4126 H 386.842 6.10806 0.269495 0
M  V30 4127 H 391.016 6.96023 -0.229126 0
M  V30 4128 H 388.643 7.58011 -0.576494 0
M  V30 4129 N 390.218 -0.567019 1.47046 0
M  V30 4130 C 391.458 -1.3355 1.54738 0
M  V30 4131 C 391.822 -1.90947 0.200772 0
M  V30 4132 O 393.023 -2.68367 0.152489 0
M  V30 4133 C 391.294 -2.42317 2.62712 0
M  V30 4134 S 392.853 -3.29383 2.89918 0
M  V30 4135 H 389.671 -0.454788 0.546525 0
M  V30 4136 H 392.273 -0.650191 1.84371 0
M  V30 4137 H 390.977 -1.98568 3.59164 0
M  V30 4138 H 390.508 -3.15601 2.34861 0
M  V30 4139 H 392.523 -4.41548 2.26384 0
M  V30 4140 N 391.696 -1.35014 -0.812953 0
M  V30 4141 C 392.936 -1.29289 -1.58315 0
M  V30 4142 C 393.3 0.132727 -1.91541 0
M  V30 4143 O 394.501 0.314269 -2.66957 0
M  V30 4144 C 392.772 -2.1681 -2.84127 0
M  V30 4145 S 394.331 -2.28538 -3.74588 0
M  V30 4146 H 391.149 -0.459569 -0.542511 0
M  V30 4147 H 393.751 -1.70336 -0.959467 0
M  V30 4148 H 392.455 -3.19379 -2.57731 0
M  V30 4149 H 391.986 -1.76697 -3.51485 0
M  V30 4150 H 394.001 -1.4655 -4.74065 0
M  V30 4151 N 393.175 1.03435 -1.18907 0
M  V30 4152 C 394.138 2.09756 -0.923844 0
M  V30 4153 C 395.138 1.60528 0.093416 0
M  V30 4154 O 396.328 1.73631 -0.140727 0
M  V30 4155 C 393.46 3.38692 -0.387354 0
M  V30 4156 H 394.653 2.34719 -1.86674 0
M  V30 4157 H 392.206 1.19959 -1.00197 0
M  V30 4158 H 392.941 3.19396 0.561845 0
M  V30 4159 H 392.726 3.75742 -1.12074 0
M  V30 4160 H 394.216 4.17016 -0.220694 0
M  V30 4161 N 394.653 0.992116 1.22453 0
M  V30 4162 C 395.883 0.684949 1.94915 0
M  V30 4163 C 396.291 -0.754292 1.73514 0
M  V30 4164 O 395.634 -1.52056 1.03076 0
M  V30 4165 C 395.696 0.910054 3.47791 0
M  V30 4166 C 395.36 2.33363 3.92926 0
M  V30 4167 C 396.357 3.31308 4.00663 0
M  V30 4168 C 394.042 2.66785 4.25595 0
M  V30 4169 C 396.036 4.6075 4.40441 0
M  V30 4170 C 393.723 3.96446 4.65053 0
M  V30 4171 C 394.721 4.9324 4.72444 0
M  V30 4172 O 394.409 6.20584 5.1101 0
M  V30 4173 H 394.141 0.25258 0.62704 0
M  V30 4174 H 396.695 1.32939 1.56577 0
M  V30 4175 H 394.925 0.208443 3.86138 0
M  V30 4176 H 396.614 0.598257 4.01467 0
M  V30 4177 H 397.38 3.0682 3.75615 0
M  V30 4178 H 393.259 1.92148 4.19047 0
M  V30 4179 H 396.803 5.363 4.46126 0
M  V30 4180 H 392.7 4.20724 4.89552 0
M  V30 4181 H 393.468 6.24509 5.29085 0
M  V30 4182 N 396.131 -1.37776 0.765217 0
M  V30 4183 C 397.041 -2.34135 0.147666 0
M  V30 4184 C 398.057 -1.59854 -0.687215 0
M  V30 4185 O 399.233 -1.91983 -0.608659 0
M  V30 4186 C 396.298 -3.3901 -0.72617 0
M  V30 4187 C 395.359 -4.2912 0.124417 0
M  V30 4188 C 394.592 -5.28986 -0.707807 0
M  V30 4189 O 394.815 -5.36205 -1.94525 0
M  V30 4190 O 393.749 -6.01779 -0.12046 0
M  V30 4191 H 397.575 -2.88664 0.943758 0
M  V30 4192 H 395.16 -1.39824 0.526277 0
M  V30 4193 H 397.042 -4.03195 -1.22524 0
M  V30 4194 H 395.717 -2.86819 -1.50056 0
M  V30 4195 H 394.624 -3.68057 0.669696 0
M  V30 4196 H 395.957 -4.84598 0.861736 0
M  V30 4197 N 397.609 -0.515225 -1.4894 0
M  V30 4198 C 398.519 0.259774 -2.33157 0
M  V30 4199 C 399.535 0.953501 -1.45548 0
M  V30 4200 O 400.711 0.931735 -1.78552 0
M  V30 4201 C 397.776 1.30193 -3.21326 0
M  V30 4202 C 396.837 0.620129 -4.24797 0
M  V30 4203 C 396.07 1.61263 -5.08753 0
M  V30 4204 O 396.293 2.84389 -4.94448 0
M  V30 4205 O 395.227 1.16013 -5.90614 0
M  V30 4206 H 399.053 -0.429932 -3.00641 0
M  V30 4207 H 396.638 -0.276346 -1.46822 0
M  V30 4208 H 398.52 1.90455 -3.75905 0
M  V30 4209 H 397.195 1.97431 -2.56521 0
M  V30 4210 H 396.102 -0.0226019 -3.74093 0
M  V30 4211 H 397.435 -0.0100493 -4.92199 0
M  V30 4212 N 399.087 1.5561 -0.249682 0
M  V30 4213 C 400.035 2.22894 0.664906 0
M  V30 4214 C 401.029 1.21743 1.17792 0
M  V30 4215 O 402.235 1.39748 1.13449 0
M  V30 4216 H 398.61 0.715022 0.232912 0
M  V30 4217 H 400.581 2.98307 0.0742998 0
M  V30 4218 C 399.33 2.94424 1.84959 0
M  V30 4219 H 398.653 3.72031 1.46399 0
M  V30 4220 H 400.093 3.44862 2.4667 0
M  V30 4221 C 398.552 1.98454 2.72245 0
M  V30 4222 O 399.082 1.51939 3.71857 0
M  V30 4223 N 397.288 1.65496 2.38871 0
M  V30 4224 H 396.835 2.03517 1.57919 0
M  V30 4225 H 396.793 1.0155 2.97548 0
M  V30 4226 N 400.565 -0.0233959 1.57583 0
M  V30 4227 C 401.498 -1.05549 2.02323 0
M  V30 4228 C 402.476 -1.34843 0.908626 0
M  V30 4229 O 403.66 -1.47404 1.17491 0
M  V30 4230 C 400.787 -2.38885 2.40108 0
M  V30 4231 C 399.833 -2.2541 3.62067 0
M  V30 4232 S 400.666 -1.60217 5.1097 0
M  V30 4233 C 401.822 -2.95032 5.52003 0
M  V30 4234 H 402.055 -0.674435 2.89549 0
M  V30 4235 H 399.588 -0.23355 1.52623 0
M  V30 4236 H 401.546 -3.15562 2.62547 0
M  V30 4237 H 400.207 -2.74137 1.53323 0
M  V30 4238 H 399.4 -3.23854 3.86179 0
M  V30 4239 H 399.002 -1.56876 3.39508 0
M  V30 4240 H 401.294 -3.91357 5.53033 0
M  V30 4241 H 402.237 -2.75646 6.52246 0
M  V30 4242 H 402.645 -2.97865 4.79517 0
M  V30 4243 N 402.043 -1.548 -0.295768 0
M  V30 4244 C 403.273 -1.78069 -1.04762 0
M  V30 4245 C 403.681 -0.542847 -1.81245 0
M  V30 4246 O 403.024 0.497051 -1.76848 0
M  V30 4247 C 403.086 -2.93881 -2.07061 0
M  V30 4248 C 402.75 -4.31777 -1.49725 0
M  V30 4249 C 403.747 -5.11613 -0.924581 0
M  V30 4250 C 401.432 -4.78389 -1.5313 0
M  V30 4251 C 403.426 -6.36184 -0.393594 0
M  V30 4252 C 401.113 -6.02921 -0.996447 0
M  V30 4253 C 402.111 -6.81654 -0.428569 0
M  V30 4254 O 401.799 -8.0384 0.0981593 0
M  V30 4255 H 401.531 -0.597475 -0.316226 0
M  V30 4256 H 404.085 -2.02584 -0.338973 0
M  V30 4257 H 402.315 -2.65003 -2.81621 0
M  V30 4258 H 404.004 -3.04679 -2.6819 0
M  V30 4259 H 404.77 -4.76743 -0.891136 0
M  V30 4260 H 400.649 -4.17132 -1.9627 0
M  V30 4261 H 404.193 -6.97582 0.0503014 0
M  V30 4262 H 400.09 -6.37277 -1.02706 0
M  V30 4263 H 400.858 -8.18499 -0.0146455 0
M  V30 4264 N 403.521 0.559213 -1.47345 0
M  V30 4265 C 404.769 1.31388 -1.53563 0
M  V30 4266 C 405.09 1.93985 -0.198678 0
M  V30 4267 O 404.36 1.79825 0.777167 0
M  V30 4268 H 402.94 0.487901 -0.565652 0
M  V30 4269 H 405.602 0.65315 -1.8363 0
M  V30 4270 H 404.698 2.10844 -2.30111 0
M  V30 4271 N 404.999 1.35443 0.805782 0
M  V30 4272 C 406.224 1.32037 1.59941 0
M  V30 4273 C 406.649 -0.0994215 1.87837 0
M  V30 4274 O 406.007 -1.06648 1.46615 0
M  V30 4275 C 406.055 2.13354 2.90711 0
M  V30 4276 O 405.159 1.5148 3.83572 0
M  V30 4277 H 404.5 0.452666 0.485787 0
M  V30 4278 H 407.03 1.78496 1.00002 0
M  V30 4279 H 407.04 2.25338 3.40128 0
M  V30 4280 H 405.715 3.16572 2.69732 0
M  V30 4281 H 404.292 1.4834 3.42125 0
M  V30 4282 N 406.477 -1.02803 1.19454 0
M  V30 4283 C 407.424 -2.11099 0.933046 0
M  V30 4284 C 408.394 -1.65571 -0.132447 0
M  V30 4285 O 409.579 -1.90797 0.00987576 0
M  V30 4286 C 406.719 -3.41763 0.478747 0
M  V30 4287 C 405.832 -4.00833 1.6111 0
M  V30 4288 C 404.967 -5.19511 1.10825 0
M  V30 4289 C 404.006 -5.70639 2.21445 0
M  V30 4290 N 403.143 -6.80589 1.72461 0
M  V30 4291 H 407.983 -2.32804 1.86028 0
M  V30 4292 H 405.52 -1.14179 0.927441 0
M  V30 4293 H 407.478 -4.16736 0.196745 0
M  V30 4294 H 406.108 -3.20166 -0.411493 0
M  V30 4295 H 405.16 -3.23066 2.00829 0
M  V30 4296 H 406.472 -4.34794 2.4445 0
M  V30 4297 H 405.626 -6.01645 0.781533 0
M  V30 4298 H 404.365 -4.87086 0.244606 0
M  V30 4299 H 403.37 -4.87116 2.54947 0
M  V30 4300 H 404.595 -6.05102 3.08267 0
M  V30 4301 H 402.541 -6.50016 0.884056 0
M  V30 4302 H 402.458 -7.13681 2.49389 0
M  V30 4303 H 403.726 -7.66317 1.42755 0
M  V30 4304 N 407.956 -0.998596 -1.21925 0
M  V30 4305 C 409.186 -0.695276 -1.94549 0
M  V30 4306 C 409.594 0.745079 -1.73911 0
M  V30 4307 O 408.937 1.51507 -1.03881 0
M  V30 4308 C 408.999 -0.928485 -3.47303 0
M  V30 4309 C 408.663 -2.35443 -3.91683 0
M  V30 4310 C 409.66 -3.33428 -3.98901 0
M  V30 4311 C 407.345 -2.69038 -4.24174 0
M  V30 4312 C 409.339 -4.63079 -4.37992 0
M  V30 4313 C 407.026 -3.98906 -4.62944 0
M  V30 4314 C 408.024 -4.95738 -4.69822 0
M  V30 4315 O 407.712 -6.23285 -5.07711 0
M  V30 4316 H 407.444 -0.255902 -0.625692 0
M  V30 4317 H 409.998 -1.33767 -1.5587 0
M  V30 4318 H 408.228 -0.228917 -3.86022 0
M  V30 4319 H 409.917 -0.619539 -4.01144 0
M  V30 4320 H 410.683 -3.08807 -3.73983 0
M  V30 4321 H 406.562 -1.94367 -4.18022 0
M  V30 4322 H 410.106 -5.38658 -4.43275 0
M  V30 4323 H 406.003 -4.23314 -4.87314 0
M  V30 4324 H 406.771 -6.27306 -5.25766 0
M  V30 4325 N 409.434 1.37368 -0.772513 0
M  V30 4326 C 410.366 2.28899 -0.117502 0
M  V30 4327 C 411.379 1.4867 0.663405 0
M  V30 4328 O 412.568 1.71314 0.501372 0
M  V30 4329 C 409.668 3.2788 0.857192 0
M  V30 4330 C 408.841 4.37207 0.129938 0
M  V30 4331 C 407.9 5.16257 1.01811 0
M  V30 4332 O 406.926 5.67159 0.481601 0
M  V30 4333 N 408.128 5.31058 2.3443 0
M  V30 4334 H 410.893 2.85752 -0.903662 0
M  V30 4335 H 408.454 1.49353 -0.62493 0
M  V30 4336 H 410.446 3.77647 1.45482 0
M  V30 4337 H 409.016 2.7179 1.54432 0
M  V30 4338 H 408.236 3.88827 -0.648605 0
M  V30 4339 H 409.524 5.07434 -0.372559 0
M  V30 4340 H 408.922 4.91287 2.80452 0
M  V30 4341 H 407.479 5.84131 2.89197 0
M  V30 4342 N 410.912 0.523116 1.48665 0
M  V30 4343 C 412.158 -0.00540031 2.03399 0
M  V30 4344 C 412.513 -1.3264 1.39372 0
M  V30 4345 O 411.806 -1.84184 0.527916 0
M  V30 4346 C 412 -0.191671 3.56886 0
M  V30 4347 C 411.829 1.10972 4.35793 0
M  V30 4348 C 410.599 1.66769 4.76987 0
M  V30 4349 C 412.797 2.01861 4.73029 0
M  V30 4350 N 410.779 2.91268 5.40404 0
M  V30 4351 C 412.15 3.10937 5.36394 0
M  V30 4352 C 414.205 2.02271 4.54962 0
M  V30 4353 C 412.908 4.20478 5.83601 0
M  V30 4354 C 414.934 3.10802 5.03146 0
M  V30 4355 C 414.296 4.18597 5.6653 0
M  V30 4356 H 410.395 0.0393531 0.781009 0
M  V30 4357 H 412.979 0.702876 1.8157 0
M  V30 4358 H 411.15 -0.869025 3.78553 0
M  V30 4359 H 412.882 -0.719177 3.98259 0
M  V30 4360 H 409.637 1.20996 4.57883 0
M  V30 4361 H 410.061 3.54635 5.76683 0
M  V30 4362 H 414.703 1.2023 4.05345 0
M  V30 4363 H 412.421 5.03303 6.32228 0
M  V30 4364 H 416.007 3.12166 4.90962 0
M  V30 4365 H 414.887 5.01193 6.03138 0
M  V30 4366 N 412.39 -1.55475 0.257931 0
M  V30 4367 C 413.639 -1.98383 -0.364275 0
M  V30 4368 C 413.952 -1.14952 -1.58258 0
M  V30 4369 O 415.158 -1.47924 -2.27664 0
M  V30 4370 C 413.614 -3.53037 -0.699479 0
M  V30 4371 C 413.222 -4.45223 0.498046 0
M  V30 4372 C 414.966 -4.04575 -1.28526 0
M  V30 4373 C 412.873 -5.91238 0.138383 0
M  V30 4374 H 411.803 -0.740911 -0.13988 0
M  V30 4375 H 414.454 -1.79936 0.359883 0
M  V30 4376 H 412.836 -3.6722 -1.48207 0
M  V30 4377 H 414.01 -4.42803 1.27522 0
M  V30 4378 H 412.325 -4.04226 0.999503 0
M  V30 4379 H 414.922 -5.11196 -1.56788 0
M  V30 4380 H 415.265 -3.5258 -2.21344 0
M  V30 4381 H 415.798 -3.93762 -0.565337 0
M  V30 4382 H 412.537 -6.47294 1.03398 0
M  V30 4383 H 412.057 -5.96768 -0.602374 0
M  V30 4384 H 413.736 -6.46413 -0.27553 0
M  V30 4385 N 413.868 0.0150385 -1.57593 0
M  V30 4386 C 415.117 0.702115 -1.89085 0
M  V30 4387 C 415.43 1.75764 -0.858277 0
M  V30 4388 O 416.636 2.49829 -1.0629 0
M  V30 4389 C 415.092 1.29992 -3.35604 0
M  V30 4390 C 414.7 0.280007 -4.47124 0
M  V30 4391 C 416.444 1.96606 -3.76227 0
M  V30 4392 C 414.351 0.886949 -5.84711 0
M  V30 4393 H 413.281 0.265997 -0.705522 0
M  V30 4394 H 415.932 -0.0430408 -1.8345 0
M  V30 4395 H 414.314 2.09525 -3.36029 0
M  V30 4396 H 415.488 -0.489631 -4.58191 0
M  V30 4397 H 413.803 -0.284835 -4.15425 0
M  V30 4398 H 416.4 2.42893 -4.76347 0
M  V30 4399 H 416.743 2.79024 -3.08952 0
M  V30 4400 H 417.276 1.23828 -3.78036 0
M  V30 4401 H 414.015 0.101876 -6.55421 0
M  V30 4402 H 413.535 1.6261 -5.77337 0
M  V30 4403 H 415.214 1.39011 -6.3189 0
M  V30 4404 N 415.346 1.54954 0.287554 0
M  V30 4405 C 416.757 1.65732 0.859634 0
M  V30 4406 C 417.108 0.574767 1.87592 0
M  V30 4407 O 416.233 -0.286299 2.14498 0
M  V30 4408 C 416.828 3.00438 1.56597 0
M  V30 4409 C 415.387 3.13292 2.08627 0
M  V30 4410 C 414.534 2.61473 0.923416 0
M  V30 4411 H 417.485 1.5857 0.0642338 0
M  V30 4412 H 417.506 2.92613 2.43224 0
M  V30 4413 H 417.018 3.79207 0.826053 0
M  V30 4414 H 415.119 2.39268 2.85625 0
M  V30 4415 H 415.232 4.19647 2.31157 0
M  V30 4416 H 413.596 2.18264 1.31275 0
M  V30 4417 H 414.379 3.42733 0.197241 0
M  V30 4418 N 416.824 -0.551391 1.4764 0
M  V30 4419 C 418.072 -1.30572 1.54258 0
M  V30 4420 C 418.393 -1.93877 0.208963 0
M  V30 4421 O 417.663 -1.80234 -0.767619 0
M  V30 4422 H 416.243 -0.484894 0.568231 0
M  V30 4423 H 418.905 -0.643402 1.83974 0
M  V30 4424 H 418.001 -2.09621 2.31226 0
M  V30 4425 N 418.302 -1.35869 -0.798587 0
M  V30 4426 C 419.548 -1.30788 -1.55775 0
M  V30 4427 C 419.903 0.114558 -1.92059 0
M  V30 4428 O 419.196 1.06691 -1.59147 0
M  V30 4429 C 419.39 -2.1556 -2.85077 0
M  V30 4430 C 419.219 -3.65904 -2.61428 0
M  V30 4431 C 417.989 -4.35112 -2.56915 0
M  V30 4432 C 420.187 -4.59375 -2.31255 0
M  V30 4433 N 418.169 -5.71155 -2.25068 0
M  V30 4434 C 419.54 -5.83598 -2.09316 0
M  V30 4435 C 421.595 -4.48035 -2.17185 0
M  V30 4436 C 420.298 -6.97755 -1.74731 0
M  V30 4437 C 422.324 -5.62049 -1.83998 0
M  V30 4438 C 421.686 -6.85305 -1.629 0
M  V30 4439 H 417.785 -0.533855 -0.571422 0
M  V30 4440 H 420.369 -1.7083 -0.934079 0
M  V30 4441 H 418.54 -1.77776 -3.45326 0
M  V30 4442 H 420.272 -2.01938 -3.50718 0
M  V30 4443 H 417.027 -3.87812 -2.71843 0
M  V30 4444 H 417.451 -6.42978 -2.11916 0
M  V30 4445 H 422.093 -3.53338 -2.3219 0
M  V30 4446 H 419.811 -7.92411 -1.58464 0
M  V30 4447 H 423.397 -5.55232 -1.73808 0
M  V30 4448 H 422.277 -7.72034 -1.37596 0
M  V30 4449 N 419.78 1.02168 -1.19998 0
M  V30 4450 C 421.01 1.79036 -1.031 0
M  V30 4451 C 421.418 1.84409 0.423078 0
M  V30 4452 O 420.761 1.29228 1.30559 0
M  V30 4453 C 420.823 3.25185 -1.53281 0
M  V30 4454 C 420.487 3.43431 -3.01503 0
M  V30 4455 C 421.484 3.33063 -3.99206 0
M  V30 4456 C 419.169 3.69412 -3.40353 0
M  V30 4457 C 421.163 3.48413 -5.33748 0
M  V30 4458 C 418.85 3.84406 -4.75053 0
M  V30 4459 C 419.848 3.7391 -5.71559 0
M  V30 4460 O 419.536 3.88452 -7.03818 0
M  V30 4461 H 419.268 0.570043 -0.363355 0
M  V30 4462 H 421.822 1.29524 -1.59414 0
M  V30 4463 H 420.052 3.75756 -0.913483 0
M  V30 4464 H 421.741 3.83671 -1.32481 0
M  V30 4465 H 422.507 3.12934 -3.70537 0
M  V30 4466 H 418.386 3.76671 -2.65782 0
M  V30 4467 H 421.93 3.40137 -6.09059 0
M  V30 4468 H 417.827 4.04035 -5.03415 0
M  V30 4469 H 418.595 4.055 -7.10993 0
M  V30 4470 N 421.258 1.00505 1.21394 0
M  V30 4471 C 422.168 0.574806 2.27449 0
M  V30 4472 C 423.184 -0.382206 1.6975 0
M  V30 4473 O 424.36 -0.246027 1.99892 0
M  V30 4474 C 421.425 -0.0917414 3.46579 0
M  V30 4475 C 420.486 0.909758 4.1955 0
M  V30 4476 C 419.719 0.274924 5.32991 0
M  V30 4477 O 419.942 -0.928254 5.62796 0
M  V30 4478 O 418.876 0.985877 5.93771 0
M  V30 4479 H 422.702 1.45744 2.66444 0
M  V30 4480 H 420.287 0.773923 1.27792 0
M  V30 4481 H 422.169 -0.464551 4.18832 0
M  V30 4482 H 420.844 -0.948755 3.09484 0
M  V30 4483 H 419.751 1.33372 3.49518 0
M  V30 4484 H 421.084 1.73636 4.60555 0
M  V30 4485 N 422.737 -1.36956 0.779787 0
M  V30 4486 C 424.148 -1.82094 0.412156 0
M  V30 4487 C 424.499 -1.64926 -1.06273 0
M  V30 4488 O 423.624 -1.16483 -1.82375 0
M  V30 4489 C 424.219 -3.3059 0.741319 0
M  V30 4490 C 422.778 -3.73974 0.426641 0
M  V30 4491 C 421.925 -2.59368 0.980987 0
M  V30 4492 H 424.876 -1.25314 0.973758 0
M  V30 4493 H 424.897 -3.80489 0.028887 0
M  V30 4494 H 424.409 -3.43054 1.81482 0
M  V30 4495 H 422.51 -3.67076 -0.639215 0
M  V30 4496 H 422.623 -4.69778 0.940515 0
M  V30 4497 H 420.987 -2.51463 0.404757 0
M  V30 4498 H 421.77 -2.74621 2.06005 0
M  V30 4499 N 424.215 -0.530993 -1.48385 0
M  V30 4500 C 425.44 0.000729535 -2.074 0
M  V30 4501 C 425.865 1.27298 -1.3848 0
M  V30 4502 O 425.223 1.75599 -0.451081 0
M  V30 4503 C 425.271 0.206697 -3.60007 0
M  V30 4504 O 424.375 1.27514 -3.92191 0
M  V30 4505 H 423.716 -0.039583 -0.662819 0
M  V30 4506 H 426.246 -0.739194 -1.9078 0
M  V30 4507 H 426.256 0.42904 -4.05738 0
M  V30 4508 H 424.931 -0.722675 -4.09573 0
M  V30 4509 H 423.508 1.03537 -3.58238 0
M  V30 4510 N 425.693 1.55336 -0.266172 0
M  V30 4511 C 426.939 2.00423 0.346714 0
M  V30 4512 C 427.294 1.15132 1.54151 0
M  V30 4513 O 426.587 0.211289 1.90431 0
M  V30 4514 C 426.781 3.48606 0.787957 0
M  V30 4515 C 426.61 4.48236 -0.362535 0
M  V30 4516 C 425.38 4.98211 -0.843445 0
M  V30 4517 C 427.578 5.00199 -1.19603 0
M  V30 4518 N 425.56 5.81625 -1.96434 0
M  V30 4519 C 426.931 5.80973 -2.16497 0
M  V30 4520 C 428.986 4.82458 -1.2304 0
M  V30 4521 C 427.689 6.45896 -3.1656 0
M  V30 4522 C 429.715 5.48174 -2.21944 0
M  V30 4523 C 429.077 6.28751 -3.17571 0
M  V30 4524 H 425.176 0.776535 0.0922914 0
M  V30 4525 H 427.76 1.90792 -0.388154 0
M  V30 4526 H 425.931 3.58597 1.49207 0
M  V30 4527 H 427.663 3.80538 1.37742 0
M  V30 4528 H 424.418 4.71696 -0.424271 0
M  V30 4529 H 424.842 6.28025 -2.52813 0
M  V30 4530 H 429.484 4.19774 -0.504903 0
M  V30 4531 H 427.202 7.07734 -3.90048 0
M  V30 4532 H 430.788 5.36392 -2.25333 0
M  V30 4533 H 429.668 6.78703 -3.92851 0
M  V30 4534 N 427.171 -0.0066808 1.57599 0
M  V30 4535 C 428.417 -0.68835 1.91398 0
M  V30 4536 C 428.772 -1.7175 0.86716 0
M  V30 4537 O 428.065 -1.91215 -0.121475 0
M  V30 4538 C 428.259 -1.37939 3.29708 0
M  V30 4539 C 428.088 -0.418689 4.47747 0
M  V30 4540 C 426.858 -0.031526 5.0529 0
M  V30 4541 C 429.056 0.312301 5.13351 0
M  V30 4542 N 427.038 0.928088 6.06844 0
M  V30 4543 C 428.409 1.12682 6.09674 0
M  V30 4544 C 430.464 0.376853 4.96472 0
M  V30 4545 C 429.167 2 6.90936 0
M  V30 4546 C 431.193 1.23723 5.78314 0
M  V30 4547 C 430.555 2.03962 6.74225 0
M  V30 4548 H 426.654 -0.225292 0.748844 0
M  V30 4549 H 429.238 0.0520973 1.9463 0
M  V30 4550 H 427.409 -2.09017 3.27363 0
M  V30 4551 H 429.141 -2.01522 3.50957 0
M  V30 4552 H 425.896 -0.398485 4.71921 0
M  V30 4553 H 426.32 1.40307 6.62301 0
M  V30 4554 H 430.962 -0.22921 4.22178 0
M  V30 4555 H 428.68 2.61676 7.64559 0
M  V30 4556 H 432.266 1.291 5.67296 0
M  V30 4557 H 431.146 2.69461 7.36451 0
M  V30 4558 N 428.649 -1.55105 -0.279332 0
M  V30 4559 C 429.559 -1.90638 -1.36727 0
M  V30 4560 C 430.575 -0.802899 -1.54368 0
M  V30 4561 O 431.751 -1.10138 -1.68616 0
M  V30 4562 C 428.816 -2.16547 -2.70755 0
M  V30 4563 C 427.877 -3.40146 -2.61915 0
M  V30 4564 C 427.11 -3.6481 -3.8955 0
M  V30 4565 O 427.333 -2.92095 -4.89935 0
M  V30 4566 O 426.267 -4.58343 -3.90135 0
M  V30 4567 H 430.093 -2.83237 -1.09591 0
M  V30 4568 H 427.678 -1.4157 -0.477306 0
M  V30 4569 H 429.56 -2.34665 -3.50014 0
M  V30 4570 H 428.235 -1.27131 -2.9769 0
M  V30 4571 H 427.142 -3.2737 -1.81052 0
M  V30 4572 H 428.475 -4.29761 -2.3993 0
M  V30 4573 N 430.127 0.543554 -1.4793 0
M  V30 4574 C 431.059 1.665 -1.57513 0
M  V30 4575 C 432.072 1.56156 -0.460333 0
M  V30 4576 O 433.261 1.62865 -0.730573 0
M  V30 4577 C 430.361 3.05063 -1.47614 0
M  V30 4578 C 429.534 3.41024 -2.739 0
M  V30 4579 C 428.593 4.58809 -2.57645 0
M  V30 4580 O 427.619 4.62707 -3.31498 0
M  V30 4581 N 428.821 5.56149 -1.66368 0
M  V30 4582 H 431.586 1.5872 -2.5422 0
M  V30 4583 H 429.147 0.730517 -1.44482 0
M  V30 4584 H 431.139 3.81712 -1.34455 0
M  V30 4585 H 429.709 3.06994 -0.589359 0
M  V30 4586 H 428.929 2.53687 -3.01723 0
M  V30 4587 H 430.217 3.61831 -3.57709 0
M  V30 4588 H 429.615 5.55767 -1.05543 0
M  V30 4589 H 428.172 6.32071 -1.59154 0
M  V30 4590 N 431.605 1.3629 0.791371 0
M  V30 4591 C 432.851 1.30605 1.55146 0
M  V30 4592 C 433.184 -0.115042 1.93859 0
M  V30 4593 O 432.459 -1.06798 1.62556 0
M  V30 4594 C 432.742 2.22692 2.82985 0
M  V30 4595 C 432.595 3.73489 2.50651 0
M  V30 4596 C 433.914 2.13588 3.84796 0
M  V30 4597 H 431.033 0.475761 0.562868 0
M  V30 4598 H 433.675 1.66825 0.909358 0
M  V30 4599 H 431.825 1.91933 3.37778 0
M  V30 4600 H 433.497 4.14758 2.01924 0
M  V30 4601 H 431.74 3.93021 1.83622 0
M  V30 4602 H 432.411 4.3333 3.41949 0
M  V30 4603 H 434.887 2.40659 3.39445 0
M  V30 4604 H 433.763 2.80195 4.71998 0
M  V30 4605 H 434.024 1.12256 4.27611 0
M  V30 4606 N 433.083 -1.0153 1.20538 0
M  V30 4607 C 434.033 -2.08482 0.922991 0
M  V30 4608 C 435.017 -1.60469 -0.117702 0
M  V30 4609 O 436.209 -1.76772 0.0898465 0
M  V30 4610 C 433.338 -3.39952 0.478312 0
M  V30 4611 C 432.424 -3.94662 1.5525 0
M  V30 4612 N 432.815 -4.22866 2.77521 0
M  V30 4613 C 431.113 -4.22825 1.41897 0
M  V30 4614 C 431.814 -4.67002 3.4682 0
M  V30 4615 N 430.79 -4.69356 2.74237 0
M  V30 4616 H 434.592 -2.28199 1.85209 0
M  V30 4617 H 432.106 -1.19512 1.09957 0
M  V30 4618 H 434.103 -4.16105 0.257408 0
M  V30 4619 H 432.763 -3.21648 -0.444148 0
M  V30 4620 H 433.774 -4.11732 3.1416 0
M  V30 4621 H 430.451 -4.13714 0.561015 0
M  V30 4622 H 431.841 -4.97632 4.51455 0
M  V30 4623 N 434.561 -1.01147 -1.20859 0
M  V30 4624 C 435.789 -0.716911 -1.94082 0
M  V30 4625 C 436.204 0.721568 -1.74467 0
M  V30 4626 O 435.561 1.48889 -1.05539 0
M  V30 4627 C 435.612 -1.03662 -3.46318 0
M  V30 4628 O 435.333 -2.4186 -3.65288 0
M  V30 4629 C 436.834 -0.762386 -4.36695 0
M  V30 4630 H 434.054 -0.26367 -0.617024 0
M  V30 4631 H 436.598 -1.35127 -1.53496 0
M  V30 4632 H 434.753 -0.447757 -3.84804 0
M  V30 4633 H 435.167 -2.53224 -4.59323 0
M  V30 4634 H 436.641 -1.03621 -5.42187 0
M  V30 4635 H 437.118 0.303514 -4.3815 0
M  V30 4636 H 437.724 -1.33316 -4.03865 0
M  V30 4637 N 436.039 1.36541 -0.78704 0
M  V30 4638 C 436.949 2.3387 -0.184896 0
M  V30 4639 C 437.965 1.60927 0.661697 0
M  V30 4640 O 439.141 1.92927 0.57804 0
M  V30 4641 C 436.206 3.40122 0.672145 0
M  V30 4642 C 435.267 4.28867 -0.19267 0
M  V30 4643 C 434.5 5.30045 0.623561 0
M  V30 4644 O 434.723 5.39232 1.8597 0
M  V30 4645 O 433.657 6.01895 0.0247068 0
M  V30 4646 H 437.483 2.87126 -0.989562 0
M  V30 4647 H 435.068 1.38969 -0.548455 0
M  V30 4648 H 436.95 4.05093 1.16094 0
M  V30 4649 H 435.625 2.89169 1.45474 0
M  V30 4650 H 434.532 3.66945 -0.728166 0
M  V30 4651 H 435.865 4.83165 -0.938722 0
M  V30 4652 N 437.518 0.538854 1.48102 0
M  V30 4653 C 438.481 -0.208395 2.28251 0
M  V30 4654 C 439.481 -0.859656 1.35892 0
M  V30 4655 O 440.671 -0.71834 1.58699 0
M  V30 4656 C 437.803 -1.30252 3.15035 0
M  V30 4657 H 438.996 0.495407 2.9578 0
M  V30 4658 H 436.549 0.295112 1.53489 0
M  V30 4659 H 437.284 -2.0393 2.52157 0
M  V30 4660 H 437.069 -0.840551 3.82985 0
M  V30 4661 H 438.559 -1.82787 3.75471 0
M  V30 4662 N 438.996 -1.55193 0.274407 0
M  V30 4663 C 439.944 -2.23924 -0.629362 0
M  V30 4664 C 440.938 -1.23602 -1.1584 0
M  V30 4665 O 442.144 -1.41535 -1.11211 0
M  V30 4666 H 438.519 -0.718637 -0.221507 0
M  V30 4667 H 440.49 -2.98388 -0.0268322 0
M  V30 4668 C 439.239 -2.97329 -1.80252 0
M  V30 4669 H 438.562 -3.74313 -1.40462 0
M  V30 4670 H 440.002 -3.48743 -2.41152 0
M  V30 4671 C 438.461 -2.0276 -2.69054 0
M  V30 4672 O 438.991 -1.57836 -3.69392 0
M  V30 4673 N 437.197 -1.69275 -2.36208 0
M  V30 4674 H 436.744 -2.06004 -1.54661 0
M  V30 4675 H 436.702 -1.06271 -2.95895 0
M  V30 4676 N 440.474 -0.00167713 -1.576 0
M  V30 4677 C 441.699 0.69739 -1.95323 0
M  V30 4678 C 442.124 1.6642 -0.876706 0
M  V30 4679 O 441.482 1.80548 0.165007 0
M  V30 4680 C 441.53 1.40403 -3.32144 0
M  V30 4681 O 440.634 2.5185 -3.26566 0
M  V30 4682 H 439.975 0.185373 -0.637599 0
M  V30 4683 H 442.505 -0.0553665 -2.04525 0
M  V30 4684 H 442.515 1.76707 -3.67748 0
M  V30 4685 H 441.19 0.695167 -4.10049 0
M  V30 4686 H 439.767 2.17861 -3.0264 0
M  V30 4687 N 441.952 1.55251 0.271103 0
M  V30 4688 C 443.177 1.80306 1.02491 0
M  V30 4689 C 443.602 0.575457 1.79081 0
M  V30 4690 O 442.96 -0.474987 1.74967 0
M  V30 4691 C 443.008 3.02832 1.95768 0
M  V30 4692 O 442.112 2.78051 3.04568 0
M  V30 4693 H 441.453 0.595896 0.292923 0
M  V30 4694 H 443.983 2.02397 0.299436 0
M  V30 4695 H 443.993 3.31616 2.37686 0
M  V30 4696 H 442.668 3.9183 1.39434 0
M  V30 4697 H 441.245 2.60369 2.66951 0
M  V30 4698 N 443.43 -0.535701 1.48216 0
M  V30 4699 C 444.846 -0.863701 1.3421 0
M  V30 4700 C 445.046 -1.98458 0.34879 0
M  V30 4701 O 444.102 -2.51432 -0.23204 0
M  V30 4702 C 445.415 -1.23662 2.74095 0
M  V30 4703 C 446.963 -1.34683 2.82541 0
M  V30 4704 C 447.438 -1.75322 4.23115 0
M  V30 4705 N 448.929 -1.82434 4.2576 0
M  V30 4706 C 449.664 -2.15252 5.31464 0
M  V30 4707 N 449.16 -2.46533 6.47452 0
M  V30 4708 N 450.953 -2.16209 5.18855 0
M  V30 4709 H 443.104 0.203965 2.11418 0
M  V30 4710 H 445.367 0.0286033 0.947568 0
M  V30 4711 H 445.073 -0.486674 3.48316 0
M  V30 4712 H 444.947 -2.18805 3.07253 0
M  V30 4713 H 447.334 -2.08756 2.08579 0
M  V30 4714 H 447.415 -0.376756 2.5301 0
M  V30 4715 H 447.059 -1.01812 4.97591 0
M  V30 4716 H 446.989 -2.7337 4.50085 0
M  V30 4717 H 449.48 -1.6056 3.42095 0
M  V30 4718 H 449.793 -2.70662 7.23852 0
M  V30 4719 H 448.138 -2.44065 6.50736 0
M  V30 4720 H 451.329 -1.91224 4.2726 0
M  V30 4721 H 451.502 -2.41453 6.01335 0
M  V30 4722 N 444.908 -1.36708 -0.784132 0
M  V30 4723 C 446.148 -1.32618 -1.55537 0
M  V30 4724 C 446.512 0.0920681 -1.91779 0
M  V30 4725 O 447.713 0.257573 -2.67563 0
M  V30 4726 C 445.984 -2.22788 -2.79464 0
M  V30 4727 S 447.543 -2.36432 -3.69656 0
M  V30 4728 H 444.361 -0.470973 -0.53264 0
M  V30 4729 H 446.963 -1.72333 -0.92312 0
M  V30 4730 H 445.667 -3.24774 -2.50899 0
M  V30 4731 H 445.198 -1.84112 -3.47658 0
M  V30 4732 H 447.213 -1.56573 -4.7085 0
M  V30 4733 N 446.386 1.0089 -1.21074 0
M  V30 4734 C 447.316 2.1145 -0.990523 0
M  V30 4735 C 448.297 1.69897 0.0831699 0
M  V30 4736 O 449.482 1.94052 -0.0758853 0
M  V30 4737 C 446.612 3.42914 -0.550177 0
M  V30 4738 C 445.566 3.98244 -1.56799 0
M  V30 4739 C 444.892 5.25568 -0.984013 0
M  V30 4740 C 446.192 4.30752 -2.95381 0
M  V30 4741 H 447.886 2.3013 -1.91521 0
M  V30 4742 H 445.432 1.10592 -0.92225 0
M  V30 4743 H 447.385 4.19653 -0.383305 0
M  V30 4744 H 446.109 3.24014 0.41015 0
M  V30 4745 H 444.768 3.23621 -1.72236 0
M  V30 4746 H 444.416 5.02998 -0.0155216 0
M  V30 4747 H 444.116 5.63551 -1.66384 0
M  V30 4748 H 445.64 6.04955 -0.828378 0
M  V30 4749 H 447.054 4.98349 -2.8341 0
M  V30 4750 H 445.451 4.79869 -3.60341 0
M  V30 4751 H 446.521 3.39192 -3.46521 0
M  V30 4752 N 447.864 1.01787 1.20321 0
M  V30 4753 C 449.28 0.732951 1.41774 0
M  V30 4754 C 449.48 -0.686883 1.89431 0
M  V30 4755 O 448.536 -1.45446 2.06402 0
M  V30 4756 C 449.849 1.75973 2.43832 0
M  V30 4757 C 451.397 1.77802 2.57596 0
M  V30 4758 C 451.872 2.7941 3.62897 0
M  V30 4759 N 453.363 2.78157 3.70382 0
M  V30 4760 C 454.098 3.53434 4.51521 0
M  V30 4761 N 453.594 4.38392 5.36455 0
M  V30 4762 N 455.387 3.42026 4.46066 0
M  V30 4763 H 447.538 1.93447 0.877035 0
M  V30 4764 H 449.801 0.835712 0.447536 0
M  V30 4765 H 449.507 2.77699 2.15815 0
M  V30 4766 H 449.381 1.57292 3.4284 0
M  V30 4767 H 451.768 0.767602 2.84942 0
M  V30 4768 H 451.849 2.00557 1.58779 0
M  V30 4769 H 451.493 3.80616 3.36295 0
M  V30 4770 H 451.423 2.53916 4.61339 0
M  V30 4771 H 453.914 2.16531 3.09714 0
M  V30 4772 H 454.227 4.92596 5.95457 0
M  V30 4773 H 452.572 4.4247 5.35953 0
M  V30 4774 H 455.763 2.75075 3.78749 0
M  V30 4775 H 455.936 4.00946 5.09064 0
M  V30 4776 N 449.342 -1.36122 0.79427 0
M  V30 4777 C 450.289 -2.29982 0.194101 0
M  V30 4778 C 451.259 -1.52214 -0.664833 0
M  V30 4779 O 452.444 -1.80702 -0.612498 0
M  V30 4780 C 449.584 -3.38706 -0.661244 0
M  V30 4781 C 448.697 -4.31456 0.216766 0
M  V30 4782 C 447.832 -5.27265 -0.645411 0
M  V30 4783 C 446.871 -6.11653 0.233756 0
M  V30 4784 N 446.008 -6.99636 -0.587682 0
M  V30 4785 H 450.848 -2.80722 0.999965 0
M  V30 4786 H 448.385 -1.38172 0.504677 0
M  V30 4787 H 450.343 -4.00394 -1.17219 0
M  V30 4788 H 448.973 -2.89274 -1.43249 0
M  V30 4789 H 448.025 -3.7088 0.845724 0
M  V30 4790 H 449.337 -4.90724 0.893973 0
M  V30 4791 H 448.491 -5.94266 -1.22198 0
M  V30 4792 H 447.23 -4.68463 -1.35623 0
M  V30 4793 H 446.235 -5.4361 0.82269 0
M  V30 4794 H 447.46 -6.72531 0.942247 0
M  V30 4795 H 445.406 -6.43337 -1.2827 0
M  V30 4796 H 445.323 -7.55993 0.0317402 0
M  V30 4797 H 446.591 -7.71001 -1.14792 0
M  V30 4798 N 450.82 -0.546701 -1.47814 0
M  V30 4799 C 451.768 0.220048 -2.31557 0
M  V30 4800 C 452.762 0.919472 -1.42275 0
M  V30 4801 O 453.968 0.841953 -1.59095 0
M  V30 4802 H 450.343 0.0898334 -0.746615 0
M  V30 4803 H 452.314 -0.505589 -2.94086 0
M  V30 4804 C 451.063 1.24353 -3.24702 0
M  V30 4805 H 450.386 0.714758 -3.93359 0
M  V30 4806 H 451.826 1.75112 -3.8615 0
M  V30 4807 C 450.285 2.28593 -2.47481 0
M  V30 4808 O 450.815 3.35334 -2.21165 0
M  V30 4809 N 449.021 2.02244 -2.08676 0
M  V30 4810 H 448.568 1.15455 -2.30278 0
M  V30 4811 H 448.526 2.72207 -1.57323 0
M  V30 4812 N 452.299 1.55045 -0.282633 0
M  V30 4813 C 453.229 2.2579 0.595066 0
M  V30 4814 C 454.21 1.25074 1.15284 0
M  V30 4815 O 455.395 1.5381 1.18559 0
M  V30 4816 C 452.525 2.98472 1.77572 0
M  V30 4817 C 451.479 4.0618 1.34914 0
M  V30 4818 C 450.805 4.66477 2.6135 0
M  V30 4819 C 452.105 5.1996 0.493821 0
M  V30 4820 H 453.799 2.994 0.00505653 0
M  V30 4821 H 451.345 1.44 0.000992001 0
M  V30 4822 H 453.298 3.46677 2.39568 0
M  V30 4823 H 452.022 2.2241 2.39168 0
M  V30 4824 H 450.681 3.58797 0.752338 0
M  V30 4825 H 450.329 3.87074 3.2122 0
M  V30 4826 H 450.029 5.39207 2.33516 0
M  V30 4827 H 451.553 5.17435 3.24181 0
M  V30 4828 H 452.967 5.64172 1.01898 0
M  V30 4829 H 451.364 5.99299 0.310047 0
M  V30 4830 H 452.434 4.82462 -0.485593 0
M  V30 4831 N 453.777 0.010035 1.57597 0
M  V30 4832 C 454.707 -0.976857 2.12084 0
M  V30 4833 C 455.688 -1.35191 1.03235 0
M  V30 4834 O 456.873 -1.43389 1.3097 0
M  V30 4835 C 454.003 -2.26548 2.63236 0
M  V30 4836 C 452.957 -2.03175 3.76701 0
M  V30 4837 C 452.283 -3.38138 4.14206 0
M  V30 4838 C 453.583 -1.38625 5.03568 0
M  V30 4839 H 455.277 -0.523145 2.94794 0
M  V30 4840 H 452.823 -0.250195 1.4181 0
M  V30 4841 H 454.776 -2.95952 2.99984 0
M  V30 4842 H 453.5 -2.74051 1.77661 0
M  V30 4843 H 452.159 -1.36195 3.40362 0
M  V30 4844 H 451.807 -3.83363 3.25641 0
M  V30 4845 H 451.507 -3.23312 4.90656 0
M  V30 4846 H 453.031 -4.08841 4.53521 0
M  V30 4847 H 454.445 -1.98 5.38023 0
M  V30 4848 H 452.842 -1.34256 5.84889 0
M  V30 4849 H 453.912 -0.356722 4.83586 0
M  V30 4850 N 455.255 -1.55392 -0.262866 0
M  V30 4851 C 456.218 -1.88181 -1.30846 0
M  V30 4852 C 457.218 -0.757079 -1.41862 0
M  V30 4853 O 458.408 -1.02519 -1.40838 0
M  V30 4854 C 455.54 -2.09609 -2.68844 0
M  V30 4855 H 456.733 -2.81659 -1.02997 0
M  V30 4856 H 454.286 -1.48039 -0.501414 0
M  V30 4857 H 455.021 -1.18547 -3.01856 0
M  V30 4858 H 454.806 -2.91508 -2.62231 0
M  V30 4859 H 456.296 -2.36215 -3.44372 0
M  V30 4860 N 456.733 0.527833 -1.48498 0
M  V30 4861 C 457.696 1.61439 -1.62696 0
M  V30 4862 C 458.696 1.52824 -0.500136 0
M  V30 4863 O 459.886 1.56456 -0.765976 0
M  V30 4864 C 457.018 3.01063 -1.59918 0
M  V30 4865 H 458.211 1.50189 -2.59583 0
M  V30 4866 H 455.764 0.750055 -1.37127 0
M  V30 4867 H 456.499 3.17818 -0.645163 0
M  V30 4868 H 456.284 3.08725 -2.41726 0
M  V30 4869 H 457.774 3.80057 -1.73051 0
M  V30 4870 N 458.211 1.37122 0.776871 0
M  V30 4871 C 459.144 1.26835 1.89705 0
M  V30 4872 C 460.122 0.14992 1.61907 0
M  V30 4873 O 461.306 0.323242 1.85708 0
M  V30 4874 C 458.433 0.95986 3.24814 0
M  V30 4875 C 457.479 2.09447 3.7153 0
M  V30 4876 S 458.312 3.71368 3.85806 0
M  V30 4877 C 459.468 3.42659 5.23771 0
M  V30 4878 H 459.701 2.21647 1.98141 0
M  V30 4879 H 457.234 1.22685 0.937433 0
M  V30 4880 H 459.192 0.788696 4.02852 0
M  V30 4881 H 457.853 0.0293137 3.14086 0
M  V30 4882 H 457.046 1.8335 4.69467 0
M  V30 4883 H 456.648 2.2255 3.00578 0
M  V30 4884 H 458.94 2.9733 6.0877 0
M  V30 4885 H 459.883 4.39905 5.54878 0
M  V30 4886 H 460.291 2.77708 4.91466 0
M  V30 4887 N 459.689 -1.00246 1.21608 0
M  V30 4888 C 460.599 -2.12515 0.993709 0
M  V30 4889 C 461.615 -1.73913 -0.0549939 0
M  V30 4890 O 462.791 -2.00943 0.135619 0
M  V30 4891 C 459.856 -3.42083 0.563953 0
M  V30 4892 C 458.917 -3.94843 1.68516 0
M  V30 4893 C 458.15 -5.18226 1.27582 0
M  V30 4894 O 458.373 -5.70201 0.150506 0
M  V30 4895 O 457.307 -5.64497 2.0887 0
M  V30 4896 H 461.133 -2.34152 1.93407 0
M  V30 4897 H 458.718 -1.10891 1.00118 0
M  V30 4898 H 460.6 -4.20073 0.334194 0
M  V30 4899 H 459.275 -3.21828 -0.347665 0
M  V30 4900 H 458.182 -3.18068 1.96935 0
M  V30 4901 H 459.515 -4.19512 2.5743 0
M  V30 4902 N 461.167 -1.02423 -1.1978 0
M  V30 4903 C 462.415 -0.716569 -1.8897 0
M  V30 4904 C 462.736 0.756769 -1.79716 0
M  V30 4905 O 462.006 1.5449 -1.20456 0
M  V30 4906 H 460.586 -0.262062 -0.699523 0
M  V30 4907 H 463.248 -1.29747 -1.45436 0
M  V30 4908 H 462.344 -1.00675 -2.95417 0
M  V30 4909 N 462.645 1.35699 -0.801477 0
M  V30 4910 C 463.875 2.02862 -0.3912 0
M  V30 4911 C 464.283 1.60552 1.00099 0
M  V30 4912 O 463.626 0.796215 1.65548 0
M  V30 4913 C 463.688 3.57386 -0.389299 0
M  V30 4914 C 463.352 4.22943 -1.73113 0
M  V30 4915 C 464.349 4.44984 -2.68859 0
M  V30 4916 C 462.034 4.60167 -2.01373 0
M  V30 4917 C 464.028 5.03345 -3.91053 0
M  V30 4918 C 461.715 5.18243 -3.23832 0
M  V30 4919 C 462.713 5.39773 -4.1849 0
M  V30 4920 O 462.401 5.96626 -5.38788 0
M  V30 4921 H 462.133 0.657341 -0.157732 0
M  V30 4922 H 464.687 1.74407 -1.08496 0
M  V30 4923 H 462.917 3.85011 0.361031 0
M  V30 4924 H 464.606 4.059 -0.0020365 0
M  V30 4925 H 465.372 4.1661 -2.48316 0
M  V30 4926 H 461.251 4.42726 -1.28508 0
M  V30 4927 H 464.795 5.20065 -4.64949 0
M  V30 4928 H 460.692 5.46044 -3.44248 0
M  V30 4929 H 461.46 6.15082 -5.40015 0
M  V30 4930 N 464.123 0.554532 1.47522 0
M  V30 4931 C 465.372 0.0273458 2.01681 0
M  V30 4932 C 465.685 -1.32962 1.43459 0
M  V30 4933 O 466.891 -1.94657 1.89265 0
M  V30 4934 C 465.347 -0.00159057 3.599 0
M  V30 4935 C 464.955 1.35197 4.27113 0
M  V30 4936 C 466.699 -0.476311 4.21819 0
M  V30 4937 C 464.606 1.28229 5.77331 0
M  V30 4938 H 463.536 0.00645269 0.753972 0
M  V30 4939 H 466.187 0.701985 1.69542 0
M  V30 4940 H 464.569 -0.741821 3.8899 0
M  V30 4941 H 465.743 2.1097 4.09668 0
M  V30 4942 H 464.058 1.76441 3.77171 0
M  V30 4943 H 466.655 -0.5468 5.31897 0
M  V30 4944 H 466.998 -1.4877 3.8881 0
M  V30 4945 H 467.531 0.20898 3.97251 0
M  V30 4946 H 464.27 2.26959 6.14955 0
M  V30 4947 H 463.79 0.566314 5.97121 0
M  V30 4948 H 465.469 0.983226 6.39485 0
M  V30 4949 N 465.601 -1.54893 0.290851 0
M  V30 4950 C 466.849 -1.99538 -0.320756 0
M  V30 4951 C 467.17 -1.18075 -1.55188 0
M  V30 4952 O 466.44 -0.274162 -1.93972 0
M  V30 4953 H 465.02 -0.737052 -0.121507 0
M  V30 4954 H 467.682 -1.90755 0.399832 0
M  V30 4955 H 466.778 -3.06282 -0.599802 0
M  V30 4956 N 467.08 -0.0183926 -1.57589 0
M  V30 4957 C 468.326 0.663543 -1.91638 0
M  V30 4958 C 468.659 1.72392 -0.894134 0
M  V30 4959 O 467.934 1.94316 0.0846449 0
M  V30 4960 C 468.217 1.28984 -3.36207 0
M  V30 4961 C 468.07 0.239761 -4.49161 0
M  V30 4962 C 469.389 2.2109 -3.80536 0
M  V30 4963 H 466.508 0.239746 -0.696915 0
M  V30 4964 H 469.15 -0.073456 -1.89858 0
M  V30 4965 H 467.3 1.91799 -3.37854 0
M  V30 4966 H 468.972 -0.390119 -4.59647 0
M  V30 4967 H 467.215 -0.435972 -4.31604 0
M  V30 4968 H 467.886 0.717383 -5.47319 0
M  V30 4969 H 470.362 1.68273 -3.80557 0
M  V30 4970 H 469.238 2.61869 -4.82406 0
M  V30 4971 H 469.499 3.09764 -3.15434 0
M  V30 4972 N 468.558 1.5553 0.254621 0
M  V30 4973 C 469.835 1.6774 1.00611 0
M  V30 4974 C 470.215 0.555993 2.03647 0
M  V30 4975 O 469.563 -0.441583 2.24193 0
M  V30 4976 C 469.773 3.07725 1.6464 0
M  V30 4977 C 471.121 3.66074 2.15116 0
M  V30 4978 O 472.145 3.10476 1.74595 0
M  V30 4979 O 471.004 4.63526 2.89493 0
M  V30 4980 H 468.098 0.681958 0.467828 0
M  V30 4981 H 470.644 1.67863 0.24902 0
M  V30 4982 H 469.416 3.80792 0.900734 0
M  V30 4983 H 469.039 3.1158 2.46989 0
M  V30 4984 N 470.036 -0.519951 1.48776 0
M  V30 4985 C 471.283 -1.27522 1.57303 0
M  V30 4986 C 471.611 -1.92869 0.251328 0
M  V30 4987 O 470.866 -1.80372 -0.759243 0
M  V30 4988 C 471.165 -2.37864 2.6675 0
M  V30 4989 C 470.831 -1.90103 4.08867 0
M  V30 4990 C 469.493 -1.76795 4.47546 0
M  V30 4991 C 471.845 -1.54133 4.97888 0
M  V30 4992 C 469.173 -1.25868 5.73039 0
M  V30 4993 C 471.525 -1.04665 6.23881 0
M  V30 4994 C 470.189 -0.899823 6.61407 0
M  V30 4995 H 469.459 -0.466636 0.575614 0
M  V30 4996 H 472.106 -0.579109 1.82534 0
M  V30 4997 H 470.411 -3.13186 2.35418 0
M  V30 4998 H 472.108 -2.95969 2.70561 0
M  V30 4999 H 468.698 -2.01414 3.78326 0
M  V30 5000 H 472.882 -1.6327 4.68675 0
M  V30 5001 H 468.138 -1.13196 6.0083 0
M  V30 5002 H 472.312 -0.759074 6.92251 0
M  V30 5003 H 469.939 -0.503011 7.58534 0
M  V30 5004 N 471.514 -1.37532 -0.769588 0
M  V30 5005 C 472.424 -1.35668 -1.91393 0
M  V30 5006 C 473.44 -0.255954 -1.72107 0
M  V30 5007 O 474.616 -0.491704 -1.95305 0
M  V30 5008 C 471.681 -1.16481 -3.26547 0
M  V30 5009 C 470.742 -2.36212 -3.58472 0
M  V30 5010 C 469.975 -2.17932 -4.87177 0
M  V30 5011 O 470.198 -1.1647 -5.58382 0
M  V30 5012 O 469.132 -3.06167 -5.18214 0
M  V30 5013 H 472.958 -2.32055 -1.95918 0
M  V30 5014 H 470.543 -1.18284 -0.912641 0
M  V30 5015 H 472.425 -1.07778 -4.07384 0
M  V30 5016 H 471.1 -0.231687 -3.2287 0
M  V30 5017 H 470.007 -2.50488 -2.77861 0
M  V30 5018 H 471.34 -3.281 -3.66894 0
M  V30 5019 N 472.992 0.995999 -1.22138 0
M  V30 5020 C 474.403 1.54961 -1.04135 0
M  V30 5021 C 474.754 1.92159 0.396147 0
M  V30 5022 O 473.879 1.74435 1.28069 0
M  V30 5023 C 474.474 2.81581 -1.88408 0
M  V30 5024 C 473.033 3.33396 -1.74712 0
M  V30 5025 C 472.18 2.06509 -1.85066 0
M  V30 5026 H 475.131 0.817436 -1.36028 0
M  V30 5027 H 475.152 3.53822 -1.39966 0
M  V30 5028 H 474.664 2.54476 -2.93025 0
M  V30 5029 H 472.765 3.65416 -0.728159 0
M  V30 5030 H 472.878 4.04208 -2.57202 0
M  V30 5031 H 471.242 2.19925 -1.28472 0
M  V30 5032 H 472.025 1.81804 -2.91208 0
M  V30 5033 N 474.47 1.03057 1.19235 0
M  V30 5034 C 475.4 0.633497 2.24742 0
M  V30 5035 C 476.381 -0.358335 1.66283 0
M  V30 5036 O 477.566 -0.240676 1.92703 0
M  V30 5037 C 474.696 -0.0147648 3.47297 0
M  V30 5038 C 473.65 0.899527 4.18441 0
M  V30 5039 C 472.976 0.116281 5.34574 0
M  V30 5040 C 474.276 2.21404 4.73051 0
M  V30 5041 H 475.97 1.5155 2.58211 0
M  V30 5042 H 473.516 0.73014 1.24117 0
M  V30 5043 H 475.469 -0.304202 4.20301 0
M  V30 5044 H 474.193 -0.931577 3.13032 0
M  V30 5045 H 472.852 1.17319 3.47321 0
M  V30 5046 H 472.5 -0.802619 4.96555 0
M  V30 5047 H 472.2 0.725293 5.83107 0
M  V30 5048 H 473.724 -0.166376 6.10373 0
M  V30 5049 H 475.138 1.98601 5.37802 0
M  V30 5050 H 473.535 2.77512 5.32078 0
M  V30 5051 H 474.605 2.86752 3.91026 0
M  V30 5052 N 475.948 -1.35272 0.808662 0
M  V30 5053 C 477.173 -2.03477 0.401475 0
M  V30 5054 C 477.598 -1.60537 -0.980279 0
M  V30 5055 O 476.956 -0.78304 -1.63518 0
M  V30 5056 C 477.004 -3.57181 0.495354 0
M  V30 5057 O 476.108 -4.09474 -0.490397 0
M  V30 5058 H 475.449 -0.642561 0.167366 0
M  V30 5059 H 477.979 -1.72824 1.09512 0
M  V30 5060 H 477.989 -4.06356 0.365912 0
M  V30 5061 H 476.664 -3.87784 1.5032 0
M  V30 5062 H 475.241 -3.71516 -0.321023 0
M  V30 5063 N 477.426 -0.562348 -1.47226 0
M  V30 5064 C 478.651 -0.0432632 -2.07355 0
M  V30 5065 C 479.076 1.24332 -1.41149 0
M  V30 5066 O 478.434 1.74603 -0.488226 0
M  V30 5067 C 478.482 0.130288 -3.60365 0
M  V30 5068 O 477.586 1.19166 -3.94808 0
M  V30 5069 H 476.927 -0.0536334 -0.66183 0
M  V30 5070 H 479.457 -0.779495 -1.89169 0
M  V30 5071 H 479.467 0.342881 -4.06557 0
M  V30 5072 H 478.142 -0.809389 -4.07948 0
M  V30 5073 H 476.719 0.959153 -3.60354 0
M  V30 5074 N 478.904 1.54736 -0.299062 0
M  V30 5075 C 479.851 2.23448 0.577899 0
M  V30 5076 C 480.821 1.21637 1.13109 0
M  V30 5077 O 482.006 1.50252 1.17597 0
M  V30 5078 C 479.146 2.9774 1.74484 0
M  V30 5079 C 478.259 4.1432 1.22323 0
M  V30 5080 C 477.394 4.76199 2.35388 0
M  V30 5081 C 476.433 5.84927 1.80351 0
M  V30 5082 N 475.57 6.4077 2.86982 0
M  V30 5083 H 480.41 2.97996 -0.0146545 0
M  V30 5084 H 477.947 1.47088 -0.0190013 0
M  V30 5085 H 479.905 3.39045 2.43114 0
M  V30 5086 H 478.535 2.25572 2.30905 0
M  V30 5087 H 477.587 3.7797 0.429249 0
M  V30 5088 H 478.899 4.92659 0.780309 0
M  V30 5089 H 478.053 5.20346 3.11969 0
M  V30 5090 H 476.792 3.97188 2.83006 0
M  V30 5091 H 475.797 5.40207 1.02259 0
M  V30 5092 H 477.022 6.65821 1.3364 0
M  V30 5093 H 474.968 5.64643 3.33938 0
M  V30 5094 H 474.885 7.1445 2.4718 0
M  V30 5095 H 476.153 6.89574 3.63466 0
M  V30 5096 N 480.382 0.0267497 1.57577 0
M  V30 5097 C 481.314 -0.984594 2.06974 0
M  V30 5098 C 482.327 -1.29032 0.992705 0
M  V30 5099 O 483.516 -1.25539 1.26895 0
M  V30 5100 C 480.616 -2.31262 2.47732 0
M  V30 5101 C 479.789 -2.1924 3.78487 0
M  V30 5102 C 478.848 -3.34956 4.05821 0
M  V30 5103 O 477.874 -3.11948 4.76106 0
M  V30 5104 N 479.076 -4.58672 3.55809 0
M  V30 5105 H 481.841 -0.563143 2.94362 0
M  V30 5106 H 479.402 -0.160061 1.61107 0
M  V30 5107 H 481.394 -3.07496 2.63112 0
M  V30 5108 H 479.964 -2.65056 1.65723 0
M  V30 5109 H 479.184 -1.27747 3.72927 0
M  V30 5110 H 480.472 -2.08409 4.64158 0
M  V30 5111 H 479.87 -4.8026 2.98942 0
M  V30 5112 H 478.427 -5.32083 3.76472 0
M  V30 5113 N 481.861 -1.55662 -0.24637 0
M  V30 5114 C 483.11 -1.7672 -0.972254 0
M  V30 5115 C 483.423 -0.59078 -1.86465 0
M  V30 5116 O 484.629 -0.684391 -2.62732 0
M  V30 5117 C 483.085 -3.12869 -1.7788 0
M  V30 5118 C 482.693 -4.38161 -0.933768 0
M  V30 5119 C 484.437 -3.43265 -2.49738 0
M  V30 5120 C 482.344 -5.6534 -1.73623 0
M  V30 5121 H 481.274 -0.658795 -0.366749 0
M  V30 5122 H 483.925 -1.82092 -0.226902 0
M  V30 5123 H 482.307 -3.01606 -2.56612 0
M  V30 5124 H 483.481 -4.60413 -0.188736 0
M  V30 5125 H 481.796 -4.15102 -0.328488 0
M  V30 5126 H 484.393 -4.35501 -3.10231 0
M  V30 5127 H 484.736 -2.64614 -3.2138 0
M  V30 5128 H 485.269 -3.55746 -1.78016 0
M  V30 5129 H 482.008 -6.46814 -1.06354 0
M  V30 5130 H 481.528 -5.47188 -2.45653 0
M  V30 5131 H 483.207 -6.04616 -2.30323 0
M  V30 5132 N 483.339 0.512053 -1.4905 0
M  V30 5133 C 484.286 1.6148 -1.64902 0
M  V30 5134 C 485.256 1.58687 -0.490673 0
M  V30 5135 O 486.441 1.76842 -0.71636 0
M  V30 5136 C 483.581 2.99676 -1.71139 0
M  V30 5137 C 482.694 3.12568 -2.98203 0
M  V30 5138 C 481.829 4.4143 -2.95487 0
M  V30 5139 C 480.868 4.47916 -4.17179 0
M  V30 5140 N 480.005 5.68191 -4.12437 0
M  V30 5141 H 484.845 1.47271 -2.59066 0
M  V30 5142 H 482.382 0.716713 -1.28459 0
M  V30 5143 H 484.34 3.79761 -1.72736 0
M  V30 5144 H 482.97 3.12614 -0.804508 0
M  V30 5145 H 482.022 2.25618 -3.06269 0
M  V30 5146 H 483.334 3.1322 -3.88194 0
M  V30 5147 H 482.488 5.29825 -2.95585 0
M  V30 5148 H 481.227 4.43326 -2.03256 0
M  V30 5149 H 480.232 3.57925 -4.17337 0
M  V30 5150 H 481.457 4.47744 -5.1059 0
M  V30 5151 H 479.403 5.7095 -3.23036 0
M  V30 5152 H 479.32 5.70413 -4.96151 0
M  V30 5153 H 480.588 6.58823 -4.16621 0
M  V30 5154 N 484.817 1.37938 0.762283 0
M  V30 5155 C 486.045 1.36883 1.55147 0
M  V30 5156 C 486.46 -0.0435348 1.8875 0
M  V30 5157 O 485.817 -1.00786 1.52146 0
M  V30 5158 C 485.868 2.21624 2.85596 0
M  V30 5159 O 485.589 3.57358 2.5343 0
M  V30 5160 C 487.09 2.28653 3.7978 0
M  V30 5161 H 484.31 0.468521 0.480343 0
M  V30 5162 H 486.854 1.81404 0.944079 0
M  V30 5163 H 485.009 1.80588 3.42734 0
M  V30 5164 H 485.423 4.01883 3.37032 0
M  V30 5165 H 486.897 2.9225 4.68288 0
M  V30 5166 H 487.374 1.29767 4.19592 0
M  V30 5167 H 487.98 2.70043 3.28568 0
M  V30 5168 N 486.295 -0.989507 1.22664 0
M  V30 5169 C 487.544 -1.72375 1.04737 0
M  V30 5170 C 487.857 -1.91096 -0.417316 0
M  V30 5171 O 489.063 -2.6188 -0.716334 0
M  V30 5172 C 487.519 -3.10161 1.82561 0
M  V30 5173 C 487.127 -2.99358 3.333 0
M  V30 5174 C 488.871 -3.87607 1.73093 0
M  V30 5175 C 486.778 -4.32319 4.03552 0
M  V30 5176 H 485.708 -0.646326 0.388302 0
M  V30 5177 H 488.359 -1.10437 1.46546 0
M  V30 5178 H 486.741 -3.728 1.33552 0
M  V30 5179 H 487.915 -2.45863 3.89728 0
M  V30 5180 H 486.23 -2.35392 3.43481 0
M  V30 5181 H 488.827 -4.86025 2.22899 0
M  V30 5182 H 489.17 -4.10509 0.691976 0
M  V30 5183 H 489.703 -3.31652 2.19663 0
M  V30 5184 H 486.442 -4.14616 5.07714 0
M  V30 5185 H 485.962 -4.85714 3.51911 0
M  V30 5186 H 487.641 -5.01051 4.09337 0
M  V30 5187 N 487.773 -1.03688 -1.18687 0
M  V30 5188 C 488.998 -0.757819 -1.93059 0
M  V30 5189 C 489.423 0.678353 -1.75442 0
M  V30 5190 O 488.781 1.46938 -1.06203 0
M  V30 5191 C 488.829 -1.12423 -3.42627 0
M  V30 5192 O 487.933 -0.247505 -4.11657 0
M  V30 5193 H 487.274 -0.279245 -0.602427 0
M  V30 5194 H 489.804 -1.3857 -1.5053 0
M  V30 5195 H 489.814 -1.08454 -3.93322 0
M  V30 5196 H 488.489 -2.17049 -3.54771 0
M  V30 5197 H 487.066 -0.34649 -3.71287 0
M  V30 5198 N 489.251 1.34841 -0.815825 0
M  V30 5199 C 490.499 1.98107 -0.399744 0
M  V30 5200 C 490.82 1.65019 1.03894 0
M  V30 5201 O 490.09 0.937311 1.72021 0
M  V30 5202 H 488.67 0.732827 -0.144823 0
M  V30 5203 H 491.332 1.64599 -1.0437 0
M  V30 5204 H 490.428 3.07856 -0.512965 0
M  V30 5205 N 490.729 0.570148 1.46925 0
M  V30 5206 C 491.676 -0.170257 2.30171 0
M  V30 5207 C 492.646 -0.896099 1.39855 0
M  V30 5208 O 493.831 -0.889248 1.68811 0
M  V30 5209 C 490.971 -1.18605 3.24079 0
M  V30 5210 C 490.084 -0.464947 4.29491 0
M  V30 5211 C 489.219 -1.46716 5.10537 0
M  V30 5212 C 488.258 -0.731758 6.0771 0
M  V30 5213 N 487.395 -1.68142 6.81669 0
M  V30 5214 H 492.235 0.545713 2.92961 0
M  V30 5215 H 489.772 0.280938 1.44392 0
M  V30 5216 H 491.73 -1.78771 3.76957 0
M  V30 5217 H 490.36 -1.86989 2.63125 0
M  V30 5218 H 489.412 0.251506 3.79568 0
M  V30 5219 H 490.724 0.110548 4.98677 0
M  V30 5220 H 489.878 -2.14199 5.6763 0
M  V30 5221 H 488.617 -2.07658 4.41282 0
M  V30 5222 H 487.622 -0.0430787 5.49783 0
M  V30 5223 H 488.847 -0.127904 6.7898 0
M  V30 5224 H 486.793 -2.27918 6.15134 0
M  V30 5225 H 486.71 -1.15841 7.47072 0
M  V30 5226 H 487.978 -2.347 7.43328 0
M  V30 5227 N 492.207 -1.54576 0.307264 0
M  V30 5228 C 493.435 -2.04675 -0.302597 0
M  V30 5229 C 493.85 -1.18425 -1.47041 0
M  V30 5230 O 493.207 -0.211257 -1.81273 0
M  V30 5231 C 493.258 -3.53575 -0.752801 0
M  V30 5232 O 492.979 -4.36547 0.368536 0
M  V30 5233 C 494.48 -4.19699 -1.42717 0
M  V30 5234 H 491.7 -0.66786 -0.0648374 0
M  V30 5235 H 494.244 -1.99516 0.448716 0
M  V30 5236 H 492.399 -3.59074 -1.45412 0
M  V30 5237 H 492.813 -5.24497 0.0168937 0
M  V30 5238 H 494.287 -5.25388 -1.69327 0
M  V30 5239 H 494.764 -3.69815 -2.36925 0
M  V30 5240 H 495.37 -4.18293 -0.768856 0
M  V30 5241 N 493.685 -0.035106 -1.57561 0
M  V30 5242 C 495.096 0.502885 -1.798 0
M  V30 5243 C 495.447 1.71892 -0.945921 0
M  V30 5244 O 494.572 2.15822 -0.157991 0
M  V30 5245 C 495.167 0.919097 -3.26095 0
M  V30 5246 C 493.726 1.40216 -3.49308 0
M  V30 5247 C 492.873 0.369709 -2.74824 0
M  V30 5248 H 495.824 -0.261102 -1.56537 0
M  V30 5249 H 495.845 1.78308 -3.36135 0
M  V30 5250 H 495.357 0.0338526 -3.88085 0
M  V30 5251 H 493.458 2.30714 -2.92578 0
M  V30 5252 H 493.571 1.40541 -4.58023 0
M  V30 5253 H 491.935 0.839113 -2.40481 0
M  V30 5254 H 492.718 -0.507173 -3.39533 0
M  V30 5255 N 495.163 1.55791 0.238111 0
M  V30 5256 C 496.095 1.87513 1.31802 0
M  V30 5257 C 497.108 0.762053 1.43863 0
M  V30 5258 O 498.297 1.04024 1.45056 0
M  V30 5259 C 495.397 2.05402 2.69561 0
M  V30 5260 C 494.57 3.3632 2.79656 0
M  V30 5261 C 493.629 3.43844 3.98319 0
M  V30 5262 O 492.655 4.16994 3.87433 0
M  V30 5263 N 493.857 2.73777 5.11885 0
M  V30 5264 H 496.622 2.80734 1.04922 0
M  V30 5265 H 494.183 1.56135 0.428196 0
M  V30 5266 H 496.175 2.07769 3.47296 0
M  V30 5267 H 494.745 1.18884 2.89111 0
M  V30 5268 H 493.965 3.46195 1.88528 0
M  V30 5269 H 495.253 4.22594 2.83358 0
M  V30 5270 H 494.651 2.14094 5.23622 0
M  V30 5271 H 493.208 2.81825 5.87723 0
M  V30 5272 N 496.642 -0.504142 1.49319 0
M  V30 5273 C 497.574 -1.62265 1.61872 0
M  V30 5274 C 498.587 -1.54881 0.501573 0
M  V30 5275 O 499.776 -1.6087 0.773497 0
M  V30 5276 C 496.876 -3.01042 1.55651 0
M  V30 5277 C 496.049 -3.33642 2.82845 0
M  V30 5278 C 495.108 -4.51816 2.69719 0
M  V30 5279 O 494.134 -4.53755 3.4365 0
M  V30 5280 N 495.336 -5.51543 1.81055 0
M  V30 5281 H 498.101 -1.51924 2.58339 0
M  V30 5282 H 495.662 -0.691954 1.46368 0
M  V30 5283 H 497.654 -3.78013 1.44528 0
M  V30 5284 H 496.224 -3.05323 0.670546 0
M  V30 5285 H 495.444 -2.45598 3.08343 0
M  V30 5286 H 496.732 -3.5222 3.67177 0
M  V30 5287 H 496.13 -5.52774 1.20241 0
M  V30 5288 H 494.687 -6.27629 1.75856 0
M  V30 5289 N 498.12 -1.38341 -0.754957 0
M  V30 5290 C 499.35 -1.37504 -1.54195 0
M  V30 5291 C 499.758 0.0373787 -1.89163 0
M  V30 5292 O 499.101 1.01402 -1.53178 0
M  V30 5293 C 499.163 -2.16488 -2.87008 0
M  V30 5294 C 498.827 -3.65311 -2.74585 0
M  V30 5295 C 499.824 -4.58834 -2.44474 0
M  V30 5296 C 497.509 -4.08649 -2.9208 0
M  V30 5297 C 499.503 -5.93675 -2.32011 0
M  V30 5298 C 497.19 -5.43571 -2.79237 0
M  V30 5299 C 498.188 -6.35898 -2.49245 0
M  V30 5300 O 497.876 -7.68338 -2.36458 0
M  V30 5301 H 497.608 -0.472159 -0.483779 0
M  V30 5302 H 500.162 -1.82515 -0.94221 0
M  V30 5303 H 498.392 -1.66194 -3.49166 0
M  V30 5304 H 500.081 -2.08076 -3.4851 0
M  V30 5305 H 500.847 -4.26657 -2.30627 0
M  V30 5306 H 496.726 -3.37134 -3.14422 0
M  V30 5307 H 500.27 -6.65706 -2.08522 0
M  V30 5308 H 496.167 -5.75345 -2.92657 0
M  V30 5309 H 496.935 -7.78845 -2.5168 0
M  V30 5310 N 499.598 0.982988 -1.23187 0
M  V30 5311 C 500.508 2.10907 -1.02739 0
M  V30 5312 C 501.524 1.73979 0.0273188 0
M  V30 5313 O 502.7 2.00702 -0.16757 0
M  V30 5314 C 499.765 3.41142 -0.618304 0
M  V30 5315 C 498.826 3.92112 -1.74777 0
M  V30 5316 C 498.059 5.16131 -1.3581 0
M  V30 5317 O 498.282 5.6989 -0.241201 0
M  V30 5318 O 497.216 5.61103 -2.17824 0
M  V30 5319 H 501.042 2.31046 -1.97108 0
M  V30 5320 H 498.627 1.09284 -1.01869 0
M  V30 5321 H 500.509 4.19488 -0.400982 0
M  V30 5322 H 499.184 3.2234 0.296421 0
M  V30 5323 H 498.091 3.14895 -2.0197 0
M  V30 5324 H 499.424 4.15364 -2.64071 0
M  V30 5325 N 501.076 1.04316 1.18135 0
M  V30 5326 C 502.492 0.762858 1.40188 0
M  V30 5327 C 502.692 -0.646547 1.90846 0
M  V30 5328 O 501.748 -1.41036 2.0944 0
M  V30 5329 C 503.061 1.81106 2.40044 0
M  V30 5330 C 504.609 1.83226 2.53766 0
M  V30 5331 C 505.084 2.87044 3.56889 0
M  V30 5332 N 506.575 2.85951 3.64398 0
M  V30 5333 C 507.31 3.62932 4.43923 0
M  V30 5334 N 506.806 4.49672 5.27036 0
M  V30 5335 N 508.599 3.51411 4.38711 0
M  V30 5336 H 500.75 1.95264 0.835805 0
M  V30 5337 H 503.013 0.845017 0.429709 0
M  V30 5338 H 502.719 2.82214 2.09876 0
M  V30 5339 H 502.593 1.64529 3.39426 0
M  V30 5340 H 504.98 0.827869 2.8325 0
M  V30 5341 H 505.061 2.03879 1.54489 0
M  V30 5342 H 504.705 3.87663 3.28145 0
M  V30 5343 H 504.635 2.63645 4.5585 0
M  V30 5344 H 507.126 2.23051 3.05052 0
M  V30 5345 H 507.439 5.05116 5.84874 0
M  V30 5346 H 505.784 4.53738 5.26447 0
M  V30 5347 H 508.975 2.83047 3.72829 0
M  V30 5348 H 509.148 4.11654 5.00445 0
M  V30 5349 N 502.554 -1.34406 0.822964 0
M  V30 5350 C 503.464 -2.33298 0.246838 0
M  V30 5351 C 504.48 -1.62625 -0.618797 0
M  V30 5352 O 505.656 -1.94391 -0.526685 0
M  V30 5353 C 502.721 -3.41785 -0.581731 0
M  V30 5354 C 501.782 -4.28206 0.306309 0
M  V30 5355 C 501.015 -5.31512 -0.48281 0
M  V30 5356 O 501.238 -5.43973 -1.71607 0
M  V30 5357 O 500.172 -6.01749 0.134884 0
M  V30 5358 H 503.998 -2.84401 1.06534 0
M  V30 5359 H 501.583 -1.37466 0.585108 0
M  V30 5360 H 503.465 -4.08028 -1.05313 0
M  V30 5361 H 502.14 -2.92925 -1.37756 0
M  V30 5362 H 501.047 -3.64885 0.825199 0
M  V30 5363 H 502.38 -4.80507 1.06649 0
M  V30 5364 N 504.032 -0.577932 -1.46621 0
M  V30 5365 C 505.262 -0.0670668 -2.06491 0
M  V30 5366 C 505.67 1.24119 -1.42798 0
M  V30 5367 O 505.013 1.76016 -0.525759 0
M  V30 5368 C 505.075 0.177995 -3.59059 0
M  V30 5369 C 504.739 -1.04394 -4.44917 0
M  V30 5370 C 505.736 -1.95479 -4.81751 0
M  V30 5371 C 503.421 -1.26444 -4.86125 0
M  V30 5372 C 505.415 -3.06965 -5.58615 0
M  V30 5373 C 503.102 -2.38237 -5.62749 0
M  V30 5374 C 504.1 -3.28327 -5.98908 0
M  V30 5375 O 503.788 -4.38179 -6.73984 0
M  V30 5376 H 503.52 -0.0523159 -0.673973 0
M  V30 5377 H 506.074 -0.796966 -1.89308 0
M  V30 5378 H 504.304 0.962451 -3.74531 0
M  V30 5379 H 505.993 0.636782 -4.00874 0
M  V30 5380 H 506.759 -1.79657 -4.50498 0
M  V30 5381 H 502.638 -0.572316 -4.57434 0
M  V30 5382 H 506.182 -3.77309 -5.86757 0
M  V30 5383 H 502.079 -2.54023 -5.93416 0
M  V30 5384 H 502.847 -4.36486 -6.92403 0
M  V30 5385 N 505.51 1.54411 -0.315457 0
M  V30 5386 C 506.458 2.25514 0.569771 0
M  V30 5387 C 507.452 1.2663 1.12522 0
M  V30 5388 O 508.658 1.44434 1.07419 0
M  V30 5389 H 505.033 0.724257 0.202376 0
M  V30 5390 H 507.004 2.98354 -0.0522895 0
M  V30 5391 C 505.753 3.02004 1.72305 0
M  V30 5392 H 505.076 3.77906 1.30488 0
M  V30 5393 H 506.516 3.55014 2.31821 0
M  V30 5394 C 504.975 2.09822 2.63583 0
M  V30 5395 O 505.505 1.67574 3.65078 0
M  V30 5396 N 503.711 1.75478 2.31637 0
M  V30 5397 H 503.258 2.10032 1.49145 0
M  V30 5398 H 503.216 1.14079 2.92973 0
M  V30 5399 N 506.988 0.0434614 1.5754 0
M  V30 5400 C 507.936 -0.951465 2.1225 0
M  V30 5401 C 508.93 -1.3274 1.05245 0
M  V30 5402 O 510.136 -1.30795 1.23663 0
M  V30 5403 H 506.511 -0.324667 0.678303 0
M  V30 5404 H 508.482 -0.464855 2.94757 0
M  V30 5405 C 507.231 -2.21972 2.67626 0
M  V30 5406 H 506.554 -1.93923 3.4962 0
M  V30 5407 H 507.994 -2.89765 3.09536 0
M  V30 5408 C 506.453 -2.95919 1.61038 0
M  V30 5409 O 506.983 -3.8857 1.01862 0
M  V30 5410 N 505.189 -2.58511 1.32741 0
M  V30 5411 H 504.736 -1.83244 1.81051 0
M  V30 5412 H 504.694 -3.08296 0.616531 0
M  V30 5413 N 508.466 -1.55915 -0.229846 0
M  V30 5414 C 509.413 -1.91734 -1.28478 0
M  V30 5415 C 510.383 -0.773539 -1.46988 0
M  V30 5416 O 511.568 -1.02871 -1.60693 0
M  V30 5417 C 508.708 -2.23224 -2.63182 0
M  V30 5418 C 507.821 -3.50497 -2.52539 0
M  V30 5419 C 506.956 -3.71474 -3.79711 0
M  V30 5420 C 505.995 -4.92289 -3.63755 0
M  V30 5421 N 505.132 -5.09698 -4.82858 0
M  V30 5422 H 509.972 -2.81692 -0.972308 0
M  V30 5423 H 507.509 -1.39429 -0.468815 0
M  V30 5424 H 509.467 -2.3949 -3.41614 0
M  V30 5425 H 508.097 -1.36451 -2.92542 0
M  V30 5426 H 507.149 -3.4247 -1.65585 0
M  V30 5427 H 508.461 -4.39079 -2.36666 0
M  V30 5428 H 507.615 -3.87791 -4.66586 0
M  V30 5429 H 506.354 -2.81157 -3.985 0
M  V30 5430 H 505.359 -4.7593 -2.75264 0
M  V30 5431 H 506.584 -5.84083 -3.46445 0
M  V30 5432 H 504.53 -4.22322 -5.01976 0
M  V30 5433 H 504.447 -5.92399 -4.69681 0
M  V30 5434 H 505.715 -5.30443 -5.71183 0
M  V30 5435 N 509.944 0.496216 -1.49584 0
M  V30 5436 C 511.36 0.827814 -1.36453 0
M  V30 5437 C 511.56 1.97464 -0.401285 0
M  V30 5438 O 510.616 2.51958 0.165296 0
M  V30 5439 C 511.929 1.16352 -2.77277 0
M  V30 5440 C 513.477 1.27145 -2.86013 0
M  V30 5441 C 513.952 1.64042 -4.27615 0
M  V30 5442 N 515.443 1.71082 -4.30448 0
M  V30 5443 C 516.178 2.01085 -5.36984 0
M  V30 5444 N 515.674 2.2928 -6.5376 0
M  V30 5445 N 517.467 2.02376 -5.24405 0
M  V30 5446 H 509.618 -0.259947 -2.10803 0
M  V30 5447 H 511.881 -0.0537163 -0.946477 0
M  V30 5448 H 511.587 0.394153 -3.49484 0
M  V30 5449 H 511.461 2.10582 -3.12946 0
M  V30 5450 H 513.848 2.03152 -2.1404 0
M  V30 5451 H 513.929 0.309542 -2.5392 0
M  V30 5452 H 513.573 0.88583 -5.00115 0
M  V30 5453 H 513.503 2.6134 -4.57175 0
M  V30 5454 H 515.994 1.51434 -3.46232 0
M  V30 5455 H 516.307 2.51376 -7.30774 0
M  V30 5456 H 514.652 2.26726 -6.56978 0
M  V30 5457 H 517.843 1.79829 -4.32179 0
M  V30 5458 H 518.016 2.25425 -6.07526 0
M  V30 5459 N 511.423 1.38739 0.74761 0
M  V30 5460 C 512.648 1.38702 1.54197 0
M  V30 5461 C 513.073 -0.019664 1.8809 0
M  V30 5462 O 512.431 -1.00333 1.51006 0
M  V30 5463 C 512.479 2.25492 2.814 0
M  V30 5464 O 511.583 1.67613 3.76802 0
M  V30 5465 H 510.924 0.472863 0.466151 0
M  V30 5466 H 513.454 1.82577 0.923413 0
M  V30 5467 H 513.464 2.39561 3.30264 0
M  V30 5468 H 512.139 3.27727 2.56062 0
M  V30 5469 H 510.716 1.62718 3.35526 0
M  V30 5470 N 512.901 -0.976442 1.23707 0
M  V30 5471 C 514.149 -1.71487 1.06942 0
M  V30 5472 C 514.47 -1.9098 -0.393897 0
M  V30 5473 O 513.74 -1.48128 -1.28198 0
M  V30 5474 H 512.32 -0.635425 0.392739 0
M  V30 5475 H 514.982 -1.17515 1.55487 0
M  V30 5476 H 514.078 -2.70286 1.56051 0
M  V30 5477 N 514.379 -1.04941 -1.1758 0
M  V30 5478 C 515.625 -0.759112 -1.88057 0
M  V30 5479 C 515.958 0.711918 -1.8068 0
M  V30 5480 O 515.233 1.52035 -1.21308 0
M  V30 5481 C 515.516 -1.237 -3.38187 0
M  V30 5482 C 515.369 -2.77078 -3.54327 0
M  V30 5483 C 516.688 -0.834014 -4.32125 0
M  V30 5484 H 513.807 -0.277237 -0.682868 0
M  V30 5485 H 516.449 -1.30296 -1.38286 0
M  V30 5486 H 514.599 -0.774337 -3.80705 0
M  V30 5487 H 516.271 -3.31449 -3.20842 0
M  V30 5488 H 514.514 -3.16477 -2.96689 0
M  V30 5489 H 515.185 -3.05577 -4.59703 0
M  V30 5490 H 517.661 -1.23228 -3.97434 0
M  V30 5491 H 516.537 -1.19603 -5.35711 0
M  V30 5492 H 516.798 0.262195 -4.41322 0
M  V30 5493 N 515.857 1.33968 -0.830081 0
M  V30 5494 C 517.105 1.97672 -0.420734 0
M  V30 5495 C 517.426 1.66111 1.02138 0
M  V30 5496 O 516.696 0.955503 1.71017 0
M  V30 5497 H 515.276 0.73125 -0.152587 0
M  V30 5498 H 517.938 1.63483 -1.0611 0
M  V30 5499 H 517.034 3.07294 -0.545588 0
M  V30 5500 N 517.335 0.585699 1.46312 0
M  V30 5501 C 518.746 0.159938 1.86014 0
M  V30 5502 C 519.097 -1.27775 1.48889 0
M  V30 5503 O 518.222 -1.96559 0.90519 0
M  V30 5504 C 518.817 0.283485 3.37612 0
M  V30 5505 C 517.376 -0.0874256 3.76298 0
M  V30 5506 C 516.523 0.618055 2.70325 0
M  V30 5507 H 519.474 0.793737 1.37425 0
M  V30 5508 H 519.495 -0.490348 3.77327 0
M  V30 5509 H 519.007 1.32995 3.64601 0
M  V30 5510 H 517.108 -1.13391 3.54927 0
M  V30 5511 H 517.221 0.290975 4.78216 0
M  V30 5512 H 515.585 0.057993 2.54634 0
M  V30 5513 H 516.368 1.66623 3.00153 0
M  V30 5514 N 518.813 -1.54241 0.323641 0
M  V30 5515 C 520.038 -2.05452 -0.283605 0
M  V30 5516 C 520.463 -1.19823 -1.44997 0
M  V30 5517 O 519.821 -0.207358 -1.8011 0
M  V30 5518 C 519.869 -3.53823 -0.695795 0
M  V30 5519 O 518.973 -3.71134 -1.79815 0
M  V30 5520 H 518.314 -0.662024 -0.0511917 0
M  V30 5521 H 520.844 -1.99079 0.472073 0
M  V30 5522 H 520.854 -3.96094 -0.978434 0
M  V30 5523 H 519.529 -4.15602 0.157287 0
M  V30 5524 H 518.106 -3.40768 -1.51431 0
M  V30 5525 N 520.291 -0.0518155 -1.57515 0
M  V30 5526 C 521.238 0.922352 -2.11569 0
M  V30 5527 C 522.208 1.30842 -1.02321 0
M  V30 5528 O 523.393 1.39778 -1.29872 0
M  V30 5529 C 520.533 2.19167 -2.6657 0
M  V30 5530 C 519.646 1.86003 -3.89906 0
M  V30 5531 C 518.781 3.07398 -4.33221 0
M  V30 5532 C 517.82 2.70158 -5.49255 0
M  V30 5533 N 516.957 3.84248 -5.8762 0
M  V30 5534 H 521.797 0.454506 -2.94514 0
M  V30 5535 H 519.334 0.212718 -1.45554 0
M  V30 5536 H 521.292 2.93443 -2.96559 0
M  V30 5537 H 519.922 2.63528 -1.86421 0
M  V30 5538 H 518.974 1.01874 -3.66505 0
M  V30 5539 H 520.286 1.54592 -4.74239 0
M  V30 5540 H 519.44 3.89972 -4.64765 0
M  V30 5541 H 518.179 3.41988 -3.477 0
M  V30 5542 H 517.184 1.86001 -5.17382 0
M  V30 5543 H 518.409 2.36759 -6.36492 0
M  V30 5544 H 516.355 4.18638 -5.05053 0
M  V30 5545 H 516.272 3.56538 -6.66646 0
M  V30 5546 H 517.54 4.6746 -6.2378 0
M  V30 5547 N 521.769 1.56035 0.221574 0
M  V30 5548 C 523.016 1.79047 0.94597 0
M  V30 5549 C 523.344 0.62057 1.84334 0
M  V30 5550 O 522.599 -0.395053 1.91671 0
M  V30 5551 C 522.898 3.07813 1.8162 0
M  V30 5552 C 522.564 4.3797 1.07206 0
M  V30 5553 C 521.226 4.73334 0.866508 0
M  V30 5554 C 523.578 5.18326 0.546565 0
M  V30 5555 C 520.906 5.8657 0.123549 0
M  V30 5556 C 523.258 6.32335 -0.18305 0
M  V30 5557 C 521.922 6.66301 -0.399861 0
M  V30 5558 H 521.192 0.655178 0.346155 0
M  V30 5559 H 523.839 1.90299 0.214146 0
M  V30 5560 H 522.144 2.91682 2.61589 0
M  V30 5561 H 523.841 3.2282 2.37884 0
M  V30 5562 H 520.431 4.10202 1.24226 0
M  V30 5563 H 524.615 4.9144 0.692847 0
M  V30 5564 H 519.871 6.11376 -0.0546591 0
M  V30 5565 H 524.045 6.9383 -0.59775 0
M  V30 5566 H 521.672 7.53889 -0.977489 0
M  V30 5567 N 523.247 -0.488276 1.49845 0
M  V30 5568 C 524.197 -1.58556 1.63842 0
M  V30 5569 C 525.181 -1.53142 0.493586 0
M  V30 5570 O 526.373 -1.60457 0.747169 0
M  V30 5571 C 523.502 -2.97101 1.72005 0
M  V30 5572 C 522.588 -3.07463 2.92108 0
M  V30 5573 N 522.979 -2.87681 4.16021 0
M  V30 5574 C 521.277 -3.3858 2.90309 0
M  V30 5575 C 521.978 -3.0256 4.96822 0
M  V30 5576 N 520.954 -3.32002 4.30437 0
M  V30 5577 H 524.756 -1.41935 2.57355 0
M  V30 5578 H 522.27 -0.694668 1.46793 0
M  V30 5579 H 524.267 -3.75976 1.80132 0
M  V30 5580 H 522.927 -3.14782 0.796375 0
M  V30 5581 H 523.938 -2.63603 4.45796 0
M  V30 5582 H 520.615 -3.62357 2.07372 0
M  V30 5583 H 522.005 -2.9165 6.05301 0
M  V30 5584 N 524.725 -1.39134 -0.740242 0
M  V30 5585 C 525.973 -1.35803 -1.49673 0
M  V30 5586 C 526.294 0.0470897 -1.94943 0
M  V30 5587 O 525.564 0.997347 -1.68611 0
M  V30 5588 H 524.144 -0.499736 -0.555224 0
M  V30 5589 H 526.806 -1.73947 -0.879107 0
M  V30 5590 H 525.902 -2.0174 -2.38133 0
M  V30 5591 N 526.204 0.969867 -1.24223 0
M  V30 5592 C 527.434 1.74502 -1.106 0
M  V30 5593 C 527.842 1.86038 0.344483 0
M  V30 5594 O 527.185 1.3465 1.24961 0
M  V30 5595 C 527.247 3.18391 -1.66935 0
M  V30 5596 C 526.911 3.30334 -3.15798 0
M  V30 5597 C 527.908 3.15832 -4.12973 0
M  V30 5598 C 525.593 3.54644 -3.55715 0
M  V30 5599 C 527.587 3.25461 -5.48045 0
M  V30 5600 C 525.274 3.63912 -4.90929 0
M  V30 5601 C 526.272 3.49332 -5.86904 0
M  V30 5602 O 525.96 3.58251 -7.1966 0
M  V30 5603 H 525.692 0.554119 -0.387206 0
M  V30 5604 H 528.246 1.22646 -1.64764 0
M  V30 5605 H 526.476 3.71543 -1.07203 0
M  V30 5606 H 528.165 3.77707 -1.48634 0
M  V30 5607 H 528.931 2.96937 -3.83476 0
M  V30 5608 H 524.81 3.65059 -2.81519 0
M  V30 5609 H 528.354 3.13998 -6.22937 0
M  V30 5610 H 524.251 3.82319 -5.20098 0
M  V30 5611 H 525.019 3.7498 -7.27552 0
M  V30 5612 N 527.682 1.05563 1.17022 0
M  V30 5613 C 528.645 0.664098 2.19368 0
M  V30 5614 C 529.645 -0.286358 1.5823 0
M  V30 5615 O 530.835 -0.069728 1.7406 0
M  V30 5616 C 527.967 -0.0239932 3.40892 0
M  V30 5617 H 529.16 1.57 2.55521 0
M  V30 5618 H 526.713 0.849964 1.31169 0
M  V30 5619 H 527.448 -0.942988 3.10287 0
M  V30 5620 H 527.233 0.659351 3.86516 0
M  V30 5621 H 528.723 -0.283909 4.16634 0
M  V30 5622 N 529.16 -1.33526 0.837174 0
M  V30 5623 C 530.39 -2.01754 0.444848 0
M  V30 5624 C 530.798 -1.63149 -0.958072 0
M  V30 5625 O 530.141 -0.839827 -1.63379 0
M  V30 5626 C 530.203 -3.56228 0.483917 0
M  V30 5627 C 529.867 -4.18205 1.84265 0
M  V30 5628 C 530.864 -4.37699 2.80563 0
M  V30 5629 C 528.549 -4.54667 2.13503 0
M  V30 5630 C 530.543 -4.928 4.04261 0
M  V30 5631 C 528.23 -5.09475 3.37458 0
M  V30 5632 C 529.228 -5.28488 4.32654 0
M  V30 5633 O 528.916 -5.82132 5.54417 0
M  V30 5634 H 528.648 -0.652928 0.175104 0
M  V30 5635 H 531.202 -1.71469 1.13082 0
M  V30 5636 H 529.432 -3.85833 -0.258826 0
M  V30 5637 H 531.121 -4.05752 0.109653 0
M  V30 5638 H 531.887 -4.0988 2.59274 0
M  V30 5639 H 527.766 -4.39164 1.40201 0
M  V30 5640 H 531.31 -5.07555 4.78574 0
M  V30 5641 H 527.207 -5.36725 3.58604 0
M  V30 5642 H 527.975 -6.00548 5.56133 0
M  V30 5643 N 530.638 -0.59345 -1.46 0
M  V30 5644 C 531.915 -0.0157933 -1.95594 0
M  V30 5645 C 532.295 1.44807 -1.53604 0
M  V30 5646 O 531.643 2.14342 -0.791824 0
M  V30 5647 C 531.853 -0.199081 -3.48432 0
M  V30 5648 C 533.201 -0.0724943 -4.24538 0
M  V30 5649 O 534.225 -0.128469 -3.55968 0
M  V30 5650 O 533.084 0.0542426 -5.46473 0
M  V30 5651 H 530.178 0.043749 -0.825842 0
M  V30 5652 H 532.724 -0.662522 -1.56233 0
M  V30 5653 H 531.496 -1.21631 -3.71916 0
M  V30 5654 H 531.119 0.483576 -3.94648 0
M  V30 5655 N 532.116 1.54067 -0.331816 0
M  V30 5656 C 533.364 2.00319 0.267739 0
M  V30 5657 C 533.685 1.22148 1.52003 0
M  V30 5658 O 532.955 0.325494 1.93177 0
M  V30 5659 H 531.535 0.740014 0.101922 0
M  V30 5660 H 534.197 1.89628 -0.450267 0
M  V30 5661 H 533.293 3.07765 0.518385 0
M  V30 5662 N 533.594 0.0601682 1.57485 0
M  V30 5663 C 534.843 -0.611101 1.9222 0
M  V30 5664 C 535.156 -1.71469 0.941159 0
M  V30 5665 O 536.362 -2.44473 1.18089 0
M  V30 5666 C 534.818 -1.13832 3.41424 0
M  V30 5667 C 534.426 -0.0663596 4.47951 0
M  V30 5668 C 536.17 -1.78432 3.85178 0
M  V30 5669 C 534.077 -0.606965 5.88277 0
M  V30 5670 H 533.007 -0.232033 0.71741 0
M  V30 5671 H 535.658 0.130518 1.83035 0
M  V30 5672 H 534.04 -1.93254 3.45643 0
M  V30 5673 H 535.214 0.707682 4.55333 0
M  V30 5674 H 533.529 0.482715 4.13593 0
M  V30 5675 H 536.126 -2.1989 4.87394 0
M  V30 5676 H 536.469 -2.63966 3.21913 0
M  V30 5677 H 537.002 -1.05651 3.83514 0
M  V30 5678 H 533.741 0.21095 6.5516 0
M  V30 5679 H 533.261 -1.34879 5.84438 0
M  V30 5680 H 534.94 -1.08704 6.37803 0
M  V30 5681 N 535.072 -1.5615 -0.213296 0
M  V30 5682 C 536.318 -1.80718 -0.933402 0
M  V30 5683 C 536.673 -0.634441 -1.81639 0
M  V30 5684 O 535.966 0.371182 -1.8797 0
M  V30 5685 C 536.16 -3.08772 -1.79985 0
M  V30 5686 C 535.989 -4.38389 -1.00224 0
M  V30 5687 C 534.759 -5.00513 -0.693885 0
M  V30 5688 C 536.957 -5.13013 -0.363598 0
M  V30 5689 N 534.939 -6.13774 0.124266 0
M  V30 5690 C 536.31 -6.19186 0.31757 0
M  V30 5691 C 538.365 -4.97126 -0.277468 0
M  V30 5692 C 537.068 -7.11197 1.07664 0
M  V30 5693 C 539.094 -5.89544 0.468155 0
M  V30 5694 C 538.456 -6.95149 1.13784 0
M  V30 5695 H 534.555 -0.712833 -0.321549 0
M  V30 5696 H 537.139 -1.93633 -0.203588 0
M  V30 5697 H 535.31 -2.97126 -2.50142 0
M  V30 5698 H 537.042 -3.21499 -2.45806 0
M  V30 5699 H 533.797 -4.62619 -1.01391 0
M  V30 5700 H 534.221 -6.74981 0.522418 0
M  V30 5701 H 538.863 -4.15526 -0.78087 0
M  V30 5702 H 536.581 -7.92273 1.59153 0
M  V30 5703 H 540.167 -5.79327 0.535911 0
M  V30 5704 H 539.047 -7.65428 1.70557 0
M  V30 5705 N 536.55 0.480323 -1.50102 0
M  V30 5706 C 537.796 1.23489 -1.60867 0
M  V30 5707 C 538.129 1.91809 -0.303827 0
M  V30 5708 O 537.404 1.81694 0.694092 0
M  V30 5709 C 537.687 2.28578 -2.78252 0
M  V30 5710 C 537.54 1.64624 -4.18592 0
M  V30 5711 C 538.859 3.2997 -2.91218 0
M  V30 5712 H 535.978 0.447605 -0.585507 0
M  V30 5713 H 538.62 0.530005 -1.82458 0
M  V30 5714 H 536.77 2.88697 -2.59974 0
M  V30 5715 H 538.442 1.08173 -4.48438 0
M  V30 5716 H 536.685 0.949645 -4.23278 0
M  V30 5717 H 537.356 2.40946 -4.96638 0
M  V30 5718 H 539.832 2.79864 -3.07921 0
M  V30 5719 H 538.708 4.00839 -3.74993 0
M  V30 5720 H 538.969 3.93541 -2.0144 0
M  V30 5721 N 538.028 1.39524 0.732853 0
M  V30 5722 C 539.277 1.36175 1.48792 0
M  V30 5723 C 539.59 -0.0388195 1.95561 0
M  V30 5724 O 540.796 -0.194899 2.708 0
M  V30 5725 C 539.252 2.39242 2.68871 0
M  V30 5726 C 538.86 3.85024 2.29042 0
M  V30 5727 C 540.604 2.44972 3.46683 0
M  V30 5728 C 538.511 4.79727 3.45856 0
M  V30 5729 H 537.441 0.506267 0.558757 0
M  V30 5730 H 540.092 1.65181 0.799226 0
M  V30 5731 H 538.474 2.0331 3.39825 0
M  V30 5732 H 539.648 4.30008 1.6562 0
M  V30 5733 H 537.963 3.82609 1.64316 0
M  V30 5734 H 540.56 3.12918 4.33574 0
M  V30 5735 H 540.903 1.4749 3.89297 0
M  V30 5736 H 541.436 2.79808 2.82759 0
M  V30 5737 H 538.175 5.78479 3.08289 0
M  V30 5738 H 537.695 4.39421 4.08251 0
M  V30 5739 H 539.374 4.98731 4.12161 0
M  V30 5740 N 539.506 -0.963266 1.24736 0
M  V30 5741 C 540.469 -2.04013 1.04457 0
M  V30 5742 C 541.469 -1.608 0.000335555 0
M  V30 5743 O 542.659 -1.72515 0.241719 0
M  V30 5744 C 539.791 -3.35858 0.584162 0
M  V30 5745 H 540.984 -2.23436 2.00041 0
M  V30 5746 H 538.537 -1.13914 1.07021 0
M  V30 5747 H 539.272 -3.22128 -0.374673 0
M  V30 5748 H 539.057 -3.68568 1.3379 0
M  V30 5749 H 540.547 -4.1502 0.463451 0
M  V30 5750 N 540.985 -1.06182 -1.16461 0
M  V30 5751 C 541.932 -0.671613 -2.20812 0
M  V30 5752 C 542.902 0.331186 -1.62765 0
M  V30 5753 O 544.087 0.22033 -1.89524 0
M  V30 5754 C 541.227 -0.063029 -3.45042 0
M  V30 5755 C 540.34 -1.11587 -4.1734 0
M  V30 5756 C 539.475 -0.473546 -5.29085 0
M  V30 5757 C 538.514 -1.51 -5.93182 0
M  V30 5758 N 537.651 -0.891118 -6.96422 0
M  V30 5759 H 542.491 -1.56589 -2.53542 0
M  V30 5760 H 540.028 -0.782951 -1.24532 0
M  V30 5761 H 541.986 0.307344 -4.16066 0
M  V30 5762 H 540.616 0.794663 -3.12866 0
M  V30 5763 H 539.668 -1.60396 -3.44931 0
M  V30 5764 H 540.98 -1.90221 -4.61104 0
M  V30 5765 H 540.134 -0.0501432 -6.06679 0
M  V30 5766 H 538.873 0.344687 -4.8648 0
M  V30 5767 H 537.878 -1.94331 -5.14311 0
M  V30 5768 H 539.103 -2.33031 -6.37866 0
M  V30 5769 H 537.049 -0.0935753 -6.55933 0
M  V30 5770 H 536.966 -1.61486 -7.38551 0
M  V30 5771 H 538.234 -0.492822 -7.77941 0
M  V30 5772 N 542.463 1.3308 -0.844243 0
M  V30 5773 C 543.691 2.01808 -0.456203 0
M  V30 5774 C 544.106 1.63498 0.944131 0
M  V30 5775 O 543.463 0.85102 1.61443 0
M  V30 5776 C 543.514 3.56922 -0.573513 0
M  V30 5777 O 543.235 3.93851 -1.91868 0
M  V30 5778 C 544.736 4.42922 -0.183125 0
M  V30 5779 H 541.956 0.646273 -0.180477 0
M  V30 5780 H 544.5 1.69891 -1.1383 0
M  V30 5781 H 542.655 3.87352 0.0607367 0
M  V30 5782 H 543.069 4.88564 -1.90802 0
M  V30 5783 H 544.543 5.51093 -0.316241 0
M  V30 5784 H 545.02 4.30386 0.875477 0
M  V30 5785 H 545.626 4.1786 -0.792027 0
M  V30 5786 N 543.941 0.601185 1.45683 0
M  V30 5787 C 544.871 -0.108824 2.33246 0
M  V30 5788 C 545.852 -0.865223 1.46451 0
M  V30 5789 O 547.037 -0.83704 1.75235 0
M  V30 5790 C 544.167 -1.11101 3.2905 0
M  V30 5791 C 543.121 -0.468244 4.25431 0
M  V30 5792 C 542.447 -1.57822 5.10878 0
M  V30 5793 C 543.747 0.606469 5.18767 0
M  V30 5794 H 545.441 0.622306 2.92861 0
M  V30 5795 H 542.987 0.300714 1.40825 0
M  V30 5796 H 544.94 -1.61622 3.89174 0
M  V30 5797 H 543.664 -1.87265 2.67581 0
M  V30 5798 H 542.323 0.0160484 3.66596 0
M  V30 5799 H 541.971 -2.32998 4.45781 0
M  V30 5800 H 541.671 -1.15369 5.76163 0
M  V30 5801 H 543.195 -2.08583 5.73869 0
M  V30 5802 H 544.609 0.185589 5.73 0
M  V30 5803 H 543.006 0.952381 5.92494 0
M  V30 5804 H 544.076 1.48559 4.61582 0
M  V30 5805 N 545.419 -1.53889 0.339982 0
M  V30 5806 C 546.351 -2.22435 -0.55275 0
M  V30 5807 C 547.364 -1.22975 -1.06681 0
M  V30 5808 O 548.553 -1.49351 -0.977575 0
M  V30 5809 C 545.653 -2.8882 -1.77302 0
M  V30 5810 C 544.826 -4.14563 -1.39486 0
M  V30 5811 C 543.885 -4.64391 -2.47442 0
M  V30 5812 O 542.911 -5.28687 -2.10899 0
M  V30 5813 N 544.113 -4.40015 -3.78639 0
M  V30 5814 H 546.878 -2.9968 0.0342669 0
M  V30 5815 H 544.439 -1.61068 0.16394 0
M  V30 5816 H 546.431 -3.19072 -2.48948 0
M  V30 5817 H 545.001 -2.15182 -2.26749 0
M  V30 5818 H 544.221 -3.90896 -0.509321 0
M  V30 5819 H 545.509 -4.96362 -1.11813 0
M  V30 5820 H 544.907 -3.88586 -4.11118 0
M  V30 5821 H 543.464 -4.74881 -4.46465 0
M  V30 5822 N 546.897 -0.0685191 -1.57451 0
M  V30 5823 C 548.313 0.288101 -1.56978 0
M  V30 5824 C 548.513 1.70262 -1.07765 0
M  V30 5825 O 547.569 2.4135 -0.742054 0
M  V30 5826 C 548.882 0.100745 -3.00531 0
M  V30 5827 C 550.43 0.170531 -3.12535 0
M  V30 5828 C 550.905 0.0114944 -4.57999 0
M  V30 5829 N 552.396 0.0672065 -4.63151 0
M  V30 5830 C 553.131 -0.0314813 -5.73391 0
M  V30 5831 N 552.627 -0.183503 -6.92557 0
M  V30 5832 N 554.42 0.0253489 -5.62094 0
M  V30 5833 H 546.571 -0.993026 -1.87757 0
M  V30 5834 H 548.834 -0.386981 -0.865419 0
M  V30 5835 H 548.54 -0.875197 -3.40636 0
M  V30 5836 H 548.414 0.854457 -3.67395 0
M  V30 5837 H 550.801 1.13696 -2.72318 0
M  V30 5838 H 550.882 -0.614229 -2.48316 0
M  V30 5839 H 550.526 -0.951684 -4.98904 0
M  V30 5840 H 550.456 0.815617 -5.20245 0
M  V30 5841 H 552.947 0.183246 -3.77455 0
M  V30 5842 H 553.26 -0.251041 -7.72392 0
M  V30 5843 H 551.605 -0.218822 -6.94655 0
M  V30 5844 H 554.796 0.142794 -4.67882 0
M  V30 5845 H 554.969 -0.0550166 -6.47977 0
M  V30 5846 N 548.375 1.56261 0.205012 0
M  V30 5847 C 549.338 1.92908 1.23771 0
M  V30 5848 C 550.338 0.809208 1.38955 0
M  V30 5849 O 551.528 1.07676 1.36936 0
M  V30 5850 C 548.66 2.19442 2.60879 0
M  V30 5851 H 549.853 2.85287 0.924728 0
M  V30 5852 H 547.406 1.49798 0.446125 0
M  V30 5853 H 548.141 1.29668 2.97248 0
M  V30 5854 H 547.926 3.0104 2.51232 0
M  V30 5855 H 549.416 2.48833 3.35368 0
M  V30 5856 N 549.853 -0.472356 1.50355 0
M  V30 5857 C 550.786 -1.58923 1.63764 0
M  V30 5858 C 551.764 -1.55173 0.485793 0
M  V30 5859 O 552.948 -1.74815 0.705132 0
M  V30 5860 C 550.075 -2.97497 1.61905 0
M  V30 5861 C 549.121 -3.19405 2.82635 0
M  V30 5862 S 549.954 -2.99441 4.43954 0
M  V30 5863 C 551.11 -4.40359 4.44786 0
M  V30 5864 H 551.343 -1.47309 2.58239 0
M  V30 5865 H 548.876 -0.659601 1.39602 0
M  V30 5866 H 550.834 -3.77389 1.61518 0
M  V30 5867 H 549.495 -3.06502 0.686683 0
M  V30 5868 H 548.688 -4.20636 2.77636 0
M  V30 5869 H 548.29 -2.47283 2.80583 0
M  V30 5870 H 550.582 -5.32969 4.1827 0
M  V30 5871 H 551.525 -4.50403 5.46391 0
M  V30 5872 H 551.933 -4.22378 3.74509 0
M  V30 5873 N 551.331 -1.39911 -0.725443 0
M  V30 5874 C 552.241 -1.41688 -1.8698 0
M  V30 5875 C 553.257 -0.310579 -1.71206 0
M  V30 5876 O 554.433 -0.55359 -1.93642 0
M  V30 5877 C 551.498 -1.26811 -3.22676 0
M  V30 5878 C 550.559 -2.47497 -3.50776 0
M  V30 5879 C 549.792 -2.3332 -4.79997 0
M  V30 5880 O 550.015 -1.34175 -5.54394 0
M  V30 5881 O 548.949 -3.22498 -5.08211 0
M  V30 5882 H 552.775 -2.38171 -1.88436 0
M  V30 5883 H 550.36 -1.21128 -0.874548 0
M  V30 5884 H 552.242 -1.20684 -4.03749 0
M  V30 5885 H 550.917 -0.334289 -3.21969 0
M  V30 5886 H 549.824 -2.59201 -2.69751 0
M  V30 5887 H 551.157 -3.39606 -3.5627 0
M  V30 5888 N 552.809 0.956637 -1.25245 0
M  V30 5889 C 554.037 1.73571 -1.12608 0
M  V30 5890 C 554.452 1.86063 0.320324 0
M  V30 5891 O 553.809 1.35691 1.22042 0
M  V30 5892 C 553.86 3.15053 -1.77268 0
M  V30 5893 O 553.581 3.03174 -3.16255 0
M  V30 5894 C 555.082 4.09248 -1.70386 0
M  V30 5895 H 552.302 0.543955 -0.392879 0
M  V30 5896 H 554.846 1.20031 -1.65568 0
M  V30 5897 H 553.001 3.65543 -1.28284 0
M  V30 5898 H 553.415 3.9241 -3.48015 0
M  V30 5899 H 554.889 5.06138 -2.20291 0
M  V30 5900 H 555.366 4.34102 -0.667239 0
M  V30 5901 H 555.972 3.64672 -2.18849 0
M  V30 5902 N 554.287 1.06798 1.15896 0
M  V30 5903 C 555.217 0.704677 2.22613 0
M  V30 5904 C 556.198 -0.305252 1.67339 0
M  V30 5905 O 557.383 -0.179247 1.93371 0
M  V30 5906 C 554.513 0.0957325 3.47168 0
M  V30 5907 C 553.467 1.0322 4.15367 0
M  V30 5908 C 552.793 0.286293 5.33933 0
M  V30 5909 C 554.093 2.36341 4.65768 0
M  V30 5910 H 555.787 1.59688 2.53259 0
M  V30 5911 H 553.333 0.769257 1.21731 0
M  V30 5912 H 555.286 -0.170333 4.21056 0
M  V30 5913 H 554.01 -0.831516 3.15838 0
M  V30 5914 H 552.669 1.28309 3.43413 0
M  V30 5915 H 552.317 -0.644237 4.98857 0
M  V30 5916 H 552.017 0.910436 5.80504 0
M  V30 5917 H 553.541 0.0278938 6.10594 0
M  V30 5918 H 554.955 2.1561 5.31211 0
M  V30 5919 H 553.352 2.94299 5.2298 0
M  V30 5920 H 554.422 2.99047 3.81705 0
M  V30 5921 N 555.766 -1.3263 0.851289 0
M  V30 5922 C 556.716 -2.26451 0.265302 0
M  V30 5923 C 557.7 -1.49814 -0.586899 0
M  V30 5924 O 558.892 -1.71525 -0.436834 0
M  V30 5925 C 556.021 -3.38895 -0.548212 0
M  V30 5926 C 555.107 -4.2292 0.316189 0
M  V30 5927 N 555.498 -4.86014 1.40084 0
M  V30 5928 C 553.796 -4.45876 0.105356 0
M  V30 5929 C 554.497 -5.48667 1.93235 0
M  V30 5930 N 553.473 -5.29455 1.232 0
M  V30 5931 H 557.275 -2.72757 1.09457 0
M  V30 5932 H 554.789 -1.4668 0.697047 0
M  V30 5933 H 556.786 -4.05111 -0.984402 0
M  V30 5934 H 555.446 -2.94135 -1.37531 0
M  V30 5935 H 556.457 -4.86212 1.78377 0
M  V30 5936 H 553.134 -4.11804 -0.687299 0
M  V30 5937 H 554.524 -6.08865 2.84135 0
M  V30 5938 N 557.244 -0.608902 -1.45362 0
M  V30 5939 C 558.207 0.0992563 -2.28985 0
M  V30 5940 C 559.207 0.793841 -1.39838 0
M  V30 5941 O 560.397 0.641804 -1.61946 0
M  V30 5942 C 557.529 1.15073 -3.20891 0
M  V30 5943 H 558.722 -0.635964 -2.93079 0
M  V30 5944 H 556.275 -0.368007 -1.51906 0
M  V30 5945 H 557.01 1.91667 -2.616 0
M  V30 5946 H 556.795 0.656867 -3.86559 0
M  V30 5947 H 558.285 1.64665 -3.83765 0
M  V30 5948 N 558.722 1.53707 -0.348139 0
M  V30 5949 C 559.947 2.05877 0.250883 0
M  V30 5950 C 560.372 1.22115 1.43072 0
M  V30 5951 O 559.73 0.235986 1.79758 0
M  V30 5952 C 559.778 3.54886 0.639416 0
M  V30 5953 O 558.882 3.73948 1.73888 0
M  V30 5954 H 558.223 0.662754 0.040653 0
M  V30 5955 H 560.753 1.98303 -0.503685 0
M  V30 5956 H 560.763 3.97601 0.915295 0
M  V30 5957 H 559.438 4.153 -0.223386 0
M  V30 5958 H 558.015 3.43134 1.45991 0
M  V30 5959 N 560.2 0.0768682 1.57412 0
M  V30 5960 C 561.425 -0.603404 1.98428 0
M  V30 5961 C 561.85 -1.62047 0.955108 0
M  V30 5962 O 561.208 -1.81129 -0.0786778 0
M  V30 5963 C 561.256 -1.24396 3.38464 0
M  V30 5964 O 560.36 -2.35982 3.3821 0
M  V30 5965 H 559.701 -0.154741 0.645718 0
M  V30 5966 H 562.231 0.152885 2.04028 0
M  V30 5967 H 562.241 -1.5896 3.7576 0
M  V30 5968 H 560.916 -0.498735 4.12899 0
M  V30 5969 H 559.493 -2.03173 3.1269 0
M  V30 5970 N 561.678 -1.56367 -0.196722 0
M  V30 5971 C 563.094 -1.49916 -0.54749 0
M  V30 5972 C 563.294 -0.77659 -1.85934 0
M  V30 5973 O 562.35 -0.32644 -2.50381 0
M  V30 5974 C 563.663 -2.94577 -0.603734 0
M  V30 5975 C 565.211 -3.05239 -0.692677 0
M  V30 5976 C 565.686 -4.51308 -0.780046 0
M  V30 5977 N 567.177 -4.55453 -0.843616 0
M  V30 5978 C 567.912 -5.65786 -0.931358 0
M  V30 5979 N 567.408 -6.85812 -0.981503 0
M  V30 5980 N 569.201 -5.53695 -0.968421 0
M  V30 5981 H 561.352 -2.01761 0.663803 0
M  V30 5982 H 563.615 -0.918094 0.236238 0
M  V30 5983 H 563.321 -3.50494 0.29105 0
M  V30 5984 H 563.195 -3.47841 -1.45898 0
M  V30 5985 H 565.582 -2.49372 -1.57789 0
M  V30 5986 H 565.663 -2.55103 0.188736 0
M  V30 5987 H 565.307 -5.078 0.100811 0
M  V30 5988 H 565.237 -4.99176 -1.67724 0
M  V30 5989 H 567.728 -3.69025 -0.814176 0
M  V30 5990 H 568.041 -7.65648 -1.04892 0
M  V30 5991 H 566.386 -6.88474 -0.950208 0
M  V30 5992 H 569.577 -4.58848 -0.926072 0
M  V30 5993 H 569.75 -6.39708 -1.03334 0
M  V30 5994 N 563.156 0.464375 -1.50603 0
M  V30 5995 C 564.106 1.55929 -1.66343 0
M  V30 5996 C 565.09 1.52338 -0.517887 0
M  V30 5997 O 566.282 1.59248 -0.772601 0
M  V30 5998 C 563.411 2.94327 -1.7671 0
M  V30 5999 C 562.497 3.02777 -2.96962 0
M  V30 6000 N 562.888 2.81026 -4.20545 0
M  V30 6001 C 561.186 3.33919 -2.95659 0
M  V30 6002 C 561.887 2.94618 -5.01573 0
M  V30 6003 N 560.863 3.25112 -4.35664 0
M  V30 6004 H 564.665 1.37822 -2.59581 0
M  V30 6005 H 562.179 0.671227 -1.47879 0
M  V30 6006 H 564.176 3.73063 -1.86091 0
M  V30 6007 H 562.836 3.13476 -0.846353 0
M  V30 6008 H 563.847 2.56477 -4.49933 0
M  V30 6009 H 560.524 3.59013 -2.13111 0
M  V30 6010 H 561.914 2.81984 -6.09865 0
M  V30 6011 N 564.634 1.40294 0.718013 0
M  V30 6012 C 565.566 1.36281 1.84283 0
M  V30 6013 C 566.579 0.268621 1.60569 0
M  V30 6014 O 567.768 0.528798 1.70487 0
M  V30 6015 C 564.868 1.09741 3.2064 0
M  V30 6016 C 564.041 2.30767 3.71571 0
M  V30 6017 C 563.1 2.00424 4.86535 0
M  V30 6018 O 562.126 2.73268 4.99313 0
M  V30 6019 N 563.328 0.980724 5.72156 0
M  V30 6020 H 566.093 2.3322 1.88225 0
M  V30 6021 H 563.654 1.34616 0.899453 0
M  V30 6022 H 565.646 0.874322 3.95143 0
M  V30 6023 H 564.216 0.214771 3.11861 0
M  V30 6024 H 563.436 2.68921 2.88228 0
M  V30 6025 H 564.724 3.11455 4.02335 0
M  V30 6026 H 564.122 0.377375 5.6444 0
M  V30 6027 H 562.679 0.817538 6.46653 0
M  V30 6028 N 566.112 -0.949982 1.2575 0
M  V30 6029 C 567.528 -1.22191 1.02672 0
M  V30 6030 C 567.728 -1.99898 -0.253588 0
M  V30 6031 O 566.784 -2.33329 -0.965076 0
M  V30 6032 C 568.097 -1.99175 2.25277 0
M  V30 6033 C 569.645 -2.12201 2.30087 0
M  V30 6034 C 570.12 -2.92586 3.5236 0
M  V30 6035 N 571.611 -3.00163 3.52784 0
M  V30 6036 C 572.346 -3.62766 4.44059 0
M  V30 6037 N 571.842 -4.26943 5.45611 0
M  V30 6038 N 573.635 -3.59953 4.3173 0
M  V30 6039 H 565.786 -0.430258 2.07996 0
M  V30 6040 H 568.049 -0.252844 0.91366 0
M  V30 6041 H 567.755 -1.49479 3.18354 0
M  V30 6042 H 567.629 -2.99868 2.28821 0
M  V30 6043 H 570.016 -2.61093 1.3753 0
M  V30 6044 H 570.097 -1.10799 2.30559 0
M  V30 6045 H 569.741 -2.44383 4.45241 0
M  V30 6046 H 569.671 -3.94224 3.49134 0
M  V30 6047 H 572.162 -2.54529 2.79327 0
M  V30 6048 H 572.475 -4.72583 6.11461 0
M  V30 6049 H 570.82 -4.25557 5.49478 0
M  V30 6050 H 574.011 -3.09003 3.51617 0
M  V30 6051 H 574.184 -4.08455 5.03059 0
M  V30 6052 N 567.59 -1.07411 -1.15328 0
M  V30 6053 C 568.839 -0.792643 -1.85473 0
M  V30 6054 C 569.152 0.683789 -1.83259 0
M  V30 6055 O 570.358 1.08005 -2.49093 0
M  V30 6056 C 568.814 -1.36787 -3.32892 0
M  V30 6057 C 568.422 -2.87536 -3.43551 0
M  V30 6058 C 570.166 -1.16444 -4.08217 0
M  V30 6059 C 568.073 -3.38247 -4.85122 0
M  V30 6060 H 567.003 -0.292838 -0.694811 0
M  V30 6061 H 569.654 -1.29426 -1.30082 0
M  V30 6062 H 568.036 -0.793993 -3.87958 0
M  V30 6063 H 569.21 -3.50973 -2.98588 0
M  V30 6064 H 567.525 -3.06676 -2.81672 0
M  V30 6065 H 570.122 -1.51808 -5.12697 0
M  V30 6066 H 570.465 -0.10353 -4.16171 0
M  V30 6067 H 570.998 -1.70472 -3.59422 0
M  V30 6068 H 567.737 -4.43866 -4.82351 0
M  V30 6069 H 567.257 -2.79564 -5.30664 0
M  V30 6070 H 568.936 -3.34238 -5.5398 0
M  V30 6071 N 569.068 1.32177 -0.85831 0
M  V30 6072 C 570 2.27688 -0.262835 0
M  V30 6073 C 571.013 1.52588 0.567513 0
M  V30 6074 O 572.202 1.74156 0.391407 0
M  V30 6075 C 569.302 3.32668 0.646937 0
M  V30 6076 C 568.475 4.37148 -0.148372 0
M  V30 6077 C 567.534 5.21686 0.687728 0
M  V30 6078 O 566.56 5.69074 0.119934 0
M  V30 6079 N 567.762 5.44892 2.00182 0
M  V30 6080 H 570.527 2.79426 -1.08356 0
M  V30 6081 H 568.088 1.45076 -0.718647 0
M  V30 6082 H 570.08 3.86134 1.2117 0
M  V30 6083 H 568.65 2.81061 1.36834 0
M  V30 6084 H 567.87 3.83915 -0.894572 0
M  V30 6085 H 569.158 5.04038 -0.694514 0
M  V30 6086 H 568.556 5.08128 2.4864 0
M  V30 6087 H 567.113 6.0134 2.51463 0
M  V30 6088 N 570.547 0.616602 1.45037 0
M  V30 6089 C 571.824 0.0469086 1.95544 0
M  V30 6090 C 572.204 -1.42345 1.55888 0
M  V30 6091 O 571.552 -2.13055 0.825824 0
M  V30 6092 C 571.762 0.254489 3.48071 0
M  V30 6093 C 573.11 0.140025 4.24369 0
M  V30 6094 O 574.134 0.185084 3.55719 0
M  V30 6095 O 572.993 0.0327034 5.4649 0
M  V30 6096 H 570.087 -0.0306051 0.826433 0
M  V30 6097 H 572.633 0.687293 1.55159 0
M  V30 6098 H 571.405 1.27532 3.69934 0
M  V30 6099 H 571.028 -0.42073 3.95368 0
M  V30 6100 N 572.025 -1.5352 0.356285 0
M  V30 6101 C 573.272 -2.01117 -0.236303 0
M  V30 6102 C 573.6 -1.24381 -1.49531 0
M  V30 6103 O 572.855 -0.323057 -1.93015 0
M  V30 6104 C 573.154 -3.52607 -0.583369 0
M  V30 6105 C 572.82 -4.47151 0.58023 0
M  V30 6106 C 571.482 -4.72718 0.899528 0
M  V30 6107 C 573.834 -5.03137 1.36024 0
M  V30 6108 C 571.162 -5.51523 2.00098 0
M  V30 6109 C 573.514 -5.83145 2.45204 0
M  V30 6110 C 572.178 -6.07001 2.77679 0
M  V30 6111 H 571.448 -0.735938 -0.0864695 0
M  V30 6112 H 574.095 -1.85209 0.48683 0
M  V30 6113 H 572.4 -3.66413 -1.38739 0
M  V30 6114 H 574.097 -3.86901 -1.05397 0
M  V30 6115 H 570.687 -4.27394 0.321322 0
M  V30 6116 H 574.871 -4.83339 1.12682 0
M  V30 6117 H 570.127 -5.68229 2.25668 0
M  V30 6118 H 574.301 -6.25537 3.06067 0
M  V30 6119 H 571.928 -6.67851 3.63151 0
M  V30 6120 N 573.503 -0.0852151 -1.57369 0
M  V30 6121 C 574.451 0.894856 -2.14698 0
M  V30 6122 C 575.445 1.29903 -1.08727 0
M  V30 6123 O 576.651 1.27471 -1.27088 0
M  V30 6124 H 573.026 0.306569 -0.686673 0
M  V30 6125 H 574.997 0.386542 -2.95886 0
M  V30 6126 C 573.746 2.14798 -2.73417 0
M  V30 6127 H 573.069 1.84585 -3.54638 0
M  V30 6128 H 574.509 2.81456 -3.1711 0
M  V30 6129 C 572.968 2.91546 -1.68828 0
M  V30 6130 O 573.498 3.85733 -1.12129 0
M  V30 6131 N 571.704 2.54901 -1.39549 0
M  V30 6132 H 571.251 1.7838 -1.85845 0
M  V30 6133 H 571.209 3.06553 -0.698054 0
M  V30 6134 N 574.981 1.5647 0.188427 0
M  V30 6135 C 576.211 1.84863 0.922463 0
M  V30 6136 C 576.619 0.666413 1.77075 0
M  V30 6137 O 575.962 -0.374044 1.79852 0
M  V30 6138 C 576.024 3.07447 1.86324 0
M  V30 6139 C 575.688 4.41066 1.19625 0
M  V30 6140 C 576.685 5.16767 0.569946 0
M  V30 6141 C 574.37 4.87802 1.19811 0
M  V30 6142 C 576.364 6.37384 -0.045594 0
M  V30 6143 C 574.051 6.08353 0.57874 0
M  V30 6144 C 575.049 6.82987 -0.0420259 0
M  V30 6145 O 574.737 8.01254 -0.651675 0
M  V30 6146 H 574.469 0.61784 0.274316 0
M  V30 6147 H 577.023 2.04437 0.198613 0
M  V30 6148 H 575.253 2.83774 2.62696 0
M  V30 6149 H 576.942 3.2243 2.46564 0
M  V30 6150 H 577.708 4.81749 0.560601 0
M  V30 6151 H 573.587 4.29662 1.67069 0
M  V30 6152 H 577.131 6.95578 -0.530731 0
M  V30 6153 H 573.028 6.42838 0.58561 0
M  V30 6154 H 573.796 8.16655 -0.549236 0
M  V30 6155 N 576.459 -0.456382 1.50847 0
M  V30 6156 C 577.687 -1.23026 1.66349 0
M  V30 6157 C 578.102 -1.85473 0.352868 0
M  V30 6158 O 577.459 -1.69885 -0.666739 0
M  V30 6159 C 577.51 -2.32827 2.76539 0
M  V30 6160 O 577.231 -1.72938 4.02522 0
M  V30 6161 C 578.732 -3.23448 3.03144 0
M  V30 6162 H 575.952 -0.371527 0.558756 0
M  V30 6163 H 578.496 -0.543082 1.97157 0
M  V30 6164 H 576.651 -2.97294 2.48384 0
M  V30 6165 H 577.065 -2.45357 4.63573 0
M  V30 6166 H 578.539 -3.96669 3.83872 0
M  V30 6167 H 579.016 -3.83094 2.14793 0
M  V30 6168 H 579.622 -2.64702 3.32886 0
M  V30 6169 N 577.937 -1.40673 -0.710563 0
M  V30 6170 C 579.214 -1.29718 -1.46398 0
M  V30 6171 C 579.594 0.082177 -2.1094 0
M  V30 6172 O 578.942 1.09536 -2.00534 0
M  V30 6173 C 579.152 -2.43967 -2.49562 0
M  V30 6174 C 580.5 -2.84436 -3.15248 0
M  V30 6175 O 581.524 -2.43597 -2.59883 0
M  V30 6176 O 580.383 -3.55008 -4.1549 0
M  V30 6177 H 577.477 -0.509697 -0.651258 0
M  V30 6178 H 580.023 -1.52603 -0.742312 0
M  V30 6179 H 578.795 -3.36076 -2.0042 0
M  V30 6180 H 578.418 -2.22879 -3.29258 0
M  V30 6181 N 579.415 0.9433 -1.26252 0
M  V30 6182 C 580.365 2.02746 -1.04297 0
M  V30 6183 C 581.349 1.60882 0.0239435 0
M  V30 6184 O 582.541 1.75947 -0.192757 0
M  V30 6185 C 579.67 3.36585 -0.6757 0
M  V30 6186 C 578.756 3.84939 -1.77996 0
M  V30 6187 N 579.147 4.05966 -3.01704 0
M  V30 6188 C 577.445 4.13833 -1.66308 0
M  V30 6189 C 578.146 4.45987 -3.73458 0
M  V30 6190 N 577.122 4.52569 -3.01135 0
M  V30 6191 H 580.924 2.17012 -1.98199 0
M  V30 6192 H 578.438 1.12898 -1.16738 0
M  V30 6193 H 580.435 4.13896 -0.499571 0
M  V30 6194 H 579.095 3.2369 0.255863 0
M  V30 6195 H 580.106 3.92716 -3.37631 0
M  V30 6196 H 576.783 4.09739 -0.801267 0
M  V30 6197 H 578.173 4.70465 -4.79701 0
M  V30 6198 N 580.893 1.08022 1.14757 0
M  V30 6199 C 582.121 0.828847 1.89572 0
M  V30 6200 C 582.536 -0.618621 1.78377 0
M  V30 6201 O 581.893 -1.42482 1.1404 0
M  V30 6202 C 581.944 1.23677 3.39685 0
M  V30 6203 O 581.665 2.62746 3.50566 0
M  V30 6204 C 583.166 1.01569 4.31507 0
M  V30 6205 H 580.386 0.299196 0.600602 0
M  V30 6206 H 582.93 1.43846 1.45357 0
M  V30 6207 H 581.085 0.671347 3.81539 0
M  V30 6208 H 581.499 2.79573 4.43778 0
M  V30 6209 H 582.973 1.35055 5.35223 0
M  V30 6210 H 583.45 -0.0475433 4.39174 0
M  V30 6211 H 584.056 1.56636 3.95405 0
M  V30 6212 N 582.371 -1.3172 0.865308 0
M  V30 6213 C 583.301 -2.31109 0.333302 0
M  V30 6214 C 584.282 -1.60148 -0.573301 0
M  V30 6215 O 585.467 -1.87882 -0.491305 0
M  V30 6216 C 582.597 -3.44104 -0.470078 0
M  V30 6217 C 581.551 -4.26623 0.343021 0
M  V30 6218 C 580.877 -5.31482 -0.585756 0
M  V30 6219 C 582.177 -4.98001 1.57456 0
M  V30 6220 H 583.871 -2.75855 1.1638 0
M  V30 6221 H 581.417 -1.3262 0.561069 0
M  V30 6222 H 583.37 -4.12682 -0.852752 0
M  V30 6223 H 582.094 -2.98112 -1.33404 0
M  V30 6224 H 580.753 -3.59707 0.707583 0
M  V30 6225 H 580.401 -4.81741 -1.44686 0
M  V30 6226 H 580.101 -5.87582 -0.0456494 0
M  V30 6227 H 581.625 -6.0292 -0.965375 0
M  V30 6228 H 583.039 -5.59201 1.26359 0
M  V30 6229 H 581.436 -5.63876 2.05339 0
M  V30 6230 H 582.506 -4.25253 2.32997 0
M  V30 6231 N 583.85 -0.624285 -1.44708 0
M  V30 6232 C 585.098 -0.125802 -2.01708 0
M  V30 6233 C 585.418 1.2543 -1.49306 0
M  V30 6234 O 584.689 1.83198 -0.693924 0
M  V30 6235 H 583.269 -0.0435161 -0.745731 0
M  V30 6236 H 585.931 -0.809446 -1.77296 0
M  V30 6237 H 585.027 -0.0882734 -3.11975 0
M  V30 6238 N 585.328 1.53329 -0.364422 0
M  V30 6239 C 586.744 1.59594 -0.0133165 0
M  V30 6240 C 586.944 1.37959 1.46865 0
M  V30 6241 O 586 1.18418 2.2301 0
M  V30 6242 C 587.313 2.97032 -0.468213 0
M  V30 6243 C 588.861 3.10138 -0.422334 0
M  V30 6244 C 589.336 4.49986 -0.853024 0
M  V30 6245 N 590.827 4.56098 -0.808037 0
M  V30 6246 C 591.562 5.62495 -1.11299 0
M  V30 6247 N 591.058 6.7665 -1.48717 0
M  V30 6248 N 592.851 5.52473 -1.03586 0
M  V30 6249 H 585.002 1.65644 -1.32951 0
M  V30 6250 H 587.265 0.77684 -0.543345 0
M  V30 6251 H 586.971 3.18 -1.5023 0
M  V30 6252 H 586.845 3.76918 0.145775 0
M  V30 6253 H 589.232 2.88881 0.602622 0
M  V30 6254 H 589.313 2.32263 -1.0718 0
M  V30 6255 H 588.957 4.7198 -1.87609 0
M  V30 6256 H 588.887 5.26289 -0.180819 0
M  V30 6257 H 591.378 3.74131 -0.532361 0
M  V30 6258 H 591.691 7.53776 -1.70415 0
M  V30 6259 H 590.036 6.78044 -1.52581 0
M  V30 6260 H 593.227 4.6217 -0.742736 0
M  V30 6261 H 593.4 6.35295 -1.27686 0
M  V30 6262 N 586.806 0.0935595 1.57322 0
M  V30 6263 C 588.055 -0.570191 1.93473 0
M  V30 6264 C 588.368 -1.69434 0.977318 0
M  V30 6265 O 589.574 -2.41914 1.23248 0
M  V30 6266 C 588.03 -1.06564 3.43762 0
M  V30 6267 C 587.638 0.0286723 4.47991 0
M  V30 6268 C 589.382 -1.70221 3.88877 0
M  V30 6269 C 587.289 -0.482046 5.89432 0
M  V30 6270 H 586.219 -0.216764 0.72217 0
M  V30 6271 H 588.87 0.169313 1.82717 0
M  V30 6272 H 587.252 -1.85878 3.49664 0
M  V30 6273 H 588.426 0.804106 4.5373 0
M  V30 6274 H 586.741 0.570336 4.12476 0
M  V30 6275 H 589.338 -2.09502 4.91948 0
M  V30 6276 H 589.681 -2.57078 3.27439 0
M  V30 6277 H 590.214 -0.974919 3.85668 0
M  V30 6278 H 586.953 0.349871 6.54566 0
M  V30 6279 H 586.473 -1.22452 5.87167 0
M  V30 6280 H 588.152 -0.951508 6.39965 0
M  V30 6281 N 588.284 -1.56567 -0.180126 0
M  V30 6282 C 589.533 -1.80685 -0.896426 0
M  V30 6283 C 589.846 -0.669335 -1.83791 0
M  V30 6284 O 591.052 -0.795209 -2.59593 0
M  V30 6285 C 589.508 -3.20132 -1.6445 0
M  V30 6286 C 589.116 -4.41727 -0.747088 0
M  V30 6287 C 590.86 -3.53549 -2.34955 0
M  V30 6288 C 588.767 -5.72195 -1.49489 0
M  V30 6289 H 587.697 -0.673758 -0.338477 0
M  V30 6290 H 590.348 -1.8289 -0.149467 0
M  V30 6291 H 588.73 -3.12218 -2.43589 0
M  V30 6292 H 589.904 -4.608 0.00671129 0
M  V30 6293 H 588.219 -4.16122 -0.152134 0
M  V30 6294 H 590.816 -4.48267 -2.91481 0
M  V30 6295 H 591.159 -2.78006 -3.09868 0
M  V30 6296 H 591.692 -3.62976 -1.62768 0
M  V30 6297 H 588.431 -6.50743 -0.788251 0
M  V30 6298 H 587.951 -5.57115 -2.22224 0
M  V30 6299 H 589.63 -6.1384 -2.04472 0
M  V30 6300 N 589.762 0.448376 -1.51087 0
M  V30 6301 C 590.692 1.55102 -1.74544 0
M  V30 6302 C 591.673 1.59357 -0.594932 0
M  V30 6303 O 592.858 1.75261 -0.836491 0
M  V30 6304 C 589.988 2.93268 -1.86041 0
M  V30 6305 C 588.942 3.03877 -3.01402 0
M  V30 6306 C 588.268 4.43914 -2.98068 0
M  V30 6307 C 589.568 2.7898 -4.41551 0
M  V30 6308 H 591.262 1.35724 -2.66869 0
M  V30 6309 H 588.808 0.651498 -1.28419 0
M  V30 6310 H 590.761 3.70356 -2.01034 0
M  V30 6311 H 589.485 3.13853 -0.903548 0
M  V30 6312 H 588.144 2.29227 -2.86096 0
M  V30 6313 H 587.792 4.6145 -2.00182 0
M  V30 6314 H 587.492 4.51944 -3.75527 0
M  V30 6315 H 589.016 5.22991 -3.1514 0
M  V30 6316 H 590.43 3.45805 -4.57265 0
M  V30 6317 H 588.827 2.98431 -5.20633 0
M  V30 6318 H 589.897 1.74663 -4.5235 0
M  V30 6319 N 591.24 1.41047 0.703093 0
M  V30 6320 C 592.188 1.42494 1.83843 0
M  V30 6321 C 593.182 0.303885 1.66652 0
M  V30 6322 O 594.388 0.475544 1.73605 0
M  V30 6323 H 590.763 0.445685 0.605697 0
M  V30 6324 H 592.734 2.38194 1.79739 0
M  V30 6325 C 591.483 1.31666 3.21807 0
M  V30 6326 H 590.806 2.17212 3.35647 0
M  V30 6327 H 592.246 1.36738 4.01346 0
M  V30 6328 C 590.705 0.0281828 3.36888 0
M  V30 6329 O 591.235 -0.929995 3.90786 0
M  V30 6330 N 589.441 -0.0454322 2.90564 0
M  V30 6331 H 588.988 0.735046 2.4689 0
M  V30 6332 H 588.946 -0.906968 3.01034 0
M  V30 6333 N 592.718 -0.936591 1.26751 0
M  V30 6334 C 593.681 -2.01752 1.08761 0
M  V30 6335 C 594.681 -1.60763 0.0344435 0
M  V30 6336 O 595.871 -1.71963 0.278258 0
M  V30 6337 C 593.003 -3.34543 0.655271 0
M  V30 6338 H 594.196 -2.19143 2.04735 0
M  V30 6339 H 591.749 -1.11618 1.09413 0
M  V30 6340 H 592.484 -3.22851 -0.30626 0
M  V30 6341 H 592.269 -3.65647 1.41578 0
M  V30 6342 H 593.759 -4.13944 0.551378 0
M  V30 6343 N 594.196 -1.08629 -1.14182 0
M  V30 6344 C 595.129 -0.662329 -2.18377 0
M  V30 6345 C 596.107 0.327054 -1.59277 0
M  V30 6346 O 597.291 0.230376 -1.87087 0
M  V30 6347 C 594.418 0.0254765 -3.3869 0
M  V30 6348 C 593.464 -0.924414 -4.16361 0
M  V30 6349 S 594.297 -2.43226 -4.77076 0
M  V30 6350 C 595.453 -1.75663 -6.00744 0
M  V30 6351 H 595.686 -1.54501 -2.54001 0
M  V30 6352 H 593.219 -0.901484 -1.2535 0
M  V30 6353 H 595.177 0.416032 -4.08386 0
M  V30 6354 H 593.838 0.884689 -3.01384 0
M  V30 6355 H 593.031 -0.390099 -5.02488 0
M  V30 6356 H 592.633 -1.25598 -3.5228 0
M  V30 6357 H 594.925 -1.07589 -6.68903 0
M  V30 6358 H 595.868 -2.59673 -6.58768 0
M  V30 6359 H 596.276 -1.22903 -5.50958 0
M  V30 6360 N 595.674 1.31259 -0.872281 0
M  V30 6361 C 596.622 2.30404 -0.318897 0
M  V30 6362 C 597.616 1.5962 0.567267 0
M  V30 6363 O 598.822 1.74204 0.453111 0
M  V30 6364 H 595.197 0.747243 -0.0844474 0
M  V30 6365 H 597.168 2.74549 -1.16899 0
M  V30 6366 C 595.917 3.44608 0.462683 0
M  V30 6367 H 595.24 3.99248 -0.209936 0
M  V30 6368 H 596.68 4.1609 0.815187 0
M  V30 6369 C 595.139 2.93456 1.65485 0
M  V30 6370 O 595.669 2.92418 2.75417 0
M  V30 6371 N 593.875 2.49628 1.48776 0
M  V30 6372 H 593.422 2.50671 0.593452 0
M  V30 6373 H 593.38 2.15759 2.28682 0
M  V30 6374 N 597.152 0.631951 1.44375 0
M  V30 6375 C 598.062 -0.073674 2.34484 0
M  V30 6376 C 599.078 -0.834825 1.52665 0
M  V30 6377 O 600.254 -0.786902 1.85391 0
M  V30 6378 C 597.319 -1.04247 3.30656 0
M  V30 6379 C 596.38 -0.280602 4.28382 0
M  V30 6380 C 595.613 -1.20325 5.19959 0
M  V30 6381 O 595.836 -2.44199 5.15484 0
M  V30 6382 O 594.77 -0.687128 5.97965 0
M  V30 6383 H 598.596 0.667477 2.96274 0
M  V30 6384 H 596.181 0.392144 1.44162 0
M  V30 6385 H 598.063 -1.59981 3.89851 0
M  V30 6386 H 596.738 -1.76422 2.71398 0
M  V30 6387 H 595.645 0.319804 3.72731 0
M  V30 6388 H 596.978 0.401144 4.90563 0
M  V30 6389 N 598.631 -1.53133 0.372548 0
M  V30 6390 C 599.859 -2.05774 -0.215515 0
M  V30 6391 C 600.274 -1.24555 -1.41886 0
M  V30 6392 O 599.631 -0.287951 -1.80214 0
M  V30 6393 C 599.682 -3.5645 -0.602161 0
M  V30 6394 O 599.403 -4.34591 0.553359 0
M  V30 6395 C 600.904 -4.25374 -1.24787 0
M  V30 6396 H 598.124 -0.670009 -0.0364529 0
M  V30 6397 H 600.668 -1.97434 0.532934 0
M  V30 6398 H 598.823 -3.64918 -1.30052 0
M  V30 6399 H 599.237 -5.23954 0.239336 0
M  V30 6400 H 600.711 -5.32097 -1.46891 0
M  V30 6401 H 601.188 -3.79531 -2.21026 0
M  V30 6402 H 601.794 -4.21177 -0.590752 0
M  V30 6403 N 600.109 -0.101901 -1.5727 0
M  V30 6404 C 601.057 0.872034 -2.15635 0
M  V30 6405 C 602.051 1.28742 -1.10099 0
M  V30 6406 O 603.257 1.26116 -1.28432 0
M  V30 6407 H 599.632 0.299269 -0.689886 0
M  V30 6408 H 601.603 0.355137 -2.96279 0
M  V30 6409 C 600.352 2.11886 -2.7568 0
M  V30 6410 H 599.675 1.80813 -3.56576 0
M  V30 6411 H 601.115 2.78077 -3.20077 0
M  V30 6412 C 599.574 2.89739 -1.7191 0
M  V30 6413 O 600.104 3.84522 -1.16213 0
M  V30 6414 N 598.31 2.53407 -1.42245 0
M  V30 6415 H 597.857 1.76398 -1.87727 0
M  V30 6416 H 597.815 3.05795 -0.730529 0
M  V30 6417 N 601.587 1.56661 0.17182 0
M  V30 6418 C 602.834 1.81965 0.888529 0
M  V30 6419 C 603.162 0.6789 1.82267 0
M  V30 6420 O 602.417 -0.333875 1.92831 0
M  V30 6421 C 602.716 3.13435 1.71736 0
M  V30 6422 C 602.382 4.41159 0.932184 0
M  V30 6423 C 601.044 4.75851 0.715481 0
M  V30 6424 C 603.396 5.19803 0.381387 0
M  V30 6425 C 600.724 5.86666 -0.063126 0
M  V30 6426 C 603.076 6.31433 -0.384129 0
M  V30 6427 C 601.74 6.64692 -0.611637 0
M  V30 6428 H 601.01 0.665859 0.325136 0
M  V30 6429 H 603.657 1.90884 0.153495 0
M  V30 6430 H 601.962 2.99857 2.52177 0
M  V30 6431 H 603.659 3.30224 2.27493 0
M  V30 6432 H 600.249 4.13947 1.11112 0
M  V30 6433 H 604.433 4.93396 0.536148 0
M  V30 6434 H 599.689 6.10892 -0.249136 0
M  V30 6435 H 603.863 6.91577 -0.818185 0
M  V30 6436 H 601.49 7.50398 -1.21684 0
M  V30 6437 N 603.065 -0.440357 1.51323 0
M  V30 6438 C 604.312 -1.19004 1.63842 0
M  V30 6439 C 604.64 -1.91266 0.35321 0
M  V30 6440 O 603.895 -1.84143 -0.662565 0
M  V30 6441 C 604.194 -2.2339 2.78984 0
M  V30 6442 C 603.86 -1.68162 4.18369 0
M  V30 6443 C 602.522 -1.52823 4.56288 0
M  V30 6444 C 604.874 -1.27524 5.05358 0
M  V30 6445 C 602.202 -0.953157 5.78906 0
M  V30 6446 C 604.554 -0.714474 6.28552 0
M  V30 6447 C 603.218 -0.547961 6.65247 0
M  V30 6448 H 602.488 -0.435468 0.59954 0
M  V30 6449 H 605.135 -0.481538 1.85347 0
M  V30 6450 H 603.44 -3.00267 2.51688 0
M  V30 6451 H 605.137 -2.81211 2.85869 0
M  V30 6452 H 601.727 -1.81077 3.8847 0
M  V30 6453 H 605.911 -1.38197 4.76671 0
M  V30 6454 H 601.167 -0.811882 6.05986 0
M  V30 6455 H 605.341 -0.391059 6.95301 0
M  V30 6456 H 602.968 -0.100222 7.60134 0
M  V30 6457 N 604.543 -1.41418 -0.695603 0
M  V30 6458 C 605.791 -1.40496 -1.45277 0
M  V30 6459 C 606.112 -0.0149538 -1.94994 0
M  V30 6460 O 605.382 0.9432 -1.71699 0
M  V30 6461 H 603.962 -0.517147 -0.539044 0
M  V30 6462 H 606.624 -1.76656 -0.823321 0
M  V30 6463 H 605.72 -2.09214 -2.31595 0
M  V30 6464 N 606.021 0.929856 -1.27246 0
M  V30 6465 C 607.267 1.6798 -1.13625 0
M  V30 6466 C 607.6 1.91586 0.317589 0
M  V30 6467 O 606.875 1.50467 1.23247 0
M  V30 6468 C 607.158 3.04766 -1.91806 0
M  V30 6469 C 607.011 2.88415 -3.45162 0
M  V30 6470 C 608.33 4.05063 -1.72082 0
M  V30 6471 H 605.449 0.609632 -0.414147 0
M  V30 6472 H 608.091 1.0792 -1.56376 0
M  V30 6473 H 606.241 3.56034 -1.55474 0
M  V30 6474 H 607.913 2.44282 -3.91311 0
M  V30 6475 H 606.156 2.23802 -3.71611 0
M  V30 6476 H 606.827 3.85482 -3.95105 0
M  V30 6477 H 609.303 3.62798 -2.03757 0
M  V30 6478 H 608.179 4.98765 -2.29182 0
M  V30 6479 H 608.44 4.37021 -0.668206 0
M  V30 6480 N 607.499 1.09233 1.13605 0
M  V30 6481 C 608.727 0.848908 1.88683 0
M  V30 6482 C 609.142 -0.599667 1.79024 0
M  V30 6483 O 608.499 -1.41265 1.15544 0
M  V30 6484 C 608.55 1.27273 3.38355 0
M  V30 6485 O 608.271 2.66449 3.47759 0
M  V30 6486 C 609.772 1.0614 4.30406 0
M  V30 6487 H 606.992 0.305549 0.597395 0
M  V30 6488 H 609.536 1.4538 1.43823 0
M  V30 6489 H 607.691 0.711776 3.80805 0
M  V30 6490 H 608.105 2.84264 4.40788 0
M  V30 6491 H 609.579 1.40725 5.33761 0
M  V30 6492 H 610.056 -0.000960332 4.392 0
M  V30 6493 H 610.662 1.60821 3.93722 0
M  V30 6494 N 608.977 -1.30795 0.87923 0
M  V30 6495 C 610.225 -1.95974 0.493809 0
M  V30 6496 C 610.546 -1.69787 -0.959021 0
M  V30 6497 O 609.816 -1.01832 -1.67353 0
M  V30 6498 H 608.396 -0.725083 0.179622 0
M  V30 6499 H 611.058 -1.59432 1.12105 0
M  V30 6500 H 610.154 -3.05058 0.659263 0
M  V30 6501 N 610.455 -0.639598 -1.44038 0
M  V30 6502 C 611.387 0.0987684 -2.28987 0
M  V30 6503 C 612.4 0.80058 -1.41755 0
M  V30 6504 O 613.589 0.660611 -1.65826 0
M  V30 6505 C 610.689 1.16242 -3.18341 0
M  V30 6506 C 609.862 0.541447 -4.34036 0
M  V30 6507 C 608.921 1.50017 -5.04362 0
M  V30 6508 O 607.947 1.01403 -5.60095 0
M  V30 6509 N 609.149 2.83441 -5.06598 0
M  V30 6510 H 611.914 -0.630305 -2.92997 0
M  V30 6511 H 609.475 -0.481376 -1.54578 0
M  V30 6512 H 611.467 1.80429 -3.62253 0
M  V30 6513 H 610.037 1.79362 -2.56024 0
M  V30 6514 H 609.257 -0.27923 -3.9321 0
M  V30 6515 H 610.545 0.107379 -5.08687 0
M  V30 6516 H 609.943 3.2551 -4.62666 0
M  V30 6517 H 608.5 3.42966 -5.54272 0
M  V30 6518 N 611.933 1.52934 -0.380664 0
M  V30 6519 C 613.179 2.01765 0.20458 0
M  V30 6520 C 613.512 1.26696 1.47179 0
M  V30 6521 O 612.787 0.364936 1.91046 0
M  V30 6522 C 613.07 3.56869 0.481269 0
M  V30 6523 C 612.923 4.42617 -0.800629 0
M  V30 6524 C 614.242 4.2121 1.27554 0
M  V30 6525 H 611.361 0.733388 0.0728803 0
M  V30 6526 H 614.003 1.83068 -0.50853 0
M  V30 6527 H 612.153 3.72932 1.08875 0
M  V30 6528 H 613.825 4.38323 -1.43773 0
M  V30 6529 H 612.068 4.09977 -1.4178 0
M  V30 6530 H 612.739 5.49134 -0.561791 0
M  V30 6531 H 615.215 4.09072 0.761514 0
M  V30 6532 H 614.091 5.29732 1.43788 0
M  V30 6533 H 614.352 3.78269 2.28833 0
M  V30 6534 N 613.412 0.11024 1.57214 0
M  V30 6535 C 614.658 -0.550684 1.9518 0
M  V30 6536 C 614.991 -1.66885 0.993122 0
M  V30 6537 O 614.266 -1.94479 0.0287907 0
M  V30 6538 C 614.549 -1.09163 3.43155 0
M  V30 6539 C 614.402 0.0225198 4.49794 0
M  V30 6540 C 615.721 -1.98527 3.92778 0
M  V30 6541 H 612.84 -0.198706 0.709708 0
M  V30 6542 H 615.482 0.184024 1.89107 0
M  V30 6543 H 613.632 -1.71775 3.48462 0
M  V30 6544 H 615.304 0.657443 4.56591 0
M  V30 6545 H 613.547 0.686868 4.28328 0
M  V30 6546 H 614.218 -0.39706 5.5057 0
M  V30 6547 H 616.694 -1.458 3.8972 0
M  V30 6548 H 615.57 -2.33298 4.96853 0
M  V30 6549 H 615.831 -2.90846 3.32958 0
M  V30 6550 N 614.89 -1.56749 -0.16351 0
M  V30 6551 C 616.137 -1.82434 -0.878866 0
M  V30 6552 C 616.465 -0.688557 -1.81904 0
M  V30 6553 O 615.72 0.323644 -1.93005 0
M  V30 6554 C 616.019 -3.14342 -1.70071 0
M  V30 6555 C 615.685 -4.41647 -0.908775 0
M  V30 6556 C 614.347 -4.76224 -0.690236 0
M  V30 6557 C 616.699 -5.19998 -0.353815 0
M  V30 6558 C 614.027 -5.86624 0.0942374 0
M  V30 6559 C 616.379 -6.3122 0.41761 0
M  V30 6560 C 615.043 -6.64358 0.646879 0
M  V30 6561 H 614.313 -0.667574 -0.3216 0
M  V30 6562 H 616.96 -1.90963 -0.14337 0
M  V30 6563 H 615.265 -3.0119 -2.50583 0
M  V30 6564 H 616.962 -3.31426 -2.25738 0
M  V30 6565 H 613.552 -4.1453 -1.08916 0
M  V30 6566 H 617.736 -4.93673 -0.509975 0
M  V30 6567 H 612.992 -6.10751 0.281529 0
M  V30 6568 H 617.166 -6.91133 0.854849 0
M  V30 6569 H 614.793 -7.49742 1.25662 0
M  V30 6570 N 616.368 0.432326 -1.51554 0
M  V30 6571 C 617.784 0.769195 -1.39841 0
M  V30 6572 C 617.984 1.95584 -0.484675 0
M  V30 6573 O 617.04 2.52433 0.0582829 0
M  V30 6574 C 618.353 1.04487 -2.81963 0
M  V30 6575 C 619.901 1.149 -2.91148 0
M  V30 6576 C 620.376 1.45758 -4.34187 0
M  V30 6577 N 621.867 1.52671 -4.37317 0
M  V30 6578 C 622.602 1.78129 -5.4503 0
M  V30 6579 N 622.098 2.01345 -6.62897 0
M  V30 6580 N 623.891 1.79953 -5.32516 0
M  V30 6581 H 616.042 -0.349122 -2.09511 0
M  V30 6582 H 618.305 -0.0938113 -0.943347 0
M  V30 6583 H 618.011 0.24557 -3.50842 0
M  V30 6584 H 617.885 1.97119 -3.21596 0
M  V30 6585 H 620.272 1.93891 -2.22464 0
M  V30 6586 H 620.353 0.201568 -2.55005 0
M  V30 6587 H 619.997 0.672917 -5.03423 0
M  V30 6588 H 619.927 2.41715 -4.67848 0
M  V30 6589 H 622.418 1.36612 -3.52343 0
M  V30 6590 H 622.731 2.20155 -7.40778 0
M  V30 6591 H 621.076 1.98657 -6.66003 0
M  V30 6592 H 624.267 1.61337 -4.39418 0
M  V30 6593 H 624.44 1.99455 -6.1654 0
M  V30 6594 N 617.846 1.41785 0.688094 0
M  V30 6595 C 618.794 1.44436 1.82321 0
M  V30 6596 C 619.788 0.321544 1.6632 0
M  V30 6597 O 620.994 0.493931 1.73091 0
M  V30 6598 H 617.369 0.452084 0.600936 0
M  V30 6599 H 619.34 2.40087 1.77202 0
M  V30 6600 C 618.089 1.35071 3.20392 0
M  V30 6601 H 617.412 2.2076 3.33324 0
M  V30 6602 H 618.852 1.40988 3.99873 0
M  V30 6603 C 617.311 0.0639127 3.36839 0
M  V30 6604 O 617.841 -0.888495 3.91751 0
M  V30 6605 N 616.047 -0.0146114 2.90596 0
M  V30 6606 H 615.594 0.761191 2.46097 0
M  V30 6607 H 615.552 -0.874988 3.01979 0
M  V30 6608 N 619.324 -0.923095 1.27737 0
M  V30 6609 C 620.572 -1.66797 1.14119 0
M  V30 6610 C 620.893 -1.92479 -0.312541 0
M  V30 6611 O 620.163 -1.53432 -1.218 0
M  V30 6612 H 618.743 -0.618196 0.419336 0
M  V30 6613 H 621.405 -1.10815 1.60331 0
M  V30 6614 H 620.501 -2.63424 1.67374 0
M  V30 6615 N 620.802 -1.09834 -1.13024 0
M  V30 6616 C 621.712 -0.753731 -2.22162 0
M  V30 6617 C 622.728 0.246105 -1.72251 0
M  V30 6618 O 623.904 0.0864051 -2.01215 0
M  V30 6619 C 620.969 -0.183958 -3.46212 0
M  V30 6620 C 620.03 -1.24028 -4.10993 0
M  V30 6621 C 619.263 -0.697597 -5.29121 0
M  V30 6622 O 619.486 0.478092 -5.68393 0
M  V30 6623 O 618.42 -1.4546 -5.84059 0
M  V30 6624 H 622.246 -1.66456 -2.5402 0
M  V30 6625 H 619.831 -0.873026 -1.21238 0
M  V30 6626 H 621.713 0.130257 -4.21199 0
M  V30 6627 H 620.388 0.699823 -3.16045 0
M  V30 6628 H 619.295 -1.60725 -3.37814 0
M  V30 6629 H 620.628 -2.09685 -4.45301 0
M  V30 6630 N 622.28 1.30327 -0.886154 0
M  V30 6631 C 623.696 1.48676 -0.580323 0
M  V30 6632 C 623.896 1.81189 0.881639 0
M  V30 6633 O 622.952 1.90021 1.66278 0
M  V30 6634 C 624.265 2.60932 -1.49449 0
M  V30 6635 C 625.813 2.74812 -1.49824 0
M  V30 6636 C 626.288 3.90183 -2.39836 0
M  V30 6637 N 627.779 3.97495 -2.37806 0
M  V30 6638 C 628.514 4.86078 -3.04165 0
M  V30 6639 N 628.01 5.79448 -3.79753 0
M  V30 6640 N 629.803 4.79456 -2.93391 0
M  V30 6641 H 621.954 1.07495 -1.8319 0
M  V30 6642 H 624.217 0.532661 -0.784204 0
M  V30 6643 H 623.923 2.43731 -2.5355 0
M  V30 6644 H 623.797 3.57437 -1.20494 0
M  V30 6645 H 626.184 2.91418 -0.464731 0
M  V30 6646 H 626.265 1.78924 -1.82811 0
M  V30 6647 H 625.909 3.74334 -3.43273 0
M  V30 6648 H 625.839 4.85411 -2.04166 0
M  V30 6649 H 628.33 3.30703 -1.82877 0
M  V30 6650 H 628.643 6.43805 -4.27475 0
M  V30 6651 H 626.988 5.79376 -3.8386 0
M  V30 6652 H 630.179 4.05494 -2.33864 0
M  V30 6653 H 630.352 5.48283 -3.45383 0
M  V30 6654 N 623.758 0.647228 1.43697 0
M  V30 6655 C 624.691 -0.097646 2.27991 0
M  V30 6656 C 625.669 -0.83571 1.3948 0
M  V30 6657 O 626.853 -0.836509 1.68922 0
M  V30 6658 C 623.98 -1.14484 3.18765 0
M  V30 6659 C 623.026 -0.505503 4.23494 0
M  V30 6660 S 623.859 0.716471 5.30685 0
M  V30 6661 C 625.015 -0.330339 6.25028 0
M  V30 6662 H 625.248 0.617417 2.90818 0
M  V30 6663 H 622.781 0.435881 1.4812 0
M  V30 6664 H 624.739 -1.74403 3.7161 0
M  V30 6665 H 623.4 -1.83219 2.55127 0
M  V30 6666 H 622.593 -1.29473 4.87086 0
M  V30 6667 H 622.195 0.0194377 3.73995 0
M  V30 6668 H 624.487 -1.19828 6.66819 0
M  V30 6669 H 625.43 0.270409 7.07583 0
M  V30 6670 H 625.838 -0.663459 5.60588 0
M  V30 6671 N 625.236 -1.5273 0.388769 0
M  V30 6672 C 626.484 -2.01174 -0.193208 0
M  V30 6673 C 626.805 -1.27705 -1.47365 0
M  V30 6674 O 626.075 -0.396966 -1.91836 0
M  V30 6675 H 624.655 -0.743287 -0.0743871 0
M  V30 6676 H 627.317 -1.87826 0.520336 0
M  V30 6677 H 626.413 -3.09477 -0.403803 0
M  V30 6678 N 626.714 -0.118576 -1.57153 0
M  V30 6679 C 627.942 0.54726 -1.99531 0
M  V30 6680 C 628.357 1.60251 -0.998246 0
M  V30 6681 O 627.714 1.82498 0.00893106 0
M  V30 6682 C 627.765 1.17378 -3.41913 0
M  V30 6683 O 627.486 0.160703 -4.37805 0
M  V30 6684 C 628.987 1.92297 -3.9942 0
M  V30 6685 H 626.207 0.144919 -0.655164 0
M  V30 6686 H 628.751 -0.20479 -2.03472 0
M  V30 6687 H 626.906 1.87661 -3.38913 0
M  V30 6688 H 627.32 0.61586 -5.20872 0
M  V30 6689 H 628.794 2.31462 -5.01128 0
M  V30 6690 H 629.271 2.79801 -3.38538 0
M  V30 6691 H 629.877 1.26777 -4.05965 0
M  V30 6692 N 628.193 1.56834 0.155195 0
M  V30 6693 C 629.442 1.82088 0.867567 0
M  V30 6694 C 629.755 0.69849 1.82703 0
M  V30 6695 O 630.961 0.836407 2.58295 0
M  V30 6696 C 629.417 3.22707 1.59336 0
M  V30 6697 C 629.025 4.42859 0.676719 0
M  V30 6698 C 630.769 3.57242 2.293 0
M  V30 6699 C 628.676 5.74501 1.40367 0
M  V30 6700 H 627.606 0.679057 0.327715 0
M  V30 6701 H 630.257 1.83105 0.120351 0
M  V30 6702 H 628.639 3.16054 2.38591 0
M  V30 6703 H 629.813 4.60731 -0.0800196 0
M  V30 6704 H 628.128 4.16311 0.0859129 0
M  V30 6705 H 630.725 4.52847 2.84312 0
M  V30 6706 H 631.068 2.82901 3.05406 0
M  V30 6707 H 631.601 3.6552 1.56972 0
M  V30 6708 H 628.34 6.51915 0.684623 0
M  V30 6709 H 627.86 5.60579 2.13332 0
M  V30 6710 H 629.539 6.17016 1.94681 0
M  V30 6711 N 629.671 -0.424282 1.51781 0
M  V30 6712 C 630.618 -1.51591 1.74037 0
M  V30 6713 C 631.588 -1.55556 0.582358 0
M  V30 6714 O 632.773 -1.72364 0.818245 0
M  V30 6715 C 629.913 -2.89188 1.8832 0
M  V30 6716 C 629.026 -2.9465 3.1592 0
M  V30 6717 C 628.161 -4.23452 3.20721 0
M  V30 6718 C 627.2 -4.22831 4.42584 0
M  V30 6719 N 626.337 -5.43178 4.44862 0
M  V30 6720 H 631.177 -1.31917 2.67212 0
M  V30 6721 H 628.714 -0.640599 1.32419 0
M  V30 6722 H 630.672 -3.69044 1.94583 0
M  V30 6723 H 629.302 -3.07392 0.985402 0
M  V30 6724 H 628.354 -2.07378 3.18902 0
M  V30 6725 H 629.666 -2.90055 4.05795 0
M  V30 6726 H 628.82 -5.1169 3.25973 0
M  V30 6727 H 627.559 -4.30722 2.28757 0
M  V30 6728 H 626.564 -3.32984 4.37495 0
M  V30 6729 H 627.789 -4.17213 5.35826 0
M  V30 6730 H 625.735 -5.51145 3.55775 0
M  V30 6731 H 625.652 -5.40515 5.28563 0
M  V30 6732 H 626.92 -6.33412 4.54324 0
M  V30 6733 N 631.149 -1.42148 -0.680565 0
M  V30 6734 C 632.396 -1.4231 -1.44063 0
M  V30 6735 C 632.724 -0.037488 -1.94464 0
M  V30 6736 O 631.979 0.953184 -1.70918 0
M  V30 6737 C 632.278 -2.38945 -2.65782 0
M  V30 6738 C 631.944 -3.85455 -2.33956 0
M  V30 6739 C 630.606 -4.25364 -2.24987 0
M  V30 6740 C 632.958 -4.77895 -2.08004 0
M  V30 6741 C 630.286 -5.55701 -1.88184 0
M  V30 6742 C 632.638 -6.08568 -1.72706 0
M  V30 6743 C 631.302 -6.47482 -1.62244 0
M  V30 6744 H 630.572 -0.520748 -0.527164 0
M  V30 6745 H 633.219 -1.7505 -0.776524 0
M  V30 6746 H 631.524 -1.99511 -3.37198 0
M  V30 6747 H 633.221 -2.36336 -3.23954 0
M  V30 6748 H 629.811 -3.53855 -2.41836 0
M  V30 6749 H 633.995 -4.47854 -2.1387 0
M  V30 6750 H 629.251 -5.84718 -1.78648 0
M  V30 6751 H 633.425 -6.79688 -1.5165 0
M  V30 6752 H 631.052 -7.48387 -1.33496 0
M  V30 6753 N 632.627 0.916307 -1.28225 0
M  V30 6754 C 633.855 1.69901 -1.18073 0
M  V30 6755 C 634.27 1.86988 0.260968 0
M  V30 6756 O 633.627 1.39505 1.17663 0
M  V30 6757 C 633.678 3.09254 -1.87201 0
M  V30 6758 O 633.399 2.92959 -3.2574 0
M  V30 6759 C 634.9 4.0362 -1.83319 0
M  V30 6760 H 632.12 0.531181 -0.409985 0
M  V30 6761 H 634.664 1.14703 -1.69303 0
M  V30 6762 H 632.819 3.61277 -1.39848 0
M  V30 6763 H 633.233 3.81139 -3.60324 0
M  V30 6764 H 634.707 4.98873 -2.36282 0
M  V30 6765 H 635.184 4.3176 -0.805007 0
M  V30 6766 H 635.79 3.57524 -2.3034 0
M  V30 6767 N 634.105 1.10431 1.1244 0
M  V30 6768 C 635.037 0.710945 2.17895 0
M  V30 6769 C 636.05 -0.252315 1.60833 0
M  V30 6770 O 637.239 -0.03679 1.78462 0
M  V30 6771 C 634.339 0.0284262 3.38888 0
M  V30 6772 C 633.512 1.01585 4.2544 0
M  V30 6773 C 632.571 0.364826 5.24934 0
M  V30 6774 O 631.597 1.01561 5.60066 0
M  V30 6775 N 632.799 -0.87674 5.73841 0
M  V30 6776 H 635.564 1.61826 2.52255 0
M  V30 6777 H 633.125 0.993132 1.27861 0
M  V30 6778 H 635.117 -0.418568 4.0253 0
M  V30 6779 H 633.687 -0.781294 3.02679 0
M  V30 6780 H 632.907 1.64111 3.58415 0
M  V30 6781 H 634.195 1.68425 4.80115 0
M  V30 6782 H 633.593 -1.42483 5.47462 0
M  V30 6783 H 632.15 -1.26688 6.39369 0
M  V30 6784 N 635.583 -1.29855 0.893053 0
M  V30 6785 C 636.83 -1.95826 0.515585 0
M  V30 6786 C 637.158 -1.70451 -0.936842 0
M  V30 6787 O 636.413 -1.00657 -1.67829 0
M  V30 6788 C 636.712 -3.49515 0.746588 0
M  V30 6789 C 636.378 -3.94955 2.17535 0
M  V30 6790 C 635.04 -4.07073 2.56603 0
M  V30 6791 C 637.392 -4.18536 3.10607 0
M  V30 6792 C 634.72 -4.40138 3.87938 0
M  V30 6793 C 637.072 -4.53073 4.41484 0
M  V30 6794 C 635.736 -4.634 4.80434 0
M  V30 6795 H 635.006 -0.71658 0.188666 0
M  V30 6796 H 637.653 -1.54574 1.13045 0
M  V30 6797 H 635.958 -3.9177 0.0487551 0
M  V30 6798 H 637.655 -3.98644 0.434009 0
M  V30 6799 H 634.245 -3.86035 1.86212 0
M  V30 6800 H 638.429 -4.08646 2.81641 0
M  V30 6801 H 633.685 -4.46335 4.17846 0
M  V30 6802 H 637.859 -4.70269 5.13634 0
M  V30 6803 H 635.486 -4.88775 5.82239 0
M  V30 6804 N 637.061 -0.65484 -1.43351 0
M  V30 6805 C 637.993 0.0744757 -2.29079 0
M  V30 6806 C 639.006 0.7855 -1.42596 0
M  V30 6807 O 640.195 0.642986 -1.66517 0
M  V30 6808 C 637.295 1.12859 -3.19556 0
M  V30 6809 C 636.468 0.495381 -4.34586 0
M  V30 6810 C 635.527 1.44659 -5.05925 0
M  V30 6811 O 634.553 0.954567 -5.61139 0
M  V30 6812 N 635.755 2.78051 -5.09576 0
M  V30 6813 H 638.52 -0.661346 -2.92312 0
M  V30 6814 H 636.081 -0.497744 -1.54059 0
M  V30 6815 H 638.073 1.76577 -3.64147 0
M  V30 6816 H 636.643 1.76636 -2.57912 0
M  V30 6817 H 635.863 -0.32092 -3.92892 0
M  V30 6818 H 637.151 0.0534203 -5.08772 0
M  V30 6819 H 636.549 3.20584 -4.66093 0
M  V30 6820 H 635.106 3.37068 -5.57878 0
M  V30 6821 N 638.539 1.52521 -0.396863 0
M  V30 6822 C 639.816 1.94112 0.240842 0
M  V30 6823 C 640.196 1.33288 1.637 0
M  V30 6824 O 639.544 0.503901 2.22875 0
M  V30 6825 C 639.754 3.48033 0.259567 0
M  V30 6826 C 641.102 4.21822 0.484866 0
M  V30 6827 O 642.126 3.54579 0.339453 0
M  V30 6828 O 640.985 5.41042 0.770412 0
M  V30 6829 H 638.079 0.812973 0.151671 0
M  V30 6830 H 640.625 1.63572 -0.451918 0
M  V30 6831 H 639.397 3.84655 -0.718078 0
M  V30 6832 H 639.02 3.84899 0.996937 0
M  V30 6833 N 640.017 0.126909 1.57088 0
M  V30 6834 C 641.242 -0.53997 2.00248 0
M  V30 6835 C 641.667 -1.58927 1.00618 0
M  V30 6836 O 641.025 -1.81288 -0.0210131 0
M  V30 6837 C 641.073 -1.13565 3.4225 0
M  V30 6838 O 640.177 -2.25103 3.45547 0
M  V30 6839 H 639.518 -0.13412 0.650314 0
M  V30 6840 H 642.048 0.217718 2.03438 0
M  V30 6841 H 642.058 -1.46925 3.80627 0
M  V30 6842 H 640.733 -0.367122 4.14277 0
M  V30 6843 H 639.31 -1.93123 3.18995 0
M  V30 6844 N 641.495 -1.56914 -0.146875 0
M  V30 6845 C 642.911 -1.51582 -0.499518 0
M  V30 6846 C 643.111 -0.83535 -1.83369 0
M  V30 6847 O 642.167 -0.405932 -2.49216 0
M  V30 6848 C 643.48 -2.96349 -0.509711 0
M  V30 6849 C 645.028 -3.07288 -0.595217 0
M  V30 6850 C 645.503 -4.53562 -0.636071 0
M  V30 6851 N 646.994 -4.57906 -0.69829 0
M  V30 6852 C 647.729 -5.68462 -0.750886 0
M  V30 6853 N 647.225 -6.88588 -0.76282 0
M  V30 6854 N 649.018 -5.56496 -0.791777 0
M  V30 6855 H 641.169 -1.99547 0.727656 0
M  V30 6856 H 643.432 -0.910113 0.265327 0
M  V30 6857 H 643.138 -3.4939 0.402409 0
M  V30 6858 H 643.012 -3.52307 -1.34758 0
M  V30 6859 H 645.399 -2.54266 -1.49776 0
M  V30 6860 H 645.48 -2.54373 0.2698 0
M  V30 6861 H 645.124 -5.07222 0.262313 0
M  V30 6862 H 645.054 -5.04259 -1.51758 0
M  V30 6863 H 647.545 -3.71429 -0.696362 0
M  V30 6864 H 647.858 -7.68598 -0.804804 0
M  V30 6865 H 646.203 -6.91148 -0.730694 0
M  V30 6866 H 649.394 -4.61562 -0.779624 0
M  V30 6867 H 649.567 -6.42671 -0.829301 0
M  V30 6868 N 642.974 0.416227 -1.52004 0
M  V30 6869 C 643.884 1.53147 -1.77717 0
M  V30 6870 C 644.9 1.609 -0.662368 0
M  V30 6871 O 646.076 1.77747 -0.946991 0
M  V30 6872 C 643.141 2.88948 -1.91598 0
M  V30 6873 C 642.202 2.9114 -3.15493 0
M  V30 6874 C 641.435 4.20464 -3.28703 0
M  V30 6875 O 641.658 5.13981 -2.47345 0
M  V30 6876 O 640.592 4.29368 -4.21813 0
M  V30 6877 H 644.418 1.34357 -2.72363 0
M  V30 6878 H 642.003 0.601373 -1.36762 0
M  V30 6879 H 643.885 3.69505 -2.02593 0
M  V30 6880 H 642.56 3.07821 -1.00141 0
M  V30 6881 H 641.467 2.09461 -3.09962 0
M  V30 6882 H 642.8 2.77216 -4.06709 0
M  V30 6883 N 644.452 1.42507 0.673017 0
M  V30 6884 C 645.698 1.43284 1.43519 0
M  V30 6885 C 646.031 0.049668 1.94136 0
M  V30 6886 O 645.306 -0.926369 1.71022 0
M  V30 6887 C 645.589 2.45874 2.63093 0
M  V30 6888 C 645.442 3.93388 2.18096 0
M  V30 6889 C 646.761 2.45431 3.6531 0
M  V30 6890 H 643.88 0.521752 0.520522 0
M  V30 6891 H 646.522 1.73932 0.764701 0
M  V30 6892 H 644.672 2.19869 3.20296 0
M  V30 6893 H 646.344 4.30379 1.66046 0
M  V30 6894 H 644.587 4.07169 1.49652 0
M  V30 6895 H 645.258 4.60752 3.03993 0
M  V30 6896 H 647.734 2.68561 3.17827 0
M  V30 6897 H 646.61 3.19189 4.46553 0
M  V30 6898 H 646.871 1.48092 4.16559 0
M  V30 6899 N 645.93 -0.909495 1.28709 0
M  V30 6900 C 646.877 -2.01245 1.13 0
M  V30 6901 C 647.847 -1.6608 0.0259684 0
M  V30 6902 O 649.032 -1.89835 0.191687 0
M  V30 6903 C 646.172 -3.35644 0.802315 0
M  V30 6904 C 645.285 -3.83653 1.98582 0
M  V30 6905 C 644.42 -5.06582 1.59837 0
M  V30 6906 C 643.459 -5.46934 2.74827 0
M  V30 6907 N 642.596 -6.61053 2.36546 0
M  V30 6908 H 647.436 -2.14013 2.0737 0
M  V30 6909 H 644.973 -1.0482 1.03205 0
M  V30 6910 H 646.931 -4.12963 0.593057 0
M  V30 6911 H 645.561 -3.22631 -0.104457 0
M  V30 6912 H 644.613 -3.02454 2.30708 0
M  V30 6913 H 645.925 -4.09515 2.84779 0
M  V30 6914 H 645.079 -5.91457 1.35143 0
M  V30 6915 H 643.818 -4.82537 0.707753 0
M  V30 6916 H 642.823 -4.60599 3.00215 0
M  V30 6917 H 644.048 -5.72965 3.64538 0
M  V30 6918 H 641.994 -6.3863 1.49959 0
M  V30 6919 H 641.911 -6.86662 3.16277 0
M  V30 6920 H 643.179 -7.49221 2.15146 0
M  V30 6921 N 647.408 -1.11026 -1.11852 0
M  V30 6922 C 648.654 -0.857729 -1.83768 0
M  V30 6923 C 648.987 0.615143 -1.842 0
M  V30 6924 O 648.262 1.45391 -1.29196 0
M  V30 6925 C 648.545 -1.41453 -3.31154 0
M  V30 6926 C 648.398 -2.95471 -3.39142 0
M  V30 6927 C 649.717 -1.0619 -4.27097 0
M  V30 6928 H 646.836 -0.313044 -0.667212 0
M  V30 6929 H 649.478 -1.37443 -1.31185 0
M  V30 6930 H 647.628 -0.975052 -3.76065 0
M  V30 6931 H 649.3 -3.4799 -3.02821 0
M  V30 6932 H 647.543 -3.31759 -2.79497 0
M  V30 6933 H 648.214 -3.29515 -4.42859 0
M  V30 6934 H 650.69 -1.44122 -3.90344 0
M  V30 6935 H 649.566 -1.47832 -5.28618 0
M  V30 6936 H 649.827 0.0278912 -4.42091 0
M  V30 6937 N 648.886 1.2938 -0.899927 0
M  V30 6938 C 650.134 1.95164 -0.524924 0
M  V30 6939 C 650.455 1.71292 0.931888 0
M  V30 6940 O 649.725 1.04481 1.65712 0
M  V30 6941 H 648.305 0.722133 -0.191135 0
M  V30 6942 H 650.967 1.57628 -1.14627 0
M  V30 6943 H 650.063 3.0397 -0.707711 0
M  V30 6944 N 650.364 0.662433 1.43002 0
M  V30 6945 C 651.274 -0.0239199 2.34588 0
M  V30 6946 C 652.29 -0.802255 1.54402 0
M  V30 6947 O 653.466 -0.747401 1.87018 0
M  V30 6948 C 650.531 -0.972098 3.32793 0
M  V30 6949 C 649.592 -0.189673 4.28881 0
M  V30 6950 C 648.825 -1.09269 5.22395 0
M  V30 6951 O 649.048 -2.33209 5.20547 0
M  V30 6952 O 647.982 -0.560136 5.99288 0
M  V30 6953 H 651.808 0.730171 2.94792 0
M  V30 6954 H 649.393 0.422635 1.43297 0
M  V30 6955 H 651.275 -1.51676 3.93157 0
M  V30 6956 H 649.95 -1.70626 2.75079 0
M  V30 6957 H 648.857 0.398794 3.71968 0
M  V30 6958 H 650.19 0.50511 4.89601 0
M  V30 6959 N 651.842 -1.52309 0.404946 0
M  V30 6960 C 653.072 -2.05886 -0.171569 0
M  V30 6961 C 653.48 -1.27527 -1.39762 0
M  V30 6962 O 652.823 -0.319215 -1.80905 0
M  V30 6963 C 652.885 -3.54609 -0.590983 0
M  V30 6964 C 652.549 -4.53989 0.523757 0
M  V30 6965 C 653.546 -5.01084 1.38604 0
M  V30 6966 C 651.231 -4.97465 0.695255 0
M  V30 6967 C 653.225 -5.90295 2.4048 0
M  V30 6968 C 650.912 -5.86473 1.71733 0
M  V30 6969 C 651.91 -6.32782 2.57051 0
M  V30 6970 O 651.598 -7.20029 3.57509 0
M  V30 6971 H 651.33 -0.675508 -0.0257763 0
M  V30 6972 H 653.884 -1.97238 0.573278 0
M  V30 6973 H 652.114 -3.60929 -1.38805 0
M  V30 6974 H 653.803 -3.90853 -1.09494 0
M  V30 6975 H 654.569 -4.68214 1.26492 0
M  V30 6976 H 650.448 -4.60982 0.0408447 0
M  V30 6977 H 653.992 -6.26363 3.07108 0
M  V30 6978 H 649.889 -6.18756 1.83877 0
M  V30 6979 H 650.657 -7.3813 3.53703 0
M  V30 6980 N 653.32 -0.135238 -1.57019 0
M  V30 6981 C 654.268 0.826099 -2.17436 0
M  V30 6982 C 655.262 1.26378 -1.12805 0
M  V30 6983 O 656.468 1.23363 -1.31079 0
M  V30 6984 H 652.843 0.284568 -0.696078 0
M  V30 6985 H 654.814 0.292212 -2.96966 0
M  V30 6986 C 653.563 2.05991 -2.80112 0
M  V30 6987 H 652.886 1.73209 -3.60331 0
M  V30 6988 H 654.326 2.71225 -3.25903 0
M  V30 6989 C 652.785 2.86027 -1.78017 0
M  V30 6990 O 653.315 3.81971 -1.24344 0
M  V30 6991 N 651.521 2.50332 -1.47588 0
M  V30 6992 H 651.068 1.72377 -1.91426 0
M  V30 6993 H 651.026 3.04177 -0.795228 0
M  V30 6994 N 654.798 1.5699 0.138552 0
M  V30 6995 C 655.761 1.97984 1.15478 0
M  V30 6996 C 656.761 0.867416 1.35398 0
M  V30 6997 O 657.951 1.13387 1.32246 0
M  V30 6998 C 655.083 2.3031 2.51337 0
M  V30 6999 H 656.276 2.88953 0.802896 0
M  V30 7000 H 653.829 1.51555 0.382189 0
M  V30 7001 H 654.564 1.42159 2.91481 0
M  V30 7002 H 654.349 3.11425 2.38237 0
M  V30 7003 H 655.839 2.62834 3.24512 0
M  V30 7004 N 656.276 -0.40816 1.52223 0
M  V30 7005 C 657.522 -1.15673 1.66576 0
M  V30 7006 C 657.855 -1.90141 0.394996 0
M  V30 7007 O 657.13 -1.84798 -0.606613 0
M  V30 7008 C 657.413 -2.15042 2.88841 0
M  V30 7009 C 657.266 -1.44465 4.25969 0
M  V30 7010 C 658.585 -3.15699 3.0663 0
M  V30 7011 H 655.704 -0.41916 0.606196 0
M  V30 7012 H 658.346 -0.442348 1.84779 0
M  V30 7013 H 656.496 -2.75964 2.73452 0
M  V30 7014 H 658.168 -0.866544 4.53088 0
M  V30 7015 H 656.411 -0.746612 4.27327 0
M  V30 7016 H 657.082 -2.16976 5.07568 0
M  V30 7017 H 659.558 -2.64854 3.20923 0
M  V30 7018 H 658.434 -3.82491 3.9369 0
M  V30 7019 H 658.695 -3.83481 2.19987 0
M  V30 7020 N 657.755 -1.42862 -0.66545 0
M  V30 7021 C 658.718 -1.46756 -1.76055 0
M  V30 7022 C 659.718 -0.353866 -1.56858 0
M  V30 7023 O 660.908 -0.615099 -1.62979 0
M  V30 7024 C 658.04 -1.30829 -3.14796 0
M  V30 7025 H 659.233 -2.44271 -1.73987 0
M  V30 7026 H 656.786 -1.29447 -0.875965 0
M  V30 7027 H 657.521 -0.342733 -3.22484 0
M  V30 7028 H 657.306 -2.11551 -3.30134 0
M  V30 7029 H 658.796 -1.36458 -3.94676 0
M  V30 7030 N 659.233 0.902656 -1.29189 0
M  V30 7031 C 660.51 1.63296 -1.07674 0
M  V30 7032 C 660.89 2.07649 0.380137 0
M  V30 7033 O 660.238 1.82997 1.36837 0
M  V30 7034 C 660.448 2.81603 -2.06158 0
M  V30 7035 C 661.796 3.52359 -2.36914 0
M  V30 7036 O 662.82 2.91767 -2.04329 0
M  V30 7037 O 661.679 4.61586 -2.92576 0
M  V30 7038 H 658.773 0.716889 -0.41231 0
M  V30 7039 H 661.319 0.950984 -1.4055 0
M  V30 7040 H 660.091 2.46004 -3.04299 0
M  V30 7041 H 659.714 3.57508 -1.73993 0
M  V30 7042 N 660.711 1.11618 1.11262 0
M  V30 7043 C 661.939 0.888739 1.8684 0
M  V30 7044 C 662.354 -0.561558 1.80255 0
M  V30 7045 O 661.711 -1.38782 1.18515 0
M  V30 7046 C 661.762 1.34422 3.35579 0
M  V30 7047 O 661.483 2.73766 3.42029 0
M  V30 7048 C 662.984 1.15246 4.28058 0
M  V30 7049 H 660.204 0.318152 0.590779 0
M  V30 7050 H 662.748 1.48398 1.40707 0
M  V30 7051 H 660.903 0.79239 3.7921 0
M  V30 7052 H 661.317 2.9355 4.34659 0
M  V30 7053 H 662.791 1.52015 5.30656 0
M  V30 7054 H 663.268 0.0922007 4.39103 0
M  V30 7055 H 663.874 1.69136 3.90222 0
M  V30 7056 N 662.189 -1.289 0.906776 0
M  V30 7057 C 663.119 -2.29932 0.406659 0
M  V30 7058 C 664.1 -1.6189 -0.522061 0
M  V30 7059 O 665.285 -1.8935 -0.431283 0
M  V30 7060 C 662.415 -3.45425 -0.360366 0
M  V30 7061 C 661.369 -4.25316 0.478574 0
M  V30 7062 C 660.695 -5.33076 -0.416373 0
M  V30 7063 C 661.995 -4.92739 1.7322 0
M  V30 7064 H 663.689 -2.72013 1.25097 0
M  V30 7065 H 661.235 -1.30768 0.602977 0
M  V30 7066 H 663.188 -4.15186 -0.721029 0
M  V30 7067 H 661.912 -3.02206 -1.23852 0
M  V30 7068 H 660.571 -3.57273 0.821662 0
M  V30 7069 H 660.219 -4.86101 -1.29287 0
M  V30 7070 H 659.919 -5.8743 0.141309 0
M  V30 7071 H 661.443 -6.05686 -0.773072 0
M  V30 7072 H 662.857 -5.54898 1.44086 0
M  V30 7073 H 661.254 -5.57057 2.23175 0
M  V30 7074 H 662.324 -4.17625 2.46408 0
M  V30 7075 N 663.667 -0.670007 -1.42649 0
M  V30 7076 C 664.577 0.0114788 -2.34597 0
M  V30 7077 C 665.593 0.794055 -1.54825 0
M  V30 7078 O 666.769 0.737472 -1.87412 0
M  V30 7079 C 663.834 0.954436 -3.33304 0
M  V30 7080 C 662.895 0.166925 -4.28975 0
M  V30 7081 C 662.128 1.06497 -5.22967 0
M  V30 7082 O 662.351 2.30446 -5.21777 0
M  V30 7083 O 661.285 0.528347 -5.99577 0
M  V30 7084 H 665.111 -0.745794 -2.944 0
M  V30 7085 H 662.696 -0.430228 -1.43071 0
M  V30 7086 H 664.578 1.49589 -3.93956 0
M  V30 7087 H 663.253 1.69164 -2.7598 0
M  V30 7088 H 662.16 -0.418515 -3.71752 0
M  V30 7089 H 663.493 -0.531067 -4.89327 0
M  V30 7090 N 665.145 1.52092 -0.413018 0
M  V30 7091 C 666.394 2.01041 0.16287 0
M  V30 7092 C 666.707 1.30288 1.45892 0
M  V30 7093 O 667.913 1.70075 2.11629 0
M  V30 7094 C 666.369 3.58283 0.340806 0
M  V30 7095 C 665.977 4.37955 -0.943377 0
M  V30 7096 C 667.721 4.15452 0.871774 0
M  V30 7097 C 665.628 5.86847 -0.732417 0
M  V30 7098 H 664.558 0.751224 0.0646414 0
M  V30 7099 H 667.209 1.75404 -0.539059 0
M  V30 7100 H 665.591 3.80266 1.10516 0
M  V30 7101 H 666.765 4.2773 -1.71418 0
M  V30 7102 H 665.08 3.92122 -1.40105 0
M  V30 7103 H 667.677 5.24375 1.0457 0
M  V30 7104 H 668.02 3.73057 1.84755 0
M  V30 7105 H 668.553 3.97452 0.166377 0
M  V30 7106 H 665.292 6.33609 -1.67986 0
M  V30 7107 H 664.812 5.998 -0.000980058 0
M  V30 7108 H 666.491 6.45906 -0.376105 0
M  V30 7109 N 666.623 0.143563 1.56945 0
M  V30 7110 C 667.872 -0.50835 1.95189 0
M  V30 7111 C 668.185 -1.66239 1.03073 0
M  V30 7112 O 669.391 -2.3787 1.30882 0
M  V30 7113 C 667.847 -0.955735 3.46978 0
M  V30 7114 C 667.455 0.171183 4.47673 0
M  V30 7115 C 669.199 -1.57763 3.94095 0
M  V30 7116 C 667.106 -0.294279 5.90667 0
M  V30 7117 H 666.036 -0.193679 0.728701 0
M  V30 7118 H 668.687 0.227357 1.82086 0
M  V30 7119 H 667.069 -1.7466 3.55401 0
M  V30 7120 H 668.243 0.948049 4.50942 0
M  V30 7121 H 666.558 0.701273 4.10452 0
M  V30 7122 H 669.155 -1.93745 4.98364 0
M  V30 7123 H 669.498 -2.46531 3.35452 0
M  V30 7124 H 670.031 -0.851728 3.88575 0
M  V30 7125 H 666.77 0.557939 6.53121 0
M  V30 7126 H 666.29 -1.0371 5.90766 0
M  V30 7127 H 667.969 -0.747426 6.42668 0
M  V30 7128 N 668.101 -1.57061 -0.130224 0
M  V30 7129 C 669.049 -2.00486 -1.17933 0
M  V30 7130 C 670.043 -0.899933 -1.43519 0
M  V30 7131 O 671.249 -1.08514 -1.43613 0
M  V30 7132 H 667.624 -0.638441 -0.397363 0
M  V30 7133 H 669.595 -2.87848 -0.786501 0
M  V30 7134 C 668.344 -2.41565 -2.50084 0
M  V30 7135 H 667.667 -3.26148 -2.31231 0
M  V30 7136 H 669.107 -2.75757 -3.22078 0
M  V30 7137 C 667.566 -1.27485 -3.11848 0
M  V30 7138 O 668.096 -0.584688 -3.97422 0
M  V30 7139 N 666.302 -1.03478 -2.71552 0
M  V30 7140 H 665.849 -1.59779 -2.02061 0
M  V30 7141 H 665.807 -0.27341 -3.13209 0
M  V30 7142 N 669.579 0.400081 -1.52437 0
M  V30 7143 C 670.856 1.15973 -1.57511 0
M  V30 7144 C 671.236 2.0798 -0.361572 0
M  V30 7145 O 670.584 2.19032 0.650929 0
M  V30 7146 C 670.794 1.92912 -2.90837 0
M  V30 7147 C 672.142 2.48662 -3.44169 0
M  V30 7148 O 673.166 2.03081 -2.92637 0
M  V30 7149 O 672.025 3.31894 -4.34176 0
M  V30 7150 H 669.119 0.530023 -0.634827 0
M  V30 7151 H 671.665 0.40613 -1.64769 0
M  V30 7152 H 670.437 1.25564 -3.70607 0
M  V30 7153 H 670.06 2.75257 -2.86913 0
M  V30 7154 N 671.057 1.43213 0.657864 0
M  V30 7155 C 672.285 1.48015 1.44566 0
M  V30 7156 C 672.7 0.0965951 1.88553 0
M  V30 7157 O 672.057 -0.892221 1.59203 0
M  V30 7158 C 672.108 2.42199 2.68369 0
M  V30 7159 O 671.829 3.75173 2.26223 0
M  V30 7160 C 673.33 2.56195 3.61772 0
M  V30 7161 H 670.55 0.502861 0.444266 0
M  V30 7162 H 673.094 1.87907 0.806917 0
M  V30 7163 H 671.249 2.05514 3.28394 0
M  V30 7164 H 671.663 4.25776 3.06293 0
M  V30 7165 H 673.137 3.26182 4.4532 0
M  V30 7166 H 673.614 1.60534 4.0881 0
M  V30 7167 H 674.22 2.93671 3.07632 0
M  V30 7168 N 672.536 -0.895792 1.29666 0
M  V30 7169 C 673.785 -1.64131 1.17234 0
M  V30 7170 C 674.098 -1.93665 -0.274416 0
M  V30 7171 O 675.304 -2.66472 -0.520105 0
M  V30 7172 C 673.76 -2.95764 2.05065 0
M  V30 7173 C 673.368 -2.7381 3.54587 0
M  V30 7174 C 675.112 -3.737 2.01367 0
M  V30 7175 C 673.019 -4.01194 4.34508 0
M  V30 7176 H 671.949 -0.615742 0.435175 0
M  V30 7177 H 674.6 -0.992626 1.54335 0
M  V30 7178 H 672.982 -3.61867 1.60837 0
M  V30 7179 H 674.156 -2.16277 4.06892 0
M  V30 7180 H 672.471 -2.09265 3.59996 0
M  V30 7181 H 675.068 -4.68152 2.58337 0
M  V30 7182 H 675.411 -4.04245 0.994575 0
M  V30 7183 H 675.944 -3.14444 2.43659 0
M  V30 7184 H 672.683 -3.75813 5.37071 0
M  V30 7185 H 672.203 -4.58272 3.86971 0
M  V30 7186 H 673.882 -4.69307 4.45376 0
M  V30 7187 N 674.014 -1.12206 -1.10668 0
M  V30 7188 C 675.43 -0.857619 -1.346 0
M  V30 7189 C 675.63 0.513542 -1.94846 0
M  V30 7190 O 674.686 1.26273 -2.18658 0
M  V30 7191 C 675.999 -1.97212 -2.26998 0
M  V30 7192 C 677.547 -2.00272 -2.40542 0
M  V30 7193 C 678.022 -3.10948 -3.36267 0
M  V30 7194 N 679.513 -3.10375 -3.43834 0
M  V30 7195 C 680.248 -3.92651 -4.17867 0
M  V30 7196 N 679.744 -4.84911 -4.94807 0
M  V30 7197 N 681.537 -3.80798 -4.1346 0
M  V30 7198 H 673.688 -2.00558 -0.699306 0
M  V30 7199 H 675.951 -0.872612 -0.370477 0
M  V30 7200 H 675.657 -2.96002 -1.89936 0
M  V30 7201 H 675.531 -1.87521 -3.27286 0
M  V30 7202 H 677.918 -1.02103 -2.76874 0
M  V30 7203 H 677.999 -2.14037 -1.40077 0
M  V30 7204 H 677.643 -4.09348 -3.00661 0
M  V30 7205 H 677.573 -2.94421 -4.36605 0
M  V30 7206 H 680.064 -2.43536 -2.88961 0
M  V30 7207 H 680.377 -5.44207 -5.48688 0
M  V30 7208 H 678.722 -4.88926 -4.93939 0
M  V30 7209 H 681.913 -3.08058 -3.52445 0
M  V30 7210 H 682.086 -4.4515 -4.70898 0
M  V30 7211 N 675.492 1.28418 -0.913599 0
M  V30 7212 C 676.739 1.94981 -0.546674 0
M  V30 7213 C 677.067 1.7192 0.909606 0
M  V30 7214 O 676.322 1.03314 1.66207 0
M  V30 7215 C 676.621 3.48283 -0.802099 0
M  V30 7216 C 676.287 3.91444 -2.2379 0
M  V30 7217 C 674.949 4.02939 -2.63046 0
M  V30 7218 C 677.301 4.13542 -3.17227 0
M  V30 7219 C 674.629 4.3391 -3.94891 0
M  V30 7220 C 676.981 4.45992 -4.48636 0
M  V30 7221 C 675.645 4.55698 -4.87746 0
M  V30 7222 H 674.915 0.713487 -0.200042 0
M  V30 7223 H 677.562 1.52756 -1.15489 0
M  V30 7224 H 675.867 3.91643 -0.111076 0
M  V30 7225 H 677.564 3.97903 -0.497375 0
M  V30 7226 H 674.154 3.83024 -1.9233 0
M  V30 7227 H 678.338 4.04114 -2.88107 0
M  V30 7228 H 673.594 4.39631 -4.24894 0
M  V30 7229 H 677.768 4.62038 -5.21051 0
M  V30 7230 H 675.395 4.79451 -5.89942 0
M  V30 7231 N 676.97 0.677563 1.42291 0
M  V30 7232 C 677.902 -0.0380218 2.29168 0
M  V30 7233 C 678.915 -0.762714 1.43828 0
M  V30 7234 O 680.104 -0.616413 1.67519 0
M  V30 7235 C 677.204 -1.07761 3.21311 0
M  V30 7236 C 676.377 -0.42618 4.35319 0
M  V30 7237 C 675.436 -1.36592 5.08162 0
M  V30 7238 O 674.462 -0.865174 5.62586 0
M  V30 7239 N 675.664 -2.69909 5.13935 0
M  V30 7240 H 678.429 0.707766 2.91223 0
M  V30 7241 H 675.99 0.52219 1.53247 0
M  V30 7242 H 677.982 -1.70761 3.6691 0
M  V30 7243 H 676.552 -1.72511 2.60689 0
M  V30 7244 H 675.772 0.383385 3.92331 0
M  V30 7245 H 677.06 0.0275277 5.08793 0
M  V30 7246 H 676.458 -3.13129 4.71134 0
M  V30 7247 H 675.015 -3.2815 5.6317 0
M  V30 7248 N 678.448 -1.51871 0.421078 0
M  V30 7249 C 679.696 -2.01539 -0.150492 0
M  V30 7250 C 680.017 -1.30803 -1.44623 0
M  V30 7251 O 679.287 -0.437568 -1.90951 0
M  V30 7252 H 677.867 -0.744698 -0.0586041 0
M  V30 7253 H 680.529 -1.8668 0.560059 0
M  V30 7254 H 679.625 -3.10264 -0.338068 0
M  V30 7255 N 679.926 -0.151884 -1.56866 0
M  V30 7256 C 681.151 0.508044 -2.01081 0
M  V30 7257 C 681.576 1.57306 -1.03134 0
M  V30 7258 O 680.934 1.81298 -0.0078309 0
M  V30 7259 C 680.982 1.08106 -3.44014 0
M  V30 7260 O 680.086 2.19577 -3.49084 0
M  V30 7261 H 679.427 0.123757 -0.652365 0
M  V30 7262 H 681.957 -0.250055 -2.03066 0
M  V30 7263 H 681.967 1.40851 -3.82916 0
M  V30 7264 H 680.642 0.301168 -4.14808 0
M  V30 7265 H 679.219 1.88023 -3.22027 0
M  V30 7266 N 681.404 1.57128 0.121893 0
M  V30 7267 C 682.314 2.03425 1.16857 0
M  V30 7268 C 683.33 0.954108 1.45509 0
M  V30 7269 O 684.506 1.26541 1.56682 0
M  V30 7270 C 681.571 2.42685 2.47599 0
M  V30 7271 C 680.632 3.64767 2.2637 0
M  V30 7272 C 679.865 4.02145 3.50878 0
M  V30 7273 O 680.088 3.39897 4.58068 0
M  V30 7274 O 679.022 4.95262 3.42051 0
M  V30 7275 H 682.848 2.92825 0.80544 0
M  V30 7276 H 680.433 1.45654 0.332477 0
M  V30 7277 H 682.315 2.68684 3.24634 0
M  V30 7278 H 680.99 1.56432 2.83392 0
M  V30 7279 H 679.897 3.43922 1.47203 0
M  V30 7280 H 681.23 4.51716 1.95482 0
M  V30 7281 N 682.882 -0.391992 1.52647 0
M  V30 7282 C 684.293 -0.970064 1.5952 0
M  V30 7283 C 684.644 -1.91059 0.446207 0
M  V30 7284 O 683.769 -2.12062 -0.431125 0
M  V30 7285 C 684.364 -1.76614 2.89125 0
M  V30 7286 C 682.923 -2.29396 2.9842 0
M  V30 7287 C 682.07 -1.09864 2.54608 0
M  V30 7288 H 685.021 -0.171638 1.57769 0
M  V30 7289 H 685.042 -2.62511 2.75442 0
M  V30 7290 H 684.554 -1.08135 3.72731 0
M  V30 7291 H 682.655 -3.01196 2.19344 0
M  V30 7292 H 682.768 -2.59088 4.03002 0
M  V30 7293 H 681.132 -1.45777 2.08857 0
M  V30 7294 H 681.915 -0.429249 3.40606 0
M  V30 7295 N 684.36 -1.4356 -0.65026 0
M  V30 7296 C 685.771 -1.40324 -1.2315 0
M  V30 7297 C 686.122 -0.108812 -1.95898 0
M  V30 7298 O 685.247 0.79163 -2.01401 0
M  V30 7299 C 685.842 -2.54195 -2.23987 0
M  V30 7300 C 684.401 -2.54215 -2.77582 0
M  V30 7301 C 683.548 -2.31752 -1.5227 0
M  V30 7302 H 686.499 -1.52418 -0.442095 0
M  V30 7303 H 686.52 -2.25854 -3.0622 0
M  V30 7304 H 686.032 -3.48392 -1.71011 0
M  V30 7305 H 684.133 -1.63907 -3.34612 0
M  V30 7306 H 684.246 -3.52081 -3.24925 0
M  V30 7307 H 682.61 -1.80476 -1.79723 0
M  V30 7308 H 683.393 -3.28037 -1.01225 0
M  V30 7309 N 685.838 0.888903 -1.30139 0
M  V30 7310 C 686.785 1.99422 -1.16188 0
M  V30 7311 C 687.755 1.66017 -0.0523869 0
M  V30 7312 O 688.94 1.89506 -0.221864 0
M  V30 7313 C 686.08 3.34325 -0.855612 0
M  V30 7314 C 685.193 3.80445 -2.0466 0
M  V30 7315 C 684.328 5.03975 -1.67876 0
M  V30 7316 C 683.367 5.42492 -2.83493 0
M  V30 7317 N 682.504 6.57206 -2.47032 0
M  V30 7318 H 687.344 2.10687 -2.10749 0
M  V30 7319 H 684.881 1.03165 -1.04859 0
M  V30 7320 H 686.839 4.11968 -0.658681 0
M  V30 7321 H 685.469 3.22756 0.0531155 0
M  V30 7322 H 684.521 2.98745 -2.3549 0
M  V30 7323 H 685.833 4.04933 -2.91257 0
M  V30 7324 H 684.987 5.89232 -1.44535 0
M  V30 7325 H 683.726 4.8135 -0.784431 0
M  V30 7326 H 682.731 4.55764 -3.07505 0
M  V30 7327 H 683.956 5.67093 -3.73607 0
M  V30 7328 H 681.902 6.36164 -1.601 0
M  V30 7329 H 681.819 6.81543 -3.27161 0
M  V30 7330 H 683.087 7.45704 -2.27038 0
M  V30 7331 N 687.317 1.12792 1.10072 0
M  V30 7332 C 688.594 0.796867 1.78632 0
M  V30 7333 C 688.974 -0.712739 1.98704 0
M  V30 7334 O 688.322 -1.64773 1.5831 0
M  V30 7335 C 688.532 1.57622 3.11378 0
M  V30 7336 C 689.88 1.76463 3.86194 0
M  V30 7337 O 690.904 1.54165 3.2111 0
M  V30 7338 O 689.763 2.13623 5.03018 0
M  V30 7339 H 686.857 0.290248 0.774394 0
M  V30 7340 H 689.403 1.23215 1.16688 0
M  V30 7341 H 688.175 2.60246 2.92212 0
M  V30 7342 H 687.798 1.13543 3.81043 0
M  V30 7343 N 688.795 -1.27931 0.920396 0
M  V30 7344 C 689.742 -2.27085 0.412422 0
M  V30 7345 C 690.712 -1.57858 -0.516725 0
M  V30 7346 O 691.897 -1.85717 -0.437475 0
M  V30 7347 C 689.037 -3.43466 -0.335399 0
M  V30 7348 C 688.15 -4.27425 0.627017 0
M  V30 7349 C 687.285 -5.31016 -0.139916 0
M  V30 7350 C 686.324 -6.06641 0.815683 0
M  V30 7351 N 685.461 -7.02052 0.0818439 0
M  V30 7352 H 690.301 -2.69913 1.26298 0
M  V30 7353 H 687.838 -1.32732 0.634076 0
M  V30 7354 H 689.796 -4.09744 -0.785226 0
M  V30 7355 H 688.426 -3.01611 -1.15025 0
M  V30 7356 H 687.478 -3.6113 1.19537 0
M  V30 7357 H 688.79 -4.79969 1.35763 0
M  V30 7358 H 687.944 -6.03208 -0.649998 0
M  V30 7359 H 686.683 -4.79257 -0.903543 0
M  V30 7360 H 685.688 -5.33294 1.33708 0
M  V30 7361 H 686.913 -6.60489 1.57897 0
M  V30 7362 H 684.859 -6.52634 -0.663671 0
M  V30 7363 H 684.776 -7.52249 0.752163 0
M  V30 7364 H 686.044 -7.78432 -0.407825 0
M  V30 7365 N 690.273 -0.685099 -1.4193 0
M  V30 7366 C 691.501 -0.220372 -2.05723 0
M  V30 7367 C 691.916 1.12642 -1.51516 0
M  V30 7368 O 691.273 1.70182 -0.659114 0
M  V30 7369 C 691.324 -0.157974 -3.61155 0
M  V30 7370 O 691.045 -1.45156 -4.13354 0
M  V30 7371 C 692.546 0.329009 -4.42077 0
M  V30 7372 H 689.766 -0.104725 -0.662777 0
M  V30 7373 H 692.31 -0.934736 -1.81887 0
M  V30 7374 H 690.465 0.507144 -3.84066 0
M  V30 7375 H 690.879 -1.33172 -5.07312 0
M  V30 7376 H 692.353 0.321559 -5.51063 0
M  V30 7377 H 692.83 1.36608 -4.17414 0
M  V30 7378 H 693.436 -0.304737 -4.24207 0
M  V30 7379 N 691.751 1.51645 -0.429126 0
M  V30 7380 C 693 2.01203 0.141538 0
M  V30 7381 C 693.313 1.31828 1.44502 0
M  V30 7382 O 694.519 1.7231 2.09813 0
M  V30 7383 C 692.975 3.58624 0.302786 0
M  V30 7384 C 692.583 4.3693 -0.989775 0
M  V30 7385 C 694.327 4.16353 0.827661 0
M  V30 7386 C 692.234 5.86037 -0.794619 0
M  V30 7387 H 691.164 0.751867 0.05667 0
M  V30 7388 H 693.815 1.74822 -0.557633 0
M  V30 7389 H 692.197 3.81417 1.06476 0
M  V30 7390 H 693.371 4.25887 -1.75945 0
M  V30 7391 H 691.686 3.90614 -1.44256 0
M  V30 7392 H 694.283 5.25455 0.990026 0
M  V30 7393 H 694.626 3.74995 1.80787 0
M  V30 7394 H 695.159 3.97606 0.124213 0
M  V30 7395 H 691.898 6.31792 -1.74697 0
M  V30 7396 H 691.418 5.99765 -0.0645968 0
M  V30 7397 H 693.097 6.45471 -0.444591 0
M  V30 7398 N 693.229 0.160201 1.56784 0
M  V30 7399 C 694.478 -0.487619 1.95717 0
M  V30 7400 C 694.791 -1.65136 1.0483 0
M  V30 7401 O 695.997 -2.36468 1.33398 0
M  V30 7402 C 694.453 -0.91888 3.47972 0
M  V30 7403 C 694.061 0.218655 4.47466 0
M  V30 7404 C 695.805 -1.53575 3.95746 0
M  V30 7405 C 693.712 -0.231614 5.90946 0
M  V30 7406 H 692.642 -0.185939 0.730714 0
M  V30 7407 H 695.293 0.246657 1.81835 0
M  V30 7408 H 693.675 -1.70881 3.57234 0
M  V30 7409 H 694.849 0.995825 4.49911 0
M  V30 7410 H 693.164 0.744767 4.09685 0
M  V30 7411 H 695.761 -1.88448 5.00391 0
M  V30 7412 H 696.104 -2.42959 3.38048 0
M  V30 7413 H 696.637 -0.810467 3.89456 0
M  V30 7414 H 693.376 0.62718 6.52493 0
M  V30 7415 H 692.896 -0.974379 5.91833 0
M  V30 7416 H 694.575 -0.67922 6.43425 0
M  V30 7417 N 694.707 -1.5719 -0.113559 0
M  V30 7418 C 695.637 -2.03772 -1.14013 0
M  V30 7419 C 696.618 -0.923176 -1.42869 0
M  V30 7420 O 697.803 -1.19325 -1.53216 0
M  V30 7421 C 694.933 -2.44663 -2.4649 0
M  V30 7422 C 693.887 -3.59612 -2.32085 0
M  V30 7423 C 693.213 -3.8642 -3.69573 0
M  V30 7424 C 694.513 -4.91149 -1.7768 0
M  V30 7425 H 696.207 -2.89785 -0.752665 0
M  V30 7426 H 693.753 -1.39412 -0.360609 0
M  V30 7427 H 695.706 -2.75857 -3.18561 0
M  V30 7428 H 694.43 -1.55628 -2.87137 0
M  V30 7429 H 693.089 -3.28636 -1.62461 0
M  V30 7430 H 692.737 -2.94581 -4.07715 0
M  V30 7431 H 692.437 -4.63797 -3.60786 0
M  V30 7432 H 693.961 -4.2007 -4.4314 0
M  V30 7433 H 695.375 -5.20843 -2.39574 0
M  V30 7434 H 693.772 -5.72562 -1.79701 0
M  V30 7435 H 694.842 -4.79301 -0.734776 0
M  V30 7436 N 696.185 0.383891 -1.52853 0
M  V30 7437 C 697.095 1.49343 -1.80925 0
M  V30 7438 C 698.111 1.59458 -0.696348 0
M  V30 7439 O 699.287 1.75698 -0.984481 0
M  V30 7440 C 696.352 2.84819 -1.97684 0
M  V30 7441 C 695.413 2.84382 -3.21598 0
M  V30 7442 C 694.646 4.13397 -3.37548 0
M  V30 7443 O 694.869 5.08619 -2.58192 0
M  V30 7444 O 693.803 4.20325 -4.30826 0
M  V30 7445 H 697.629 1.2855 -2.75152 0
M  V30 7446 H 695.214 0.572229 -1.38007 0
M  V30 7447 H 697.096 3.65125 -2.10385 0
M  V30 7448 H 695.771 3.05627 -1.06647 0
M  V30 7449 H 694.678 2.0284 -3.14336 0
M  V30 7450 H 696.011 2.68526 -4.12498 0
M  V30 7451 N 697.663 1.43903 0.642637 0
M  V30 7452 C 698.595 1.45857 1.768 0
M  V30 7453 C 699.608 0.353358 1.58919 0
M  V30 7454 O 700.797 0.618426 1.67445 0
M  V30 7455 C 697.897 1.26583 3.14372 0
M  V30 7456 C 697.07 2.50139 3.58817 0
M  V30 7457 C 696.129 2.25933 4.75227 0
M  V30 7458 O 695.155 2.99351 4.84125 0
M  V30 7459 N 696.357 1.28263 5.66153 0
M  V30 7460 H 699.122 2.42869 1.75598 0
M  V30 7461 H 696.683 1.39194 0.826832 0
M  V30 7462 H 698.675 1.08255 3.89953 0
M  V30 7463 H 697.245 0.37978 3.10284 0
M  V30 7464 H 696.465 2.83821 2.73568 0
M  V30 7465 H 697.753 3.32344 3.8526 0
M  V30 7466 H 697.151 0.676041 5.61646 0
M  V30 7467 H 695.708 1.15916 6.4141 0
M  V30 7468 N 699.141 -0.881989 1.30609 0
M  V30 7469 C 700.071 -2.00413 1.1982 0
M  V30 7470 C 701.052 -1.69871 0.0881538 0
M  V30 7471 O 702.237 -1.92304 0.2707 0
M  V30 7472 C 699.367 -3.35641 0.89233 0
M  V30 7473 C 698.321 -3.80451 1.96064 0
M  V30 7474 C 697.647 -5.13003 1.5077 0
M  V30 7475 C 698.947 -3.98855 3.37213 0
M  V30 7476 H 700.641 -2.09698 2.13699 0
M  V30 7477 H 698.187 -1.00754 1.02882 0
M  V30 7478 H 700.14 -4.13669 0.803497 0
M  V30 7479 H 698.864 -3.26497 -0.0821381 0
M  V30 7480 H 697.523 -3.04654 2.03916 0
M  V30 7481 H 697.171 -5.0029 0.521417 0
M  V30 7482 H 696.871 -5.43956 2.22229 0
M  V30 7483 H 698.395 -5.93554 1.43271 0
M  V30 7484 H 699.809 -4.67312 3.32103 0
M  V30 7485 H 698.206 -4.41188 4.06784 0
M  V30 7486 H 699.276 -3.02614 3.78883 0
M  V30 7487 N 700.619 -1.13374 -1.09472 0
M  V30 7488 C 702.035 -0.871846 -1.33682 0
M  V30 7489 C 702.235 0.492847 -1.9538 0
M  V30 7490 O 701.291 1.23946 -2.19985 0
M  V30 7491 C 702.604 -1.99608 -2.24893 0
M  V30 7492 C 704.152 -2.02812 -2.38404 0
M  V30 7493 C 704.627 -3.14497 -3.3295 0
M  V30 7494 N 706.118 -3.14004 -3.40523 0
M  V30 7495 C 706.853 -3.97061 -4.13679 0
M  V30 7496 N 706.349 -4.90131 -4.89636 0
M  V30 7497 N 708.142 -3.85162 -4.09398 0
M  V30 7498 H 700.293 -2.01288 -0.677995 0
M  V30 7499 H 702.556 -0.876492 -0.361201 0
M  V30 7500 H 702.262 -2.98 -1.86786 0
M  V30 7501 H 702.136 -1.90981 -3.25278 0
M  V30 7502 H 704.523 -1.05034 -2.75775 0
M  V30 7503 H 704.604 -2.15511 -1.37799 0
M  V30 7504 H 704.248 -4.12514 -2.96302 0
M  V30 7505 H 704.178 -2.99035 -4.33458 0
M  V30 7506 H 706.669 -2.46587 -2.86362 0
M  V30 7507 H 706.982 -5.49996 -5.42885 0
M  V30 7508 H 705.327 -4.94138 -4.88726 0
M  V30 7509 H 708.518 -3.11779 -3.49158 0
M  V30 7510 H 708.691 -4.5012 -4.6615 0
M  V30 7511 N 702.098 1.27442 -0.927168 0
M  V30 7512 C 703.045 2.26863 -0.424459 0
M  V30 7513 C 704.015 1.5813 0.508346 0
M  V30 7514 O 705.2 1.85946 0.42762 0
M  V30 7515 C 702.34 3.43639 0.31718 0
M  V30 7516 C 701.453 4.27087 -0.649675 0
M  V30 7517 C 700.588 5.31082 0.111753 0
M  V30 7518 C 699.627 6.062 -0.847843 0
M  V30 7519 N 698.764 7.01999 -0.119074 0
M  V30 7520 H 703.604 2.69239 -1.27728 0
M  V30 7521 H 701.141 1.32394 -0.641106 0
M  V30 7522 H 703.099 4.10155 0.763486 0
M  V30 7523 H 701.729 3.02217 1.13424 0
M  V30 7524 H 700.781 3.60491 -1.21451 0
M  V30 7525 H 702.093 4.79242 -1.38307 0
M  V30 7526 H 701.247 6.03544 0.618 0
M  V30 7527 H 699.986 4.7973 0.878114 0
M  V30 7528 H 698.991 5.32577 -1.36534 0
M  V30 7529 H 700.216 6.59642 -1.61398 0
M  V30 7530 H 698.162 6.52977 0.629051 0
M  V30 7531 H 698.079 7.5184 -0.792046 0
M  V30 7532 H 699.347 7.78638 0.366537 0
M  V30 7533 N 703.576 0.692616 1.41565 0
M  V30 7534 C 704.825 0.219452 2.00503 0
M  V30 7535 C 705.138 -1.18683 1.55479 0
M  V30 7536 O 706.344 -1.75731 2.06956 0
M  V30 7537 C 704.8 0.341451 3.58277 0
M  V30 7538 C 704.408 1.75291 4.12283 0
M  V30 7539 C 706.152 -0.0720899 4.24439 0
M  V30 7540 C 704.059 1.82673 5.62481 0
M  V30 7541 H 702.989 0.0782874 0.749925 0
M  V30 7542 H 705.64 0.860386 1.62079 0
M  V30 7543 H 704.022 -0.367683 3.94289 0
M  V30 7544 H 705.196 2.49057 3.87695 0
M  V30 7545 H 703.511 2.11587 3.58636 0
M  V30 7546 H 706.108 -0.0373385 5.34687 0
M  V30 7547 H 706.451 -1.11034 4.0122 0
M  V30 7548 H 706.984 0.586663 3.9345 0
M  V30 7549 H 703.723 2.84539 5.90523 0
M  V30 7550 H 703.243 1.13288 5.89004 0
M  V30 7551 H 704.922 1.58827 6.27203 0
M  V30 7552 N 705.054 -1.51416 0.437162 0
M  V30 7553 C 706.279 -2.0699 -0.130424 0
M  V30 7554 C 706.704 -1.30249 -1.35709 0
M  V30 7555 O 706.062 -0.340388 -1.78076 0
M  V30 7556 C 706.11 -3.5801 -0.43142 0
M  V30 7557 O 705.214 -3.8345 -1.5179 0
M  V30 7558 H 704.555 -0.663997 -0.00194339 0
M  V30 7559 H 707.085 -1.95029 0.618445 0
M  V30 7560 H 707.095 -4.02261 -0.681926 0
M  V30 7561 H 705.77 -4.13291 0.465137 0
M  V30 7562 H 704.347 -3.51062 -1.25737 0
M  V30 7563 N 706.532 -0.168513 -1.56696 0
M  V30 7564 C 707.462 0.758563 -2.20835 0
M  V30 7565 C 708.443 1.24121 -1.1631 0
M  V30 7566 O 709.628 1.29487 -1.4473 0
M  V30 7567 C 706.758 1.9892 -2.8469 0
M  V30 7568 C 705.712 1.64252 -3.95228 0
M  V30 7569 C 705.038 2.94757 -4.46119 0
M  V30 7570 C 706.338 0.872675 -5.14958 0
M  V30 7571 H 708.032 0.223953 -2.98561 0
M  V30 7572 H 705.578 0.106277 -1.43607 0
M  V30 7573 H 707.531 2.64275 -3.28233 0
M  V30 7574 H 706.255 2.5479 -2.04327 0
M  V30 7575 H 704.914 1.01266 -3.52336 0
M  V30 7576 H 704.562 3.48662 -3.62552 0
M  V30 7577 H 704.262 2.72316 -5.2069 0
M  V30 7578 H 705.786 3.61147 -4.92347 0
M  V30 7579 H 707.2 1.42875 -5.55211 0
M  V30 7580 H 705.597 0.747402 -5.95428 0
M  V30 7581 H 706.667 -0.131535 -4.84722 0
M  V30 7582 N 708.01 1.57248 0.105221 0
M  V30 7583 C 709.421 1.74612 0.660865 0
M  V30 7584 C 709.772 0.789231 1.79626 0
M  V30 7585 O 708.897 -0.0346611 2.16372 0
M  V30 7586 C 709.492 3.16624 1.20559 0
M  V30 7587 C 708.051 3.35447 1.7074 0
M  V30 7588 C 707.198 2.70445 0.612764 0
M  V30 7589 H 710.149 1.5824 -0.12079 0
M  V30 7590 H 710.17 3.18937 2.07508 0
M  V30 7591 H 709.682 3.86245 0.379012 0
M  V30 7592 H 707.783 2.7089 2.5583 0
M  V30 7593 H 707.896 4.43702 1.80736 0
M  V30 7594 H 706.26 2.32061 1.04975 0
M  V30 7595 H 707.043 3.42699 -0.203066 0
M  V30 7596 N 709.488 -0.375779 1.53054 0
M  V30 7597 C 710.418 -1.46598 1.81745 0
M  V30 7598 C 711.399 -1.56337 0.670286 0
M  V30 7599 O 712.584 -1.71071 0.919158 0
M  V30 7600 C 709.714 -2.84058 1.99821 0
M  V30 7601 C 708.668 -2.8915 3.15557 0
M  V30 7602 C 707.994 -4.29187 3.18908 0
M  V30 7603 C 709.294 -2.57595 4.54359 0
M  V30 7604 H 710.988 -1.22837 2.73041 0
M  V30 7605 H 708.534 -0.589485 1.31381 0
M  V30 7606 H 710.487 -3.60342 2.18475 0
M  V30 7607 H 709.211 -3.09184 1.05226 0
M  V30 7608 H 707.87 -2.15316 2.96706 0
M  V30 7609 H 707.518 -4.51374 2.2197 0
M  V30 7610 H 707.218 -4.33512 3.96662 0
M  V30 7611 H 708.742 -5.07359 3.39734 0
M  V30 7612 H 710.156 -3.23595 4.73243 0
M  V30 7613 H 708.553 -2.73252 5.34279 0
M  V30 7614 H 709.623 -1.52882 4.60169 0
M  V30 7615 N 710.966 -1.44241 -0.634997 0
M  V30 7616 C 712.196 -1.50078 -1.41987 0
M  V30 7617 C 712.604 -0.123072 -1.88799 0
M  V30 7618 O 711.947 0.880552 -1.6122 0
M  V30 7619 C 712.009 -2.40033 -2.67628 0
M  V30 7620 C 711.673 -3.87268 -2.42637 0
M  V30 7621 C 712.67 -4.77902 -2.04708 0
M  V30 7622 C 710.355 -4.31933 -2.56396 0
M  V30 7623 C 712.349 -6.11202 -1.80862 0
M  V30 7624 C 710.036 -5.65281 -2.32164 0
M  V30 7625 C 711.034 -6.54734 -1.94455 0
M  V30 7626 O 710.722 -7.85613 -1.7049 0
M  V30 7627 H 710.454 -0.51146 -0.442023 0
M  V30 7628 H 713.008 -1.89843 -0.784138 0
M  V30 7629 H 711.238 -1.95188 -3.33824 0
M  V30 7630 H 712.927 -2.36863 -3.29622 0
M  V30 7631 H 713.693 -4.44668 -1.93638 0
M  V30 7632 H 709.572 -3.62569 -2.84719 0
M  V30 7633 H 713.116 -6.80983 -1.51353 0
M  V30 7634 H 709.013 -5.98078 -2.42843 0
M  V30 7635 H 709.781 -7.97373 -1.84767 0
M  V30 7636 N 712.444 0.87505 -1.31075 0
M  V30 7637 C 713.669 1.66583 -1.23551 0
M  V30 7638 C 714.094 1.87067 0.19686 0
M  V30 7639 O 713.452 1.40877 1.1412 0
M  V30 7640 C 713.5 3.01401 -1.97965 0
M  V30 7641 O 712.604 3.90923 -1.31351 0
M  V30 7642 H 711.945 0.508645 -0.426821 0
M  V30 7643 H 714.475 1.09139 -1.7306 0
M  V30 7644 H 714.485 3.51374 -2.07366 0
M  V30 7645 H 713.16 2.85812 -3.02133 0
M  V30 7646 H 711.737 3.49369 -1.30368 0
M  V30 7647 N 713.922 1.13953 1.08869 0
M  V30 7648 C 715.171 0.899431 1.80536 0
M  V30 7649 C 715.484 -0.575781 1.86933 0
M  V30 7650 O 716.69 -0.932988 2.54966 0
M  V30 7651 C 715.146 1.55963 3.24351 0
M  V30 7652 C 714.754 3.07077 3.26202 0
M  V30 7653 C 716.498 1.40046 4.00733 0
M  V30 7654 C 714.405 3.65955 4.64576 0
M  V30 7655 H 713.335 0.332849 0.676556 0
M  V30 7656 H 715.986 1.3679 1.22314 0
M  V30 7657 H 714.368 1.01883 3.82669 0
M  V30 7658 H 715.542 3.67785 2.77617 0
M  V30 7659 H 713.857 3.22576 2.63312 0
M  V30 7660 H 716.454 1.81441 5.02974 0
M  V30 7661 H 716.797 0.345993 4.1486 0
M  V30 7662 H 717.33 1.91137 3.48872 0
M  V30 7663 H 714.069 4.71234 4.55652 0
M  V30 7664 H 713.589 3.10027 5.13462 0
M  V30 7665 H 715.268 3.65968 5.33551 0
M  V30 7666 N 715.4 -1.26948 0.933913 0
M  V30 7667 C 716.33 -2.29017 0.45534 0
M  V30 7668 C 717.311 -1.62961 -0.487605 0
M  V30 7669 O 718.496 -1.90223 -0.391022 0
M  V30 7670 C 715.626 -3.46112 -0.287015 0
M  V30 7671 C 714.58 -4.24205 0.568682 0
M  V30 7672 C 713.906 -5.3384 -0.303206 0
M  V30 7673 C 715.206 -4.88954 1.83633 0
M  V30 7674 H 716.9 -2.69298 1.30839 0
M  V30 7675 H 714.446 -1.29459 0.630579 0
M  V30 7676 H 716.399 -4.16622 -0.6328 0
M  V30 7677 H 715.123 -3.04765 -1.17414 0
M  V30 7678 H 713.782 -3.5545 0.897261 0
M  V30 7679 H 713.43 -4.88734 -1.18947 0
M  V30 7680 H 713.13 -5.86998 0.265879 0
M  V30 7681 H 714.654 -6.0719 -0.644423 0
M  V30 7682 H 716.068 -5.51717 1.55823 0
M  V30 7683 H 714.465 -5.52198 2.34941 0
M  V30 7684 H 715.535 -4.12305 2.55211 0
M  V30 7685 N 716.879 -0.700114 -1.41195 0
M  V30 7686 C 718.104 -0.240704 -2.05998 0
M  V30 7687 C 718.529 1.10313 -1.52357 0
M  V30 7688 O 717.887 1.69154 -0.652424 0
M  V30 7689 C 717.935 -0.213783 -3.59966 0
M  V30 7690 O 717.039 0.809933 -4.04368 0
M  V30 7691 H 716.38 -0.116471 -0.653705 0
M  V30 7692 H 718.91 -0.956251 -1.80878 0
M  V30 7693 H 718.92 -0.0461852 -4.07974 0
M  V30 7694 H 717.595 -1.19454 -3.98376 0
M  V30 7695 H 716.172 0.611319 -3.67855 0
M  V30 7696 N 718.357 1.51182 -0.445186 0
M  V30 7697 C 719.32 2.26501 0.350722 0
M  V30 7698 C 720.32 1.3025 0.942952 0
M  V30 7699 O 721.51 1.53897 0.816175 0
M  V30 7700 C 718.642 3.06274 1.49697 0
M  V30 7701 H 719.835 2.98299 -0.309474 0
M  V30 7702 H 717.388 1.55034 -0.198551 0
M  V30 7703 H 718.123 2.38911 2.19299 0
M  V30 7704 H 717.908 3.76979 1.0784 0
M  V30 7705 H 719.398 3.63306 2.05909 0
M  V30 7706 N 719.835 0.176821 1.56605 0
M  V30 7707 C 720.765 -0.746841 2.21234 0
M  V30 7708 C 721.746 -1.23502 1.16967 0
M  V30 7709 O 722.931 -1.28718 1.45414 0
M  V30 7710 C 720.061 -1.97407 2.8574 0
M  V30 7711 C 719.015 -1.62153 3.96094 0
M  V30 7712 C 718.341 -2.92387 4.47676 0
M  V30 7713 C 719.641 -0.845353 5.15413 0
M  V30 7714 H 721.335 -0.208116 2.98676 0
M  V30 7715 H 718.881 -0.0986594 1.43662 0
M  V30 7716 H 720.834 -2.62531 3.2963 0
M  V30 7717 H 719.558 -2.53703 2.05676 0
M  V30 7718 H 718.217 -0.993964 3.52868 0
M  V30 7719 H 717.865 -3.46734 3.64396 0
M  V30 7720 H 717.565 -2.69551 5.22127 0
M  V30 7721 H 719.089 -3.5853 4.94255 0
M  V30 7722 H 720.503 -1.39929 5.55961 0
M  V30 7723 H 718.9 -0.715814 5.95815 0
M  V30 7724 H 719.97 0.157239 4.84645 0
M  V30 7725 N 721.313 -1.57302 -0.09688 0
M  V30 7726 C 722.541 -1.90202 -0.814295 0
M  V30 7727 C 722.956 -0.770344 -1.72369 0
M  V30 7728 O 722.313 0.257764 -1.8067 0
M  V30 7729 C 722.364 -3.22708 -1.62916 0
M  V30 7730 O 722.085 -4.31522 -0.756343 0
M  V30 7731 C 723.586 -3.69459 -2.44979 0
M  V30 7732 H 720.806 -0.629275 -0.232925 0
M  V30 7733 H 723.35 -2.04364 -0.0746482 0
M  V30 7734 H 721.505 -3.1015 -2.32133 0
M  V30 7735 H 721.919 -5.07604 -1.32054 0
M  V30 7736 H 723.393 -4.64875 -2.9765 0
M  V30 7737 H 723.87 -2.97211 -3.23361 0
M  V30 7738 H 724.476 -3.84879 -1.80964 0
M  V30 7739 N 722.791 0.367657 -1.53252 0
M  V30 7740 C 724.04 1.10782 -1.68554 0
M  V30 7741 C 724.353 1.90523 -0.442765 0
M  V30 7742 O 725.559 2.6729 -0.47629 0
M  V30 7743 C 724.015 2.01863 -2.97959 0
M  V30 7744 C 723.623 1.27443 -4.29491 0
M  V30 7745 C 725.367 2.75883 -3.22628 0
M  V30 7746 C 723.274 2.17414 -5.49987 0
M  V30 7747 H 722.204 0.417272 -0.628013 0
M  V30 7748 H 724.855 0.368971 -1.79752 0
M  V30 7749 H 723.237 2.7947 -2.80558 0
M  V30 7750 H 724.411 0.549138 -4.57516 0
M  V30 7751 H 722.726 0.652935 -4.11249 0
M  V30 7752 H 725.323 3.43421 -4.09837 0
M  V30 7753 H 725.666 3.41138 -2.38601 0
M  V30 7754 H 726.199 2.0536 -3.40693 0
M  V30 7755 H 722.938 1.5674 -6.36485 0
M  V30 7756 H 722.458 2.87799 -5.26243 0
M  V30 7757 H 724.137 2.77019 -5.84696 0
M  V30 7758 N 724.269 1.44576 0.627338 0
M  V30 7759 C 725.199 1.54562 1.75022 0
M  V30 7760 C 726.18 0.398378 1.65369 0
M  V30 7761 O 727.365 0.61899 1.84071 0
M  V30 7762 C 724.495 1.49309 3.13567 0
M  V30 7763 C 723.449 2.62549 3.38012 0
M  V30 7764 C 722.775 2.42348 4.76625 0
M  V30 7765 C 724.075 4.04678 3.30202 0
M  V30 7766 H 725.769 2.4855 1.66922 0
M  V30 7767 H 723.315 1.19624 0.801636 0
M  V30 7768 H 725.268 1.54895 3.919 0
M  V30 7769 H 723.992 0.518392 3.2246 0
M  V30 7770 H 722.651 2.56358 2.62061 0
M  V30 7771 H 722.299 1.43062 4.82226 0
M  V30 7772 H 721.999 3.18273 4.93939 0
M  V30 7773 H 723.523 2.49758 5.57183 0
M  V30 7774 H 724.937 4.12217 3.98435 0
M  V30 7775 H 723.334 4.80836 3.5905 0
M  V30 7776 H 724.404 4.2798 2.27949 0
M  V30 7777 N 725.747 -0.868086 1.31537 0
M  V30 7778 C 726.995 -1.61807 1.21091 0
M  V30 7779 C 727.316 -1.93631 -0.230623 0
M  V30 7780 O 726.586 -1.5846 -1.15183 0
M  V30 7781 H 725.166 -0.599854 0.445178 0
M  V30 7782 H 727.828 -1.03915 1.64887 0
M  V30 7783 H 726.924 -2.56088 1.78396 0
M  V30 7784 N 727.225 -1.14528 -1.08264 0
M  V30 7785 C 728.158 -0.777154 -2.14559 0
M  V30 7786 C 729.136 0.242165 -1.60787 0
M  V30 7787 O 730.32 0.130882 -1.88045 0
M  V30 7788 C 727.447 -0.154092 -3.38349 0
M  V30 7789 C 726.493 -1.14382 -4.10876 0
M  V30 7790 S 727.326 -2.68173 -4.63512 0
M  V30 7791 C 728.482 -2.0726 -5.90588 0
M  V30 7792 H 728.715 -1.67748 -2.45454 0
M  V30 7793 H 726.248 -0.966661 -1.20395 0
M  V30 7794 H 728.206 0.19897 -4.10018 0
M  V30 7795 H 726.867 0.723688 -3.05649 0
M  V30 7796 H 726.06 -0.655908 -4.99714 0
M  V30 7797 H 725.662 -1.44095 -3.45127 0
M  V30 7798 H 727.954 -1.42895 -6.62259 0
M  V30 7799 H 728.897 -2.94227 -6.44078 0
M  V30 7800 H 729.305 -1.51935 -5.43669 0
M  V30 7801 N 728.703 1.26451 -0.940633 0
M  V30 7802 C 729.952 1.93071 -0.583656 0
M  V30 7803 C 730.265 1.74618 0.881366 0
M  V30 7804 O 731.471 2.35689 1.34769 0
M  V30 7805 C 729.927 3.45927 -0.993106 0
M  V30 7806 C 729.535 3.73115 -2.4797 0
M  V30 7807 C 731.279 4.18554 -0.707998 0
M  V30 7808 C 729.186 5.19408 -2.82788 0
M  V30 7809 H 728.116 0.722824 -0.214572 0
M  V30 7810 H 730.767 1.43538 -1.1432 0
M  V30 7811 H 729.149 3.94341 -0.362099 0
M  V30 7812 H 730.323 3.35408 -3.15971 0
M  V30 7813 H 728.638 3.13719 -2.73805 0
M  V30 7814 H 731.235 5.26293 -0.94447 0
M  V30 7815 H 731.578 4.14782 0.355225 0
M  V30 7816 H 732.111 3.76003 -1.2987 0
M  V30 7817 H 728.85 5.28281 -3.88071 0
M  V30 7818 H 728.37 5.58214 -2.19449 0
M  V30 7819 H 730.049 5.87407 -2.71224 0
M  V30 7820 N 730.181 0.707592 1.40822 0
M  V30 7821 C 731.114 -0.000859377 2.282 0
M  V30 7822 C 732.092 -0.7758 1.42899 0
M  V30 7823 O 733.276 -0.76411 1.72318 0
M  V30 7824 C 730.403 -1.00861 3.23334 0
M  V30 7825 C 729.449 -0.32543 4.25257 0
M  V30 7826 S 730.282 0.940908 5.27169 0
M  V30 7827 C 731.438 -0.0649459 6.25866 0
M  V30 7828 H 731.671 0.740207 2.87938 0
M  V30 7829 H 729.204 0.498311 1.46138 0
M  V30 7830 H 731.162 -1.58485 3.78672 0
M  V30 7831 H 729.823 -1.72233 2.62668 0
M  V30 7832 H 729.016 -1.08697 4.92139 0
M  V30 7833 H 728.618 0.178044 3.73576 0
M  V30 7834 H 730.91 -0.914377 6.71301 0
M  V30 7835 H 731.853 0.570276 7.058 0
M  V30 7836 H 732.261 -0.425098 5.62897 0
M  V30 7837 N 731.66 -1.50943 0.453197 0
M  V30 7838 C 732.623 -2.26684 -0.338705 0
M  V30 7839 C 733.623 -1.30748 -0.936032 0
M  V30 7840 O 734.813 -1.54327 -0.808002 0
M  V30 7841 C 731.945 -3.07063 -1.48071 0
M  V30 7842 H 733.138 -2.98131 0.325289 0
M  V30 7843 H 730.691 -1.54926 0.206771 0
M  V30 7844 H 731.426 -2.4007 -2.18029 0
M  V30 7845 H 731.211 -3.77545 -1.0584 0
M  V30 7846 H 732.701 -3.64393 -2.0398 0
M  V30 7847 N 733.138 -0.185124 -1.56509 0
M  V30 7848 C 734.363 0.465278 -2.02114 0
M  V30 7849 C 734.788 1.55083 -1.06447 0
M  V30 7850 O 734.146 1.81241 -0.0462852 0
M  V30 7851 C 734.194 1.00784 -3.46229 0
M  V30 7852 O 733.298 2.12123 -3.53663 0
M  V30 7853 H 732.639 0.109891 -0.654843 0
M  V30 7854 H 735.169 -0.293072 -2.0249 0
M  V30 7855 H 735.179 1.32697 -3.85818 0
M  V30 7856 H 733.854 0.213113 -4.15354 0
M  V30 7857 H 732.431 1.8115 -3.25943 0
M  V30 7858 N 734.616 1.57351 0.0885366 0
M  V30 7859 C 735.579 2.01557 1.09121 0
M  V30 7860 C 736.579 0.910052 1.3257 0
M  V30 7861 O 737.769 1.17537 1.28572 0
M  V30 7862 C 734.901 2.38189 2.43883 0
M  V30 7863 H 736.094 2.91361 0.710562 0
M  V30 7864 H 733.647 1.52694 0.333779 0
M  V30 7865 H 734.382 1.5136 2.86811 0
M  V30 7866 H 734.167 3.18846 2.28209 0
M  V30 7867 H 735.657 2.73025 3.15986 0
M  V30 7868 N 736.094 -0.359525 1.53444 0
M  V30 7869 C 737.341 -1.10152 1.6992 0
M  V30 7870 C 737.669 -1.89125 0.4541 0
M  V30 7871 O 736.924 -1.87396 -0.564023 0
M  V30 7872 C 737.223 -2.08287 2.90433 0
M  V30 7873 C 736.889 -1.45749 4.26694 0
M  V30 7874 C 735.551 -1.28421 4.63747 0
M  V30 7875 C 737.903 -1.00557 5.11408 0
M  V30 7876 C 735.231 -0.644951 5.83144 0
M  V30 7877 C 737.583 -0.380288 6.31456 0
M  V30 7878 C 736.247 -0.194557 6.67216 0
M  V30 7879 H 735.517 -0.403076 0.621781 0
M  V30 7880 H 738.164 -0.382612 1.87639 0
M  V30 7881 H 736.469 -2.86503 2.67251 0
M  V30 7882 H 738.166 -2.65662 3.00374 0
M  V30 7883 H 734.756 -1.6023 3.97523 0
M  V30 7884 H 738.94 -1.12735 4.83326 0
M  V30 7885 H 734.196 -0.48952 6.09437 0
M  V30 7886 H 738.37 -0.0219455 6.96397 0
M  V30 7887 H 735.997 0.30285 7.59597 0
M  V30 7888 N 737.572 -1.44907 -0.619662 0
M  V30 7889 C 738.502 -1.55488 -1.742 0
M  V30 7890 C 739.483 -0.407143 -1.65156 0
M  V30 7891 O 740.668 -0.628743 -1.8374 0
M  V30 7892 C 737.798 -1.5097 -3.1277 0
M  V30 7893 C 736.752 -2.64337 -3.36615 0
M  V30 7894 C 736.078 -2.44872 -4.75333 0
M  V30 7895 C 737.378 -4.06423 -3.28051 0
M  V30 7896 H 739.072 -2.49432 -1.65602 0
M  V30 7897 H 736.618 -1.20047 -0.795281 0
M  V30 7898 H 738.571 -1.56971 -3.91073 0
M  V30 7899 H 737.295 -0.535486 -3.2218 0
M  V30 7900 H 735.954 -2.57744 -2.60698 0
M  V30 7901 H 735.602 -1.45617 -4.81461 0
M  V30 7902 H 735.302 -3.20888 -4.92244 0
M  V30 7903 H 736.826 -2.52709 -5.55851 0
M  V30 7904 H 738.24 -4.14324 -3.96243 0
M  V30 7905 H 736.637 -4.82733 -3.56495 0
M  V30 7906 H 737.707 -4.29183 -2.25676 0
M  V30 7907 N 739.05 0.861098 -1.31996 0
M  V30 7908 C 740.297 1.61481 -1.22188 0
M  V30 7909 C 740.625 1.93276 0.217853 0
M  V30 7910 O 739.88 1.56942 1.16909 0
M  V30 7911 C 740.179 2.94822 -2.02027 0
M  V30 7912 C 739.845 2.82483 -3.51446 0
M  V30 7913 C 738.507 2.78825 -3.92186 0
M  V30 7914 C 740.859 2.68878 -4.46491 0
M  V30 7915 C 738.187 2.59433 -5.26224 0
M  V30 7916 C 740.539 2.51022 -5.80664 0
M  V30 7917 C 739.203 2.45753 -6.20614 0
M  V30 7918 H 738.473 0.590902 -0.447119 0
M  V30 7919 H 741.12 0.999376 -1.63355 0
M  V30 7920 H 739.425 3.6045 -1.53569 0
M  V30 7921 H 741.122 3.52149 -1.91812 0
M  V30 7922 H 737.712 2.86152 -3.19085 0
M  V30 7923 H 741.896 2.70754 -4.1594 0
M  V30 7924 H 737.152 2.53784 -5.5624 0
M  V30 7925 H 741.326 2.39473 -6.53931 0
M  V30 7926 H 738.953 2.30485 -7.24417 0
M  V30 7927 N 740.528 1.15101 1.07655 0
M  V30 7928 C 741.775 0.923974 1.80191 0
M  V30 7929 C 742.103 -0.549065 1.86589 0
M  V30 7930 O 741.358 -1.42307 1.3434 0
M  V30 7931 C 741.657 1.47954 3.25337 0
M  V30 7932 C 741.323 2.97253 3.39044 0
M  V30 7933 C 739.985 3.38012 3.42493 0
M  V30 7934 C 742.337 3.93219 3.42094 0
M  V30 7935 C 739.665 4.73384 3.4659 0
M  V30 7936 C 742.017 5.28458 3.47728 0
M  V30 7937 C 740.681 5.68717 3.49453 0
M  V30 7938 H 739.951 0.338106 0.659367 0
M  V30 7939 H 742.598 1.43594 1.26701 0
M  V30 7940 H 740.903 0.888691 3.81588 0
M  V30 7941 H 742.6 1.27972 3.80032 0
M  V30 7942 H 739.19 2.64746 3.37057 0
M  V30 7943 H 743.374 3.62805 3.38654 0
M  V30 7944 H 738.63 5.03925 3.46222 0
M  V30 7945 H 742.804 6.02618 3.49034 0
M  V30 7946 H 740.431 6.73596 3.5238 0
M  V30 7947 N 742.006 -1.2595 0.947325 0
M  V30 7948 C 742.954 -2.28152 0.452687 0
M  V30 7949 C 743.948 -1.62655 -0.473239 0
M  V30 7950 O 745.154 -1.76549 -0.350774 0
M  V30 7951 H 741.529 -0.741049 0.12787 0
M  V30 7952 H 743.5 -2.67267 1.32707 0
M  V30 7953 C 742.249 -3.46719 -0.26098 0
M  V30 7954 H 741.572 -3.97345 0.442352 0
M  V30 7955 H 743.012 -4.20135 -0.571208 0
M  V30 7956 C 741.471 -3.02605 -1.48094 0
M  V30 7957 O 742.001 -3.07979 -2.57899 0
M  V30 7958 N 740.207 -2.57877 -1.33969 0
M  V30 7959 H 739.754 -2.53704 -0.446295 0
M  V30 7960 H 739.712 -2.28725 -2.15713 0
M  V30 7961 N 743.484 -0.715051 -1.40445 0
M  V30 7962 C 744.733 -0.251322 -2.00128 0
M  V30 7963 C 745.046 1.16194 -1.57347 0
M  V30 7964 O 746.252 1.72416 -2.09726 0
M  V30 7965 C 744.708 -0.398407 -3.57688 0
M  V30 7966 C 744.316 -1.81828 -4.09442 0
M  V30 7967 C 746.06 0.00455625 -4.245 0
M  V30 7968 C 743.967 -1.91598 -5.59503 0
M  V30 7969 H 742.897 -0.0902081 -0.748584 0
M  V30 7970 H 745.548 -0.886062 -1.6069 0
M  V30 7971 H 743.93 0.304908 -3.94824 0
M  V30 7972 H 745.104 -2.55193 -3.83684 0
M  V30 7973 H 743.419 -2.17266 -3.55225 0
M  V30 7974 H 746.016 -0.0477303 -5.34679 0
M  V30 7975 H 746.359 1.04636 -4.02935 0
M  V30 7976 H 746.892 -0.649184 -3.92467 0
M  V30 7977 H 743.631 -2.93898 -5.85922 0
M  V30 7978 H 743.151 -1.22644 -5.87127 0
M  V30 7979 H 744.83 -1.68785 -6.24596 0
M  V30 7980 N 744.962 1.50701 -0.461195 0
M  V30 7981 C 745.909 2.2831 0.338094 0
M  V30 7982 C 746.879 1.32928 0.995957 0
M  V30 7983 O 748.064 1.61857 1.0103 0
M  V30 7984 C 745.204 3.14539 1.41983 0
M  V30 7985 C 744.317 4.24942 0.77773 0
M  V30 7986 C 743.452 4.98443 1.83652 0
M  V30 7987 C 742.491 6.00733 1.17413 0
M  V30 7988 N 741.628 6.6755 2.17533 0
M  V30 7989 H 746.468 2.96167 -0.330051 0
M  V30 7990 H 744.005 1.4606 -0.174611 0
M  V30 7991 H 745.963 3.62877 2.05855 0
M  V30 7992 H 744.593 2.48749 2.05727 0
M  V30 7993 H 743.645 3.80391 0.0266924 0
M  V30 7994 H 744.957 4.98151 0.254362 0
M  V30 7995 H 744.111 5.50449 2.55129 0
M  V30 7996 H 742.85 4.24917 2.39367 0
M  V30 7997 H 741.855 5.47997 0.444944 0
M  V30 7998 H 743.08 6.76227 0.624006 0
M  V30 7999 H 741.026 5.96823 2.72284 0
M  V30 8000 H 740.943 7.36603 1.70154 0
M  V30 8001 H 742.211 7.24178 2.88421 0
M  V30 8002 N 746.441 0.193421 1.56409 0
M  V30 8003 C 747.389 -0.744829 2.20352 0
M  V30 8004 C 748.383 -1.22104 1.17418 0
M  V30 8005 O 749.589 -1.18413 1.35567 0
M  V30 8006 H 745.964 -0.258538 0.70616 0
M  V30 8007 H 747.935 -0.181794 2.97846 0
M  V30 8008 C 746.684 -1.95453 2.87565 0
M  V30 8009 H 746.007 -1.59716 3.66512 0
M  V30 8010 H 747.447 -2.58942 3.35745 0
M  V30 8011 C 745.906 -2.79223 1.8851 0
M  V30 8012 O 746.436 -3.77093 1.38434 0
M  V30 8013 N 744.642 -2.44682 1.56777 0
M  V30 8014 H 744.189 -1.65153 1.97692 0
M  V30 8015 H 744.147 -3.01016 0.907573 0
M  V30 8016 N 747.919 -1.57396 -0.0801906 0
M  V30 8017 C 749.335 -1.53564 -0.434778 0
M  V30 8018 C 749.535 -0.912372 -1.79661 0
M  V30 8019 O 748.591 -0.511268 -2.4727 0
M  V30 8020 C 749.904 -2.98244 -0.383561 0
M  V30 8021 C 751.452 -3.09536 -0.46435 0
M  V30 8022 C 751.927 -4.55851 -0.443128 0
M  V30 8023 N 753.418 -4.60456 -0.503448 0
M  V30 8024 C 754.153 -5.71135 -0.509106 0
M  V30 8025 N 753.649 -6.91203 -0.47008 0
M  V30 8026 N 755.442 -5.59353 -0.555035 0
M  V30 8027 H 747.593 -1.96281 0.811635 0
M  V30 8028 H 749.856 -0.898041 0.303689 0
M  V30 8029 H 749.562 -3.47369 0.550236 0
M  V30 8030 H 749.436 -3.57705 -1.19694 0
M  V30 8031 H 751.823 -2.6039 -1.38857 0
M  V30 8032 H 751.904 -2.53 0.377445 0
M  V30 8033 H 751.548 -5.05653 0.477207 0
M  V30 8034 H 751.478 -5.10242 -1.30234 0
M  V30 8035 H 753.969 -3.74048 -0.538199 0
M  V30 8036 H 754.282 -7.7132 -0.478091 0
M  V30 8037 H 752.627 -6.93625 -0.436897 0
M  V30 8038 H 755.818 -4.64453 -0.583158 0
M  V30 8039 H 755.991 -6.4561 -0.555976 0
M  V30 8040 N 749.397 0.351382 -1.53633 0
M  V30 8041 C 750.345 1.45142 -1.8176 0
M  V30 8042 C 751.339 1.54819 -0.687571 0
M  V30 8043 O 752.545 1.57536 -0.870772 0
M  V30 8044 H 748.92 0.483789 -0.575719 0
M  V30 8045 H 750.891 1.1863 -2.73806 0
M  V30 8046 C 749.64 2.81779 -2.03706 0
M  V30 8047 H 748.963 2.75097 -2.90107 0
M  V30 8048 H 750.403 3.5789 -2.27356 0
M  V30 8049 C 748.862 3.26762 -0.820271 0
M  V30 8050 O 749.392 4.01697 -0.0158603 0
M  V30 8051 N 747.598 2.83472 -0.639699 0
M  V30 8052 H 747.145 2.22655 -1.29547 0
M  V30 8053 H 747.103 3.13924 0.172995 0
M  V30 8054 N 750.875 1.45233 0.611969 0
M  V30 8055 C 751.807 1.49575 1.73666 0
M  V30 8056 C 752.82 0.386987 1.58134 0
M  V30 8057 O 754.009 0.653804 1.66095 0
M  V30 8058 C 751.109 1.33223 3.11617 0
M  V30 8059 C 750.282 2.57694 3.5343 0
M  V30 8060 C 749.341 2.35962 4.70328 0
M  V30 8061 O 748.367 3.09553 4.77667 0
M  V30 8062 N 749.569 1.40243 5.63305 0
M  V30 8063 H 752.334 2.46539 1.70407 0
M  V30 8064 H 749.895 1.40917 0.79712 0
M  V30 8065 H 751.887 1.16502 3.87569 0
M  V30 8066 H 750.457 0.44551 3.09409 0
M  V30 8067 H 749.677 2.8956 2.67486 0
M  V30 8068 H 750.965 3.40441 3.78124 0
M  V30 8069 H 750.363 0.795023 5.60086 0
M  V30 8070 H 748.92 1.29496 6.38807 0
M  V30 8071 N 752.353 -0.854086 1.3245 0
M  V30 8072 C 753.3 -1.96271 1.21434 0
M  V30 8073 C 754.27 -1.6582 0.0963851 0
M  V30 8074 O 755.455 -1.88851 0.27203 0
M  V30 8075 C 752.595 -3.31939 0.943952 0
M  V30 8076 C 751.708 -3.74885 2.14675 0
M  V30 8077 C 750.843 -4.99347 1.81179 0
M  V30 8078 C 749.882 -5.34785 2.97777 0
M  V30 8079 N 749.019 -6.50425 2.6437 0
M  V30 8080 H 753.859 -2.05025 2.16261 0
M  V30 8081 H 751.396 -1.00348 1.07558 0
M  V30 8082 H 753.354 -4.10076 0.767675 0
M  V30 8083 H 751.984 -3.22784 0.0324763 0
M  V30 8084 H 751.036 -2.92396 2.43328 0
M  V30 8085 H 752.348 -3.97068 3.01891 0
M  V30 8086 H 751.502 -5.85193 1.60107 0
M  V30 8087 H 750.241 -4.79101 0.911777 0
M  V30 8088 H 749.246 -4.47451 3.1948 0
M  V30 8089 H 750.471 -5.56988 3.88511 0
M  V30 8090 H 748.417 -6.31695 1.7691 0
M  V30 8091 H 748.334 -6.7263 3.45116 0
M  V30 8092 H 749.602 -7.39422 2.46729 0
M  V30 8093 N 753.831 -1.1567 -1.07043 0
M  V30 8094 C 754.761 -0.879348 -2.16309 0
M  V30 8095 C 755.742 0.171311 -1.69235 0
M  V30 8096 O 756.927 0.0250175 -1.94184 0
M  V30 8097 C 754.057 -0.371307 -3.45309 0
M  V30 8098 C 753.011 -1.359 -4.05851 0
M  V30 8099 C 752.337 -0.709678 -5.29969 0
M  V30 8100 C 753.637 -2.72606 -4.45514 0
M  V30 8101 H 755.331 -1.79308 -2.39768 0
M  V30 8102 H 752.877 -0.863558 -1.15233 0
M  V30 8103 H 754.83 -0.164798 -4.21078 0
M  V30 8104 H 753.554 0.577906 -3.21446 0
M  V30 8105 H 752.213 -1.55193 -3.32131 0
M  V30 8106 H 751.861 0.245782 -5.02399 0
M  V30 8107 H 751.561 -1.36886 -5.71433 0
M  V30 8108 H 753.085 -0.513015 -6.08441 0
M  V30 8109 H 754.499 -2.57141 -5.12398 0
M  V30 8110 H 752.896 -3.34927 -4.97939 0
M  V30 8111 H 753.966 -3.28434 -3.56734 0
M  V30 8112 N 755.309 1.25446 -0.953992 0
M  V30 8113 C 756.558 1.92441 -0.604101 0
M  V30 8114 C 756.871 1.75543 0.862796 0
M  V30 8115 O 758.077 2.37106 1.32262 0
M  V30 8116 C 756.533 3.44854 -1.02974 0
M  V30 8117 C 756.141 3.70464 -2.51914 0
M  V30 8118 C 757.885 4.1778 -0.752352 0
M  V30 8119 C 755.792 5.1638 -2.88281 0
M  V30 8120 H 754.722 0.720508 -0.222227 0
M  V30 8121 H 757.373 1.42318 -1.15836 0
M  V30 8122 H 755.755 3.93935 -0.403904 0
M  V30 8123 H 756.929 3.32038 -3.19511 0
M  V30 8124 H 755.244 3.10797 -2.77117 0
M  V30 8125 H 757.841 5.25261 -1.00024 0
M  V30 8126 H 758.184 4.15135 0.311212 0
M  V30 8127 H 758.717 3.74605 -1.33851 0
M  V30 8128 H 755.456 5.24135 -3.93653 0
M  V30 8129 H 754.976 5.55855 -2.25357 0
M  V30 8130 H 756.655 5.84497 -2.77439 0
M  V30 8131 N 756.787 0.722489 1.40064 0
M  V30 8132 C 757.734 0.0743738 2.3068 0
M  V30 8133 C 758.704 -0.743004 1.48555 0
M  V30 8134 O 759.889 -0.705536 1.77276 0
M  V30 8135 C 757.029 -0.836292 3.34814 0
M  V30 8136 C 756.142 -0.00764663 4.31999 0
M  V30 8137 C 755.277 -0.918428 5.232 0
M  V30 8138 C 754.316 -0.0842838 6.12042 0
M  V30 8139 N 753.453 -0.950316 6.95639 0
M  V30 8140 H 758.293 0.852794 2.85537 0
M  V30 8141 H 755.83 0.432222 1.40607 0
M  V30 8142 H 757.788 -1.3786 3.93765 0
M  V30 8143 H 756.418 -1.58082 2.81443 0
M  V30 8144 H 755.47 0.651928 3.74772 0
M  V30 8145 H 756.782 0.63786 4.94705 0
M  V30 8146 H 755.936 -1.52902 5.87116 0
M  V30 8147 H 754.675 -1.59774 4.60786 0
M  V30 8148 H 753.68 0.5392 5.4715 0
M  V30 8149 H 754.905 0.591628 6.76518 0
M  V30 8150 H 752.851 -1.61515 6.35806 0
M  V30 8151 H 752.768 -0.361004 7.55138 0
M  V30 8152 H 754.036 -1.54687 7.63997 0
M  V30 8153 N 758.265 -1.50454 0.469181 0
M  V30 8154 C 759.198 -2.25149 -0.371928 0
M  V30 8155 C 760.176 -1.28382 -0.997845 0
M  V30 8156 O 761.36 -1.57599 -1.03415 0
M  V30 8157 C 758.487 -3.02629 -1.52097 0
M  V30 8158 C 757.533 -4.14305 -1.01262 0
M  V30 8159 S 758.366 -5.35453 0.0711459 0
M  V30 8160 C 759.522 -6.1648 -1.08181 0
M  V30 8161 H 759.755 -2.96142 0.262134 0
M  V30 8162 H 757.288 -1.52296 0.254042 0
M  V30 8163 H 759.246 -3.47861 -2.17952 0
M  V30 8164 H 757.907 -2.31165 -2.12654 0
M  V30 8165 H 757.1 -4.67913 -1.87278 0
M  V30 8166 H 756.702 -3.71499 -0.431804 0
M  V30 8167 H 758.994 -6.47497 -1.99382 0
M  V30 8168 H 759.937 -7.05679 -0.585028 0
M  V30 8169 H 760.345 -5.48492 -1.33478 0
M  V30 8170 N 759.743 -0.201713 -1.56304 0
M  V30 8171 C 760.968 0.443815 -2.02596 0
M  V30 8172 C 761.393 1.53945 -1.08086 0
M  V30 8173 O 760.751 1.81182 -0.0655056 0
M  V30 8174 C 760.799 0.971066 -3.47279 0
M  V30 8175 O 759.903 2.0836 -3.55893 0
M  V30 8176 H 759.244 0.10294 -0.655972 0
M  V30 8177 H 761.774 -0.314533 -2.02168 0
M  V30 8178 H 761.784 1.28598 -3.87204 0
M  V30 8179 H 760.459 0.169048 -4.15556 0
M  V30 8180 H 759.036 1.77683 -3.27846 0
M  V30 8181 N 761.222 1.57436 0.0718424 0
M  V30 8182 C 762.447 1.91858 0.787745 0
M  V30 8183 C 762.872 0.798119 1.70328 0
M  V30 8184 O 762.23 -0.24905 1.79581 0
M  V30 8185 C 762.278 3.25232 1.55744 0
M  V30 8186 O 761.382 3.14462 2.6681 0
M  V30 8187 H 760.723 0.628258 0.214914 0
M  V30 8188 H 763.253 2.04561 0.0401012 0
M  V30 8189 H 763.263 3.59105 1.9367 0
M  V30 8190 H 761.938 4.0636 0.885691 0
M  V30 8191 H 760.515 2.92148 2.31741 0
M  V30 8192 N 762.7 -0.34323 1.53817 0
M  V30 8193 C 764.111 -0.918823 1.62525 0
M  V30 8194 C 764.462 -1.89542 0.506765 0
M  V30 8195 O 763.587 -2.13326 -0.363441 0
M  V30 8196 C 764.182 -1.67326 2.94597 0
M  V30 8197 C 762.741 -2.19786 3.05567 0
M  V30 8198 C 761.888 -1.01708 2.57974 0
M  V30 8199 H 764.839 -0.121358 1.58235 0
M  V30 8200 H 764.86 -2.53615 2.83654 0
M  V30 8201 H 764.372 -0.962223 3.75983 0
M  V30 8202 H 762.473 -2.94065 2.28816 0
M  V30 8203 H 762.586 -2.46135 4.1104 0
M  V30 8204 H 760.95 -1.39058 2.13389 0
M  V30 8205 H 761.733 -0.320671 3.41799 0
M  V30 8206 N 764.178 -1.45556 -0.604258 0
M  V30 8207 C 765.408 -1.53056 -1.38771 0
M  V30 8208 C 765.816 -0.163092 -1.88496 0
M  V30 8209 O 765.159 0.846157 -1.63052 0
M  V30 8210 C 765.221 -2.45656 -2.62476 0
M  V30 8211 C 764.885 -3.92328 -2.34367 0
M  V30 8212 C 765.882 -4.82137 -1.94525 0
M  V30 8213 C 763.567 -4.37275 -2.47177 0
M  V30 8214 C 765.561 -6.14901 -1.67856 0
M  V30 8215 C 763.248 -5.70079 -2.20122 0
M  V30 8216 C 764.246 -6.58711 -1.80524 0
M  V30 8217 O 763.934 -7.89053 -1.53788 0
M  V30 8218 H 763.666 -0.520721 -0.431075 0
M  V30 8219 H 766.22 -1.91464 -0.743693 0
M  V30 8220 H 764.45 -2.02225 -3.29609 0
M  V30 8221 H 766.139 -2.43802 -3.24523 0
M  V30 8222 H 766.905 -4.48675 -1.84162 0
M  V30 8223 H 762.784 -3.68527 -2.76964 0
M  V30 8224 H 766.328 -6.8404 -1.36874 0
M  V30 8225 H 762.225 -6.03095 -2.30102 0
M  V30 8226 H 762.993 -8.01113 -1.67812 0
M  V30 8227 N 765.656 0.84705 -1.32902 0
M  V30 8228 C 766.589 1.96038 -1.1681 0
M  V30 8229 C 767.567 1.62468 -0.0656144 0
M  V30 8230 O 768.751 1.87136 -0.226339 0
M  V30 8231 C 765.878 3.29362 -0.789839 0
M  V30 8232 C 764.924 3.81908 -1.89865 0
M  V30 8233 S 765.757 4.04576 -3.50826 0
M  V30 8234 C 766.913 5.40863 -3.14989 0
M  V30 8235 H 767.146 2.09387 -2.11055 0
M  V30 8236 H 764.679 0.999896 -1.1765 0
M  V30 8237 H 766.637 4.06405 -0.578369 0
M  V30 8238 H 765.298 3.13815 0.133878 0
M  V30 8239 H 764.491 4.78357 -1.58716 0
M  V30 8240 H 764.093 3.11733 -2.06636 0
M  V30 8241 H 766.385 6.23393 -2.65306 0
M  V30 8242 H 767.328 5.7698 -4.10488 0
M  V30 8243 H 767.736 5.05228 -2.51804 0
M  V30 8244 N 767.134 1.16236 1.06428 0
M  V30 8245 C 768.082 0.863669 2.15971 0
M  V30 8246 C 769.076 -0.166723 1.68578 0
M  V30 8247 O 770.282 -0.0208425 1.79988 0
M  V30 8248 H 766.657 0.261684 0.705 0
M  V30 8249 H 768.628 1.79498 2.38376 0
M  V30 8250 C 767.377 0.379697 3.45621 0
M  V30 8251 H 766.7 1.16399 3.82481 0
M  V30 8252 H 768.14 0.209458 4.23482 0
M  V30 8253 C 766.599 -0.900499 3.24642 0
M  V30 8254 O 767.129 -1.97004 3.50074 0
M  V30 8255 N 765.335 -0.843721 2.78082 0
M  V30 8256 H 764.882 0.0268429 2.57586 0
M  V30 8257 H 764.84 -1.70078 2.64425 0
M  V30 8258 N 768.612 -1.24939 0.960631 0
M  V30 8259 C 769.56 -2.27659 0.47686 0
M  V30 8260 C 770.554 -1.63148 -0.455961 0
M  V30 8261 O 771.76 -1.76911 -0.332029 0
M  V30 8262 H 768.135 -0.739651 0.135723 0
M  V30 8263 H 770.106 -2.65844 1.35534 0
M  V30 8264 C 768.855 -3.46976 -0.224191 0
M  V30 8265 H 768.178 -3.96854 0.484471 0
M  V30 8266 H 769.618 -4.20717 -0.526615 0
M  V30 8267 C 768.077 -3.04159 -1.44876 0
M  V30 8268 O 768.607 -3.10697 -2.54618 0
M  V30 8269 N 766.813 -2.59284 -1.31226 0
M  V30 8270 H 766.36 -2.54164 -0.419361 0
M  V30 8271 H 766.318 -2.31 -2.13275 0
M  V30 8272 N 770.09 -0.729906 -1.39679 0
M  V30 8273 C 771.02 -0.101618 -2.33279 0
M  V30 8274 C 772.001 0.729854 -1.53646 0
M  V30 8275 O 773.186 0.67587 -1.82059 0
M  V30 8276 C 770.316 0.81024 -3.37716 0
M  V30 8277 C 769.27 0.0833126 -4.27919 0
M  V30 8278 C 768.596 1.11185 -5.23012 0
M  V30 8279 C 769.896 -1.07107 -5.112 0
M  V30 8280 H 771.59 -0.883452 -2.86069 0
M  V30 8281 H 769.136 -0.426283 -1.37546 0
M  V30 8282 H 771.089 1.25927 -4.02145 0
M  V30 8283 H 769.813 1.62413 -2.83354 0
M  V30 8284 H 768.472 -0.346043 -3.64963 0
M  V30 8285 H 768.12 1.91917 -4.64948 0
M  V30 8286 H 767.82 0.63026 -5.8421 0
M  V30 8287 H 769.344 1.56068 -5.90318 0
M  V30 8288 H 770.758 -0.700726 -5.69002 0
M  V30 8289 H 769.155 -1.48196 -5.81514 0
M  V30 8290 H 770.225 -1.89513 -4.46332 0
M  V30 8291 N 771.568 1.50203 -0.477153 0
M  V30 8292 C 772.817 2.01551 0.0774548 0
M  V30 8293 C 773.13 1.36359 1.40234 0
M  V30 8294 O 774.336 1.78898 2.04225 0
M  V30 8295 C 772.792 3.59406 0.188539 0
M  V30 8296 C 772.4 4.3356 -1.12828 0
M  V30 8297 C 774.144 4.18776 0.694782 0
M  V30 8298 C 772.051 5.83213 -0.98066 0
M  V30 8299 H 770.981 0.75329 0.0327212 0
M  V30 8300 H 773.632 1.72959 -0.612969 0
M  V30 8301 H 772.014 3.84611 0.942881 0
M  V30 8302 H 773.188 4.20074 -1.89405 0
M  V30 8303 H 771.503 3.85827 -1.5661 0
M  V30 8304 H 774.1 5.28338 0.822356 0
M  V30 8305 H 774.443 3.80557 1.68766 0
M  V30 8306 H 774.976 3.978 -0.00234519 0
M  V30 8307 H 771.715 6.25914 -1.94709 0
M  V30 8308 H 771.235 5.99256 -0.255375 0
M  V30 8309 H 772.914 6.4373 -0.649717 0
M  V30 8310 N 773.046 0.209999 1.56195 0
M  V30 8311 C 774.295 -0.425106 1.97169 0
M  V30 8312 C 774.608 -1.61718 1.10031 0
M  V30 8313 O 775.814 -2.32105 1.40853 0
M  V30 8314 C 774.27 -0.80771 3.50719 0
M  V30 8315 C 773.878 0.360902 4.46544 0
M  V30 8316 C 775.622 -1.40906 4.00432 0
M  V30 8317 C 773.529 -0.0434919 5.91384 0
M  V30 8318 H 772.459 -0.162598 0.736259 0
M  V30 8319 H 775.11 0.304382 1.80958 0
M  V30 8320 H 773.492 -1.59429 3.62489 0
M  V30 8321 H 774.666 1.13846 4.46515 0
M  V30 8322 H 772.981 0.874729 4.07109 0
M  V30 8323 H 775.578 -1.72433 5.06133 0
M  V30 8324 H 775.921 -2.32081 3.45607 0
M  V30 8325 H 776.454 -0.686154 3.91838 0
M  V30 8326 H 773.193 0.834448 6.50167 0
M  V30 8327 H 772.713 -0.785598 5.94633 0
M  V30 8328 H 774.392 -0.474176 6.4526 0
M  V30 8329 N 774.524 -1.57472 -0.0634922 0
M  V30 8330 C 775.454 -2.07297 -1.07473 0
M  V30 8331 C 776.435 -0.968162 -1.39859 0
M  V30 8332 O 777.62 -1.24139 -1.49343 0
M  V30 8333 C 774.75 -2.52381 -2.38581 0
M  V30 8334 C 773.704 -3.66813 -2.20526 0
M  V30 8335 C 773.03 -3.97982 -3.57092 0
M  V30 8336 C 774.33 -4.96553 -1.61965 0
M  V30 8337 H 776.024 -2.92033 -0.660092 0
M  V30 8338 H 773.57 -1.40488 -0.316074 0
M  V30 8339 H 775.523 -2.85852 -3.09624 0
M  V30 8340 H 774.247 -1.64684 -2.8204 0
M  V30 8341 H 772.906 -3.33639 -1.51924 0
M  V30 8342 H 772.554 -3.07403 -3.98136 0
M  V30 8343 H 772.254 -4.7504 -3.45848 0
M  V30 8344 H 773.778 -4.33956 -4.29552 0
M  V30 8345 H 775.192 -5.28201 -2.22883 0
M  V30 8346 H 773.589 -5.7799 -1.61394 0
M  V30 8347 H 774.659 -4.81396 -0.581918 0
M  V30 8348 N 776.003 0.335068 -1.53997 0
M  V30 8349 C 777.251 1.07223 -1.71312 0
M  V30 8350 C 777.572 1.88911 -0.483486 0
M  V30 8351 O 776.842 1.89344 0.50257 0
M  V30 8352 H 775.422 0.398846 -0.63161 0
M  V30 8353 H 778.084 0.374288 -1.91272 0
M  V30 8354 H 777.18 1.7448 -2.58772 0
M  V30 8355 N 777.481 1.45874 0.596531 0
M  V30 8356 C 778.729 1.5017 1.35253 0
M  V30 8357 C 779.05 0.149246 1.94428 0
M  V30 8358 O 778.32 -0.82268 1.77789 0
M  V30 8359 H 776.9 0.553052 0.502138 0
M  V30 8360 H 779.562 1.81908 0.699671 0
M  V30 8361 H 778.658 2.24671 2.16632 0
M  V30 8362 N 778.959 -0.83999 1.33349 0
M  V30 8363 C 779.892 -1.95415 1.17848 0
M  V30 8364 C 780.87 -1.6243 0.0742296 0
M  V30 8365 O 782.054 -1.87014 0.23626 0
M  V30 8366 C 779.181 -3.28938 0.807295 0
M  V30 8367 C 778.227 -3.80895 1.91888 0
M  V30 8368 S 779.06 -4.02709 3.52967 0
M  V30 8369 C 780.216 -5.39185 3.17853 0
M  V30 8370 H 780.449 -2.08265 2.12162 0
M  V30 8371 H 777.982 -0.993643 1.18178 0
M  V30 8372 H 779.94 -4.06093 0.599914 0
M  V30 8373 H 778.601 -3.13881 -0.117234 0
M  V30 8374 H 777.794 -4.77508 1.6125 0
M  V30 8375 H 777.396 -3.10633 2.08286 0
M  V30 8376 H 779.688 -6.21978 2.68608 0
M  V30 8377 H 780.631 -5.74795 4.13542 0
M  V30 8378 H 781.039 -5.03885 2.5448 0
M  V30 8379 N 780.437 -1.16799 -1.0581 0
M  V30 8380 C 781.367 -0.902241 -2.15364 0
M  V30 8381 C 782.348 0.153351 -1.69407 0
M  V30 8382 O 783.533 0.00442032 -1.94199 0
M  V30 8383 C 780.663 -0.407911 -3.44896 0
M  V30 8384 C 779.617 -1.40197 -4.04387 0
M  V30 8385 C 778.943 -0.765848 -5.29187 0
M  V30 8386 C 780.243 -2.77316 -4.42598 0
M  V30 8387 H 781.937 -1.81841 -2.37853 0
M  V30 8388 H 779.483 -0.875731 -1.14311 0
M  V30 8389 H 781.436 -0.20945 -4.20879 0
M  V30 8390 H 780.16 0.54378 -3.22041 0
M  V30 8391 H 778.819 -1.58707 -3.30466 0
M  V30 8392 H 778.467 0.192482 -5.02632 0
M  V30 8393 H 778.167 -1.42939 -5.69949 0
M  V30 8394 H 779.691 -0.577519 -6.07863 0
M  V30 8395 H 781.105 -2.62561 -5.09642 0
M  V30 8396 H 779.502 -3.4019 -4.94359 0
M  V30 8397 H 780.572 -3.32199 -3.53231 0
M  V30 8398 N 781.915 1.24427 -0.967243 0
M  V30 8399 C 783.14 1.9708 -0.646069 0
M  V30 8400 C 783.565 1.71272 0.777665 0
M  V30 8401 O 782.923 0.976179 1.52776 0
M  V30 8402 C 782.971 3.48501 -0.926266 0
M  V30 8403 O 782.075 4.12398 -0.0114653 0
M  V30 8404 H 781.416 0.617423 -0.244304 0
M  V30 8405 H 783.946 1.58215 -1.29727 0
M  V30 8406 H 783.956 3.98885 -0.857619 0
M  V30 8407 H 782.631 3.66613 -1.96386 0
M  V30 8408 H 781.208 3.72661 -0.133396 0
M  V30 8409 N 783.393 0.737304 1.3929 0
M  V30 8410 C 784.623 0.296143 2.04467 0
M  V30 8411 C 785.031 -1.0748 1.55707 0
M  V30 8412 O 784.374 -1.69082 0.718123 0
M  V30 8413 C 784.436 0.222161 3.58813 0
M  V30 8414 C 784.1 1.53195 4.30558 0
M  V30 8415 C 785.097 2.47809 4.57041 0
M  V30 8416 C 782.782 1.79688 4.6906 0
M  V30 8417 C 784.776 3.67147 5.21039 0
M  V30 8418 C 782.463 2.99304 5.32785 0
M  V30 8419 C 783.461 3.92855 5.58708 0
M  V30 8420 O 783.149 5.1037 6.2111 0
M  V30 8421 H 782.881 0.126896 0.663983 0
M  V30 8422 H 785.435 1.00242 1.79278 0
M  V30 8423 H 783.665 -0.540239 3.82908 0
M  V30 8424 H 785.354 -0.187311 4.05468 0
M  V30 8425 H 786.12 2.28611 4.2774 0
M  V30 8426 H 781.999 1.07716 4.48239 0
M  V30 8427 H 785.543 4.40183 5.41188 0
M  V30 8428 H 781.44 3.18401 5.61508 0
M  V30 8429 H 782.208 5.10735 6.39603 0
M  V30 8430 N 784.871 -1.49948 0.485112 0
M  V30 8431 C 785.834 -2.27351 -0.290546 0
M  V30 8432 C 786.834 -1.32704 -0.908087 0
M  V30 8433 O 788.024 -1.56007 -0.775085 0
M  V30 8434 C 785.156 -3.10135 -1.41524 0
M  V30 8435 H 786.349 -2.97374 0.388454 0
M  V30 8436 H 783.902 -1.54453 0.239586 0
M  V30 8437 H 784.637 -2.44641 -2.12888 0
M  V30 8438 H 784.422 -3.79705 -0.978074 0
M  V30 8439 H 785.912 -3.68638 -1.96204 0
M  V30 8440 N 786.349 -0.21828 -1.56081 0
M  V30 8441 C 787.574 0.422302 -2.03055 0
M  V30 8442 C 787.999 1.5279 -1.09713 0
M  V30 8443 O 787.357 1.81102 -0.0847187 0
M  V30 8444 C 787.405 0.934177 -3.48289 0
M  V30 8445 O 786.509 2.04574 -3.58083 0
M  V30 8446 H 785.85 0.0959764 -0.657027 0
M  V30 8447 H 788.38 -0.335958 -2.01823 0
M  V30 8448 H 788.39 1.24484 -3.88546 0
M  V30 8449 H 787.065 0.124963 -4.15712 0
M  V30 8450 H 785.642 1.74196 -3.29712 0
M  V30 8451 N 787.827 1.57504 0.0551401 0
M  V30 8452 C 789.076 1.87237 0.750009 0
M  V30 8453 C 789.389 0.813268 1.77891 0
M  V30 8454 O 790.595 0.99898 2.52453 0
M  V30 8455 C 789.051 3.32187 1.38491 0
M  V30 8456 C 788.659 4.46267 0.393707 0
M  V30 8457 C 790.403 3.71101 2.06117 0
M  V30 8458 C 788.31 5.82265 1.03547 0
M  V30 8459 H 787.24 0.698524 0.283866 0
M  V30 8460 H 789.891 1.835 0.00365997 0
M  V30 8461 H 788.273 3.30588 2.18008 0
M  V30 8462 H 789.447 4.59289 -0.372865 0
M  V30 8463 H 787.762 4.16015 -0.17902 0
M  V30 8464 H 790.359 4.70012 2.54937 0
M  V30 8465 H 790.702 3.01751 2.86796 0
M  V30 8466 H 791.235 3.74762 1.33409 0
M  V30 8467 H 787.974 6.54949 0.268644 0
M  V30 8468 H 787.494 5.73012 1.7725 0
M  V30 8469 H 789.173 6.28148 1.55047 0
M  V30 8470 N 789.305 -0.326896 1.54172 0
M  V30 8471 C 790.552 -1.06523 1.72218 0
M  V30 8472 C 790.88 -1.88119 0.494114 0
M  V30 8473 O 790.135 -1.8855 -0.524147 0
M  V30 8474 C 790.434 -2.0208 2.94785 0
M  V30 8475 C 790.1 -1.36665 4.2969 0
M  V30 8476 C 788.762 -1.18556 4.66367 0
M  V30 8477 C 791.114 -0.896868 5.13425 0
M  V30 8478 C 788.442 -0.521113 5.84381 0
M  V30 8479 C 790.794 -0.246261 6.3212 0
M  V30 8480 C 789.458 -0.052987 6.67479 0
M  V30 8481 H 788.728 -0.389796 0.63019 0
M  V30 8482 H 791.375 -0.342725 1.88408 0
M  V30 8483 H 789.68 -2.8077 2.73268 0
M  V30 8484 H 791.377 -2.59231 3.05941 0
M  V30 8485 H 787.967 -1.51762 4.00832 0
M  V30 8486 H 792.151 -1.02458 4.85609 0
M  V30 8487 H 787.407 -0.36014 6.10338 0
M  V30 8488 H 791.581 0.125775 6.96286 0
M  V30 8489 H 789.208 0.463903 7.58783 0
M  V30 8490 N 790.784 -1.46188 -0.588786 0
M  V30 8491 C 791.714 -1.59148 -1.70863 0
M  V30 8492 C 792.695 -0.442083 -1.64255 0
M  V30 8493 O 793.88 -0.667575 -1.82365 0
M  V30 8494 C 791.01 -1.5757 -3.09498 0
M  V30 8495 C 789.964 -2.71418 -3.30932 0
M  V30 8496 C 789.29 -2.549 -4.70032 0
M  V30 8497 C 790.59 -4.1329 -3.19356 0
M  V30 8498 H 792.284 -2.52889 -1.60274 0
M  V30 8499 H 789.83 -1.21707 -0.769638 0
M  V30 8500 H 791.783 -1.65231 -3.87655 0
M  V30 8501 H 790.507 -0.603705 -3.20972 0
M  V30 8502 H 789.166 -2.63216 -2.55172 0
M  V30 8503 H 788.814 -1.55797 -4.78264 0
M  V30 8504 H 788.514 -3.31257 -4.85327 0
M  V30 8505 H 790.038 -2.64443 -5.50366 0
M  V30 8506 H 791.452 -4.22636 -3.87365 0
M  V30 8507 H 789.849 -4.90187 -3.46175 0
M  V30 8508 H 790.919 -4.33874 -2.16522 0
M  V30 8509 N 792.262 0.832906 -1.33792 0
M  V30 8510 C 793.509 1.58853 -1.25586 0
M  V30 8511 C 793.837 1.93695 0.176807 0
M  V30 8512 O 793.092 1.59386 1.13554 0
M  V30 8513 C 793.391 2.9047 -2.08235 0
M  V30 8514 C 793.057 2.74965 -3.57358 0
M  V30 8515 C 791.719 2.70444 -3.98012 0
M  V30 8516 C 794.071 2.59347 -4.52093 0
M  V30 8517 C 791.399 2.48212 -5.31608 0
M  V30 8518 C 793.751 2.38649 -5.85858 0
M  V30 8519 C 792.415 2.32533 -6.25687 0
M  V30 8520 H 791.685 0.581285 -0.459553 0
M  V30 8521 H 794.332 0.964501 -1.65438 0
M  V30 8522 H 792.637 3.57111 -1.6118 0
M  V30 8523 H 794.334 3.48001 -1.99239 0
M  V30 8524 H 790.924 2.79319 -3.25083 0
M  V30 8525 H 795.108 2.6187 -4.2159 0
M  V30 8526 H 790.364 2.41929 -5.61498 0
M  V30 8527 H 794.538 2.25549 -6.58863 0
M  V30 8528 H 792.165 2.15067 -7.29143 0
M  V30 8529 N 793.74 1.17359 1.05189 0
M  V30 8530 C 794.988 0.960087 1.77839 0
M  V30 8531 C 795.309 -0.512554 1.88143 0
M  V30 8532 O 794.579 -1.3721 1.39822 0
M  V30 8533 H 793.159 0.352234 0.658741 0
M  V30 8534 H 795.821 1.47834 1.27008 0
M  V30 8535 H 794.917 1.38843 2.79516 0
M  V30 8536 N 795.218 -1.23913 0.973828 0
M  V30 8537 C 796.148 -2.27453 0.527969 0
M  V30 8538 C 797.129 -1.6443 -0.435513 0
M  V30 8539 O 798.314 -1.9137 -0.330306 0
M  V30 8540 C 795.444 -3.4685 -0.176757 0
M  V30 8541 C 794.398 -4.22181 0.703352 0
M  V30 8542 C 793.724 -5.34534 -0.133215 0
M  V30 8543 C 795.024 -4.82865 1.99096 0
M  V30 8544 H 796.718 -2.65 1.3934 0
M  V30 8545 H 794.264 -1.27388 0.671446 0
M  V30 8546 H 796.217 -4.18424 -0.499934 0
M  V30 8547 H 794.941 -3.08346 -1.07659 0
M  V30 8548 H 793.6 -3.52416 1.00989 0
M  V30 8549 H 793.248 -4.92271 -1.03338 0
M  V30 8550 H 792.948 -5.85855 0.452494 0
M  V30 8551 H 794.472 -6.08933 -0.450924 0
M  V30 8552 H 795.886 -5.46481 1.73297 0
M  V30 8553 H 794.283 -5.44444 2.52389 0
M  V30 8554 H 795.353 -4.03977 2.68199 0
M  V30 8555 N 796.696 -0.74468 -1.38897 0
M  V30 8556 C 797.973 -0.222773 -1.94327 0
M  V30 8557 C 798.353 1.27731 -1.68071 0
M  V30 8558 O 797.701 2.04754 -1.01429 0
M  V30 8559 C 797.911 -0.566836 -3.44366 0
M  V30 8560 C 799.259 -0.521531 -4.21385 0
M  V30 8561 O 800.283 -0.504599 -3.52608 0
M  V30 8562 O 799.142 -0.524595 -5.43976 0
M  V30 8563 H 796.236 -0.0439259 -0.825833 0
M  V30 8564 H 798.782 -0.824197 -1.48341 0
M  V30 8565 H 797.554 -1.60321 -3.56949 0
M  V30 8566 H 797.177 0.0630577 -3.9755 0
M  V30 8567 N 798.174 1.49689 -0.493057 0
M  V30 8568 C 799.422 2.02027 0.0541642 0
M  V30 8569 C 799.743 1.37554 1.38217 0
M  V30 8570 O 799.013 0.528174 1.88646 0
M  V30 8571 H 797.593 0.746646 0.0230069 0
M  V30 8572 H 800.255 1.83795 -0.648489 0
M  V30 8573 H 799.351 3.11523 0.189652 0
M  V30 8574 N 799.652 0.226554 1.55963 0
M  V30 8575 C 800.877 -0.411527 2.03276 0
M  V30 8576 C 801.302 -1.52206 1.10521 0
M  V30 8577 O 800.66 -1.81054 0.0943217 0
M  V30 8578 C 800.708 -0.915694 3.4878 0
M  V30 8579 O 799.812 -2.02672 3.59163 0
M  V30 8580 H 799.153 -0.0924907 0.657527 0
M  V30 8581 H 801.683 0.346656 2.01642 0
M  V30 8582 H 801.693 -1.22421 3.892 0
M  V30 8583 H 800.368 -0.102915 4.15773 0
M  V30 8584 H 798.945 -1.72445 3.30632 0
M  V30 8585 N 801.13 -1.57531 -0.0467866 0
M  V30 8586 C 802.377 -1.88451 -0.74112 0
M  V30 8587 C 802.705 -0.821592 -1.76296 0
M  V30 8588 O 801.96 0.179585 -1.94874 0
M  V30 8589 C 802.259 -3.26091 -1.46285 0
M  V30 8590 C 801.925 -4.47171 -0.578669 0
M  V30 8591 C 800.587 -4.80032 -0.335083 0
M  V30 8592 C 802.939 -5.2119 0.0328809 0
M  V30 8593 C 800.267 -5.84309 0.529121 0
M  V30 8594 C 802.619 -6.26383 0.884684 0
M  V30 8595 C 801.283 -6.57729 1.1379 0
M  V30 8596 H 800.553 -0.68959 -0.271195 0
M  V30 8597 H 803.2 -1.915 -0.00132378 0
M  V30 8598 H 801.505 -3.18948 -2.27551 0
M  V30 8599 H 803.202 -3.47258 -2.00532 0
M  V30 8600 H 799.792 -4.21467 -0.778666 0
M  V30 8601 H 803.976 -4.96096 -0.142375 0
M  V30 8602 H 799.232 -6.06981 0.733794 0
M  V30 8603 H 803.406 -6.82888 1.36516 0
M  V30 8604 H 801.033 -7.38355 1.80929 0
M  V30 8605 N 802.608 0.318715 -1.54344 0
M  V30 8606 C 803.854 1.05765 -1.73037 0
M  V30 8607 C 804.187 1.87514 -0.505181 0
M  V30 8608 O 803.462 1.88021 0.497838 0
M  V30 8609 C 803.745 1.97836 -3.00887 0
M  V30 8610 C 803.598 1.19384 -4.33668 0
M  V30 8611 C 804.917 2.97285 -3.24514 0
M  V30 8612 H 802.036 0.383104 -0.629603 0
M  V30 8613 H 804.678 0.333864 -1.87044 0
M  V30 8614 H 802.828 2.59552 -2.89076 0
M  V30 8615 H 804.5 0.600906 -4.57369 0
M  V30 8616 H 802.743 0.496198 -4.30953 0
M  V30 8617 H 803.414 1.87014 -5.19355 0
M  V30 8618 H 805.89 2.45693 -3.35819 0
M  V30 8619 H 804.766 3.58887 -4.15321 0
M  V30 8620 H 805.027 3.70003 -2.41971 0
M  V30 8621 N 804.086 1.46499 0.581025 0
M  V30 8622 C 805.311 1.55708 1.37002 0
M  V30 8623 C 805.736 0.19942 1.8704 0
M  V30 8624 O 805.094 -0.820731 1.61659 0
M  V30 8625 C 805.142 2.56716 2.53238 0
M  V30 8626 O 804.246 2.10336 3.54729 0
M  V30 8627 H 803.587 0.523912 0.407937 0
M  V30 8628 H 806.117 1.92085 0.704602 0
M  V30 8629 H 806.127 2.76378 3.00132 0
M  V30 8630 H 804.802 3.55307 2.16171 0
M  V30 8631 H 803.379 2.00669 3.14303 0
M  V30 8632 N 805.565 -0.825799 1.34232 0
M  V30 8633 C 806.475 -1.9684 1.27638 0
M  V30 8634 C 807.491 -1.73018 0.184569 0
M  V30 8635 O 808.667 -1.97172 0.410525 0
M  V30 8636 C 805.732 -3.31084 1.02879 0
M  V30 8637 C 804.793 -3.67933 2.21188 0
M  V30 8638 C 804.026 -4.95772 1.976 0
M  V30 8639 O 804.249 -5.62721 0.93281 0
M  V30 8640 O 803.183 -5.30431 2.84477 0
M  V30 8641 H 807.009 -2.05346 2.23756 0
M  V30 8642 H 804.594 -0.960772 1.1441 0
M  V30 8643 H 806.476 -4.11492 0.908406 0
M  V30 8644 H 805.151 -3.23552 0.0979821 0
M  V30 8645 H 804.058 -2.87981 2.38784 0
M  V30 8646 H 805.391 -3.80147 3.12648 0
M  V30 8647 N 807.043 -1.17915 -1.04565 0
M  V30 8648 C 807.99 -0.901605 -2.12461 0
M  V30 8649 C 808.96 0.157011 -1.65356 0
M  V30 8650 O 810.145 0.0184494 -1.90791 0
M  V30 8651 C 807.285 -0.42796 -3.42436 0
M  V30 8652 C 806.398 -1.55142 -4.03181 0
M  V30 8653 C 805.533 -1.03101 -5.21098 0
M  V30 8654 C 804.572 -2.1295 -5.73863 0
M  V30 8655 N 803.709 -1.62339 -6.83074 0
M  V30 8656 H 808.549 -1.82551 -2.3554 0
M  V30 8657 H 806.086 -0.910389 -1.15544 0
M  V30 8658 H 808.044 -0.134859 -4.16982 0
M  V30 8659 H 806.674 0.458977 -3.1952 0
M  V30 8660 H 805.726 -1.96011 -3.26012 0
M  V30 8661 H 807.038 -2.37968 -4.38375 0
M  V30 8662 H 806.192 -0.692132 -6.02739 0
M  V30 8663 H 804.931 -0.17227 -4.87396 0
M  V30 8664 H 803.936 -2.47687 -4.90847 0
M  V30 8665 H 805.161 -2.9925 -6.09611 0
M  V30 8666 H 803.107 -0.787464 -6.51256 0
M  V30 8667 H 803.024 -2.38767 -7.17305 0
M  V30 8668 H 804.292 -1.31363 -7.68351 0
M  V30 8669 N 808.521 1.23394 -0.980386 0
M  V30 8670 C 809.749 1.95844 -0.667286 0
M  V30 8671 C 810.164 1.72574 0.765735 0
M  V30 8672 O 809.521 1.01715 1.51526 0
M  V30 8673 C 809.572 3.48844 -0.948151 0
M  V30 8674 O 809.293 3.71325 -2.32485 0
M  V30 8675 C 810.794 4.38494 -0.651002 0
M  V30 8676 H 808.014 0.623535 -0.247882 0
M  V30 8677 H 810.558 1.56885 -1.31176 0
M  V30 8678 H 808.713 3.85819 -0.349681 0
M  V30 8679 H 809.127 4.65619 -2.41452 0
M  V30 8680 H 810.601 5.44648 -0.897887 0
M  V30 8681 H 811.078 4.37236 0.414922 0
M  V30 8682 H 811.684 4.07127 -1.22995 0
M  V30 8683 N 809.999 0.752036 1.385 0
M  V30 8684 C 811.246 0.307503 2.00152 0
M  V30 8685 C 811.574 -1.11033 1.59693 0
M  V30 8686 O 810.829 -1.77455 0.825125 0
M  V30 8687 C 811.128 0.376155 3.55415 0
M  V30 8688 C 810.794 1.74942 4.15579 0
M  V30 8689 C 809.456 2.12525 4.31725 0
M  V30 8690 C 811.808 2.65031 4.48785 0
M  V30 8691 C 809.136 3.39671 4.78373 0
M  V30 8692 C 811.488 3.91567 4.96848 0
M  V30 8693 C 810.152 4.2922 5.11201 0
M  V30 8694 H 809.422 0.112523 0.732407 0
M  V30 8695 H 812.069 0.962213 1.65571 0
M  V30 8696 H 810.374 -0.362121 3.90123 0
M  V30 8697 H 812.071 0.0138065 4.00998 0
M  V30 8698 H 808.661 1.44726 4.03426 0
M  V30 8699 H 812.845 2.3726 4.35914 0
M  V30 8700 H 808.101 3.68765 4.8767 0
M  V30 8701 H 812.275 4.61517 5.21512 0
M  V30 8702 H 809.902 5.27805 5.47107 0
M  V30 8703 N 811.477 -1.49425 0.500989 0
M  V30 8704 C 812.387 -2.32899 -0.282011 0
M  V30 8705 C 813.403 -1.44632 -0.967346 0
M  V30 8706 O 814.579 -1.77654 -0.94873 0
M  V30 8707 C 811.644 -3.20069 -1.33253 0
M  V30 8708 C 810.705 -4.24186 -0.660636 0
M  V30 8709 C 809.938 -5.07191 -1.6611 0
M  V30 8710 O 810.161 -4.91712 -2.89094 0
M  V30 8711 O 809.095 -5.8948 -1.21643 0
M  V30 8712 H 812.921 -3.01038 0.401224 0
M  V30 8713 H 810.506 -1.47079 0.262323 0
M  V30 8714 H 812.388 -3.74071 -1.94033 0
M  V30 8715 H 811.063 -2.54625 -1.9987 0
M  V30 8716 H 809.97 -3.74098 -0.0130959 0
M  V30 8717 H 811.303 -4.92186 -0.0369179 0
M  V30 8718 N 812.955 -0.234822 -1.55841 0
M  V30 8719 C 814.183 0.397745 -2.03041 0
M  V30 8720 C 814.598 1.52405 -1.11437 0
M  V30 8721 O 813.955 1.82061 -0.126466 0
M  V30 8722 C 814.006 0.916919 -3.49678 0
M  V30 8723 O 813.727 -0.164493 -4.37791 0
M  V30 8724 C 815.228 1.62139 -4.12584 0
M  V30 8725 H 812.448 0.0959214 -0.664108 0
M  V30 8726 H 814.992 -0.355156 -2.01392 0
M  V30 8727 H 813.147 1.62004 -3.519 0
M  V30 8728 H 813.561 0.227794 -5.24005 0
M  V30 8729 H 815.035 1.93651 -5.16917 0
M  V30 8730 H 815.512 2.53918 -3.58361 0
M  V30 8731 H 816.118 0.963145 -4.14251 0
M  V30 8732 N 814.433 1.57553 0.0384317 0
M  V30 8733 C 815.363 2.0898 1.04161 0
M  V30 8734 C 816.344 0.99029 1.38301 0
M  V30 8735 O 817.529 1.26499 1.47349 0
M  V30 8736 C 814.659 2.56145 2.34536 0
M  V30 8737 C 813.613 3.70275 2.14663 0
M  V30 8738 C 812.939 4.03612 3.50715 0
M  V30 8739 C 814.239 4.99067 1.54045 0
M  V30 8740 H 815.933 2.93046 0.613548 0
M  V30 8741 H 813.479 1.40973 0.293684 0
M  V30 8742 H 815.432 2.90741 3.05037 0
M  V30 8743 H 814.156 1.6915 2.79385 0
M  V30 8744 H 812.815 3.36013 1.46597 0
M  V30 8745 H 812.463 3.13698 3.93195 0
M  V30 8746 H 812.163 4.80482 3.38247 0
M  V30 8747 H 813.687 4.40735 4.22593 0
M  V30 8748 H 815.101 5.3168 2.14451 0
M  V30 8749 H 813.498 5.80484 1.52178 0
M  V30 8750 H 814.568 4.8226 0.505259 0
M  V30 8751 N 815.911 -0.310526 1.54511 0
M  V30 8752 C 817.151 -1.05498 1.7507 0
M  V30 8753 C 817.515 -1.84814 0.520381 0
M  V30 8754 O 818.716 -2.61937 0.603547 0
M  V30 8755 C 816.987 -1.94466 2.99863 0
M  V30 8756 S 818.546 -2.75686 3.41383 0
M  V30 8757 H 815.364 -0.355951 0.615483 0
M  V30 8758 H 817.966 -0.329464 1.92704 0
M  V30 8759 H 816.67 -1.35055 3.87541 0
M  V30 8760 H 816.201 -2.71401 2.84789 0
M  V30 8761 H 818.216 -3.96971 2.97706 0
M  V30 8762 N 817.389 -1.46805 -0.573248 0
M  V30 8763 C 818.617 -1.56191 -1.3569 0
M  V30 8764 C 819.032 -0.206362 -1.87669 0
M  V30 8765 O 818.389 0.797883 -1.64134 0
M  V30 8766 C 818.44 -2.57433 -2.53792 0
M  V30 8767 O 818.161 -3.87724 -2.03965 0
M  V30 8768 C 819.662 -2.76851 -3.4622 0
M  V30 8769 H 816.882 -0.527907 -0.414192 0
M  V30 8770 H 819.426 -1.92292 -0.695989 0
M  V30 8771 H 817.581 -2.24311 -3.15854 0
M  V30 8772 H 817.995 -4.42909 -2.80948 0
M  V30 8773 H 819.469 -3.5159 -4.25545 0
M  V30 8774 H 819.946 -1.84095 -3.98755 0
M  V30 8775 H 820.552 -3.11107 -2.89987 0
M  V30 8776 N 818.867 0.818669 -1.34668 0
M  V30 8777 C 820.113 1.57746 -1.27453 0
M  V30 8778 C 820.446 1.93588 0.154077 0
M  V30 8779 O 819.721 1.60371 1.10051 0
M  V30 8780 C 820.004 2.87414 -2.16945 0
M  V30 8781 C 819.857 2.58125 -3.68363 0
M  V30 8782 C 821.176 3.89021 -2.05792 0
M  V30 8783 H 818.295 0.572339 -0.464324 0
M  V30 8784 H 820.937 0.942784 -1.64959 0
M  V30 8785 H 819.087 3.41576 -1.85089 0
M  V30 8786 H 820.759 2.10239 -4.10606 0
M  V30 8787 H 819.002 1.91503 -3.89242 0
M  V30 8788 H 819.673 3.5061 -4.26353 0
M  V30 8789 H 822.149 3.44224 -2.33771 0
M  V30 8790 H 821.025 4.77548 -2.70628 0
M  V30 8791 H 821.286 4.29786 -1.03618 0
M  V30 8792 N 820.346 1.18468 1.03938 0
M  V30 8793 C 821.762 0.934635 1.29371 0
M  V30 8794 C 821.962 -0.399067 1.97509 0
M  V30 8795 O 821.018 -1.13309 2.25648 0
M  V30 8796 C 822.331 2.10111 2.15114 0
M  V30 8797 C 823.879 2.13955 2.28456 0
M  V30 8798 C 824.354 3.30024 3.17566 0
M  V30 8799 N 825.845 3.29893 3.25153 0
M  V30 8800 C 826.58 4.16346 3.94263 0
M  V30 8801 N 826.076 5.12934 4.65693 0
M  V30 8802 N 827.869 4.04256 3.90556 0
M  V30 8803 H 820.02 2.04294 0.581185 0
M  V30 8804 H 822.283 0.892727 0.318971 0
M  V30 8805 H 821.989 3.06572 1.72355 0
M  V30 8806 H 821.863 2.06283 3.15796 0
M  V30 8807 H 824.25 1.18072 2.7045 0
M  V30 8808 H 824.331 2.2184 1.2736 0
M  V30 8809 H 823.975 4.26181 2.76283 0
M  V30 8810 H 823.905 3.19376 4.18697 0
M  V30 8811 H 826.396 2.59969 2.74271 0
M  V30 8812 H 826.709 5.75271 5.16026 0
M  V30 8813 H 825.054 5.16893 4.64593 0
M  V30 8814 H 828.245 3.28083 3.33885 0
M  V30 8815 H 828.418 4.71848 4.44144 0
M  V30 8816 N 821.824 -1.22873 0.986916 0
M  V30 8817 C 823.052 -1.95487 0.677663 0
M  V30 8818 C 823.467 -1.72978 -0.756572 0
M  V30 8819 O 822.824 -1.02517 -1.50985 0
M  V30 8820 C 822.875 -3.48337 0.966638 0
M  V30 8821 O 822.596 -3.70087 2.34451 0
M  V30 8822 C 824.097 -4.38142 0.674248 0
M  V30 8823 H 821.317 -0.622211 0.251185 0
M  V30 8824 H 823.861 -1.56187 1.32007 0
M  V30 8825 H 822.016 -3.85628 0.370137 0
M  V30 8826 H 822.43 -4.64332 2.43918 0
M  V30 8827 H 823.904 -5.44165 0.926759 0
M  V30 8828 H 824.381 -4.3745 -0.391728 0
M  V30 8829 H 824.987 -4.06469 1.25152 0
M  V30 8830 N 823.302 -0.75937 -1.38099 0
M  V30 8831 C 824.548 -0.327559 -2.00745 0
M  V30 8832 C 824.903 1.08042 -1.592 0
M  V30 8833 O 824.196 1.7306 -0.822236 0
M  V30 8834 C 824.39 -0.394999 -3.55211 0
M  V30 8835 C 824.219 -1.80798 -4.11755 0
M  V30 8836 C 822.989 -2.42585 -4.43262 0
M  V30 8837 C 825.187 -2.76556 -4.33614 0
M  V30 8838 N 823.169 -3.75784 -4.85448 0
M  V30 8839 C 824.54 -3.94532 -4.78273 0
M  V30 8840 C 826.595 -2.74004 -4.15724 0
M  V30 8841 C 825.298 -5.10322 -5.06916 0
M  V30 8842 C 827.324 -3.88957 -4.45496 0
M  V30 8843 C 826.686 -5.05672 -4.90383 0
M  V30 8844 H 822.785 -0.166644 -0.764038 0
M  V30 8845 H 825.369 -0.99056 -1.67619 0
M  V30 8846 H 823.54 0.237761 -3.87672 0
M  V30 8847 H 825.272 0.0576828 -4.04659 0
M  V30 8848 H 822.027 -1.94302 -4.31907 0
M  V30 8849 H 822.451 -4.44234 -5.10867 0
M  V30 8850 H 827.093 -1.84948 -3.80203 0
M  V30 8851 H 824.811 -5.99988 -5.41332 0
M  V30 8852 H 828.397 -3.88308 -4.33253 0
M  V30 8853 H 827.277 -5.93146 -5.1298 0
M  V30 8854 N 824.78 1.49157 -0.508906 0
M  V30 8855 C 826.029 2.0167 0.0346854 0
M  V30 8856 C 826.342 1.39302 1.37311 0
M  V30 8857 O 827.548 1.83189 2.00385 0
M  V30 8858 C 826.004 3.59725 0.112261 0
M  V30 8859 C 825.612 4.31069 -1.21999 0
M  V30 8860 C 827.356 4.20155 0.605798 0
M  V30 8861 C 825.263 5.81001 -1.10415 0
M  V30 8862 H 824.193 0.753814 0.0167355 0
M  V30 8863 H 826.844 1.7162 -0.649518 0
M  V30 8864 H 825.226 3.86525 0.861087 0
M  V30 8865 H 826.4 4.15962 -1.98273 0
M  V30 8866 H 824.715 3.82418 -1.64759 0
M  V30 8867 H 827.312 5.29964 0.710102 0
M  V30 8868 H 827.655 3.84051 1.60656 0
M  V30 8869 H 828.188 3.97705 -0.0867239 0
M  V30 8870 H 824.927 6.21643 -2.07941 0
M  V30 8871 H 824.447 5.9858 -0.382428 0
M  V30 8872 H 826.126 6.42207 -0.786116 0
M  V30 8873 N 826.258 0.243083 1.55714 0
M  V30 8874 C 827.188 -0.652336 2.24203 0
M  V30 8875 C 828.169 -1.1843 1.221 0
M  V30 8876 O 829.354 -1.22435 1.50743 0
M  V30 8877 C 826.484 -1.85111 2.93856 0
M  V30 8878 C 825.438 -1.45208 4.02615 0
M  V30 8879 C 824.764 -2.73137 4.59674 0
M  V30 8880 C 826.064 -0.625988 5.18535 0
M  V30 8881 H 827.758 -0.0812504 2.9929 0
M  V30 8882 H 825.304 -0.0376388 1.43951 0
M  V30 8883 H 827.257 -2.48314 3.40468 0
M  V30 8884 H 825.981 -2.44751 2.16251 0
M  V30 8885 H 824.64 -0.843406 3.56766 0
M  V30 8886 H 824.288 -3.30967 3.78774 0
M  V30 8887 H 823.988 -2.47163 5.33089 0
M  V30 8888 H 825.512 -3.37245 5.09017 0
M  V30 8889 H 826.926 -1.16223 5.61396 0
M  V30 8890 H 825.323 -0.462465 5.98315 0
M  V30 8891 H 826.393 0.362652 4.83542 0
M  V30 8892 N 827.736 -1.57571 -0.0300757 0
M  V30 8893 C 828.964 -1.93485 -0.732891 0
M  V30 8894 C 829.379 -0.842758 -1.68947 0
M  V30 8895 O 828.736 0.180904 -1.81601 0
M  V30 8896 C 828.787 -3.29328 -1.49082 0
M  V30 8897 O 828.508 -4.34341 -0.572639 0
M  V30 8898 C 830.009 -3.79517 -2.29088 0
M  V30 8899 H 827.229 -0.638588 -0.206026 0
M  V30 8900 H 829.773 -2.04496 0.0120966 0
M  V30 8901 H 827.928 -3.19716 -2.1877 0
M  V30 8902 H 828.342 -5.12748 -1.10406 0
M  V30 8903 H 829.816 -4.77081 -2.77665 0
M  V30 8904 H 830.293 -3.10659 -3.10464 0
M  V30 8905 H 830.899 -3.92208 -1.64477 0
M  V30 8906 N 829.214 0.302327 -1.54673 0
M  V30 8907 C 830.46 1.03924 -1.74149 0
M  V30 8908 C 830.793 1.86968 -0.525041 0
M  V30 8909 O 830.068 1.88538 0.477868 0
M  V30 8910 C 830.351 1.94633 -3.02969 0
M  V30 8911 C 830.204 1.14778 -4.34909 0
M  V30 8912 C 831.523 2.93826 -3.27649 0
M  V30 8913 H 828.642 0.376405 -0.633631 0
M  V30 8914 H 831.284 0.314007 -1.87387 0
M  V30 8915 H 829.434 2.56471 -2.91813 0
M  V30 8916 H 831.106 0.552363 -4.57981 0
M  V30 8917 H 829.349 0.450462 -4.31455 0
M  V30 8918 H 830.02 1.81495 -5.21309 0
M  V30 8919 H 832.496 2.42117 -3.38406 0
M  V30 8920 H 831.372 3.54462 -4.19104 0
M  V30 8921 H 831.633 3.67416 -2.45882 0
M  V30 8922 N 830.692 1.47107 0.565454 0
M  V30 8923 C 831.94 1.53005 1.32038 0
M  V30 8924 C 832.261 0.190453 1.94068 0
M  V30 8925 O 831.531 -0.784783 1.79494 0
M  V30 8926 H 830.111 0.563578 0.490294 0
M  V30 8927 H 832.773 1.83351 0.660928 0
M  V30 8928 H 831.869 2.29215 2.11818 0
M  V30 8929 N 832.17 -0.811516 1.35101 0
M  V30 8930 C 833.4 -1.59749 1.31011 0
M  V30 8931 C 833.808 -1.88847 -0.115566 0
M  V30 8932 O 833.151 -1.48854 -1.07649 0
M  V30 8933 C 833.213 -2.95714 2.04435 0
M  V30 8934 C 832.877 -2.89456 3.53645 0
M  V30 8935 C 833.874 -2.63237 4.48333 0
M  V30 8936 C 831.559 -3.08728 3.96222 0
M  V30 8937 C 833.553 -2.56361 5.83573 0
M  V30 8938 C 831.24 -3.01475 5.3156 0
M  V30 8939 C 832.238 -2.75326 6.25048 0
M  V30 8940 O 831.926 -2.68026 7.57903 0
M  V30 8941 H 831.658 -0.502889 0.45175 0
M  V30 8942 H 834.212 -1.01687 1.78462 0
M  V30 8943 H 832.442 -3.55739 1.51613 0
M  V30 8944 H 834.131 -3.56816 1.93487 0
M  V30 8945 H 834.897 -2.48072 4.16756 0
M  V30 8946 H 830.776 -3.28094 3.23845 0
M  V30 8947 H 834.32 -2.35871 6.56514 0
M  V30 8948 H 830.217 -3.16197 5.62752 0
M  V30 8949 H 830.985 -2.8367 7.67772 0
M  V30 8950 N 833.648 -1.19017 -1.03309 0
M  V30 8951 C 834.876 -1.01534 -1.80273 0
M  V30 8952 C 835.291 0.43605 -1.83696 0
M  V30 8953 O 834.648 1.30288 -1.27794 0
M  V30 8954 C 834.699 -1.5722 -3.25522 0
M  V30 8955 O 834.42 -2.96677 -3.22358 0
M  V30 8956 C 835.921 -1.4446 -4.19102 0
M  V30 8957 H 833.141 -0.358094 -0.567459 0
M  V30 8958 H 835.685 -1.57738 -1.3015 0
M  V30 8959 H 833.84 -1.05174 -3.7285 0
M  V30 8960 H 834.254 -3.22795 -4.13405 0
M  V30 8961 H 835.728 -1.88209 -5.18923 0
M  V30 8962 H 836.205 -0.394471 -4.37425 0
M  V30 8963 H 836.811 -1.95616 -3.77643 0
M  V30 8964 N 835.127 1.22348 -0.993418 0
M  V30 8965 C 836.355 1.95125 -0.688021 0
M  V30 8966 C 836.77 1.73377 0.747388 0
M  V30 8967 O 836.127 1.03317 1.50439 0
M  V30 8968 C 836.178 3.47819 -0.985097 0
M  V30 8969 O 835.899 3.68838 -2.3641 0
M  V30 8970 C 837.4 4.37779 -0.697474 0
M  V30 8971 H 834.62 0.62087 -0.254481 0
M  V30 8972 H 837.164 1.55485 -1.32833 0
M  V30 8973 H 835.319 3.85426 -0.390583 0
M  V30 8974 H 835.733 4.63032 -2.46377 0
M  V30 8975 H 837.207 5.43666 -0.955604 0
M  V30 8976 H 837.684 4.37651 0.368524 0
M  V30 8977 H 838.29 4.05799 -1.27306 0
M  V30 8978 N 836.605 0.766683 1.37694 0
M  V30 8979 C 837.568 0.155849 2.2867 0
M  V30 8980 C 838.568 -0.633509 1.47795 0
M  V30 8981 O 839.758 -0.457844 1.68076 0
M  V30 8982 C 836.89 -0.786965 3.31692 0
M  V30 8983 H 838.083 0.957748 2.84196 0
M  V30 8984 H 835.636 0.534554 1.46875 0
M  V30 8985 H 836.371 -1.61406 2.8128 0
M  V30 8986 H 836.156 -0.223182 3.91464 0
M  V30 8987 H 837.646 -1.20994 3.99688 0
M  V30 8988 N 838.083 -1.48885 0.516809 0
M  V30 8989 C 839.33 -2.02488 -0.0220602 0
M  V30 8990 C 839.658 -1.39513 -1.35523 0
M  V30 8991 O 838.913 -0.52558 -1.8851 0
M  V30 8992 C 839.212 -3.56801 -0.206798 0
M  V30 8993 C 838.878 -4.38496 1.05035 0
M  V30 8994 C 837.54 -4.60538 1.39492 0
M  V30 8995 C 839.892 -4.85909 1.88525 0
M  V30 8996 C 837.22 -5.2724 2.57361 0
M  V30 8997 C 839.572 -5.53909 3.05561 0
M  V30 8998 C 838.236 -5.74193 3.4038 0
M  V30 8999 H 837.506 -0.740956 -0.00807238 0
M  V30 9000 H 840.153 -1.79014 0.680168 0
M  V30 9001 H 838.458 -3.79042 -0.991687 0
M  V30 9002 H 840.155 -3.95885 -0.638447 0
M  V30 9003 H 836.745 -4.2159 0.771984 0
M  V30 9004 H 840.929 -4.68694 1.63218 0
M  V30 9005 H 836.185 -5.41145 2.84556 0
M  V30 9006 H 840.359 -5.89619 3.7057 0
M  V30 9007 H 837.986 -6.25652 4.31814 0
M  V30 9008 N 839.561 -0.251338 -1.55583 0
M  V30 9009 C 840.809 0.371434 -1.98657 0
M  V30 9010 C 841.13 1.58143 -1.14087 0
M  V30 9011 O 840.4 1.94607 -0.224708 0
M  V30 9012 H 838.98 0.140225 -0.733721 0
M  V30 9013 H 841.642 -0.351157 -1.9171 0
M  V30 9014 H 840.738 0.677554 -3.04657 0
M  V30 9015 N 841.039 1.57585 0.0217189 0
M  V30 9016 C 842.002 2.06004 1.00474 0
M  V30 9017 C 843.002 0.965461 1.2859 0
M  V30 9018 O 844.192 1.22884 1.23471 0
M  V30 9019 C 841.324 2.48319 2.33561 0
M  V30 9020 H 842.517 2.94112 0.586346 0
M  V30 9021 H 840.07 1.53973 0.268716 0
M  V30 9022 H 840.805 1.63389 2.80133 0
M  V30 9023 H 840.59 3.28239 2.1448 0
M  V30 9024 H 842.08 2.86181 3.04122 0
M  V30 9025 N 842.517 -0.29412 1.54831 0
M  V30 9026 C 843.45 -1.38779 1.81151 0
M  V30 9027 C 844.428 -1.48464 0.663124 0
M  V30 9028 O 845.612 -1.65418 0.903835 0
M  V30 9029 C 842.739 -2.76627 1.95436 0
M  V30 9030 C 841.785 -2.84333 3.17895 0
M  V30 9031 S 842.618 -2.45726 4.75793 0
M  V30 9032 C 843.774 -3.85589 4.93023 0
M  V30 9033 H 844.007 -1.16246 2.73631 0
M  V30 9034 H 841.54 -0.492611 1.46331 0
M  V30 9035 H 843.498 -3.56021 2.04351 0
M  V30 9036 H 842.159 -2.96425 1.03881 0
M  V30 9037 H 841.352 -3.85457 3.24713 0
M  V30 9038 H 840.954 -2.1294 3.07461 0
M  V30 9039 H 843.246 -4.80656 4.77468 0
M  V30 9040 H 844.189 -3.83737 5.95107 0
M  V30 9041 H 844.597 -3.75911 4.21131 0
M  V30 9042 N 843.995 -1.47404 -0.557645 0
M  V30 9043 C 845.242 -1.54007 -1.31484 0
M  V30 9044 C 845.57 -0.202162 -1.93447 0
M  V30 9045 O 844.825 0.804901 -1.78381 0
M  V30 9046 C 845.124 -2.6061 -2.44575 0
M  V30 9047 C 844.79 -4.03896 -2.00446 0
M  V30 9048 C 843.452 -4.42901 -1.88127 0
M  V30 9049 C 845.804 -4.93804 -1.66754 0
M  V30 9050 C 843.132 -5.6965 -1.40411 0
M  V30 9051 C 845.484 -6.21016 -1.20509 0
M  V30 9052 C 844.148 -6.58903 -1.06786 0
M  V30 9053 H 843.418 -0.563552 -0.481134 0
M  V30 9054 H 846.065 -1.81001 -0.625375 0
M  V30 9055 H 844.37 -2.27371 -3.19076 0
M  V30 9056 H 846.067 -2.62941 -3.02759 0
M  V30 9057 H 842.657 -3.73077 -2.10977 0
M  V30 9058 H 846.841 -4.64369 -1.75144 0
M  V30 9059 H 842.097 -5.97755 -1.2845 0
M  V30 9060 H 846.271 -6.90095 -0.935001 0
M  V30 9061 H 843.898 -7.57008 -0.695891 0
M  V30 9062 N 845.473 0.80434 -1.35529 0
M  V30 9063 C 846.436 1.89788 -1.28503 0
M  V30 9064 C 847.436 1.59601 -0.195983 0
M  V30 9065 O 848.626 1.68292 -0.449827 0
M  V30 9066 C 845.758 3.26255 -0.98847 0
M  V30 9067 H 846.951 1.97436 -2.25741 0
M  V30 9068 H 844.504 1.00046 -1.20086 0
M  V30 9069 H 845.239 3.24294 -0.0200541 0
M  V30 9070 H 845.024 3.49551 -1.77641 0
M  V30 9071 H 846.514 4.06298 -0.964975 0
M  V30 9072 N 846.951 1.19563 1.02676 0
M  V30 9073 C 847.898 0.935291 2.11 0
M  V30 9074 C 848.868 -0.130685 1.65585 0
M  V30 9075 O 850.053 0.0119062 1.90796 0
M  V30 9076 C 847.193 0.482384 3.41712 0
M  V30 9077 C 846.306 1.61537 4.00662 0
M  V30 9078 C 845.441 1.11378 5.19392 0
M  V30 9079 C 844.48 2.22052 5.70403 0
M  V30 9080 N 843.617 1.73185 6.80405 0
M  V30 9081 H 848.457 1.86275 2.32606 0
M  V30 9082 H 845.994 0.928656 1.14081 0
M  V30 9083 H 847.952 0.20118 4.16715 0
M  V30 9084 H 846.582 -0.408086 3.2021 0
M  V30 9085 H 845.634 2.01173 3.22852 0
M  V30 9086 H 846.946 2.44912 4.34534 0
M  V30 9087 H 846.1 0.787935 6.01562 0
M  V30 9088 H 844.839 0.249789 4.8706 0
M  V30 9089 H 843.844 2.55465 4.86845 0
M  V30 9090 H 845.069 3.08911 6.04774 0
M  V30 9091 H 843.015 0.890973 6.49921 0
M  V30 9092 H 842.932 2.50148 7.13416 0
M  V30 9093 H 844.2 1.4357 7.66164 0
M  V30 9094 N 848.429 -1.21819 0.999893 0
M  V30 9095 C 849.657 -1.94758 0.698359 0
M  V30 9096 C 850.072 -1.73771 -0.738183 0
M  V30 9097 O 849.429 -1.04113 -1.49889 0
M  V30 9098 C 849.48 -3.47292 1.00353 0
M  V30 9099 O 849.201 -3.67579 2.38363 0
M  V30 9100 C 850.702 -4.37403 0.72068 0
M  V30 9101 H 847.922 -0.619512 0.257771 0
M  V30 9102 H 850.466 -1.54778 1.33656 0
M  V30 9103 H 848.621 -3.85213 0.411018 0
M  V30 9104 H 849.035 -4.61719 2.48829 0
M  V30 9105 H 850.509 -5.43151 0.984422 0
M  V30 9106 H 850.986 -4.3784 -0.345309 0
M  V30 9107 H 851.592 -4.05119 1.29456 0
M  V30 9108 N 849.908 -0.773975 -1.37286 0
M  V30 9109 C 851.154 -0.348833 -2.00386 0
M  V30 9110 C 851.509 1.06347 -1.60337 0
M  V30 9111 O 850.802 1.72178 -0.840545 0
M  V30 9112 C 850.996 -0.432651 -3.54772 0
M  V30 9113 C 850.825 -1.85155 -4.09814 0
M  V30 9114 C 849.595 -2.47272 -4.40664 0
M  V30 9115 C 851.793 -2.8114 -4.30656 0
M  V30 9116 N 849.775 -3.80912 -4.81435 0
M  V30 9117 C 851.146 -3.99582 -4.74061 0
M  V30 9118 C 853.201 -2.78398 -4.12794 0
M  V30 9119 C 851.904 -5.1567 -5.01475 0
M  V30 9120 C 853.93 -3.9366 -4.41345 0
M  V30 9121 C 853.292 -5.10844 -4.84992 0
M  V30 9122 H 849.391 -0.174738 -0.762227 0
M  V30 9123 H 851.975 -1.00828 -1.66559 0
M  V30 9124 H 850.146 0.19663 -3.87902 0
M  V30 9125 H 851.878 0.0147601 -4.04697 0
M  V30 9126 H 848.633 -1.98872 -4.29822 0
M  V30 9127 H 849.057 -4.49628 -5.06126 0
M  V30 9128 H 853.699 -1.8897 -3.7822 0
M  V30 9129 H 851.417 -6.05696 -5.34938 0
M  V30 9130 H 855.003 -3.92882 -4.2911 0
M  V30 9131 H 853.883 -5.98553 -5.0666 0
M  V30 9132 N 851.386 1.48609 -0.524698 0
M  V30 9133 C 852.802 1.58557 -0.182199 0
M  V30 9134 C 853.002 1.52732 1.31435 0
M  V30 9135 O 852.058 1.41362 2.0922 0
M  V30 9136 C 853.371 2.90406 -0.78004 0
M  V30 9137 C 854.919 3.03924 -0.748293 0
M  V30 9138 C 855.394 4.38427 -1.32462 0
M  V30 9139 N 856.885 4.4498 -1.28635 0
M  V30 9140 C 857.62 5.47551 -1.70223 0
M  V30 9141 N 857.116 6.57103 -2.19515 0
M  V30 9142 N 858.909 5.38402 -1.61493 0
M  V30 9143 H 851.06 1.50638 -1.4974 0
M  V30 9144 H 853.323 0.714952 -0.622533 0
M  V30 9145 H 853.029 3.00308 -1.83052 0
M  V30 9146 H 852.903 3.76343 -0.254075 0
M  V30 9147 H 855.29 2.93638 0.293407 0
M  V30 9148 H 855.371 2.19611 -1.31167 0
M  V30 9149 H 855.015 4.49466 -2.36522 0
M  V30 9150 H 854.945 5.21418 -0.736967 0
M  V30 9151 H 857.436 3.66393 -0.92545 0
M  V30 9152 H 857.749 7.31499 -2.49257 0
M  V30 9153 H 856.094 6.58081 -2.23506 0
M  V30 9154 H 859.285 4.5171 -1.22785 0
M  V30 9155 H 859.458 6.18208 -1.94225 0
M  V30 9156 N 852.864 0.259585 1.55447 0
M  V30 9157 C 854.11 -0.362143 1.9954 0
M  V30 9158 C 854.443 -1.5666 1.14767 0
M  V30 9159 O 853.718 -1.93319 0.214025 0
M  V30 9160 C 854.001 -0.759588 3.51998 0
M  V30 9161 C 853.854 0.451134 4.47532 0
M  V30 9162 C 855.173 -1.60186 4.09913 0
M  V30 9163 H 852.292 -0.130157 0.725416 0
M  V30 9164 H 854.934 0.363431 1.86492 0
M  V30 9165 H 853.084 -1.3778 3.63248 0
M  V30 9166 H 854.756 1.08965 4.48246 0
M  V30 9167 H 852.999 1.092 4.19831 0
M  V30 9168 H 853.67 0.129518 5.51848 0
M  V30 9169 H 856.146 -1.0799 4.01842 0
M  V30 9170 H 855.022 -1.84879 5.16828 0
M  V30 9171 H 855.283 -2.57787 3.59163 0
M  V30 9172 N 854.342 -1.57594 -0.0133615 0
M  V30 9173 C 855.292 -2.04048 -1.01726 0
M  V30 9174 C 856.276 -0.932682 -1.3111 0
M  V30 9175 O 857.468 -1.19652 -1.30432 0
M  V30 9176 C 854.597 -2.53637 -2.31351 0
M  V30 9177 C 853.683 -3.71269 -2.04989 0
M  V30 9178 N 854.074 -4.83436 -1.48739 0
M  V30 9179 C 852.372 -3.78943 -2.35198 0
M  V30 9180 C 853.073 -5.64961 -1.38542 0
M  V30 9181 N 852.049 -5.10554 -1.86643 0
M  V30 9182 H 855.851 -2.88188 -0.576623 0
M  V30 9183 H 853.365 -1.60912 -0.219344 0
M  V30 9184 H 855.362 -2.85186 -3.04096 0
M  V30 9185 H 854.022 -1.7091 -2.76079 0
M  V30 9186 H 855.033 -5.04558 -1.16798 0
M  V30 9187 H 851.71 -3.07047 -2.82893 0
M  V30 9188 H 853.1 -6.65092 -0.954075 0
M  V30 9189 N 855.82 0.285905 -1.54985 0
M  V30 9190 C 856.783 1.33625 -1.86218 0
M  V30 9191 C 857.783 1.42971 -0.735936 0
M  V30 9192 O 858.973 1.42345 -1.00417 0
M  V30 9193 C 856.105 2.71926 -2.05595 0
M  V30 9194 H 857.298 1.07167 -2.80099 0
M  V30 9195 H 854.851 0.523335 -1.47278 0
M  V30 9196 H 855.586 3.03583 -1.14053 0
M  V30 9197 H 855.371 2.6653 -2.87583 0
M  V30 9198 H 856.861 3.47841 -2.31077 0
M  V30 9199 N 857.298 1.47698 0.54982 0
M  V30 9200 C 858.547 1.53961 1.30303 0
M  V30 9201 C 858.86 0.209731 1.94472 0
M  V30 9202 O 860.066 0.150418 2.71083 0
M  V30 9203 C 858.522 2.71436 2.36328 0
M  V30 9204 C 858.13 4.10983 1.78316 0
M  V30 9205 C 859.874 2.86996 3.12783 0
M  V30 9206 C 857.781 5.19747 2.82164 0
M  V30 9207 H 856.711 0.573098 0.489975 0
M  V30 9208 H 859.362 1.73989 0.583089 0
M  V30 9209 H 857.744 2.44801 3.11269 0
M  V30 9210 H 858.918 4.47552 1.09697 0
M  V30 9211 H 857.233 4.00371 1.1442 0
M  V30 9212 H 859.83 3.65422 3.90347 0
M  V30 9213 H 860.173 1.95712 3.67427 0
M  V30 9214 H 860.706 3.13436 2.44954 0
M  V30 9215 H 857.445 6.12932 2.32366 0
M  V30 9216 H 856.965 4.87688 3.49171 0
M  V30 9217 H 858.644 5.47014 3.4552 0
M  V30 9218 N 858.776 -0.797141 1.35954 0
M  V30 9219 C 860.023 -1.55468 1.29754 0
M  V30 9220 C 860.351 -1.94095 -0.125391 0
M  V30 9221 O 859.606 -1.62341 -1.09288 0
M  V30 9222 C 859.905 -2.84847 2.15863 0
M  V30 9223 C 859.571 -2.65394 3.64523 0
M  V30 9224 C 858.233 -2.59796 4.05042 0
M  V30 9225 C 860.585 -2.4727 4.58811 0
M  V30 9226 C 857.913 -2.3403 5.38002 0
M  V30 9227 C 860.265 -2.23032 5.91979 0
M  V30 9228 C 858.929 -2.15862 6.31633 0
M  V30 9229 H 858.199 -0.568897 0.474803 0
M  V30 9230 H 860.846 -0.920299 1.67937 0
M  V30 9231 H 859.151 -3.52712 1.70591 0
M  V30 9232 H 860.848 -3.42597 2.08395 0
M  V30 9233 H 857.438 -2.70602 3.32374 0
M  V30 9234 H 861.622 -2.506 4.28384 0
M  V30 9235 H 856.878 -2.26956 5.67715 0
M  V30 9236 H 861.052 -2.08001 6.64612 0
M  V30 9237 H 858.679 -1.9566 7.34589 0
M  V30 9238 N 860.254 -1.20106 -1.0204 0
M  V30 9239 C 861.201 -0.946468 -2.10501 0
M  V30 9240 C 862.171 0.121902 -1.65652 0
M  V30 9241 O 863.356 -0.0220244 -1.90787 0
M  V30 9242 C 860.496 -0.500499 -3.41451 0
M  V30 9243 C 859.609 -1.63659 -3.998 0
M  V30 9244 C 858.744 -1.14131 -5.18794 0
M  V30 9245 C 857.783 -2.25074 -5.69217 0
M  V30 9246 N 856.92 -1.76791 -6.79477 0
M  V30 9247 H 861.76 -1.87506 -2.31615 0
M  V30 9248 H 859.297 -0.934693 -1.13587 0
M  V30 9249 H 861.255 -0.223276 -4.16602 0
M  V30 9250 H 859.885 0.391099 -3.20422 0
M  V30 9251 H 858.937 -2.02882 -3.21781 0
M  V30 9252 H 860.249 -2.47213 -4.33229 0
M  V30 9253 H 859.403 -0.819826 -6.01135 0
M  V30 9254 H 858.142 -0.275615 -4.86921 0
M  V30 9255 H 857.147 -2.58043 -4.85483 0
M  V30 9256 H 858.372 -3.12114 -6.03127 0
M  V30 9257 H 856.318 -0.925428 -6.4944 0
M  V30 9258 H 856.235 -2.53928 -7.12079 0
M  V30 9259 H 857.503 -1.47631 -7.65392 0
M  V30 9260 N 861.732 1.21287 -1.00634 0
M  V30 9261 C 862.68 2.25733 -0.561026 0
M  V30 9262 C 863.674 1.64728 0.395095 0
M  V30 9263 O 864.88 1.78022 0.266141 0
M  V30 9264 H 861.255 0.734104 -0.163081 0
M  V30 9265 H 863.226 2.60631 -1.45307 0
M  V30 9266 C 861.975 3.47569 0.0952587 0
M  V30 9267 H 861.298 3.94782 -0.631427 0
M  V30 9268 H 862.738 4.22382 0.370105 0
M  V30 9269 C 861.197 3.09326 1.33488 0
M  V30 9270 O 861.727 3.19933 2.42912 0
M  V30 9271 N 859.933 2.63976 1.21512 0
M  V30 9272 H 859.48 2.55545 0.324741 0
M  V30 9273 H 859.438 2.38757 2.04555 0
M  V30 9274 N 863.21 0.781244 1.36873 0
M  V30 9275 C 864.456 0.350407 1.9975 0
M  V30 9276 C 864.789 -1.07293 1.6187 0
M  V30 9277 O 864.064 -1.73983 0.869491 0
M  V30 9278 C 864.347 0.504834 3.56544 0
M  V30 9279 C 864.2 1.97127 4.04303 0
M  V30 9280 C 865.519 -0.0851272 4.40018 0
M  V30 9281 H 862.638 0.128794 0.725659 0
M  V30 9282 H 865.28 0.98606 1.6241 0
M  V30 9283 H 863.43 -0.0363006 3.88483 0
M  V30 9284 H 865.102 2.57284 3.82887 0
M  V30 9285 H 863.345 2.47676 3.56145 0
M  V30 9286 H 864.016 2.03033 5.13305 0
M  V30 9287 H 866.492 0.376704 4.14391 0
M  V30 9288 H 865.368 0.0530015 5.48874 0
M  V30 9289 H 865.629 -1.17642 4.2616 0
M  V30 9290 N 864.689 -1.48329 0.532571 0
M  V30 9291 C 865.636 -2.29663 -0.228779 0
M  V30 9292 C 866.606 -1.37529 -0.931401 0
M  V30 9293 O 867.791 -1.66493 -0.931921 0
M  V30 9294 C 864.931 -3.20955 -1.26814 0
M  V30 9295 C 864.044 -4.28168 -0.574099 0
M  V30 9296 C 863.179 -5.06638 -1.59661 0
M  V30 9297 C 862.218 -6.05651 -0.88618 0
M  V30 9298 N 861.355 -6.77169 -1.85436 0
M  V30 9299 H 866.195 -2.94255 0.47098 0
M  V30 9300 H 863.732 -1.45061 0.2441 0
M  V30 9301 H 865.69 -3.72285 -1.88307 0
M  V30 9302 H 864.32 -2.58281 -1.93625 0
M  V30 9303 H 863.372 -3.80085 0.154827 0
M  V30 9304 H 864.684 -4.98797 -0.0163984 0
M  V30 9305 H 863.838 -5.61995 -2.28576 0
M  V30 9306 H 862.577 -4.35854 -2.18821 0
M  V30 9307 H 861.582 -5.49495 -0.182981 0
M  V30 9308 H 862.807 -6.78434 -0.300659 0
M  V30 9309 H 860.753 -6.09134 -2.43499 0
M  V30 9310 H 860.67 -7.43882 -1.34816 0
M  V30 9311 H 861.938 -7.37114 -2.53541 0
M  V30 9312 N 866.167 -0.267825 -1.55308 0
M  V30 9313 C 867.1 0.663973 -2.18327 0
M  V30 9314 C 868.078 1.15759 -1.14187 0
M  V30 9315 O 869.262 1.23189 -1.42677 0
M  V30 9316 C 866.389 1.9047 -2.8007 0
M  V30 9317 C 865.435 1.54718 -3.97447 0
M  V30 9318 S 866.268 0.631654 -5.31762 0
M  V30 9319 C 867.424 1.88092 -5.96969 0
M  V30 9320 H 867.657 0.128486 -2.97022 0
M  V30 9321 H 865.19 -0.052129 -1.54312 0
M  V30 9322 H 867.148 2.61688 -3.16275 0
M  V30 9323 H 865.809 2.41132 -2.01281 0
M  V30 9324 H 865.002 2.47022 -4.39313 0
M  V30 9325 H 864.604 0.915254 -3.62628 0
M  V30 9326 H 866.896 2.82572 -6.15759 0
M  V30 9327 H 867.839 1.50539 -6.91913 0
M  V30 9328 H 868.247 2.04254 -5.26252 0
M  V30 9329 N 867.645 1.57599 0.00500368 0
M  V30 9330 C 868.592 2.08106 0.998025 0
M  V30 9331 C 869.562 0.975374 1.34446 0
M  V30 9332 O 870.747 1.24749 1.44369 0
M  V30 9333 C 867.887 2.58496 2.28635 0
M  V30 9334 C 867 3.82947 1.99939 0
M  V30 9335 C 866.135 4.21857 3.22816 0
M  V30 9336 C 865.174 5.39159 2.89783 0
M  V30 9337 N 864.311 5.73386 4.05183 0
M  V30 9338 H 869.151 2.92684 0.560385 0
M  V30 9339 H 866.688 1.44692 0.265053 0
M  V30 9340 H 868.646 2.85787 3.03943 0
M  V30 9341 H 867.276 1.768 2.70077 0
M  V30 9342 H 866.328 3.62594 1.1502 0
M  V30 9343 H 867.64 4.68358 1.71588 0
M  V30 9344 H 866.794 4.50404 4.06474 0
M  V30 9345 H 865.533 3.35145 3.54301 0
M  V30 9346 H 864.538 5.1034 2.04532 0
M  V30 9347 H 865.763 6.27543 2.59551 0
M  V30 9348 H 863.709 4.89632 4.36574 0
M  V30 9349 H 863.626 6.53359 3.80339 0
M  V30 9350 H 864.894 6.06522 4.89644 0
M  V30 9351 N 869.123 -0.277682 1.55134 0
M  V30 9352 C 870.07 -1.34313 1.87693 0
M  V30 9353 C 871.04 -1.49298 0.727973 0
M  V30 9354 O 872.225 -1.6378 0.978807 0
M  V30 9355 C 869.365 -2.69922 2.15026 0
M  V30 9356 C 868.478 -2.63197 3.42565 0
M  V30 9357 C 867.613 -3.90955 3.59622 0
M  V30 9358 C 866.652 -3.78722 4.8087 0
M  V30 9359 N 865.789 -4.98303 4.94609 0
M  V30 9360 H 870.629 -1.05847 2.78569 0
M  V30 9361 H 868.166 -0.511469 1.37922 0
M  V30 9362 H 870.124 -3.48817 2.28872 0
M  V30 9363 H 868.754 -2.966 1.2739 0
M  V30 9364 H 867.806 -1.76038 3.37216 0
M  V30 9365 H 869.118 -2.50056 4.31594 0
M  V30 9366 H 868.272 -4.78291 3.7326 0
M  V30 9367 H 867.011 -4.06957 2.6877 0
M  V30 9368 H 866.016 -2.89769 4.67241 0
M  V30 9369 H 867.241 -3.64242 5.73153 0
M  V30 9370 H 865.187 -5.14725 4.06687 0
M  V30 9371 H 865.104 -4.87675 5.77676 0
M  V30 9372 H 866.372 -5.87225 5.12628 0
M  V30 9373 N 870.601 -1.47988 -0.541979 0
M  V30 9374 C 871.548 -1.61615 -1.6477 0
M  V30 9375 C 872.518 -0.458602 -1.59644 0
M  V30 9376 O 873.703 -0.680585 -1.78249 0
M  V30 9377 C 870.843 -1.65066 -3.03063 0
M  V30 9378 C 869.956 -2.91845 -3.18513 0
M  V30 9379 C 869.091 -2.86534 -4.47294 0
M  V30 9380 C 868.13 -4.0807 -4.5623 0
M  V30 9381 N 867.267 -4.00905 -5.76385 0
M  V30 9382 H 872.107 -2.56046 -1.52461 0
M  V30 9383 H 869.644 -1.26989 -0.742449 0
M  V30 9384 H 871.602 -1.65049 -3.83164 0
M  V30 9385 H 870.232 -0.74136 -3.14171 0
M  V30 9386 H 869.284 -3.01661 -2.31743 0
M  V30 9387 H 870.596 -3.81804 -3.20978 0
M  V30 9388 H 869.75 -2.84851 -5.35672 0
M  V30 9389 H 868.489 -1.94283 -4.47332 0
M  V30 9390 H 867.494 -4.10041 -3.66261 0
M  V30 9391 H 868.719 -5.01465 -4.5794 0
M  V30 9392 H 866.665 -3.11467 -5.77342 0
M  V30 9393 H 866.582 -4.84557 -5.80293 0
M  V30 9394 H 867.85 -4.03263 -6.67083 0
M  V30 9395 N 872.079 0.78992 -1.36375 0
M  V30 9396 C 873.328 1.54296 -1.29906 0
M  V30 9397 C 873.641 1.95234 0.119651 0
M  V30 9398 O 874.847 2.69762 0.306708 0
M  V30 9399 C 873.303 2.78533 -2.27919 0
M  V30 9400 C 872.911 2.44767 -3.75224 0
M  V30 9401 C 874.655 3.56516 -2.30427 0
M  V30 9402 C 872.562 3.65397 -4.65015 0
M  V30 9403 H 871.492 0.579214 -0.482729 0
M  V30 9404 H 874.143 0.866845 -1.61735 0
M  V30 9405 H 872.525 3.47941 -1.89084 0
M  V30 9406 H 873.699 1.83259 -4.22792 0
M  V30 9407 H 872.014 1.79996 -3.75487 0
M  V30 9408 H 874.611 4.46143 -2.94722 0
M  V30 9409 H 874.954 3.95063 -1.31266 0
M  V30 9410 H 875.487 2.94087 -2.67876 0
M  V30 9411 H 872.226 3.31946 -5.65236 0
M  V30 9412 H 871.746 4.26072 -4.22164 0
M  V30 9413 H 873.425 4.32431 -4.81261 0
M  V30 9414 N 873.557 1.20646 1.01402 0
M  V30 9415 C 874.806 1.01242 1.7445 0
M  V30 9416 C 875.119 -0.455732 1.90217 0
M  V30 9417 O 876.325 -0.768951 2.60383 0
M  V30 9418 C 874.781 1.76275 3.13776 0
M  V30 9419 C 874.389 3.27201 3.06013 0
M  V30 9420 C 876.133 1.65248 3.91016 0
M  V30 9421 C 874.04 3.9476 4.40362 0
M  V30 9422 H 872.97 0.375202 0.654018 0
M  V30 9423 H 875.621 1.44292 1.13367 0
M  V30 9424 H 874.003 1.26013 3.75415 0
M  V30 9425 H 875.177 3.84695 2.53665 0
M  V30 9426 H 873.492 3.38669 2.42265 0
M  V30 9427 H 876.089 2.13061 4.90417 0
M  V30 9428 H 876.432 0.609128 4.1182 0
M  V30 9429 H 876.965 2.12937 3.3601 0
M  V30 9430 H 873.704 4.99258 4.24761 0
M  V30 9431 H 873.224 3.42054 4.92706 0
M  V30 9432 H 874.903 3.99159 5.09196 0
M  V30 9433 N 875.035 -1.20752 1.01276 0
M  V30 9434 C 875.982 -2.234 0.579732 0
M  V30 9435 C 876.952 -1.61256 -0.398206 0
M  V30 9436 O 878.137 -1.8845 -0.29851 0
M  V30 9437 C 875.277 -3.45008 -0.0797006 0
M  V30 9438 C 874.39 -4.21597 0.942343 0
M  V30 9439 C 873.525 -5.30591 0.254364 0
M  V30 9440 C 872.564 -5.98919 1.26343 0
M  V30 9441 N 871.701 -6.99511 0.602384 0
M  V30 9442 H 876.541 -2.59801 1.45971 0
M  V30 9443 H 874.078 -1.27663 0.730787 0
M  V30 9444 H 876.036 -4.1444 -0.479125 0
M  V30 9445 H 874.666 -3.09312 -0.923354 0
M  V30 9446 H 873.718 -3.51268 1.45996 0
M  V30 9447 H 875.03 -4.68576 1.70992 0
M  V30 9448 H 874.184 -6.06368 -0.200763 0
M  V30 9449 H 872.923 -4.84639 -0.545553 0
M  V30 9450 H 871.928 -5.21906 1.72898 0
M  V30 9451 H 873.153 -6.46957 2.06456 0
M  V30 9452 H 871.099 -6.55759 -0.177734 0
M  V30 9453 H 871.016 -7.44597 1.30809 0
M  V30 9454 H 872.284 -7.79313 0.17072 0
M  V30 9455 N 876.513 -0.788492 -1.36457 0
M  V30 9456 C 877.79 -0.284484 -1.9352 0
M  V30 9457 C 878.17 1.2232 -1.7205 0
M  V30 9458 O 877.518 2.01424 -1.07892 0
M  V30 9459 C 877.728 -0.676106 -3.42388 0
M  V30 9460 C 879.076 -0.655327 -4.19512 0
M  V30 9461 O 880.1 -0.616523 -3.50824 0
M  V30 9462 O 878.959 -0.697391 -5.42032 0
M  V30 9463 H 876.053 -0.0701769 -0.824017 0
M  V30 9464 H 878.599 -0.870974 -1.45644 0
M  V30 9465 H 877.371 -1.71596 -3.51668 0
M  V30 9466 H 876.994 -0.0634517 -3.97549 0
M  V30 9467 N 877.991 1.48044 -0.54043 0
M  V30 9468 C 878.923 2.2779 0.253854 0
M  V30 9469 C 879.936 1.35999 0.894883 0
M  V30 9470 O 881.125 1.60963 0.771563 0
M  V30 9471 C 878.225 3.09724 1.37566 0
M  V30 9472 C 877.398 4.29364 0.83459 0
M  V30 9473 C 876.457 4.93026 1.83881 0
M  V30 9474 O 875.483 5.51927 1.39159 0
M  V30 9475 N 876.685 4.86207 3.17149 0
M  V30 9476 H 879.45 2.96597 -0.430125 0
M  V30 9477 H 877.011 1.57487 -0.375423 0
M  V30 9478 H 879.003 3.49181 2.04584 0
M  V30 9479 H 877.573 2.43269 1.96314 0
M  V30 9480 H 876.793 3.94198 -0.0118878 0
M  V30 9481 H 878.081 5.06787 0.452155 0
M  V30 9482 H 877.479 4.39523 3.56141 0
M  V30 9483 H 876.036 5.29733 3.79771 0
M  V30 9484 N 879.47 0.276058 1.55163 0
M  V30 9485 C 880.417 -0.611006 2.22565 0
M  V30 9486 C 881.387 -1.14902 1.19945 0
M  V30 9487 O 882.572 -1.19815 1.48489 0
M  V30 9488 C 879.712 -1.78885 2.95117 0
M  V30 9489 C 878.825 -1.2846 4.12458 0
M  V30 9490 C 877.96 -2.42432 4.72652 0
M  V30 9491 C 876.999 -1.89015 5.82185 0
M  V30 9492 N 876.136 -2.96463 6.36439 0
M  V30 9493 H 880.976 -0.0295849 2.97985 0
M  V30 9494 H 878.513 -0.00283607 1.471 0
M  V30 9495 H 880.471 -2.48121 3.35398 0
M  V30 9496 H 879.101 -2.34229 2.22119 0
M  V30 9497 H 878.153 -0.485312 3.77292 0
M  V30 9498 H 879.465 -0.853358 4.91446 0
M  V30 9499 H 878.619 -3.19659 5.15658 0
M  V30 9500 H 877.358 -2.88872 3.92943 0
M  V30 9501 H 876.363 -1.10267 5.38629 0
M  V30 9502 H 877.588 -1.43509 6.63763 0
M  V30 9503 H 875.534 -3.42283 5.59623 0
M  V30 9504 H 875.451 -2.57759 7.10701 0
M  V30 9505 H 876.719 -3.73663 6.84103 0
M  V30 9506 N 880.948 -1.576 0.00335426 0
M  V30 9507 C 881.878 -2.11668 -0.985839 0
M  V30 9508 C 882.859 -1.02661 -1.35627 0
M  V30 9509 O 884.044 -1.30361 -1.43943 0
M  V30 9510 C 881.174 -2.62273 -2.27662 0
M  V30 9511 C 880.128 -3.75837 -2.0477 0
M  V30 9512 C 879.454 -4.12769 -3.39891 0
M  V30 9513 C 880.754 -5.02975 -1.40759 0
M  V30 9514 H 882.448 -2.9457 -0.535637 0
M  V30 9515 H 879.994 -1.41702 -0.256204 0
M  V30 9516 H 881.947 -2.98727 -2.97221 0
M  V30 9517 H 880.671 -1.76498 -2.74802 0
M  V30 9518 H 879.33 -3.39782 -1.37636 0
M  V30 9519 H 878.978 -3.24013 -3.8474 0
M  V30 9520 H 878.678 -4.89281 -3.25389 0
M  V30 9521 H 880.202 -4.51784 -4.1076 0
M  V30 9522 H 881.616 -5.37179 -2.00279 0
M  V30 9523 H 880.013 -5.84315 -1.36734 0
M  V30 9524 H 881.083 -4.83431 -0.377218 0
M  V30 9525 N 882.426 0.269451 -1.5528 0
M  V30 9526 C 883.356 1.33729 -1.91413 0
M  V30 9527 C 884.337 1.51348 -0.776391 0
M  V30 9528 O 885.522 1.64332 -1.03482 0
M  V30 9529 C 882.652 2.69618 -2.18914 0
M  V30 9530 C 881.606 2.66725 -3.34726 0
M  V30 9531 C 880.932 4.06199 -3.47716 0
M  V30 9532 C 882.232 2.25684 -4.71025 0
M  V30 9533 H 883.926 1.03736 -2.80854 0
M  V30 9534 H 881.472 0.497579 -1.3513 0
M  V30 9535 H 883.425 3.44436 -2.42779 0
M  V30 9536 H 882.149 3.01201 -1.26275 0
M  V30 9537 H 880.808 1.94365 -3.10834 0
M  V30 9538 H 880.456 4.3501 -2.52537 0
M  V30 9539 H 880.156 4.05157 -4.25583 0
M  V30 9540 H 881.68 4.8275 -3.73877 0
M  V30 9541 H 883.094 2.90225 -4.94411 0
M  V30 9542 H 881.491 2.35797 -5.51833 0
M  V30 9543 H 882.561 1.20819 -4.69607 0
M  V30 9544 N 883.904 1.48273 0.534124 0
M  V30 9545 C 885.15 1.56311 1.29208 0
M  V30 9546 C 885.483 0.234481 1.92779 0
M  V30 9547 O 884.758 -0.759143 1.79073 0
M  V30 9548 C 885.041 2.69831 2.3846 0
M  V30 9549 C 884.894 4.12385 1.79608 0
M  V30 9550 C 886.213 2.79133 3.40254 0
M  V30 9551 H 883.332 0.56899 0.468422 0
M  V30 9552 H 885.974 1.80429 0.595438 0
M  V30 9553 H 884.124 2.49397 2.97881 0
M  V30 9554 H 885.796 4.44246 1.24269 0
M  V30 9555 H 884.039 4.19579 1.10162 0
M  V30 9556 H 884.71 4.87629 2.58693 0
M  V30 9557 H 887.186 2.97632 2.90783 0
M  V30 9558 H 886.062 3.60298 4.14097 0
M  V30 9559 H 886.323 1.87122 4.00547 0
M  V30 9560 N 885.382 -0.782676 1.36792 0
M  V30 9561 C 886.631 -1.53605 1.30723 0
M  V30 9562 C 886.944 -1.95294 -0.109296 0
M  V30 9563 O 888.15 -2.69921 -0.292398 0
M  V30 9564 C 886.606 -2.77321 2.29393 0
M  V30 9565 C 886.214 -2.42774 3.76517 0
M  V30 9566 C 887.958 -3.55289 2.32314 0
M  V30 9567 C 885.865 -3.62926 4.66947 0
M  V30 9568 H 884.795 -0.576646 0.485794 0
M  V30 9569 H 887.446 -0.858255 1.62192 0
M  V30 9570 H 885.828 -3.46934 1.90927 0
M  V30 9571 H 887.002 -1.81014 4.23758 0
M  V30 9572 H 885.317 -1.78002 3.76436 0
M  V30 9573 H 887.914 -4.44573 2.97083 0
M  V30 9574 H 888.257 -3.94361 1.3336 0
M  V30 9575 H 888.79 -2.92662 2.69432 0
M  V30 9576 H 885.529 -3.28944 5.66989 0
M  V30 9577 H 885.049 -4.23828 4.24418 0
M  V30 9578 H 886.728 -4.29873 4.83548 0
M  V30 9579 N 886.86 -1.21182 -1.00761 0
M  V30 9580 C 888.106 -1.02898 -1.74756 0
M  V30 9581 C 888.439 0.436774 -1.89225 0
M  V30 9582 O 887.714 1.32415 -1.42466 0
M  V30 9583 C 887.997 -1.72372 -3.16164 0
M  V30 9584 C 887.85 -3.2645 -3.09435 0
M  V30 9585 C 889.169 -1.46415 -4.15031 0
M  V30 9586 H 886.288 -0.375214 -0.634337 0
M  V30 9587 H 888.93 -1.49321 -1.17487 0
M  V30 9588 H 887.08 -1.32906 -3.65059 0
M  V30 9589 H 888.752 -3.75269 -2.68274 0
M  V30 9590 H 886.995 -3.56889 -2.46603 0
M  V30 9591 H 887.666 -3.70226 -4.09435 0
M  V30 9592 H 890.142 -1.80671 -3.7483 0
M  V30 9593 H 889.018 -1.97544 -5.12121 0
M  V30 9594 H 889.279 -0.39361 -4.40344 0
M  V30 9595 N 888.338 1.20213 -1.01915 0
M  V30 9596 C 889.586 1.89272 -0.708552 0
M  V30 9597 C 889.907 1.79394 0.76438 0
M  V30 9598 O 889.177 1.198 1.54999 0
M  V30 9599 H 887.757 0.700628 -0.259094 0
M  V30 9600 H 890.419 1.45985 -1.29129 0
M  V30 9601 H 889.515 2.95841 -0.994215 0
M  V30 9602 N 889.816 0.795718 1.36037 0
M  V30 9603 C 891.064 0.370291 1.98679 0
M  V30 9604 C 891.385 -1.06332 1.63458 0
M  V30 9605 O 890.655 -1.73394 0.911671 0
M  V30 9606 H 889.235 0.133928 0.734896 0
M  V30 9607 H 891.897 1.01915 1.6613 0
M  V30 9608 H 890.993 0.467207 3.08583 0
M  V30 9609 N 891.294 -1.47756 0.548274 0
M  V30 9610 C 892.227 -2.26804 -0.252059 0
M  V30 9611 C 893.205 -1.3349 -0.928389 0
M  V30 9612 O 894.389 -1.6286 -0.949156 0
M  V30 9613 C 891.516 -3.10266 -1.35841 0
M  V30 9614 C 890.562 -4.1909 -0.791578 0
M  V30 9615 S 891.395 -5.34323 0.354878 0
M  V30 9616 C 892.551 -6.21348 -0.753511 0
M  V30 9617 H 892.784 -2.94336 0.418744 0
M  V30 9618 H 890.317 -1.50735 0.334413 0
M  V30 9619 H 892.275 -3.58925 -1.99207 0
M  V30 9620 H 890.936 -2.42112 -2.00101 0
M  V30 9621 H 890.129 -4.77183 -1.62212 0
M  V30 9622 H 889.731 -3.73266 -0.234274 0
M  V30 9623 H 892.023 -6.57156 -1.6478 0
M  V30 9624 H 892.966 -7.07788 -0.210141 0
M  V30 9625 H 893.374 -5.54797 -1.04216 0
M  V30 9626 N 892.772 -0.284283 -1.55015 0
M  V30 9627 C 893.702 0.592663 -2.25853 0
M  V30 9628 C 894.683 1.15151 -1.25197 0
M  V30 9629 O 895.868 1.18395 -1.53936 0
M  V30 9630 C 892.998 1.77254 -2.98661 0
M  V30 9631 C 891.952 1.34482 -4.06323 0
M  V30 9632 C 891.278 2.60853 -4.66754 0
M  V30 9633 C 892.578 0.488288 -5.20013 0
M  V30 9634 H 894.272 0.00187041 -2.994 0
M  V30 9635 H 891.818 -0.000540402 -1.44 0
M  V30 9636 H 893.771 2.39199 -3.46932 0
M  V30 9637 H 892.495 2.38931 -2.22664 0
M  V30 9638 H 891.154 0.748519 -3.58877 0
M  V30 9639 H 890.802 3.20808 -3.87416 0
M  V30 9640 H 890.502 2.32942 -5.39455 0
M  V30 9641 H 892.026 3.23631 -5.1778 0
M  V30 9642 H 893.44 1.01298 -5.6428 0
M  V30 9643 H 891.837 0.303669 -5.99331 0
M  V30 9644 H 892.907 -0.490727 -4.8241 0
M  V30 9645 N 894.251 1.57596 -0.0117121 0
M  V30 9646 C 895.181 2.12188 0.9746 0
M  V30 9647 C 896.162 1.03379 1.35081 0
M  V30 9648 O 897.347 1.31123 1.4325 0
M  V30 9649 C 894.477 2.63477 2.26268 0
M  V30 9650 C 893.431 3.76917 2.02774 0
M  V30 9651 C 892.757 4.14566 3.37697 0
M  V30 9652 C 894.057 5.03715 1.38089 0
M  V30 9653 H 895.751 2.9485 0.520007 0
M  V30 9654 H 893.297 1.41836 0.248685 0
M  V30 9655 H 895.25 3.00299 2.95633 0
M  V30 9656 H 893.974 1.77953 2.73862 0
M  V30 9657 H 892.633 3.40507 1.35832 0
M  V30 9658 H 892.281 3.26048 3.83016 0
M  V30 9659 H 891.981 4.91 3.22789 0
M  V30 9660 H 893.505 4.53956 4.08358 0
M  V30 9661 H 894.919 5.38233 1.97428 0
M  V30 9662 H 893.316 5.85032 1.33634 0
M  V30 9663 H 894.386 4.83624 0.351575 0
M  V30 9664 N 895.729 -0.261212 1.5542 0
M  V30 9665 C 896.978 -0.989072 1.75785 0
M  V30 9666 C 897.291 -1.8702 0.572961 0
M  V30 9667 O 898.497 -2.63374 0.659289 0
M  V30 9668 C 896.953 -1.80857 3.11157 0
M  V30 9669 C 896.561 -0.975535 4.3725 0
M  V30 9670 C 898.305 -2.53003 3.40866 0
M  V30 9671 C 896.212 -1.7901 5.63657 0
M  V30 9672 H 895.142 -0.373019 0.655266 0
M  V30 9673 H 897.793 -0.244267 1.81867 0
M  V30 9674 H 896.175 -2.59479 2.99144 0
M  V30 9675 H 897.349 -0.232661 4.60212 0
M  V30 9676 H 895.664 -0.368083 4.1477 0
M  V30 9677 H 898.261 -3.14372 4.32521 0
M  V30 9678 H 898.604 -3.23891 2.61535 0
M  V30 9679 H 899.137 -1.81403 3.54031 0
M  V30 9680 H 895.876 -1.12522 6.4577 0
M  V30 9681 H 895.396 -2.50863 5.44819 0
M  V30 9682 H 897.075 -2.36082 6.0239 0
M  V30 9683 N 897.207 -1.48554 -0.526253 0
M  V30 9684 C 898.484 -1.47252 -1.28748 0
M  V30 9685 C 898.864 -0.186245 -2.10277 0
M  V30 9686 O 898.212 0.831954 -2.12816 0
M  V30 9687 C 898.422 -2.73672 -2.16575 0
M  V30 9688 C 899.77 -3.22151 -2.76593 0
M  V30 9689 O 900.794 -2.74614 -2.2686 0
M  V30 9690 O 899.653 -4.04877 -3.67066 0
M  V30 9691 H 896.747 -0.588242 -0.581292 0
M  V30 9692 H 899.293 -1.60792 -0.5426 0
M  V30 9693 H 898.065 -3.58798 -1.56139 0
M  V30 9694 H 897.688 -2.6287 -2.98304 0
M  V30 9695 N 898.685 0.775411 -1.37205 0
M  V30 9696 C 899.615 1.90258 -1.35367 0
M  V30 9697 C 900.596 1.68634 -0.222864 0
M  V30 9698 O 901.781 1.89545 -0.422659 0
M  V30 9699 C 898.911 3.27488 -1.15623 0
M  V30 9700 C 897.865 3.63668 -2.25676 0
M  V30 9701 C 897.191 4.994 -1.91059 0
M  V30 9702 C 898.491 3.70797 -3.67841 0
M  V30 9703 H 900.185 1.92053 -2.29687 0
M  V30 9704 H 897.731 0.922597 -1.10563 0
M  V30 9705 H 899.684 4.05976 -1.12968 0
M  V30 9706 H 898.408 3.26117 -0.177573 0
M  V30 9707 H 897.067 2.87486 -2.2748 0
M  V30 9708 H 896.715 4.94565 -0.917324 0
M  V30 9709 H 896.415 5.24576 -2.64751 0
M  V30 9710 H 897.939 5.80291 -1.89985 0
M  V30 9711 H 899.353 4.39444 -3.68187 0
M  V30 9712 H 897.75 4.07468 -4.40556 0
M  V30 9713 H 898.82 2.71549 -4.01732 0
M  V30 9714 N 900.163 1.21714 1.00117 0
M  V30 9715 C 901.403 1.04818 1.75478 0
M  V30 9716 C 901.767 -0.410653 1.87557 0
M  V30 9717 O 902.968 -0.700241 2.59519 0
M  V30 9718 C 901.239 1.73055 3.12709 0
M  V30 9719 S 902.798 1.71464 4.03913 0
M  V30 9720 H 899.616 0.375534 0.603734 0
M  V30 9721 H 902.218 1.54522 1.19763 0
M  V30 9722 H 900.922 2.78376 3.01554 0
M  V30 9723 H 900.453 1.23546 3.73497 0
M  V30 9724 H 902.468 0.75845 4.90369 0
M  V30 9725 N 901.641 -1.19671 1.02551 0
M  V30 9726 C 902.89 -1.88591 0.715272 0
M  V30 9727 C 903.203 -1.80274 -0.758982 0
M  V30 9728 O 904.409 -2.44413 -1.18213 0
M  V30 9729 C 902.865 -3.38264 1.22905 0
M  V30 9730 C 902.473 -3.55146 2.73084 0
M  V30 9731 C 904.217 -4.12683 0.994649 0
M  V30 9732 C 902.124 -4.98693 3.17897 0
M  V30 9733 H 901.054 -0.706326 0.263857 0
M  V30 9734 H 903.705 -1.35322 1.23936 0
M  V30 9735 H 902.087 -3.9091 0.632892 0
M  V30 9736 H 903.261 -3.12845 3.38326 0
M  V30 9737 H 901.576 -2.94112 2.94766 0
M  V30 9738 H 904.173 -5.18536 1.30478 0
M  V30 9739 H 904.516 -4.16243 -0.0686466 0
M  V30 9740 H 905.049 -3.66164 1.55464 0
M  V30 9741 H 901.788 -5.00293 4.23542 0
M  V30 9742 H 901.308 -5.4177 2.57381 0
M  V30 9743 H 902.987 -5.67327 3.11045 0
M  V30 9744 N 903.119 -0.802921 -1.35613 0
M  V30 9745 C 904.049 -0.225131 -2.32412 0
M  V30 9746 C 905.03 0.647383 -1.57299 0
M  V30 9747 O 906.215 0.578414 -1.85386 0
M  V30 9748 C 903.345 0.630085 -3.41537 0
M  V30 9749 C 902.299 -0.143635 -4.27759 0
M  V30 9750 C 901.625 0.833046 -5.28171 0
M  V30 9751 C 902.925 -1.34054 -5.04804 0
M  V30 9752 H 904.619 -1.03385 -2.80984 0
M  V30 9753 H 902.165 -0.498593 -1.35093 0
M  V30 9754 H 904.118 1.04433 -4.08254 0
M  V30 9755 H 902.842 1.47165 -2.91565 0
M  V30 9756 H 901.501 -0.539015 -3.62616 0
M  V30 9757 H 901.149 1.67001 -4.74468 0
M  V30 9758 H 900.849 0.319697 -5.8673 0
M  V30 9759 H 902.373 1.24558 -5.97761 0
M  V30 9760 H 903.787 -1.00136 -5.64487 0
M  V30 9761 H 902.184 -1.78812 -5.72841 0
M  V30 9762 H 903.254 -2.12906 -4.35659 0
M  V30 9763 N 904.597 1.47463 -0.556102 0
M  V30 9764 C 905.846 2.01678 -0.029492 0
M  V30 9765 C 906.159 1.436 1.32809 0
M  V30 9766 O 907.365 1.89472 1.94455 0
M  V30 9767 C 905.821 3.599 -0.00223937 0
M  V30 9768 C 905.429 4.26969 -1.35651 0
M  V30 9769 C 907.173 4.2187 0.471822 0
M  V30 9770 C 905.08 5.77194 -1.28843 0
M  V30 9771 H 904.01 0.753965 -0.00725504 0
M  V30 9772 H 906.661 1.69467 -0.703789 0
M  V30 9773 H 905.043 3.89068 0.737682 0
M  V30 9774 H 906.217 4.09444 -2.11406 0
M  V30 9775 H 904.532 3.76983 -1.76842 0
M  V30 9776 H 907.129 5.31955 0.541139 0
M  V30 9777 H 907.472 3.88968 1.48356 0
M  V30 9778 H 908.005 3.97228 -0.213207 0
M  V30 9779 H 904.744 6.14713 -2.27613 0
M  V30 9780 H 904.264 5.9706 -0.572668 0
M  V30 9781 H 905.943 6.3938 -0.990031 0
M  V30 9782 N 906.075 0.2925 1.54862 0
M  V30 9783 C 907.315 -0.32024 2.01876 0
M  V30 9784 C 907.679 -1.5174 1.17639 0
M  V30 9785 O 908.88 -2.20094 1.54312 0
M  V30 9786 C 907.151 -0.67611 3.50947 0
M  V30 9787 S 908.71 -1.27292 4.19931 0
M  V30 9788 H 905.528 -0.0987374 0.704111 0
M  V30 9789 H 908.13 0.41839 1.90971 0
M  V30 9790 H 906.834 0.203797 4.09894 0
M  V30 9791 H 906.365 -1.44575 3.65871 0
M  V30 9792 H 908.38 -2.56102 4.25002 0
M  V30 9793 N 907.553 -1.57587 0.0200696 0
M  V30 9794 C 908.799 -1.92539 -0.655764 0
M  V30 9795 C 909.154 -0.896187 -1.70253 0
M  V30 9796 O 908.447 0.0890022 -1.91393 0
M  V30 9797 C 908.641 -3.32002 -1.32323 0
M  V30 9798 C 908.47 -4.48393 -0.342632 0
M  V30 9799 C 907.24 -5.05271 0.0542423 0
M  V30 9800 C 909.438 -5.12747 0.399388 0
M  V30 9801 N 907.42 -6.05181 1.03095 0
M  V30 9802 C 908.791 -6.07674 1.23014 0
M  V30 9803 C 910.846 -4.95761 0.461065 0
M  V30 9804 C 909.549 -6.87442 2.11698 0
M  V30 9805 C 911.575 -5.7613 1.33521 0
M  V30 9806 C 910.937 -6.70666 2.15376 0
M  V30 9807 H 907.036 -0.75256 -0.212549 0
M  V30 9808 H 909.62 -1.94514 0.0851247 0
M  V30 9809 H 907.791 -3.30863 -2.0343 0
M  V30 9810 H 909.523 -3.54327 -1.95537 0
M  V30 9811 H 906.278 -4.72529 -0.318327 0
M  V30 9812 H 906.702 -6.59824 1.51528 0
M  V30 9813 H 911.344 -4.22506 -0.15752 0
M  V30 9814 H 909.062 -7.60008 2.74616 0
M  V30 9815 H 912.648 -5.65023 1.38711 0
M  V30 9816 H 911.528 -7.31772 2.81922 0
M  V30 9817 N 909.032 0.252966 -1.55557 0
M  V30 9818 C 909.964 1.33585 -1.86246 0
M  V30 9819 C 910.977 1.44584 -0.748291 0
M  V30 9820 O 912.166 1.46042 -1.02635 0
M  V30 9821 C 909.266 2.71509 -2.02821 0
M  V30 9822 C 908.439 2.82853 -3.33636 0
M  V30 9823 C 907.498 4.01581 -3.40028 0
M  V30 9824 O 906.524 3.91394 -4.13278 0
M  V30 9825 N 907.726 5.14474 -2.6888 0
M  V30 9826 H 910.491 1.07596 -2.7972 0
M  V30 9827 H 908.052 0.443075 -1.55719 0
M  V30 9828 H 910.044 3.49262 -2.04445 0
M  V30 9829 H 908.614 2.90232 -1.1612 0
M  V30 9830 H 907.834 1.91823 -3.4438 0
M  V30 9831 H 909.122 2.87378 -4.19871 0
M  V30 9832 H 908.52 5.25641 -2.09087 0
M  V30 9833 H 907.077 5.90385 -2.76204 0
M  V30 9834 N 910.51 1.48831 0.518367 0
M  V30 9835 C 911.473 1.63721 1.604 0
M  V30 9836 C 912.473 0.509857 1.52503 0
M  V30 9837 O 913.663 0.775922 1.55965 0
M  V30 9838 C 910.795 1.61831 3.00039 0
M  V30 9839 H 911.988 2.60534 1.48533 0
M  V30 9840 H 909.541 1.37602 0.741309 0
M  V30 9841 H 910.276 0.665387 3.17401 0
M  V30 9842 H 910.061 2.43686 3.0718 0
M  V30 9843 H 911.551 1.75467 3.78947 0
M  V30 9844 N 911.988 -0.768124 1.37614 0
M  V30 9845 C 913.234 -1.52907 1.33219 0
M  V30 9846 C 913.567 -1.94026 -0.0821218 0
M  V30 9847 O 912.842 -1.64345 -1.04023 0
M  V30 9848 C 913.125 -2.79164 2.27463 0
M  V30 9849 C 912.978 -2.44276 3.7769 0
M  V30 9850 C 914.297 -3.81115 2.20089 0
M  V30 9851 H 911.416 -0.554712 0.485246 0
M  V30 9852 H 914.058 -0.880911 1.68345 0
M  V30 9853 H 912.208 -3.34472 1.97639 0
M  V30 9854 H 913.88 -1.94855 4.18126 0
M  V30 9855 H 912.123 -1.76925 3.96081 0
M  V30 9856 H 912.794 -3.34544 4.39072 0
M  V30 9857 H 915.27 -3.35311 2.46386 0
M  V30 9858 H 914.146 -4.67174 2.88166 0
M  V30 9859 H 914.407 -4.25644 1.19498 0
M  V30 9860 N 913.466 -1.22244 -0.994698 0
M  V30 9861 C 914.743 -0.954459 -1.70732 0
M  V30 9862 C 915.123 0.530945 -2.04314 0
M  V30 9863 O 914.471 1.49851 -1.72502 0
M  V30 9864 C 914.681 -1.85016 -2.95922 0
M  V30 9865 C 916.029 -2.10517 -3.68738 0
M  V30 9866 O 917.053 -1.82449 -3.05926 0
M  V30 9867 O 915.912 -2.58044 -4.81742 0
M  V30 9868 H 913.006 -0.35879 -0.745116 0
M  V30 9869 H 915.552 -1.33221 -1.0512 0
M  V30 9870 H 914.324 -2.85498 -2.67594 0
M  V30 9871 H 913.947 -1.47388 -3.69273 0
M  V30 9872 N 914.944 1.19125 -1.03184 0
M  V30 9873 C 916.355 1.70564 -0.759264 0
M  V30 9874 C 916.706 1.8248 0.720794 0
M  V30 9875 O 915.831 1.49804 1.56166 0
M  V30 9876 C 916.426 3.09793 -1.37163 0
M  V30 9877 C 914.985 3.5848 -1.14757 0
M  V30 9878 C 914.132 2.35265 -1.46784 0
M  V30 9879 H 917.083 1.03925 -1.19939 0
M  V30 9880 H 917.104 3.72624 -0.77015 0
M  V30 9881 H 916.616 3.01088 -2.44882 0
M  V30 9882 H 914.717 3.72494 -0.0887182 0
M  V30 9883 H 914.83 4.42426 -1.83836 0
M  V30 9884 H 913.194 2.38747 -0.887254 0
M  V30 9885 H 913.977 2.29188 -2.55593 0
M  V30 9886 N 916.422 0.810101 1.35185 0
M  V30 9887 C 917.352 0.237453 2.32289 0
M  V30 9888 C 918.333 -0.639032 1.5764 0
M  V30 9889 O 919.518 -0.568575 1.8569 0
M  V30 9890 C 916.648 -0.611964 3.41866 0
M  V30 9891 C 915.602 0.166318 4.27677 0
M  V30 9892 C 914.928 -0.805024 5.28605 0
M  V30 9893 C 916.228 1.36729 5.04086 0
M  V30 9894 H 917.922 1.04874 2.80432 0
M  V30 9895 H 915.468 0.505751 1.34826 0
M  V30 9896 H 917.421 -1.02267 4.08802 0
M  V30 9897 H 916.145 -1.45617 2.92341 0
M  V30 9898 H 914.804 0.558238 3.62325 0
M  V30 9899 H 914.452 -1.64483 4.75347 0
M  V30 9900 H 914.152 -0.288577 5.86891 0
M  V30 9901 H 915.676 -1.21386 5.98413 0
M  V30 9902 H 917.09 1.03128 5.63948 0
M  V30 9903 H 915.487 1.81848 5.71884 0
M  V30 9904 H 916.557 2.15214 4.34524 0
M  V30 9905 N 917.9 -1.47166 0.563914 0
M  V30 9906 C 919.316 -1.58018 0.224173 0
M  V30 9907 C 919.516 -1.56163 -1.27339 0
M  V30 9908 O 918.572 -1.4686 -2.05398 0
M  V30 9909 C 919.885 -2.88236 0.856762 0
M  V30 9910 C 921.433 -3.01833 0.82861 0
M  V30 9911 C 921.908 -4.34761 1.44039 0
M  V30 9912 N 923.399 -4.41413 1.40388 0
M  V30 9913 C 924.134 -5.42845 1.84681 0
M  V30 9914 N 923.63 -6.51052 2.3686 0
M  V30 9915 N 925.423 -5.33931 1.75711 0
M  V30 9916 H 917.574 -1.46615 1.53681 0
M  V30 9917 H 919.837 -0.698195 0.64127 0
M  V30 9918 H 919.543 -2.95349 1.90949 0
M  V30 9919 H 919.417 -3.75537 0.353766 0
M  V30 9920 H 921.804 -2.94312 -0.215451 0
M  V30 9921 H 921.885 -2.16056 1.36943 0
M  V30 9922 H 921.529 -4.43037 2.48355 0
M  V30 9923 H 921.459 -5.1928 0.874953 0
M  V30 9924 H 923.95 -3.63811 1.02227 0
M  V30 9925 H 924.263 -7.24633 2.68564 0
M  V30 9926 H 922.608 -6.51924 2.40875 0
M  V30 9927 H 925.799 -4.48295 1.34718 0
M  V30 9928 H 925.972 -6.12841 2.10547 0
M  V30 9929 N 919.378 -0.300708 -1.54705 0
M  V30 9930 C 920.794 0.0526874 -1.59513 0
M  V30 9931 C 920.994 1.52444 -1.31769 0
M  V30 9932 O 920.05 2.27716 -1.09096 0
M  V30 9933 C 921.363 -0.344989 -2.98714 0
M  V30 9934 C 922.911 -0.29373 -3.11619 0
M  V30 9935 C 923.386 -0.666225 -4.53129 0
M  V30 9936 N 924.877 -0.618749 -4.59049 0
M  V30 9937 C 925.612 -0.879447 -5.66616 0
M  V30 9938 N 925.108 -1.2061 -6.82221 0
M  V30 9939 N 926.901 -0.806528 -5.56284 0
M  V30 9940 H 919.052 -1.25988 -1.71 0
M  V30 9941 H 921.315 -0.510758 -0.798643 0
M  V30 9942 H 921.021 -1.36953 -3.2394 0
M  V30 9943 H 920.895 0.301507 -3.75993 0
M  V30 9944 H 923.282 0.72156 -2.86142 0
M  V30 9945 H 923.363 -0.974844 -2.36496 0
M  V30 9946 H 923.007 -1.67932 -4.79334 0
M  V30 9947 H 922.937 0.0369575 -5.26587 0
M  V30 9948 H 925.428 -0.377202 -3.76013 0
M  V30 9949 H 925.741 -1.391 -7.60178 0
M  V30 9950 H 924.086 -1.24413 -6.83774 0
M  V30 9951 H 927.277 -0.550993 -4.64846 0
M  V30 9952 H 927.45 -1.01307 -6.40032 0
M  V30 9953 N 920.856 1.57574 -0.0284266 0
M  V30 9954 C 922.084 1.96071 0.660575 0
M  V30 9955 C 922.499 0.904881 1.65703 0
M  V30 9956 O 921.856 -0.113379 1.82147 0
M  V30 9957 C 921.907 3.34634 1.36756 0
M  V30 9958 O 921.628 4.36167 0.411041 0
M  V30 9959 C 923.129 3.87758 2.14845 0
M  V30 9960 H 920.349 0.645794 0.182183 0
M  V30 9961 H 922.893 2.04311 -0.0879858 0
M  V30 9962 H 921.048 3.27616 2.06753 0
M  V30 9963 H 921.462 5.16493 0.913 0
M  V30 9964 H 922.936 4.87058 2.59767 0
M  V30 9965 H 923.413 3.21967 2.9872 0
M  V30 9966 H 924.019 3.98043 1.49807 0
M  V30 9967 N 922.334 -0.244713 1.55689 0
M  V30 9968 C 923.58 -0.973886 1.77886 0
M  V30 9969 C 923.913 -1.8489 0.594071 0
M  V30 9970 O 923.188 -1.90182 -0.407564 0
M  V30 9971 C 923.471 -1.83255 3.09983 0
M  V30 9972 C 923.324 -0.985571 4.3887 0
M  V30 9973 C 924.643 -2.81464 3.38329 0
M  V30 9974 H 921.762 -0.352629 0.647165 0
M  V30 9975 H 924.404 -0.244243 1.88424 0
M  V30 9976 H 922.554 -2.45464 3.01131 0
M  V30 9977 H 924.226 -0.382005 4.59716 0
M  V30 9978 H 922.469 -0.29002 4.32829 0
M  V30 9979 H 923.14 -1.62022 5.27686 0
M  V30 9980 H 925.616 -2.2939 3.47159 0
M  V30 9981 H 924.492 -3.38663 4.31971 0
M  V30 9982 H 924.753 -3.58037 2.59349 0
M  V30 9983 N 923.813 -1.49104 -0.510467 0
M  V30 9984 C 924.723 -1.67792 -1.6396 0
M  V30 9985 C 925.739 -0.560454 -1.64727 0
M  V30 9986 O 926.915 -0.833985 -1.83321 0
M  V30 9987 C 923.98 -1.73154 -3.00364 0
M  V30 9988 C 923.041 -2.9667 -3.10299 0
M  V30 9989 C 922.274 -3.01767 -4.40196 0
M  V30 9990 O 922.497 -2.1472 -5.28443 0
M  V30 9991 O 921.431 -3.94137 -4.54906 0
M  V30 9992 H 925.257 -2.63428 -1.51126 0
M  V30 9993 H 922.842 -1.32734 -0.685719 0
M  V30 9994 H 924.724 -1.79089 -3.81451 0
M  V30 9995 H 923.399 -0.806952 -3.1348 0
M  V30 9996 H 922.306 -2.96257 -2.28435 0
M  V30 9997 H 923.639 -3.88578 -3.02106 0
M  V30 9998 N 925.291 0.760815 -1.38019 0
M  V30 9999 C 926.238 1.8744 -1.34666 0
M  V30 10000 C 927.208 1.64762 -0.210386 0
M  V30 10001 O 928.393 1.86528 -0.401479 0
M  V30 10002 C 925.533 3.24648 -1.17037 0
M  V30 10003 C 924.646 3.59206 -2.3999 0
M  V30 10004 C 923.781 4.8568 -2.15148 0
M  V30 10005 C 922.82 5.13002 -3.3391 0
M  V30 10006 N 921.957 6.30668 -3.08549 0
M  V30 10007 H 926.797 1.8964 -2.29871 0
M  V30 10008 H 924.334 0.927004 -1.14215 0
M  V30 10009 H 926.292 4.03814 -1.04834 0
M  V30 10010 H 924.922 3.21793 -0.254758 0
M  V30 10011 H 923.974 2.74939 -2.62893 0
M  V30 10012 H 925.286 3.75328 -3.28527 0
M  V30 10013 H 924.44 5.72773 -2.00039 0
M  V30 10014 H 923.179 4.71682 -1.23965 0
M  V30 10015 H 922.184 4.2438 -3.49545 0
M  V30 10016 H 923.409 5.28901 -4.25958 0
M  V30 10017 H 921.355 6.18008 -2.20006 0
M  V30 10018 H 921.272 6.47257 -3.90633 0
M  V30 10019 H 922.54 7.20669 -2.9708 0
M  V30 10020 N 926.769 1.22769 0.988202 0
M  V30 10021 C 927.999 1.07998 1.76125 0
M  V30 10022 C 928.407 -0.372062 1.85506 0
M  V30 10023 O 927.75 -1.26946 1.3278 0
M  V30 10024 C 927.812 1.6219 3.20834 0
M  V30 10025 C 927.476 3.1086 3.34986 0
M  V30 10026 C 928.473 4.08239 3.21927 0
M  V30 10027 C 926.158 3.50411 3.59886 0
M  V30 10028 C 928.152 5.43154 3.33561 0
M  V30 10029 C 925.839 4.85473 3.71159 0
M  V30 10030 C 926.837 5.81653 3.58006 0
M  V30 10031 O 926.525 7.14263 3.68895 0
M  V30 10032 H 926.257 0.378937 0.559806 0
M  V30 10033 H 928.811 1.62925 1.25078 0
M  V30 10034 H 927.041 1.01676 3.73094 0
M  V30 10035 H 928.73 1.43011 3.79872 0
M  V30 10036 H 929.496 3.79025 3.02597 0
M  V30 10037 H 925.375 2.76068 3.69198 0
M  V30 10038 H 928.919 6.18207 3.23211 0
M  V30 10039 H 924.816 5.14365 3.89998 0
M  V30 10040 H 925.584 7.21906 3.85739 0
M  V30 10041 N 928.247 -1.18576 1.03814 0
M  V30 10042 C 929.472 -1.92978 0.759873 0
M  V30 10043 C 929.897 -1.75514 -0.676486 0
M  V30 10044 O 929.255 -1.06359 -1.46824 0
M  V30 10045 C 929.303 -3.42507 1.12788 0
M  V30 10046 O 928.407 -4.1163 0.251886 0
M  V30 10047 H 927.748 -0.602129 0.279886 0
M  V30 10048 H 930.278 -1.50383 1.3873 0
M  V30 10049 H 930.288 -3.93206 1.08872 0
M  V30 10050 H 928.963 -3.5454 2.17427 0
M  V30 10051 H 927.54 -3.7125 0.350441 0
M  V30 10052 N 929.725 -0.817259 -1.34754 0
M  V30 10053 C 930.658 -0.180483 -2.27485 0
M  V30 10054 C 931.636 0.659792 -1.48612 0
M  V30 10055 O 932.82 0.624761 -1.77845 0
M  V30 10056 C 929.947 0.748487 -3.30326 0
M  V30 10057 C 928.993 -0.0135304 -4.26498 0
M  V30 10058 S 929.826 -1.35685 -5.18025 0
M  V30 10059 C 930.982 -0.432605 -6.24403 0
M  V30 10060 H 931.215 -0.966677 -2.81145 0
M  V30 10061 H 928.748 -0.612864 -1.41716 0
M  V30 10062 H 930.706 1.27893 -3.90069 0
M  V30 10063 H 929.367 1.50816 -2.75524 0
M  V30 10064 H 928.56 0.692454 -4.9922 0
M  V30 10065 H 928.162 -0.474344 -3.7098 0
M  V30 10066 H 930.454 0.378035 -6.76444 0
M  V30 10067 H 931.397 -1.12934 -6.99036 0
M  V30 10068 H 931.805 -0.0235533 -5.64495 0
M  V30 10069 N 931.203 1.46865 -0.571711 0
M  V30 10070 C 932.113 2.33979 0.170571 0
M  V30 10071 C 933.129 1.49083 0.897239 0
M  V30 10072 O 934.305 1.81979 0.862888 0
M  V30 10073 C 931.37 3.26063 1.17831 0
M  V30 10074 C 930.431 4.26855 0.457499 0
M  V30 10075 C 929.664 5.14539 1.41722 0
M  V30 10076 O 929.887 5.04945 2.65305 0
M  V30 10077 O 928.821 5.94612 0.9338 0
M  V30 10078 H 932.647 2.98781 -0.544396 0
M  V30 10079 H 930.232 1.4566 -0.332198 0
M  V30 10080 H 932.114 3.82903 1.75965 0
M  V30 10081 H 930.789 2.63871 1.87493 0
M  V30 10082 H 929.696 3.73734 -0.165406 0
M  V30 10083 H 931.029 4.91802 -0.197953 0
M  V30 10084 N 932.681 0.308908 1.54543 0
M  V30 10085 C 934.092 -0.182144 1.85809 0
M  V30 10086 C 934.443 -1.52796 1.23076 0
M  V30 10087 O 933.568 -2.09775 0.531358 0
M  V30 10088 C 934.163 -0.337275 3.37117 0
M  V30 10089 C 932.722 -0.772545 3.68387 0
M  V30 10090 C 931.869 0.114451 2.77064 0
M  V30 10091 H 934.82 0.529671 1.496 0
M  V30 10092 H 934.841 -1.17058 3.62046 0
M  V30 10093 H 934.353 0.642382 3.82747 0
M  V30 10094 H 932.454 -1.76247 3.2828 0
M  V30 10095 H 932.567 -0.586453 4.75497 0
M  V30 10096 H 930.931 -0.407581 2.51418 0
M  V30 10097 H 931.714 1.09061 3.25516 0
M  V30 10098 N 934.159 -1.57557 0.0367827 0
M  V30 10099 C 935.436 -1.83427 -0.679261 0
M  V30 10100 C 935.816 -0.922274 -1.89888 0
M  V30 10101 O 935.164 0.02025 -2.28491 0
M  V30 10102 C 935.374 -3.32823 -1.05022 0
M  V30 10103 C 936.722 -3.99486 -1.43861 0
M  V30 10104 O 937.746 -3.37364 -1.14297 0
M  V30 10105 O 936.605 -5.0899 -1.98977 0
M  V30 10106 H 933.699 -0.756581 -0.333936 0
M  V30 10107 H 936.245 -1.69575 0.0650494 0
M  V30 10108 H 935.017 -3.90874 -0.182509 0
M  V30 10109 H 934.64 -3.5181 -1.85244 0
M  V30 10110 N 935.637 0.236453 -1.55816 0
M  V30 10111 C 937.048 0.80468 -1.68469 0
M  V30 10112 C 937.399 1.85601 -0.636133 0
M  V30 10113 O 936.524 2.15323 0.215622 0
M  V30 10114 C 937.119 1.46634 -3.05424 0
M  V30 10115 C 935.678 1.98214 -3.19981 0
M  V30 10116 C 934.825 0.83695 -2.64368 0
M  V30 10117 H 937.776 0.0120647 -1.58695 0
M  V30 10118 H 937.797 2.33472 -3.00451 0
M  V30 10119 H 937.309 0.700931 -3.81718 0
M  V30 10120 H 935.41 2.77604 -2.4853 0
M  V30 10121 H 935.523 2.17235 -4.2702 0
M  V30 10122 H 933.887 1.24028 -2.22462 0
M  V30 10123 H 934.67 0.084451 -3.43196 0
M  V30 10124 N 937.115 1.49373 0.502552 0
M  V30 10125 C 938.078 1.65413 1.58654 0
M  V30 10126 C 939.078 0.526003 1.51953 0
M  V30 10127 O 940.268 0.792421 1.55133 0
M  V30 10128 C 937.4 1.65005 2.98306 0
M  V30 10129 H 938.593 2.62095 1.45762 0
M  V30 10130 H 936.146 1.38381 0.726672 0
M  V30 10131 H 936.881 0.699014 3.16677 0
M  V30 10132 H 936.666 2.46931 3.04578 0
M  V30 10133 H 938.156 1.79477 3.77065 0
M  V30 10134 N 938.594 -0.753485 1.38421 0
M  V30 10135 C 939.842 -1.50962 1.34368 0
M  V30 10136 C 940.163 -1.94889 -0.0656895 0
M  V30 10137 O 939.433 -1.67652 -1.01339 0
M  V30 10138 H 938.013 -0.559967 0.494415 0
M  V30 10139 H 940.675 -0.895665 1.73101 0
M  V30 10140 H 939.771 -2.40048 1.99458 0
M  V30 10141 N 940.072 -1.23292 -0.981677 0
M  V30 10142 C 941.488 -0.995295 -1.24764 0
M  V30 10143 C 941.688 0.304379 -1.99188 0
M  V30 10144 O 940.744 1.02414 -2.30798 0
M  V30 10145 C 942.057 -2.20135 -2.04844 0
M  V30 10146 C 943.605 -2.24612 -2.17988 0
M  V30 10147 C 944.08 -3.448 -3.01458 0
M  V30 10148 N 945.571 -3.45031 -3.09044 0
M  V30 10149 C 946.306 -4.34683 -3.7395 0
M  V30 10150 N 945.802 -5.34569 -4.4069 0
M  V30 10151 N 947.595 -4.22429 -3.70823 0
M  V30 10152 H 939.746 -2.06834 -0.483052 0
M  V30 10153 H 942.009 -0.906929 -0.276014 0
M  V30 10154 H 941.715 -3.14446 -1.57532 0
M  V30 10155 H 941.589 -2.21115 -3.05594 0
M  V30 10156 H 943.976 -1.30841 -2.64508 0
M  V30 10157 H 944.057 -2.27664 -1.16631 0
M  V30 10158 H 943.701 -4.38877 -2.55635 0
M  V30 10159 H 943.631 -3.38988 -4.02982 0
M  V30 10160 H 946.122 -2.72759 -2.61555 0
M  V30 10161 H 946.435 -5.99236 -4.87991 0
M  V30 10162 H 944.78 -5.3847 -4.39403 0
M  V30 10163 H 947.971 -3.43639 -3.17851 0
M  V30 10164 H 948.144 -4.92501 -4.21126 0
M  V30 10165 N 941.55 1.18024 -1.04442 0
M  V30 10166 C 942.827 1.8398 -0.664125 0
M  V30 10167 C 943.207 1.92961 0.856116 0
M  V30 10168 O 942.555 1.45839 1.75907 0
M  V30 10169 C 942.765 3.22069 -1.34433 0
M  V30 10170 C 944.113 3.98063 -1.47754 0
M  V30 10171 O 945.137 3.31523 -1.30274 0
M  V30 10172 O 943.996 5.17291 -1.76272 0
M  V30 10173 H 941.09 0.793543 -0.23285 0
M  V30 10174 H 943.636 1.25385 -1.14354 0
M  V30 10175 H 942.408 3.10458 -2.38184 0
M  V30 10176 H 942.031 3.88325 -0.853782 0
M  V30 10177 N 943.028 0.824394 1.34319 0
M  V30 10178 C 944.277 0.40956 1.97498 0
M  V30 10179 C 944.59 -1.03323 1.66083 0
M  V30 10180 O 945.796 -1.55205 2.22764 0
M  V30 10181 C 944.252 0.681384 3.53391 0
M  V30 10182 C 943.86 2.1379 3.93698 0
M  V30 10183 C 945.604 0.332788 4.23194 0
M  V30 10184 C 943.511 2.35453 5.42509 0
M  V30 10185 H 942.441 0.149409 0.739049 0
M  V30 10186 H 945.092 1.01095 1.5314 0
M  V30 10187 H 943.474 0.00980375 3.95999 0
M  V30 10188 H 944.648 2.84876 3.62191 0
M  V30 10189 H 942.963 2.44807 3.36836 0
M  V30 10190 H 945.56 0.472463 5.32609 0
M  V30 10191 H 945.903 -0.722862 4.09976 0
M  V30 10192 H 946.436 0.959005 3.86067 0
M  V30 10193 H 943.175 3.39529 5.60714 0
M  V30 10194 H 942.695 1.68912 5.75525 0
M  V30 10195 H 944.374 2.17885 6.09209 0
M  V30 10196 N 944.506 -1.46559 0.579492 0
M  V30 10197 C 945.731 -2.0729 0.0674595 0
M  V30 10198 C 946.156 -1.4259 -1.22677 0
M  V30 10199 O 945.514 -0.50857 -1.74021 0
M  V30 10200 C 945.562 -3.60492 -0.0882227 0
M  V30 10201 O 944.666 -3.96172 -1.14551 0
M  V30 10202 H 944.007 -0.661159 0.0613536 0
M  V30 10203 H 946.537 -1.88247 0.801519 0
M  V30 10204 H 946.547 -4.06929 -0.295411 0
M  V30 10205 H 945.222 -4.06976 0.856943 0
M  V30 10206 H 943.799 -3.61448 -0.917033 0
M  V30 10207 N 945.984 -0.3171 -1.54377 0
M  V30 10208 C 947.233 0.288271 -1.99629 0
M  V30 10209 C 947.546 1.53754 -1.2091 0
M  V30 10210 O 948.752 2.2185 -1.56508 0
M  V30 10211 C 947.208 0.564188 -3.5545 0
M  V30 10212 C 946.816 -0.667659 -4.42997 0
M  V30 10213 C 948.56 1.12987 -4.09187 0
M  V30 10214 C 946.467 -0.364003 -5.90279 0
M  V30 10215 H 945.397 0.111492 -0.745711 0
M  V30 10216 H 948.048 -0.428317 -1.78431 0
M  V30 10217 H 946.43 1.34079 -3.72611 0
M  V30 10218 H 947.604 -1.44335 -4.37612 0
M  V30 10219 H 945.919 -1.1531 -4.00116 0
M  V30 10220 H 948.516 1.37157 -5.1681 0
M  V30 10221 H 948.859 2.07722 -3.60773 0
M  V30 10222 H 949.392 0.414595 -3.95634 0
M  V30 10223 H 946.131 -1.28035 -6.42874 0
M  V30 10224 H 945.651 0.374102 -5.98632 0
M  V30 10225 H 947.33 0.0285433 -6.46994 0
M  V30 10226 N 947.462 1.57535 -0.0451378 0
M  V30 10227 C 948.878 1.56533 0.311373 0
M  V30 10228 C 949.078 1.05225 1.71843 0
M  V30 10229 O 948.134 0.706144 2.42425 0
M  V30 10230 C 949.447 3.00349 0.145348 0
M  V30 10231 C 950.995 3.12248 0.216908 0
M  V30 10232 C 951.47 4.57931 0.0794834 0
M  V30 10233 N 952.961 4.63 0.135954 0
M  V30 10234 C 953.696 5.73375 0.0536426 0
M  V30 10235 N 953.192 6.92753 -0.0806725 0
M  V30 10236 N 954.985 5.61995 0.108789 0
M  V30 10237 H 947.136 1.89211 -0.965044 0
M  V30 10238 H 949.399 0.871068 -0.374091 0
M  V30 10239 H 949.105 3.41898 -0.824533 0
M  V30 10240 H 948.979 3.66086 0.908903 0
M  V30 10241 H 951.366 2.70601 1.17726 0
M  V30 10242 H 951.447 2.49201 -0.577299 0
M  V30 10243 H 951.091 5.00262 -0.877516 0
M  V30 10244 H 951.021 5.18977 0.892758 0
M  V30 10245 H 953.512 3.77142 0.23926 0
M  V30 10246 H 953.825 7.7268 -0.136351 0
M  V30 10247 H 952.17 6.94904 -0.115675 0
M  V30 10248 H 955.361 4.67619 0.212235 0
M  V30 10249 H 955.534 6.47987 0.0411822 0
M  V30 10250 N 948.94 -0.228186 1.55939 0
M  V30 10251 C 950.351 -0.795734 1.68893 0
M  V30 10252 C 950.702 -1.85261 0.645967 0
M  V30 10253 O 949.827 -2.15434 -0.2042 0
M  V30 10254 C 950.422 -1.45013 3.06197 0
M  V30 10255 C 948.981 -1.96514 3.21028 0
M  V30 10256 C 948.128 -0.822918 2.64808 0
M  V30 10257 H 951.079 -0.0036485 1.587 0
M  V30 10258 H 951.1 -2.31875 3.01685 0
M  V30 10259 H 950.612 -0.680678 3.82084 0
M  V30 10260 H 948.713 -2.76282 2.49998 0
M  V30 10261 H 948.826 -2.14967 4.28166 0
M  V30 10262 H 947.19 -1.22846 2.23116 0
M  V30 10263 H 947.973 -0.0662493 3.43236 0
M  V30 10264 N 950.418 -1.49637 -0.494624 0
M  V30 10265 C 951.348 -1.69692 -1.60396 0
M  V30 10266 C 952.329 -0.545648 -1.61111 0
M  V30 10267 O 953.514 -0.782202 -1.77751 0
M  V30 10268 C 950.644 -1.76934 -2.9885 0
M  V30 10269 C 949.598 -2.91915 -3.13001 0
M  V30 10270 C 948.924 -2.84276 -4.5287 0
M  V30 10271 C 950.224 -4.32764 -2.92426 0
M  V30 10272 H 951.918 -2.6257 -1.43866 0
M  V30 10273 H 949.464 -1.26355 -0.690679 0
M  V30 10274 H 951.417 -1.8955 -3.76362 0
M  V30 10275 H 950.141 -0.806609 -3.16483 0
M  V30 10276 H 948.8 -2.78911 -2.37916 0
M  V30 10277 H 948.448 -1.85897 -4.67388 0
M  V30 10278 H 948.148 -3.61452 -4.63278 0
M  V30 10279 H 949.672 -2.98909 -5.32434 0
M  V30 10280 H 951.086 -4.46415 -3.59703 0
M  V30 10281 H 949.483 -5.1121 -3.143 0
M  V30 10282 H 950.553 -4.46765 -1.88491 0
M  V30 10283 N 951.896 0.746133 -1.38819 0
M  V30 10284 C 952.826 1.87344 -1.39372 0
M  V30 10285 C 953.807 1.68123 -0.258583 0
M  V30 10286 O 954.992 1.88606 -0.462769 0
M  V30 10287 C 952.122 3.24962 -1.22543 0
M  V30 10288 C 951.076 3.58799 -2.33339 0
M  V30 10289 C 950.402 4.95235 -2.01609 0
M  V30 10290 C 951.702 3.62911 -3.75624 0
M  V30 10291 H 953.396 1.87138 -2.33709 0
M  V30 10292 H 950.942 0.898937 -1.12495 0
M  V30 10293 H 952.895 4.03488 -1.21554 0
M  V30 10294 H 951.619 3.25667 -0.246707 0
M  V30 10295 H 950.278 2.82596 -2.33527 0
M  V30 10296 H 949.926 4.92508 -1.02202 0
M  V30 10297 H 949.626 5.18843 -2.75819 0
M  V30 10298 H 951.15 5.76131 -2.02251 0
M  V30 10299 H 952.564 4.31535 -3.77426 0
M  V30 10300 H 950.961 3.98031 -4.491 0
M  V30 10301 H 952.031 2.62967 -4.07402 0
M  V30 10302 N 953.375 1.23811 0.975125 0
M  V30 10303 C 954.285 1.0408 2.10249 0
M  V30 10304 C 955.301 -0.0162404 1.73992 0
M  V30 10305 O 956.477 0.180346 2.00591 0
M  V30 10306 C 953.542 0.640013 3.40741 0
M  V30 10307 C 952.603 1.7727 3.90991 0
M  V30 10308 C 951.836 1.39094 5.15256 0
M  V30 10309 O 952.059 0.277483 5.69725 0
M  V30 10310 O 950.993 2.21392 5.59704 0
M  V30 10311 H 954.819 1.98575 2.29786 0
M  V30 10312 H 952.404 1.02563 1.08633 0
M  V30 10313 H 954.286 0.427684 4.19224 0
M  V30 10314 H 952.961 -0.27589 3.22522 0
M  V30 10315 H 951.868 2.03971 3.13602 0
M  V30 10316 H 953.201 2.66711 4.13674 0
M  V30 10317 N 954.853 -1.17469 1.05066 0
M  V30 10318 C 955.803 -2.19388 0.620713 0
M  V30 10319 C 956.787 -1.5722 -0.34214 0
M  V30 10320 O 957.979 -1.76279 -0.159574 0
M  V30 10321 C 955.108 -3.433 -0.00438518 0
M  V30 10322 C 954.194 -4.12569 0.982218 0
M  V30 10323 N 954.585 -4.57683 2.15313 0
M  V30 10324 C 952.883 -4.38575 0.810416 0
M  V30 10325 C 953.584 -5.11124 2.77719 0
M  V30 10326 N 952.56 -5.0325 2.05525 0
M  V30 10327 H 956.362 -2.51971 1.51287 0
M  V30 10328 H 953.876 -1.33784 0.920625 0
M  V30 10329 H 955.873 -4.15591 -0.330161 0
M  V30 10330 H 954.533 -3.12209 -0.89195 0
M  V30 10331 H 955.544 -4.51812 2.53154 0
M  V30 10332 H 952.221 -4.17492 -0.0262078 0
M  V30 10333 H 953.611 -5.56161 3.77008 0
M  V30 10334 N 956.331 -0.831506 -1.3388 0
M  V30 10335 C 957.571 -0.429648 -1.99833 0
M  V30 10336 C 957.935 0.990796 -1.6446 0
M  V30 10337 O 959.136 1.49599 -2.23324 0
M  V30 10338 C 957.407 -0.635558 -3.51704 0
M  V30 10339 S 958.966 -0.327824 -4.37574 0
M  V30 10340 H 955.784 -0.161939 -0.692313 0
M  V30 10341 H 958.386 -1.07919 -1.63015 0
M  V30 10342 H 957.09 -1.66887 -3.74936 0
M  V30 10343 H 956.621 0.0284073 -3.9339 0
M  V30 10344 H 958.636 0.855231 -4.88774 0
M  V30 10345 N 957.809 1.4625 -0.587256 0
M  V30 10346 C 958.719 2.34147 0.145744 0
M  V30 10347 C 959.735 1.50026 0.881376 0
M  V30 10348 O 960.911 1.82884 0.843539 0
M  V30 10349 C 957.976 3.27294 1.14366 0
M  V30 10350 C 957.037 4.27317 0.412199 0
M  V30 10351 C 956.27 5.16013 1.36257 0
M  V30 10352 O 956.493 5.0773 2.59934 0
M  V30 10353 O 955.427 5.95569 0.870681 0
M  V30 10354 H 959.253 2.98187 -0.576055 0
M  V30 10355 H 956.838 1.45299 -0.347628 0
M  V30 10356 H 958.72 3.84747 1.71894 0
M  V30 10357 H 957.395 2.65845 1.84684 0
M  V30 10358 H 956.302 3.73538 -0.205036 0
M  V30 10359 H 957.635 4.91564 -0.250104 0
M  V30 10360 N 959.287 0.325282 1.54207 0
M  V30 10361 C 960.235 -0.5554 2.25872 0
M  V30 10362 C 961.229 -1.11714 1.27344 0
M  V30 10363 O 962.435 -1.06498 1.45115 0
M  V30 10364 H 958.81 -0.19776 0.725531 0
M  V30 10365 H 960.781 0.0712858 2.98315 0
M  V30 10366 C 959.53 -1.70379 3.03095 0
M  V30 10367 H 958.853 -1.2808 3.78729 0
M  V30 10368 H 960.293 -2.29556 3.56483 0
M  V30 10369 C 958.752 -2.62242 2.11496 0
M  V30 10370 O 959.282 -3.64003 1.69895 0
M  V30 10371 N 957.488 -2.30515 1.7695 0
M  V30 10372 H 957.035 -1.47805 2.10978 0
M  V30 10373 H 956.993 -2.92241 1.15942 0
M  V30 10374 N 960.765 -1.57509 0.0534917 0
M  V30 10375 C 961.993 -1.97098 -0.629298 0
M  V30 10376 C 962.408 -0.931128 -1.64242 0
M  V30 10377 O 961.765 0.0843866 -1.82305 0
M  V30 10378 C 961.816 -3.36767 -1.31415 0
M  V30 10379 O 961.537 -4.36766 -0.341599 0
M  V30 10380 C 963.038 -3.91127 -2.08649 0
M  V30 10381 H 960.258 -0.648611 -0.171886 0
M  V30 10382 H 962.802 -2.04145 0.120479 0
M  V30 10383 H 960.957 -3.30863 -2.01515 0
M  V30 10384 H 961.371 -5.1788 -0.830715 0
M  V30 10385 H 962.845 -4.91129 -2.51985 0
M  V30 10386 H 963.322 -3.26679 -2.9356 0
M  V30 10387 H 963.928 -4.00376 -1.43456 0
M  V30 10388 N 962.243 0.219913 -1.56058 0
M  V30 10389 C 963.193 1.27606 -1.88946 0
M  V30 10390 C 964.177 1.42209 -0.752691 0
M  V30 10391 O 965.369 1.44996 -1.01514 0
M  V30 10392 C 962.498 2.62614 -2.21108 0
M  V30 10393 C 961.584 2.51906 -3.4118 0
M  V30 10394 N 961.975 2.10851 -4.59756 0
M  V30 10395 C 960.273 2.82861 -3.44827 0
M  V30 10396 C 960.974 2.11434 -5.41914 0
M  V30 10397 N 959.95 2.51985 -4.81669 0
M  V30 10398 H 963.752 0.94957 -2.78137 0
M  V30 10399 H 961.266 0.428468 -1.56646 0
M  V30 10400 H 963.263 3.38869 -2.42844 0
M  V30 10401 H 961.923 2.96108 -1.3323 0
M  V30 10402 H 962.934 1.81956 -4.84884 0
M  V30 10403 H 959.611 3.20716 -2.67297 0
M  V30 10404 H 961.001 1.81803 -6.46836 0
M  V30 10405 N 963.721 1.49897 0.486681 0
M  V30 10406 C 964.654 1.6224 1.60479 0
M  V30 10407 C 965.632 0.470964 1.5563 0
M  V30 10408 O 966.816 0.688418 1.75479 0
M  V30 10409 C 963.943 1.59059 2.99028 0
M  V30 10410 C 962.989 2.79575 3.22087 0
M  V30 10411 S 963.822 4.41077 3.03664 0
M  V30 10412 C 964.978 4.40564 4.44583 0
M  V30 10413 H 965.211 2.56822 1.49766 0
M  V30 10414 H 962.744 1.38966 0.672893 0
M  V30 10415 H 964.702 1.5791 3.78913 0
M  V30 10416 H 963.363 0.657405 3.07143 0
M  V30 10417 H 962.556 2.73609 4.23266 0
M  V30 10418 H 962.158 2.78211 2.49949 0
M  V30 10419 H 964.45 4.13166 5.36936 0
M  V30 10420 H 965.393 5.42068 4.55596 0
M  V30 10421 H 965.801 3.70461 4.25933 0
M  V30 10422 N 965.199 -0.738761 1.39212 0
M  V30 10423 C 966.427 -1.52801 1.39497 0
M  V30 10424 C 966.842 -1.88797 -0.0114917 0
M  V30 10425 O 966.199 -1.53835 -0.981887 0
M  V30 10426 C 966.25 -2.81793 2.2644 0
M  V30 10427 O 965.971 -2.47328 3.61608 0
M  V30 10428 C 967.472 -3.75844 2.35067 0
M  V30 10429 H 964.692 -0.472322 0.476606 0
M  V30 10430 H 967.236 -0.913153 1.8298 0
M  V30 10431 H 965.391 -3.3962 1.8638 0
M  V30 10432 H 965.805 -3.30162 4.07545 0
M  V30 10433 H 967.279 -4.6326 3.00157 0
M  V30 10434 H 967.756 -4.17329 1.3687 0
M  V30 10435 H 968.362 -3.23937 2.75581 0
M  V30 10436 N 966.677 -1.24326 -0.968545 0
M  V30 10437 C 967.926 -1.07647 -1.70572 0
M  V30 10438 C 968.239 0.384821 -1.91777 0
M  V30 10439 O 969.445 0.671782 -2.63058 0
M  V30 10440 C 967.901 -1.87799 -3.07017 0
M  V30 10441 C 967.509 -3.38333 -2.93658 0
M  V30 10442 C 969.253 -1.79647 -3.84613 0
M  V30 10443 C 967.16 -4.10831 -4.25407 0
M  V30 10444 H 966.09 -0.399216 -0.639642 0
M  V30 10445 H 968.741 -1.484 -1.07934 0
M  V30 10446 H 967.123 -1.3986 -3.7048 0
M  V30 10447 H 968.297 -3.93845 -2.39213 0
M  V30 10448 H 966.612 -3.47427 -2.29528 0
M  V30 10449 H 969.209 -2.31116 -4.82172 0
M  V30 10450 H 969.552 -0.761553 -4.09275 0
M  V30 10451 H 970.085 -2.25261 -3.27875 0
M  V30 10452 H 966.824 -5.14679 -4.05939 0
M  V30 10453 H 966.344 -3.60105 -4.79671 0
M  V30 10454 H 968.023 -4.17783 -4.94031 0
M  V30 10455 N 968.156 1.1691 -1.05688 0
M  V30 10456 C 969.402 1.87814 -0.780871 0
M  V30 10457 C 969.757 1.79796 0.684926 0
M  V30 10458 O 969.05 1.19853 1.49485 0
M  V30 10459 C 969.244 3.36578 -1.20207 0
M  V30 10460 C 969.073 3.59078 -2.70727 0
M  V30 10461 C 967.843 3.75515 -3.38107 0
M  V30 10462 C 970.041 3.58307 -3.68946 0
M  V30 10463 N 968.023 3.85906 -4.77441 0
M  V30 10464 C 969.394 3.74608 -4.94033 0
M  V30 10465 C 971.449 3.41484 -3.62343 0
M  V30 10466 C 970.152 3.75828 -6.13307 0
M  V30 10467 C 972.178 3.43995 -4.81063 0
M  V30 10468 C 971.54 3.60809 -6.04976 0
M  V30 10469 H 967.639 0.705158 -0.338047 0
M  V30 10470 H 970.223 1.40315 -1.34981 0
M  V30 10471 H 968.394 3.82734 -0.661031 0
M  V30 10472 H 970.126 3.95119 -0.875377 0
M  V30 10473 H 966.881 3.7558 -2.88508 0
M  V30 10474 H 967.305 3.94886 -5.49904 0
M  V30 10475 H 971.947 3.27417 -2.67503 0
M  V30 10476 H 969.665 3.88679 -7.08487 0
M  V30 10477 H 973.251 3.3223 -4.77613 0
M  V30 10478 H 972.131 3.62663 -6.95302 0
M  V30 10479 N 969.634 0.838594 1.33437 0
M  V30 10480 C 970.564 0.286672 2.31734 0
M  V30 10481 C 971.545 -0.605451 1.5896 0
M  V30 10482 O 972.73 -0.529059 1.86854 0
M  V30 10483 C 969.86 -0.539311 3.43087 0
M  V30 10484 C 968.814 0.256997 4.27228 0
M  V30 10485 C 968.14 -0.692718 5.30194 0
M  V30 10486 C 969.44 1.47391 5.01072 0
M  V30 10487 H 971.134 1.10798 2.78144 0
M  V30 10488 H 968.68 0.534235 1.33723 0
M  V30 10489 H 970.633 -0.935724 4.1088 0
M  V30 10490 H 969.357 -1.39383 2.95364 0
M  V30 10491 H 968.016 0.634967 3.61059 0
M  V30 10492 H 967.664 -1.54363 4.78729 0
M  V30 10493 H 967.364 -0.164023 5.87371 0
M  V30 10494 H 968.888 -1.08665 6.00853 0
M  V30 10495 H 970.302 1.15067 5.61634 0
M  V30 10496 H 968.699 1.93937 5.67898 0
M  V30 10497 H 969.769 2.24382 4.29861 0
M  V30 10498 N 971.112 -1.45937 0.595003 0
M  V30 10499 C 972.36 -2.01921 0.0851368 0
M  V30 10500 C 972.681 -1.46748 -1.28413 0
M  V30 10501 O 971.951 -0.656873 -1.84559 0
M  V30 10502 H 970.531 -0.746457 0.0284826 0
M  V30 10503 H 973.193 -1.78891 0.773561 0
M  V30 10504 H 972.289 -3.1209 0.0254002 0
M  V30 10505 N 972.59 -0.333456 -1.54032 0
M  V30 10506 C 973.839 0.267081 -1.99924 0
M  V30 10507 C 974.152 1.52463 -1.22534 0
M  V30 10508 O 975.358 2.20178 -1.58852 0
M  V30 10509 C 973.814 0.526456 -3.56029 0
M  V30 10510 C 973.422 -0.714607 -4.42264 0
M  V30 10511 C 975.166 1.0864 -4.10363 0
M  V30 10512 C 973.073 -0.42659 -5.89859 0
M  V30 10513 H 972.003 0.103577 -0.746852 0
M  V30 10514 H 974.654 -0.447218 -1.77967 0
M  V30 10515 H 973.036 1.3012 -3.74012 0
M  V30 10516 H 974.21 -1.48968 -4.36056 0
M  V30 10517 H 972.525 -1.19547 -3.9887 0
M  V30 10518 H 975.122 1.31668 -5.18235 0
M  V30 10519 H 975.465 2.03884 -3.62956 0
M  V30 10520 H 975.998 0.37261 -3.96051 0
M  V30 10521 H 972.737 -1.34847 -6.4148 0
M  V30 10522 H 972.257 0.310588 -5.98995 0
M  V30 10523 H 973.936 -0.0400807 -6.46988 0
M  V30 10524 N 974.068 1.57479 -0.061844 0
M  V30 10525 C 975.314 1.93395 0.610443 0
M  V30 10526 C 975.647 0.941334 1.6986 0
M  V30 10527 O 974.922 -0.0310262 1.94475 0
M  V30 10528 C 975.205 3.39636 1.19664 0
M  V30 10529 C 975.058 4.49651 0.115805 0
M  V30 10530 C 976.377 3.86488 2.10512 0
M  V30 10531 H 973.496 0.703262 0.220436 0
M  V30 10532 H 976.138 1.89583 -0.125785 0
M  V30 10533 H 974.288 3.43015 1.82409 0
M  V30 10534 H 975.96 4.58397 -0.516728 0
M  V30 10535 H 974.203 4.30237 -0.55483 0
M  V30 10536 H 974.874 5.49089 0.566176 0
M  V30 10537 H 977.35 3.85052 1.57715 0
M  V30 10538 H 976.226 4.89444 2.48466 0
M  V30 10539 H 976.487 3.23856 3.00948 0
M  V30 10540 N 975.546 -0.211634 1.56173 0
M  V30 10541 C 976.776 -0.949805 1.83473 0
M  V30 10542 C 977.184 -1.78045 0.640053 0
M  V30 10543 O 976.527 -1.79277 -0.400702 0
M  V30 10544 C 976.589 -1.90868 3.04647 0
M  V30 10545 C 976.253 -1.26159 4.39241 0
M  V30 10546 C 977.25 -0.646597 5.15863 0
M  V30 10547 C 974.935 -1.27039 4.85969 0
M  V30 10548 C 976.929 -0.0490313 6.37381 0
M  V30 10549 C 974.616 -0.668987 6.07427 0
M  V30 10550 C 975.614 -0.0593687 6.82974 0
M  V30 10551 O 975.302 0.532656 8.02133 0
M  V30 10552 H 975.034 -0.283458 0.6137 0
M  V30 10553 H 977.588 -0.22894 2.0412 0
M  V30 10554 H 975.818 -2.6688 2.79843 0
M  V30 10555 H 977.507 -2.51323 3.18734 0
M  V30 10556 H 978.273 -0.632056 4.80864 0
M  V30 10557 H 974.152 -1.73429 4.27134 0
M  V30 10558 H 977.696 0.427414 6.96289 0
M  V30 10559 H 973.593 -0.680975 6.41898 0
M  V30 10560 H 974.361 0.427942 8.17381 0
M  V30 10561 N 977.024 -1.50153 -0.478725 0
M  V30 10562 C 977.987 -1.67916 -1.56003 0
M  V30 10563 C 978.987 -0.550111 -1.51097 0
M  V30 10564 O 980.177 -0.817001 -1.53853 0
M  V30 10565 C 977.309 -1.6973 -2.95643 0
M  V30 10566 H 978.502 -2.6438 -1.41573 0
M  V30 10567 H 976.055 -1.39519 -0.704565 0
M  V30 10568 H 976.79 -0.749306 -3.15525 0
M  V30 10569 H 976.575 -2.51745 -3.00611 0
M  V30 10570 H 978.065 -1.85453 -3.74162 0
M  V30 10571 N 978.502 0.731368 -1.39602 0
M  V30 10572 C 979.732 1.51839 -1.40102 0
M  V30 10573 C 980.14 1.89199 0.00526634 0
M  V30 10574 O 979.483 1.54877 0.987874 0
M  V30 10575 C 979.545 2.83292 -2.21328 0
M  V30 10576 C 979.209 2.68345 -3.69919 0
M  V30 10577 C 980.206 2.36651 -4.62917 0
M  V30 10578 C 977.891 2.85102 -4.13548 0
M  V30 10579 C 979.885 2.21901 -5.97527 0
M  V30 10580 C 977.572 2.69971 -5.48233 0
M  V30 10581 C 978.57 2.38416 -6.40037 0
M  V30 10582 O 978.258 2.23383 -7.72241 0
M  V30 10583 H 977.99 0.475695 -0.480302 0
M  V30 10584 H 980.544 0.911096 -1.84087 0
M  V30 10585 H 978.774 3.46294 -1.72096 0
M  V30 10586 H 980.463 3.44928 -2.13961 0
M  V30 10587 H 981.229 2.23352 -4.3051 0
M  V30 10588 H 977.108 3.08655 -3.42423 0
M  V30 10589 H 980.652 1.97193 -6.69149 0
M  V30 10590 H 976.549 2.82849 -5.8023 0
M  V30 10591 H 977.317 2.38425 -7.83004 0
M  V30 10592 N 979.98 1.24838 0.961938 0
M  V30 10593 C 980.927 1.04582 2.05745 0
M  V30 10594 C 981.897 -0.0427281 1.66045 0
M  V30 10595 O 983.082 0.113026 1.90465 0
M  V30 10596 C 980.222 0.66284 3.38675 0
M  V30 10597 C 979.335 1.82548 3.91536 0
M  V30 10598 C 978.47 1.38753 5.12758 0
M  V30 10599 C 977.509 2.51976 5.5783 0
M  V30 10600 N 976.646 2.09009 6.70268 0
M  V30 10601 H 981.486 1.98343 2.22405 0
M  V30 10602 H 979.023 0.987822 1.08998 0
M  V30 10603 H 980.981 0.421788 4.15062 0
M  V30 10604 H 979.611 -0.237776 3.21923 0
M  V30 10605 H 978.663 2.18004 3.11735 0
M  V30 10606 H 979.975 2.67601 4.20941 0
M  V30 10607 H 979.129 1.1057 5.96539 0
M  V30 10608 H 977.868 0.507618 4.85051 0
M  V30 10609 H 976.873 2.80912 4.72619 0
M  V30 10610 H 978.098 3.40534 5.87549 0
M  V30 10611 H 976.044 1.23423 6.44285 0
M  V30 10612 H 975.961 2.87613 6.99153 0
M  V30 10613 H 977.229 1.83981 7.57477 0
M  V30 10614 N 981.458 -1.16348 1.06306 0
M  V30 10615 C 982.706 -1.86512 0.778311 0
M  V30 10616 C 983.027 -1.82107 -0.697273 0
M  V30 10617 O 982.297 -1.2547 -1.50446 0
M  V30 10618 H 980.877 -0.690529 0.284919 0
M  V30 10619 H 983.539 -1.41092 1.34458 0
M  V30 10620 H 982.635 -2.91947 1.10333 0
M  V30 10621 N 982.937 -0.845659 -1.3299 0
M  V30 10622 C 983.867 -0.298957 -2.31578 0
M  V30 10623 C 984.848 0.597012 -1.59279 0
M  V30 10624 O 986.033 0.519142 -1.87132 0
M  V30 10625 C 983.163 0.521109 -3.43368 0
M  V30 10626 C 982.117 -0.279651 -4.27085 0
M  V30 10627 C 981.443 0.664591 -5.30554 0
M  V30 10628 C 982.743 -1.50046 -5.00283 0
M  V30 10629 H 984.437 -1.12272 -2.77552 0
M  V30 10630 H 981.983 -0.54132 -1.33438 0
M  V30 10631 H 983.936 0.913921 -4.1137 0
M  V30 10632 H 982.66 1.37815 -2.96099 0
M  V30 10633 H 981.319 -0.654106 -3.60717 0
M  V30 10634 H 980.967 1.51822 -4.79541 0
M  V30 10635 H 980.667 0.132871 -5.8745 0
M  V30 10636 H 982.191 1.05477 -6.01421 0
M  V30 10637 H 983.605 -1.18044 -5.61016 0
M  V30 10638 H 982.002 -1.96946 -5.66862 0
M  V30 10639 H 983.072 -2.26659 -4.28665 0
M  V30 10640 N 984.415 1.45619 -0.602734 0
M  V30 10641 C 985.345 2.33258 0.106342 0
M  V30 10642 C 986.326 1.46543 0.863664 0
M  V30 10643 O 987.511 1.75324 0.835175 0
M  V30 10644 C 984.641 3.29168 1.10751 0
M  V30 10645 C 983.595 4.25481 0.463717 0
M  V30 10646 C 982.921 5.11046 1.57278 0
M  V30 10647 C 984.221 5.18702 -0.61199 0
M  V30 10648 H 985.915 2.92795 -0.625423 0
M  V30 10649 H 983.461 1.40793 -0.302213 0
M  V30 10650 H 985.414 3.89346 1.61208 0
M  V30 10651 H 984.138 2.6778 1.8698 0
M  V30 10652 H 982.797 3.66595 -0.0199496 0
M  V30 10653 H 982.445 4.46029 2.32524 0
M  V30 10654 H 982.145 5.76286 1.14755 0
M  V30 10655 H 983.669 5.74091 2.07972 0
M  V30 10656 H 985.083 5.72979 -0.191686 0
M  V30 10657 H 983.48 5.92393 -0.958686 0
M  V30 10658 H 984.55 4.61424 -1.4905 0
M  V30 10659 N 985.893 0.34162 1.53853 0
M  V30 10660 C 986.826 -0.559051 2.21246 0
M  V30 10661 C 987.804 -1.10179 1.1958 0
M  V30 10662 O 988.988 -1.16242 1.48392 0
M  V30 10663 C 986.115 -1.7689 2.88838 0
M  V30 10664 C 985.161 -1.3558 4.04377 0
M  V30 10665 S 985.994 -0.377225 5.3417 0
M  V30 10666 C 987.15 -1.59395 6.05264 0
M  V30 10667 H 987.383 0.013373 2.97297 0
M  V30 10668 H 984.916 0.125694 1.53888 0
M  V30 10669 H 986.874 -2.463 3.284 0
M  V30 10670 H 985.535 -2.31254 2.12557 0
M  V30 10671 H 984.728 -2.25781 4.50599 0
M  V30 10672 H 984.33 -0.741197 3.66582 0
M  V30 10673 H 986.622 -2.52872 6.2854 0
M  V30 10674 H 987.565 -1.17356 6.98307 0
M  V30 10675 H 987.973 -1.78913 5.35397 0
M  V30 10676 N 987.371 -1.57444 0.0701946 0
M  V30 10677 C 988.301 -2.15659 -0.895176 0
M  V30 10678 C 989.282 -1.08321 -1.31151 0
M  V30 10679 O 990.467 -1.36349 -1.38284 0
M  V30 10680 C 987.597 -2.71693 -2.16334 0
M  V30 10681 C 986.551 -3.84183 -1.88645 0
M  V30 10682 C 985.877 -4.26814 -3.22078 0
M  V30 10683 C 987.177 -5.08493 -1.19299 0
M  V30 10684 H 988.871 -2.96576 -0.410217 0
M  V30 10685 H 986.417 -1.42662 -0.195872 0
M  V30 10686 H 988.37 -3.11064 -2.84284 0
M  V30 10687 H 987.094 -1.87994 -2.67069 0
M  V30 10688 H 985.753 -3.45314 -1.23101 0
M  V30 10689 H 985.401 -3.40039 -3.70651 0
M  V30 10690 H 985.101 -5.02642 -3.04344 0
M  V30 10691 H 986.625 -4.68799 -3.91228 0
M  V30 10692 H 988.039 -5.4519 -1.77316 0
M  V30 10693 H 986.436 -5.89588 -1.11828 0
M  V30 10694 H 987.506 -4.84595 -0.171839 0
M  V30 10695 N 988.849 0.203349 -1.56283 0
M  V30 10696 C 990.096 0.92501 -1.80138 0
M  V30 10697 C 990.424 1.83598 -0.64204 0
M  V30 10698 O 989.679 1.92119 0.372658 0
M  V30 10699 C 989.978 1.78016 -3.09912 0
M  V30 10700 C 989.644 1.02088 -4.39191 0
M  V30 10701 C 988.306 0.811208 -4.74313 0
M  V30 10702 C 990.658 0.486037 -5.18929 0
M  V30 10703 C 987.986 0.0550856 -5.86674 0
M  V30 10704 C 990.338 -0.256833 -6.32078 0
M  V30 10705 C 989.002 -0.477594 -6.65789 0
M  V30 10706 H 988.272 0.338485 -0.659173 0
M  V30 10707 H 990.919 0.191923 -1.90536 0
M  V30 10708 H 989.224 2.58167 -2.94715 0
M  V30 10709 H 990.921 2.341 -3.25574 0
M  V30 10710 H 987.511 1.1943 -4.11624 0
M  V30 10711 H 991.695 0.635446 -4.92215 0
M  V30 10712 H 986.951 -0.126006 -6.1127 0
M  V30 10713 H 991.125 -0.678683 -6.93085 0
M  V30 10714 H 988.752 -1.0654 -7.52697 0
M  V30 10715 N 990.327 1.50405 0.470755 0
M  V30 10716 C 991.575 1.61092 1.2204 0
M  V30 10717 C 991.896 0.313487 1.92464 0
M  V30 10718 O 991.166 -0.669043 1.84121 0
M  V30 10719 H 989.746 0.593618 0.45346 0
M  V30 10720 H 992.408 1.87184 0.542985 0
M  V30 10721 H 991.504 2.42222 1.96812 0
M  V30 10722 N 991.805 -0.723954 1.39988 0
M  V30 10723 C 993.045 -1.49624 1.39255 0
M  V30 10724 C 993.409 -1.91998 -0.00860198 0
M  V30 10725 O 994.61 -2.6843 -0.141002 0
M  V30 10726 C 992.881 -2.69514 2.34728 0
M  V30 10727 S 994.44 -3.59027 2.5228 0
M  V30 10728 H 991.258 -0.511661 0.493685 0
M  V30 10729 H 993.86 -0.847322 1.76184 0
M  V30 10730 H 992.564 -2.36541 3.35375 0
M  V30 10731 H 992.095 -3.39325 1.99053 0
M  V30 10732 H 994.11 -4.63597 1.76896 0
M  V30 10733 N 993.283 -1.25346 -0.955304 0
M  V30 10734 C 994.53 -1.10055 -1.69983 0
M  V30 10735 C 994.858 0.358586 -1.91166 0
M  V30 10736 O 994.113 1.28071 -1.47974 0
M  V30 10737 C 994.412 -1.7993 -3.08804 0
M  V30 10738 C 994.078 -3.29851 -3.07424 0
M  V30 10739 C 992.74 -3.7075 -3.06754 0
M  V30 10740 C 995.092 -4.25636 -3.00805 0
M  V30 10741 C 992.42 -5.05847 -2.97214 0
M  V30 10742 C 994.772 -5.60756 -2.92806 0
M  V30 10743 C 993.436 -6.00984 -2.90472 0
M  V30 10744 H 992.706 -0.402718 -0.622012 0
M  V30 10745 H 995.353 -1.5561 -1.11614 0
M  V30 10746 H 993.658 -1.26803 -3.70713 0
M  V30 10747 H 995.355 -1.65551 -3.65231 0
M  V30 10748 H 991.945 -2.97308 -3.08716 0
M  V30 10749 H 996.129 -3.9503 -3.00441 0
M  V30 10750 H 991.385 -5.36196 -2.93775 0
M  V30 10751 H 995.559 -6.34671 -2.86645 0
M  V30 10752 H 993.186 -7.05626 -2.82835 0
M  V30 10753 N 994.761 1.15782 -1.06922 0
M  V30 10754 C 995.691 2.22538 -0.707045 0
M  V30 10755 C 996.672 1.67371 0.303471 0
M  V30 10756 O 997.857 1.9339 0.177189 0
M  V30 10757 C 994.987 3.47158 -0.0994269 0
M  V30 10758 C 993.941 4.15257 -1.03661 0
M  V30 10759 C 993.267 5.33902 -0.291974 0
M  V30 10760 C 994.567 4.65516 -2.36837 0
M  V30 10761 H 996.261 2.53089 -1.59958 0
M  V30 10762 H 993.807 1.21649 -0.770552 0
M  V30 10763 H 995.76 4.21073 0.165852 0
M  V30 10764 H 994.484 3.15926 0.828155 0
M  V30 10765 H 993.143 3.43276 -1.28674 0
M  V30 10766 H 992.791 4.98926 0.638928 0
M  V30 10767 H 992.491 5.80407 -0.916613 0
M  V30 10768 H 994.015 6.1059 -0.0343915 0
M  V30 10769 H 995.429 5.30981 -2.16175 0
M  V30 10770 H 993.826 5.22666 -2.94856 0
M  V30 10771 H 994.896 3.81387 -2.99453 0
M  V30 10772 N 996.239 0.8527 1.3254 0
M  V30 10773 C 997.202 0.300959 2.27215 0
M  V30 10774 C 998.202 -0.538235 1.51525 0
M  V30 10775 O 999.392 -0.350027 1.70647 0
M  V30 10776 C 996.524 -0.574428 3.36025 0
M  V30 10777 H 997.717 1.13655 2.77529 0
M  V30 10778 H 995.27 0.626878 1.43178 0
M  V30 10779 H 996.005 -1.43191 2.90976 0
M  V30 10780 H 995.79 0.0262265 3.92091 0
M  V30 10781 H 997.28 -0.9533 4.06573 0
M  V30 10782 N 997.718 -1.45297 0.610449 0
M  V30 10783 C 998.964 -2.03073 0.115358 0
M  V30 10784 C 999.319 -1.47 -1.24132 0
M  V30 10785 O 998.612 -0.636326 -1.80725 0
M  V30 10786 C 998.806 -3.57394 0.0205329 0
M  V30 10787 C 998.635 -4.28436 1.36647 0
M  V30 10788 C 997.405 -4.66245 1.94791 0
M  V30 10789 C 999.603 -4.60211 2.29587 0
M  V30 10790 N 997.585 -5.22159 3.22835 0
M  V30 10791 C 998.956 -5.16989 3.42232 0
M  V30 10792 C 1001.01 -4.42152 2.28923 0
M  V30 10793 C 999.714 -5.5761 4.54382 0
M  V30 10794 C 1001.74 -4.83808 3.40123 0
M  V30 10795 C 1001.1 -5.40681 4.5149 0
M  V30 10796 H 997.201 -0.777296 0.0856485 0
M  V30 10797 H 999.785 -1.77077 0.809426 0
M  V30 10798 H 997.956 -3.83045 -0.642763 0
M  V30 10799 H 999.688 -4.01826 -0.481481 0
M  V30 10800 H 996.443 -4.49893 1.47965 0
M  V30 10801 H 996.867 -5.54613 3.88245 0
M  V30 10802 H 1001.51 -3.97493 1.44081 0
M  V30 10803 H 999.227 -6.01234 5.39947 0
M  V30 10804 H 1002.81 -4.71565 3.40761 0
M  V30 10805 H 1001.69 -5.72321 5.36114 0
M  V30 10806 N 999.196 -0.349774 -1.5367 0
M  V30 10807 C 1000.11 0.512421 -2.28935 0
M  V30 10808 C 1001.12 1.1065 -1.34286 0
M  V30 10809 O 1002.3 1.12084 -1.67329 0
M  V30 10810 C 999.363 1.64449 -3.05217 0
M  V30 10811 C 998.424 1.07956 -4.15505 0
M  V30 10812 C 997.657 2.15768 -4.88139 0
M  V30 10813 O 997.88 3.366 -4.60496 0
M  V30 10814 O 996.814 1.79712 -5.74445 0
M  V30 10815 H 1000.64 -0.0996001 -3.03537 0
M  V30 10816 H 998.225 -0.114629 -1.4896 0
M  V30 10817 H 1000.11 2.30302 -3.52901 0
M  V30 10818 H 998.782 2.24221 -2.33467 0
M  V30 10819 H 997.689 0.385381 -3.7211 0
M  V30 10820 H 999.022 0.526621 -4.89375 0
M  V30 10821 N 1000.67 1.57404 -0.0785433 0
M  V30 10822 C 1001.9 1.98074 0.597862 0
M  V30 10823 C 1002.32 0.95714 1.6274 0
M  V30 10824 O 1001.67 -0.0553728 1.82416 0
M  V30 10825 C 1001.72 3.38815 1.26041 0
M  V30 10826 O 1001.45 4.37254 0.27207 0
M  V30 10827 C 1002.95 3.94397 2.024 0
M  V30 10828 H 1000.17 0.651263 0.161546 0
M  V30 10829 H 1002.71 2.03927 -0.152941 0
M  V30 10830 H 1000.87 3.34028 1.96225 0
M  V30 10831 H 1001.28 5.19136 0.74822 0
M  V30 10832 H 1002.75 4.95075 2.4414 0
M  V30 10833 H 1003.23 3.31308 2.88326 0
M  V30 10834 H 1003.84 4.02607 1.37068 0
M  V30 10835 N 1002.15 -0.195058 1.56388 0
M  V30 10836 C 1003.57 -0.545894 1.49974 0
M  V30 10837 C 1003.77 -1.85851 0.778568 0
M  V30 10838 O 1002.82 -2.50346 0.329105 0
M  V30 10839 C 1004.14 -0.600599 2.94641 0
M  V30 10840 C 1005.68 -0.689429 3.05313 0
M  V30 10841 C 1006.16 -0.775243 4.51391 0
M  V30 10842 N 1007.65 -0.838769 4.55542 0
M  V30 10843 C 1008.39 -0.925337 5.65884 0
M  V30 10844 N 1007.88 -0.974204 6.85916 0
M  V30 10845 N 1009.67 -0.962528 5.53798 0
M  V30 10846 H 1001.83 0.66595 2.0169 0
M  V30 10847 H 1004.09 0.237215 0.917842 0
M  V30 10848 H 1003.79 0.29478 3.50462 0
M  V30 10849 H 1003.67 -1.45528 3.47996 0
M  V30 10850 H 1006.06 -1.57524 2.4954 0
M  V30 10851 H 1006.14 0.191451 2.55083 0
M  V30 10852 H 1005.78 0.106215 5.07789 0
M  V30 10853 H 1005.71 -1.67193 4.99354 0
M  V30 10854 H 1008.2 -0.810249 3.69112 0
M  V30 10855 H 1008.51 -1.04077 7.6576 0
M  V30 10856 H 1006.86 -0.942881 6.88574 0
M  V30 10857 H 1010.05 -0.921188 4.58946 0
M  V30 10858 H 1010.22 -1.02653 6.39817 0
M  V30 10859 N 1003.63 -1.50653 -0.462772 0
M  V30 10860 C 1004.58 -1.70661 -1.58043 0
M  V30 10861 C 1005.57 -0.572533 -1.59432 0
M  V30 10862 O 1006.78 -0.753257 -1.63481 0
M  V30 10863 H 1003.15 -0.538805 -0.524588 0
M  V30 10864 H 1005.12 -2.64399 -1.38332 0
M  V30 10865 C 1003.87 -1.82558 -2.95919 0
M  V30 10866 H 1003.2 -2.69216 -2.95572 0
M  V30 10867 H 1004.64 -2.0058 -3.73556 0
M  V30 10868 C 1003.09 -0.57916 -3.31885 0
M  V30 10869 O 1003.62 0.277888 -4.00738 0
M  V30 10870 N 1001.83 -0.430723 -2.8739 0
M  V30 10871 H 1001.38 -1.1292 -2.31531 0
M  V30 10872 H 1001.34 0.402061 -3.11819 0
M  V30 10873 N 1005.11 0.71652 -1.4037 0
M  V30 10874 C 1006.35 1.47857 -1.38803 0
M  V30 10875 C 1006.69 1.94197 0.0100536 0
M  V30 10876 O 1005.96 1.68093 0.978521 0
M  V30 10877 C 1006.25 2.7053 -2.37667 0
M  V30 10878 C 1006.1 2.3009 -3.86496 0
M  V30 10879 C 1007.42 3.72684 -2.34082 0
M  V30 10880 H 1004.54 0.53632 -0.505499 0
M  V30 10881 H 1007.18 0.817824 -1.71498 0
M  V30 10882 H 1005.33 3.26906 -2.09916 0
M  V30 10883 H 1007 1.79202 -4.2507 0
M  V30 10884 H 1005.24 1.62102 -4.02375 0
M  V30 10885 H 1005.91 3.18018 -4.51186 0
M  V30 10886 H 1008.39 3.25935 -2.58661 0
M  V30 10887 H 1007.27 4.56157 -3.05306 0
M  V30 10888 H 1007.53 4.20916 -1.35213 0
M  V30 10889 N 1006.59 1.25851 0.948643 0
M  V30 10890 C 1007.81 1.13813 1.73382 0
M  V30 10891 C 1008.24 -0.303615 1.85633 0
M  V30 10892 O 1007.59 -1.21997 1.34114 0
M  V30 10893 C 1007.64 1.80388 3.12238 0
M  V30 10894 O 1006.75 1.08759 3.978 0
M  V30 10895 H 1006.09 0.397006 0.532243 0
M  V30 10896 H 1008.62 1.66529 1.18866 0
M  V30 10897 H 1008.63 1.86913 3.62667 0
M  V30 10898 H 1007.3 2.85278 3.02637 0
M  V30 10899 H 1005.88 1.10157 3.56258 0
M  V30 10900 N 1008.06 -1.15214 1.07534 0
M  V30 10901 C 1009.31 -1.85388 0.794617 0
M  V30 10902 C 1009.63 -1.83331 -0.681838 0
M  V30 10903 O 1010.83 -2.49207 -1.0774 0
M  V30 10904 C 1009.29 -3.32747 1.37141 0
M  V30 10905 C 1008.9 -3.43244 2.87902 0
M  V30 10906 C 1010.64 -4.08093 1.16879 0
M  V30 10907 C 1008.55 -4.84762 3.38763 0
M  V30 10908 H 1007.48 -0.694499 0.293577 0
M  V30 10909 H 1010.13 -1.29944 1.29564 0
M  V30 10910 H 1008.51 -3.87874 0.798121 0
M  V30 10911 H 1009.68 -2.98214 3.51291 0
M  V30 10912 H 1008 -2.81345 3.06975 0
M  V30 10913 H 1010.6 -5.12535 1.52353 0
M  V30 10914 H 1010.94 -4.1616 0.107958 0
M  V30 10915 H 1011.47 -3.59241 1.70854 0
M  V30 10916 H 1008.21 -4.81879 4.4438 0
M  V30 10917 H 1007.73 -5.30366 2.80128 0
M  V30 10918 H 1009.41 -5.53624 3.34827 0
M  V30 10919 N 1009.54 -0.859717 -1.32086 0
M  V30 10920 C 1010.95 -0.519529 -1.79326 0
M  V30 10921 C 1011.3 0.96295 -1.70944 0
M  V30 10922 O 1010.43 1.75139 -1.27104 0
M  V30 10923 C 1011.02 -0.936267 -3.25606 0
M  V30 10924 C 1009.58 -0.647899 -3.70782 0
M  V30 10925 C 1008.73 -1.13323 -2.53087 0
M  V30 10926 H 1011.68 -1.04643 -1.19312 0
M  V30 10927 H 1011.7 -0.254714 -3.79646 0
M  V30 10928 H 1011.21 -2.01527 -3.31675 0
M  V30 10929 H 1009.32 0.420172 -3.70223 0
M  V30 10930 H 1009.43 -1.21774 -4.63366 0
M  V30 10931 H 1007.79 -0.553325 -2.48617 0
M  V30 10932 H 1008.58 -2.21945 -2.61907 0
M  V30 10933 N 1011.02 1.44971 -0.618145 0
M  V30 10934 C 1011.98 2.29044 0.0846739 0
M  V30 10935 C 1012.98 1.40341 0.784921 0
M  V30 10936 O 1014.17 1.62351 0.631479 0
M  V30 10937 C 1011.31 3.21617 1.13027 0
M  V30 10938 H 1012.5 2.92668 -0.654612 0
M  V30 10939 H 1010.05 1.51668 -0.377672 0
M  V30 10940 H 1010.79 2.62815 1.89997 0
M  V30 10941 H 1010.57 3.86969 0.63224 0
M  V30 10942 H 1012.06 3.84805 1.62218 0
M  V30 10943 N 1012.5 0.357919 1.53482 0
M  V30 10944 C 1013.43 -0.484231 2.28424 0
M  V30 10945 C 1014.41 -1.09046 1.30548 0
M  V30 10946 O 1015.59 -1.10916 1.59409 0
M  V30 10947 C 1012.72 -1.62803 3.06778 0
M  V30 10948 C 1011.68 -1.14943 4.12277 0
M  V30 10949 C 1011 -2.38287 4.78669 0
M  V30 10950 C 1012.3 -0.239627 5.2175 0
M  V30 10951 H 1014 0.140979 2.99068 0
M  V30 10952 H 1011.54 0.069244 1.43833 0
M  V30 10953 H 1013.5 -2.22374 3.57949 0
M  V30 10954 H 1012.22 -2.28036 2.3381 0
M  V30 10955 H 1010.88 -0.576442 3.6204 0
M  V30 10956 H 1010.53 -3.01959 4.02281 0
M  V30 10957 H 1010.23 -2.06939 5.49955 0
M  V30 10958 H 1011.75 -2.98558 5.32631 0
M  V30 10959 H 1013.17 -0.742597 5.6847 0
M  V30 10960 H 1011.56 -0.0173747 6.00097 0
M  V30 10961 H 1012.63 0.720333 4.7952 0
M  V30 10962 N 1013.98 -1.5736 0.0868897 0
M  V30 10963 C 1014.92 -2.14793 -0.892571 0
M  V30 10964 C 1015.92 -1.08866 -1.29787 0
M  V30 10965 O 1017.12 -1.27223 -1.27335 0
M  V30 10966 H 1013.5 -0.686998 -0.305838 0
M  V30 10967 H 1015.47 -2.95927 -0.383393 0
M  V30 10968 C 1014.22 -2.73646 -2.14507 0
M  V30 10969 H 1013.54 -3.54835 -1.84207 0
M  V30 10970 H 1014.98 -3.17409 -2.81118 0
M  V30 10971 C 1013.44 -1.69138 -2.91366 0
M  V30 10972 O 1013.97 -1.12539 -3.85614 0
M  V30 10973 N 1012.18 -1.3982 -2.54752 0
M  V30 10974 H 1011.72 -1.86035 -1.78182 0
M  V30 10975 H 1011.68 -0.701316 -3.06478 0
M  V30 10976 N 1015.45 0.186762 -1.56489 0
M  V30 10977 C 1016.73 0.932229 -1.71956 0
M  V30 10978 C 1017.11 2.01037 -0.644006 0
M  V30 10979 O 1016.46 2.259 0.343694 0
M  V30 10980 C 1016.67 1.51106 -3.14592 0
M  V30 10981 C 1018.02 1.98997 -3.75081 0
M  V30 10982 O 1019.04 1.60931 -3.17773 0
M  V30 10983 O 1017.9 2.69067 -4.75673 0
M  V30 10984 H 1014.99 0.437736 -0.701652 0
M  V30 10985 H 1017.54 0.175803 -1.68787 0
M  V30 10986 H 1016.31 0.734327 -3.84348 0
M  V30 10987 H 1015.94 2.33209 -3.22024 0
M  V30 10988 N 1016.93 1.50896 0.454776 0
M  V30 10989 C 1018.16 1.66759 1.23313 0
M  V30 10990 C 1018.58 0.35722 1.84677 0
M  V30 10991 O 1017.94 -0.680771 1.68033 0
M  V30 10992 C 1017.99 2.77254 2.3057 0
M  V30 10993 O 1017.09 2.39642 3.35627 0
M  V30 10994 H 1016.43 0.556599 0.362068 0
M  V30 10995 H 1018.96 1.97365 0.539274 0
M  V30 10996 H 1018.97 3.0082 2.75629 0
M  V30 10997 H 1017.65 3.72349 1.85281 0
M  V30 10998 H 1016.23 2.26584 2.96165 0
M  V30 10999 N 1018.41 -0.709066 1.40748 0
M  V30 11000 C 1019.36 -1.82312 1.4153 0
M  V30 11001 C 1020.33 -1.63868 0.271392 0
M  V30 11002 O 1021.51 -1.8491 0.470431 0
M  V30 11003 C 1018.65 -3.2008 1.29006 0
M  V30 11004 C 1017.77 -3.50051 2.53156 0
M  V30 11005 C 1016.9 -4.7736 2.33025 0
M  V30 11006 C 1015.94 -5.00255 3.52719 0
M  V30 11007 N 1015.08 -6.18782 3.31743 0
M  V30 11008 H 1019.92 -1.80978 2.36751 0
M  V30 11009 H 1017.45 -0.883975 1.17577 0
M  V30 11010 H 1019.41 -3.99645 1.19749 0
M  V30 11011 H 1018.04 -3.20626 0.374014 0
M  V30 11012 H 1017.09 -2.64993 2.72916 0
M  V30 11013 H 1018.41 -3.62877 3.42231 0
M  V30 11014 H 1017.56 -5.64954 2.21159 0
M  V30 11015 H 1016.3 -4.66756 1.41386 0
M  V30 11016 H 1015.3 -4.11114 3.65055 0
M  V30 11017 H 1016.53 -5.12728 4.45295 0
M  V30 11018 H 1014.47 -6.09416 2.42791 0
M  V30 11019 H 1014.39 -6.32313 4.14386 0
M  V30 11020 H 1015.66 -7.09146 3.23623 0
M  V30 11021 N 1019.89 -1.26353 -0.941956 0
M  V30 11022 C 1021.12 -1.1446 -1.71996 0
M  V30 11023 C 1021.53 0.302957 -1.86759 0
M  V30 11024 O 1020.87 1.2193 -1.374 0
M  V30 11025 C 1020.93 -1.73986 -3.14593 0
M  V30 11026 C 1020.6 -3.23078 -3.23217 0
M  V30 11027 C 1021.59 -4.19905 -3.06554 0
M  V30 11028 C 1019.28 -3.63526 -3.46632 0
M  V30 11029 C 1021.27 -5.55159 -3.13172 0
M  V30 11030 C 1018.96 -4.98914 -3.52886 0
M  V30 11031 C 1019.96 -5.9454 -3.36172 0
M  V30 11032 O 1019.65 -7.27462 -3.42132 0
M  V30 11033 H 1019.38 -0.399453 -0.545356 0
M  V30 11034 H 1021.93 -1.67455 -1.18945 0
M  V30 11035 H 1020.16 -1.15453 -3.69063 0
M  V30 11036 H 1021.85 -1.57011 -3.74302 0
M  V30 11037 H 1022.62 -3.89995 -2.88321 0
M  V30 11038 H 1018.5 -2.8958 -3.58698 0
M  V30 11039 H 1022.04 -6.29777 -3.00044 0
M  V30 11040 H 1017.94 -5.28485 -3.70639 0
M  V30 11041 H 1018.7 -7.35725 -3.5868 0
M  V30 11042 N 1021.37 1.14642 -1.08144 0
M  V30 11043 C 1022.62 1.84964 -0.804437 0
M  V30 11044 C 1022.93 1.8369 0.672106 0
M  V30 11045 O 1024.14 2.49775 1.06417 0
M  V30 11046 C 1022.59 3.32015 -1.38904 0
M  V30 11047 C 1022.2 3.41713 -2.89718 0
M  V30 11048 C 1023.94 4.07467 -1.19041 0
M  V30 11049 C 1021.85 4.82958 -3.41329 0
M  V30 11050 H 1020.78 0.692932 -0.297256 0
M  V30 11051 H 1023.43 1.29255 -1.30251 0
M  V30 11052 H 1021.81 3.87445 -0.818679 0
M  V30 11053 H 1022.99 2.96347 -3.52867 0
M  V30 11054 H 1021.3 2.79713 -3.08463 0
M  V30 11055 H 1023.9 5.1172 -1.55069 0
M  V30 11056 H 1024.24 4.16097 -0.130027 0
M  V30 11057 H 1024.78 3.58329 -1.72757 0
M  V30 11058 H 1021.51 4.79515 -4.46929 0
M  V30 11059 H 1021.03 5.28873 -2.82937 0
M  V30 11060 H 1022.71 5.51841 -3.37759 0
M  V30 11061 N 1022.85 0.866709 1.31628 0
M  V30 11062 C 1024.09 0.475086 1.96437 0
M  V30 11063 C 1024.41 -0.975179 1.68865 0
M  V30 11064 O 1023.68 -1.68317 1.0023 0
M  V30 11065 H 1022.26 0.172695 0.726764 0
M  V30 11066 H 1024.93 1.10578 1.60494 0
M  V30 11067 H 1024.02 0.630123 3.05673 0
M  V30 11068 N 1024.32 -1.44642 0.625825 0
M  V30 11069 C 1025.26 -2.27821 -0.131481 0
M  V30 11070 C 1026.23 -1.38224 -0.856324 0
M  V30 11071 O 1027.42 -1.67662 -0.861493 0
M  V30 11072 C 1024.55 -3.1703 -1.19204 0
M  V30 11073 C 1023.59 -4.22697 -0.568315 0
M  V30 11074 S 1024.42 -5.3169 0.637612 0
M  V30 11075 C 1025.58 -6.24468 -0.423088 0
M  V30 11076 H 1025.81 -2.91703 0.574177 0
M  V30 11077 H 1023.35 -1.4875 0.413844 0
M  V30 11078 H 1025.3 -3.6898 -1.79901 0
M  V30 11079 H 1023.97 -2.52379 -1.86986 0
M  V30 11080 H 1023.16 -4.8511 -1.36689 0
M  V30 11081 H 1022.76 -3.73983 -0.0360843 0
M  V30 11082 H 1025.05 -6.64967 -1.29713 0
M  V30 11083 H 1026 -7.07907 0.165338 0
M  V30 11084 H 1026.4 -5.59541 -0.746606 0
M  V30 11085 N 1025.8 -0.366053 -1.5329 0
M  V30 11086 C 1027.03 0.226839 -2.06156 0
M  V30 11087 C 1027.45 1.41637 -1.23776 0
M  V30 11088 O 1026.81 1.7947 -0.256948 0
M  V30 11089 C 1026.86 0.597956 -3.55608 0
M  V30 11090 O 1025.96 1.69512 -3.75951 0
M  V30 11091 H 1025.3 0.0329156 -0.663184 0
M  V30 11092 H 1027.83 -0.526793 -1.97702 0
M  V30 11093 H 1027.84 0.868831 -3.98642 0
M  V30 11094 H 1026.52 -0.271838 -4.15011 0
M  V30 11095 H 1025.09 1.41976 -3.44815 0
M  V30 11096 N 1027.28 1.57312 -0.0952337 0
M  V30 11097 C 1028.53 1.94646 0.569284 0
M  V30 11098 C 1028.86 0.977152 1.67825 0
M  V30 11099 O 1028.13 0.0102318 1.94497 0
M  V30 11100 C 1028.42 3.42098 1.12433 0
M  V30 11101 C 1028.27 4.49795 0.0204016 0
M  V30 11102 C 1029.59 3.90866 2.02266 0
M  V30 11103 H 1026.71 0.707779 0.205469 0
M  V30 11104 H 1029.35 1.89274 -0.16597 0
M  V30 11105 H 1027.5 3.46807 1.75092 0
M  V30 11106 H 1029.17 4.57198 -0.613845 0
M  V30 11107 H 1027.41 4.28964 -0.645965 0
M  V30 11108 H 1028.09 5.50166 0.449579 0
M  V30 11109 H 1030.56 3.88311 1.49512 0
M  V30 11110 H 1029.44 4.94604 2.38029 0
M  V30 11111 H 1029.7 3.30167 2.9401 0
M  V30 11112 N 1028.76 -0.17846 1.56586 0
M  V30 11113 C 1029.99 -0.910674 1.85446 0
M  V30 11114 C 1030.4 -1.76647 0.677675 0
M  V30 11115 O 1029.74 -1.80086 -0.362584 0
M  V30 11116 C 1029.8 -1.84363 3.08627 0
M  V30 11117 C 1029.46 -1.16814 4.41818 0
M  V30 11118 C 1030.46 -0.53703 5.17119 0
M  V30 11119 C 1028.15 -1.16703 4.88555 0
M  V30 11120 C 1030.14 0.0861778 6.37342 0
M  V30 11121 C 1027.83 -0.539992 6.0871 0
M  V30 11122 C 1028.83 0.0855135 6.82946 0
M  V30 11123 O 1028.51 0.70268 8.00823 0
M  V30 11124 H 1028.25 -0.270377 0.619574 0
M  V30 11125 H 1030.8 -0.185591 2.0456 0
M  V30 11126 H 1029.03 -2.60884 2.85441 0
M  V30 11127 H 1030.72 -2.44506 3.23993 0
M  V30 11128 H 1031.48 -0.529915 4.82096 0
M  V30 11129 H 1027.36 -1.64329 4.30717 0
M  V30 11130 H 1030.91 0.575011 6.95226 0
M  V30 11131 H 1026.8 -0.544666 6.43198 0
M  V30 11132 H 1027.57 0.601224 8.16289 0
M  V30 11133 N 1030.24 -1.51135 -0.446768 0
M  V30 11134 C 1031.18 -1.72328 -1.56224 0
M  V30 11135 C 1032.18 -0.589411 -1.58815 0
M  V30 11136 O 1033.38 -0.770554 -1.62673 0
M  V30 11137 H 1029.76 -0.544339 -0.518844 0
M  V30 11138 H 1031.73 -2.65851 -1.3552 0
M  V30 11139 C 1030.48 -1.85686 -2.93966 0
M  V30 11140 H 1029.8 -2.72336 -2.927 0
M  V30 11141 H 1031.24 -2.0453 -3.71407 0
M  V30 11142 C 1029.7 -0.614328 -3.31252 0
M  V30 11143 O 1030.23 0.235369 -4.0101 0
M  V30 11144 N 1028.44 -0.461181 -2.86917 0
M  V30 11145 H 1027.98 -1.15369 -2.30321 0
M  V30 11146 H 1027.94 0.368966 -3.12227 0
M  V30 11147 N 1031.71 0.701592 -1.41122 0
M  V30 11148 C 1032.96 1.46376 -1.40363 0
M  V30 11149 C 1033.29 1.94197 -0.0105442 0
M  V30 11150 O 1032.57 1.69121 0.960637 0
M  V30 11151 C 1032.85 2.67994 -2.40523 0
M  V30 11152 C 1032.7 2.25977 -3.88914 0
M  V30 11153 C 1034.02 3.70181 -2.38022 0
M  V30 11154 H 1031.14 0.530929 -0.511159 0
M  V30 11155 H 1033.78 0.799588 -1.72356 0
M  V30 11156 H 1031.93 3.24661 -2.13372 0
M  V30 11157 H 1033.61 1.74684 -4.26946 0
M  V30 11158 H 1031.85 1.57826 -4.04071 0
M  V30 11159 H 1032.52 3.13215 -4.54533 0
M  V30 11160 H 1035 3.23174 -2.62103 0
M  V30 11161 H 1033.87 4.52894 -3.10127 0
M  V30 11162 H 1034.13 4.19458 -1.3967 0
M  V30 11163 N 1033.19 1.2685 0.935242 0
M  V30 11164 C 1034.44 1.12522 1.67878 0
M  V30 11165 C 1034.76 -0.330894 1.92172 0
M  V30 11166 O 1034.03 -1.23259 1.52263 0
M  V30 11167 H 1032.61 0.413418 0.622169 0
M  V30 11168 H 1035.27 1.59267 1.12339 0
M  V30 11169 H 1034.37 1.64853 2.65009 0
M  V30 11170 N 1034.67 -1.14067 1.0875 0
M  V30 11171 C 1035.92 -1.84535 0.814235 0
M  V30 11172 C 1036.23 -1.84044 -0.662355 0
M  V30 11173 O 1037.44 -2.50336 -1.05091 0
M  V30 11174 C 1035.89 -3.31273 1.40663 0
M  V30 11175 C 1035.5 -3.40171 2.91526 0
M  V30 11176 C 1037.25 -4.0683 1.21201 0
M  V30 11177 C 1035.15 -4.81141 3.43885 0
M  V30 11178 H 1034.08 -0.691346 0.300926 0
M  V30 11179 H 1036.73 -1.28562 1.30935 0
M  V30 11180 H 1035.12 -3.87005 0.839215 0
M  V30 11181 H 1036.29 -2.94471 3.54434 0
M  V30 11182 H 1034.61 -2.78073 3.09942 0
M  V30 11183 H 1037.2 -5.10891 1.57781 0
M  V30 11184 H 1037.55 -4.16022 0.152092 0
M  V30 11185 H 1038.08 -3.57408 1.74655 0
M  V30 11186 H 1034.82 -4.77138 4.49466 0
M  V30 11187 H 1034.34 -5.27365 2.85738 0
M  V30 11188 H 1036.02 -5.50042 3.40681 0
M  V30 11189 N 1036.15 -0.873678 -1.31166 0
M  V30 11190 C 1037.08 -0.276805 -2.26515 0
M  V30 11191 C 1038.06 0.596166 -1.51277 0
M  V30 11192 O 1039.24 0.548769 -1.80335 0
M  V30 11193 C 1036.37 0.607711 -3.33203 0
M  V30 11194 C 1035.42 -0.194411 -4.26057 0
M  V30 11195 S 1036.25 -1.57534 -5.11804 0
M  V30 11196 C 1037.41 -0.697047 -6.22006 0
M  V30 11197 H 1037.64 -1.08505 -2.76792 0
M  V30 11198 H 1035.17 -0.672419 -1.38989 0
M  V30 11199 H 1037.13 1.11234 -3.95142 0
M  V30 11200 H 1035.79 1.38994 -2.81673 0
M  V30 11201 H 1034.98 0.480094 -5.01708 0
M  V30 11202 H 1034.59 -0.631262 -3.68634 0
M  V30 11203 H 1036.88 0.0907919 -6.77439 0
M  V30 11204 H 1037.82 -1.42481 -6.93617 0
M  V30 11205 H 1038.23 -0.262954 -5.63887 0
M  V30 11206 N 1037.63 1.44308 -0.633487 0
M  V30 11207 C 1038.87 2.03904 -0.14226 0
M  V30 11208 C 1039.23 1.48768 1.21376 0
M  V30 11209 O 1040.43 1.99882 1.79724 0
M  V30 11210 C 1038.7 3.5716 -0.130975 0
M  V30 11211 S 1040.26 4.37805 0.295287 0
M  V30 11212 H 1037.08 0.70827 -0.0622429 0
M  V30 11213 H 1039.68 1.76657 -0.837405 0
M  V30 11214 H 1038.39 3.94794 -1.12096 0
M  V30 11215 H 1037.92 3.89021 0.585342 0
M  V30 11216 H 1039.93 4.71732 1.53894 0
M  V30 11217 N 1039.1 0.374177 1.53094 0
M  V30 11218 C 1040.35 -0.213981 2.00562 0
M  V30 11219 C 1040.67 -1.4916 1.26533 0
M  V30 11220 O 1041.87 -2.15889 1.64634 0
M  V30 11221 C 1040.33 -0.431876 3.57299 0
M  V30 11222 C 1039.94 0.831615 4.40214 0
M  V30 11223 C 1041.68 -0.977222 4.13099 0
M  V30 11224 C 1039.59 0.582831 5.88521 0
M  V30 11225 H 1038.52 -0.0837386 0.749336 0
M  V30 11226 H 1041.17 0.494245 1.76719 0
M  V30 11227 H 1039.55 -1.20158 3.7733 0
M  V30 11228 H 1040.72 1.60477 4.31953 0
M  V30 11229 H 1039.04 1.30081 3.9556 0
M  V30 11230 H 1041.64 -1.17881 5.21544 0
M  V30 11231 H 1041.98 -1.94189 3.68234 0
M  V30 11232 H 1042.51 -0.267473 3.969 0
M  V30 11233 H 1039.25 1.51807 6.37679 0
M  V30 11234 H 1038.77 -0.151666 5.99608 0
M  V30 11235 H 1040.45 0.211604 6.46654 0
M  V30 11236 N 1040.58 -1.57259 0.103575 0
M  V30 11237 C 1041.83 -1.93832 -0.55786 0
M  V30 11238 C 1042.14 -0.988087 -1.68808 0
M  V30 11239 O 1043.35 -1.24786 -2.41124 0
M  V30 11240 C 1041.81 -3.44433 -1.04373 0
M  V30 11241 C 1041.41 -4.47963 0.0571971 0
M  V30 11242 C 1043.16 -3.89953 -1.67742 0
M  V30 11243 C 1041.07 -5.89727 -0.444505 0
M  V30 11244 H 1040 -0.723536 -0.212161 0
M  V30 11245 H 1042.65 -1.82606 0.180944 0
M  V30 11246 H 1041.03 -3.50841 -1.83648 0
M  V30 11247 H 1042.2 -4.53209 0.83298 0
M  V30 11248 H 1040.52 -4.12104 0.596588 0
M  V30 11249 H 1043.11 -4.93272 -2.06365 0
M  V30 11250 H 1043.46 -3.2907 -2.54988 0
M  V30 11251 H 1043.99 -3.86281 -0.950342 0
M  V30 11252 H 1040.73 -6.5433 0.391543 0
M  V30 11253 H 1040.25 -5.87935 -1.18711 0
M  V30 11254 H 1041.93 -6.40558 -0.910739 0
M  V30 11255 N 1042.06 0.170153 -1.56679 0
M  V30 11256 C 1043.31 0.884841 -1.817 0
M  V30 11257 C 1043.63 1.82731 -0.680763 0
M  V30 11258 O 1042.9 1.936 0.299294 0
M  V30 11259 H 1041.48 0.329738 -0.670285 0
M  V30 11260 H 1044.14 0.169691 -1.9416 0
M  V30 11261 H 1043.24 1.46104 -2.7579 0
M  V30 11262 N 1043.54 1.5137 0.438746 0
M  V30 11263 C 1044.5 1.71993 1.51496 0
M  V30 11264 C 1045.5 0.589978 1.49586 0
M  V30 11265 O 1046.69 0.857505 1.51633 0
M  V30 11266 C 1043.82 1.77508 2.91039 0
M  V30 11267 H 1045.02 2.68041 1.34514 0
M  V30 11268 H 1042.57 1.41338 0.667326 0
M  V30 11269 H 1043.3 0.832698 3.13427 0
M  V30 11270 H 1043.09 2.59627 2.9383 0
M  V30 11271 H 1044.58 1.95308 3.69113 0
M  V30 11272 N 1045.02 -0.694098 1.41492 0
M  V30 11273 C 1045.98 -1.78976 1.43179 0
M  V30 11274 C 1046.98 -1.57539 0.322191 0
M  V30 11275 O 1048.17 -1.64185 0.582138 0
M  V30 11276 C 1045.3 -3.17368 1.2446 0
M  V30 11277 H 1046.49 -1.78874 2.40716 0
M  V30 11278 H 1044.05 -0.901867 1.27656 0
M  V30 11279 H 1044.78 -3.23109 0.277691 0
M  V30 11280 H 1044.57 -3.3433 2.04856 0
M  V30 11281 H 1046.06 -3.97345 1.28479 0
M  V30 11282 N 1046.49 -1.27344 -0.928501 0
M  V30 11283 C 1047.74 -1.13804 -1.67859 0
M  V30 11284 C 1048.07 0.31555 -1.91619 0
M  V30 11285 O 1047.35 1.23087 -1.50599 0
M  V30 11286 C 1047.63 -1.9213 -3.04562 0
M  V30 11287 C 1047.48 -3.45468 -2.88048 0
M  V30 11288 C 1048.8 -1.72513 -4.04879 0
M  V30 11289 H 1045.92 -0.414796 -0.609191 0
M  V30 11290 H 1048.56 -1.5649 -1.07753 0
M  V30 11291 H 1046.71 -1.55853 -3.55868 0
M  V30 11292 H 1048.39 -3.9157 -2.43865 0
M  V30 11293 H 1046.63 -3.71849 -2.23407 0
M  V30 11294 H 1047.3 -3.95515 -3.85061 0
M  V30 11295 H 1049.78 -2.04143 -3.62581 0
M  V30 11296 H 1048.65 -2.29713 -4.98521 0
M  V30 11297 H 1048.91 -0.672856 -4.3695 0
M  V30 11298 N 1047.97 1.13488 -1.09353 0
M  V30 11299 C 1049.2 1.89133 -0.85108 0
M  V30 11300 C 1049.62 1.78542 0.591976 0
M  V30 11301 O 1048.98 1.13243 1.41583 0
M  V30 11302 C 1049.03 3.36736 -1.29001 0
M  V30 11303 O 1048.13 4.09959 -0.447993 0
M  V30 11304 H 1047.47 0.58809 -0.308296 0
M  V30 11305 H 1050 1.43593 -1.45747 0
M  V30 11306 H 1050.01 3.87564 -1.27508 0
M  V30 11307 H 1048.69 3.43762 -2.34095 0
M  V30 11308 H 1047.27 3.69155 -0.52717 0
M  V30 11309 N 1049.45 0.880621 1.30701 0
M  V30 11310 C 1050.7 0.496875 1.96309 0
M  V30 11311 C 1051.03 -0.953064 1.69549 0
M  V30 11312 O 1050.28 -1.68782 0.990507 0
M  V30 11313 C 1050.58 0.713203 3.50212 0
M  V30 11314 C 1050.25 2.13756 3.97013 0
M  V30 11315 C 1048.91 2.52706 4.09503 0
M  V30 11316 C 1051.26 3.066 4.21481 0
M  V30 11317 C 1048.59 3.8372 4.43819 0
M  V30 11318 C 1050.94 4.3714 4.57265 0
M  V30 11319 C 1049.6 4.7599 4.67963 0
M  V30 11320 H 1048.87 0.18182 0.718347 0
M  V30 11321 H 1051.52 1.11564 1.55646 0
M  V30 11322 H 1049.83 0.0113694 3.91798 0
M  V30 11323 H 1051.52 0.39595 3.9904 0
M  V30 11324 H 1048.11 1.8252 3.87794 0
M  V30 11325 H 1052.3 2.77729 4.11315 0
M  V30 11326 H 1047.55 4.13568 4.50301 0
M  V30 11327 H 1051.73 5.09123 4.75149 0
M  V30 11328 H 1049.35 5.77549 4.94309 0
M  V30 11329 N 1050.93 -1.4397 0.641131 0
M  V30 11330 C 1051.86 -2.33458 -0.04446 0
M  V30 11331 C 1052.84 -1.48781 -0.824507 0
M  V30 11332 O 1054.03 -1.77477 -0.788397 0
M  V30 11333 C 1051.16 -3.31989 -1.01984 0
M  V30 11334 C 1050.11 -4.2656 -0.350745 0
M  V30 11335 C 1049.44 -5.15036 -1.43673 0
M  V30 11336 C 1050.74 -5.16897 0.749299 0
M  V30 11337 H 1052.43 -2.91034 0.702832 0
M  V30 11338 H 1049.98 -1.39942 0.339435 0
M  V30 11339 H 1051.93 -3.93483 -1.50828 0
M  V30 11340 H 1050.65 -2.72643 -1.79815 0
M  V30 11341 H 1049.31 -3.66413 0.117139 0
M  V30 11342 H 1048.96 -4.52037 -2.20617 0
M  V30 11343 H 1048.66 -5.79125 -0.994358 0
M  V30 11344 H 1050.18 -5.79403 -1.92678 0
M  V30 11345 H 1051.6 -5.7227 0.343534 0
M  V30 11346 H 1049.99 -5.89643 1.11541 0
M  V30 11347 H 1051.06 -4.5731 1.61232 0
M  V30 11348 N 1052.41 -0.382291 -1.52893 0
M  V30 11349 C 1053.64 0.202408 -2.05908 0
M  V30 11350 C 1054.05 1.4109 -1.25456 0
M  V30 11351 O 1053.41 1.80027 -0.29942 0
M  V30 11352 C 1053.46 0.579452 -3.56826 0
M  V30 11353 O 1053.18 -0.58102 -4.3423 0
M  V30 11354 C 1054.68 1.22076 -4.2616 0
M  V30 11355 H 1051.9 0.0321859 -0.670228 0
M  V30 11356 H 1054.44 -0.545494 -1.9709 0
M  V30 11357 H 1052.6 1.27726 -3.65739 0
M  V30 11358 H 1053.01 -0.272693 -5.23791 0
M  V30 11359 H 1054.49 1.435 -5.33021 0
M  V30 11360 H 1054.96 2.18605 -3.80931 0
M  V30 11361 H 1055.57 0.563922 -4.21545 0
M  V30 11362 N 1053.89 1.57202 -0.111913 0
M  V30 11363 C 1055.3 1.57713 0.244702 0
M  V30 11364 C 1055.5 1.12419 1.67225 0
M  V30 11365 O 1054.56 0.808329 2.39212 0
M  V30 11366 C 1055.87 3.00695 0.0178289 0
M  V30 11367 C 1057.42 3.12887 0.0842781 0
M  V30 11368 C 1057.89 4.57856 -0.114812 0
M  V30 11369 N 1059.38 4.6316 -0.0605423 0
M  V30 11370 C 1060.12 5.73086 -0.189594 0
M  V30 11371 N 1059.62 6.91787 -0.37442 0
M  V30 11372 N 1061.41 5.6195 -0.12967 0
M  V30 11373 H 1053.56 1.84947 -1.04443 0
M  V30 11374 H 1055.82 0.854418 -0.4107 0
M  V30 11375 H 1055.53 3.38093 -0.968802 0
M  V30 11376 H 1055.4 3.69611 0.752815 0
M  V30 11377 H 1057.79 2.7535 1.06143 0
M  V30 11378 H 1057.87 2.46528 -0.682474 0
M  V30 11379 H 1057.51 4.9609 -1.0889 0
M  V30 11380 H 1057.44 5.22297 0.671839 0
M  V30 11381 H 1059.94 3.77817 0.0790856 0
M  V30 11382 H 1060.25 7.71406 -0.463948 0
M  V30 11383 H 1058.59 6.93788 -0.410303 0
M  V30 11384 H 1061.78 4.68098 0.0137115 0
M  V30 11385 H 1061.96 6.47578 -0.233688 0
M  V30 11386 N 1055.36 -0.161842 1.56767 0
M  V30 11387 C 1056.64 -0.904754 1.73417 0
M  V30 11388 C 1057.02 -1.99987 0.675908 0
M  V30 11389 O 1056.37 -2.26419 -0.307712 0
M  V30 11390 C 1056.58 -1.46082 3.16956 0
M  V30 11391 C 1057.93 -1.93004 3.78199 0
M  V30 11392 O 1058.95 -1.55856 3.20293 0
M  V30 11393 O 1057.81 -2.61465 4.79894 0
M  V30 11394 H 1054.9 -0.426518 0.708528 0
M  V30 11395 H 1057.45 -0.148928 1.69045 0
M  V30 11396 H 1056.22 -0.673087 3.85468 0
M  V30 11397 H 1055.84 -2.28056 3.25693 0
M  V30 11398 N 1056.84 -1.516 -0.430713 0
M  V30 11399 C 1057.77 -1.69594 -1.54177 0
M  V30 11400 C 1058.79 -0.576518 -1.5225 0
M  V30 11401 O 1059.98 -0.85104 -1.56906 0
M  V30 11402 C 1057.08 -1.70148 -2.93092 0
M  V30 11403 C 1056.25 -2.98782 -3.1945 0
M  V30 11404 C 1055.31 -2.91435 -4.38123 0
M  V30 11405 O 1054.33 -3.65372 -4.36454 0
M  V30 11406 N 1055.54 -2.0774 -5.42056 0
M  V30 11407 H 1058.3 -2.65442 -1.39143 0
M  V30 11408 H 1055.86 -1.49569 -0.61974 0
M  V30 11409 H 1057.85 -1.62793 -3.70514 0
M  V30 11410 H 1056.42 -0.818667 -3.0169 0
M  V30 11411 H 1055.64 -3.19954 -2.30267 0
M  V30 11412 H 1056.93 -3.83919 -3.33892 0
M  V30 11413 H 1056.33 -1.47059 -5.46251 0
M  V30 11414 H 1054.89 -2.06259 -6.18305 0
M  V30 11415 N 1058.32 0.686584 -1.41858 0
M  V30 11416 C 1059.73 1.26682 -1.37145 0
M  V30 11417 C 1060.08 1.96112 -0.058922 0
M  V30 11418 O 1059.21 1.99321 0.842629 0
M  V30 11419 C 1059.8 2.30383 -2.48413 0
M  V30 11420 C 1058.36 2.83961 -2.47069 0
M  V30 11421 C 1057.51 1.58119 -2.27802 0
M  V30 11422 H 1060.46 0.480742 -1.51243 0
M  V30 11423 H 1060.48 3.11868 -2.17987 0
M  V30 11424 H 1059.99 1.79822 -3.43927 0
M  V30 11425 H 1058.09 3.38675 -1.55338 0
M  V30 11426 H 1058.21 3.3378 -3.43697 0
M  V30 11427 H 1056.57 1.84258 -1.75844 0
M  V30 11428 H 1057.35 1.09541 -3.25355 0
M  V30 11429 N 1059.8 1.27835 0.921735 0
M  V30 11430 C 1060.75 1.1092 2.04449 0
M  V30 11431 C 1061.74 0.0306469 1.69372 0
M  V30 11432 O 1062.95 0.188818 1.79007 0
M  V30 11433 H 1059.32 0.341973 0.669745 0
M  V30 11434 H 1061.29 2.06026 2.1586 0
M  V30 11435 C 1060.04 0.779443 3.38851 0
M  V30 11436 H 1059.36 1.60131 3.66331 0
M  V30 11437 H 1060.8 0.700999 4.18165 0
M  V30 11438 C 1059.26 -0.51647 3.32918 0
M  V30 11439 O 1059.79 -1.54914 3.70627 0
M  V30 11440 N 1058 -0.514276 2.86013 0
M  V30 11441 H 1057.55 0.32651 2.55522 0
M  V30 11442 H 1057.5 -1.38141 2.82426 0
M  V30 11443 N 1061.28 -1.12907 1.09954 0
M  V30 11444 C 1062.52 -1.84579 0.840155 0
M  V30 11445 C 1062.85 -1.83605 -0.632692 0
M  V30 11446 O 1062.13 -1.27803 -1.46617 0
M  V30 11447 C 1062.41 -3.32489 1.38286 0
M  V30 11448 C 1062.27 -3.41946 2.92221 0
M  V30 11449 C 1063.58 -4.28091 1.0211 0
M  V30 11450 H 1060.7 -0.670169 0.306663 0
M  V30 11451 H 1063.35 -1.3249 1.36185 0
M  V30 11452 H 1061.5 -3.76978 0.939123 0
M  V30 11453 H 1063.17 -3.06128 3.45085 0
M  V30 11454 H 1061.41 -2.8265 3.29077 0
M  V30 11455 H 1062.08 -4.45983 3.25274 0
M  V30 11456 H 1064.56 -3.91701 1.4039 0
M  V30 11457 H 1063.43 -5.30005 1.42781 0
M  V30 11458 H 1063.69 -4.42044 -0.0700753 0
M  V30 11459 N 1062.75 -0.88754 -1.30232 0
M  V30 11460 C 1063.69 -0.313488 -2.27046 0
M  V30 11461 C 1064.7 0.533383 -1.53814 0
M  V30 11462 O 1065.89 0.352516 -1.74984 0
M  V30 11463 C 1062.99 0.572674 -3.34026 0
M  V30 11464 C 1062.16 -0.245712 -4.36709 0
M  V30 11465 C 1061.22 0.57135 -5.23089 0
M  V30 11466 O 1060.25 -0.00685948 -5.692 0
M  V30 11467 N 1061.45 1.87994 -5.49216 0
M  V30 11468 H 1064.21 -1.14553 -2.76943 0
M  V30 11469 H 1061.77 -0.750785 -1.43439 0
M  V30 11470 H 1063.77 1.12539 -3.88738 0
M  V30 11471 H 1062.34 1.3054 -2.84039 0
M  V30 11472 H 1061.56 -0.979869 -3.81827 0
M  V30 11473 H 1062.84 -0.806618 -5.02366 0
M  V30 11474 H 1062.24 2.3726 -5.13541 0
M  V30 11475 H 1060.8 2.38005 -6.06792 0
M  V30 11476 N 1064.23 1.43628 -0.648757 0
M  V30 11477 C 1065.48 2.01864 -0.160336 0
M  V30 11478 C 1065.81 1.51148 1.22412 0
M  V30 11479 O 1065.06 0.693168 1.83013 0
M  V30 11480 C 1065.36 3.57214 -0.115282 0
M  V30 11481 C 1065.03 4.27258 -1.44088 0
M  V30 11482 C 1063.69 4.46109 -1.8039 0
M  V30 11483 C 1066.04 4.66962 -2.31508 0
M  V30 11484 C 1063.37 5.01928 -3.03785 0
M  V30 11485 C 1065.72 5.24148 -3.54191 0
M  V30 11486 C 1064.39 5.41216 -3.90694 0
M  V30 11487 H 1063.66 0.738674 -0.0586712 0
M  V30 11488 H 1066.3 1.72163 -0.838578 0
M  V30 11489 H 1064.61 3.86431 0.646395 0
M  V30 11490 H 1066.3 4.00025 0.279425 0
M  V30 11491 H 1062.89 4.12928 -1.14842 0
M  V30 11492 H 1067.08 4.52095 -2.04753 0
M  V30 11493 H 1062.33 5.13328 -3.32122 0
M  V30 11494 H 1066.51 5.53861 -4.22151 0
M  V30 11495 H 1064.14 5.84234 -4.8639 0
M  V30 11496 N 1065.71 0.390394 1.52688 0
M  V30 11497 C 1066.95 -0.191207 2.03504 0
M  V30 11498 C 1067.31 -1.43952 1.27051 0
M  V30 11499 O 1068.52 -2.09835 1.67996 0
M  V30 11500 C 1066.79 -0.451552 3.54536 0
M  V30 11501 S 1068.35 -1.00328 4.27176 0
M  V30 11502 H 1065.16 -0.0537587 0.708965 0
M  V30 11503 H 1067.77 0.538993 1.87923 0
M  V30 11504 H 1066.47 0.464061 4.07768 0
M  V30 11505 H 1066 -1.21015 3.74325 0
M  V30 11506 H 1068.02 -2.28555 4.40428 0
M  V30 11507 N 1067.19 -1.57141 0.120249 0
M  V30 11508 C 1068.44 -1.94413 -0.53727 0
M  V30 11509 C 1068.75 -1.00594 -1.67751 0
M  V30 11510 O 1069.96 -1.27336 -2.39787 0
M  V30 11511 C 1068.41 -3.45521 -1.00714 0
M  V30 11512 C 1068.02 -4.47878 0.104706 0
M  V30 11513 C 1069.76 -3.9171 -1.63596 0
M  V30 11514 C 1067.67 -5.90165 -0.381932 0
M  V30 11515 H 1066.6 -0.725745 -0.204475 0
M  V30 11516 H 1069.25 -1.82404 0.200302 0
M  V30 11517 H 1067.63 -3.52769 -1.79917 0
M  V30 11518 H 1068.81 -4.523 0.881002 0
M  V30 11519 H 1067.12 -4.11448 0.640264 0
M  V30 11520 H 1069.72 -4.95433 -2.01122 0
M  V30 11521 H 1070.06 -3.31756 -2.51483 0
M  V30 11522 H 1070.6 -3.87268 -0.909319 0
M  V30 11523 H 1067.34 -6.53877 0.460921 0
M  V30 11524 H 1066.86 -5.89161 -1.12468 0
M  V30 11525 H 1068.53 -6.41488 -0.842748 0
M  V30 11526 N 1068.67 0.153526 -1.5685 0
M  V30 11527 C 1069.91 0.868517 -1.83261 0
M  V30 11528 C 1070.25 1.81112 -0.700857 0
M  V30 11529 O 1069.52 1.92235 0.295989 0
M  V30 11530 C 1069.8 1.6487 -3.2014 0
M  V30 11531 C 1069.66 0.728021 -4.43869 0
M  V30 11532 C 1070.98 2.61259 -3.54163 0
M  V30 11533 H 1068.09 0.314297 -0.666623 0
M  V30 11534 H 1070.74 0.133971 -1.89527 0
M  V30 11535 H 1068.89 2.2749 -3.1493 0
M  V30 11536 H 1070.56 0.113328 -4.61161 0
M  V30 11537 H 1068.8 0.0371744 -4.33784 0
M  V30 11538 H 1069.47 1.30981 -5.36235 0
M  V30 11539 H 1071.95 2.0876 -3.59942 0
M  V30 11540 H 1070.82 3.12902 -4.50981 0
M  V30 11541 H 1071.09 3.42307 -2.79782 0
M  V30 11542 N 1070.14 1.51827 0.422667 0
M  V30 11543 C 1071.11 1.7359 1.49663 0
M  V30 11544 C 1072.11 0.605811 1.48952 0
M  V30 11545 O 1073.3 0.87354 1.50715 0
M  V30 11546 C 1070.43 1.80585 2.8914 0
M  V30 11547 H 1071.62 2.69453 1.31664 0
M  V30 11548 H 1069.18 1.42038 0.652298 0
M  V30 11549 H 1069.91 0.865895 3.12526 0
M  V30 11550 H 1069.7 2.62729 2.9106 0
M  V30 11551 H 1071.19 1.99212 3.67021 0
M  V30 11552 N 1071.62 -0.679052 1.4222 0
M  V30 11553 C 1072.55 -1.80481 1.48152 0
M  V30 11554 C 1073.53 -1.66698 0.338502 0
M  V30 11555 O 1074.72 -1.86183 0.552228 0
M  V30 11556 C 1071.85 -3.18746 1.37908 0
M  V30 11557 C 1070.8 -3.47258 2.50192 0
M  V30 11558 C 1070.13 -4.85052 2.25008 0
M  V30 11559 C 1071.43 -3.44576 3.92511 0
M  V30 11560 H 1073.12 -1.75774 2.42371 0
M  V30 11561 H 1070.67 -0.844241 1.16656 0
M  V30 11562 H 1072.62 -3.97229 1.40666 0
M  V30 11563 H 1071.35 -3.24119 0.401806 0
M  V30 11564 H 1070 -2.71133 2.46744 0
M  V30 11565 H 1069.65 -4.8707 1.25584 0
M  V30 11566 H 1069.35 -5.05092 3.00259 0
M  V30 11567 H 1070.88 -5.65825 2.29508 0
M  V30 11568 H 1072.29 -4.13036 3.97585 0
M  V30 11569 H 1070.69 -3.76151 4.67579 0
M  V30 11570 H 1071.76 -2.4323 4.19484 0
M  V30 11571 N 1073.1 -1.28322 -0.914942 0
M  V30 11572 C 1074.35 -1.15578 -1.66642 0
M  V30 11573 C 1074.68 0.295209 -1.91943 0
M  V30 11574 O 1073.95 1.21482 -1.51896 0
M  V30 11575 C 1074.24 -1.9535 -3.02507 0
M  V30 11576 C 1074.09 -3.48504 -2.84367 0
M  V30 11577 C 1075.41 -1.76798 -4.03027 0
M  V30 11578 H 1072.53 -0.421234 -0.604757 0
M  V30 11579 H 1075.17 -1.57625 -1.06087 0
M  V30 11580 H 1073.32 -1.59619 -3.54195 0
M  V30 11581 H 1074.99 -3.94135 -2.39699 0
M  V30 11582 H 1073.24 -3.74198 -2.1945 0
M  V30 11583 H 1073.91 -3.99576 -3.80845 0
M  V30 11584 H 1076.38 -2.07977 -3.60395 0
M  V30 11585 H 1075.26 -2.34987 -4.96057 0
M  V30 11586 H 1075.52 -0.719162 -4.36211 0
M  V30 11587 N 1074.58 1.12322 -1.10551 0
M  V30 11588 C 1075.83 1.83216 -0.84349 0
M  V30 11589 C 1076.14 1.85075 0.632992 0
M  V30 11590 O 1077.35 2.51976 1.01095 0
M  V30 11591 C 1075.8 3.28994 -1.45915 0
M  V30 11592 C 1075.41 3.3549 -2.96901 0
M  V30 11593 C 1077.15 4.0485 -1.27657 0
M  V30 11594 C 1075.06 4.7561 -3.51496 0
M  V30 11595 H 1073.99 0.686471 -0.311887 0
M  V30 11596 H 1076.64 1.26463 -1.32964 0
M  V30 11597 H 1075.02 3.85621 -0.900678 0
M  V30 11598 H 1076.2 2.88795 -3.59074 0
M  V30 11599 H 1074.51 2.73107 -3.14327 0
M  V30 11600 H 1077.11 5.08316 -1.65889 0
M  V30 11601 H 1077.45 4.15727 -0.218258 0
M  V30 11602 H 1077.99 3.54584 -1.80318 0
M  V30 11603 H 1074.73 4.69927 -4.56999 0
M  V30 11604 H 1074.25 5.22753 -2.94091 0
M  V30 11605 H 1075.92 5.44552 -3.49388 0
M  V30 11606 N 1076.06 0.894434 1.2976 0
M  V30 11607 C 1077.31 0.513673 1.95049 0
M  V30 11608 C 1077.62 -0.943744 1.71327 0
M  V30 11609 O 1078.82 -1.43179 2.30678 0
M  V30 11610 C 1077.28 0.867751 3.49282 0
M  V30 11611 C 1076.89 2.34358 3.81812 0
M  V30 11612 C 1078.63 0.556645 4.20835 0
M  V30 11613 C 1076.54 2.63879 5.29265 0
M  V30 11614 H 1075.47 0.188375 0.73009 0
M  V30 11615 H 1078.12 1.09071 1.47566 0
M  V30 11616 H 1076.5 0.2197 3.9539 0
M  V30 11617 H 1077.68 3.03674 3.46581 0
M  V30 11618 H 1075.99 2.62318 3.23386 0
M  V30 11619 H 1078.59 0.754123 5.29355 0
M  V30 11620 H 1078.93 -0.504526 4.13231 0
M  V30 11621 H 1079.46 1.1623 3.80441 0
M  V30 11622 H 1076.2 3.68774 5.41928 0
M  V30 11623 H 1075.72 1.99182 5.65762 0
M  V30 11624 H 1077.4 2.49871 5.96803 0
M  V30 11625 N 1077.53 -1.43282 0.656365 0
M  V30 11626 C 1078.78 -2.01776 0.171039 0
M  V30 11627 C 1079.11 -1.51795 -1.21609 0
M  V30 11628 O 1078.36 -0.702864 -1.82643 0
M  V30 11629 C 1078.66 -3.57148 0.134225 0
M  V30 11630 C 1078.33 -4.26488 1.46352 0
M  V30 11631 C 1076.99 -4.45146 1.82753 0
M  V30 11632 C 1079.34 -4.65728 2.33981 0
M  V30 11633 C 1076.67 -5.0031 3.06443 0
M  V30 11634 C 1079.02 -5.22263 3.56966 0
M  V30 11635 C 1077.69 -5.39136 3.93559 0
M  V30 11636 H 1076.96 -0.738352 0.0625878 0
M  V30 11637 H 1079.6 -1.71716 0.847697 0
M  V30 11638 H 1077.91 -3.86768 -0.625892 0
M  V30 11639 H 1079.61 -4.00168 -0.258207 0
M  V30 11640 H 1076.2 -4.12313 1.1703 0
M  V30 11641 H 1080.38 -4.51003 2.07148 0
M  V30 11642 H 1075.64 -5.11559 3.34839 0
M  V30 11643 H 1079.81 -5.51614 4.25082 0
M  V30 11644 H 1077.44 -5.81646 4.89481 0
M  V30 11645 N 1079.01 -0.398486 -1.52479 0
M  V30 11646 C 1080.25 0.180412 -2.03602 0
M  V30 11647 C 1080.62 1.43276 -1.27812 0
M  V30 11648 O 1081.82 2.08941 -1.69107 0
M  V30 11649 C 1080.09 0.432744 -3.5477 0
M  V30 11650 S 1081.65 0.980612 -4.27703 0
M  V30 11651 H 1078.47 0.0499981 -0.70924 0
M  V30 11652 H 1081.07 -0.548952 -1.87635 0
M  V30 11653 H 1079.77 -0.48568 -4.07516 0
M  V30 11654 H 1079.3 1.19028 -3.74961 0
M  V30 11655 H 1081.32 2.26216 -4.41634 0
M  V30 11656 N 1080.49 1.57075 -0.12858 0
M  V30 11657 C 1081.72 2.00305 0.537839 0
M  V30 11658 C 1082.14 1.00787 1.58819 0
M  V30 11659 O 1081.5 -0.0190839 1.8129 0
M  V30 11660 C 1081.55 3.42371 1.13201 0
M  V30 11661 O 1080.65 3.45786 2.24735 0
M  V30 11662 H 1079.99 0.650456 0.133428 0
M  V30 11663 H 1082.52 2.03415 -0.219882 0
M  V30 11664 H 1082.53 3.80783 1.4652 0
M  V30 11665 H 1081.21 4.14315 0.362713 0
M  V30 11666 H 1079.78 3.19201 1.92783 0
M  V30 11667 N 1081.97 -0.145205 1.5693 0
M  V30 11668 C 1083.2 -0.872398 1.87608 0
M  V30 11669 C 1083.61 -1.74657 0.716975 0
M  V30 11670 O 1082.97 -1.79792 -0.3132 0
M  V30 11671 C 1083.02 -1.72762 3.17546 0
M  V30 11672 O 1082.74 -0.888681 4.28992 0
M  V30 11673 C 1084.24 -2.56224 3.61751 0
M  V30 11674 H 1081.46 -0.252166 0.621815 0
M  V30 11675 H 1084.01 -0.137456 2.04038 0
M  V30 11676 H 1082.16 -2.41561 3.02865 0
M  V30 11677 H 1082.58 -1.47601 5.03303 0
M  V30 11678 H 1084.05 -3.11804 4.55502 0
M  V30 11679 H 1084.53 -3.32347 2.87127 0
M  V30 11680 H 1085.13 -1.92714 3.79133 0
M  V30 11681 N 1083.45 -1.52049 -0.414609 0
M  V30 11682 C 1084.7 -1.65067 -1.15912 0
M  V30 11683 C 1085.01 -0.383969 -1.91794 0
M  V30 11684 O 1086.22 -0.393872 -2.68628 0
M  V30 11685 C 1084.67 -2.91611 -2.1093 0
M  V30 11686 C 1084.28 -4.25369 -1.4059 0
M  V30 11687 C 1086.02 -3.13992 -2.85674 0
M  V30 11688 C 1083.93 -5.43041 -2.34223 0
M  V30 11689 H 1082.86 -0.614884 -0.436387 0
M  V30 11690 H 1085.51 -1.78533 -0.424072 0
M  V30 11691 H 1083.89 -2.71831 -2.87965 0
M  V30 11692 H 1085.07 -4.55611 -0.689568 0
M  V30 11693 H 1083.38 -4.09047 -0.779088 0
M  V30 11694 H 1085.98 -3.99082 -3.55861 0
M  V30 11695 H 1086.32 -2.27998 -3.48314 0
M  V30 11696 H 1086.86 -3.34217 -2.1574 0
M  V30 11697 H 1083.59 -6.31364 -1.76238 0
M  V30 11698 H 1083.11 -5.17144 -3.03845 0
M  V30 11699 H 1084.79 -5.75901 -2.94868 0
M  V30 11700 N 1084.93 0.6715 -1.42579 0
M  V30 11701 C 1086.15 1.45972 -1.46628 0
M  V30 11702 C 1086.57 1.88636 -0.0785986 0
M  V30 11703 O 1085.93 1.58345 0.907372 0
M  V30 11704 C 1085.98 2.70668 -2.39627 0
M  V30 11705 O 1085.7 2.29793 -3.72997 0
M  V30 11706 C 1087.2 3.64201 -2.52731 0
M  V30 11707 H 1084.42 0.449044 -0.498598 0
M  V30 11708 H 1086.96 0.824811 -1.87129 0
M  V30 11709 H 1085.12 3.3034 -2.02371 0
M  V30 11710 H 1085.53 3.10341 -4.22834 0
M  V30 11711 H 1087.01 4.48412 -3.21918 0
M  V30 11712 H 1087.48 4.10323 -1.56626 0
M  V30 11713 H 1088.09 3.1042 -2.90722 0
M  V30 11714 N 1086.4 1.28806 0.908124 0
M  V30 11715 C 1087.33 1.15758 2.02787 0
M  V30 11716 C 1088.31 0.053911 1.70015 0
M  V30 11717 O 1089.5 0.231901 1.9281 0
M  V30 11718 C 1086.63 0.824526 3.37371 0
M  V30 11719 C 1085.58 1.88359 3.84324 0
M  V30 11720 C 1084.91 1.40404 5.15937 0
M  V30 11721 C 1086.21 3.29108 4.05568 0
M  V30 11722 H 1087.9 2.09431 2.13961 0
M  V30 11723 H 1085.45 1.00831 1.02806 0
M  V30 11724 H 1087.4 0.71999 4.15204 0
M  V30 11725 H 1086.13 -0.147902 3.26265 0
M  V30 11726 H 1084.79 1.97736 3.087 0
M  V30 11727 H 1084.43 0.420515 5.01239 0
M  V30 11728 H 1084.13 2.11224 5.48323 0
M  V30 11729 H 1085.66 1.31283 5.9632 0
M  V30 11730 H 1087.07 3.2262 4.73909 0
M  V30 11731 H 1085.47 3.97812 4.49294 0
M  V30 11732 H 1086.54 3.72709 3.10187 0
M  V30 11733 N 1087.88 -1.11734 1.11145 0
M  V30 11734 C 1089.12 -1.85039 0.868318 0
M  V30 11735 C 1089.49 -1.82538 -0.595294 0
M  V30 11736 O 1090.69 -2.5126 -0.955071 0
M  V30 11737 C 1088.96 -3.28381 1.4107 0
M  V30 11738 S 1090.52 -4.18973 1.3041 0
M  V30 11739 H 1087.33 -0.638114 0.313578 0
M  V30 11740 H 1089.94 -1.34548 1.41835 0
M  V30 11741 H 1088.64 -3.27764 2.46979 0
M  V30 11742 H 1088.17 -3.83939 0.857576 0
M  V30 11743 H 1090.19 -4.95483 0.266605 0
M  V30 11744 N 1089.36 -0.901303 -1.29284 0
M  V30 11745 C 1090.29 -0.396909 -2.30102 0
M  V30 11746 C 1091.27 0.528919 -1.61668 0
M  V30 11747 O 1092.46 0.439306 -1.89166 0
M  V30 11748 C 1089.59 0.375006 -3.45269 0
M  V30 11749 C 1088.54 -0.46054 -4.25515 0
M  V30 11750 C 1087.87 0.438967 -5.32895 0
M  V30 11751 C 1089.17 -1.7113 -4.93469 0
M  V30 11752 H 1090.86 -1.23943 -2.72541 0
M  V30 11753 H 1088.41 -0.597428 -1.31022 0
M  V30 11754 H 1090.36 0.738622 -4.14876 0
M  V30 11755 H 1089.08 1.25132 -3.01678 0
M  V30 11756 H 1087.74 -0.80651 -3.57618 0
M  V30 11757 H 1087.39 1.31346 -4.85548 0
M  V30 11758 H 1087.09 -0.116406 -5.87485 0
M  V30 11759 H 1088.61 0.79874 -6.05353 0
M  V30 11760 H 1090.03 -1.41732 -5.55504 0
M  V30 11761 H 1088.42 -2.20811 -5.57999 0
M  V30 11762 H 1089.49 -2.44636 -4.18666 0
M  V30 11763 N 1090.84 1.42931 -0.663954 0
M  V30 11764 C 1092.08 2.01982 -0.182007 0
M  V30 11765 C 1092.42 1.52323 1.20463 0
M  V30 11766 O 1091.69 0.720834 1.80649 0
M  V30 11767 C 1091.97 3.59518 -0.204671 0
M  V30 11768 C 1091.83 4.19382 -1.62599 0
M  V30 11769 C 1093.15 4.37762 0.45308 0
M  V30 11770 H 1090.27 0.733892 -0.0676115 0
M  V30 11771 H 1092.91 1.70092 -0.84668 0
M  V30 11772 H 1091.06 3.86816 0.361295 0
M  V30 11773 H 1092.73 4.03076 -2.24337 0
M  V30 11774 H 1090.97 3.75623 -2.17001 0
M  V30 11775 H 1091.64 5.28496 -1.59362 0
M  V30 11776 H 1094.12 4.1609 -0.0285774 0
M  V30 11777 H 1093 5.47392 0.406538 0
M  V30 11778 H 1093.26 4.1482 1.52895 0
M  V30 11779 N 1092.32 0.406567 1.52266 0
M  V30 11780 C 1093.56 -0.170053 2.01785 0
M  V30 11781 C 1093.89 -1.45361 1.2923 0
M  V30 11782 O 1093.15 -1.91849 0.386342 0
M  V30 11783 C 1093.44 -0.467124 3.54334 0
M  V30 11784 C 1093.11 0.72693 4.45002 0
M  V30 11785 C 1091.77 1.05446 4.69505 0
M  V30 11786 C 1094.12 1.52493 4.98393 0
M  V30 11787 C 1091.45 2.18123 5.44646 0
M  V30 11788 C 1093.8 2.64244 5.74768 0
M  V30 11789 C 1092.47 2.97486 5.97544 0
M  V30 11790 H 1091.74 -0.0622267 0.738383 0
M  V30 11791 H 1094.39 0.54746 1.83508 0
M  V30 11792 H 1092.69 -1.26617 3.70777 0
M  V30 11793 H 1094.39 -0.926194 3.90157 0
M  V30 11794 H 1090.98 0.461666 4.26106 0
M  V30 11795 H 1095.16 1.28512 4.79373 0
M  V30 11796 H 1090.42 2.44228 5.60502 0
M  V30 11797 H 1094.59 3.26468 6.15136 0
M  V30 11798 H 1092.22 3.84913 6.5555 0
M  V30 11799 N 1093.79 -1.57004 0.136909 0
M  V30 11800 C 1095.04 -1.96087 -0.517477 0
M  V30 11801 C 1095.37 -1.0213 -1.65176 0
M  V30 11802 O 1094.65 -0.0617958 -1.94402 0
M  V30 11803 C 1094.93 -3.44958 -1.03323 0
M  V30 11804 C 1094.78 -4.49691 0.0988609 0
M  V30 11805 C 1096.1 -3.96091 -1.91832 0
M  V30 11806 H 1093.22 -0.712978 -0.186632 0
M  V30 11807 H 1095.86 -1.88767 0.216095 0
M  V30 11808 H 1094.01 -3.51327 -1.65836 0
M  V30 11809 H 1095.69 -4.55409 0.734847 0
M  V30 11810 H 1093.93 -4.271 0.75947 0
M  V30 11811 H 1094.6 -5.51165 -0.303554 0
M  V30 11812 H 1097.08 -3.92139 -1.39164 0
M  V30 11813 H 1095.95 -5.00742 -2.24831 0
M  V30 11814 H 1096.21 -3.37846 -2.85153 0
M  V30 11815 N 1095.27 0.136881 -1.57004 0
M  V30 11816 C 1096.68 0.695911 -1.73245 0
M  V30 11817 C 1097.03 1.8118 -0.75288 0
M  V30 11818 O 1096.16 2.16258 0.0782477 0
M  V30 11819 C 1096.75 1.26914 -3.14131 0
M  V30 11820 C 1095.31 1.77463 -3.31939 0
M  V30 11821 C 1094.46 0.667128 -2.69156 0
M  V30 11822 H 1097.41 -0.0888841 -1.58451 0
M  V30 11823 H 1097.43 2.13892 -3.14691 0
M  V30 11824 H 1096.94 0.456754 -3.85403 0
M  V30 11825 H 1095.05 2.61236 -2.65681 0
M  V30 11826 H 1095.16 1.89638 -4.39971 0
M  V30 11827 H 1093.52 1.09629 -2.29899 0
M  V30 11828 H 1094.31 -0.13398 -3.43038 0
M  V30 11829 N 1096.75 1.52266 0.40654 0
M  V30 11830 C 1097.7 1.75794 1.4955 0
M  V30 11831 C 1098.67 0.600472 1.54866 0
M  V30 11832 O 1099.85 0.838305 1.71397 0
M  V30 11833 C 1096.99 1.91682 2.86971 0
M  V30 11834 C 1096.11 3.19337 2.90943 0
M  V30 11835 C 1095.24 3.25641 4.1968 0
M  V30 11836 C 1094.28 4.47488 4.17637 0
M  V30 11837 N 1093.42 4.51171 5.37949 0
M  V30 11838 H 1098.26 2.68733 1.28789 0
M  V30 11839 H 1095.79 1.33157 0.625102 0
M  V30 11840 H 1097.75 1.98877 3.66748 0
M  V30 11841 H 1096.38 1.02121 3.06221 0
M  V30 11842 H 1095.43 3.21301 2.03642 0
M  V30 11843 H 1096.75 4.09153 2.85299 0
M  V30 11844 H 1095.9 3.31922 5.07851 0
M  V30 11845 H 1094.64 2.33769 4.28023 0
M  V30 11846 H 1093.64 4.41351 3.27856 0
M  V30 11847 H 1094.87 5.40659 4.10932 0
M  V30 11848 H 1092.81 3.62182 5.46955 0
M  V30 11849 H 1092.73 5.34835 5.3431 0
M  V30 11850 H 1094 4.61685 6.28066 0
M  V30 11851 N 1098.23 -0.663929 1.42933 0
M  V30 11852 C 1099.16 -1.78899 1.50058 0
M  V30 11853 C 1100.14 -1.66329 0.356164 0
M  V30 11854 O 1101.32 -1.85587 0.571944 0
M  V30 11855 C 1098.45 -3.17265 1.41281 0
M  V30 11856 C 1097.41 -3.44584 2.53861 0
M  V30 11857 C 1096.73 -4.82638 2.3014 0
M  V30 11858 C 1098.03 -3.40394 3.96143 0
M  V30 11859 H 1099.73 -1.73194 2.44222 0
M  V30 11860 H 1097.27 -0.83182 1.17545 0
M  V30 11861 H 1099.23 -3.95715 1.44872 0
M  V30 11862 H 1097.95 -3.23675 0.43616 0
M  V30 11863 H 1096.61 -2.685 2.49606 0
M  V30 11864 H 1096.26 -4.85711 1.30743 0
M  V30 11865 H 1095.96 -5.01879 3.056 0
M  V30 11866 H 1097.48 -5.63359 2.35497 0
M  V30 11867 H 1098.9 -4.08796 4.01943 0
M  V30 11868 H 1097.29 -3.7117 4.71543 0
M  V30 11869 H 1098.36 -2.38767 4.22041 0
M  V30 11870 N 1099.71 -1.29285 -0.901281 0
M  V30 11871 C 1100.96 -1.16538 -1.64626 0
M  V30 11872 C 1101.27 0.282623 -1.93547 0
M  V30 11873 O 1102.47 0.531396 -2.66249 0
M  V30 11874 C 1100.93 -2.03809 -2.96631 0
M  V30 11875 C 1100.54 -3.53423 -2.75311 0
M  V30 11876 C 1102.28 -1.99782 -3.7455 0
M  V30 11877 C 1100.19 -4.32804 -4.03032 0
M  V30 11878 H 1099.12 -0.432561 -0.617581 0
M  V30 11879 H 1101.77 -1.53912 -0.999159 0
M  V30 11880 H 1100.15 -1.59302 -3.62545 0
M  V30 11881 H 1101.33 -4.05971 -2.18 0
M  V30 11882 H 1099.64 -3.59106 -2.10789 0
M  V30 11883 H 1102.24 -2.5635 -4.69243 0
M  V30 11884 H 1102.58 -0.97743 -4.04663 0
M  V30 11885 H 1103.11 -2.42324 -3.15474 0
M  V30 11886 H 1099.85 -5.35473 -3.78086 0
M  V30 11887 H 1099.37 -3.85025 -4.59909 0
M  V30 11888 H 1101.05 -4.43383 -4.71191 0
M  V30 11889 N 1101.18 1.11143 -1.11736 0
M  V30 11890 C 1102.41 1.86745 -0.890727 0
M  V30 11891 C 1102.83 1.80315 0.55964 0
M  V30 11892 O 1102.18 1.18663 1.38656 0
M  V30 11893 C 1102.24 3.35436 -1.34779 0
M  V30 11894 O 1101.96 3.41738 -2.74129 0
M  V30 11895 C 1103.46 4.27935 -1.15702 0
M  V30 11896 H 1100.68 0.59044 -0.318781 0
M  V30 11897 H 1103.22 1.40549 -1.48547 0
M  V30 11898 H 1101.38 3.79125 -0.796425 0
M  V30 11899 H 1101.79 4.34347 -2.94012 0
M  V30 11900 H 1103.26 5.30494 -1.52579 0
M  V30 11901 H 1103.74 4.39093 -0.0968735 0
M  V30 11902 H 1104.35 3.90042 -1.69551 0
M  V30 11903 N 1102.66 0.908147 1.28804 0
M  V30 11904 C 1103.59 0.409106 2.29888 0
M  V30 11905 C 1104.57 -0.520338 1.61946 0
M  V30 11906 O 1105.76 -0.429268 1.89396 0
M  V30 11907 C 1102.89 -0.35669 3.45463 0
M  V30 11908 C 1101.84 0.4831 4.25265 0
M  V30 11909 C 1101.17 -0.4107 5.3312 0
M  V30 11910 C 1102.47 1.73744 4.92555 0
M  V30 11911 H 1104.16 1.25386 2.7188 0
M  V30 11912 H 1101.71 0.604368 1.30703 0
M  V30 11913 H 1103.66 -0.71661 4.15262 0
M  V30 11914 H 1102.39 -1.2353 3.02337 0
M  V30 11915 H 1101.04 0.825464 3.57186 0
M  V30 11916 H 1100.69 -1.28769 4.86238 0
M  V30 11917 H 1100.39 0.14756 5.87415 0
M  V30 11918 H 1101.92 -0.766626 6.05768 0
M  V30 11919 H 1103.33 1.44676 5.54745 0
M  V30 11920 H 1101.73 2.23767 5.5682 0
M  V30 11921 H 1102.8 2.46853 4.17363 0
M  V30 11922 N 1104.14 -1.42577 0.671525 0
M  V30 11923 C 1105.56 -1.5592 0.340769 0
M  V30 11924 C 1105.76 -1.65179 -1.15405 0
M  V30 11925 O 1104.81 -1.61691 -1.93939 0
M  V30 11926 C 1106.13 -2.81087 1.06821 0
M  V30 11927 C 1107.67 -2.94855 1.05022 0
M  V30 11928 C 1108.15 -4.22878 1.75892 0
M  V30 11929 N 1109.64 -4.29783 1.72744 0
M  V30 11930 C 1110.37 -5.2765 2.24439 0
M  V30 11931 N 1109.87 -6.31689 2.84501 0
M  V30 11932 N 1111.66 -5.19426 2.14832 0
M  V30 11933 H 1103.81 -1.34811 1.64133 0
M  V30 11934 H 1106.08 -0.648704 0.691294 0
M  V30 11935 H 1105.78 -2.80371 2.12332 0
M  V30 11936 H 1105.66 -3.71879 0.631356 0
M  V30 11937 H 1108.04 -2.951 0.00345633 0
M  V30 11938 H 1108.13 -2.05303 1.52592 0
M  V30 11939 H 1107.77 -4.23394 2.80535 0
M  V30 11940 H 1107.7 -5.1136 1.25773 0
M  V30 11941 H 1110.19 -3.55225 1.28932 0
M  V30 11942 H 1110.5 -7.02715 3.21575 0
M  V30 11943 H 1108.85 -6.3226 2.88569 0
M  V30 11944 H 1112.04 -4.37067 1.676 0
M  V30 11945 H 1112.21 -5.95535 2.55426 0
M  V30 11946 N 1105.62 -0.414636 -1.52048 0
M  V30 11947 C 1106.85 0.158686 -2.06291 0
M  V30 11948 C 1107.26 1.38397 -1.2842 0
M  V30 11949 O 1106.62 1.79351 -0.337539 0
M  V30 11950 C 1106.67 0.503634 -3.57975 0
M  V30 11951 O 1106.39 -0.672996 -4.329 0
M  V30 11952 C 1107.89 1.13009 -4.28653 0
M  V30 11953 H 1105.11 0.0179622 -0.67076 0
M  V30 11954 H 1107.66 -0.587177 -1.95889 0
M  V30 11955 H 1105.81 1.19939 -3.68366 0
M  V30 11956 H 1106.22 -0.383735 -5.23094 0
M  V30 11957 H 1107.7 1.32162 -5.35945 0
M  V30 11958 H 1108.18 2.10476 -3.85482 0
M  V30 11959 H 1108.78 0.474379 -4.22646 0
M  V30 11960 N 1107.1 1.56929 -0.145233 0
M  V30 11961 C 1108.04 2.17958 0.812237 0
M  V30 11962 C 1109.04 1.13608 1.25657 0
M  V30 11963 O 1110.24 1.31861 1.22526 0
M  V30 11964 H 1106.62 0.697876 0.28013 0
M  V30 11965 H 1108.59 2.97146 0.273297 0
M  V30 11966 C 1107.34 2.81418 2.04203 0
M  V30 11967 H 1106.66 3.61427 1.70911 0
M  V30 11968 H 1108.1 3.27624 2.69144 0
M  V30 11969 C 1106.56 1.79835 2.84888 0
M  V30 11970 O 1107.09 1.26773 3.81171 0
M  V30 11971 N 1105.3 1.49179 2.49387 0
M  V30 11972 H 1104.84 1.9252 1.71154 0
M  V30 11973 H 1104.8 0.81458 3.03664 0
M  V30 11974 N 1108.58 -0.128553 1.57075 0
M  V30 11975 C 1109.99 -0.686713 1.73612 0
M  V30 11976 C 1110.34 -1.80778 0.762478 0
M  V30 11977 O 1109.46 -2.16297 -0.0667779 0
M  V30 11978 C 1110.06 -1.25246 3.148 0
M  V30 11979 C 1108.62 -1.757 3.32876 0
M  V30 11980 C 1107.76 -0.652844 2.69506 0
M  V30 11981 H 1110.71 0.0972859 1.58402 0
M  V30 11982 H 1110.74 -2.1222 3.15821 0
M  V30 11983 H 1110.25 -0.436308 3.8564 0
M  V30 11984 H 1108.35 -2.59824 2.67063 0
M  V30 11985 H 1108.46 -1.87302 4.4097 0
M  V30 11986 H 1106.83 -1.08408 2.30477 0
M  V30 11987 H 1107.61 0.15217 3.42963 0
M  V30 11988 N 1110.05 -1.5248 -0.398459 0
M  V30 11989 C 1111.33 -1.57634 -1.15805 0
M  V30 11990 C 1111.71 -0.363785 -2.07942 0
M  V30 11991 O 1111.06 0.648598 -2.19101 0
M  V30 11992 C 1111.27 -2.91042 -1.92602 0
M  V30 11993 C 1112.62 -3.44433 -2.48296 0
M  V30 11994 O 1113.64 -2.92853 -2.0277 0
M  V30 11995 O 1112.5 -4.34529 -3.31432 0
M  V30 11996 H 1109.59 -0.63539 -0.529347 0
M  V30 11997 H 1112.14 -1.64812 -0.404376 0
M  V30 11998 H 1110.91 -3.7074 -1.25169 0
M  V30 11999 H 1110.53 -2.87206 -2.74952 0
M  V30 12000 N 1111.53 0.65634 -1.43283 0
M  V30 12001 C 1112.49 1.75117 -1.47874 0
M  V30 12002 C 1113.49 1.56629 -0.363846 0
M  V30 12003 O 1114.68 1.62584 -0.625464 0
M  V30 12004 C 1111.82 3.13957 -1.32831 0
M  V30 12005 H 1113.01 1.72429 -2.45374 0
M  V30 12006 H 1110.56 0.867704 -1.30002 0
M  V30 12007 H 1111.3 3.22259 -0.36326 0
M  V30 12008 H 1111.08 3.28781 -2.13649 0
M  V30 12009 H 1112.57 3.93799 -1.38969 0
M  V30 12010 N 1113.01 1.29761 0.894412 0
M  V30 12011 C 1113.97 1.15335 1.98067 0
M  V30 12012 C 1114.97 0.0872804 1.60563 0
M  V30 12013 O 1116.16 0.334645 1.70955 0
M  V30 12014 C 1113.29 0.764907 3.32208 0
M  V30 12015 H 1114.49 2.11829 2.12293 0
M  V30 12016 H 1112.04 1.13023 1.0796 0
M  V30 12017 H 1112.78 -0.199948 3.23683 0
M  V30 12018 H 1112.56 1.53523 3.60795 0
M  V30 12019 H 1114.05 0.687176 4.11907 0
M  V30 12020 N 1114.49 -1.10549 1.12324 0
M  V30 12021 C 1115.72 -1.8627 0.900618 0
M  V30 12022 C 1116.13 -1.80609 -0.550069 0
M  V30 12023 O 1115.49 -1.19396 -1.38025 0
M  V30 12024 C 1115.54 -3.34716 1.36556 0
M  V30 12025 O 1115.26 -3.40279 2.75938 0
M  V30 12026 C 1116.76 -4.27315 1.17969 0
M  V30 12027 H 1113.98 -0.588741 0.321908 0
M  V30 12028 H 1116.52 -1.39759 1.49291 0
M  V30 12029 H 1114.68 -3.78697 0.81652 0
M  V30 12030 H 1115.09 -4.32781 2.96312 0
M  V30 12031 H 1116.57 -5.29677 1.55391 0
M  V30 12032 H 1117.04 -4.39036 0.120158 0
M  V30 12033 H 1117.65 -3.89137 1.71617 0
M  V30 12034 N 1115.97 -0.914965 -1.28321 0
M  V30 12035 C 1116.9 -0.361578 -2.2633 0
M  V30 12036 C 1117.91 0.500637 -1.54911 0
M  V30 12037 O 1119.1 0.31532 -1.75693 0
M  V30 12038 C 1116.2 0.501693 -3.35166 0
M  V30 12039 C 1115.37 -0.338289 -4.3609 0
M  V30 12040 C 1114.43 0.460267 -5.24183 0
M  V30 12041 O 1113.46 -0.127594 -5.69057 0
M  V30 12042 N 1114.66 1.76302 -5.5308 0
M  V30 12043 H 1117.42 -1.20402 -2.74451 0
M  V30 12044 H 1114.99 -0.781042 -1.41814 0
M  V30 12045 H 1116.98 1.04268 -3.91037 0
M  V30 12046 H 1115.55 1.24485 -2.86744 0
M  V30 12047 H 1114.77 -1.06064 -3.79663 0
M  V30 12048 H 1116.06 -0.912996 -5.00542 0
M  V30 12049 H 1115.45 2.26314 -5.18458 0
M  V30 12050 H 1114.01 2.25081 -6.11704 0
M  V30 12051 N 1117.44 1.42219 -0.679077 0
M  V30 12052 C 1118.39 2.32599 0.00820028 0
M  V30 12053 C 1119.39 1.50059 0.786046 0
M  V30 12054 O 1120.59 1.66103 0.693528 0
M  V30 12055 H 1116.97 0.751694 0.0214483 0
M  V30 12056 H 1118.94 2.88257 -0.77138 0
M  V30 12057 C 1117.69 3.3468 0.942581 0
M  V30 12058 H 1117.01 3.98234 0.353463 0
M  V30 12059 H 1118.45 4.00496 1.39208 0
M  V30 12060 C 1116.91 2.67275 2.05099 0
M  V30 12061 O 1117.44 2.50793 3.13793 0
M  V30 12062 N 1115.64 2.26232 1.82394 0
M  V30 12063 H 1115.19 2.39838 0.939983 0
M  V30 12064 H 1115.15 1.81465 2.56744 0
M  V30 12065 N 1118.92 0.422693 1.51826 0
M  V30 12066 C 1120.34 0.0742364 1.59427 0
M  V30 12067 C 1120.54 -1.41491 1.43466 0
M  V30 12068 O 1119.59 -2.18326 1.26846 0
M  V30 12069 C 1120.91 0.581272 2.95028 0
M  V30 12070 C 1122.45 0.54043 3.08299 0
M  V30 12071 C 1122.93 1.0242 4.46401 0
M  V30 12072 N 1124.42 0.981576 4.5268 0
M  V30 12073 C 1125.16 1.32693 5.57835 0
M  V30 12074 N 1124.65 1.74441 6.70479 0
M  V30 12075 N 1126.44 1.24603 5.48115 0
M  V30 12076 H 1118.6 1.39178 1.60447 0
M  V30 12077 H 1120.86 0.572607 0.75553 0
M  V30 12078 H 1120.56 1.62261 3.12032 0
M  V30 12079 H 1120.44 -0.00176969 3.772 0
M  V30 12080 H 1122.83 -0.491895 2.90971 0
M  V30 12081 H 1122.91 1.15969 2.28002 0
M  V30 12082 H 1122.55 2.05491 4.64474 0
M  V30 12083 H 1122.48 0.381613 5.25215 0
M  V30 12084 H 1124.97 0.674808 3.71826 0
M  V30 12085 H 1125.28 1.99068 7.46721 0
M  V30 12086 H 1123.63 1.78356 6.71725 0
M  V30 12087 H 1126.82 0.918641 4.58997 0
M  V30 12088 H 1126.99 1.51847 6.29958 0
M  V30 12089 N 1120.4 -1.5685 0.153553 0
M  V30 12090 C 1121.82 -1.58306 -0.202801 0
M  V30 12091 C 1122.02 -1.16813 -1.64186 0
M  V30 12092 O 1121.07 -0.871468 -2.36985 0
M  V30 12093 C 1122.38 -3.00636 0.0619012 0
M  V30 12094 C 1123.93 -3.13 -0.00129219 0
M  V30 12095 C 1124.41 -4.57391 0.236164 0
M  V30 12096 N 1125.9 -4.62837 0.18332 0
M  V30 12097 C 1126.63 -5.72382 0.341471 0
M  V30 12098 N 1126.13 -6.90552 0.557704 0
M  V30 12099 N 1127.92 -5.61409 0.278615 0
M  V30 12100 H 1120.07 -1.82113 1.09309 0
M  V30 12101 H 1122.34 -0.843228 0.433209 0
M  V30 12102 H 1122.04 -3.35406 1.0581 0
M  V30 12103 H 1121.92 -3.71477 -0.654555 0
M  V30 12104 H 1124.3 -2.78068 -0.98805 0
M  V30 12105 H 1124.38 -2.44632 0.747596 0
M  V30 12106 H 1124.03 -4.93029 1.22005 0
M  V30 12107 H 1123.96 -5.23894 -0.533125 0
M  V30 12108 H 1126.45 -3.77894 0.0211138 0
M  V30 12109 H 1126.76 -7.69905 0.66831 0
M  V30 12110 H 1125.11 -6.92456 0.594105 0
M  V30 12111 H 1128.3 -4.6797 0.110401 0
M  V30 12112 H 1128.47 -6.46731 0.4053 0
M  V30 12113 N 1121.88 0.120221 -1.57141 0
M  V30 12114 C 1123.12 0.828222 -1.84788 0
M  V30 12115 C 1123.45 1.79936 -0.738459 0
M  V30 12116 O 1122.71 1.93824 0.270295 0
M  V30 12117 C 1123.01 1.61338 -3.18912 0
M  V30 12118 C 1122.67 0.786637 -4.43985 0
M  V30 12119 C 1121.33 0.558645 -4.77946 0
M  V30 12120 C 1123.69 0.210281 -5.20776 0
M  V30 12121 C 1121.01 -0.255975 -5.86141 0
M  V30 12122 C 1123.37 -0.591523 -6.29828 0
M  V30 12123 C 1122.03 -0.829843 -6.62322 0
M  V30 12124 H 1121.3 0.303068 -0.676188 0
M  V30 12125 H 1123.95 0.0906538 -1.91285 0
M  V30 12126 H 1122.25 2.42182 -3.07986 0
M  V30 12127 H 1123.95 2.16513 -3.37525 0
M  V30 12128 H 1120.54 0.974426 -4.17376 0
M  V30 12129 H 1124.72 0.373641 -4.94892 0
M  V30 12130 H 1119.98 -0.449849 -6.09743 0
M  V30 12131 H 1124.15 -1.04512 -6.88513 0
M  V30 12132 H 1121.78 -1.4629 -7.45992 0
M  V30 12133 N 1123.36 1.52689 0.390367 0
M  V30 12134 C 1124.29 1.73622 1.49626 0
M  V30 12135 C 1125.3 0.616682 1.50668 0
M  V30 12136 O 1126.49 0.892341 1.54595 0
M  V30 12137 C 1123.59 1.77859 2.88477 0
M  V30 12138 C 1122.76 3.07146 3.11416 0
M  V30 12139 C 1121.82 3.02949 4.30242 0
M  V30 12140 O 1120.85 3.76816 4.26613 0
M  V30 12141 N 1122.05 2.22039 5.36357 0
M  V30 12142 H 1124.82 2.69037 1.32057 0
M  V30 12143 H 1122.38 1.51159 0.579867 0
M  V30 12144 H 1124.37 1.72559 3.66067 0
M  V30 12145 H 1122.94 0.898367 2.99413 0
M  V30 12146 H 1122.16 3.25947 2.21703 0
M  V30 12147 H 1123.45 3.92637 3.23595 0
M  V30 12148 H 1122.84 1.6149 5.4216 0
M  V30 12149 H 1121.4 2.2258 6.12619 0
M  V30 12150 N 1124.83 -0.648732 1.43629 0
M  V30 12151 C 1126.08 -1.40857 1.45483 0
M  V30 12152 C 1126.41 -1.94332 0.0807963 0
M  V30 12153 O 1125.66 -1.72999 -0.914875 0
M  V30 12154 C 1125.96 -2.60394 2.44806 0
M  V30 12155 C 1125.63 -2.25311 3.90571 0
M  V30 12156 C 1124.29 -2.15456 4.3027 0
M  V30 12157 C 1126.64 -1.97307 4.8241 0
M  V30 12158 C 1123.97 -1.75759 5.59755 0
M  V30 12159 C 1126.32 -1.59108 6.12264 0
M  V30 12160 C 1124.99 -1.47781 6.50936 0
M  V30 12161 H 1124.26 -0.515434 0.532362 0
M  V30 12162 H 1126.9 -0.737339 1.76736 0
M  V30 12163 H 1125.21 -3.3267 2.06973 0
M  V30 12164 H 1126.91 -3.18609 2.43494 0
M  V30 12165 H 1123.5 -2.33894 3.59154 0
M  V30 12166 H 1127.68 -2.0384 4.52507 0
M  V30 12167 H 1122.94 -1.65579 5.88552 0
M  V30 12168 H 1127.11 -1.36472 6.82897 0
M  V30 12169 H 1124.74 -1.16792 7.51175 0
M  V30 12170 N 1126.31 -1.30234 -0.887518 0
M  V30 12171 C 1127.54 -1.21829 -1.67229 0
M  V30 12172 C 1127.96 0.219251 -1.87523 0
M  V30 12173 O 1127.31 1.14526 -1.42091 0
M  V30 12174 C 1127.36 -1.94044 -3.05007 0
M  V30 12175 O 1127.08 -3.32185 -2.85631 0
M  V30 12176 C 1128.59 -1.92265 -3.99436 0
M  V30 12177 H 1125.81 -0.421716 -0.521916 0
M  V30 12178 H 1128.35 -1.71816 -1.10903 0
M  V30 12179 H 1126.5 -1.47861 -3.58072 0
M  V30 12180 H 1126.92 -3.68724 -3.73018 0
M  V30 12181 H 1128.39 -2.47336 -4.93486 0
M  V30 12182 H 1128.87 -0.900984 -4.29859 0
M  V30 12183 H 1129.48 -2.38247 -3.52305 0
M  V30 12184 N 1127.79 1.09952 -1.12909 0
M  V30 12185 C 1128.72 2.16257 -0.759305 0
M  V30 12186 C 1129.74 1.61355 0.216427 0
M  V30 12187 O 1130.92 1.785 -0.00297224 0
M  V30 12188 C 1128.02 3.38741 -0.103908 0
M  V30 12189 C 1127.2 4.23072 -1.11037 0
M  V30 12190 C 1126.26 5.23991 -0.481667 0
M  V30 12191 O 1125.28 5.57665 -1.14011 0
M  V30 12192 N 1126.48 5.75652 0.748698 0
M  V30 12193 H 1129.25 2.48588 -1.67405 0
M  V30 12194 H 1126.81 1.25617 -1.02137 0
M  V30 12195 H 1128.8 4.03362 0.328799 0
M  V30 12196 H 1127.37 3.04344 0.713677 0
M  V30 12197 H 1126.59 3.5467 -1.72054 0
M  V30 12198 H 1127.88 4.76244 -1.79078 0
M  V30 12199 H 1127.28 5.505 1.30253 0
M  V30 12200 H 1125.84 6.42033 1.12415 0
M  V30 12201 N 1129.27 0.921757 1.27833 0
M  V30 12202 C 1130.22 0.406628 2.29018 0
M  V30 12203 C 1131.21 -0.505914 1.61669 0
M  V30 12204 O 1132.42 -0.386273 1.75807 0
M  V30 12205 H 1128.79 0.112914 0.743475 0
M  V30 12206 H 1130.76 1.27295 2.69886 0
M  V30 12207 C 1129.51 -0.330783 3.46123 0
M  V30 12208 H 1128.83 0.362207 3.98156 0
M  V30 12209 H 1130.27 -0.655738 4.18899 0
M  V30 12210 C 1128.73 -1.54161 2.9956 0
M  V30 12211 O 1129.26 -2.64052 3.0272 0
M  V30 12212 N 1127.47 -1.39137 2.55126 0
M  V30 12213 H 1127.02 -0.497319 2.52754 0
M  V30 12214 H 1126.97 -2.20278 2.24333 0
M  V30 12215 N 1130.75 -1.41857 0.686609 0
M  V30 12216 C 1131.68 -2.29188 -0.0234289 0
M  V30 12217 C 1132.69 -1.44311 -0.753541 0
M  V30 12218 O 1133.88 -1.67908 -0.605734 0
M  V30 12219 C 1130.98 -3.21991 -1.05713 0
M  V30 12220 C 1130.15 -4.35581 -0.398453 0
M  V30 12221 C 1129.21 -5.09022 -1.33354 0
M  V30 12222 O 1128.24 -5.63126 -0.829334 0
M  V30 12223 N 1129.44 -5.15643 -2.66632 0
M  V30 12224 H 1132.21 -2.90766 0.726295 0
M  V30 12225 H 1129.77 -1.52912 0.531937 0
M  V30 12226 H 1131.76 -3.6799 -1.68421 0
M  V30 12227 H 1130.33 -2.61782 -1.70847 0
M  V30 12228 H 1129.55 -3.92079 0.408358 0
M  V30 12229 H 1130.84 -5.08765 0.0599239 0
M  V30 12230 H 1130.23 -4.73118 -3.10122 0
M  V30 12231 H 1128.79 -5.65248 -3.24558 0
M  V30 12232 N 1132.22 -0.430739 -1.51599 0
M  V30 12233 C 1133.17 0.384024 -2.27583 0
M  V30 12234 C 1134.14 1.02254 -1.30895 0
M  V30 12235 O 1135.33 1.0427 -1.59789 0
M  V30 12236 C 1132.47 1.48291 -3.11615 0
M  V30 12237 C 1131.58 0.863187 -4.23288 0
M  V30 12238 C 1130.71 1.93657 -4.94642 0
M  V30 12239 C 1129.75 1.29493 -5.98246 0
M  V30 12240 N 1128.89 2.30939 -6.63032 0
M  V30 12241 H 1133.73 -0.270314 -2.96771 0
M  V30 12242 H 1131.27 -0.145148 -1.46382 0
M  V30 12243 H 1133.23 2.13124 -3.58656 0
M  V30 12244 H 1131.86 2.10697 -2.44554 0
M  V30 12245 H 1130.91 0.103326 -3.8026 0
M  V30 12246 H 1132.22 0.354676 -4.97537 0
M  V30 12247 H 1131.37 2.66167 -5.45197 0
M  V30 12248 H 1130.11 2.4788 -4.20008 0
M  V30 12249 H 1129.12 0.555262 -5.46989 0
M  V30 12250 H 1130.34 0.760122 -6.74833 0
M  V30 12251 H 1128.29 2.84254 -5.91216 0
M  V30 12252 H 1128.21 1.84961 -7.33025 0
M  V30 12253 H 1129.47 3.02953 -7.1822 0
M  V30 12254 N 1133.7 1.56767 -0.161869 0
M  V30 12255 C 1134.65 2.17502 0.772102 0
M  V30 12256 C 1135.62 1.11223 1.23364 0
M  V30 12257 O 1136.8 1.39332 1.30351 0
M  V30 12258 C 1133.94 2.81248 1.99984 0
M  V30 12259 C 1133.06 4.01962 1.58274 0
M  V30 12260 C 1132.19 4.53662 2.76341 0
M  V30 12261 C 1131.23 5.66807 2.31076 0
M  V30 12262 N 1130.37 6.13059 3.42203 0
M  V30 12263 H 1135.21 2.96971 0.247382 0
M  V30 12264 H 1132.75 1.46685 0.110382 0
M  V30 12265 H 1134.7 3.16359 2.7198 0
M  V30 12266 H 1133.33 2.04398 2.49842 0
M  V30 12267 H 1132.39 3.72733 0.759874 0
M  V30 12268 H 1133.7 4.83891 1.2104 0
M  V30 12269 H 1132.85 4.90905 3.56507 0
M  V30 12270 H 1131.59 3.7077 3.16829 0
M  V30 12271 H 1130.6 5.29125 1.49354 0
M  V30 12272 H 1131.82 6.51494 1.91657 0
M  V30 12273 H 1129.77 5.33099 3.82285 0
M  V30 12274 H 1129.68 6.89953 3.09033 0
M  V30 12275 H 1130.95 6.54951 4.22682 0
M  V30 12276 N 1135.18 -0.111886 1.57202 0
M  V30 12277 C 1136.09 -1.1556 2.04165 0
M  V30 12278 C 1137.11 -1.44898 0.963354 0
M  V30 12279 O 1138.28 -1.55873 1.27536 0
M  V30 12280 C 1135.35 -2.46048 2.44256 0
M  V30 12281 C 1134.41 -2.24043 3.66201 0
M  V30 12282 C 1133.64 -3.4831 4.04371 0
M  V30 12283 O 1133.86 -4.55895 3.42806 0
M  V30 12284 O 1132.8 -3.38891 4.9743 0
M  V30 12285 H 1136.62 -0.786778 2.93332 0
M  V30 12286 H 1134.21 -0.323196 1.45862 0
M  V30 12287 H 1136.09 -3.22916 2.70745 0
M  V30 12288 H 1134.77 -2.8239 1.58233 0
M  V30 12289 H 1133.67 -1.4501 3.44852 0
M  V30 12290 H 1135.01 -1.92602 4.52952 0
M  V30 12291 N 1136.66 -1.52894 -0.382264 0
M  V30 12292 C 1137.94 -1.58853 -1.14127 0
M  V30 12293 C 1138.32 -0.38582 -2.07544 0
M  V30 12294 O 1137.66 0.625323 -2.19777 0
M  V30 12295 C 1137.87 -2.93068 -1.89504 0
M  V30 12296 C 1139.22 -3.47048 -2.44629 0
M  V30 12297 O 1140.25 -2.94987 -1.99652 0
M  V30 12298 O 1139.1 -4.3802 -3.26804 0
M  V30 12299 H 1136.2 -0.640969 -0.522578 0
M  V30 12300 H 1138.74 -1.65231 -0.386873 0
M  V30 12301 H 1137.52 -3.72047 -1.2123 0
M  V30 12302 H 1137.14 -2.90106 -2.7189 0
M  V30 12303 N 1138.14 0.641106 -1.43971 0
M  V30 12304 C 1139.36 1.43324 -1.4991 0
M  V30 12305 C 1139.79 1.87705 -0.121908 0
M  V30 12306 O 1139.15 1.58127 0.886875 0
M  V30 12307 C 1139.19 2.63637 -2.46025 0
M  V30 12308 O 1138.3 3.63123 -1.95488 0
M  V30 12309 H 1137.64 0.429252 -0.506595 0
M  V30 12310 H 1140.17 0.783427 -1.89007 0
M  V30 12311 H 1140.18 3.11304 -2.63731 0
M  V30 12312 H 1138.85 2.30678 -3.46064 0
M  V30 12313 H 1137.43 3.22332 -1.87501 0
M  V30 12314 N 1139.62 1.30703 0.880598 0
M  V30 12315 C 1140.56 1.17455 1.98678 0
M  V30 12316 C 1141.53 0.0629569 1.65981 0
M  V30 12317 O 1142.72 0.233926 1.89361 0
M  V30 12318 C 1139.86 0.876882 3.33774 0
M  V30 12319 C 1138.97 2.07078 3.79134 0
M  V30 12320 C 1138.11 1.71082 5.02896 0
M  V30 12321 C 1137.14 2.86942 5.40676 0
M  V30 12322 N 1136.28 2.51212 6.55619 0
M  V30 12323 H 1141.12 2.12086 2.09341 0
M  V30 12324 H 1138.66 1.05514 1.02495 0
M  V30 12325 H 1140.62 0.684899 4.1154 0
M  V30 12326 H 1139.25 -0.0325633 3.22784 0
M  V30 12327 H 1138.3 2.37388 2.97239 0
M  V30 12328 H 1139.61 2.9383 4.0307 0
M  V30 12329 H 1138.76 1.48284 5.883 0
M  V30 12330 H 1137.5 0.815064 4.80841 0
M  V30 12331 H 1136.51 3.10401 4.53797 0
M  V30 12332 H 1137.73 3.77211 5.64703 0
M  V30 12333 H 1135.68 1.64147 6.35131 0
M  V30 12334 H 1135.6 3.31495 6.79446 0
M  V30 12335 H 1136.86 2.31781 7.44243 0
M  V30 12336 N 1141.09 -1.09351 1.1349 0
M  V30 12337 C 1142.32 -1.85304 0.920324 0
M  V30 12338 C 1142.74 -1.81182 -0.530883 0
M  V30 12339 O 1142.09 -1.20853 -1.36751 0
M  V30 12340 C 1142.14 -3.33249 1.40098 0
M  V30 12341 O 1141.87 -3.37333 2.79531 0
M  V30 12342 C 1143.37 -4.2604 1.22495 0
M  V30 12343 H 1140.59 -0.585294 0.328134 0
M  V30 12344 H 1143.13 -1.38168 1.50765 0
M  V30 12345 H 1141.29 -3.7781 0.85664 0
M  V30 12346 H 1141.7 -4.29614 3.00885 0
M  V30 12347 H 1143.17 -5.27999 1.61 0
M  V30 12348 H 1143.65 -4.38883 0.166717 0
M  V30 12349 H 1144.26 -3.87295 1.75735 0
M  V30 12350 N 1142.57 -0.928524 -1.27343 0
M  V30 12351 C 1143.8 -0.58516 -1.98974 0
M  V30 12352 C 1144.22 0.829964 -1.68799 0
M  V30 12353 O 1143.58 1.55705 -0.928738 0
M  V30 12354 C 1143.63 -0.818662 -3.51184 0
M  V30 12355 O 1142.73 0.115355 -4.12239 0
M  V30 12356 H 1142.07 -0.225203 -0.624644 0
M  V30 12357 H 1144.6 -1.248 -1.6213 0
M  V30 12358 H 1144.61 -0.734554 -4.01333 0
M  V30 12359 H 1143.29 -1.8502 -3.72479 0
M  V30 12360 H 1141.86 -0.0187371 -3.72895 0
M  V30 12361 N 1144.05 1.41491 -0.694123 0
M  V30 12362 C 1145.28 2.05579 -0.233466 0
M  V30 12363 C 1145.69 1.5223 1.11675 0
M  V30 12364 O 1145.05 0.669937 1.69759 0
M  V30 12365 C 1145.1 3.61047 -0.180967 0
M  V30 12366 O 1144.82 4.12421 -1.47785 0
M  V30 12367 C 1146.32 4.42278 0.300853 0
M  V30 12368 H 1143.54 0.662097 -0.108943 0
M  V30 12369 H 1146.09 1.81288 -0.946299 0
M  V30 12370 H 1144.24 3.84381 0.482678 0
M  V30 12371 H 1144.66 5.06454 -1.364 0
M  V30 12372 H 1146.13 5.51256 0.286464 0
M  V30 12373 H 1146.61 4.18276 1.33948 0
M  V30 12374 H 1147.21 4.24004 -0.331741 0
M  V30 12375 N 1145.53 0.438773 1.51369 0
M  V30 12376 C 1146.75 -0.128221 2.07003 0
M  V30 12377 C 1147.18 -1.3557 1.30393 0
M  V30 12378 O 1146.54 -1.7804 0.342283 0
M  V30 12379 C 1146.58 -0.42761 3.58056 0
M  V30 12380 O 1145.69 -1.51382 3.83611 0
M  V30 12381 H 1145.03 -0.00123679 0.663999 0
M  V30 12382 H 1147.56 0.62052 1.94963 0
M  V30 12383 H 1147.57 -0.677645 4.02333 0
M  V30 12384 H 1146.24 0.469535 4.13241 0
M  V30 12385 H 1144.82 -1.25363 3.51196 0
M  V30 12386 N 1147.01 -1.56678 0.170181 0
M  V30 12387 C 1148.25 -1.9714 -0.475767 0
M  V30 12388 C 1148.58 -1.05611 -1.62972 0
M  V30 12389 O 1147.86 -0.103017 -1.94227 0
M  V30 12390 C 1148.14 -3.47072 -0.959828 0
M  V30 12391 C 1148 -4.4938 0.194225 0
M  V30 12392 C 1149.31 -4.00071 -1.83387 0
M  V30 12393 H 1146.43 -0.716776 -0.171466 0
M  V30 12394 H 1149.08 -1.88266 0.256086 0
M  V30 12395 H 1147.23 -3.54766 -1.58346 0
M  V30 12396 H 1148.9 -4.53748 0.83128 0
M  V30 12397 H 1147.14 -4.25393 0.849893 0
M  V30 12398 H 1147.81 -5.51685 -0.186575 0
M  V30 12399 H 1150.29 -3.95002 -1.30815 0
M  V30 12400 H 1149.16 -5.05398 -2.14159 0
M  V30 12401 H 1149.42 -3.43819 -2.77923 0
M  V30 12402 N 1148.48 0.103547 -1.57259 0
M  V30 12403 C 1149.71 0.82235 -1.89855 0
M  V30 12404 C 1150.13 1.72694 -0.76303 0
M  V30 12405 O 1149.48 1.8056 0.265421 0
M  V30 12406 C 1149.53 1.64282 -3.22015 0
M  V30 12407 O 1149.26 0.774628 -4.31197 0
M  V30 12408 C 1150.76 2.46543 -3.68418 0
M  V30 12409 H 1147.98 0.235591 -0.628282 0
M  V30 12410 H 1150.52 0.0833106 -2.0433 0
M  V30 12411 H 1148.68 2.33446 -3.09163 0
M  V30 12412 H 1149.09 1.34205 -5.0704 0
M  V30 12413 H 1150.56 2.99618 -4.63609 0
M  V30 12414 H 1151.04 3.24618 -2.95838 0
M  V30 12415 H 1151.65 1.82594 -3.84109 0
M  V30 12416 N 1149.96 1.53094 0.37415 0
M  V30 12417 C 1151.19 1.73061 1.143 0
M  V30 12418 C 1151.61 0.454611 1.82524 0
M  V30 12419 O 1150.97 -0.590743 1.71406 0
M  V30 12420 C 1151.02 2.89086 2.15549 0
M  V30 12421 O 1150.12 2.57096 3.22452 0
M  V30 12422 H 1149.46 0.575009 0.332055 0
M  V30 12423 H 1151.99 1.99946 0.433897 0
M  V30 12424 H 1152 3.15007 2.59296 0
M  V30 12425 H 1150.68 3.81647 1.65283 0
M  V30 12426 H 1149.25 2.41965 2.83738 0
M  V30 12427 N 1151.44 -0.633461 1.44309 0
M  V30 12428 C 1152.69 -1.39513 1.47187 0
M  V30 12429 C 1153.02 -1.93926 0.103186 0
M  V30 12430 O 1152.29 -1.73512 -0.878853 0
M  V30 12431 C 1152.58 -2.56213 2.53036 0
M  V30 12432 C 1152.43 -2.07164 3.99253 0
M  V30 12433 C 1153.75 -3.58403 2.55412 0
M  V30 12434 H 1150.87 -0.505936 0.535908 0
M  V30 12435 H 1153.51 -0.716445 1.75975 0
M  V30 12436 H 1151.66 -3.14111 2.28619 0
M  V30 12437 H 1153.33 -1.54115 4.34795 0
M  V30 12438 H 1151.57 -1.38367 4.11141 0
M  V30 12439 H 1152.25 -2.91172 4.6896 0
M  V30 12440 H 1154.72 -3.103 2.77224 0
M  V30 12441 H 1153.6 -4.37581 3.31382 0
M  V30 12442 H 1153.86 -4.12316 1.59523 0
M  V30 12443 N 1152.92 -1.31168 -0.873655 0
M  V30 12444 C 1153.87 -1.18432 -2.00191 0
M  V30 12445 C 1154.86 -0.0934873 -1.69142 0
M  V30 12446 O 1156.07 -0.255126 -1.78183 0
M  V30 12447 H 1152.44 -0.366594 -0.656592 0
M  V30 12448 H 1154.41 -2.13896 -2.08065 0
M  V30 12449 C 1153.16 -0.904668 -3.35725 0
M  V30 12450 H 1152.48 -1.73617 -3.60135 0
M  V30 12451 H 1153.92 -0.855715 -4.15275 0
M  V30 12452 C 1152.38 0.392554 -3.34605 0
M  V30 12453 O 1152.91 1.41052 -3.76121 0
M  V30 12454 N 1151.12 0.40777 -2.87725 0
M  V30 12455 H 1150.67 -0.42112 -2.54134 0
M  V30 12456 H 1150.62 1.27564 -2.87358 0
M  V30 12457 N 1154.4 1.08748 -1.14068 0
M  V30 12458 C 1155.33 2.1544 -0.782199 0
M  V30 12459 C 1156.34 1.61575 0.199301 0
M  V30 12460 O 1157.53 1.78487 -0.0219044 0
M  V30 12461 C 1154.63 3.38611 -0.13983 0
M  V30 12462 C 1153.8 4.2187 -1.15518 0
M  V30 12463 C 1152.86 5.23451 -0.537216 0
M  V30 12464 O 1151.89 5.56424 -1.1992 0
M  V30 12465 N 1153.09 5.76413 0.6876 0
M  V30 12466 H 1155.86 2.46798 -1.70032 0
M  V30 12467 H 1153.42 1.24527 -1.03463 0
M  V30 12468 H 1155.41 4.03688 0.285999 0
M  V30 12469 H 1153.98 3.05084 0.681357 0
M  V30 12470 H 1153.2 3.52825 -1.75806 0
M  V30 12471 H 1154.49 4.74318 -1.84119 0
M  V30 12472 H 1153.88 5.51851 1.24406 0
M  V30 12473 H 1152.44 6.43189 1.05599 0
M  V30 12474 N 1155.87 0.935264 1.26849 0
M  V30 12475 C 1156.84 0.44485 2.24842 0
M  V30 12476 C 1157.84 -0.440781 1.54641 0
M  V30 12477 O 1159.03 -0.240793 1.72528 0
M  V30 12478 C 1156.16 -0.359566 3.38998 0
M  V30 12479 H 1157.35 1.31074 2.6974 0
M  V30 12480 H 1154.91 0.716665 1.38901 0
M  V30 12481 H 1155.64 -1.24396 2.99493 0
M  V30 12482 H 1155.43 0.275529 3.91131 0
M  V30 12483 H 1156.92 -0.692804 4.11813 0
M  V30 12484 N 1157.35 -1.41121 0.701616 0
M  V30 12485 C 1158.58 -2.05973 0.242896 0
M  V30 12486 C 1159 -1.52474 -1.10151 0
M  V30 12487 O 1158.36 -0.654224 -1.69085 0
M  V30 12488 C 1158.41 -3.59943 0.217614 0
M  V30 12489 O 1157.51 -4.04454 -0.805629 0
M  V30 12490 H 1156.85 -0.653581 0.117166 0
M  V30 12491 H 1159.38 -1.80777 0.958175 0
M  V30 12492 H 1159.39 -4.07969 0.0505267 0
M  V30 12493 H 1158.07 -3.98249 1.19877 0
M  V30 12494 H 1156.65 -3.6792 -0.607404 0
M  V30 12495 N 1158.83 -0.446794 -1.51134 0
M  V30 12496 C 1160.06 0.114893 -2.06581 0
M  V30 12497 C 1160.47 1.35642 -1.31327 0
M  V30 12498 O 1159.83 1.78595 -0.375506 0
M  V30 12499 C 1159.88 0.427589 -3.58962 0
M  V30 12500 O 1159.6 -0.764669 -4.31375 0
M  V30 12501 C 1161.1 1.03891 -4.30954 0
M  V30 12502 H 1158.32 0.00373031 -0.67099 0
M  V30 12503 H 1160.87 -0.628596 -1.94599 0
M  V30 12504 H 1159.02 1.12099 -3.70827 0
M  V30 12505 H 1159.44 -0.494605 -5.22163 0
M  V30 12506 H 1160.91 1.20764 -5.38628 0
M  V30 12507 H 1161.39 2.02252 -3.8986 0
M  V30 12508 H 1161.99 0.384623 -4.23557 0
M  V30 12509 N 1160.31 1.56586 -0.178487 0
M  V30 12510 C 1161.53 2.01915 0.473841 0
M  V30 12511 C 1161.96 1.05789 1.55533 0
M  V30 12512 O 1161.32 0.0386018 1.81259 0
M  V30 12513 C 1161.36 3.45799 1.02251 0
M  V30 12514 O 1160.47 3.52761 2.1362 0
M  V30 12515 H 1159.81 0.654372 0.112666 0
M  V30 12516 H 1162.34 2.02613 -0.284486 0
M  V30 12517 H 1162.35 3.85252 1.34332 0
M  V30 12518 H 1161.02 4.1526 0.230719 0
M  V30 12519 H 1159.6 3.25172 1.8253 0
M  V30 12520 N 1161.79 -0.095206 1.57312 0
M  V30 12521 C 1163.2 -0.449411 1.53142 0
M  V30 12522 C 1163.4 -1.80523 0.895187 0
M  V30 12523 O 1162.46 -2.47746 0.487649 0
M  V30 12524 C 1163.77 -0.412002 2.97864 0
M  V30 12525 C 1165.32 -0.493866 3.09079 0
M  V30 12526 C 1165.79 -0.486606 4.55408 0
M  V30 12527 N 1167.29 -0.547363 4.59955 0
M  V30 12528 C 1168.02 -0.563582 5.70624 0
M  V30 12529 N 1167.52 -0.536015 6.90723 0
M  V30 12530 N 1169.31 -0.608385 5.58798 0
M  V30 12531 H 1161.46 0.792869 1.97047 0
M  V30 12532 H 1163.72 0.295106 0.900898 0
M  V30 12533 H 1163.43 0.517064 3.47878 0
M  V30 12534 H 1163.3 -1.23102 3.56547 0
M  V30 12535 H 1165.69 -1.41335 2.59053 0
M  V30 12536 H 1165.77 0.353286 2.53349 0
M  V30 12537 H 1165.42 0.428935 5.06086 0
M  V30 12538 H 1165.35 -1.35097 5.08976 0
M  V30 12539 H 1167.84 -0.573867 3.73517 0
M  V30 12540 H 1168.15 -0.551671 7.70828 0
M  V30 12541 H 1166.49 -0.503064 6.93177 0
M  V30 12542 H 1169.69 -0.627451 4.63876 0
M  V30 12543 H 1169.86 -0.617556 6.45051 0
M  V30 12544 N 1163.26 -1.53291 -0.366026 0
M  V30 12545 C 1164.19 -1.82675 -1.45437 0
M  V30 12546 C 1165.18 -0.680227 -1.55907 0
M  V30 12547 O 1166.36 -0.930032 -1.70482 0
M  V30 12548 C 1163.49 -2.01626 -2.8278 0
M  V30 12549 C 1162.44 -3.17391 -2.87135 0
M  V30 12550 C 1161.77 -3.21634 -4.27148 0
M  V30 12551 C 1163.07 -4.5599 -2.54697 0
M  V30 12552 H 1164.76 -2.73818 -1.21096 0
M  V30 12553 H 1162.31 -1.31754 -0.581108 0
M  V30 12554 H 1164.26 -2.20765 -3.58944 0
M  V30 12555 H 1162.99 -1.07193 -3.08508 0
M  V30 12556 H 1161.65 -2.98071 -2.13422 0
M  V30 12557 H 1161.29 -2.2484 -4.49951 0
M  V30 12558 H 1160.99 -3.99414 -4.30978 0
M  V30 12559 H 1162.52 -3.42957 -5.05186 0
M  V30 12560 H 1163.93 -4.75294 -3.20575 0
M  V30 12561 H 1162.33 -5.36008 -2.69844 0
M  V30 12562 H 1163.4 -4.61133 -1.49949 0
M  V30 12563 N 1164.74 0.6258 -1.44643 0
M  V30 12564 C 1165.65 1.76611 -1.5442 0
M  V30 12565 C 1166.67 1.68614 -0.429576 0
M  V30 12566 O 1167.84 1.89296 -0.687686 0
M  V30 12567 C 1164.91 3.13015 -1.49071 0
M  V30 12568 C 1163.97 3.32604 -2.71428 0
M  V30 12569 C 1163.2 4.62501 -2.66325 0
M  V30 12570 O 1163.43 5.43651 -1.72626 0
M  V30 12571 O 1162.36 4.84408 -3.57258 0
M  V30 12572 H 1166.19 1.71315 -2.50769 0
M  V30 12573 H 1163.77 0.787677 -1.26949 0
M  V30 12574 H 1165.65 3.94318 -1.48631 0
M  V30 12575 H 1164.33 3.18842 -0.558686 0
M  V30 12576 H 1163.24 2.50959 -2.77435 0
M  V30 12577 H 1164.57 3.31642 -3.63695 0
M  V30 12578 N 1166.22 1.31629 0.866686 0
M  V30 12579 C 1167.47 1.21263 1.61678 0
M  V30 12580 C 1167.79 -0.228562 1.93656 0
M  V30 12581 O 1167.06 -1.15014 1.58583 0
M  V30 12582 H 1165.64 0.445817 0.59938 0
M  V30 12583 H 1168.3 1.64998 1.03739 0
M  V30 12584 H 1167.4 1.78669 2.55898 0
M  V30 12585 N 1167.7 -1.08142 1.14644 0
M  V30 12586 C 1168.63 -2.17139 0.858667 0
M  V30 12587 C 1169.61 -1.69064 -0.187452 0
M  V30 12588 O 1170.8 -1.94151 -0.0435458 0
M  V30 12589 C 1167.93 -3.45648 0.33834 0
M  V30 12590 C 1166.88 -4.07129 1.32021 0
M  V30 12591 C 1166.21 -5.30623 0.659075 0
M  V30 12592 C 1167.51 -4.48095 2.68343 0
M  V30 12593 H 1169.2 -2.41468 1.77012 0
M  V30 12594 H 1166.75 -1.16052 0.852523 0
M  V30 12595 H 1168.7 -4.21216 0.124611 0
M  V30 12596 H 1167.42 -3.2088 -0.608553 0
M  V30 12597 H 1166.08 -3.33596 1.52016 0
M  V30 12598 H 1165.73 -5.02142 -0.293711 0
M  V30 12599 H 1165.43 -5.72714 1.31427 0
M  V30 12600 H 1166.95 -6.08903 0.454933 0
M  V30 12601 H 1168.37 -5.14828 2.5224 0
M  V30 12602 H 1166.76 -5.01113 3.30161 0
M  V30 12603 H 1167.83 -3.59852 3.25015 0
M  V30 12604 N 1169.18 -0.941978 -1.26351 0
M  V30 12605 C 1170.11 -0.409504 -2.25512 0
M  V30 12606 C 1171.12 0.467665 -1.55938 0
M  V30 12607 O 1172.31 0.277982 -1.76322 0
M  V30 12608 C 1169.41 0.430487 -3.36155 0
M  V30 12609 C 1168.58 -0.430714 -4.35274 0
M  V30 12610 C 1167.64 0.348976 -5.25042 0
M  V30 12611 O 1166.67 -0.24827 -5.68658 0
M  V30 12612 N 1167.87 1.64531 -5.56695 0
M  V30 12613 H 1170.64 -1.26196 -2.71836 0
M  V30 12614 H 1168.2 -0.810947 -1.40126 0
M  V30 12615 H 1170.19 0.959501 -3.93161 0
M  V30 12616 H 1168.76 1.18375 -2.8932 0
M  V30 12617 H 1167.98 -1.14093 -3.77328 0
M  V30 12618 H 1169.27 -1.01896 -4.98492 0
M  V30 12619 H 1168.67 2.15266 -5.23142 0
M  V30 12620 H 1167.22 2.12055 -6.16341 0
M  V30 12621 N 1170.66 1.40747 -0.709091 0
M  V30 12622 C 1171.88 2.05841 -0.253816 0
M  V30 12623 C 1172.31 1.53056 1.09341 0
M  V30 12624 O 1171.66 0.663181 1.68735 0
M  V30 12625 C 1171.71 3.59822 -0.236699 0
M  V30 12626 O 1170.82 4.04876 0.784168 0
M  V30 12627 H 1170.16 0.65295 -0.120631 0
M  V30 12628 H 1172.69 1.80266 -0.967749 0
M  V30 12629 H 1172.7 4.07936 -0.0721616 0
M  V30 12630 H 1171.37 3.97608 -1.21988 0
M  V30 12631 H 1169.95 3.68237 0.587884 0
M  V30 12632 N 1172.13 0.454803 1.50895 0
M  V30 12633 C 1173.04 -0.353495 2.31921 0
M  V30 12634 C 1174.06 -1.01136 1.41589 0
M  V30 12635 O 1175.24 -1.00291 1.74653 0
M  V30 12636 C 1172.3 -1.43032 3.15821 0
M  V30 12637 C 1171.36 -0.790763 4.21954 0
M  V30 12638 C 1170.59 -1.81628 5.01843 0
M  V30 12639 O 1170.82 -3.04078 4.8259 0
M  V30 12640 O 1169.75 -1.39713 5.8546 0
M  V30 12641 H 1173.58 0.308463 3.02129 0
M  V30 12642 H 1171.16 0.216971 1.47816 0
M  V30 12643 H 1173.04 -2.05444 3.67927 0
M  V30 12644 H 1171.72 -2.07605 2.48358 0
M  V30 12645 H 1170.63 -0.128127 3.73881 0
M  V30 12646 H 1171.96 -0.188251 4.9184 0
M  V30 12647 N 1173.61 -1.56489 0.186789 0
M  V30 12648 C 1174.56 -2.20034 -0.754164 0
M  V30 12649 C 1175.55 -1.16899 -1.22601 0
M  V30 12650 O 1176.76 -1.35064 -1.18987 0
M  V30 12651 H 1173.13 -0.705058 -0.261529 0
M  V30 12652 H 1175.11 -2.97766 -0.194418 0
M  V30 12653 C 1173.85 -2.86733 -1.9667 0
M  V30 12654 H 1173.18 -3.65831 -1.61268 0
M  V30 12655 H 1174.62 -3.34645 -2.60363 0
M  V30 12656 C 1173.08 -1.87325 -2.8002 0
M  V30 12657 O 1173.61 -1.36835 -3.77676 0
M  V30 12658 N 1171.81 -1.55738 -2.45345 0
M  V30 12659 H 1171.36 -1.9699 -1.6599 0
M  V30 12660 H 1171.32 -0.894805 -3.01398 0
M  V30 12661 N 1175.09 0.086862 -1.5736 0
M  V30 12662 C 1176.04 1.11134 -1.99081 0
M  V30 12663 C 1177.02 1.35318 -0.870506 0
M  V30 12664 O 1178.22 1.35871 -1.13437 0
M  V30 12665 C 1175.34 2.42931 -2.42569 0
M  V30 12666 C 1174.43 2.22085 -3.61302 0
M  V30 12667 N 1174.82 1.71128 -4.75971 0
M  V30 12668 C 1173.12 2.52619 -3.67559 0
M  V30 12669 C 1173.82 1.64745 -5.57883 0
M  V30 12670 N 1172.8 2.10257 -5.01291 0
M  V30 12671 H 1176.6 0.710431 -2.85184 0
M  V30 12672 H 1174.11 0.294168 -1.59714 0
M  V30 12673 H 1176.11 3.17069 -2.7069 0
M  V30 12674 H 1174.77 2.83751 -1.57846 0
M  V30 12675 H 1175.78 1.40207 -4.9856 0
M  V30 12676 H 1172.46 2.96908 -2.93516 0
M  V30 12677 H 1173.85 1.26329 -6.59917 0
M  V30 12678 N 1176.57 1.53483 0.357892 0
M  V30 12679 C 1177.98 1.43426 0.700073 0
M  V30 12680 C 1178.18 0.579493 1.92987 0
M  V30 12681 O 1177.24 0.0649086 2.52417 0
M  V30 12682 C 1178.55 2.86723 0.906099 0
M  V30 12683 C 1180.1 2.96405 1.00563 0
M  V30 12684 C 1180.58 4.4078 1.24407 0
M  V30 12685 N 1182.07 4.44243 1.3116 0
M  V30 12686 C 1182.8 5.53069 1.51333 0
M  V30 12687 N 1182.3 6.71928 1.68774 0
M  V30 12688 N 1184.09 5.40659 1.53765 0
M  V30 12689 H 1176.24 2.07559 -0.450894 0
M  V30 12690 H 1178.5 0.937649 -0.139711 0
M  V30 12691 H 1178.21 3.51622 0.0741579 0
M  V30 12692 H 1178.08 3.30827 1.81199 0
M  V30 12693 H 1180.47 2.31656 1.8281 0
M  V30 12694 H 1180.55 2.55684 0.0769512 0
M  V30 12695 H 1180.2 5.06105 0.426575 0
M  V30 12696 H 1180.13 4.7908 2.18608 0
M  V30 12697 H 1182.62 3.58587 1.19265 0
M  V30 12698 H 1182.93 7.50634 1.83762 0
M  V30 12699 H 1181.28 6.749 1.65937 0
M  V30 12700 H 1184.47 4.46764 1.39713 0
M  V30 12701 H 1184.64 6.25535 1.69146 0
M  V30 12702 N 1178.05 -0.61812 1.44973 0
M  V30 12703 C 1178.98 -1.74035 1.55673 0
M  V30 12704 C 1179.96 -1.65112 0.4089 0
M  V30 12705 O 1181.14 -1.83673 0.630698 0
M  V30 12706 C 1178.27 -3.1261 1.51303 0
M  V30 12707 C 1177.23 -3.36334 2.64696 0
M  V30 12708 C 1176.55 -4.75072 2.45378 0
M  V30 12709 C 1177.85 -3.27618 4.06772 0
M  V30 12710 H 1179.55 -1.65336 2.49608 0
M  V30 12711 H 1177.09 -0.794003 1.20132 0
M  V30 12712 H 1179.04 -3.90906 1.57388 0
M  V30 12713 H 1177.77 -3.22123 0.538914 0
M  V30 12714 H 1176.43 -2.60423 2.58022 0
M  V30 12715 H 1176.08 -4.81306 1.46129 0
M  V30 12716 H 1175.78 -4.91903 3.21412 0
M  V30 12717 H 1177.3 -5.55582 2.53301 0
M  V30 12718 H 1178.71 -3.95802 4.14746 0
M  V30 12719 H 1177.11 -3.55981 4.83113 0
M  V30 12720 H 1178.18 -2.25219 4.29423 0
M  V30 12721 N 1179.52 -1.32087 -0.859693 0
M  V30 12722 C 1180.94 -1.10968 -1.14709 0
M  V30 12723 C 1181.14 0.113139 -2.01182 0
M  V30 12724 O 1180.2 0.799499 -2.39508 0
M  V30 12725 C 1181.51 -2.38657 -1.8293 0
M  V30 12726 C 1183.06 -2.44366 -1.95587 0
M  V30 12727 C 1183.53 -3.71963 -2.67222 0
M  V30 12728 N 1185.02 -3.72916 -2.7475 0
M  V30 12729 C 1185.76 -4.68346 -3.30816 0
M  V30 12730 N 1185.25 -5.74139 -3.87732 0
M  V30 12731 N 1187.05 -4.55851 -3.28872 0
M  V30 12732 H 1179.2 -2.10497 -0.283711 0
M  V30 12733 H 1181.46 -0.929108 -0.188315 0
M  V30 12734 H 1181.17 -3.2803 -1.26844 0
M  V30 12735 H 1181.04 -2.49236 -2.83128 0
M  V30 12736 H 1183.43 -1.55456 -2.50833 0
M  V30 12737 H 1183.51 -2.37744 -0.944001 0
M  V30 12738 H 1183.15 -4.61245 -2.1264 0
M  V30 12739 H 1183.08 -3.75855 -3.68837 0
M  V30 12740 H 1185.57 -2.96447 -2.34367 0
M  V30 12741 H 1185.89 -6.43021 -4.28654 0
M  V30 12742 H 1184.23 -5.779 -3.86078 0
M  V30 12743 H 1187.42 -3.72371 -2.83651 0
M  V30 12744 H 1187.6 -5.30398 -3.72266 0
M  V30 12745 N 1181 1.07532 -1.15215 0
M  V30 12746 C 1181.93 2.1406 -0.7908 0
M  V30 12747 C 1182.91 1.60938 0.231922 0
M  V30 12748 O 1184.1 1.88125 0.118906 0
M  V30 12749 C 1181.22 3.38244 -0.175633 0
M  V30 12750 C 1180.27 4.10139 -1.16996 0
M  V30 12751 S 1181.1 4.61795 -2.71119 0
M  V30 12752 C 1182.26 5.89256 -2.11016 0
M  V30 12753 H 1182.49 2.44381 -1.69308 0
M  V30 12754 H 1180.02 1.19777 -0.974308 0
M  V30 12755 H 1181.98 4.10136 0.172859 0
M  V30 12756 H 1180.64 3.06104 0.704211 0
M  V30 12757 H 1179.84 4.99286 -0.687714 0
M  V30 12758 H 1179.44 3.44203 -1.46289 0
M  V30 12759 H 1181.73 6.61336 -1.47109 0
M  V30 12760 H 1182.67 6.42191 -2.98322 0
M  V30 12761 H 1183.08 5.4269 -1.55394 0
M  V30 12762 N 1182.48 0.948665 1.2585 0
M  V30 12763 C 1183.43 0.462904 2.2611 0
M  V30 12764 C 1184.4 -0.481433 1.5897 0
M  V30 12765 O 1185.58 -0.395997 1.86645 0
M  V30 12766 C 1182.72 -0.258808 3.44128 0
M  V30 12767 C 1181.84 0.722072 4.25923 0
M  V30 12768 C 1180.97 -0.0215958 5.31196 0
M  V30 12769 C 1180.01 0.950612 6.04673 0
M  V30 12770 N 1179.15 0.238209 7.01696 0
M  V30 12771 H 1183.99 1.32279 2.67032 0
M  V30 12772 H 1181.52 0.663485 1.31287 0
M  V30 12773 H 1183.48 -0.693759 4.11391 0
M  V30 12774 H 1182.11 -1.08278 3.04098 0
M  V30 12775 H 1181.16 1.27552 3.58378 0
M  V30 12776 H 1182.48 1.46421 4.76825 0
M  V30 12777 H 1181.63 -0.51547 6.04506 0
M  V30 12778 H 1180.37 -0.796563 4.81151 0
M  V30 12779 H 1179.37 1.45554 5.30183 0
M  V30 12780 H 1180.6 1.72571 6.56808 0
M  V30 12781 H 1178.54 -0.518129 6.53951 0
M  V30 12782 H 1178.46 0.919542 7.50387 0
M  V30 12783 H 1179.73 -0.234325 7.79148 0
M  V30 12784 N 1183.96 -1.40369 0.716545 0
M  V30 12785 C 1185.21 -2.00101 0.253452 0
M  V30 12786 C 1185.52 -1.57471 -1.16027 0
M  V30 12787 O 1186.73 -2.09909 -1.72193 0
M  V30 12788 C 1185.18 -3.57645 0.402213 0
M  V30 12789 C 1184.79 -4.09248 1.82264 0
M  V30 12790 C 1186.53 -4.245 -3.88526e-05 0
M  V30 12791 C 1184.44 -5.59299 1.92193 0
M  V30 12792 H 1183.37 -0.748488 0.0910047 0
M  V30 12793 H 1186.02 -1.60595 0.887772 0
M  V30 12794 H 1184.4 -3.94857 -0.300706 0
M  V30 12795 H 1185.58 -3.83412 2.55601 0
M  V30 12796 H 1183.89 -3.54993 2.17644 0
M  V30 12797 H 1186.49 -5.34673 0.0534202 0
M  V30 12798 H 1186.83 -4.03046 -1.04208 0
M  V30 12799 H 1187.37 -3.92398 0.65336 0
M  V30 12800 H 1184.11 -5.85608 2.94522 0
M  V30 12801 H 1183.63 -5.86997 1.23268 0
M  V30 12802 H 1185.3 -6.24416 1.6945 0
M  V30 12803 N 1185.44 -0.462799 -1.50652 0
M  V30 12804 C 1186.66 0.0929761 -2.06691 0
M  V30 12805 C 1187.08 1.34241 -1.32758 0
M  V30 12806 O 1186.44 1.78187 -0.394427 0
M  V30 12807 C 1186.49 0.389492 -3.59396 0
M  V30 12808 O 1186.21 -0.810379 -4.3054 0
M  V30 12809 C 1187.71 0.993147 -4.32032 0
M  V30 12810 H 1184.93 -0.00338664 -0.670991 0
M  V30 12811 H 1187.47 -0.649201 -1.93922 0
M  V30 12812 H 1185.63 1.08159 -3.71995 0
M  V30 12813 H 1186.04 -0.54996 -5.21609 0
M  V30 12814 H 1187.52 1.15044 -5.39878 0
M  V30 12815 H 1187.99 1.98106 -3.91983 0
M  V30 12816 H 1188.6 0.339677 -4.23941 0
M  V30 12817 N 1186.91 1.56388 -0.195085 0
M  V30 12818 C 1187.82 2.22698 0.737743 0
M  V30 12819 C 1188.84 1.22605 1.23466 0
M  V30 12820 O 1190.02 1.55342 1.28183 0
M  V30 12821 C 1187.08 2.87333 1.94011 0
M  V30 12822 C 1186.14 4.02696 1.48776 0
M  V30 12823 C 1185.38 4.64239 2.63282 0
M  V30 12824 O 1185.6 4.24706 3.80763 0
M  V30 12825 O 1184.53 5.53705 2.35996 0
M  V30 12826 H 1188.36 3.03021 0.203013 0
M  V30 12827 H 1185.94 1.49361 0.0342044 0
M  V30 12828 H 1187.83 3.28226 2.64284 0
M  V30 12829 H 1186.5 2.0999 2.46345 0
M  V30 12830 H 1185.41 3.66426 0.753839 0
M  V30 12831 H 1186.74 4.81703 1.01109 0
M  V30 12832 N 1188.39 -0.0785156 1.57404 0
M  V30 12833 C 1189.32 -1.09446 2.06262 0
M  V30 12834 C 1190.3 -1.40777 0.954772 0
M  V30 12835 O 1191.49 -1.5052 1.22708 0
M  V30 12836 C 1188.62 -2.40979 2.50093 0
M  V30 12837 C 1187.57 -2.24017 3.64692 0
M  V30 12838 C 1186.9 -3.60873 3.94556 0
M  V30 12839 C 1188.2 -1.66696 4.94985 0
M  V30 12840 H 1189.89 -0.687928 2.9139 0
M  V30 12841 H 1187.44 -0.329466 1.4018 0
M  V30 12842 H 1189.39 -3.12337 2.82884 0
M  V30 12843 H 1188.12 -2.83599 1.61985 0
M  V30 12844 H 1186.77 -1.55101 3.32174 0
M  V30 12845 H 1186.42 -4.01051 3.0359 0
M  V30 12846 H 1186.12 -3.50365 4.71718 0
M  V30 12847 H 1187.65 -4.33673 4.29837 0
M  V30 12848 H 1189.06 -2.27913 5.2605 0
M  V30 12849 H 1187.46 -1.66902 5.76423 0
M  V30 12850 H 1188.53 -0.627827 4.80818 0
M  V30 12851 N 1189.87 -1.5367 -0.349747 0
M  V30 12852 C 1191.15 -1.61238 -1.10732 0
M  V30 12853 C 1191.53 -0.429756 -2.06679 0
M  V30 12854 O 1190.88 0.578564 -2.21054 0
M  V30 12855 C 1191.09 -2.97022 -1.83245 0
M  V30 12856 C 1192.43 -3.52158 -2.37212 0
M  V30 12857 O 1193.46 -2.99156 -1.9335 0
M  V30 12858 O 1192.32 -4.44853 -3.1744 0
M  V30 12859 H 1189.41 -0.65191 -0.508864 0
M  V30 12860 H 1191.96 -1.66015 -0.351738 0
M  V30 12861 H 1190.73 -3.74535 -1.13311 0
M  V30 12862 H 1190.35 -2.95808 -2.65675 0
M  V30 12863 N 1191.35 0.610423 -1.45298 0
M  V30 12864 C 1192.3 1.7213 -1.53753 0
M  V30 12865 C 1193.27 1.61609 -0.383632 0
M  V30 12866 O 1194.45 1.8123 -0.596694 0
M  V30 12867 C 1191.59 3.10433 -1.50749 0
M  V30 12868 C 1190.7 3.3178 -2.76669 0
M  V30 12869 C 1189.84 4.60173 -2.65356 0
M  V30 12870 C 1188.88 4.74769 -3.86343 0
M  V30 12871 N 1188.01 5.94459 -3.73581 0
M  V30 12872 H 1192.85 1.64239 -2.48655 0
M  V30 12873 H 1190.39 0.800879 -1.23387 0
M  V30 12874 H 1192.35 3.90446 -1.46996 0
M  V30 12875 H 1190.98 3.17288 -0.593998 0
M  V30 12876 H 1190.03 2.45563 -2.90522 0
M  V30 12877 H 1191.34 3.38439 -3.66416 0
M  V30 12878 H 1190.5 5.48377 -2.59553 0
M  V30 12879 H 1189.24 4.55907 -1.73204 0
M  V30 12880 H 1188.24 3.8499 -3.92509 0
M  V30 12881 H 1189.47 4.80834 -4.79557 0
M  V30 12882 H 1187.41 5.91243 -2.84196 0
M  V30 12883 H 1187.33 6.02265 -4.5696 0
M  V30 12884 H 1188.6 6.85168 -3.71705 0
M  V30 12885 N 1192.83 1.32541 0.852676 0
M  V30 12886 C 1194.1 1.1383 1.59067 0
M  V30 12887 C 1194.48 -0.300584 2.08949 0
M  V30 12888 O 1193.83 -1.29751 1.88088 0
M  V30 12889 C 1194.04 2.16758 2.73527 0
M  V30 12890 C 1195.39 2.50194 3.43057 0
M  V30 12891 O 1196.41 2.15319 2.83754 0
M  V30 12892 O 1195.27 3.09985 4.50079 0
M  V30 12893 H 1192.37 0.439379 0.700625 0
M  V30 12894 H 1194.91 1.44078 0.896632 0
M  V30 12895 H 1193.68 3.13469 2.34207 0
M  V30 12896 H 1193.31 1.87515 3.50605 0
M  V30 12897 N 1194.3 -1.0692 1.15784 0
M  V30 12898 C 1195.23 -2.16216 0.881649 0
M  V30 12899 C 1196.22 -1.69253 -0.16951 0
M  V30 12900 O 1197.4 -1.94186 -0.0229511 0
M  V30 12901 C 1194.53 -3.4527 0.374982 0
M  V30 12902 C 1193.48 -4.05706 1.36332 0
M  V30 12903 C 1192.81 -5.29894 0.715317 0
M  V30 12904 C 1194.11 -4.45224 2.7308 0
M  V30 12905 H 1195.8 -2.39577 1.79563 0
M  V30 12906 H 1193.35 -1.15141 0.864784 0
M  V30 12907 H 1195.3 -4.2106 0.169279 0
M  V30 12908 H 1194.03 -3.21508 -0.574485 0
M  V30 12909 H 1192.69 -3.31965 1.55546 0
M  V30 12910 H 1192.33 -5.02425 -0.240436 0
M  V30 12911 H 1192.03 -5.71287 1.37494 0
M  V30 12912 H 1193.56 -6.08386 0.519489 0
M  V30 12913 H 1194.97 -5.12124 2.57686 0
M  V30 12914 H 1193.37 -4.97583 3.35457 0
M  V30 12915 H 1194.44 -3.56384 3.28813 0
M  V30 12916 N 1195.78 -0.955326 -1.25345 0
M  V30 12917 C 1196.69 -0.482707 -2.2958 0
M  V30 12918 C 1197.71 0.450283 -1.68073 0
M  V30 12919 O 1198.88 0.326358 -1.98738 0
M  V30 12920 C 1195.95 0.231293 -3.45928 0
M  V30 12921 C 1195.01 -0.739995 -4.22874 0
M  V30 12922 C 1194.24 -0.0599748 -5.33666 0
M  V30 12923 O 1194.47 1.15423 -5.586 0
M  V30 12924 O 1193.4 -0.745865 -5.97261 0
M  V30 12925 H 1197.23 -1.34892 -2.72099 0
M  V30 12926 H 1194.81 -0.721812 -1.30806 0
M  V30 12927 H 1196.69 0.632908 -4.1662 0
M  V30 12928 H 1195.37 1.07267 -3.0541 0
M  V30 12929 H 1194.28 -1.19183 -3.54607 0
M  V30 12930 H 1195.61 -1.54941 -4.67177 0
M  V30 12931 N 1197.26 1.39987 -0.723979 0
M  V30 12932 C 1198.17 2.3447 -0.0780936 0
M  V30 12933 C 1199.19 1.57744 0.734368 0
M  V30 12934 O 1200.36 1.90091 0.665385 0
M  V30 12935 C 1197.43 3.36705 0.826492 0
M  V30 12936 C 1196.49 4.293 0.00303036 0
M  V30 12937 C 1195.72 5.26651 0.864535 0
M  V30 12938 O 1195.95 5.30194 2.10357 0
M  V30 12939 O 1194.88 6.01157 0.299057 0
M  V30 12940 H 1198.71 2.91338 -0.857646 0
M  V30 12941 H 1196.29 1.41324 -0.484536 0
M  V30 12942 H 1198.17 3.9938 1.34439 0
M  V30 12943 H 1196.85 2.82237 1.58505 0
M  V30 12944 H 1195.75 3.69883 -0.560136 0
M  V30 12945 H 1197.09 4.86942 -0.717494 0
M  V30 12946 N 1198.74 0.470782 1.50404 0
M  V30 12947 C 1199.99 -0.0844409 2.02624 0
M  V30 12948 C 1200.32 -1.39398 1.3521 0
M  V30 12949 O 1199.59 -1.88542 0.477707 0
M  V30 12950 C 1199.88 -0.268563 3.59097 0
M  V30 12951 C 1199.73 1.06198 4.37084 0
M  V30 12952 C 1201.05 -1.02324 4.28039 0
M  V30 12953 H 1198.17 -0.0292141 0.736421 0
M  V30 12954 H 1200.81 0.616312 1.79726 0
M  V30 12955 H 1198.96 -0.865441 3.78738 0
M  V30 12956 H 1200.63 1.69541 4.29015 0
M  V30 12957 H 1198.87 1.65868 4.00837 0
M  V30 12958 H 1199.55 0.886795 5.4483 0
M  V30 12959 H 1202.02 -0.517325 4.12872 0
M  V30 12960 H 1200.9 -1.12087 5.37334 0
M  V30 12961 H 1201.16 -2.05974 3.91187 0
M  V30 12962 N 1200.22 -1.56282 0.203376 0
M  V30 12963 C 1201.45 -2.02198 -0.438572 0
M  V30 12964 C 1201.86 -1.08343 -1.54619 0
M  V30 12965 O 1201.22 -0.0897594 -1.82279 0
M  V30 12966 C 1201.27 -3.4776 -0.987184 0
M  V30 12967 O 1200.99 -4.38034 0.0762552 0
M  V30 12968 C 1202.49 -4.09234 -1.70419 0
M  V30 12969 H 1199.71 -0.662041 -0.109282 0
M  V30 12970 H 1202.25 -2.02067 0.314509 0
M  V30 12971 H 1200.41 -3.48564 -1.69061 0
M  V30 12972 H 1200.82 -5.2344 -0.333322 0
M  V30 12973 H 1202.3 -5.1291 -2.04027 0
M  V30 12974 H 1202.77 -3.53172 -2.61087 0
M  V30 12975 H 1203.38 -4.12226 -1.04641 0
M  V30 12976 N 1201.7 0.070167 -1.57444 0
M  V30 12977 C 1202.63 1.11509 -1.991 0
M  V30 12978 C 1203.61 1.37481 -0.868194 0
M  V30 12979 O 1204.79 1.50827 -1.13064 0
M  V30 12980 C 1201.92 2.45908 -2.3291 0
M  V30 12981 C 1200.96 2.36059 -3.55216 0
M  V30 12982 S 1201.8 1.75316 -5.05989 0
M  V30 12983 C 1202.95 3.11289 -5.43001 0
M  V30 12984 H 1203.19 0.760096 -2.87419 0
M  V30 12985 H 1200.72 0.278756 -1.51863 0
M  V30 12986 H 1202.68 3.23217 -2.53063 0
M  V30 12987 H 1201.34 2.78567 -1.45117 0
M  V30 12988 H 1200.53 3.35176 -3.76395 0
M  V30 12989 H 1200.13 1.66886 -3.34701 0
M  V30 12990 H 1202.42 4.07603 -5.41171 0
M  V30 12991 H 1203.37 2.94888 -6.43775 0
M  V30 12992 H 1203.78 3.11969 -4.70463 0
M  V30 12993 N 1203.17 1.53854 0.341593 0
M  V30 12994 C 1204.11 1.78295 1.44027 0
M  V30 12995 C 1205.12 0.664303 1.4863 0
M  V30 12996 O 1206.31 0.941073 1.51678 0
M  V30 12997 C 1203.41 1.86947 2.82673 0
M  V30 12998 C 1202.58 3.16898 3.01487 0
M  V30 12999 C 1201.64 3.16483 4.20386 0
M  V30 13000 O 1200.67 3.90197 4.14409 0
M  V30 13001 N 1201.87 2.3899 5.29022 0
M  V30 13002 H 1204.63 2.73102 1.23431 0
M  V30 13003 H 1202.19 1.52928 0.531483 0
M  V30 13004 H 1204.19 1.84118 3.60392 0
M  V30 13005 H 1202.76 0.993169 2.96403 0
M  V30 13006 H 1201.98 3.32835 2.11221 0
M  V30 13007 H 1203.26 4.02733 3.1094 0
M  V30 13008 H 1202.66 1.78657 5.36748 0
M  V30 13009 H 1201.22 2.41957 6.05227 0
M  V30 13010 N 1204.65 -0.602709 1.4562 0
M  V30 13011 C 1205.58 -1.72374 1.5751 0
M  V30 13012 C 1206.56 -1.64669 0.426389 0
M  V30 13013 O 1207.75 -1.82994 0.650143 0
M  V30 13014 C 1204.88 -3.10987 1.5461 0
M  V30 13015 C 1203.83 -3.33507 2.68248 0
M  V30 13016 C 1203.16 -4.72443 2.50403 0
M  V30 13017 C 1204.46 -3.23285 4.10224 0
M  V30 13018 H 1206.15 -1.62679 2.51348 0
M  V30 13019 H 1203.7 -0.781217 1.20967 0
M  V30 13020 H 1205.65 -3.89214 1.61525 0
M  V30 13021 H 1204.37 -3.21533 0.573049 0
M  V30 13022 H 1203.03 -2.57672 2.60769 0
M  V30 13023 H 1202.68 -4.79729 1.51226 0
M  V30 13024 H 1202.38 -4.88466 3.26611 0
M  V30 13025 H 1203.91 -5.52864 2.59179 0
M  V30 13026 H 1205.32 -3.91381 4.1892 0
M  V30 13027 H 1203.72 -3.50837 4.86861 0
M  V30 13028 H 1204.79 -2.20652 4.31788 0
M  V30 13029 N 1206.13 -1.32992 -0.845635 0
M  V30 13030 C 1207.06 -1.18513 -1.96182 0
M  V30 13031 C 1208.07 -0.11781 -1.62373 0
M  V30 13032 O 1209.26 -0.36761 -1.74674 0
M  V30 13033 C 1206.36 -0.793812 -3.29472 0
M  V30 13034 C 1205.54 -1.95134 -3.91461 0
M  V30 13035 C 1204.6 -1.54209 -5.03096 0
M  V30 13036 O 1203.62 -2.25545 -5.22607 0
M  V30 13037 N 1204.82 -0.443235 -5.78805 0
M  V30 13038 H 1207.59 -2.14663 -2.09141 0
M  V30 13039 H 1205.15 -1.25648 -1.02099 0
M  V30 13040 H 1207.14 -0.502263 -4.01571 0
M  V30 13041 H 1205.71 0.0768031 -3.12506 0
M  V30 13042 H 1204.93 -2.40889 -3.12035 0
M  V30 13043 H 1206.22 -2.72604 -4.2961 0
M  V30 13044 H 1205.62 0.150298 -5.655 0
M  V30 13045 H 1204.17 -0.211331 -6.51457 0
M  V30 13046 N 1207.61 1.06304 -1.1635 0
M  V30 13047 C 1208.88 1.75916 -0.855166 0
M  V30 13048 C 1209.26 2.0094 0.647024 0
M  V30 13049 O 1208.61 1.63642 1.59479 0
M  V30 13050 C 1208.82 3.06028 -1.67774 0
M  V30 13051 C 1210.17 3.80184 -1.89065 0
M  V30 13052 O 1211.19 3.15868 -1.64639 0
M  V30 13053 O 1210.05 4.95723 -2.30045 0
M  V30 13054 H 1207.15 0.764432 -0.315551 0
M  V30 13055 H 1209.69 1.12574 -1.26985 0
M  V30 13056 H 1208.47 2.83498 -2.69712 0
M  V30 13057 H 1208.09 3.77104 -1.26009 0
M  V30 13058 N 1209.09 0.96196 1.24836 0
M  V30 13059 C 1210.31 0.63814 1.96813 0
M  V30 13060 C 1210.73 -0.79127 1.71419 0
M  V30 13061 O 1210.09 -1.5302 0.994546 0
M  V30 13062 C 1210.14 0.89626 3.50213 0
M  V30 13063 O 1209.86 2.26947 3.74735 0
M  V30 13064 C 1211.36 0.585836 4.39412 0
M  V30 13065 H 1208.58 0.238598 0.627146 0
M  V30 13066 H 1211.12 1.28833 1.58815 0
M  V30 13067 H 1209.28 0.292368 3.86295 0
M  V30 13068 H 1209.69 2.34514 4.69152 0
M  V30 13069 H 1211.17 0.816935 5.45921 0
M  V30 13070 H 1211.64 -0.479784 4.36572 0
M  V30 13071 H 1212.25 1.16938 4.08908 0
M  V30 13072 N 1210.56 -1.39601 0.731392 0
M  V30 13073 C 1211.97 -1.83424 0.348194 0
M  V30 13074 C 1212.33 -1.61106 -1.11979 0
M  V30 13075 O 1211.45 -1.1003 -1.86339 0
M  V30 13076 C 1212.05 -3.32982 0.6252 0
M  V30 13077 C 1210.6 -3.75238 0.295536 0
M  V30 13078 C 1209.75 -2.62642 0.88964 0
M  V30 13079 H 1212.7 -1.28644 0.929318 0
M  V30 13080 H 1212.72 -3.80357 -0.104254 0
M  V30 13081 H 1212.24 -3.49193 1.69368 0
M  V30 13082 H 1210.34 -3.64615 -0.767254 0
M  V30 13083 H 1210.45 -4.72781 0.775576 0
M  V30 13084 H 1208.81 -2.52726 0.316529 0
M  V30 13085 H 1209.6 -2.81661 1.96271 0
M  V30 13086 N 1212.04 -0.478751 -1.50152 0
M  V30 13087 C 1212.95 0.316554 -2.32455 0
M  V30 13088 C 1213.97 0.98871 -1.4318 0
M  V30 13089 O 1215.14 0.974998 -1.76226 0
M  V30 13090 C 1212.21 1.3799 -3.18056 0
M  V30 13091 C 1211.27 0.723534 -4.23159 0
M  V30 13092 C 1210.5 1.73621 -5.0467 0
M  V30 13093 O 1210.73 2.96362 -4.87366 0
M  V30 13094 O 1209.66 1.30381 -5.87609 0
M  V30 13095 H 1213.49 -0.356491 -3.016 0
M  V30 13096 H 1211.07 -0.24046 -1.47452 0
M  V30 13097 H 1212.95 1.99565 -3.71149 0
M  V30 13098 H 1211.63 2.03627 -2.5163 0
M  V30 13099 H 1210.54 0.0686296 -3.74037 0
M  V30 13100 H 1211.87 0.109979 -4.92077 0
M  V30 13101 N 1213.52 1.56172 -0.211661 0
M  V30 13102 C 1214.47 2.19849 0.702515 0
M  V30 13103 C 1215.44 1.15091 1.19763 0
M  V30 13104 O 1216.62 1.43408 1.25852 0
M  V30 13105 C 1213.76 2.87468 1.90935 0
M  V30 13106 C 1212.88 4.06794 1.45406 0
M  V30 13107 C 1212.01 4.62224 2.61769 0
M  V30 13108 C 1211.05 5.73872 2.12926 0
M  V30 13109 N 1210.19 6.23635 3.22526 0
M  V30 13110 H 1215.03 2.97608 0.152777 0
M  V30 13111 H 1212.56 1.46962 0.0636596 0
M  V30 13112 H 1214.52 3.24851 2.61777 0
M  V30 13113 H 1213.15 2.12244 2.43213 0
M  V30 13114 H 1212.2 3.74962 0.640907 0
M  V30 13115 H 1213.52 4.87497 1.05584 0
M  V30 13116 H 1212.67 5.01999 3.40709 0
M  V30 13117 H 1211.41 3.80662 3.04873 0
M  V30 13118 H 1210.41 5.33609 1.32445 0
M  V30 13119 H 1211.64 6.57262 1.70833 0
M  V30 13120 H 1209.58 5.44991 3.65131 0
M  V30 13121 H 1209.5 6.99435 2.86926 0
M  V30 13122 H 1210.77 6.68066 4.01631 0
M  V30 13123 N 1215 -0.0618163 1.57479 0
M  V30 13124 C 1216.23 -0.771724 1.91969 0
M  V30 13125 C 1216.64 -1.7061 0.808549 0
M  V30 13126 O 1216 -1.812 -0.217455 0
M  V30 13127 C 1216.05 -1.55687 3.26257 0
M  V30 13128 O 1215.77 -0.660032 4.331 0
M  V30 13129 C 1217.27 -2.36688 3.74825 0
M  V30 13130 H 1214.49 -0.21885 0.634307 0
M  V30 13131 H 1217.04 -0.0291068 2.04479 0
M  V30 13132 H 1215.19 -2.25167 3.15244 0
M  V30 13133 H 1215.6 -1.20715 5.1042 0
M  V30 13134 H 1217.08 -2.8722 4.7139 0
M  V30 13135 H 1217.56 -3.1666 3.0434 0
M  V30 13136 H 1218.16 -1.72346 3.88815 0
M  V30 13137 N 1216.48 -1.54033 -0.333429 0
M  V30 13138 C 1217.7 -1.75716 -1.09232 0
M  V30 13139 C 1218.12 -0.501076 -1.82029 0
M  V30 13140 O 1217.48 0.527772 -1.74702 0
M  V30 13141 C 1217.53 -2.9439 -2.09802 0
M  V30 13142 O 1217.25 -4.15141 -1.39963 0
M  V30 13143 C 1218.75 -3.28206 -2.97987 0
M  V30 13144 H 1215.97 -0.586859 -0.325326 0
M  V30 13145 H 1218.51 -2.0089 -0.382555 0
M  V30 13146 H 1216.67 -2.71518 -2.76327 0
M  V30 13147 H 1217.08 -4.81826 -2.0723 0
M  V30 13148 H 1218.56 -4.14568 -3.64469 0
M  V30 13149 H 1219.03 -2.44944 -3.64553 0
M  V30 13150 H 1219.64 -3.5312 -2.37036 0
M  V30 13151 N 1217.95 0.594978 -1.45938 0
M  V30 13152 C 1219.18 1.37794 -1.53936 0
M  V30 13153 C 1219.59 1.88388 -0.175091 0
M  V30 13154 O 1218.94 1.63587 0.835757 0
M  V30 13155 C 1219 2.60906 -2.47322 0
M  V30 13156 C 1218.66 2.31865 -3.93812 0
M  V30 13157 C 1219.66 1.91451 -4.83366 0
M  V30 13158 C 1217.34 2.44387 -4.3884 0
M  V30 13159 C 1219.34 1.63938 -6.15957 0
M  V30 13160 C 1217.02 2.16487 -5.71469 0
M  V30 13161 C 1218.02 1.76326 -6.59847 0
M  V30 13162 O 1217.71 1.4876 -7.90016 0
M  V30 13163 H 1217.44 0.42775 -0.523456 0
M  V30 13164 H 1220 0.731487 -1.91933 0
M  V30 13165 H 1218.23 3.28315 -2.04319 0
M  V30 13166 H 1219.92 3.22964 -2.45863 0
M  V30 13167 H 1220.68 1.81301 -4.49839 0
M  V30 13168 H 1216.56 2.74612 -3.70283 0
M  V30 13169 H 1220.1 1.32516 -6.84898 0
M  V30 13170 H 1216 2.26257 -6.04548 0
M  V30 13171 H 1216.77 1.62708 -8.02165 0
M  V30 13172 N 1219.43 1.33438 0.838571 0
M  V30 13173 C 1220.68 1.24259 1.58879 0
M  V30 13174 C 1220.99 -0.189957 1.94675 0
M  V30 13175 O 1222.2 -0.40376 2.68481 0
M  V30 13176 C 1220.66 2.1773 2.86569 0
M  V30 13177 C 1220.26 3.66156 2.58135 0
M  V30 13178 C 1222.01 2.17424 3.64591 0
M  V30 13179 C 1219.92 4.5154 3.81923 0
M  V30 13180 H 1218.85 0.461534 0.59624 0
M  V30 13181 H 1221.5 1.58504 0.924588 0
M  V30 13182 H 1219.88 1.76418 3.54532 0
M  V30 13183 H 1221.05 4.1591 1.98382 0
M  V30 13184 H 1219.37 3.68754 1.93416 0
M  V30 13185 H 1221.96 2.78446 4.56478 0
M  V30 13186 H 1222.31 1.16939 3.99539 0
M  V30 13187 H 1222.84 2.571 3.03553 0
M  V30 13188 H 1219.58 5.52902 3.52107 0
M  V30 13189 H 1219.1 4.06529 4.41015 0
M  V30 13190 H 1220.78 4.65359 4.495 0
M  V30 13191 N 1220.91 -1.05686 1.16912 0
M  V30 13192 C 1221.86 -2.13312 0.88129 0
M  V30 13193 C 1222.83 -1.65199 -0.172783 0
M  V30 13194 O 1224.01 -1.90765 -0.0366542 0
M  V30 13195 C 1221.15 -3.42829 0.395264 0
M  V30 13196 C 1220.27 -4.04643 1.51288 0
M  V30 13197 C 1219.4 -5.22059 0.981238 0
M  V30 13198 C 1218.44 -5.75869 2.07464 0
M  V30 13199 N 1217.58 -6.84592 1.55813 0
M  V30 13200 H 1222.42 -2.37271 1.80295 0
M  V30 13201 H 1219.95 -1.16407 0.899322 0
M  V30 13202 H 1221.91 -4.17092 0.0950633 0
M  V30 13203 H 1220.54 -3.19068 -0.489445 0
M  V30 13204 H 1219.59 -3.27867 1.92891 0
M  V30 13205 H 1220.91 -4.40626 2.33774 0
M  V30 13206 H 1220.06 -6.03372 0.634586 0
M  V30 13207 H 1218.8 -4.87538 0.125754 0
M  V30 13208 H 1217.8 -4.93188 2.42992 0
M  V30 13209 H 1219.03 -6.12439 2.93419 0
M  V30 13210 H 1216.97 -6.51978 0.725283 0
M  V30 13211 H 1216.89 -7.19551 2.31911 0
M  V30 13212 H 1218.16 -7.6957 1.24025 0
M  V30 13213 N 1222.39 -0.968567 -1.24324 0
M  V30 13214 C 1223.32 -0.457247 -2.24593 0
M  V30 13215 C 1224.33 0.434483 -1.56895 0
M  V30 13216 O 1225.52 0.240519 -1.76872 0
M  V30 13217 C 1222.62 0.359086 -3.36992 0
M  V30 13218 C 1221.8 -0.522945 -4.34263 0
M  V30 13219 C 1220.85 0.237528 -5.25664 0
M  V30 13220 O 1219.88 -0.368835 -5.68004 0
M  V30 13221 N 1221.08 1.52686 -5.6006 0
M  V30 13222 H 1223.85 -1.31934 -2.69098 0
M  V30 13223 H 1221.41 -0.840488 -1.38374 0
M  V30 13224 H 1223.4 0.87589 -3.95108 0
M  V30 13225 H 1221.97 1.12212 -2.91766 0
M  V30 13226 H 1221.19 -1.22071 -3.74823 0
M  V30 13227 H 1222.48 -1.12447 -4.96219 0
M  V30 13228 H 1221.88 2.0412 -5.2759 0
M  V30 13229 H 1220.43 1.98934 -6.207 0
M  V30 13230 N 1223.87 1.39211 -0.738786 0
M  V30 13231 C 1224.81 2.32424 -0.0904601 0
M  V30 13232 C 1225.81 1.53258 0.721694 0
M  V30 13233 O 1227.01 1.68895 0.622454 0
M  V30 13234 H 1223.39 0.751927 -0.010453 0
M  V30 13235 H 1225.36 2.84726 -0.892945 0
M  V30 13236 C 1224.11 3.38377 0.799783 0
M  V30 13237 H 1223.43 3.99375 0.18424 0
M  V30 13238 H 1224.87 4.0604 1.22096 0
M  V30 13239 C 1223.33 2.75734 1.93578 0
M  V30 13240 O 1223.86 2.63876 3.02874 0
M  V30 13241 N 1222.07 2.33764 1.72634 0
M  V30 13242 H 1221.61 2.43609 0.837413 0
M  V30 13243 H 1221.57 1.92191 2.48817 0
M  V30 13244 N 1225.34 0.486708 1.49896 0
M  V30 13245 C 1226.29 -0.318255 2.25768 0
M  V30 13246 C 1227.28 -0.94799 1.30008 0
M  V30 13247 O 1228.47 -0.857954 1.54816 0
M  V30 13248 C 1225.6 -1.39057 3.13876 0
M  V30 13249 C 1224.69 -0.767787 4.17092 0
M  V30 13250 N 1225.08 0.121163 5.05655 0
M  V30 13251 C 1223.37 -1.02999 4.33944 0
M  V30 13252 C 1224.08 0.47621 5.79747 0
M  V30 13253 N 1223.05 -0.152422 5.43386 0
M  V30 13254 H 1226.85 0.366294 2.91608 0
M  V30 13255 H 1224.37 0.301852 1.5957 0
M  V30 13256 H 1226.36 -1.98056 3.6685 0
M  V30 13257 H 1225.02 -2.07694 2.49586 0
M  V30 13258 H 1226.04 0.491043 5.15567 0
M  V30 13259 H 1222.71 -1.71018 3.80866 0
M  V30 13260 H 1224.1 1.20262 6.6105 0
M  V30 13261 N 1226.82 -1.56058 0.219941 0
M  V30 13262 C 1228.05 -2.02358 -0.416497 0
M  V30 13263 C 1228.46 -1.09903 -1.54007 0
M  V30 13264 O 1227.8 -0.100635 -1.83424 0
M  V30 13265 C 1227.87 -3.45 -1.01072 0
M  V30 13266 C 1227.53 -4.56994 -0.0227891 0
M  V30 13267 C 1228.53 -5.14061 0.776997 0
M  V30 13268 C 1226.21 -5.02209 0.0954981 0
M  V30 13269 C 1228.21 -6.14813 1.68179 0
M  V30 13270 C 1225.89 -6.02799 1.00383 0
M  V30 13271 C 1226.89 -6.58977 1.79552 0
M  V30 13272 O 1226.58 -7.57608 2.68858 0
M  V30 13273 H 1226.31 -0.667581 -0.106355 0
M  V30 13274 H 1228.87 -2.02677 0.333348 0
M  V30 13275 H 1227.1 -3.41745 -1.80962 0
M  V30 13276 H 1228.78 -3.74958 -1.55439 0
M  V30 13277 H 1229.55 -4.79979 0.696053 0
M  V30 13278 H 1225.43 -4.58164 -0.510599 0
M  V30 13279 H 1228.97 -6.58588 2.30017 0
M  V30 13280 H 1224.87 -6.36302 1.08579 0
M  V30 13281 H 1225.64 -7.75124 2.62915 0
M  V30 13282 N 1228.3 0.053464 -1.57509 0
M  V30 13283 C 1229.23 1.08863 -2.01696 0
M  V30 13284 C 1230.25 1.33916 -0.925765 0
M  V30 13285 O 1231.44 1.31833 -1.20343 0
M  V30 13286 C 1228.54 2.43567 -2.35644 0
M  V30 13287 C 1227.71 2.38215 -3.66841 0
M  V30 13288 C 1226.77 3.55172 -3.88252 0
M  V30 13289 O 1225.79 3.35769 -4.59617 0
M  V30 13290 N 1227 4.76182 -3.3201 0
M  V30 13291 H 1229.76 0.712192 -2.91115 0
M  V30 13292 H 1227.32 0.241829 -1.60084 0
M  V30 13293 H 1229.31 3.20486 -2.47125 0
M  V30 13294 H 1227.88 2.73145 -1.52022 0
M  V30 13295 H 1227.1 1.46557 -3.65943 0
M  V30 13296 H 1228.39 2.31757 -4.52953 0
M  V30 13297 H 1227.79 4.94849 -2.74118 0
M  V30 13298 H 1226.35 5.5055 -3.4891 0
M  V30 13299 N 1229.78 1.54207 0.325255 0
M  V30 13300 C 1230.69 1.86495 1.42326 0
M  V30 13301 C 1231.71 0.756718 1.56684 0
M  V30 13302 O 1232.88 1.05084 1.71812 0
M  V30 13303 C 1229.95 2.08414 2.77064 0
M  V30 13304 C 1229.01 3.32221 2.71897 0
M  V30 13305 C 1228.24 3.53085 4.00209 0
M  V30 13306 O 1228.46 2.77421 4.98391 0
M  V30 13307 O 1227.4 4.46559 4.0357 0
M  V30 13308 H 1231.22 2.79859 1.17951 0
M  V30 13309 H 1228.81 1.40091 0.519124 0
M  V30 13310 H 1230.69 2.24171 3.56827 0
M  V30 13311 H 1229.37 1.18238 3.01333 0
M  V30 13312 H 1228.27 3.21851 1.90691 0
M  V30 13313 H 1229.61 4.22449 2.52582 0
M  V30 13314 N 1231.26 -0.58723 1.46251 0
M  V30 13315 C 1232.19 -1.70694 1.5933 0
M  V30 13316 C 1233.17 -1.64208 0.443831 0
M  V30 13317 O 1234.35 -1.82294 0.669516 0
M  V30 13318 C 1231.48 -3.0933 1.579 0
M  V30 13319 C 1230.44 -3.30643 2.7177 0
M  V30 13320 C 1229.76 -4.69761 2.554 0
M  V30 13321 C 1231.06 -3.18916 4.1363 0
M  V30 13322 H 1232.76 -1.60004 2.53059 0
M  V30 13323 H 1230.3 -0.768343 1.21789 0
M  V30 13324 H 1232.26 -3.87479 1.65644 0
M  V30 13325 H 1230.98 -3.20907 0.60712 0
M  V30 13326 H 1229.64 -2.54892 2.63488 0
M  V30 13327 H 1229.29 -4.78098 1.56306 0
M  V30 13328 H 1228.99 -4.84974 3.31774 0
M  V30 13329 H 1230.51 -5.50084 2.65028 0
M  V30 13330 H 1231.93 -3.86915 4.23048 0
M  V30 13331 H 1230.32 -3.45653 4.90555 0
M  V30 13332 H 1231.39 -2.1606 4.34104 0
M  V30 13333 N 1232.74 -1.33881 -0.831482 0
M  V30 13334 C 1233.68 -1.24741 -1.96322 0
M  V30 13335 C 1234.68 -0.147251 -1.68759 0
M  V30 13336 O 1235.88 -0.311684 -1.77281 0
M  V30 13337 H 1232.26 -0.387298 -0.644596 0
M  V30 13338 H 1234.23 -2.20407 -2.01155 0
M  V30 13339 C 1232.98 -1.01102 -3.32677 0
M  V30 13340 H 1232.3 -1.84986 -3.54429 0
M  V30 13341 H 1233.74 -0.987398 -4.12343 0
M  V30 13342 C 1232.2 0.285903 -3.35685 0
M  V30 13343 O 1232.73 1.29014 -3.80419 0
M  V30 13344 N 1230.94 0.316026 -2.88877 0
M  V30 13345 H 1230.48 -0.501758 -2.52666 0
M  V30 13346 H 1230.44 1.18357 -2.91271 0
M  V30 13347 N 1234.21 1.05064 -1.1747 0
M  V30 13348 C 1235.49 1.74999 -0.873776 0
M  V30 13349 C 1235.87 2.01615 0.625676 0
M  V30 13350 O 1235.22 1.65324 1.57734 0
M  V30 13351 C 1235.43 3.04231 -1.7101 0
M  V30 13352 C 1236.78 3.78157 -1.93087 0
M  V30 13353 O 1237.8 3.14104 -1.6798 0
M  V30 13354 O 1236.66 4.93255 -2.3529 0
M  V30 13355 H 1233.75 0.761042 -0.323641 0
M  V30 13356 H 1236.3 1.1122 -1.28172 0
M  V30 13357 H 1235.07 2.80621 -2.72704 0
M  V30 13358 H 1234.69 3.75746 -1.30002 0
M  V30 13359 N 1235.69 0.975146 1.23809 0
M  V30 13360 C 1236.94 0.636678 1.91388 0
M  V30 13361 C 1237.25 -0.832876 1.76982 0
M  V30 13362 O 1238.46 -1.28218 2.39316 0
M  V30 13363 C 1236.92 1.08813 3.43057 0
M  V30 13364 C 1236.52 2.58165 3.66135 0
M  V30 13365 C 1238.27 0.823154 4.16443 0
M  V30 13366 C 1236.17 2.97004 5.11412 0
M  V30 13367 H 1235.1 0.234424 0.716632 0
M  V30 13368 H 1237.76 1.18235 1.40331 0
M  V30 13369 H 1236.14 0.470709 3.93192 0
M  V30 13370 H 1237.31 3.25101 3.26567 0
M  V30 13371 H 1235.63 2.82353 3.06049 0
M  V30 13372 H 1238.22 1.08925 5.23488 0
M  V30 13373 H 1238.57 -0.240705 4.15604 0
M  V30 13374 H 1239.1 1.4019 3.72279 0
M  V30 13375 H 1235.84 4.02492 5.17378 0
M  V30 13376 H 1235.36 2.34759 5.51949 0
M  V30 13377 H 1237.04 2.8732 5.79704 0
M  V30 13378 N 1237.17 -1.38817 0.746158 0
M  V30 13379 C 1238.1 -2.33144 0.128836 0
M  V30 13380 C 1239.08 -1.54487 -0.711873 0
M  V30 13381 O 1240.27 -1.82836 -0.654577 0
M  V30 13382 C 1237.4 -3.38639 -0.770772 0
M  V30 13383 C 1236.35 -4.27987 -0.0333669 0
M  V30 13384 C 1235.68 -5.24274 -1.05073 0
M  V30 13385 C 1236.98 -5.09915 1.13066 0
M  V30 13386 H 1238.67 -2.85019 0.916778 0
M  V30 13387 H 1236.22 -1.37039 0.442306 0
M  V30 13388 H 1238.17 -4.03587 -1.21225 0
M  V30 13389 H 1236.89 -2.8523 -1.59095 0
M  V30 13390 H 1235.55 -3.64534 0.388612 0
M  V30 13391 H 1235.2 -4.67156 -1.86478 0
M  V30 13392 H 1234.9 -5.84906 -0.562037 0
M  V30 13393 H 1236.42 -5.92099 -1.49169 0
M  V30 13394 H 1237.84 -5.68145 0.767084 0
M  V30 13395 H 1236.23 -5.79744 1.54972 0
M  V30 13396 H 1237.3 -4.4409 1.94709 0
M  V30 13397 N 1238.65 -0.49465 -1.49636 0
M  V30 13398 C 1239.6 0.300929 -2.30645 0
M  V30 13399 C 1240.59 0.968687 -1.38971 0
M  V30 13400 O 1241.8 0.897101 -1.56052 0
M  V30 13401 H 1238.17 0.1159 -0.743015 0
M  V30 13402 H 1240.14 -0.402387 -2.95674 0
M  V30 13403 C 1238.89 1.35638 -3.20153 0
M  V30 13404 H 1238.21 0.851946 -3.90617 0
M  V30 13405 H 1239.65 1.88515 -3.79787 0
M  V30 13406 C 1238.11 2.37112 -2.39331 0
M  V30 13407 O 1238.64 3.42867 -2.09298 0
M  V30 13408 N 1236.85 2.09421 -2.01473 0
M  V30 13409 H 1236.4 1.23441 -2.26097 0
M  V30 13410 H 1236.35 2.77545 -1.47703 0
M  V30 13411 N 1240.13 1.55939 -0.228214 0
M  V30 13412 C 1241.06 2.2357 0.6737 0
M  V30 13413 C 1242.04 1.20964 1.1959 0
M  V30 13414 O 1243.22 1.49568 1.23867 0
M  V30 13415 C 1240.35 2.92076 1.87906 0
M  V30 13416 C 1239.31 4.01211 1.49043 0
M  V30 13417 C 1238.63 4.57047 2.77511 0
M  V30 13418 C 1239.93 5.17914 0.67544 0
M  V30 13419 H 1241.63 2.99199 0.109806 0
M  V30 13420 H 1239.17 1.43908 0.0513732 0
M  V30 13421 H 1241.12 3.38083 2.51551 0
M  V30 13422 H 1239.85 2.13906 2.46803 0
M  V30 13423 H 1238.51 3.55945 0.877411 0
M  V30 13424 H 1238.16 3.75599 3.34566 0
M  V30 13425 H 1237.86 5.30707 2.52239 0
M  V30 13426 H 1239.38 5.05776 3.42087 0
M  V30 13427 H 1240.79 5.60261 1.21575 0
M  V30 13428 H 1239.19 5.97847 0.519536 0
M  V30 13429 H 1240.26 4.83866 -0.316495 0
M  V30 13430 N 1241.6 -0.0451101 1.57535 0
M  V30 13431 C 1242.85 -0.737654 1.88157 0
M  V30 13432 C 1243.17 -1.76743 0.823817 0
M  V30 13433 O 1242.44 -1.95366 -0.144503 0
M  V30 13434 H 1241.02 -0.275431 0.694368 0
M  V30 13435 H 1243.69 -0.0148651 1.94894 0
M  V30 13436 H 1242.78 -1.23726 2.86528 0
M  V30 13437 N 1243.08 -1.54377 -0.317073 0
M  V30 13438 C 1244.03 -1.84948 -1.41057 0
M  V30 13439 C 1245.02 -0.721887 -1.53249 0
M  V30 13440 O 1246.23 -0.905648 -1.55557 0
M  V30 13441 H 1242.61 -0.586353 -0.470844 0
M  V30 13442 H 1244.58 -2.7638 -1.12501 0
M  V30 13443 C 1243.33 -2.09932 -2.77171 0
M  V30 13444 H 1242.65 -2.96162 -2.68566 0
M  V30 13445 H 1244.09 -2.35272 -3.52737 0
M  V30 13446 C 1242.55 -0.892855 -3.24853 0
M  V30 13447 O 1243.08 -0.105336 -4.01562 0
M  V30 13448 N 1241.28 -0.702685 -2.81976 0
M  V30 13449 H 1240.83 -1.34474 -2.19715 0
M  V30 13450 H 1240.79 0.103024 -3.14231 0
M  V30 13451 N 1244.56 0.579466 -1.4656 0
M  V30 13452 C 1245.81 1.33756 -1.52038 0
M  V30 13453 C 1246.14 1.93725 -0.173423 0
M  V30 13454 O 1245.39 1.77167 0.831293 0
M  V30 13455 C 1245.69 2.48417 -2.56951 0
M  V30 13456 C 1245.36 2.0642 -4.00876 0
M  V30 13457 C 1244.02 1.94682 -4.4006 0
M  V30 13458 C 1246.37 1.74066 -4.91274 0
M  V30 13459 C 1243.7 1.48852 -5.67503 0
M  V30 13460 C 1246.05 1.29714 -6.19158 0
M  V30 13461 C 1244.71 1.16555 -6.57245 0
M  V30 13462 H 1243.98 0.489447 -0.556347 0
M  V30 13463 H 1246.63 0.652176 -1.80053 0
M  V30 13464 H 1244.94 3.22416 -2.2261 0
M  V30 13465 H 1246.63 3.06629 -2.58418 0
M  V30 13466 H 1243.22 2.16492 -3.69904 0
M  V30 13467 H 1247.41 1.82019 -4.61717 0
M  V30 13468 H 1242.66 1.3731 -5.95782 0
M  V30 13469 H 1246.84 1.03734 -6.88631 0
M  V30 13470 H 1244.46 0.808193 -7.55892 0
M  V30 13471 N 1246.04 1.3432 0.824371 0
M  V30 13472 C 1247.27 1.29669 1.61226 0
M  V30 13473 C 1247.68 -0.129532 1.88355 0
M  V30 13474 O 1247.04 -1.07616 1.47394 0
M  V30 13475 C 1247.09 2.08375 2.95402 0
M  V30 13476 O 1246.81 3.45434 2.69456 0
M  V30 13477 C 1248.31 2.11103 3.89808 0
M  V30 13478 H 1245.53 0.446137 0.501201 0
M  V30 13479 H 1248.08 1.76912 1.02579 0
M  V30 13480 H 1246.23 1.64777 3.5061 0
M  V30 13481 H 1246.64 3.86101 3.55001 0
M  V30 13482 H 1248.12 2.706 4.81124 0
M  V30 13483 H 1248.6 1.10505 4.25071 0
M  V30 13484 H 1249.2 2.54784 3.40537 0
M  V30 13485 N 1247.52 -1.0444 1.18026 0
M  V30 13486 C 1248.43 -2.15862 0.918747 0
M  V30 13487 C 1249.44 -1.73614 -0.115808 0
M  V30 13488 O 1250.62 -2.01294 0.0652312 0
M  V30 13489 C 1247.68 -3.43846 0.443922 0
M  V30 13490 C 1246.74 -4.00497 1.54599 0
M  V30 13491 C 1245.98 -5.22373 1.09372 0
M  V30 13492 O 1246.2 -5.70379 -0.049085 0
M  V30 13493 O 1245.13 -5.71459 1.88992 0
M  V30 13494 H 1248.96 -2.40776 1.85097 0
M  V30 13495 H 1246.55 -1.14326 0.961769 0
M  V30 13496 H 1248.43 -4.20985 0.187017 0
M  V30 13497 H 1247.1 -3.20414 -0.460051 0
M  V30 13498 H 1246.01 -3.24764 1.85686 0
M  V30 13499 H 1247.34 -4.28262 2.42595 0
M  V30 13500 N 1248.99 -0.981699 -1.2329 0
M  V30 13501 C 1250.22 -0.669025 -1.96313 0
M  V30 13502 C 1250.64 0.757624 -1.72168 0
M  V30 13503 O 1250 1.51626 -0.993942 0
M  V30 13504 C 1250.05 -0.966875 -3.47396 0
M  V30 13505 O 1249.15 -0.0595933 -4.12357 0
M  V30 13506 H 1248.5 -0.251493 -0.61453 0
M  V30 13507 H 1251.03 -1.31564 -1.56691 0
M  V30 13508 H 1251.04 -0.904112 -3.97857 0
M  V30 13509 H 1249.71 -2.00651 -3.64296 0
M  V30 13510 H 1248.29 -0.176878 -3.7248 0
M  V30 13511 N 1250.47 1.3842 -0.753509 0
M  V30 13512 C 1251.7 2.04403 -0.320449 0
M  V30 13513 C 1252.12 1.5683 1.05118 0
M  V30 13514 O 1251.47 0.741335 1.66765 0
M  V30 13515 C 1251.52 3.59954 -0.333937 0
M  V30 13516 O 1251.24 4.05782 -1.65144 0
M  V30 13517 C 1252.75 4.43156 0.112997 0
M  V30 13518 H 1249.97 0.656881 -0.136927 0
M  V30 13519 H 1252.51 1.77112 -1.02234 0
M  V30 13520 H 1250.66 3.86083 0.319215 0
M  V30 13521 H 1251.08 5.00213 -1.57757 0
M  V30 13522 H 1252.55 5.51975 0.0523995 0
M  V30 13523 H 1253.03 4.23581 1.16087 0
M  V30 13524 H 1253.64 4.22216 -0.511278 0
M  V30 13525 N 1251.95 0.502579 1.49372 0
M  V30 13526 C 1253.23 -0.104472 1.95321 0
M  V30 13527 C 1253.61 -1.53975 1.44412 0
M  V30 13528 O 1252.96 -2.18804 0.658566 0
M  V30 13529 C 1253.17 -0.0154833 3.48997 0
M  V30 13530 C 1254.51 -0.188615 4.24181 0
M  V30 13531 O 1255.54 -0.090595 3.56085 0
M  V30 13532 O 1254.4 -0.390068 5.45106 0
M  V30 13533 H 1251.49 -0.0944325 0.821591 0
M  V30 13534 H 1254.04 0.565229 1.6001 0
M  V30 13535 H 1252.81 0.985383 3.7869 0
M  V30 13536 H 1252.43 -0.72526 3.90929 0
M  V30 13537 N 1253.43 -1.55816 0.23648 0
M  V30 13538 C 1254.68 -1.98294 -0.390373 0
M  V30 13539 C 1255 -1.12573 -1.59224 0
M  V30 13540 O 1254.27 -0.206128 -1.94813 0
M  V30 13541 H 1252.85 -0.732349 -0.14722 0
M  V30 13542 H 1255.51 -1.92037 0.332848 0
M  V30 13543 H 1254.61 -3.03996 -0.706595 0
M  V30 13544 N 1254.91 0.036755 -1.57557 0
M  V30 13545 C 1256.15 0.727665 -1.88546 0
M  V30 13546 C 1256.48 1.76304 -0.833179 0
M  V30 13547 O 1255.75 1.9544 0.13414 0
M  V30 13548 H 1254.33 0.271744 -0.695819 0
M  V30 13549 H 1256.99 0.00452915 -1.94899 0
M  V30 13550 H 1256.08 1.22205 -2.8718 0
M  V30 13551 N 1256.39 1.54543 0.308881 0
M  V30 13552 C 1257.33 1.84949 1.38067 0
M  V30 13553 C 1258.3 0.697746 1.50734 0
M  V30 13554 O 1259.49 0.94561 1.65719 0
M  V30 13555 C 1256.63 2.09544 2.74199 0
M  V30 13556 C 1255.74 3.37193 2.70046 0
M  V30 13557 C 1254.88 3.51672 3.98121 0
M  V30 13558 C 1253.91 4.73143 3.88333 0
M  V30 13559 N 1253.05 4.84469 5.08167 0
M  V30 13560 H 1257.89 2.76379 1.11438 0
M  V30 13561 H 1255.43 1.36863 0.539153 0
M  V30 13562 H 1257.39 2.21798 3.53358 0
M  V30 13563 H 1256.02 1.21389 2.99106 0
M  V30 13564 H 1255.07 3.33601 1.82796 0
M  V30 13565 H 1256.38 4.26468 2.58701 0
M  V30 13566 H 1255.53 3.63548 4.85714 0
M  V30 13567 H 1254.27 2.60516 4.1229 0
M  V30 13568 H 1253.28 4.61308 2.99124 0
M  V30 13569 H 1254.5 5.65698 3.75716 0
M  V30 13570 H 1252.45 3.96234 5.22814 0
M  V30 13571 H 1252.37 5.67733 4.99215 0
M  V30 13572 H 1253.63 5.00693 5.97434 0
M  V30 13573 N 1257.86 -0.571685 1.46866 0
M  V30 13574 C 1258.83 -1.66198 1.57832 0
M  V30 13575 C 1259.83 -1.54242 0.454547 0
M  V30 13576 O 1261.02 -1.58661 0.719191 0
M  V30 13577 C 1258.15 -3.05678 1.5091 0
M  V30 13578 H 1259.34 -1.57829 2.5501 0
M  V30 13579 H 1256.89 -0.790433 1.3484 0
M  V30 13580 H 1257.63 -3.19593 0.550529 0
M  V30 13581 H 1257.41 -3.15765 2.32454 0
M  V30 13582 H 1258.9 -3.85027 1.61692 0
M  V30 13583 N 1259.34 -1.34755 -0.817236 0
M  V30 13584 C 1260.59 -1.26771 -1.56882 0
M  V30 13585 C 1260.9 0.158962 -1.94953 0
M  V30 13586 O 1262.11 0.360996 -2.69089 0
M  V30 13587 C 1260.57 -2.22261 -2.83069 0
M  V30 13588 C 1260.17 -3.70216 -2.52277 0
M  V30 13589 C 1261.92 -2.23197 -3.61086 0
M  V30 13590 C 1259.82 -4.57559 -3.74691 0
M  V30 13591 H 1258.75 -0.470961 -0.588822 0
M  V30 13592 H 1261.41 -1.59955 -0.899254 0
M  V30 13593 H 1259.79 -1.82036 -3.5168 0
M  V30 13594 H 1260.96 -4.19014 -1.9174 0
M  V30 13595 H 1259.28 -3.71784 -1.87525 0
M  V30 13596 H 1261.87 -2.85673 -4.5199 0
M  V30 13597 H 1262.22 -1.2328 -3.97628 0
M  V30 13598 H 1262.75 -2.61897 -2.99424 0
M  V30 13599 H 1259.49 -5.58434 -3.43267 0
M  V30 13600 H 1259.01 -4.13494 -4.34491 0
M  V30 13601 H 1260.69 -4.72451 -4.42039 0
M  V30 13602 N 1260.82 1.03812 -1.18578 0
M  V30 13603 C 1261.75 2.13802 -0.938665 0
M  V30 13604 C 1262.73 1.69643 0.124575 0
M  V30 13605 O 1263.92 1.94179 -0.0285421 0
M  V30 13606 C 1261.05 3.44154 -0.466392 0
M  V30 13607 C 1260 4.01949 -1.47041 0
M  V30 13608 C 1259.33 5.27811 -0.855558 0
M  V30 13609 C 1260.63 4.37827 -2.84789 0
M  V30 13610 H 1262.32 2.34732 -1.85852 0
M  V30 13611 H 1259.87 1.12808 -0.895007 0
M  V30 13612 H 1261.82 4.20463 -0.280856 0
M  V30 13613 H 1260.54 3.22918 0.489041 0
M  V30 13614 H 1259.2 3.27725 -1.64293 0
M  V30 13615 H 1258.85 5.02886 0.107142 0
M  V30 13616 H 1258.55 5.67441 -1.52592 0
M  V30 13617 H 1260.07 6.06795 -0.680609 0
M  V30 13618 H 1261.49 5.05112 -2.71173 0
M  V30 13619 H 1259.88 4.88514 -3.48532 0
M  V30 13620 H 1260.95 3.47541 -3.38147 0
M  V30 13621 N 1262.3 0.988223 1.22768 0
M  V30 13622 C 1263.24 0.534605 2.24523 0
M  V30 13623 C 1264.21 -0.430615 1.60421 0
M  V30 13624 O 1265.4 -0.336417 1.87811 0
M  V30 13625 C 1262.54 -0.149195 3.44777 0
M  V30 13626 C 1261.65 0.85721 4.2341 0
M  V30 13627 C 1260.79 0.147411 5.30995 0
M  V30 13628 C 1259.83 1.1425 6.01343 0
M  V30 13629 N 1258.96 0.461327 7.00583 0
M  V30 13630 H 1263.8 1.40708 2.62689 0
M  V30 13631 H 1261.34 0.704918 1.2911 0
M  V30 13632 H 1263.3 -0.562527 4.1339 0
M  V30 13633 H 1261.93 -0.985485 3.07389 0
M  V30 13634 H 1260.98 1.38889 3.54138 0
M  V30 13635 H 1262.29 1.61517 4.71926 0
M  V30 13636 H 1261.45 -0.32289 6.0584 0
M  V30 13637 H 1260.19 -0.643085 4.83442 0
M  V30 13638 H 1259.19 1.62348 5.25284 0
M  V30 13639 H 1260.42 1.93379 6.50985 0
M  V30 13640 H 1258.36 -0.309818 6.55268 0
M  V30 13641 H 1258.28 1.15781 7.47082 0
M  V30 13642 H 1259.55 0.0136734 7.79499 0
M  V30 13643 N 1263.78 -1.38018 0.760839 0
M  V30 13644 C 1264.72 -2.32251 0.127425 0
M  V30 13645 C 1265.72 -1.54387 -0.69722 0
M  V30 13646 O 1266.92 -1.69864 -0.595505 0
M  V30 13647 H 1263.3 -0.751666 0.0224141 0
M  V30 13648 H 1265.27 -2.8327 0.93813 0
M  V30 13649 C 1264.02 -3.39606 -0.745849 0
M  V30 13650 H 1263.34 -3.99618 -0.120679 0
M  V30 13651 H 1264.78 -4.07931 -1.15621 0
M  V30 13652 C 1263.24 -2.78778 -1.89167 0
M  V30 13653 O 1263.77 -2.68661 -2.98637 0
M  V30 13654 N 1261.98 -2.36481 -1.68894 0
M  V30 13655 H 1261.52 -2.4491 -0.798551 0
M  V30 13656 H 1261.48 -1.96126 -2.45728 0
M  V30 13657 N 1265.25 -0.510493 -1.49103 0
M  V30 13658 C 1266.2 0.282297 -2.26246 0
M  V30 13659 C 1267.19 0.927187 -1.31499 0
M  V30 13660 O 1268.38 0.833216 -1.56162 0
M  V30 13661 C 1265.51 1.34046 -3.16049 0
M  V30 13662 C 1264.59 0.701334 -4.18261 0
M  V30 13663 N 1264.99 -0.201593 -5.05398 0
M  V30 13664 C 1263.28 0.960822 -4.35527 0
M  V30 13665 C 1263.98 -0.568383 -5.78916 0
M  V30 13666 N 1262.96 0.0659546 -5.4356 0
M  V30 13667 H 1266.76 -0.41264 -2.90989 0
M  V30 13668 H 1264.28 -0.327201 -1.5907 0
M  V30 13669 H 1266.27 1.92195 -3.69955 0
M  V30 13670 H 1264.93 2.03697 -2.52859 0
M  V30 13671 H 1265.94 -0.573004 -5.1472 0
M  V30 13672 H 1262.62 1.64938 -3.83539 0
M  V30 13673 H 1264.01 -1.30763 -6.59053 0
M  V30 13674 N 1266.73 1.55688 -0.24474 0
M  V30 13675 C 1267.66 2.24272 0.64995 0
M  V30 13676 C 1268.64 1.22226 1.183 0
M  V30 13677 O 1269.83 1.50873 1.22274 0
M  V30 13678 C 1266.96 2.94053 1.84798 0
M  V30 13679 C 1265.91 4.02769 1.44779 0
M  V30 13680 C 1265.24 4.59965 2.72647 0
M  V30 13681 C 1266.54 5.18601 0.62047 0
M  V30 13682 H 1268.23 2.99298 0.0780654 0
M  V30 13683 H 1265.78 1.43955 0.0361069 0
M  V30 13684 H 1267.73 3.40732 2.47951 0
M  V30 13685 H 1266.45 2.16511 2.44521 0
M  V30 13686 H 1265.11 3.56856 0.839609 0
M  V30 13687 H 1264.76 3.79126 3.30564 0
M  V30 13688 H 1264.46 5.33352 2.46596 0
M  V30 13689 H 1265.99 5.09376 3.36703 0
M  V30 13690 H 1267.4 5.61519 1.15625 0
M  V30 13691 H 1265.8 5.98364 0.456097 0
M  V30 13692 H 1266.87 4.83503 -0.367798 0
M  V30 13693 N 1268.21 -0.0283989 1.57574 0
M  V30 13694 C 1269.49 -0.754527 1.80461 0
M  V30 13695 C 1269.87 -1.93539 0.842966 0
M  V30 13696 O 1269.21 -2.28212 -0.114714 0
M  V30 13697 C 1269.42 -1.18694 3.28196 0
M  V30 13698 C 1270.77 -1.60257 3.93196 0
M  V30 13699 O 1271.8 -1.2815 3.32349 0
M  V30 13700 O 1270.66 -2.19853 5.00327 0
M  V30 13701 H 1267.75 -0.364936 0.742126 0
M  V30 13702 H 1270.3 -0.00512589 1.69699 0
M  V30 13703 H 1269.07 -0.34398 3.89785 0
M  V30 13704 H 1268.69 -1.99633 3.43849 0
M  V30 13705 N 1269.69 -1.54705 -0.300681 0
M  V30 13706 C 1270.62 -1.8205 -1.39249 0
M  V30 13707 C 1271.63 -0.703476 -1.46816 0
M  V30 13708 O 1272.82 -0.980957 -1.49129 0
M  V30 13709 C 1269.92 -1.94376 -2.77617 0
M  V30 13710 C 1269.09 -3.2478 -2.92979 0
M  V30 13711 C 1268.15 -3.27518 -4.11848 0
M  V30 13712 O 1267.18 -4.01047 -4.03918 0
M  V30 13713 N 1268.38 -2.52932 -5.22499 0
M  V30 13714 H 1271.15 -2.76279 -1.16146 0
M  V30 13715 H 1268.71 -1.54283 -0.49075 0
M  V30 13716 H 1270.7 -1.93609 -3.55384 0
M  V30 13717 H 1269.27 -1.07141 -2.93666 0
M  V30 13718 H 1268.49 -3.38319 -2.02322 0
M  V30 13719 H 1269.78 -4.10835 -3.00153 0
M  V30 13720 H 1269.18 -1.92825 -5.31822 0
M  V30 13721 H 1267.73 -2.57919 -5.98599 0
M  V30 13722 N 1271.17 0.563888 -1.47167 0
M  V30 13723 C 1272.11 1.69254 -1.59549 0
M  V30 13724 C 1273.11 1.62948 -0.463078 0
M  V30 13725 O 1274.31 1.68214 -0.640639 0
M  V30 13726 H 1270.69 0.559925 -0.501984 0
M  V30 13727 H 1272.66 1.55946 -2.54408 0
M  V30 13728 C 1271.41 3.0762 -1.62066 0
M  V30 13729 H 1270.73 3.13151 -2.48549 0
M  V30 13730 H 1272.17 3.863 -1.74781 0
M  V30 13731 C 1270.63 3.35048 -0.352721 0
M  V30 13732 O 1271.16 3.9793 0.549053 0
M  V30 13733 N 1269.37 2.8965 -0.234805 0
M  V30 13734 H 1268.91 2.38657 -0.969561 0
M  V30 13735 H 1268.87 3.08373 0.61263 0
M  V30 13736 N 1272.64 1.35187 0.810078 0
M  V30 13737 C 1274.06 1.25329 1.38381 0
M  V30 13738 C 1274.41 -0.115799 1.95858 0
M  V30 13739 O 1273.53 -1.01663 1.91033 0
M  V30 13740 C 1274.13 2.2693 2.51572 0
M  V30 13741 C 1272.69 2.20824 3.04818 0
M  V30 13742 C 1271.83 2.1283 1.7776 0
M  V30 13743 H 1274.78 1.46366 0.613402 0
M  V30 13744 H 1274.8 1.89375 3.30026 0
M  V30 13745 H 1274.32 3.26563 2.09709 0
M  V30 13746 H 1272.42 1.24589 3.51153 0
M  V30 13747 H 1272.53 3.12637 3.63036 0
M  V30 13748 H 1270.89 1.58752 1.99173 0
M  V30 13749 H 1271.68 3.14318 1.38054 0
M  V30 13750 N 1274.12 -1.03182 1.19127 0
M  V30 13751 C 1275.05 -2.11462 0.884098 0
M  V30 13752 C 1276.07 -1.62342 -0.121984 0
M  V30 13753 O 1277.26 -1.78179 0.107038 0
M  V30 13754 C 1274.36 -3.37559 0.301227 0
M  V30 13755 C 1273.53 -4.15878 1.35514 0
M  V30 13756 C 1272.59 -5.20291 0.786349 0
M  V30 13757 O 1271.61 -5.50069 1.46331 0
M  V30 13758 N 1272.82 -5.79038 -0.411803 0
M  V30 13759 H 1275.58 -2.38405 1.81613 0
M  V30 13760 H 1273.14 -1.19449 1.09287 0
M  V30 13761 H 1275.13 -4.04593 -0.0930685 0
M  V30 13762 H 1273.7 -3.07987 -0.535022 0
M  V30 13763 H 1272.92 -3.44036 1.9244 0
M  V30 13764 H 1274.21 -4.64993 2.06539 0
M  V30 13765 H 1273.61 -5.57158 -0.979353 0
M  V30 13766 H 1272.17 -6.47495 -0.747912 0
M  V30 13767 N 1275.6 -0.99472 -1.22242 0
M  V30 13768 C 1276.53 -0.566499 -2.26524 0
M  V30 13769 C 1277.51 0.407541 -1.65146 0
M  V30 13770 O 1278.7 0.297777 -1.91903 0
M  V30 13771 C 1275.83 0.11786 -3.471 0
M  V30 13772 C 1274.78 -0.774908 -4.20927 0
M  V30 13773 C 1274.11 0.0424687 -5.34683 0
M  V30 13774 C 1275.41 -2.07263 -4.79416 0
M  V30 13775 H 1277.1 -1.43818 -2.62596 0
M  V30 13776 H 1274.65 -0.692971 -1.2623 0
M  V30 13777 H 1276.6 0.428842 -4.19212 0
M  V30 13778 H 1275.32 1.0241 -3.10129 0
M  V30 13779 H 1273.98 -1.06956 -3.50651 0
M  V30 13780 H 1273.63 0.949677 -4.93954 0
M  V30 13781 H 1273.33 -0.551867 -5.85003 0
M  V30 13782 H 1274.85 0.347504 -6.0961 0
M  V30 13783 H 1276.27 -1.82548 -5.4346 0
M  V30 13784 H 1274.67 -2.61594 -5.40082 0
M  V30 13785 H 1275.74 -2.75017 -3.99366 0
M  V30 13786 N 1277.08 1.37613 -0.768148 0
M  V30 13787 C 1278.01 2.28935 -0.110234 0
M  V30 13788 C 1279.02 1.48459 0.668122 0
M  V30 13789 O 1280.21 1.71154 0.506808 0
M  V30 13790 C 1277.31 3.27606 0.867598 0
M  V30 13791 C 1276.49 4.37163 0.143819 0
M  V30 13792 C 1275.54 5.15931 1.03449 0
M  V30 13793 O 1274.57 5.67003 0.499605 0
M  V30 13794 N 1275.77 5.30311 2.36114 0
M  V30 13795 H 1278.54 2.86037 -0.894585 0
M  V30 13796 H 1276.1 1.4955 -0.620185 0
M  V30 13797 H 1278.09 3.77183 1.4668 0
M  V30 13798 H 1276.66 2.71298 1.55294 0
M  V30 13799 H 1275.88 3.89031 -0.636257 0
M  V30 13800 H 1277.17 5.0755 -0.356446 0
M  V30 13801 H 1276.57 4.90394 2.82011 0
M  V30 13802 H 1275.12 5.83209 2.9105 0
M  V30 13803 N 1278.56 0.518393 1.4883 0
M  V30 13804 C 1279.8 -0.0118581 2.03397 0
M  V30 13805 C 1280.16 -1.33082 1.3895 0
M  V30 13806 O 1279.45 -1.8435 0.522066 0
M  V30 13807 C 1279.64 -0.203001 3.56823 0
M  V30 13808 C 1279.47 1.09588 4.36143 0
M  V30 13809 C 1278.24 1.65254 4.77514 0
M  V30 13810 C 1280.44 2.00358 4.73668 0
M  V30 13811 N 1278.42 2.89551 5.41326 0
M  V30 13812 C 1279.79 3.09233 5.37378 0
M  V30 13813 C 1281.85 2.00826 4.55602 0
M  V30 13814 C 1280.55 4.18623 5.84933 0
M  V30 13815 C 1282.58 3.09203 5.0413 0
M  V30 13816 C 1281.94 4.16796 5.67856 0
M  V30 13817 H 1278.04 0.0368733 0.78113 0
M  V30 13818 H 1280.62 0.697108 1.81792 0
M  V30 13819 H 1278.79 -0.881039 3.78275 0
M  V30 13820 H 1280.53 -0.731818 3.98028 0
M  V30 13821 H 1277.28 1.19541 4.58265 0
M  V30 13822 H 1277.71 3.52802 5.77806 0
M  V30 13823 H 1282.35 1.18942 4.05725 0
M  V30 13824 H 1280.07 5.01293 6.33823 0
M  V30 13825 H 1283.65 3.10605 4.91951 0
M  V30 13826 H 1282.53 4.99275 6.04726 0
M  V30 13827 N 1280.03 -1.55556 0.252993 0
M  V30 13828 C 1280.98 -2.23035 -0.660161 0
M  V30 13829 C 1281.98 -1.21994 -1.17532 0
M  V30 13830 O 1283.18 -1.39989 -1.13151 0
M  V30 13831 H 1279.56 -0.715516 -0.23139 0
M  V30 13832 H 1281.53 -2.98323 -0.0679506 0
M  V30 13833 C 1280.28 -2.94817 -1.84332 0
M  V30 13834 H 1279.6 -3.72342 -1.45607 0
M  V30 13835 H 1281.04 -3.45386 -2.45936 0
M  V30 13836 C 1279.5 -1.99033 -2.71822 0
M  V30 13837 O 1280.03 -1.5273 -3.71533 0
M  V30 13838 N 1278.24 -1.66004 -2.38518 0
M  V30 13839 H 1277.78 -2.03853 -1.57485 0
M  V30 13840 H 1277.74 -1.02183 -2.97331 0
M  V30 13841 N 1281.51 0.0200419 -1.57587 0
M  V30 13842 C 1282.74 0.720556 -1.93947 0
M  V30 13843 C 1283.16 1.68407 -0.853499 0
M  V30 13844 O 1282.51 1.81713 0.169337 0
M  V30 13845 C 1282.56 1.46982 -3.3027 0
M  V30 13846 O 1282.28 0.544971 -4.34697 0
M  V30 13847 C 1283.79 2.26667 -3.80968 0
M  V30 13848 H 1281.01 0.201956 -0.639887 0
M  V30 13849 H 1283.55 -0.0251175 -2.04485 0
M  V30 13850 H 1281.7 2.16729 -3.21103 0
M  V30 13851 H 1282.12 1.07139 -5.13441 0
M  V30 13852 H 1283.59 2.74621 -4.78839 0
M  V30 13853 H 1284.07 3.0848 -3.12629 0
M  V30 13854 H 1284.68 1.61976 -3.93248 0
M  V30 13855 N 1282.99 1.54862 0.292472 0
M  V30 13856 C 1284.22 1.7855 1.04534 0
M  V30 13857 C 1284.63 0.549161 1.80637 0
M  V30 13858 O 1283.99 -0.481268 1.7604 0
M  V30 13859 C 1284.04 2.99849 2.01923 0
M  V30 13860 O 1283.76 4.18706 1.28907 0
M  V30 13861 C 1285.26 3.35991 2.8918 0
M  V30 13862 H 1282.48 0.595279 0.309652 0
M  V30 13863 H 1285.03 2.01834 0.329159 0
M  V30 13864 H 1283.18 2.78749 2.69032 0
M  V30 13865 H 1283.6 4.87151 1.94383 0
M  V30 13866 H 1285.07 4.24085 3.53349 0
M  V30 13867 H 1285.55 2.54524 3.57931 0
M  V30 13868 H 1286.15 3.59281 2.27591 0
M  V30 13869 N 1284.47 -0.556076 1.47464 0
M  V30 13870 C 1285.38 -1.69043 1.62671 0
M  V30 13871 C 1286.39 -1.66372 0.509535 0
M  V30 13872 O 1287.57 -1.85799 0.777218 0
M  V30 13873 C 1284.64 -3.05546 1.63836 0
M  V30 13874 C 1283.7 -3.19275 2.86988 0
M  V30 13875 C 1282.93 -4.49267 2.88088 0
M  V30 13876 O 1283.15 -5.34796 1.98368 0
M  V30 13877 O 1282.09 -4.66811 3.79962 0
M  V30 13878 H 1285.91 -1.59155 2.58657 0
M  V30 13879 H 1283.5 -0.726211 1.30562 0
M  V30 13880 H 1285.38 -3.86778 1.67275 0
M  V30 13881 H 1284.05 -3.15814 0.710173 0
M  V30 13882 H 1282.96 -2.37437 2.89093 0
M  V30 13883 H 1284.29 -3.13912 3.79104 0
M  V30 13884 N 1285.95 -1.35615 -0.802897 0
M  V30 13885 C 1287.36 -1.26062 -1.37715 0
M  V30 13886 C 1287.71 0.105411 -1.95917 0
M  V30 13887 O 1286.83 1.00648 -1.91569 0
M  V30 13888 C 1287.43 -2.28261 -2.50365 0
M  V30 13889 C 1285.99 -2.22437 -3.03642 0
M  V30 13890 C 1285.14 -2.1377 -1.76629 0
M  V30 13891 H 1288.09 -1.46689 -0.605631 0
M  V30 13892 H 1288.11 -1.91122 -3.29017 0
M  V30 13893 H 1287.62 -3.27671 -2.07975 0
M  V30 13894 H 1285.72 -1.2645 -3.50487 0
M  V30 13895 H 1285.83 -3.14558 -3.61373 0
M  V30 13896 H 1284.2 -1.59806 -1.98328 0
M  V30 13897 H 1284.98 -3.15046 -1.36385 0
M  V30 13898 N 1287.43 1.02549 -1.19673 0
M  V30 13899 C 1288.65 1.8016 -1.02748 0
M  V30 13900 C 1289.08 1.83372 0.419105 0
M  V30 13901 O 1288.43 1.26222 1.30144 0
M  V30 13902 C 1288.48 3.22907 -1.60509 0
M  V30 13903 O 1287.59 4.03823 -0.836702 0
M  V30 13904 H 1286.93 0.556027 -0.362946 0
M  V30 13905 H 1289.46 1.29047 -1.5877 0
M  V30 13906 H 1289.47 3.73646 -1.63868 0
M  V30 13907 H 1288.14 3.19885 -2.65794 0
M  V30 13908 H 1286.72 3.6245 -0.876626 0
M  V30 13909 N 1288.9 1.00119 1.21713 0
M  V30 13910 C 1290.32 0.713343 1.42771 0
M  V30 13911 C 1290.52 -0.712923 1.88467 0
M  V30 13912 O 1289.58 -1.48277 2.04378 0
M  V30 13913 C 1290.89 1.72596 2.46234 0
M  V30 13914 C 1292.44 1.74235 2.60022 0
M  V30 13915 C 1292.91 2.74382 3.66713 0
M  V30 13916 N 1294.4 2.73027 3.7418 0
M  V30 13917 C 1295.14 3.47178 4.56349 0
M  V30 13918 N 1294.63 4.30958 5.42446 0
M  V30 13919 N 1296.43 3.35846 4.50737 0
M  V30 13920 H 1288.58 1.9222 0.903611 0
M  V30 13921 H 1290.84 0.829466 0.459011 0
M  V30 13922 H 1290.55 2.74699 2.19621 0
M  V30 13923 H 1290.42 1.52553 3.44975 0
M  V30 13924 H 1292.81 0.728261 2.85973 0
M  V30 13925 H 1292.89 1.98349 1.61528 0
M  V30 13926 H 1292.53 3.75945 3.41508 0
M  V30 13927 H 1292.46 2.47534 4.64795 0
M  V30 13928 H 1294.95 2.12242 3.12669 0
M  V30 13929 H 1295.27 4.84344 6.02189 0
M  V30 13930 H 1293.61 4.35042 5.42 0
M  V30 13931 H 1296.8 2.6983 3.82504 0
M  V30 13932 H 1296.98 3.93892 5.14541 0
M  V30 13933 N 1290.38 -1.37203 0.775435 0
M  V30 13934 C 1291.61 -2.03868 0.352927 0
M  V30 13935 C 1292.02 -1.58482 -1.0261 0
M  V30 13936 O 1291.38 -0.767772 -1.65564 0
M  V30 13937 C 1291.43 -3.59378 0.39116 0
M  V30 13938 O 1291.15 -4.03103 1.71579 0
M  V30 13939 C 1292.65 -4.4328 -0.0424808 0
M  V30 13940 H 1289.87 -0.654619 0.14736 0
M  V30 13941 H 1292.42 -1.75463 1.05039 0
M  V30 13942 H 1290.57 -3.86542 -0.257752 0
M  V30 13943 H 1290.99 -4.9764 1.65695 0
M  V30 13944 H 1292.46 -5.51989 0.0354215 0
M  V30 13945 H 1292.94 -4.25374 -1.09333 0
M  V30 13946 H 1293.54 -4.21349 0.578384 0
M  V30 13947 N 1291.86 -0.526279 -1.48553 0
M  V30 13948 C 1293.1 0.00720852 -2.04399 0
M  V30 13949 C 1293.46 1.31928 -1.39495 0
M  V30 13950 O 1294.66 1.93857 -1.86206 0
M  V30 13951 C 1292.94 0.130517 -3.57162 0
M  V30 13952 S 1294.49 0.614604 -4.34474 0
M  V30 13953 H 1291.31 -0.0102902 -0.710926 0
M  V30 13954 H 1293.91 -0.705998 -1.82307 0
M  V30 13955 H 1292.62 -0.829304 -4.01934 0
M  V30 13956 H 1292.15 0.868213 -3.837 0
M  V30 13957 H 1294.16 1.87973 -4.59217 0
M  V30 13958 N 1293.34 1.5542 -0.261239 0
M  V30 13959 C 1294.28 2.21972 0.632216 0
M  V30 13960 C 1295.25 1.18843 1.16041 0
M  V30 13961 O 1296.44 1.47339 1.21226 0
M  V30 13962 C 1293.58 2.93397 1.81693 0
M  V30 13963 C 1292.69 4.11214 1.3239 0
M  V30 13964 C 1291.83 4.70318 2.46931 0
M  V30 13965 C 1290.87 5.80355 1.94561 0
M  V30 13966 N 1290 6.33581 3.02523 0
M  V30 13967 H 1294.84 2.97944 0.058018 0
M  V30 13968 H 1292.38 1.4709 0.0168725 0
M  V30 13969 H 1294.34 3.33015 2.5131 0
M  V30 13970 H 1292.97 2.19874 2.36337 0
M  V30 13971 H 1292.02 3.76811 0.521292 0
M  V30 13972 H 1293.33 4.90609 0.900214 0
M  V30 13973 H 1292.49 5.12584 3.24565 0
M  V30 13974 H 1291.23 3.90169 2.92608 0
M  V30 13975 H 1290.23 5.37552 1.15402 0
M  V30 13976 H 1291.46 6.62364 1.49836 0
M  V30 13977 H 1289.4 5.56332 3.47608 0
M  V30 13978 H 1289.32 7.08209 2.64529 0
M  V30 13979 H 1290.59 6.80506 3.80174 0
M  V30 13980 N 1294.82 -0.0116844 1.57596 0
M  V30 13981 C 1296.09 -0.735344 1.81251 0
M  V30 13982 C 1296.47 -1.92634 0.863446 0
M  V30 13983 O 1295.82 -2.28321 -0.0905028 0
M  V30 13984 C 1296.03 -1.15206 3.29437 0
M  V30 13985 C 1297.38 -1.56078 3.94873 0
M  V30 13986 O 1298.4 -1.24618 3.3369 0
M  V30 13987 O 1297.26 -2.14534 5.0263 0
M  V30 13988 H 1294.36 -0.357044 0.745955 0
M  V30 13989 H 1296.9 0.0128733 1.69695 0
M  V30 13990 H 1295.67 -0.302619 3.90128 0
M  V30 13991 H 1295.3 -1.95975 3.45947 0
M  V30 13992 N 1296.29 -1.55015 -0.284256 0
M  V30 13993 C 1297.7 -1.65915 -0.856104 0
M  V30 13994 C 1298.06 -0.578758 -1.8747 0
M  V30 13995 O 1297.18 0.281733 -2.14558 0
M  V30 13996 C 1297.78 -3.0077 -1.55957 0
M  V30 13997 C 1296.33 -3.13735 -2.0796 0
M  V30 13998 C 1295.48 -2.61669 -0.917849 0
M  V30 13999 H 1298.43 -1.58583 -0.0608587 0
M  V30 14000 H 1298.45 -2.9313 -2.42601 0
M  V30 14001 H 1297.97 -3.79382 -0.81798 0
M  V30 14002 H 1296.07 -2.39875 -2.85115 0
M  V30 14003 H 1296.18 -4.20138 -2.30263 0
M  V30 14004 H 1294.54 -2.18542 -1.3081 0
M  V30 14005 H 1295.33 -3.42774 -0.189946 0
M  V30 14006 N 1297.77 0.548248 -1.47757 0
M  V30 14007 C 1299.02 1.30139 -1.54099 0
M  V30 14008 C 1299.33 1.9445 -0.2118 0
M  V30 14009 O 1300.54 2.71067 -0.153302 0
M  V30 14010 C 1299 2.36039 -2.71687 0
M  V30 14011 C 1298.6 1.77879 -4.11173 0
M  V30 14012 C 1300.35 3.12478 -2.87329 0
M  V30 14013 C 1298.25 2.81611 -5.20047 0
M  V30 14014 H 1297.18 0.489364 -0.573619 0
M  V30 14015 H 1299.84 0.581237 -1.74051 0
M  V30 14016 H 1298.22 3.11008 -2.45132 0
M  V30 14017 H 1299.39 1.09221 -4.47669 0
M  V30 14018 H 1297.71 1.13994 -4.00493 0
M  V30 14019 H 1300.3 3.89958 -3.65837 0
M  V30 14020 H 1300.65 3.67218 -1.96103 0
M  V30 14021 H 1301.18 2.4462 -3.13697 0
M  V30 14022 H 1297.92 2.31714 -6.13179 0
M  V30 14023 H 1297.44 3.48652 -4.88059 0
M  V30 14024 H 1299.12 3.44938 -5.47382 0
M  V30 14025 N 1299.25 1.36039 0.795694 0
M  V30 14026 C 1300.16 1.31991 1.93948 0
M  V30 14027 C 1301.18 0.223064 1.72564 0
M  V30 14028 O 1302.35 0.454344 1.96208 0
M  V30 14029 C 1299.42 1.10228 3.28711 0
M  V30 14030 C 1298.48 2.29328 3.62914 0
M  V30 14031 C 1297.71 2.08595 4.91247 0
M  V30 14032 O 1297.93 1.05793 5.60503 0
M  V30 14033 O 1296.87 2.96222 5.23962 0
M  V30 14034 H 1300.69 2.28274 2.00311 0
M  V30 14035 H 1298.28 1.16521 0.935048 0
M  V30 14036 H 1300.16 0.999842 4.09367 0
M  V30 14037 H 1298.84 0.17003 3.23253 0
M  V30 14038 H 1297.74 2.4514 2.8259 0
M  V30 14039 H 1299.08 3.21038 3.73089 0
M  V30 14040 N 1300.73 -1.01913 1.20215 0
M  V30 14041 C 1302.01 -1.7262 0.919867 0
M  V30 14042 C 1302.39 -2.03203 -0.572001 0
M  V30 14043 O 1301.73 -1.69448 -1.53296 0
M  V30 14044 C 1301.94 -2.9959 1.79016 0
M  V30 14045 C 1303.29 -3.72905 2.03045 0
M  V30 14046 O 1304.32 -3.0954 1.76249 0
M  V30 14047 O 1303.17 -4.86844 2.48285 0
M  V30 14048 H 1300.27 -0.752194 0.343705 0
M  V30 14049 H 1302.81 -1.07783 1.31076 0
M  V30 14050 H 1301.59 -2.73292 2.80048 0
M  V30 14051 H 1301.21 -3.72168 1.39918 0
M  V30 14052 N 1302.21 -1.00763 -1.2118 0
M  V30 14053 C 1303.46 -0.687197 -1.89633 0
M  V30 14054 C 1303.77 0.78566 -1.79128 0
M  V30 14055 O 1304.97 1.21828 -2.42632 0
M  V30 14056 C 1303.43 -1.1787 -3.40051 0
M  V30 14057 C 1303.04 -2.67782 -3.59161 0
M  V30 14058 C 1304.78 -0.933277 -4.14114 0
M  V30 14059 C 1302.69 -3.10459 -5.03358 0
M  V30 14060 H 1301.62 -0.253342 -0.710165 0
M  V30 14061 H 1304.27 -1.21914 -1.37147 0
M  V30 14062 H 1302.65 -0.574791 -3.91806 0
M  V30 14063 H 1303.83 -3.33645 -3.17833 0
M  V30 14064 H 1302.14 -2.90368 -2.98455 0
M  V30 14065 H 1304.74 -1.22766 -5.20416 0
M  V30 14066 H 1305.08 0.130431 -4.16096 0
M  V30 14067 H 1305.61 -1.50011 -3.68431 0
M  V30 14068 H 1302.35 -4.16068 -5.06525 0
M  V30 14069 H 1301.87 -2.4931 -5.45531 0
M  V30 14070 H 1303.55 -3.02589 -5.71882 0
M  V30 14071 N 1303.68 1.3679 -0.7827 0
M  V30 14072 C 1304.63 2.32019 -0.164358 0
M  V30 14073 C 1305.63 1.55476 0.672571 0
M  V30 14074 O 1306.83 1.7079 0.568406 0
M  V30 14075 H 1303.21 0.751214 -0.0343697 0
M  V30 14076 H 1305.18 2.81741 -0.983077 0
M  V30 14077 C 1303.93 3.4075 0.691727 0
M  V30 14078 H 1303.25 3.99759 0.0570885 0
M  V30 14079 H 1304.69 4.09719 1.09117 0
M  V30 14080 C 1303.15 2.81753 1.84708 0
M  V30 14081 O 1303.68 2.73378 2.94325 0
M  V30 14082 N 1301.89 2.39138 1.6511 0
M  V30 14083 H 1301.43 2.46149 0.759487 0
M  V30 14084 H 1301.39 2.0001 2.42576 0
M  V30 14085 N 1305.16 0.53415 1.48272 0
M  V30 14086 C 1306.39 0.00368464 2.074 0
M  V30 14087 C 1306.81 -1.27003 1.38751 0
M  V30 14088 O 1306.17 -1.75502 0.454817 0
M  V30 14089 C 1306.22 -0.199034 3.6005 0
M  V30 14090 O 1305.32 -1.26679 3.92462 0
M  V30 14091 H 1304.66 0.0409936 0.662733 0
M  V30 14092 H 1307.19 0.743253 1.90622 0
M  V30 14093 H 1307.2 -0.420404 4.05828 0
M  V30 14094 H 1305.88 0.731391 4.09418 0
M  V30 14095 H 1304.46 -1.02775 3.58457 0
M  V30 14096 N 1306.64 -1.55279 0.269478 0
M  V30 14097 C 1308.05 -1.85286 -0.229372 0
M  V30 14098 C 1308.4 -1.19148 -1.55879 0
M  V30 14099 O 1307.53 -0.4778 -2.11059 0
M  V30 14100 C 1308.12 -3.3615 -0.42296 0
M  V30 14101 C 1306.68 -3.66301 -0.866047 0
M  V30 14102 C 1305.83 -2.77265 0.0439028 0
M  V30 14103 H 1308.78 -1.509 0.491427 0
M  V30 14104 H 1308.8 -3.5895 -1.26234 0
M  V30 14105 H 1308.31 -3.84258 0.544768 0
M  V30 14106 H 1306.41 -3.23688 -1.84545 0
M  V30 14107 H 1306.53 -4.73851 -0.707274 0
M  V30 14108 H 1304.89 -2.50299 -0.471433 0
M  V30 14109 H 1305.67 -3.28186 1.00741 0
M  V30 14110 N 1308.12 0.00332656 -1.576 0
M  V30 14111 C 1309.03 1.01221 -2.1164 0
M  V30 14112 C 1310.04 1.37918 -1.06088 0
M  V30 14113 O 1311.22 1.46717 -1.37971 0
M  V30 14114 C 1308.29 2.28638 -2.60626 0
M  V30 14115 C 1307.35 1.98284 -3.80765 0
M  V30 14116 C 1306.58 3.19626 -4.27405 0
M  V30 14117 O 1306.8 4.31196 -3.73398 0
M  V30 14118 O 1305.74 3.03819 -5.19594 0
M  V30 14119 H 1309.56 0.582839 -2.98055 0
M  V30 14120 H 1307.15 0.221947 -1.47742 0
M  V30 14121 H 1309.03 3.03498 -2.92347 0
M  V30 14122 H 1307.7 2.70819 -1.7731 0
M  V30 14123 H 1306.61 1.2091 -3.54022 0
M  V30 14124 H 1307.94 1.60942 -4.65144 0
M  V30 14125 N 1309.6 1.55164 0.276031 0
M  V30 14126 C 1310.55 1.84223 1.34335 0
M  V30 14127 C 1311.53 0.700934 1.4483 0
M  V30 14128 O 1312.72 0.962204 1.48562 0
M  V30 14129 C 1309.85 2.11496 2.70415 0
M  V30 14130 C 1308.94 3.31877 2.64043 0
M  V30 14131 N 1309.33 4.51856 2.27289 0
M  V30 14132 C 1307.63 3.34406 2.95108 0
M  V30 14133 C 1308.33 5.33939 2.30833 0
M  V30 14134 N 1307.3 4.72271 2.69186 0
M  V30 14135 H 1311.11 2.74533 1.04922 0
M  V30 14136 H 1308.62 1.54999 0.484661 0
M  V30 14137 H 1310.62 2.3047 3.47404 0
M  V30 14138 H 1309.28 1.22468 3.00719 0
M  V30 14139 H 1310.29 4.78009 1.99318 0
M  V30 14140 H 1306.96 2.55561 3.30144 0
M  V30 14141 H 1308.35 6.39862 2.05004 0
M  V30 14142 N 1311.07 -0.540404 1.48045 0
M  V30 14143 C 1312.32 -1.2932 1.54787 0
M  V30 14144 C 1312.64 -1.94335 0.222109 0
M  V30 14145 O 1313.84 -2.70982 0.167675 0
M  V30 14146 C 1312.3 -2.34594 2.72935 0
M  V30 14147 C 1311.91 -1.75696 4.1211 0
M  V30 14148 C 1313.65 -3.10949 2.88982 0
M  V30 14149 C 1311.56 -2.78849 5.21534 0
M  V30 14150 H 1310.49 -0.486315 0.576206 0
M  V30 14151 H 1313.14 -0.571998 1.74357 0
M  V30 14152 H 1311.52 -3.09704 2.46778 0
M  V30 14153 H 1312.69 -1.06845 4.48242 0
M  V30 14154 H 1311.01 -1.11869 4.01091 0
M  V30 14155 H 1313.61 -3.88012 3.679 0
M  V30 14156 H 1313.95 -3.66173 1.98048 0
M  V30 14157 H 1314.48 -2.42953 3.1499 0
M  V30 14158 H 1311.22 -2.28459 6.144 0
M  V30 14159 H 1310.74 -3.46059 4.89901 0
M  V30 14160 H 1312.42 -3.4203 5.49203 0
M  V30 14161 N 1312.55 -1.36459 -0.788468 0
M  V30 14162 C 1313.48 -1.26727 -1.90979 0
M  V30 14163 C 1314.5 -0.186572 -1.61727 0
M  V30 14164 O 1315.69 -0.441364 -1.72957 0
M  V30 14165 C 1312.79 -0.932838 -3.25809 0
M  V30 14166 C 1311.96 -2.11562 -3.82832 0
M  V30 14167 C 1311.02 -1.75409 -4.96103 0
M  V30 14168 O 1310.04 -2.47508 -5.1257 0
M  V30 14169 N 1311.25 -0.688327 -5.76405 0
M  V30 14170 H 1314.01 -2.2334 -1.99848 0
M  V30 14171 H 1311.57 -1.29865 -0.966784 0
M  V30 14172 H 1313.56 -0.672131 -3.9908 0
M  V30 14173 H 1312.13 -0.0558103 -3.1255 0
M  V30 14174 H 1311.35 -2.53907 -3.01538 0
M  V30 14175 H 1312.64 -2.9058 -4.17661 0
M  V30 14176 H 1312.04 -0.0896854 -5.65629 0
M  V30 14177 H 1310.6 -0.487446 -6.49975 0
M  V30 14178 N 1314.03 1.01274 -1.20754 0
M  V30 14179 C 1315.45 1.27256 -0.963221 0
M  V30 14180 C 1315.65 1.98349 0.354972 0
M  V30 14181 O 1314.7 2.28116 1.08255 0
M  V30 14182 C 1316.02 2.1038 -2.14851 0
M  V30 14183 C 1317.56 2.23633 -2.18991 0
M  V30 14184 C 1318.04 3.10136 -3.37016 0
M  V30 14185 N 1319.53 3.17724 -3.37054 0
M  V30 14186 C 1320.26 3.84891 -4.25025 0
M  V30 14187 N 1319.76 4.54152 -5.23181 0
M  V30 14188 N 1321.55 3.81454 -4.12855 0
M  V30 14189 H 1313.7 0.535534 -2.05538 0
M  V30 14190 H 1315.97 0.299006 -0.899611 0
M  V30 14191 H 1315.67 1.65484 -3.10335 0
M  V30 14192 H 1315.55 3.11122 -2.13267 0
M  V30 14193 H 1317.93 2.67753 -1.24067 0
M  V30 14194 H 1318.02 1.22387 -2.24622 0
M  V30 14195 H 1317.66 2.66721 -4.32229 0
M  V30 14196 H 1317.59 4.11478 -3.28623 0
M  V30 14197 H 1320.08 2.68412 -2.66014 0
M  V30 14198 H 1320.39 5.03084 -5.86623 0
M  V30 14199 H 1318.74 4.52964 -5.27113 0
M  V30 14200 H 1321.93 3.26494 -3.35439 0
M  V30 14201 H 1322.1 4.33523 -4.81624 0
M  V30 14202 N 1315.51 1.01404 1.20644 0
M  V30 14203 C 1316.93 0.728446 1.42006 0
M  V30 14204 C 1317.13 -0.692894 1.89212 0
M  V30 14205 O 1316.18 -1.46101 2.05939 0
M  V30 14206 C 1317.49 1.75198 2.44389 0
M  V30 14207 C 1319.04 1.76983 2.58159 0
M  V30 14208 C 1319.52 2.78256 3.63782 0
M  V30 14209 N 1321.01 2.7698 3.71263 0
M  V30 14210 C 1321.74 3.51999 4.52641 0
M  V30 14211 N 1321.24 4.36687 5.37844 0
M  V30 14212 N 1323.03 3.40608 4.47149 0
M  V30 14213 H 1315.18 1.93168 0.883172 0
M  V30 14214 H 1317.45 0.834287 0.450187 0
M  V30 14215 H 1317.15 2.77013 2.16695 0
M  V30 14216 H 1317.03 1.56203 3.43337 0
M  V30 14217 H 1319.41 0.758551 2.85184 0
M  V30 14218 H 1319.49 2.00051 1.59415 0
M  V30 14219 H 1319.14 3.79546 3.37501 0
M  V30 14220 H 1319.07 2.5245 4.62143 0
M  V30 14221 H 1321.56 2.15546 3.104 0
M  V30 14222 H 1321.87 4.90703 5.97018 0
M  V30 14223 H 1320.22 4.40766 5.37355 0
M  V30 14224 H 1323.41 2.73872 3.79621 0
M  V30 14225 H 1323.58 3.99327 5.10335 0
M  V30 14226 N 1316.99 -1.36373 0.789944 0
M  V30 14227 C 1317.92 -2.32616 0.202944 0
M  V30 14228 C 1318.9 -1.56674 -0.662364 0
M  V30 14229 O 1320.08 -1.84826 -0.596078 0
M  V30 14230 C 1317.21 -3.4092 -0.662646 0
M  V30 14231 C 1316.17 -4.27877 0.102811 0
M  V30 14232 C 1315.49 -5.27352 -0.883407 0
M  V30 14233 C 1316.79 -5.0606 1.29231 0
M  V30 14234 H 1318.49 -2.81958 1.00699 0
M  V30 14235 H 1316.03 -1.35562 0.48568 0
M  V30 14236 H 1317.99 -4.07239 -1.08324 0
M  V30 14237 H 1316.71 -2.90147 -1.4994 0
M  V30 14238 H 1315.37 -3.63114 0.504389 0
M  V30 14239 H 1315.02 -4.72853 -1.71521 0
M  V30 14240 H 1314.72 -5.86398 -0.375669 0
M  V30 14241 H 1316.24 -5.96545 -1.30256 0
M  V30 14242 H 1317.66 -5.65417 0.947446 0
M  V30 14243 H 1316.05 -5.74521 1.73338 0
M  V30 14244 H 1317.12 -4.37671 2.08739 0
M  V30 14245 N 1318.47 -0.542005 -1.47987 0
M  V30 14246 C 1319.69 -0.0146835 -2.07395 0
M  V30 14247 C 1320.12 1.26266 -1.39422 0
M  V30 14248 O 1319.47 1.75259 -0.464118 0
M  V30 14249 C 1319.52 0.179937 -3.60151 0
M  V30 14250 O 1318.63 1.24596 -3.93128 0
M  V30 14251 H 1317.97 -0.0445076 -0.662507 0
M  V30 14252 H 1320.5 -0.753352 -1.90226 0
M  V30 14253 H 1320.51 0.398876 -4.06046 0
M  V30 14254 H 1319.18 -0.753093 -4.09025 0
M  V30 14255 H 1317.76 1.00872 -3.58997 0
M  V30 14256 N 1319.94 1.55134 -0.277709 0
M  V30 14257 C 1320.87 2.256 0.602232 0
M  V30 14258 C 1321.85 1.24708 1.15681 0
M  V30 14259 O 1323.04 1.53433 1.19046 0
M  V30 14260 C 1320.17 2.97907 1.78519 0
M  V30 14261 C 1319.12 4.0575 1.36203 0
M  V30 14262 C 1318.45 4.65644 2.62829 0
M  V30 14263 C 1319.75 5.19801 0.510327 0
M  V30 14264 H 1321.44 2.99396 0.0145622 0
M  V30 14265 H 1318.99 1.43999 0.00556389 0
M  V30 14266 H 1320.94 3.45915 2.40668 0
M  V30 14267 H 1319.67 2.21649 2.39873 0
M  V30 14268 H 1318.33 3.58557 0.763726 0
M  V30 14269 H 1317.97 3.86053 3.22447 0
M  V30 14270 H 1317.67 5.38463 2.35227 0
M  V30 14271 H 1319.2 5.16403 3.25823 0
M  V30 14272 H 1320.61 5.63845 1.03689 0
M  V30 14273 H 1319.01 5.99197 0.329073 0
M  V30 14274 H 1320.08 4.82614 -0.470273 0
M  V30 14275 N 1321.42 0.00503138 1.57599 0
M  V30 14276 C 1322.35 -1.01302 2.05598 0
M  V30 14277 C 1323.37 -1.30388 0.974829 0
M  V30 14278 O 1324.56 -1.27275 1.25153 0
M  V30 14279 C 1321.66 -2.34654 2.44522 0
M  V30 14280 C 1320.83 -2.24436 3.7543 0
M  V30 14281 C 1319.89 -3.40517 4.01166 0
M  V30 14282 O 1318.91 -3.18479 4.71762 0
M  V30 14283 N 1320.12 -4.63532 3.49454 0
M  V30 14284 H 1322.88 -0.603656 2.93558 0
M  V30 14285 H 1320.44 -0.182248 1.60871 0
M  V30 14286 H 1322.43 -3.11093 2.5885 0
M  V30 14287 H 1321 -2.67315 1.62055 0
M  V30 14288 H 1320.22 -1.32875 3.71131 0
M  V30 14289 H 1321.51 -2.14786 4.61242 0
M  V30 14290 H 1320.91 -4.84334 2.92296 0
M  V30 14291 H 1319.47 -5.37221 3.69103 0
M  V30 14292 N 1322.9 -1.55308 -0.267798 0
M  V30 14293 C 1323.83 -1.91555 -1.33525 0
M  V30 14294 C 1324.81 -0.778001 -1.51265 0
M  V30 14295 O 1326 -1.03657 -1.64222 0
M  V30 14296 C 1323.13 -2.19201 -2.69385 0
M  V30 14297 C 1322.08 -3.3501 -2.66369 0
M  V30 14298 C 1321.41 -3.48148 -4.05829 0
M  V30 14299 C 1322.71 -4.71265 -2.25182 0
M  V30 14300 H 1324.4 -2.80965 -1.03437 0
M  V30 14301 H 1321.95 -1.35183 -0.496141 0
M  V30 14302 H 1323.9 -2.43146 -3.44177 0
M  V30 14303 H 1322.62 -1.26596 -3.01067 0
M  V30 14304 H 1321.28 -3.11041 -1.94034 0
M  V30 14305 H 1320.93 -2.53 -4.34741 0
M  V30 14306 H 1320.63 -4.26014 -4.04704 0
M  V30 14307 H 1322.15 -3.74391 -4.82352 0
M  V30 14308 H 1323.57 -4.94719 -2.89699 0
M  V30 14309 H 1321.96 -5.52084 -2.3521 0
M  V30 14310 H 1323.03 -4.69735 -1.20319 0
M  V30 14311 N 1324.38 0.532545 -1.4833 0
M  V30 14312 C 1325.79 1.11451 -1.49785 0
M  V30 14313 C 1326.14 1.94386 -0.266207 0
M  V30 14314 O 1325.26 2.07121 0.62688 0
M  V30 14315 C 1325.86 2.0279 -2.71407 0
M  V30 14316 C 1324.42 2.56209 -2.75742 0
M  V30 14317 C 1323.57 1.33114 -2.43261 0
M  V30 14318 H 1326.52 0.317924 -1.55483 0
M  V30 14319 H 1326.54 2.87038 -2.49779 0
M  V30 14320 H 1326.05 1.42401 -3.61031 0
M  V30 14321 H 1324.15 3.20327 -1.9032 0
M  V30 14322 H 1324.26 2.95518 -3.77102 0
M  V30 14323 H 1322.63 1.64607 -1.94362 0
M  V30 14324 H 1323.41 0.744809 -3.35123 0
M  V30 14325 N 1325.86 1.36875 0.78122 0
M  V30 14326 C 1327.1 1.30886 1.53466 0
M  V30 14327 C 1327.42 -0.107218 1.95306 0
M  V30 14328 O 1328.62 -0.289525 2.69952 0
M  V30 14329 C 1327.08 2.29688 2.77076 0
M  V30 14330 C 1326.69 3.76775 2.42373 0
M  V30 14331 C 1328.43 2.32692 3.55042 0
M  V30 14332 C 1326.34 4.67332 3.62428 0
M  V30 14333 H 1325.27 0.486408 0.576128 0
M  V30 14334 H 1327.92 1.62283 0.856529 0
M  V30 14335 H 1326.3 1.91296 3.4673 0
M  V30 14336 H 1327.48 4.2395 1.80563 0
M  V30 14337 H 1325.79 3.76625 1.77602 0
M  V30 14338 H 1328.39 2.97556 4.44257 0
M  V30 14339 H 1328.73 1.33779 3.94219 0
M  V30 14340 H 1329.26 2.69743 2.92375 0
M  V30 14341 H 1326 5.67339 3.2834 0
M  V30 14342 H 1325.52 4.24868 4.23376 0
M  V30 14343 H 1327.2 4.84005 4.29358 0
M  V30 14344 N 1327.33 -1.00632 1.21289 0
M  V30 14345 C 1328.26 -2.11238 0.995021 0
M  V30 14346 C 1329.24 -1.69914 -0.0795537 0
M  V30 14347 O 1330.43 -1.94035 0.0800152 0
M  V30 14348 C 1327.56 -3.42797 0.557475 0
M  V30 14349 C 1326.51 -3.97909 1.57646 0
M  V30 14350 C 1325.84 -5.25357 0.995197 0
M  V30 14351 C 1327.14 -4.30123 2.96297 0
M  V30 14352 H 1328.83 -2.29722 1.9201 0
M  V30 14353 H 1326.38 -1.10395 0.924602 0
M  V30 14354 H 1328.33 -4.19571 0.392236 0
M  V30 14355 H 1327.06 -3.24101 -0.403253 0
M  V30 14356 H 1325.72 -3.23254 1.72924 0
M  V30 14357 H 1325.36 -5.02993 0.026227 0
M  V30 14358 H 1325.06 -5.63196 1.67583 0
M  V30 14359 H 1326.59 -6.04777 0.841251 0
M  V30 14360 H 1328 -4.97744 2.8447 0
M  V30 14361 H 1326.4 -4.79101 3.61361 0
M  V30 14362 H 1327.47 -3.38454 3.47242 0
M  V30 14363 N 1328.81 -1.02043 -1.20104 0
M  V30 14364 C 1329.76 -0.564679 -2.20897 0
M  V30 14365 C 1330.75 0.382041 -1.56299 0
M  V30 14366 O 1331.94 0.204384 -1.75816 0
M  V30 14367 C 1329.07 0.0917516 -3.43177 0
M  V30 14368 C 1328.15 -0.876903 -4.14935 0
M  V30 14369 N 1328.54 -2.03596 -4.63014 0
M  V30 14370 C 1326.84 -0.698538 -4.40496 0
M  V30 14371 C 1327.54 -2.64621 -5.18026 0
M  V30 14372 N 1326.52 -1.92651 -5.08317 0
M  V30 14373 H 1330.32 -1.44825 -2.5574 0
M  V30 14374 H 1327.83 -0.88628 -1.36084 0
M  V30 14375 H 1329.83 0.43582 -4.14616 0
M  V30 14376 H 1328.49 0.971116 -3.09838 0
M  V30 14377 H 1329.5 -2.41573 -4.58108 0
M  V30 14378 H 1326.18 0.132449 -4.1729 0
M  V30 14379 H 1327.57 -3.62732 -5.65575 0
M  V30 14380 N 1330.29 1.35952 -0.797165 0
M  V30 14381 C 1331.24 2.27336 -0.173856 0
M  V30 14382 C 1332.22 1.47328 0.646778 0
M  V30 14383 O 1333.42 1.69626 0.505581 0
M  V30 14384 C 1330.55 3.36411 0.684297 0
M  V30 14385 C 1329.63 4.2385 -0.145551 0
M  V30 14386 N 1330.02 4.91263 -1.20391 0
M  V30 14387 C 1328.32 4.45938 0.074359 0
M  V30 14388 C 1329.02 5.56006 -1.70974 0
M  V30 14389 N 1328 5.33989 -1.0177 0
M  V30 14390 H 1331.8 2.76945 -0.983794 0
M  V30 14391 H 1329.31 1.49369 -0.637388 0
M  V30 14392 H 1331.31 4.00817 1.14681 0
M  V30 14393 H 1329.97 2.88355 1.49269 0
M  V30 14394 H 1330.98 4.93004 -1.58644 0
M  V30 14395 H 1327.66 4.08701 0.852644 0
M  V30 14396 H 1329.05 6.19818 -2.59375 0
M  V30 14397 N 1331.77 0.549846 1.47697 0
M  V30 14398 C 1332.73 -0.191427 2.28399 0
M  V30 14399 C 1333.73 -0.849533 1.36527 0
M  V30 14400 O 1334.92 -0.706526 1.59229 0
M  V30 14401 C 1332.05 -1.27907 3.15995 0
M  V30 14402 H 1333.25 0.517375 2.95404 0
M  V30 14403 H 1330.8 0.30651 1.53265 0
M  V30 14404 H 1331.53 -2.0205 2.53665 0
M  V30 14405 H 1331.32 -0.812066 3.83599 0
M  V30 14406 H 1332.81 -1.79992 3.76819 0
M  V30 14407 N 1333.25 -1.54984 0.285932 0
M  V30 14408 C 1334.48 -2.03943 -0.330295 0
M  V30 14409 C 1334.88 -1.16336 -1.49207 0
M  V30 14410 O 1334.23 -0.178341 -1.82832 0
M  V30 14411 C 1334.29 -3.48976 -0.863479 0
M  V30 14412 C 1333.95 -4.5668 0.171058 0
M  V30 14413 C 1334.95 -5.10303 0.994329 0
M  V30 14414 C 1332.64 -5.01352 0.308416 0
M  V30 14415 C 1334.63 -6.07126 1.94104 0
M  V30 14416 C 1332.32 -5.97999 1.25859 0
M  V30 14417 C 1333.31 -6.50768 2.0734 0
M  V30 14418 O 1333 -7.45524 3.00749 0
M  V30 14419 H 1332.73 -0.671491 -0.0779452 0
M  V30 14420 H 1335.29 -2.01081 0.419011 0
M  V30 14421 H 1333.52 -3.49113 -1.66305 0
M  V30 14422 H 1335.21 -3.81213 -1.39396 0
M  V30 14423 H 1335.97 -4.76595 0.899002 0
M  V30 14424 H 1331.85 -4.59917 -0.315817 0
M  V30 14425 H 1335.4 -6.48239 2.57743 0
M  V30 14426 H 1331.29 -6.31125 1.35469 0
M  V30 14427 H 1332.06 -7.63276 2.95554 0
M  V30 14428 N 1334.72 -0.0133892 -1.57594 0
M  V30 14429 C 1335.65 0.972341 -2.12292 0
M  V30 14430 C 1336.64 1.34971 -1.03522 0
M  V30 14431 O 1337.82 1.4311 -1.31275 0
M  V30 14432 C 1334.95 2.25988 -2.63717 0
M  V30 14433 C 1333.9 2.02373 -3.77133 0
M  V30 14434 C 1333.23 3.37256 -4.14925 0
M  V30 14435 C 1334.53 1.37553 -5.03861 0
M  V30 14436 H 1336.22 0.516869 -2.94905 0
M  V30 14437 H 1333.77 0.247176 -1.41863 0
M  V30 14438 H 1335.72 2.95313 -3.00613 0
M  V30 14439 H 1334.45 2.73672 -1.78244 0
M  V30 14440 H 1333.11 1.3547 -3.40651 0
M  V30 14441 H 1332.75 3.82669 -3.26456 0
M  V30 14442 H 1332.45 3.22267 -4.91343 0
M  V30 14443 H 1333.98 4.07875 -4.5439 0
M  V30 14444 H 1335.39 1.96855 -5.38443 0
M  V30 14445 H 1333.79 1.33011 -5.85174 0
M  V30 14446 H 1334.86 0.346429 -4.83661 0
M  V30 14447 N 1336.2 1.55448 0.259558 0
M  V30 14448 C 1337.61 1.67256 0.8296 0
M  V30 14449 C 1337.96 0.60851 1.86525 0
M  V30 14450 O 1337.09 -0.247563 2.14979 0
M  V30 14451 C 1337.68 3.03213 1.51152 0
M  V30 14452 C 1336.24 3.17004 2.02943 0
M  V30 14453 C 1335.39 2.63096 0.876103 0
M  V30 14454 H 1338.34 1.5866 0.0356218 0
M  V30 14455 H 1338.36 2.96952 2.37906 0
M  V30 14456 H 1337.87 3.80635 0.75752 0
M  V30 14457 H 1335.98 2.44381 2.81263 0
M  V30 14458 H 1336.09 4.23748 2.2355 0
M  V30 14459 H 1334.45 2.20596 1.27317 0
M  V30 14460 H 1335.24 3.43033 0.13539 0
M  V30 14461 N 1337.68 -0.524672 1.4861 0
M  V30 14462 C 1338.91 -1.30958 1.60825 0
M  V30 14463 C 1339.33 -1.86142 0.270682 0
M  V30 14464 O 1338.69 -1.64675 -0.758415 0
M  V30 14465 C 1338.74 -2.43252 2.66197 0
M  V30 14466 O 1337.84 -3.4644 2.23725 0
M  V30 14467 H 1337.18 -0.387638 0.539104 0
M  V30 14468 H 1339.71 -0.630755 1.94635 0
M  V30 14469 H 1339.72 -2.89362 2.87635 0
M  V30 14470 H 1338.4 -2.02449 3.63301 0
M  V30 14471 H 1336.97 -3.06413 2.12522 0
M  V30 14472 N 1339.16 -1.37287 -0.77395 0
M  V30 14473 C 1340.41 -1.31698 -1.52769 0
M  V30 14474 C 1340.72 0.0968585 -1.9536 0
M  V30 14475 O 1341.93 0.275205 -2.70102 0
M  V30 14476 C 1340.38 -2.31154 -2.75854 0
M  V30 14477 C 1339.99 -3.78055 -2.40371 0
M  V30 14478 C 1341.73 -2.34572 -3.53803 0
M  V30 14479 C 1339.64 -4.69248 -3.59945 0
M  V30 14480 H 1338.57 -0.489456 -0.573541 0
M  V30 14481 H 1341.22 -1.62735 -0.84791 0
M  V30 14482 H 1339.6 -1.93132 -3.45711 0
M  V30 14483 H 1340.78 -4.24902 -1.78312 0
M  V30 14484 H 1339.09 -3.77562 -1.75602 0
M  V30 14485 H 1341.69 -2.99908 -4.42673 0
M  V30 14486 H 1342.03 -1.35868 -3.93504 0
M  V30 14487 H 1342.57 -2.7129 -2.90941 0
M  V30 14488 H 1339.31 -5.69072 -3.25327 0
M  V30 14489 H 1338.83 -4.27108 -4.21117 0
M  V30 14490 H 1340.5 -4.86275 -4.26785 0
M  V30 14491 N 1340.64 0.999871 -1.21821 0
M  V30 14492 C 1341.88 1.73497 -1.0365 0
M  V30 14493 C 1342.21 1.90194 0.430271 0
M  V30 14494 O 1341.48 1.45655 1.31002 0
M  V30 14495 H 1340.06 0.642804 -0.380541 0
M  V30 14496 H 1342.72 1.20461 -1.53216 0
M  V30 14497 H 1341.81 2.73215 -1.50864 0
M  V30 14498 N 1342.11 1.02678 1.19562 0
M  V30 14499 C 1343.36 0.72059 1.88817 0
M  V30 14500 C 1343.68 -0.752942 1.79877 0
M  V30 14501 O 1342.95 -1.54233 1.20785 0
M  V30 14502 H 1341.53 0.26355 0.698964 0
M  V30 14503 H 1344.2 1.30056 1.4516 0
M  V30 14504 H 1343.29 1.01303 2.95202 0
M  V30 14505 N 1343.59 -1.35528 0.804364 0
M  V30 14506 C 1344.84 -1.99126 0.384261 0
M  V30 14507 C 1345.17 -1.63668 -1.0453 0
M  V30 14508 O 1344.45 -0.898896 -1.72482 0
M  V30 14509 C 1344.73 -3.55636 0.565278 0
M  V30 14510 C 1344.58 -4.00899 2.03961 0
M  V30 14511 C 1345.9 -4.40099 -0.0104301 0
M  V30 14512 H 1343.02 -0.723369 0.141092 0
M  V30 14513 H 1345.66 -1.60712 1.01348 0
M  V30 14514 H 1343.81 -3.88489 0.0296425 0
M  V30 14515 H 1345.48 -3.78465 2.63746 0
M  V30 14516 H 1343.73 -3.5189 2.53685 0
M  V30 14517 H 1344.4 -5.09785 2.11716 0
M  V30 14518 H 1346.87 -4.13692 0.446985 0
M  V30 14519 H 1345.75 -5.48705 0.146155 0
M  V30 14520 H 1346.01 -4.28096 -1.10392 0
M  V30 14521 N 1345.07 -0.557671 -1.47404 0
M  V30 14522 C 1346.35 0.031908 -1.95574 0
M  V30 14523 C 1346.73 1.48509 -1.50027 0
M  V30 14524 O 1346.08 2.16209 -0.73932 0
M  V30 14525 C 1346.29 -0.114055 -3.48814 0
M  V30 14526 C 1347.63 0.0310533 -4.24589 0
M  V30 14527 O 1348.66 -0.041626 -3.56176 0
M  V30 14528 O 1347.52 0.187487 -5.46178 0
M  V30 14529 H 1344.61 0.0638747 -0.82453 0
M  V30 14530 H 1347.16 -0.624227 -1.57802 0
M  V30 14531 H 1345.93 -1.12525 -3.74772 0
M  V30 14532 H 1345.55 0.57967 -3.93352 0
M  V30 14533 N 1346.55 1.54831 -0.294147 0
M  V30 14534 C 1347.51 2.21946 0.572061 0
M  V30 14535 C 1348.51 1.20331 1.06663 0
M  V30 14536 O 1349.7 1.45112 0.963757 0
M  V30 14537 C 1346.83 2.90044 1.7913 0
M  V30 14538 H 1348.03 2.99897 -0.0142234 0
M  V30 14539 H 1345.58 1.56235 -0.0449187 0
M  V30 14540 H 1346.32 2.16154 2.4176 0
M  V30 14541 H 1346.1 3.64527 1.44439 0
M  V30 14542 H 1347.59 3.41263 2.40684 0
M  V30 14543 N 1348.03 0.0217466 1.57585 0
M  V30 14544 C 1349.25 -0.67246 1.96196 0
M  V30 14545 C 1349.68 -1.6529 0.897827 0
M  V30 14546 O 1349.04 -1.80743 -0.142002 0
M  V30 14547 C 1349.08 -1.36162 3.33905 0
M  V30 14548 O 1348.19 -2.47671 3.29747 0
M  V30 14549 H 1347.53 -0.177238 0.639908 0
M  V30 14550 H 1350.06 0.0814073 2.04438 0
M  V30 14551 H 1350.07 -1.7201 3.69968 0
M  V30 14552 H 1348.74 -0.642893 4.10901 0
M  V30 14553 H 1347.32 -2.13989 3.0539 0
M  V30 14554 N 1349.51 -1.55583 -0.251311 0
M  V30 14555 C 1350.75 -1.7897 -0.987372 0
M  V30 14556 C 1351.11 -0.590559 -1.82692 0
M  V30 14557 O 1352.31 -0.703109 -2.59441 0
M  V30 14558 C 1350.58 -3.07069 -1.82876 0
M  V30 14559 S 1352.14 -3.51659 -2.62452 0
M  V30 14560 H 1348.96 -0.628624 -0.332194 0
M  V30 14561 H 1351.56 -1.93821 -0.255653 0
M  V30 14562 H 1350.26 -3.92415 -1.20161 0
M  V30 14563 H 1349.8 -2.94943 -2.60331 0
M  V30 14564 H 1351.81 -3.12644 -3.85316 0
M  V30 14565 N 1350.98 0.516783 -1.48886 0
M  V30 14566 C 1352.23 1.27375 -1.57808 0
M  V30 14567 C 1352.56 1.92492 -0.256963 0
M  V30 14568 O 1351.84 1.79947 0.738193 0
M  V30 14569 C 1352.12 2.35295 -2.72595 0
M  V30 14570 C 1351.97 1.74783 -4.14453 0
M  V30 14571 C 1353.29 3.36973 -2.83085 0
M  V30 14572 H 1350.41 0.46175 -0.574418 0
M  V30 14573 H 1353.05 0.57434 -1.81111 0
M  V30 14574 H 1351.2 2.94951 -2.52857 0
M  V30 14575 H 1352.88 1.19076 -4.45666 0
M  V30 14576 H 1351.12 1.05258 -4.20836 0
M  V30 14577 H 1351.79 2.52985 -4.90615 0
M  V30 14578 H 1354.27 2.87289 -3.01005 0
M  V30 14579 H 1353.14 4.09864 -3.65106 0
M  V30 14580 H 1353.4 3.98336 -1.91784 0
M  V30 14581 N 1352.46 1.37696 0.766659 0
M  V30 14582 C 1353.69 1.36564 1.56093 0
M  V30 14583 C 1354.11 -0.0455828 1.88045 0
M  V30 14584 O 1353.47 -1.02405 1.49609 0
M  V30 14585 C 1353.52 2.21592 2.84481 0
M  V30 14586 O 1352.62 1.62404 3.79076 0
M  V30 14587 H 1351.96 0.466394 0.472623 0
M  V30 14588 H 1354.49 1.81287 0.948486 0
M  V30 14589 H 1354.5 2.34987 3.33534 0
M  V30 14590 H 1353.18 3.24167 2.60554 0
M  V30 14591 H 1351.75 1.58078 3.37736 0
M  V30 14592 N 1353.94 -0.993397 1.22349 0
M  V30 14593 C 1355.35 -1.54739 1.04465 0
M  V30 14594 C 1355.7 -1.92243 -0.392057 0
M  V30 14595 O 1354.83 -1.74707 -1.27697 0
M  V30 14596 C 1355.42 -2.81179 1.89007 0
M  V30 14597 C 1353.98 -3.33023 1.75421 0
M  V30 14598 C 1353.13 -2.06114 1.85505 0
M  V30 14599 H 1356.08 -0.814539 1.36202 0
M  V30 14600 H 1356.1 -3.53523 1.40718 0
M  V30 14601 H 1355.61 -2.53851 2.93566 0
M  V30 14602 H 1353.71 -3.6526 0.735935 0
M  V30 14603 H 1353.83 -4.03659 2.58062 0
M  V30 14604 H 1352.19 -2.19651 1.2894 0
M  V30 14605 H 1352.97 -1.81184 2.91594 0
M  V30 14606 N 1355.42 -1.03311 -1.19015 0
M  V30 14607 C 1356.66 -0.740813 -1.90503 0
M  V30 14608 C 1357.02 0.717732 -1.7808 0
M  V30 14609 O 1358.22 1.12329 -2.44204 0
M  V30 14610 C 1356.49 -1.18473 -3.37193 0
M  V30 14611 S 1358.05 -1.01692 -4.26854 0
M  V30 14612 H 1354.87 -0.269575 -0.657913 0
M  V30 14613 H 1357.47 -1.32382 -1.43858 0
M  V30 14614 H 1356.18 -2.2418 -3.43761 0
M  V30 14615 H 1355.71 -0.59519 -3.88872 0
M  V30 14616 H 1357.72 0.070076 -4.96151 0
M  V30 14617 N 1356.9 1.35099 -0.81154 0
M  V30 14618 C 1358.14 1.9892 -0.394815 0
M  V30 14619 C 1358.47 1.6422 1.0366 0
M  V30 14620 O 1357.75 0.908031 1.72003 0
M  V30 14621 C 1358.03 3.55331 -0.58413 0
M  V30 14622 C 1357.89 3.99812 -2.06084 0
M  V30 14623 C 1359.2 4.40098 -0.0129096 0
M  V30 14624 H 1356.32 0.72261 -0.144926 0
M  V30 14625 H 1358.97 1.60173 -1.02199 0
M  V30 14626 H 1357.12 3.88468 -0.0502446 0
M  V30 14627 H 1358.79 3.77061 -2.65749 0
M  V30 14628 H 1357.03 3.50539 -2.55548 0
M  V30 14629 H 1357.7 5.08655 -2.14416 0
M  V30 14630 H 1360.18 4.13449 -0.468917 0
M  V30 14631 H 1359.05 5.4862 -0.175252 0
M  V30 14632 H 1359.31 4.28675 1.0812 0
M  V30 14633 N 1358.37 0.56548 1.47106 0
M  V30 14634 C 1359.6 0.0476763 2.07345 0
M  V30 14635 C 1360.02 -1.24032 1.41413 0
M  V30 14636 O 1359.38 -1.74498 0.491941 0
M  V30 14637 C 1359.43 -0.122618 3.60391 0
M  V30 14638 O 1358.53 -1.18326 3.9506 0
M  V30 14639 H 1357.87 0.0550419 0.661715 0
M  V30 14640 H 1360.4 0.78352 1.89003 0
M  V30 14641 H 1360.41 -0.334227 4.06629 0
M  V30 14642 H 1359.09 0.81807 4.07775 0
M  V30 14643 H 1357.67 -0.951481 3.60557 0
M  V30 14644 N 1359.85 -1.54672 0.302354 0
M  V30 14645 C 1361.26 -1.85731 -0.190019 0
M  V30 14646 C 1361.61 -1.22427 -1.53317 0
M  V30 14647 O 1360.74 -0.522461 -2.09998 0
M  V30 14648 C 1361.33 -3.36971 -0.351562 0
M  V30 14649 C 1359.89 -3.68056 -0.788155 0
M  V30 14650 C 1359.04 -2.7711 0.102705 0
M  V30 14651 H 1361.99 -1.49823 0.523324 0
M  V30 14652 H 1362.01 -3.61547 -1.18592 0
M  V30 14653 H 1361.52 -3.83016 0.626152 0
M  V30 14654 H 1359.63 -3.2753 -1.77637 0
M  V30 14655 H 1359.74 -4.75244 -0.606604 0
M  V30 14656 H 1358.1 -2.51243 -0.418235 0
M  V30 14657 H 1358.89 -3.25975 1.0768 0
M  V30 14658 N 1361.33 -0.0301034 -1.57571 0
M  V30 14659 C 1362.56 0.658488 -1.96142 0
M  V30 14660 C 1362.97 1.65606 -0.906644 0
M  V30 14661 O 1362.33 1.82159 0.111441 0
M  V30 14662 C 1362.38 1.364 -3.34779 0
M  V30 14663 O 1362.1 0.4064 -4.36211 0
M  V30 14664 C 1363.6 2.14432 -3.87987 0
M  V30 14665 H 1360.82 0.181496 -0.645988 0
M  V30 14666 H 1363.37 -0.09016 -2.04301 0
M  V30 14667 H 1361.52 2.06404 -3.27836 0
M  V30 14668 H 1361.94 0.907503 -5.16589 0
M  V30 14669 H 1363.41 2.59248 -4.87334 0
M  V30 14670 H 1363.89 2.98377 -3.22285 0
M  V30 14671 H 1364.49 1.49383 -3.98202 0
M  V30 14672 N 1362.81 1.55714 0.243056 0
M  V30 14673 C 1363.77 1.89832 1.28438 0
M  V30 14674 C 1364.77 0.775083 1.40887 0
M  V30 14675 O 1365.96 1.04304 1.39521 0
M  V30 14676 C 1363.09 2.13016 2.66153 0
M  V30 14677 H 1364.29 2.82947 0.994022 0
M  V30 14678 H 1361.84 1.48665 0.482521 0
M  V30 14679 H 1362.57 1.22381 3.00322 0
M  V30 14680 H 1362.36 2.94824 2.58498 0
M  V30 14681 H 1363.85 2.40581 3.41336 0
M  V30 14682 N 1364.29 -0.50888 1.49158 0
M  V30 14683 C 1365.51 -1.29245 1.62205 0
M  V30 14684 C 1365.94 -1.85845 0.29041 0
M  V30 14685 O 1365.29 -1.6547 -0.740906 0
M  V30 14686 C 1365.34 -2.40415 2.68762 0
M  V30 14687 O 1364.45 -3.44048 2.27387 0
M  V30 14688 H 1363.79 -0.381898 0.543185 0
M  V30 14689 H 1366.32 -0.610076 1.95293 0
M  V30 14690 H 1366.33 -2.86295 2.90688 0
M  V30 14691 H 1365 -1.98584 3.65427 0
M  V30 14692 H 1363.58 -3.04141 2.1576 0
M  V30 14693 N 1365.76 -1.381 -0.759346 0
M  V30 14694 C 1367.18 -1.30379 -1.33635 0
M  V30 14695 C 1367.53 0.0430279 -1.96153 0
M  V30 14696 O 1366.65 0.945029 -1.94675 0
M  V30 14697 C 1367.25 -2.3611 -2.42976 0
M  V30 14698 C 1365.81 -2.31985 -2.96412 0
M  V30 14699 C 1364.95 -2.19281 -1.69739 0
M  V30 14700 H 1367.9 -1.48542 -0.558656 0
M  V30 14701 H 1367.92 -2.01493 -3.22771 0
M  V30 14702 H 1367.44 -3.34122 -1.97445 0
M  V30 14703 H 1365.54 -1.37536 -3.46287 0
M  V30 14704 H 1365.65 -3.25895 -3.51183 0
M  V30 14705 H 1364.01 -1.66035 -1.93144 0
M  V30 14706 H 1364.8 -3.19225 -1.26293 0
M  V30 14707 N 1367.24 0.986894 -1.22875 0
M  V30 14708 C 1368.66 1.25185 -0.989997 0
M  V30 14709 C 1368.86 1.99057 0.31282 0
M  V30 14710 O 1367.91 2.30361 1.03392 0
M  V30 14711 C 1369.23 2.05775 -2.19265 0
M  V30 14712 C 1370.78 2.18938 -2.23686 0
M  V30 14713 C 1371.25 3.02917 -3.43519 0
M  V30 14714 N 1372.74 3.10503 -3.43718 0
M  V30 14715 C 1373.48 3.75789 -4.33094 0
M  V30 14716 N 1372.97 4.42952 -5.32696 0
M  V30 14717 N 1374.77 3.72611 -4.20854 0
M  V30 14718 H 1366.92 0.491816 -2.06628 0
M  V30 14719 H 1369.18 0.279856 -0.905751 0
M  V30 14720 H 1368.89 1.58864 -3.13776 0
M  V30 14721 H 1368.76 3.06529 -2.19818 0
M  V30 14722 H 1371.15 2.65061 -1.29718 0
M  V30 14723 H 1371.23 1.17595 -2.27168 0
M  V30 14724 H 1370.87 2.57493 -4.3779 0
M  V30 14725 H 1370.8 4.04415 -3.37277 0
M  V30 14726 H 1373.29 2.62709 -2.71647 0
M  V30 14727 H 1373.61 4.90527 -5.97162 0
M  V30 14728 H 1371.95 4.41681 -5.36603 0
M  V30 14729 H 1375.14 3.19305 -3.42289 0
M  V30 14730 H 1375.31 4.2321 -4.90711 0
M  V30 14731 N 1368.72 1.0394 1.18466 0
M  V30 14732 C 1369.67 0.59975 2.1997 0
M  V30 14733 C 1370.65 -0.357127 1.56887 0
M  V30 14734 O 1371.85 -0.176388 1.76119 0
M  V30 14735 C 1368.98 -0.0371434 3.4328 0
M  V30 14736 C 1368.06 0.942805 4.13488 0
M  V30 14737 N 1368.45 2.10936 4.59717 0
M  V30 14738 C 1366.75 0.768529 4.39329 0
M  V30 14739 C 1367.45 2.72829 5.1375 0
M  V30 14740 N 1366.43 2.00713 5.05188 0
M  V30 14741 H 1370.23 1.48875 2.53403 0
M  V30 14742 H 1367.74 0.907817 1.34657 0
M  V30 14743 H 1369.74 -0.369803 4.15257 0
M  V30 14744 H 1368.4 -0.921701 3.11343 0
M  V30 14745 H 1369.41 2.48831 4.54207 0
M  V30 14746 H 1366.09 -0.0660446 4.17448 0
M  V30 14747 H 1367.48 3.71684 5.59733 0
M  V30 14748 N 1370.2 -1.34667 0.818693 0
M  V30 14749 C 1371.61 -1.51436 0.503921 0
M  V30 14750 C 1371.81 -1.76468 -0.972691 0
M  V30 14751 O 1370.87 -1.81314 -1.75731 0
M  V30 14752 C 1372.18 -2.68198 1.35978 0
M  V30 14753 C 1373.73 -2.8208 1.35647 0
M  V30 14754 C 1374.21 -4.01881 2.19672 0
M  V30 14755 N 1375.7 -4.0908 2.17273 0
M  V30 14756 C 1376.43 -5.00925 2.79038 0
M  V30 14757 N 1375.93 -5.9802 3.49777 0
M  V30 14758 N 1377.72 -4.93764 2.68615 0
M  V30 14759 H 1369.87 -1.16677 1.77483 0
M  V30 14760 H 1372.14 -0.571873 0.756085 0
M  V30 14761 H 1371.84 -2.56317 2.4082 0
M  V30 14762 H 1371.72 -3.63105 1.0215 0
M  V30 14763 H 1374.1 -2.93405 0.315849 0
M  V30 14764 H 1374.18 -1.87994 1.7347 0
M  V30 14765 H 1373.83 -3.91316 3.23781 0
M  V30 14766 H 1373.76 -4.95171 1.79202 0
M  V30 14767 H 1376.25 -3.3958 1.65814 0
M  V30 14768 H 1376.56 -6.64722 3.94162 0
M  V30 14769 H 1374.91 -5.98157 3.53883 0
M  V30 14770 H 1378.1 -4.16868 2.12929 0
M  V30 14771 H 1378.27 -5.65147 3.17038 0
M  V30 14772 N 1371.68 -0.573274 -1.46804 0
M  V30 14773 C 1372.63 0.186085 -2.27239 0
M  V30 14774 C 1373.61 0.870579 -1.35313 0
M  V30 14775 O 1374.8 0.766233 -1.59555 0
M  V30 14776 C 1371.93 1.2052 -3.21449 0
M  V30 14777 C 1371.02 0.523305 -4.20859 0
M  V30 14778 N 1371.41 -0.415768 -5.04088 0
M  V30 14779 C 1369.71 0.775236 -4.39211 0
M  V30 14780 C 1370.41 -0.81341 -5.75985 0
M  V30 14781 N 1369.38 -0.164647 -5.43351 0
M  V30 14782 H 1373.19 -0.535687 -2.88977 0
M  V30 14783 H 1370.7 -0.394373 -1.57539 0
M  V30 14784 H 1372.7 1.76331 -3.77774 0
M  V30 14785 H 1371.36 1.9279 -2.61271 0
M  V30 14786 H 1372.37 -0.790798 -5.11827 0
M  V30 14787 H 1369.04 1.48522 -3.90189 0
M  V30 14788 H 1370.43 -1.58598 -6.52914 0
M  V30 14789 N 1373.15 1.5451 -0.310553 0
M  V30 14790 C 1374.4 2.00623 0.296343 0
M  V30 14791 C 1374.73 1.19855 1.52802 0
M  V30 14792 O 1374.01 0.277468 1.92511 0
M  V30 14793 C 1374.29 3.54305 0.643448 0
M  V30 14794 C 1374.14 4.45807 -0.598029 0
M  V30 14795 C 1375.46 4.14958 1.46623 0
M  V30 14796 H 1372.58 0.729303 0.106236 0
M  V30 14797 H 1375.22 1.85196 -0.424549 0
M  V30 14798 H 1373.37 3.67581 1.25762 0
M  V30 14799 H 1375.05 4.44421 -1.23643 0
M  V30 14800 H 1373.29 4.16014 -1.22944 0
M  V30 14801 H 1373.96 5.51124 -0.310883 0
M  V30 14802 H 1376.44 4.05176 0.947199 0
M  V30 14803 H 1375.31 5.22627 1.67787 0
M  V30 14804 H 1375.57 3.67445 2.45839 0
M  V30 14805 N 1374.63 0.0384594 1.57553 0
M  V30 14806 C 1376.04 -0.499057 1.79906 0
M  V30 14807 C 1376.4 -1.7169 0.949577 0
M  V30 14808 O 1375.52 -2.15788 0.162584 0
M  V30 14809 C 1376.12 -0.912155 3.2629 0
M  V30 14810 C 1374.67 -1.39473 3.49606 0
M  V30 14811 C 1373.82 -0.363859 2.74902 0
M  V30 14812 H 1376.77 0.264433 1.56481 0
M  V30 14813 H 1376.79 -1.77592 3.36513 0
M  V30 14814 H 1376.31 -0.0255928 3.88092 0
M  V30 14815 H 1374.41 -2.3009 2.93068 0
M  V30 14816 H 1374.52 -1.39566 4.58321 0
M  V30 14817 H 1372.88 -0.833993 2.40659 0
M  V30 14818 H 1373.67 0.514398 3.39424 0
M  V30 14819 N 1376.11 -1.55841 -0.234795 0
M  V30 14820 C 1377.52 -1.68555 -0.802886 0
M  V30 14821 C 1377.87 -0.638107 -1.85533 0
M  V30 14822 O 1377 0.21333 -2.15346 0
M  V30 14823 C 1377.59 -3.0558 -1.46309 0
M  V30 14824 C 1376.15 -3.20192 -1.97874 0
M  V30 14825 C 1375.3 -2.64457 -0.834136 0
M  V30 14826 H 1378.25 -1.58697 -0.0103759 0
M  V30 14827 H 1378.27 -3.007 -2.33152 0
M  V30 14828 H 1377.78 -3.81792 -0.696868 0
M  V30 14829 H 1375.88 -2.48825 -2.77339 0
M  V30 14830 H 1376 -4.27251 -2.1678 0
M  V30 14831 H 1374.36 -2.22593 -1.23791 0
M  V30 14832 H 1375.14 -3.43205 -0.0807988 0
M  V30 14833 N 1377.59 0.500963 -1.49426 0
M  V30 14834 C 1378.81 1.28383 -1.62888 0
M  V30 14835 C 1379.24 1.85688 -0.300262 0
M  V30 14836 O 1378.6 1.6586 0.73212 0
M  V30 14837 C 1378.65 2.38987 -2.70033 0
M  V30 14838 O 1377.75 3.42837 -2.29208 0
M  V30 14839 H 1377.09 0.379012 -0.545202 0
M  V30 14840 H 1379.62 0.59971 -1.95613 0
M  V30 14841 H 1379.63 2.84749 -2.92202 0
M  V30 14842 H 1378.31 1.96643 -3.66475 0
M  V30 14843 H 1376.88 3.02993 -2.1737 0
M  V30 14844 N 1379.07 1.38501 0.752011 0
M  V30 14845 C 1380.31 1.34795 1.51118 0
M  V30 14846 C 1380.64 -0.0615084 1.94403 0
M  V30 14847 O 1379.9 -1.03892 1.65846 0
M  V30 14848 C 1380.2 2.25111 2.77596 0
M  V30 14849 C 1379.86 3.73052 2.53265 0
M  V30 14850 C 1378.52 4.13365 2.46339 0
M  V30 14851 C 1380.88 4.66692 2.32051 0
M  V30 14852 C 1378.2 5.45406 2.16216 0
M  V30 14853 C 1380.56 5.98992 2.03448 0
M  V30 14854 C 1379.22 6.38388 1.94979 0
M  V30 14855 H 1378.49 0.49325 0.552979 0
M  V30 14856 H 1381.14 1.70872 0.864588 0
M  V30 14857 H 1379.44 1.82096 3.46913 0
M  V30 14858 H 1381.14 2.19547 3.3556 0
M  V30 14859 H 1377.73 3.41091 2.59528 0
M  V30 14860 H 1381.91 4.36392 2.3638 0
M  V30 14861 H 1377.17 5.7487 2.08168 0
M  V30 14862 H 1381.34 6.71091 1.86037 0
M  V30 14863 H 1378.97 7.40625 1.71402 0
M  V30 14864 N 1380.55 -0.980364 1.23396 0
M  V30 14865 C 1381.96 -1.24658 0.996622 0
M  V30 14866 C 1382.16 -1.9922 -0.302259 0
M  V30 14867 O 1381.22 -2.30906 -1.02169 0
M  V30 14868 C 1382.53 -2.0461 2.20353 0
M  V30 14869 C 1384.08 -2.17749 2.24843 0
M  V30 14870 C 1384.55 -3.01091 3.4512 0
M  V30 14871 N 1386.04 -3.08676 3.4536 0
M  V30 14872 C 1386.78 -3.73487 4.3508 0
M  V30 14873 N 1386.28 -4.40121 5.35038 0
M  V30 14874 N 1388.07 -3.70373 4.22824 0
M  V30 14875 H 1380.22 -0.480851 2.06885 0
M  V30 14876 H 1382.48 -0.275049 0.907222 0
M  V30 14877 H 1382.19 -1.57197 3.14614 0
M  V30 14878 H 1382.06 -3.05359 2.21441 0
M  V30 14879 H 1384.45 -2.64369 1.31122 0
M  V30 14880 H 1384.53 -1.16388 2.27788 0
M  V30 14881 H 1384.17 -2.55168 4.39149 0
M  V30 14882 H 1384.1 -4.02621 3.39417 0
M  V30 14883 H 1386.6 -2.61265 2.73037 0
M  V30 14884 H 1386.91 -4.87354 5.99755 0
M  V30 14885 H 1385.25 -4.38829 5.38938 0
M  V30 14886 H 1388.44 -3.17486 3.43977 0
M  V30 14887 H 1388.62 -4.20601 4.92949 0
M  V30 14888 N 1382.02 -1.04567 -1.17913 0
M  V30 14889 C 1383.27 -0.753137 -1.88297 0
M  V30 14890 C 1383.6 0.717651 -1.80453 0
M  V30 14891 O 1382.88 1.5242 -1.20824 0
M  V30 14892 C 1383.16 -1.22626 -3.38578 0
M  V30 14893 C 1383.01 -2.75952 -3.55205 0
M  V30 14894 C 1384.33 -0.82029 -4.32388 0
M  V30 14895 H 1381.45 -0.275067 -0.683745 0
M  V30 14896 H 1384.09 -1.29856 -1.38699 0
M  V30 14897 H 1382.24 -0.762246 -3.80949 0
M  V30 14898 H 1383.92 -3.30429 -3.21892 0
M  V30 14899 H 1382.16 -3.15534 -2.97693 0
M  V30 14900 H 1382.83 -3.04116 -4.60671 0
M  V30 14901 H 1385.31 -1.21965 -3.97824 0
M  V30 14902 H 1384.18 -1.17902 -5.36088 0
M  V30 14903 H 1384.44 0.276205 -4.41236 0
M  V30 14904 N 1383.5 1.34231 -0.825823 0
M  V30 14905 C 1384.43 2.27366 -0.194964 0
M  V30 14906 C 1385.41 1.49029 0.650315 0
M  V30 14907 O 1386.6 1.7824 0.613424 0
M  V30 14908 C 1383.72 3.30796 0.727439 0
M  V30 14909 C 1382.77 4.26481 -0.0406869 0
M  V30 14910 S 1383.6 5.17151 -1.38981 0
M  V30 14911 C 1384.76 6.24115 -0.472354 0
M  V30 14912 H 1384.99 2.80524 -0.984559 0
M  V30 14913 H 1382.52 1.41323 -0.621875 0
M  V30 14914 H 1384.48 3.90875 1.25406 0
M  V30 14915 H 1383.14 2.76479 1.49058 0
M  V30 14916 H 1382.34 4.99651 0.660652 0
M  V30 14917 H 1381.94 3.7067 -0.497956 0
M  V30 14918 H 1384.23 6.76671 0.334956 0
M  V30 14919 H 1385.17 6.98303 -1.17383 0
M  V30 14920 H 1385.58 5.64469 -0.0594964 0
M  V30 14921 N 1384.98 0.581051 1.46498 0
M  V30 14922 C 1386.23 0.0660934 2.02692 0
M  V30 14923 C 1386.56 -1.28985 1.45178 0
M  V30 14924 O 1385.83 -1.84479 0.616247 0
M  V30 14925 C 1386.12 -0.00145411 3.601 0
M  V30 14926 C 1385.97 1.38327 4.28002 0
M  V30 14927 C 1387.29 -0.702914 4.3445 0
M  V30 14928 H 1384.41 0.0254923 0.736559 0
M  V30 14929 H 1387.05 0.74793 1.7466 0
M  V30 14930 H 1385.2 -0.582118 3.84114 0
M  V30 14931 H 1386.87 2.00897 4.15257 0
M  V30 14932 H 1385.11 1.95144 3.87429 0
M  V30 14933 H 1385.79 1.28849 5.36751 0
M  V30 14934 H 1388.26 -0.209641 4.15572 0
M  V30 14935 H 1387.14 -0.719202 5.44168 0
M  V30 14936 H 1387.4 -1.76389 4.05388 0
M  V30 14937 N 1386.46 -1.54343 0.318742 0
M  V30 14938 C 1387.68 -2.05361 -0.290126 0
M  V30 14939 C 1388.11 -1.19362 -1.45376 0
M  V30 14940 O 1387.47 -0.201639 -1.80175 0
M  V30 14941 C 1387.51 -3.53601 -0.707025 0
M  V30 14942 O 1386.62 -3.70561 -1.80992 0
M  V30 14943 H 1385.96 -0.661858 -0.0532933 0
M  V30 14944 H 1388.49 -1.99228 0.46575 0
M  V30 14945 H 1388.5 -3.95782 -0.991005 0
M  V30 14946 H 1387.17 -4.1565 0.144091 0
M  V30 14947 H 1385.75 -3.40286 -1.52513 0
M  V30 14948 N 1387.94 -0.0468143 -1.5753 0
M  V30 14949 C 1389.18 0.626699 -1.92138 0
M  V30 14950 C 1389.5 1.7164 -0.925463 0
M  V30 14951 O 1388.77 1.95876 0.0303531 0
M  V30 14952 H 1387.35 0.234479 -0.709245 0
M  V30 14953 H 1390.02 -0.0987892 -1.94649 0
M  V30 14954 H 1389.11 1.06811 -2.93254 0
M  V30 14955 N 1389.41 1.55964 0.226527 0
M  V30 14956 C 1390.34 1.95028 1.284 0
M  V30 14957 C 1391.33 0.817833 1.49149 0
M  V30 14958 O 1392.51 1.07975 1.61416 0
M  V30 14959 C 1389.64 2.26266 2.63478 0
M  V30 14960 C 1388.59 3.41954 2.57393 0
M  V30 14961 C 1387.92 3.58786 3.96456 0
M  V30 14962 C 1389.22 4.77069 2.12608 0
M  V30 14963 H 1390.91 2.83608 0.959513 0
M  V30 14964 H 1388.46 1.36451 0.460125 0
M  V30 14965 H 1390.41 2.52186 3.3761 0
M  V30 14966 H 1389.14 1.34533 2.97604 0
M  V30 14967 H 1387.8 3.16076 1.85719 0
M  V30 14968 H 1387.44 2.64437 4.27881 0
M  V30 14969 H 1387.14 4.36595 3.93267 0
M  V30 14970 H 1388.67 3.87048 4.72256 0
M  V30 14971 H 1390.08 5.02226 2.76481 0
M  V30 14972 H 1388.48 5.58126 2.2049 0
M  V30 14973 H 1389.55 4.7276 1.07823 0
M  V30 14974 O 1390.93 -0.372017 1.57157 0
M  V30 14975 H 1391.62 -1.02306 1.64479 0
M  V30 END ATOM
M  V30 BEGIN BOND
M  V30 END BOND
M  V30 END CTAB
M  END
$$$$
