drugbank_target|O75838 Calcium and integrin-binding family member 2 (DB11093; DB11348; DB14481)
 OpenBabel12092121053D

  0  0  0     0  0            999 V3000
M  V30 BEGIN CTAB
M  V30 COUNTS 3001 3032 0 0 0
M  V30 BEGIN ATOM
M  V30 1 H -0.908 1.98254 -0.117106 0
M  V30 2 N 0 1.576 0 0
M  V30 3 C 0.933 2.03868 1.02534 0
M  V30 4 C 1.911 0.928543 1.3348 0
M  V30 5 O 3.095 1.19667 1.45644 0
M  V30 6 C 0.222 2.43627 2.35294 0
M  V30 7 C -0.732 3.65373 2.2001 0
M  V30 8 S 0.101 5.13292 1.52614 0
M  V30 9 C 1.257 5.56322 2.86805 0
M  V30 10 H 1.49 2.90518 0.631377 0
M  V30 11 H -0.977 1.52953 0.210867 0
M  V30 12 H 0.981 2.67203 3.11629 0
M  V30 13 H -0.358 1.57376 2.7183 0
M  V30 14 H -1.165 3.90944 3.18086 0
M  V30 15 H -1.563 3.418 1.51819 0
M  V30 16 H 0.729 5.58782 3.83104 0
M  V30 17 H 1.672 6.56266 2.65933 0
M  V30 18 H 2.08 4.83886 2.90714 0
M  V30 19 N 1.4781 -0.272755 1.55222 0
M  V30 20 C 2.7261 -1.00234 1.75492 0
M  V30 21 C 3.0471 -1.8681 0.5592 0
M  V30 22 O 2.3171 -1.91215 -0.425882 0
M  V30 23 H 0.8971 -0.373076 0.647166 0
M  V30 24 H 3.5591 -0.296926 1.92625 0
M  V30 25 H 2.6551 -1.63913 2.65592 0
M  V30 26 N 2.9562 -1.48159 -0.537278 0
M  V30 27 C 3.9042 -1.62573 -1.66352 0
M  V30 28 C 4.8982 -0.492366 -1.62087 0
M  V30 29 O 6.1042 -0.670847 -1.67032 0
M  V30 30 H 2.4792 -0.511992 -0.550789 0
M  V30 31 H 4.4502 -2.57176 -1.51337 0
M  V30 32 C 3.1992 -1.67583 -3.04649 0
M  V30 33 H 2.5222 -2.54151 -3.08622 0
M  V30 34 H 3.9622 -1.81713 -3.83088 0
M  V30 35 C 2.4212 -0.413039 -3.34358 0
M  V30 36 O 2.9512 0.477259 -3.98855 0
M  V30 37 N 1.1572 -0.286961 -2.8918 0
M  V30 38 H 0.7042 -1.01241 -2.36871 0
M  V30 39 H 0.6622 0.556963 -3.09427 0
M  V30 40 N 4.4343 0.785586 -1.36625 0
M  V30 41 C 5.3813 1.89838 -1.31264 0
M  V30 42 C 6.3513 1.65115 -0.180633 0
M  V30 43 O 7.5363 1.87222 -0.36777 0
M  V30 44 C 4.6763 3.26706 -1.11163 0
M  V30 45 C 3.7893 3.63476 -2.33472 0
M  V30 46 C 2.9243 4.89481 -2.06353 0
M  V30 47 C 1.9633 5.18941 -3.24602 0
M  V30 48 N 1.1003 6.36131 -2.97123 0
M  V30 49 H 5.9403 1.93756 -2.26413 0
M  V30 50 H 3.4773 0.947454 -1.12524 0
M  V30 51 H 5.4353 4.05639 -0.975337 0
M  V30 52 H 4.0653 3.222 -0.196674 0
M  V30 53 H 3.1173 2.79636 -2.57891 0
M  V30 54 H 4.4293 3.81193 -3.21704 0
M  V30 55 H 3.5833 5.76288 -1.89675 0
M  V30 56 H 2.3223 4.73841 -1.15437 0
M  V30 57 H 1.3273 4.30615 -3.41834 0
M  V30 58 H 2.5523 5.36498 -4.16349 0
M  V30 59 H 0.4983 6.21875 -2.08823 0
M  V30 60 H 0.4153 6.54198 -3.78894 0
M  V30 61 H 1.6833 7.2591 -2.84033 0
M  V30 62 N 5.9124 1.20967 1.01018 0
M  V30 63 C 6.8444 0.922059 2.09835 0
M  V30 64 C 7.8574 -0.0927106 1.62536 0
M  V30 65 O 9.0464 0.139127 1.77957 0
M  V30 66 C 6.1464 0.362004 3.36961 0
M  V30 67 C 5.3194 1.42986 4.13369 0
M  V30 68 C 4.3784 0.879976 5.1879 0
M  V30 69 O 3.4044 1.56219 5.47343 0
M  V30 70 N 4.6064 -0.307396 5.79686 0
M  V30 71 H 7.3714 1.8588 2.35093 0
M  V30 72 H 4.9324 1.11422 1.1746 0
M  V30 73 H 6.9244 -0.0201474 4.04695 0
M  V30 74 H 5.4944 -0.479437 3.08902 0
M  V30 75 H 4.7144 1.98608 3.40512 0
M  V30 76 H 6.0024 2.14885 4.61196 0
M  V30 77 H 5.4004 -0.878796 5.58832 0
M  V30 78 H 3.9574 -0.631115 6.48737 0
M  V30 79 N 7.3905 -1.2043 1.01659 0
M  V30 80 C 8.6185 -1.93777 0.725132 0
M  V30 81 C 9.0335 -1.74772 -0.714166 0
M  V30 82 O 8.3905 -1.06169 -1.4844 0
M  V30 83 C 8.4415 -3.45876 1.05129 0
M  V30 84 O 8.1625 -3.6426 2.43406 0
M  V30 85 C 9.6635 -4.36368 0.780891 0
M  V30 86 H 6.8835 -0.615901 0.266284 0
M  V30 87 H 9.4275 -1.52922 1.35776 0
M  V30 88 H 7.5825 -3.8461 0.464065 0
M  V30 89 H 7.9965 -4.58246 2.55169 0
M  V30 90 H 9.4705 -5.41743 1.05918 0
M  V30 91 H 9.9475 -4.38275 -0.284937 0
M  V30 92 H 10.5535 -4.03296 1.35027 0
M  V30 93 N 8.8686 -0.792821 -1.36206 0
M  V30 94 C 10.1176 -0.363353 -1.984 0
M  V30 95 C 10.4306 1.07172 -1.63626 0
M  V30 96 O 11.6366 1.60362 -2.19081 0
M  V30 97 C 10.0926 -0.59872 -3.54885 0
M  V30 98 C 9.7006 -2.04543 -3.9858 0
M  V30 99 C 11.4446 -0.233926 -4.23855 0
M  V30 100 C 9.3516 -2.22727 -5.47856 0
M  V30 101 H 8.2816 -0.13212 -0.742334 0
M  V30 102 H 10.9326 -0.974935 -1.55458 0
M  V30 103 H 9.3146 0.0826222 -3.95914 0
M  V30 104 H 10.4886 -2.76345 -3.68741 0
M  V30 105 H 8.8036 -2.36879 -3.42458 0
M  V30 106 H 11.4006 -0.348027 -5.33566 0
M  V30 107 H 11.7436 0.818351 -4.08177 0
M  V30 108 H 12.2766 -0.868639 -3.882 0
M  V30 109 H 9.0156 -3.2635 -5.68486 0
M  V30 110 H 8.5356 -1.55434 -5.7931 0
M  V30 111 H 10.2146 -2.03607 -6.14128 0
M  V30 112 N 10.3467 1.47872 -0.545128 0
M  V30 113 C 11.5937 2.02493 -0.0165858 0
M  V30 114 C 11.9217 1.42073 1.32836 0
M  V30 115 O 11.1767 0.561459 1.87473 0
M  V30 116 C 11.4757 3.57131 0.13867 0
M  V30 117 C 11.1417 4.36411 -1.13384 0
M  V30 118 C 9.8037 4.57792 -1.48256 0
M  V30 119 C 12.1557 4.82223 -1.97764 0
M  V30 120 C 9.4837 5.22233 -2.67376 0
M  V30 121 C 11.8357 5.47977 -3.16076 0
M  V30 122 C 10.4997 5.67593 -3.51275 0
M  V30 123 H 9.7697 0.740975 -0.00606918 0
M  V30 124 H 12.4167 1.77683 -0.714207 0
M  V30 125 H 10.7217 3.80865 0.919172 0
M  V30 126 H 12.4187 3.97031 0.562782 0
M  V30 127 H 9.0087 4.2004 -0.852297 0
M  V30 128 H 13.1927 4.65493 -1.72132 0
M  V30 129 H 8.4487 5.35616 -2.94831 0
M  V30 130 H 12.6227 5.8244 -3.81755 0
M  V30 131 H 10.2497 6.17298 -4.43675 0
M  V30 132 N 11.8248 0.280983 1.55075 0
M  V30 133 C 13.0528 -0.337293 2.04132 0
M  V30 134 C 13.4678 -1.4903 1.15912 0
M  V30 135 O 12.8248 -1.81606 0.180459 0
M  V30 136 C 12.8758 -0.812706 3.52246 0
M  V30 137 O 12.5968 0.294387 4.3711 0
M  V30 138 C 14.0978 -1.4982 4.17216 0
M  V30 139 H 11.3178 -0.0761638 0.666663 0
M  V30 140 H 13.8618 0.414787 2.00249 0
M  V30 141 H 12.0168 -1.51486 3.56554 0
M  V30 142 H 12.4308 -0.0721325 5.2445 0
M  V30 143 H 13.9048 -1.7822 5.22438 0
M  V30 144 H 14.3818 -2.43168 3.65741 0
M  V30 145 H 14.9878 -0.839742 4.16927 0
M  V30 146 N 13.3029 -1.57598 0.00835791 0
M  V30 147 C 14.2129 -2.12385 -0.996487 0
M  V30 148 C 15.2289 -1.07108 -1.37127 0
M  V30 149 O 16.4049 -1.39055 -1.4569 0
M  V30 150 C 13.4699 -2.62314 -2.26699 0
M  V30 151 C 12.5309 -3.82225 -1.95456 0
M  V30 152 C 11.7639 -4.29763 -3.16449 0
M  V30 153 O 11.9869 -3.76584 -4.28416 0
M  V30 154 O 10.9209 -5.21832 -2.99958 0
M  V30 155 H 14.7469 -2.98479 -0.560725 0
M  V30 156 H 12.3319 -1.47903 -0.210987 0
M  V30 157 H 14.2139 -2.94589 -3.01322 0
M  V30 158 H 12.8889 -1.79313 -2.69497 0
M  V30 159 H 11.7959 -3.54909 -1.18282 0
M  V30 160 H 13.1289 -4.66324 -1.57489 0
M  V30 161 N 14.781 0.264519 -1.55364 0
M  V30 162 C 15.691 1.34902 -1.91934 0
M  V30 163 C 16.707 1.53595 -0.817593 0
M  V30 164 O 17.883 1.67558 -1.11742 0
M  V30 165 C 14.948 2.68676 -2.19121 0
M  V30 166 C 14.009 2.58657 -3.4263 0
M  V30 167 C 13.242 3.86051 -3.68511 0
M  V30 168 O 13.465 4.87126 -2.96757 0
M  V30 169 O 12.399 3.85744 -4.62045 0
M  V30 170 H 16.225 1.06883 -2.8427 0
M  V30 171 H 13.81 0.463775 -1.42019 0
M  V30 172 H 15.692 3.47759 -2.37995 0
M  V30 173 H 14.367 2.96463 -1.29966 0
M  V30 174 H 13.274 1.7792 -3.29082 0
M  V30 175 H 14.607 2.35818 -4.32031 0
M  V30 176 N 16.2591 1.48442 0.529413 0
M  V30 177 C 17.1911 1.59095 1.64989 0
M  V30 178 C 18.2041 0.475212 1.5571 0
M  V30 179 O 19.3931 0.746081 1.6216 0
M  V30 180 C 16.4931 1.50518 3.0364 0
M  V30 181 C 15.6661 2.77142 3.38395 0
M  V30 182 C 14.7251 2.62012 4.56329 0
M  V30 183 O 13.7511 3.35898 4.59522 0
M  V30 184 N 14.9531 1.71667 5.54536 0
M  V30 185 H 17.7181 2.55723 1.56287 0
M  V30 186 H 15.2791 1.45173 0.716697 0
M  V30 187 H 17.2711 1.38091 3.80412 0
M  V30 188 H 15.8411 0.618627 3.06418 0
M  V30 189 H 15.0611 3.0413 2.50796 0
M  V30 190 H 16.3491 3.61146 3.58401 0
M  V30 191 H 15.7471 1.10841 5.54735 0
M  V30 192 H 14.3041 1.65178 6.30523 0
M  V30 193 N 17.7372 -0.778329 1.37039 0
M  V30 194 C 18.6672 -1.90546 1.34962 0
M  V30 195 C 19.6482 -1.68681 0.219274 0
M  V30 196 O 20.8332 -1.89634 0.418624 0
M  V30 197 C 17.9632 -3.27734 1.14925 0
M  V30 198 C 16.9172 -3.64147 2.24902 0
M  V30 199 C 16.2432 -4.99806 1.89996 0
M  V30 200 C 17.5432 -3.71579 3.67051 0
M  V30 201 H 19.2372 -1.92541 2.29277 0
M  V30 202 H 16.7832 -0.924948 1.10366 0
M  V30 203 H 18.7362 -4.06215 1.12104 0
M  V30 204 H 17.4602 -3.26154 0.170631 0
M  V30 205 H 16.1192 -2.8797 2.26868 0
M  V30 206 H 15.7672 -4.94759 0.906796 0
M  V30 207 H 15.4672 -5.25139 2.63634 0
M  V30 208 H 16.9912 -5.80694 1.88749 0
M  V30 209 H 18.4052 -4.40227 3.67251 0
M  V30 210 H 16.8022 -4.08405 4.39688 0
M  V30 211 H 17.8722 -2.72404 4.01154 0
M  V30 212 N 19.2153 -1.21501 -1.00376 0
M  V30 213 C 20.4923 -0.941745 -1.71437 0
M  V30 214 C 20.8723 0.546114 -2.03914 0
M  V30 215 O 20.2203 1.51128 -1.71384 0
M  V30 216 C 20.4303 -1.82812 -2.97289 0
M  V30 217 C 21.7783 -2.07771 -3.70292 0
M  V30 218 O 22.8023 -1.80171 -3.07273 0
M  V30 219 O 21.6613 -2.54456 -4.83647 0
M  V30 220 H 18.7553 -0.353243 -0.747762 0
M  V30 221 H 21.3013 -1.32436 -1.06108 0
M  V30 222 H 20.0733 -2.83501 -2.69709 0
M  V30 223 H 19.6963 -1.4464 -3.70358 0
M  V30 224 N 20.6934 1.19889 -1.02296 0
M  V30 225 C 21.6414 2.24938 -0.592081 0
M  V30 226 C 22.6354 1.65257 0.372357 0
M  V30 227 O 23.8414 1.78371 0.241583 0
M  V30 228 H 20.2164 0.731787 -0.173182 0
M  V30 229 H 22.1874 2.58603 -1.48885 0
M  V30 230 C 20.9364 3.47668 0.047351 0
M  V30 231 H 20.2594 3.93875 -0.685772 0
M  V30 232 H 21.6994 4.22852 0.311862 0
M  V30 233 C 20.1584 3.11136 1.29212 0
M  V30 234 O 20.6884 3.2325 2.38479 0
M  V30 235 N 18.8944 2.65625 1.17863 0
M  V30 236 H 18.4414 2.55968 0.289493 0
M  V30 237 H 18.3994 2.41553 2.01245 0
M  V30 238 N 22.1715 0.800033 1.35784 0
M  V30 239 C 23.4015 0.389041 2.02904 0
M  V30 240 C 23.8095 -1.0027 1.60445 0
M  V30 241 O 23.1525 -1.65633 0.794453 0
M  V30 242 C 23.2145 0.385495 3.57427 0
M  V30 243 C 22.8785 1.72662 4.23127 0
M  V30 244 C 23.8755 2.68385 4.4527 0
M  V30 245 C 21.5605 2.00883 4.60381 0
M  V30 246 C 23.5545 3.90517 5.03761 0
M  V30 247 C 21.2415 3.2328 5.18588 0
M  V30 248 C 22.2395 4.17915 5.40218 0
M  V30 249 O 21.9275 5.38153 5.97199 0
M  V30 250 H 21.6595 0.157032 0.657508 0
M  V30 251 H 24.2135 1.08311 1.74522 0
M  V30 252 H 22.4435 -0.365128 3.84972 0
M  V30 253 H 24.1325 -0.00228296 4.059 0
M  V30 254 H 24.8985 2.47872 4.16874 0
M  V30 255 H 20.7775 1.28037 4.42863 0
M  V30 256 H 24.3215 4.64395 5.2056 0
M  V30 257 H 20.2185 3.43667 5.4641 0
M  V30 258 H 20.9865 5.3936 6.15656 0
M  V30 259 N 23.6496 -1.47581 0.552962 0
M  V30 260 C 24.5816 -2.27997 -0.234533 0
M  V30 261 C 25.5946 -1.36753 -0.883321 0
M  V30 262 O 26.7836 -1.61612 -0.757889 0
M  V30 263 C 23.8836 -3.10879 -1.34935 0
M  V30 264 C 23.0566 -4.30056 -0.798158 0
M  V30 265 C 22.1156 -4.94567 -1.79694 0
M  V30 266 O 21.1416 -5.53087 -1.34474 0
M  V30 267 N 22.3436 -4.88878 -3.13015 0
M  V30 268 H 25.1086 -2.96222 0.455255 0
M  V30 269 H 22.6696 -1.57163 0.388761 0
M  V30 270 H 24.6616 -3.50903 -2.01616 0
M  V30 271 H 23.2316 -2.44924 -1.94244 0
M  V30 272 H 22.4516 -3.94174 0.0453079 0
M  V30 273 H 23.7396 -5.07152 -0.409173 0
M  V30 274 H 23.1376 -4.42526 -3.52402 0
M  V30 275 H 21.6946 -5.32934 -3.75266 0
M  V30 276 N 25.1277 -0.289203 -1.54924 0
M  V30 277 C 26.4047 0.376032 -1.91951 0
M  V30 278 C 26.7847 1.72622 -1.21511 0
M  V30 279 O 26.1327 2.25853 -0.346767 0
M  V30 280 C 26.3427 0.502378 -3.45365 0
M  V30 281 C 27.6907 0.778741 -4.17398 0
M  V30 282 O 28.7147 0.586647 -3.51336 0
M  V30 283 O 27.5737 1.14698 -5.34328 0
M  V30 284 H 24.6677 0.208167 -0.800372 0
M  V30 285 H 27.2137 -0.336394 -1.66332 0
M  V30 286 H 25.9857 -0.447255 -3.88736 0
M  V30 287 H 25.6087 1.26373 -3.76982 0
M  V30 288 N 26.6058 1.57591 -0.0167156 0
M  V30 289 C 27.8458 1.93145 0.668902 0
M  V30 290 C 28.2098 0.892406 1.7 0
M  V30 291 O 29.4108 1.13373 2.43721 0
M  V30 292 C 27.6818 3.33678 1.28039 0
M  V30 293 S 29.2408 3.91142 1.9888 0
M  V30 294 H 26.0588 0.67593 0.220545 0
M  V30 295 H 28.6608 1.95347 -0.0774105 0
M  V30 296 H 27.3648 4.07126 0.517339 0
M  V30 297 H 26.8958 3.3489 2.06427 0
M  V30 298 H 28.9108 3.73571 3.26587 0
M  V30 299 N 28.0839 -0.256276 1.55502 0
M  V30 300 C 29.3119 -1.00342 1.8094 0
M  V30 301 C 29.7269 -1.79307 0.59114 0
M  V30 302 O 29.0839 -1.77114 -0.440081 0
M  V30 303 C 29.1349 -1.94875 3.04476 0
M  V30 304 O 28.8559 -1.19107 4.21598 0
M  V30 305 C 30.3569 -2.81266 3.42644 0
M  V30 306 H 27.5769 -0.295685 0.602338 0
M  V30 307 H 30.1209 -0.281998 2.02546 0
M  V30 308 H 28.2759 -2.62457 2.84947 0
M  V30 309 H 28.6899 -1.82969 4.91551 0
M  V30 310 H 30.1639 -3.43362 4.32211 0
M  V30 311 H 30.6409 -3.51897 2.62802 0
M  V30 312 H 31.2469 -2.1915 3.64491 0
M  V30 313 N 29.562 -1.4872 -0.521534 0
M  V30 314 C 30.809 -1.57168 -1.27689 0
M  V30 315 C 31.137 -0.249275 -1.92896 0
M  V30 316 O 30.392 0.761162 -1.80291 0
M  V30 317 C 30.691 -2.66497 -2.38148 0
M  V30 318 C 30.357 -4.08664 -1.90538 0
M  V30 319 C 29.019 -4.47357 -1.77271 0
M  V30 320 C 31.371 -4.97724 -1.54663 0
M  V30 321 C 28.699 -5.72905 -1.26478 0
M  V30 322 C 31.051 -6.2377 -1.05329 0
M  V30 323 C 29.715 -6.61311 -0.906861 0
M  V30 324 H 28.985 -0.575117 -0.467249 0
M  V30 325 H 31.632 -1.82472 -0.581051 0
M  V30 326 H 29.937 -2.35085 -3.13437 0
M  V30 327 H 31.634 -2.70246 -2.96257 0
M  V30 328 H 28.224 -3.78111 -2.01816 0
M  V30 329 H 32.408 -4.68501 -1.63768 0
M  V30 330 H 27.664 -6.00709 -1.13835 0
M  V30 331 H 31.838 -6.9217 -0.76644 0
M  V30 332 H 29.465 -7.5848 -0.511083 0
M  V30 333 N 31.0401 0.771051 -1.3745 0
M  V30 334 C 32.2871 1.52963 -1.32697 0
M  V30 335 C 32.6151 1.94299 0.0883274 0
M  V30 336 O 31.8701 1.64397 1.0617 0
M  V30 337 C 32.1691 2.80676 -2.2126 0
M  V30 338 C 31.8351 2.58389 -3.69521 0
M  V30 339 C 30.4971 2.52019 -4.09927 0
M  V30 340 C 32.8491 2.38469 -4.63446 0
M  V30 341 C 30.1771 2.23721 -5.42371 0
M  V30 342 C 32.5291 2.11694 -5.96128 0
M  V30 343 C 31.1931 2.03769 -6.35637 0
M  V30 344 H 30.4631 0.559732 -0.485573 0
M  V30 345 H 33.1101 0.888083 -1.69662 0
M  V30 346 H 31.4151 3.49392 -1.77291 0
M  V30 347 H 33.1121 3.38557 -2.14895 0
M  V30 348 H 29.7021 2.6421 -3.37478 0
M  V30 349 H 33.8861 2.4238 -4.33089 0
M  V30 350 H 29.1421 2.16081 -5.71943 0
M  V30 351 H 33.3161 1.9528 -6.6846 0
M  V30 352 H 30.9431 1.81606 -7.38189 0
M  V30 353 N 32.5182 1.22032 0.997298 0
M  V30 354 C 33.4662 0.983634 2.10778 0
M  V30 355 C 34.4602 -0.0717564 1.69248 0
M  V30 356 O 35.6662 0.080304 1.79821 0
M  V30 357 H 32.0412 0.300877 0.689186 0
M  V30 358 H 34.0122 1.92606 2.27916 0
M  V30 359 C 32.7612 0.57326 3.42942 0
M  V30 360 H 32.0842 1.37702 3.75338 0
M  V30 361 H 33.5242 0.447031 4.21637 0
M  V30 362 C 31.9832 -0.7167 3.29188 0
M  V30 363 O 32.5132 -1.77027 3.60589 0
M  V30 364 N 30.7192 -0.686167 2.82383 0
M  V30 365 H 30.2662 0.171507 2.57028 0
M  V30 366 H 30.2242 -1.54955 2.73562 0
M  V30 367 N 33.9963 -1.19345 1.0293 0
M  V30 368 C 34.9433 -2.2258 0.610464 0
M  V30 369 C 35.9133 -1.6179 -0.375946 0
M  V30 370 O 37.0983 -1.88844 -0.272511 0
M  V30 371 C 34.2383 -3.45085 -0.0321473 0
M  V30 372 C 33.3513 -4.20258 1.00035 0
M  V30 373 C 32.4863 -5.3019 0.32746 0
M  V30 374 C 31.5253 -5.97121 1.34584 0
M  V30 375 N 30.6623 -6.98615 0.698726 0
M  V30 376 H 35.5023 -2.57764 1.49538 0
M  V30 377 H 33.0393 -1.26644 0.748311 0
M  V30 378 H 34.9973 -4.15061 -0.421966 0
M  V30 379 H 33.6273 -3.10555 -0.88064 0
M  V30 380 H 32.6793 -3.49223 1.50823 0
M  V30 381 H 33.9913 -4.66175 1.77433 0
M  V30 382 H 33.1453 -6.06587 -0.11718 0
M  V30 383 H 31.8843 -4.85345 -0.478713 0
M  V30 384 H 30.8893 -5.19474 1.80074 0
M  V30 385 H 32.1143 -6.4405 2.15352 0
M  V30 386 H 30.0603 -6.55942 -0.0873471 0
M  V30 387 H 29.9773 -7.42724 1.41058 0
M  V30 388 H 31.2453 -7.79004 0.278102 0
M  V30 389 N 35.4744 -0.807222 -1.35358 0
M  V30 390 C 36.4214 -0.216037 -2.29787 0
M  V30 391 C 37.3914 0.650278 -1.52842 0
M  V30 392 O 38.5764 0.595227 -1.81278 0
M  V30 393 C 35.7164 0.628893 -3.39321 0
M  V30 394 C 34.8294 -0.257927 -4.31229 0
M  V30 395 C 33.9644 0.595069 -5.27856 0
M  V30 396 C 33.0034 -0.292111 -6.11403 0
M  V30 397 N 32.1404 0.520895 -7.00165 0
M  V30 398 H 36.9804 -1.02671 -2.79755 0
M  V30 399 H 34.5174 -0.517839 -1.37684 0
M  V30 400 H 36.4754 1.13393 -4.01494 0
M  V30 401 H 35.1054 1.40482 -2.90628 0
M  V30 402 H 34.1574 -0.881076 -3.70056 0
M  V30 403 H 35.4694 -0.940759 -4.89848 0
M  V30 404 H 34.6234 1.16522 -5.95405 0
M  V30 405 H 33.3624 1.31146 -4.69736 0
M  V30 406 H 32.3674 -0.874525 -5.428 0
M  V30 407 H 33.5924 -1.00638 -6.71602 0
M  V30 408 H 31.5384 1.22125 -6.44532 0
M  V30 409 H 31.4554 -0.103877 -7.55929 0
M  V30 410 H 32.7234 1.0743 -7.72062 0
M  V30 411 N 36.9525 1.47285 -0.560781 0
M  V30 412 C 38.2295 1.9558 0.0277798 0
M  V30 413 C 38.6095 1.5034 1.48192 0
M  V30 414 O 37.9575 0.743882 2.16052 0
M  V30 415 C 38.1675 3.48789 -0.121418 0
M  V30 416 C 39.5155 4.24594 0.0220912 0
M  V30 417 O 40.5395 3.56166 -0.0491439 0
M  V30 418 O 39.3985 5.46217 0.175958 0
M  V30 419 H 36.4925 0.824663 0.0621342 0
M  V30 420 H 39.0385 1.5767 -0.627556 0
M  V30 421 H 37.8105 3.74533 -1.13316 0
M  V30 422 H 37.4335 3.93473 0.571366 0
M  V30 423 N 38.4306 0.297415 1.54768 0
M  V30 424 C 39.6796 -0.313669 1.99246 0
M  V30 425 C 39.9926 -1.55281 1.18942 0
M  V30 426 O 41.1986 -2.23825 1.5367 0
M  V30 427 C 39.6546 -0.609407 3.54703 0
M  V30 428 C 39.2626 0.611192 4.43811 0
M  V30 429 C 41.0066 -1.18188 4.07715 0
M  V30 430 C 38.9136 0.288805 5.90694 0
M  V30 431 H 37.8436 -0.120979 0.744231 0
M  V30 432 H 40.4946 0.40556 1.78962 0
M  V30 433 H 38.8766 -1.38813 3.70873 0
M  V30 434 H 40.0506 1.3875 4.39414 0
M  V30 435 H 38.3656 1.10205 4.01552 0
M  V30 436 H 40.9626 -1.43727 5.15021 0
M  V30 437 H 41.3056 -2.12299 3.58099 0
M  V30 438 H 41.8386 -0.464944 3.95074 0
M  V30 439 H 38.5776 1.19838 6.44453 0
M  V30 440 H 38.0976 -0.450305 5.98107 0
M  V30 441 H 39.7766 -0.110933 6.46905 0
M  V30 442 N 39.9087 -1.5758 0.0250728 0
M  V30 443 C 40.8387 -2.13007 -0.956575 0
M  V30 444 C 41.8197 -1.0452 -1.342 0
M  V30 445 O 43.0047 -1.32332 -1.42133 0
M  V30 446 C 40.1347 -2.65386 -2.24026 0
M  V30 447 C 39.0887 -3.78623 -1.99571 0
M  V30 448 C 38.4147 -4.17414 -3.3417 0
M  V30 449 C 39.7147 -5.04867 -1.33814 0
M  V30 450 H 41.4087 -2.9528 -0.494991 0
M  V30 451 H 38.9547 -1.42042 -0.236651 0
M  V30 452 H 40.9077 -3.02794 -2.93076 0
M  V30 453 H 39.6317 -1.80268 -2.72343 0
M  V30 454 H 38.2907 -3.41646 -1.32941 0
M  V30 455 H 37.9387 -3.29284 -3.80238 0
M  V30 456 H 37.6387 -4.93719 -3.18615 0
M  V30 457 H 39.1627 -4.57402 -4.04495 0
M  V30 458 H 40.5767 -5.39888 -1.92857 0
M  V30 459 H 38.9737 -5.86144 -1.28669 0
M  V30 460 H 40.0437 -4.83904 -0.310561 0
M  V30 461 N 41.3868 0.248026 -1.55636 0
M  V30 462 C 42.3338 1.30707 -1.90222 0
M  V30 463 C 43.3038 1.47881 -0.756332 0
M  V30 464 O 44.4888 1.61883 -1.00988 0
M  V30 465 C 41.6288 2.65769 -2.20138 0
M  V30 466 C 40.7418 2.56612 -3.47526 0
M  V30 467 C 39.8768 3.8402 -3.67017 0
M  V30 468 C 38.9158 3.69476 -4.8801 0
M  V30 469 N 38.0528 4.88774 -5.04029 0
M  V30 470 H 42.8928 1.00512 -2.80538 0
M  V30 471 H 40.4298 0.485055 -1.38873 0
M  V30 472 H 42.3878 3.44386 -2.35487 0
M  V30 473 H 41.0178 2.94115 -1.33027 0
M  V30 474 H 40.0698 1.69571 -3.40514 0
M  V30 475 H 41.3818 2.41774 -4.36287 0
M  V30 476 H 40.5358 4.7108 -3.8232 0
M  V30 477 H 39.2748 4.01754 -2.76487 0
M  V30 478 H 38.2798 2.80799 -4.72686 0
M  V30 479 H 39.5048 3.53238 -5.8 0
M  V30 480 H 37.4508 5.0687 -4.16435 0
M  V30 481 H 37.3678 4.76562 -5.86877 0
M  V30 482 H 38.6358 5.77335 -5.23741 0
M  V30 483 N 42.8649 1.48995 0.513639 0
M  V30 484 C 43.7949 1.67636 1.62544 0
M  V30 485 C 44.7759 0.525087 1.61793 0
M  V30 486 O 45.9609 0.759502 1.78732 0
M  V30 487 C 43.0909 1.73114 3.01079 0
M  V30 488 C 42.0449 2.87905 3.16693 0
M  V30 489 C 41.3709 2.78486 4.56453 0
M  V30 490 C 42.6709 4.29005 2.97913 0
M  V30 491 H 44.3649 2.60716 1.47198 0
M  V30 492 H 41.9109 1.25465 0.706714 0
M  V30 493 H 43.8639 1.84742 3.78746 0
M  V30 494 H 42.5879 0.766241 3.17484 0
M  V30 495 H 41.2469 2.75859 2.41448 0
M  V30 496 H 40.8949 1.7993 4.69717 0
M  V30 497 H 40.5949 3.55523 4.67843 0
M  V30 498 H 42.1189 2.92104 5.36197 0
M  V30 499 H 43.5329 4.41798 3.65359 0
M  V30 500 H 41.9299 5.07166 3.20785 0
M  V30 501 H 42.9999 4.44329 1.94165 0
M  V30 502 N 44.343 -0.763751 1.37857 0
M  V30 503 C 45.293 -1.86765 1.30777 0
M  V30 504 C 46.277 -1.59726 0.194015 0
M  V30 505 O 47.469 -1.7172 0.42911 0
M  V30 506 C 44.598 -3.24343 1.12502 0
M  V30 507 C 43.684 -3.57307 2.28456 0
M  V30 508 N 44.075 -3.61398 3.53871 0
M  V30 509 C 42.373 -3.87517 2.20786 0
M  V30 510 C 43.074 -3.91339 4.30382 0
M  V30 511 N 42.05 -4.07649 3.59615 0
M  V30 512 H 45.852 -1.88191 2.25746 0
M  V30 513 H 43.366 -0.9606 1.30944 0
M  V30 514 H 45.363 -4.03327 1.05514 0
M  V30 515 H 44.023 -3.24175 0.184574 0
M  V30 516 H 45.034 -3.43407 3.87675 0
M  V30 517 H 41.711 -3.95125 1.34844 0
M  V30 518 H 43.101 -4.01213 5.3896 0
M  V30 519 N 45.8211 -1.22559 -0.990812 0
M  V30 520 C 47.0461 -1.07862 -1.77145 0
M  V30 521 C 47.4711 0.366447 -1.84496 0
M  V30 522 O 46.8291 1.26478 -1.29896 0
M  V30 523 C 46.8771 -1.69686 -3.18181 0
M  V30 524 O 45.9811 -0.951946 -4.01263 0
M  V30 525 H 45.3221 -0.378712 -0.545411 0
M  V30 526 H 47.8521 -1.62399 -1.2445 0
M  V30 527 H 47.8621 -1.74496 -3.68802 0
M  V30 528 H 46.5371 -2.74841 -3.12146 0
M  V30 529 H 45.1141 -0.980011 -3.59792 0
M  V30 530 N 47.2992 1.18797 -1.03562 0
M  V30 531 C 48.7152 1.40671 -0.753917 0
M  V30 532 C 48.9152 1.9043 0.658686 0
M  V30 533 O 47.9712 2.08538 1.42366 0
M  V30 534 C 49.2842 2.41192 -1.79574 0
M  V30 535 C 50.8322 2.54928 -1.81606 0
M  V30 536 C 51.3072 3.58709 -2.84766 0
M  V30 537 N 52.7982 3.66212 -2.83625 0
M  V30 538 C 53.5332 4.46225 -3.60098 0
M  V30 539 N 53.0292 5.29888 -4.46308 0
M  V30 540 N 54.8222 4.40939 -3.4861 0
M  V30 541 H 46.9732 0.848221 -1.94728 0
M  V30 542 H 49.2362 0.435081 -0.842264 0
M  V30 543 H 48.9422 2.11669 -2.80872 0
M  V30 544 H 48.8162 3.40467 -1.62365 0
M  V30 545 H 51.2032 2.83771 -0.809817 0
M  V30 546 H 51.2842 1.55784 -2.02891 0
M  V30 547 H 50.9282 3.30607 -3.85566 0
M  V30 548 H 50.8582 4.57519 -2.60737 0
M  V30 549 H 53.3492 3.06466 -2.21105 0
M  V30 550 H 53.6622 5.88078 -5.01382 0
M  V30 551 H 52.0072 5.29326 -4.50377 0
M  V30 552 H 55.1982 3.74624 -2.80668 0
M  V30 553 H 55.3712 5.03056 -4.08459 0
M  V30 554 N 48.7773 0.814389 1.34928 0
M  V30 555 C 50.0243 0.398423 1.98542 0
M  V30 556 C 50.3523 -1.03638 1.64589 0
M  V30 557 O 49.6073 -1.73509 0.90516 0
M  V30 558 C 49.9063 0.537781 3.53331 0
M  V30 559 C 49.5723 1.93704 4.07172 0
M  V30 560 C 48.2343 2.31984 4.21589 0
M  V30 561 C 50.5863 2.85213 4.36237 0
M  V30 562 C 47.9143 3.61125 4.62391 0
M  V30 563 C 50.2663 4.13809 4.78482 0
M  V30 564 C 48.9303 4.52077 4.91104 0
M  V30 565 H 48.2003 0.145793 0.726516 0
M  V30 566 H 50.8473 1.03669 1.61012 0
M  V30 567 H 49.1523 -0.183906 3.91368 0
M  V30 568 H 50.8493 0.196588 4.00518 0
M  V30 569 H 47.4393 1.62966 3.96409 0
M  V30 570 H 51.6233 2.56885 4.24645 0
M  V30 571 H 46.8793 3.90612 4.70353 0
M  V30 572 H 51.0533 4.84811 4.99932 0
M  V30 573 H 48.6803 5.52196 5.22478 0
M  V30 574 N 50.2554 -1.46986 0.568584 0
M  V30 575 C 51.4854 -2.0653 0.0539173 0
M  V30 576 C 51.8934 -1.42004 -1.25026 0
M  V30 577 O 51.2364 -0.514541 -1.76347 0
M  V30 578 C 51.2984 -3.58938 -0.200854 0
M  V30 579 C 50.9624 -4.45572 1.01559 0
M  V30 580 C 51.9594 -4.82986 1.92407 0
M  V30 581 C 49.6444 -4.8692 1.23346 0
M  V30 582 C 51.6384 -5.60559 3.03402 0
M  V30 583 C 49.3254 -5.64255 2.34649 0
M  V30 584 C 50.3234 -6.00986 3.24507 0
M  V30 585 O 50.0114 -6.76761 4.33878 0
M  V30 586 H 49.7434 -0.674292 0.0480234 0
M  V30 587 H 52.2974 -1.89812 0.784896 0
M  V30 588 H 50.5274 -3.73911 -0.986279 0
M  V30 589 H 52.2164 -4.0046 -0.662294 0
M  V30 590 H 52.9824 -4.51633 1.76785 0
M  V30 591 H 48.8614 -4.57789 0.543178 0
M  V30 592 H 52.4054 -5.89147 3.73565 0
M  V30 593 H 48.3024 -5.95021 2.5024 0
M  V30 594 H 49.0704 -6.95168 4.32068 0
M  V30 595 N 51.7335 -0.305618 -1.54608 0
M  V30 596 C 52.6435 0.57778 -2.27374 0
M  V30 597 C 53.6595 1.14451 -1.31061 0
M  V30 598 O 54.8355 1.16831 -1.6405 0
M  V30 599 C 51.9005 1.73123 -3.00382 0
M  V30 600 C 50.9615 1.19812 -4.12242 0
M  V30 601 C 50.1945 2.2966 -4.81759 0
M  V30 602 O 50.4175 3.49651 -4.50666 0
M  V30 603 O 49.3515 1.96091 -5.69062 0
M  V30 604 H 53.1775 -0.012624 -3.03697 0
M  V30 605 H 50.7625 -0.0719184 -1.49227 0
M  V30 606 H 52.6445 2.40315 -3.4616 0
M  V30 607 H 51.3195 2.30815 -2.26949 0
M  V30 608 H 50.2265 0.491798 -3.70853 0
M  V30 609 H 51.5595 0.666566 -4.87666 0
M  V30 610 N 53.2116 1.57565 -0.0334293 0
M  V30 611 C 54.1416 2.13511 0.945265 0
M  V30 612 C 55.1226 1.05231 1.33643 0
M  V30 613 O 56.3076 1.33084 1.41429 0
M  V30 614 C 53.4376 2.6657 2.22616 0
M  V30 615 C 52.3916 3.79676 1.97561 0
M  V30 616 C 51.7176 4.1918 3.31952 0
M  V30 617 C 53.0176 5.0557 1.31135 0
M  V30 618 H 54.7116 2.95538 0.479325 0
M  V30 619 H 52.2576 1.42166 0.229115 0
M  V30 620 H 54.2106 3.04344 2.91466 0
M  V30 621 H 52.9346 1.8171 2.71384 0
M  V30 622 H 51.5936 3.42347 1.31127 0
M  V30 623 H 51.2416 3.31296 3.78487 0
M  V30 624 H 50.9416 4.95402 3.15992 0
M  V30 625 H 52.4656 4.59541 4.02063 0
M  V30 626 H 53.8796 5.40903 1.89992 0
M  V30 627 H 52.2766 5.86818 1.25559 0
M  V30 628 H 53.3466 4.84062 0.284894 0
M  V30 629 N 54.6897 -0.239769 1.55765 0
M  V30 630 C 55.6527 -1.28038 1.90103 0
M  V30 631 C 56.6527 -1.40723 0.778055 0
M  V30 632 O 57.8427 -1.39301 1.04599 0
M  V30 633 C 54.9747 -2.65702 2.13577 0
M  V30 634 H 56.1677 -0.988048 2.83157 0
M  V30 635 H 53.7207 -0.479382 1.48767 0
M  V30 636 H 54.4557 -3.00063 1.23015 0
M  V30 637 H 54.2407 -2.57875 2.95369 0
M  V30 638 H 55.7307 -3.40828 2.41301 0
M  V30 639 N 56.1678 -1.49265 -0.50573 0
M  V30 640 C 57.5788 -1.51769 -1.08734 0
M  V30 641 C 57.9298 -0.301192 -1.93874 0
M  V30 642 O 57.0548 0.589456 -2.08217 0
M  V30 643 C 57.6498 -2.75017 -1.97867 0
M  V30 644 C 56.2088 -2.80314 -2.51199 0
M  V30 645 C 55.3558 -2.4562 -1.28709 0
M  V30 646 H 58.3068 -1.56031 -0.289855 0
M  V30 647 H 58.3278 -2.5491 -2.82491 0
M  V30 648 H 57.8398 -3.63539 -1.35873 0
M  V30 649 H 55.9408 -1.96061 -3.16845 0
M  V30 650 H 56.0538 -3.82366 -2.88675 0
M  V30 651 H 54.4178 -1.97297 -1.61078 0
M  V30 652 H 55.2008 -3.36411 -0.6843 0
M  V30 653 N 57.6459 0.756429 -1.3826 0
M  V30 654 C 58.5939 1.89149 -1.35372 0
M  V30 655 C 59.5879 1.67691 -0.24004 0
M  V30 656 O 60.7939 1.75294 -0.408919 0
M  V30 657 H 57.1689 0.622271 -0.422236 0
M  V30 658 H 59.1399 1.88701 -2.31159 0
M  V30 659 C 57.8889 3.26599 -1.19284 0
M  V30 660 H 57.2119 3.43695 -2.0424 0
M  V30 661 H 58.6519 4.06274 -1.21316 0
M  V30 662 C 57.1109 3.3675 0.100454 0
M  V30 663 O 57.6409 3.86951 1.07851 0
M  V30 664 N 55.8469 2.90179 0.15633 0
M  V30 665 H 55.3939 2.49517 -0.640253 0
M  V30 666 H 55.3519 2.97352 1.02123 0
M  V30 667 N 59.124 1.23083 0.984299 0
M  V30 668 C 60.054 1.03292 2.09411 0
M  V30 669 C 61.035 -0.048923 1.7003 0
M  V30 670 O 62.22 0.114967 1.93859 0
M  V30 671 C 59.35 0.619155 3.41736 0
M  V30 672 C 58.304 1.64791 3.95004 0
M  V30 673 C 57.63 1.0897 5.23478 0
M  V30 674 C 58.93 3.03999 4.24714 0
M  V30 675 H 60.624 1.96119 2.26225 0
M  V30 676 H 58.17 0.944344 1.08711 0
M  V30 677 H 60.123 0.467777 4.18796 0
M  V30 678 H 58.847 -0.344786 3.24775 0
M  V30 679 H 57.506 1.78721 3.20085 0
M  V30 680 H 57.154 0.11686 5.02864 0
M  V30 681 H 56.854 1.77704 5.60085 0
M  V30 682 H 58.378 0.950093 6.03163 0
M  V30 683 H 59.792 2.93393 4.92538 0
M  V30 684 H 58.189 3.69936 4.72512 0
M  V30 685 H 59.259 3.53285 3.32142 0
M  V30 686 N 60.6021 -1.18246 1.0419 0
M  V30 687 C 61.8481 -1.88536 0.747122 0
M  V30 688 C 62.1811 -1.80223 -0.723409 0
M  V30 689 O 61.4561 -1.20337 -1.52804 0
M  V30 690 C 61.7391 -3.38968 1.21544 0
M  V30 691 C 61.5921 -3.56084 2.74816 0
M  V30 692 C 62.9111 -4.32648 0.806482 0
M  V30 693 H 60.0301 -0.684619 0.272883 0
M  V30 694 H 62.6721 -1.39113 1.29413 0
M  V30 695 H 60.8221 -3.8119 0.750081 0
M  V30 696 H 62.4941 -3.22946 3.29399 0
M  V30 697 H 60.7371 -2.98699 3.14582 0
M  V30 698 H 61.4081 -4.61639 3.02644 0
M  V30 699 H 63.8841 -3.98211 1.20695 0
M  V30 700 H 62.7601 -5.36462 1.1619 0
M  V30 701 H 63.0211 -4.41146 -0.29029 0
M  V30 702 N 62.0802 -0.821533 -1.34494 0
M  V30 703 C 63.4912 -0.467956 -1.8074 0
M  V30 704 C 63.8422 1.01151 -1.68116 0
M  V30 705 O 62.9672 1.78707 -1.22036 0
M  V30 706 C 63.5622 -0.842627 -3.28154 0
M  V30 707 C 62.1212 -0.541439 -3.72485 0
M  V30 708 C 61.2682 -1.06028 -2.56229 0
M  V30 709 H 64.2192 -1.01183 -1.22261 0
M  V30 710 H 64.2402 -0.145876 -3.8022 0
M  V30 711 H 63.7522 -1.91945 -3.37311 0
M  V30 712 H 61.8532 0.526034 -3.68868 0
M  V30 713 H 61.9662 -1.08453 -4.66663 0
M  V30 714 H 60.3302 -0.481892 -2.501 0
M  V30 715 H 61.1132 -2.14352 -2.68157 0
M  V30 716 N 63.5583 1.46682 -0.576371 0
M  V30 717 C 64.4913 2.27243 0.208731 0
M  V30 718 C 65.4693 1.35238 0.902746 0
M  V30 719 O 66.6533 1.64641 0.917904 0
M  V30 720 C 63.7803 3.12802 1.29896 0
M  V30 721 C 62.8263 4.20524 0.711457 0
M  V30 722 S 63.6593 5.33548 -0.456781 0
M  V30 723 C 64.8153 6.22673 0.634798 0
M  V30 724 H 65.0483 2.93484 -0.474838 0
M  V30 725 H 62.5813 1.50069 -0.363118 0
M  V30 726 H 64.5393 3.62661 1.92321 0
M  V30 727 H 63.2003 2.45887 1.95444 0
M  V30 728 H 62.3933 4.80191 1.53076 0
M  V30 729 H 61.9953 3.73645 0.162999 0
M  V30 730 H 64.2873 6.60181 1.52209 0
M  V30 731 H 65.2303 7.0806 0.0750311 0
M  V30 732 H 65.6383 5.56684 0.936092 0
M  V30 733 N 65.0364 0.313813 1.54444 0
M  V30 734 C 66.3134 -0.345447 1.92525 0
M  V30 735 C 66.6934 -1.70667 1.24242 0
M  V30 736 O 66.0414 -2.25273 0.382654 0
M  V30 737 C 66.2514 -0.44737 3.46121 0
M  V30 738 C 67.5994 -0.712238 4.18584 0
M  V30 739 O 68.6234 -0.530678 3.52225 0
M  V30 740 O 67.4824 -1.06183 5.36085 0
M  V30 741 H 64.5764 -0.195407 0.803583 0
M  V30 742 H 67.1224 0.362813 1.65776 0
M  V30 743 H 65.8944 0.509043 3.87975 0
M  V30 744 H 65.5174 -1.20359 3.78945 0
M  V30 745 N 66.5145 -1.57545 0.0417849 0
M  V30 746 C 67.7445 -1.96339 -0.642995 0
M  V30 747 C 68.1525 -0.917536 -1.65463 0
M  V30 748 O 67.4955 0.107747 -1.83384 0
M  V30 749 C 67.5575 -3.31333 -1.39494 0
M  V30 750 C 67.2215 -4.53796 -0.540204 0
M  V30 751 C 68.2185 -5.19553 0.189806 0
M  V30 752 C 65.9035 -5.0006 -0.473886 0
M  V30 753 C 67.8975 -6.29904 0.974674 0
M  V30 754 C 65.5845 -6.10289 0.314677 0
M  V30 755 C 66.5825 -6.75072 1.03765 0
M  V30 756 O 66.2705 -7.83183 1.81327 0
M  V30 757 H 66.0025 -0.651241 -0.181277 0
M  V30 758 H 68.5565 -2.05148 0.101665 0
M  V30 759 H 66.7865 -3.19052 -2.18502 0
M  V30 760 H 68.4755 -3.54942 -1.96904 0
M  V30 761 H 69.2415 -4.84774 0.147981 0
M  V30 762 H 65.1205 -4.49433 -1.0262 0
M  V30 763 H 68.6645 -6.80401 1.5395 0
M  V30 764 H 64.5615 -6.44506 0.358174 0
M  V30 765 H 65.3295 -7.99913 1.73438 0
M  V30 766 N 67.9926 0.231505 -1.5589 0
M  V30 767 C 69.4086 0.580748 -1.48659 0
M  V30 768 C 69.6086 1.87617 -0.73498 0
M  V30 769 O 68.6646 2.51046 -0.270586 0
M  V30 770 C 69.9776 0.669202 -2.93159 0
M  V30 771 C 71.5256 0.760499 -3.03621 0
M  V30 772 C 72.0006 0.880383 -4.49459 0
M  V30 773 N 73.4916 0.944861 -4.53461 0
M  V30 774 C 74.2266 1.05716 -5.63571 0
M  V30 775 N 73.7226 1.13403 -6.83456 0
M  V30 776 N 75.5156 1.09152 -5.514 0
M  V30 777 H 67.6666 -0.618695 -2.03189 0
M  V30 778 H 69.9296 -0.215728 -0.923128 0
M  V30 779 H 69.6356 -0.212904 -3.51055 0
M  V30 780 H 69.5096 1.5361 -3.44505 0
M  V30 781 H 71.8966 1.63305 -2.45796 0
M  V30 782 H 71.9776 -0.131864 -2.5546 0
M  V30 783 H 71.6216 0.0123284 -5.07899 0
M  V30 784 H 71.5516 1.78802 -4.95316 0
M  V30 785 H 74.0426 0.896176 -3.6712 0
M  V30 786 H 74.3556 1.21921 -7.63122 0
M  V30 787 H 72.7006 1.10333 -6.86186 0
M  V30 788 H 75.8916 1.02805 -4.56671 0
M  V30 789 H 76.0646 1.17558 -6.37247 0
M  V30 790 N 69.4707 1.49531 0.497807 0
M  V30 791 C 70.4177 1.66436 1.59899 0
M  V30 792 C 71.3877 0.505793 1.58212 0
M  V30 793 O 72.5727 0.733202 1.7615 0
M  V30 794 C 69.7127 1.7399 2.98029 0
M  V30 795 C 68.8257 3.01172 3.09708 0
M  V30 796 C 67.9607 2.99686 4.38591 0
M  V30 797 C 66.9997 4.21434 4.43914 0
M  V30 798 N 66.1367 4.1784 5.64229 0
M  V30 799 H 70.9767 2.60459 1.44793 0
M  V30 800 H 68.5137 1.29137 0.704423 0
M  V30 801 H 70.4717 1.76352 3.78095 0
M  V30 802 H 69.1017 0.834301 3.11832 0
M  V30 803 H 68.1537 3.08408 2.22685 0
M  V30 804 H 69.4657 3.91165 3.09502 0
M  V30 805 H 68.6197 3.00628 5.2698 0
M  V30 806 H 67.3587 2.07477 4.41367 0
M  V30 807 H 66.3637 4.20733 3.53926 0
M  V30 808 H 67.5887 5.14839 4.42851 0
M  V30 809 H 65.5347 3.28469 5.67841 0
M  V30 810 H 65.4517 5.01571 5.65652 0
M  V30 811 H 66.7197 4.22889 6.54817 0
M  V30 812 N 70.9488 -0.749086 1.3866 0
M  V30 813 C 72.1738 -1.54344 1.38538 0
M  V30 814 C 72.5988 -1.88088 -0.0216655 0
M  V30 815 O 71.9568 -1.50899 -1.00494 0
M  V30 816 C 72.0048 -2.8164 2.25192 0
M  V30 817 O 71.1088 -3.7698 1.67212 0
M  V30 818 H 70.4498 -0.466654 0.472367 0
M  V30 819 H 72.9798 -0.925355 1.82478 0
M  V30 820 H 72.9898 -3.30519 2.3921 0
M  V30 821 H 71.6648 -2.56411 3.27454 0
M  V30 822 H 70.2418 -3.35699 1.6236 0
M  V30 823 N 72.4269 -1.23603 -0.977757 0
M  V30 824 C 73.8379 -1.06424 -1.53398 0
M  V30 825 C 74.1889 0.367578 -1.92726 0
M  V30 826 O 73.3139 1.25465 -1.76316 0
M  V30 827 C 73.9089 -1.92568 -2.78753 0
M  V30 828 C 72.4679 -1.79642 -3.30765 0
M  V30 829 C 71.6149 -1.88111 -2.03739 0
M  V30 830 H 74.5659 -1.37227 -0.797152 0
M  V30 831 H 74.5869 -1.45203 -3.51705 0
M  V30 832 H 74.0989 -2.96771 -2.50098 0
M  V30 833 H 72.1999 -0.782325 -3.64294 0
M  V30 834 H 72.3129 -2.63174 -4.00345 0
M  V30 835 H 70.6769 -1.31723 -2.17994 0
M  V30 836 H 71.4599 -2.93875 -1.77461 0
M  V30 837 N 73.905 1.17692 -1.04816 0
M  V30 838 C 75.154 1.87192 -0.751132 0
M  V30 839 C 75.467 1.8169 0.724441 0
M  V30 840 O 76.673 2.46625 1.13527 0
M  V30 841 C 75.129 3.35857 -1.29338 0
M  V30 842 C 74.737 3.4987 -2.79812 0
M  V30 843 C 76.481 4.10709 -1.07322 0
M  V30 844 C 74.388 4.92536 -3.27356 0
M  V30 845 H 73.318 0.701162 -0.277288 0
M  V30 846 H 75.969 1.32932 -1.26496 0
M  V30 847 H 74.351 3.89631 -0.707376 0
M  V30 848 H 75.525 3.06332 -3.44235 0
M  V30 849 H 73.84 2.88433 -3.00325 0
M  V30 850 H 76.437 5.15952 -1.4035 0
M  V30 851 H 76.78 4.16299 -0.0108001 0
M  V30 852 H 77.313 3.6313 -1.62423 0
M  V30 853 H 74.052 4.92119 -4.33012 0
M  V30 854 H 73.572 5.3676 -2.67673 0
M  V30 855 H 75.251 5.61288 -3.21815 0
M  V30 856 N 75.3831 0.828654 1.34056 0
M  V30 857 C 76.6291 0.42008 1.98402 0
M  V30 858 C 76.9621 -1.01564 1.65525 0
M  V30 859 O 76.2371 -1.70834 0.929831 0
M  V30 860 C 76.5201 0.62927 3.54559 0
M  V30 861 C 76.3731 2.11152 3.97159 0
M  V30 862 C 77.6921 0.0688756 4.40046 0
M  V30 863 H 74.8111 0.154104 0.720709 0
M  V30 864 H 77.4531 1.04228 1.5886 0
M  V30 865 H 75.6031 0.0996418 3.88372 0
M  V30 866 H 77.2751 2.70522 3.73651 0
M  V30 867 H 75.5181 2.59985 3.47261 0
M  V30 868 H 76.1891 2.20868 5.05887 0
M  V30 869 H 78.6651 0.521458 4.1282 0
M  V30 870 H 77.5411 0.245006 5.48353 0
M  V30 871 H 77.8021 -1.0266 4.30015 0
M  V30 872 N 76.8612 -1.46375 0.584142 0
M  V30 873 C 77.8112 -2.27371 -0.169232 0
M  V30 874 C 78.7952 -1.35955 -0.860523 0
M  V30 875 O 79.9872 -1.60119 -0.754382 0
M  V30 876 C 77.1162 -3.22334 -1.18134 0
M  V30 877 C 76.2022 -4.21235 -0.492088 0
M  V30 878 N 76.5932 -5.03766 0.453129 0
M  V30 879 C 74.8912 -4.39773 -0.742652 0
M  V30 880 C 75.5922 -5.75366 0.85609 0
M  V30 881 N 74.5682 -5.43214 0.204926 0
M  V30 882 H 78.3702 -2.88572 0.557097 0
M  V30 883 H 75.8842 -1.57242 0.406042 0
M  V30 884 H 77.8812 -3.79071 -1.73525 0
M  V30 885 H 76.5412 -2.62693 -1.90847 0
M  V30 886 H 77.5522 -5.11227 0.828723 0
M  V30 887 H 74.2292 -3.91279 -1.45625 0
M  V30 888 H 75.6192 -6.5172 1.63434 0
M  V30 889 N 78.3393 -0.321999 -1.54275 0
M  V30 890 C 79.5853 0.281461 -2.00837 0
M  V30 891 C 79.9183 1.51909 -1.20985 0
M  V30 892 O 79.1933 1.923 -0.291733 0
M  V30 893 C 79.4763 0.617162 -3.54772 0
M  V30 894 C 79.3293 -0.631064 -4.45351 0
M  V30 895 C 80.6483 1.43542 -4.16033 0
M  V30 896 H 77.7673 0.100826 -0.730071 0
M  V30 897 H 80.4093 -0.438268 -1.84876 0
M  V30 898 H 78.5593 1.23034 -3.68504 0
M  V30 899 H 80.2313 -1.26934 -4.43492 0
M  V30 900 H 78.4743 -1.26025 -4.15091 0
M  V30 901 H 79.1453 -0.351735 -5.50878 0
M  V30 902 H 81.6213 0.917134 -4.05867 0
M  V30 903 H 80.4973 1.63907 -5.23856 0
M  V30 904 H 80.7583 2.43108 -3.69257 0
M  V30 905 N 79.8174 1.5752 -0.0501392 0
M  V30 906 C 81.2284 1.80271 0.485705 0
M  V30 907 C 81.5794 0.96228 1.70981 0
M  V30 908 O 80.7044 0.178578 2.15662 0
M  V30 909 C 81.2994 3.26957 0.887938 0
M  V30 910 C 79.8584 3.5063 1.36877 0
M  V30 911 C 79.0054 2.75165 0.343468 0
M  V30 912 H 81.9564 1.56281 -0.276028 0
M  V30 913 H 81.9774 3.37821 1.75093 0
M  V30 914 H 81.4894 3.881 -0.0031809 0
M  V30 915 H 79.5904 2.94766 2.27911 0
M  V30 916 H 79.7034 4.59343 1.36164 0
M  V30 917 H 78.0674 2.4127 0.816128 0
M  V30 918 H 78.8504 3.39034 -0.539548 0
M  V30 919 N 81.2955 -0.223234 1.56011 0
M  V30 920 C 82.2285 -1.30377 1.87289 0
M  V30 921 C 83.2065 -1.45286 0.730112 0
M  V30 922 O 84.3905 -1.61126 0.978302 0
M  V30 923 C 81.5175 -2.67431 2.07843 0
M  V30 924 C 80.5635 -2.69546 3.30526 0
M  V30 925 S 81.3965 -2.23781 4.865 0
M  V30 926 C 82.5525 -3.62714 5.10088 0
M  V30 927 H 82.7855 -1.03652 2.78646 0
M  V30 928 H 80.3185 -0.425393 1.48424 0
M  V30 929 H 82.2765 -3.46336 2.20368 0
M  V30 930 H 80.9375 -2.91381 1.17285 0
M  V30 931 H 80.1305 -3.70255 3.41947 0
M  V30 932 H 79.7325 -1.98703 3.16849 0
M  V30 933 H 82.0245 -4.58391 4.98883 0
M  V30 934 H 82.9675 -3.5621 6.11981 0
M  V30 935 H 83.3755 -3.56323 4.37829 0
M  V30 936 N 82.7736 -1.49793 -0.48987 0
M  V30 937 C 83.9986 -1.63836 -1.27172 0
M  V30 938 C 84.4236 -0.31402 -1.8546 0
M  V30 939 O 83.7816 0.719803 -1.66399 0
M  V30 940 C 83.8296 -2.71797 -2.36978 0
M  V30 941 O 82.9336 -2.31744 -3.41128 0
M  V30 942 H 82.2746 -0.547997 -0.37496 0
M  V30 943 H 84.8046 -1.96053 -0.585191 0
M  V30 944 H 84.8146 -2.94305 -2.82575 0
M  V30 945 H 83.4896 -3.67923 -1.93921 0
M  V30 946 H 82.0666 -2.1961 -3.01373 0
M  V30 947 N 84.2517 0.741722 -1.39055 0
M  V30 948 C 85.1817 1.869 -1.39966 0
M  V30 949 C 86.1627 1.6804 -0.26392 0
M  V30 950 O 87.3477 1.88458 -0.468755 0
M  V30 951 C 84.4777 3.24572 -1.23574 0
M  V30 952 C 83.4317 3.58056 -2.34477 0
M  V30 953 C 82.7577 4.94593 -2.0318 0
M  V30 954 C 84.0577 3.61716 -3.76774 0
M  V30 955 H 85.7517 1.86395 -2.34302 0
M  V30 956 H 83.2977 0.895361 -1.1278 0
M  V30 957 H 85.2507 4.031 -1.22834 0
M  V30 958 H 83.9747 3.25587 -0.257045 0
M  V30 959 H 82.6337 2.81854 -2.34423 0
M  V30 960 H 82.2817 4.92181 -1.03765 0
M  V30 961 H 81.9817 5.17964 -2.77465 0
M  V30 962 H 83.5057 5.75486 -2.04079 0
M  V30 963 H 84.9197 4.30335 -3.78794 0
M  V30 964 H 83.3167 3.96603 -4.50362 0
M  V30 965 H 84.3867 2.61672 -4.08235 0
M  V30 966 N 85.7298 1.2412 0.971189 0
M  V30 967 C 86.9788 1.07284 1.70801 0
M  V30 968 C 87.2918 -0.388902 1.91695 0
M  V30 969 O 88.4978 -0.677379 2.62914 0
M  V30 970 C 86.9538 1.87145 3.07416 0
M  V30 971 C 86.5618 3.37707 2.94377 0
M  V30 972 C 88.3058 1.78828 3.84995 0
M  V30 973 C 86.2128 4.09925 4.26281 0
M  V30 974 H 85.1428 0.397854 0.64049 0
M  V30 975 H 87.7938 1.4817 1.0825 0
M  V30 976 H 86.1758 1.39071 3.70777 0
M  V30 977 H 87.3498 3.93335 2.4005 0
M  V30 978 H 85.6648 3.46938 2.30267 0
M  V30 979 H 88.2618 2.30089 4.82662 0
M  V30 980 H 88.6048 0.75284 4.09436 0
M  V30 981 H 89.1378 2.24563 3.28354 0
M  V30 982 H 85.8768 5.13813 4.07033 0
M  V30 983 H 85.3968 3.59083 4.80437 0
M  V30 984 H 87.0758 4.1673 4.94919 0
M  V30 985 N 87.2079 -1.17134 1.05439 0
M  V30 986 C 88.4569 -1.86791 0.761049 0
M  V30 987 C 88.7699 -1.82072 -0.714795 0
M  V30 988 O 89.9759 -2.47223 -1.12218 0
M  V30 989 C 88.4319 -3.35166 1.31117 0
M  V30 990 C 88.0399 -3.48381 2.81664 0
M  V30 991 C 89.7839 -4.10134 1.09499 0
M  V30 992 C 87.6909 -4.90793 3.29964 0
M  V30 993 H 86.6209 -0.699681 0.281002 0
M  V30 994 H 89.2719 -1.3226 1.27199 0
M  V30 995 H 87.6539 -3.8925 0.72803 0
M  V30 996 H 88.8279 -3.04502 3.45855 0
M  V30 997 H 87.1429 -2.86836 3.01851 0
M  V30 998 H 89.7399 -5.152 1.43084 0
M  V30 999 H 90.0829 -4.16287 0.0328772 0
M  V30 1000 H 90.6159 -3.62264 1.64346 0
M  V30 1001 H 87.3549 -4.89816 4.35616 0
M  V30 1002 H 86.8749 -5.35333 2.70516 0
M  V30 1003 H 88.5539 -5.59573 3.24787 0
M  V30 1004 N 88.686 -0.835752 -1.33615 0
M  V30 1005 C 89.618 -0.224151 -2.28101 0
M  V30 1006 C 90.631 0.593331 -1.51603 0
M  V30 1007 O 91.82 0.420911 -1.73466 0
M  V30 1008 C 88.92 0.703309 -3.31522 0
M  V30 1009 C 88.093 -0.0741528 -4.37337 0
M  V30 1010 C 87.152 0.776176 -5.20444 0
M  V30 1011 O 86.178 0.216506 -5.68788 0
M  V30 1012 N 87.38 2.09401 -5.41416 0
M  V30 1013 H 90.145 -1.03598 -2.81225 0
M  V30 1014 H 87.706 -0.69392 -1.46275 0
M  V30 1015 H 89.698 1.27707 -3.84022 0
M  V30 1016 H 88.268 1.41585 -2.78698 0
M  V30 1017 H 87.488 -0.82928 -3.85378 0
M  V30 1018 H 88.776 -0.608863 -5.05144 0
M  V30 1019 H 88.174 2.57229 -5.03835 0
M  V30 1020 H 86.731 2.61633 -5.96985 0
M  V30 1021 N 90.1641 1.46063 -0.591896 0
M  V30 1022 C 91.0971 2.27452 0.184617 0
M  V30 1023 C 92.0751 1.36188 0.888351 0
M  V30 1024 O 93.2591 1.65606 0.90039 0
M  V30 1025 C 90.3861 3.14162 1.26571 0
M  V30 1026 C 89.4321 4.21255 0.666814 0
M  V30 1027 S 90.2651 5.33034 -0.513345 0
M  V30 1028 C 91.4211 6.23311 0.56872 0
M  V30 1029 H 91.6541 2.92963 -0.505939 0
M  V30 1030 H 89.1871 1.49676 -0.379014 0
M  V30 1031 H 91.1451 3.6468 1.88463 0
M  V30 1032 H 89.8061 2.47946 1.92826 0
M  V30 1033 H 88.9991 4.81788 1.47974 0
M  V30 1034 H 88.6011 3.73797 0.123359 0
M  V30 1035 H 90.8931 6.61758 1.45198 0
M  V30 1036 H 91.8361 7.081 -7.23824e-05 0
M  V30 1037 H 92.2441 5.57646 0.876996 0
M  V30 1038 N 91.6422 0.330177 1.54103 0
M  V30 1039 C 93.0532 -0.15652 1.86043 0
M  V30 1040 C 93.4042 -1.51086 1.2517 0
M  V30 1041 O 92.5292 -2.09023 0.560217 0
M  V30 1042 C 93.1242 -0.290784 3.3755 0
M  V30 1043 C 91.6832 -0.721705 3.69416 0
M  V30 1044 C 90.8302 0.152622 2.7688 0
M  V30 1045 H 93.7812 0.550237 1.48856 0
M  V30 1046 H 93.8022 -1.12058 3.63625 0
M  V30 1047 H 93.3142 0.695068 3.81825 0
M  V30 1048 H 91.4152 -1.71706 3.30678 0
M  V30 1049 H 91.5282 -0.520869 4.7626 0
M  V30 1050 H 89.8922 -0.372894 2.51956 0
M  V30 1051 H 90.6752 1.13536 3.23982 0
M  V30 1052 N 93.1203 -1.57491 0.0584922 0
M  V30 1053 C 94.0303 -2.15448 -0.928414 0
M  V30 1054 C 95.0463 -1.11416 -1.3365 0
M  V30 1055 O 96.2223 -1.4362 -1.41193 0
M  V30 1056 C 93.2873 -2.69393 -2.18239 0
M  V30 1057 C 92.3483 -3.88249 -1.83196 0
M  V30 1058 C 91.5813 -4.39613 -3.02616 0
M  V30 1059 O 91.8043 -3.90023 -4.16219 0
M  V30 1060 O 90.7383 -5.31111 -2.83204 0
M  V30 1061 H 94.5643 -3.00112 -0.465483 0
M  V30 1062 H 92.1493 -1.48499 -0.163826 0
M  V30 1063 H 94.0313 -3.04026 -2.91798 0
M  V30 1064 H 92.7063 -1.87796 -2.63656 0
M  V30 1065 H 91.6133 -3.58492 -1.06931 0
M  V30 1066 H 92.9463 -4.71098 -1.42573 0
M  V30 1067 N 94.5984 0.214957 -1.56127 0
M  V30 1068 C 95.5284 1.2695 -1.95974 0
M  V30 1069 C 96.5094 1.48539 -0.828868 0
M  V30 1070 O 97.6944 1.60611 -1.09168 0
M  V30 1071 C 94.8244 2.61794 -2.28214 0
M  V30 1072 C 93.7784 2.54851 -3.43853 0
M  V30 1073 C 93.1044 3.93785 -3.61715 0
M  V30 1074 C 94.4044 2.09065 -4.78632 0
M  V30 1075 H 96.0984 0.93846 -2.84312 0
M  V30 1076 H 93.6444 0.449996 -1.36788 0
M  V30 1077 H 95.5974 3.35731 -2.54682 0
M  V30 1078 H 94.3214 2.96599 -1.36736 0
M  V30 1079 H 92.9804 1.8337 -3.17444 0
M  V30 1080 H 92.6284 4.25908 -2.67602 0
M  V30 1081 H 92.3284 3.90019 -4.39498 0
M  V30 1082 H 93.8524 4.69374 -3.90539 0
M  V30 1083 H 95.2664 2.7275 -5.04262 0
M  V30 1084 H 93.6634 2.16346 -5.59745 0
M  V30 1085 H 94.7334 1.04315 -4.73547 0
M  V30 1086 N 96.0765 1.50051 0.48192 0
M  V30 1087 C 97.4925 1.37237 0.814756 0
M  V30 1088 C 97.6925 0.420109 1.97072 0
M  V30 1089 O 96.7485 -0.141246 2.52105 0
M  V30 1090 C 98.0615 2.78375 1.13701 0
M  V30 1091 C 99.6095 2.87213 1.2441 0
M  V30 1092 C 100.084 4.29161 1.59954 0
M  V30 1093 N 101.575 4.32061 1.66967 0
M  V30 1094 C 102.31 5.38879 1.95952 0
M  V30 1095 N 101.806 6.55918 2.23031 0
M  V30 1096 N 103.599 5.26312 1.97363 0
M  V30 1097 H 95.7505 2.10546 -0.28005 0
M  V30 1098 H 98.0135 0.945921 -0.0627454 0
M  V30 1099 H 97.7195 3.49845 0.360787 0
M  V30 1100 H 97.5935 3.14941 2.07586 0
M  V30 1101 H 99.9805 2.15969 2.01101 0
M  V30 1102 H 100.061 2.54204 0.285299 0
M  V30 1103 H 99.7055 5.00938 0.838067 0
M  V30 1104 H 99.6355 4.59648 2.56966 0
M  V30 1105 H 102.126 3.47661 1.48123 0
M  V30 1106 H 102.439 7.33139 2.44391 0
M  V30 1107 H 100.784 6.59112 2.20447 0
M  V30 1108 H 103.975 4.33876 1.75697 0
M  V30 1109 H 104.148 6.09649 2.19618 0
M  V30 1110 N 97.5546 -0.734337 1.39446 0
M  V30 1111 C 98.4646 -1.87879 1.40495 0
M  V30 1112 C 99.4806 -1.714 0.299672 0
M  V30 1113 O 100.657 -1.93991 0.541249 0
M  V30 1114 C 97.7216 -3.23477 1.24754 0
M  V30 1115 C 96.7826 -3.52344 2.45259 0
M  V30 1116 C 96.0156 -4.81473 2.30259 0
M  V30 1117 O 96.2386 -5.55237 1.30643 0
M  V30 1118 O 95.1726 -5.10254 3.19256 0
M  V30 1119 H 98.9986 -1.89949 2.36966 0
M  V30 1120 H 96.5836 -0.882243 1.20569 0
M  V30 1121 H 98.4656 -4.04509 1.18111 0
M  V30 1122 H 97.1406 -3.22176 0.313781 0
M  V30 1123 H 96.0476 -2.71396 2.57478 0
M  V30 1124 H 97.3806 -3.58426 3.37331 0
M  V30 1125 N 99.0327 -1.24633 -0.964593 0
M  V30 1126 C 99.9807 -1.03917 -2.08096 0
M  V30 1127 C 100.975 0.0268581 -1.69379 0
M  V30 1128 O 102.181 -0.127952 -1.79545 0
M  V30 1129 H 98.5557 -0.319044 -0.680966 0
M  V30 1130 H 100.527 -1.98581 -2.22729 0
M  V30 1131 C 99.2757 -0.663983 -3.41301 0
M  V30 1132 H 98.5987 -1.47605 -3.71555 0
M  V30 1133 H 100.039 -0.558663 -4.20303 0
M  V30 1134 C 98.4977 0.629169 -3.30973 0
M  V30 1135 O 99.0277 1.67404 -3.65156 0
M  V30 1136 N 97.2337 0.611057 -2.84103 0
M  V30 1137 H 96.7807 -0.239593 -2.56483 0
M  V30 1138 H 96.7387 1.47647 -2.77575 0
M  V30 1139 N 100.511 1.16574 -1.06058 0
M  V30 1140 C 101.922 1.68662 -0.800632 0
M  V30 1141 C 102.273 1.84184 0.67608 0
M  V30 1142 O 101.398 1.53568 1.52466 0
M  V30 1143 C 101.993 3.06356 -1.44676 0
M  V30 1144 C 100.552 3.55575 -1.23465 0
M  V30 1145 C 99.6988 2.31616 -1.52477 0
M  V30 1146 H 102.65 1.00969 -1.22438 0
M  V30 1147 H 102.671 3.70636 -0.860788 0
M  V30 1148 H 102.183 2.95027 -2.52152 0
M  V30 1149 H 100.284 3.72167 -0.179527 0
M  V30 1150 H 100.397 4.37812 -1.94571 0
M  V30 1151 H 98.7608 2.36512 -0.945209 0
M  V30 1152 H 99.5438 2.22887 -2.61106 0
M  V30 1153 N 101.989 0.842826 1.3317 0
M  V30 1154 C 103.236 0.440447 1.97652 0
M  V30 1155 C 103.564 -1.00123 1.6675 0
M  V30 1156 O 102.819 -1.7155 0.941761 0
M  V30 1157 C 103.118 0.612607 3.52111 0
M  V30 1158 C 102.784 2.02297 4.02972 0
M  V30 1159 C 101.446 2.40874 4.16573 0
M  V30 1160 C 103.798 2.94402 4.30089 0
M  V30 1161 C 101.126 3.70852 4.54627 0
M  V30 1162 C 103.478 4.23865 4.69597 0
M  V30 1163 C 102.142 4.62392 4.81404 0
M  V30 1164 H 101.412 0.161171 0.72326 0
M  V30 1165 H 104.059 1.07061 1.58777 0
M  V30 1166 H 102.364 -0.100849 3.9167 0
M  V30 1167 H 104.061 0.2815 4.00011 0
M  V30 1168 H 100.651 1.71338 3.92863 0
M  V30 1169 H 104.835 2.65835 4.19101 0
M  V30 1170 H 100.091 4.00501 4.61962 0
M  V30 1171 H 104.265 4.95306 4.89536 0
M  V30 1172 H 101.892 5.63154 5.10648 0
M  V30 1173 N 103.467 -1.45747 0.599634 0
M  V30 1174 C 104.414 -2.30467 -0.123849 0
M  V30 1175 C 105.384 -1.41632 -0.86774 0
M  V30 1176 O 106.569 -1.70568 -0.855056 0
M  V30 1177 C 103.709 -3.26402 -1.12051 0
M  V30 1178 C 102.822 -4.3034 -0.37832 0
M  V30 1179 C 101.957 -5.13389 -1.364 0
M  V30 1180 C 100.996 -6.09061 -0.609171 0
M  V30 1181 N 100.133 -6.84918 -1.54374 0
M  V30 1182 H 104.973 -2.91802 0.604627 0
M  V30 1183 H 102.51 -1.43797 0.309972 0
M  V30 1184 H 104.468 -3.80482 -1.7114 0
M  V30 1185 H 103.098 -2.66839 -1.8165 0
M  V30 1186 H 102.15 -3.78984 0.327929 0
M  V30 1187 H 103.462 -4.98354 0.210997 0
M  V30 1188 H 102.616 -5.7183 -2.02719 0
M  V30 1189 H 101.355 -4.45376 -1.98725 0
M  V30 1190 H 100.36 -5.49758 0.0676979 0
M  V30 1191 H 101.585 -6.79099 0.00891991 0
M  V30 1192 H 99.531 -6.19601 -2.15478 0
M  V30 1193 H 99.448 -7.49254 -1.00766 0
M  V30 1194 H 100.716 -7.47906 -2.19676 0
M  V30 1195 N 104.945 -0.338344 -1.53925 0
M  V30 1196 C 105.855 0.529421 -2.28548 0
M  V30 1197 C 106.871 1.11645 -1.3346 0
M  V30 1198 O 108.047 1.13325 -1.66492 0
M  V30 1199 C 105.112 1.66713 -3.03987 0
M  V30 1200 C 104.173 1.11041 -4.14691 0
M  V30 1201 C 103.406 2.19389 -4.86522 0
M  V30 1202 O 103.629 3.40013 -4.57982 0
M  V30 1203 O 102.563 1.83976 -5.73094 0
M  V30 1204 H 106.389 -0.0770399 -3.03602 0
M  V30 1205 H 103.974 -0.103555 -1.49041 0
M  V30 1206 H 105.856 2.32918 -3.5118 0
M  V30 1207 H 104.531 2.25949 -2.31794 0
M  V30 1208 H 103.438 0.413024 -3.71813 0
M  V30 1209 H 104.771 0.562975 -4.8897 0
M  V30 1210 N 106.423 1.57458 -0.0668435 0
M  V30 1211 C 107.839 1.56947 0.289772 0
M  V30 1212 C 108.039 1.07584 1.70376 0
M  V30 1213 O 107.095 0.739486 2.41429 0
M  V30 1214 C 108.408 3.0052 0.103943 0
M  V30 1215 C 109.956 3.12517 0.173857 0
M  V30 1216 C 110.431 4.57997 0.0163682 0
M  V30 1217 N 111.922 4.63144 0.0721352 0
M  V30 1218 C 112.657 5.73394 -0.0253794 0
M  V30 1219 N 112.153 6.92576 -0.176133 0
M  V30 1220 N 113.946 5.62091 0.0313305 0
M  V30 1221 H 106.097 1.87863 -0.991027 0
M  V30 1222 H 108.36 0.86583 -0.38606 0
M  V30 1223 H 108.066 3.40729 -0.871572 0
M  V30 1224 H 107.94 3.67304 0.858366 0
M  V30 1225 H 110.327 2.72197 1.13985 0
M  V30 1226 H 110.408 2.48381 -0.611586 0
M  V30 1227 H 110.052 4.99005 -0.946374 0
M  V30 1228 H 109.982 5.20158 0.821153 0
M  V30 1229 H 112.473 3.77436 0.187263 0
M  V30 1230 H 112.786 7.72418 -0.242821 0
M  V30 1231 H 111.131 6.94678 -0.211429 0
M  V30 1232 H 114.322 4.67867 0.147773 0
M  V30 1233 H 114.495 6.47982 -0.048121 0
M  V30 1234 N 107.901 -0.206675 1.56239 0
M  V30 1235 C 109.15 -0.926964 1.79138 0
M  V30 1236 C 109.463 -1.84901 0.638043 0
M  V30 1237 O 110.669 -2.60906 0.751033 0
M  V30 1238 C 109.125 -1.6986 3.17294 0
M  V30 1239 C 108.733 -0.821956 4.40395 0
M  V30 1240 C 110.477 -2.40922 3.4951 0
M  V30 1241 C 108.384 -1.59179 5.69575 0
M  V30 1242 H 107.314 -0.349864 0.667915 0
M  V30 1243 H 109.965 -0.180487 1.8261 0
M  V30 1244 H 108.347 -2.48853 3.08039 0
M  V30 1245 H 109.521 -0.0715019 4.60745 0
M  V30 1246 H 107.836 -0.222741 4.15804 0
M  V30 1247 H 110.433 -2.99047 4.43255 0
M  V30 1248 H 110.776 -3.14542 2.72707 0
M  V30 1249 H 111.309 -1.68905 3.60161 0
M  V30 1250 H 108.048 -0.898589 6.49312 0
M  V30 1251 H 107.568 -2.31648 5.53262 0
M  V30 1252 H 109.247 -2.14862 6.10281 0
M  V30 1253 N 109.379 -1.50304 -0.473955 0
M  V30 1254 C 110.625 -1.61389 -1.22806 0
M  V30 1255 C 110.958 -0.311955 -1.91678 0
M  V30 1256 O 110.233 0.686384 -1.81986 0
M  V30 1257 C 110.516 -2.79219 -2.27396 0
M  V30 1258 C 110.369 -4.19286 -1.62848 0
M  V30 1259 C 111.688 -2.92614 -3.28732 0
M  V30 1260 H 108.807 -0.587399 -0.445119 0
M  V30 1261 H 111.449 -1.82681 -0.522265 0
M  V30 1262 H 109.599 -2.61195 -2.87592 0
M  V30 1263 H 111.271 -4.48892 -1.06271 0
M  V30 1264 H 109.514 -4.23677 -0.931693 0
M  V30 1265 H 110.185 -4.97655 -2.38838 0
M  V30 1266 H 112.661 -3.09105 -2.78556 0
M  V30 1267 H 111.537 -3.76688 -3.99246 0
M  V30 1268 H 111.798 -2.03107 -3.92683 0
M  V30 1269 N 110.857 0.726932 -1.39834 0
M  V30 1270 C 111.82 1.82269 -1.38962 0
M  V30 1271 C 112.82 1.58248 -0.285334 0
M  V30 1272 O 114.01 1.65499 -0.54366 0
M  V30 1273 C 111.142 3.20186 -1.17019 0
M  V30 1274 H 112.335 1.84443 -2.36476 0
M  V30 1275 H 109.888 0.931416 -1.25516 0
M  V30 1276 H 110.623 3.23669 -0.202204 0
M  V30 1277 H 110.408 3.3902 -1.96998 0
M  V30 1278 H 111.898 4.00235 -1.1917 0
M  V30 1279 N 112.336 1.25143 0.95797 0
M  V30 1280 C 113.299 1.05321 2.03569 0
M  V30 1281 C 114.299 0.007152 1.60798 0
M  V30 1282 O 115.489 0.24903 1.72411 0
M  V30 1283 C 112.621 0.598394 3.35607 0
M  V30 1284 H 113.814 2.00986 2.22586 0
M  V30 1285 H 111.367 1.07502 1.13459 0
M  V30 1286 H 112.102 -0.361014 3.22284 0
M  V30 1287 H 111.887 1.35351 3.67998 0
M  V30 1288 H 113.377 0.48104 4.1482 0
M  V30 1289 N 113.814 -1.1601 1.06675 0
M  V30 1290 C 115.061 -1.86633 0.785781 0
M  V30 1291 C 115.389 -1.81929 -0.687896 0
M  V30 1292 O 114.644 -1.23253 -1.52011 0
M  V30 1293 C 114.943 -3.35547 1.23057 0
M  V30 1294 C 114.609 -3.60448 2.70902 0
M  V30 1295 C 113.271 -3.66954 3.11285 0
M  V30 1296 C 115.623 -3.7071 3.66365 0
M  V30 1297 C 112.951 -3.81225 4.45965 0
M  V30 1298 C 115.303 -3.86503 5.00797 0
M  V30 1299 C 113.967 -3.91252 5.40813 0
M  V30 1300 H 113.237 -0.682937 0.287538 0
M  V30 1301 H 115.884 -1.37146 1.33654 0
M  V30 1302 H 114.189 -3.87193 0.59907 0
M  V30 1303 H 115.886 -3.88583 0.990163 0
M  V30 1304 H 112.476 -3.56021 2.38636 0
M  V30 1305 H 116.66 -3.64991 3.36296 0
M  V30 1306 H 111.916 -3.83155 4.76447 0
M  V30 1307 H 116.09 -3.93385 5.74649 0
M  V30 1308 H 113.717 -4.02062 6.45174 0
M  V30 1309 N 115.292 -0.849877 -1.32721 0
M  V30 1310 C 116.517 -0.463856 -2.02146 0
M  V30 1311 C 116.942 0.930449 -1.63476 0
M  V30 1312 O 116.3 1.61033 -0.832952 0
M  V30 1313 C 116.348 -0.604955 -3.55489 0
M  V30 1314 O 115.452 0.36425 -4.10788 0
M  V30 1315 H 114.793 -0.187046 -0.637111 0
M  V30 1316 H 117.323 -1.14775 -1.69375 0
M  V30 1317 H 117.333 -0.490696 -4.05038 0
M  V30 1318 H 116.008 -1.62174 -3.82978 0
M  V30 1319 H 114.585 0.206628 -3.72327 0
M  V30 1320 N 116.77 1.45427 -0.607355 0
M  V30 1321 C 117.68 2.34325 0.113463 0
M  V30 1322 C 118.696 1.51226 0.860617 0
M  V30 1323 O 119.872 1.84029 0.818255 0
M  V30 1324 C 116.937 3.28839 1.09844 0
M  V30 1325 C 115.998 4.27844 0.353271 0
M  V30 1326 C 115.231 5.17842 1.29133 0
M  V30 1327 O 115.454 5.11264 2.52913 0
M  V30 1328 O 114.388 5.96713 0.788523 0
M  V30 1329 H 118.214 2.97364 -0.617094 0
M  V30 1330 H 115.799 1.44807 -0.367619 0
M  V30 1331 H 117.681 3.8708 1.66575 0
M  V30 1332 H 116.356 2.68365 1.81003 0
M  V30 1333 H 115.263 3.7322 -0.256494 0
M  V30 1334 H 116.596 4.91173 -0.317822 0
M  V30 1335 N 118.248 0.346503 1.53744 0
M  V30 1336 C 119.525 -0.304532 1.93215 0
M  V30 1337 C 119.905 -1.67993 1.27834 0
M  V30 1338 O 119.253 -2.24411 0.430352 0
M  V30 1339 C 119.463 -0.373852 3.46992 0
M  V30 1340 C 120.811 -0.62329 4.2 0
M  V30 1341 O 121.835 -0.455847 3.53271 0
M  V30 1342 O 120.694 -0.947879 5.38217 0
M  V30 1343 H 117.788 -0.178318 0.807547 0
M  V30 1344 H 120.334 0.397895 1.64969 0
M  V30 1345 H 119.106 0.591224 3.86808 0
M  V30 1346 H 118.729 -1.12294 3.81413 0
M  V30 1347 N 119.726 -1.57421 0.075193 0
M  V30 1348 C 120.974 -1.93236 -0.591974 0
M  V30 1349 C 121.295 -0.956241 -1.69944 0
M  V30 1350 O 120.565 -0.00494792 -1.95899 0
M  V30 1351 H 119.145 -0.713355 -0.22166 0
M  V30 1352 H 121.807 -1.9444 0.133848 0
M  V30 1353 H 120.903 -2.95131 -1.01509 0
M  V30 1354 N 121.204 0.198386 -1.56346 0
M  V30 1355 C 122.114 1.2664 -1.97483 0
M  V30 1356 C 123.13 1.49989 -0.882002 0
M  V30 1357 O 124.306 1.62668 -1.18748 0
M  V30 1358 C 121.371 2.59141 -2.30319 0
M  V30 1359 C 120.432 2.43892 -3.53292 0
M  V30 1360 C 119.665 3.70074 -3.84553 0
M  V30 1361 O 119.888 4.74101 -3.1715 0
M  V30 1362 O 118.822 3.658 -4.7799 0
M  V30 1363 H 122.648 0.947304 -2.88548 0
M  V30 1364 H 120.233 0.403123 -1.43859 0
M  V30 1365 H 122.115 3.37352 -2.5253 0
M  V30 1366 H 120.79 2.90684 -1.42423 0
M  V30 1367 H 119.697 1.63803 -3.36332 0
M  V30 1368 H 121.03 2.17282 -4.41644 0
M  V30 1369 N 122.682 1.50554 0.465978 0
M  V30 1370 C 123.93 1.61479 1.21528 0
M  V30 1371 C 124.251 0.319596 1.92363 0
M  V30 1372 O 123.521 -0.663194 1.84333 0
M  V30 1373 H 122.101 0.595055 0.451573 0
M  V30 1374 H 124.763 1.87355 0.53704 0
M  V30 1375 H 123.859 2.42846 1.96042 0
M  V30 1376 N 124.16 -0.719506 1.40217 0
M  V30 1377 C 125.108 -1.85493 1.40339 0
M  V30 1378 C 126.102 -1.66995 0.284415 0
M  V30 1379 O 127.308 -1.74148 0.455252 0
M  V30 1380 H 123.683 -0.610857 0.438586 0
M  V30 1381 H 125.654 -1.82506 2.36081 0
M  V30 1382 C 124.403 -3.23321 1.27901 0
M  V30 1383 H 123.726 -3.38159 2.1328 0
M  V30 1384 H 125.166 -4.02914 1.32045 0
M  V30 1385 C 123.625 -3.36898 -0.0111355 0
M  V30 1386 O 124.155 -3.89674 -0.975538 0
M  V30 1387 N 122.361 -2.90492 -0.0793393 0
M  V30 1388 H 121.908 -2.47731 0.706183 0
M  V30 1389 H 121.866 -2.99955 -0.942038 0
M  V30 1390 N 125.638 -1.25649 -0.95132 0
M  V30 1391 C 126.568 -1.08808 -2.06599 0
M  V30 1392 C 127.549 0.00382547 -1.701 0
M  V30 1393 O 128.734 -0.166325 -1.93486 0
M  V30 1394 C 125.864 -0.709542 -3.39975 0
M  V30 1395 C 124.818 -1.75206 -3.90496 0
M  V30 1396 C 124.144 -1.22811 -5.20405 0
M  V30 1397 C 125.444 -3.15153 -4.16504 0
M  V30 1398 H 127.138 -2.02048 -2.20946 0
M  V30 1399 H 124.684 -0.972835 -1.06169 0
M  V30 1400 H 126.637 -0.578649 -4.17408 0
M  V30 1401 H 125.361 0.258556 -3.25575 0
M  V30 1402 H 124.02 -1.87145 -3.15234 0
M  V30 1403 H 123.668 -0.250145 -5.02378 0
M  V30 1404 H 123.368 -1.92492 -5.55176 0
M  V30 1405 H 124.892 -1.10968 -6.00432 0
M  V30 1406 H 126.306 -3.06349 -4.84586 0
M  V30 1407 H 124.703 -3.82333 -4.62538 0
M  V30 1408 H 125.773 -3.61966 -3.22658 0
M  V30 1409 N 127.117 1.15442 -1.07289 0
M  V30 1410 C 128.345 1.90096 -0.81676 0
M  V30 1411 C 128.76 1.7798 0.629966 0
M  V30 1412 O 128.117 1.1313 1.43206 0
M  V30 1413 C 128.168 3.40466 -1.21512 0
M  V30 1414 O 127.889 3.52232 -2.60508 0
M  V30 1415 C 129.39 4.32145 -0.988198 0
M  V30 1416 H 126.61 0.602495 -0.295366 0
M  V30 1417 H 129.154 1.4627 -1.42918 0
M  V30 1418 H 127.309 3.81958 -0.647039 0
M  V30 1419 H 127.723 4.45549 -2.76742 0
M  V30 1420 H 129.197 5.36072 -1.31645 0
M  V30 1421 H 129.674 4.39135 0.0755063 0
M  V30 1422 H 130.28 3.96395 -1.54115 0
M  V30 1423 N 128.595 0.856903 1.32268 0
M  V30 1424 C 129.842 0.461386 1.97174 0
M  V30 1425 C 130.17 -0.983491 1.67803 0
M  V30 1426 O 129.425 -1.70541 0.959903 0
M  V30 1427 C 129.724 0.649919 3.51441 0
M  V30 1428 C 129.39 2.0656 4.00804 0
M  V30 1429 C 128.052 2.45279 4.13995 0
M  V30 1430 C 130.404 2.98947 4.26943 0
M  V30 1431 C 127.732 3.75653 4.50668 0
M  V30 1432 C 130.084 4.28822 4.65075 0
M  V30 1433 C 128.748 4.67472 4.76472 0
M  V30 1434 H 128.018 0.168833 0.72151 0
M  V30 1435 H 130.665 1.08739 1.57633 0
M  V30 1436 H 128.97 -0.0593018 3.91755 0
M  V30 1437 H 130.667 0.32391 3.9969 0
M  V30 1438 H 127.257 1.75495 3.91024 0
M  V30 1439 H 131.441 2.70265 4.16258 0
M  V30 1440 H 126.697 4.05379 4.57688 0
M  V30 1441 H 130.871 5.0047 4.84255 0
M  V30 1442 H 128.498 5.68539 5.04646 0
M  V30 1443 N 130.073 -1.45103 0.615059 0
M  V30 1444 C 131.021 -2.32331 -0.111791 0
M  V30 1445 C 132.015 -1.46409 -0.852102 0
M  V30 1446 O 133.221 -1.62849 -0.766821 0
M  V30 1447 H 129.596 -0.749993 -0.0549072 0
M  V30 1448 H 131.567 -2.91407 0.642225 0
M  V30 1449 C 130.316 -3.3015 -1.09071 0
M  V30 1450 H 129.639 -3.96265 -0.530485 0
M  V30 1451 H 131.079 -3.93898 -1.56908 0
M  V30 1452 C 129.538 -2.57875 -2.168 0
M  V30 1453 O 130.068 -2.36567 -3.24652 0
M  V30 1454 N 128.274 -2.17884 -1.92289 0
M  V30 1455 H 127.821 -2.35413 -1.04587 0
M  V30 1456 H 127.779 -1.6985 -2.64572 0
M  V30 1457 N 131.551 -0.354651 -1.53558 0
M  V30 1458 C 132.828 0.294281 -1.93374 0
M  V30 1459 C 133.208 1.67313 -1.28723 0
M  V30 1460 O 132.556 2.24179 -0.442247 0
M  V30 1461 C 132.766 0.355445 -3.47185 0
M  V30 1462 C 134.114 0.601007 -4.20325 0
M  V30 1463 O 135.138 0.437106 -3.53508 0
M  V30 1464 O 133.997 0.919322 -5.38712 0
M  V30 1465 H 131.091 0.174033 -0.808481 0
M  V30 1466 H 133.637 -0.406638 -1.64756 0
M  V30 1467 H 132.409 -0.611729 -3.86489 0
M  V30 1468 H 132.032 1.1027 -3.82003 0
M  V30 1469 N 133.029 1.57378 -0.0835403 0
M  V30 1470 C 134.276 1.9393 0.58287 0
M  V30 1471 C 134.604 0.964455 1.68904 0
M  V30 1472 O 133.859 -0.0179474 1.95692 0
M  V30 1473 C 134.158 3.37063 1.1884 0
M  V30 1474 C 133.824 4.50424 0.207194 0
M  V30 1475 C 132.486 4.81159 -0.0627115 0
M  V30 1476 C 134.838 5.19136 -0.463426 0
M  V30 1477 C 132.166 5.77939 -1.01012 0
M  V30 1478 C 134.518 6.16931 -1.39924 0
M  V30 1479 C 133.182 6.46078 -1.67749 0
M  V30 1480 H 132.452 0.70964 0.213287 0
M  V30 1481 H 135.099 1.90856 -0.156916 0
M  V30 1482 H 133.404 3.3666 2.00418 0
M  V30 1483 H 135.101 3.6264 1.71153 0
M  V30 1484 H 131.691 4.2646 0.427747 0
M  V30 1485 H 135.875 4.95576 -0.268034 0
M  V30 1486 H 131.131 5.98842 -1.23283 0
M  V30 1487 H 135.305 6.69273 -1.92476 0
M  V30 1488 H 132.932 7.2088 -2.41321 0
M  V30 1489 N 134.507 -0.190092 1.56449 0
M  V30 1490 C 135.753 -0.911052 1.81184 0
M  V30 1491 C 136.086 -1.82699 0.658396 0
M  V30 1492 O 135.361 -1.91491 -0.340775 0
M  V30 1493 C 135.644 -1.72297 3.16205 0
M  V30 1494 C 135.497 -0.831419 4.42049 0
M  V30 1495 C 136.816 -2.69454 3.47969 0
M  V30 1496 H 133.935 -0.32977 0.659106 0
M  V30 1497 H 136.577 -0.178169 1.89163 0
M  V30 1498 H 134.727 -2.34778 3.09534 0
M  V30 1499 H 136.399 -0.220929 4.60771 0
M  V30 1500 H 134.642 -0.138406 4.33579 0
M  V30 1501 H 135.313 -1.43461 5.33032 0
M  V30 1502 H 137.789 -2.17104 3.54972 0
M  V30 1503 H 136.665 -3.23342 4.43555 0
M  V30 1504 H 136.926 -3.48744 2.71717 0
M  V30 1505 N 135.985 -1.50799 -0.457987 0
M  V30 1506 C 137.262 -1.52968 -1.21902 0
M  V30 1507 C 137.642 -0.281906 -2.09209 0
M  V30 1508 O 136.99 0.734076 -2.16388 0
M  V30 1509 C 137.2 -2.8326 -2.03875 0
M  V30 1510 C 138.548 -3.34425 -2.6162 0
M  V30 1511 O 139.572 -2.8467 -2.14106 0
M  V30 1512 O 138.431 -4.21188 -3.48228 0
M  V30 1513 H 135.525 -0.614129 -0.553873 0
M  V30 1514 H 138.071 -1.63098 -0.468739 0
M  V30 1515 H 136.843 -3.65543 -1.39621 0
M  V30 1516 H 136.466 -2.76195 -2.8601 0
M  V30 1517 N 137.463 0.71206 -1.40597 0
M  V30 1518 C 138.396 1.83582 -1.35546 0
M  V30 1519 C 139.374 1.61032 -0.225284 0
M  V30 1520 O 140.558 1.83998 -0.409519 0
M  V30 1521 C 137.685 3.19983 -1.11034 0
M  V30 1522 C 136.731 3.61355 -2.2655 0
M  V30 1523 S 137.564 3.68062 -3.88961 0
M  V30 1524 C 138.72 5.07216 -3.66719 0
M  V30 1525 H 138.953 1.87586 -2.30648 0
M  V30 1526 H 136.486 0.879182 -1.26924 0
M  V30 1527 H 138.444 3.98734 -0.975761 0
M  V30 1528 H 137.105 3.13608 -0.175798 0
M  V30 1529 H 136.298 4.60403 -2.0505 0
M  V30 1530 H 135.9 2.8987 -2.36329 0
M  V30 1531 H 138.192 5.94238 -3.25404 0
M  V30 1532 H 139.135 5.33753 -4.6531 0
M  V30 1533 H 139.543 4.77976 -3.00332 0
M  V30 1534 N 138.941 1.26152 0.944643 0
M  V30 1535 C 140.188 1.11492 1.69044 0
M  V30 1536 C 140.516 -0.342366 1.91463 0
M  V30 1537 O 139.771 -1.26812 1.49054 0
M  V30 1538 C 140.07 1.82541 3.07268 0
M  V30 1539 C 139.736 3.32445 3.04616 0
M  V30 1540 C 138.398 3.73337 3.036 0
M  V30 1541 C 140.75 4.28171 2.97185 0
M  V30 1542 C 138.078 5.08348 2.92915 0
M  V30 1543 C 140.43 5.63218 2.88041 0
M  V30 1544 C 139.094 6.03426 2.85366 0
M  V30 1545 H 138.364 0.407977 0.618576 0
M  V30 1546 H 141.011 1.56551 1.10291 0
M  V30 1547 H 139.316 1.29941 3.69625 0
M  V30 1548 H 141.013 1.68642 3.63815 0
M  V30 1549 H 137.603 2.99915 3.06185 0
M  V30 1550 H 141.787 3.97563 2.97081 0
M  V30 1551 H 137.043 5.38667 2.89219 0
M  V30 1552 H 141.217 6.37078 2.81254 0
M  V30 1553 H 138.844 7.07999 2.76842 0
M  V30 1554 N 140.419 -1.14872 1.07899 0
M  V30 1555 C 141.644 -1.90202 0.826926 0
M  V30 1556 C 142.069 -1.77774 -0.614664 0
M  V30 1557 O 141.427 -1.11431 -1.43013 0
M  V30 1558 C 141.475 -3.38352 1.24702 0
M  V30 1559 O 140.579 -4.10497 0.39575 0
M  V30 1560 H 139.92 -0.591968 0.300782 0
M  V30 1561 H 142.45 -1.45437 1.43907 0
M  V30 1562 H 142.46 -3.89156 1.22563 0
M  V30 1563 H 141.135 -3.46715 2.29698 0
M  V30 1564 H 139.712 -3.69796 0.480117 0
M  V30 1565 N 141.898 -0.863906 -1.31812 0
M  V30 1566 C 143.144 -0.472535 -1.97218 0
M  V30 1567 C 143.477 0.971394 -1.68159 0
M  V30 1568 O 142.752 1.68309 -0.974798 0
M  V30 1569 C 143.035 -0.723054 -3.52766 0
M  V30 1570 C 142.888 -2.21608 -3.91421 0
M  V30 1571 C 144.207 -0.185522 -4.39709 0
M  V30 1572 H 141.326 -0.173158 -0.71637 0
M  V30 1573 H 143.968 -1.08403 -1.56041 0
M  V30 1574 H 142.118 -0.202577 -3.87971 0
M  V30 1575 H 143.79 -2.80334 -3.66347 0
M  V30 1576 H 142.033 -2.691 -3.40246 0
M  V30 1577 H 142.704 -2.34203 -4.99853 0
M  V30 1578 H 145.18 -0.630726 -4.11292 0
M  V30 1579 H 144.056 -0.390306 -5.47511 0
M  V30 1580 H 144.317 0.912229 -4.32586 0
M  V30 1581 N 143.376 1.44774 -0.622745 0
M  V30 1582 C 144.306 2.33382 0.0741861 0
M  V30 1583 C 145.287 1.47719 0.843387 0
M  V30 1584 O 146.472 1.76458 0.810934 0
M  V30 1585 C 143.602 3.30663 1.06204 0
M  V30 1586 C 142.556 4.26079 0.405037 0
M  V30 1587 C 141.882 5.13165 1.5022 0
M  V30 1588 C 143.182 5.1781 -0.683414 0
M  V30 1589 H 144.876 2.91905 -0.665713 0
M  V30 1590 H 142.422 1.40363 -0.321587 0
M  V30 1591 H 144.375 3.9153 1.55827 0
M  V30 1592 H 143.099 2.70331 1.83272 0
M  V30 1593 H 141.758 3.66532 -0.0704683 0
M  V30 1594 H 141.406 4.49191 2.26355 0
M  V30 1595 H 141.106 5.77812 1.06803 0
M  V30 1596 H 142.63 5.76902 2.00041 0
M  V30 1597 H 144.044 5.72661 -0.270631 0
M  V30 1598 H 142.441 5.91015 -1.04023 0
M  V30 1599 H 143.511 4.59326 -1.55395 0
M  V30 1600 N 144.854 0.36279 1.53368 0
M  V30 1601 C 146.094 -0.227882 2.03126 0
M  V30 1602 C 146.458 -1.4622 1.24434 0
M  V30 1603 O 147.659 -2.12831 1.64184 0
M  V30 1604 C 145.93 -0.515427 3.53664 0
M  V30 1605 S 147.489 -1.08017 4.25297 0
M  V30 1606 H 144.307 -0.0665377 0.70788 0
M  V30 1607 H 146.909 0.50501 1.88865 0
M  V30 1608 H 145.613 0.390436 4.08539 0
M  V30 1609 H 145.144 -1.27747 3.72081 0
M  V30 1610 H 147.159 -2.36462 4.36234 0
M  V30 1611 N 146.332 -1.57332 0.0918853 0
M  V30 1612 C 147.242 -2.17368 -0.882505 0
M  V30 1613 C 148.258 -1.14226 -1.31257 0
M  V30 1614 O 149.434 -1.46582 -1.38115 0
M  V30 1615 C 146.499 -2.73962 -2.12476 0
M  V30 1616 C 145.56 -3.92048 -1.7492 0
M  V30 1617 C 144.793 -4.45933 -2.93223 0
M  V30 1618 O 145.016 -3.98764 -4.07852 0
M  V30 1619 O 143.95 -5.36999 -2.71875 0
M  V30 1620 H 147.776 -3.01031 -0.40172 0
M  V30 1621 H 145.361 -1.48813 -0.132291 0
M  V30 1622 H 147.243 -3.10147 -2.85283 0
M  V30 1623 H 145.918 -1.93347 -2.59613 0
M  V30 1624 H 144.825 -3.6068 -0.993025 0
M  V30 1625 H 146.158 -4.74017 -1.32548 0
M  V30 1626 N 147.81 0.181792 -1.56548 0
M  V30 1627 C 149.035 0.920019 -1.85877 0
M  V30 1628 C 149.46 1.75494 -0.677021 0
M  V30 1629 O 148.818 1.77399 0.374056 0
M  V30 1630 C 148.866 1.78112 -3.13542 0
M  V30 1631 O 147.97 2.88152 -2.95029 0
M  V30 1632 H 147.311 0.258334 -0.611686 0
M  V30 1633 H 149.841 0.183092 -2.03779 0
M  V30 1634 H 149.851 2.18314 -3.44678 0
M  V30 1635 H 148.526 1.16777 -3.99169 0
M  V30 1636 H 147.103 2.51609 -2.75222 0
M  V30 1637 N 149.288 1.51039 0.449983 0
M  V30 1638 C 150.251 1.70863 1.5277 0
M  V30 1639 C 151.251 0.578846 1.5002 0
M  V30 1640 O 152.441 0.846213 1.52266 0
M  V30 1641 C 149.573 1.75341 2.9235 0
M  V30 1642 H 150.766 2.67034 1.36502 0
M  V30 1643 H 148.319 1.40838 0.677812 0
M  V30 1644 H 149.054 0.809383 3.14037 0
M  V30 1645 H 148.839 2.57436 2.95752 0
M  V30 1646 H 150.329 1.92559 3.70555 0
M  V30 1647 N 150.766 -0.704594 1.40972 0
M  V30 1648 C 152.177 -1.28418 1.3552 0
M  V30 1649 C 152.528 -1.96171 0.0339434 0
M  V30 1650 O 151.653 -1.98231 -0.867944 0
M  V30 1651 C 152.248 -2.33528 2.45459 0
M  V30 1652 C 150.807 -2.87085 2.43433 0
M  V30 1653 C 149.954 -1.61007 2.2577 0
M  V30 1654 H 152.905 -0.499963 1.50619 0
M  V30 1655 H 152.926 -3.14619 2.13998 0
M  V30 1656 H 152.438 -1.84187 3.41609 0
M  V30 1657 H 150.539 -3.40626 1.51013 0
M  V30 1658 H 150.652 -3.3813 3.39419 0
M  V30 1659 H 149.016 -1.86482 1.73483 0
M  V30 1660 H 149.799 -1.13675 3.23933 0
M  V30 1661 N 152.244 -1.26651 -0.937939 0
M  V30 1662 C 153.66 -1.03834 -1.21205 0
M  V30 1663 C 153.86 0.234502 -2.00131 0
M  V30 1664 O 152.916 0.942767 -2.3424 0
M  V30 1665 C 154.229 -2.27167 -1.97017 0
M  V30 1666 C 155.777 -2.32101 -2.09996 0
M  V30 1667 C 156.252 -3.55136 -2.8921 0
M  V30 1668 N 157.743 -3.55632 -2.96783 0
M  V30 1669 C 158.478 -4.475 -3.58512 0
M  V30 1670 N 157.974 -5.4966 -4.21717 0
M  V30 1671 N 159.767 -4.35145 -3.55816 0
M  V30 1672 H 151.918 -2.08398 -0.410391 0
M  V30 1673 H 154.181 -0.916031 -0.244114 0
M  V30 1674 H 153.887 -3.19765 -1.46434 0
M  V30 1675 H 153.761 -2.31672 -2.97671 0
M  V30 1676 H 156.148 -1.40015 -2.59769 0
M  V30 1677 H 156.229 -2.31605 -1.08594 0
M  V30 1678 H 155.873 -4.47553 -2.40123 0
M  V30 1679 H 155.803 -3.5288 -3.90875 0
M  V30 1680 H 158.294 -2.81743 -2.51852 0
M  V30 1681 H 158.607 -6.15943 -4.66727 0
M  V30 1682 H 156.952 -5.53514 -4.20294 0
M  V30 1683 H 160.143 -3.5455 -3.05634 0
M  V30 1684 H 160.316 -5.06934 -4.03636 0
M  V30 1685 N 153.722 1.14298 -1.08507 0
M  V30 1686 C 154.632 2.23027 -0.727753 0
M  V30 1687 C 155.648 1.71952 0.26619 0
M  V30 1688 O 156.824 2.011 0.109882 0
M  V30 1689 C 153.889 3.46403 -0.143541 0
M  V30 1690 C 152.95 4.12413 -1.19223 0
M  V30 1691 C 152.183 5.29899 -0.635798 0
M  V30 1692 O 152.406 5.67796 0.544393 0
M  V30 1693 O 151.34 5.85717 -1.38634 0
M  V30 1694 H 155.166 2.55945 -1.63481 0
M  V30 1695 H 152.751 1.22248 -0.858817 0
M  V30 1696 H 154.633 4.21018 0.179404 0
M  V30 1697 H 153.308 3.15206 0.736659 0
M  V30 1698 H 152.215 3.39667 -1.56772 0
M  V30 1699 H 153.548 4.47718 -2.04474 0
M  V30 1700 N 155.201 0.870884 1.31352 0
M  V30 1701 C 156.131 0.343096 2.30966 0
M  V30 1702 C 157.112 -0.566507 1.60389 0
M  V30 1703 O 158.297 -0.483336 1.88089 0
M  V30 1704 C 155.427 -0.455487 3.443 0
M  V30 1705 C 154.381 0.361103 4.26474 0
M  V30 1706 C 153.707 -0.563221 5.31725 0
M  V30 1707 C 155.007 1.59566 4.97329 0
M  V30 1708 H 156.701 1.17548 2.75359 0
M  V30 1709 H 154.247 0.566686 1.32381 0
M  V30 1710 H 156.2 -0.83525 4.13039 0
M  V30 1711 H 154.924 -1.32139 2.98675 0
M  V30 1712 H 153.583 0.722825 3.59403 0
M  V30 1713 H 153.231 -1.42643 4.82351 0
M  V30 1714 H 152.931 -0.0207409 5.87596 0
M  V30 1715 H 154.455 -0.939808 6.03324 0
M  V30 1716 H 155.869 1.28728 5.58661 0
M  V30 1717 H 154.266 2.07728 5.63 0
M  V30 1718 H 155.336 2.34798 4.24262 0
M  V30 1719 N 156.679 -1.44442 0.630414 0
M  V30 1720 C 157.626 -2.30678 -0.0749355 0
M  V30 1721 C 158.596 -1.4344 -0.837502 0
M  V30 1722 O 159.781 -1.72343 -0.818684 0
M  V30 1723 C 156.921 -3.28706 -1.05103 0
M  V30 1724 C 156.034 -4.31046 -0.286954 0
M  V30 1725 C 155.169 -5.16167 -1.2548 0
M  V30 1726 C 154.208 -6.10216 -0.479843 0
M  V30 1727 N 153.345 -6.88039 -1.39811 0
M  V30 1728 H 158.185 -2.90454 0.666386 0
M  V30 1729 H 155.722 -1.43107 0.340404 0
M  V30 1730 H 157.68 -3.84027 -1.63031 0
M  V30 1731 H 156.31 -2.70632 -1.75949 0
M  V30 1732 H 155.362 -3.78203 0.408243 0
M  V30 1733 H 156.674 -4.97794 0.316657 0
M  V30 1734 H 155.828 -5.76002 -1.90544 0
M  V30 1735 H 154.567 -4.49491 -1.89233 0
M  V30 1736 H 153.572 -5.49491 0.184295 0
M  V30 1737 H 154.797 -6.78928 0.152965 0
M  V30 1738 H 152.743 -6.24032 -2.02287 0
M  V30 1739 H 152.66 -7.51223 -0.848508 0
M  V30 1740 H 153.928 -7.52397 -2.03762 0
M  V30 1741 N 158.157 -0.370918 -1.53173 0
M  V30 1742 C 159.12 0.460778 -2.24521 0
M  V30 1743 C 160.12 1.00536 -1.25496 0
M  V30 1744 O 161.31 0.890266 -1.49733 0
M  V30 1745 C 158.442 1.64457 -2.98608 0
M  V30 1746 H 159.635 -0.163613 -2.99453 0
M  V30 1747 H 157.188 -0.122699 -1.55818 0
M  V30 1748 H 157.923 2.30691 -2.2793 0
M  V30 1749 H 157.708 1.26099 -3.7127 0
M  V30 1750 H 159.198 2.23384 -3.5283 0
M  V30 1751 N 159.635 1.57281 -0.100228 0
M  V30 1752 C 160.583 2.15542 0.874328 0
M  V30 1753 C 161.577 1.09962 1.28859 0
M  V30 1754 O 162.783 1.28298 1.26252 0
M  V30 1755 H 159.158 0.689567 0.300003 0
M  V30 1756 H 161.129 2.96241 0.35829 0
M  V30 1757 C 159.878 2.75454 2.1218 0
M  V30 1758 H 159.201 3.56384 1.81193 0
M  V30 1759 H 160.641 3.19781 2.78417 0
M  V30 1760 C 159.1 1.71602 2.89921 0
M  V30 1761 O 159.63 1.15804 3.84646 0
M  V30 1762 N 157.836 1.41975 2.53558 0
M  V30 1763 H 157.383 1.87539 1.76598 0
M  V30 1764 H 157.341 0.727274 3.05873 0
M  V30 1765 N 161.113 -0.173488 1.56642 0
M  V30 1766 C 162.343 -0.904781 1.85734 0
M  V30 1767 C 162.751 -1.76431 0.68328 0
M  V30 1768 O 162.094 -1.802 -0.356865 0
M  V30 1769 C 162.156 -1.83382 3.09211 0
M  V30 1770 C 161.82 -1.15411 4.42187 0
M  V30 1771 C 162.817 -0.520609 5.17287 0
M  V30 1772 C 160.502 -1.15151 4.88923 0
M  V30 1773 C 162.496 0.106412 6.37311 0
M  V30 1774 C 160.183 -0.520664 6.08878 0
M  V30 1775 C 161.181 0.107196 6.82916 0
M  V30 1776 O 160.869 0.728102 8.00596 0
M  V30 1777 H 160.601 -0.268408 0.62043 0
M  V30 1778 H 163.155 -0.179096 2.04618 0
M  V30 1779 H 161.385 -2.59976 2.86268 0
M  V30 1780 H 163.074 -2.43476 3.24768 0
M  V30 1781 H 163.84 -0.514606 4.82262 0
M  V30 1782 H 159.719 -1.62961 4.31236 0
M  V30 1783 H 163.263 0.597081 6.9504 0
M  V30 1784 H 159.16 -0.524242 6.43368 0
M  V30 1785 H 159.928 0.627138 8.16094 0
M  V30 1786 N 162.591 -1.51276 -0.441967 0
M  V30 1787 C 163.554 -1.7167 -1.51862 0
M  V30 1788 C 164.554 -0.586793 -1.49711 0
M  V30 1789 O 165.744 -0.854276 -1.51815 0
M  V30 1790 C 162.876 -1.76889 -2.91416 0
M  V30 1791 H 164.069 -2.67754 -1.35084 0
M  V30 1792 H 161.622 -1.41196 -0.670333 0
M  V30 1793 H 162.357 -0.826026 -3.13604 0
M  V30 1794 H 162.142 -2.59001 -2.94382 0
M  V30 1795 H 163.632 -1.94522 -3.69528 0
M  V30 1796 N 164.069 0.697108 -1.41344 0
M  V30 1797 C 165.316 1.45714 -1.40619 0
M  V30 1798 C 165.644 1.94494 -0.0147907 0
M  V30 1799 O 164.899 1.69794 0.973066 0
M  V30 1800 C 165.198 2.68553 -2.35826 0
M  V30 1801 C 164.864 2.38438 -3.82698 0
M  V30 1802 C 163.526 2.29936 -4.22709 0
M  V30 1803 C 165.878 2.13567 -4.75435 0
M  V30 1804 C 163.206 1.94656 -5.53467 0
M  V30 1805 C 165.558 1.79797 -6.06511 0
M  V30 1806 C 164.222 1.69789 -6.45545 0
M  V30 1807 H 163.492 0.533206 -0.51456 0
M  V30 1808 H 166.139 0.796901 -1.74131 0
M  V30 1809 H 164.444 3.39503 -1.95563 0
M  V30 1810 H 166.141 3.2669 -2.32539 0
M  V30 1811 H 162.731 2.4595 -3.51008 0
M  V30 1812 H 166.915 2.19082 -4.45328 0
M  V30 1813 H 162.171 1.8546 -5.82593 0
M  V30 1814 H 166.345 1.59572 -6.77872 0
M  V30 1815 H 163.972 1.4222 -7.46778 0
M  V30 1816 N 165.547 1.27147 0.931209 0
M  V30 1817 C 166.494 1.09568 2.03134 0
M  V30 1818 C 167.464 -0.00222433 1.661 0
M  V30 1819 O 168.649 0.159439 1.90133 0
M  V30 1820 C 165.789 0.745231 3.36957 0
M  V30 1821 C 164.902 1.92041 3.86968 0
M  V30 1822 C 164.037 1.51216 5.09222 0
M  V30 1823 C 163.076 2.65504 5.5152 0
M  V30 1824 N 162.213 2.25291 6.64972 0
M  V30 1825 H 167.053 2.03708 2.17502 0
M  V30 1826 H 164.59 1.01411 1.06556 0
M  V30 1827 H 166.548 0.522878 4.1391 0
M  V30 1828 H 165.178 -0.159202 3.22407 0
M  V30 1829 H 164.23 2.25541 3.06326 0
M  V30 1830 H 165.542 2.77787 4.1429 0
M  V30 1831 H 164.696 1.25084 5.93666 0
M  V30 1832 H 163.435 0.625749 4.83669 0
M  V30 1833 H 162.44 2.92354 4.65628 0
M  V30 1834 H 163.665 3.54761 5.7907 0
M  V30 1835 H 161.611 1.39098 6.41083 0
M  V30 1836 H 161.528 3.04577 6.91931 0
M  V30 1837 H 162.796 2.02398 7.52765 0
M  V30 1838 N 167.025 -1.13721 1.09112 0
M  V30 1839 C 168.274 -1.84275 0.82009 0
M  V30 1840 C 168.587 -1.84253 -0.656509 0
M  V30 1841 O 169.793 -2.50668 -1.04296 0
M  V30 1842 C 168.249 -3.30825 1.41714 0
M  V30 1843 C 167.857 -3.39244 2.92605 0
M  V30 1844 C 169.601 -4.06443 1.22492 0
M  V30 1845 C 167.508 -4.80047 3.45411 0
M  V30 1846 H 166.438 -0.690387 0.30312 0
M  V30 1847 H 169.089 -1.28146 1.31343 0
M  V30 1848 H 167.471 -3.86737 0.851498 0
M  V30 1849 H 168.645 -2.93344 3.55367 0
M  V30 1850 H 166.96 -2.77088 3.10823 0
M  V30 1851 H 169.557 -5.10387 1.59402 0
M  V30 1852 H 169.9 -4.15972 0.165299 0
M  V30 1853 H 170.433 -3.56852 1.75788 0
M  V30 1854 H 167.172 -4.75709 4.50978 0
M  V30 1855 H 166.692 -5.26455 2.87411 0
M  V30 1856 H 168.371 -5.48957 3.42425 0
M  V30 1857 N 168.503 -0.877838 -1.30888 0
M  V30 1858 C 169.733 -0.506678 -2.00291 0
M  V30 1859 C 170.141 0.907449 -1.66018 0
M  V30 1860 O 169.484 1.60719 -0.88967 0
M  V30 1861 C 169.546 -0.59323 -3.54572 0
M  V30 1862 C 169.21 -1.97038 -4.12341 0
M  V30 1863 C 170.207 -2.93889 -4.28865 0
M  V30 1864 C 167.892 -2.27383 -4.47886 0
M  V30 1865 C 169.886 -4.19224 -4.80136 0
M  V30 1866 C 167.573 -3.52965 -4.98857 0
M  V30 1867 C 168.571 -4.48701 -5.14934 0
M  V30 1868 O 168.259 -5.72056 -5.64808 0
M  V30 1869 H 167.991 -0.1951 -0.647234 0
M  V30 1870 H 170.545 -1.18301 -1.6791 0
M  V30 1871 H 168.775 0.140057 -3.86446 0
M  V30 1872 H 170.464 -0.234372 -4.05223 0
M  V30 1873 H 171.23 -2.71756 -4.01714 0
M  V30 1874 H 167.109 -1.53639 -4.34645 0
M  V30 1875 H 170.653 -4.93956 -4.92599 0
M  V30 1876 H 166.55 -3.74939 -5.25443 0
M  V30 1877 H 167.318 -5.74337 -5.83163 0
M  V30 1878 N 169.982 1.44106 -0.638065 0
M  V30 1879 C 171.259 1.95453 -0.0759321 0
M  V30 1880 C 171.639 1.57984 1.40015 0
M  V30 1881 O 170.987 0.857361 2.11806 0
M  V30 1882 C 171.197 3.47655 -0.306132 0
M  V30 1883 C 172.545 4.24114 -0.203008 0
M  V30 1884 O 173.569 3.55405 -0.237871 0
M  V30 1885 O 172.428 5.46381 -0.113827 0
M  V30 1886 H 169.522 0.826797 0.0183332 0
M  V30 1887 H 172.068 1.54122 -0.710251 0
M  V30 1888 H 170.84 3.68 -1.3301 0
M  V30 1889 H 170.463 3.95949 0.361991 0
M  V30 1890 N 171.46 0.379036 1.52974 0
M  V30 1891 C 172.707 -0.206421 2.01445 0
M  V30 1892 C 173.035 -1.47668 1.26587 0
M  V30 1893 O 172.29 -1.92514 0.351675 0
M  V30 1894 C 172.589 -0.53096 3.53434 0
M  V30 1895 C 172.255 0.646546 4.46241 0
M  V30 1896 C 170.917 0.969604 4.7133 0
M  V30 1897 C 173.269 1.43479 5.01062 0
M  V30 1898 C 170.597 2.08263 5.48492 0
M  V30 1899 C 172.949 2.53834 5.7944 0
M  V30 1900 C 171.613 2.86659 6.02812 0
M  V30 1901 H 170.883 -0.0755349 0.73714 0
M  V30 1902 H 173.53 0.514271 1.84465 0
M  V30 1903 H 171.835 -1.33285 3.68432 0
M  V30 1904 H 173.532 -0.996417 3.88423 0
M  V30 1905 H 170.122 0.384734 4.2687 0
M  V30 1906 H 174.306 1.19844 4.81613 0
M  V30 1907 H 169.562 2.34078 5.64816 0
M  V30 1908 H 173.736 3.15319 6.20924 0
M  V30 1909 H 171.363 3.73026 6.62387 0
M  V30 1910 N 172.938 -1.57226 0.108567 0
M  V30 1911 C 173.886 -2.16002 -0.862885 0
M  V30 1912 C 174.88 -1.10644 -1.28274 0
M  V30 1913 O 176.086 -1.28966 -1.2557 0
M  V30 1914 H 172.461 -0.691148 -0.296342 0
M  V30 1915 H 174.432 -2.96427 -0.342575 0
M  V30 1916 C 173.181 -2.76576 -2.10716 0
M  V30 1917 H 172.504 -3.5734 -1.793 0
M  V30 1918 H 173.944 -3.21253 -2.76717 0
M  V30 1919 C 172.403 -1.73137 -2.89007 0
M  V30 1920 O 172.933 -1.17842 -3.84026 0
M  V30 1921 N 171.139 -1.43317 -2.52801 0
M  V30 1922 H 170.686 -1.88473 -1.75601 0
M  V30 1923 H 170.644 -0.743485 -3.05483 0
M  V30 1924 N 174.416 0.165178 -1.56732 0
M  V30 1925 C 175.644 0.896218 -1.86482 0
M  V30 1926 C 176.059 1.75555 -0.694675 0
M  V30 1927 O 175.416 1.79379 0.33607 0
M  V30 1928 C 175.467 1.76792 -3.1532 0
M  V30 1929 O 175.188 0.943239 -4.27825 0
M  V30 1930 C 176.689 2.6081 -3.58459 0
M  V30 1931 H 173.909 0.260064 -0.618553 0
M  V30 1932 H 176.453 0.163428 -2.03846 0
M  V30 1933 H 174.608 2.45398 -2.99764 0
M  V30 1934 H 175.022 1.53998 -5.01383 0
M  V30 1935 H 176.496 3.17579 -4.51495 0
M  V30 1936 H 176.973 3.35977 -2.82872 0
M  V30 1937 H 177.579 1.97526 -3.76648 0
M  V30 1938 N 175.894 1.51508 0.433938 0
M  V30 1939 C 177.171 1.54888 1.19453 0
M  V30 1940 C 177.551 0.315154 2.08734 0
M  V30 1941 O 176.899 -0.699558 2.17528 0
M  V30 1942 C 177.109 2.86467 1.99342 0
M  V30 1943 C 178.457 3.38545 2.56267 0
M  V30 1944 O 179.481 2.88041 2.0955 0
M  V30 1945 O 178.34 4.26675 3.41483 0
M  V30 1946 H 175.434 0.622863 0.544032 0
M  V30 1947 H 177.98 1.63823 0.442732 0
M  V30 1948 H 176.752 3.67718 1.33788 0
M  V30 1949 H 176.375 2.8071 2.8158 0
M  V30 1950 N 177.372 -0.689602 1.41712 0
M  V30 1951 C 178.32 -1.82475 1.44242 0
M  V30 1952 C 179.314 -1.66354 0.319774 0
M  V30 1953 O 180.52 -1.73143 0.492089 0
M  V30 1954 H 176.895 -0.601416 0.451445 0
M  V30 1955 H 178.866 -1.77458 2.39899 0
M  V30 1956 C 177.615 -3.20535 1.3473 0
M  V30 1957 H 176.938 -3.33559 2.20405 0
M  V30 1958 H 178.378 -4.00023 1.40562 0
M  V30 1959 C 176.837 -3.36846 0.0603281 0
M  V30 1960 O 177.367 -3.91656 -0.892663 0
M  V30 1961 N 175.573 -2.90595 -0.0177039 0
M  V30 1962 H 175.12 -2.46178 0.758572 0
M  V30 1963 H 175.078 -3.01886 -0.878201 0
M  V30 1964 N 178.85 -1.27639 -0.924453 0
M  V30 1965 C 180.097 -1.14167 -1.67249 0
M  V30 1966 C 180.425 0.311863 -1.91984 0
M  V30 1967 O 179.68 1.24425 -1.51053 0
M  V30 1968 C 179.979 -1.87407 -3.04325 0
M  V30 1969 C 179.645 -3.37249 -2.99289 0
M  V30 1970 C 178.307 -3.7812 -2.97622 0
M  V30 1971 C 180.659 -4.32845 -2.90336 0
M  V30 1972 C 177.987 -5.12944 -2.8479 0
M  V30 1973 C 180.339 -5.6773 -2.79045 0
M  V30 1974 C 179.003 -6.07889 -2.7573 0
M  V30 1975 H 178.273 -0.417766 -0.612007 0
M  V30 1976 H 180.92 -1.58286 -1.07786 0
M  V30 1977 H 179.225 -1.35805 -3.67511 0
M  V30 1978 H 180.922 -1.74408 -3.61086 0
M  V30 1979 H 177.512 -3.04748 -3.01374 0
M  V30 1980 H 181.696 -4.02239 -2.90719 0
M  V30 1981 H 176.952 -5.432 -2.80612 0
M  V30 1982 H 181.126 -6.41472 -2.71083 0
M  V30 1983 H 178.753 -7.12314 -2.65544 0
M  V30 1984 N 180.328 1.1314 -1.09713 0
M  V30 1985 C 181.577 1.83838 -0.829851 0
M  V30 1986 C 181.89 1.84599 0.646728 0
M  V30 1987 O 183.096 2.51218 1.02965 0
M  V30 1988 C 181.552 3.30069 -1.43466 0
M  V30 1989 C 181.16 3.37688 -2.94399 0
M  V30 1990 C 182.904 4.05788 -1.24645 0
M  V30 1991 C 180.811 4.78209 -3.47952 0
M  V30 1992 H 179.741 0.68877 -0.306777 0
M  V30 1993 H 182.392 1.27448 -1.3202 0
M  V30 1994 H 180.774 3.8628 -0.871996 0
M  V30 1995 H 181.948 2.91456 -3.56918 0
M  V30 1996 H 180.263 2.75436 -3.12289 0
M  V30 1997 H 182.86 5.09535 -1.62107 0
M  V30 1998 H 183.203 4.15878 -0.187357 0
M  V30 1999 H 183.736 3.55915 -1.77678 0
M  V30 2000 H 180.475 4.73311 -4.53495 0
M  V30 2001 H 179.995 5.24924 -2.90198 0
M  V30 2002 H 181.674 5.47133 -3.45332 0
M  V30 2003 N 181.806 0.884767 1.30421 0
M  V30 2004 C 183.046 0.509806 1.9794 0
M  V30 2005 C 183.41 -0.923736 1.68319 0
M  V30 2006 O 184.611 -1.40481 2.29169 0
M  V30 2007 C 182.882 0.776732 3.48858 0
M  V30 2008 S 184.441 0.503843 4.35898 0
M  V30 2009 H 181.259 0.189699 0.685227 0
M  V30 2010 H 183.861 1.14399 1.58535 0
M  V30 2011 H 182.565 1.81857 3.67908 0
M  V30 2012 H 182.096 0.1301 3.93185 0
M  V30 2013 H 184.111 -0.657625 4.91823 0
M  V30 2014 N 183.284 -1.43765 0.645699 0
M  V30 2015 C 184.231 -2.30745 -0.0504648 0
M  V30 2016 C 185.201 -1.4432 -0.822241 0
M  V30 2017 O 186.386 -1.73202 -0.800358 0
M  V30 2018 C 183.526 -3.29802 -1.0161 0
M  V30 2019 C 182.639 -4.31326 -0.241219 0
M  V30 2020 C 181.774 -5.17469 -1.19998 0
M  V30 2021 C 180.813 -6.10691 -0.415094 0
M  V30 2022 N 179.95 -6.89483 -1.32506 0
M  V30 2023 H 184.79 -2.8973 0.697155 0
M  V30 2024 H 182.327 -1.42738 0.355563 0
M  V30 2025 H 184.285 -3.85734 -1.58949 0
M  V30 2026 H 182.915 -2.72483 -1.73069 0
M  V30 2027 H 181.967 -3.77749 0.448334 0
M  V30 2028 H 183.279 -4.9743 0.369437 0
M  V30 2029 H 182.433 -5.7799 -1.84424 0
M  V30 2030 H 181.172 -4.51473 -1.84455 0
M  V30 2031 H 180.177 -5.49265 0.242565 0
M  V30 2032 H 181.402 -6.78727 0.224966 0
M  V30 2033 H 179.348 -6.26142 -1.95657 0
M  V30 2034 H 179.265 -7.52081 -0.768783 0
M  V30 2035 H 180.533 -7.54516 -1.9577 0
M  V30 2036 N 184.763 -0.387143 -1.52771 0
M  V30 2037 C 185.673 0.456442 -2.30117 0
M  V30 2038 C 186.689 1.07342 -1.36944 0
M  V30 2039 O 187.865 1.07971 -1.70013 0
M  V30 2040 C 184.93 1.56957 -3.09136 0
M  V30 2041 C 183.991 0.977916 -4.18014 0
M  V30 2042 C 183.224 2.038 -4.93256 0
M  V30 2043 O 183.447 3.25271 -4.68567 0
M  V30 2044 O 182.381 1.6565 -5.78657 0
M  V30 2045 H 186.207 -0.17359 -3.03203 0
M  V30 2046 H 183.792 -0.150919 -1.48636 0
M  V30 2047 H 185.674 2.21628 -3.58412 0
M  V30 2048 H 184.349 2.18461 -2.38865 0
M  V30 2049 H 183.256 0.294525 -3.72939 0
M  V30 2050 H 184.589 0.407128 -4.90513 0
M  V30 2051 N 186.241 1.57166 -0.116904 0
M  V30 2052 C 187.518 1.86645 0.585049 0
M  V30 2053 C 187.898 1.0177 1.84949 0
M  V30 2054 O 187.246 0.0960379 2.28298 0
M  V30 2055 C 187.456 3.37736 0.879507 0
M  V30 2056 C 188.804 4.06289 1.23348 0
M  V30 2057 O 189.828 3.42743 0.969836 0
M  V30 2058 O 188.687 5.18455 1.7282 0
M  V30 2059 H 185.781 0.772593 0.295007 0
M  V30 2060 H 188.327 1.69025 -0.151249 0
M  V30 2061 H 187.099 3.91296 -0.0166136 0
M  V30 2062 H 186.722 3.6078 1.67103 0
M  V30 2063 N 187.719 -0.156864 1.56817 0
M  V30 2064 C 188.649 -1.19589 2.00551 0
M  V30 2065 C 189.63 -1.4536 0.883426 0
M  V30 2066 O 190.815 -1.56449 1.15054 0
M  V30 2067 C 187.945 -2.53143 2.37773 0
M  V30 2068 C 186.899 -2.41913 3.53075 0
M  V30 2069 C 186.225 -3.80088 3.76081 0
M  V30 2070 C 187.525 -1.91157 4.86062 0
M  V30 2071 H 189.219 -0.832293 2.87599 0
M  V30 2072 H 186.765 -0.398918 1.38364 0
M  V30 2073 H 188.718 -3.26047 2.66967 0
M  V30 2074 H 187.442 -2.91319 1.4765 0
M  V30 2075 H 186.101 -1.71462 3.24031 0
M  V30 2076 H 185.749 -4.15683 2.83225 0
M  V30 2077 H 185.449 -3.73439 4.53671 0
M  V30 2078 H 186.973 -4.54556 4.0769 0
M  V30 2079 H 188.387 -2.53846 5.14038 0
M  V30 2080 H 186.784 -1.95422 5.67389 0
M  V30 2081 H 187.854 -0.866673 4.77092 0
M  V30 2082 N 189.197 -1.51736 -0.425897 0
M  V30 2083 C 190.107 -1.76738 -1.54275 0
M  V30 2084 C 191.123 -0.65211 -1.61318 0
M  V30 2085 O 192.299 -0.935654 -1.78346 0
M  V30 2086 C 189.364 -1.89755 -2.90162 0
M  V30 2087 C 188.425 -3.13633 -2.93143 0
M  V30 2088 C 187.658 -3.2602 -4.22548 0
M  V30 2089 O 187.881 -2.44067 -5.15546 0
M  V30 2090 O 186.815 -4.19071 -4.32046 0
M  V30 2091 H 190.641 -2.71502 -1.36089 0
M  V30 2092 H 188.226 -1.36376 -0.610069 0
M  V30 2093 H 190.108 -2.00236 -3.70788 0
M  V30 2094 H 188.783 -0.981785 -3.08452 0
M  V30 2095 H 187.69 -3.08622 -2.11431 0
M  V30 2096 H 189.023 -4.04936 -2.798 0
M  V30 2097 N 190.675 0.682077 -1.42076 0
M  V30 2098 C 191.605 1.80796 -1.47767 0
M  V30 2099 C 192.586 1.6677 -0.334954 0
M  V30 2100 O 193.771 1.863 -0.548264 0
M  V30 2101 C 190.901 3.19038 -1.37229 0
M  V30 2102 C 189.855 3.47789 -2.49453 0
M  V30 2103 C 189.181 4.8553 -2.23975 0
M  V30 2104 C 190.481 3.45411 -3.91776 0
M  V30 2105 H 192.175 1.7629 -2.41997 0
M  V30 2106 H 189.721 0.846721 -1.16476 0
M  V30 2107 H 191.674 3.97528 -1.39821 0
M  V30 2108 H 190.398 3.24204 -0.394907 0
M  V30 2109 H 189.057 2.71657 -2.46166 0
M  V30 2110 H 188.705 4.87337 -1.24547 0
M  V30 2111 H 188.405 5.0573 -2.99184 0
M  V30 2112 H 189.929 5.66312 -2.28304 0
M  V30 2113 H 191.343 4.13882 -3.96705 0
M  V30 2114 H 189.74 3.77145 -4.66778 0
M  V30 2115 H 190.81 2.44122 -4.18966 0
M  V30 2116 N 192.153 1.28127 0.917671 0
M  V30 2117 C 193.381 1.17892 1.70026 0
M  V30 2118 C 193.796 -0.262958 1.8696 0
M  V30 2119 O 193.153 -1.17811 1.3938 0
M  V30 2120 C 193.204 1.86872 3.09453 0
M  V30 2121 O 192.925 3.25428 2.93306 0
M  V30 2122 C 194.426 1.8289 4.03815 0
M  V30 2123 H 191.646 0.40942 0.531617 0
M  V30 2124 H 194.19 1.69181 1.14883 0
M  V30 2125 H 192.345 1.39464 3.61426 0
M  V30 2126 H 192.759 3.59918 3.81523 0
M  V30 2127 H 194.233 2.35751 4.99125 0
M  V30 2128 H 194.71 0.800412 4.31845 0
M  V30 2129 H 195.316 2.29959 3.57769 0
M  V30 2130 N 193.631 -1.12557 1.10312 0
M  V30 2131 C 194.561 -2.20341 0.772798 0
M  V30 2132 C 195.542 -1.68198 -0.25365 0
M  V30 2133 O 196.727 -1.93831 -0.119699 0
M  V30 2134 C 193.857 -3.46709 0.202443 0
M  V30 2135 C 192.811 -4.11996 1.15943 0
M  V30 2136 C 192.137 -5.328 0.450345 0
M  V30 2137 C 193.437 -4.5828 2.50552 0
M  V30 2138 H 195.131 -2.48229 1.674 0
M  V30 2139 H 192.677 -1.19308 0.806326 0
M  V30 2140 H 194.63 -4.2138 -0.0407752 0
M  V30 2141 H 193.354 -3.18245 -0.734001 0
M  V30 2142 H 192.013 -3.39305 1.38808 0
M  V30 2143 H 191.661 -5.00602 -0.490531 0
M  V30 2144 H 191.361 -5.7743 1.08851 0
M  V30 2145 H 192.885 -6.10219 0.215642 0
M  V30 2146 H 194.299 -5.2433 2.31843 0
M  V30 2147 H 192.696 -5.13683 3.10242 0
M  V30 2148 H 193.766 -3.72329 3.10643 0
M  V30 2149 N 195.109 -0.891671 -1.2995 0
M  V30 2150 C 196.072 -0.36828 -2.26222 0
M  V30 2151 C 197.072 0.493014 -1.53056 0
M  V30 2152 O 198.262 0.299213 -1.71611 0
M  V30 2153 C 195.394 0.47442 -3.37583 0
M  V30 2154 H 196.587 -1.21844 -2.74033 0
M  V30 2155 H 194.14 -0.669107 -1.41254 0
M  V30 2156 H 194.875 1.34489 -2.95099 0
M  V30 2157 H 194.66 -0.142615 -3.91841 0
M  V30 2158 H 196.15 0.83218 -4.09224 0
M  V30 2159 N 196.587 1.43421 -0.653314 0
M  V30 2160 C 198.003 1.56341 -0.320886 0
M  V30 2161 C 198.203 1.63696 1.17499 0
M  V30 2162 O 197.259 1.59208 1.95982 0
M  V30 2163 C 198.572 2.82424 -1.03233 0
M  V30 2164 C 200.12 2.96168 -1.01259 0
M  V30 2165 C 200.595 4.25084 -1.70492 0
M  V30 2166 N 202.086 4.31948 -1.67257 0
M  V30 2167 C 202.821 5.30466 -2.17701 0
M  V30 2168 N 202.317 6.35261 -2.76434 0
M  V30 2169 N 204.11 5.2212 -2.082 0
M  V30 2170 H 196.261 1.3689 -1.62403 0
M  V30 2171 H 198.524 0.657455 -0.682977 0
M  V30 2172 H 198.23 2.83053 -2.08744 0
M  V30 2173 H 198.104 3.72653 -0.583948 0
M  V30 2174 H 200.491 2.9508 0.0341235 0
M  V30 2175 H 200.572 2.07229 -1.49966 0
M  V30 2176 H 200.216 4.26932 -2.7512 0
M  V30 2177 H 200.146 5.1292 -1.19251 0
M  V30 2178 H 202.637 3.56838 -1.24398 0
M  V30 2179 H 202.95 7.06754 -3.12601 0
M  V30 2180 H 201.295 6.35884 -2.80495 0
M  V30 2181 H 204.486 4.39166 -1.62021 0
M  V30 2182 H 204.659 5.98739 -2.47822 0
M  V30 2183 N 198.065 0.39524 1.52563 0
M  V30 2184 C 198.995 -0.428384 2.29537 0
M  V30 2185 C 199.976 -1.05831 1.33169 0
M  V30 2186 O 201.161 -1.06995 1.62067 0
M  V30 2187 C 198.291 -1.55274 3.10656 0
M  V30 2188 C 197.245 -1.04855 4.14957 0
M  V30 2189 C 196.571 -2.26543 4.84337 0
M  V30 2190 C 197.871 -0.112324 5.22179 0
M  V30 2191 H 199.565 0.213867 2.98635 0
M  V30 2192 H 197.111 0.104298 1.43622 0
M  V30 2193 H 199.064 -2.1358 3.63265 0
M  V30 2194 H 197.788 -2.22266 2.39302 0
M  V30 2195 H 196.447 -0.487985 3.63338 0
M  V30 2196 H 196.095 -2.92059 4.09525 0
M  V30 2197 H 195.795 -1.93466 5.54837 0
M  V30 2198 H 197.319 -2.85481 5.39753 0
M  V30 2199 H 198.733 -0.603752 5.70112 0
M  V30 2200 H 197.13 0.128968 5.99961 0
M  V30 2201 H 198.2 0.837052 4.77621 0
M  V30 2202 N 199.544 -1.57102 0.125237 0
M  V30 2203 C 200.772 -1.99761 -0.538797 0
M  V30 2204 C 201.187 -1.00503 -1.59827 0
M  V30 2205 O 200.544 0.00119474 -1.825 0
M  V30 2206 C 200.595 -3.42408 -1.15927 0
M  V30 2207 O 200.316 -4.37869 -0.142143 0
M  V30 2208 C 201.817 -4.00232 -1.90602 0
M  V30 2209 H 199.037 -0.655772 -0.14214 0
M  V30 2210 H 201.581 -2.03383 0.213413 0
M  V30 2211 H 199.736 -3.39706 -1.86223 0
M  V30 2212 H 200.15 -5.21128 -0.593775 0
M  V30 2213 H 201.624 -5.02105 -2.29335 0
M  V30 2214 H 202.101 -3.39721 -2.78363 0
M  V30 2215 H 202.707 -4.06499 -1.25055 0
M  V30 2216 N 201.022 0.148545 -1.56898 0
M  V30 2217 C 201.969 1.18345 -1.98149 0
M  V30 2218 C 202.939 1.42772 -0.848848 0
M  V30 2219 O 204.124 1.55132 -1.11079 0
M  V30 2220 C 201.264 2.51231 -2.36594 0
M  V30 2221 C 200.377 2.33991 -3.63142 0
M  V30 2222 C 199.512 3.59902 -3.90697 0
M  V30 2223 C 198.551 3.37692 -5.1052 0
M  V30 2224 N 197.688 4.5573 -5.34092 0
M  V30 2225 H 202.528 0.82467 -2.86362 0
M  V30 2226 H 200.065 0.395756 -1.41676 0
M  V30 2227 H 202.023 3.28713 -2.56912 0
M  V30 2228 H 200.653 2.85059 -1.51463 0
M  V30 2229 H 199.705 1.47572 -3.50609 0
M  V30 2230 H 201.017 2.13539 -4.5078 0
M  V30 2231 H 200.171 4.45813 -4.11505 0
M  V30 2232 H 198.91 3.83357 -3.01477 0
M  V30 2233 H 197.915 2.5017 -4.89587 0
M  V30 2234 H 199.14 3.15637 -6.0129 0
M  V30 2235 H 197.086 4.79361 -4.47827 0
M  V30 2236 H 197.003 4.38274 -6.15996 0
M  V30 2237 H 198.271 5.42858 -5.59397 0
M  V30 2238 N 202.5 1.5196 0.417844 0
M  V30 2239 C 203.725 1.69717 1.1921 0
M  V30 2240 C 204.15 0.402148 1.83751 0
M  V30 2241 O 203.508 -0.639593 1.69643 0
M  V30 2242 C 203.556 2.82794 2.2374 0
M  V30 2243 O 202.66 2.47756 3.29683 0
M  V30 2244 H 202.001 0.565263 0.348387 0
M  V30 2245 H 204.531 1.98621 0.490985 0
M  V30 2246 H 204.541 3.07452 2.68212 0
M  V30 2247 H 203.216 3.76756 1.76146 0
M  V30 2248 H 201.793 2.33739 2.90552 0
M  V30 2249 N 203.978 -0.674533 1.42435 0
M  V30 2250 C 204.888 -1.81751 1.48337 0
M  V30 2251 C 205.904 -1.69975 0.372099 0
M  V30 2252 O 207.08 -1.91521 0.62304 0
M  V30 2253 C 204.145 -3.17895 1.38361 0
M  V30 2254 C 203.206 -3.41625 2.59982 0
M  V30 2255 C 202.439 -4.71274 2.50473 0
M  V30 2256 O 202.662 -5.49197 1.54075 0
M  V30 2257 O 201.596 -4.96254 3.4061 0
M  V30 2258 H 205.422 -1.79728 2.44809 0
M  V30 2259 H 203.007 -0.830312 1.24202 0
M  V30 2260 H 204.889 -3.99136 1.35161 0
M  V30 2261 H 203.564 -3.20555 0.450144 0
M  V30 2262 H 202.471 -2.60231 2.68757 0
M  V30 2263 H 203.804 -3.43796 3.52229 0
M  V30 2264 N 205.456 -1.28612 -0.910864 0
M  V30 2265 C 206.386 -1.15326 -2.03032 0
M  V30 2266 C 207.367 -0.0502924 -1.70026 0
M  V30 2267 O 208.552 -0.227797 -1.92859 0
M  V30 2268 C 205.682 -0.817343 -3.37545 0
M  V30 2269 C 204.636 -1.8754 -3.84724 0
M  V30 2270 C 203.962 -1.39305 -5.16235 0
M  V30 2271 C 205.262 -3.28244 -4.06267 0
M  V30 2272 H 206.956 -2.08975 -2.14406 0
M  V30 2273 H 204.502 -1.00612 -1.03021 0
M  V30 2274 H 206.455 -0.711151 -4.15356 0
M  V30 2275 H 205.179 0.154846 -3.26233 0
M  V30 2276 H 203.838 -1.97079 -3.09121 0
M  V30 2277 H 203.486 -0.409846 -5.01328 0
M  V30 2278 H 203.186 -2.10057 -5.48771 0
M  V30 2279 H 204.71 -1.30014 -5.96598 0
M  V30 2280 H 206.124 -3.21611 -4.74594 0
M  V30 2281 H 204.521 -3.96855 -4.5014 0
M  V30 2282 H 205.591 -3.72048 -3.10979 0
M  V30 2283 N 206.934 1.1197 -1.10907 0
M  V30 2284 C 208.211 1.79959 -0.766432 0
M  V30 2285 C 208.591 1.97466 0.746363 0
M  V30 2286 O 207.939 1.55491 1.67436 0
M  V30 2287 C 208.149 3.14009 -1.52314 0
M  V30 2288 C 209.497 3.89134 -1.69883 0
M  V30 2289 O 210.521 3.2368 -1.48692 0
M  V30 2290 O 209.38 5.06572 -2.05054 0
M  V30 2291 H 206.474 0.779208 -0.277062 0
M  V30 2292 H 209.02 1.18762 -1.21217 0
M  V30 2293 H 207.792 2.96587 -2.55249 0
M  V30 2294 H 207.415 3.82915 -1.07059 0
M  V30 2295 N 208.412 0.89855 1.29475 0
M  V30 2296 C 209.322 0.379974 2.31502 0
M  V30 2297 C 210.338 -0.524695 1.659 0
M  V30 2298 O 211.514 -0.414551 1.97087 0
M  V30 2299 C 208.579 -0.385138 3.44554 0
M  V30 2300 C 207.64 0.550914 4.2575 0
M  V30 2301 C 206.873 -0.177778 5.33404 0
M  V30 2302 O 207.096 -1.40189 5.52904 0
M  V30 2303 O 206.03 0.479106 5.9999 0
M  V30 2304 H 209.856 1.22639 2.77837 0
M  V30 2305 H 207.441 0.662834 1.33891 0
M  V30 2306 H 209.323 -0.817841 4.13388 0
M  V30 2307 H 207.998 -1.20763 3.0033 0
M  V30 2308 H 206.905 1.03271 3.59564 0
M  V30 2309 H 208.238 1.33979 4.73614 0
M  V30 2310 N 209.89 -1.43072 0.660911 0
M  V30 2311 C 210.8 -2.34585 -0.0264163 0
M  V30 2312 C 211.816 -1.54316 -0.803898 0
M  V30 2313 O 212.992 -1.86939 -0.749391 0
M  V30 2314 C 210.057 -3.32689 -0.975639 0
M  V30 2315 C 209.118 -4.2886 -0.194236 0
M  V30 2316 C 208.351 -5.22278 -1.09825 0
M  V30 2317 O 208.574 -5.20299 -2.33763 0
M  V30 2318 O 207.508 -5.99228 -0.566513 0
M  V30 2319 H 211.334 -2.94869 0.727034 0
M  V30 2320 H 208.919 -1.43342 0.42111 0
M  V30 2321 H 210.801 -3.92995 -1.52094 0
M  V30 2322 H 209.476 -2.74898 -1.70918 0
M  V30 2323 H 208.383 -3.72011 0.394835 0
M  V30 2324 H 209.716 -4.89655 0.499899 0
M  V30 2325 N 211.368 -0.403325 -1.52352 0
M  V30 2326 C 212.278 0.432009 -2.30588 0
M  V30 2327 C 213.294 1.05884 -1.38075 0
M  V30 2328 O 214.47 1.06161 -1.71148 0
M  V30 2329 C 211.535 1.53669 -3.10784 0
M  V30 2330 C 210.596 0.933525 -4.19027 0
M  V30 2331 C 209.829 1.98557 -4.9539 0
M  V30 2332 O 210.052 3.20283 -4.71991 0
M  V30 2333 O 208.986 1.59504 -5.80381 0
M  V30 2334 H 212.812 -0.205739 -3.03002 0
M  V30 2335 H 210.397 -0.166675 -1.48467 0
M  V30 2336 H 212.279 2.17814 -3.60742 0
M  V30 2337 H 210.954 2.15915 -2.41169 0
M  V30 2338 H 209.861 0.254954 -3.7323 0
M  V30 2339 H 211.194 0.35508 -4.90918 0
M  V30 2340 N 212.846 1.57033 -0.133567 0
M  V30 2341 C 214.092 1.95976 0.521649 0
M  V30 2342 C 214.425 1.01779 1.65393 0
M  V30 2343 O 213.7 0.0576581 1.94415 0
M  V30 2344 C 213.983 3.44738 1.04057 0
M  V30 2345 C 213.836 4.49711 -0.0892897 0
M  V30 2346 C 215.155 3.95682 1.92675 0
M  V30 2347 H 212.274 0.712579 0.188149 0
M  V30 2348 H 214.916 1.88813 -0.212076 0
M  V30 2349 H 213.066 3.50973 1.66583 0
M  V30 2350 H 214.738 4.55565 -0.725152 0
M  V30 2351 H 212.981 4.27261 -0.750378 0
M  V30 2352 H 213.652 5.51099 0.315284 0
M  V30 2353 H 216.128 3.91841 1.39998 0
M  V30 2354 H 215.004 5.00262 2.25897 0
M  V30 2355 H 215.265 3.37239 2.85872 0
M  V30 2356 N 214.325 -0.140222 1.56975 0
M  V30 2357 C 215.571 -0.852949 1.83991 0
M  V30 2358 C 215.904 -1.80512 0.716187 0
M  V30 2359 O 215.179 -1.92479 -0.279681 0
M  V30 2360 C 215.462 -1.6215 3.21527 0
M  V30 2361 C 215.315 -0.690363 4.4447 0
M  V30 2362 C 216.634 -2.58247 3.56366 0
M  V30 2363 H 213.753 -0.308634 0.669264 0
M  V30 2364 H 216.395 -0.117898 1.89634 0
M  V30 2365 H 214.545 -2.24812 3.16847 0
M  V30 2366 H 216.217 -0.0742264 4.6124 0
M  V30 2367 H 214.46 -0.000396433 4.338 0
M  V30 2368 H 215.131 -1.2643 5.37326 0
M  V30 2369 H 217.607 -2.05701 3.61699 0
M  V30 2370 H 216.483 -3.09067 4.53617 0
M  V30 2371 H 216.744 -3.39923 2.82674 0
M  V30 2372 N 215.803 -1.52179 -0.40978 0
M  V30 2373 C 216.733 -1.78435 -1.5061 0
M  V30 2374 C 217.714 -0.635295 -1.57791 0
M  V30 2375 O 218.899 -0.880823 -1.73076 0
M  V30 2376 C 216.029 -1.93444 -2.88439 0
M  V30 2377 C 214.983 -3.09038 -2.96108 0
M  V30 2378 C 214.309 -3.09268 -4.36185 0
M  V30 2379 C 215.609 -4.48508 -2.67652 0
M  V30 2380 H 217.303 -2.70237 -1.28889 0
M  V30 2381 H 214.849 -1.30036 -0.618605 0
M  V30 2382 H 216.802 -2.10394 -3.65119 0
M  V30 2383 H 215.526 -0.983129 -3.11452 0
M  V30 2384 H 214.185 -2.91837 -2.21872 0
M  V30 2385 H 213.833 -2.11861 -4.56206 0
M  V30 2386 H 213.533 -3.86907 -4.42241 0
M  V30 2387 H 215.057 -3.28348 -5.14801 0
M  V30 2388 H 216.471 -4.65918 -3.34056 0
M  V30 2389 H 214.868 -5.28059 -2.85085 0
M  V30 2390 H 215.938 -4.56649 -1.63095 0
M  V30 2391 N 217.281 0.66697 -1.42791 0
M  V30 2392 C 218.527 1.4291 -1.43891 0
M  V30 2393 C 218.86 1.94114 -0.0578972 0
M  V30 2394 O 218.135 1.71414 0.91911 0
M  V30 2395 C 218.418 2.62049 -2.46987 0
M  V30 2396 C 218.271 2.16426 -3.94309 0
M  V30 2397 C 219.59 3.64266 -2.46978 0
M  V30 2398 H 216.709 0.518306 -0.523954 0
M  V30 2399 H 219.351 0.757321 -1.74255 0
M  V30 2400 H 217.501 3.19361 -2.21225 0
M  V30 2401 H 219.173 1.64221 -4.31079 0
M  V30 2402 H 217.416 1.47925 -4.078 0
M  V30 2403 H 218.087 3.02038 -4.62036 0
M  V30 2404 H 220.563 3.16686 -2.69906 0
M  V30 2405 H 219.439 4.45196 -3.21079 0
M  V30 2406 H 219.7 4.15927 -1.49857 0
M  V30 2407 N 218.759 1.29093 0.90403 0
M  V30 2408 C 219.999 1.18076 1.66845 0
M  V30 2409 C 220.363 -0.26436 1.90171 0
M  V30 2410 O 221.564 -0.497423 2.64157 0
M  V30 2411 C 219.835 1.96722 2.98388 0
M  V30 2412 S 221.394 2.0219 3.89441 0
M  V30 2413 H 218.212 0.421104 0.572881 0
M  V30 2414 H 220.814 1.63322 1.07453 0
M  V30 2415 H 219.518 3.00866 2.7912 0
M  V30 2416 H 219.049 1.52064 3.62823 0
M  V30 2417 H 221.064 1.13545 4.83034 0
M  V30 2418 N 220.237 -1.11381 1.11499 0
M  V30 2419 C 221.514 -1.7955 0.775965 0
M  V30 2420 C 221.894 -1.97859 -0.73588 0
M  V30 2421 O 221.242 -1.56376 -1.66609 0
M  V30 2422 C 221.452 -3.13196 1.53977 0
M  V30 2423 C 222.8 -3.88227 1.71944 0
M  V30 2424 O 223.824 -3.22887 1.50407 0
M  V30 2425 O 222.683 -5.05477 2.07738 0
M  V30 2426 H 219.777 -0.777728 0.28119 0
M  V30 2427 H 222.323 -1.18118 1.21845 0
M  V30 2428 H 221.095 -2.95229 2.56818 0
M  V30 2429 H 220.718 -3.82342 1.09088 0
M  V30 2430 N 221.715 -0.905404 -1.28997 0
M  V30 2431 C 222.662 -0.385892 -2.27551 0
M  V30 2432 C 223.632 0.535113 -1.57244 0
M  V30 2433 O 224.817 0.459119 -1.85194 0
M  V30 2434 C 221.957 0.375461 -3.43051 0
M  V30 2435 C 221.07 -0.577092 -4.28128 0
M  V30 2436 C 220.205 0.201879 -5.30816 0
M  V30 2437 C 219.244 -0.744829 -6.07551 0
M  V30 2438 N 218.381 9.42587e-05 -7.021 0
M  V30 2439 H 223.221 -1.23139 -2.71368 0
M  V30 2440 H 220.758 -0.618542 -1.33463 0
M  V30 2441 H 222.716 0.832992 -4.088 0
M  V30 2442 H 221.346 1.18537 -3.00248 0
M  V30 2443 H 220.398 -1.15315 -3.62501 0
M  V30 2444 H 221.71 -1.30152 -4.8152 0
M  V30 2445 H 220.864 0.720351 -6.02408 0
M  V30 2446 H 219.603 0.959413 -4.7817 0
M  V30 2447 H 218.608 -1.27475 -5.34818 0
M  V30 2448 H 219.833 -1.50178 -6.62286 0
M  V30 2449 H 217.779 0.739791 -6.51815 0
M  V30 2450 H 217.696 -0.664321 -7.53076 0
M  V30 2451 H 218.964 0.498644 -7.77903 0
M  V30 2452 N 223.193 1.4272 -0.668489 0
M  V30 2453 C 224.439 2.01923 -0.188419 0
M  V30 2454 C 224.772 1.52704 1.19979 0
M  V30 2455 O 224.047 0.726566 1.8042 0
M  V30 2456 C 224.33 3.59451 -0.216085 0
M  V30 2457 C 224.183 4.18864 -1.6393 0
M  V30 2458 C 225.502 4.37903 0.439179 0
M  V30 2459 H 222.621 0.733674 -0.0699412 0
M  V30 2460 H 225.263 1.69822 -0.852076 0
M  V30 2461 H 223.413 3.86929 0.349012 0
M  V30 2462 H 225.085 4.02362 -2.25616 0
M  V30 2463 H 223.328 3.74933 -2.18193 0
M  V30 2464 H 223.999 5.27987 -1.61039 0
M  V30 2465 H 226.475 4.16079 -0.0417878 0
M  V30 2466 H 225.351 5.47519 0.389157 0
M  V30 2467 H 225.612 4.15303 1.51577 0
M  V30 2468 N 224.671 0.411399 1.52136 0
M  V30 2469 C 225.92 -0.165009 2.01024 0
M  V30 2470 C 226.233 -1.4603 1.30133 0
M  V30 2471 O 227.439 -2.1181 1.69849 0
M  V30 2472 C 225.895 -0.344618 3.58246 0
M  V30 2473 C 225.503 0.938716 4.38055 0
M  V30 2474 C 227.247 -0.876195 4.15359 0
M  V30 2475 C 225.154 0.726172 5.86925 0
M  V30 2476 H 224.084 -0.0654407 0.751155 0
M  V30 2477 H 226.735 0.537192 1.75461 0
M  V30 2478 H 225.117 -1.10921 3.80148 0
M  V30 2479 H 226.291 1.70963 4.27912 0
M  V30 2480 H 224.606 1.39688 3.92271 0
M  V30 2481 H 227.203 -1.05128 5.24263 0
M  V30 2482 H 227.546 -1.85152 3.7286 0
M  V30 2483 H 228.079 -0.170607 3.97434 0
M  V30 2484 H 224.818 1.67312 6.33788 0
M  V30 2485 H 224.338 -0.00540283 5.998 0
M  V30 2486 H 226.017 0.369231 6.45946 0
M  V30 2487 N 226.149 -1.5696 0.141893 0
M  V30 2488 C 227.059 -2.20066 -0.812905 0
M  V30 2489 C 228.075 -1.18344 -1.27557 0
M  V30 2490 O 229.251 -1.50902 -1.33381 0
M  V30 2491 C 226.316 -2.80583 -2.03652 0
M  V30 2492 C 225.377 -3.97414 -1.62359 0
M  V30 2493 C 224.61 -4.55036 -2.78887 0
M  V30 2494 O 224.833 -4.11538 -3.94959 0
M  V30 2495 O 223.767 -5.45376 -2.54653 0
M  V30 2496 H 227.593 -3.02157 -0.305746 0
M  V30 2497 H 225.178 -1.49159 -0.0848799 0
M  V30 2498 H 227.06 -3.19067 -2.75272 0
M  V30 2499 H 225.735 -2.01508 -2.5333 0
M  V30 2500 H 224.642 -3.63656 -0.877775 0
M  V30 2501 H 225.975 -4.77994 -1.17401 0
M  V30 2502 N 227.627 0.131896 -1.57047 0
M  V30 2503 C 228.537 1.1815 -2.02676 0
M  V30 2504 C 229.553 1.46113 -0.944824 0
M  V30 2505 O 230.729 1.57485 -1.25541 0
M  V30 2506 C 227.794 2.49139 -2.41103 0
M  V30 2507 C 226.855 2.28688 -3.63318 0
M  V30 2508 C 226.088 3.53431 -3.99903 0
M  V30 2509 O 226.311 4.60223 -3.36973 0
M  V30 2510 O 225.245 3.45198 -4.93074 0
M  V30 2511 H 229.071 0.824069 -2.92306 0
M  V30 2512 H 226.656 0.341745 -1.45439 0
M  V30 2513 H 228.538 3.26338 -2.66611 0
M  V30 2514 H 227.213 2.84382 -1.54624 0
M  V30 2515 H 226.12 1.4939 -3.42977 0
M  V30 2516 H 227.453 1.98355 -4.50462 0
M  V30 2517 N 229.106 1.52395 0.401703 0
M  V30 2518 C 230.069 1.75636 1.47257 0
M  V30 2519 C 231.069 0.62628 1.48103 0
M  V30 2520 O 232.259 0.894227 1.49497 0
M  V30 2521 C 229.391 1.84553 2.86624 0
M  V30 2522 H 230.584 2.71241 1.27938 0
M  V30 2523 H 228.137 1.42923 0.632662 0
M  V30 2524 H 228.872 0.908882 3.11303 0
M  V30 2525 H 228.657 2.66715 2.87412 0
M  V30 2526 H 230.147 2.04251 3.64241 0
M  V30 2527 N 230.584 -0.659388 1.43143 0
M  V30 2528 C 231.861 -1.41627 1.34912 0
M  V30 2529 C 232.241 -2.11099 -0.00607785 0
M  V30 2530 O 231.589 -2.04353 -1.02236 0
M  V30 2531 C 231.799 -2.40604 2.52805 0
M  V30 2532 C 233.147 -3.04789 2.95616 0
M  V30 2533 O 234.171 -2.50932 2.52807 0
M  V30 2534 O 233.03 -4.02421 3.69756 0
M  V30 2535 H 230.124 -0.63246 0.532844 0
M  V30 2536 H 232.67 -0.686814 1.5518 0
M  V30 2537 H 231.442 -1.88174 3.43083 0
M  V30 2538 H 231.065 -3.21009 2.34604 0
M  V30 2539 N 232.062 -1.29571 -0.897171 0
M  V30 2540 C 232.992 -1.17473 -2.01798 0
M  V30 2541 C 233.973 -0.068323 -1.69963 0
M  V30 2542 O 235.158 -0.248239 -1.92607 0
M  V30 2543 C 232.288 -0.853099 -3.36659 0
M  V30 2544 C 231.242 -1.9161 -3.82713 0
M  V30 2545 C 230.568 -1.44773 -5.14728 0
M  V30 2546 C 231.868 -3.32535 -4.02763 0
M  V30 2547 H 233.562 -2.11237 -2.12177 0
M  V30 2548 H 231.108 -1.01699 -1.01948 0
M  V30 2549 H 233.061 -0.755165 -4.14578 0
M  V30 2550 H 231.785 0.120236 -3.26379 0
M  V30 2551 H 230.444 -2.00346 -3.07013 0
M  V30 2552 H 230.092 -0.462995 -5.00865 0
M  V30 2553 H 229.792 -2.15865 -5.46513 0
M  V30 2554 H 231.316 -1.36334 -5.95185 0
M  V30 2555 H 232.73 -3.26626 -4.71156 0
M  V30 2556 H 231.127 -4.01607 -4.45905 0
M  V30 2557 H 232.197 -3.75326 -3.07016 0
M  V30 2558 N 233.54 1.10788 -1.12088 0
M  V30 2559 C 234.817 1.79136 -0.785476 0
M  V30 2560 C 235.197 1.98246 0.725377 0
M  V30 2561 O 234.545 1.57258 1.65778 0
M  V30 2562 C 234.755 3.12375 -1.55636 0
M  V30 2563 C 236.103 3.8731 -1.74001 0
M  V30 2564 O 237.127 3.22085 -1.52117 0
M  V30 2565 O 235.986 5.04369 -2.10415 0
M  V30 2566 H 233.08 0.776226 -0.285311 0
M  V30 2567 H 235.626 1.1747 -1.2247 0
M  V30 2568 H 234.398 2.93863 -2.5838 0
M  V30 2569 H 234.021 3.81758 -1.11114 0
M  V30 2570 N 235.018 0.912232 1.28515 0
M  V30 2571 C 236.266 0.543523 1.94654 0
M  V30 2572 C 236.587 -0.9155 1.72173 0
M  V30 2573 O 235.857 -1.64708 1.06058 0
M  V30 2574 H 234.437 0.198017 0.720277 0
M  V30 2575 H 237.099 1.16126 1.56527 0
M  V30 2576 H 236.195 0.736684 3.03281 0
M  V30 2577 N 236.496 -1.42363 0.676048 0
M  V30 2578 C 237.773 -1.95183 0.127726 0
M  V30 2579 C 238.153 -1.61641 -1.35777 0
M  V30 2580 O 237.501 -0.913216 -2.09458 0
M  V30 2581 C 237.711 -3.46721 0.398199 0
M  V30 2582 C 239.059 -4.23427 0.315383 0
M  V30 2583 O 240.083 -3.54649 0.332016 0
M  V30 2584 O 238.942 -5.45888 0.25865 0
M  V30 2585 H 236.036 -0.826992 0.00359427 0
M  V30 2586 H 238.582 -1.52184 0.750864 0
M  V30 2587 H 237.354 -3.64344 1.4272 0
M  V30 2588 H 236.977 -3.96769 -0.256885 0
M  V30 2589 N 237.974 -0.419461 -1.51915 0
M  V30 2590 C 239.222 0.152637 -2.01523 0
M  V30 2591 C 239.543 1.44762 -1.30649 0
M  V30 2592 O 238.813 1.90997 -0.435535 0
M  V30 2593 H 237.393 0.0593966 -0.744635 0
M  V30 2594 H 240.055 -0.558073 -1.86739 0
M  V30 2595 H 239.151 0.341369 -3.10227 0
M  V30 2596 N 239.452 1.56882 -0.150215 0
M  V30 2597 C 240.399 2.16922 0.788244 0
M  V30 2598 C 241.369 1.10303 1.24187 0
M  V30 2599 O 242.554 1.38359 1.31383 0
M  V30 2600 C 239.694 2.79754 2.02068 0
M  V30 2601 C 238.807 4.00775 1.61257 0
M  V30 2602 C 237.942 4.51595 2.79705 0
M  V30 2603 C 236.981 5.65074 2.35282 0
M  V30 2604 N 236.118 6.10499 3.4675 0
M  V30 2605 H 240.958 2.96779 0.269444 0
M  V30 2606 H 238.495 1.46599 0.12128 0
M  V30 2607 H 240.453 3.14329 2.74323 0
M  V30 2608 H 239.083 2.02536 2.51354 0
M  V30 2609 H 238.135 3.72158 0.787553 0
M  V30 2610 H 239.447 4.82978 1.24633 0
M  V30 2611 H 238.601 4.88242 3.60145 0
M  V30 2612 H 237.34 3.68406 3.19576 0
M  V30 2613 H 236.345 5.28 1.53283 0
M  V30 2614 H 237.57 6.50052 1.96493 0
M  V30 2615 H 235.516 5.30243 3.86236 0
M  V30 2616 H 235.433 6.87637 3.14152 0
M  V30 2617 H 236.701 6.51791 4.27537 0
M  V30 2618 N 240.93 -0.123565 1.57115 0
M  V30 2619 C 241.86 -1.15309 2.03042 0
M  V30 2620 C 242.841 -1.43454 0.914061 0
M  V30 2621 O 244.026 -1.53973 1.18347 0
M  V30 2622 C 241.156 -2.48043 2.43089 0
M  V30 2623 C 240.11 -2.3437 3.58127 0
M  V30 2624 C 239.436 -3.72026 3.84059 0
M  V30 2625 C 240.736 -1.80804 4.90007 0
M  V30 2626 H 242.43 -0.771102 2.893 0
M  V30 2627 H 239.976 -0.369479 1.39179 0
M  V30 2628 H 241.929 -3.20311 2.73823 0
M  V30 2629 H 240.653 -2.88122 1.53796 0
M  V30 2630 H 239.312 -1.64551 3.27595 0
M  V30 2631 H 238.96 -4.09582 2.91979 0
M  V30 2632 H 238.66 -3.63732 4.6149 0
M  V30 2633 H 240.184 -4.45806 4.1724 0
M  V30 2634 H 241.598 -2.42886 5.19307 0
M  V30 2635 H 239.995 -1.83343 5.71407 0
M  V30 2636 H 241.065 -0.76528 4.78823 0
M  V30 2637 N 242.408 -1.52605 -0.393616 0
M  V30 2638 C 243.656 -1.67093 -1.13685 0
M  V30 2639 C 243.977 -0.411011 -1.90619 0
M  V30 2640 O 243.247 0.574491 -1.87287 0
M  V30 2641 H 241.827 -0.615923 -0.422668 0
M  V30 2642 H 244.489 -1.89704 -0.447039 0
M  V30 2643 H 243.585 -2.51922 -1.84232 0
M  V30 2644 N 243.887 0.651787 -1.4349 0
M  V30 2645 C 245.134 1.41167 -1.45183 0
M  V30 2646 C 245.462 1.94349 -0.0766601 0
M  V30 2647 O 244.717 1.72804 0.918555 0
M  V30 2648 C 245.016 2.60914 -2.44251 0
M  V30 2649 C 244.682 2.26142 -3.9009 0
M  V30 2650 C 243.344 2.16371 -4.2981 0
M  V30 2651 C 245.696 1.98334 -4.81989 0
M  V30 2652 C 243.024 1.7695 -5.5938 0
M  V30 2653 C 245.376 1.6041 -6.11924 0
M  V30 2654 C 244.04 1.49166 -6.5062 0
M  V30 2655 H 243.31 0.516566 -0.531263 0
M  V30 2656 H 245.957 0.741099 -1.76579 0
M  V30 2657 H 244.262 3.3311 -2.06265 0
M  V30 2658 H 245.959 3.19127 -2.42815 0
M  V30 2659 H 242.549 2.34658 -3.58655 0
M  V30 2660 H 246.733 2.04803 -4.52072 0
M  V30 2661 H 241.989 1.66831 -5.88198 0
M  V30 2662 H 246.163 1.37925 -6.82605 0
M  V30 2663 H 243.79 1.1839 -7.50925 0
M  V30 2664 N 245.365 1.30045 0.890287 0
M  V30 2665 C 246.328 1.15963 1.977 0
M  V30 2666 C 247.328 0.0923777 1.60534 0
M  V30 2667 O 248.518 0.340071 1.70848 0
M  V30 2668 C 245.65 0.775451 3.31963 0
M  V30 2669 H 246.843 2.12502 2.11619 0
M  V30 2670 H 244.396 1.13366 1.07601 0
M  V30 2671 H 245.131 -0.189671 3.23745 0
M  V30 2672 H 244.916 1.54668 3.60306 0
M  V30 2673 H 246.406 0.700251 4.11687 0
M  V30 2674 N 246.843 -1.10192 1.12674 0
M  V30 2675 C 248.12 -1.78717 0.794965 0
M  V30 2676 C 248.5 -1.98628 -0.714853 0
M  V30 2677 O 247.848 -1.58135 -1.64941 0
M  V30 2678 C 248.058 -3.11546 1.5729 0
M  V30 2679 C 249.406 -3.86382 1.76052 0
M  V30 2680 O 250.43 -3.21274 1.53823 0
M  V30 2681 O 249.289 -5.03246 2.13087 0
M  V30 2682 H 246.383 -0.774702 0.289423 0
M  V30 2683 H 248.929 -1.16819 1.23091 0
M  V30 2684 H 247.701 -2.92489 2.59935 0
M  V30 2685 H 247.324 -3.81164 1.13137 0
M  V30 2686 N 248.321 -0.919034 -1.28029 0
M  V30 2687 C 249.568 -0.554934 -1.94748 0
M  V30 2688 C 249.896 0.90231 -1.72304 0
M  V30 2689 O 249.151 1.65767 -1.04018 0
M  V30 2690 C 249.45 -0.816855 -3.4794 0
M  V30 2691 C 249.116 -2.25448 -3.90492 0
M  V30 2692 C 247.778 -2.64752 -4.01821 0
M  V30 2693 C 250.13 -3.18977 -4.12193 0
M  V30 2694 C 247.458 -3.96727 -4.32232 0
M  V30 2695 C 249.81 -4.50523 -4.44086 0
M  V30 2696 C 248.474 -4.89673 -4.53626 0
M  V30 2697 H 247.744 -0.203065 -0.712633 0
M  V30 2698 H 250.391 -1.16136 -1.52265 0
M  V30 2699 H 248.696 -0.127677 -3.91592 0
M  V30 2700 H 250.393 -0.514238 -3.97689 0
M  V30 2701 H 246.983 -1.93952 -3.82205 0
M  V30 2702 H 251.167 -2.89817 -4.02889 0
M  V30 2703 H 246.423 -4.26754 -4.37825 0
M  V30 2704 H 250.597 -5.23005 -4.59825 0
M  V30 2705 H 248.224 -5.91969 -4.76946 0
M  V30 2706 N 249.799 1.42003 -0.683588 0
M  V30 2707 C 250.709 2.34597 -0.0109075 0
M  V30 2708 C 251.725 1.55576 0.779245 0
M  V30 2709 O 252.901 1.88107 0.719555 0
M  V30 2710 C 249.966 3.34199 0.922588 0
M  V30 2711 C 249.027 4.29115 0.125984 0
M  V30 2712 C 248.26 5.23959 1.01502 0
M  V30 2713 O 248.483 5.23952 2.25456 0
M  V30 2714 O 247.417 6.00053 0.47111 0
M  V30 2715 H 251.243 2.93675 -0.773853 0
M  V30 2716 H 248.828 1.42654 -0.443861 0
M  V30 2717 H 250.71 3.95365 1.45823 0
M  V30 2718 H 249.385 2.77582 1.66523 0
M  V30 2719 H 248.292 3.71335 -0.453969 0
M  V30 2720 H 249.625 4.88798 -0.577736 0
M  V30 2721 N 251.277 0.427512 1.51691 0
M  V30 2722 C 252.554 -0.201684 1.94557 0
M  V30 2723 C 252.934 -1.60981 1.36559 0
M  V30 2724 O 252.282 -2.21814 0.548702 0
M  V30 2725 C 252.492 -0.189394 3.48486 0
M  V30 2726 C 253.84 -0.39978 4.22714 0
M  V30 2727 O 254.864 -0.267945 3.55191 0
M  V30 2728 O 253.723 -0.661249 5.42485 0
M  V30 2729 H 250.817 -0.135261 0.815864 0
M  V30 2730 H 253.363 0.484782 1.62628 0
M  V30 2731 H 252.135 0.795431 3.8313 0
M  V30 2732 H 251.758 -0.919187 3.86829 0
M  V30 2733 N 252.755 -1.56801 0.158532 0
M  V30 2734 C 253.688 -2.13148 -0.815065 0
M  V30 2735 C 254.666 -1.0581 -1.23462 0
M  V30 2736 O 255.85 -1.3371 -1.32868 0
M  V30 2737 C 252.977 -2.6606 -2.09594 0
M  V30 2738 C 252.023 -3.85651 -1.82141 0
M  V30 2739 S 252.856 -5.26041 -1.00207 0
M  V30 2740 C 254.012 -5.8235 -2.29389 0
M  V30 2741 H 254.245 -2.95396 -0.335937 0
M  V30 2742 H 251.778 -1.54299 -0.0559391 0
M  V30 2743 H 253.736 -2.97195 -2.8317 0
M  V30 2744 H 252.397 -1.83921 -2.54621 0
M  V30 2745 H 251.59 -4.20958 -2.77147 0
M  V30 2746 H 251.192 -3.55338 -1.16667 0
M  V30 2747 H 253.484 -5.94485 -3.24952 0
M  V30 2748 H 254.427 -6.79688 -1.9857 0
M  V30 2749 H 254.835 -5.10675 -2.40564 0
M  V30 2750 N 254.233 0.115231 -1.57178 0
M  V30 2751 C 255.482 0.820945 -1.84237 0
M  V30 2752 C 255.795 1.80866 -0.744761 0
M  V30 2753 O 257.001 2.56083 -0.901871 0
M  V30 2754 C 255.457 1.51072 -3.26658 0
M  V30 2755 C 255.065 0.563795 -4.44438 0
M  V30 2756 C 256.809 2.20134 -3.62962 0
M  V30 2757 C 254.716 1.25701 -5.77887 0
M  V30 2758 H 253.646 0.310328 -0.687177 0
M  V30 2759 H 256.297 0.0737134 -1.83352 0
M  V30 2760 H 254.679 2.30471 -3.22024 0
M  V30 2761 H 255.853 -0.197247 -4.60378 0
M  V30 2762 H 254.168 -0.0200638 -4.16395 0
M  V30 2763 H 256.765 2.72696 -4.59936 0
M  V30 2764 H 257.108 2.98107 -2.90582 0
M  V30 2765 H 257.641 1.47619 -3.69396 0
M  V30 2766 H 254.38 0.518493 -6.53446 0
M  V30 2767 H 253.9 1.98997 -5.65827 0
M  V30 2768 H 255.579 1.78915 -6.2177 0
M  V30 2769 N 255.711 1.52812 0.385517 0
M  V30 2770 C 256.674 1.77188 1.45386 0
M  V30 2771 C 257.674 0.641953 1.4743 0
M  V30 2772 O 258.864 0.910033 1.4854 0
M  V30 2773 C 255.996 1.87582 2.8465 0
M  V30 2774 H 257.189 2.72583 1.25054 0
M  V30 2775 H 254.742 1.43586 0.617467 0
M  V30 2776 H 255.477 0.941849 3.10322 0
M  V30 2777 H 255.262 2.69748 2.84567 0
M  V30 2778 H 256.752 2.08102 3.62054 0
M  V30 2779 N 257.189 -0.644168 1.43834 0
M  V30 2780 C 258.136 -1.75671 1.49694 0
M  V30 2781 C 259.106 -1.6246 0.345809 0
M  V30 2782 O 260.291 -1.82573 0.554234 0
M  V30 2783 C 257.431 -3.13867 1.43463 0
M  V30 2784 C 256.544 -3.38147 2.6885 0
M  V30 2785 C 255.679 -4.66241 2.54544 0
M  V30 2786 C 254.718 -4.83657 3.75157 0
M  V30 2787 N 253.855 -6.03016 3.59605 0
M  V30 2788 H 258.695 -1.69998 2.44754 0
M  V30 2789 H 256.232 -0.829458 1.21484 0
M  V30 2790 H 258.19 -3.9377 1.37843 0
M  V30 2791 H 256.82 -3.18588 0.519783 0
M  V30 2792 H 255.872 -2.52276 2.84712 0
M  V30 2793 H 257.184 -3.46899 3.58417 0
M  V30 2794 H 256.338 -5.54285 2.46683 0
M  V30 2795 H 255.077 -4.59826 1.62516 0
M  V30 2796 H 254.082 -3.94046 3.83416 0
M  V30 2797 H 255.307 -4.91896 4.68204 0
M  V30 2798 H 253.253 -5.97715 2.7032 0
M  V30 2799 H 253.17 -6.12766 4.42779 0
M  V30 2800 H 254.438 -6.93657 3.55613 0
M  V30 2801 N 258.668 -1.30515 -0.883378 0
M  V30 2802 C 259.631 -1.1701 -1.97082 0
M  V30 2803 C 260.631 -0.10089 -1.60483 0
M  V30 2804 O 261.821 -0.349127 -1.70666 0
M  V30 2805 C 258.953 -0.793045 -3.31547 0
M  V30 2806 H 260.146 -2.13622 -2.10489 0
M  V30 2807 H 257.699 -1.13935 -1.06998 0
M  V30 2808 H 258.434 0.172499 -3.23841 0
M  V30 2809 H 258.219 -1.56576 -3.5948 0
M  V30 2810 H 259.709 -0.722073 -4.1131 0
M  V30 2811 N 260.146 1.09593 -1.13257 0
M  V30 2812 C 261.557 1.63229 -0.906274 0
M  V30 2813 C 261.908 1.8811 0.557578 0
M  V30 2814 O 261.033 1.62953 1.42391 0
M  V30 2815 C 261.628 2.96535 -1.63867 0
M  V30 2816 C 260.187 3.47003 -1.45828 0
M  V30 2817 C 259.334 2.2145 -1.66898 0
M  V30 2818 H 262.285 0.92978 -1.28611 0
M  V30 2819 H 262.306 3.64411 -1.09476 0
M  V30 2820 H 261.818 2.78394 -2.70404 0
M  V30 2821 H 259.919 3.70272 -0.415848 0
M  V30 2822 H 260.032 4.24551 -2.2202 0
M  V30 2823 H 258.396 2.30022 -1.09371 0
M  V30 2824 H 259.179 2.0583 -2.74752 0
M  V30 2825 N 261.624 0.925811 1.2754 0
M  V30 2826 C 262.901 0.483726 1.89524 0
M  V30 2827 C 263.281 -1.03809 1.83812 0
M  V30 2828 O 262.629 -1.89143 1.28207 0
M  V30 2829 C 262.839 1.02769 3.33526 0
M  V30 2830 C 264.187 1.08703 4.10449 0
M  V30 2831 O 265.211 0.977175 3.42534 0
M  V30 2832 O 264.07 1.25599 5.31871 0
M  V30 2833 H 261.164 0.15529 0.812289 0
M  V30 2834 H 263.71 1.01738 1.35822 0
M  V30 2835 H 262.482 2.07155 3.31967 0
M  V30 2836 H 262.105 0.475567 3.94746 0
M  V30 2837 N 263.102 -1.41638 0.69111 0
M  V30 2838 C 264.349 -2.01299 0.220193 0
M  V30 2839 C 264.677 -1.54715 -1.17871 0
M  V30 2840 O 263.932 -0.747193 -1.80874 0
M  V30 2841 C 264.231 -3.56714 0.221277 0
M  V30 2842 C 263.897 -4.22792 1.56709 0
M  V30 2843 C 262.559 -4.40557 1.93554 0
M  V30 2844 C 264.911 -4.59883 2.45268 0
M  V30 2845 C 262.239 -4.92688 3.18552 0
M  V30 2846 C 264.591 -5.13403 3.69595 0
M  V30 2847 C 263.255 -5.29379 4.06589 0
M  V30 2848 H 262.525 -0.736606 0.0805743 0
M  V30 2849 H 265.172 -1.69598 0.889319 0
M  V30 2850 H 263.477 -3.8818 -0.531391 0
M  V30 2851 H 265.174 -4.00678 -0.160547 0
M  V30 2852 H 261.764 -4.09336 1.2705 0
M  V30 2853 H 265.948 -4.45817 2.18084 0
M  V30 2854 H 261.204 -5.03242 3.47214 0
M  V30 2855 H 265.378 -5.41084 4.38407 0
M  V30 2856 H 263.005 -5.69537 5.03519 0
M  V30 2857 N 264.58 -0.43555 -1.51462 0
M  V30 2858 C 265.51 0.367376 -2.30592 0
M  V30 2859 C 266.491 1.02263 -1.35928 0
M  V30 2860 O 267.676 1.02661 -1.64847 0
M  V30 2861 C 264.806 1.46983 -3.14664 0
M  V30 2862 C 263.76 0.938161 -4.17591 0
M  V30 2863 C 263.086 2.13622 -4.90173 0
M  V30 2864 C 264.386 -0.0261621 -5.22293 0
M  V30 2865 H 266.08 -0.292969 -2.97963 0
M  V30 2866 H 263.626 -0.14234 -1.43295 0
M  V30 2867 H 265.579 2.03873 -3.688 0
M  V30 2868 H 264.303 2.15843 -2.4511 0
M  V30 2869 H 262.962 0.391481 -3.64504 0
M  V30 2870 H 262.61 2.81098 -4.17124 0
M  V30 2871 H 262.31 1.78688 -5.59772 0
M  V30 2872 H 263.834 2.7107 -5.47132 0
M  V30 2873 H 265.248 0.452384 -5.71512 0
M  V30 2874 H 263.645 -0.287992 -5.99409 0
M  V30 2875 H 264.715 -0.963391 -4.75233 0
M  V30 2876 N 266.058 1.56714 -0.166846 0
M  V30 2877 C 267.283 2.01557 0.488833 0
M  V30 2878 C 267.708 1.0463 1.56314 0
M  V30 2879 O 267.066 0.0251304 1.81283 0
M  V30 2880 C 267.114 3.4503 1.04818 0
M  V30 2881 O 266.218 3.51163 2.16236 0
M  V30 2882 H 265.559 0.653516 0.117526 0
M  V30 2883 H 268.089 2.02818 -0.269421 0
M  V30 2884 H 268.099 3.84243 1.37191 0
M  V30 2885 H 266.774 4.15077 0.261572 0
M  V30 2886 H 265.351 3.23807 1.84942 0
M  V30 2887 N 267.536 -0.106894 1.57237 0
M  V30 2888 C 268.764 -0.826389 1.8968 0
M  V30 2889 C 269.179 -1.72856 0.759353 0
M  V30 2890 O 268.536 -1.80503 -0.269263 0
M  V30 2891 C 268.587 -1.64967 3.21665 0
M  V30 2892 O 268.308 -0.783804 4.31031 0
M  V30 2893 C 269.809 -2.47326 3.67892 0
M  V30 2894 H 267.029 -0.236927 0.627779 0
M  V30 2895 H 269.573 -0.0876593 2.04312 0
M  V30 2896 H 267.728 -2.34103 3.08666 0
M  V30 2897 H 268.142 -1.35284 5.06753 0
M  V30 2898 H 269.616 -3.00604 4.6297 0
M  V30 2899 H 270.093 -3.25247 2.95146 0
M  V30 2900 H 270.699 -1.83411 3.83719 0
M  V30 2901 N 269.014 -1.53014 -0.377408 0
M  V30 2902 C 270.261 -1.68623 -1.12128 0
M  V30 2903 C 270.589 -0.431997 -1.89642 0
M  V30 2904 O 269.844 0.585855 -1.86725 0
M  V30 2905 C 270.143 -2.87982 -2.11663 0
M  V30 2906 C 269.809 -4.24964 -1.50719 0
M  V30 2907 C 268.471 -4.62217 -1.33825 0
M  V30 2908 C 270.823 -5.10199 -1.06519 0
M  V30 2909 C 268.151 -5.82352 -0.712963 0
M  V30 2910 C 270.503 -6.30969 -0.453955 0
M  V30 2911 C 269.167 -6.66944 -0.272411 0
M  V30 2912 H 268.437 -0.617034 -0.410305 0
M  V30 2913 H 271.084 -1.8718 -0.404484 0
M  V30 2914 H 269.389 -2.63889 -2.89603 0
M  V30 2915 H 271.086 -2.97253 -2.6915 0
M  V30 2916 H 267.676 -3.95626 -1.64858 0
M  V30 2917 H 271.86 -4.81978 -1.18368 0
M  V30 2918 H 267.116 -6.08824 -0.560611 0
M  V30 2919 H 271.29 -6.96324 -0.103217 0
M  V30 2920 H 268.917 -7.59898 0.214181 0
M  V30 2921 N 270.492 0.636531 -1.44174 0
M  V30 2922 C 271.442 1.74233 -1.47061 0
M  V30 2923 C 272.426 1.57331 -0.337034 0
M  V30 2924 O 273.618 1.67159 -0.581973 0
M  V30 2925 C 270.747 3.12897 -1.41246 0
M  V30 2926 C 269.833 3.35288 -2.59698 0
M  V30 2927 N 270.224 3.2807 -3.84972 0
M  V30 2928 C 268.522 3.66065 -2.54778 0
M  V30 2929 C 269.223 3.51001 -4.63867 0
M  V30 2930 N 268.199 3.73616 -3.94857 0
M  V30 2931 H 272.001 1.67103 -2.41773 0
M  V30 2932 H 269.515 0.838806 -1.3906 0
M  V30 2933 H 271.512 3.92189 -1.41398 0
M  V30 2934 H 270.172 3.21197 -0.47569 0
M  V30 2935 H 271.183 3.07109 -4.17019 0
M  V30 2936 H 267.86 3.81379 -1.6987 0
M  V30 2937 H 269.25 3.51059 -5.72894 0
M  V30 2938 N 271.97 1.30982 0.876444 0
M  V30 2939 C 273.219 1.19658 1.62373 0
M  V30 2940 C 273.532 -0.245636 1.94052 0
M  V30 2941 O 274.738 -0.48049 2.67214 0
M  V30 2942 C 273.194 2.09433 2.92687 0
M  V30 2943 C 272.802 3.58613 2.68516 0
M  V30 2944 C 274.546 2.06893 3.70669 0
M  V30 2945 C 272.453 4.40416 3.94699 0
M  V30 2946 H 271.383 0.444268 0.609214 0
M  V30 2947 H 274.034 1.55791 0.969605 0
M  V30 2948 H 272.416 1.66191 3.59439 0
M  V30 2949 H 273.59 4.10058 2.10212 0
M  V30 2950 H 271.905 3.63063 2.03898 0
M  V30 2951 H 274.502 2.65258 4.64265 0
M  V30 2952 H 274.845 1.05448 4.02724 0
M  V30 2953 H 275.378 2.48301 3.10792 0
M  V30 2954 H 272.117 5.42591 3.67798 0
M  V30 2955 H 271.637 3.93731 4.52477 0
M  V30 2956 H 273.316 4.52294 4.62644 0
M  V30 2957 N 273.449 -1.08991 1.13837 0
M  V30 2958 C 274.865 -1.33312 0.877506 0
M  V30 2959 C 275.065 -1.95587 -0.48456 0
M  V30 2960 O 274.121 -2.20509 -1.23013 0
M  V30 2961 C 275.434 -2.24045 2.0056 0
M  V30 2962 C 276.982 -2.37542 2.03821 0
M  V30 2963 C 277.457 -3.31614 3.15905 0
M  V30 2964 N 278.948 -3.39189 3.15445 0
M  V30 2965 C 279.683 -4.11992 3.98811 0
M  V30 2966 N 279.179 -4.87553 4.92203 0
M  V30 2967 N 280.972 -4.07762 3.86894 0
M  V30 2968 H 273.123 -0.669456 2.01574 0
M  V30 2969 H 275.386 -0.357482 0.878015 0
M  V30 2970 H 275.092 -1.85521 2.98789 0
M  V30 2971 H 274.966 -3.24466 1.92359 0
M  V30 2972 H 277.353 -2.75327 1.06202 0
M  V30 2973 H 277.434 -1.36884 2.16093 0
M  V30 2974 H 277.078 -2.94551 4.13766 0
M  V30 2975 H 277.008 -4.32186 3.0087 0
M  V30 2976 H 279.499 -2.85314 2.47799 0
M  V30 2977 H 279.812 -5.40549 5.52292 0
M  V30 2978 H 278.157 -4.86627 4.96205 0
M  V30 2979 H 281.348 -3.47833 3.13257 0
M  V30 2980 H 281.521 -4.64238 4.52092 0
M  V30 2981 N 274.927 -0.932562 -1.27047 0
M  V30 2982 C 276.176 -0.571351 -1.93439 0
M  V30 2983 C 276.489 0.892467 -1.74053 0
M  V30 2984 O 277.695 1.36267 -2.34826 0
M  V30 2985 C 276.151 -0.97106 -3.46552 0
M  V30 2986 C 275.759 -2.4559 -3.74686 0
M  V30 2987 C 277.503 -0.681333 -4.18997 0
M  V30 2988 C 275.41 -2.79475 -5.21198 0
M  V30 2989 H 274.34 -0.209966 -0.724176 0
M  V30 2990 H 276.991 -1.13403 -1.44263 0
M  V30 2991 H 275.373 -0.336983 -3.94564 0
M  V30 2992 H 276.547 -3.13829 -3.37414 0
M  V30 2993 H 274.862 -2.71802 -3.15456 0
M  V30 2994 H 277.459 -0.910939 -5.26883 0
M  V30 2995 H 277.802 0.381628 -4.14547 0
M  V30 2996 H 278.335 -1.27473 -3.76823 0
M  V30 2997 H 275.074 -3.847 -5.30741 0
M  V30 2998 H 274.594 -2.1589 -5.596 0
M  V30 2999 H 276.273 -2.67478 -5.89122 0
M  V30 3000 O 276.444 1.38103 -0.83724 0
M  V30 3001 H 277.135 1.88989 -0.424593 0
M  V30 END ATOM
M  V30 BEGIN BOND
M  V30 END BOND
M  V30 END CTAB
M  END
$$$$
