drugbank_target|O75865 Trafficking protein particle complex subunit 6A (DB08342)
 OpenBabel12092120503D

  0  0  0     0  0            999 V3000
M  V30 BEGIN CTAB
M  V30 COUNTS 2488 2516 0 0 0
M  V30 BEGIN ATOM
M  V30 1 H -0.908 1.98254 -0.117106 0
M  V30 2 N 0 1.576 0 0
M  V30 3 C 0.933 2.03868 1.02534 0
M  V30 4 C 1.911 0.928543 1.3348 0
M  V30 5 O 3.095 1.19667 1.45644 0
M  V30 6 C 0.222 2.43627 2.35294 0
M  V30 7 C -0.732 3.65373 2.2001 0
M  V30 8 S 0.101 5.13292 1.52614 0
M  V30 9 C 1.257 5.56322 2.86805 0
M  V30 10 H 1.49 2.90518 0.631377 0
M  V30 11 H -0.977 1.52953 0.210867 0
M  V30 12 H 0.981 2.67203 3.11629 0
M  V30 13 H -0.358 1.57376 2.7183 0
M  V30 14 H -1.165 3.90944 3.18086 0
M  V30 15 H -1.563 3.418 1.51819 0
M  V30 16 H 0.729 5.58782 3.83104 0
M  V30 17 H 1.672 6.56266 2.65933 0
M  V30 18 H 2.08 4.83886 2.90714 0
M  V30 19 N 1.4781 -0.272755 1.55222 0
M  V30 20 C 2.4411 -1.32041 1.87344 0
M  V30 21 C 3.4411 -1.42342 0.74803 0
M  V30 22 O 4.6311 -1.41488 1.0162 0
M  V30 23 C 1.7631 -2.70173 2.07893 0
M  V30 24 H 2.9561 -1.04789 2.80997 0
M  V30 25 H 0.5091 -0.51083 1.47717 0
M  V30 26 H 1.2441 -3.02605 1.16622 0
M  V30 27 H 1.0291 -2.64082 2.89833 0
M  V30 28 H 2.5191 -3.45869 2.34017 0
M  V30 29 N 2.9562 -1.48159 -0.537278 0
M  V30 30 C 4.2332 -1.46291 -1.29839 0
M  V30 31 C 4.6132 -0.170613 -2.10409 0
M  V30 32 O 3.9612 0.847746 -2.12192 0
M  V30 33 C 4.1712 -2.72055 -2.18603 0
M  V30 34 C 5.5192 -3.20087 -2.7898 0
M  V30 35 O 6.5432 -2.72921 -2.28894 0
M  V30 36 O 5.4022 -4.02138 -3.70064 0
M  V30 37 H 2.4962 -0.583906 -0.585647 0
M  V30 38 H 5.0422 -1.60384 -0.554534 0
M  V30 39 H 3.8142 -3.57628 -1.58801 0
M  V30 40 H 3.4372 -2.60646 -3.00249 0
M  V30 41 N 4.4343 0.785586 -1.36625 0
M  V30 42 C 5.6623 1.57448 -1.3423 0
M  V30 43 C 6.0773 1.88649 0.0755653 0
M  V30 44 O 5.4343 1.50414 1.03354 0
M  V30 45 C 5.4853 2.89316 -2.16745 0
M  V30 46 O 5.2063 2.59459 -3.53005 0
M  V30 47 C 6.7073 3.83606 -2.22174 0
M  V30 48 H 3.9273 0.488226 -0.4603 0
M  V30 49 H 6.4713 0.974733 -1.79775 0
M  V30 50 H 4.6263 3.4575 -1.74745 0
M  V30 51 H 5.0403 3.43804 -3.96105 0
M  V30 52 H 6.5143 4.73181 -2.8426 0
M  V30 53 H 6.9913 4.21734 -1.22627 0
M  V30 54 H 7.5973 3.33104 -2.64427 0
M  V30 55 N 5.9124 1.20967 1.01018 0
M  V30 56 C 7.1584 1.02526 1.74975 0
M  V30 57 C 7.4914 -0.4408 1.89131 0
M  V30 58 O 6.7664 -1.32718 1.42184 0
M  V30 59 C 7.0494 1.71699 3.1653 0
M  V30 60 C 6.9024 3.25791 3.10129 0
M  V30 61 C 8.2214 1.45531 4.15342 0
M  V30 62 H 5.3404 0.373863 0.635134 0
M  V30 63 H 7.9824 1.49071 1.17805 0
M  V30 64 H 6.1324 1.32128 3.65341 0
M  V30 65 H 7.8044 3.74697 2.69072 0
M  V30 66 H 6.0474 3.56363 2.47362 0
M  V30 67 H 6.7184 3.69353 4.10222 0
M  V30 68 H 9.1944 1.79872 3.75213 0
M  V30 69 H 8.0704 1.96453 5.1254 0
M  V30 70 H 8.3314 0.384237 4.40427 0
M  V30 71 N 7.3905 -1.2043 1.01659 0
M  V30 72 C 8.3205 -2.25466 0.607226 0
M  V30 73 C 9.3015 -1.65853 -0.377716 0
M  V30 74 O 10.4865 -1.92409 -0.263149 0
M  V30 75 C 7.6165 -3.47256 -0.0552949 0
M  V30 76 C 6.5705 -4.19462 0.850632 0
M  V30 77 C 5.8965 -5.34673 0.0538859 0
M  V30 78 C 7.1965 -4.75603 2.15868 0
M  V30 79 H 8.8905 -2.59962 1.48526 0
M  V30 80 H 6.4365 -1.2496 0.715605 0
M  V30 81 H 8.3895 -4.19917 -0.353233 0
M  V30 82 H 7.1135 -3.11924 -0.968045 0
M  V30 83 H 5.7725 -3.48667 1.13257 0
M  V30 84 H 5.4205 -4.95585 -0.860514 0
M  V30 85 H 5.1205 -5.83913 0.657192 0
M  V30 86 H 6.6445 -6.10138 -0.237598 0
M  V30 87 H 8.0585 -5.40083 1.92311 0
M  V30 88 H 6.4555 -5.3528 2.71284 0
M  V30 89 H 7.5255 -3.94346 2.82169 0
M  V30 90 N 8.8686 -0.792821 -1.36206 0
M  V30 91 C 10.1156 -0.366786 -1.99151 0
M  V30 92 C 10.4436 1.06243 -1.62919 0
M  V30 93 O 9.6986 1.74927 -0.877442 0
M  V30 94 C 9.9976 -0.481501 -3.54142 0
M  V30 95 C 9.6636 -1.87202 -4.10203 0
M  V30 96 C 8.3256 -2.25248 -4.25226 0
M  V30 97 C 10.6776 -2.78237 -4.40719 0
M  V30 98 C 8.0056 -3.53723 -4.68078 0
M  V30 99 C 10.3576 -4.06144 -4.85005 0
M  V30 100 C 9.0216 -4.44207 -4.98234 0
M  V30 101 H 8.2916 -0.134217 -0.728743 0
M  V30 102 H 10.9386 -1.01094 -1.62641 0
M  V30 103 H 9.2436 0.246146 -3.91026 0
M  V30 104 H 10.9406 -0.132844 -4.0078 0
M  V30 105 H 7.5306 -1.56639 -3.98951 0
M  V30 106 H 11.7146 -2.50097 -4.28679 0
M  V30 107 H 6.9706 -3.8308 -4.76508 0
M  V30 108 H 11.1446 -4.76796 -5.07581 0
M  V30 109 H 8.7716 -5.43814 -5.31197 0
M  V30 110 N 10.3467 1.47872 -0.545128 0
M  V30 111 C 11.2567 2.33633 0.212746 0
M  V30 112 C 12.2727 1.4744 0.923983 0
M  V30 113 O 13.4487 1.80393 0.895572 0
M  V30 114 C 10.5137 3.23884 1.23693 0
M  V30 115 C 9.5747 4.25961 0.534417 0
M  V30 116 C 8.8077 5.11899 1.5098 0
M  V30 117 O 9.0307 5.00077 2.7437 0
M  V30 118 O 7.9647 5.92831 1.0409 0
M  V30 119 H 11.7907 2.99714 -0.490416 0
M  V30 120 H 9.3757 1.46235 -0.305871 0
M  V30 121 H 11.2577 3.79666 1.82843 0
M  V30 122 H 9.9327 2.60446 1.92222 0
M  V30 123 H 8.8397 3.73972 -0.0979679 0
M  V30 124 H 10.1727 4.92079 -0.109213 0
M  V30 125 N 11.8248 0.280983 1.55075 0
M  V30 126 C 13.0718 -0.334115 1.99725 0
M  V30 127 C 13.3998 -1.5542 1.1694 0
M  V30 128 O 12.6548 -1.94361 0.228531 0
M  V30 129 C 12.9538 -0.754656 3.49342 0
M  V30 130 C 12.6198 0.361445 4.49449 0
M  V30 131 C 11.2818 0.667893 4.76542 0
M  V30 132 C 13.6338 1.11322 5.09173 0
M  V30 133 C 10.9618 1.7296 5.60626 0
M  V30 134 C 13.3138 2.1647 5.9441 0
M  V30 135 C 11.9778 2.47742 6.19822 0
M  V30 136 H 11.2478 -0.122261 0.730844 0
M  V30 137 H 13.8948 0.395917 1.87363 0
M  V30 138 H 12.1998 -1.56446 3.5921 0
M  V30 139 H 13.8968 -1.24142 3.813 0
M  V30 140 H 10.4868 0.112481 4.28452 0
M  V30 141 H 14.6708 0.88973 4.8826 0
M  V30 142 H 9.9268 1.97684 5.78559 0
M  V30 143 H 14.1008 2.75193 6.3972 0
M  V30 144 H 11.7278 3.30145 6.84769 0
M  V30 145 N 13.3029 -1.57598 0.00835791 0
M  V30 146 C 14.2329 -2.1198 -0.979113 0
M  V30 147 C 15.2139 -1.03091 -1.35301 0
M  V30 148 O 16.3989 -1.30818 -1.43528 0
M  V30 149 C 13.5289 -2.62995 -2.26828 0
M  V30 150 C 12.4829 -3.76485 -2.03576 0
M  V30 151 C 11.8089 -4.13846 -3.38579 0
M  V30 152 C 13.1089 -5.0342 -1.39161 0
M  V30 153 H 14.8029 -2.94738 -0.526281 0
M  V30 154 H 12.3489 -1.41783 -0.251704 0
M  V30 155 H 14.3019 -2.99669 -2.96271 0
M  V30 156 H 13.0259 -1.7737 -2.7424 0
M  V30 157 H 11.6849 -3.40217 -1.36557 0
M  V30 158 H 11.3329 -3.25232 -3.83709 0
M  V30 159 H 11.0329 -4.90312 -3.23834 0
M  V30 160 H 12.5569 -4.53086 -4.09323 0
M  V30 161 H 13.9709 -5.37812 -1.98573 0
M  V30 162 H 12.3679 -5.84746 -1.34878 0
M  V30 163 H 13.4379 -4.83548 -0.361868 0
M  V30 164 N 14.781 0.264519 -1.55364 0
M  V30 165 C 15.731 1.32966 -1.85214 0
M  V30 166 C 16.715 1.44306 -0.711653 0
M  V30 167 O 17.907 1.47844 -0.973192 0
M  V30 168 C 15.036 2.68839 -2.13495 0
M  V30 169 C 14.122 2.61575 -3.33825 0
M  V30 170 N 14.513 2.23933 -4.53528 0
M  V30 171 C 12.811 2.92621 -3.36584 0
M  V30 172 C 13.512 2.26868 -5.35636 0
M  V30 173 N 12.488 2.65677 -4.74254 0
M  V30 174 H 16.29 1.02884 -2.75304 0
M  V30 175 H 13.804 0.473157 -1.55354 0
M  V30 176 H 15.801 3.45685 -2.33039 0
M  V30 177 H 14.461 2.99802 -1.24694 0
M  V30 178 H 15.472 1.95769 -4.79474 0
M  V30 179 H 12.149 3.2824 -2.58002 0
M  V30 180 H 13.539 2.00254 -6.41364 0
M  V30 181 N 16.2591 1.48442 0.529413 0
M  V30 182 C 17.4871 1.60151 1.30994 0
M  V30 183 C 17.9021 0.261985 1.86973 0
M  V30 184 O 17.2591 -0.748805 1.66431 0
M  V30 185 C 17.3101 2.64854 2.46038 0
M  V30 186 O 17.0311 3.93608 1.92365 0
M  V30 187 C 18.5321 2.87007 3.37849 0
M  V30 188 H 15.7521 0.539971 0.398338 0
M  V30 189 H 18.2961 1.94273 0.638597 0
M  V30 190 H 16.4511 2.33589 3.09055 0
M  V30 191 H 16.8651 4.51055 2.67675 0
M  V30 192 H 18.3391 3.64068 4.14919 0
M  V30 193 H 18.8161 1.95852 3.93114 0
M  V30 194 H 19.4221 3.19579 2.80623 0
M  V30 195 N 17.7372 -0.778329 1.37039 0
M  V30 196 C 18.6472 -1.92253 1.34446 0
M  V30 197 C 19.6632 -1.72267 0.244991 0
M  V30 198 O 20.8392 -1.95615 0.479258 0
M  V30 199 C 17.9042 -3.27282 1.144 0
M  V30 200 C 16.9652 -3.59969 2.33925 0
M  V30 201 C 16.1982 -4.88555 2.14825 0
M  V30 202 O 16.4212 -5.59113 1.12912 0
M  V30 203 O 15.3552 -5.20153 3.02861 0
M  V30 204 H 19.1812 -1.97392 2.30803 0
M  V30 205 H 16.7662 -0.920154 1.17701 0
M  V30 206 H 18.6482 -4.08062 1.05182 0
M  V30 207 H 17.3232 -3.23011 0.211124 0
M  V30 208 H 16.2302 -2.7945 2.48714 0
M  V30 209 H 17.5632 -3.68976 3.25757 0
M  V30 210 N 19.2153 -1.21501 -1.00376 0
M  V30 211 C 20.1483 -0.918669 -2.08892 0
M  V30 212 C 21.1263 0.134277 -1.62045 0
M  V30 213 O 22.3103 0.00504255 -1.88499 0
M  V30 214 C 19.4373 -0.379645 -3.36566 0
M  V30 215 C 18.4833 -1.41559 -4.02323 0
M  V30 216 S 19.3163 -2.98521 -4.44574 0
M  V30 217 C 20.4723 -2.46228 -5.75433 0
M  V30 218 H 20.7053 -1.83761 -2.33707 0
M  V30 219 H 18.2383 -1.04489 -1.13673 0
M  V30 220 H 20.1963 -0.0752195 -4.10431 0
M  V30 221 H 18.8573 0.518008 -3.09799 0
M  V30 222 H 18.0503 -0.988076 -4.9422 0
M  V30 223 H 17.6523 -1.66815 -3.34737 0
M  V30 224 H 19.9443 -1.86791 -6.51241 0
M  V30 225 H 20.8873 -3.36572 -6.22997 0
M  V30 226 H 21.2953 -1.87894 -5.32312 0
M  V30 227 N 20.6934 1.19889 -1.02296 0
M  V30 228 C 21.9394 1.89701 -0.717033 0
M  V30 229 C 22.2724 1.7905 0.751989 0
M  V30 230 O 21.5474 1.17891 1.547 0
M  V30 231 C 21.8304 3.40858 -1.16136 0
M  V30 232 C 21.6834 3.60411 -2.69117 0
M  V30 233 C 23.0024 4.33876 -0.737549 0
M  V30 234 H 20.1214 0.688874 -0.261957 0
M  V30 235 H 22.7634 1.41154 -1.27183 0
M  V30 236 H 20.9134 3.82335 -0.689342 0
M  V30 237 H 22.5854 3.28145 -3.2422 0
M  V30 238 H 20.8284 3.03665 -3.0979 0
M  V30 239 H 21.4994 4.66396 -2.95261 0
M  V30 240 H 23.9754 4.00081 -1.14344 0
M  V30 241 H 22.8514 5.38242 -1.0764 0
M  V30 242 H 23.1124 4.40628 0.360436 0
M  V30 243 N 22.1715 0.800033 1.35784 0
M  V30 244 C 23.1345 0.211565 2.28221 0
M  V30 245 C 24.1345 -0.59728 1.49296 0
M  V30 246 O 25.3245 -0.416721 1.69142 0
M  V30 247 C 22.4565 -0.705846 3.33513 0
M  V30 248 H 23.6495 1.02677 2.81776 0
M  V30 249 H 21.2025 0.570211 1.45528 0
M  V30 250 H 21.9375 -1.54498 2.85133 0
M  V30 251 H 21.7225 -0.127655 3.91892 0
M  V30 252 H 23.2125 -1.11211 4.02519 0
M  V30 253 N 23.6496 -1.47581 0.552962 0
M  V30 254 C 24.5596 -2.33743 -0.200353 0
M  V30 255 C 25.5756 -1.47928 -0.916151 0
M  V30 256 O 26.7516 -1.80865 -0.885993 0
M  V30 257 C 23.8166 -3.24536 -1.21973 0
M  V30 258 C 22.8776 -4.26238 -0.511819 0
M  V30 259 C 22.1106 -5.12693 -1.48263 0
M  V30 260 O 22.3336 -5.01525 -2.71714 0
M  V30 261 O 21.2676 -5.93375 -1.00945 0
M  V30 262 H 25.0936 -2.9945 0.506304 0
M  V30 263 H 22.6786 -1.46071 0.313622 0
M  V30 264 H 24.5606 -3.80631 -1.80827 0
M  V30 265 H 23.2356 -2.61462 -1.90839 0
M  V30 266 H 22.1426 -3.73914 0.117799 0
M  V30 267 H 23.4756 -4.92014 0.135308 0
M  V30 268 N 25.1277 -0.289203 -1.54924 0
M  V30 269 C 26.0577 0.58549 -2.2604 0
M  V30 270 C 27.0387 1.14753 -1.25562 0
M  V30 271 O 28.2237 1.17906 -1.54311 0
M  V30 272 C 25.3537 1.76305 -2.99222 0
M  V30 273 C 24.3077 1.33191 -4.06748 0
M  V30 274 C 23.6337 2.5937 -4.6758 0
M  V30 275 C 24.9337 0.471775 -5.20165 0
M  V30 276 H 26.6277 -0.00763532 -2.99399 0
M  V30 277 H 24.1737 -0.00511229 -1.43999 0
M  V30 278 H 26.1267 2.38097 -3.47689 0
M  V30 279 H 24.8507 2.38223 -2.23422 0
M  V30 280 H 23.5097 0.737121 -3.59113 0
M  V30 281 H 23.1577 3.19576 -3.88433 0
M  V30 282 H 22.8577 2.31228 -5.40192 0
M  V30 283 H 24.3817 3.21985 -5.18804 0
M  V30 284 H 25.7957 0.995056 -5.64599 0
M  V30 285 H 24.1927 0.284639 -5.99425 0
M  V30 286 H 25.2627 -0.506041 -4.82252 0
M  V30 287 N 26.6058 1.57591 -0.0167156 0
M  V30 288 C 27.8518 1.92399 0.659861 0
M  V30 289 C 28.2068 0.892561 1.70444 0
M  V30 290 O 27.4998 -0.0930755 1.91374 0
M  V30 291 C 27.6938 3.3172 1.33029 0
M  V30 292 C 27.5228 4.48319 0.352174 0
M  V30 293 C 26.2928 5.05281 -0.0434883 0
M  V30 294 C 28.4908 5.12831 -0.388474 0
M  V30 295 N 26.4728 6.05399 -1.01807 0
M  V30 296 C 27.8438 6.07934 -1.2172 0
M  V30 297 C 29.8988 4.95858 -0.450513 0
M  V30 298 C 28.6018 6.87891 -2.10235 0
M  V30 299 C 30.6278 5.76413 -1.32295 0
M  V30 300 C 29.9898 6.71123 -2.13948 0
M  V30 301 H 26.0888 0.752106 0.21415 0
M  V30 302 H 28.6728 1.94532 -0.0809846 0
M  V30 303 H 26.8438 3.3043 2.04134 0
M  V30 304 H 28.5758 3.5391 1.9629 0
M  V30 305 H 25.3308 4.7246 0.328384 0
M  V30 306 H 25.7548 6.60145 -1.50123 0
M  V30 307 H 30.3968 4.22472 0.166512 0
M  V30 308 H 28.1148 7.60591 -2.72997 0
M  V30 309 H 31.7008 5.65317 -1.37508 0
M  V30 310 H 30.5808 7.3237 -2.80364 0
M  V30 311 N 28.0839 -0.256276 1.55502 0
M  V30 312 C 29.0469 -1.30047 1.88734 0
M  V30 313 C 30.0469 -1.4154 0.763086 0
M  V30 314 O 31.2369 -1.40403 1.03115 0
M  V30 315 C 28.3689 -2.67953 2.10747 0
M  V30 316 H 29.5619 -1.01802 2.82093 0
M  V30 317 H 27.1149 -0.495134 1.4825 0
M  V30 318 H 27.8499 -3.01351 1.19825 0
M  V30 319 H 27.6349 -2.60993 2.92617 0
M  V30 320 H 29.1249 -3.43368 2.37673 0
M  V30 321 N 29.562 -1.4872 -0.521534 0
M  V30 322 C 30.512 -1.60269 -1.62166 0
M  V30 323 C 31.496 -0.45935 -1.54204 0
M  V30 324 O 32.688 -0.711241 -1.62081 0
M  V30 325 C 29.817 -1.65344 -3.00859 0
M  V30 326 C 28.903 -2.85187 -3.13894 0
M  V30 327 N 29.294 -4.09509 -2.96877 0
M  V30 328 C 27.592 -2.82695 -3.44963 0
M  V30 329 C 28.293 -4.89959 -3.13552 0
M  V30 330 N 27.269 -4.22934 -3.41508 0
M  V30 331 H 31.071 -2.5413 -1.47632 0
M  V30 332 H 28.585 -1.45209 -0.727194 0
M  V30 333 H 30.582 -1.71713 -3.79895 0
M  V30 334 H 29.242 -0.726058 -3.16478 0
M  V30 335 H 30.253 -4.39814 -2.73467 0
M  V30 336 H 26.93 -1.99249 -3.66887 0
M  V30 337 H 28.32 -5.98654 -3.05061 0
M  V30 338 N 31.0401 0.771051 -1.3745 0
M  V30 339 C 32.3171 1.519 -1.23231 0
M  V30 340 C 32.6971 2.10383 0.173809 0
M  V30 341 O 32.0451 1.95583 1.18151 0
M  V30 342 C 32.2551 2.59933 -2.32886 0
M  V30 343 C 33.6031 3.27316 -2.70461 0
M  V30 344 O 34.6271 2.70228 -2.32068 0
M  V30 345 O 33.4861 4.30531 -3.36608 0
M  V30 346 H 30.5801 0.672803 -0.480901 0
M  V30 347 H 33.1261 0.807957 -1.49232 0
M  V30 348 H 31.8981 2.14842 -3.27045 0
M  V30 349 H 31.5211 3.38637 -2.08353 0
M  V30 350 N 32.5182 1.22032 0.997298 0
M  V30 351 C 33.9292 1.0397 1.55071 0
M  V30 352 C 34.2802 -0.398192 1.92117 0
M  V30 353 O 33.4052 -1.28254 1.74298 0
M  V30 354 C 34.0002 1.88109 2.81781 0
M  V30 355 C 32.5592 1.74357 3.33581 0
M  V30 356 C 31.7062 1.84846 2.06706 0
M  V30 357 H 34.6572 1.35941 0.818883 0
M  V30 358 H 34.6782 1.39589 3.53971 0
M  V30 359 H 34.1902 2.92754 2.54787 0
M  V30 360 H 32.2912 0.72427 3.65493 0
M  V30 361 H 32.4042 2.56772 4.04481 0
M  V30 362 H 30.7682 1.28238 2.20062 0
M  V30 363 H 31.5512 2.91014 1.82114 0
M  V30 364 N 33.9963 -1.19345 1.0293 0
M  V30 365 C 35.2733 -1.84811 0.640642 0
M  V30 366 C 35.6533 -1.91855 -0.88062 0
M  V30 367 O 35.0013 -1.43587 -1.7775 0
M  V30 368 C 35.2113 -3.23755 1.30321 0
M  V30 369 C 36.5593 -3.99912 1.42673 0
M  V30 370 O 37.5833 -3.33155 1.26041 0
M  V30 371 O 36.4423 -5.19494 1.6967 0
M  V30 372 H 33.5363 -0.796443 0.222726 0
M  V30 373 H 36.0823 -1.26831 1.12748 0
M  V30 374 H 34.8543 -3.13466 2.34211 0
M  V30 375 H 34.4773 -3.89381 0.804261 0
M  V30 376 N 35.4744 -0.807222 -1.35358 0
M  V30 377 C 36.8854 -0.44876 -1.81226 0
M  V30 378 C 37.2364 1.02929 -1.67033 0
M  V30 379 O 36.3614 1.79991 -1.20133 0
M  V30 380 C 36.9564 -0.807774 -3.2903 0
M  V30 381 C 35.5154 -0.501901 -3.73039 0
M  V30 382 C 34.6624 -1.03304 -2.57339 0
M  V30 383 H 37.6134 -0.998808 -1.23327 0
M  V30 384 H 37.6344 -0.10554 -3.80354 0
M  V30 385 H 37.1464 -1.88357 -3.39328 0
M  V30 386 H 35.2474 0.565128 -3.68289 0
M  V30 387 H 35.3604 -1.03497 -4.67787 0
M  V30 388 H 33.7244 -0.455339 -2.50597 0
M  V30 389 H 34.5074 -2.11496 -2.70415 0
M  V30 390 N 36.9525 1.47285 -0.560781 0
M  V30 391 C 38.2005 2.02064 -0.0379868 0
M  V30 392 C 38.5215 1.43711 1.31803 0
M  V30 393 O 37.7915 0.61362 1.86042 0
M  V30 394 H 36.3715 0.746918 -0.0110531 0
M  V30 395 H 39.0335 1.80648 -0.731598 0
M  V30 396 H 38.1295 3.12064 0.0474463 0
M  V30 397 N 38.4306 0.297415 1.54768 0
M  V30 398 C 39.8416 -0.195947 1.85669 0
M  V30 399 C 40.1926 -1.53707 1.21937 0
M  V30 400 O 39.3176 -2.10164 0.515754 0
M  V30 401 C 39.9126 -0.362318 3.36857 0
M  V30 402 C 38.4716 -0.799901 3.67802 0
M  V30 403 C 37.6186 0.0938578 2.77141 0
M  V30 404 H 40.5696 0.518538 1.4999 0
M  V30 405 H 40.5906 -1.19745 3.61167 0
M  V30 406 H 40.1026 0.613921 3.83214 0
M  V30 407 H 38.2036 -1.78682 3.26961 0
M  V30 408 H 38.3166 -0.621773 4.75048 0
M  V30 409 H 36.6806 -0.426254 2.51108 0
M  V30 410 H 37.4636 1.06639 3.26318 0
M  V30 411 N 39.9087 -1.5758 0.0250728 0
M  V30 412 C 41.1567 -1.91255 -0.653151 0
M  V30 413 C 41.4777 -0.901691 -1.729 0
M  V30 414 O 40.7477 0.0573785 -1.95816 0
M  V30 415 H 39.3277 -0.705942 -0.244243 0
M  V30 416 H 41.9897 -1.94767 0.0719209 0
M  V30 417 H 41.0857 -2.91752 -1.10847 0
M  V30 418 N 41.3868 0.248026 -1.55636 0
M  V30 419 C 42.6348 0.974295 -1.77065 0
M  V30 420 C 42.9558 1.85897 -0.588849 0
M  V30 421 O 42.2258 1.91868 0.395407 0
M  V30 422 H 40.8058 0.362733 -0.653019 0
M  V30 423 H 43.4678 0.266244 -1.93073 0
M  V30 424 H 42.5638 1.59667 -2.68166 0
M  V30 425 N 42.8649 1.48995 0.513639 0
M  V30 426 C 43.7969 1.60836 1.63293 0
M  V30 427 C 44.8099 0.491701 1.55197 0
M  V30 428 O 45.9989 0.763238 1.6136 0
M  V30 429 C 43.0989 1.53731 3.02027 0
M  V30 430 C 42.2719 2.80715 3.35437 0
M  V30 431 C 41.3309 2.66837 4.53525 0
M  V30 432 O 40.3569 3.40753 4.55934 0
M  V30 433 N 41.5589 1.77539 5.52684 0
M  V30 434 H 44.3239 2.57366 1.53566 0
M  V30 435 H 41.8849 1.45925 0.701259 0
M  V30 436 H 43.8769 1.42118 3.78926 0
M  V30 437 H 42.4469 0.651092 3.05744 0
M  V30 438 H 41.6669 3.06772 2.47557 0
M  V30 439 H 42.9549 3.64927 3.54551 0
M  V30 440 H 42.3529 1.16719 5.53528 0
M  V30 441 H 40.9099 1.71856 6.28736 0
M  V30 442 N 44.343 -0.763751 1.37857 0
M  V30 443 C 45.29 -1.87726 1.34267 0
M  V30 444 C 46.26 -1.64807 0.206879 0
M  V30 445 O 47.445 -1.86613 0.397508 0
M  V30 446 C 44.585 -3.24896 1.16346 0
M  V30 447 C 43.698 -3.59716 2.39225 0
M  V30 448 C 42.833 -4.86137 2.14114 0
M  V30 449 C 41.872 -5.13711 3.32817 0
M  V30 450 N 41.009 -6.31323 3.07206 0
M  V30 451 H 45.849 -1.90129 2.29466 0
M  V30 452 H 43.386 -0.929433 1.14017 0
M  V30 453 H 45.344 -4.04036 1.03975 0
M  V30 454 H 43.974 -3.21847 0.247909 0
M  V30 455 H 43.026 -2.75498 2.62307 0
M  V30 456 H 44.338 -3.76027 3.27728 0
M  V30 457 H 43.492 -5.73198 1.9882 0
M  V30 458 H 42.231 -4.71945 1.22961 0
M  V30 459 H 41.236 -4.25123 3.48641 0
M  V30 460 H 42.461 -5.29807 4.24832 0
M  V30 461 H 40.407 -6.18474 2.1869 0
M  V30 462 H 40.324 -6.48087 3.89254 0
M  V30 463 H 41.592 -7.213 2.95546 0
M  V30 464 N 45.8211 -1.22559 -0.990812 0
M  V30 465 C 46.7541 -0.940773 -2.07905 0
M  V30 466 C 47.7321 0.117082 -1.62178 0
M  V30 467 O 48.9161 -0.0149506 -1.88494 0
M  V30 468 C 46.0431 -0.415321 -3.36144 0
M  V30 469 C 45.0891 -1.45818 -4.00799 0
M  V30 470 S 45.9221 -3.03219 -4.41382 0
M  V30 471 C 47.0781 -2.52317 -5.72789 0
M  V30 472 H 47.3111 -1.8623 -2.31745 0
M  V30 473 H 44.8441 -1.05688 -1.12558 0
M  V30 474 H 46.8021 -0.118747 -4.10328 0
M  V30 475 H 45.4631 0.485121 -3.10331 0
M  V30 476 H 44.6561 -1.04044 -4.93144 0
M  V30 477 H 44.2581 -1.70356 -3.32949 0
M  V30 478 H 46.5501 -1.93688 -6.49224 0
M  V30 479 H 47.4931 -3.43161 -6.19392 0
M  V30 480 H 47.9011 -1.93529 -5.30289 0
M  V30 481 N 47.2992 1.18797 -1.03562 0
M  V30 482 C 48.5242 1.9314 -0.755764 0
M  V30 483 C 48.9492 1.7537 0.68022 0
M  V30 484 O 48.3072 1.06046 1.47051 0
M  V30 485 C 48.3552 3.42747 -1.12058 0
M  V30 486 O 47.4592 4.11683 -0.243124 0
M  V30 487 H 46.8002 0.602724 -0.278604 0
M  V30 488 H 49.3302 1.50678 -1.3841 0
M  V30 489 H 49.3402 3.93437 -1.08035 0
M  V30 490 H 48.0152 3.55002 -2.16672 0
M  V30 491 H 46.5922 3.71323 -0.342539 0
M  V30 492 N 48.7773 0.814389 1.34928 0
M  V30 493 C 49.7073 0.244827 2.32213 0
M  V30 494 C 50.6883 -0.634024 1.57842 0
M  V30 495 O 51.8733 -0.562676 1.8587 0
M  V30 496 C 49.0033 -0.601106 3.42058 0
M  V30 497 C 47.9573 0.179896 4.27622 0
M  V30 498 C 47.2833 -0.788237 5.28858 0
M  V30 499 C 48.5833 1.38329 5.03649 0
M  V30 500 H 50.2773 1.05763 2.80097 0
M  V30 501 H 47.8233 0.510029 1.34665 0
M  V30 502 H 49.7763 -1.00968 4.09125 0
M  V30 503 H 48.5003 -1.44688 2.92802 0
M  V30 504 H 47.1593 0.569739 3.62146 0
M  V30 505 H 46.8073 -1.62973 4.75866 0
M  V30 506 H 46.5073 -0.269942 5.8698 0
M  V30 507 H 48.0313 -1.19485 5.98795 0
M  V30 508 H 49.4453 1.04918 5.63618 0
M  V30 509 H 47.8423 1.83662 5.71304 0
M  V30 510 H 48.9123 2.16592 4.33839 0
M  V30 511 N 50.2554 -1.46986 0.568584 0
M  V30 512 C 51.4804 -2.07335 0.0520528 0
M  V30 513 C 51.9054 -1.41675 -1.23733 0
M  V30 514 O 51.2634 -0.495623 -1.74394 0
M  V30 515 C 51.3114 -3.60417 -0.11501 0
M  V30 516 O 50.4154 -3.95309 -1.17492 0
M  V30 517 H 49.7564 -0.661597 0.0564385 0
M  V30 518 H 52.2864 -1.88837 0.787507 0
M  V30 519 H 52.2964 -4.06698 -0.325644 0
M  V30 520 H 50.9714 -4.07601 0.826675 0
M  V30 521 H 49.5484 -3.60757 -0.943869 0
M  V30 522 N 51.7335 -0.305618 -1.54608 0
M  V30 523 C 52.9795 0.302746 -2.00528 0
M  V30 524 C 53.3125 1.53184 -1.19367 0
M  V30 525 O 52.5875 1.92598 -0.271321 0
M  V30 526 C 52.8705 0.654756 -3.54097 0
M  V30 527 C 52.7235 -0.583793 -4.45995 0
M  V30 528 C 54.0425 1.47947 -4.14487 0
M  V30 529 H 51.1615 0.108564 -0.72896 0
M  V30 530 H 53.8035 -0.418634 -1.85331 0
M  V30 531 H 51.9535 1.26935 -3.67178 0
M  V30 532 H 53.6255 -1.22224 -4.44814 0
M  V30 533 H 51.8685 -1.21615 -4.16404 0
M  V30 534 H 52.5395 -0.293287 -5.5122 0
M  V30 535 H 55.0155 0.96013 -4.04871 0
M  V30 536 H 53.8915 1.69454 -5.22088 0
M  V30 537 H 54.1525 2.47011 -3.66658 0
M  V30 538 N 53.2116 1.57565 -0.0334293 0
M  V30 539 C 54.1416 2.13511 0.945265 0
M  V30 540 C 55.1226 1.05231 1.33643 0
M  V30 541 O 56.3076 1.33084 1.41429 0
M  V30 542 C 53.4376 2.6657 2.22616 0
M  V30 543 C 52.3916 3.79676 1.97561 0
M  V30 544 C 51.7176 4.1918 3.31952 0
M  V30 545 C 53.0176 5.0557 1.31135 0
M  V30 546 H 54.7116 2.95538 0.479325 0
M  V30 547 H 52.2576 1.42166 0.229115 0
M  V30 548 H 54.2106 3.04344 2.91466 0
M  V30 549 H 52.9346 1.8171 2.71384 0
M  V30 550 H 51.5936 3.42347 1.31127 0
M  V30 551 H 51.2416 3.31296 3.78487 0
M  V30 552 H 50.9416 4.95402 3.15992 0
M  V30 553 H 52.4656 4.59541 4.02063 0
M  V30 554 H 53.8796 5.40903 1.89992 0
M  V30 555 H 52.2766 5.86818 1.25559 0
M  V30 556 H 53.3466 4.84062 0.284894 0
M  V30 557 N 54.6897 -0.239769 1.55765 0
M  V30 558 C 55.5997 -1.31831 1.94056 0
M  V30 559 C 56.6157 -1.52275 0.841925 0
M  V30 560 O 57.7917 -1.65759 1.14394 0
M  V30 561 C 54.8567 -2.65156 2.23368 0
M  V30 562 C 53.9177 -2.53173 3.46701 0
M  V30 563 C 53.1507 -3.8014 3.74606 0
M  V30 564 O 53.3737 -4.82343 3.04469 0
M  V30 565 O 52.3077 -3.78344 4.68123 0
M  V30 566 H 56.1337 -1.02347 2.85935 0
M  V30 567 H 53.7187 -0.441123 1.42739 0
M  V30 568 H 55.6007 -3.43929 2.43497 0
M  V30 569 H 54.2757 -2.94358 1.34666 0
M  V30 570 H 53.1827 -1.72662 3.31871 0
M  V30 571 H 54.5157 -2.28915 4.35728 0
M  V30 572 N 56.1678 -1.49265 -0.50573 0
M  V30 573 C 57.4158 -1.582 -1.25766 0
M  V30 574 C 57.7368 -0.268482 -1.93143 0
M  V30 575 O 57.0068 0.711833 -1.8251 0
M  V30 576 H 55.5868 -0.582873 -0.467191 0
M  V30 577 H 58.2488 -1.85865 -0.586525 0
M  V30 578 H 57.3448 -2.37563 -2.02412 0
M  V30 579 N 57.6459 0.756429 -1.3826 0
M  V30 580 C 58.5789 1.87802 -1.29637 0
M  V30 581 C 59.5569 1.61667 -0.173939 0
M  V30 582 O 60.7409 1.85208 -0.350775 0
M  V30 583 C 57.8679 3.23354 -1.00797 0
M  V30 584 C 56.9139 3.68379 -2.14939 0
M  V30 585 S 57.7469 3.8025 -3.77054 0
M  V30 586 C 58.9029 5.18626 -3.50396 0
M  V30 587 H 59.1359 1.94829 -2.24564 0
M  V30 588 H 56.6689 0.919117 -1.24063 0
M  V30 589 H 58.6269 4.01637 -0.848413 0
M  V30 590 H 57.2879 3.14008 -0.0759369 0
M  V30 591 H 56.4809 4.66693 -1.90299 0
M  V30 592 H 56.0829 2.97242 -2.26988 0
M  V30 593 H 58.3749 6.04289 -3.06334 0
M  V30 594 H 59.3179 5.48286 -4.48094 0
M  V30 595 H 59.7259 4.87289 -2.84973 0
M  V30 596 N 59.124 1.23083 0.984299 0
M  V30 597 C 60.372 1.05848 1.72165 0
M  V30 598 C 60.693 -0.406049 1.90726 0
M  V30 599 O 59.963 -1.29139 1.47309 0
M  V30 600 H 58.543 0.388685 0.637913 0
M  V30 601 H 61.205 1.54736 1.18503 0
M  V30 602 H 60.301 1.54327 2.71274 0
M  V30 603 N 60.6021 -1.18246 1.0419 0
M  V30 604 C 61.8491 -1.88257 0.746017 0
M  V30 605 C 62.1771 -1.80429 -0.726331 0
M  V30 606 O 61.4321 -1.2 -1.54591 0
M  V30 607 C 61.7311 -3.38082 1.15911 0
M  V30 608 C 61.3971 -3.66114 2.63195 0
M  V30 609 C 60.0591 -3.73474 3.03432 0
M  V30 610 C 62.4111 -3.78398 3.5842 0
M  V30 611 C 59.7391 -3.90599 4.37778 0
M  V30 612 C 62.0911 -3.97039 4.92487 0
M  V30 613 C 60.7551 -4.02635 5.32392 0
M  V30 614 H 60.0251 -0.688883 0.272987 0
M  V30 615 H 62.6721 -1.3995 1.30715 0
M  V30 616 H 60.9771 -3.88377 0.516806 0
M  V30 617 H 62.6741 -3.90596 0.907516 0
M  V30 618 H 59.2641 -3.61003 2.3103 0
M  V30 619 H 63.4481 -3.72042 3.28479 0
M  V30 620 H 58.7041 -3.93175 4.68213 0
M  V30 621 H 62.8781 -4.05486 5.66175 0
M  V30 622 H 60.5051 -4.15657 6.36501 0
M  V30 623 N 62.0802 -0.821533 -1.34494 0
M  V30 624 C 63.4962 -0.507117 -1.51329 0
M  V30 625 C 63.6962 0.968964 -1.76673 0
M  V30 626 O 62.7522 1.75348 -1.81685 0
M  V30 627 C 64.0652 -1.36544 -2.67911 0
M  V30 628 C 65.6132 -1.36242 -2.81793 0
M  V30 629 C 66.0882 -2.2052 -4.01416 0
M  V30 630 N 67.5792 -2.18136 -4.08621 0
M  V30 631 C 68.3142 -2.80095 -5.00334 0
M  V30 632 N 67.8102 -3.51039 -5.9728 0
M  V30 633 N 69.6032 -2.69656 -4.93196 0
M  V30 634 H 61.7542 -1.77729 -1.16302 0
M  V30 635 H 64.0172 -0.757291 -0.570276 0
M  V30 636 H 63.7232 -2.41361 -2.55808 0
M  V30 637 H 63.5972 -1.02917 -3.62888 0
M  V30 638 H 65.9842 -0.322041 -2.93338 0
M  V30 639 H 66.0652 -1.73866 -1.87628 0
M  V30 640 H 65.7092 -3.24607 -3.90631 0
M  V30 641 H 65.6392 -1.80247 -4.94791 0
M  V30 642 H 68.1302 -1.6653 -3.39229 0
M  V30 643 H 68.4432 -3.95565 -6.63889 0
M  V30 644 H 66.7882 -3.55145 -5.97409 0
M  V30 645 H 69.9792 -2.13808 -4.16418 0
M  V30 646 H 70.1522 -3.1823 -5.64476 0
M  V30 647 N 63.5583 1.46682 -0.576371 0
M  V30 648 C 64.8043 2.02712 -0.0596221 0
M  V30 649 C 65.1373 1.44765 1.29448 0
M  V30 650 O 64.4123 0.610355 1.84675 0
M  V30 651 C 64.6953 3.60098 0.0129503 0
M  V30 652 C 64.5483 4.28441 -1.3696 0
M  V30 653 C 65.8673 4.34224 0.71678 0
M  V30 654 H 62.9863 0.736637 -0.0231407 0
M  V30 655 H 65.6283 1.74898 -0.742351 0
M  V30 656 H 63.7783 3.83926 0.594378 0
M  V30 657 H 65.4503 4.15896 -1.9957 0
M  V30 658 H 63.6933 3.8805 -1.93907 0
M  V30 659 H 64.3643 5.3716 -1.27135 0
M  V30 660 H 66.8403 4.15503 0.222908 0
M  V30 661 H 65.7163 5.43936 0.73657 0
M  V30 662 H 65.9773 4.04823 1.77682 0
M  V30 663 N 65.0364 0.313813 1.54444 0
M  V30 664 C 66.2844 -0.291099 1.99993 0
M  V30 665 C 66.6054 -1.53418 1.20366 0
M  V30 666 O 65.8754 -1.93544 0.302927 0
M  V30 667 H 64.4554 -0.110552 0.738774 0
M  V30 668 H 67.1174 0.428106 1.9014 0
M  V30 669 H 66.2134 -0.554268 3.07139 0
M  V30 670 N 66.5145 -1.57545 0.0417849 0
M  V30 671 C 67.4465 -2.07904 -0.964799 0
M  V30 672 C 68.4595 -1.00497 -1.28079 0
M  V30 673 O 69.6485 -1.28087 -1.24322 0
M  V30 674 C 66.7485 -2.49928 -2.28887 0
M  V30 675 C 65.9215 -3.80562 -2.15619 0
M  V30 676 C 64.9805 -4.08999 -3.31069 0
M  V30 677 O 64.0065 -4.79061 -3.0739 0
M  V30 678 N 65.2085 -3.6017 -4.55256 0
M  V30 679 H 67.9735 -2.94886 -0.535029 0
M  V30 680 H 65.5345 -1.61252 -0.144681 0
M  V30 681 H 67.5265 -2.66034 -3.04972 0
M  V30 682 H 66.0965 -1.68245 -2.63463 0
M  V30 683 H 65.3165 -3.74129 -1.24183 0
M  V30 684 H 66.6045 -4.66126 -2.03971 0
M  V30 685 H 66.0025 -3.03512 -4.77386 0
M  V30 686 H 64.5595 -3.81532 -5.28466 0
M  V30 687 N 67.9926 0.231505 -1.5589 0
M  V30 688 C 68.9556 1.27028 -1.90779 0
M  V30 689 C 69.9556 1.40308 -0.785507 0
M  V30 690 O 71.1456 1.38744 -1.05336 0
M  V30 691 C 68.2776 2.64566 -2.14983 0
M  V30 692 H 69.4706 0.973017 -2.83677 0
M  V30 693 H 67.0236 0.471486 -1.49019 0
M  V30 694 H 67.7586 2.99406 -1.24604 0
M  V30 695 H 67.5436 2.56305 -2.96732 0
M  V30 696 H 69.0336 3.39543 -2.43105 0
M  V30 697 N 69.4707 1.49531 0.497807 0
M  V30 698 C 70.4007 1.6935 1.60757 0
M  V30 699 C 71.3817 0.542218 1.61227 0
M  V30 700 O 72.5667 0.778417 1.77917 0
M  V30 701 C 69.6967 1.76298 2.99226 0
M  V30 702 C 68.6507 2.91248 3.13622 0
M  V30 703 C 67.9767 2.83312 4.53474 0
M  V30 704 C 69.2767 4.3214 2.93346 0
M  V30 705 H 70.9707 2.62263 1.44425 0
M  V30 706 H 68.5167 1.26208 0.693367 0
M  V30 707 H 70.4697 1.88749 3.76765 0
M  V30 708 H 69.1937 0.799871 3.16654 0
M  V30 709 H 67.8527 2.78404 2.38509 0
M  V30 710 H 67.5007 1.84902 4.67782 0
M  V30 711 H 67.2007 3.60465 4.64046 0
M  V30 712 H 68.7247 2.97775 5.33069 0
M  V30 713 H 70.1387 4.45649 3.60652 0
M  V30 714 H 68.5357 5.1054 3.15387 0
M  V30 715 H 69.6057 4.46363 1.89441 0
M  V30 716 N 70.9488 -0.749086 1.3866 0
M  V30 717 C 72.1968 -1.50535 1.34847 0
M  V30 718 C 72.5178 -1.94909 -0.0595016 0
M  V30 719 O 71.7878 -1.67973 -1.00806 0
M  V30 720 H 70.3678 -0.558395 0.49619 0
M  V30 721 H 73.0298 -0.890165 1.73384 0
M  V30 722 H 72.1258 -2.39413 2.00219 0
M  V30 723 N 72.4269 -1.23603 -0.977757 0
M  V30 724 C 73.3369 -1.03632 -2.1047 0
M  V30 725 C 74.3529 0.0199435 -1.73989 0
M  V30 726 O 75.5289 -0.176076 -2.00629 0
M  V30 727 C 72.5939 -0.63276 -3.40877 0
M  V30 728 C 71.6549 -1.76437 -3.91367 0
M  V30 729 C 70.8879 -1.37997 -5.15551 0
M  V30 730 O 71.1109 -0.265357 -5.69782 0
M  V30 731 O 70.0449 -2.20201 -5.60174 0
M  V30 732 H 73.8709 -1.98086 -2.30208 0
M  V30 733 H 71.4559 -1.02332 -1.08851 0
M  V30 734 H 73.3379 -0.418761 -4.19314 0
M  V30 735 H 72.0129 0.282754 -3.22463 0
M  V30 736 H 70.9199 -2.03304 -3.14036 0
M  V30 737 H 72.2529 -2.6583 -4.14241 0
M  V30 738 N 73.905 1.17692 -1.04816 0
M  V30 739 C 75.321 1.39863 -0.768794 0
M  V30 740 C 75.521 1.91118 0.638451 0
M  V30 741 O 74.577 2.10036 1.40146 0
M  V30 742 C 75.89 2.39274 -1.82122 0
M  V30 743 C 77.438 2.52987 -1.843 0
M  V30 744 C 77.913 3.55669 -2.88555 0
M  V30 745 N 79.404 3.63183 -2.87493 0
M  V30 746 C 80.139 4.42381 -3.64811 0
M  V30 747 N 79.635 5.25125 -4.51903 0
M  V30 748 N 81.428 4.37217 -3.53267 0
M  V30 749 H 73.579 0.82752 -1.95617 0
M  V30 750 H 75.842 0.426123 -0.846831 0
M  V30 751 H 75.548 2.08678 -2.83102 0
M  V30 752 H 75.422 3.38725 -1.65967 0
M  V30 753 H 77.809 2.82896 -0.839869 0
M  V30 754 H 77.89 1.53623 -2.04532 0
M  V30 755 H 77.534 3.26499 -3.89051 0
M  V30 756 H 77.464 4.54728 -2.65575 0
M  V30 757 H 79.955 3.04103 -2.24343 0
M  V30 758 H 80.268 5.82728 -5.07591 0
M  V30 759 H 78.613 5.24519 -4.55966 0
M  V30 760 H 81.804 3.71626 -2.84625 0
M  V30 761 H 81.977 4.98696 -4.13771 0
M  V30 762 N 75.3831 0.828654 1.34056 0
M  V30 763 C 76.3131 0.269443 2.3194 0
M  V30 764 C 77.2941 -0.617247 1.58506 0
M  V30 765 O 78.4791 -0.542931 1.86456 0
M  V30 766 C 75.6091 -0.564793 3.42677 0
M  V30 767 C 74.5631 0.225241 4.27407 0
M  V30 768 C 73.8891 -0.7321 5.29664 0
M  V30 769 C 75.1891 1.43663 5.02154 0
M  V30 770 H 76.8831 1.08728 2.7896 0
M  V30 771 H 74.4291 0.524283 1.34117 0
M  V30 772 H 76.3821 -0.966233 4.10173 0
M  V30 773 H 75.1061 -1.41574 2.9432 0
M  V30 774 H 73.7651 0.608117 3.61521 0
M  V30 775 H 73.4131 -1.57916 4.77568 0
M  V30 776 H 73.1131 -0.20767 5.87233 0
M  V30 777 H 74.6371 -1.13128 6.00029 0
M  V30 778 H 76.0511 1.1089 5.62473 0
M  V30 779 H 74.4481 1.89711 5.69324 0
M  V30 780 H 75.5181 2.21181 4.31517 0
M  V30 781 N 76.8612 -1.46375 0.584142 0
M  V30 782 C 78.2722 -1.86031 0.157959 0
M  V30 783 C 78.6232 -1.48753 -1.27933 0
M  V30 784 O 77.7482 -0.903098 -1.96655 0
M  V30 785 C 78.3432 -3.37642 0.279892 0
M  V30 786 C 76.9022 -3.76289 -0.09143 0
M  V30 787 C 76.0492 -2.7039 0.615178 0
M  V30 788 H 79.0002 -1.37509 0.792274 0
M  V30 789 H 79.0212 -3.77275 -0.494364 0
M  V30 790 H 78.5332 -3.64742 1.32607 0
M  V30 791 H 76.6342 -3.54806 -1.13769 0
M  V30 792 H 76.7472 -4.78246 0.285886 0
M  V30 793 H 75.1112 -2.5464 0.0552833 0
M  V30 794 H 75.8942 -3.0033 1.66303 0
M  V30 795 N 78.3393 -0.321999 -1.54275 0
M  V30 796 C 79.7553 0.0306999 -1.5957 0
M  V30 797 C 79.9553 1.50614 -1.33857 0
M  V30 798 O 79.0113 2.2619 -1.12223 0
M  V30 799 C 80.3243 -0.386122 -2.98211 0
M  V30 800 C 81.8723 -0.336647 -3.11184 0
M  V30 801 C 82.3473 -0.728607 -4.52167 0
M  V30 802 N 83.8383 -0.681952 -4.58152 0
M  V30 803 C 84.5733 -0.957449 -5.6535 0
M  V30 804 N 84.0693 -1.3 -6.80494 0
M  V30 805 N 85.8623 -0.883113 -5.55119 0
M  V30 806 H 78.0133 -1.28332 -1.69247 0
M  V30 807 H 80.2763 -0.521716 -0.791528 0
M  V30 808 H 79.9823 -1.41404 -3.22022 0
M  V30 809 H 79.8563 0.249662 -3.76373 0
M  V30 810 H 82.2433 0.682058 -2.8711 0
M  V30 811 H 82.3243 -1.00734 -2.3513 0
M  V30 812 H 81.9683 -1.74522 -4.76974 0
M  V30 813 H 81.8983 -0.0356152 -5.26588 0
M  V30 814 H 84.3893 -0.428985 -3.75457 0
M  V30 815 H 84.7023 -1.49563 -7.58189 0
M  V30 816 H 83.0473 -1.33824 -6.81994 0
M  V30 817 H 86.2383 -0.615001 -4.64042 0
M  V30 818 H 86.4113 -1.10118 -6.38575 0
M  V30 819 N 79.8174 1.5752 -0.0501392 0
M  V30 820 C 80.7274 2.14952 0.939827 0
M  V30 821 C 81.7434 1.10706 1.34239 0
M  V30 822 O 82.9194 1.42869 1.41952 0
M  V30 823 C 79.9844 2.68232 2.19665 0
M  V30 824 C 79.0454 3.87272 1.85253 0
M  V30 825 C 78.2784 4.38002 3.04943 0
M  V30 826 O 78.5014 3.87811 4.18281 0
M  V30 827 O 77.4354 5.29602 2.86017 0
M  V30 828 H 81.2614 2.9986 0.481392 0
M  V30 829 H 78.8464 1.4841 0.171699 0
M  V30 830 H 80.7284 3.02475 2.93406 0
M  V30 831 H 79.4034 1.86395 2.64648 0
M  V30 832 H 78.3104 3.5792 1.0883 0
M  V30 833 H 79.6434 4.70336 1.4507 0
M  V30 834 N 81.2955 -0.223234 1.56011 0
M  V30 835 C 82.5235 -0.964812 1.83027 0
M  V30 836 C 82.9385 -1.78013 0.62904 0
M  V30 837 O 82.2955 -1.78008 -0.402414 0
M  V30 838 C 82.3465 -1.88373 3.08542 0
M  V30 839 O 82.0675 -1.10137 4.2403 0
M  V30 840 C 83.5685 -2.73934 3.48533 0
M  V30 841 H 80.7885 -0.282842 0.608475 0
M  V30 842 H 83.3325 -0.238971 2.03099 0
M  V30 843 H 81.4875 -2.56354 2.9045 0
M  V30 844 H 81.9015 -1.72501 4.95322 0
M  V30 845 H 83.3755 -3.34117 4.39397 0
M  V30 846 H 83.8525 -3.46244 2.70207 0
M  V30 847 H 84.4585 -2.11369 3.69057 0
M  V30 848 N 82.7736 -1.49793 -0.48987 0
M  V30 849 C 83.7036 -1.70201 -1.59856 0
M  V30 850 C 84.6846 -0.55076 -1.60937 0
M  V30 851 O 85.8696 -0.787841 -1.77501 0
M  V30 852 C 82.9996 -1.77882 -2.98287 0
M  V30 853 C 81.9536 -2.92907 -3.12073 0
M  V30 854 C 81.2796 -2.85712 -4.51965 0
M  V30 855 C 82.5796 -4.3369 -2.91051 0
M  V30 856 H 84.2736 -2.63025 -1.43032 0
M  V30 857 H 81.8196 -1.26574 -0.686664 0
M  V30 858 H 83.7726 -1.90744 -3.75759 0
M  V30 859 H 82.4966 -0.816653 -3.16225 0
M  V30 860 H 81.1556 -2.79665 -2.37029 0
M  V30 861 H 80.8036 -1.8738 -4.66795 0
M  V30 862 H 80.5036 -3.62921 -4.62128 0
M  V30 863 H 82.0276 -3.00598 -5.31482 0
M  V30 864 H 83.4416 -4.47555 -3.58284 0
M  V30 865 H 81.8386 -5.12205 -3.12675 0
M  V30 866 H 82.9086 -4.47362 -1.87071 0
M  V30 867 N 84.2517 0.741722 -1.39055 0
M  V30 868 C 85.2147 1.83733 -1.37021 0
M  V30 869 C 86.2147 1.58542 -0.268534 0
M  V30 870 O 87.4047 1.66067 -0.526076 0
M  V30 871 C 84.5367 3.2141 -1.13617 0
M  V30 872 H 85.7297 1.86941 -2.34506 0
M  V30 873 H 83.2827 0.944676 -1.24521 0
M  V30 874 H 84.0177 3.23865 -0.167863 0
M  V30 875 H 83.8027 3.4109 -1.93391 0
M  V30 876 H 85.2927 4.01477 -1.14918 0
M  V30 877 N 85.7298 1.2412 0.971189 0
M  V30 878 C 86.9768 1.07881 1.71371 0
M  V30 879 C 87.3048 -0.382901 1.90694 0
M  V30 880 O 86.5598 -1.29945 1.46331 0
M  V30 881 C 86.8588 1.75983 3.11071 0
M  V30 882 C 86.5248 3.25909 3.11599 0
M  V30 883 C 85.1868 3.66813 3.11451 0
M  V30 884 C 87.5388 4.21771 3.062 0
M  V30 885 C 84.8668 5.02021 3.03631 0
M  V30 886 C 87.2188 5.56982 2.99923 0
M  V30 887 C 85.8828 5.97237 2.98102 0
M  V30 888 H 85.1528 0.394764 0.62709 0
M  V30 889 H 87.7998 1.54176 1.13587 0
M  V30 890 H 86.1048 1.22072 3.72298 0
M  V30 891 H 87.8018 1.60887 3.6731 0
M  V30 892 H 84.3918 2.93353 3.12477 0
M  V30 893 H 88.5758 3.91172 3.05447 0
M  V30 894 H 83.8318 5.32411 3.0058 0
M  V30 895 H 88.0058 6.30969 2.94704 0
M  V30 896 H 85.6328 7.01967 2.91798 0
M  V30 897 N 87.2079 -1.17134 1.05439 0
M  V30 898 C 88.6239 -1.39454 0.776201 0
M  V30 899 C 88.8239 -1.91454 -0.628307 0
M  V30 900 O 87.8799 -2.10777 -1.39031 0
M  V30 901 C 89.1929 -2.38305 1.83388 0
M  V30 902 C 90.7409 -2.52006 1.85639 0
M  V30 903 C 91.2159 -3.54133 2.90437 0
M  V30 904 N 92.7069 -3.61653 2.89415 0
M  V30 905 C 93.4419 -4.4044 3.67152 0
M  V30 906 N 92.9379 -5.22721 4.54681 0
M  V30 907 N 94.7309 -4.35337 3.55581 0
M  V30 908 H 86.8819 -0.817134 1.96053 0
M  V30 909 H 89.1449 -0.421626 0.849079 0
M  V30 910 H 88.8509 -2.07173 2.84204 0
M  V30 911 H 88.7249 -3.37841 1.67761 0
M  V30 912 H 91.1119 -2.82447 0.85486 0
M  V30 913 H 91.1929 -1.52537 2.05344 0
M  V30 914 H 90.8369 -3.24431 3.90777 0
M  V30 915 H 90.7669 -4.53313 2.67983 0
M  V30 916 H 93.2579 -3.02909 2.25952 0
M  V30 917 H 93.5709 -5.80027 5.10674 0
M  V30 918 H 91.9159 -5.22093 4.58741 0
M  V30 919 H 95.1069 -3.70112 2.86592 0
M  V30 920 H 95.2799 -4.96494 4.1641 0
M  V30 921 N 88.686 -0.835752 -1.33615 0
M  V30 922 C 89.596 -0.269088 -2.33052 0
M  V30 923 C 90.612 0.603251 -1.63208 0
M  V30 924 O 91.788 0.508112 -1.94885 0
M  V30 925 C 88.853 0.549091 -3.42324 0
M  V30 926 C 87.914 -0.347156 -4.27894 0
M  V30 927 C 87.147 0.43207 -5.31948 0
M  V30 928 O 87.37 1.66409 -5.45586 0
M  V30 929 O 86.304 -0.192298 -6.01593 0
M  V30 930 H 90.13 -1.09243 -2.83372 0
M  V30 931 H 87.715 -0.598198 -1.36901 0
M  V30 932 H 89.597 1.01414 -4.09015 0
M  V30 933 H 88.272 1.34955 -2.94226 0
M  V30 934 H 87.179 -0.859979 -3.64081 0
M  V30 935 H 88.512 -1.1123 -4.79467 0
M  V30 936 N 90.1641 1.46063 -0.591896 0
M  V30 937 C 91.0741 2.34192 0.13831 0
M  V30 938 C 92.0901 1.50305 0.876608 0
M  V30 939 O 93.2661 1.8315 0.837728 0
M  V30 940 C 90.3311 3.27656 1.13326 0
M  V30 941 C 89.3921 4.27445 0.39863 0
M  V30 942 C 88.6251 5.16443 1.34618 0
M  V30 943 O 88.8481 5.08553 2.58321 0
M  V30 944 O 87.7821 5.95843 0.851768 0
M  V30 945 H 91.6081 2.98002 -0.58552 0
M  V30 946 H 89.1931 1.45188 -0.352239 0
M  V30 947 H 91.0751 3.85291 1.70671 0
M  V30 948 H 89.7501 2.6643 1.83839 0
M  V30 949 H 88.6571 3.73471 -0.216895 0
M  V30 950 H 89.9901 4.91482 -0.265709 0
M  V30 951 N 91.6422 0.330177 1.54103 0
M  V30 952 C 92.5722 -0.525353 2.27513 0
M  V30 953 C 93.5532 -1.11383 1.2856 0
M  V30 954 O 94.7382 -1.13773 1.57383 0
M  V30 955 C 91.8682 -1.6831 3.03791 0
M  V30 956 C 90.8222 -1.2236 4.10137 0
M  V30 957 C 90.1482 -2.46882 4.74293 0
M  V30 958 C 91.4482 -0.333697 5.21233 0
M  V30 959 H 93.1422 0.087013 2.99274 0
M  V30 960 H 90.6882 0.0432893 1.43935 0
M  V30 961 H 92.6412 -2.28795 3.5388 0
M  V30 962 H 91.3652 -2.32216 2.29659 0
M  V30 963 H 90.0242 -0.64165 3.60941 0
M  V30 964 H 89.6722 -3.09165 3.96769 0
M  V30 965 H 89.3722 -2.16825 5.46133 0
M  V30 966 H 90.8962 -3.08117 5.27159 0
M  V30 967 H 92.3102 -0.845013 5.67038 0
M  V30 968 H 90.7072 -0.125612 5.99969 0
M  V30 969 H 91.7772 0.633724 4.80741 0
M  V30 970 N 93.1203 -1.57491 0.0584922 0
M  V30 971 C 94.3973 -1.84346 -0.653918 0
M  V30 972 C 94.7773 -0.948355 -1.88599 0
M  V30 973 O 94.1253 -0.0112403 -2.28497 0
M  V30 974 C 94.3353 -3.34239 -1.00425 0
M  V30 975 C 95.6833 -4.01431 -1.38342 0
M  V30 976 O 96.7073 -3.38907 -1.09637 0
M  V30 977 O 95.5663 -5.11683 -1.91943 0
M  V30 978 H 92.6603 -0.761112 -0.323478 0
M  V30 979 H 95.2063 -1.6947 0.0884125 0
M  V30 980 H 93.9783 -3.91089 -0.128625 0
M  V30 981 H 93.6013 -3.54329 -1.80378 0
M  V30 982 N 94.5984 0.214957 -1.56127 0
M  V30 983 C 95.8444 0.939762 -1.79712 0
M  V30 984 C 96.1774 1.83723 -0.629247 0
M  V30 985 O 95.4524 1.90925 0.371197 0
M  V30 986 C 95.7354 1.77306 -3.13424 0
M  V30 987 C 95.5884 0.90164 -4.40671 0
M  V30 988 C 96.9074 2.74956 -3.43638 0
M  V30 989 H 94.0264 0.340214 -0.653776 0
M  V30 990 H 96.6684 0.20824 -1.88855 0
M  V30 991 H 94.8184 2.39673 -3.0576 0
M  V30 992 H 96.4904 0.294206 -4.60361 0
M  V30 993 H 94.7334 0.207368 -4.33304 0
M  V30 994 H 95.4044 1.51923 -5.30682 0
M  V30 995 H 97.8804 2.22724 -3.51473 0
M  V30 996 H 96.7564 3.30358 -4.38355 0
M  V30 997 H 97.0174 3.53023 -2.66134 0
M  V30 998 N 96.0765 1.50051 0.48192 0
M  V30 999 C 97.0065 1.71046 1.58951 0
M  V30 1000 C 97.9875 0.559288 1.60642 0
M  V30 1001 O 99.1725 0.797243 1.77081 0
M  V30 1002 C 96.3025 1.79462 2.97339 0
M  V30 1003 C 95.2565 2.94558 3.10515 0
M  V30 1004 C 94.5825 2.88105 4.50444 0
M  V30 1005 C 95.8825 4.35227 2.88747 0
M  V30 1006 H 97.5765 2.6378 1.41635 0
M  V30 1007 H 95.1225 1.26936 0.679942 0
M  V30 1008 H 97.0755 1.92734 3.74742 0
M  V30 1009 H 95.7995 0.833412 3.15788 0
M  V30 1010 H 94.4585 2.80918 2.35543 0
M  V30 1011 H 94.1065 1.89853 4.65795 0
M  V30 1012 H 93.8065 3.65366 4.60197 0
M  V30 1013 H 95.3305 3.03412 5.29881 0
M  V30 1014 H 96.7445 4.49449 3.55905 0
M  V30 1015 H 95.1415 5.13856 3.09955 0
M  V30 1016 H 96.2115 4.48347 1.84696 0
M  V30 1017 N 97.5546 -0.734337 1.39446 0
M  V30 1018 C 98.5016 -1.84835 1.38219 0
M  V30 1019 C 99.4716 -1.64331 0.24179 0
M  V30 1020 O 100.657 -1.85728 0.437002 0
M  V30 1021 C 97.7966 -3.22355 1.23212 0
M  V30 1022 C 96.9096 -3.5456 2.46801 0
M  V30 1023 C 96.0446 -4.81485 2.24377 0
M  V30 1024 C 95.0836 -5.06536 3.43639 0
M  V30 1025 N 94.2206 -6.24665 3.20528 0
M  V30 1026 H 99.0606 -1.85219 2.33448 0
M  V30 1027 H 96.5976 -0.905039 1.15963 0
M  V30 1028 H 98.5556 -4.0174 1.12522 0
M  V30 1029 H 97.1856 -3.21248 0.316121 0
M  V30 1030 H 96.2376 -2.69872 2.68092 0
M  V30 1031 H 97.5496 -3.6899 3.3563 0
M  V30 1032 H 96.7036 -5.68852 2.10933 0
M  V30 1033 H 95.4426 -4.6923 1.32944 0
M  V30 1034 H 94.4476 -4.17632 3.5758 0
M  V30 1035 H 95.6726 -5.20676 4.35974 0
M  V30 1036 H 93.6186 -6.13696 2.3176 0
M  V30 1037 H 93.5356 -6.39685 4.02913 0
M  V30 1038 H 94.8036 -7.14868 3.10779 0
M  V30 1039 N 99.0327 -1.24633 -0.964593 0
M  V30 1040 C 100.28 -1.08788 -1.70796 0
M  V30 1041 C 100.608 0.372783 -1.90894 0
M  V30 1042 O 99.8627 1.29167 -1.47018 0
M  V30 1043 C 100.162 -1.7763 -3.10133 0
M  V30 1044 C 99.8277 -3.27557 -3.09866 0
M  V30 1045 C 98.4897 -3.6846 -3.09501 0
M  V30 1046 C 100.842 -4.23389 -3.03959 0
M  V30 1047 C 98.1697 -5.03624 -3.00965 0
M  V30 1048 C 100.522 -5.58565 -2.96965 0
M  V30 1049 C 99.1857 -5.98809 -2.9493 0
M  V30 1050 H 98.4557 -0.398084 -0.624988 0
M  V30 1051 H 101.103 -1.54777 -1.12767 0
M  V30 1052 H 99.4077 -1.24044 -3.71645 0
M  V30 1053 H 101.105 -1.62832 -3.66451 0
M  V30 1054 H 97.6947 -2.95006 -3.10917 0
M  V30 1055 H 101.879 -3.92787 -3.03368 0
M  V30 1056 H 97.1347 -5.33998 -2.97752 0
M  V30 1057 H 101.309 -6.32523 -2.91354 0
M  V30 1058 H 98.9357 -7.03505 -2.88071 0
M  V30 1059 N 100.511 1.16574 -1.06058 0
M  V30 1060 C 101.441 2.23057 -0.690488 0
M  V30 1061 C 102.422 1.67141 0.315901 0
M  V30 1062 O 103.607 1.93253 0.191556 0
M  V30 1063 C 100.737 3.47222 -0.073625 0
M  V30 1064 C 99.6908 4.16016 -1.00573 0
M  V30 1065 C 99.0168 5.34104 -0.252289 0
M  V30 1066 C 100.317 4.67264 -2.33371 0
M  V30 1067 H 102.011 2.54271 -1.58072 0
M  V30 1068 H 99.5568 1.22218 -0.76149 0
M  V30 1069 H 101.51 4.20939 0.19714 0
M  V30 1070 H 100.234 3.15302 0.85161 0
M  V30 1071 H 98.8928 3.44223 -1.2612 0
M  V30 1072 H 98.5408 4.98437 0.675988 0
M  V30 1073 H 98.2408 5.81072 -0.873455 0
M  V30 1074 H 99.7648 6.10599 0.0109857 0
M  V30 1075 H 101.179 5.32573 -2.12223 0
M  V30 1076 H 99.5758 5.24843 -2.90963 0
M  V30 1077 H 100.646 3.83602 -2.96611 0
M  V30 1078 N 101.989 0.842826 1.3317 0
M  V30 1079 C 103.229 0.446574 1.99462 0
M  V30 1080 C 103.593 -0.976818 1.65295 0
M  V30 1081 O 104.794 -1.477 2.24584 0
M  V30 1082 C 103.065 0.665353 3.51152 0
M  V30 1083 S 104.624 0.364911 4.3728 0
M  V30 1084 H 101.442 0.167803 0.690915 0
M  V30 1085 H 104.044 1.09297 1.62094 0
M  V30 1086 H 102.748 1.7006 3.73507 0
M  V30 1087 H 102.279 0.00494568 3.934 0
M  V30 1088 H 104.294 -0.813761 4.89482 0
M  V30 1089 N 103.467 -1.45747 0.599634 0
M  V30 1090 C 104.414 -2.30467 -0.123849 0
M  V30 1091 C 105.384 -1.41632 -0.86774 0
M  V30 1092 O 106.569 -1.70568 -0.855056 0
M  V30 1093 C 103.709 -3.26402 -1.12051 0
M  V30 1094 C 102.822 -4.3034 -0.37832 0
M  V30 1095 C 101.957 -5.13389 -1.364 0
M  V30 1096 C 100.996 -6.09061 -0.609171 0
M  V30 1097 N 100.133 -6.84918 -1.54374 0
M  V30 1098 H 104.973 -2.91802 0.604627 0
M  V30 1099 H 102.51 -1.43797 0.309972 0
M  V30 1100 H 104.468 -3.80482 -1.7114 0
M  V30 1101 H 103.098 -2.66839 -1.8165 0
M  V30 1102 H 102.15 -3.78984 0.327929 0
M  V30 1103 H 103.462 -4.98354 0.210997 0
M  V30 1104 H 102.616 -5.7183 -2.02719 0
M  V30 1105 H 101.355 -4.45376 -1.98725 0
M  V30 1106 H 100.36 -5.49758 0.0676979 0
M  V30 1107 H 101.585 -6.79099 0.00891991 0
M  V30 1108 H 99.531 -6.19601 -2.15478 0
M  V30 1109 H 99.448 -7.49254 -1.00766 0
M  V30 1110 H 100.716 -7.47906 -2.19676 0
M  V30 1111 N 104.945 -0.338344 -1.53925 0
M  V30 1112 C 106.222 0.314774 -1.93051 0
M  V30 1113 C 106.602 1.68669 -1.26941 0
M  V30 1114 O 105.95 2.24636 -0.418445 0
M  V30 1115 C 106.16 0.392249 -3.46789 0
M  V30 1116 C 107.508 0.645554 -4.19664 0
M  V30 1117 O 108.532 0.474575 -3.53024 0
M  V30 1118 O 107.391 0.976408 -5.37707 0
M  V30 1119 H 104.485 0.182598 -0.80659 0
M  V30 1120 H 107.031 -0.389141 -1.65178 0
M  V30 1121 H 105.803 -0.570702 -3.87116 0
M  V30 1122 H 105.426 1.14316 -3.80812 0
M  V30 1123 N 106.423 1.57458 -0.0668435 0
M  V30 1124 C 107.353 2.15468 0.899764 0
M  V30 1125 C 108.334 1.08042 1.31381 0
M  V30 1126 O 109.519 1.36054 1.38574 0
M  V30 1127 C 106.649 2.71232 2.16911 0
M  V30 1128 C 105.603 3.83781 1.89463 0
M  V30 1129 C 104.929 4.26127 3.22986 0
M  V30 1130 C 106.229 5.08238 1.20381 0
M  V30 1131 H 107.923 2.96488 0.416529 0
M  V30 1132 H 105.469 1.4262 0.198908 0
M  V30 1133 H 107.422 3.10458 2.84945 0
M  V30 1134 H 106.146 1.87426 2.67468 0
M  V30 1135 H 104.805 3.45051 1.23836 0
M  V30 1136 H 104.453 3.39249 3.71374 0
M  V30 1137 H 104.153 5.01993 3.05413 0
M  V30 1138 H 105.677 4.67966 3.92225 0
M  V30 1139 H 107.091 5.44811 1.78475 0
M  V30 1140 H 105.488 5.89349 1.13083 0
M  V30 1141 H 106.558 4.84558 0.182153 0
M  V30 1142 N 107.901 -0.206675 1.56239 0
M  V30 1143 C 109.147 -0.925733 1.81113 0
M  V30 1144 C 109.502 -1.81368 0.642135 0
M  V30 1145 O 108.795 -1.88126 -0.363211 0
M  V30 1146 C 108.989 -1.78675 3.09532 0
M  V30 1147 C 108.818 -0.98365 4.3881 0
M  V30 1148 C 107.588 -0.672661 5.00803 0
M  V30 1149 C 109.786 -0.341847 5.13163 0
M  V30 1150 N 107.768 0.150283 6.13716 0
M  V30 1151 C 109.139 0.343815 6.19046 0
M  V30 1152 C 111.194 -0.256392 4.97239 0
M  V30 1153 C 109.897 1.10678 7.10734 0
M  V30 1154 C 111.923 0.493142 5.8934 0
M  V30 1155 C 111.285 1.16729 6.94661 0
M  V30 1156 H 107.384 -0.318524 0.714189 0
M  V30 1157 H 109.968 -0.195378 1.93717 0
M  V30 1158 H 108.139 -2.4888 2.98183 0
M  V30 1159 H 109.871 -2.44441 3.22538 0
M  V30 1160 H 106.626 -0.994294 4.63045 0
M  V30 1161 H 107.05 0.551026 6.74754 0
M  V30 1162 H 111.692 -0.763249 4.15854 0
M  V30 1163 H 109.41 1.6251 7.91591 0
M  V30 1164 H 112.996 0.560465 5.79094 0
M  V30 1165 H 111.876 1.738 7.64698 0
M  V30 1166 N 109.379 -1.50304 -0.473955 0
M  V30 1167 C 110.625 -1.61389 -1.22806 0
M  V30 1168 C 110.958 -0.311955 -1.91678 0
M  V30 1169 O 110.233 0.686384 -1.81986 0
M  V30 1170 C 110.516 -2.79219 -2.27396 0
M  V30 1171 C 110.369 -4.19286 -1.62848 0
M  V30 1172 C 111.688 -2.92614 -3.28732 0
M  V30 1173 H 108.807 -0.587399 -0.445119 0
M  V30 1174 H 111.449 -1.82681 -0.522265 0
M  V30 1175 H 109.599 -2.61195 -2.87592 0
M  V30 1176 H 111.271 -4.48892 -1.06271 0
M  V30 1177 H 109.514 -4.23677 -0.931693 0
M  V30 1178 H 110.185 -4.97655 -2.38838 0
M  V30 1179 H 112.661 -3.09105 -2.78556 0
M  V30 1180 H 111.537 -3.76688 -3.99246 0
M  V30 1181 H 111.798 -2.03107 -3.92683 0
M  V30 1182 N 110.857 0.726932 -1.39834 0
M  V30 1183 C 111.82 1.82269 -1.38962 0
M  V30 1184 C 112.82 1.58248 -0.285334 0
M  V30 1185 O 114.01 1.65499 -0.54366 0
M  V30 1186 C 111.142 3.20186 -1.17019 0
M  V30 1187 H 112.335 1.84443 -2.36476 0
M  V30 1188 H 109.888 0.931416 -1.25516 0
M  V30 1189 H 110.623 3.23669 -0.202204 0
M  V30 1190 H 110.408 3.3902 -1.96998 0
M  V30 1191 H 111.898 4.00235 -1.1917 0
M  V30 1192 N 112.336 1.25143 0.95797 0
M  V30 1193 C 113.582 1.09855 1.70469 0
M  V30 1194 C 113.915 -0.360187 1.90831 0
M  V30 1195 O 113.19 -1.26568 1.47685 0
M  V30 1196 C 113.473 1.8497 3.08963 0
M  V30 1197 C 113.326 3.38652 2.96032 0
M  V30 1198 C 114.645 1.63016 4.08795 0
M  V30 1199 H 111.764 0.400465 0.618706 0
M  V30 1200 H 114.406 1.53933 1.11376 0
M  V30 1201 H 112.556 1.47505 3.59409 0
M  V30 1202 H 114.228 3.85772 2.52938 0
M  V30 1203 H 112.471 3.66534 2.32025 0
M  V30 1204 H 113.142 3.8642 3.94187 0
M  V30 1205 H 115.618 1.95625 3.67247 0
M  V30 1206 H 114.494 2.18015 5.03747 0
M  V30 1207 H 114.755 0.570692 4.38401 0
M  V30 1208 N 113.814 -1.1601 1.06675 0
M  V30 1209 C 115.061 -1.86633 0.785781 0
M  V30 1210 C 115.389 -1.81929 -0.687896 0
M  V30 1211 O 114.644 -1.23253 -1.52011 0
M  V30 1212 C 114.943 -3.35547 1.23057 0
M  V30 1213 C 114.609 -3.60448 2.70902 0
M  V30 1214 C 113.271 -3.66954 3.11285 0
M  V30 1215 C 115.623 -3.7071 3.66365 0
M  V30 1216 C 112.951 -3.81225 4.45965 0
M  V30 1217 C 115.303 -3.86503 5.00797 0
M  V30 1218 C 113.967 -3.91252 5.40813 0
M  V30 1219 H 113.237 -0.682937 0.287538 0
M  V30 1220 H 115.884 -1.37146 1.33654 0
M  V30 1221 H 114.189 -3.87193 0.59907 0
M  V30 1222 H 115.886 -3.88583 0.990163 0
M  V30 1223 H 112.476 -3.56021 2.38636 0
M  V30 1224 H 116.66 -3.64991 3.36296 0
M  V30 1225 H 111.916 -3.83155 4.76447 0
M  V30 1226 H 116.09 -3.93385 5.74649 0
M  V30 1227 H 113.717 -4.02062 6.45174 0
M  V30 1228 N 115.292 -0.849877 -1.32721 0
M  V30 1229 C 116.224 -0.248332 -2.27851 0
M  V30 1230 C 117.237 0.577218 -1.52224 0
M  V30 1231 O 118.426 0.402489 -1.73903 0
M  V30 1232 C 115.526 0.668107 -3.32249 0
M  V30 1233 C 114.699 -0.120534 -4.37234 0
M  V30 1234 C 113.758 0.720932 -5.21238 0
M  V30 1235 O 112.784 0.156166 -5.68986 0
M  V30 1236 N 113.986 2.03647 -5.43607 0
M  V30 1237 H 116.751 -1.06575 -2.80111 0
M  V30 1238 H 114.312 -0.709395 -1.45531 0
M  V30 1239 H 116.304 1.23627 -3.85355 0
M  V30 1240 H 114.874 1.38621 -2.80184 0
M  V30 1241 H 114.094 -0.870108 -3.84477 0
M  V30 1242 H 115.382 -0.662406 -5.0447 0
M  V30 1243 H 114.78 2.51871 -5.06535 0
M  V30 1244 H 113.337 2.55287 -5.99727 0
M  V30 1245 N 116.77 1.45427 -0.607355 0
M  V30 1246 C 117.717 2.3053 0.111625 0
M  V30 1247 C 118.687 1.4209 0.860216 0
M  V30 1248 O 119.872 1.71019 0.845998 0
M  V30 1249 C 117.012 3.26992 1.10319 0
M  V30 1250 C 116.125 4.30535 0.355493 0
M  V30 1251 C 115.26 5.14105 1.33676 0
M  V30 1252 C 114.299 6.09376 0.576862 0
M  V30 1253 N 113.436 6.85727 1.5074 0
M  V30 1254 H 118.276 2.91477 -0.620093 0
M  V30 1255 H 115.813 1.43631 -0.317594 0
M  V30 1256 H 117.771 3.81385 1.6912 0
M  V30 1257 H 116.401 2.67799 1.80232 0
M  V30 1258 H 115.453 3.78805 -0.348023 0
M  V30 1259 H 116.765 4.98235 -0.237423 0
M  V30 1260 H 115.919 5.72897 1.99684 0
M  V30 1261 H 114.658 4.46423 1.9636 0
M  V30 1262 H 113.663 5.49715 -0.0968519 0
M  V30 1263 H 114.888 6.79085 -0.0449341 0
M  V30 1264 H 112.834 6.20735 2.12189 0
M  V30 1265 H 112.751 7.49778 0.967913 0
M  V30 1266 H 114.019 7.4906 2.15706 0
M  V30 1267 N 118.248 0.346503 1.53744 0
M  V30 1268 C 119.18 -0.543316 2.22667 0
M  V30 1269 C 120.193 -1.06159 1.23427 0
M  V30 1270 O 121.382 -0.971235 1.49764 0
M  V30 1271 C 118.482 -1.76076 2.89569 0
M  V30 1272 C 117.655 -1.37727 4.15151 0
M  V30 1273 C 116.714 -2.45471 4.65436 0
M  V30 1274 O 115.74 -2.08655 5.29577 0
M  V30 1275 N 116.942 -3.7677 4.41616 0
M  V30 1276 H 119.707 0.0469703 2.99663 0
M  V30 1277 H 117.268 0.170766 1.60997 0
M  V30 1278 H 119.26 -2.47593 3.20125 0
M  V30 1279 H 117.83 -2.25835 2.16142 0
M  V30 1280 H 117.05 -0.492746 3.91108 0
M  V30 1281 H 118.338 -1.09708 4.96832 0
M  V30 1282 H 117.736 -4.09467 3.90325 0
M  V30 1283 H 116.293 -4.44448 4.7677 0
M  V30 1284 N 119.726 -1.57421 0.075193 0
M  V30 1285 C 120.659 -2.08528 -0.926904 0
M  V30 1286 C 121.637 -0.991171 -1.28898 0
M  V30 1287 O 122.821 -1.26479 -1.39769 0
M  V30 1288 C 119.948 -2.54576 -2.23402 0
M  V30 1289 C 118.994 -3.75454 -2.02327 0
M  V30 1290 S 119.827 -5.19989 -1.27951 0
M  V30 1291 C 120.983 -5.69372 -2.59935 0
M  V30 1292 H 121.216 -2.932 -0.492048 0
M  V30 1293 H 118.749 -1.53785 -0.137651 0
M  V30 1294 H 120.707 -2.81767 -2.98526 0
M  V30 1295 H 119.368 -1.70166 -2.64012 0
M  V30 1296 H 118.561 -4.05675 -2.99071 0
M  V30 1297 H 118.163 -3.48654 -1.35339 0
M  V30 1298 H 120.455 -5.76424 -3.56008 0
M  V30 1299 H 121.398 -6.68207 -2.34319 0
M  V30 1300 H 121.806 -4.97205 -2.67296 0
M  V30 1301 N 121.204 0.198386 -1.56346 0
M  V30 1302 C 122.481 0.944982 -1.71258 0
M  V30 1303 C 122.861 2.0151 -0.629048 0
M  V30 1304 O 122.209 2.25639 0.360473 0
M  V30 1305 C 122.419 1.5344 -3.1346 0
M  V30 1306 C 123.767 2.01778 -3.73591 0
M  V30 1307 O 124.791 1.63288 -3.16568 0
M  V30 1308 O 123.65 2.72594 -4.73661 0
M  V30 1309 H 120.744 0.442939 -0.69838 0
M  V30 1310 H 123.29 0.188342 -1.68652 0
M  V30 1311 H 122.062 0.762869 -3.83792 0
M  V30 1312 H 121.685 2.35596 -3.20282 0
M  V30 1313 N 122.682 1.50554 0.465978 0
M  V30 1314 C 123.907 1.65838 1.24549 0
M  V30 1315 C 124.332 0.343486 1.84937 0
M  V30 1316 O 123.69 -0.69324 1.67523 0
M  V30 1317 C 123.738 2.75533 2.32624 0
M  V30 1318 O 122.842 2.37142 3.37398 0
M  V30 1319 H 122.183 0.553893 0.366194 0
M  V30 1320 H 124.713 1.96959 0.553927 0
M  V30 1321 H 124.723 2.98763 2.77857 0
M  V30 1322 H 123.398 3.70962 1.88043 0
M  V30 1323 H 121.975 2.24377 2.97841 0
M  V30 1324 N 124.16 -0.719506 1.40217 0
M  V30 1325 C 125.09 -1.8465 1.42922 0
M  V30 1326 C 126.071 -1.67599 0.29062 0
M  V30 1327 O 127.256 -1.87688 0.498677 0
M  V30 1328 C 124.386 -3.22565 1.28722 0
M  V30 1329 C 123.34 -3.54281 2.40144 0
M  V30 1330 C 122.666 -4.91298 2.11023 0
M  V30 1331 C 123.966 -3.55676 3.82481 0
M  V30 1332 H 125.66 -1.82644 2.37237 0
M  V30 1333 H 123.206 -0.877305 1.1419 0
M  V30 1334 H 125.159 -4.01095 1.29232 0
M  V30 1335 H 123.883 -3.25137 0.308811 0
M  V30 1336 H 122.542 -2.78088 2.38877 0
M  V30 1337 H 122.19 -4.90468 1.11582 0
M  V30 1338 H 121.89 -5.13485 2.8567 0
M  V30 1339 H 123.414 -5.72166 2.13209 0
M  V30 1340 H 124.828 -4.24254 3.85592 0
M  V30 1341 H 123.225 -3.89388 4.56614 0
M  V30 1342 H 124.295 -2.55144 4.12346 0
M  V30 1343 N 125.638 -1.25649 -0.95132 0
M  V30 1344 C 127.054 -1.02542 -1.223 0
M  V30 1345 C 127.254 0.255715 -1.99871 0
M  V30 1346 O 126.31 0.967558 -2.33226 0
M  V30 1347 C 127.623 -2.25065 -1.99415 0
M  V30 1348 C 129.171 -2.29861 -2.12446 0
M  V30 1349 C 129.646 -3.52048 -2.92961 0
M  V30 1350 N 131.137 -3.52465 -3.00538 0
M  V30 1351 C 131.872 -4.43672 -3.63239 0
M  V30 1352 N 131.368 -5.45157 -4.27523 0
M  V30 1353 N 133.161 -4.31346 -3.60412 0
M  V30 1354 H 125.312 -2.07951 -0.432471 0
M  V30 1355 H 127.575 -0.91339 -0.253816 0
M  V30 1356 H 127.281 -3.18194 -1.49817 0
M  V30 1357 H 127.155 -2.28502 -3.00111 0
M  V30 1358 H 129.542 -1.37252 -2.61239 0
M  V30 1359 H 129.623 -2.3044 -1.11044 0
M  V30 1360 H 129.267 -4.44981 -2.44856 0
M  V30 1361 H 129.197 -3.48715 -3.94596 0
M  V30 1362 H 131.688 -2.79056 -2.54826 0
M  V30 1363 H 132.001 -6.10958 -4.73234 0
M  V30 1364 H 130.346 -5.49025 -4.26141 0
M  V30 1365 H 133.537 -3.51288 -3.09377 0
M  V30 1366 H 133.71 -5.02624 -4.0899 0
M  V30 1367 N 127.117 1.15442 -1.07289 0
M  V30 1368 C 128.345 1.90096 -0.81676 0
M  V30 1369 C 128.76 1.7798 0.629966 0
M  V30 1370 O 128.117 1.1313 1.43206 0
M  V30 1371 C 128.168 3.40466 -1.21512 0
M  V30 1372 O 127.889 3.52232 -2.60508 0
M  V30 1373 C 129.39 4.32145 -0.988198 0
M  V30 1374 H 126.61 0.602495 -0.295366 0
M  V30 1375 H 129.154 1.4627 -1.42918 0
M  V30 1376 H 127.309 3.81958 -0.647039 0
M  V30 1377 H 127.723 4.45549 -2.76742 0
M  V30 1378 H 129.197 5.36072 -1.31645 0
M  V30 1379 H 129.674 4.39135 0.0755063 0
M  V30 1380 H 130.28 3.96395 -1.54115 0
M  V30 1381 N 128.595 0.856903 1.32268 0
M  V30 1382 C 129.543 0.291987 2.3076 0
M  V30 1383 C 130.537 -0.585857 1.58947 0
M  V30 1384 O 131.743 -0.47341 1.73663 0
M  V30 1385 H 128.118 0.075721 0.748178 0
M  V30 1386 H 130.089 1.13687 2.75895 0
M  V30 1387 C 128.838 -0.502869 3.44044 0
M  V30 1388 H 128.161 0.163328 3.99466 0
M  V30 1389 H 129.601 -0.863691 4.1511 0
M  V30 1390 C 128.06 -1.68898 2.91505 0
M  V30 1391 O 128.59 -2.78811 2.89184 0
M  V30 1392 N 126.796 -1.51679 2.47875 0
M  V30 1393 H 126.343 -0.622666 2.49961 0
M  V30 1394 H 126.301 -2.31184 2.13076 0
M  V30 1395 N 130.073 -1.45103 0.615059 0
M  V30 1396 C 131.023 -2.27679 -0.120966 0
M  V30 1397 C 132.007 -1.3775 -0.831491 0
M  V30 1398 O 133.199 -1.61683 -0.720249 0
M  V30 1399 C 130.328 -3.24767 -1.1127 0
M  V30 1400 C 129.414 -4.22184 -0.402627 0
M  V30 1401 N 129.805 -5.02692 0.559884 0
M  V30 1402 C 128.103 -4.4125 -0.649202 0
M  V30 1403 C 128.804 -5.73421 0.977942 0
M  V30 1404 N 127.78 -5.42657 0.320104 0
M  V30 1405 H 131.582 -2.87325 0.618181 0
M  V30 1406 H 129.096 -1.56345 0.439304 0
M  V30 1407 H 131.093 -3.82666 -1.65446 0
M  V30 1408 H 129.753 -2.66682 -1.85232 0
M  V30 1409 H 130.764 -5.09354 0.936976 0
M  V30 1410 H 127.441 -3.9428 -1.37293 0
M  V30 1411 H 128.831 -6.48107 1.77222 0
M  V30 1412 N 131.551 -0.354651 -1.53558 0
M  V30 1413 C 132.483 0.5315 -2.22952 0
M  V30 1414 C 133.496 1.05503 -1.23988 0
M  V30 1415 O 134.685 0.963279 -1.50277 0
M  V30 1416 C 131.785 1.74538 -2.90499 0
M  V30 1417 C 130.958 1.35524 -4.15875 0
M  V30 1418 C 130.017 2.42999 -4.66731 0
M  V30 1419 O 129.043 2.05844 -5.30676 0
M  V30 1420 N 130.245 3.74423 -4.43608 0
M  V30 1421 H 133.01 -0.0628615 -2.99634 0
M  V30 1422 H 130.571 -0.179302 -1.60904 0
M  V30 1423 H 132.563 2.45892 -3.21433 0
M  V30 1424 H 131.133 2.24686 -2.17336 0
M  V30 1425 H 130.353 0.471998 -3.91364 0
M  V30 1426 H 131.641 1.07071 -4.97406 0
M  V30 1427 H 131.039 4.07391 -3.92491 0
M  V30 1428 H 129.596 4.41913 -4.7912 0
M  V30 1429 N 133.029 1.57378 -0.0835403 0
M  V30 1430 C 134.277 1.93547 0.581718 0
M  V30 1431 C 134.598 0.96524 1.69435 0
M  V30 1432 O 133.868 0.0153369 1.95894 0
M  V30 1433 H 132.448 0.714521 0.217874 0
M  V30 1434 H 135.11 1.94366 -0.144158 0
M  V30 1435 H 134.206 2.95665 0.999423 0
M  V30 1436 N 134.507 -0.190092 1.56449 0
M  V30 1437 C 135.735 -0.925772 1.85033 0
M  V30 1438 C 136.15 -1.76638 0.666658 0
M  V30 1439 O 135.507 -1.78822 -0.364565 0
M  V30 1440 C 135.558 -1.81786 3.12468 0
M  V30 1441 O 135.279 -1.01118 4.26271 0
M  V30 1442 C 136.78 -2.6648 3.54265 0
M  V30 1443 H 134 -0.269872 0.614337 0
M  V30 1444 H 136.544 -0.195837 2.0356 0
M  V30 1445 H 134.699 -2.50136 2.95822 0
M  V30 1446 H 135.113 -1.61956 4.98869 0
M  V30 1447 H 136.587 -3.24722 4.46385 0
M  V30 1448 H 137.064 -3.40434 2.77491 0
M  V30 1449 H 137.67 -2.03493 3.73458 0
M  V30 1450 N 135.985 -1.50799 -0.457987 0
M  V30 1451 C 137.215 -1.65977 -1.23025 0
M  V30 1452 C 137.623 -0.347918 -1.85974 0
M  V30 1453 O 136.966 0.68148 -1.70592 0
M  V30 1454 C 137.028 -2.70309 -2.3701 0
M  V30 1455 C 136.692 -4.135 -1.94594 0
M  V30 1456 C 137.689 -4.98949 -1.46101 0
M  V30 1457 C 135.374 -4.5949 -2.02915 0
M  V30 1458 C 137.368 -6.28442 -1.06489 0
M  V30 1459 C 135.055 -5.88984 -1.62914 0
M  V30 1460 C 136.053 -6.73286 -1.1478 0
M  V30 1461 O 135.741 -8.00362 -0.75339 0
M  V30 1462 H 135.473 -0.56064 -0.377702 0
M  V30 1463 H 138.027 -1.97857 -0.551537 0
M  V30 1464 H 136.257 -2.337 -3.08093 0
M  V30 1465 H 137.946 -2.74574 -2.98938 0
M  V30 1466 H 138.712 -4.6463 -1.39084 0
M  V30 1467 H 134.591 -3.94009 -2.39328 0
M  V30 1468 H 138.135 -6.94194 -0.688488 0
M  V30 1469 H 134.032 -6.22822 -1.69595 0
M  V30 1470 H 134.8 -8.13744 -0.88108 0
M  V30 1471 N 137.463 0.71206 -1.40597 0
M  V30 1472 C 138.709 1.47416 -1.39271 0
M  V30 1473 C 139.042 1.942 0.00388791 0
M  V30 1474 O 138.317 1.68403 0.973179 0
M  V30 1475 C 138.6 2.69774 -2.38525 0
M  V30 1476 C 138.453 2.28861 -3.87224 0
M  V30 1477 C 139.772 3.71939 -2.35264 0
M  V30 1478 H 136.891 0.534713 -0.5072 0
M  V30 1479 H 139.533 0.812375 -1.71757 0
M  V30 1480 H 137.683 3.26238 -2.10953 0
M  V30 1481 H 139.355 1.77852 -4.25636 0
M  V30 1482 H 137.598 1.60824 -4.02887 0
M  V30 1483 H 138.269 3.16584 -4.52193 0
M  V30 1484 H 140.745 3.25113 -2.59694 0
M  V30 1485 H 139.621 4.55186 -3.06753 0
M  V30 1486 H 139.882 4.20484 -1.36549 0
M  V30 1487 N 138.941 1.26152 0.944643 0
M  V30 1488 C 139.871 1.09902 2.06019 0
M  V30 1489 C 140.852 0.00519538 1.70099 0
M  V30 1490 O 142.037 0.176583 1.93396 0
M  V30 1491 C 139.167 0.727562 3.39594 0
M  V30 1492 C 138.121 1.77274 3.89561 0
M  V30 1493 C 137.447 1.25569 5.19747 0
M  V30 1494 C 138.747 3.17357 4.14827 0
M  V30 1495 H 140.441 2.03217 2.19871 0
M  V30 1496 H 137.987 0.978452 1.05652 0
M  V30 1497 H 139.94 0.600777 4.17095 0
M  V30 1498 H 138.664 -0.241287 3.25707 0
M  V30 1499 H 137.323 1.88814 3.14237 0
M  V30 1500 H 136.971 0.276783 5.02238 0
M  V30 1501 H 136.671 1.95433 5.54148 0
M  V30 1502 H 138.195 1.1415 5.99835 0
M  V30 1503 H 139.609 3.08914 4.82954 0
M  V30 1504 H 138.006 3.84781 4.60504 0
M  V30 1505 H 139.076 3.63673 3.20734 0
M  V30 1506 N 140.419 -1.14872 1.07899 0
M  V30 1507 C 141.351 -2.19425 0.662231 0
M  V30 1508 C 142.364 -1.60231 -0.288079 0
M  V30 1509 O 143.553 -1.78336 -0.076534 0
M  V30 1510 C 140.653 -3.38867 -0.0470695 0
M  V30 1511 C 139.826 -4.27597 0.920831 0
M  V30 1512 C 138.885 -5.25616 0.247805 0
M  V30 1513 O 137.911 -5.62189 0.890599 0
M  V30 1514 N 139.113 -5.71746 -1.00435 0
M  V30 1515 H 141.878 -2.55797 1.56166 0
M  V30 1516 H 139.439 -1.30042 0.964404 0
M  V30 1517 H 141.431 -4.01497 -0.50813 0
M  V30 1518 H 140.001 -3.00864 -0.848523 0
M  V30 1519 H 139.221 -3.61982 1.56087 0
M  V30 1520 H 140.509 -4.83748 1.57688 0
M  V30 1521 H 139.907 -5.44153 -1.54642 0
M  V30 1522 H 138.464 -6.36389 -1.40899 0
M  V30 1523 N 141.898 -0.863906 -1.31812 0
M  V30 1524 C 143.175 -0.39275 -1.91616 0
M  V30 1525 C 143.555 1.12461 -1.7865 0
M  V30 1526 O 142.903 1.95045 -1.19037 0
M  V30 1527 C 143.113 -0.867385 -3.38049 0
M  V30 1528 C 144.461 -0.889966 -4.15168 0
M  V30 1529 O 145.485 -0.812635 -3.46806 0
M  V30 1530 O 144.344 -1.00079 -5.37258 0
M  V30 1531 H 141.438 -0.116358 -0.818773 0
M  V30 1532 H 143.984 -0.951418 -1.40521 0
M  V30 1533 H 142.756 -1.91081 -3.41473 0
M  V30 1534 H 142.379 -0.286687 -3.96565 0
M  V30 1535 N 143.376 1.44774 -0.622745 0
M  V30 1536 C 144.324 2.32387 0.0994683 0
M  V30 1537 C 145.318 1.46859 0.844326 0
M  V30 1538 O 146.524 1.63254 0.758174 0
M  V30 1539 H 142.899 0.750273 0.0509291 0
M  V30 1540 H 144.87 2.91062 -0.65767 0
M  V30 1541 C 143.619 3.30723 1.07319 0
M  V30 1542 H 142.942 3.96541 0.509462 0
M  V30 1543 H 144.382 3.94725 1.54817 0
M  V30 1544 C 142.841 2.59021 2.15429 0
M  V30 1545 O 143.371 2.38286 3.23393 0
M  V30 1546 N 141.577 2.189 1.91131 0
M  V30 1547 H 141.124 2.35964 1.03337 0
M  V30 1548 H 141.082 1.71251 2.63668 0
M  V30 1549 N 144.854 0.36279 1.53368 0
M  V30 1550 C 146.079 -0.231226 2.06107 0
M  V30 1551 C 146.504 -1.419 1.23474 0
M  V30 1552 O 145.862 -1.79524 0.253128 0
M  V30 1553 C 145.91 -0.605523 3.5548 0
M  V30 1554 O 145.014 -1.70312 3.7559 0
M  V30 1555 H 144.355 -0.034327 0.663112 0
M  V30 1556 H 146.885 0.522584 1.97814 0
M  V30 1557 H 146.895 -0.877314 3.98456 0
M  V30 1558 H 145.57 0.263004 4.15068 0
M  V30 1559 H 144.147 -1.4271 3.44512 0
M  V30 1560 N 146.332 -1.57332 0.0918853 0
M  V30 1561 C 147.579 -1.94236 -0.572577 0
M  V30 1562 C 147.907 -0.973398 -1.6839 0
M  V30 1563 O 147.162 0.00756912 -1.95699 0
M  V30 1564 C 147.461 -3.37689 -1.17051 0
M  V30 1565 C 147.127 -4.50527 -0.183304 0
M  V30 1566 C 145.789 -4.81119 0.0882276 0
M  V30 1567 C 148.141 -5.18883 0.49095 0
M  V30 1568 C 145.469 -5.77395 1.04076 0
M  V30 1569 C 147.821 -6.1618 1.43193 0
M  V30 1570 C 146.485 -6.45179 1.71173 0
M  V30 1571 H 145.755 -0.710762 -0.209521 0
M  V30 1572 H 148.402 -1.9077 0.167036 0
M  V30 1573 H 146.707 -3.37718 -1.9863 0
M  V30 1574 H 148.404 -3.63543 -1.69227 0
M  V30 1575 H 144.994 -4.26681 -0.405124 0
M  V30 1576 H 149.178 -4.95427 0.294312 0
M  V30 1577 H 144.434 -5.98179 1.26457 0
M  V30 1578 H 148.608 -6.68243 1.96023 0
M  V30 1579 H 146.235 -7.1959 2.4514 0
M  V30 1580 N 147.81 0.181792 -1.56548 0
M  V30 1581 C 149.221 0.745244 -1.71181 0
M  V30 1582 C 149.572 1.83262 -0.70068 0
M  V30 1583 O 148.697 2.15946 0.140154 0
M  V30 1584 C 149.292 1.35859 -3.10367 0
M  V30 1585 C 147.851 1.86898 -3.2672 0
M  V30 1586 C 146.998 0.743942 -2.67134 0
M  V30 1587 H 149.949 -0.0434661 -1.5864 0
M  V30 1588 H 149.97 2.22817 -3.08436 0
M  V30 1589 H 149.482 0.566948 -3.83937 0
M  V30 1590 H 147.583 2.68738 -2.5809 0
M  V30 1591 H 147.696 2.02162 -4.34359 0
M  V30 1592 H 146.06 1.16169 -2.26665 0
M  V30 1593 H 146.843 -0.035676 -3.43281 0
M  V30 1594 N 149.288 1.51039 0.449983 0
M  V30 1595 C 150.218 1.74379 1.55288 0
M  V30 1596 C 151.199 0.593236 1.5942 0
M  V30 1597 O 152.384 0.834625 1.7535 0
M  V30 1598 C 149.514 1.85728 2.93466 0
M  V30 1599 C 148.468 3.01078 3.04197 0
M  V30 1600 C 147.794 2.97595 4.44231 0
M  V30 1601 C 149.094 4.41254 2.7945 0
M  V30 1602 H 150.788 2.66725 1.36008 0
M  V30 1603 H 148.334 1.2835 0.652864 0
M  V30 1604 H 150.287 2.0064 3.70569 0
M  V30 1605 H 149.011 0.900207 3.13949 0
M  V30 1606 H 147.67 2.85851 2.29531 0
M  V30 1607 H 147.318 1.99691 4.61663 0
M  V30 1608 H 147.018 3.75046 4.52343 0
M  V30 1609 H 148.542 3.14583 5.23326 0
M  V30 1610 H 149.956 4.56897 3.46292 0
M  V30 1611 H 148.353 5.20315 2.98985 0
M  V30 1612 H 149.423 4.52164 1.75144 0
M  V30 1613 N 150.766 -0.704594 1.40972 0
M  V30 1614 C 151.696 -1.83124 1.44872 0
M  V30 1615 C 152.677 -1.67281 0.30838 0
M  V30 1616 O 153.862 -1.87149 0.518556 0
M  V30 1617 C 150.992 -3.21181 1.32136 0
M  V30 1618 C 149.946 -3.51714 2.43888 0
M  V30 1619 C 149.272 -4.89032 2.16222 0
M  V30 1620 C 150.572 -3.516 3.86232 0
M  V30 1621 H 152.266 -1.80117 2.39161 0
M  V30 1622 H 149.812 -0.865145 1.15114 0
M  V30 1623 H 151.765 -3.99702 1.33479 0
M  V30 1624 H 150.489 -3.24791 0.343279 0
M  V30 1625 H 149.148 -2.75539 2.41813 0
M  V30 1626 H 148.796 -4.89256 1.16778 0
M  V30 1627 H 148.496 -5.10426 2.911 0
M  V30 1628 H 150.02 -5.69873 2.19265 0
M  V30 1629 H 151.434 -4.2014 3.9007 0
M  V30 1630 H 149.831 -3.84523 4.60719 0
M  V30 1631 H 150.901 -2.50757 4.15029 0
M  V30 1632 N 152.244 -1.26651 -0.937939 0
M  V30 1633 C 153.174 -1.10993 -2.05433 0
M  V30 1634 C 154.155 -0.0142161 -1.70094 0
M  V30 1635 O 155.34 -0.186837 -1.93299 0
M  V30 1636 C 152.47 -0.745561 -3.39203 0
M  V30 1637 C 151.424 -1.79337 -3.88616 0
M  V30 1638 C 150.75 -1.28324 -5.19073 0
M  V30 1639 C 152.05 -3.19553 -4.13138 0
M  V30 1640 H 153.744 -2.0438 -2.1879 0
M  V30 1641 H 151.29 -0.984041 -1.05131 0
M  V30 1642 H 153.243 -0.622888 -4.16771 0
M  V30 1643 H 151.967 0.22401 -3.25831 0
M  V30 1644 H 150.626 -1.90477 -3.13231 0
M  V30 1645 H 150.274 -0.303414 -5.02084 0
M  V30 1646 H 149.974 -1.98369 -5.53103 0
M  V30 1647 H 151.498 -1.1733 -5.99221 0
M  V30 1648 H 152.912 -3.11471 -4.81309 0
M  V30 1649 H 151.309 -3.87218 -4.58457 0
M  V30 1650 H 152.379 -3.65368 -3.18801 0
M  V30 1651 N 153.722 1.14298 -1.08507 0
M  V30 1652 C 155.133 1.66926 -0.836227 0
M  V30 1653 C 155.484 1.85576 0.63686 0
M  V30 1654 O 154.609 1.56767 1.49175 0
M  V30 1655 C 155.204 3.03219 -1.51142 0
M  V30 1656 C 153.763 3.52876 -1.30979 0
M  V30 1657 C 152.91 2.2833 -1.57356 0
M  V30 1658 H 155.861 0.983491 -1.24552 0
M  V30 1659 H 155.882 3.68726 -0.939211 0
M  V30 1660 H 155.394 2.89612 -2.58353 0
M  V30 1661 H 153.495 3.71703 -0.258429 0
M  V30 1662 H 153.608 4.33586 -2.03814 0
M  V30 1663 H 151.972 2.34454 -0.995164 0
M  V30 1664 H 152.755 2.17298 -2.65775 0
M  V30 1665 N 155.201 0.870884 1.31352 0
M  V30 1666 C 156.134 0.271983 2.26573 0
M  V30 1667 C 157.112 -0.599385 1.51149 0
M  V30 1668 O 158.296 -0.552605 1.80218 0
M  V30 1669 C 155.423 -0.614801 3.33073 0
M  V30 1670 C 154.469 0.185342 4.26097 0
M  V30 1671 S 155.302 1.56444 5.12138 0
M  V30 1672 C 156.458 0.683807 6.22153 0
M  V30 1673 H 156.691 1.07916 2.77023 0
M  V30 1674 H 154.224 0.669459 1.39132 0
M  V30 1675 H 156.182 -1.12074 3.94905 0
M  V30 1676 H 154.843 -1.39593 2.81376 0
M  V30 1677 H 154.036 -0.490771 5.01605 0
M  V30 1678 H 153.638 0.623415 3.68768 0
M  V30 1679 H 155.93 -0.10521 6.77418 0
M  V30 1680 H 156.873 1.41004 6.93919 0
M  V30 1681 H 157.281 0.250952 5.63942 0
M  V30 1682 N 156.679 -1.44442 0.630414 0
M  V30 1683 C 157.642 -2.29107 -0.0652523 0
M  V30 1684 C 158.642 -1.41002 -0.772995 0
M  V30 1685 O 159.832 -1.62881 -0.617692 0
M  V30 1686 C 156.964 -3.22564 -1.10296 0
M  V30 1687 H 158.157 -2.92103 0.679401 0
M  V30 1688 H 155.71 -1.51343 0.390517 0
M  V30 1689 H 156.445 -2.64416 -1.87762 0
M  V30 1690 H 156.23 -3.87491 -0.59941 0
M  V30 1691 H 157.72 -3.86167 -1.5895 0
M  V30 1692 N 158.157 -0.370918 -1.53173 0
M  V30 1693 C 159.382 0.220293 -2.06227 0
M  V30 1694 C 159.807 1.41243 -1.24225 0
M  V30 1695 O 159.165 1.79387 -0.262645 0
M  V30 1696 C 159.213 0.586663 -3.55796 0
M  V30 1697 O 158.317 1.68317 -3.76488 0
M  V30 1698 H 157.658 0.0308099 -0.663285 0
M  V30 1699 H 160.188 -0.533068 -1.97534 0
M  V30 1700 H 160.198 0.85617 -3.98916 0
M  V30 1701 H 158.873 -0.285013 -4.14922 0
M  V30 1702 H 157.45 1.40881 -3.45264 0
M  V30 1703 N 159.635 1.57281 -0.100228 0
M  V30 1704 C 160.883 1.94153 0.561157 0
M  V30 1705 C 161.204 0.983157 1.68401 0
M  V30 1706 O 160.474 0.0361132 1.95867 0
M  V30 1707 H 159.054 0.716791 0.210283 0
M  V30 1708 H 161.716 1.94202 -0.164765 0
M  V30 1709 H 160.812 2.96709 0.968008 0
M  V30 1710 N 161.113 -0.173488 1.56642 0
M  V30 1711 C 162.043 -1.2171 1.99271 0
M  V30 1712 C 163.024 -1.46289 0.867959 0
M  V30 1713 O 164.209 -1.5766 1.13388 0
M  V30 1714 C 161.339 -2.55651 2.35074 0
M  V30 1715 C 160.293 -2.45645 3.50489 0
M  V30 1716 C 159.619 -3.84056 3.72028 0
M  V30 1717 C 160.919 -1.96302 4.84007 0
M  V30 1718 H 162.613 -0.86275 2.867 0
M  V30 1719 H 160.159 -0.413571 1.37933 0
M  V30 1720 H 162.112 -3.2886 2.63494 0
M  V30 1721 H 160.836 -2.92869 1.44552 0
M  V30 1722 H 159.495 -1.7489 3.22194 0
M  V30 1723 H 159.143 -4.18664 2.788 0
M  V30 1724 H 158.843 -3.7823 4.49684 0
M  V30 1725 H 160.367 -4.58854 4.02846 0
M  V30 1726 H 161.781 -2.59284 5.11317 0
M  V30 1727 H 160.178 -2.01429 5.65284 0
M  V30 1728 H 161.248 -0.917226 4.76146 0
M  V30 1729 N 162.591 -1.51276 -0.441967 0
M  V30 1730 C 163.523 -1.68444 -1.55433 0
M  V30 1731 C 164.536 -0.565187 -1.52674 0
M  V30 1732 O 165.725 -0.839356 -1.57534 0
M  V30 1733 C 162.825 -1.67966 -2.94348 0
M  V30 1734 C 161.998 -2.964 -3.21661 0
M  V30 1735 C 161.057 -2.88171 -4.40277 0
M  V30 1736 O 160.083 -3.62119 -4.39157 0
M  V30 1737 N 161.285 -2.03706 -5.43584 0
M  V30 1738 H 164.05 -2.644 -1.41112 0
M  V30 1739 H 161.611 -1.49104 -0.630838 0
M  V30 1740 H 163.603 -1.60035 -3.71713 0
M  V30 1741 H 162.173 -0.796225 -3.0229 0
M  V30 1742 H 161.393 -3.18234 -2.32638 0
M  V30 1743 H 162.681 -3.81427 -3.36736 0
M  V30 1744 H 162.079 -1.42995 -5.47329 0
M  V30 1745 H 160.636 -2.01658 -6.1982 0
M  V30 1746 N 164.069 0.697108 -1.41344 0
M  V30 1747 C 165.299 1.48377 -1.43763 0
M  V30 1748 C 165.707 1.89156 -0.0408726 0
M  V30 1749 O 165.05 1.57239 0.949812 0
M  V30 1750 C 165.112 2.7781 -2.2817 0
M  V30 1751 C 164.776 2.59244 -3.76353 0
M  V30 1752 C 165.773 2.25292 -4.68551 0
M  V30 1753 C 163.458 2.74933 -4.20378 0
M  V30 1754 C 165.452 2.07264 -6.02761 0
M  V30 1755 C 163.139 2.56521 -5.54653 0
M  V30 1756 C 164.137 2.22737 -6.4566 0
M  V30 1757 O 163.825 2.04485 -7.77458 0
M  V30 1758 H 163.557 0.463842 -0.491759 0
M  V30 1759 H 166.111 0.865934 -1.86255 0
M  V30 1760 H 164.341 3.41995 -1.8049 0
M  V30 1761 H 166.03 3.39608 -2.22309 0
M  V30 1762 H 166.796 2.12787 -4.35829 0
M  V30 1763 H 162.675 3.00213 -3.49848 0
M  V30 1764 H 166.219 1.80817 -6.73759 0
M  V30 1765 H 162.116 2.68616 -5.86955 0
M  V30 1766 H 162.884 2.1926 -7.88586 0
M  V30 1767 N 165.547 1.27147 0.931209 0
M  V30 1768 C 166.477 1.12081 2.04842 0
M  V30 1769 C 167.458 0.0232364 1.70084 0
M  V30 1770 O 168.643 0.197085 1.93197 0
M  V30 1771 C 165.773 0.76354 3.38803 0
M  V30 1772 C 164.727 1.81396 3.87659 0
M  V30 1773 C 164.053 1.31075 5.18385 0
M  V30 1774 C 165.353 3.21739 4.11438 0
M  V30 1775 H 167.047 2.05537 2.17703 0
M  V30 1776 H 164.593 0.989603 1.04608 0
M  V30 1777 H 166.546 0.644982 4.16435 0
M  V30 1778 H 165.27 -0.206727 3.25945 0
M  V30 1779 H 163.929 1.92136 3.12217 0
M  V30 1780 H 163.577 0.330037 5.01916 0
M  V30 1781 H 163.277 2.013 5.52044 0
M  V30 1782 H 164.801 1.20506 5.98591 0
M  V30 1783 H 166.215 3.14019 4.79651 0
M  V30 1784 H 164.612 3.89644 4.56397 0
M  V30 1785 H 165.682 3.67054 3.16859 0
M  V30 1786 N 167.025 -1.13721 1.09112 0
M  V30 1787 C 167.935 -2.22638 0.73957 0
M  V30 1788 C 168.951 -1.72091 -0.257068 0
M  V30 1789 O 170.127 -2.01155 -0.0992154 0
M  V30 1790 C 167.192 -3.46322 0.16191 0
M  V30 1791 C 166.253 -4.11775 1.21408 0
M  V30 1792 C 165.486 -5.29555 0.663891 0
M  V30 1793 O 165.709 -5.68077 -0.514274 0
M  V30 1794 O 164.643 -5.84973 1.41738 0
M  V30 1795 H 168.469 -2.55074 1.64836 0
M  V30 1796 H 166.054 -1.21791 0.865289 0
M  V30 1797 H 167.936 -4.21107 -0.157073 0
M  V30 1798 H 166.611 -3.15593 -0.719932 0
M  V30 1799 H 165.518 -3.3883 1.58571 0
M  V30 1800 H 166.851 -4.46627 2.06845 0
M  V30 1801 N 168.503 -0.877838 -1.30888 0
M  V30 1802 C 169.413 -0.343096 -2.32078 0
M  V30 1803 C 170.429 0.551022 -1.65045 0
M  V30 1804 O 171.605 0.445854 -1.96403 0
M  V30 1805 C 168.67 0.439905 -3.43898 0
M  V30 1806 C 167.731 -0.483111 -4.26573 0
M  V30 1807 C 166.964 0.262616 -5.33053 0
M  V30 1808 O 167.187 1.48967 -5.50604 0
M  V30 1809 O 166.121 -0.383593 -6.00676 0
M  V30 1810 H 169.947 -1.18203 -2.79753 0
M  V30 1811 H 167.532 -0.64145 -1.34929 0
M  V30 1812 H 169.414 0.883504 -4.12034 0
M  V30 1813 H 168.089 1.25526 -2.98371 0
M  V30 1814 H 166.996 -0.975374 -3.61161 0
M  V30 1815 H 168.329 -1.26427 -4.75686 0
M  V30 1816 N 169.982 1.44106 -0.638065 0
M  V30 1817 C 170.945 2.29138 0.0531013 0
M  V30 1818 C 171.945 1.41409 0.765506 0
M  V30 1819 O 173.135 1.63206 0.609046 0
M  V30 1820 C 170.267 3.23144 1.08584 0
M  V30 1821 H 171.46 2.91739 -0.694883 0
M  V30 1822 H 169.013 1.51134 -0.398538 0
M  V30 1823 H 169.748 2.65408 1.86357 0
M  V30 1824 H 169.533 3.87804 0.578852 0
M  V30 1825 H 171.023 3.87004 1.56899 0
M  V30 1826 N 171.46 0.379036 1.52974 0
M  V30 1827 C 172.871 -0.0972525 1.86447 0
M  V30 1828 C 173.222 -1.47027 1.29914 0
M  V30 1829 O 172.347 -2.07135 0.626433 0
M  V30 1830 C 172.942 -0.183248 3.38304 0
M  V30 1831 C 171.501 -0.603812 3.71525 0
M  V30 1832 C 170.648 0.240632 2.76254 0
M  V30 1833 H 173.599 0.597316 1.4703 0
M  V30 1834 H 173.62 -1.00432 3.67006 0
M  V30 1835 H 173.132 0.816191 3.79421 0
M  V30 1836 H 171.233 -1.61099 3.35973 0
M  V30 1837 H 171.346 -0.369086 4.77676 0
M  V30 1838 H 169.71 -0.292548 2.53014 0
M  V30 1839 H 170.493 1.23786 3.20206 0
M  V30 1840 N 172.938 -1.57226 0.108567 0
M  V30 1841 C 173.885 -2.14756 -0.845481 0
M  V30 1842 C 174.855 -1.06971 -1.27068 0
M  V30 1843 O 176.04 -1.34827 -1.35005 0
M  V30 1844 C 173.18 -2.74298 -2.09415 0
M  V30 1845 C 172.293 -3.96358 -1.71826 0
M  V30 1846 C 171.428 -4.44021 -2.9158 0
M  V30 1847 C 170.467 -5.58637 -2.50181 0
M  V30 1848 N 169.604 -6.01091 -3.62814 0
M  V30 1849 H 174.444 -2.95961 -0.348035 0
M  V30 1850 H 171.981 -1.46226 -0.160106 0
M  V30 1851 H 173.939 -3.06945 -2.82561 0
M  V30 1852 H 172.569 -1.95801 -2.56636 0
M  V30 1853 H 171.621 -3.69939 -0.885947 0
M  V30 1854 H 172.933 -4.79504 -1.37394 0
M  V30 1855 H 172.087 -4.78522 -3.72963 0
M  V30 1856 H 170.826 -3.59803 -3.29231 0
M  V30 1857 H 169.831 -5.23751 -1.67228 0
M  V30 1858 H 171.056 -6.44613 -2.13659 0
M  V30 1859 H 169.002 -5.19817 -4.00158 0
M  V30 1860 H 168.919 -6.79066 -3.32273 0
M  V30 1861 H 170.187 -6.40227 -4.44668 0
M  V30 1862 N 174.416 0.165178 -1.56732 0
M  V30 1863 C 175.663 0.880807 -1.8234 0
M  V30 1864 C 175.991 1.81977 -0.686621 0
M  V30 1865 O 175.246 1.92971 0.325697 0
M  V30 1866 C 175.545 1.70405 -3.1416 0
M  V30 1867 C 175.211 0.913475 -4.4155 0
M  V30 1868 C 173.873 0.695303 -4.7615 0
M  V30 1869 C 176.225 0.359349 -5.1996 0
M  V30 1870 C 173.553 -0.0879947 -5.86634 0
M  V30 1871 C 175.905 -0.410893 -6.31264 0
M  V30 1872 C 174.569 -0.639808 -6.64427 0
M  V30 1873 H 173.839 0.32231 -0.667231 0
M  V30 1874 H 176.486 0.145402 -1.90947 0
M  V30 1875 H 174.791 2.50903 -3.00923 0
M  V30 1876 H 176.488 2.26091 -3.31186 0
M  V30 1877 H 173.078 1.09357 -4.14414 0
M  V30 1878 H 177.262 0.515228 -4.93618 0
M  V30 1879 H 172.518 -0.27503 -6.10781 0
M  V30 1880 H 176.692 -0.847494 -6.91224 0
M  V30 1881 H 174.319 -1.24864 -7.49875 0
M  V30 1882 N 175.894 1.51508 0.433938 0
M  V30 1883 C 176.824 1.76016 1.53429 0
M  V30 1884 C 177.805 0.610112 1.58782 0
M  V30 1885 O 178.99 0.853177 1.74455 0
M  V30 1886 C 176.12 1.88831 2.9148 0
M  V30 1887 C 175.074 3.04288 3.00987 0
M  V30 1888 C 174.4 3.0229 4.4105 0
M  V30 1889 C 175.7 4.44193 2.74754 0
M  V30 1890 H 177.394 2.68152 1.33171 0
M  V30 1891 H 174.94 1.29035 0.639214 0
M  V30 1892 H 176.893 2.04559 3.6842 0
M  V30 1893 H 175.617 0.933455 3.12976 0
M  V30 1894 H 174.276 2.8827 2.26486 0
M  V30 1895 H 173.924 2.04576 4.59519 0
M  V30 1896 H 173.624 3.79822 4.4834 0
M  V30 1897 H 175.148 3.20116 5.1996 0
M  V30 1898 H 176.562 4.60544 3.41426 0
M  V30 1899 H 174.959 5.23457 2.9345 0
M  V30 1900 H 176.029 4.53996 1.70339 0
M  V30 1901 N 177.372 -0.689602 1.41712 0
M  V30 1902 C 178.335 -1.78521 1.43746 0
M  V30 1903 C 179.335 -1.57436 0.327191 0
M  V30 1904 O 180.525 -1.64 0.587348 0
M  V30 1905 C 177.657 -3.16971 1.25467 0
M  V30 1906 H 178.85 -1.78108 2.41283 0
M  V30 1907 H 176.403 -0.89781 1.27942 0
M  V30 1908 H 177.138 -3.23019 0.287948 0
M  V30 1909 H 176.923 -3.33678 2.05917 0
M  V30 1910 H 178.413 -3.96935 1.2974 0
M  V30 1911 N 178.85 -1.27639 -0.924453 0
M  V30 1912 C 180.097 -1.14167 -1.67249 0
M  V30 1913 C 180.425 0.311863 -1.91984 0
M  V30 1914 O 179.68 1.24425 -1.51053 0
M  V30 1915 C 179.979 -1.87407 -3.04325 0
M  V30 1916 C 179.645 -3.37249 -2.99289 0
M  V30 1917 C 178.307 -3.7812 -2.97622 0
M  V30 1918 C 180.659 -4.32845 -2.90336 0
M  V30 1919 C 177.987 -5.12944 -2.8479 0
M  V30 1920 C 180.339 -5.6773 -2.79045 0
M  V30 1921 C 179.003 -6.07889 -2.7573 0
M  V30 1922 H 178.273 -0.417766 -0.612007 0
M  V30 1923 H 180.92 -1.58286 -1.07786 0
M  V30 1924 H 179.225 -1.35805 -3.67511 0
M  V30 1925 H 180.922 -1.74408 -3.61086 0
M  V30 1926 H 177.512 -3.04748 -3.01374 0
M  V30 1927 H 181.696 -4.02239 -2.90719 0
M  V30 1928 H 176.952 -5.432 -2.80612 0
M  V30 1929 H 181.126 -6.41472 -2.71083 0
M  V30 1930 H 178.753 -7.12314 -2.65544 0
M  V30 1931 N 180.328 1.1314 -1.09713 0
M  V30 1932 C 181.556 1.88321 -0.856898 0
M  V30 1933 C 181.971 1.79276 0.592073 0
M  V30 1934 O 181.328 1.16142 1.40774 0
M  V30 1935 C 181.379 3.37812 -1.28706 0
M  V30 1936 O 181.1 3.46627 -2.67921 0
M  V30 1937 C 182.601 4.29952 -1.07964 0
M  V30 1938 H 179.821 0.596094 -0.308079 0
M  V30 1939 H 182.365 1.43205 -1.45988 0
M  V30 1940 H 180.52 3.805 -0.727912 0
M  V30 1941 H 180.934 4.39579 -2.8613 0
M  V30 1942 H 182.408 5.33159 -1.42986 0
M  V30 1943 H 182.885 4.39196 -0.0176577 0
M  V30 1944 H 183.491 3.93036 -1.62489 0
M  V30 1945 N 181.806 0.884767 1.30421 0
M  V30 1946 C 183.046 0.509806 1.9794 0
M  V30 1947 C 183.41 -0.923736 1.68319 0
M  V30 1948 O 184.611 -1.40481 2.29169 0
M  V30 1949 C 182.882 0.776732 3.48858 0
M  V30 1950 S 184.441 0.503843 4.35898 0
M  V30 1951 H 181.259 0.189699 0.685227 0
M  V30 1952 H 183.861 1.14399 1.58535 0
M  V30 1953 H 182.565 1.81857 3.67908 0
M  V30 1954 H 182.096 0.1301 3.93185 0
M  V30 1955 H 184.111 -0.657625 4.91823 0
M  V30 1956 N 183.284 -1.43765 0.645699 0
M  V30 1957 C 184.532 -2.01499 0.155731 0
M  V30 1958 C 184.853 -1.51151 -1.232 0
M  V30 1959 O 184.123 -0.721044 -1.82148 0
M  V30 1960 H 182.703 -0.745003 0.0545817 0
M  V30 1961 H 185.365 -1.76075 0.835677 0
M  V30 1962 H 184.461 -3.1181 0.134577 0
M  V30 1963 N 184.763 -0.387143 -1.52771 0
M  V30 1964 C 185.693 0.440551 -2.29306 0
M  V30 1965 C 186.674 1.06535 -1.32606 0
M  V30 1966 O 187.859 1.07853 -1.61497 0
M  V30 1967 C 184.989 1.56919 -3.09829 0
M  V30 1968 C 183.943 1.07054 -4.14395 0
M  V30 1969 C 183.269 2.29109 -4.83129 0
M  V30 1970 C 184.569 0.140015 -5.22112 0
M  V30 1971 H 186.263 -0.198026 -2.98744 0
M  V30 1972 H 183.809 -0.09668 -1.43675 0
M  V30 1973 H 185.762 2.15503 -3.62128 0
M  V30 1974 H 184.486 2.23532 -2.3812 0
M  V30 1975 H 183.145 0.507247 -3.63074 0
M  V30 1976 H 182.793 2.94227 -4.0797 0
M  V30 1977 H 182.493 1.96406 -5.53804 0
M  V30 1978 H 184.017 2.88339 -5.38231 0
M  V30 1979 H 185.431 0.633978 -5.69784 0
M  V30 1980 H 183.828 -0.0971485 -6.00021 0
M  V30 1981 H 184.898 -0.811711 -4.78058 0
M  V30 1982 N 186.241 1.57166 -0.116904 0
M  V30 1983 C 187.171 2.18222 0.830759 0
M  V30 1984 C 188.152 1.12167 1.27877 0
M  V30 1985 O 189.337 1.40394 1.34176 0
M  V30 1986 C 186.467 2.77996 2.08172 0
M  V30 1987 C 185.421 3.89614 1.77157 0
M  V30 1988 C 184.747 4.36187 3.09265 0
M  V30 1989 C 186.047 5.1181 1.04151 0
M  V30 1990 H 187.741 2.97664 0.321992 0
M  V30 1991 H 185.287 1.4318 0.153434 0
M  V30 1992 H 187.24 3.19366 2.74924 0
M  V30 1993 H 185.964 1.9584 2.6137 0
M  V30 1994 H 184.623 3.48816 1.12796 0
M  V30 1995 H 184.271 3.50893 3.60393 0
M  V30 1996 H 183.971 5.11455 2.89288 0
M  V30 1997 H 185.495 4.80207 3.77139 0
M  V30 1998 H 186.909 5.50214 1.61052 0
M  V30 1999 H 185.306 5.92648 0.942762 0
M  V30 2000 H 186.376 4.84892 0.0279022 0
M  V30 2001 N 187.719 -0.156864 1.56817 0
M  V30 2002 C 189.135 -0.50916 1.5126 0
M  V30 2003 C 189.335 -1.83897 0.823658 0
M  V30 2004 O 188.391 -2.49469 0.390055 0
M  V30 2005 C 189.704 -0.52857 2.96018 0
M  V30 2006 C 191.252 -0.614771 3.06903 0
M  V30 2007 C 191.727 -0.664938 4.53147 0
M  V30 2008 N 193.218 -0.727433 4.57452 0
M  V30 2009 C 193.953 -0.787067 5.67973 0
M  V30 2010 N 193.449 -0.806649 6.88088 0
M  V30 2011 N 195.242 -0.827195 5.5598 0
M  V30 2012 H 187.393 0.714935 2.00006 0
M  V30 2013 H 189.656 0.259526 0.911784 0
M  V30 2014 H 189.362 0.380154 3.49639 0
M  V30 2015 H 189.236 -1.36998 3.51442 0
M  V30 2016 H 191.623 -1.51392 2.53307 0
M  V30 2017 H 191.704 0.253597 2.5454 0
M  V30 2018 H 191.348 0.230011 5.07379 0
M  V30 2019 H 191.278 -1.54966 5.03282 0
M  V30 2020 H 193.769 -0.719998 3.70978 0
M  V30 2021 H 194.082 -0.853727 7.6807 0
M  V30 2022 H 192.427 -0.774687 6.90669 0
M  V30 2023 H 195.618 -0.808998 4.61056 0
M  V30 2024 H 195.791 -0.870206 6.4213 0
M  V30 2025 N 189.197 -1.51736 -0.425897 0
M  V30 2026 C 190.445 -1.64644 -1.17204 0
M  V30 2027 C 190.766 -0.370486 -1.91448 0
M  V30 2028 O 190.036 0.614088 -1.86026 0
M  V30 2029 H 188.616 -0.606819 -0.435638 0
M  V30 2030 H 191.278 -1.88713 -0.487177 0
M  V30 2031 H 190.374 -2.47958 -1.89534 0
M  V30 2032 N 190.675 0.682077 -1.42076 0
M  V30 2033 C 191.638 1.77756 -1.44691 0
M  V30 2034 C 192.638 1.5726 -0.335535 0
M  V30 2035 O 193.828 1.63686 -0.596037 0
M  V30 2036 C 190.96 3.16301 -1.27146 0
M  V30 2037 H 192.153 1.76826 -2.42224 0
M  V30 2038 H 189.706 0.891012 -1.28416 0
M  V30 2039 H 190.441 3.22862 -0.305075 0
M  V30 2040 H 190.226 3.32581 -2.07683 0
M  V30 2041 H 191.716 3.96241 -1.31843 0
M  V30 2042 N 192.153 1.28127 0.917671 0
M  V30 2043 C 193.083 1.14248 2.03641 0
M  V30 2044 C 194.064 0.0412748 1.7005 0
M  V30 2045 O 195.249 0.217566 1.92977 0
M  V30 2046 C 192.379 0.799431 3.37974 0
M  V30 2047 C 191.333 1.85497 3.85713 0
M  V30 2048 C 190.659 1.36565 5.16966 0
M  V30 2049 C 191.959 3.26085 4.08002 0
M  V30 2050 H 193.653 2.07835 2.15511 0
M  V30 2051 H 191.199 1.00064 1.03553 0
M  V30 2052 H 193.152 0.689114 4.15727 0
M  V30 2053 H 191.876 -0.172145 3.26146 0
M  V30 2054 H 190.535 1.95437 3.10161 0
M  V30 2055 H 190.183 0.383253 5.01538 0
M  V30 2056 H 189.883 2.07143 5.49878 0
M  V30 2057 H 191.407 1.26848 5.97279 0
M  V30 2058 H 192.821 3.19089 4.76293 0
M  V30 2059 H 191.218 3.94462 4.52238 0
M  V30 2060 H 192.288 3.70394 3.12948 0
M  V30 2061 N 193.631 -1.12557 1.10312 0
M  V30 2062 C 194.861 -1.87592 0.865617 0
M  V30 2063 C 195.269 -1.79851 -0.587389 0
M  V30 2064 O 194.612 -1.16949 -1.41664 0
M  V30 2065 C 194.674 -3.37665 1.23381 0
M  V30 2066 C 194.338 -3.69181 2.69359 0
M  V30 2067 C 195.335 -3.67652 3.67597 0
M  V30 2068 C 193.02 -3.98555 3.05711 0
M  V30 2069 C 195.014 -3.95053 5.00212 0
M  V30 2070 C 192.701 -4.25616 4.38514 0
M  V30 2071 C 193.699 -4.23851 5.35574 0
M  V30 2072 O 193.387 -4.50242 6.65986 0
M  V30 2073 H 193.119 -0.600442 0.310557 0
M  V30 2074 H 195.673 -1.4335 1.47105 0
M  V30 2075 H 193.903 -3.82454 0.571467 0
M  V30 2076 H 195.592 -3.94041 0.973994 0
M  V30 2077 H 196.358 -3.45024 3.40857 0
M  V30 2078 H 192.237 -3.99071 2.30789 0
M  V30 2079 H 195.781 -3.93591 5.75962 0
M  V30 2080 H 191.678 -4.47718 4.64994 0
M  V30 2081 H 192.446 -4.67867 6.71597 0
M  V30 2082 N 195.109 -0.891671 -1.2995 0
M  V30 2083 C 196.337 -0.52866 -2.00032 0
M  V30 2084 C 196.752 0.884574 -1.66795 0
M  V30 2085 O 196.109 1.5827 -0.908669 0
M  V30 2086 C 196.16 -0.701814 -3.54622 0
M  V30 2087 O 195.881 -2.05942 -3.86678 0
M  V30 2088 C 197.382 -0.342683 -4.41973 0
M  V30 2089 H 194.602 -0.203659 -0.639347 0
M  V30 2090 H 197.146 -1.19881 -1.65677 0
M  V30 2091 H 195.301 -0.0789468 -3.8732 0
M  V30 2092 H 195.715 -2.08291 -4.81368 0
M  V30 2093 H 197.189 -0.514709 -5.49595 0
M  V30 2094 H 197.666 0.71975 -4.33262 0
M  V30 2095 H 198.272 -0.942154 -4.14733 0
M  V30 2096 N 196.587 1.43421 -0.653314 0
M  V30 2097 C 197.517 2.33487 0.0246656 0
M  V30 2098 C 198.498 1.49475 0.811863 0
M  V30 2099 O 199.683 1.78139 0.773322 0
M  V30 2100 C 196.813 3.32841 0.99166 0
M  V30 2101 C 195.767 4.26842 0.314568 0
M  V30 2102 C 195.093 5.16236 1.39302 0
M  V30 2103 C 196.393 5.16243 -0.793095 0
M  V30 2104 H 198.087 2.90427 -0.727481 0
M  V30 2105 H 195.633 1.39649 -0.351287 0
M  V30 2106 H 197.586 3.94747 1.47487 0
M  V30 2107 H 196.31 2.74158 1.77497 0
M  V30 2108 H 194.969 3.663 -0.148199 0
M  V30 2109 H 194.617 4.53891 2.16776 0
M  V30 2110 H 194.317 5.79948 0.945223 0
M  V30 2111 H 195.841 5.81015 1.87759 0
M  V30 2112 H 197.255 5.71958 -0.392039 0
M  V30 2113 H 195.652 5.88676 -1.16536 0
M  V30 2114 H 196.722 4.55927 -1.65103 0
M  V30 2115 N 198.065 0.39524 1.52563 0
M  V30 2116 C 199.313 -0.184678 2.01254 0
M  V30 2117 C 199.634 -1.46822 1.28329 0
M  V30 2118 O 198.904 -1.91666 0.405094 0
M  V30 2119 H 197.484 -0.0712355 0.743596 0
M  V30 2120 H 200.146 0.528293 1.87603 0
M  V30 2121 H 199.242 -0.390681 3.09645 0
M  V30 2122 N 199.544 -1.57102 0.125237 0
M  V30 2123 C 200.793 -1.94582 -0.531095 0
M  V30 2124 C 201.106 -1.01126 -1.6743 0
M  V30 2125 O 202.312 -1.28097 -2.39381 0
M  V30 2126 C 200.768 -3.45839 -0.996164 0
M  V30 2127 C 200.376 -4.47842 0.118926 0
M  V30 2128 C 202.12 -3.92227 -1.62352 0
M  V30 2129 C 200.027 -5.90284 -0.363192 0
M  V30 2130 H 198.957 -0.726391 -0.20217 0
M  V30 2131 H 201.608 -1.82339 0.206092 0
M  V30 2132 H 199.99 -3.53338 -1.78796 0
M  V30 2133 H 201.164 -4.52018 0.895358 0
M  V30 2134 H 199.479 -4.11243 0.653324 0
M  V30 2135 H 202.076 -4.96069 -1.99548 0
M  V30 2136 H 202.419 -3.32552 -2.50429 0
M  V30 2137 H 202.952 -3.87554 -0.897019 0
M  V30 2138 H 199.691 -6.53728 0.481679 0
M  V30 2139 H 199.211 -5.89515 -1.10597 0
M  V30 2140 H 200.89 -6.41752 -0.822377 0
M  V30 2141 N 201.022 0.148545 -1.56898 0
M  V30 2142 C 201.932 1.20293 -2.01412 0
M  V30 2143 C 202.948 1.47107 -0.929273 0
M  V30 2144 O 204.124 1.58807 -1.23863 0
M  V30 2145 C 201.189 2.51682 -2.38447 0
M  V30 2146 C 200.25 2.32529 -3.60872 0
M  V30 2147 C 199.483 3.57653 -3.96132 0
M  V30 2148 O 199.706 4.63771 -3.32073 0
M  V30 2149 O 198.64 3.50408 -4.89385 0
M  V30 2150 H 202.466 0.855025 -2.91416 0
M  V30 2151 H 200.051 0.357151 -1.45068 0
M  V30 2152 H 201.933 3.29147 -2.63135 0
M  V30 2153 H 200.608 2.86006 -1.51599 0
M  V30 2154 H 199.515 1.53019 -3.41373 0
M  V30 2155 H 200.848 2.03121 -4.48333 0
M  V30 2156 N 202.5 1.5196 0.417844 0
M  V30 2157 C 203.725 1.69717 1.1921 0
M  V30 2158 C 204.15 0.402148 1.83751 0
M  V30 2159 O 203.508 -0.639593 1.69643 0
M  V30 2160 C 203.556 2.82794 2.2374 0
M  V30 2161 O 202.66 2.47756 3.29683 0
M  V30 2162 H 202.001 0.565263 0.348387 0
M  V30 2163 H 204.531 1.98621 0.490985 0
M  V30 2164 H 204.541 3.07452 2.68212 0
M  V30 2165 H 203.216 3.76756 1.76146 0
M  V30 2166 H 201.793 2.33739 2.90552 0
M  V30 2167 N 203.978 -0.674533 1.42435 0
M  V30 2168 C 205.224 -1.43671 1.43131 0
M  V30 2169 C 205.557 -1.94142 0.0476021 0
M  V30 2170 O 204.832 -1.70924 -0.928188 0
M  V30 2171 C 205.115 -2.63355 2.45594 0
M  V30 2172 C 204.968 -2.18514 3.93156 0
M  V30 2173 C 206.287 -3.65571 2.45043 0
M  V30 2174 H 203.406 -0.521077 0.521198 0
M  V30 2175 H 206.048 -0.766551 1.7385 0
M  V30 2176 H 204.198 -3.2053 2.19528 0
M  V30 2177 H 205.87 -1.66504 4.30202 0
M  V30 2178 H 204.113 -1.50086 4.07009 0
M  V30 2179 H 204.784 -3.04484 4.60428 0
M  V30 2180 H 207.26 -3.18113 2.68223 0
M  V30 2181 H 206.136 -4.46893 3.18713 0
M  V30 2182 H 206.397 -4.16716 1.47649 0
M  V30 2183 N 205.456 -1.28612 -0.910864 0
M  V30 2184 C 206.702 -1.16106 -1.66274 0
M  V30 2185 C 207.035 0.289113 -1.92036 0
M  V30 2186 O 206.31 1.21 -1.52281 0
M  V30 2187 C 206.593 -1.96309 -3.01885 0
M  V30 2188 C 206.446 -3.49405 -2.8326 0
M  V30 2189 C 207.765 -1.78076 -4.02463 0
M  V30 2190 H 204.884 -0.423152 -0.603417 0
M  V30 2191 H 207.526 -1.57961 -1.05586 0
M  V30 2192 H 205.676 -1.60742 -3.53687 0
M  V30 2193 H 207.348 -3.94894 -2.38446 0
M  V30 2194 H 205.591 -3.74893 -2.18261 0
M  V30 2195 H 206.262 -4.00784 -3.79574 0
M  V30 2196 H 208.738 -2.0912 -3.59733 0
M  V30 2197 H 207.614 -2.36561 -4.95308 0
M  V30 2198 H 207.875 -0.733008 -4.35981 0
M  V30 2199 N 206.934 1.1197 -1.10907 0
M  V30 2200 C 208.162 1.87402 -0.876824 0
M  V30 2201 C 208.577 1.79894 0.573025 0
M  V30 2202 O 207.934 1.17629 1.39534 0
M  V30 2203 C 207.985 3.36428 -1.32282 0
M  V30 2204 O 207.706 3.43765 -2.71582 0
M  V30 2205 C 209.207 4.28783 -1.12518 0
M  V30 2206 H 206.427 0.592793 -0.314384 0
M  V30 2207 H 208.971 1.41649 -1.47499 0
M  V30 2208 H 207.126 3.79706 -0.768229 0
M  V30 2209 H 207.54 4.3652 -2.90776 0
M  V30 2210 H 209.014 5.31613 -1.48633 0
M  V30 2211 H 209.491 4.39153 -0.0642394 0
M  V30 2212 H 210.097 3.91291 -1.66648 0
M  V30 2213 N 208.412 0.89855 1.29475 0
M  V30 2214 C 209.375 0.380272 2.26023 0
M  V30 2215 C 210.375 -0.484891 1.53315 0
M  V30 2216 O 211.565 -0.290108 1.71767 0
M  V30 2217 C 208.697 -0.45651 3.3783 0
M  V30 2218 H 209.89 1.23295 2.73383 0
M  V30 2219 H 207.443 0.676589 1.40897 0
M  V30 2220 H 208.178 -1.32922 2.95808 0
M  V30 2221 H 207.963 0.163393 3.91759 0
M  V30 2222 H 209.453 -0.810466 4.0966 0
M  V30 2223 N 209.89 -1.43072 0.660911 0
M  V30 2224 C 211.115 -2.06584 0.183805 0
M  V30 2225 C 211.54 -1.49257 -1.14472 0
M  V30 2226 O 210.898 -0.605528 -1.70889 0
M  V30 2227 C 210.946 -3.60418 0.114434 0
M  V30 2228 O 210.05 -4.01981 -0.921137 0
M  V30 2229 H 209.391 -0.656669 0.0983994 0
M  V30 2230 H 211.921 -1.83447 0.906006 0
M  V30 2231 H 211.931 -4.07946 -0.0663394 0
M  V30 2232 H 210.606 -4.01519 1.08422 0
M  V30 2233 H 209.183 -3.66029 -0.71253 0
M  V30 2234 N 211.368 -0.403325 -1.52352 0
M  V30 2235 C 212.614 0.174605 -2.02047 0
M  V30 2236 C 212.947 1.45282 -1.28867 0
M  V30 2237 O 212.222 1.90483 -0.393257 0
M  V30 2238 C 212.505 0.428238 -3.57545 0
M  V30 2239 C 212.358 -0.866248 -4.4138 0
M  V30 2240 C 213.677 1.21287 -4.23057 0
M  V30 2241 H 210.796 0.0619851 -0.734389 0
M  V30 2242 H 213.438 -0.53565 -1.82293 0
M  V30 2243 H 211.588 1.03327 -3.74507 0
M  V30 2244 H 213.26 -1.50265 -4.3614 0
M  V30 2245 H 211.503 -1.47851 -4.07827 0
M  V30 2246 H 212.174 -0.643249 -5.48239 0
M  V30 2247 H 214.65 0.700703 -4.10158 0
M  V30 2248 H 213.526 1.35909 -5.31808 0
M  V30 2249 H 213.787 2.23193 -3.81625 0
M  V30 2250 N 212.846 1.57033 -0.133567 0
M  V30 2251 C 213.809 2.14897 0.796995 0
M  V30 2252 C 214.809 1.0874 1.18458 0
M  V30 2253 O 215.999 1.34446 1.1077 0
M  V30 2254 C 213.131 2.70112 2.07973 0
M  V30 2255 H 214.324 2.98457 0.293873 0
M  V30 2256 H 211.877 1.55871 0.115787 0
M  V30 2257 H 212.612 1.9018 2.62682 0
M  V30 2258 H 212.397 3.47764 1.81115 0
M  V30 2259 H 213.887 3.14738 2.74462 0
M  V30 2260 N 214.325 -0.140222 1.56975 0
M  V30 2261 C 215.288 -1.15689 1.97861 0
M  V30 2262 C 216.288 -1.3549 0.865974 0
M  V30 2263 O 217.478 -1.32367 1.13246 0
M  V30 2264 C 214.61 -2.51582 2.30042 0
M  V30 2265 H 215.803 -0.805971 2.88867 0
M  V30 2266 H 213.356 -0.383801 1.51515 0
M  V30 2267 H 214.091 -2.91632 1.41849 0
M  V30 2268 H 213.876 -2.38569 3.11171 0
M  V30 2269 H 215.366 -3.24792 2.62488 0
M  V30 2270 N 215.803 -1.52179 -0.40978 0
M  V30 2271 C 216.733 -1.78435 -1.5061 0
M  V30 2272 C 217.714 -0.635295 -1.57791 0
M  V30 2273 O 218.899 -0.880823 -1.73076 0
M  V30 2274 C 216.029 -1.93444 -2.88439 0
M  V30 2275 C 214.983 -3.09038 -2.96108 0
M  V30 2276 C 214.309 -3.09268 -4.36185 0
M  V30 2277 C 215.609 -4.48508 -2.67652 0
M  V30 2278 H 217.303 -2.70237 -1.28889 0
M  V30 2279 H 214.849 -1.30036 -0.618605 0
M  V30 2280 H 216.802 -2.10394 -3.65119 0
M  V30 2281 H 215.526 -0.983129 -3.11452 0
M  V30 2282 H 214.185 -2.91837 -2.21872 0
M  V30 2283 H 213.833 -2.11861 -4.56206 0
M  V30 2284 H 213.533 -3.86907 -4.42241 0
M  V30 2285 H 215.057 -3.28348 -5.14801 0
M  V30 2286 H 216.471 -4.65918 -3.34056 0
M  V30 2287 H 214.868 -5.28059 -2.85085 0
M  V30 2288 H 215.938 -4.56649 -1.63095 0
M  V30 2289 N 217.281 0.66697 -1.42791 0
M  V30 2290 C 218.692 1.2478 -1.38877 0
M  V30 2291 C 219.043 1.96012 -0.0859426 0
M  V30 2292 O 218.168 2.00463 0.815081 0
M  V30 2293 C 218.763 2.26938 -2.51564 0
M  V30 2294 C 217.322 2.80529 -2.50959 0
M  V30 2295 C 216.469 1.54965 -2.29959 0
M  V30 2296 H 219.42 0.459853 -1.51892 0
M  V30 2297 H 219.441 3.08834 -2.22265 0
M  V30 2298 H 218.953 1.75065 -3.46372 0
M  V30 2299 H 217.054 3.36502 -1.59991 0
M  V30 2300 H 217.167 3.29012 -3.48265 0
M  V30 2301 H 215.531 1.81817 -1.78366 0
M  V30 2302 H 216.314 1.05047 -3.26833 0
M  V30 2303 N 218.759 1.29093 0.90403 0
M  V30 2304 C 220.005 1.16986 1.65656 0
M  V30 2305 C 220.338 -0.278925 1.92186 0
M  V30 2306 O 219.613 -1.2019 1.5292 0
M  V30 2307 C 219.896 1.97908 3.0084 0
M  V30 2308 C 219.749 3.50903 2.81403 0
M  V30 2309 C 221.068 1.80208 4.01513 0
M  V30 2310 H 218.187 0.426346 0.601164 0
M  V30 2311 H 220.829 1.58518 1.04747 0
M  V30 2312 H 218.979 1.62616 3.52829 0
M  V30 2313 H 220.651 3.96153 2.36348 0
M  V30 2314 H 218.894 3.76045 2.1627 0
M  V30 2315 H 219.565 4.02791 3.77443 0
M  V30 2316 H 222.041 2.11025 3.58619 0
M  V30 2317 H 220.917 2.39184 4.94047 0
M  V30 2318 H 221.178 0.756119 4.35586 0
M  V30 2319 N 220.237 -1.11381 1.11499 0
M  V30 2320 C 221.477 -1.84763 0.874188 0
M  V30 2321 C 221.841 -1.82726 -0.589496 0
M  V30 2322 O 223.042 -2.51562 -0.947089 0
M  V30 2323 C 221.313 -3.27931 1.42112 0
M  V30 2324 S 222.872 -4.18557 1.31739 0
M  V30 2325 H 219.69 -0.637115 0.315603 0
M  V30 2326 H 222.292 -1.34097 1.42261 0
M  V30 2327 H 220.996 -3.26978 2.48019 0
M  V30 2328 H 220.527 -3.83665 0.869761 0
M  V30 2329 H 222.542 -4.95396 0.282335 0
M  V30 2330 N 221.715 -0.905404 -1.28997 0
M  V30 2331 C 222.662 -0.385892 -2.27551 0
M  V30 2332 C 223.632 0.535113 -1.57244 0
M  V30 2333 O 224.817 0.459119 -1.85194 0
M  V30 2334 C 221.957 0.375461 -3.43051 0
M  V30 2335 C 221.07 -0.577092 -4.28128 0
M  V30 2336 C 220.205 0.201879 -5.30816 0
M  V30 2337 C 219.244 -0.744829 -6.07551 0
M  V30 2338 N 218.381 9.42587e-05 -7.021 0
M  V30 2339 H 223.221 -1.23139 -2.71368 0
M  V30 2340 H 220.758 -0.618542 -1.33463 0
M  V30 2341 H 222.716 0.832992 -4.088 0
M  V30 2342 H 221.346 1.18537 -3.00248 0
M  V30 2343 H 220.398 -1.15315 -3.62501 0
M  V30 2344 H 221.71 -1.30152 -4.8152 0
M  V30 2345 H 220.864 0.720351 -6.02408 0
M  V30 2346 H 219.603 0.959413 -4.7817 0
M  V30 2347 H 218.608 -1.27475 -5.34818 0
M  V30 2348 H 219.833 -1.50178 -6.62286 0
M  V30 2349 H 217.779 0.739791 -6.51815 0
M  V30 2350 H 217.696 -0.664321 -7.53076 0
M  V30 2351 H 218.964 0.498644 -7.77903 0
M  V30 2352 N 223.193 1.4272 -0.668489 0
M  V30 2353 C 224.44 2.01624 -0.18814 0
M  V30 2354 C 224.768 1.5282 1.20317 0
M  V30 2355 O 224.023 0.718323 1.8204 0
M  V30 2356 C 224.322 3.57021 -0.164499 0
M  V30 2357 C 223.988 4.25232 -1.49962 0
M  V30 2358 C 222.65 4.4358 -1.8652 0
M  V30 2359 C 225.002 4.63727 -2.37921 0
M  V30 2360 C 222.33 4.97694 -3.10674 0
M  V30 2361 C 224.682 5.19218 -3.6138 0
M  V30 2362 C 223.346 5.3578 -3.98115 0
M  V30 2363 H 222.616 0.737795 -0.0688454 0
M  V30 2364 H 225.263 1.70991 -0.862225 0
M  V30 2365 H 223.568 3.87285 0.593079 0
M  V30 2366 H 225.265 4.00372 0.224271 0
M  V30 2367 H 221.855 4.11306 -1.20522 0
M  V30 2368 H 226.039 4.4923 -2.10964 0
M  V30 2369 H 221.295 5.08702 -3.39164 0
M  V30 2370 H 225.469 5.4799 -4.29743 0
M  V30 2371 H 223.096 5.77475 -4.94395 0
M  V30 2372 N 224.671 0.411399 1.52136 0
M  V30 2373 C 225.603 -0.448386 2.24771 0
M  V30 2374 C 226.616 -1.00828 1.27818 0
M  V30 2375 O 227.805 -0.906841 1.53749 0
M  V30 2376 C 224.905 -1.63636 2.96777 0
M  V30 2377 C 224.078 -1.19995 4.20618 0
M  V30 2378 C 223.137 -2.25509 4.75428 0
M  V30 2379 O 222.163 -1.86007 5.3795 0
M  V30 2380 N 223.365 -3.577 4.57199 0
M  V30 2381 H 226.13 0.174025 2.99194 0
M  V30 2382 H 223.691 0.238897 1.60128 0
M  V30 2383 H 225.683 -2.33793 3.30338 0
M  V30 2384 H 224.253 -2.16465 2.25526 0
M  V30 2385 H 223.473 -0.326421 3.92846 0
M  V30 2386 H 224.761 -0.885365 5.01038 0
M  V30 2387 H 224.159 -3.92543 4.07341 0
M  V30 2388 H 222.716 -4.23827 4.95191 0
M  V30 2389 N 226.149 -1.5696 0.141893 0
M  V30 2390 C 227.395 -1.9625 -0.511248 0
M  V30 2391 C 227.728 -1.02654 -1.64851 0
M  V30 2392 O 227.003 -0.0679676 -1.94381 0
M  V30 2393 C 227.286 -3.45285 -1.02227 0
M  V30 2394 C 227.139 -4.49658 0.113138 0
M  V30 2395 C 228.458 -3.96698 -1.90574 0
M  V30 2396 H 225.577 -0.713567 -0.184367 0
M  V30 2397 H 228.219 -1.88698 0.222087 0
M  V30 2398 H 226.369 -3.51852 -1.64719 0
M  V30 2399 H 228.041 -4.55174 0.749302 0
M  V30 2400 H 226.284 -4.26857 0.773026 0
M  V30 2401 H 226.955 -5.51258 -0.286053 0
M  V30 2402 H 229.431 -3.92578 -1.37918 0
M  V30 2403 H 228.307 -5.01453 -2.2324 0
M  V30 2404 H 228.568 -3.3875 -2.84079 0
M  V30 2405 N 227.627 0.131896 -1.57047 0
M  V30 2406 C 228.873 0.843179 -1.84441 0
M  V30 2407 C 229.206 1.80129 -0.725749 0
M  V30 2408 O 228.481 1.92624 0.269469 0
M  V30 2409 C 228.764 1.60442 -3.22382 0
M  V30 2410 C 228.617 0.666782 -4.4483 0
M  V30 2411 C 229.936 2.56354 -3.5773 0
M  V30 2412 H 227.055 0.305081 -0.670891 0
M  V30 2413 H 229.697 0.107839 -1.89694 0
M  V30 2414 H 227.847 2.23128 -3.18035 0
M  V30 2415 H 229.519 0.0497646 -4.61273 0
M  V30 2416 H 227.762 -0.022609 -4.33794 0
M  V30 2417 H 228.433 1.23579 -5.37989 0
M  V30 2418 H 230.909 2.0378 -3.62785 0
M  V30 2419 H 229.785 3.06657 -4.5525 0
M  V30 2420 H 230.046 3.38419 -2.84473 0
M  V30 2421 N 229.106 1.52395 0.401703 0
M  V30 2422 C 230.355 1.66044 1.14509 0
M  V30 2423 C 230.668 0.400216 1.91462 0
M  V30 2424 O 231.874 0.416632 2.68284 0
M  V30 2425 C 230.33 2.93388 2.0845 0
M  V30 2426 C 229.938 4.26545 1.36978 0
M  V30 2427 C 231.682 3.16402 2.83001 0
M  V30 2428 C 229.589 5.45007 2.29611 0
M  V30 2429 H 228.519 0.618562 0.431158 0
M  V30 2430 H 231.17 1.78886 0.40892 0
M  V30 2431 H 229.552 2.74263 2.8565 0
M  V30 2432 H 230.726 4.56179 0.650916 0
M  V30 2433 H 229.041 4.09692 0.74438 0
M  V30 2434 H 231.638 4.02085 3.52465 0
M  V30 2435 H 231.981 2.30943 3.46368 0
M  V30 2436 H 232.514 3.36034 2.12898 0
M  V30 2437 H 229.253 6.32835 1.70879 0
M  V30 2438 H 228.773 5.19702 2.9945 0
M  V30 2439 H 230.452 5.7838 2.89974 0
M  V30 2440 N 230.584 -0.659388 1.43143 0
M  V30 2441 C 231.995 -1.24041 1.39537 0
M  V30 2442 C 232.346 -1.95963 0.0963364 0
M  V30 2443 O 231.471 -2.00892 -0.804438 0
M  V30 2444 C 232.066 -2.25601 2.52764 0
M  V30 2445 C 230.625 -2.79195 2.52443 0
M  V30 2446 C 229.772 -1.53743 2.30778 0
M  V30 2447 H 232.723 -0.451792 1.52133 0
M  V30 2448 H 232.744 -3.07651 2.23899 0
M  V30 2449 H 232.256 -1.73226 3.47296 0
M  V30 2450 H 230.357 -3.35649 1.61773 0
M  V30 2451 H 230.47 -3.2716 3.50004 0
M  V30 2452 H 228.834 -1.80869 1.79328 0
M  V30 2453 H 229.617 -1.03312 3.27386 0
M  V30 2454 N 232.062 -1.29571 -0.897171 0
M  V30 2455 C 233.009 -1.14916 -2.00158 0
M  V30 2456 C 233.979 -0.0418149 -1.66047 0
M  V30 2457 O 235.164 -0.209793 -1.89643 0
M  V30 2458 C 232.304 -0.834307 -3.34863 0
M  V30 2459 C 231.417 -2.02234 -3.8174 0
M  V30 2460 C 230.552 -1.64664 -5.05034 0
M  V30 2461 C 229.591 -2.80033 -5.44286 0
M  V30 2462 N 228.728 -2.42843 -6.58765 0
M  V30 2463 H 233.568 -2.09403 -2.12025 0
M  V30 2464 H 231.105 -1.042 -1.0383 0
M  V30 2465 H 233.063 -0.632436 -4.12379 0
M  V30 2466 H 231.693 0.0736656 -3.22716 0
M  V30 2467 H 230.745 -2.33583 -3.00238 0
M  V30 2468 H 232.057 -2.88673 -4.06779 0
M  V30 2469 H 231.211 -1.4078 -5.9014 0
M  V30 2470 H 229.95 -0.753766 -4.8184 0
M  V30 2471 H 228.955 -3.04596 -4.57713 0
M  V30 2472 H 230.18 -3.69989 -5.6946 0
M  V30 2473 H 228.126 -1.56046 -6.3717 0
M  V30 2474 H 228.043 -3.22815 -6.83613 0
M  V30 2475 H 229.311 -2.22285 -7.47134 0
M  V30 2476 N 233.54 1.10788 -1.12088 0
M  V30 2477 C 234.765 1.87002 -0.896949 0
M  V30 2478 C 235.19 1.79933 0.548261 0
M  V30 2479 O 234.548 1.16662 1.38779 0
M  V30 2480 C 234.596 3.3349 -1.37174 0
M  V30 2481 O 233.7 4.08745 -0.547831 0
M  V30 2482 H 233.041 0.580397 -0.322545 0
M  V30 2483 H 235.571 1.39996 -1.49206 0
M  V30 2484 H 235.581 3.84339 -1.36922 0
M  V30 2485 H 234.256 3.37951 -2.42408 0
M  V30 2486 H 232.833 3.6776 -0.617034 0
M  V30 2487 O 235.057 1.04415 1.23206 0
M  V30 2488 H 235.748 0.716727 1.79952 0
M  V30 END ATOM
M  V30 BEGIN BOND
M  V30 END BOND
M  V30 END CTAB
M  END
$$$$
