drugbank_target|O75880 Protein SCO1 homolog, mitochondrial (DB09130)
 OpenBabel12092121033D

  0  0  0     0  0            999 V3000
M  V30 BEGIN CTAB
M  V30 COUNTS 4783 4848 0 0 0
M  V30 BEGIN ATOM
M  V30 1 H -0.908 1.98254 -0.117106 0
M  V30 2 N 0 1.576 0 0
M  V30 3 C 0.933 2.03868 1.02534 0
M  V30 4 C 1.911 0.928543 1.3348 0
M  V30 5 O 3.095 1.19667 1.45644 0
M  V30 6 C 0.222 2.43627 2.35294 0
M  V30 7 C -0.732 3.65373 2.2001 0
M  V30 8 S 0.101 5.13292 1.52614 0
M  V30 9 C 1.257 5.56322 2.86805 0
M  V30 10 H 1.49 2.90518 0.631377 0
M  V30 11 H -0.977 1.52953 0.210867 0
M  V30 12 H 0.981 2.67203 3.11629 0
M  V30 13 H -0.358 1.57376 2.7183 0
M  V30 14 H -1.165 3.90944 3.18086 0
M  V30 15 H -1.563 3.418 1.51819 0
M  V30 16 H 0.729 5.58782 3.83104 0
M  V30 17 H 1.672 6.56266 2.65933 0
M  V30 18 H 2.08 4.83886 2.90714 0
M  V30 19 N 1.4781 -0.272755 1.55222 0
M  V30 20 C 2.4411 -1.32041 1.87344 0
M  V30 21 C 3.4411 -1.42342 0.74803 0
M  V30 22 O 4.6311 -1.41488 1.0162 0
M  V30 23 C 1.7631 -2.70173 2.07893 0
M  V30 24 H 2.9561 -1.04789 2.80997 0
M  V30 25 H 0.5091 -0.51083 1.47717 0
M  V30 26 H 1.2441 -3.02605 1.16622 0
M  V30 27 H 1.0291 -2.64082 2.89833 0
M  V30 28 H 2.5191 -3.45869 2.34017 0
M  V30 29 N 2.9562 -1.48159 -0.537278 0
M  V30 30 C 3.8892 -1.567 -1.65893 0
M  V30 31 C 4.8672 -0.41787 -1.57139 0
M  V30 32 O 6.0512 -0.628461 -1.77715 0
M  V30 33 C 3.1782 -1.48818 -3.04255 0
M  V30 34 C 2.2242 -2.68482 -3.31391 0
M  V30 35 S 3.0572 -4.30516 -3.1846 0
M  V30 36 C 4.2132 -4.2522 -4.59281 0
M  V30 37 H 4.4462 -2.5159 -1.58397 0
M  V30 38 H 1.9792 -1.36602 -0.719672 0
M  V30 39 H 3.9372 -1.44958 -3.84054 0
M  V30 40 H 2.5982 -0.552777 -3.09198 0
M  V30 41 H 1.7912 -2.59085 -4.32309 0
M  V30 42 H 1.3932 -2.69567 -2.59248 0
M  V30 43 H 3.6852 -3.94703 -5.5065 0
M  V30 44 H 4.6282 -5.26292 -4.73732 0
M  V30 45 H 5.0362 -3.55791 -4.38261 0
M  V30 46 N 4.4343 0.785586 -1.36625 0
M  V30 47 C 5.3643 1.91259 -1.33949 0
M  V30 48 C 6.3453 1.68795 -0.210325 0
M  V30 49 O 7.5303 1.89854 -0.408561 0
M  V30 50 C 4.6603 3.28339 -1.13186 0
M  V30 51 C 3.6143 3.65335 -2.22967 0
M  V30 52 C 2.9403 5.00806 -1.87342 0
M  V30 53 C 4.2403 3.7352 -3.65075 0
M  V30 54 H 5.9343 1.93755 -2.28253 0
M  V30 55 H 3.4803 0.930788 -1.09874 0
M  V30 56 H 5.4333 4.06804 -1.09948 0
M  V30 57 H 4.1573 3.2624 -0.153332 0
M  V30 58 H 2.8163 2.89169 -2.25337 0
M  V30 59 H 2.4643 4.95233 -0.880545 0
M  V30 60 H 2.1643 5.26529 -2.60846 0
M  V30 61 H 3.6883 5.81687 -1.85667 0
M  V30 62 H 5.1023 4.42168 -3.64911 0
M  V30 63 H 3.4993 4.10731 -4.37516 0
M  V30 64 H 4.5693 2.74527 -3.99703 0
M  V30 65 N 5.9124 1.20967 1.01018 0
M  V30 66 C 7.1584 1.02526 1.74975 0
M  V30 67 C 7.4914 -0.4408 1.89131 0
M  V30 68 O 6.7664 -1.32718 1.42184 0
M  V30 69 C 7.0494 1.71699 3.1653 0
M  V30 70 C 6.9024 3.25791 3.10129 0
M  V30 71 C 8.2214 1.45531 4.15342 0
M  V30 72 H 5.3404 0.373863 0.635134 0
M  V30 73 H 7.9824 1.49071 1.17805 0
M  V30 74 H 6.1324 1.32128 3.65341 0
M  V30 75 H 7.8044 3.74697 2.69072 0
M  V30 76 H 6.0474 3.56363 2.47362 0
M  V30 77 H 6.7184 3.69353 4.10222 0
M  V30 78 H 9.1944 1.79872 3.75213 0
M  V30 79 H 8.0704 1.96453 5.1254 0
M  V30 80 H 8.3314 0.384237 4.40427 0
M  V30 81 N 7.3905 -1.2043 1.01659 0
M  V30 82 C 8.3205 -2.25466 0.607226 0
M  V30 83 C 9.3015 -1.65853 -0.377716 0
M  V30 84 O 10.4865 -1.92409 -0.263149 0
M  V30 85 C 7.6165 -3.47256 -0.0552949 0
M  V30 86 C 6.5705 -4.19462 0.850632 0
M  V30 87 C 5.8965 -5.34673 0.0538859 0
M  V30 88 C 7.1965 -4.75603 2.15868 0
M  V30 89 H 8.8905 -2.59962 1.48526 0
M  V30 90 H 6.4365 -1.2496 0.715605 0
M  V30 91 H 8.3895 -4.19917 -0.353233 0
M  V30 92 H 7.1135 -3.11924 -0.968045 0
M  V30 93 H 5.7725 -3.48667 1.13257 0
M  V30 94 H 5.4205 -4.95585 -0.860514 0
M  V30 95 H 5.1205 -5.83913 0.657192 0
M  V30 96 H 6.6445 -6.10138 -0.237598 0
M  V30 97 H 8.0585 -5.40083 1.92311 0
M  V30 98 H 6.4555 -5.3528 2.71284 0
M  V30 99 H 7.5255 -3.94346 2.82169 0
M  V30 100 N 8.8686 -0.792821 -1.36206 0
M  V30 101 C 10.1146 -0.36733 -1.99446 0
M  V30 102 C 10.4476 1.05917 -1.62774 0
M  V30 103 O 9.7226 1.7324 -0.88421 0
M  V30 104 C 10.0056 -0.535044 -3.56103 0
M  V30 105 C 9.8586 -2.00548 -4.02617 0
M  V30 106 C 11.1776 0.0478191 -4.40074 0
M  V30 107 H 8.2966 -0.134941 -0.724541 0
M  V30 108 H 10.9386 -0.999794 -1.61568 0
M  V30 109 H 9.0886 0.00336329 -3.885 0
M  V30 110 H 10.7606 -2.60521 -3.80692 0
M  V30 111 H 9.0036 -2.50686 -3.54032 0
M  V30 112 H 9.6746 -2.07377 -5.11565 0
M  V30 113 H 12.1506 -0.411822 -4.14057 0
M  V30 114 H 11.0266 -0.0995336 -5.4881 0
M  V30 115 H 11.2876 1.14025 -4.27142 0
M  V30 116 N 10.3467 1.47872 -0.545128 0
M  V30 117 C 11.7577 1.86384 -0.108581 0
M  V30 118 C 12.1087 1.45309 1.31832 0
M  V30 119 O 11.2337 0.850641 1.9898 0
M  V30 120 C 11.8287 3.38265 -0.190274 0
M  V30 121 C 10.3877 3.75914 0.191164 0
M  V30 122 C 9.5347 2.71926 -0.543273 0
M  V30 123 H 12.4857 1.39561 -0.755537 0
M  V30 124 H 12.5067 3.75831 0.594217 0
M  V30 125 H 12.0187 3.6813 -1.2289 0
M  V30 126 H 10.1197 3.51665 1.23136 0
M  V30 127 H 10.2327 4.78836 -0.158987 0
M  V30 128 H 8.5967 2.54697 0.0122495 0
M  V30 129 H 9.3797 3.04634 -1.58282 0
M  V30 130 N 11.8248 0.280983 1.55075 0
M  V30 131 C 13.0728 -0.333455 1.9933 0
M  V30 132 C 13.3938 -1.55937 1.17085 0
M  V30 133 O 12.6638 -1.94143 0.261805 0
M  V30 134 H 11.2438 -0.126197 0.736263 0
M  V30 135 H 13.9058 0.387678 1.91005 0
M  V30 136 H 13.0018 -0.619292 3.05894 0
M  V30 137 N 13.3029 -1.57598 0.00835791 0
M  V30 138 C 14.7189 -1.55764 -0.347822 0
M  V30 139 C 14.9189 -1.01186 -1.74252 0
M  V30 140 O 13.9749 -0.649371 -2.44007 0
M  V30 141 C 15.2879 -2.99927 -0.215407 0
M  V30 142 C 16.8359 -3.11656 -0.289725 0
M  V30 143 C 17.3109 -4.57621 -0.18634 0
M  V30 144 N 18.8019 -4.62557 -0.243978 0
M  V30 145 C 19.5369 -5.73094 -0.18745 0
M  V30 146 N 19.0329 -6.92753 -0.0810331 0
M  V30 147 N 20.8259 -5.61588 -0.239925 0
M  V30 148 H 12.9769 -1.91411 0.92062 0
M  V30 149 H 15.2399 -0.879562 0.353659 0
M  V30 150 H 14.9459 -3.43729 0.744512 0
M  V30 151 H 14.8199 -3.63865 -0.994097 0
M  V30 152 H 17.2069 -2.67779 -1.24009 0
M  V30 153 H 17.2879 -2.5048 0.51898 0
M  V30 154 H 16.9319 -5.02174 0.760519 0
M  V30 155 H 16.8619 -5.16752 -1.01364 0
M  V30 156 H 19.3529 -3.76481 -0.327217 0
M  V30 157 H 19.6659 -7.72787 -0.0440241 0
M  V30 158 H 18.0109 -6.94984 -0.0465419 0
M  V30 159 H 21.2019 -4.66996 -0.321317 0
M  V30 160 H 21.3749 -6.47714 -0.192407 0
M  V30 161 N 14.781 0.264519 -1.55364 0
M  V30 162 C 16.027 0.99646 -1.76631 0
M  V30 163 C 16.36 1.85632 -0.570478 0
M  V30 164 O 15.635 1.89647 0.43175 0
M  V30 165 C 15.918 1.87187 -3.07625 0
M  V30 166 C 15.771 1.04138 -4.37579 0
M  V30 167 C 17.09 2.85749 -3.34717 0
M  V30 168 H 14.209 0.360841 -0.642622 0
M  V30 169 H 16.851 0.268218 -1.88097 0
M  V30 170 H 15.001 2.49279 -2.9798 0
M  V30 171 H 16.673 0.440517 -4.59192 0
M  V30 172 H 14.916 0.345115 -4.32425 0
M  V30 173 H 15.587 1.68729 -5.2558 0
M  V30 174 H 18.063 2.33793 -3.4421 0
M  V30 175 H 16.939 3.44136 -4.27623 0
M  V30 176 H 17.2 3.61311 -2.54768 0
M  V30 177 N 16.2591 1.48442 0.529413 0
M  V30 178 C 17.1921 1.57577 1.65059 0
M  V30 179 C 18.1701 0.426198 1.56915 0
M  V30 180 O 19.3541 0.637877 1.77379 0
M  V30 181 C 16.4811 1.5043 3.03461 0
M  V30 182 C 15.5271 2.70235 3.29962 0
M  V30 183 S 16.3601 4.32198 3.16172 0
M  V30 184 C 17.5161 4.2765 4.57019 0
M  V30 185 H 17.7491 2.52427 1.5706 0
M  V30 186 H 15.2821 1.36982 0.712417 0
M  V30 187 H 17.2401 1.46992 3.8328 0
M  V30 188 H 15.9011 0.569167 3.089 0
M  V30 189 H 15.0941 2.61374 4.30929 0
M  V30 190 H 14.6961 2.70938 2.57815 0
M  V30 191 H 16.9881 3.97618 5.48549 0
M  V30 192 H 17.9311 5.28797 4.70934 0
M  V30 193 H 18.3391 3.5811 4.36368 0
M  V30 194 N 17.7372 -0.778329 1.37039 0
M  V30 195 C 19.1532 -1.07796 1.17695 0
M  V30 196 C 19.3532 -2.01498 0.00860115 0
M  V30 197 O 18.4092 -2.43901 -0.653352 0
M  V30 198 C 19.7222 -1.68178 2.49272 0
M  V30 199 C 21.2702 -1.80467 2.55735 0
M  V30 200 C 21.7452 -2.44263 3.87427 0
M  V30 201 N 23.2362 -2.51721 3.88833 0
M  V30 202 C 23.9712 -3.01919 4.87476 0
M  V30 203 N 23.4672 -3.5234 5.96513 0
M  V30 204 N 25.2602 -3.00733 4.74885 0
M  V30 205 H 17.4112 -0.156032 2.11826 0
M  V30 206 H 19.6742 -0.131844 0.938787 0
M  V30 207 H 19.3802 -1.06796 3.35093 0
M  V30 208 H 19.2542 -2.67554 2.65885 0
M  V30 209 H 21.6412 -2.40984 1.70325 0
M  V30 210 H 21.7222 -0.798656 2.43013 0
M  V30 211 H 21.3662 -1.84388 4.73248 0
M  V30 212 H 21.2962 -3.45458 3.9745 0
M  V30 213 H 23.7872 -2.1603 3.10063 0
M  V30 214 H 24.1002 -3.89027 6.67741 0
M  V30 215 H 22.4452 -3.50462 6.00168 0
M  V30 216 H 25.6362 -2.60638 3.88826 0
M  V30 217 H 25.8092 -3.39545 5.51918 0
M  V30 218 N 19.2153 -1.21501 -1.00376 0
M  V30 219 C 20.6263 -1.03146 -1.55621 0
M  V30 220 C 20.9773 0.408375 -1.91903 0
M  V30 221 O 20.1023 1.29177 -1.73616 0
M  V30 222 C 20.6973 -1.86612 -2.82775 0
M  V30 223 C 19.2563 -1.72586 -3.34501 0
M  V30 224 C 18.4033 -1.83747 -2.07683 0
M  V30 225 H 21.3543 -1.35505 -0.826081 0
M  V30 226 H 21.3753 -1.3771 -3.54706 0
M  V30 227 H 20.8873 -2.91399 -2.56336 0
M  V30 228 H 18.9883 -0.704877 -3.65872 0
M  V30 229 H 19.1013 -2.54623 -4.05837 0
M  V30 230 H 17.4653 -1.27069 -2.20739 0
M  V30 231 H 18.2483 -2.90044 -1.83655 0
M  V30 232 N 20.6934 1.19889 -1.02296 0
M  V30 233 C 21.6234 2.25141 -0.619174 0
M  V30 234 C 22.6044 1.66051 0.368915 0
M  V30 235 O 23.7894 1.92546 0.252941 0
M  V30 236 C 20.9194 3.4728 0.0368783 0
M  V30 237 C 19.8734 4.19005 -0.872865 0
M  V30 238 C 19.1994 5.34637 -0.0822402 0
M  V30 239 C 20.4994 4.74452 -2.18387 0
M  V30 240 H 22.1934 2.59171 -1.49903 0
M  V30 241 H 19.7394 1.24579 -0.722222 0
M  V30 242 H 21.6924 4.20098 0.330958 0
M  V30 243 H 20.4164 3.12433 0.95149 0
M  V30 244 H 19.0754 3.48061 -1.15105 0
M  V30 245 H 18.7234 4.96034 0.83422 0
M  V30 246 H 18.4234 5.83557 -0.688149 0
M  V30 247 H 19.9474 6.10255 0.205238 0
M  V30 248 H 21.3614 5.39055 -1.95172 0
M  V30 249 H 19.7584 5.33834 -2.74119 0
M  V30 250 H 20.8284 3.92844 -2.84257 0
M  V30 251 N 22.1715 0.800033 1.35784 0
M  V30 252 C 23.4195 0.376597 1.9856 0
M  V30 253 C 23.7405 -1.05812 1.63795 0
M  V30 254 O 23.0105 -1.73103 0.917171 0
M  V30 255 H 21.5905 0.136261 0.734467 0
M  V30 256 H 24.2525 1.02442 1.65806 0
M  V30 257 H 23.3485 0.477002 3.08433 0
M  V30 258 N 23.6496 -1.47581 0.552962 0
M  V30 259 C 24.8976 -2.02082 0.0272703 0
M  V30 260 C 25.2186 -1.4301 -1.32563 0
M  V30 261 O 24.4886 -0.603745 -1.86365 0
M  V30 262 H 23.0686 -0.746966 0.00709182 0
M  V30 263 H 25.7306 -1.81033 0.722008 0
M  V30 264 H 24.8266 -3.12034 -0.0639951 0
M  V30 265 N 25.1277 -0.289203 -1.54924 0
M  V30 266 C 26.0597 0.625583 -2.20497 0
M  V30 267 C 27.0727 1.10667 -1.19402 0
M  V30 268 O 28.2617 1.02615 -1.46056 0
M  V30 269 C 25.3617 1.86702 -2.82835 0
M  V30 270 C 24.5347 1.5304 -4.09753 0
M  V30 271 C 23.5937 2.62576 -4.56005 0
M  V30 272 O 22.6197 2.28167 -5.21468 0
M  V30 273 N 23.8217 3.92901 -4.27328 0
M  V30 274 H 26.5867 0.0642801 -2.99631 0
M  V30 275 H 24.1477 -0.110896 -1.6152 0
M  V30 276 H 26.1397 2.59304 -3.10715 0
M  V30 277 H 24.7097 2.33702 -2.07611 0
M  V30 278 H 23.9297 0.637564 -3.8901 0
M  V30 279 H 25.2177 1.28072 -4.92418 0
M  V30 280 H 24.6157 4.23671 -3.74859 0
M  V30 281 H 23.1727 4.61837 -4.59946 0
M  V30 282 N 26.6058 1.57591 -0.0167156 0
M  V30 283 C 27.5358 2.12496 0.967858 0
M  V30 284 C 28.5168 1.03807 1.34752 0
M  V30 285 O 29.7018 1.31577 1.42833 0
M  V30 286 C 26.8318 2.64194 2.25431 0
M  V30 287 C 25.7858 3.77559 2.01576 0
M  V30 288 C 25.1118 4.15636 3.36379 0
M  V30 289 C 26.4118 5.04151 1.36489 0
M  V30 290 H 28.1058 2.95013 0.510643 0
M  V30 291 H 25.6518 1.41915 0.244181 0
M  V30 292 H 27.6048 3.01236 2.94678 0
M  V30 293 H 26.3288 1.78821 2.73296 0
M  V30 294 H 24.9878 3.40937 1.34751 0
M  V30 295 H 24.6358 3.27263 3.81979 0
M  V30 296 H 24.3358 4.92022 3.21229 0
M  V30 297 H 25.8598 4.5525 4.06915 0
M  V30 298 H 27.2738 5.38857 1.95718 0
M  V30 299 H 25.6708 5.85453 1.31776 0
M  V30 300 H 26.7408 4.83733 0.336219 0
M  V30 301 N 28.0839 -0.256276 1.55502 0
M  V30 302 C 29.3299 -0.982884 1.78076 0
M  V30 303 C 29.6849 -1.83319 0.584109 0
M  V30 304 O 28.9779 -1.86875 -0.422877 0
M  V30 305 C 29.1719 -1.88432 3.03691 0
M  V30 306 C 29.0009 -1.12276 4.35459 0
M  V30 307 C 27.7709 -0.831647 4.98409 0
M  V30 308 C 29.9689 -0.504933 5.11815 0
M  V30 309 N 27.9509 -0.0450423 6.13883 0
M  V30 310 C 29.3219 0.146696 6.19826 0
M  V30 311 C 31.3769 -0.414455 4.96172 0
M  V30 312 C 30.0799 0.880103 7.13895 0
M  V30 313 C 32.1059 0.305398 5.90611 0
M  V30 314 C 31.4679 0.945701 6.98023 0
M  V30 315 H 27.5669 -0.341084 0.703694 0
M  V30 316 H 30.1509 -0.256909 1.92998 0
M  V30 317 H 28.3219 -2.58241 2.90114 0
M  V30 318 H 30.0539 -2.54579 3.14598 0
M  V30 319 H 26.8089 -1.14111 4.59647 0
M  V30 320 H 27.2329 0.336079 6.76165 0
M  V30 321 H 31.8749 -0.895163 4.13215 0
M  V30 322 H 29.5929 1.37244 7.9636 0
M  V30 323 H 33.1789 0.375946 5.80584 0
M  V30 324 H 32.0589 1.49383 7.6984 0
M  V30 325 N 29.562 -1.4872 -0.521534 0
M  V30 326 C 30.978 -1.35028 -0.850855 0
M  V30 327 C 31.178 -0.367712 -1.98116 0
M  V30 328 O 30.234 0.208037 -2.51642 0
M  V30 329 C 31.547 -2.75263 -1.21041 0
M  V30 330 C 33.095 -2.83813 -1.31981 0
M  V30 331 C 33.57 -4.24769 -1.71276 0
M  V30 332 N 35.061 -4.27482 -1.78363 0
M  V30 333 C 35.796 -5.33494 -2.1017 0
M  V30 334 N 35.292 -6.49775 -2.40343 0
M  V30 335 N 37.085 -5.20894 -2.11248 0
M  V30 336 H 29.236 -2.11214 0.22413 0
M  V30 337 H 31.499 -0.947252 0.0376439 0
M  V30 338 H 31.205 -3.48765 -0.453415 0
M  V30 339 H 31.079 -3.09327 -2.15863 0
M  V30 340 H 33.466 -2.10561 -2.06756 0
M  V30 341 H 33.547 -2.53358 -0.352596 0
M  V30 342 H 33.191 -4.9854 -0.970588 0
M  V30 343 H 33.121 -4.52673 -2.69062 0
M  V30 344 H 35.612 -3.43611 -1.57288 0
M  V30 345 H 35.925 -7.26402 -2.63743 0
M  V30 346 H 34.27 -6.53035 -2.37844 0
M  V30 347 H 37.461 -4.29065 -1.87139 0
M  V30 348 H 37.634 -6.03612 -2.35704 0
M  V30 349 N 31.0401 0.771051 -1.3745 0
M  V30 350 C 32.2871 1.52963 -1.32697 0
M  V30 351 C 32.6151 1.94299 0.0883274 0
M  V30 352 O 31.8701 1.64397 1.0617 0
M  V30 353 C 32.1691 2.80676 -2.2126 0
M  V30 354 C 31.8351 2.58389 -3.69521 0
M  V30 355 C 30.4971 2.52019 -4.09927 0
M  V30 356 C 32.8491 2.38469 -4.63446 0
M  V30 357 C 30.1771 2.23721 -5.42371 0
M  V30 358 C 32.5291 2.11694 -5.96128 0
M  V30 359 C 31.1931 2.03769 -6.35637 0
M  V30 360 H 30.4631 0.559732 -0.485573 0
M  V30 361 H 33.1101 0.888083 -1.69662 0
M  V30 362 H 31.4151 3.49392 -1.77291 0
M  V30 363 H 33.1121 3.38557 -2.14895 0
M  V30 364 H 29.7021 2.6421 -3.37478 0
M  V30 365 H 33.8861 2.4238 -4.33089 0
M  V30 366 H 29.1421 2.16081 -5.71943 0
M  V30 367 H 33.3161 1.9528 -6.6846 0
M  V30 368 H 30.9431 1.81606 -7.38189 0
M  V30 369 N 32.5182 1.22032 0.997298 0
M  V30 370 C 33.4482 1.01065 2.10495 0
M  V30 371 C 34.4292 -0.0669542 1.69968 0
M  V30 372 O 35.6142 0.0943987 1.9397 0
M  V30 373 C 32.7442 0.582874 3.42374 0
M  V30 374 C 31.6982 1.60592 3.96729 0
M  V30 375 C 31.0242 1.03412 5.24605 0
M  V30 376 C 32.3242 2.99478 4.27914 0
M  V30 377 H 34.0182 1.93708 2.28292 0
M  V30 378 H 31.5642 0.932761 1.09707 0
M  V30 379 H 33.5172 0.423332 4.19268 0
M  V30 380 H 32.2412 -0.379213 3.24391 0
M  V30 381 H 30.9002 1.75316 3.21963 0
M  V30 382 H 30.5482 0.063518 5.0296 0
M  V30 383 H 30.2482 1.71754 5.61938 0
M  V30 384 H 31.7722 0.886066 6.04137 0
M  V30 385 H 33.1862 2.88153 4.95622 0
M  V30 386 H 31.5832 3.64903 4.76409 0
M  V30 387 H 32.6532 3.49742 3.3587 0
M  V30 388 N 33.9963 -1.19345 1.0293 0
M  V30 389 C 35.4073 -1.70725 0.755633 0
M  V30 390 C 35.7583 -1.82326 -0.724676 0
M  V30 391 O 34.8833 -1.49471 -1.56484 0
M  V30 392 C 35.4783 -3.10084 1.36503 0
M  V30 393 C 34.0373 -3.58723 1.13994 0
M  V30 394 C 33.1843 -2.35577 1.46283 0
M  V30 395 H 36.1353 -1.0418 1.19718 0
M  V30 396 H 36.1563 -3.72787 0.762217 0
M  V30 397 H 35.6683 -3.01609 2.44241 0
M  V30 398 H 33.7693 -3.72512 0.0807901 0
M  V30 399 H 33.8823 -4.42816 1.82894 0
M  V30 400 H 32.2463 -2.38935 0.88217 0
M  V30 401 H 33.0293 -2.29731 2.55105 0
M  V30 402 N 35.4744 -0.807222 -1.35358 0
M  V30 403 C 36.8904 -0.491038 -1.51858 0
M  V30 404 C 37.0904 0.987648 -1.75635 0
M  V30 405 O 36.1464 1.77265 -1.79815 0
M  V30 406 C 37.4594 -1.33695 -2.69344 0
M  V30 407 C 39.0074 -1.33246 -2.83222 0
M  V30 408 C 39.4824 -2.1625 -4.03733 0
M  V30 409 N 40.9734 -2.1379 -4.10911 0
M  V30 410 C 41.7084 -2.74772 -5.03277 0
M  V30 411 N 41.2044 -3.44684 -6.0097 0
M  V30 412 N 42.9974 -2.6441 -4.96028 0
M  V30 413 H 35.1484 -1.76485 -1.18181 0
M  V30 414 H 37.4114 -0.751199 -0.578276 0
M  V30 415 H 37.1174 -2.38634 -2.58354 0
M  V30 416 H 36.9914 -0.990618 -3.6396 0
M  V30 417 H 39.3784 -0.290911 -2.93663 0
M  V30 418 H 39.4594 -1.71866 -1.89461 0
M  V30 419 H 39.1034 -3.20445 -3.94052 0
M  V30 420 H 39.0334 -1.74989 -4.96675 0
M  V30 421 H 41.5244 -1.62923 -3.40976 0
M  V30 422 H 41.8374 -3.88501 -6.68047 0
M  V30 423 H 40.1824 -3.48788 -6.01142 0
M  V30 424 H 43.3734 -2.0938 -4.18662 0
M  V30 425 H 43.5464 -3.12225 -5.6782 0
M  V30 426 N 36.9525 1.47285 -0.560781 0
M  V30 427 C 38.2005 2.02064 -0.0379868 0
M  V30 428 C 38.5215 1.43711 1.31803 0
M  V30 429 O 37.7915 0.61362 1.86042 0
M  V30 430 H 36.3715 0.746918 -0.0110531 0
M  V30 431 H 39.0335 1.80648 -0.731598 0
M  V30 432 H 38.1295 3.12064 0.0474463 0
M  V30 433 N 38.4306 0.297415 1.54768 0
M  V30 434 C 39.3606 -0.573494 2.26348 0
M  V30 435 C 40.3416 -1.14085 1.26169 0
M  V30 436 O 41.5266 -1.17086 1.54934 0
M  V30 437 C 38.6566 -1.74716 3.00153 0
M  V30 438 C 37.6106 -1.31032 4.07449 0
M  V30 439 C 36.9366 -2.56887 4.68949 0
M  V30 440 C 38.2366 -0.444183 5.20408 0
M  V30 441 H 39.9306 0.0235131 2.99391 0
M  V30 442 H 37.4766 0.0127488 1.43994 0
M  V30 443 H 39.4296 -2.3625 3.48947 0
M  V30 444 H 38.1536 -2.37035 2.24682 0
M  V30 445 H 36.8126 -0.718066 3.59499 0
M  V30 446 H 36.4606 -3.17512 3.90122 0
M  V30 447 H 36.1606 -2.2836 5.41411 0
M  V30 448 H 37.6846 -3.19229 5.20505 0
M  V30 449 H 39.0986 -0.9651 5.65118 0
M  V30 450 H 37.4956 -0.252846 5.99567 0
M  V30 451 H 38.5656 0.531609 4.81977 0
M  V30 452 N 39.9087 -1.5758 0.0250728 0
M  V30 453 C 40.8187 -2.1343 -0.973905 0
M  V30 454 C 41.8347 -1.08556 -1.35984 0
M  V30 455 O 43.0107 -1.40592 -1.44207 0
M  V30 456 C 40.0757 -2.64703 -2.23904 0
M  V30 457 C 39.1367 -3.84276 -1.91391 0
M  V30 458 C 38.3697 -4.33095 -3.11873 0
M  V30 459 O 38.5927 -3.81107 -4.24398 0
M  V30 460 O 37.5267 -5.24984 -2.94406 0
M  V30 461 H 41.3527 -2.99057 -0.529036 0
M  V30 462 H 38.9377 -1.48118 -0.195288 0
M  V30 463 H 40.8197 -2.97769 -2.98181 0
M  V30 464 H 39.4947 -1.82161 -2.6758 0
M  V30 465 H 38.4017 -3.56143 -1.14511 0
M  V30 466 H 39.7347 -4.67968 -1.52534 0
M  V30 467 N 41.3868 0.248026 -1.55636 0
M  V30 468 C 42.6338 0.976224 -1.77415 0
M  V30 469 C 42.9618 1.85361 -0.589193 0
M  V30 470 O 42.2168 1.90973 0.427529 0
M  V30 471 C 42.5158 1.86819 -3.04686 0
M  V30 472 C 42.1818 1.14625 -4.36087 0
M  V30 473 C 40.8438 0.946723 -4.71795 0
M  V30 474 C 43.1958 0.634463 -5.17324 0
M  V30 475 C 40.5238 0.223091 -5.86276 0
M  V30 476 C 42.8758 -0.0756959 -6.32555 0
M  V30 477 C 41.5398 -0.286711 -6.66884 0
M  V30 478 H 40.8098 0.357226 -0.649208 0
M  V30 479 H 43.4568 0.246415 -1.89908 0
M  V30 480 H 41.7618 2.66502 -2.872 0
M  V30 481 H 43.4588 2.43329 -3.18735 0
M  V30 482 H 40.0488 1.3117 -4.08035 0
M  V30 483 H 44.2328 0.77616 -4.90193 0
M  V30 484 H 39.4888 0.0491185 -6.1138 0
M  V30 485 H 43.6628 -0.479899 -6.94745 0
M  V30 486 H 41.2898 -0.849389 -7.5544 0
M  V30 487 N 42.8649 1.48995 0.513639 0
M  V30 488 C 44.1109 1.59053 1.26783 0
M  V30 489 C 44.4659 0.268136 1.90522 0
M  V30 490 O 43.7589 -0.730534 1.77126 0
M  V30 491 C 43.9529 2.67756 2.36731 0
M  V30 492 C 43.7819 4.10437 1.83771 0
M  V30 493 C 42.5519 4.7738 1.65639 0
M  V30 494 C 44.7499 4.9608 1.35681 0
M  V30 495 N 42.7319 6.04419 1.07476 0
M  V30 496 C 44.1029 6.13496 0.895715 0
M  V30 497 C 46.1579 4.82177 1.24136 0
M  V30 498 C 44.8609 7.1854 0.3306 0
M  V30 499 C 46.8869 5.87358 0.690229 0
M  V30 500 C 46.2489 7.03993 0.239292 0
M  V30 501 H 42.3479 0.636463 0.454355 0
M  V30 502 H 44.9319 1.85948 0.577196 0
M  V30 503 H 43.1029 2.42655 3.03271 0
M  V30 504 H 44.8349 2.67406 3.0377 0
M  V30 505 H 41.5899 4.33974 1.8964 0
M  V30 506 H 42.0139 6.72214 0.803579 0
M  V30 507 H 46.6559 3.92329 1.57601 0
M  V30 508 H 44.3739 8.08098 -0.0163435 0
M  V30 509 H 47.9599 5.78658 0.603852 0
M  V30 510 H 46.8399 7.83992 -0.180526 0
M  V30 511 N 44.343 -0.763751 1.37857 0
M  V30 512 C 45.591 -1.51957 1.33243 0
M  V30 513 C 45.912 -1.94835 -0.0801709 0
M  V30 514 O 45.182 -1.66894 -1.02582 0
M  V30 515 H 43.762 -0.563626 0.49024 0
M  V30 516 H 46.424 -0.908504 1.7243 0
M  V30 517 H 45.52 -2.41523 1.97669 0
M  V30 518 N 45.8211 -1.22559 -0.990812 0
M  V30 519 C 47.2321 -1.04791 -1.54518 0
M  V30 520 C 47.5831 0.387998 -1.92325 0
M  V30 521 O 46.7081 1.27328 -1.74976 0
M  V30 522 C 47.3031 -1.896 -2.80779 0
M  V30 523 C 45.8621 -1.76124 -3.32652 0
M  V30 524 C 45.0091 -1.8594 -2.05722 0
M  V30 525 H 47.9601 -1.36374 -0.811662 0
M  V30 526 H 47.9811 -1.41464 -3.53225 0
M  V30 527 H 47.4931 -2.94101 -2.53231 0
M  V30 528 H 45.5941 -0.743643 -3.65104 0
M  V30 529 H 45.7071 -2.58913 -4.03114 0
M  V30 530 H 44.0711 -1.29403 -2.19379 0
M  V30 531 H 44.8541 -2.91976 -1.80568 0
M  V30 532 N 47.2992 1.18797 -1.03562 0
M  V30 533 C 48.2622 2.20464 -0.626769 0
M  V30 534 C 49.2622 1.57721 0.313173 0
M  V30 535 O 50.4522 1.73917 0.0992615 0
M  V30 536 C 47.5842 3.40802 0.0818498 0
M  V30 537 H 48.7772 2.58149 -1.5264 0
M  V30 538 H 46.3302 1.32593 -0.827578 0
M  V30 539 H 47.0652 3.08642 0.995518 0
M  V30 540 H 46.8502 3.8758 -0.593652 0
M  V30 541 H 48.3402 4.16092 0.354584 0
M  V30 542 N 48.7773 0.814389 1.34928 0
M  V30 543 C 49.6873 0.231978 2.3345 0
M  V30 544 C 50.7033 -0.629139 1.62228 0
M  V30 545 O 51.8793 -0.539052 1.94052 0
M  V30 546 C 48.9443 -0.603482 3.41407 0
M  V30 547 C 48.0053 0.279037 4.28392 0
M  V30 548 C 47.2383 -0.516643 5.31193 0
M  V30 549 O 47.4613 -1.75068 5.4287 0
M  V30 550 O 46.3953 0.0965652 6.01823 0
M  V30 551 H 50.2213 1.04721 2.85074 0
M  V30 552 H 47.8063 0.576343 1.37836 0
M  V30 553 H 49.6883 -1.07908 4.0735 0
M  V30 554 H 48.3633 -1.39618 2.92042 0
M  V30 555 H 47.2703 0.801948 3.65403 0
M  V30 556 H 48.6033 1.03588 4.81176 0
M  V30 557 N 50.2554 -1.46986 0.568584 0
M  V30 558 C 51.5034 -2.02041 0.0487022 0
M  V30 559 C 51.8244 -1.44408 -1.31039 0
M  V30 560 O 51.0944 -0.623477 -1.85714 0
M  V30 561 H 49.6744 -0.746849 0.015014 0
M  V30 562 H 52.3364 -1.80257 0.741168 0
M  V30 563 H 51.4324 -3.12085 -0.0308961 0
M  V30 564 N 51.7335 -0.305618 -1.54608 0
M  V30 565 C 52.9615 0.304775 -2.04643 0
M  V30 566 C 53.3765 1.47167 -1.18268 0
M  V30 567 O 52.7335 1.81296 -0.209328 0
M  V30 568 C 52.7845 0.756564 -3.53495 0
M  V30 569 O 52.5055 -0.36389 -4.36586 0
M  V30 570 C 54.0065 1.43163 -4.19546 0
M  V30 571 H 51.2265 0.0655481 -0.667791 0
M  V30 572 H 53.7705 -0.446592 -1.99564 0
M  V30 573 H 51.9255 1.45794 -3.58919 0
M  V30 574 H 52.3395 -0.0113121 -5.24499 0
M  V30 575 H 53.8135 1.69886 -5.25207 0
M  V30 576 H 54.2905 2.37318 -3.69563 0
M  V30 577 H 54.8965 0.773307 -4.18211 0
M  V30 578 N 53.2116 1.57565 -0.0334293 0
M  V30 579 C 54.1746 2.09393 0.932048 0
M  V30 580 C 55.1746 1.00986 1.25134 0
M  V30 581 O 56.3646 1.27129 1.19096 0
M  V30 582 C 53.4966 2.56338 2.2473 0
M  V30 583 H 54.6896 2.95984 0.483085 0
M  V30 584 H 52.2426 1.54819 0.21468 0
M  V30 585 H 52.9776 1.7309 2.74245 0
M  V30 586 H 52.7626 3.35542 2.02865 0
M  V30 587 H 54.2526 2.96646 2.93923 0
M  V30 588 N 54.6897 -0.239769 1.55765 0
M  V30 589 C 56.1057 -0.588624 1.48349 0
M  V30 590 C 56.3057 -1.88005 0.72502 0
M  V30 591 O 55.3617 -2.51186 0.257269 0
M  V30 592 C 56.6747 -0.68474 2.928 0
M  V30 593 C 58.2227 -0.77659 3.03213 0
M  V30 594 C 58.6977 -0.904207 4.48986 0
M  V30 595 N 60.1887 -0.968896 4.52953 0
M  V30 596 C 60.9237 -1.08703 5.63002 0
M  V30 597 N 60.4197 -1.17026 6.82845 0
M  V30 598 N 62.2127 -1.12074 5.50814 0
M  V30 599 H 54.3637 0.607911 2.03515 0
M  V30 600 H 56.6267 0.21083 0.924259 0
M  V30 601 H 56.3327 0.194284 3.51163 0
M  V30 602 H 56.2067 -1.55435 3.43686 0
M  V30 603 H 58.5937 -1.64606 2.44926 0
M  V30 604 H 58.6747 0.118315 2.55526 0
M  V30 605 H 58.3187 -0.0392633 5.07885 0
M  V30 606 H 58.2487 -1.81426 4.9436 0
M  V30 607 H 60.7397 -0.915633 3.6664 0
M  V30 608 H 61.0527 -1.25966 7.62465 0
M  V30 609 H 59.3977 -1.13971 6.85591 0
M  V30 610 H 62.5887 -1.05226 4.5612 0
M  V30 611 H 62.7617 -1.20936 6.36615 0
M  V30 612 N 56.1678 -1.49265 -0.50573 0
M  V30 613 C 57.4138 -1.58748 -1.26202 0
M  V30 614 C 57.7468 -0.271227 -1.92297 0
M  V30 615 O 57.0218 0.724831 -1.80489 0
M  V30 616 C 57.3048 -2.74332 -2.33268 0
M  V30 617 C 57.1578 -4.15737 -1.71705 0
M  V30 618 C 58.4768 -2.85576 -3.34865 0
M  V30 619 H 55.5958 -0.577826 -0.457478 0
M  V30 620 H 58.2378 -1.81532 -0.560897 0
M  V30 621 H 56.3878 -2.55036 -2.93068 0
M  V30 622 H 58.0598 -4.46537 -1.15769 0
M  V30 623 H 56.3028 -4.21605 -1.02135 0
M  V30 624 H 56.9738 -4.92477 -2.49341 0
M  V30 625 H 59.4498 -3.03127 -2.8505 0
M  V30 626 H 58.3258 -3.68135 -4.07146 0
M  V30 627 H 58.5868 -1.94732 -3.96903 0
M  V30 628 N 57.6459 0.756429 -1.3826 0
M  V30 629 C 58.5759 1.88374 -1.37976 0
M  V30 630 C 59.5569 1.68311 -0.246082 0
M  V30 631 O 60.7419 1.88944 -0.44874 0
M  V30 632 C 57.8719 3.25864 -1.20125 0
M  V30 633 C 56.8259 3.60523 -2.30666 0
M  V30 634 C 56.1519 4.9672 -1.97923 0
M  V30 635 C 57.4519 3.65692 -3.72916 0
M  V30 636 H 59.1459 1.88869 -2.32312 0
M  V30 637 H 56.6919 0.907272 -1.11824 0
M  V30 638 H 58.6449 4.0438 -1.18552 0
M  V30 639 H 57.3689 3.25841 -0.222498 0
M  V30 640 H 56.0279 2.84324 -2.3142 0
M  V30 641 H 55.6759 4.93253 -0.985393 0
M  V30 642 H 55.3759 5.20878 -2.71955 0
M  V30 643 H 56.8999 5.77618 -1.97964 0
M  V30 644 H 58.3139 4.34328 -3.74208 0
M  V30 645 H 56.7109 4.01358 -4.4613 0
M  V30 646 H 57.7809 2.65987 -4.05436 0
M  V30 647 N 59.124 1.23083 0.984299 0
M  V30 648 C 60.054 1.03292 2.09411 0
M  V30 649 C 61.035 -0.048923 1.7003 0
M  V30 650 O 62.22 0.114967 1.93859 0
M  V30 651 C 59.35 0.619155 3.41736 0
M  V30 652 C 58.304 1.64791 3.95004 0
M  V30 653 C 57.63 1.0897 5.23478 0
M  V30 654 C 58.93 3.03999 4.24714 0
M  V30 655 H 60.624 1.96119 2.26225 0
M  V30 656 H 58.17 0.944344 1.08711 0
M  V30 657 H 60.123 0.467777 4.18796 0
M  V30 658 H 58.847 -0.344786 3.24775 0
M  V30 659 H 57.506 1.78721 3.20085 0
M  V30 660 H 57.154 0.11686 5.02864 0
M  V30 661 H 56.854 1.77704 5.60085 0
M  V30 662 H 58.378 0.950093 6.03163 0
M  V30 663 H 59.792 2.93393 4.92538 0
M  V30 664 H 58.189 3.69936 4.72512 0
M  V30 665 H 59.259 3.53285 3.32142 0
M  V30 666 N 60.6021 -1.18246 1.0419 0
M  V30 667 C 62.0181 -1.40269 0.761366 0
M  V30 668 C 62.2181 -1.90777 -0.648578 0
M  V30 669 O 61.2741 -2.0929 -1.41258 0
M  V30 670 C 62.5871 -2.40237 1.8085 0
M  V30 671 C 64.1351 -2.53961 1.82955 0
M  V30 672 C 64.6101 -3.57194 2.86664 0
M  V30 673 N 66.1011 -3.64702 2.85563 0
M  V30 674 C 66.8361 -4.44309 3.6246 0
M  V30 675 N 66.3321 -5.27514 4.49111 0
M  V30 676 N 68.1251 -4.39084 3.50944 0
M  V30 677 H 60.2761 -0.837882 1.95175 0
M  V30 678 H 62.5391 -0.430608 0.84456 0
M  V30 679 H 62.2451 -2.10176 2.81991 0
M  V30 680 H 62.1191 -3.39601 1.64168 0
M  V30 681 H 64.5061 -2.83338 0.824855 0
M  V30 682 H 64.5871 -1.54706 2.03715 0
M  V30 683 H 64.2311 -3.28558 3.87314 0
M  V30 684 H 64.1611 -4.5613 2.6316 0
M  V30 685 H 66.6521 -3.05289 2.22727 0
M  V30 686 H 66.9651 -5.85411 5.04493 0
M  V30 687 H 65.3101 -5.2693 4.53178 0
M  V30 688 H 68.5011 -3.7313 2.82651 0
M  V30 689 H 68.6741 -5.00883 4.11121 0
M  V30 690 N 62.0802 -0.821533 -1.34494 0
M  V30 691 C 63.0122 -0.199946 -2.28326 0
M  V30 692 C 64.0252 0.609377 -1.50965 0
M  V30 693 O 65.2142 0.439285 -1.7301 0
M  V30 694 C 62.3142 0.738431 -3.30757 0
M  V30 695 C 61.4872 -0.0277632 -4.37391 0
M  V30 696 C 60.5462 0.831332 -5.19591 0
M  V30 697 O 59.5722 0.276822 -5.68526 0
M  V30 698 N 60.7742 2.15132 -5.39165 0
M  V30 699 H 63.5392 -1.00609 -2.82308 0
M  V30 700 H 61.1002 -0.678366 -1.47003 0
M  V30 701 H 63.0922 1.31773 -3.82646 0
M  V30 702 H 61.6622 1.44533 -2.7718 0
M  V30 703 H 60.8822 -0.788359 -3.86236 0
M  V30 704 H 62.1702 -0.555251 -5.05761 0
M  V30 705 H 61.5682 2.62559 -5.01078 0
M  V30 706 H 60.1252 2.6795 -5.94177 0
M  V30 707 N 63.5583 1.46682 -0.576371 0
M  V30 708 C 64.8053 2.02412 -0.0595339 0
M  V30 709 C 65.1333 1.44859 1.29793 0
M  V30 710 O 64.3883 0.601099 1.8624 0
M  V30 711 C 64.6873 3.57345 0.062886 0
M  V30 712 C 64.3533 4.33908 -1.22616 0
M  V30 713 C 63.0153 4.54544 -1.57933 0
M  V30 714 C 65.3673 4.77919 -2.07948 0
M  V30 715 C 62.6953 5.16444 -2.78393 0
M  V30 716 C 65.0473 5.41149 -3.27629 0
M  V30 717 C 63.7113 5.60014 -3.63236 0
M  V30 718 H 62.9813 0.74068 -0.021785 0
M  V30 719 H 65.6283 1.76128 -0.751735 0
M  V30 720 H 63.9333 3.82729 0.838178 0
M  V30 721 H 65.6303 3.98136 0.478439 0
M  V30 722 H 62.2203 4.18138 -0.941202 0
M  V30 723 H 66.4043 4.61738 -1.81967 0
M  V30 724 H 61.6603 5.29242 -3.06126 0
M  V30 725 H 65.8343 5.74211 -3.94023 0
M  V30 726 H 63.4613 6.07748 -4.56669 0
M  V30 727 N 65.0364 0.313813 1.54444 0
M  V30 728 C 66.2764 -0.292389 2.02298 0
M  V30 729 C 66.6404 -1.50105 1.19719 0
M  V30 730 O 67.8414 -2.17947 1.5733 0
M  V30 731 C 66.1124 -0.627682 3.51845 0
M  V30 732 S 67.6714 -1.21493 4.21646 0
M  V30 733 H 64.4894 -0.0890247 0.705405 0
M  V30 734 H 67.0914 0.444668 1.90376 0
M  V30 735 H 65.7954 0.260265 4.09574 0
M  V30 736 H 65.3264 -1.39519 3.67829 0
M  V30 737 H 67.3414 -2.5022 4.28491 0
M  V30 738 N 66.5145 -1.57545 0.0417849 0
M  V30 739 C 67.4775 -2.09885 -0.92093 0
M  V30 740 C 68.4775 -1.01648 -1.24596 0
M  V30 741 O 69.6675 -1.27759 -1.1842 0
M  V30 742 C 66.7995 -2.57527 -2.23367 0
M  V30 743 H 67.9925 -2.96236 -0.467382 0
M  V30 744 H 65.5455 -1.5493 -0.206467 0
M  V30 745 H 66.2805 -1.74542 -2.73323 0
M  V30 746 H 66.0655 -3.36613 -2.01083 0
M  V30 747 H 67.5555 -2.98201 -2.92346 0
M  V30 748 N 67.9926 0.231505 -1.5589 0
M  V30 749 C 69.4086 0.580748 -1.48659 0
M  V30 750 C 69.6086 1.87617 -0.73498 0
M  V30 751 O 68.6646 2.51046 -0.270586 0
M  V30 752 C 69.9776 0.669202 -2.93159 0
M  V30 753 C 71.5256 0.760499 -3.03621 0
M  V30 754 C 72.0006 0.880383 -4.49459 0
M  V30 755 N 73.4916 0.944861 -4.53461 0
M  V30 756 C 74.2266 1.05716 -5.63571 0
M  V30 757 N 73.7226 1.13403 -6.83456 0
M  V30 758 N 75.5156 1.09152 -5.514 0
M  V30 759 H 67.6666 -0.618695 -2.03189 0
M  V30 760 H 69.9296 -0.215728 -0.923128 0
M  V30 761 H 69.6356 -0.212904 -3.51055 0
M  V30 762 H 69.5096 1.5361 -3.44505 0
M  V30 763 H 71.8966 1.63305 -2.45796 0
M  V30 764 H 71.9776 -0.131864 -2.5546 0
M  V30 765 H 71.6216 0.0123284 -5.07899 0
M  V30 766 H 71.5516 1.78802 -4.95316 0
M  V30 767 H 74.0426 0.896176 -3.6712 0
M  V30 768 H 74.3556 1.21921 -7.63122 0
M  V30 769 H 72.7006 1.10333 -6.86186 0
M  V30 770 H 75.8916 1.02805 -4.56671 0
M  V30 771 H 76.0646 1.17558 -6.37247 0
M  V30 772 N 69.4707 1.49531 0.497807 0
M  V30 773 C 70.4027 1.62559 1.61578 0
M  V30 774 C 71.4157 0.508134 1.54667 0
M  V30 775 O 72.6047 0.780309 1.60541 0
M  V30 776 C 69.7047 1.56925 3.00379 0
M  V30 777 C 68.8777 2.84257 3.3244 0
M  V30 778 C 67.9367 2.71632 4.50669 0
M  V30 779 O 66.9627 3.4557 4.52294 0
M  V30 780 N 68.1647 1.83391 5.5077 0
M  V30 781 H 70.9297 2.58981 1.50828 0
M  V30 782 H 68.4907 1.4666 0.685743 0
M  V30 783 H 70.4827 1.46129 3.77397 0
M  V30 784 H 69.0527 0.683483 3.05037 0
M  V30 785 H 68.2727 3.09381 2.44289 0
M  V30 786 H 69.5607 3.68666 3.5066 0
M  V30 787 H 68.9587 1.22583 5.52259 0
M  V30 788 H 67.5157 1.78515 6.26878 0
M  V30 789 N 70.9488 -0.749086 1.3866 0
M  V30 790 C 71.9118 -1.84457 1.36045 0
M  V30 791 C 72.9118 -1.58682 0.260122 0
M  V30 792 O 74.1018 -1.66343 0.517261 0
M  V30 793 C 71.2338 -3.22008 1.11911 0
M  V30 794 H 72.4268 -1.88182 2.33512 0
M  V30 795 H 69.9798 -0.951266 1.24019 0
M  V30 796 H 70.7148 -3.2395 0.150686 0
M  V30 797 H 70.4998 -3.42111 1.91579 0
M  V30 798 H 71.9898 -4.0208 1.12788 0
M  V30 799 N 72.4269 -1.23603 -0.977757 0
M  V30 800 C 73.3369 -1.03632 -2.1047 0
M  V30 801 C 74.3529 0.0199435 -1.73989 0
M  V30 802 O 75.5289 -0.176076 -2.00629 0
M  V30 803 C 72.5939 -0.63276 -3.40877 0
M  V30 804 C 71.6549 -1.76437 -3.91367 0
M  V30 805 C 70.8879 -1.37997 -5.15551 0
M  V30 806 O 71.1109 -0.265357 -5.69782 0
M  V30 807 O 70.0449 -2.20201 -5.60174 0
M  V30 808 H 73.8709 -1.98086 -2.30208 0
M  V30 809 H 71.4559 -1.02332 -1.08851 0
M  V30 810 H 73.3379 -0.418761 -4.19314 0
M  V30 811 H 72.0129 0.282754 -3.22463 0
M  V30 812 H 70.9199 -2.03304 -3.14036 0
M  V30 813 H 72.2529 -2.6583 -4.14241 0
M  V30 814 N 73.905 1.17692 -1.04816 0
M  V30 815 C 74.868 2.19787 -0.650117 0
M  V30 816 C 75.868 1.58044 0.296427 0
M  V30 817 O 77.058 1.74012 0.0808097 0
M  V30 818 C 74.19 3.40869 0.0456987 0
M  V30 819 H 75.383 2.56516 -1.5537 0
M  V30 820 H 72.936 1.31708 -0.841594 0
M  V30 821 H 73.671 3.09681 0.962726 0
M  V30 822 H 73.456 3.86928 -0.634727 0
M  V30 823 H 74.946 4.16445 0.310432 0
M  V30 824 N 75.3831 0.828654 1.34056 0
M  V30 825 C 76.6291 0.429279 1.98818 0
M  V30 826 C 76.9841 -0.998011 1.64492 0
M  V30 827 O 76.2771 -1.68652 0.909228 0
M  V30 828 C 76.4711 0.575226 3.52741 0
M  V30 829 C 76.3001 2.01515 4.02022 0
M  V30 830 C 75.0701 2.64825 4.30344 0
M  V30 831 C 77.2681 2.98261 4.18981 0
M  V30 832 N 75.2501 3.99998 4.65698 0
M  V30 833 C 76.6211 4.18356 4.57578 0
M  V30 834 C 78.6761 2.94802 4.01243 0
M  V30 835 C 77.3791 5.35454 4.80293 0
M  V30 836 C 79.4051 4.11121 4.25128 0
M  V30 837 C 78.7671 5.29969 4.64018 0
M  V30 838 H 74.8661 0.205304 0.754569 0
M  V30 839 H 77.4501 1.07457 1.62361 0
M  V30 840 H 75.6211 -0.0401962 3.88379 0
M  V30 841 H 77.3531 0.148292 4.04428 0
M  V30 842 H 74.1081 2.16027 4.21461 0
M  V30 843 H 74.5321 4.69653 4.87601 0
M  V30 844 H 79.1741 2.04054 3.70299 0
M  V30 845 H 76.8921 6.26755 5.10102 0
M  V30 846 H 80.4781 4.0985 4.12934 0
M  V30 847 H 79.3581 6.18479 4.82134 0
M  V30 848 N 76.8612 -1.46375 0.584142 0
M  V30 849 C 78.2772 -1.57694 0.245929 0
M  V30 850 C 78.4772 -1.57903 -1.25175 0
M  V30 851 O 77.5332 -1.49676 -2.03355 0
M  V30 852 C 78.8462 -2.87028 0.896402 0
M  V30 853 C 80.3942 -3.00662 0.870127 0
M  V30 854 C 80.8692 -4.32734 1.50017 0
M  V30 855 N 82.3602 -4.39436 1.46458 0
M  V30 856 C 83.0952 -5.40248 1.92144 0
M  V30 857 N 82.5912 -6.47726 2.4581 0
M  V30 858 N 84.3842 -5.31459 1.83052 0
M  V30 859 H 76.5352 -1.44483 1.55687 0
M  V30 860 H 78.7982 -0.689291 0.650831 0
M  V30 861 H 78.5042 -2.9269 1.95002 0
M  V30 862 H 78.3782 -3.75014 0.405486 0
M  V30 863 H 80.7652 -2.94581 -0.174871 0
M  V30 864 H 80.8462 -2.14148 1.39908 0
M  V30 865 H 80.4902 -4.39573 2.54437 0
M  V30 866 H 80.4202 -5.18025 0.946432 0
M  V30 867 H 82.9112 -3.62367 1.07231 0
M  V30 868 H 83.2242 -7.20863 2.78525 0
M  V30 869 H 81.5692 -6.48542 2.49836 0
M  V30 870 H 84.7602 -4.46396 1.40883 0
M  V30 871 H 84.9332 -6.09881 2.18973 0
M  V30 872 N 78.3393 -0.321999 -1.54275 0
M  V30 873 C 79.3023 0.531975 -2.22941 0
M  V30 874 C 80.3023 1.04478 -1.22234 0
M  V30 875 O 81.4923 0.937452 -1.46825 0
M  V30 876 C 78.6243 1.73874 -2.93224 0
M  V30 877 H 79.8173 -0.0682612 -2.99822 0
M  V30 878 H 77.3703 -0.0730644 -1.56129 0
M  V30 879 H 78.1053 2.37825 -2.20476 0
M  V30 880 H 77.8903 1.37847 -3.6707 0
M  V30 881 H 79.3803 2.34496 -3.45545 0
M  V30 882 N 79.8174 1.5752 -0.0501392 0
M  V30 883 C 81.0424 1.97376 0.636997 0
M  V30 884 C 81.4674 0.927466 1.63645 0
M  V30 885 O 80.8254 -0.10941 1.8097 0
M  V30 886 C 80.8734 3.36304 1.30123 0
M  V30 887 O 79.9774 3.34156 2.41689 0
M  V30 888 H 79.3184 0.642998 0.165679 0
M  V30 889 H 81.8484 2.04258 -0.118233 0
M  V30 890 H 81.8584 3.73008 1.65315 0
M  V30 891 H 80.5334 4.11993 0.568746 0
M  V30 892 H 79.1104 3.09196 2.08451 0
M  V30 893 N 81.2955 -0.223234 1.56011 0
M  V30 894 C 82.5435 -0.946003 1.78592 0
M  V30 895 C 82.8645 -1.84936 0.618349 0
M  V30 896 O 82.1345 -1.92473 -0.364833 0
M  V30 897 H 80.7145 -0.352298 0.658707 0
M  V30 898 H 83.3765 -0.235494 1.93472 0
M  V30 899 H 82.4725 -1.55381 2.70672 0
M  V30 900 N 82.7736 -1.49793 -0.48987 0
M  V30 901 C 84.1896 -1.36803 -0.822022 0
M  V30 902 C 84.3896 -0.409652 -1.97292 0
M  V30 903 O 83.4456 0.154614 -2.52026 0
M  V30 904 C 84.7586 -2.77768 -1.15175 0
M  V30 905 C 86.3066 -2.86549 -1.25931 0
M  V30 906 C 86.7816 -4.28306 -1.62228 0
M  V30 907 N 88.2726 -4.31169 -1.69256 0
M  V30 908 C 89.0076 -5.37832 -1.98807 0
M  V30 909 N 88.5036 -6.54726 -2.26507 0
M  V30 910 N 90.2966 -5.25258 -2.00152 0
M  V30 911 H 82.4476 -2.10691 0.268881 0
M  V30 912 H 84.7106 -0.946241 0.057728 0
M  V30 913 H 84.4166 -3.49648 -0.379335 0
M  V30 914 H 84.2906 -3.13836 -2.09253 0
M  V30 915 H 86.6776 -2.14899 -2.02243 0
M  V30 916 H 86.7586 -2.54049 -0.298776 0
M  V30 917 H 86.4026 -5.00486 -0.864622 0
M  V30 918 H 86.3326 -4.58279 -2.594 0
M  V30 919 H 88.8236 -3.4687 -1.49965 0
M  V30 920 H 89.1366 -7.31833 -2.48276 0
M  V30 921 H 87.4816 -6.57933 -2.23939 0
M  V30 922 H 90.6726 -4.32938 -1.77996 0
M  V30 923 H 90.8456 -6.08476 -2.22848 0
M  V30 924 N 84.2517 0.741722 -1.39055 0
M  V30 925 C 85.6627 1.31966 -1.32068 0
M  V30 926 C 86.0137 1.96192 0.0180797 0
M  V30 927 O 85.1387 1.95861 0.920196 0
M  V30 928 C 85.7337 2.39954 -2.39181 0
M  V30 929 C 84.2927 2.93438 -2.35735 0
M  V30 930 C 83.4397 1.66936 -2.21422 0
M  V30 931 H 86.3907 0.539721 -1.4924 0
M  V30 932 H 86.4117 3.20182 -2.05581 0
M  V30 933 H 85.9237 1.9318 -3.36605 0
M  V30 934 H 84.0247 3.4451 -1.41929 0
M  V30 935 H 84.1377 3.4701 -3.30335 0
M  V30 936 H 82.5017 1.91016 -1.68478 0
M  V30 937 H 83.2847 1.22224 -3.20806 0
M  V30 938 N 85.7298 1.2412 0.971189 0
M  V30 939 C 86.9778 1.07668 1.71032 0
M  V30 940 C 87.2988 -0.385797 1.91146 0
M  V30 941 O 86.5688 -1.27569 1.4867 0
M  V30 942 H 85.1488 0.395429 0.633755 0
M  V30 943 H 87.8108 1.55984 1.16855 0
M  V30 944 H 86.9068 1.57195 2.69622 0
M  V30 945 N 87.2079 -1.17134 1.05439 0
M  V30 946 C 88.4379 -1.91094 0.785274 0
M  V30 947 C 88.8459 -1.77198 -0.663142 0
M  V30 948 O 88.1889 -1.10835 -1.46497 0
M  V30 949 C 88.2509 -3.42594 1.08949 0
M  V30 950 C 87.9149 -3.80274 2.53458 0
M  V30 951 C 88.9119 -3.82912 3.51673 0
M  V30 952 C 86.5969 -4.11162 2.88532 0
M  V30 953 C 88.5909 -4.15913 4.83006 0
M  V30 954 C 86.2779 -4.43831 4.20068 0
M  V30 955 C 87.2759 -4.46185 5.17115 0
M  V30 956 O 86.9639 -4.78083 6.46291 0
M  V30 957 H 86.6959 -0.613073 0.284811 0
M  V30 958 H 89.2499 -1.49461 1.40893 0
M  V30 959 H 87.4799 -3.84534 0.408741 0
M  V30 960 H 89.1689 -3.97817 0.805991 0
M  V30 961 H 89.9349 -3.5917 3.25917 0
M  V30 962 H 85.8139 -4.085 2.13656 0
M  V30 963 H 89.3579 -4.17665 5.5875 0
M  V30 964 H 85.2549 -4.67037 4.45586 0
M  V30 965 H 86.0229 -4.9593 6.51149 0
M  V30 966 N 88.686 -0.835752 -1.33615 0
M  V30 967 C 89.926 -0.43599 -1.99696 0
M  V30 968 C 90.29 0.98557 -1.64774 0
M  V30 969 O 91.491 1.48889 -2.23798 0
M  V30 970 C 89.762 -0.646721 -3.515 0
M  V30 971 S 91.321 -0.341715 -4.37467 0
M  V30 972 H 88.139 -0.164136 -0.691795 0
M  V30 973 H 90.741 -1.08436 -1.62671 0
M  V30 974 H 89.445 -1.68077 -3.74404 0
M  V30 975 H 88.976 0.0159173 -3.93397 0
M  V30 976 H 90.991 0.839708 -4.89043 0
M  V30 977 N 90.1641 1.46063 -0.591896 0
M  V30 978 C 91.0941 2.33172 0.123673 0
M  V30 979 C 92.0751 1.45897 0.87453 0
M  V30 980 O 93.2601 1.74698 0.848181 0
M  V30 981 C 90.3901 3.28336 1.13194 0
M  V30 982 C 89.3441 4.25124 0.495324 0
M  V30 983 C 88.6701 5.09863 1.61071 0
M  V30 984 C 89.9701 5.19143 -0.573425 0
M  V30 985 H 91.6641 2.93252 -0.603646 0
M  V30 986 H 89.2101 1.41014 -0.291741 0
M  V30 987 H 91.1631 3.88137 1.64097 0
M  V30 988 H 89.8871 2.66383 1.88965 0
M  V30 989 H 88.5461 3.66599 0.00729452 0
M  V30 990 H 88.1941 4.44288 2.35832 0
M  V30 991 H 87.8941 5.75417 1.19035 0
M  V30 992 H 89.4181 5.72529 2.12233 0
M  V30 993 H 90.8321 5.73106 -0.1491 0
M  V30 994 H 89.2291 5.93089 -0.914636 0
M  V30 995 H 90.2991 4.62519 -1.45617 0
M  V30 996 N 91.6422 0.330177 1.54103 0
M  V30 997 C 92.8902 -0.269871 2.0029 0
M  V30 998 C 93.2112 -1.52133 1.21986 0
M  V30 999 O 92.4812 -1.93212 0.323438 0
M  V30 1000 H 91.0612 -0.10271 0.739905 0
M  V30 1001 H 93.7232 0.448249 1.89675 0
M  V30 1002 H 92.8192 -0.52166 3.07709 0
M  V30 1003 N 93.1203 -1.57491 0.0584922 0
M  V30 1004 C 94.3483 -1.97296 -0.623037 0
M  V30 1005 C 94.7633 -0.936338 -1.63946 0
M  V30 1006 O 94.1203 0.0785981 -1.82331 0
M  V30 1007 C 94.1713 -3.37183 -1.30345 0
M  V30 1008 O 93.8923 -4.36872 -0.32773 0
M  V30 1009 C 95.3933 -3.91788 -2.07406 0
M  V30 1010 H 92.6133 -0.649153 -0.169826 0
M  V30 1011 H 95.1573 -2.04106 0.12696 0
M  V30 1012 H 93.3123 -3.31502 -2.00463 0
M  V30 1013 H 93.7263 -5.18141 -0.814269 0
M  V30 1014 H 95.2003 -4.91926 -2.50425 0
M  V30 1015 H 95.6773 -3.27609 -2.92521 0
M  V30 1016 H 96.2833 -4.00829 -1.42184 0
M  V30 1017 N 94.5984 0.214957 -1.56127 0
M  V30 1018 C 96.0144 0.564948 -1.49267 0
M  V30 1019 C 96.2144 1.86827 -0.754838 0
M  V30 1020 O 95.2704 2.50745 -0.297198 0
M  V30 1021 C 96.5834 0.638071 -2.93852 0
M  V30 1022 C 98.1314 0.728253 -3.0441 0
M  V30 1023 C 98.6064 0.832663 -4.50367 0
M  V30 1024 N 100.097 0.896712 -4.54437 0
M  V30 1025 C 100.832 0.997324 -5.6466 0
M  V30 1026 N 100.328 1.06147 -6.8462 0
M  V30 1027 N 102.121 1.03297 -5.52527 0
M  V30 1028 H 94.2724 -0.640211 -2.02522 0
M  V30 1029 H 96.5354 -0.225507 -0.920788 0
M  V30 1030 H 96.2414 -0.250126 -3.50809 0
M  V30 1031 H 96.1154 1.49947 -3.46115 0
M  V30 1032 H 98.5024 1.60689 -2.47514 0
M  V30 1033 H 98.5834 -0.158952 -2.55306 0
M  V30 1034 H 98.2274 -0.0415417 -5.07883 0
M  V30 1035 H 98.1574 1.73538 -4.97184 0
M  V30 1036 H 100.648 0.857188 -3.6805 0
M  V30 1037 H 100.961 1.1382 -7.64372 0
M  V30 1038 H 99.3064 1.03049 -6.87318 0
M  V30 1039 H 102.497 0.979558 -4.57736 0
M  V30 1040 H 102.67 1.10793 -6.38458 0
M  V30 1041 N 96.0765 1.50051 0.48192 0
M  V30 1042 C 97.4875 1.5348 1.06305 0
M  V30 1043 C 97.8385 0.331997 1.93371 0
M  V30 1044 O 96.9635 -0.556256 2.09129 0
M  V30 1045 C 97.5585 2.7813 1.93466 0
M  V30 1046 C 96.1175 2.84275 2.46707 0
M  V30 1047 C 95.2645 2.47637 1.24785 0
M  V30 1048 H 98.2155 1.56472 0.264995 0
M  V30 1049 H 98.2365 2.59372 2.78399 0
M  V30 1050 H 97.7485 3.65654 1.30072 0
M  V30 1051 H 95.8495 2.01077 3.13686 0
M  V30 1052 H 95.9625 3.8691 2.82555 0
M  V30 1053 H 94.3265 1.99835 1.57918 0
M  V30 1054 H 95.1095 3.37457 0.630694 0
M  V30 1055 N 97.5546 -0.734337 1.39446 0
M  V30 1056 C 98.4846 -1.86155 1.40955 0
M  V30 1057 C 99.4656 -1.67898 0.272827 0
M  V30 1058 O 100.651 -1.88207 0.478743 0
M  V30 1059 C 97.7806 -3.23912 1.25294 0
M  V30 1060 C 96.7346 -3.56808 2.36373 0
M  V30 1061 C 96.0606 -4.93508 2.058 0
M  V30 1062 C 97.3606 -3.59713 3.78687 0
M  V30 1063 H 99.0546 -1.8515 2.35287 0
M  V30 1064 H 96.6006 -0.889367 1.13253 0
M  V30 1065 H 98.5536 -4.02443 1.2497 0
M  V30 1066 H 97.2776 -3.25446 0.274308 0
M  V30 1067 H 95.9366 -2.80606 2.35914 0
M  V30 1068 H 95.5846 -4.91623 1.06374 0
M  V30 1069 H 95.2846 -5.16486 2.80208 0
M  V30 1070 H 96.8086 -5.74396 2.07128 0
M  V30 1071 H 98.2226 -4.2832 3.81071 0
M  V30 1072 H 96.6196 -3.94209 4.52459 0
M  V30 1073 H 97.6896 -2.59504 4.09617 0
M  V30 1074 N 99.0327 -1.24633 -0.964593 0
M  V30 1075 C 100.258 -1.11596 -1.74818 0
M  V30 1076 C 100.683 0.32723 -1.85232 0
M  V30 1077 O 100.041 1.23695 -1.32549 0
M  V30 1078 C 100.089 -1.76397 -3.1451 0
M  V30 1079 O 99.1927 -1.03685 -3.99153 0
M  V30 1080 H 98.5337 -0.390196 -0.537255 0
M  V30 1081 H 101.064 -1.65002 -1.20977 0
M  V30 1082 H 101.074 -1.8228 -3.65018 0
M  V30 1083 H 99.7487 -2.81401 -3.06246 0
M  V30 1084 H 98.3257 -1.05611 -3.57632 0
M  V30 1085 N 100.511 1.16574 -1.06058 0
M  V30 1086 C 101.739 1.90952 -0.796552 0
M  V30 1087 C 102.154 1.77302 0.648808 0
M  V30 1088 O 101.511 1.11605 1.44397 0
M  V30 1089 C 101.562 3.41736 -1.17894 0
M  V30 1090 O 101.283 3.54975 -2.56758 0
M  V30 1091 C 102.784 4.33169 -0.942308 0
M  V30 1092 H 100.004 0.605594 -0.288959 0
M  V30 1093 H 102.548 1.47777 -1.41358 0
M  V30 1094 H 100.703 3.82623 -0.606491 0
M  V30 1095 H 101.117 4.4846 -2.72 0
M  V30 1096 H 102.591 5.37439 -1.25952 0
M  V30 1097 H 103.068 4.3903 0.122078 0
M  V30 1098 H 103.674 3.98007 -1.49902 0
M  V30 1099 N 101.989 0.842826 1.3317 0
M  V30 1100 C 102.952 0.284065 2.27433 0
M  V30 1101 C 103.952 -0.54948 1.5112 0
M  V30 1102 O 105.142 -0.362699 1.70382 0
M  V30 1103 C 102.274 -0.599384 3.35589 0
M  V30 1104 H 103.467 1.11589 2.78366 0
M  V30 1105 H 101.02 0.616221 1.4364 0
M  V30 1106 H 101.755 -1.45349 2.89904 0
M  V30 1107 H 101.54 -0.00291266 3.921 0
M  V30 1108 H 103.03 -0.983488 4.05854 0
M  V30 1109 N 103.467 -1.45747 0.599634 0
M  V30 1110 C 104.883 -1.57424 0.26264 0
M  V30 1111 C 105.083 -1.59222 -1.23493 0
M  V30 1112 O 104.139 -1.51825 -2.01756 0
M  V30 1113 C 105.452 -2.86061 0.926795 0
M  V30 1114 C 107 -2.99722 0.901967 0
M  V30 1115 C 107.475 -4.31119 1.54598 0
M  V30 1116 N 108.966 -4.37858 1.5111 0
M  V30 1117 C 109.701 -5.3818 1.97863 0
M  V30 1118 N 109.197 -6.45083 2.52666 0
M  V30 1119 N 110.99 -5.29487 1.88679 0
M  V30 1120 H 103.141 -1.42823 1.57211 0
M  V30 1121 H 105.404 -0.68235 0.658105 0
M  V30 1122 H 105.11 -2.90605 1.98095 0
M  V30 1123 H 104.984 -3.74563 0.445238 0
M  V30 1124 H 107.371 -2.9475 -0.143617 0
M  V30 1125 H 107.452 -2.12652 1.42171 0
M  V30 1126 H 107.096 -4.36849 2.59085 0
M  V30 1127 H 107.026 -5.16992 1.00132 0
M  V30 1128 H 109.517 -3.61209 1.11068 0
M  V30 1129 H 109.83 -7.17869 2.86155 0
M  V30 1130 H 108.175 -6.45856 2.56701 0
M  V30 1131 H 111.366 -4.44877 1.4561 0
M  V30 1132 H 111.539 -6.07524 2.25429 0
M  V30 1133 N 104.945 -0.338344 -1.53925 0
M  V30 1134 C 106.356 0.146651 -1.86123 0
M  V30 1135 C 106.707 1.5042 -1.2597 0
M  V30 1136 O 105.832 2.08723 -0.571294 0
M  V30 1137 C 106.427 0.272879 -3.37699 0
M  V30 1138 C 104.986 0.702103 -3.69794 0
M  V30 1139 C 104.133 -0.167304 -2.76795 0
M  V30 1140 H 107.084 -0.558123 -1.48562 0
M  V30 1141 H 107.105 1.10128 -3.64214 0
M  V30 1142 H 106.617 -0.715307 -3.81451 0
M  V30 1143 H 104.718 1.6995 -3.31584 0
M  V30 1144 H 104.831 0.495604 -4.7653 0
M  V30 1145 H 103.195 0.359527 -2.5215 0
M  V30 1146 H 103.978 -1.15253 -3.23375 0
M  V30 1147 N 106.423 1.57458 -0.0668435 0
M  V30 1148 C 107.834 1.80776 0.466558 0
M  V30 1149 C 108.185 0.980361 1.69951 0
M  V30 1150 O 107.31 0.201441 2.1546 0
M  V30 1151 C 107.905 3.27881 0.85321 0
M  V30 1152 C 106.464 3.52062 1.3315 0
M  V30 1153 C 105.611 2.75513 0.314264 0
M  V30 1154 H 108.562 1.5598 -0.292588 0
M  V30 1155 H 108.583 3.39659 1.715 0
M  V30 1156 H 108.095 3.88075 -0.0443439 0
M  V30 1157 H 106.196 2.97167 2.24772 0
M  V30 1158 H 106.309 4.60762 1.31285 0
M  V30 1159 H 104.673 2.42123 0.790492 0
M  V30 1160 H 105.456 3.38442 -0.575477 0
M  V30 1161 N 107.901 -0.206675 1.56239 0
M  V30 1162 C 109.312 -0.772383 1.69974 0
M  V30 1163 C 109.663 -1.84353 0.671436 0
M  V30 1164 O 108.788 -2.15695 -0.174491 0
M  V30 1165 C 109.383 -1.40779 3.08167 0
M  V30 1166 C 107.942 -1.92072 3.23706 0
M  V30 1167 C 107.089 -0.786347 2.65917 0
M  V30 1168 H 110.04 0.0182223 1.5869 0
M  V30 1169 H 110.061 -2.27696 3.04852 0
M  V30 1170 H 109.573 -0.627958 3.82986 0
M  V30 1171 H 107.674 -2.7281 2.53782 0
M  V30 1172 H 107.787 -2.09046 4.31087 0
M  V30 1173 H 106.151 -1.1976 2.24788 0
M  V30 1174 H 106.934 -0.0189416 3.43295 0
M  V30 1175 N 109.379 -1.50304 -0.473955 0
M  V30 1176 C 110.79 -1.54042 -1.0549 0
M  V30 1177 C 111.141 -0.342248 -1.93192 0
M  V30 1178 O 110.266 0.545157 -2.09421 0
M  V30 1179 C 110.861 -2.79152 -1.91989 0
M  V30 1180 C 109.42 -2.8558 -2.45196 0
M  V30 1181 C 108.567 -2.48295 -1.2347 0
M  V30 1182 H 111.518 -1.5661 -0.256693 0
M  V30 1183 H 111.539 -2.60845 -2.7702 0
M  V30 1184 H 111.051 -3.66339 -1.28131 0
M  V30 1185 H 109.152 -2.02738 -3.12615 0
M  V30 1186 H 109.265 -3.88403 -2.80499 0
M  V30 1187 H 107.629 -2.00669 -1.56856 0
M  V30 1188 H 108.412 -3.37787 -0.612789 0
M  V30 1189 N 110.857 0.726932 -1.39834 0
M  V30 1190 C 112.103 1.48771 -1.38704 0
M  V30 1191 C 112.458 1.92394 0.0146387 0
M  V30 1192 O 111.751 1.64474 0.982797 0
M  V30 1193 C 111.945 2.73495 -2.30077 0
M  V30 1194 C 111.774 2.42068 -3.78989 0
M  V30 1195 C 110.544 2.33966 -4.4787 0
M  V30 1196 C 112.742 2.0708 -4.70768 0
M  V30 1197 N 110.724 1.95095 -5.82075 0
M  V30 1198 C 112.095 1.78719 -5.93683 0
M  V30 1199 C 114.15 1.93618 -4.58712 0
M  V30 1200 C 112.853 1.3825 -7.05889 0
M  V30 1201 C 114.879 1.54553 -5.70848 0
M  V30 1202 C 114.241 1.27082 -6.92842 0
M  V30 1203 H 110.34 0.542919 -0.562817 0
M  V30 1204 H 112.924 0.84408 -1.75452 0
M  V30 1205 H 111.095 3.35625 -1.95474 0
M  V30 1206 H 112.827 3.39755 -2.19883 0
M  V30 1207 H 109.582 2.51331 -4.0141 0
M  V30 1208 H 110.006 1.7823 -6.53118 0
M  V30 1209 H 114.648 2.13522 -3.64922 0
M  V30 1210 H 112.366 1.17088 -7.99572 0
M  V30 1211 H 115.952 1.44731 -5.6351 0
M  V30 1212 H 114.832 0.973069 -7.78139 0
M  V30 1213 N 112.336 1.25143 0.95797 0
M  V30 1214 C 113.561 1.12521 1.74223 0
M  V30 1215 C 113.986 -0.317402 1.85403 0
M  V30 1216 O 113.344 -1.2299 1.33204 0
M  V30 1217 C 113.392 1.78062 3.1357 0
M  V30 1218 O 112.496 1.058 3.98598 0
M  V30 1219 H 111.837 0.39304 0.535178 0
M  V30 1220 H 114.367 1.65641 1.201 0
M  V30 1221 H 114.377 1.84213 3.64046 0
M  V30 1222 H 113.052 2.83021 3.04749 0
M  V30 1223 H 111.629 1.07506 3.57067 0
M  V30 1224 N 113.814 -1.1601 1.06675 0
M  V30 1225 C 114.746 -2.20115 0.638921 0
M  V30 1226 C 115.759 -1.59916 -0.305057 0
M  V30 1227 O 116.948 -1.78245 -0.0954446 0
M  V30 1228 C 114.048 -3.38798 -0.0830083 0
M  V30 1229 C 113.221 -4.2855 0.875426 0
M  V30 1230 C 112.28 -5.25849 0.192042 0
M  V30 1231 O 111.306 -5.63102 0.830921 0
M  V30 1232 N 112.508 -5.70648 -1.06493 0
M  V30 1233 H 115.273 -2.57439 1.53444 0
M  V30 1234 H 112.834 -1.31057 0.950557 0
M  V30 1235 H 114.826 -4.00936 -0.550685 0
M  V30 1236 H 113.396 -2.99947 -0.880386 0
M  V30 1237 H 112.616 -3.63617 1.52238 0
M  V30 1238 H 113.904 -4.85393 1.52548 0
M  V30 1239 H 113.302 -5.42482 -1.60405 0
M  V30 1240 H 111.859 -6.34859 -1.47641 0
M  V30 1241 N 115.292 -0.849877 -1.32721 0
M  V30 1242 C 116.239 -0.289033 -2.28983 0
M  V30 1243 C 117.209 0.601324 -1.54833 0
M  V30 1244 O 118.394 0.537253 -1.8308 0
M  V30 1245 C 115.534 0.520623 -3.4115 0
M  V30 1246 C 114.647 -0.394989 -4.3019 0
M  V30 1247 C 113.782 0.426834 -5.29482 0
M  V30 1248 C 112.821 -0.486476 -6.10164 0
M  V30 1249 N 111.958 0.297879 -7.01468 0
M  V30 1250 H 116.798 -1.11519 -2.76347 0
M  V30 1251 H 114.335 -0.56138 -1.35967 0
M  V30 1252 H 116.293 1.00563 -4.04899 0
M  V30 1253 H 114.923 1.31165 -2.9495 0
M  V30 1254 H 113.975 -0.99836 -3.67065 0
M  V30 1255 H 115.287 -1.09612 -4.86607 0
M  V30 1256 H 114.441 0.975205 -5.98811 0
M  V30 1257 H 113.18 1.16136 -4.73671 0
M  V30 1258 H 112.185 -1.04677 -5.39743 0
M  V30 1259 H 113.41 -1.21953 -6.6806 0
M  V30 1260 H 111.356 1.01558 -6.48091 0
M  V30 1261 H 111.273 -0.344318 -7.55216 0
M  V30 1262 H 112.541 0.828131 -7.75089 0
M  V30 1263 N 116.77 1.45427 -0.607355 0
M  V30 1264 C 118.018 2.01841 -0.102253 0
M  V30 1265 C 118.339 1.47832 1.27164 0
M  V30 1266 O 117.609 0.672497 1.83995 0
M  V30 1267 H 116.189 0.746188 -0.0348101 0
M  V30 1268 H 118.851 1.78229 -0.7887 0
M  V30 1269 H 117.947 3.12057 -0.0518585 0
M  V30 1270 N 118.248 0.346503 1.53744 0
M  V30 1271 C 119.659 -0.136779 1.86198 0
M  V30 1272 C 120.01 -1.49749 1.26766 0
M  V30 1273 O 119.135 -2.08417 0.582355 0
M  V30 1274 C 119.73 -0.254966 3.37839 0
M  V30 1275 C 118.289 -0.682482 3.70161 0
M  V30 1276 C 117.436 0.181981 2.76702 0
M  V30 1277 H 120.387 0.565994 1.48264 0
M  V30 1278 H 120.408 -1.08195 3.64793 0
M  V30 1279 H 119.92 0.735526 3.81066 0
M  V30 1280 H 118.021 -1.68189 3.3248 0
M  V30 1281 H 118.134 -0.470326 4.76786 0
M  V30 1282 H 116.498 -0.34615 2.52337 0
M  V30 1283 H 117.281 1.16966 3.2276 0
M  V30 1284 N 119.726 -1.57421 0.075193 0
M  V30 1285 C 120.974 -1.93236 -0.591974 0
M  V30 1286 C 121.295 -0.956241 -1.69944 0
M  V30 1287 O 120.565 -0.00494792 -1.95899 0
M  V30 1288 H 119.145 -0.713355 -0.22166 0
M  V30 1289 H 121.807 -1.9444 0.133848 0
M  V30 1290 H 120.903 -2.95131 -1.01509 0
M  V30 1291 N 121.204 0.198386 -1.56346 0
M  V30 1292 C 122.481 0.944982 -1.71258 0
M  V30 1293 C 122.861 2.0151 -0.629048 0
M  V30 1294 O 122.209 2.25639 0.360473 0
M  V30 1295 C 122.419 1.5344 -3.1346 0
M  V30 1296 C 123.767 2.01778 -3.73591 0
M  V30 1297 O 124.791 1.63288 -3.16568 0
M  V30 1298 O 123.65 2.72594 -4.73661 0
M  V30 1299 H 120.744 0.442939 -0.69838 0
M  V30 1300 H 123.29 0.188342 -1.68652 0
M  V30 1301 H 122.062 0.762869 -3.83792 0
M  V30 1302 H 121.685 2.35596 -3.20282 0
M  V30 1303 N 122.682 1.50554 0.465978 0
M  V30 1304 C 123.907 1.65838 1.24549 0
M  V30 1305 C 124.332 0.343486 1.84937 0
M  V30 1306 O 123.69 -0.69324 1.67523 0
M  V30 1307 C 123.738 2.75533 2.32624 0
M  V30 1308 O 122.842 2.37142 3.37398 0
M  V30 1309 H 122.183 0.553893 0.366194 0
M  V30 1310 H 124.713 1.96959 0.553927 0
M  V30 1311 H 124.723 2.98763 2.77857 0
M  V30 1312 H 123.398 3.70962 1.88043 0
M  V30 1313 H 121.975 2.24377 2.97841 0
M  V30 1314 N 124.16 -0.719506 1.40217 0
M  V30 1315 C 125.388 -1.50864 1.41589 0
M  V30 1316 C 125.803 -1.88794 0.0145275 0
M  V30 1317 O 125.16 -1.55174 -0.960594 0
M  V30 1318 C 125.211 -2.78646 2.30302 0
M  V30 1319 O 124.932 -2.42321 3.64983 0
M  V30 1320 C 126.433 -3.72569 2.40224 0
M  V30 1321 H 123.653 -0.465709 0.48307 0
M  V30 1322 H 126.197 -0.88785 1.84221 0
M  V30 1323 H 124.352 -3.37019 1.91042 0
M  V30 1324 H 124.766 -3.24514 4.12057 0
M  V30 1325 H 126.24 -4.5908 3.06512 0
M  V30 1326 H 126.717 -4.15403 1.42608 0
M  V30 1327 H 127.323 -3.20109 2.80019 0
M  V30 1328 N 125.638 -1.25649 -0.95132 0
M  V30 1329 C 127.054 -1.02542 -1.223 0
M  V30 1330 C 127.254 0.255715 -1.99871 0
M  V30 1331 O 126.31 0.967558 -2.33226 0
M  V30 1332 C 127.623 -2.25065 -1.99415 0
M  V30 1333 C 129.171 -2.29861 -2.12446 0
M  V30 1334 C 129.646 -3.52048 -2.92961 0
M  V30 1335 N 131.137 -3.52465 -3.00538 0
M  V30 1336 C 131.872 -4.43672 -3.63239 0
M  V30 1337 N 131.368 -5.45157 -4.27523 0
M  V30 1338 N 133.161 -4.31346 -3.60412 0
M  V30 1339 H 125.312 -2.07951 -0.432471 0
M  V30 1340 H 127.575 -0.91339 -0.253816 0
M  V30 1341 H 127.281 -3.18194 -1.49817 0
M  V30 1342 H 127.155 -2.28502 -3.00111 0
M  V30 1343 H 129.542 -1.37252 -2.61239 0
M  V30 1344 H 129.623 -2.3044 -1.11044 0
M  V30 1345 H 129.267 -4.44981 -2.44856 0
M  V30 1346 H 129.197 -3.48715 -3.94596 0
M  V30 1347 H 131.688 -2.79056 -2.54826 0
M  V30 1348 H 132.001 -6.10958 -4.73234 0
M  V30 1349 H 130.346 -5.49025 -4.26141 0
M  V30 1350 H 133.537 -3.51288 -3.09377 0
M  V30 1351 H 133.71 -5.02624 -4.0899 0
M  V30 1352 N 127.117 1.15442 -1.07289 0
M  V30 1353 C 128.528 1.67803 -0.818475 0
M  V30 1354 C 128.879 1.8489 0.656507 0
M  V30 1355 O 128.004 1.55176 1.50829 0
M  V30 1356 C 128.599 3.04805 -1.47917 0
M  V30 1357 C 127.158 3.54245 -1.27229 0
M  V30 1358 C 126.305 2.29986 -1.54925 0
M  V30 1359 H 129.256 0.996646 -1.23502 0
M  V30 1360 H 129.277 3.69702 -0.90005 0
M  V30 1361 H 128.789 2.92336 -2.55267 0
M  V30 1362 H 126.89 3.71956 -0.21899 0
M  V30 1363 H 127.003 4.35723 -1.99203 0
M  V30 1364 H 125.367 2.35496 -0.970242 0
M  V30 1365 H 126.15 2.20105 -2.63455 0
M  V30 1366 N 128.595 0.856903 1.32268 0
M  V30 1367 C 129.82 0.474569 2.01897 0
M  V30 1368 C 130.245 -0.921766 1.63967 0
M  V30 1369 O 129.603 -1.60589 0.84148 0
M  V30 1370 C 129.651 0.623799 3.55164 0
M  V30 1371 O 128.755 -0.342459 4.10976 0
M  V30 1372 H 128.096 0.190422 0.63611 0
M  V30 1373 H 130.626 1.15672 1.68764 0
M  V30 1374 H 130.636 0.512169 4.04773 0
M  V30 1375 H 129.311 1.64202 3.82113 0
M  V30 1376 H 127.888 -0.18688 3.72431 0
M  V30 1377 N 130.073 -1.45103 0.615059 0
M  V30 1378 C 131.02 -2.30586 -0.0993978 0
M  V30 1379 C 131.99 -1.42544 -0.852669 0
M  V30 1380 O 133.175 -1.71465 -0.836917 0
M  V30 1381 C 130.315 -3.27572 -1.08583 0
M  V30 1382 C 129.428 -4.30717 -0.332656 0
M  V30 1383 C 128.563 -5.14807 -1.30947 0
M  V30 1384 C 127.602 -6.09673 -0.544538 0
M  V30 1385 N 126.739 -6.86517 -1.47101 0
M  V30 1386 H 131.579 -2.91144 0.635542 0
M  V30 1387 H 129.116 -1.4346 0.325206 0
M  V30 1388 H 131.074 -3.82276 -1.67095 0
M  V30 1389 H 129.704 -2.68751 -1.78809 0
M  V30 1390 H 128.756 -3.78615 0.368107 0
M  V30 1391 H 130.068 -4.98102 0.263842 0
M  V30 1392 H 129.222 -5.73948 -1.96643 0
M  V30 1393 H 127.961 -4.47458 -1.9399 0
M  V30 1394 H 126.966 -5.49656 0.126003 0
M  V30 1395 H 128.191 -6.79052 0.080947 0
M  V30 1396 H 126.137 -6.21851 -2.08895 0
M  V30 1397 H 126.054 -7.50281 -0.928137 0
M  V30 1398 H 127.322 -7.50194 -2.11731 0
M  V30 1399 N 131.551 -0.354651 -1.53558 0
M  V30 1400 C 132.962 0.126902 -1.86268 0
M  V30 1401 C 133.313 1.49075 -1.27558 0
M  V30 1402 O 132.438 2.08105 -0.5934 0
M  V30 1403 C 133.033 0.237046 -3.3797 0
M  V30 1404 C 131.592 0.662842 -3.70518 0
M  V30 1405 C 130.739 -0.196652 -2.76602 0
M  V30 1406 H 133.69 -0.573849 -1.47962 0
M  V30 1407 H 133.711 1.06259 -3.65362 0
M  V30 1408 H 133.223 -0.755725 -3.80671 0
M  V30 1409 H 131.324 1.66424 -3.33367 0
M  V30 1410 H 131.437 0.445034 -4.77029 0
M  V30 1411 H 129.801 0.332763 -2.52517 0
M  V30 1412 H 130.584 -1.18676 -3.22135 0
M  V30 1413 N 133.029 1.57378 -0.0835403 0
M  V30 1414 C 134.277 1.93547 0.581718 0
M  V30 1415 C 134.598 0.96524 1.69435 0
M  V30 1416 O 133.868 0.0153369 1.95894 0
M  V30 1417 H 132.448 0.714521 0.217874 0
M  V30 1418 H 135.11 1.94366 -0.144158 0
M  V30 1419 H 134.206 2.95665 0.999423 0
M  V30 1420 N 134.507 -0.190092 1.56449 0
M  V30 1421 C 135.918 -0.754312 1.70784 0
M  V30 1422 C 136.269 -1.83631 0.690951 0
M  V30 1423 O 135.394 -2.15868 -0.151604 0
M  V30 1424 C 135.989 -1.37503 3.09642 0
M  V30 1425 C 134.548 -1.88628 3.25725 0
M  V30 1426 C 133.695 -0.758098 2.66736 0
M  V30 1427 H 136.646 0.0350524 1.58661 0
M  V30 1428 H 136.667 -2.2445 3.0725 0
M  V30 1429 H 136.179 -0.587302 3.83631 0
M  V30 1430 H 134.28 -2.70103 2.56661 0
M  V30 1431 H 134.393 -2.04462 4.3328 0
M  V30 1432 H 132.757 -1.17369 2.26046 0
M  V30 1433 H 133.54 0.0174705 3.43296 0
M  V30 1434 N 135.985 -1.50799 -0.457987 0
M  V30 1435 C 137.231 -1.62683 -1.21088 0
M  V30 1436 C 137.564 -0.332268 -1.91336 0
M  V30 1437 O 136.839 0.667043 -1.82704 0
M  V30 1438 C 137.122 -2.81615 -2.24422 0
M  V30 1439 C 136.975 -4.20989 -1.58392 0
M  V30 1440 C 138.294 -2.96085 -3.2561 0
M  V30 1441 H 135.413 -0.592087 -0.438864 0
M  V30 1442 H 138.055 -1.83225 -0.50286 0
M  V30 1443 H 136.205 -2.64231 -2.84806 0
M  V30 1444 H 137.877 -4.49994 -1.01504 0
M  V30 1445 H 136.12 -4.24641 -0.886704 0
M  V30 1446 H 136.791 -5.0016 -2.33547 0
M  V30 1447 H 139.267 -3.12042 -2.75262 0
M  V30 1448 H 138.143 -3.80902 -3.95228 0
M  V30 1449 H 138.404 -2.0726 -3.90507 0
M  V30 1450 N 137.463 0.71206 -1.40597 0
M  V30 1451 C 138.688 1.50617 -1.42581 0
M  V30 1452 C 139.113 1.88079 -0.0282102 0
M  V30 1453 O 138.471 1.53511 0.964579 0
M  V30 1454 C 138.519 2.7557 -2.3258 0
M  V30 1455 O 137.623 3.72414 -1.77148 0
M  V30 1456 H 136.964 0.453966 -0.484573 0
M  V30 1457 H 139.494 0.876649 -1.84868 0
M  V30 1458 H 139.504 3.2406 -2.47889 0
M  V30 1459 H 138.179 2.47639 -3.34138 0
M  V30 1460 H 136.756 3.31276 -1.71204 0
M  V30 1461 N 138.941 1.26152 0.944643 0
M  V30 1462 C 140.187 1.12665 1.69346 0
M  V30 1463 C 140.542 -0.3273 1.89596 0
M  V30 1464 O 139.835 -1.23717 1.46303 0
M  V30 1465 C 140.029 1.82541 3.07268 0
M  V30 1466 C 139.858 3.34582 3.00475 0
M  V30 1467 C 138.628 4.03863 3.03681 0
M  V30 1468 C 140.826 4.30828 2.80877 0
M  V30 1469 N 138.808 5.42603 2.87151 0
M  V30 1470 C 140.179 5.5672 2.7288 0
M  V30 1471 C 142.234 4.21122 2.65633 0
M  V30 1472 C 140.937 6.74013 2.51196 0
M  V30 1473 C 142.963 5.38118 2.45323 0
M  V30 1474 C 142.325 6.62955 2.38055 0
M  V30 1475 H 138.424 0.467041 0.627214 0
M  V30 1476 H 141.008 1.59391 1.11815 0
M  V30 1477 H 139.179 1.38296 3.62945 0
M  V30 1478 H 140.911 1.61708 3.70989 0
M  V30 1479 H 137.666 3.55198 3.1326 0
M  V30 1480 H 138.09 6.15443 2.82063 0
M  V30 1481 H 142.732 3.25344 2.70021 0
M  V30 1482 H 140.45 7.6989 2.4555 0
M  V30 1483 H 144.036 5.32475 2.34439 0
M  V30 1484 H 142.916 7.51959 2.22546 0
M  V30 1485 N 140.419 -1.14872 1.07899 0
M  V30 1486 C 141.366 -2.19791 0.704319 0
M  V30 1487 C 142.336 -1.63238 -0.306987 0
M  V30 1488 O 143.521 -1.8983 -0.192171 0
M  V30 1489 C 140.661 -3.44911 0.114244 0
M  V30 1490 C 139.774 -4.15637 1.1777 0
M  V30 1491 C 138.909 -5.28324 0.552037 0
M  V30 1492 C 137.948 -5.90875 1.59789 0
M  V30 1493 N 137.085 -6.95022 0.994404 0
M  V30 1494 H 141.925 -2.5119 1.60336 0
M  V30 1495 H 139.462 -1.23356 0.801352 0
M  V30 1496 H 141.42 -4.16477 -0.245544 0
M  V30 1497 H 140.05 -3.14011 -0.74813 0
M  V30 1498 H 139.102 -3.42512 1.65499 0
M  V30 1499 H 140.414 -4.5823 1.97046 0
M  V30 1500 H 139.568 -6.06538 0.1402 0
M  V30 1501 H 138.307 -4.86939 -0.272431 0
M  V30 1502 H 137.312 -5.11369 2.01945 0
M  V30 1503 H 138.537 -6.34337 2.42474 0
M  V30 1504 H 136.483 -6.55722 0.190939 0
M  V30 1505 H 136.4 -7.36073 1.72432 0
M  V30 1506 H 137.668 -7.77123 0.608253 0
M  V30 1507 N 141.898 -0.863906 -1.31812 0
M  V30 1508 C 143.123 -0.48527 -2.01643 0
M  V30 1509 C 143.548 0.913058 -1.64453 0
M  V30 1510 O 142.906 1.6014 -0.849985 0
M  V30 1511 C 142.954 -0.642625 -3.54828 0
M  V30 1512 O 142.058 0.320659 -4.11151 0
M  V30 1513 H 141.399 -0.193793 -0.635091 0
M  V30 1514 H 143.929 -1.16565 -1.68148 0
M  V30 1515 H 143.939 -0.533628 -4.04495 0
M  V30 1516 H 142.614 -1.66227 -3.81237 0
M  V30 1517 H 141.191 0.167126 -3.72525 0
M  V30 1518 N 143.376 1.44774 -0.622745 0
M  V30 1519 C 144.306 2.33382 0.0741861 0
M  V30 1520 C 145.287 1.47719 0.843387 0
M  V30 1521 O 146.472 1.76458 0.810934 0
M  V30 1522 C 143.602 3.30663 1.06204 0
M  V30 1523 C 142.556 4.26079 0.405037 0
M  V30 1524 C 141.882 5.13165 1.5022 0
M  V30 1525 C 143.182 5.1781 -0.683414 0
M  V30 1526 H 144.876 2.91905 -0.665713 0
M  V30 1527 H 142.422 1.40363 -0.321587 0
M  V30 1528 H 144.375 3.9153 1.55827 0
M  V30 1529 H 143.099 2.70331 1.83272 0
M  V30 1530 H 141.758 3.66532 -0.0704683 0
M  V30 1531 H 141.406 4.49191 2.26355 0
M  V30 1532 H 141.106 5.77812 1.06803 0
M  V30 1533 H 142.63 5.76902 2.00041 0
M  V30 1534 H 144.044 5.72661 -0.270631 0
M  V30 1535 H 142.441 5.91015 -1.04023 0
M  V30 1536 H 143.511 4.59326 -1.55395 0
M  V30 1537 N 144.854 0.36279 1.53368 0
M  V30 1538 C 145.817 -0.472679 2.24273 0
M  V30 1539 C 146.817 -1.012 1.24961 0
M  V30 1540 O 148.007 -0.898194 1.49259 0
M  V30 1541 C 145.139 -1.66039 2.97731 0
M  V30 1542 H 146.332 0.14773 2.99536 0
M  V30 1543 H 143.885 0.114434 1.55881 0
M  V30 1544 H 144.62 -2.31896 2.26704 0
M  V30 1545 H 144.405 -1.28066 3.70596 0
M  V30 1546 H 145.895 -2.25252 3.51641 0
M  V30 1547 N 146.332 -1.57332 0.0918853 0
M  V30 1548 C 147.581 -1.93412 -0.572249 0
M  V30 1549 C 147.894 -0.975515 -1.69538 0
M  V30 1550 O 149.1 -1.22991 -2.42045 0
M  V30 1551 C 147.556 -3.43648 -1.0693 0
M  V30 1552 C 147.164 -4.47994 0.0239049 0
M  V30 1553 C 148.908 -3.88695 -1.70635 0
M  V30 1554 C 146.815 -5.89381 -0.488319 0
M  V30 1555 H 145.745 -0.721939 -0.217532 0
M  V30 1556 H 148.396 -1.82735 0.167369 0
M  V30 1557 H 146.778 -3.49466 -1.8625 0
M  V30 1558 H 147.952 -4.53815 0.799277 0
M  V30 1559 H 146.267 -4.12536 0.565946 0
M  V30 1560 H 148.864 -4.91725 -2.10025 0
M  V30 1561 H 149.207 -3.27166 -2.57426 0
M  V30 1562 H 149.74 -3.85564 -0.979023 0
M  V30 1563 H 146.479 -6.54602 0.342906 0
M  V30 1564 H 145.999 -5.87037 -1.23077 0
M  V30 1565 H 147.678 -6.39863 -0.958317 0
M  V30 1566 N 147.81 0.181792 -1.56548 0
M  V30 1567 C 149.038 0.915947 -1.85521 0
M  V30 1568 C 149.453 1.76282 -0.676016 0
M  V30 1569 O 148.81 1.79012 0.355077 0
M  V30 1570 C 148.861 1.80126 -3.13427 0
M  V30 1571 O 148.582 0.988562 -4.26801 0
M  V30 1572 C 150.083 2.64597 -3.55673 0
M  V30 1573 H 147.303 0.26661 -0.61576 0
M  V30 1574 H 149.847 0.185039 -2.03661 0
M  V30 1575 H 148.002 2.48563 -2.97145 0
M  V30 1576 H 148.416 1.59308 -4.99721 0
M  V30 1577 H 149.89 3.2235 -4.48101 0
M  V30 1578 H 150.367 3.38958 -2.79292 0
M  V30 1579 H 150.973 2.0151 -3.74532 0
M  V30 1580 N 149.288 1.51039 0.449983 0
M  V30 1581 C 150.535 1.63081 1.20045 0
M  V30 1582 C 150.863 0.341024 1.91487 0
M  V30 1583 O 150.118 -0.674276 1.83717 0
M  V30 1584 C 150.417 2.77556 2.25161 0
M  V30 1585 C 150.083 4.17289 1.70823 0
M  V30 1586 C 148.745 4.55305 1.55725 0
M  V30 1587 C 151.097 5.04536 1.3074 0
M  V30 1588 C 148.425 5.78287 0.989999 0
M  V30 1589 C 150.777 6.28085 0.754482 0
M  V30 1590 C 149.441 6.64885 0.590308 0
M  V30 1591 H 148.711 0.596755 0.439277 0
M  V30 1592 H 151.358 1.85037 0.49333 0
M  V30 1593 H 149.663 2.49771 3.01863 0
M  V30 1594 H 151.36 2.84073 2.83026 0
M  V30 1595 H 147.95 3.8731 1.83546 0
M  V30 1596 H 152.134 4.75782 1.41229 0
M  V30 1597 H 147.39 6.05456 0.850451 0
M  V30 1598 H 151.564 6.95038 0.435324 0
M  V30 1599 H 149.191 7.60055 0.14862 0
M  V30 1600 N 150.766 -0.704594 1.40972 0
M  V30 1601 C 151.729 -1.80035 1.41845 0
M  V30 1602 C 152.729 -1.57774 0.310474 0
M  V30 1603 O 153.919 -1.64613 0.56992 0
M  V30 1604 C 151.051 -3.18284 1.22098 0
M  V30 1605 H 152.244 -1.80658 2.3938 0
M  V30 1606 H 149.797 -0.911329 1.26982 0
M  V30 1607 H 150.532 -3.23306 0.253672 0
M  V30 1608 H 150.317 -3.35843 2.02366 0
M  V30 1609 H 151.807 -3.98289 1.25522 0
M  V30 1610 N 152.244 -1.26651 -0.937939 0
M  V30 1611 C 153.493 -1.11775 -1.67897 0
M  V30 1612 C 153.806 0.33794 -1.92659 0
M  V30 1613 O 155.012 0.607434 -2.64618 0
M  V30 1614 C 153.468 -1.9523 -3.02346 0
M  V30 1615 C 153.076 -3.45393 -2.8532 0
M  V30 1616 C 154.82 -1.88972 -3.80118 0
M  V30 1617 C 152.727 -4.21083 -4.15263 0
M  V30 1618 H 151.657 -0.414696 -0.629717 0
M  V30 1619 H 154.308 -1.50988 -1.04283 0
M  V30 1620 H 152.69 -1.48853 -3.66959 0
M  V30 1621 H 153.864 -3.99561 -2.29537 0
M  V30 1622 H 152.179 -3.52921 -2.20988 0
M  V30 1623 H 154.776 -2.42805 -4.76392 0
M  V30 1624 H 155.119 -0.86113 -4.07296 0
M  V30 1625 H 155.652 -2.33189 -3.22285 0
M  V30 1626 H 152.391 -5.24425 -3.93267 0
M  V30 1627 H 151.911 -3.71695 -4.70747 0
M  V30 1628 H 153.59 -4.29706 -4.83696 0
M  V30 1629 N 153.722 1.14298 -1.08507 0
M  V30 1630 C 154.97 1.84993 -0.813763 0
M  V30 1631 C 155.291 1.83405 0.662393 0
M  V30 1632 O 154.561 1.28319 1.48024 0
M  V30 1633 H 153.141 0.684966 -0.298045 0
M  V30 1634 H 155.803 1.385 -1.37126 0
M  V30 1635 H 154.899 2.89788 -1.15884 0
M  V30 1636 N 155.201 0.870884 1.31352 0
M  V30 1637 C 156.449 0.48132 1.96285 0
M  V30 1638 C 156.77 -0.969813 1.69173 0
M  V30 1639 O 156.04 -1.67998 1.00764 0
M  V30 1640 H 154.62 0.175002 0.726212 0
M  V30 1641 H 157.282 1.11087 1.60143 0
M  V30 1642 H 156.378 0.639825 3.05471 0
M  V30 1643 N 156.679 -1.44442 0.630414 0
M  V30 1644 C 157.642 -2.29107 -0.0652523 0
M  V30 1645 C 158.642 -1.41002 -0.772995 0
M  V30 1646 O 159.832 -1.62881 -0.617692 0
M  V30 1647 C 156.964 -3.22564 -1.10296 0
M  V30 1648 H 158.157 -2.92103 0.679401 0
M  V30 1649 H 155.71 -1.51343 0.390517 0
M  V30 1650 H 156.445 -2.64416 -1.87762 0
M  V30 1651 H 156.23 -3.87491 -0.59941 0
M  V30 1652 H 157.72 -3.86167 -1.5895 0
M  V30 1653 N 158.157 -0.370918 -1.53173 0
M  V30 1654 C 159.087 0.464847 -2.28826 0
M  V30 1655 C 160.068 1.07936 -1.31468 0
M  V30 1656 O 161.253 1.0956 -1.60344 0
M  V30 1657 C 158.383 1.60196 -3.08147 0
M  V30 1658 C 157.337 1.11443 -4.13237 0
M  V30 1659 C 156.663 2.3422 -4.80672 0
M  V30 1660 C 157.963 0.195384 -5.21934 0
M  V30 1661 H 159.657 -0.166329 -2.98938 0
M  V30 1662 H 157.203 -0.0814359 -1.4377 0
M  V30 1663 H 159.156 2.19332 -3.59822 0
M  V30 1664 H 157.88 2.26045 -2.35735 0
M  V30 1665 H 156.539 0.545727 -3.62515 0
M  V30 1666 H 156.187 2.98537 -4.04827 0
M  V30 1667 H 155.887 2.02269 -5.51689 0
M  V30 1668 H 157.411 2.94032 -5.35143 0
M  V30 1669 H 158.825 0.694375 -5.69079 0
M  V30 1670 H 157.222 -0.0335027 -6.00091 0
M  V30 1671 H 158.292 -0.760961 -4.78892 0
M  V30 1672 N 159.635 1.57281 -0.100228 0
M  V30 1673 C 160.565 2.17328 0.853857 0
M  V30 1674 C 161.546 1.10804 1.2906 0
M  V30 1675 O 162.731 1.38963 1.35657 0
M  V30 1676 C 159.861 2.75772 2.11109 0
M  V30 1677 C 158.815 3.87713 1.81279 0
M  V30 1678 C 158.141 4.32882 3.13874 0
M  V30 1679 C 159.441 5.10677 1.09574 0
M  V30 1680 H 161.135 2.97305 0.353545 0
M  V30 1681 H 158.681 1.43009 0.168612 0
M  V30 1682 H 160.634 3.16433 2.78296 0
M  V30 1683 H 159.358 1.93057 2.63432 0
M  V30 1684 H 158.017 3.476 1.16489 0
M  V30 1685 H 157.665 3.47051 3.64095 0
M  V30 1686 H 157.365 5.08358 2.94696 0
M  V30 1687 H 158.889 4.7618 3.82211 0
M  V30 1688 H 160.303 5.48474 1.66879 0
M  V30 1689 H 158.7 5.91615 1.00557 0
M  V30 1690 H 159.77 4.84835 0.0793299 0
M  V30 1691 N 161.113 -0.173488 1.56642 0
M  V30 1692 C 162.076 -1.19859 1.95362 0
M  V30 1693 C 163.076 -1.37296 0.83704 0
M  V30 1694 O 164.266 -1.34739 1.10413 0
M  V30 1695 C 161.398 -2.56405 2.24654 0
M  V30 1696 H 162.591 -0.867062 2.87092 0
M  V30 1697 H 160.144 -0.415853 1.50666 0
M  V30 1698 H 160.879 -2.94576 1.35631 0
M  V30 1699 H 160.664 -2.45115 3.06041 0
M  V30 1700 H 162.154 -3.30287 2.5554 0
M  V30 1701 N 162.591 -1.51276 -0.441967 0
M  V30 1702 C 163.839 -1.63392 -1.18943 0
M  V30 1703 C 164.16 -0.350159 -1.9183 0
M  V30 1704 O 163.43 0.633784 -1.85364 0
M  V30 1705 H 162.01 -0.602164 -0.442049 0
M  V30 1706 H 164.672 -1.88186 -0.507165 0
M  V30 1707 H 163.768 -2.45934 -1.92154 0
M  V30 1708 N 164.069 0.697108 -1.41344 0
M  V30 1709 C 165.002 1.82134 -1.37486 0
M  V30 1710 C 165.98 1.60784 -0.242351 0
M  V30 1711 O 167.164 1.83553 -0.429012 0
M  V30 1712 C 164.291 3.18788 -1.14421 0
M  V30 1713 C 163.337 3.58932 -2.3037 0
M  V30 1714 S 164.17 3.63916 -3.92843 0
M  V30 1715 C 165.326 5.03298 -3.72078 0
M  V30 1716 H 165.559 1.85129 -2.32625 0
M  V30 1717 H 163.092 0.865671 -1.2785 0
M  V30 1718 H 165.05 3.97677 -1.018 0
M  V30 1719 H 163.711 3.13404 -0.20905 0
M  V30 1720 H 162.904 4.58202 -2.09922 0
M  V30 1721 H 162.506 2.87347 -2.39391 0
M  V30 1722 H 164.798 5.90753 -3.31688 0
M  V30 1723 H 165.741 5.28788 -4.70945 0
M  V30 1724 H 166.149 4.74764 -3.05384 0
M  V30 1725 N 165.547 1.27147 0.931209 0
M  V30 1726 C 166.494 1.09568 2.03134 0
M  V30 1727 C 167.464 -0.00222433 1.661 0
M  V30 1728 O 168.649 0.159439 1.90133 0
M  V30 1729 C 165.789 0.745231 3.36957 0
M  V30 1730 C 164.902 1.92041 3.86968 0
M  V30 1731 C 164.037 1.51216 5.09222 0
M  V30 1732 C 163.076 2.65504 5.5152 0
M  V30 1733 N 162.213 2.25291 6.64972 0
M  V30 1734 H 167.053 2.03708 2.17502 0
M  V30 1735 H 164.59 1.01411 1.06556 0
M  V30 1736 H 166.548 0.522878 4.1391 0
M  V30 1737 H 165.178 -0.159202 3.22407 0
M  V30 1738 H 164.23 2.25541 3.06326 0
M  V30 1739 H 165.542 2.77787 4.1429 0
M  V30 1740 H 164.696 1.25084 5.93666 0
M  V30 1741 H 163.435 0.625749 4.83669 0
M  V30 1742 H 162.44 2.92354 4.65628 0
M  V30 1743 H 163.665 3.54761 5.7907 0
M  V30 1744 H 161.611 1.39098 6.41083 0
M  V30 1745 H 161.528 3.04577 6.91931 0
M  V30 1746 H 162.796 2.02398 7.52765 0
M  V30 1747 N 167.025 -1.13721 1.09112 0
M  V30 1748 C 167.975 -2.17082 0.697091 0
M  V30 1749 C 168.959 -1.58321 -0.286923 0
M  V30 1750 O 170.151 -1.7673 -0.0978008 0
M  V30 1751 C 167.28 -3.43105 0.115729 0
M  V30 1752 C 166.366 -4.0888 1.12596 0
M  V30 1753 N 166.757 -4.4987 2.31195 0
M  V30 1754 C 165.055 -4.35471 0.963366 0
M  V30 1755 C 165.756 -5.01094 2.95431 0
M  V30 1756 N 164.732 -4.95751 2.23006 0
M  V30 1757 H 168.534 -2.46524 1.6001 0
M  V30 1758 H 166.048 -1.30481 0.966869 0
M  V30 1759 H 168.045 -4.16491 -0.184555 0
M  V30 1760 H 166.705 -3.15138 -0.78217 0
M  V30 1761 H 167.716 -4.42678 2.68806 0
M  V30 1762 H 164.393 -4.17328 0.119878 0
M  V30 1763 H 165.783 -5.4263 3.96236 0
M  V30 1764 N 168.503 -0.877838 -1.30888 0
M  V30 1765 C 169.749 -0.493426 -1.96706 0
M  V30 1766 C 170.082 0.953504 -1.6918 0
M  V30 1767 O 169.357 1.67266 -0.992594 0
M  V30 1768 C 169.64 -0.760429 -3.51979 0
M  V30 1769 C 169.493 -2.25747 -3.89048 0
M  V30 1770 C 170.812 -0.232148 -4.39487 0
M  V30 1771 H 167.931 -0.180746 -0.714493 0
M  V30 1772 H 170.573 -1.10052 -1.54882 0
M  V30 1773 H 168.723 -0.243715 -3.87735 0
M  V30 1774 H 170.395 -2.84204 -3.63354 0
M  V30 1775 H 168.638 -2.72694 -3.37373 0
M  V30 1776 H 169.309 -2.39491 -4.97341 0
M  V30 1777 H 171.785 -0.674314 -4.106 0
M  V30 1778 H 170.661 -0.448355 -5.47066 0
M  V30 1779 H 170.922 0.866297 -4.33529 0
M  V30 1780 N 169.982 1.44106 -0.638065 0
M  V30 1781 C 170.929 2.30715 0.062701 0
M  V30 1782 C 171.899 1.43882 0.829883 0
M  V30 1783 O 173.084 1.72775 0.809532 0
M  V30 1784 C 170.224 3.29258 1.03358 0
M  V30 1785 C 169.337 4.31192 0.26409 0
M  V30 1786 C 168.472 5.16825 1.22741 0
M  V30 1787 C 167.511 6.10462 0.447475 0
M  V30 1788 N 166.648 6.8877 1.36161 0
M  V30 1789 H 171.488 2.90096 -0.681781 0
M  V30 1790 H 169.025 1.42925 -0.347988 0
M  V30 1791 H 170.983 3.84886 1.60992 0
M  V30 1792 H 169.613 2.71562 1.74511 0
M  V30 1793 H 168.665 3.77981 -0.428295 0
M  V30 1794 H 169.977 4.97619 -0.343052 0
M  V30 1795 H 169.131 5.77004 1.87487 0
M  V30 1796 H 167.87 4.50488 1.86847 0
M  V30 1797 H 166.875 5.49386 -0.213433 0
M  V30 1798 H 168.1 6.78837 -0.188968 0
M  V30 1799 H 166.046 6.25096 1.98975 0
M  V30 1800 H 165.963 7.51663 0.808656 0
M  V30 1801 H 167.231 7.53467 1.99769 0
M  V30 1802 N 171.46 0.379036 1.52974 0
M  V30 1803 C 172.407 -0.461048 2.26148 0
M  V30 1804 C 173.377 -1.06637 1.27349 0
M  V30 1805 O 174.562 -1.09633 1.56157 0
M  V30 1806 C 171.702 -1.58782 3.06402 0
M  V30 1807 C 170.815 -1.00636 4.20115 0
M  V30 1808 C 169.95 -2.10334 4.87784 0
M  V30 1809 C 168.989 -1.49724 5.93506 0
M  V30 1810 N 168.126 -2.5331 6.54812 0
M  V30 1811 H 172.966 0.169429 2.97518 0
M  V30 1812 H 170.503 0.0953806 1.4679 0
M  V30 1813 H 172.461 -2.25174 3.51215 0
M  V30 1814 H 171.091 -2.18876 2.37261 0
M  V30 1815 H 170.143 -0.232332 3.7969 0
M  V30 1816 H 171.455 -0.523343 4.96047 0
M  V30 1817 H 170.609 -2.84519 5.35849 0
M  V30 1818 H 169.348 -2.61992 4.11353 0
M  V30 1819 H 168.353 -0.740598 5.44789 0
M  V30 1820 H 169.578 -0.988732 6.71864 0
M  V30 1821 H 167.524 -3.04156 5.81227 0
M  V30 1822 H 167.441 -2.09734 7.26325 0
M  V30 1823 H 168.709 -3.27155 7.07524 0
M  V30 1824 N 172.938 -1.57226 0.108567 0
M  V30 1825 C 173.848 -2.18292 -0.859401 0
M  V30 1826 C 174.864 -1.15612 -1.30038 0
M  V30 1827 O 176.04 -1.48039 -1.36552 0
M  V30 1828 C 173.105 -2.762 -2.09558 0
M  V30 1829 C 172.166 -3.93881 -1.70752 0
M  V30 1830 C 171.399 -4.49018 -2.88477 0
M  V30 1831 O 171.622 -4.03068 -4.036 0
M  V30 1832 O 170.556 -5.39852 -2.66164 0
M  V30 1833 H 174.382 -3.01441 -0.369769 0
M  V30 1834 H 171.967 -1.48945 -0.1165 0
M  V30 1835 H 173.849 -3.13156 -2.81978 0
M  V30 1836 H 172.524 -1.96089 -2.57548 0
M  V30 1837 H 171.431 -3.61713 -0.954714 0
M  V30 1838 H 172.764 -4.75396 -1.27513 0
M  V30 1839 N 174.416 0.165178 -1.56732 0
M  V30 1840 C 175.363 1.2044 -1.96883 0
M  V30 1841 C 176.333 1.43664 -0.833657 0
M  V30 1842 O 177.518 1.56302 -1.09427 0
M  V30 1843 C 174.658 2.53727 -2.33916 0
M  V30 1844 C 173.771 2.3783 -3.6064 0
M  V30 1845 C 172.906 3.64026 -3.86857 0
M  V30 1846 C 171.945 3.43088 -5.06909 0
M  V30 1847 N 171.082 4.61369 -5.29229 0
M  V30 1848 H 175.922 0.854996 -2.85471 0
M  V30 1849 H 173.459 0.41076 -1.41249 0
M  V30 1850 H 175.417 3.31419 -2.53411 0
M  V30 1851 H 174.047 2.8665 -1.48431 0
M  V30 1852 H 173.099 1.51282 -3.49024 0
M  V30 1853 H 174.411 2.18308 -4.4849 0
M  V30 1854 H 173.565 4.50152 -4.06753 0
M  V30 1855 H 172.304 3.86533 -2.97394 0
M  V30 1856 H 171.309 2.55349 -4.86906 0
M  V30 1857 H 172.534 3.21997 -5.97909 0
M  V30 1858 H 170.48 4.84084 -4.42718 0
M  V30 1859 H 170.397 4.44783 -6.11313 0
M  V30 1860 H 171.665 5.48761 -5.53608 0
M  V30 1861 N 175.894 1.51508 0.433938 0
M  V30 1862 C 176.857 1.72473 1.50949 0
M  V30 1863 C 177.857 0.594725 1.49398 0
M  V30 1864 O 179.047 0.862315 1.5136 0
M  V30 1865 C 176.179 1.78431 2.90474 0
M  V30 1866 H 177.372 2.68467 1.33662 0
M  V30 1867 H 174.925 1.41549 0.662836 0
M  V30 1868 H 175.66 0.842645 3.13161 0
M  V30 1869 H 175.445 2.60558 2.93005 0
M  V30 1870 H 176.935 1.96479 3.68491 0
M  V30 1871 N 177.372 -0.689602 1.41712 0
M  V30 1872 C 178.282 -1.83314 1.46401 0
M  V30 1873 C 179.298 -1.7036 0.35405 0
M  V30 1874 O 180.474 -1.92171 0.602692 0
M  V30 1875 C 177.539 -3.19344 1.34982 0
M  V30 1876 C 176.6 -3.44363 2.56344 0
M  V30 1877 C 175.833 -4.73904 2.45461 0
M  V30 1878 O 176.056 -5.508 1.48241 0
M  V30 1879 O 174.99 -4.99839 3.35328 0
M  V30 1880 H 178.816 -1.82314 2.42889 0
M  V30 1881 H 176.401 -0.843438 1.23315 0
M  V30 1882 H 178.283 -4.00547 1.3092 0
M  V30 1883 H 176.958 -3.21014 0.41612 0
M  V30 1884 H 175.865 -2.63067 2.65982 0
M  V30 1885 H 177.198 -3.47512 3.48563 0
M  V30 1886 N 178.85 -1.27639 -0.924453 0
M  V30 1887 C 179.797 -1.10644 -2.0255 0
M  V30 1888 C 180.767 -0.00658438 -1.66099 0
M  V30 1889 O 181.952 -0.16952 -1.90045 0
M  V30 1890 C 179.092 -0.76309 -3.36557 0
M  V30 1891 C 178.205 -1.94091 -3.85944 0
M  V30 1892 C 177.34 -1.53914 -5.08413 0
M  V30 1893 C 176.379 -2.68425 -5.50104 0
M  V30 1894 N 175.516 -2.28815 -6.63768 0
M  V30 1895 H 180.356 -2.04858 -2.16419 0
M  V30 1896 H 177.893 -1.01974 -1.06017 0
M  V30 1897 H 179.851 -0.544822 -4.13627 0
M  V30 1898 H 178.481 0.142102 -3.22487 0
M  V30 1899 H 177.533 -2.27162 -3.05125 0
M  V30 1900 H 178.845 -2.7998 -4.12811 0
M  V30 1901 H 177.999 -1.28231 -5.92994 0
M  V30 1902 H 176.738 -0.651391 -4.8333 0
M  V30 1903 H 175.743 -2.94819 -4.64071 0
M  V30 1904 H 176.968 -3.57826 -5.7718 0
M  V30 1905 H 174.914 -1.42495 -6.40337 0
M  V30 1906 H 174.831 -3.08242 -6.90306 0
M  V30 1907 H 176.099 -2.06387 -7.51681 0
M  V30 1908 N 180.328 1.1314 -1.09713 0
M  V30 1909 C 181.258 2.20748 -0.761102 0
M  V30 1910 C 182.239 1.68061 0.262566 0
M  V30 1911 O 183.424 1.93765 0.129977 0
M  V30 1912 C 180.554 3.46812 -0.184054 0
M  V30 1913 C 179.508 4.12606 -1.13757 0
M  V30 1914 C 178.834 5.33031 -0.422083 0
M  V30 1915 C 180.134 4.59603 -2.48118 0
M  V30 1916 H 181.828 2.49113 -1.66082 0
M  V30 1917 H 179.374 1.19734 -0.799987 0
M  V30 1918 H 181.327 4.21353 0.0631215 0
M  V30 1919 H 180.051 3.17851 0.750868 0
M  V30 1920 H 178.71 3.40036 -1.37007 0
M  V30 1921 H 178.358 5.00335 0.517072 0
M  V30 1922 H 178.058 5.77999 -1.05788 0
M  V30 1923 H 179.582 6.10325 -0.183277 0
M  V30 1924 H 180.996 5.25552 -2.29059 0
M  V30 1925 H 179.393 5.15321 -3.07514 0
M  V30 1926 H 180.463 3.73971 -3.08665 0
M  V30 1927 N 181.806 0.884767 1.30421 0
M  V30 1928 C 182.716 0.355398 2.31892 0
M  V30 1929 C 183.732 -0.542261 1.65335 0
M  V30 1930 O 184.908 -0.435432 1.96637 0
M  V30 1931 C 181.973 -0.421661 3.44126 0
M  V30 1932 C 181.034 0.505727 4.26311 0
M  V30 1933 C 180.267 -0.234343 5.33185 0
M  V30 1934 O 180.49 -1.46045 5.51386 0
M  V30 1935 O 179.424 0.415443 6.00465 0
M  V30 1936 H 183.25 1.19685 2.79122 0
M  V30 1937 H 180.835 0.648596 1.34587 0
M  V30 1938 H 182.717 -0.861641 4.12497 0
M  V30 1939 H 181.392 -1.23942 2.99032 0
M  V30 1940 H 180.299 0.994513 3.60639 0
M  V30 1941 H 181.632 1.28948 4.75009 0
M  V30 1942 N 183.284 -1.43765 0.645699 0
M  V30 1943 C 184.231 -2.30745 -0.0504648 0
M  V30 1944 C 185.201 -1.4432 -0.822241 0
M  V30 1945 O 186.386 -1.73202 -0.800358 0
M  V30 1946 C 183.526 -3.29802 -1.0161 0
M  V30 1947 C 182.639 -4.31326 -0.241219 0
M  V30 1948 C 181.774 -5.17469 -1.19998 0
M  V30 1949 C 180.813 -6.10691 -0.415094 0
M  V30 1950 N 179.95 -6.89483 -1.32506 0
M  V30 1951 H 184.79 -2.8973 0.697155 0
M  V30 1952 H 182.327 -1.42738 0.355563 0
M  V30 1953 H 184.285 -3.85734 -1.58949 0
M  V30 1954 H 182.915 -2.72483 -1.73069 0
M  V30 1955 H 181.967 -3.77749 0.448334 0
M  V30 1956 H 183.279 -4.9743 0.369437 0
M  V30 1957 H 182.433 -5.7799 -1.84424 0
M  V30 1958 H 181.172 -4.51473 -1.84455 0
M  V30 1959 H 180.177 -5.49265 0.242565 0
M  V30 1960 H 181.402 -6.78727 0.224966 0
M  V30 1961 H 179.348 -6.26142 -1.95657 0
M  V30 1962 H 179.265 -7.52081 -0.768783 0
M  V30 1963 H 180.533 -7.54516 -1.9577 0
M  V30 1964 N 184.763 -0.387143 -1.52771 0
M  V30 1965 C 185.673 0.456442 -2.30117 0
M  V30 1966 C 186.689 1.07342 -1.36944 0
M  V30 1967 O 187.865 1.07971 -1.70013 0
M  V30 1968 C 184.93 1.56957 -3.09136 0
M  V30 1969 C 183.991 0.977916 -4.18014 0
M  V30 1970 C 183.224 2.038 -4.93256 0
M  V30 1971 O 183.447 3.25271 -4.68567 0
M  V30 1972 O 182.381 1.6565 -5.78657 0
M  V30 1973 H 186.207 -0.17359 -3.03203 0
M  V30 1974 H 183.792 -0.150919 -1.48636 0
M  V30 1975 H 185.674 2.21628 -3.58412 0
M  V30 1976 H 184.349 2.18461 -2.38865 0
M  V30 1977 H 183.256 0.294525 -3.72939 0
M  V30 1978 H 184.589 0.407128 -4.90513 0
M  V30 1979 N 186.241 1.57166 -0.116904 0
M  V30 1980 C 187.657 1.5779 0.239693 0
M  V30 1981 C 187.857 1.1295 1.66867 0
M  V30 1982 O 186.913 0.81592 2.38954 0
M  V30 1983 C 188.226 3.00699 0.00828202 0
M  V30 1984 C 189.774 3.12912 0.0743438 0
M  V30 1985 C 190.249 4.57817 -0.129348 0
M  V30 1986 N 191.74 4.63139 -0.075247 0
M  V30 1987 C 192.475 5.73023 -0.207788 0
M  V30 1988 N 191.971 6.91665 -0.396382 0
M  V30 1989 N 193.764 5.61906 -0.14751 0
M  V30 1990 H 185.915 1.84615 -1.05029 0
M  V30 1991 H 188.178 0.85311 -0.41341 0
M  V30 1992 H 187.884 3.37784 -0.979531 0
M  V30 1993 H 187.758 3.69848 0.741077 0
M  V30 1994 H 190.145 2.75686 1.05268 0
M  V30 1995 H 190.226 2.4631 -0.690297 0
M  V30 1996 H 189.87 4.95742 -1.10465 0
M  V30 1997 H 189.8 5.22507 0.655253 0
M  V30 1998 H 192.291 3.7784 0.0670898 0
M  V30 1999 H 192.604 7.71255 -0.488437 0
M  V30 2000 H 190.949 6.93654 -0.432329 0
M  V30 2001 H 194.14 4.681 -0.00115036 0
M  V30 2002 H 194.313 6.47501 -0.254247 0
M  V30 2003 N 187.719 -0.156864 1.56817 0
M  V30 2004 C 188.651 -1.21883 1.94106 0
M  V30 2005 C 189.664 -1.3971 0.835754 0
M  V30 2006 O 190.853 -1.39457 1.11418 0
M  V30 2007 C 187.953 -2.58527 2.19127 0
M  V30 2008 C 187.126 -2.61809 3.50393 0
M  V30 2009 C 186.185 -3.7992 3.64071 0
M  V30 2010 O 185.211 -3.65249 4.36557 0
M  V30 2011 N 186.413 -4.96973 2.99997 0
M  V30 2012 H 189.178 -0.901974 2.85805 0
M  V30 2013 H 186.739 -0.346513 1.58148 0
M  V30 2014 H 188.731 -3.36034 2.25529 0
M  V30 2015 H 187.301 -2.82545 1.33742 0
M  V30 2016 H 186.521 -1.7029 3.5552 0
M  V30 2017 H 187.809 -2.61024 4.36742 0
M  V30 2018 H 187.207 -5.11794 2.41004 0
M  V30 2019 H 185.764 -5.7229 3.11974 0
M  V30 2020 N 189.197 -1.51736 -0.425897 0
M  V30 2021 C 190.613 -1.40166 -0.76326 0
M  V30 2022 C 190.813 -0.492962 -1.95377 0
M  V30 2023 O 189.869 0.0475815 -2.52455 0
M  V30 2024 C 191.182 -2.82403 -1.03291 0
M  V30 2025 C 192.73 -2.91632 -1.13665 0
M  V30 2026 C 193.205 -4.34801 -1.43916 0
M  V30 2027 N 194.696 -4.3796 -1.50816 0
M  V30 2028 C 195.431 -5.4578 -1.75817 0
M  V30 2029 N 194.927 -6.63744 -1.98534 0
M  V30 2030 N 196.72 -5.33274 -1.77694 0
M  V30 2031 H 188.871 -2.09361 0.358 0
M  V30 2032 H 191.134 -0.942941 0.0978094 0
M  V30 2033 H 190.84 -3.50943 -0.230696 0
M  V30 2034 H 190.714 -3.22428 -1.95754 0
M  V30 2035 H 193.101 -2.23284 -1.92947 0
M  V30 2036 H 193.182 -2.55088 -0.190756 0
M  V30 2037 H 192.826 -5.03703 -0.65157 0
M  V30 2038 H 192.756 -4.68868 -2.39729 0
M  V30 2039 H 195.247 -3.52919 -1.35118 0
M  V30 2040 H 195.56 -7.41704 -2.17013 0
M  V30 2041 H 193.905 -6.66839 -1.95832 0
M  V30 2042 H 197.096 -4.40098 -1.59473 0
M  V30 2043 H 197.269 -6.1738 -1.9684 0
M  V30 2044 N 190.675 0.682077 -1.42076 0
M  V30 2045 C 191.625 1.78823 -1.41444 0
M  V30 2046 C 192.609 1.58323 -0.28681 0
M  V30 2047 O 193.801 1.68926 -0.528498 0
M  V30 2048 C 190.93 3.17232 -1.3122 0
M  V30 2049 C 190.016 3.4338 -2.489 0
M  V30 2050 N 190.407 3.40152 -3.7434 0
M  V30 2051 C 188.705 3.73986 -2.43003 0
M  V30 2052 C 189.406 3.65581 -4.52466 0
M  V30 2053 N 188.382 3.85989 -3.8277 0
M  V30 2054 H 192.184 1.7471 -2.36334 0
M  V30 2055 H 189.698 0.882622 -1.36321 0
M  V30 2056 H 191.695 3.96489 -1.2885 0
M  V30 2057 H 190.355 3.22547 -0.373263 0
M  V30 2058 H 191.366 3.20221 -4.07037 0
M  V30 2059 H 188.043 3.86591 -1.57651 0
M  V30 2060 H 189.433 3.69108 -5.61435 0
M  V30 2061 N 192.153 1.28127 0.917671 0
M  V30 2062 C 193.402 1.14432 1.66097 0
M  V30 2063 C 193.715 -0.307247 1.93172 0
M  V30 2064 O 194.921 -0.565259 2.65551 0
M  V30 2065 C 193.377 2.00015 2.99202 0
M  V30 2066 C 192.985 3.49889 2.79789 0
M  V30 2067 C 194.729 1.94996 3.77064 0
M  V30 2068 C 192.636 4.27636 4.08511 0
M  V30 2069 H 191.566 0.424662 0.62304 0
M  V30 2070 H 194.217 1.52628 1.01868 0
M  V30 2071 H 192.599 1.54672 3.64544 0
M  V30 2072 H 193.773 4.03162 2.23152 0
M  V30 2073 H 192.088 3.56392 2.15345 0
M  V30 2074 H 194.685 2.50354 4.72469 0
M  V30 2075 H 195.028 0.925819 4.05875 0
M  V30 2076 H 195.561 2.38287 3.18534 0
M  V30 2077 H 192.3 5.30615 3.84874 0
M  V30 2078 H 191.82 3.79137 4.64774 0
M  V30 2079 H 193.499 4.37346 4.76799 0
M  V30 2080 N 193.631 -1.12557 1.10312 0
M  V30 2081 C 194.879 -1.83675 0.843091 0
M  V30 2082 C 195.2 -1.84435 -0.633131 0
M  V30 2083 O 194.47 -1.30657 -1.45964 0
M  V30 2084 H 193.05 -0.680138 0.308904 0
M  V30 2085 H 195.712 -1.36301 1.39313 0
M  V30 2086 H 194.808 -2.87908 1.2048 0
M  V30 2087 N 195.109 -0.891671 -1.2995 0
M  V30 2088 C 196.056 -0.361736 -2.27948 0
M  V30 2089 C 197.026 0.551761 -1.56668 0
M  V30 2090 O 198.211 0.478736 -1.84696 0
M  V30 2091 C 195.351 0.411825 -3.42634 0
M  V30 2092 C 194.464 -0.531651 -4.28716 0
M  V30 2093 C 193.599 0.258167 -5.30572 0
M  V30 2094 C 192.638 -0.680349 -6.08307 0
M  V30 2095 N 191.775 0.0745613 -7.0206 0
M  V30 2096 H 196.615 -1.20254 -2.72659 0
M  V30 2097 H 194.152 -0.604352 -1.34112 0
M  V30 2098 H 196.11 0.876304 -4.07893 0
M  V30 2099 H 194.74 1.21715 -2.98974 0
M  V30 2100 H 193.792 -1.11463 -3.63703 0
M  V30 2101 H 195.104 -1.25038 -4.82874 0
M  V30 2102 H 194.258 0.784204 -6.0161 0
M  V30 2103 H 192.997 1.01008 -4.77126 0
M  V30 2104 H 192.002 -1.21796 -5.3614 0
M  V30 2105 H 193.227 -1.43145 -6.63842 0
M  V30 2106 H 191.173 0.808883 -6.50994 0
M  V30 2107 H 191.09 -0.584409 -7.53738 0
M  V30 2108 H 192.358 0.581123 -7.77331 0
M  V30 2109 N 196.587 1.43421 -0.653314 0
M  V30 2110 C 197.998 1.85065 -0.246537 0
M  V30 2111 C 198.349 1.54688 1.2069 0
M  V30 2112 O 197.474 0.995896 1.92122 0
M  V30 2113 C 198.069 3.35922 -0.440666 0
M  V30 2114 C 196.628 3.76297 -0.0882064 0
M  V30 2115 C 195.775 2.67147 -0.743484 0
M  V30 2116 H 198.726 1.33572 -0.856979 0
M  V30 2117 H 198.747 3.79204 0.313798 0
M  V30 2118 H 198.259 3.58 -1.49858 0
M  V30 2119 H 196.36 3.5983 0.96711 0
M  V30 2120 H 196.473 4.76338 -0.513738 0
M  V30 2121 H 194.837 2.54086 -0.176712 0
M  V30 2122 H 195.62 2.92053 -1.80443 0
M  V30 2123 N 198.065 0.39524 1.52563 0
M  V30 2124 C 198.995 -0.428384 2.29537 0
M  V30 2125 C 199.976 -1.05831 1.33169 0
M  V30 2126 O 201.161 -1.06995 1.62067 0
M  V30 2127 C 198.291 -1.55274 3.10656 0
M  V30 2128 C 197.245 -1.04855 4.14957 0
M  V30 2129 C 196.571 -2.26543 4.84337 0
M  V30 2130 C 197.871 -0.112324 5.22179 0
M  V30 2131 H 199.565 0.213867 2.98635 0
M  V30 2132 H 197.111 0.104298 1.43622 0
M  V30 2133 H 199.064 -2.1358 3.63265 0
M  V30 2134 H 197.788 -2.22266 2.39302 0
M  V30 2135 H 196.447 -0.487985 3.63338 0
M  V30 2136 H 196.095 -2.92059 4.09525 0
M  V30 2137 H 195.795 -1.93466 5.54837 0
M  V30 2138 H 197.319 -2.85481 5.39753 0
M  V30 2139 H 198.733 -0.603752 5.70112 0
M  V30 2140 H 197.13 0.128968 5.99961 0
M  V30 2141 H 198.2 0.837052 4.77621 0
M  V30 2142 N 199.544 -1.57102 0.125237 0
M  V30 2143 C 200.474 -2.18659 -0.819174 0
M  V30 2144 C 201.455 -1.12843 -1.27281 0
M  V30 2145 O 202.64 -1.41104 -1.33429 0
M  V30 2146 C 199.77 -2.79096 -2.06695 0
M  V30 2147 C 198.724 -3.90548 -1.75088 0
M  V30 2148 C 198.05 -4.37821 -3.06948 0
M  V30 2149 C 199.35 -5.12356 -1.01435 0
M  V30 2150 H 201.044 -2.9783 -0.306202 0
M  V30 2151 H 198.59 -1.4326 -0.145839 0
M  V30 2152 H 200.543 -3.2082 -2.73226 0
M  V30 2153 H 199.267 -1.97223 -2.60328 0
M  V30 2154 H 197.926 -3.49409 -1.10944 0
M  V30 2155 H 197.574 -3.52799 -3.58527 0
M  V30 2156 H 197.274 -5.12982 -2.86571 0
M  V30 2157 H 198.798 -4.822 -3.74587 0
M  V30 2158 H 200.212 -5.5106 -1.58132 0
M  V30 2159 H 198.609 -5.9314 -0.911319 0
M  V30 2160 H 199.679 -4.849 -0.00218681 0
M  V30 2161 N 201.022 0.148545 -1.56898 0
M  V30 2162 C 202.27 0.859717 -1.82902 0
M  V30 2163 C 202.591 1.81775 -0.70588 0
M  V30 2164 O 201.861 1.93994 0.272586 0
M  V30 2165 H 200.441 0.320469 -0.674766 0
M  V30 2166 H 203.103 0.142918 -1.94375 0
M  V30 2167 H 202.199 1.4229 -2.77777 0
M  V30 2168 N 202.5 1.5196 0.417844 0
M  V30 2169 C 203.748 1.65263 1.16329 0
M  V30 2170 C 204.069 0.380634 1.91249 0
M  V30 2171 O 203.339 -0.604214 1.86349 0
M  V30 2172 H 201.919 0.60912 0.432414 0
M  V30 2173 H 204.581 1.88969 0.477162 0
M  V30 2174 H 203.677 2.4896 1.88217 0
M  V30 2175 N 203.978 -0.674533 1.42435 0
M  V30 2176 C 205.389 -1.25514 1.38214 0
M  V30 2177 C 205.74 -1.96055 0.0755464 0
M  V30 2178 O 204.865 -2.00028 -0.8257 0
M  V30 2179 C 205.46 -2.28269 2.50357 0
M  V30 2180 C 204.019 -2.81856 2.49467 0
M  V30 2181 C 203.166 -1.56182 2.29134 0
M  V30 2182 H 206.117 -0.467902 1.51646 0
M  V30 2183 H 206.138 -3.10009 2.20624 0
M  V30 2184 H 205.65 -1.769 3.45439 0
M  V30 2185 H 203.751 -3.37346 1.58204 0
M  V30 2186 H 203.864 -3.30854 3.46515 0
M  V30 2187 H 202.228 -1.82761 1.774 0
M  V30 2188 H 203.011 -1.06778 3.26272 0
M  V30 2189 N 205.456 -1.28612 -0.910864 0
M  V30 2190 C 206.703 -1.15934 -1.66029 0
M  V30 2191 C 207.031 0.291483 -1.92303 0
M  V30 2192 O 206.286 1.22816 -1.52364 0
M  V30 2193 C 206.585 -1.90624 -3.0232 0
M  V30 2194 C 206.251 -3.40405 -2.95695 0
M  V30 2195 C 204.913 -3.81255 -2.93595 0
M  V30 2196 C 207.265 -4.359 -2.85728 0
M  V30 2197 C 204.593 -5.15936 -2.79334 0
M  V30 2198 C 206.945 -5.70657 -2.73007 0
M  V30 2199 C 205.609 -6.10779 -2.69267 0
M  V30 2200 H 204.879 -0.424234 -0.607541 0
M  V30 2201 H 207.526 -1.5942 -1.06101 0
M  V30 2202 H 205.831 -1.39696 -3.6605 0
M  V30 2203 H 207.528 -1.78228 -3.59215 0
M  V30 2204 H 204.118 -3.07927 -2.98125 0
M  V30 2205 H 208.302 -4.053 -2.86436 0
M  V30 2206 H 203.558 -5.46146 -2.74835 0
M  V30 2207 H 207.732 -6.44311 -2.64264 0
M  V30 2208 H 205.359 -7.1509 -2.57974 0
M  V30 2209 N 206.934 1.1197 -1.10907 0
M  V30 2210 C 208.159 1.87942 -0.877064 0
M  V30 2211 C 208.584 1.79341 0.567314 0
M  V30 2212 O 207.942 1.15184 1.40009 0
M  V30 2213 C 207.99 3.34926 -1.33629 0
M  V30 2214 O 207.094 4.09303 -0.504447 0
M  V30 2215 H 206.435 0.583785 -0.316371 0
M  V30 2216 H 208.965 1.4157 -1.47712 0
M  V30 2217 H 208.975 3.8577 -1.32837 0
M  V30 2218 H 207.65 3.40504 -2.3881 0
M  V30 2219 H 206.227 3.68393 -0.577993 0
M  V30 2220 N 208.412 0.89855 1.29475 0
M  V30 2221 C 209.342 0.39201 2.30186 0
M  V30 2222 C 210.323 -0.532359 1.61555 0
M  V30 2223 O 211.508 -0.443331 1.89072 0
M  V30 2224 C 208.638 -0.382353 3.45189 0
M  V30 2225 C 207.592 0.451483 4.25612 0
M  V30 2226 C 206.918 -0.450307 5.328 0
M  V30 2227 C 208.218 1.70079 4.93832 0
M  V30 2228 H 209.912 1.23362 2.72804 0
M  V30 2229 H 207.458 0.594638 1.31149 0
M  V30 2230 H 209.411 -0.747451 4.14718 0
M  V30 2231 H 208.135 -1.25774 3.01411 0
M  V30 2232 H 206.794 0.798897 3.57789 0
M  V30 2233 H 206.442 -1.32379 4.85268 0
M  V30 2234 H 206.142 0.103902 5.87508 0
M  V30 2235 H 207.666 -0.811623 6.05182 0
M  V30 2236 H 209.08 1.40549 5.55805 0
M  V30 2237 H 207.477 2.19623 5.58467 0
M  V30 2238 H 208.547 2.43744 4.19186 0
M  V30 2239 N 209.89 -1.43072 0.660911 0
M  V30 2240 C 211.118 -2.06067 0.185422 0
M  V30 2241 C 211.533 -1.49582 -1.15198 0
M  V30 2242 O 210.89 -0.630134 -1.71276 0
M  V30 2243 C 210.941 -3.61371 0.0966523 0
M  V30 2244 O 210.662 -4.15758 1.38119 0
M  V30 2245 C 212.163 -4.41455 -0.403996 0
M  V30 2246 H 209.383 -0.664459 0.0934604 0
M  V30 2247 H 211.927 -1.83447 0.90373 0
M  V30 2248 H 210.082 -3.8315 -0.572259 0
M  V30 2249 H 210.496 -5.09499 1.24542 0
M  V30 2250 H 211.97 -5.50437 -0.415045 0
M  V30 2251 H 212.447 -4.15036 -1.43674 0
M  V30 2252 H 213.053 -4.24663 0.232691 0
M  V30 2253 N 211.368 -0.403325 -1.52352 0
M  V30 2254 C 212.596 0.174012 -2.06167 0
M  V30 2255 C 213.011 1.39347 -1.27388 0
M  V30 2256 O 212.368 1.79597 -0.324201 0
M  V30 2257 C 212.419 0.530223 -3.5759 0
M  V30 2258 O 212.14 -0.640806 -4.33388 0
M  V30 2259 C 213.641 1.16192 -4.27802 0
M  V30 2260 H 210.861 0.0229464 -0.670608 0
M  V30 2261 H 213.405 -0.572604 -1.9632 0
M  V30 2262 H 211.56 1.22673 -3.67464 0
M  V30 2263 H 211.974 -0.344851 -5.23365 0
M  V30 2264 H 213.448 1.36141 -5.34948 0
M  V30 2265 H 213.925 2.13335 -3.83907 0
M  V30 2266 H 214.531 0.505775 -4.22282 0
M  V30 2267 N 212.846 1.57033 -0.133567 0
M  V30 2268 C 213.796 2.12641 0.822671 0
M  V30 2269 C 214.78 1.05081 1.21847 0
M  V30 2270 O 215.972 1.31287 1.18713 0
M  V30 2271 C 213.101 2.74094 2.06706 0
M  V30 2272 C 212.187 3.88757 1.69497 0
M  V30 2273 N 212.578 4.95194 1.03037 0
M  V30 2274 C 210.876 3.99213 1.98859 0
M  V30 2275 C 211.577 5.75414 0.852873 0
M  V30 2276 N 210.553 5.25726 1.3825 0
M  V30 2277 H 214.355 2.92308 0.305537 0
M  V30 2278 H 211.869 1.62256 0.0684276 0
M  V30 2279 H 213.866 3.12285 2.76195 0
M  V30 2280 H 212.526 1.95896 2.5895 0
M  V30 2281 H 213.537 5.13247 0.692669 0
M  V30 2282 H 210.214 3.32075 2.53047 0
M  V30 2283 H 211.604 6.71089 0.330091 0
M  V30 2284 N 214.325 -0.140222 1.56975 0
M  V30 2285 C 215.553 -0.866437 1.87884 0
M  V30 2286 C 215.968 -1.74428 0.722517 0
M  V30 2287 O 215.325 -1.79891 -0.30749 0
M  V30 2288 C 215.376 -1.71753 3.18093 0
M  V30 2289 O 215.097 -0.875056 4.29272 0
M  V30 2290 C 216.598 -2.55074 3.62563 0
M  V30 2291 H 213.818 -0.25019 0.622612 0
M  V30 2292 H 216.362 -0.130977 2.0408 0
M  V30 2293 H 214.517 -2.40598 3.03631 0
M  V30 2294 H 214.931 -1.46002 5.03769 0
M  V30 2295 H 216.405 -3.10356 4.5649 0
M  V30 2296 H 216.882 -3.31434 2.88181 0
M  V30 2297 H 217.488 -1.91509 3.79743 0
M  V30 2298 N 215.803 -1.52179 -0.40978 0
M  V30 2299 C 217.051 -1.65878 -1.15451 0
M  V30 2300 C 217.372 -0.390771 -1.91044 0
M  V30 2301 O 216.642 0.594323 -1.86667 0
M  V30 2302 H 215.222 -0.611405 -0.429177 0
M  V30 2303 H 217.884 -1.89219 -0.467134 0
M  V30 2304 H 216.98 -2.49954 -1.86894 0
M  V30 2305 N 217.281 0.66697 -1.42791 0
M  V30 2306 C 218.191 1.80962 -1.49299 0
M  V30 2307 C 219.207 1.69775 -0.381108 0
M  V30 2308 O 220.383 1.91188 -0.633188 0
M  V30 2309 C 217.448 3.17156 -1.40045 0
M  V30 2310 C 216.509 3.40242 -2.6179 0
M  V30 2311 C 215.742 4.69939 -2.52969 0
M  V30 2312 O 215.965 5.48372 -1.56985 0
M  V30 2313 O 214.899 4.94441 -3.43237 0
M  V30 2314 H 218.725 1.78427 -2.45759 0
M  V30 2315 H 216.31 0.823713 -1.24641 0
M  V30 2316 H 218.192 3.98413 -1.37276 0
M  V30 2317 H 216.867 3.20312 -0.467138 0
M  V30 2318 H 215.774 2.58802 -2.70134 0
M  V30 2319 H 217.107 3.41923 -3.54047 0
M  V30 2320 N 218.759 1.29093 0.90403 0
M  V30 2321 C 220.175 1.07011 1.1841 0
M  V30 2322 C 220.375 -0.181358 2.00682 0
M  V30 2323 O 219.431 -0.880331 2.36657 0
M  V30 2324 C 220.744 2.32311 1.90924 0
M  V30 2325 C 222.292 2.37587 2.03768 0
M  V30 2326 C 222.767 3.62679 2.79693 0
M  V30 2327 N 224.258 3.63376 2.87249 0
M  V30 2328 C 224.993 4.56848 3.46522 0
M  V30 2329 N 224.489 5.60648 4.06996 0
M  V30 2330 N 226.282 4.44426 3.44154 0
M  V30 2331 H 218.433 2.09412 0.354993 0
M  V30 2332 H 220.696 0.922181 0.219742 0
M  V30 2333 H 220.402 3.23536 1.37905 0
M  V30 2334 H 220.276 2.39483 2.91424 0
M  V30 2335 H 222.663 1.46853 2.55965 0
M  V30 2336 H 222.744 2.34403 1.02415 0
M  V30 2337 H 222.388 4.53762 2.28173 0
M  V30 2338 H 222.318 3.63119 3.81381 0
M  V30 2339 H 224.809 2.88321 2.44293 0
M  V30 2340 H 225.122 6.28101 4.50232 0
M  V30 2341 H 223.467 5.64463 4.05471 0
M  V30 2342 H 226.658 3.62529 2.96126 0
M  V30 2343 H 226.831 5.17457 3.90054 0
M  V30 2344 N 220.237 -1.11381 1.11499 0
M  V30 2345 C 221.184 -2.17439 0.773887 0
M  V30 2346 C 222.154 -1.64132 -0.254899 0
M  V30 2347 O 223.339 -1.90345 -0.13168 0
M  V30 2348 C 220.479 -3.44373 0.223917 0
M  V30 2349 C 219.592 -4.1168 1.30934 0
M  V30 2350 C 218.727 -5.263 0.71984 0
M  V30 2351 C 217.766 -5.85493 1.78507 0
M  V30 2352 N 216.903 -6.91507 1.21502 0
M  V30 2353 H 221.743 -2.45962 1.68246 0
M  V30 2354 H 219.28 -1.20744 0.840191 0
M  V30 2355 H 221.238 -4.17047 -0.112921 0
M  V30 2356 H 219.868 -3.16232 -0.647851 0
M  V30 2357 H 218.92 -3.37073 1.76312 0
M  V30 2358 H 220.232 -4.51729 2.11524 0
M  V30 2359 H 219.386 -6.05785 0.333094 0
M  V30 2360 H 218.125 -4.87559 -0.117377 0
M  V30 2361 H 217.13 -5.04686 2.18111 0
M  V30 2362 H 218.355 -6.26301 2.62533 0
M  V30 2363 H 216.301 -6.54783 0.399455 0
M  V30 2364 H 216.218 -7.30214 1.95763 0
M  V30 2365 H 217.486 -7.74795 0.855181 0
M  V30 2366 N 221.715 -0.905404 -1.28997 0
M  V30 2367 C 222.943 -0.549846 -1.9946 0
M  V30 2368 C 223.358 0.866834 -1.67724 0
M  V30 2369 O 222.715 1.57298 -0.925404 0
M  V30 2370 C 222.766 -0.739387 -3.53858 0
M  V30 2371 O 222.487 -2.10031 -3.84472 0
M  V30 2372 C 223.988 -0.389541 -4.41585 0
M  V30 2373 H 221.208 -0.210429 -0.637151 0
M  V30 2374 H 223.752 -1.21632 -1.64396 0
M  V30 2375 H 221.907 -0.120023 -3.87214 0
M  V30 2376 H 222.321 -2.13385 -4.79132 0
M  V30 2377 H 223.795 -0.572972 -5.49018 0
M  V30 2378 H 224.272 0.673756 -4.34001 0
M  V30 2379 H 224.878 -0.986089 -4.1371 0
M  V30 2380 N 223.193 1.4272 -0.668489 0
M  V30 2381 C 224.47 1.95248 -0.117373 0
M  V30 2382 C 224.85 1.60919 1.36632 0
M  V30 2383 O 224.198 0.902095 2.09939 0
M  V30 2384 C 224.408 3.46927 -0.379806 0
M  V30 2385 C 225.756 4.23588 -0.292923 0
M  V30 2386 O 226.78 3.5482 -0.313204 0
M  V30 2387 O 225.639 5.46017 -0.229697 0
M  V30 2388 H 222.733 0.827 0.00079152 0
M  V30 2389 H 225.279 1.52581 -0.742783 0
M  V30 2390 H 224.051 3.65096 -1.40786 0
M  V30 2391 H 223.674 3.96627 0.277923 0
M  V30 2392 N 224.671 0.411399 1.52136 0
M  V30 2393 C 225.618 -0.412975 2.27075 0
M  V30 2394 C 226.588 -1.03912 1.29582 0
M  V30 2395 O 227.773 -1.06296 1.58448 0
M  V30 2396 C 224.913 -1.52247 3.09701 0
M  V30 2397 C 224.026 -0.917021 4.22155 0
M  V30 2398 C 223.161 -1.9994 4.92135 0
M  V30 2399 C 222.2 -1.37101 5.96548 0
M  V30 2400 N 221.337 -2.39364 6.60038 0
M  V30 2401 H 226.177 0.232499 2.97092 0
M  V30 2402 H 223.714 0.126496 1.46555 0
M  V30 2403 H 225.672 -2.17674 3.55913 0
M  V30 2404 H 224.302 -2.13794 2.41851 0
M  V30 2405 H 223.354 -0.151742 3.80097 0
M  V30 2406 H 224.666 -0.418006 4.97045 0
M  V30 2407 H 223.82 -2.73088 5.41763 0
M  V30 2408 H 222.559 -2.53208 4.16818 0
M  V30 2409 H 221.564 -0.624873 5.46237 0
M  V30 2410 H 222.789 -0.845998 6.7381 0
M  V30 2411 H 220.735 -2.91759 5.87548 0
M  V30 2412 H 220.652 -1.9428 7.3061 0
M  V30 2413 H 221.92 -3.12074 7.14304 0
M  V30 2414 N 226.149 -1.5696 0.141893 0
M  V30 2415 C 227.426 -1.87553 -0.555281 0
M  V30 2416 C 227.806 -1.04699 -1.83306 0
M  V30 2417 O 227.154 -0.132346 -2.28116 0
M  V30 2418 C 227.364 -3.39093 -0.825664 0
M  V30 2419 C 228.712 -4.08199 -1.16869 0
M  V30 2420 O 229.736 -3.44242 -0.915185 0
M  V30 2421 O 228.595 -5.21139 -1.6455 0
M  V30 2422 H 225.689 -0.777188 -0.282679 0
M  V30 2423 H 228.235 -1.68763 0.17812 0
M  V30 2424 H 227.007 -3.91221 0.0788633 0
M  V30 2425 H 226.63 -3.63393 -1.61343 0
M  V30 2426 N 227.627 0.131896 -1.57047 0
M  V30 2427 C 228.857 0.855219 -1.88068 0
M  V30 2428 C 229.265 1.74557 -0.729817 0
M  V30 2429 O 228.608 1.81083 0.308962 0
M  V30 2430 C 228.67 1.75119 -3.13964 0
M  V30 2431 C 228.334 1.03646 -4.45091 0
M  V30 2432 C 229.331 0.383276 -5.18485 0
M  V30 2433 C 227.016 1.02148 -4.91804 0
M  V30 2434 C 229.01 -0.275347 -6.36805 0
M  V30 2435 C 226.697 0.359047 -6.10044 0
M  V30 2436 C 227.695 -0.288222 -6.82392 0
M  V30 2437 O 227.383 -0.94011 -7.98384 0
M  V30 2438 H 227.115 0.251864 -0.627328 0
M  V30 2439 H 229.669 0.124782 -2.05021 0
M  V30 2440 H 227.899 2.52295 -2.9306 0
M  V30 2441 H 229.588 2.3478 -3.31109 0
M  V30 2442 H 230.354 0.386562 -4.83457 0
M  V30 2443 H 226.233 1.5147 -4.35405 0
M  V30 2444 H 229.777 -0.781148 -6.93213 0
M  V30 2445 H 225.674 0.35348 -6.44531 0
M  V30 2446 H 226.442 -0.84329 -8.14144 0
M  V30 2447 N 229.106 1.52395 0.401703 0
M  V30 2448 C 230.036 1.79231 1.49661 0
M  V30 2449 C 231.017 0.643654 1.57452 0
M  V30 2450 O 232.202 0.889989 1.72606 0
M  V30 2451 C 229.332 1.94971 2.87409 0
M  V30 2452 C 228.286 3.10604 2.94465 0
M  V30 2453 C 227.612 3.11577 4.34538 0
M  V30 2454 C 228.912 4.49921 2.6527 0
M  V30 2455 H 230.606 2.70917 1.27454 0
M  V30 2456 H 228.152 1.30362 0.6117 0
M  V30 2457 H 230.105 2.12328 3.63999 0
M  V30 2458 H 228.829 0.999632 3.10926 0
M  V30 2459 H 227.488 2.93009 2.20321 0
M  V30 2460 H 227.136 2.14277 4.55076 0
M  V30 2461 H 226.836 3.89247 4.40183 0
M  V30 2462 H 228.36 3.31073 5.13053 0
M  V30 2463 H 229.774 4.67683 3.31581 0
M  V30 2464 H 228.171 5.29564 2.82281 0
M  V30 2465 H 229.241 4.57507 1.60671 0
M  V30 2466 N 230.584 -0.659388 1.43143 0
M  V30 2467 C 231.832 -1.41654 1.44147 0
M  V30 2468 C 232.153 -1.94893 0.0645739 0
M  V30 2469 O 231.423 -1.74044 -0.899198 0
M  V30 2470 H 230.003 -0.525708 0.530697 0
M  V30 2471 H 232.665 -0.778097 1.78694 0
M  V30 2472 H 231.761 -2.26195 2.1504 0
M  V30 2473 N 232.062 -1.29571 -0.897171 0
M  V30 2474 C 232.994 -1.10724 -2.00681 0
M  V30 2475 C 234.007 -0.0540026 -1.6271 0
M  V30 2476 O 235.196 -0.298783 -1.75982 0
M  V30 2477 C 232.296 -0.663912 -3.32333 0
M  V30 2478 C 231.469 -1.79622 -3.98816 0
M  V30 2479 C 230.528 -1.34349 -5.0876 0
M  V30 2480 O 229.554 -2.04864 -5.31055 0
M  V30 2481 N 230.756 -0.215764 -5.80099 0
M  V30 2482 H 233.521 -2.06291 -2.17403 0
M  V30 2483 H 231.082 -1.21544 -1.06951 0
M  V30 2484 H 233.074 -0.344295 -4.03233 0
M  V30 2485 H 231.644 0.199375 -3.11964 0
M  V30 2486 H 230.864 -2.28459 -3.21248 0
M  V30 2487 H 232.152 -2.55535 -4.39976 0
M  V30 2488 H 231.55 0.372091 -5.64475 0
M  V30 2489 H 230.107 0.0444707 -6.51785 0
M  V30 2490 N 233.54 1.10788 -1.12088 0
M  V30 2491 C 234.786 1.8313 -0.885148 0
M  V30 2492 C 235.141 1.8336 0.582839 0
M  V30 2493 O 234.434 1.28062 1.42516 0
M  V30 2494 C 234.628 3.29294 -1.38926 0
M  V30 2495 C 234.457 3.43302 -2.90472 0
M  V30 2496 C 233.227 3.55928 -3.58669 0
M  V30 2497 C 235.425 3.37014 -3.88492 0
M  V30 2498 N 233.407 3.58475 -4.98366 0
M  V30 2499 C 234.778 3.46263 -5.14298 0
M  V30 2500 C 236.833 3.20589 -3.80955 0
M  V30 2501 C 235.536 3.4078 -6.33452 0
M  V30 2502 C 237.562 3.16427 -4.99628 0
M  V30 2503 C 236.924 3.26253 -6.2429 0
M  V30 2504 H 233.023 0.685054 -0.377128 0
M  V30 2505 H 235.607 1.3251 -1.4265 0
M  V30 2506 H 233.778 3.78416 -0.874999 0
M  V30 2507 H 235.51 3.89578 -1.09596 0
M  V30 2508 H 232.265 3.58779 -3.09151 0
M  V30 2509 H 232.689 3.6337 -5.71219 0
M  V30 2510 H 237.331 3.11873 -2.85474 0
M  V30 2511 H 235.049 3.48263 -7.29204 0
M  V30 2512 H 238.635 3.04874 -4.95523 0
M  V30 2513 H 237.515 3.2303 -7.14578 0
M  V30 2514 N 235.018 0.912232 1.28515 0
M  V30 2515 C 235.948 0.416403 2.29757 0
M  V30 2516 C 236.929 -0.515194 1.6211 0
M  V30 2517 O 238.114 -0.423253 1.89532 0
M  V30 2518 C 235.244 -0.34572 3.45575 0
M  V30 2519 C 234.198 0.496599 4.25109 0
M  V30 2520 C 233.524 -0.393771 5.33248 0
M  V30 2521 C 234.824 1.75307 4.92001 0
M  V30 2522 H 236.518 1.26249 2.7148 0
M  V30 2523 H 234.064 0.608515 1.30511 0
M  V30 2524 H 236.017 -0.703422 4.15488 0
M  V30 2525 H 234.741 -1.2257 3.02728 0
M  V30 2526 H 233.4 0.8368 3.56922 0
M  V30 2527 H 233.048 -1.27225 4.86644 0
M  V30 2528 H 232.748 0.166209 5.87365 0
M  V30 2529 H 234.272 -0.747389 6.06009 0
M  V30 2530 H 235.686 1.46437 5.54283 0
M  V30 2531 H 234.083 2.25534 5.56106 0
M  V30 2532 H 235.153 2.48176 4.16577 0
M  V30 2533 N 236.496 -1.42363 0.676048 0
M  V30 2534 C 237.426 -2.33497 0.0124832 0
M  V30 2535 C 238.407 -1.50748 -0.787981 0
M  V30 2536 O 239.592 -1.79346 -0.744884 0
M  V30 2537 C 236.722 -3.34377 -0.938582 0
M  V30 2538 C 235.676 -4.27289 -0.246622 0
M  V30 2539 C 235.002 -5.18386 -1.31071 0
M  V30 2540 C 236.302 -5.14916 0.875125 0
M  V30 2541 H 237.996 -2.89233 0.773593 0
M  V30 2542 H 235.542 -1.39073 0.37346 0
M  V30 2543 H 237.495 -3.97044 -1.41188 0
M  V30 2544 H 236.219 -2.76947 -1.73113 0
M  V30 2545 H 234.878 -3.66018 0.206456 0
M  V30 2546 H 234.526 -4.57282 -2.09528 0
M  V30 2547 H 234.226 -5.81378 -0.852839 0
M  V30 2548 H 235.75 -5.83929 -1.78492 0
M  V30 2549 H 237.164 -5.71262 0.482983 0
M  V30 2550 H 235.561 -5.86747 1.25887 0
M  V30 2551 H 236.631 -4.53242 1.72335 0
M  V30 2552 N 237.974 -0.419461 -1.51915 0
M  V30 2553 C 239.223 0.154346 -2.01109 0
M  V30 2554 C 239.536 1.45338 -1.30905 0
M  V30 2555 O 240.742 2.10906 -1.7097 0
M  V30 2556 C 239.198 0.325615 -3.58424 0
M  V30 2557 C 238.806 -0.961934 -4.37551 0
M  V30 2558 C 240.55 0.854155 -4.15818 0
M  V30 2559 C 238.457 -0.757287 -5.86531 0
M  V30 2560 H 237.387 0.0614563 -0.751491 0
M  V30 2561 H 240.038 -0.54649 -1.75173 0
M  V30 2562 H 238.42 1.08903 -3.80731 0
M  V30 2563 H 239.594 -1.7323 -4.26999 0
M  V30 2564 H 237.909 -1.41766 -3.91524 0
M  V30 2565 H 240.506 1.02346 -5.24814 0
M  V30 2566 H 240.849 1.83172 -3.73837 0
M  V30 2567 H 241.382 0.149528 -3.97519 0
M  V30 2568 H 238.121 -1.70671 -6.32892 0
M  V30 2569 H 237.641 -0.0264061 -5.99794 0
M  V30 2570 H 239.32 -0.403482 -6.45741 0
M  V30 2571 N 239.452 1.56882 -0.150215 0
M  V30 2572 C 240.682 2.00302 0.506213 0
M  V30 2573 C 241.09 1.02934 1.58749 0
M  V30 2574 O 240.433 0.0188384 1.8369 0
M  V30 2575 C 240.495 3.40156 1.16337 0
M  V30 2576 C 240.159 4.56439 0.226311 0
M  V30 2577 C 241.156 5.17012 -0.547265 0
M  V30 2578 C 238.841 5.02136 0.128279 0
M  V30 2579 C 240.835 6.21693 -1.40629 0
M  V30 2580 C 238.522 6.06672 -0.734345 0
M  V30 2581 C 239.52 6.6632 -1.50023 0
M  V30 2582 O 239.208 7.68831 -2.34848 0
M  V30 2583 H 238.94 0.662182 0.135984 0
M  V30 2584 H 241.494 2.03961 -0.242746 0
M  V30 2585 H 239.724 3.33346 1.96004 0
M  V30 2586 H 241.413 3.67663 1.71985 0
M  V30 2587 H 242.179 4.82603 -0.48158 0
M  V30 2588 H 238.058 4.55435 0.714157 0
M  V30 2589 H 241.602 6.68179 -2.00455 0
M  V30 2590 H 237.499 6.40507 -0.801309 0
M  V30 2591 H 238.267 7.86065 -2.28131 0
M  V30 2592 N 240.93 -0.123565 1.57115 0
M  V30 2593 C 242.177 -0.832153 1.84612 0
M  V30 2594 C 242.505 -1.80093 0.734627 0
M  V30 2595 O 241.76 -1.93766 -0.27442 0
M  V30 2596 C 242.059 -1.62016 3.18568 0
M  V30 2597 C 241.725 -0.796084 4.43817 0
M  V30 2598 C 240.387 -0.568816 4.77826 0
M  V30 2599 C 242.739 -0.221364 5.2073 0
M  V30 2600 C 240.067 0.243499 5.86194 0
M  V30 2601 C 242.419 0.578117 6.29953 0
M  V30 2602 C 241.083 0.815744 6.62497 0
M  V30 2603 H 240.353 -0.304507 0.675542 0
M  V30 2604 H 243 -0.0947248 1.91266 0
M  V30 2605 H 241.305 -2.42837 3.0747 0
M  V30 2606 H 243.002 -2.17231 3.37064 0
M  V30 2607 H 239.592 -0.983307 4.17168 0
M  V30 2608 H 243.776 -0.384173 4.94811 0
M  V30 2609 H 239.032 0.436871 6.09837 0
M  V30 2610 H 243.206 1.03046 6.88734 0
M  V30 2611 H 240.833 1.44701 7.46301 0
M  V30 2612 N 242.408 -1.52605 -0.393616 0
M  V30 2613 C 243.656 -1.67093 -1.13685 0
M  V30 2614 C 243.977 -0.411011 -1.90619 0
M  V30 2615 O 243.247 0.574491 -1.87287 0
M  V30 2616 H 241.827 -0.615923 -0.422668 0
M  V30 2617 H 244.489 -1.89704 -0.447039 0
M  V30 2618 H 243.585 -2.51922 -1.84232 0
M  V30 2619 N 243.887 0.651787 -1.4349 0
M  V30 2620 C 245.134 1.41167 -1.45183 0
M  V30 2621 C 245.462 1.94349 -0.0766601 0
M  V30 2622 O 244.717 1.72804 0.918555 0
M  V30 2623 C 245.016 2.60914 -2.44251 0
M  V30 2624 C 244.682 2.26142 -3.9009 0
M  V30 2625 C 243.344 2.16371 -4.2981 0
M  V30 2626 C 245.696 1.98334 -4.81989 0
M  V30 2627 C 243.024 1.7695 -5.5938 0
M  V30 2628 C 245.376 1.6041 -6.11924 0
M  V30 2629 C 244.04 1.49166 -6.5062 0
M  V30 2630 H 243.31 0.516566 -0.531263 0
M  V30 2631 H 245.957 0.741099 -1.76579 0
M  V30 2632 H 244.262 3.3311 -2.06265 0
M  V30 2633 H 245.959 3.19127 -2.42815 0
M  V30 2634 H 242.549 2.34658 -3.58655 0
M  V30 2635 H 246.733 2.04803 -4.52072 0
M  V30 2636 H 241.989 1.66831 -5.88198 0
M  V30 2637 H 246.163 1.37925 -6.82605 0
M  V30 2638 H 243.79 1.1839 -7.50925 0
M  V30 2639 N 245.365 1.30045 0.890287 0
M  V30 2640 C 246.593 1.21472 1.67487 0
M  V30 2641 C 247.008 -0.223241 1.87476 0
M  V30 2642 O 246.365 -1.14828 1.41847 0
M  V30 2643 C 246.416 1.93394 3.05419 0
M  V30 2644 O 246.137 3.31576 2.86337 0
M  V30 2645 C 247.638 1.91414 3.99844 0
M  V30 2646 H 244.858 0.420604 0.522813 0
M  V30 2647 H 247.402 1.7158 1.11268 0
M  V30 2648 H 245.557 1.47099 3.58386 0
M  V30 2649 H 245.971 3.67929 3.73802 0
M  V30 2650 H 247.445 2.46285 4.94012 0
M  V30 2651 H 247.922 0.891833 4.3005 0
M  V30 2652 H 248.528 2.37496 3.52811 0
M  V30 2653 N 246.843 -1.10192 1.12674 0
M  V30 2654 C 247.793 -2.14754 0.765801 0
M  V30 2655 C 248.777 -1.59154 -0.236409 0
M  V30 2656 O 249.969 -1.76951 -0.0415261 0
M  V30 2657 C 247.098 -3.42563 0.224827 0
M  V30 2658 C 246.184 -4.05091 1.25548 0
M  V30 2659 N 246.575 -4.42287 2.4539 0
M  V30 2660 C 244.873 -4.32186 1.10142 0
M  V30 2661 C 245.574 -4.91441 3.11224 0
M  V30 2662 N 244.55 -4.88405 2.38666 0
M  V30 2663 H 248.352 -2.41309 1.67772 0
M  V30 2664 H 245.866 -1.27339 1.00789 0
M  V30 2665 H 247.863 -4.16868 -0.0519578 0
M  V30 2666 H 246.523 -3.17467 -0.681515 0
M  V30 2667 H 247.534 -4.33902 2.82754 0
M  V30 2668 H 244.211 -4.16735 0.252587 0
M  V30 2669 H 245.601 -5.29749 4.13298 0
M  V30 2670 N 248.321 -0.919034 -1.28029 0
M  V30 2671 C 249.561 -0.562107 -1.96519 0
M  V30 2672 C 249.925 0.878784 -1.70708 0
M  V30 2673 O 251.126 1.34355 -2.32813 0
M  V30 2674 C 249.397 -0.868953 -3.46676 0
M  V30 2675 S 250.956 -0.619237 -4.34409 0
M  V30 2676 H 247.774 -0.2078 -0.679956 0
M  V30 2677 H 250.376 -1.18562 -1.55446 0
M  V30 2678 H 249.08 -1.91547 -3.62957 0
M  V30 2679 H 248.611 -0.234301 -3.92702 0
M  V30 2680 H 250.626 0.526995 -4.93394 0
M  V30 2681 N 249.799 1.42003 -0.683588 0
M  V30 2682 C 251.21 1.84501 -0.285736 0
M  V30 2683 C 251.561 1.57213 1.17382 0
M  V30 2684 O 250.686 1.03642 1.89966 0
M  V30 2685 C 251.281 3.34912 -0.511821 0
M  V30 2686 C 249.84 3.76025 -0.168005 0
M  V30 2687 C 248.987 2.6551 -0.799983 0
M  V30 2688 H 251.938 1.31724 -0.885119 0
M  V30 2689 H 251.959 3.79784 0.233292 0
M  V30 2690 H 251.471 3.54741 -1.57418 0
M  V30 2691 H 249.572 3.61801 0.890567 0
M  V30 2692 H 249.685 4.75141 -0.614661 0
M  V30 2693 H 248.049 2.53654 -0.230568 0
M  V30 2694 H 248.832 2.8816 -1.86597 0
M  V30 2695 N 251.277 0.427512 1.51691 0
M  V30 2696 C 252.554 -0.201684 1.94557 0
M  V30 2697 C 252.934 -1.60981 1.36559 0
M  V30 2698 O 252.282 -2.21814 0.548702 0
M  V30 2699 C 252.492 -0.189394 3.48486 0
M  V30 2700 C 253.84 -0.39978 4.22714 0
M  V30 2701 O 254.864 -0.267945 3.55191 0
M  V30 2702 O 253.723 -0.661249 5.42485 0
M  V30 2703 H 250.817 -0.135261 0.815864 0
M  V30 2704 H 253.363 0.484782 1.62628 0
M  V30 2705 H 252.135 0.795431 3.8313 0
M  V30 2706 H 251.758 -0.919187 3.86829 0
M  V30 2707 N 252.755 -1.56801 0.158532 0
M  V30 2708 C 254.001 -1.96781 -0.490405 0
M  V30 2709 C 254.334 -1.04397 -1.63753 0
M  V30 2710 O 253.609 -0.0885805 -1.94298 0
M  V30 2711 C 253.892 -3.4635 -0.985594 0
M  V30 2712 C 253.745 -4.49512 0.160824 0
M  V30 2713 C 255.064 -3.98697 -1.86355 0
M  V30 2714 H 252.183 -0.715482 -0.176788 0
M  V30 2715 H 254.825 -1.88451 0.242088 0
M  V30 2716 H 252.975 -3.53579 -1.60978 0
M  V30 2717 H 254.647 -4.54353 0.797537 0
M  V30 2718 H 252.89 -4.26013 0.818256 0
M  V30 2719 H 253.561 -5.51531 -0.227569 0
M  V30 2720 H 256.037 -3.94019 -1.33746 0
M  V30 2721 H 254.913 -5.03792 -2.17909 0
M  V30 2722 H 255.174 -3.41744 -2.8047 0
M  V30 2723 N 254.233 0.115231 -1.57178 0
M  V30 2724 C 255.473 0.828199 -1.8687 0
M  V30 2725 C 255.837 1.76873 -0.747002 0
M  V30 2726 O 257.038 2.52354 -0.925785 0
M  V30 2727 C 255.309 1.55515 -3.21792 0
M  V30 2728 S 256.868 2.30917 -3.73125 0
M  V30 2729 H 253.686 0.27634 -0.655101 0
M  V30 2730 H 256.288 0.0863469 -1.95309 0
M  V30 2731 H 254.992 0.856248 -4.01368 0
M  V30 2732 H 254.523 2.3373 -3.16439 0
M  V30 2733 H 256.538 3.56705 -3.44929 0
M  V30 2734 N 255.711 1.52812 0.385517 0
M  V30 2735 C 257.122 1.5993 0.963293 0
M  V30 2736 C 257.473 0.454302 1.90868 0
M  V30 2737 O 256.598 -0.422132 2.12243 0
M  V30 2738 C 257.193 2.89871 1.75387 0
M  V30 2739 C 255.752 2.99389 2.28129 0
M  V30 2740 C 254.899 2.55071 1.08783 0
M  V30 2741 H 257.85 1.5784 0.164948 0
M  V30 2742 H 257.871 2.76553 2.61341 0
M  V30 2743 H 257.383 3.73186 1.06554 0
M  V30 2744 H 255.484 2.20619 3.00263 0
M  V30 2745 H 255.597 4.04096 2.57377 0
M  V30 2746 H 253.961 2.09473 1.4489 0
M  V30 2747 H 254.744 3.40785 0.414807 0
M  V30 2748 N 257.189 -0.644168 1.43834 0
M  V30 2749 C 258.099 -1.78563 1.52159 0
M  V30 2750 C 259.115 -1.69147 0.408069 0
M  V30 2751 O 260.291 -1.90156 0.663524 0
M  V30 2752 C 257.356 -3.14888 1.45073 0
M  V30 2753 C 256.417 -3.36034 2.6717 0
M  V30 2754 C 255.65 -4.65855 2.60413 0
M  V30 2755 O 255.873 -5.45805 1.65689 0
M  V30 2756 O 254.807 -4.88918 3.5106 0
M  V30 2757 H 258.633 -1.74494 2.48567 0
M  V30 2758 H 256.218 -0.80378 1.25935 0
M  V30 2759 H 258.1 -3.96179 1.43597 0
M  V30 2760 H 256.775 -3.19528 0.518037 0
M  V30 2761 H 255.682 -2.54472 2.74217 0
M  V30 2762 H 257.015 -3.36247 3.59442 0
M  V30 2763 N 258.668 -1.30515 -0.883378 0
M  V30 2764 C 259.578 -1.18959 -2.02203 0
M  V30 2765 C 260.594 -0.109172 -1.73657 0
M  V30 2766 O 261.77 -0.324413 -1.9877 0
M  V30 2767 C 258.835 -0.883871 -3.35244 0
M  V30 2768 C 257.896 -2.04982 -3.77201 0
M  V30 2769 C 257.129 -1.75859 -5.03894 0
M  V30 2770 O 257.352 -0.687276 -5.66244 0
M  V30 2771 O 256.286 -2.61146 -5.42297 0
M  V30 2772 H 260.112 -2.14616 -2.1488 0
M  V30 2773 H 257.697 -1.10124 -1.0096 0
M  V30 2774 H 259.579 -0.728644 -4.15053 0
M  V30 2775 H 258.254 0.0427798 -3.23672 0
M  V30 2776 H 257.161 -2.26038 -2.9809 0
M  V30 2777 H 258.494 -2.95825 -3.93381 0
M  V30 2778 N 260.146 1.09593 -1.13257 0
M  V30 2779 C 261.076 2.18214 -0.830946 0
M  V30 2780 C 262.057 1.68812 0.208966 0
M  V30 2781 O 263.242 1.9408 0.0682666 0
M  V30 2782 C 260.372 3.46051 -0.294296 0
M  V30 2783 C 259.326 4.08778 -1.26826 0
M  V30 2784 C 258.652 5.31419 -0.591449 0
M  V30 2785 C 259.952 4.51476 -2.62615 0
M  V30 2786 H 261.646 2.43703 -1.73923 0
M  V30 2787 H 259.192 1.17128 -0.837675 0
M  V30 2788 H 261.145 4.2134 -0.0709606 0
M  V30 2789 H 259.869 3.20079 0.649366 0
M  V30 2790 H 258.528 3.35505 -1.47756 0
M  V30 2791 H 258.176 5.01727 0.357633 0
M  V30 2792 H 257.876 5.74341 -1.24123 0
M  V30 2793 H 259.4 6.09433 -0.377355 0
M  V30 2794 H 260.814 5.17999 -2.45663 0
M  V30 2795 H 259.211 5.05277 -3.23752 0
M  V30 2796 H 260.281 3.63962 -3.20406 0
M  V30 2797 N 261.624 0.925811 1.2754 0
M  V30 2798 C 262.534 0.428993 2.30644 0
M  V30 2799 C 263.55 -0.489387 1.66976 0
M  V30 2800 O 264.726 -0.372653 1.97922 0
M  V30 2801 C 261.791 -0.311967 3.45294 0
M  V30 2802 C 260.852 0.641098 4.24486 0
M  V30 2803 C 260.085 -0.0645955 5.33661 0
M  V30 2804 O 260.308 -1.28429 5.55754 0
M  V30 2805 O 259.242 0.606265 5.98839 0
M  V30 2806 H 263.068 1.28504 2.75173 0
M  V30 2807 H 260.653 0.691086 1.32455 0
M  V30 2808 H 262.535 -0.729972 4.15029 0
M  V30 2809 H 261.21 -1.14365 3.02824 0
M  V30 2810 H 260.117 1.10874 3.57292 0
M  V30 2811 H 261.45 1.43995 4.70666 0
M  V30 2812 N 263.102 -1.41638 0.69111 0
M  V30 2813 C 264.049 -2.30789 0.0229705 0
M  V30 2814 C 265.019 -1.46863 -0.775911 0
M  V30 2815 O 266.204 -1.75661 -0.74485 0
M  V30 2816 C 263.344 -3.32868 -0.910666 0
M  V30 2817 C 262.457 -4.31875 -0.103874 0
M  V30 2818 C 261.592 -5.21024 -1.03475 0
M  V30 2819 C 260.631 -6.11702 -0.220598 0
M  V30 2820 N 259.768 -6.93349 -1.10504 0
M  V30 2821 H 264.608 -2.87366 0.788978 0
M  V30 2822 H 262.145 -1.41535 0.400794 0
M  V30 2823 H 264.103 -3.90596 -1.46597 0
M  V30 2824 H 262.733 -2.77851 -1.64312 0
M  V30 2825 H 261.785 -3.76131 0.568285 0
M  V30 2826 H 263.097 -4.96003 0.527504 0
M  V30 2827 H 262.251 -5.83565 -1.65943 0
M  V30 2828 H 260.99 -4.57112 -1.69999 0
M  V30 2829 H 259.995 -5.48215 0.417187 0
M  V30 2830 H 261.22 -6.77668 0.440784 0
M  V30 2831 H 259.166 -6.3205 -1.75638 0
M  V30 2832 H 259.083 -7.54146 -0.529125 0
M  V30 2833 H 260.351 -7.60362 -1.71667 0
M  V30 2834 N 264.58 -0.43555 -1.51462 0
M  V30 2835 C 265.513 0.421989 -2.24264 0
M  V30 2836 C 266.491 1.02619 -1.26127 0
M  V30 2837 O 267.675 1.069 -1.55257 0
M  V30 2838 C 264.802 1.588 -2.99166 0
M  V30 2839 C 263.848 1.10465 -4.11946 0
M  V30 2840 S 264.681 0.048146 -5.35478 0
M  V30 2841 C 265.837 1.21887 -6.13917 0
M  V30 2842 H 266.07 -0.196102 -2.96653 0
M  V30 2843 H 263.603 -0.220054 -1.52824 0
M  V30 2844 H 265.561 2.25647 -3.42919 0
M  V30 2845 H 264.222 2.1775 -2.26371 0
M  V30 2846 H 263.415 1.97654 -4.63626 0
M  V30 2847 H 263.017 0.51445 -3.70445 0
M  V30 2848 H 265.309 2.13756 -6.42895 0
M  V30 2849 H 266.252 0.742076 -7.04201 0
M  V30 2850 H 266.66 1.45663 -5.45383 0
M  V30 2851 N 266.058 1.56714 -0.166846 0
M  V30 2852 C 267.307 1.95922 0.479318 0
M  V30 2853 C 267.62 1.05529 1.6469 0
M  V30 2854 O 268.826 1.34399 2.35901 0
M  V30 2855 C 267.282 3.48359 0.90412 0
M  V30 2856 C 266.89 4.47369 -0.237621 0
M  V30 2857 C 268.634 3.96394 1.51896 0
M  V30 2858 C 266.541 5.91039 0.206561 0
M  V30 2859 H 265.471 0.731495 0.18284 0
M  V30 2860 H 268.122 1.81728 -0.254363 0
M  V30 2861 H 266.504 3.57955 1.69365 0
M  V30 2862 H 267.678 4.49485 -1.01489 0
M  V30 2863 H 265.993 4.09366 -0.762128 0
M  V30 2864 H 268.59 5.01186 1.86325 0
M  V30 2865 H 268.933 3.39075 2.41524 0
M  V30 2866 H 269.466 3.89796 0.79395 0
M  V30 2867 H 266.205 6.52221 -0.654834 0
M  V30 2868 H 265.725 5.9224 0.949282 0
M  V30 2869 H 267.404 6.43707 0.651939 0
M  V30 2870 N 267.536 -0.106894 1.57237 0
M  V30 2871 C 268.468 -1.15646 1.97885 0
M  V30 2872 C 269.481 -1.36981 0.879779 0
M  V30 2873 O 270.67 -1.35841 1.15799 0
M  V30 2874 C 267.77 -2.51425 2.27241 0
M  V30 2875 C 266.943 -2.50529 3.58545 0
M  V30 2876 C 266.002 -3.68145 3.75973 0
M  V30 2877 O 265.028 -3.51176 4.47956 0
M  V30 2878 N 266.23 -4.87177 3.15656 0
M  V30 2879 H 268.995 -0.81059 2.8853 0
M  V30 2880 H 266.556 -0.296024 1.59171 0
M  V30 2881 H 268.548 -3.28689 2.36105 0
M  V30 2882 H 267.118 -2.78147 1.42663 0
M  V30 2883 H 266.338 -1.58894 3.60758 0
M  V30 2884 H 267.626 -2.46997 4.44826 0
M  V30 2885 H 267.024 -5.03868 2.57165 0
M  V30 2886 H 265.581 -5.62075 3.30023 0
M  V30 2887 N 269.014 -1.53014 -0.377408 0
M  V30 2888 C 270.26 -1.68872 -1.12294 0
M  V30 2889 C 270.593 -0.433224 -1.89306 0
M  V30 2890 O 269.868 0.569258 -1.85983 0
M  V30 2891 C 270.151 -2.93115 -2.09179 0
M  V30 2892 C 270.004 -4.28794 -1.35853 0
M  V30 2893 C 271.323 -3.12928 -3.09458 0
M  V30 2894 H 268.442 -0.614518 -0.406862 0
M  V30 2895 H 271.084 -1.85633 -0.40503 0
M  V30 2896 H 269.234 -2.78956 -2.70399 0
M  V30 2897 H 270.906 -4.54742 -0.775082 0
M  V30 2898 H 269.149 -4.28744 -0.660364 0
M  V30 2899 H 269.82 -5.11837 -2.06706 0
M  V30 2900 H 272.296 -3.26194 -2.58334 0
M  V30 2901 H 271.172 -4.01316 -3.74482 0
M  V30 2902 H 271.433 -2.27669 -3.78971 0
M  V30 2903 N 270.492 0.636531 -1.44174 0
M  V30 2904 C 271.738 1.39826 -1.4689 0
M  V30 2905 C 272.071 1.93947 -0.0990585 0
M  V30 2906 O 271.346 1.73325 0.882544 0
M  V30 2907 C 271.629 2.56751 -2.5249 0
M  V30 2908 C 271.482 2.08014 -3.98811 0
M  V30 2909 C 272.801 3.58946 -2.54649 0
M  V30 2910 H 269.92 0.507075 -0.53483 0
M  V30 2911 H 272.562 0.720188 -1.75822 0
M  V30 2912 H 270.712 3.14597 -2.2795 0
M  V30 2913 H 272.384 1.5504 -4.34466 0
M  V30 2914 H 270.627 1.39242 -4.10846 0
M  V30 2915 H 271.298 2.92169 -4.68339 0
M  V30 2916 H 273.774 3.1089 -2.76563 0
M  V30 2917 H 272.65 4.38286 -3.3045 0
M  V30 2918 H 272.911 4.12655 -1.58646 0
M  V30 2919 N 271.97 1.30982 0.876444 0
M  V30 2920 C 273.247 1.10942 1.61094 0
M  V30 2921 C 273.627 -0.338223 2.08373 0
M  V30 2922 O 272.975 -1.33122 1.85717 0
M  V30 2923 C 273.185 2.11789 2.77392 0
M  V30 2924 C 274.533 2.43965 3.47514 0
M  V30 2925 O 275.557 2.10166 2.87591 0
M  V30 2926 O 274.416 3.01817 4.55597 0
M  V30 2927 H 271.51 0.42667 0.708436 0
M  V30 2928 H 274.056 1.42438 0.922474 0
M  V30 2929 H 272.828 3.09194 2.39823 0
M  V30 2930 H 272.451 1.81161 3.5393 0
M  V30 2931 N 273.449 -1.08991 1.13837 0
M  V30 2932 C 274.359 -2.19301 0.833333 0
M  V30 2933 C 275.375 -1.73026 -0.183847 0
M  V30 2934 O 276.551 -2.01395 -0.0138092 0
M  V30 2935 C 273.616 -3.45323 0.308651 0
M  V30 2936 C 272.677 -4.06255 1.38764 0
M  V30 2937 C 271.91 -5.26262 0.887896 0
M  V30 2938 O 272.133 -5.69747 -0.27287 0
M  V30 2939 O 271.067 -5.78435 1.66421 0
M  V30 2940 H 274.893 -2.47854 1.75506 0
M  V30 2941 H 272.478 -1.18012 0.916166 0
M  V30 2942 H 274.36 -4.21394 0.0216739 0
M  V30 2943 H 273.035 -3.18362 -0.585431 0
M  V30 2944 H 271.942 -3.318 1.72799 0
M  V30 2945 H 273.275 -4.37452 2.25602 0
M  V30 2946 N 274.927 -0.932562 -1.27047 0
M  V30 2947 C 276.176 -0.571351 -1.93439 0
M  V30 2948 C 276.489 0.892467 -1.74053 0
M  V30 2949 O 277.695 1.36267 -2.34826 0
M  V30 2950 C 276.151 -0.97106 -3.46552 0
M  V30 2951 C 275.759 -2.4559 -3.74686 0
M  V30 2952 C 277.503 -0.681333 -4.18997 0
M  V30 2953 C 275.41 -2.79475 -5.21198 0
M  V30 2954 H 274.34 -0.209966 -0.724176 0
M  V30 2955 H 276.991 -1.13403 -1.44263 0
M  V30 2956 H 275.373 -0.336983 -3.94564 0
M  V30 2957 H 276.547 -3.13829 -3.37414 0
M  V30 2958 H 274.862 -2.71802 -3.15456 0
M  V30 2959 H 277.459 -0.910939 -5.26883 0
M  V30 2960 H 277.802 0.381628 -4.14547 0
M  V30 2961 H 278.335 -1.27473 -3.76823 0
M  V30 2962 H 275.074 -3.847 -5.30741 0
M  V30 2963 H 274.594 -2.1589 -5.596 0
M  V30 2964 H 276.273 -2.67478 -5.89122 0
M  V30 2965 N 276.405 1.4127 -0.698611 0
M  V30 2966 C 277.682 1.94955 -0.158762 0
M  V30 2967 C 278.062 1.63781 1.33188 0
M  V30 2968 O 277.41 0.946423 2.07979 0
M  V30 2969 C 277.62 3.46044 -0.453309 0
M  V30 2970 C 278.968 4.22872 -0.382707 0
M  V30 2971 O 279.992 3.54076 -0.388396 0
M  V30 2972 O 278.851 5.45407 -0.345463 0
M  V30 2973 H 275.945 0.82683 -0.0167505 0
M  V30 2974 H 278.491 1.50971 -0.77498 0
M  V30 2975 H 277.263 3.62028 -1.48498 0
M  V30 2976 H 276.886 3.97128 0.19373 0
M  V30 2977 N 277.883 0.443576 1.51229 0
M  V30 2978 C 279.108 -0.121648 2.07043 0
M  V30 2979 C 279.533 -1.35156 1.30823 0
M  V30 2980 O 278.891 -1.7793 0.347934 0
M  V30 2981 C 278.939 -0.41624 3.5819 0
M  V30 2982 O 278.043 -1.50163 3.8409 0
M  V30 2983 H 277.384 0.000871367 0.663999 0
M  V30 2984 H 279.914 0.626706 1.94765 0
M  V30 2985 H 279.924 -0.664867 4.02546 0
M  V30 2986 H 278.599 0.482653 4.1309 0
M  V30 2987 H 277.176 -1.24248 3.51592 0
M  V30 2988 N 279.361 -1.56624 0.175154 0
M  V30 2989 C 280.61 -1.96173 -0.468921 0
M  V30 2990 C 280.923 -1.06401 -1.64128 0
M  V30 2991 O 282.129 -1.35648 -2.35185 0
M  V30 2992 C 280.585 -3.48833 -0.885633 0
M  V30 2993 C 280.193 -4.47237 0.261343 0
M  V30 2994 C 281.937 -3.97194 -1.49791 0
M  V30 2995 C 279.844 -5.9114 -0.175214 0
M  V30 2996 H 278.774 -0.732455 -0.178958 0
M  V30 2997 H 281.425 -1.81591 0.263997 0
M  V30 2998 H 279.807 -3.58848 -1.67464 0
M  V30 2999 H 280.981 -4.4894 1.03871 0
M  V30 3000 H 279.296 -4.08956 0.783827 0
M  V30 3001 H 281.893 -5.02167 -1.83665 0
M  V30 3002 H 282.236 -3.40351 -2.39722 0
M  V30 3003 H 282.769 -3.90212 -0.773267 0
M  V30 3004 H 279.508 -6.51865 0.689414 0
M  V30 3005 H 279.028 -5.92735 -0.91786 0
M  V30 3006 H 280.707 -6.44044 -0.617792 0
M  V30 3007 N 280.839 0.0985539 -1.57292 0
M  V30 3008 C 282.067 0.816318 -1.90115 0
M  V30 3009 C 282.482 1.72451 -0.768509 0
M  V30 3010 O 281.839 1.80643 0.259687 0
M  V30 3011 C 281.89 1.63259 -3.22535 0
M  V30 3012 O 281.611 0.760934 -4.31441 0
M  V30 3013 C 283.112 2.45372 -3.69199 0
M  V30 3014 H 280.332 0.233595 -0.629027 0
M  V30 3015 H 282.876 0.0768229 -2.04356 0
M  V30 3016 H 281.031 2.32463 -3.09903 0
M  V30 3017 H 281.445 1.32595 -5.07463 0
M  V30 3018 H 282.919 2.98144 -4.64558 0
M  V30 3019 H 283.396 3.23677 -2.96867 0
M  V30 3020 H 284.002 1.81373 -3.84687 0
M  V30 3021 N 282.317 1.53212 0.369288 0
M  V30 3022 C 283.545 1.73119 1.13303 0
M  V30 3023 C 283.96 0.458455 1.83149 0
M  V30 3024 O 283.317 -0.568403 1.73423 0
M  V30 3025 C 283.368 2.89413 2.16616 0
M  V30 3026 O 283.089 4.11761 1.49614 0
M  V30 3027 C 284.59 3.21161 3.05566 0
M  V30 3028 H 281.81 0.579107 0.338934 0
M  V30 3029 H 284.354 1.99942 0.429338 0
M  V30 3030 H 282.509 2.64994 2.82589 0
M  V30 3031 H 282.923 4.76858 2.18419 0
M  V30 3032 H 284.397 4.05949 3.74045 0
M  V30 3033 H 284.874 2.36369 3.70171 0
M  V30 3034 H 285.48 3.47492 2.45213 0
M  V30 3035 N 283.795 -0.628877 1.44509 0
M  V30 3036 C 284.725 -1.75187 1.54376 0
M  V30 3037 C 285.706 -1.65411 0.396618 0
M  V30 3038 O 286.891 -1.84137 0.617031 0
M  V30 3039 C 284.021 -3.13725 1.48976 0
M  V30 3040 C 282.975 -3.38291 2.62189 0
M  V30 3041 C 282.301 -4.76883 2.41841 0
M  V30 3042 C 283.601 -3.30632 4.04326 0
M  V30 3043 H 285.295 -1.67187 2.48373 0
M  V30 3044 H 282.841 -0.802909 1.19538 0
M  V30 3045 H 284.794 -3.92064 1.54478 0
M  V30 3046 H 283.518 -3.22515 0.514961 0
M  V30 3047 H 282.177 -2.62334 2.56079 0
M  V30 3048 H 281.825 -4.82378 1.42548 0
M  V30 3049 H 281.525 -4.94278 3.17747 0
M  V30 3050 H 283.049 -5.57449 2.49165 0
M  V30 3051 H 284.463 -3.98873 4.11793 0
M  V30 3052 H 282.86 -3.59561 4.80454 0
M  V30 3053 H 283.93 -2.28404 4.27738 0
M  V30 3054 N 285.273 -1.31445 -0.869486 0
M  V30 3055 C 286.684 -1.19042 -1.43826 0
M  V30 3056 C 287.035 0.202919 -1.95148 0
M  V30 3057 O 286.16 1.10071 -1.86315 0
M  V30 3058 C 286.755 -2.15499 -2.6143 0
M  V30 3059 C 285.314 -2.07028 -3.14351 0
M  V30 3060 C 284.461 -2.04701 -1.87063 0
M  V30 3061 H 287.412 -1.43489 -0.677984 0
M  V30 3062 H 287.433 -1.74488 -3.38134 0
M  V30 3063 H 286.945 -3.16899 -2.24046 0
M  V30 3064 H 285.046 -1.08825 -3.56354 0
M  V30 3065 H 285.159 -2.96157 -3.766 0
M  V30 3066 H 283.523 -1.49724 -2.06046 0
M  V30 3067 H 284.306 -3.07857 -1.51917 0
M  V30 3068 N 286.751 1.08385 -1.14413 0
M  V30 3069 C 288.028 1.77429 -0.823297 0
M  V30 3070 C 288.408 1.9974 0.683163 0
M  V30 3071 O 287.756 1.60739 1.62405 0
M  V30 3072 C 287.966 3.09004 -1.62227 0
M  V30 3073 C 289.314 3.83532 -1.82177 0
M  V30 3074 O 290.338 3.18786 -1.58915 0
M  V30 3075 O 289.197 4.99792 -2.21067 0
M  V30 3076 H 286.291 0.769999 -0.301712 0
M  V30 3077 H 288.837 1.14846 -1.24934 0
M  V30 3078 H 287.609 2.88316 -2.64555 0
M  V30 3079 H 287.232 3.79316 -1.19187 0
M  V30 3080 N 288.23 0.939286 1.26551 0
M  V30 3081 C 289.16 0.465044 2.28822 0
M  V30 3082 C 290.141 -0.480692 1.63167 0
M  V30 3083 O 291.326 -0.382955 1.90387 0
M  V30 3084 C 288.456 -0.27234 3.46231 0
M  V30 3085 C 287.41 0.58666 4.2396 0
M  V30 3086 C 286.736 -0.280573 5.33963 0
M  V30 3087 C 288.036 1.85704 4.88171 0
M  V30 3088 H 289.73 1.31979 2.68741 0
M  V30 3089 H 287.276 0.636061 1.29191 0
M  V30 3090 H 289.229 -0.615133 4.16886 0
M  V30 3091 H 287.953 -1.16121 3.0526 0
M  V30 3092 H 286.612 0.91232 3.55067 0
M  V30 3093 H 286.26 -1.16874 4.89234 0
M  V30 3094 H 285.96 0.29076 5.8688 0
M  V30 3095 H 287.484 -0.618678 6.07458 0
M  V30 3096 H 288.898 1.58161 5.51052 0
M  V30 3097 H 287.295 2.37279 5.51197 0
M  V30 3098 H 288.365 2.56957 4.11219 0
M  V30 3099 N 289.708 -1.40897 0.706093 0
M  V30 3100 C 290.936 -2.05373 0.250887 0
M  V30 3101 C 291.351 -1.53172 -1.10381 0
M  V30 3102 O 290.708 -0.684305 -1.69185 0
M  V30 3103 C 290.759 -3.6088 0.211571 0
M  V30 3104 O 290.48 -4.11153 1.51276 0
M  V30 3105 C 291.981 -4.42517 -0.263346 0
M  V30 3106 H 289.201 -0.66115 0.114552 0
M  V30 3107 H 291.745 -1.80479 0.961635 0
M  V30 3108 H 289.9 -3.84777 -0.450073 0
M  V30 3109 H 290.314 -5.05279 1.40689 0
M  V30 3110 H 291.788 -5.51479 -0.239718 0
M  V30 3111 H 292.265 -4.19396 -1.30397 0
M  V30 3112 H 292.871 -4.23708 0.367677 0
M  V30 3113 N 291.186 -0.45159 -1.50991 0
M  V30 3114 C 292.597 0.00818571 -1.86698 0
M  V30 3115 C 292.948 1.40661 -1.3678 0
M  V30 3116 O 292.073 2.0391 -0.724546 0
M  V30 3117 C 292.668 0.0216303 -3.38793 0
M  V30 3118 C 291.227 0.425865 -3.73983 0
M  V30 3119 C 290.374 -0.372163 -2.74791 0
M  V30 3120 H 293.325 -0.666785 -1.44013 0
M  V30 3121 H 293.346 0.828078 -3.7138 0
M  V30 3122 H 292.858 -0.996288 -3.75094 0
M  V30 3123 H 290.959 1.44886 -3.43277 0
M  V30 3124 H 291.072 0.140761 -4.78893 0
M  V30 3125 H 289.436 0.171498 -2.54122 0
M  V30 3126 H 290.219 -1.38922 -3.13935 0
M  V30 3127 N 292.664 1.56529 -0.183458 0
M  V30 3128 C 293.594 2.21549 0.737456 0
M  V30 3129 C 294.575 1.17489 1.23005 0
M  V30 3130 O 295.76 1.45959 1.281 0
M  V30 3131 C 292.89 2.86575 1.96194 0
M  V30 3132 C 291.844 3.96778 1.60473 0
M  V30 3133 C 291.17 4.48911 2.90487 0
M  V30 3134 C 292.47 5.15767 0.823497 0
M  V30 3135 H 294.164 2.98761 0.195453 0
M  V30 3136 H 291.71 1.43702 0.0925686 0
M  V30 3137 H 293.663 3.30739 2.61131 0
M  V30 3138 H 292.387 2.06749 2.52828 0
M  V30 3139 H 291.046 3.53286 0.978997 0
M  V30 3140 H 290.694 3.65862 3.45186 0
M  V30 3141 H 290.394 5.23265 2.67335 0
M  V30 3142 H 291.918 4.95771 3.56432 0
M  V30 3143 H 293.332 5.56549 1.37571 0
M  V30 3144 H 291.729 5.96114 0.690551 0
M  V30 3145 H 292.799 4.84574 -0.177782 0
M  V30 3146 N 294.142 -0.090211 1.57342 0
M  V30 3147 C 295.389 -0.792807 1.86335 0
M  V30 3148 C 295.717 -1.78494 0.772662 0
M  V30 3149 O 294.972 -1.94305 -0.233258 0
M  V30 3150 C 295.271 -1.55222 3.21933 0
M  V30 3151 C 294.937 -0.701765 4.45406 0
M  V30 3152 C 293.599 -0.467334 4.78925 0
M  V30 3153 C 295.951 -0.11086 5.21082 0
M  V30 3154 C 293.279 0.367785 5.85546 0
M  V30 3155 C 295.631 0.711609 6.28585 0
M  V30 3156 C 294.295 0.956086 6.60617 0
M  V30 3157 H 293.565 -0.290109 0.681849 0
M  V30 3158 H 296.212 -0.0541332 1.91423 0
M  V30 3159 H 294.517 -2.3626 3.12551 0
M  V30 3160 H 296.214 -2.10032 3.41595 0
M  V30 3161 H 292.804 -0.894598 4.1916 0
M  V30 3162 H 296.988 -0.279129 4.95514 0
M  V30 3163 H 292.244 0.566128 6.08773 0
M  V30 3164 H 296.418 1.17632 6.86393 0
M  V30 3165 H 294.045 1.60499 7.43064 0
M  V30 3166 N 295.62 -1.53406 -0.361157 0
M  V30 3167 C 296.869 -1.69022 -1.10066 0
M  V30 3168 C 297.182 -0.450838 -1.90333 0
M  V30 3169 O 298.388 -0.487617 -2.67085 0
M  V30 3170 C 296.844 -2.98812 -2.00598 0
M  V30 3171 C 296.452 -4.30027 -1.25621 0
M  V30 3172 C 298.196 -3.23795 -2.74513 0
M  V30 3173 C 296.103 -5.50903 -2.1508 0
M  V30 3174 H 295.033 -0.629776 -0.414606 0
M  V30 3175 H 297.684 -1.79907 -0.361348 0
M  V30 3176 H 296.066 -2.8174 -2.78278 0
M  V30 3177 H 297.24 -4.57745 -0.529739 0
M  V30 3178 H 295.555 -4.11522 -0.635496 0
M  V30 3179 H 298.152 -4.11289 -3.41681 0
M  V30 3180 H 298.495 -2.40045 -3.40123 0
M  V30 3181 H 299.028 -3.41561 -2.03914 0
M  V30 3182 H 295.767 -6.37143 -1.54041 0
M  V30 3183 H 295.287 -5.27459 -2.85565 0
M  V30 3184 H 296.966 -5.85865 -2.74538 0
M  V30 3185 N 297.098 0.621204 -1.44841 0
M  V30 3186 C 298.323 1.41244 -1.51871 0
M  V30 3187 C 298.748 1.87519 -0.147764 0
M  V30 3188 O 298.106 1.59334 0.865 0
M  V30 3189 C 298.154 2.60221 -2.49634 0
M  V30 3190 O 297.258 3.60395 -2.00473 0
M  V30 3191 H 296.599 0.42223 -0.512463 0
M  V30 3192 H 299.129 0.757305 -1.90069 0
M  V30 3193 H 299.139 3.0764 -2.67996 0
M  V30 3194 H 297.814 2.25887 -3.4921 0
M  V30 3195 H 296.391 3.19717 -1.91925 0
M  V30 3196 N 298.576 1.31904 0.862503 0
M  V30 3197 C 299.825 1.21373 1.61094 0
M  V30 3198 C 300.138 -0.22504 1.94301 0
M  V30 3199 O 301.344 -0.452121 2.67709 0
M  V30 3200 C 299.8 2.12525 2.9045 0
M  V30 3201 C 299.408 3.61441 2.64697 0
M  V30 3202 C 301.152 2.10813 3.68454 0
M  V30 3203 C 299.059 4.44578 3.90006 0
M  V30 3204 H 297.989 0.450705 0.604468 0
M  V30 3205 H 300.64 1.56811 0.953027 0
M  V30 3206 H 299.022 1.69994 3.57656 0
M  V30 3207 H 300.196 4.12264 2.05851 0
M  V30 3208 H 298.511 3.65205 2.00036 0
M  V30 3209 H 301.108 2.70167 4.61426 0
M  V30 3210 H 301.451 1.09713 4.01583 0
M  V30 3211 H 301.984 2.51583 3.08141 0
M  V30 3212 H 298.723 5.46461 3.62023 0
M  V30 3213 H 298.243 3.98508 4.48276 0
M  V30 3214 H 299.922 4.57176 4.5782 0
M  V30 3215 N 300.054 -1.07777 1.14986 0
M  V30 3216 C 301.331 -1.7699 0.832695 0
M  V30 3217 C 301.711 -2.001 -0.672561 0
M  V30 3218 O 301.059 -1.61598 -1.6155 0
M  V30 3219 C 301.269 -3.08139 1.63863 0
M  V30 3220 C 302.617 -3.8256 1.84208 0
M  V30 3221 O 303.641 -3.17939 1.60603 0
M  V30 3222 O 302.5 -4.98612 2.23714 0
M  V30 3223 H 299.594 -0.768389 0.305791 0
M  V30 3224 H 302.14 -1.14182 1.25541 0
M  V30 3225 H 300.912 -2.86909 2.6608 0
M  V30 3226 H 300.535 -3.78678 1.21197 0
M  V30 3227 N 301.532 -0.945985 -1.26051 0
M  V30 3228 C 302.943 -0.638096 -1.75457 0
M  V30 3229 C 303.294 0.846672 -1.76991 0
M  V30 3230 O 302.419 1.66262 -1.38513 0
M  V30 3231 C 303.014 -1.15157 -3.18629 0
M  V30 3232 C 301.573 -0.894004 -3.65629 0
M  V30 3233 C 300.72 -1.29967 -2.44957 0
M  V30 3234 H 303.671 -1.12376 -1.1206 0
M  V30 3235 H 303.692 -0.507615 -3.77099 0
M  V30 3236 H 303.204 -2.23222 -3.1748 0
M  V30 3237 H 301.305 0.172057 -3.72203 0
M  V30 3238 H 301.418 -1.52439 -4.54202 0
M  V30 3239 H 299.782 -0.718078 -2.44368 0
M  V30 3240 H 300.565 -2.38935 -2.46505 0
M  V30 3241 N 303.011 1.40521 -0.713556 0
M  V30 3242 C 303.921 2.34522 -0.0606667 0
M  V30 3243 C 304.937 1.57193 0.74607 0
M  V30 3244 O 306.113 1.89591 0.679493 0
M  V30 3245 C 303.178 3.36081 0.851491 0
M  V30 3246 C 302.239 4.29286 0.0349339 0
M  V30 3247 C 301.472 5.25994 0.903649 0
M  V30 3248 O 301.695 5.28616 2.14292 0
M  V30 3249 O 300.629 6.00918 0.343723 0
M  V30 3250 H 304.455 2.91968 -0.835972 0
M  V30 3251 H 302.04 1.41681 -0.47402 0
M  V30 3252 H 303.922 3.98369 1.37404 0
M  V30 3253 H 302.597 2.81052 1.60598 0
M  V30 3254 H 301.504 3.70289 -0.532633 0
M  V30 3255 H 302.837 4.87462 -0.681287 0
M  V30 3256 N 304.489 0.459591 1.5075 0
M  V30 3257 C 305.905 0.113092 1.59199 0
M  V30 3258 C 306.105 -1.37951 1.46874 0
M  V30 3259 O 305.161 -2.15168 1.32132 0
M  V30 3260 C 306.474 0.653043 2.93523 0
M  V30 3261 C 308.022 0.615449 3.0689 0
M  V30 3262 C 308.497 1.13275 4.43771 0
M  V30 3263 N 309.988 1.09167 4.50152 0
M  V30 3264 C 310.723 1.46256 5.54434 0
M  V30 3265 N 310.219 1.90739 6.66026 0
M  V30 3266 N 312.012 1.37932 5.44914 0
M  V30 3267 H 304.163 1.43049 1.57005 0
M  V30 3268 H 306.426 0.590861 0.741341 0
M  V30 3269 H 306.132 1.69822 3.07983 0
M  V30 3270 H 306.006 0.0902132 3.77092 0
M  V30 3271 H 308.393 -0.420793 2.92084 0
M  V30 3272 H 308.474 1.21495 2.25106 0
M  V30 3273 H 308.118 2.16757 4.59324 0
M  V30 3274 H 308.048 0.509576 5.24129 0
M  V30 3275 H 310.539 0.76528 3.7007 0
M  V30 3276 H 310.852 2.17218 7.41644 0
M  V30 3277 H 309.197 1.94683 6.67176 0
M  V30 3278 H 312.388 1.0303 4.56621 0
M  V30 3279 H 312.561 1.67164 6.26067 0
M  V30 3280 N 305.967 -1.56429 0.191757 0
M  V30 3281 C 307.244 -1.89224 -0.495332 0
M  V30 3282 C 307.624 -1.10478 -1.79883 0
M  V30 3283 O 306.972 -0.204852 -2.2758 0
M  V30 3284 C 307.182 -3.41548 -0.717367 0
M  V30 3285 C 308.53 -4.11711 -1.03823 0
M  V30 3286 O 309.554 -3.4698 -0.805204 0
M  V30 3287 O 308.413 -5.2611 -1.47887 0
M  V30 3288 H 305.507 -0.785788 -0.25781 0
M  V30 3289 H 308.053 -1.68111 0.231721 0
M  V30 3290 H 306.825 -3.90772 0.203287 0
M  V30 3291 H 306.448 -3.68342 -1.497 0
M  V30 3292 N 307.445 0.0818655 -1.57387 0
M  V30 3293 C 308.673 0.796108 -1.9097 0
M  V30 3294 C 309.088 1.71626 -0.786757 0
M  V30 3295 O 308.445 1.80908 0.240513 0
M  V30 3296 C 308.496 1.59829 -3.24248 0
M  V30 3297 O 308.217 0.715131 -4.32224 0
M  V30 3298 C 309.718 2.41442 -3.7178 0
M  V30 3299 H 306.938 0.22691 -0.631469 0
M  V30 3300 H 309.482 0.0551439 -2.04426 0
M  V30 3301 H 307.637 2.29163 -3.12351 0
M  V30 3302 H 308.051 1.27205 -5.08841 0
M  V30 3303 H 309.525 2.932 -4.67694 0
M  V30 3304 H 310.002 3.2051 -3.00283 0
M  V30 3305 H 310.608 1.77283 -3.86589 0
M  V30 3306 N 308.923 1.53595 0.353017 0
M  V30 3307 C 309.87 1.80919 1.43308 0
M  V30 3308 C 310.84 0.654288 1.5267 0
M  V30 3309 O 312.025 0.897759 1.6836 0
M  V30 3310 C 309.165 2.01605 2.80089 0
M  V30 3311 C 308.278 3.29321 2.79593 0
M  V30 3312 C 307.413 3.40125 4.0803 0
M  V30 3313 C 306.452 4.61826 4.01725 0
M  V30 3314 N 305.589 4.69716 5.21834 0
M  V30 3315 H 310.429 2.73074 1.19308 0
M  V30 3316 H 307.966 1.35263 0.578131 0
M  V30 3317 H 309.924 2.11586 3.59565 0
M  V30 3318 H 308.554 1.12772 3.0246 0
M  V30 3319 H 307.606 3.28229 1.92276 0
M  V30 3320 H 308.918 4.18884 2.70809 0
M  V30 3321 H 308.072 3.49488 4.95927 0
M  V30 3322 H 306.811 2.48601 4.19582 0
M  V30 3323 H 305.816 4.52552 3.12213 0
M  V30 3324 H 307.041 5.54705 3.91764 0
M  V30 3325 H 304.987 3.81097 5.33948 0
M  V30 3326 H 304.904 5.53202 5.1527 0
M  V30 3327 H 306.172 4.83376 6.11529 0
M  V30 3328 N 310.401 -0.613514 1.45168 0
M  V30 3329 C 311.311 -1.75296 1.55912 0
M  V30 3330 C 312.327 -1.68244 0.443856 0
M  V30 3331 O 313.503 -1.88706 0.70371 0
M  V30 3332 C 310.568 -3.1174 1.5172 0
M  V30 3333 C 309.629 -3.30291 2.74238 0
M  V30 3334 C 308.862 -4.60226 2.70236 0
M  V30 3335 O 309.085 -5.42168 1.77229 0
M  V30 3336 O 308.019 -4.81361 3.61352 0
M  V30 3337 H 311.845 -1.69183 2.52212 0
M  V30 3338 H 309.43 -0.776886 1.27612 0
M  V30 3339 H 311.312 -3.93044 1.51968 0
M  V30 3340 H 309.987 -3.18357 0.585697 0
M  V30 3341 H 308.894 -2.48598 2.79553 0
M  V30 3342 H 310.227 -3.28547 3.66494 0
M  V30 3343 N 311.879 -1.3236 -0.855495 0
M  V30 3344 C 312.842 -1.21164 -1.94556 0
M  V30 3345 C 313.842 -0.134908 -1.60233 0
M  V30 3346 O 315.032 -0.385249 -1.69887 0
M  V30 3347 C 312.164 -0.863192 -3.29791 0
M  V30 3348 H 313.357 -2.18038 -2.05911 0
M  V30 3349 H 310.91 -1.16179 -1.04557 0
M  V30 3350 H 311.645 0.103769 -3.24134 0
M  V30 3351 H 311.43 -1.64166 -3.56078 0
M  V30 3352 H 312.92 -0.809156 -4.09686 0
M  V30 3353 N 313.357 1.07166 -1.15556 0
M  V30 3354 C 314.606 1.79181 -0.926132 0
M  V30 3355 C 314.919 1.87768 0.547967 0
M  V30 3356 O 316.125 2.56323 0.895036 0
M  V30 3357 C 314.581 3.22 -1.60761 0
M  V30 3358 C 314.189 3.21607 -3.11886 0
M  V30 3359 C 315.933 3.9861 -1.4598 0
M  V30 3360 C 313.84 4.59092 -3.72812 0
M  V30 3361 H 312.77 0.67154 -0.342856 0
M  V30 3362 H 315.421 1.2027 -1.3859 0
M  V30 3363 H 313.803 3.81115 -1.07553 0
M  V30 3364 H 314.977 2.72127 -3.71865 0
M  V30 3365 H 313.292 2.58495 -3.2645 0
M  V30 3366 H 315.889 5.00225 -1.88888 0
M  V30 3367 H 316.232 4.143 -0.407541 0
M  V30 3368 H 316.765 3.45996 -1.96295 0
M  V30 3369 H 313.504 4.48606 -4.77946 0
M  V30 3370 H 313.024 5.08803 -3.17616 0
M  V30 3371 H 314.703 5.28059 -3.73848 0
M  V30 3372 N 314.835 0.952656 1.25548 0
M  V30 3373 C 315.798 0.475794 2.24207 0
M  V30 3374 C 316.798 -0.419428 1.55234 0
M  V30 3375 O 317.988 -0.216994 1.72843 0
M  V30 3376 C 315.12 -0.312814 3.39462 0
M  V30 3377 H 316.313 1.34779 2.67908 0
M  V30 3378 H 313.866 0.735739 1.37901 0
M  V30 3379 H 314.601 -1.20257 3.01179 0
M  V30 3380 H 314.386 0.329404 3.90714 0
M  V30 3381 H 315.876 -0.635986 4.12729 0
M  V30 3382 N 316.313 -1.40141 0.720998 0
M  V30 3383 C 317.261 -2.3252 0.0608547 0
M  V30 3384 C 318.255 -1.52326 -0.741152 0
M  V30 3385 O 319.461 -1.68089 -0.643911 0
M  V30 3386 H 315.836 -0.751999 0.000876664 0
M  V30 3387 H 317.807 -2.8584 0.856614 0
M  V30 3388 C 316.556 -3.37331 -0.842809 0
M  V30 3389 H 315.879 -3.99108 -0.235084 0
M  V30 3390 H 317.319 -4.04452 -1.27257 0
M  V30 3391 C 315.778 -2.73246 -1.97074 0
M  V30 3392 O 316.308 -2.59998 -3.06209 0
M  V30 3393 N 314.514 -2.31547 -1.75597 0
M  V30 3394 H 314.061 -2.42522 -0.868368 0
M  V30 3395 H 314.019 -1.89007 -2.51244 0
M  V30 3396 N 317.792 -0.46758 -1.50504 0
M  V30 3397 C 319.022 0.086288 -2.0642 0
M  V30 3398 C 319.43 1.34369 -1.33197 0
M  V30 3399 O 318.773 1.79431 -0.393747 0
M  V30 3400 C 318.835 0.443846 -3.5675 0
M  V30 3401 C 318.499 -0.711035 -4.51435 0
M  V30 3402 C 319.496 -1.59205 -4.94924 0
M  V30 3403 C 317.181 -0.900363 -4.94165 0
M  V30 3404 C 319.175 -2.64683 -5.79846 0
M  V30 3405 C 316.862 -1.95837 -5.7887 0
M  V30 3406 C 317.86 -2.82997 -6.21612 0
M  V30 3407 O 317.548 -3.86977 -7.0463 0
M  V30 3408 H 317.28 -0.00217814 -0.675996 0
M  V30 3409 H 319.834 -0.654346 -1.94698 0
M  V30 3410 H 318.064 1.23762 -3.6636 0
M  V30 3411 H 319.753 0.932386 -3.95046 0
M  V30 3412 H 320.519 -1.45745 -4.62583 0
M  V30 3413 H 316.398 -0.231427 -4.60419 0
M  V30 3414 H 319.942 -3.32745 -6.13128 0
M  V30 3415 H 315.839 -2.09305 -6.10624 0
M  V30 3416 H 316.607 -3.83923 -7.22873 0
M  V30 3417 N 319.27 1.56325 -0.20005 0
M  V30 3418 C 320.516 1.98012 0.438059 0
M  V30 3419 C 320.849 1.08702 1.60927 0
M  V30 3420 O 320.124 0.140064 1.93995 0
M  V30 3421 C 320.407 3.48841 0.893419 0
M  V30 3422 C 320.26 4.48928 -0.279947 0
M  V30 3423 C 321.579 4.03498 1.75719 0
M  V30 3424 H 318.698 0.719918 0.157757 0
M  V30 3425 H 321.34 1.87743 -0.291968 0
M  V30 3426 H 319.49 3.57723 1.51547 0
M  V30 3427 H 321.162 4.52079 -0.91772 0
M  V30 3428 H 319.405 4.23694 -0.930919 0
M  V30 3429 H 320.076 5.5194 0.0812601 0
M  V30 3430 H 322.552 3.97427 1.23253 0
M  V30 3431 H 321.428 5.09393 2.04476 0
M  V30 3432 H 321.689 3.4906 2.71311 0
M  V30 3433 N 320.748 -0.0735177 1.57428 0
M  V30 3434 C 321.695 -1.08756 2.0357 0
M  V30 3435 C 322.665 -1.38559 0.916 0
M  V30 3436 O 323.85 -1.49656 1.18354 0
M  V30 3437 C 320.99 -2.39657 2.48311 0
M  V30 3438 C 320.103 -2.16399 3.73892 0
M  V30 3439 C 319.238 -3.40852 4.07423 0
M  V30 3440 C 318.277 -3.1295 5.2605 0
M  V30 3441 N 317.414 -4.29729 5.55228 0
M  V30 3442 H 322.254 -0.687104 2.8997 0
M  V30 3443 H 319.791 -0.327709 1.43403 0
M  V30 3444 H 321.749 -3.16081 2.72303 0
M  V30 3445 H 320.379 -2.77508 1.64891 0
M  V30 3446 H 319.431 -1.30676 3.57251 0
M  V30 3447 H 320.743 -1.91788 4.60455 0
M  V30 3448 H 319.897 -4.25671 4.32306 0
M  V30 3449 H 318.636 -3.68537 3.19425 0
M  V30 3450 H 317.641 -2.26526 5.00965 0
M  V30 3451 H 318.866 -2.86589 6.15665 0
M  V30 3452 H 316.812 -4.57448 4.70188 0
M  V30 3453 H 316.729 -4.08385 6.36206 0
M  V30 3454 H 317.997 -5.1555 5.84661 0
M  V30 3455 N 322.226 -1.5378 -0.344866 0
M  V30 3456 C 323.136 -1.84667 -1.4469 0
M  V30 3457 C 324.152 -0.736704 -1.57635 0
M  V30 3458 O 325.328 -1.02888 -1.73136 0
M  V30 3459 C 322.393 -2.04869 -2.79696 0
M  V30 3460 C 321.454 -3.28731 -2.76106 0
M  V30 3461 C 320.687 -3.4796 -4.04673 0
M  V30 3462 O 320.91 -2.71052 -5.01883 0
M  V30 3463 O 319.844 -4.41383 -4.09224 0
M  V30 3464 H 323.67 -2.78334 -1.21506 0
M  V30 3465 H 321.255 -1.39418 -0.536921 0
M  V30 3466 H 323.137 -2.19609 -3.59652 0
M  V30 3467 H 321.812 -1.14391 -3.02814 0
M  V30 3468 H 320.719 -3.19396 -1.94774 0
M  V30 3469 H 322.052 -4.19198 -2.57941 0
M  V30 3470 N 323.704 0.605807 -1.45491 0
M  V30 3471 C 324.951 1.36476 -1.49601 0
M  V30 3472 C 325.279 1.94007 -0.138452 0
M  V30 3473 O 324.534 1.75638 0.863114 0
M  V30 3474 C 324.833 2.53012 -2.52428 0
M  V30 3475 C 324.499 2.13617 -3.97087 0
M  V30 3476 C 323.161 2.02587 -4.36477 0
M  V30 3477 C 325.513 1.82899 -4.88055 0
M  V30 3478 C 322.841 1.59064 -5.64726 0
M  V30 3479 C 325.193 1.40861 -6.16718 0
M  V30 3480 C 323.857 1.28391 -6.55036 0
M  V30 3481 H 323.127 0.499402 -0.547429 0
M  V30 3482 H 325.774 0.684546 -1.78847 0
M  V30 3483 H 324.079 3.26379 -2.16758 0
M  V30 3484 H 325.776 3.1124 -2.52845 0
M  V30 3485 H 322.366 2.23129 -3.65939 0
M  V30 3486 H 326.55 1.90317 -4.58359 0
M  V30 3487 H 321.806 1.48034 -5.93208 0
M  V30 3488 H 325.98 1.16138 -6.86648 0
M  V30 3489 H 323.607 0.944403 -7.54311 0
M  V30 3490 N 325.182 1.32811 0.848464 0
M  V30 3491 C 326.407 1.26882 1.6406 0
M  V30 3492 C 326.832 -0.15913 1.87426 0
M  V30 3493 O 326.19 -1.11258 1.43148 0
M  V30 3494 C 326.238 2.03997 2.97351 0
M  V30 3495 O 325.342 1.39201 3.88197 0
M  V30 3496 H 324.683 0.436982 0.499943 0
M  V30 3497 H 327.213 1.75224 1.0563 0
M  V30 3498 H 327.223 2.14403 3.47124 0
M  V30 3499 H 325.898 3.0783 2.79666 0
M  V30 3500 H 324.475 1.37381 3.46671 0
M  V30 3501 N 326.66 -1.06551 1.16123 0
M  V30 3502 C 328.071 -1.60768 0.949232 0
M  V30 3503 C 328.422 -1.89523 -0.507508 0
M  V30 3504 O 327.547 -1.66671 -1.38021 0
M  V30 3505 C 328.142 -2.92086 1.71671 0
M  V30 3506 C 326.701 -3.43015 1.54977 0
M  V30 3507 C 325.848 -2.16947 1.72711 0
M  V30 3508 H 328.799 -0.895354 1.31031 0
M  V30 3509 H 328.82 -3.6138 1.19099 0
M  V30 3510 H 328.332 -2.71127 2.7769 0
M  V30 3511 H 326.433 -3.69039 0.513873 0
M  V30 3512 H 326.546 -4.18516 2.33198 0
M  V30 3513 H 324.91 -2.27041 1.15431 0
M  V30 3514 H 325.693 -1.98473 2.80113 0
M  V30 3515 N 328.138 -0.959301 -1.25041 0
M  V30 3516 C 329.085 -0.482057 -2.2571 0
M  V30 3517 C 330.055 0.467939 -1.59372 0
M  V30 3518 O 331.24 0.380159 -1.86974 0
M  V30 3519 C 328.38 0.229623 -3.44335 0
M  V30 3520 C 327.493 -0.758156 -4.25295 0
M  V30 3521 C 326.628 -0.0234403 -5.31195 0
M  V30 3522 C 325.667 -1.00184 -6.03846 0
M  V30 3523 N 324.804 -0.29769 -7.01469 0
M  V30 3524 H 329.644 -1.34538 -2.65901 0
M  V30 3525 H 327.181 -0.674592 -1.3072 0
M  V30 3526 H 329.139 0.658856 -4.11965 0
M  V30 3527 H 327.769 1.05696 -3.05005 0
M  V30 3528 H 326.821 -1.30586 -3.57284 0
M  V30 3529 H 328.133 -1.50458 -4.75567 0
M  V30 3530 H 327.287 0.464201 -6.04922 0
M  V30 3531 H 326.026 0.755741 -4.81809 0
M  V30 3532 H 325.031 -1.50044 -5.2893 0
M  V30 3533 H 326.256 -1.78133 -6.55321 0
M  V30 3534 H 324.202 0.462668 -6.54366 0
M  V30 3535 H 324.119 -0.983128 -7.4958 0
M  V30 3536 H 325.387 0.16826 -7.79318 0
M  V30 3537 N 329.616 1.39756 -0.72842 0
M  V30 3538 C 330.546 2.33289 -0.0991354 0
M  V30 3539 C 331.527 1.53568 0.731489 0
M  V30 3540 O 332.712 1.81987 0.677807 0
M  V30 3541 C 329.842 3.3763 0.813834 0
M  V30 3542 C 328.796 4.2791 0.0878663 0
M  V30 3543 C 328.122 5.22894 1.11741 0
M  V30 3544 C 329.422 5.11314 -1.06563 0
M  V30 3545 H 331.116 2.86163 -0.880408 0
M  V30 3546 H 328.662 1.37591 -0.424819 0
M  V30 3547 H 330.615 4.0201 1.26355 0
M  V30 3548 H 329.339 2.83181 1.62715 0
M  V30 3549 H 327.998 3.65 -0.342159 0
M  V30 3550 H 327.646 4.64744 1.92412 0
M  V30 3551 H 327.346 5.84143 0.636477 0
M  V30 3552 H 328.87 5.90151 1.56697 0
M  V30 3553 H 330.284 5.69076 -0.694671 0
M  V30 3554 H 328.681 5.81671 -1.47577 0
M  V30 3555 H 329.751 4.46534 -1.89038 0
M  V30 3556 N 331.094 0.475555 1.50254 0
M  V30 3557 C 332.34 -0.0780073 2.0265 0
M  V30 3558 C 332.673 -1.38968 1.35652 0
M  V30 3559 O 331.948 -1.8839 0.483691 0
M  V30 3560 C 332.231 -0.257161 3.59181 0
M  V30 3561 C 332.084 1.07585 4.36744 0
M  V30 3562 C 333.403 -1.00965 4.28362 0
M  V30 3563 H 330.522 -0.0268758 0.73651 0
M  V30 3564 H 333.164 0.622015 1.7953 0
M  V30 3565 H 331.314 -0.853412 3.79011 0
M  V30 3566 H 332.986 1.70902 4.28474 0
M  V30 3567 H 331.229 1.6714 4.00308 0
M  V30 3568 H 331.9 0.904088 5.44546 0
M  V30 3569 H 334.376 -0.504214 4.13034 0
M  V30 3570 H 333.252 -1.10381 5.37687 0
M  V30 3571 H 333.513 -2.04731 3.91839 0
M  V30 3572 N 332.573 -1.56217 0.208337 0
M  V30 3573 C 333.821 -1.97558 -0.426076 0
M  V30 3574 C 334.142 -1.09683 -1.61229 0
M  V30 3575 O 333.412 -0.170956 -1.95153 0
M  V30 3576 H 331.992 -0.729575 -0.160405 0
M  V30 3577 H 334.654 -1.92606 0.298155 0
M  V30 3578 H 333.75 -3.02672 -0.761312 0
M  V30 3579 N 334.051 0.0651679 -1.57465 0
M  V30 3580 C 334.981 1.07693 -2.07182 0
M  V30 3581 C 335.962 1.39962 -0.966673 0
M  V30 3582 O 337.147 1.49475 -1.2398 0
M  V30 3583 C 334.277 2.3885 -2.52127 0
M  V30 3584 C 333.231 2.20917 -3.66579 0
M  V30 3585 C 332.557 3.57515 -3.97601 0
M  V30 3586 C 333.857 1.62493 -4.9638 0
M  V30 3587 H 335.551 0.663199 -2.91962 0
M  V30 3588 H 333.097 0.317569 -1.40455 0
M  V30 3589 H 335.05 3.09928 -2.85522 0
M  V30 3590 H 333.774 2.82215 -1.64384 0
M  V30 3591 H 332.433 1.52279 -3.33477 0
M  V30 3592 H 332.081 3.98463 -3.06979 0
M  V30 3593 H 331.781 3.46353 -4.74672 0
M  V30 3594 H 333.305 4.30013 -4.33499 0
M  V30 3595 H 334.719 2.23445 -5.27963 0
M  V30 3596 H 333.116 1.62009 -5.77818 0
M  V30 3597 H 334.186 0.587041 -4.81333 0
M  V30 3598 N 335.529 1.53961 0.336706 0
M  V30 3599 C 336.757 1.75483 1.09605 0
M  V30 3600 C 337.172 0.4972 1.82136 0
M  V30 3601 O 336.529 -0.53149 1.74589 0
M  V30 3602 C 336.58 2.93943 2.10428 0
M  V30 3603 O 336.301 4.14842 1.40846 0
M  V30 3604 C 337.802 3.27571 2.98684 0
M  V30 3605 H 335.022 0.586166 0.326574 0
M  V30 3606 H 337.566 2.00808 0.38683 0
M  V30 3607 H 335.721 2.70929 2.76905 0
M  V30 3608 H 336.135 4.81383 2.08255 0
M  V30 3609 H 337.609 4.13791 3.6535 0
M  V30 3610 H 338.086 2.44168 3.65074 0
M  V30 3611 H 338.692 3.52615 2.37787 0
M  V30 3612 N 337.007 -0.598083 1.45811 0
M  V30 3613 C 338.255 -1.35413 1.50026 0
M  V30 3614 C 338.576 -1.94444 0.147177 0
M  V30 3615 O 337.846 -1.77701 -0.824571 0
M  V30 3616 H 336.426 -0.502727 0.552517 0
M  V30 3617 H 339.088 -0.701606 1.81834 0
M  V30 3618 H 338.184 -2.16871 2.2444 0
M  V30 3619 N 338.485 -1.33259 -0.841409 0
M  V30 3620 C 339.713 -1.27605 -1.62864 0
M  V30 3621 C 340.128 0.153507 -1.88175 0
M  V30 3622 O 339.485 1.09485 -1.46011 0
M  V30 3623 C 339.536 -2.04596 -2.98031 0
M  V30 3624 O 339.257 -3.41975 -2.73834 0
M  V30 3625 C 340.758 -2.06122 -3.92465 0
M  V30 3626 H 337.978 -0.439718 -0.506842 0
M  V30 3627 H 340.522 -1.75591 -1.04824 0
M  V30 3628 H 338.677 -1.60299 -3.5268 0
M  V30 3629 H 339.091 -3.81549 -3.59889 0
M  V30 3630 H 340.565 -2.64451 -4.84531 0
M  V30 3631 H 341.042 -1.05083 -4.26444 0
M  V30 3632 H 341.648 -2.50427 -3.43753 0
M  V30 3633 N 339.963 1.05934 -1.16686 0
M  V30 3634 C 341.379 1.30938 -0.912542 0
M  V30 3635 C 341.579 1.96803 0.432533 0
M  V30 3636 O 340.635 2.23693 1.17123 0
M  V30 3637 C 341.948 2.18649 -2.06429 0
M  V30 3638 C 343.496 2.32055 -2.10047 0
M  V30 3639 C 343.971 3.23122 -3.24586 0
M  V30 3640 N 345.462 3.30706 -3.24327 0
M  V30 3641 C 346.197 4.01273 -4.09594 0
M  V30 3642 N 345.693 4.74332 -5.04956 0
M  V30 3643 N 347.486 3.97361 -3.97569 0
M  V30 3644 H 339.637 0.615777 -2.03278 0
M  V30 3645 H 341.9 0.334077 -0.887185 0
M  V30 3646 H 341.606 1.77534 -3.03603 0
M  V30 3647 H 341.48 3.19252 -2.00894 0
M  V30 3648 H 343.867 2.72415 -1.13464 0
M  V30 3649 H 343.948 1.31107 -2.19647 0
M  V30 3650 H 343.592 2.83477 -4.2143 0
M  V30 3651 H 343.522 4.24057 -3.12223 0
M  V30 3652 H 346.013 2.78644 -2.55276 0
M  V30 3653 H 346.326 5.25716 -5.6643 0
M  V30 3654 H 344.671 4.733 -5.08933 0
M  V30 3655 H 347.862 3.39405 -3.22369 0
M  V30 3656 H 348.035 4.52089 -4.64241 0
M  V30 3657 N 341.441 0.965919 1.2453 0
M  V30 3658 C 342.351 0.502154 2.29163 0
M  V30 3659 C 343.367 -0.436017 1.68448 0
M  V30 3660 O 344.543 -0.309497 1.99008 0
M  V30 3661 C 341.608 -0.201956 3.46111 0
M  V30 3662 C 340.669 0.775821 4.22232 0
M  V30 3663 C 339.902 0.105217 5.33596 0
M  V30 3664 O 340.125 -1.10683 5.59558 0
M  V30 3665 O 339.059 0.796475 5.96607 0
M  V30 3666 H 342.885 1.37194 2.70946 0
M  V30 3667 H 340.47 0.732875 1.30189 0
M  V30 3668 H 342.352 -0.597564 4.17142 0
M  V30 3669 H 341.027 -1.04673 3.06309 0
M  V30 3670 H 339.934 1.22185 3.53584 0
M  V30 3671 H 341.267 1.58896 4.65846 0
M  V30 3672 N 342.919 -1.39368 0.735821 0
M  V30 3673 C 343.829 -2.34395 0.0979693 0
M  V30 3674 C 344.845 -1.58361 -0.720968 0
M  V30 3675 O 346.021 -1.90648 -0.649245 0
M  V30 3676 C 343.086 -3.37393 -0.797916 0
M  V30 3677 C 342.147 -4.29287 0.0333662 0
M  V30 3678 C 341.38 -5.27365 -0.819854 0
M  V30 3679 O 341.603 -5.31959 -2.05855 0
M  V30 3680 O 340.537 -6.01389 -0.248079 0
M  V30 3681 H 344.363 -2.90601 0.882315 0
M  V30 3682 H 341.948 -1.40909 0.4965 0
M  V30 3683 H 343.83 -4.00505 -1.31048 0
M  V30 3684 H 342.505 -2.83571 -1.56106 0
M  V30 3685 H 341.412 -3.69395 0.591475 0
M  V30 3686 H 342.745 -4.86317 0.758752 0
M  V30 3687 N 344.397 -0.483516 -1.5 0
M  V30 3688 C 345.643 0.0672592 -2.02688 0
M  V30 3689 C 345.976 1.38247 -1.36387 0
M  V30 3690 O 345.251 1.88131 -0.493675 0
M  V30 3691 C 345.534 0.238109 -3.59312 0
M  V30 3692 C 345.387 -1.099 -4.36168 0
M  V30 3693 C 346.706 0.986916 -4.28892 0
M  V30 3694 H 343.825 0.0229696 -0.736642 0
M  V30 3695 H 346.467 -0.631527 -1.79197 0
M  V30 3696 H 344.617 0.8333 -3.79458 0
M  V30 3697 H 346.289 -1.73172 -4.27562 0
M  V30 3698 H 344.532 -1.69261 -3.99416 0
M  V30 3699 H 345.203 -0.932954 -5.44059 0
M  V30 3700 H 347.679 0.482302 -4.13295 0
M  V30 3701 H 346.555 1.07527 -5.38265 0
M  V30 3702 H 346.816 2.0265 -3.92919 0
M  V30 3703 N 345.875 1.56104 -0.216619 0
M  V30 3704 C 347.152 1.89988 0.465165 0
M  V30 3705 C 347.532 1.13326 1.78102 0
M  V30 3706 O 346.88 0.241033 2.27225 0
M  V30 3707 C 347.09 3.42646 0.662939 0
M  V30 3708 C 348.438 4.13311 0.972602 0
M  V30 3709 O 349.462 3.48217 0.749901 0
M  V30 3710 O 348.321 5.28396 1.39499 0
M  V30 3711 H 345.415 0.78979 0.245276 0
M  V30 3712 H 347.961 1.67721 -0.258436 0
M  V30 3713 H 346.733 3.90399 -0.26543 0
M  V30 3714 H 346.356 3.70677 1.43821 0
M  V30 3715 N 347.353 -0.0568162 1.57498 0
M  V30 3716 C 348.285 -1.09292 2.01464 0
M  V30 3717 C 349.298 -1.34112 0.922913 0
M  V30 3718 O 350.487 -1.32089 1.20062 0
M  V30 3719 C 347.587 -2.44068 2.35125 0
M  V30 3720 C 346.76 -2.38995 3.66333 0
M  V30 3721 C 345.819 -3.55997 3.87495 0
M  V30 3722 O 344.845 -3.36746 4.58901 0
M  V30 3723 N 346.047 -4.76888 3.30996 0
M  V30 3724 H 348.812 -0.718386 2.90963 0
M  V30 3725 H 346.373 -0.245235 1.60032 0
M  V30 3726 H 348.365 -3.21011 2.46443 0
M  V30 3727 H 346.935 -2.73468 1.5144 0
M  V30 3728 H 346.155 -1.47336 3.65631 0
M  V30 3729 H 347.443 -2.3272 4.52458 0
M  V30 3730 H 346.841 -4.95431 2.73065 0
M  V30 3731 H 345.398 -5.51291 3.47738 0
M  V30 3732 N 348.832 -1.54138 -0.328536 0
M  V30 3733 C 350.078 -1.7236 -1.06865 0
M  V30 3734 C 350.411 -0.493231 -1.87832 0
M  V30 3735 O 349.686 0.5098 -1.877 0
M  V30 3736 C 349.969 -2.99621 -1.99747 0
M  V30 3737 C 349.822 -4.32899 -1.22143 0
M  V30 3738 C 351.141 -3.22615 -2.99345 0
M  V30 3739 H 348.26 -0.627151 -0.387105 0
M  V30 3740 H 350.902 -1.86827 -0.345767 0
M  V30 3741 H 349.052 -2.87418 -2.61387 0
M  V30 3742 H 350.724 -4.56978 -0.630017 0
M  V30 3743 H 348.967 -4.30628 -0.523628 0
M  V30 3744 H 349.638 -5.18154 -1.90318 0
M  V30 3745 H 352.114 -3.34248 -2.47826 0
M  V30 3746 H 350.99 -4.13027 -3.61524 0
M  V30 3747 H 351.251 -2.3961 -3.71536 0
M  V30 3748 N 350.31 0.590341 -1.46126 0
M  V30 3749 C 351.273 1.68194 -1.55703 0
M  V30 3750 C 352.273 1.54808 -0.434868 0
M  V30 3751 O 353.463 1.59564 -0.698928 0
M  V30 3752 C 350.595 3.07575 -1.47005 0
M  V30 3753 H 351.788 1.61064 -2.52979 0
M  V30 3754 H 349.341 0.807541 -1.33823 0
M  V30 3755 H 350.076 3.20268 -0.509785 0
M  V30 3756 H 349.861 3.187 -2.28414 0
M  V30 3757 H 351.351 3.87055 -1.56776 0
M  V30 3758 N 351.788 1.33704 0.83433 0
M  V30 3759 C 353.204 1.13137 1.12571 0
M  V30 3760 C 353.404 -0.0747261 2.01361 0
M  V30 3761 O 352.46 -0.753647 2.4099 0
M  V30 3762 C 353.773 2.42105 1.78342 0
M  V30 3763 C 355.321 2.48054 1.90888 0
M  V30 3764 C 355.796 3.76995 2.60075 0
M  V30 3765 N 357.287 3.78092 2.67584 0
M  V30 3766 C 358.022 4.74574 3.21818 0
M  V30 3767 N 357.518 5.81434 3.76705 0
M  V30 3768 N 359.311 4.62044 3.20112 0
M  V30 3769 H 351.462 2.11 0.243489 0
M  V30 3770 H 353.725 0.932532 0.17055 0
M  V30 3771 H 353.431 3.30391 1.20561 0
M  V30 3772 H 353.305 2.54594 2.7832 0
M  V30 3773 H 355.692 1.60215 2.47821 0
M  V30 3774 H 355.773 2.39502 0.898459 0
M  V30 3775 H 355.417 4.65219 2.03799 0
M  V30 3776 H 355.347 3.82825 3.61597 0
M  V30 3777 H 357.838 3.00865 2.28667 0
M  V30 3778 H 358.151 6.51084 4.16305 0
M  V30 3779 H 356.496 5.85163 3.7498 0
M  V30 3780 H 359.687 3.77716 2.76493 0
M  V30 3781 H 359.86 5.37406 3.62076 0
M  V30 3782 N 353.266 -1.05314 1.17247 0
M  V30 3783 C 354.229 -2.112 0.890357 0
M  V30 3784 C 355.229 -1.60359 -0.118943 0
M  V30 3785 O 356.419 -1.73833 0.113086 0
M  V30 3786 C 353.551 -3.39266 0.333422 0
M  V30 3787 H 354.744 -2.37659 1.82916 0
M  V30 3788 H 352.297 -1.21538 0.982758 0
M  V30 3789 H 353.032 -3.18462 -0.612587 0
M  V30 3790 H 352.817 -3.77477 1.06082 0
M  V30 3791 H 354.307 -4.17315 0.154322 0
M  V30 3792 N 354.744 -0.972509 -1.24016 0
M  V30 3793 C 355.974 -0.653853 -1.9598 0
M  V30 3794 C 356.382 0.781801 -1.72292 0
M  V30 3795 O 355.725 1.53677 -1.00644 0
M  V30 3796 C 355.787 -0.854608 -3.49194 0
M  V30 3797 C 355.451 -2.27082 -3.96589 0
M  V30 3798 C 356.448 -3.24892 -4.05883 0
M  V30 3799 C 354.133 -2.5998 -4.29786 0
M  V30 3800 C 356.127 -4.53684 -4.47716 0
M  V30 3801 C 353.814 -3.88997 -4.71301 0
M  V30 3802 C 354.812 -4.85661 -4.80232 0
M  V30 3803 O 354.5 -6.12376 -5.20818 0
M  V30 3804 H 354.232 -0.242572 -0.630979 0
M  V30 3805 H 356.786 -1.30431 -1.58673 0
M  V30 3806 H 355.016 -0.146985 -3.86421 0
M  V30 3807 H 356.705 -0.534311 -4.02368 0
M  V30 3808 H 357.471 -3.00805 -3.80449 0
M  V30 3809 H 353.35 -1.85457 -4.22051 0
M  V30 3810 H 356.894 -5.29135 -4.54601 0
M  V30 3811 H 352.791 -4.12882 -4.96184 0
M  V30 3812 H 353.559 -6.16013 -5.38953 0
M  V30 3813 N 356.222 1.38976 -0.743202 0
M  V30 3814 C 357.638 1.53984 -0.419664 0
M  V30 3815 C 357.838 1.70837 1.0685 0
M  V30 3816 O 356.894 1.7135 1.8546 0
M  V30 3817 C 358.207 2.75287 -1.20985 0
M  V30 3818 C 359.755 2.89129 -1.19889 0
M  V30 3819 C 360.23 4.13381 -1.97181 0
M  V30 3820 N 361.721 4.20437 -1.94389 0
M  V30 3821 C 362.456 5.15547 -2.50996 0
M  V30 3822 N 361.952 6.16395 -3.16274 0
M  V30 3823 N 363.745 5.07822 -2.40984 0
M  V30 3824 H 355.896 1.26285 -1.7078 0
M  V30 3825 H 358.159 0.612689 -0.723406 0
M  V30 3826 H 357.865 2.69204 -2.26323 0
M  V30 3827 H 357.739 3.68184 -0.819759 0
M  V30 3828 H 360.126 2.947 -0.153606 0
M  V30 3829 H 360.207 1.97272 -1.62841 0
M  V30 3830 H 359.851 4.08572 -3.01714 0
M  V30 3831 H 359.781 5.04298 -1.51629 0
M  V30 3832 H 362.272 3.48205 -1.46839 0
M  V30 3833 H 362.585 6.85443 -3.56915 0
M  V30 3834 H 360.93 6.16758 -3.20367 0
M  V30 3835 H 364.121 4.27973 -1.89622 0
M  V30 3836 H 364.294 5.81767 -2.85397 0
M  V30 3837 N 357.7 0.491464 1.49741 0
M  V30 3838 C 358.946 -0.0565092 2.02721 0
M  V30 3839 C 359.279 -1.37522 1.37118 0
M  V30 3840 O 358.554 -1.87866 0.503645 0
M  V30 3841 C 358.837 -0.219051 3.59433 0
M  V30 3842 C 358.69 1.12211 4.35579 0
M  V30 3843 C 360.009 -0.964157 4.29409 0
M  V30 3844 H 357.128 -0.0190627 0.736753 0
M  V30 3845 H 359.77 0.641021 1.7886 0
M  V30 3846 H 357.92 -0.813165 3.79895 0
M  V30 3847 H 359.592 1.75437 4.26637 0
M  V30 3848 H 357.835 1.71377 3.98513 0
M  V30 3849 H 358.506 0.961794 5.43556 0
M  V30 3850 H 360.982 -0.460378 4.13545 0
M  V30 3851 H 359.858 -1.04671 5.38828 0
M  V30 3852 H 360.119 -2.00563 3.93988 0
M  V30 3853 N 359.178 -1.55987 0.224894 0
M  V30 3854 C 360.408 -2.02489 -0.41007 0
M  V30 3855 C 360.816 -1.10391 -1.53657 0
M  V30 3856 O 360.159 -0.106458 -1.83391 0
M  V30 3857 C 360.221 -3.45319 -0.999757 0
M  V30 3858 C 359.885 -4.56999 -0.00827976 0
M  V30 3859 C 360.882 -5.13812 0.793314 0
M  V30 3860 C 358.567 -5.02176 0.111442 0
M  V30 3861 C 360.561 -6.14276 1.7013 0
M  V30 3862 C 358.248 -6.02477 1.02296 0
M  V30 3863 C 359.246 -6.58403 1.81643 0
M  V30 3864 O 358.934 -7.56751 2.71262 0
M  V30 3865 H 358.666 -0.667915 -0.104235 0
M  V30 3866 H 361.22 -2.0257 0.339782 0
M  V30 3867 H 359.45 -3.42318 -1.79876 0
M  V30 3868 H 361.139 -3.7545 -1.54248 0
M  V30 3869 H 361.905 -4.79756 0.711288 0
M  V30 3870 H 357.784 -4.58323 -0.49605 0
M  V30 3871 H 361.328 -6.57854 2.32107 0
M  V30 3872 H 357.225 -6.35954 1.10599 0
M  V30 3873 H 357.993 -7.74286 2.65375 0
M  V30 3874 N 360.656 0.0484629 -1.57525 0
M  V30 3875 C 361.886 0.754326 -1.92337 0
M  V30 3876 C 362.294 1.70443 -0.82132 0
M  V30 3877 O 361.637 1.82466 0.21254 0
M  V30 3878 C 361.699 1.58231 -3.22805 0
M  V30 3879 C 361.363 0.799074 -4.4996 0
M  V30 3880 C 362.36 0.1079 -5.19788 0
M  V30 3881 C 360.045 0.759345 -4.96527 0
M  V30 3882 C 362.039 -0.612516 -6.3445 0
M  V30 3883 C 359.726 0.0351713 -6.1109 0
M  V30 3884 C 360.724 -0.649537 -6.79904 0
M  V30 3885 O 360.412 -1.36199 -7.92278 0
M  V30 3886 H 360.144 0.218257 -0.639797 0
M  V30 3887 H 362.698 0.0159295 -2.05394 0
M  V30 3888 H 360.928 2.36406 -3.06021 0
M  V30 3889 H 362.617 2.16898 -3.43089 0
M  V30 3890 H 363.383 0.129748 -4.84826 0
M  V30 3891 H 359.262 1.28177 -4.42822 0
M  V30 3892 H 362.806 -1.14751 -6.88097 0
M  V30 3893 H 358.703 0.0113314 -6.45499 0
M  V30 3894 H 359.471 -1.27366 -8.0853 0
M  V30 3895 N 362.134 1.5431 0.320358 0
M  V30 3896 C 363.359 1.76954 1.08175 0
M  V30 3897 C 363.784 0.518193 1.80821 0
M  V30 3898 O 363.142 -0.530411 1.73368 0
M  V30 3899 C 363.19 2.96451 2.05303 0
M  V30 3900 O 362.294 2.68221 3.13259 0
M  V30 3901 H 361.635 0.586275 0.311733 0
M  V30 3902 H 364.165 2.01342 0.363676 0
M  V30 3903 H 364.175 3.23887 2.48116 0
M  V30 3904 H 362.85 3.87196 1.51829 0
M  V30 3905 H 361.427 2.51744 2.75099 0
M  V30 3906 N 363.613 -0.582584 1.46437 0
M  V30 3907 C 365.024 -1.1647 1.45916 0
M  V30 3908 C 365.375 -1.95177 0.200077 0
M  V30 3909 O 364.5 -2.04874 -0.696819 0
M  V30 3910 C 365.095 -2.11885 2.64367 0
M  V30 3911 C 363.654 -2.65421 2.66887 0
M  V30 3912 C 362.801 -1.41294 2.38603 0
M  V30 3913 H 365.752 -0.370514 1.54314 0
M  V30 3914 H 365.773 -2.9535 2.39892 0
M  V30 3915 H 365.285 -1.54573 3.5599 0
M  V30 3916 H 363.386 -3.26602 1.79338 0
M  V30 3917 H 363.499 -3.08147 3.66854 0
M  V30 3918 H 361.863 -1.71109 1.88663 0
M  V30 3919 H 362.646 -0.858125 3.32402 0
M  V30 3920 N 365.091 -1.34144 -0.827227 0
M  V30 3921 C 366.339 -1.26009 -1.58007 0
M  V30 3922 C 366.66 0.170971 -1.94249 0
M  V30 3923 O 365.93 1.10256 -1.61927 0
M  V30 3924 H 364.51 -0.463414 -0.585881 0
M  V30 3925 H 367.172 -1.68005 -0.987951 0
M  V30 3926 H 366.268 -1.86187 -2.50481 0
M  V30 3927 N 366.569 1.04691 -1.17803 0
M  V30 3928 C 367.98 1.59238 -0.974689 0
M  V30 3929 C 368.331 1.90306 0.477292 0
M  V30 3930 O 367.456 1.68846 1.35352 0
M  V30 3931 C 368.051 2.89318 -1.76296 0
M  V30 3932 C 366.61 3.40506 -1.60414 0
M  V30 3933 C 365.757 2.14172 -1.76141 0
M  V30 3934 H 368.708 0.874395 -1.32439 0
M  V30 3935 H 368.729 3.5944 -1.24833 0
M  V30 3936 H 368.241 2.66675 -2.81968 0
M  V30 3937 H 366.342 3.68175 -0.572519 0
M  V30 3938 H 366.455 4.14753 -2.39827 0
M  V30 3939 H 364.819 2.25176 -1.19028 0
M  V30 3940 H 365.602 1.93992 -2.83235 0
M  V30 3941 N 368.047 0.979072 1.23499 0
M  V30 3942 C 368.994 0.517904 2.24914 0
M  V30 3943 C 369.964 -0.442525 1.60097 0
M  V30 3944 O 371.149 -0.350365 1.87556 0
M  V30 3945 C 368.289 -0.174813 3.44657 0
M  V30 3946 C 367.402 0.825721 4.24035 0
M  V30 3947 C 366.537 0.107946 5.3109 0
M  V30 3948 C 365.576 1.09778 6.02175 0
M  V30 3949 N 364.713 0.40925 7.00906 0
M  V30 3950 H 369.553 1.38751 2.63727 0
M  V30 3951 H 367.09 0.695303 1.2963 0
M  V30 3952 H 369.048 -0.593233 4.12961 0
M  V30 3953 H 367.678 -1.0083 3.06648 0
M  V30 3954 H 366.73 1.36253 3.55161 0
M  V30 3955 H 368.042 1.58005 4.73113 0
M  V30 3956 H 367.196 -0.367904 6.05583 0
M  V30 3957 H 365.935 -0.678994 4.8295 0
M  V30 3958 H 364.94 1.5844 5.26476 0
M  V30 3959 H 366.165 1.88536 6.52404 0
M  V30 3960 H 364.111 -0.358506 6.5502 0
M  V30 3961 H 364.028 1.10226 7.47921 0
M  V30 3962 H 365.296 -0.0442557 7.79487 0
M  V30 3963 N 369.525 -1.3858 0.750561 0
M  V30 3964 C 370.802 -1.94231 0.231009 0
M  V30 3965 C 371.182 -1.68611 -1.27018 0
M  V30 3966 O 370.53 -1.02296 -2.04323 0
M  V30 3967 C 370.74 -3.44123 0.581428 0
M  V30 3968 C 372.088 -4.2116 0.539389 0
M  V30 3969 O 373.112 -3.52391 0.519541 0
M  V30 3970 O 371.971 -5.43749 0.54765 0
M  V30 3971 H 369.065 -0.825639 0.0474263 0
M  V30 3972 H 371.611 -1.4799 0.830478 0
M  V30 3973 H 370.383 -3.56267 1.61833 0
M  V30 3974 H 370.006 -3.97573 -0.0462047 0
M  V30 3975 N 371.003 -0.499398 -1.49478 0
M  V30 3976 C 371.913 0.284489 -2.32869 0
M  V30 3977 C 372.929 0.968885 -1.44529 0
M  V30 3978 O 374.105 0.95062 -1.77553 0
M  V30 3979 C 371.17 1.33594 -3.19928 0
M  V30 3980 C 370.231 0.665149 -4.24116 0
M  V30 3981 C 369.464 1.6665 -5.07014 0
M  V30 3982 O 369.687 2.89618 -4.91404 0
M  V30 3983 O 368.621 1.22271 -5.8935 0
M  V30 3984 H 372.447 -0.39802 -3.01081 0
M  V30 3985 H 370.032 -0.260758 -1.47107 0
M  V30 3986 H 371.914 1.94431 -3.73864 0
M  V30 3987 H 370.589 2.0014 -2.54412 0
M  V30 3988 H 369.496 0.0170769 -3.74096 0
M  V30 3989 H 370.829 0.0421555 -4.92182 0
M  V30 3990 N 372.481 1.55866 -0.233164 0
M  V30 3991 C 373.758 1.90471 0.444988 0
M  V30 3992 C 374.138 1.15209 1.7689 0
M  V30 3993 O 373.486 0.265119 2.26957 0
M  V30 3994 C 373.696 3.4333 0.626559 0
M  V30 3995 C 375.044 4.14319 0.92871 0
M  V30 3996 O 376.068 3.48993 0.712926 0
M  V30 3997 O 374.927 5.29846 1.33887 0
M  V30 3998 H 372.021 0.792347 0.236885 0
M  V30 3999 H 374.567 1.67437 -0.276211 0
M  V30 4000 H 373.339 3.90095 -0.306822 0
M  V30 4001 H 372.962 3.72181 1.39881 0
M  V30 4002 N 373.959 -0.0401083 1.57549 0
M  V30 4003 C 374.869 -1.06133 2.0922 0
M  V30 4004 C 375.885 -1.40356 1.0284 0
M  V30 4005 O 377.061 -1.49897 1.34509 0
M  V30 4006 C 374.126 -2.34658 2.55218 0
M  V30 4007 C 373.187 -2.07117 3.76033 0
M  V30 4008 C 372.42 -3.29514 4.19829 0
M  V30 4009 O 372.643 -4.39794 3.63232 0
M  V30 4010 O 371.577 -3.15863 5.12362 0
M  V30 4011 H 375.403 -0.652244 2.96613 0
M  V30 4012 H 372.988 -0.256368 1.47184 0
M  V30 4013 H 374.87 -3.10239 2.85184 0
M  V30 4014 H 373.545 -2.74883 1.70941 0
M  V30 4015 H 372.452 -1.29139 3.51104 0
M  V30 4016 H 373.785 -1.71754 4.61261 0
M  V30 4017 N 375.437 -1.54477 -0.31217 0
M  V30 4018 C 376.714 -1.63891 -1.06767 0
M  V30 4019 C 377.094 -0.480028 -2.0557 0
M  V30 4020 O 376.442 0.524487 -2.22399 0
M  V30 4021 C 376.652 -3.01402 -1.75948 0
M  V30 4022 C 378 -3.57838 -2.28554 0
M  V30 4023 O 379.024 -3.03782 -1.85998 0
M  V30 4024 O 377.883 -4.52462 -3.06497 0
M  V30 4025 H 374.977 -0.664125 -0.492816 0
M  V30 4026 H 377.523 -1.66823 -0.311149 0
M  V30 4027 H 376.295 -3.77187 -1.04144 0
M  V30 4028 H 375.918 -3.02199 -2.58383 0
M  V30 4029 N 376.915 0.57481 -1.46744 0
M  V30 4030 C 378.145 1.35659 -1.55821 0
M  V30 4031 C 378.553 1.88129 -0.201036 0
M  V30 4032 O 377.896 1.64723 0.813134 0
M  V30 4033 C 377.958 2.57473 -2.50894 0
M  V30 4034 C 377.622 2.26415 -3.9697 0
M  V30 4035 C 378.619 1.84771 -4.85958 0
M  V30 4036 C 376.304 2.38316 -4.42166 0
M  V30 4037 C 378.298 1.55434 -6.18158 0
M  V30 4038 C 375.985 2.08591 -5.74398 0
M  V30 4039 C 376.983 1.67216 -6.62214 0
M  V30 4040 O 376.671 1.37859 -7.91991 0
M  V30 4041 H 376.403 0.420496 -0.529301 0
M  V30 4042 H 378.957 0.704967 -1.92923 0
M  V30 4043 H 377.187 3.25468 -2.08824 0
M  V30 4044 H 378.876 3.19546 -2.50291 0
M  V30 4045 H 379.642 1.75085 -4.52295 0
M  V30 4046 H 375.521 2.69483 -3.74032 0
M  V30 4047 H 379.065 1.23065 -6.86659 0
M  V30 4048 H 374.962 2.17905 -6.07608 0
M  V30 4049 H 375.73 1.51638 -8.04331 0
M  V30 4050 N 378.394 1.34581 0.820102 0
M  V30 4051 C 379.643 1.26437 1.57151 0
M  V30 4052 C 379.956 -0.163111 1.94919 0
M  V30 4053 O 381.162 -0.366722 2.69012 0
M  V30 4054 C 379.618 2.21658 2.83541 0
M  V30 4055 C 379.226 3.69679 2.53065 0
M  V30 4056 C 380.97 2.22428 3.61561 0
M  V30 4057 C 378.877 4.56761 3.75664 0
M  V30 4058 H 377.807 0.469707 0.589823 0
M  V30 4059 H 380.458 1.59763 0.902656 0
M  V30 4060 H 378.84 1.81287 3.52067 0
M  V30 4061 H 380.014 4.18605 1.92631 0
M  V30 4062 H 378.329 3.71384 1.88316 0
M  V30 4063 H 380.926 2.8471 4.52597 0
M  V30 4064 H 381.269 1.22434 3.97889 0
M  V30 4065 H 381.802 2.61259 2.99981 0
M  V30 4066 H 378.541 5.57702 3.44454 0
M  V30 4067 H 378.061 4.12568 4.35371 0
M  V30 4068 H 379.74 4.71509 4.43044 0
M  V30 4069 N 379.872 -1.04064 1.18357 0
M  V30 4070 C 381.118 -1.77528 0.980397 0
M  V30 4071 C 381.451 -1.87948 -0.48879 0
M  V30 4072 O 380.726 -1.3876 -1.36293 0
M  V30 4073 C 381.009 -3.20797 1.63588 0
M  V30 4074 C 380.862 -3.1832 3.17793 0
M  V30 4075 C 382.181 -4.18911 1.34914 0
M  V30 4076 H 379.3 -0.644443 0.357578 0
M  V30 4077 H 381.942 -1.2156 1.46024 0
M  V30 4078 H 380.092 -3.68586 1.22788 0
M  V30 4079 H 381.764 -2.78521 3.67728 0
M  V30 4080 H 380.007 -2.56351 3.49952 0
M  V30 4081 H 380.678 -4.19489 3.58794 0
M  V30 4082 H 383.154 -3.7967 1.70265 0
M  V30 4083 H 382.03 -5.17374 1.83346 0
M  V30 4084 H 382.291 -4.41262 0.272027 0
M  V30 4085 N 381.35 -0.985608 -1.22978 0
M  V30 4086 C 382.627 -0.573599 -1.87001 0
M  V30 4087 C 383.007 0.949213 -1.88555 0
M  V30 4088 O 382.355 1.82811 -1.37086 0
M  V30 4089 C 382.565 -1.18564 -3.28243 0
M  V30 4090 C 383.913 -1.28163 -4.04796 0
M  V30 4091 O 384.937 -1.13949 -3.37482 0
M  V30 4092 O 383.796 -1.50832 -5.25273 0
M  V30 4093 H 380.89 -0.193868 -0.803955 0
M  V30 4094 H 383.436 -1.08102 -1.30813 0
M  V30 4095 H 382.208 -2.22758 -3.21706 0
M  V30 4096 H 381.831 -0.663363 -3.92027 0
M  V30 4097 N 382.828 1.3818 -0.7579 0
M  V30 4098 C 383.778 2.27741 -0.108674 0
M  V30 4099 C 384.762 1.45415 0.688709 0
M  V30 4100 O 385.954 1.68108 0.553956 0
M  V30 4101 C 383.083 3.34313 0.780367 0
M  V30 4102 C 382.169 4.24093 -0.0240977 0
M  V30 4103 N 382.56 4.9451 -1.06271 0
M  V30 4104 C 380.858 4.45542 0.202049 0
M  V30 4105 C 381.559 5.60675 -1.54979 0
M  V30 4106 N 380.535 5.36684 -0.864348 0
M  V30 4107 H 384.337 2.79649 -0.904071 0
M  V30 4108 H 381.851 1.51133 -0.594346 0
M  V30 4109 H 383.848 3.97368 1.26114 0
M  V30 4110 H 382.508 2.83962 1.57467 0
M  V30 4111 H 383.519 4.97345 -1.44459 0
M  V30 4112 H 380.196 4.06091 0.96935 0
M  V30 4113 H 381.586 6.26992 -2.41517 0
M  V30 4114 N 384.306 0.507319 1.49211 0
M  V30 4115 C 385.534 -0.0315749 2.06876 0
M  V30 4116 C 385.949 -1.30241 1.36685 0
M  V30 4117 O 385.306 -1.76937 0.447152 0
M  V30 4118 C 385.357 -0.282627 3.60393 0
M  V30 4119 O 385.078 0.937835 4.27944 0
M  V30 4120 C 386.579 -0.864453 4.3479 0
M  V30 4121 H 383.799 0.0233048 0.670595 0
M  V30 4122 H 386.343 0.706484 1.91909 0
M  V30 4123 H 384.498 -0.97068 3.75042 0
M  V30 4124 H 384.912 0.704567 5.19746 0
M  V30 4125 H 386.386 -0.989664 5.43056 0
M  V30 4126 H 386.863 -1.86382 3.97692 0
M  V30 4127 H 387.469 -0.213672 4.24763 0
M  V30 4128 N 385.784 -1.5574 0.241426 0
M  V30 4129 C 387.033 -1.97986 -0.385295 0
M  V30 4130 C 387.346 -1.13267 -1.59468 0
M  V30 4131 O 388.552 -1.45501 -2.2922 0
M  V30 4132 C 387.008 -3.52275 -0.736884 0
M  V30 4133 C 386.616 -4.45726 0.450796 0
M  V30 4134 C 388.36 -4.03189 -1.3281 0
M  V30 4135 C 386.267 -5.91352 0.0756662 0
M  V30 4136 H 385.197 -0.739386 -0.147731 0
M  V30 4137 H 387.848 -1.80308 0.340779 0
M  V30 4138 H 386.23 -3.65628 -1.52094 0
M  V30 4139 H 387.404 -4.44131 1.22819 0
M  V30 4140 H 385.719 -4.05264 0.956573 0
M  V30 4141 H 388.316 -5.09505 -1.62201 0
M  V30 4142 H 388.659 -3.50212 -2.25071 0
M  V30 4143 H 389.192 -3.93141 -0.607069 0
M  V30 4144 H 385.931 -6.48354 0.965272 0
M  V30 4145 H 385.451 -5.96095 -0.665635 0
M  V30 4146 H 387.13 -6.46084 -0.344075 0
M  V30 4147 N 387.262 0.0317525 -1.57568 0
M  V30 4148 C 388.511 0.722131 -1.8833 0
M  V30 4149 C 388.824 1.76664 -0.839587 0
M  V30 4150 O 390.03 2.50942 -1.03635 0
M  V30 4151 C 388.486 1.33544 -3.34207 0
M  V30 4152 C 388.094 0.327415 -4.46802 0
M  V30 4153 C 389.838 2.00585 -3.7412 0
M  V30 4154 C 387.745 0.948915 -5.83738 0
M  V30 4155 H 386.675 0.273466 -0.702661 0
M  V30 4156 H 389.326 -0.0235811 -1.83485 0
M  V30 4157 H 387.708 2.13077 -3.33788 0
M  V30 4158 H 388.882 -0.441006 -4.58685 0
M  V30 4159 H 387.197 -0.240758 -4.15703 0
M  V30 4160 H 389.794 2.47932 -4.73744 0
M  V30 4161 H 390.137 2.82285 -3.05975 0
M  V30 4162 H 390.67 1.27831 -3.76702 0
M  V30 4163 H 387.409 0.171387 -6.55276 0
M  V30 4164 H 386.929 1.68724 -5.7558 0
M  V30 4165 H 388.608 1.45705 -6.3038 0
M  V30 4166 N 388.74 1.54641 0.303973 0
M  V30 4167 C 389.673 1.80263 1.3993 0
M  V30 4168 C 390.651 0.653657 1.48883 0
M  V30 4169 O 391.835 0.893284 1.6599 0
M  V30 4170 C 388.962 1.9367 2.77866 0
M  V30 4171 C 388.008 3.16078 2.86351 0
M  V30 4172 S 388.841 4.74219 2.4875 0
M  V30 4173 C 389.997 4.90558 3.88721 0
M  V30 4174 H 390.23 2.72886 1.17986 0
M  V30 4175 H 387.763 1.46014 0.501918 0
M  V30 4176 H 389.721 2.0208 3.57315 0
M  V30 4177 H 388.382 1.01991 2.9708 0
M  V30 4178 H 387.575 3.22252 3.87517 0
M  V30 4179 H 387.177 3.06099 2.14893 0
M  V30 4180 H 389.469 4.74398 4.83687 0
M  V30 4181 H 390.412 5.92651 3.87518 0
M  V30 4182 H 390.82 4.18728 3.78585 0
M  V30 4183 N 390.218 -0.567019 1.47046 0
M  V30 4184 C 391.448 -1.34831 1.56538 0
M  V30 4185 C 391.856 -1.8802 0.21101 0
M  V30 4186 O 391.199 -1.65152 -0.804387 0
M  V30 4187 C 391.261 -2.56139 2.52256 0
M  V30 4188 C 390.925 -2.24307 3.98165 0
M  V30 4189 C 391.922 -1.82192 4.86931 0
M  V30 4190 C 389.607 -2.35968 4.43423 0
M  V30 4191 C 391.601 -1.52153 6.18973 0
M  V30 4192 C 389.288 -2.05542 5.75496 0
M  V30 4193 C 390.286 -1.63701 6.63092 0
M  V30 4194 O 389.974 -1.33657 7.92711 0
M  V30 4195 H 389.706 -0.417683 0.531523 0
M  V30 4196 H 392.26 -0.694726 1.93294 0
M  V30 4197 H 390.49 -3.24356 2.10548 0
M  V30 4198 H 392.179 -3.18214 2.51982 0
M  V30 4199 H 392.945 -1.72684 4.53217 0
M  V30 4200 H 388.824 -2.67495 3.75456 0
M  V30 4201 H 392.368 -1.19421 6.87302 0
M  V30 4202 H 388.265 -2.14679 6.08755 0
M  V30 4203 H 389.033 -1.4737 8.05124 0
M  V30 4204 N 391.696 -1.35014 -0.812953 0
M  V30 4205 C 392.626 -1.30069 -1.93919 0
M  V30 4206 C 393.607 -0.176275 -1.69184 0
M  V30 4207 O 394.792 -0.370227 -1.90638 0
M  V30 4208 C 391.922 -1.06547 -3.30552 0
M  V30 4209 C 390.876 -2.15561 -3.69753 0
M  V30 4210 C 390.202 -1.77214 -5.04479 0
M  V30 4211 C 391.502 -3.57476 -3.808 0
M  V30 4212 H 393.196 -2.24303 -1.98314 0
M  V30 4213 H 390.742 -1.07977 -0.952736 0
M  V30 4214 H 392.695 -1.01729 -4.08937 0
M  V30 4215 H 391.419 -0.0875719 -3.26483 0
M  V30 4216 H 390.078 -2.19466 -2.9365 0
M  V30 4217 H 389.726 -0.780589 -4.96906 0
M  V30 4218 H 389.426 -2.50184 -5.31678 0
M  V30 4219 H 390.95 -1.7391 -5.8531 0
M  V30 4220 H 392.364 -3.55929 -4.4943 0
M  V30 4221 H 390.761 -4.29152 -4.19462 0
M  V30 4222 H 391.831 -3.94091 -2.82525 0
M  V30 4223 N 393.175 1.03435 -1.18907 0
M  V30 4224 C 394.424 1.76143 -0.982669 0
M  V30 4225 C 394.737 1.89416 0.487953 0
M  V30 4226 O 395.943 2.59041 0.813036 0
M  V30 4227 C 394.399 3.16722 -1.70924 0
M  V30 4228 C 394.007 3.11522 -3.21959 0
M  V30 4229 C 395.751 3.93764 -1.58588 0
M  V30 4230 C 393.658 4.46999 -3.87228 0
M  V30 4231 H 392.588 0.660292 -0.364047 0
M  V30 4232 H 395.239 1.158 -1.42347 0
M  V30 4233 H 393.621 3.775 -1.19623 0
M  V30 4234 H 394.795 2.60158 -3.80335 0
M  V30 4235 H 393.11 2.47978 -3.34508 0
M  V30 4236 H 395.707 4.93963 -2.04707 0
M  V30 4237 H 396.05 4.12794 -0.539142 0
M  V30 4238 H 396.583 3.39576 -2.07203 0
M  V30 4239 H 393.322 4.33174 -4.91976 0
M  V30 4240 H 392.842 4.98441 -3.33642 0
M  V30 4241 H 394.521 5.15898 -3.90459 0
M  V30 4242 N 394.653 0.992116 1.22453 0
M  V30 4243 C 395.901 0.666215 1.90804 0
M  V30 4244 C 396.222 -0.804152 1.77647 0
M  V30 4245 O 395.492 -1.57629 1.16318 0
M  V30 4246 H 394.072 0.243423 0.706225 0
M  V30 4247 H 396.734 1.25845 1.48825 0
M  V30 4248 H 395.83 0.928069 2.97982 0
M  V30 4249 N 396.131 -1.37776 0.765217 0
M  V30 4250 C 397.542 -1.82521 0.392819 0
M  V30 4251 C 397.893 -1.63789 -1.08017 0
M  V30 4252 O 397.018 -1.14542 -1.83601 0
M  V30 4253 C 397.613 -3.31358 0.706214 0
M  V30 4254 C 396.172 -3.74406 0.386952 0
M  V30 4255 C 395.319 -2.60394 0.953422 0
M  V30 4256 H 398.27 -1.2634 0.960412 0
M  V30 4257 H 398.291 -3.80498 -0.0114706 0
M  V30 4258 H 397.803 -3.44959 1.77833 0
M  V30 4259 H 395.904 -3.66377 -0.678112 0
M  V30 4260 H 396.017 -4.70749 0.890636 0
M  V30 4261 H 394.381 -2.51878 0.378064 0
M  V30 4262 H 395.164 -2.76791 2.03081 0
M  V30 4263 N 397.609 -0.515225 -1.4894 0
M  V30 4264 C 398.886 0.0879088 -1.95402 0
M  V30 4265 C 399.266 1.52745 -1.45712 0
M  V30 4266 O 398.614 2.18238 -0.677093 0
M  V30 4267 C 398.824 -0.0141055 -3.48997 0
M  V30 4268 C 400.172 0.152646 -4.24326 0
M  V30 4269 O 401.196 0.0604025 -3.56149 0
M  V30 4270 O 400.055 0.34384 -5.45417 0
M  V30 4271 H 397.149 0.0874636 -0.822362 0
M  V30 4272 H 399.695 -0.578775 -1.59525 0
M  V30 4273 H 398.467 -1.01745 -3.77841 0
M  V30 4274 H 398.09 0.692091 -3.9153 0
M  V30 4275 N 399.087 1.5561 -0.249682 0
M  V30 4276 C 400.335 1.98618 0.373548 0
M  V30 4277 C 400.656 1.13919 1.58264 0
M  V30 4278 O 399.926 0.222637 1.94631 0
M  V30 4279 H 398.506 0.733571 0.141006 0
M  V30 4280 H 401.168 1.91748 -0.349117 0
M  V30 4281 H 400.264 3.04584 0.680796 0
M  V30 4282 N 400.565 -0.0233959 1.57583 0
M  V30 4283 C 401.475 -1.03907 2.10334 0
M  V30 4284 C 402.491 -1.39257 1.04323 0
M  V30 4285 O 403.667 -1.48462 1.36091 0
M  V30 4286 C 400.732 -2.31938 2.57693 0
M  V30 4287 C 399.793 -2.03117 3.78209 0
M  V30 4288 C 399.026 -3.25043 4.233 0
M  V30 4289 O 399.249 -4.35916 3.67876 0
M  V30 4290 O 398.183 -3.10411 5.15683 0
M  V30 4291 H 402.009 -0.620748 2.97288 0
M  V30 4292 H 399.594 -0.240743 1.47448 0
M  V30 4293 H 401.476 -3.07196 2.88458 0
M  V30 4294 H 400.151 -2.73055 1.73847 0
M  V30 4295 H 399.058 -1.25408 3.52454 0
M  V30 4296 H 400.391 -1.66852 4.63056 0
M  V30 4297 N 402.043 -1.548 -0.295768 0
M  V30 4298 C 403.29 -1.74329 -1.03032 0
M  V30 4299 C 403.618 -0.531915 -1.87085 0
M  V30 4300 O 402.873 0.486052 -1.89568 0
M  V30 4301 C 403.172 -2.98797 -1.961 0
M  V30 4302 C 402.838 -4.32356 -1.2798 0
M  V30 4303 C 401.5 -4.68661 -1.09135 0
M  V30 4304 C 403.852 -5.15128 -0.793243 0
M  V30 4305 C 401.18 -5.85312 -0.403269 0
M  V30 4306 C 403.532 -6.32488 -0.118854 0
M  V30 4307 C 402.196 -6.6745 0.0815043 0
M  V30 4308 H 401.466 -0.637916 -0.37702 0
M  V30 4309 H 404.113 -1.8906 -0.304696 0
M  V30 4310 H 402.418 -2.78869 -2.75207 0
M  V30 4311 H 404.115 -3.11102 -2.53015 0
M  V30 4312 H 400.705 -4.03808 -1.43655 0
M  V30 4313 H 404.889 -4.87575 -0.92653 0
M  V30 4314 H 400.145 -6.1094 -0.237098 0
M  V30 4315 H 404.319 -6.95892 0.266035 0
M  V30 4316 H 401.946 -7.57695 0.616685 0
M  V30 4317 N 403.521 0.559213 -1.47345 0
M  V30 4318 C 404.451 1.67622 -1.62558 0
M  V30 4319 C 405.432 1.63331 -0.475087 0
M  V30 4320 O 406.617 1.80983 -0.704182 0
M  V30 4321 C 403.747 3.0626 -1.63774 0
M  V30 4322 C 402.701 3.25397 -2.7803 0
M  V30 4323 C 402.027 4.64801 -2.64318 0
M  V30 4324 C 403.327 3.10965 -4.19641 0
M  V30 4325 H 405.021 1.55146 -2.56067 0
M  V30 4326 H 402.567 0.744961 -1.23233 0
M  V30 4327 H 404.52 3.84247 -1.73008 0
M  V30 4328 H 403.244 3.1969 -0.66825 0
M  V30 4329 H 401.903 2.49817 -2.68304 0
M  V30 4330 H 401.551 4.75028 -1.65401 0
M  V30 4331 H 401.251 4.78555 -3.40968 0
M  V30 4332 H 402.775 5.44926 -2.75478 0
M  V30 4333 H 404.189 3.78772 -4.30354 0
M  V30 4334 H 402.586 3.36229 -4.97062 0
M  V30 4335 H 403.656 2.07736 -4.38148 0
M  V30 4336 N 404.999 1.35443 0.805782 0
M  V30 4337 C 406.276 1.19325 1.54987 0
M  V30 4338 C 406.656 -0.227294 2.09873 0
M  V30 4339 O 406.004 -1.2309 1.92512 0
M  V30 4340 C 406.214 2.26196 2.65775 0
M  V30 4341 C 407.562 2.62043 3.34094 0
M  V30 4342 O 408.586 2.25115 2.76046 0
M  V30 4343 O 407.445 3.25542 4.38958 0
M  V30 4344 H 404.539 0.463623 0.684823 0
M  V30 4345 H 407.085 1.47127 0.845674 0
M  V30 4346 H 405.857 3.21471 2.23096 0
M  V30 4347 H 405.48 1.99667 3.43829 0
M  V30 4348 N 406.477 -1.02803 1.19454 0
M  V30 4349 C 407.707 -1.79581 1.02149 0
M  V30 4350 C 408.115 -1.84182 -0.432851 0
M  V30 4351 O 407.458 -1.28534 -1.31243 0
M  V30 4352 C 407.52 -3.25993 1.51554 0
M  V30 4353 C 407.184 -3.45025 2.99678 0
M  V30 4354 C 408.181 -3.35175 3.97434 0
M  V30 4355 C 405.866 -3.71212 3.38389 0
M  V30 4356 C 407.86 -3.51238 5.31893 0
M  V30 4357 C 405.547 -3.8692 4.73008 0
M  V30 4358 C 406.545 -3.76936 5.69569 0
M  V30 4359 O 406.233 -3.92179 7.01748 0
M  V30 4360 H 405.965 -0.571962 0.360327 0
M  V30 4361 H 408.519 -1.30367 1.58725 0
M  V30 4362 H 406.749 -3.76235 0.893543 0
M  V30 4363 H 408.438 -3.84368 1.30444 0
M  V30 4364 H 409.204 -3.14895 3.68872 0
M  V30 4365 H 405.083 -3.78075 2.6378 0
M  V30 4366 H 408.627 -3.43362 6.07247 0
M  V30 4367 H 404.524 -4.06699 5.01265 0
M  V30 4368 H 405.292 -4.09265 7.08833 0
M  V30 4369 N 407.956 -0.998596 -1.21925 0
M  V30 4370 C 409.203 -0.677663 -1.90824 0
M  V30 4371 C 409.531 0.790905 -1.77693 0
M  V30 4372 O 408.786 1.58817 -1.14349 0
M  V30 4373 C 409.085 -1.03648 -3.42041 0
M  V30 4374 C 408.751 -2.49825 -3.75364 0
M  V30 4375 C 407.413 -2.8977 -3.8417 0
M  V30 4376 C 409.765 -3.44545 -3.91073 0
M  V30 4377 C 407.093 -4.23412 -4.06127 0
M  V30 4378 C 409.445 -4.77853 -4.14535 0
M  V30 4379 C 408.109 -5.17531 -4.21566 0
M  V30 4380 H 407.379 -0.247975 -0.698276 0
M  V30 4381 H 410.026 -1.25584 -1.44571 0
M  V30 4382 H 408.331 -0.376457 -3.89987 0
M  V30 4383 H 410.028 -0.766113 -3.93614 0
M  V30 4384 H 406.618 -2.17866 -3.69097 0
M  V30 4385 H 410.802 -3.14853 -3.83642 0
M  V30 4386 H 406.058 -4.53734 -4.09799 0
M  V30 4387 H 410.232 -5.51189 -4.25633 0
M  V30 4388 H 407.859 -6.21102 -4.38333 0
M  V30 4389 N 409.434 1.37368 -0.772513 0
M  V30 4390 C 410.682 1.99279 -0.336516 0
M  V30 4391 C 411.003 1.6163 1.09091 0
M  V30 4392 O 410.273 0.882109 1.74916 0
M  V30 4393 H 408.853 0.737063 -0.121435 0
M  V30 4394 H 411.515 1.67836 -0.990809 0
M  V30 4395 H 410.611 3.09332 -0.414763 0
M  V30 4396 N 410.912 0.523116 1.48665 0
M  V30 4397 C 411.844 -0.280421 2.27478 0
M  V30 4398 C 412.857 -0.910694 1.34945 0
M  V30 4399 O 414.046 -0.790295 1.60052 0
M  V30 4400 C 411.146 -1.41171 3.08097 0
M  V30 4401 C 410.319 -0.884642 4.28361 0
M  V30 4402 C 409.378 -1.89622 4.90846 0
M  V30 4403 O 408.404 -1.4559 5.50265 0
M  V30 4404 N 409.606 -3.22801 4.82472 0
M  V30 4405 H 412.371 0.395481 2.97079 0
M  V30 4406 H 409.932 0.357018 1.57915 0
M  V30 4407 H 411.924 -2.08645 3.4677 0
M  V30 4408 H 410.494 -1.99139 2.40961 0
M  V30 4409 H 409.714 -0.0341177 3.94185 0
M  V30 4410 H 411.002 -0.511268 5.06225 0
M  V30 4411 H 410.4 -3.61246 4.35336 0
M  V30 4412 H 408.957 -3.85927 5.25265 0
M  V30 4413 N 412.39 -1.55475 0.257931 0
M  V30 4414 C 413.338 -2.23244 -0.653076 0
M  V30 4415 C 414.332 -1.22366 -1.17144 0
M  V30 4416 O 415.538 -1.40347 -1.12706 0
M  V30 4417 H 411.913 -0.716247 -0.229117 0
M  V30 4418 H 413.884 -2.98343 -0.0584788 0
M  V30 4419 C 412.633 -2.95401 -1.83395 0
M  V30 4420 H 411.956 -3.72802 -1.44424 0
M  V30 4421 H 413.396 -3.46165 -2.44838 0
M  V30 4422 C 411.855 -1.99895 -2.71189 0
M  V30 4423 O 412.385 -1.53909 -3.71046 0
M  V30 4424 N 410.591 -1.6676 -2.3799 0
M  V30 4425 H 410.138 -2.04352 -1.56837 0
M  V30 4426 H 410.096 -1.03127 -2.97005 0
M  V30 4427 N 413.868 0.0150385 -1.57593 0
M  V30 4428 C 414.815 1.01126 -2.07466 0
M  V30 4429 C 415.785 1.35064 -0.966794 0
M  V30 4430 O 416.97 1.4516 -1.23827 0
M  V30 4431 C 414.11 2.30276 -2.57035 0
M  V30 4432 C 413.223 2.02373 -3.81666 0
M  V30 4433 C 412.358 3.25496 -4.19793 0
M  V30 4434 C 411.397 2.93211 -5.37303 0
M  V30 4435 N 410.534 4.08826 -5.70794 0
M  V30 4436 H 415.374 0.57901 -2.92321 0
M  V30 4437 H 412.911 0.27426 -1.44521 0
M  V30 4438 H 414.869 3.05757 -2.83846 0
M  V30 4439 H 413.499 2.71197 -1.75077 0
M  V30 4440 H 412.551 1.17327 -3.61854 0
M  V30 4441 H 413.863 1.74567 -4.67256 0
M  V30 4442 H 413.017 4.09333 -4.47807 0
M  V30 4443 H 411.756 3.56428 -3.32882 0
M  V30 4444 H 410.761 2.07777 -5.09027 0
M  V30 4445 H 411.986 2.63542 -6.25877 0
M  V30 4446 H 409.932 4.39682 -4.86842 0
M  V30 4447 H 409.849 3.84491 -6.50924 0
M  V30 4448 H 411.117 4.93496 -6.03392 0
M  V30 4449 N 415.346 1.54954 0.287554 0
M  V30 4450 C 416.762 1.46469 0.633964 0
M  V30 4451 C 416.962 0.666865 1.90145 0
M  V30 4452 O 416.018 0.179906 2.51858 0
M  V30 4453 C 417.331 2.90556 0.774454 0
M  V30 4454 C 418.879 3.00681 0.869462 0
M  V30 4455 C 419.354 4.45993 1.04184 0
M  V30 4456 N 420.845 4.4976 1.10772 0
M  V30 4457 C 421.58 5.59393 1.25964 0
M  V30 4458 N 421.076 6.78923 1.37968 0
M  V30 4459 N 422.869 5.47107 1.28959 0
M  V30 4460 H 415.02 2.05288 -0.545041 0
M  V30 4461 H 417.283 0.930305 -0.182308 0
M  V30 4462 H 416.989 3.51594 -0.086207 0
M  V30 4463 H 416.863 3.38743 1.6593 0
M  V30 4464 H 419.25 2.39749 1.7206 0
M  V30 4465 H 419.331 2.55769 -0.0396831 0
M  V30 4466 H 418.975 5.07524 0.195422 0
M  V30 4467 H 418.905 4.88548 1.96542 0
M  V30 4468 H 421.396 3.63651 1.02794 0
M  V30 4469 H 421.709 7.58231 1.49353 0
M  V30 4470 H 420.054 6.81763 1.34999 0
M  V30 4471 H 423.245 4.52668 1.19202 0
M  V30 4472 H 423.418 6.32595 1.40455 0
M  V30 4473 N 416.824 -0.551391 1.4764 0
M  V30 4474 C 417.771 -1.65796 1.60563 0
M  V30 4475 C 418.741 -1.59932 0.448428 0
M  V30 4476 O 419.926 -1.78679 0.669222 0
M  V30 4477 C 417.066 -3.04108 1.63133 0
M  V30 4478 C 416.179 -3.20365 2.89811 0
M  V30 4479 C 415.314 -4.49109 2.8368 0
M  V30 4480 C 414.353 -4.58819 4.05156 0
M  V30 4481 N 413.49 -5.78926 3.97227 0
M  V30 4482 H 418.33 -1.54088 2.5507 0
M  V30 4483 H 415.867 -0.75052 1.26513 0
M  V30 4484 H 417.825 -3.84207 1.62606 0
M  V30 4485 H 416.455 -3.14637 0.721341 0
M  V30 4486 H 415.507 -2.33659 3.00179 0
M  V30 4487 H 416.819 -3.23402 3.79753 0
M  V30 4488 H 415.973 -5.37475 2.81434 0
M  V30 4489 H 414.712 -4.4856 1.91431 0
M  V30 4490 H 413.717 -3.68864 4.077 0
M  V30 4491 H 414.942 -4.61124 4.98539 0
M  V30 4492 H 412.888 -5.79314 3.07785 0
M  V30 4493 H 412.805 -5.83367 4.80853 0
M  V30 4494 H 414.073 -6.69637 3.99007 0
M  V30 4495 N 418.302 -1.35869 -0.798587 0
M  V30 4496 C 419.55 -1.29332 -1.55298 0
M  V30 4497 C 419.871 0.129729 -1.94568 0
M  V30 4498 O 419.141 1.06796 -1.6423 0
M  V30 4499 H 417.721 -0.475737 -0.57592 0
M  V30 4500 H 420.383 -1.70062 -0.952093 0
M  V30 4501 H 419.479 -1.91458 -2.46476 0
M  V30 4502 N 419.78 1.02168 -1.19998 0
M  V30 4503 C 420.69 2.14069 -0.959774 0
M  V30 4504 C 421.706 1.73804 0.082655 0
M  V30 4505 O 422.882 2.01133 -0.103633 0
M  V30 4506 C 419.947 3.42936 -0.509459 0
M  V30 4507 C 419.008 3.97474 -1.62213 0
M  V30 4508 C 418.241 5.2019 -1.19321 0
M  V30 4509 O 418.464 5.70369 -0.0597726 0
M  V30 4510 O 417.398 5.67749 -1.99863 0
M  V30 4511 H 421.224 2.37199 -1.89658 0
M  V30 4512 H 418.809 1.12469 -0.983411 0
M  V30 4513 H 420.691 4.20551 -0.267322 0
M  V30 4514 H 419.366 3.21234 0.398821 0
M  V30 4515 H 418.273 3.21161 -1.9185 0
M  V30 4516 H 419.606 4.23555 -2.50723 0
M  V30 4517 N 421.258 1.00505 1.21394 0
M  V30 4518 C 422.507 0.683159 1.89778 0
M  V30 4519 C 422.82 -0.789471 1.7896 0
M  V30 4520 O 424.026 -1.22344 2.42372 0
M  V30 4521 C 422.482 1.17146 3.40301 0
M  V30 4522 C 422.09 2.67017 3.5973 0
M  V30 4523 C 423.834 0.924461 4.14311 0
M  V30 4524 C 421.741 3.09387 5.04017 0
M  V30 4525 H 420.671 0.25183 0.710702 0
M  V30 4526 H 423.322 1.21622 1.37406 0
M  V30 4527 H 421.704 0.566451 3.91928 0
M  V30 4528 H 422.878 3.32968 3.18542 0
M  V30 4529 H 421.193 2.89732 2.99073 0
M  V30 4530 H 423.79 1.21658 5.20676 0
M  V30 4531 H 424.133 -0.139286 4.16067 0
M  V30 4532 H 424.666 1.49226 3.6875 0
M  V30 4533 H 421.405 4.14989 5.07409 0
M  V30 4534 H 420.925 2.48149 5.46061 0
M  V30 4535 H 422.604 3.01371 5.72525 0
M  V30 4536 N 422.737 -1.36956 0.779787 0
M  V30 4537 C 423.7 -2.2851 0.177662 0
M  V30 4538 C 424.7 -1.48393 -0.619377 0
M  V30 4539 O 425.89 -1.68505 -0.441785 0
M  V30 4540 C 423.022 -3.32428 -0.755279 0
M  V30 4541 H 424.215 -2.83269 0.984823 0
M  V30 4542 H 421.768 -1.46358 0.548544 0
M  V30 4543 H 422.503 -2.82808 -1.58714 0
M  V30 4544 H 422.288 -3.91659 -0.185817 0
M  V30 4545 H 423.778 -4.00824 -1.17174 0
M  V30 4546 N 424.215 -0.530993 -1.48385 0
M  V30 4547 C 425.178 0.220497 -2.28137 0
M  V30 4548 C 426.178 0.866851 -1.35434 0
M  V30 4549 O 427.368 0.726746 -1.58316 0
M  V30 4550 C 424.5 1.31921 -3.1434 0
M  V30 4551 H 425.693 -0.479714 -2.96038 0
M  V30 4552 H 423.246 -0.286968 -1.53643 0
M  V30 4553 H 423.981 2.05264 -2.51072 0
M  V30 4554 H 423.766 0.86085 -3.82533 0
M  V30 4555 H 425.256 1.84776 -3.74497 0
M  V30 4556 N 425.693 1.55336 -0.266172 0
M  V30 4557 C 426.918 2.04258 0.359661 0
M  V30 4558 C 427.343 1.14359 1.49344 0
M  V30 4559 O 426.701 0.140369 1.80756 0
M  V30 4560 C 426.749 3.50997 0.826635 0
M  V30 4561 O 425.853 3.64204 1.93466 0
M  V30 4562 H 425.194 0.659668 0.075727 0
M  V30 4563 H 427.724 2.00694 -0.39786 0
M  V30 4564 H 427.734 3.9219 1.12477 0
M  V30 4565 H 426.409 4.159 -0.00293032 0
M  V30 4566 H 424.986 3.34913 1.63974 0
M  V30 4567 N 427.171 -0.0066808 1.57599 0
M  V30 4568 C 428.42 -0.692078 1.89455 0
M  V30 4569 C 428.733 -1.75306 0.867586 0
M  V30 4570 O 429.939 -2.49262 1.07614 0
M  V30 4571 C 428.395 -1.2821 3.36289 0
M  V30 4572 C 428.003 -0.256291 4.47266 0
M  V30 4573 C 429.747 -1.94608 3.77264 0
M  V30 4574 C 427.654 -0.855927 5.85173 0
M  V30 4575 H 426.584 -0.262252 0.706923 0
M  V30 4576 H 429.235 0.052769 1.83424 0
M  V30 4577 H 427.617 -2.0774 3.37135 0
M  V30 4578 H 428.791 0.513923 4.57925 0
M  V30 4579 H 427.106 0.306862 4.15268 0
M  V30 4580 H 429.703 -2.40364 4.77629 0
M  V30 4581 H 430.046 -2.77382 3.10427 0
M  V30 4582 H 430.579 -1.21822 3.78688 0
M  V30 4583 H 427.318 -0.0671161 6.55466 0
M  V30 4584 H 426.838 -1.59546 5.78191 0
M  V30 4585 H 428.517 -1.35658 6.32618 0
M  V30 4586 N 428.649 -1.55105 -0.279332 0
M  V30 4587 C 429.612 -1.86783 -1.32834 0
M  V30 4588 C 430.612 -0.74199 -1.42657 0
M  V30 4589 O 431.802 -1.0102 -1.41918 0
M  V30 4590 C 428.934 -2.06746 -2.71052 0
M  V30 4591 H 430.127 -2.8055 -1.05979 0
M  V30 4592 H 427.68 -1.47499 -0.517087 0
M  V30 4593 H 428.415 -1.15339 -3.03097 0
M  V30 4594 H 428.2 -2.88711 -2.65309 0
M  V30 4595 H 429.69 -2.32549 -3.46858 0
M  V30 4596 N 430.127 0.543554 -1.4793 0
M  V30 4597 C 431.355 1.32516 -1.58894 0
M  V30 4598 C 431.77 1.87215 -0.244131 0
M  V30 4599 O 431.127 1.65709 0.764652 0
M  V30 4600 C 431.178 2.48554 -2.62494 0
M  V30 4601 O 430.899 1.96112 -3.91755 0
M  V30 4602 C 432.4 3.40572 -2.8377 0
M  V30 4603 H 429.62 0.403472 -0.536145 0
M  V30 4604 H 432.164 0.657106 -1.93655 0
M  V30 4605 H 430.319 3.1127 -2.30629 0
M  V30 4606 H 430.733 2.71967 -4.4848 0
M  V30 4607 H 432.207 4.18375 -3.60093 0
M  V30 4608 H 432.684 3.94965 -1.92092 0
M  V30 4609 H 433.29 2.8366 -3.16887 0
M  V30 4610 N 431.605 1.3629 0.791371 0
M  V30 4611 C 432.555 1.26988 1.89362 0
M  V30 4612 C 433.539 0.161795 1.60084 0
M  V30 4613 O 434.731 0.394426 1.72549 0
M  V30 4614 C 431.86 1.05944 3.26544 0
M  V30 4615 C 430.946 2.21211 3.61838 0
M  V30 4616 N 431.337 3.46518 3.68455 0
M  V30 4617 C 429.635 2.12933 3.91887 0
M  V30 4618 C 430.336 4.2241 3.99931 0
M  V30 4619 N 429.312 3.51329 4.14812 0
M  V30 4620 H 433.114 2.21908 1.92702 0
M  V30 4621 H 430.628 1.28982 0.986787 0
M  V30 4622 H 432.625 0.973666 4.05371 0
M  V30 4623 H 431.285 0.119223 3.24481 0
M  V30 4624 H 432.296 3.80677 3.51148 0
M  V30 4625 H 428.973 1.26855 3.97761 0
M  V30 4626 H 430.363 5.30767 4.1199 0
M  V30 4627 N 433.083 -1.0153 1.20538 0
M  V30 4628 C 434.016 -2.09759 0.898695 0
M  V30 4629 C 434.994 -1.61909 -0.149733 0
M  V30 4630 O 436.178 -1.88486 -0.0230293 0
M  V30 4631 C 433.305 -3.36913 0.347512 0
M  V30 4632 C 432.351 -4.03655 1.37713 0
M  V30 4633 S 433.184 -4.47402 2.94265 0
M  V30 4634 C 434.34 -5.77756 2.40726 0
M  V30 4635 H 434.573 -2.3545 1.81523 0
M  V30 4636 H 432.106 -1.14665 1.03399 0
M  V30 4637 H 434.064 -4.10484 0.0360518 0
M  V30 4638 H 432.725 -3.09291 -0.547546 0
M  V30 4639 H 431.918 -4.9514 0.940872 0
M  V30 4640 H 431.52 -3.36313 1.63614 0
M  V30 4641 H 433.812 -6.52994 1.80569 0
M  V30 4642 H 434.755 -6.2618 3.30612 0
M  V30 4643 H 435.163 -5.34081 1.82806 0
M  V30 4644 N 434.561 -1.01147 -1.20859 0
M  V30 4645 C 435.977 -0.725422 -1.42161 0
M  V30 4646 C 436.177 0.696919 -1.89064 0
M  V30 4647 O 435.233 1.46539 -2.05627 0
M  V30 4648 C 436.546 -1.74678 -2.44761 0
M  V30 4649 C 438.094 -1.76433 -2.58535 0
M  V30 4650 C 438.569 -2.77481 -3.64374 0
M  V30 4651 N 440.06 -2.76189 -3.71852 0
M  V30 4652 C 440.795 -3.51035 -4.53389 0
M  V30 4653 N 440.291 -4.35541 -5.38773 0
M  V30 4654 N 442.084 -3.39655 -4.47873 0
M  V30 4655 H 434.235 -1.92979 -0.887282 0
M  V30 4656 H 436.498 -0.833327 -0.451962 0
M  V30 4657 H 436.204 -2.76551 -2.17285 0
M  V30 4658 H 436.078 -1.55472 -3.43669 0
M  V30 4659 H 438.465 -0.75248 -2.85345 0
M  V30 4660 H 438.546 -1.99712 -1.5984 0
M  V30 4661 H 438.19 -3.78827 -3.38308 0
M  V30 4662 H 438.12 -2.51466 -4.6268 0
M  V30 4663 H 440.611 -2.14885 -3.10858 0
M  V30 4664 H 440.924 -4.89432 -5.98061 0
M  V30 4665 H 439.269 -4.39621 -5.38292 0
M  V30 4666 H 442.46 -2.73063 -3.80203 0
M  V30 4667 H 442.633 -3.9824 -5.11184 0
M  V30 4668 N 436.039 1.36541 -0.78704 0
M  V30 4669 C 437.45 1.81873 -0.421807 0
M  V30 4670 C 437.801 1.65487 1.05397 0
M  V30 4671 O 436.926 1.17448 1.81755 0
M  V30 4672 C 437.521 3.30192 -0.758841 0
M  V30 4673 C 436.08 3.73743 -0.446468 0
M  V30 4674 C 435.227 2.58844 -0.994728 0
M  V30 4675 H 438.178 1.24796 -0.98039 0
M  V30 4676 H 438.199 3.80468 -0.0490648 0
M  V30 4677 H 437.711 3.42087 -1.83299 0
M  V30 4678 H 435.812 3.6741 0.619739 0
M  V30 4679 H 435.925 4.69272 -0.965415 0
M  V30 4680 H 434.289 2.51245 -0.418087 0
M  V30 4681 H 435.072 2.73525 -2.07458 0
M  V30 4682 N 437.518 0.538854 1.48102 0
M  V30 4683 C 438.748 0.0122958 2.06596 0
M  V30 4684 C 439.156 -1.27861 1.39457 0
M  V30 4685 O 438.499 -1.77348 0.478907 0
M  V30 4686 C 438.561 -0.273131 3.58461 0
M  V30 4687 C 438.225 0.92561 4.47528 0
M  V30 4688 C 439.222 1.82637 4.86765 0
M  V30 4689 C 436.907 1.13511 4.89306 0
M  V30 4690 C 438.901 2.92047 5.66558 0
M  V30 4691 C 436.588 2.23233 5.68868 0
M  V30 4692 C 437.586 3.12333 6.07402 0
M  V30 4693 O 437.274 4.20155 6.85365 0
M  V30 4694 H 437.006 0.0344283 0.675123 0
M  V30 4695 H 439.56 0.746494 1.91355 0
M  V30 4696 H 437.79 -1.06141 3.71848 0
M  V30 4697 H 439.479 -0.742842 3.99045 0
M  V30 4698 H 440.245 1.67649 4.55103 0
M  V30 4699 H 436.124 0.450835 4.5879 0
M  V30 4700 H 439.668 3.6162 5.96554 0
M  V30 4701 H 435.565 2.38201 5.99942 0
M  V30 4702 H 436.333 4.17975 7.03732 0
M  V30 4703 N 438.996 -1.55193 0.274407 0
M  V30 4704 C 440.412 -1.59401 -0.0797543 0
M  V30 4705 C 440.612 -1.29162 -1.54659 0
M  V30 4706 O 439.668 -1.05215 -2.29534 0
M  V30 4707 C 440.981 -2.99257 0.294238 0
M  V30 4708 C 442.529 -3.12072 0.240796 0
M  V30 4709 C 443.004 -4.54194 0.589218 0
M  V30 4710 N 444.495 -4.60033 0.540744 0
M  V30 4711 C 445.23 -5.68027 0.783147 0
M  V30 4712 N 444.726 -6.8417 1.09013 0
M  V30 4713 N 446.519 -5.57572 0.711993 0
M  V30 4714 H 438.67 -1.73113 1.23067 0
M  V30 4715 H 440.933 -0.807197 0.497129 0
M  V30 4716 H 440.639 -3.26217 1.31435 0
M  V30 4717 H 440.513 -3.75427 -0.365281 0
M  V30 4718 H 442.9 -2.84877 -0.770024 0
M  V30 4719 H 442.981 -2.38117 0.934563 0
M  V30 4720 H 442.625 -4.82115 1.59772 0
M  V30 4721 H 442.555 -5.26448 -0.126331 0
M  V30 4722 H 445.046 -3.76599 0.313327 0
M  V30 4723 H 445.359 -7.6243 1.26178 0
M  V30 4724 H 443.704 -6.85787 1.12789 0
M  V30 4725 H 446.895 -4.65714 0.472014 0
M  V30 4726 H 447.068 -6.41659 0.90429 0
M  V30 4727 N 440.474 -0.00167713 -1.576 0
M  V30 4728 C 441.421 0.989195 -2.08527 0
M  V30 4729 C 442.391 1.34031 -0.981065 0
M  V30 4730 O 443.576 1.43839 -1.2536 0
M  V30 4731 C 440.716 2.27537 -2.59463 0
M  V30 4732 C 439.829 1.98314 -3.83791 0
M  V30 4733 C 438.964 3.21025 -4.23222 0
M  V30 4734 C 438.003 2.87495 -5.40382 0
M  V30 4735 N 437.14 4.02749 -5.75098 0
M  V30 4736 H 441.98 0.547973 -2.92919 0
M  V30 4737 H 439.517 0.258917 -1.44803 0
M  V30 4738 H 441.475 3.02729 -2.87073 0
M  V30 4739 H 440.105 2.69325 -1.77943 0
M  V30 4740 H 439.157 1.13482 -3.63078 0
M  V30 4741 H 440.469 1.69601 -4.69081 0
M  V30 4742 H 439.623 4.04561 -4.52123 0
M  V30 4743 H 438.362 3.52877 -3.36644 0
M  V30 4744 H 437.367 2.02367 -5.11202 0
M  V30 4745 H 438.592 2.56889 -6.28637 0
M  V30 4746 H 436.538 4.34494 -4.91478 0
M  V30 4747 H 436.455 3.77566 -6.54966 0
M  V30 4748 H 437.723 4.87068 -6.08592 0
M  V30 4749 N 441.952 1.55251 0.271103 0
M  V30 4750 C 442.899 1.88261 1.33516 0
M  V30 4751 C 443.869 0.734296 1.48988 0
M  V30 4752 O 445.054 0.985741 1.63364 0
M  V30 4753 C 442.194 2.16168 2.69008 0
M  V30 4754 C 441.307 3.43678 2.61743 0
M  V30 4755 C 440.442 3.61276 3.89427 0
M  V30 4756 C 439.481 4.82472 3.7668 0
M  V30 4757 N 438.618 4.96717 4.96202 0
M  V30 4758 H 443.458 2.79015 1.04665 0
M  V30 4759 H 440.995 1.38137 0.505618 0
M  V30 4760 H 442.953 2.30349 3.47844 0
M  V30 4761 H 441.583 1.28646 2.96057 0
M  V30 4762 H 440.635 3.37959 1.74607 0
M  V30 4763 H 441.947 4.3265 2.48224 0
M  V30 4764 H 441.101 3.75284 4.76704 0
M  V30 4765 H 439.84 2.70492 4.05814 0
M  V30 4766 H 438.845 4.68465 2.87786 0
M  V30 4767 H 440.07 5.74692 3.61809 0
M  V30 4768 H 438.016 4.08865 5.12997 0
M  V30 4769 H 437.933 5.79738 4.85222 0
M  V30 4770 H 439.201 5.15113 5.85046 0
M  V30 4771 N 443.43 -0.535701 1.48216 0
M  V30 4772 C 444.655 -1.32149 1.59848 0
M  V30 4773 C 445.08 -1.86338 0.256842 0
M  V30 4774 O 444.438 -1.64107 -0.770632 0
M  V30 4775 C 444.486 -2.45224 2.64381 0
M  V30 4776 O 443.59 -3.48093 2.21144 0
M  V30 4777 H 442.931 -0.391634 0.536208 0
M  V30 4778 H 445.461 -0.645202 1.94161 0
M  V30 4779 H 445.471 -2.91491 2.85476 0
M  V30 4780 H 444.146 -2.05143 3.61786 0
M  V30 4781 H 442.723 -3.07984 2.10239 0
M  V30 4782 O 444.947 -1.46458 -0.680617 0
M  V30 4783 H 445.638 -1.40531 -1.33307 0
M  V30 END ATOM
M  V30 BEGIN BOND
M  V30 END BOND
M  V30 END CTAB
M  END
$$$$
